drugbank_target|O75912 Diacylglycerol kinase iota (DB14001)
 OpenBabel12092121233D

  0  0  0     0  0            999 V3000
M  V30 BEGIN CTAB
M  V30 COUNTS 16339 16521 0 0 0
M  V30 BEGIN ATOM
M  V30 1 H -0.908 1.98254 -0.117106 0
M  V30 2 N 0 1.576 0 0
M  V30 3 C 0.933 2.03868 1.02534 0
M  V30 4 C 1.911 0.928543 1.3348 0
M  V30 5 O 3.095 1.19667 1.45644 0
M  V30 6 C 0.222 2.43627 2.35294 0
M  V30 7 C -0.732 3.65373 2.2001 0
M  V30 8 S 0.101 5.13292 1.52614 0
M  V30 9 C 1.257 5.56322 2.86805 0
M  V30 10 H 1.49 2.90518 0.631377 0
M  V30 11 H -0.977 1.52953 0.210867 0
M  V30 12 H 0.981 2.67203 3.11629 0
M  V30 13 H -0.358 1.57376 2.7183 0
M  V30 14 H -1.165 3.90944 3.18086 0
M  V30 15 H -1.563 3.418 1.51819 0
M  V30 16 H 0.729 5.58782 3.83104 0
M  V30 17 H 1.672 6.56266 2.65933 0
M  V30 18 H 2.08 4.83886 2.90714 0
M  V30 19 N 1.4781 -0.272755 1.55222 0
M  V30 20 C 2.7551 -1.02562 1.66555 0
M  V30 21 C 3.1351 -2.04282 0.532189 0
M  V30 22 O 2.4831 -2.23662 -0.467717 0
M  V30 23 C 2.6931 -1.6822 3.05782 0
M  V30 24 C 4.0411 -2.19373 3.63539 0
M  V30 25 O 5.0651 -1.78206 3.08417 0
M  V30 26 O 3.9241 -2.94883 4.60115 0
M  V30 27 H 1.0181 -0.475755 0.676451 0
M  V30 28 H 3.5641 -0.268593 1.67561 0
M  V30 29 H 2.3361 -0.945112 3.79715 0
M  V30 30 H 1.9591 -2.50609 3.08676 0
M  V30 31 N 2.9562 -1.48159 -0.537278 0
M  V30 32 C 3.9192 -1.61665 -1.62472 0
M  V30 33 C 4.9192 -0.490395 -1.5314 0
M  V30 34 O 6.1092 -0.755998 -1.5694 0
M  V30 35 C 3.2412 -1.57997 -3.02076 0
M  V30 36 H 4.4342 -2.58621 -1.51839 0
M  V30 37 H 1.9872 -1.36647 -0.758771 0
M  V30 38 H 2.7222 -0.624913 -3.18222 0
M  V30 39 H 2.5072 -2.39755 -3.10258 0
M  V30 40 H 3.9972 -1.70627 -3.81151 0
M  V30 41 N 4.4343 0.785586 -1.36625 0
M  V30 42 C 5.3973 1.87999 -1.31107 0
M  V30 43 C 6.3973 1.59316 -0.217959 0
M  V30 44 O 7.5873 1.67656 -0.472977 0
M  V30 45 C 4.7193 3.24861 -1.03334 0
M  V30 46 H 5.9123 1.94307 -2.2844 0
M  V30 47 H 3.4653 0.983813 -1.21453 0
M  V30 48 H 4.2003 3.24235 -0.0647432 0
M  V30 49 H 3.9853 3.4707 -1.82441 0
M  V30 50 H 5.4753 4.04929 -1.02088 0
M  V30 51 N 5.9124 1.20967 1.01018 0
M  V30 52 C 7.1604 1.02172 1.74371 0
M  V30 53 C 7.4814 -0.446414 1.89821 0
M  V30 54 O 6.7514 -1.32234 1.44537 0
M  V30 55 H 5.3314 0.375066 0.646014 0
M  V30 56 H 7.9934 1.52187 1.21758 0
M  V30 57 H 7.0894 1.48538 2.74487 0
M  V30 58 N 7.3905 -1.2043 1.01659 0
M  V30 59 C 8.8065 -1.41852 0.731442 0
M  V30 60 C 9.0065 -1.89358 -0.688898 0
M  V30 61 O 8.0625 -2.06247 -1.45666 0
M  V30 62 C 9.3755 -2.44019 1.75714 0
M  V30 63 C 10.9235 -2.57785 1.77527 0
M  V30 64 C 11.3985 -3.63194 2.79023 0
M  V30 65 N 12.8895 -3.70678 2.77763 0
M  V30 66 C 13.6245 -4.51897 3.52954 0
M  V30 67 N 13.1205 -5.36921 4.37821 0
M  V30 68 N 14.9135 -4.4643 3.41551 0
M  V30 69 H 7.0645 -0.879093 1.93354 0
M  V30 70 H 9.3275 -0.448425 0.835236 0
M  V30 71 H 9.0335 -2.1611 2.77469 0
M  V30 72 H 8.9075 -3.43007 1.56927 0
M  V30 73 H 11.2945 -2.85023 0.764569 0
M  V30 74 H 11.3755 -1.58992 2.00387 0
M  V30 75 H 11.0195 -3.36699 3.80258 0
M  V30 76 H 10.9495 -4.61609 2.53425 0
M  V30 77 H 13.4405 -3.09944 2.16201 0
M  V30 78 H 13.7535 -5.95981 4.91962 0
M  V30 79 H 12.0985 -5.36424 4.41899 0
M  V30 80 H 15.2895 -3.79042 2.74672 0
M  V30 81 H 15.4625 -5.09491 4.00404 0
M  V30 82 N 8.8686 -0.792821 -1.36206 0
M  V30 83 C 10.1166 -0.366062 -1.98757 0
M  V30 84 C 10.4376 1.0668 -1.63231 0
M  V30 85 O 9.7076 1.73587 -0.907978 0
M  V30 86 H 8.2876 -0.132364 -0.735179 0
M  V30 87 H 10.9496 -1.01562 -1.66347 0
M  V30 88 H 10.0456 -0.460638 -3.08682 0
M  V30 89 N 10.3467 1.47872 -0.545128 0
M  V30 90 C 11.5867 2.04391 -0.0187854 0
M  V30 91 C 11.9507 1.41162 1.30144 0
M  V30 92 O 13.1517 1.88656 1.91474 0
M  V30 93 C 11.4227 3.57299 0.0850867 0
M  V30 94 S 12.9817 4.35221 0.559302 0
M  V30 95 H 9.7997 0.710737 -0.0193301 0
M  V30 96 H 12.4017 1.81395 -0.729125 0
M  V30 97 H 11.1057 4.00847 -0.880351 0
M  V30 98 H 10.6367 3.84773 0.819348 0
M  V30 99 H 12.6517 4.61571 1.82118 0
M  V30 100 N 11.8248 0.280983 1.55075 0
M  V30 101 C 12.7748 -0.618585 2.19448 0
M  V30 102 C 13.7588 -1.11401 1.16098 0
M  V30 103 O 14.9508 -1.0581 1.41891 0
M  V30 104 C 12.0798 -1.79951 2.92357 0
M  V30 105 C 11.1658 -1.321 4.03002 0
M  V30 106 N 11.5568 -0.559044 5.02701 0
M  V30 107 C 9.8548 -1.60346 4.16179 0
M  V30 108 C 10.5558 -0.306722 5.80891 0
M  V30 109 N 9.5318 -0.880825 5.36416 0
M  V30 110 H 13.3338 -0.0286638 2.93886 0
M  V30 111 H 10.8478 0.0848104 1.62178 0
M  V30 112 H 12.8448 -2.45531 3.36927 0
M  V30 113 H 11.5048 -2.39333 2.19431 0
M  V30 114 H 12.5158 -0.205827 5.17491 0
M  V30 115 H 9.1928 -2.20621 3.54447 0
M  V30 116 H 10.5828 0.30391 6.71212 0
M  V30 117 N 13.3029 -1.57598 0.00835791 0
M  V30 118 C 14.2329 -2.1198 -0.979113 0
M  V30 119 C 15.2139 -1.03091 -1.35301 0
M  V30 120 O 16.3989 -1.30818 -1.43528 0
M  V30 121 C 13.5289 -2.62995 -2.26828 0
M  V30 122 C 12.4829 -3.76485 -2.03576 0
M  V30 123 C 11.8089 -4.13846 -3.38579 0
M  V30 124 C 13.1089 -5.0342 -1.39161 0
M  V30 125 H 14.8029 -2.94738 -0.526281 0
M  V30 126 H 12.3489 -1.41783 -0.251704 0
M  V30 127 H 14.3019 -2.99669 -2.96271 0
M  V30 128 H 13.0259 -1.7737 -2.7424 0
M  V30 129 H 11.6849 -3.40217 -1.36557 0
M  V30 130 H 11.3329 -3.25232 -3.83709 0
M  V30 131 H 11.0329 -4.90312 -3.23834 0
M  V30 132 H 12.5569 -4.53086 -4.09323 0
M  V30 133 H 13.9709 -5.37812 -1.98573 0
M  V30 134 H 12.3679 -5.84746 -1.34878 0
M  V30 135 H 13.4379 -4.83548 -0.361868 0
M  V30 136 N 14.781 0.264519 -1.55364 0
M  V30 137 C 15.711 1.33121 -1.91836 0
M  V30 138 C 16.692 1.51101 -0.781192 0
M  V30 139 O 17.877 1.64003 -1.04003 0
M  V30 140 C 15.007 2.68921 -2.19769 0
M  V30 141 C 13.961 2.65661 -3.35571 0
M  V30 142 C 13.287 4.05093 -3.49004 0
M  V30 143 C 14.587 2.24187 -4.71739 0
M  V30 144 H 16.281 1.02844 -2.81182 0
M  V30 145 H 13.827 0.493286 -1.35287 0
M  V30 146 H 15.78 3.43663 -2.43872 0
M  V30 147 H 14.504 3.00799 -1.27231 0
M  V30 148 H 13.163 1.93377 -3.1145 0
M  V30 149 H 12.811 4.34206 -2.53917 0
M  V30 150 H 12.511 4.03804 -4.26868 0
M  V30 151 H 14.035 4.81561 -3.75408 0
M  V30 152 H 15.449 2.88654 -4.9533 0
M  V30 153 H 13.846 2.34044 -5.52579 0
M  V30 154 H 14.916 1.19327 -4.69988 0
M  V30 155 N 16.2591 1.48442 0.529413 0
M  V30 156 C 17.6701 1.5002 1.11134 0
M  V30 157 C 18.0211 0.27031 1.94329 0
M  V30 158 O 17.1461 -0.622507 2.07253 0
M  V30 159 C 17.7411 2.71834 2.02217 0
M  V30 160 C 16.3001 2.76283 2.55627 0
M  V30 161 C 15.4471 2.43542 1.326 0
M  V30 162 H 18.3981 1.5555 0.314641 0
M  V30 163 H 18.4191 2.50384 2.8651 0
M  V30 164 H 17.9311 3.61331 1.41639 0
M  V30 165 H 16.0321 1.90995 3.19924 0
M  V30 166 H 16.1451 3.77725 2.94721 0
M  V30 167 H 14.5091 1.94709 1.64196 0
M  V30 168 H 15.2921 3.3528 0.737734 0
M  V30 169 N 17.7372 -0.778329 1.37039 0
M  V30 170 C 18.6672 -1.90546 1.34962 0
M  V30 171 C 19.6482 -1.68681 0.219274 0
M  V30 172 O 20.8332 -1.89634 0.418624 0
M  V30 173 C 17.9632 -3.27734 1.14925 0
M  V30 174 C 16.9172 -3.64147 2.24902 0
M  V30 175 C 16.2432 -4.99806 1.89996 0
M  V30 176 C 17.5432 -3.71579 3.67051 0
M  V30 177 H 19.2372 -1.92541 2.29277 0
M  V30 178 H 16.7832 -0.924948 1.10366 0
M  V30 179 H 18.7362 -4.06215 1.12104 0
M  V30 180 H 17.4602 -3.26154 0.170631 0
M  V30 181 H 16.1192 -2.8797 2.26868 0
M  V30 182 H 15.7672 -4.94759 0.906796 0
M  V30 183 H 15.4672 -5.25139 2.63634 0
M  V30 184 H 16.9912 -5.80694 1.88749 0
M  V30 185 H 18.4052 -4.40227 3.67251 0
M  V30 186 H 16.8022 -4.08405 4.39688 0
M  V30 187 H 17.8722 -2.72404 4.01154 0
M  V30 188 N 19.2153 -1.21501 -1.00376 0
M  V30 189 C 20.6263 -1.03146 -1.55621 0
M  V30 190 C 20.9773 0.408375 -1.91903 0
M  V30 191 O 20.1023 1.29177 -1.73616 0
M  V30 192 C 20.6973 -1.86612 -2.82775 0
M  V30 193 C 19.2563 -1.72586 -3.34501 0
M  V30 194 C 18.4033 -1.83747 -2.07683 0
M  V30 195 H 21.3543 -1.35505 -0.826081 0
M  V30 196 H 21.3753 -1.3771 -3.54706 0
M  V30 197 H 20.8873 -2.91399 -2.56336 0
M  V30 198 H 18.9883 -0.704877 -3.65872 0
M  V30 199 H 19.1013 -2.54623 -4.05837 0
M  V30 200 H 17.4653 -1.27069 -2.20739 0
M  V30 201 H 18.2483 -2.90044 -1.83655 0
M  V30 202 N 20.6934 1.19889 -1.02296 0
M  V30 203 C 21.6564 2.21116 -0.603351 0
M  V30 204 C 22.6564 1.5738 0.329884 0
M  V30 205 O 23.8464 1.73802 0.117702 0
M  V30 206 C 20.9784 3.40696 0.117992 0
M  V30 207 H 22.1714 2.59754 -1.49893 0
M  V30 208 H 19.7244 1.33463 -0.813468 0
M  V30 209 H 20.4594 3.07569 1.0282 0
M  V30 210 H 20.2444 3.88188 -0.552511 0
M  V30 211 H 21.7344 4.15692 0.398696 0
M  V30 212 N 22.1715 0.800033 1.35784 0
M  V30 213 C 23.1345 0.211565 2.28221 0
M  V30 214 C 24.1345 -0.59728 1.49296 0
M  V30 215 O 25.3245 -0.416721 1.69142 0
M  V30 216 C 22.4565 -0.705846 3.33513 0
M  V30 217 H 23.6495 1.02677 2.81776 0
M  V30 218 H 21.2025 0.570211 1.45528 0
M  V30 219 H 21.9375 -1.54498 2.85133 0
M  V30 220 H 21.7225 -0.127655 3.91892 0
M  V30 221 H 23.2125 -1.11211 4.02519 0
M  V30 222 N 23.6496 -1.47581 0.552962 0
M  V30 223 C 25.0656 -1.5818 0.212424 0
M  V30 224 C 25.2656 -1.55213 -1.28496 0
M  V30 225 O 24.3216 -1.45329 -2.06484 0
M  V30 226 C 25.6346 -2.88865 0.835318 0
M  V30 227 C 27.1826 -3.0244 0.806156 0
M  V30 228 C 27.6576 -4.35819 1.40804 0
M  V30 229 N 29.1486 -4.42444 1.37103 0
M  V30 230 C 29.8836 -5.44202 1.80641 0
M  V30 231 N 29.3796 -6.52795 2.32015 0
M  V30 232 N 31.1726 -5.35222 1.71738 0
M  V30 233 H 23.3236 -1.47753 1.52587 0
M  V30 234 H 25.5866 -0.702941 0.636064 0
M  V30 235 H 25.2926 -2.9676 1.88749 0
M  V30 236 H 25.1666 -3.7579 0.325848 0
M  V30 237 H 27.5536 -2.94144 -0.237317 0
M  V30 238 H 27.6346 -2.17068 1.35334 0
M  V30 239 H 27.2786 -4.44871 2.45056 0
M  V30 240 H 27.2086 -5.19916 0.836338 0
M  V30 241 H 29.6996 -3.6456 0.995202 0
M  V30 242 H 30.0126 -7.26609 2.63171 0
M  V30 243 H 28.3576 -6.53696 2.36023 0
M  V30 244 H 31.5486 -4.49284 1.31382 0
M  V30 245 H 31.7216 -6.14389 2.05987 0
M  V30 246 N 25.1277 -0.289203 -1.54924 0
M  V30 247 C 26.3757 0.322879 -1.99504 0
M  V30 248 C 26.6967 1.55313 -1.1791 0
M  V30 249 O 25.9667 1.94001 -0.272097 0
M  V30 250 H 24.5467 0.122291 -0.736922 0
M  V30 251 H 27.2087 -0.397802 -1.90797 0
M  V30 252 H 26.3047 0.603061 -3.06218 0
M  V30 253 N 26.6058 1.57591 -0.0167156 0
M  V30 254 C 28.0168 1.79201 0.523834 0
M  V30 255 C 28.3678 0.925796 1.72984 0
M  V30 256 O 27.4928 0.132792 2.15992 0
M  V30 257 C 28.0878 3.25 0.957091 0
M  V30 258 C 26.6468 3.47648 1.44283 0
M  V30 259 C 25.7938 2.74374 0.401757 0
M  V30 260 H 28.7448 1.56831 -0.242816 0
M  V30 261 H 28.7658 3.34031 1.82219 0
M  V30 262 H 28.2778 3.88019 0.0791415 0
M  V30 263 H 26.3788 2.89866 2.34113 0
M  V30 264 H 26.4918 4.56352 1.45877 0
M  V30 265 H 24.8558 2.39485 0.867121 0
M  V30 266 H 25.6388 3.40102 -0.467513 0
M  V30 267 N 28.0839 -0.256276 1.55502 0
M  V30 268 C 29.0469 -1.30047 1.88734 0
M  V30 269 C 30.0469 -1.4154 0.763086 0
M  V30 270 O 31.2369 -1.40403 1.03115 0
M  V30 271 C 28.3689 -2.67953 2.10747 0
M  V30 272 H 29.5619 -1.01802 2.82093 0
M  V30 273 H 27.1149 -0.495134 1.4825 0
M  V30 274 H 27.8499 -3.01351 1.19825 0
M  V30 275 H 27.6349 -2.60993 2.92617 0
M  V30 276 H 29.1249 -3.43368 2.37673 0
M  V30 277 N 29.562 -1.4872 -0.521534 0
M  V30 278 C 30.978 -1.35028 -0.850855 0
M  V30 279 C 31.178 -0.367712 -1.98116 0
M  V30 280 O 30.234 0.208037 -2.51642 0
M  V30 281 C 31.547 -2.75263 -1.21041 0
M  V30 282 C 33.095 -2.83813 -1.31981 0
M  V30 283 C 33.57 -4.24769 -1.71276 0
M  V30 284 N 35.061 -4.27482 -1.78363 0
M  V30 285 C 35.796 -5.33494 -2.1017 0
M  V30 286 N 35.292 -6.49775 -2.40343 0
M  V30 287 N 37.085 -5.20894 -2.11248 0
M  V30 288 H 29.236 -2.11214 0.22413 0
M  V30 289 H 31.499 -0.947252 0.0376439 0
M  V30 290 H 31.205 -3.48765 -0.453415 0
M  V30 291 H 31.079 -3.09327 -2.15863 0
M  V30 292 H 33.466 -2.10561 -2.06756 0
M  V30 293 H 33.547 -2.53358 -0.352596 0
M  V30 294 H 33.191 -4.9854 -0.970588 0
M  V30 295 H 33.121 -4.52673 -2.69062 0
M  V30 296 H 35.612 -3.43611 -1.57288 0
M  V30 297 H 35.925 -7.26402 -2.63743 0
M  V30 298 H 34.27 -6.53035 -2.37844 0
M  V30 299 H 37.461 -4.29065 -1.87139 0
M  V30 300 H 37.634 -6.03612 -2.35704 0
M  V30 301 N 31.0401 0.771051 -1.3745 0
M  V30 302 C 32.0031 1.86598 -1.33093 0
M  V30 303 C 33.0031 1.59076 -0.234845 0
M  V30 304 O 34.1931 1.67145 -0.490732 0
M  V30 305 C 31.3251 3.23747 -1.06773 0
M  V30 306 H 32.5181 1.91873 -2.30488 0
M  V30 307 H 30.0711 0.970876 -1.2249 0
M  V30 308 H 30.8061 3.24148 -0.099129 0
M  V30 309 H 30.5911 3.45115 -1.86112 0
M  V30 310 H 32.0811 4.03824 -1.06377 0
M  V30 311 N 32.5182 1.22032 0.997298 0
M  V30 312 C 33.9292 1.0397 1.55071 0
M  V30 313 C 34.2802 -0.398192 1.92117 0
M  V30 314 O 33.4052 -1.28254 1.74298 0
M  V30 315 C 34.0002 1.88109 2.81781 0
M  V30 316 C 32.5592 1.74357 3.33581 0
M  V30 317 C 31.7062 1.84846 2.06706 0
M  V30 318 H 34.6572 1.35941 0.818883 0
M  V30 319 H 34.6782 1.39589 3.53971 0
M  V30 320 H 34.1902 2.92754 2.54787 0
M  V30 321 H 32.2912 0.72427 3.65493 0
M  V30 322 H 32.4042 2.56772 4.04481 0
M  V30 323 H 30.7682 1.28238 2.20062 0
M  V30 324 H 31.5512 2.91014 1.82114 0
M  V30 325 N 33.9963 -1.19345 1.0293 0
M  V30 326 C 34.9593 -2.20793 0.615069 0
M  V30 327 C 35.9593 -1.57553 -0.321533 0
M  V30 328 O 37.1493 -1.73862 -0.108483 0
M  V30 329 C 34.2813 -3.40754 -0.0999222 0
M  V30 330 H 35.4743 -2.58955 1.51269 0
M  V30 331 H 33.0273 -1.3303 0.820534 0
M  V30 332 H 33.7623 -3.0811 -1.01187 0
M  V30 333 H 33.5473 -3.87889 0.57309 0
M  V30 334 H 35.0373 -4.15898 -0.376645 0
M  V30 335 N 35.4744 -0.807222 -1.35358 0
M  V30 336 C 36.4374 -0.223665 -2.28106 0
M  V30 337 C 37.4374 0.589354 -1.4961 0
M  V30 338 O 38.6274 0.407745 -1.69361 0
M  V30 339 C 35.7594 0.688149 -3.33882 0
M  V30 340 H 36.9524 -1.04169 -2.81227 0
M  V30 341 H 34.5054 -0.577921 -1.45223 0
M  V30 342 H 35.2404 1.52984 -2.85948 0
M  V30 343 H 35.0254 0.10687 -3.91954 0
M  V30 344 H 36.5154 1.09075 -4.03104 0
M  V30 345 N 36.9525 1.47285 -0.560781 0
M  V30 346 C 37.9155 2.28535 0.174488 0
M  V30 347 C 38.9155 1.37153 0.839388 0
M  V30 348 O 40.1055 1.59748 0.694702 0
M  V30 349 C 37.2375 3.16934 1.25561 0
M  V30 350 H 38.4305 2.95012 -0.539262 0
M  V30 351 H 35.9835 1.53034 -0.317865 0
M  V30 352 H 36.7185 2.55157 2.00164 0
M  V30 353 H 36.5035 3.8419 0.783604 0
M  V30 354 H 37.9935 3.78143 1.77193 0
M  V30 355 N 38.4306 0.297415 1.54768 0
M  V30 356 C 39.3936 -0.567375 2.22066 0
M  V30 357 C 40.3936 -1.06409 1.20556 0
M  V30 358 O 41.5836 -0.960691 1.45315 0
M  V30 359 C 38.7156 -1.78517 2.90421 0
M  V30 360 H 39.9086 0.0205534 2.99893 0
M  V30 361 H 37.4616 0.0482163 1.56226 0
M  V30 362 H 38.1966 -2.41303 2.16664 0
M  V30 363 H 37.9816 -1.43669 3.64831 0
M  V30 364 H 39.4716 -2.39964 3.41771 0
M  V30 365 N 39.9087 -1.5758 0.0250728 0
M  V30 366 C 40.8717 -2.08896 -0.943139 0
M  V30 367 C 41.8717 -1.00321 -1.25668 0
M  V30 368 O 43.0617 -1.26495 -1.19769 0
M  V30 369 C 40.1937 -2.55143 -2.26086 0
M  V30 370 H 41.3867 -2.95723 -0.498775 0
M  V30 371 H 38.9397 -1.54703 -0.222888 0
M  V30 372 H 39.6747 -1.71633 -2.75159 0
M  V30 373 H 39.4597 -3.34461 -2.04641 0
M  V30 374 H 40.9497 -2.95083 -2.95492 0
M  V30 375 N 41.3868 0.248026 -1.55636 0
M  V30 376 C 42.3498 1.29044 -1.89421 0
M  V30 377 C 43.3498 1.41134 -0.770581 0
M  V30 378 O 44.5398 1.39854 -1.03858 0
M  V30 379 C 41.6718 2.66831 -2.12165 0
M  V30 380 H 42.8648 1.00305 -2.82629 0
M  V30 381 H 40.4178 0.487265 -1.48511 0
M  V30 382 H 41.1528 3.00711 -1.21422 0
M  V30 383 H 40.9378 2.59438 -2.93997 0
M  V30 384 H 42.4278 3.42103 -2.3949 0
M  V30 385 N 42.8649 1.48995 0.513639 0
M  V30 386 C 43.8279 1.64229 1.59879 0
M  V30 387 C 44.8279 0.514696 1.5234 0
M  V30 388 O 46.0179 0.78087 1.55718 0
M  V30 389 C 43.1499 1.62783 2.99524 0
M  V30 390 H 44.3429 2.61004 1.47705 0
M  V30 391 H 41.8959 1.37837 0.736936 0
M  V30 392 H 42.6309 0.675461 3.17188 0
M  V30 393 H 42.4159 2.4466 3.06404 0
M  V30 394 H 43.9059 1.76669 3.78388 0
M  V30 395 N 44.343 -0.763751 1.37857 0
M  V30 396 C 45.306 -1.85889 1.34081 0
M  V30 397 C 46.306 -1.58949 0.243277 0
M  V30 398 O 47.496 -1.66882 0.499589 0
M  V30 399 C 44.628 -3.23176 1.08489 0
M  V30 400 H 45.821 -1.90648 2.31502 0
M  V30 401 H 43.374 -0.964367 1.23003 0
M  V30 402 H 44.109 -3.24091 0.116318 0
M  V30 403 H 43.894 -3.44124 1.8794 0
M  V30 404 H 45.384 -4.03254 1.08517 0
M  V30 405 N 45.8211 -1.22559 -0.990812 0
M  V30 406 C 47.0461 -1.07862 -1.77145 0
M  V30 407 C 47.4711 0.366447 -1.84496 0
M  V30 408 O 46.8291 1.26478 -1.29896 0
M  V30 409 C 46.8771 -1.69686 -3.18181 0
M  V30 410 O 45.9811 -0.951946 -4.01263 0
M  V30 411 H 45.3221 -0.378712 -0.545411 0
M  V30 412 H 47.8521 -1.62399 -1.2445 0
M  V30 413 H 47.8621 -1.74496 -3.68802 0
M  V30 414 H 46.5371 -2.74841 -3.12146 0
M  V30 415 H 45.1141 -0.980011 -3.59792 0
M  V30 416 N 47.2992 1.18797 -1.03562 0
M  V30 417 C 48.7102 1.70322 -0.764676 0
M  V30 418 C 49.0612 1.82708 0.714996 0
M  V30 419 O 48.1862 1.50299 1.55689 0
M  V30 420 C 48.7812 3.09356 -1.38145 0
M  V30 421 C 47.3402 3.58114 -1.15895 0
M  V30 422 C 46.4872 2.34798 -1.4753 0
M  V30 423 H 49.4382 1.03543 -1.20268 0
M  V30 424 H 49.4592 3.72378 -0.781977 0
M  V30 425 H 48.9712 3.00309 -2.45837 0
M  V30 426 H 47.0722 3.72464 -0.100544 0
M  V30 427 H 47.1852 4.4184 -1.8524 0
M  V30 428 H 45.5492 2.38464 -0.894829 0
M  V30 429 H 46.3322 2.28375 -2.56319 0
M  V30 430 N 48.7773 0.814389 1.34928 0
M  V30 431 C 50.1883 0.458364 1.80986 0
M  V30 432 C 50.5393 -1.02042 1.67577 0
M  V30 433 O 49.6643 -1.79352 1.21086 0
M  V30 434 C 50.2593 0.825212 3.28597 0
M  V30 435 C 48.8183 0.521677 3.72767 0
M  V30 436 C 47.9653 1.04668 2.56788 0
M  V30 437 H 50.9163 1.00533 1.22795 0
M  V30 438 H 50.9373 0.12571 3.80292 0
M  V30 439 H 50.4493 1.90154 3.38324 0
M  V30 440 H 48.5503 -0.545589 3.68584 0
M  V30 441 H 48.6633 1.05977 4.67232 0
M  V30 442 H 47.0273 0.468622 2.50352 0
M  V30 443 H 47.8103 2.12927 2.6929 0
M  V30 444 N 50.2554 -1.46986 0.568584 0
M  V30 445 C 51.5034 -2.02041 0.0487022 0
M  V30 446 C 51.8244 -1.44408 -1.31039 0
M  V30 447 O 51.0944 -0.623477 -1.85714 0
M  V30 448 H 49.6744 -0.746849 0.015014 0
M  V30 449 H 52.3364 -1.80257 0.741168 0
M  V30 450 H 51.4324 -3.12085 -0.0308961 0
M  V30 451 N 51.7335 -0.305618 -1.54608 0
M  V30 452 C 53.1445 0.186098 -1.8577 0
M  V30 453 C 53.4955 1.53058 -1.22751 0
M  V30 454 O 52.6205 2.09888 -0.526893 0
M  V30 455 C 53.2155 0.344449 -3.37044 0
M  V30 456 C 51.7745 0.780384 -3.68221 0
M  V30 457 C 50.9215 -0.108554 -2.77087 0
M  V30 458 H 53.8725 -0.526485 -1.49712 0
M  V30 459 H 53.8935 1.17828 -3.61796 0
M  V30 460 H 53.4055 -0.634235 -3.82883 0
M  V30 461 H 51.5065 1.76945 -3.27904 0
M  V30 462 H 51.6195 0.596572 -4.75371 0
M  V30 463 H 49.9835 0.412931 -2.5133 0
M  V30 464 H 50.7665 -1.08368 -3.25747 0
M  V30 465 N 53.2116 1.57565 -0.0334293 0
M  V30 466 C 54.4516 1.93844 0.648379 0
M  V30 467 C 54.8156 0.910387 1.69044 0
M  V30 468 O 56.0166 1.15952 2.42505 0
M  V30 469 C 54.2876 3.35017 1.24492 0
M  V30 470 S 55.8466 3.93229 1.94721 0
M  V30 471 H 52.6646 0.678231 0.213364 0
M  V30 472 H 55.2666 1.95254 -0.0981253 0
M  V30 473 H 53.9706 4.07652 0.474128 0
M  V30 474 H 53.5016 3.37061 2.02864 0
M  V30 475 H 55.5166 3.77014 3.22606 0
M  V30 476 N 54.6897 -0.239769 1.55765 0
M  V30 477 C 55.9147 -0.988373 1.82335 0
M  V30 478 C 56.3397 -1.77886 0.611421 0
M  V30 479 O 55.6977 -1.75889 -0.439639 0
M  V30 480 C 55.7457 -1.89627 3.06715 0
M  V30 481 O 54.8497 -2.98904 2.84131 0
M  V30 482 H 54.1907 -0.280858 0.601677 0
M  V30 483 H 56.7207 -0.258597 2.02959 0
M  V30 484 H 56.7307 -2.30957 3.36338 0
M  V30 485 H 55.4057 -1.31511 3.9456 0
M  V30 486 H 53.9827 -2.61651 2.65694 0
M  V30 487 N 56.1678 -1.49265 -0.50573 0
M  V30 488 C 57.4158 -1.582 -1.25766 0
M  V30 489 C 57.7368 -0.268482 -1.93143 0
M  V30 490 O 57.0068 0.711833 -1.8251 0
M  V30 491 H 55.5868 -0.582873 -0.467191 0
M  V30 492 H 58.2488 -1.85865 -0.586525 0
M  V30 493 H 57.3448 -2.37563 -2.02412 0
M  V30 494 N 57.6459 0.756429 -1.3826 0
M  V30 495 C 58.6089 1.85176 -1.35065 0
M  V30 496 C 59.6089 1.58818 -0.251703 0
M  V30 497 O 60.7989 1.66615 -0.508433 0
M  V30 498 C 57.9309 3.22596 -1.10201 0
M  V30 499 H 59.1239 1.89417 -2.3251 0
M  V30 500 H 56.6769 0.95783 -1.23512 0
M  V30 501 H 57.4119 3.24025 -0.133504 0
M  V30 502 H 57.1969 3.43122 -1.89762 0
M  V30 503 H 58.6869 4.02673 -1.10654 0
M  V30 504 N 59.124 1.23083 0.984299 0
M  V30 505 C 60.087 1.00979 2.05757 0
M  V30 506 C 61.087 -0.0269573 1.60777 0
M  V30 507 O 62.277 0.212403 1.729 0
M  V30 508 C 59.409 0.527072 3.36801 0
M  V30 509 H 60.602 1.9622 2.26799 0
M  V30 510 H 58.155 1.05072 1.15714 0
M  V30 511 H 58.89 -0.429294 3.21446 0
M  V30 512 H 58.675 1.27515 3.70786 0
M  V30 513 H 60.165 0.392942 4.15747 0
M  V30 514 N 60.6021 -1.18246 1.0419 0
M  V30 515 C 61.8421 -1.89948 0.754916 0
M  V30 516 C 62.2061 -1.78608 -0.70451 0
M  V30 517 O 63.4071 -2.4503 -1.10516 0
M  V30 518 C 61.6781 -3.36305 1.20969 0
M  V30 519 S 63.2371 -4.26088 1.04854 0
M  V30 520 H 60.0551 -0.655897 0.274446 0
M  V30 521 H 62.6571 -1.42873 1.33445 0
M  V30 522 H 61.3611 -3.42089 2.26722 0
M  V30 523 H 60.8921 -3.8842 0.624004 0
M  V30 524 H 62.9071 -4.96189 -0.0332896 0
M  V30 525 N 62.0802 -0.821533 -1.34494 0
M  V30 526 C 63.0432 -0.247847 -2.27856 0
M  V30 527 C 64.0432 0.573453 -1.50227 0
M  V30 528 O 65.2332 0.389759 -1.69784 0
M  V30 529 C 62.3652 0.652698 -3.34593 0
M  V30 530 H 63.5582 -1.07146 -2.80107 0
M  V30 531 H 61.1112 -0.593291 -1.44602 0
M  V30 532 H 61.8462 1.49943 -2.87555 0
M  V30 533 H 61.6312 0.065292 -3.92046 0
M  V30 534 H 63.1212 1.04793 -4.04238 0
M  V30 535 N 63.5583 1.46682 -0.576371 0
M  V30 536 C 64.9693 1.86112 -0.148091 0
M  V30 537 C 65.3203 1.48073 1.2872 0
M  V30 538 O 64.4453 0.892656 1.97131 0
M  V30 539 C 65.0403 3.37786 -0.261982 0
M  V30 540 C 63.5993 3.76235 0.111384 0
M  V30 541 C 62.7463 2.70713 -0.60083 0
M  V30 542 H 65.6973 1.37927 -0.78497 0
M  V30 543 H 65.7183 3.77007 0.514364 0
M  V30 544 H 65.2303 3.6544 -1.30671 0
M  V30 545 H 63.3313 3.54198 1.15649 0
M  V30 546 H 63.4443 4.78391 -0.26052 0
M  V30 547 H 61.8083 2.54666 -0.0417783 0
M  V30 548 H 62.5913 3.01208 -1.64708 0
M  V30 549 N 65.0364 0.313813 1.54444 0
M  V30 550 C 66.2614 -0.296681 2.05267 0
M  V30 551 C 66.6864 -1.45757 1.18897 0
M  V30 552 O 66.0444 -1.80239 0.195886 0
M  V30 553 C 66.0924 -0.71831 3.53373 0
M  V30 554 O 65.1964 -1.82175 3.69981 0
M  V30 555 H 64.5374 -0.0554061 0.661684 0
M  V30 556 H 67.0674 0.459387 1.99376 0
M  V30 557 H 67.0774 -1.00364 3.95463 0
M  V30 558 H 65.7524 0.130821 4.15694 0
M  V30 559 H 64.3294 -1.53598 3.39797 0
M  V30 560 N 66.5145 -1.57545 0.0417849 0
M  V30 561 C 67.4775 -2.09885 -0.92093 0
M  V30 562 C 68.4775 -1.01648 -1.24596 0
M  V30 563 O 69.6675 -1.27759 -1.1842 0
M  V30 564 C 66.7995 -2.57527 -2.23367 0
M  V30 565 H 67.9925 -2.96236 -0.467382 0
M  V30 566 H 65.5455 -1.5493 -0.206467 0
M  V30 567 H 66.2805 -1.74542 -2.73323 0
M  V30 568 H 66.0655 -3.36613 -2.01083 0
M  V30 569 H 67.5555 -2.98201 -2.92346 0
M  V30 570 N 67.9926 0.231505 -1.5589 0
M  V30 571 C 68.9556 1.27028 -1.90779 0
M  V30 572 C 69.9556 1.40308 -0.785507 0
M  V30 573 O 71.1456 1.38744 -1.05336 0
M  V30 574 C 68.2776 2.64566 -2.14983 0
M  V30 575 H 69.4706 0.973017 -2.83677 0
M  V30 576 H 67.0236 0.471486 -1.49019 0
M  V30 577 H 67.7586 2.99406 -1.24604 0
M  V30 578 H 67.5436 2.56305 -2.96732 0
M  V30 579 H 69.0336 3.39543 -2.43105 0
M  V30 580 N 69.4707 1.49531 0.497807 0
M  V30 581 C 70.4337 1.65916 1.58128 0
M  V30 582 C 71.4337 0.530825 1.51786 0
M  V30 583 O 72.6237 0.797342 1.54881 0
M  V30 584 C 69.7557 1.65951 2.9778 0
M  V30 585 H 70.9487 2.62556 1.44929 0
M  V30 586 H 68.5017 1.38611 0.722275 0
M  V30 587 H 69.2367 0.709065 3.16453 0
M  V30 588 H 69.0217 2.47897 3.03792 0
M  V30 589 H 70.5117 1.80673 3.76493 0
M  V30 590 N 70.9488 -0.749086 1.3866 0
M  V30 591 C 72.1968 -1.50535 1.34847 0
M  V30 592 C 72.5178 -1.94909 -0.0595016 0
M  V30 593 O 71.7878 -1.67973 -1.00806 0
M  V30 594 H 70.3678 -0.558395 0.49619 0
M  V30 595 H 73.0298 -0.890165 1.73384 0
M  V30 596 H 72.1258 -2.39413 2.00219 0
M  V30 597 N 72.4269 -1.23603 -0.977757 0
M  V30 598 C 73.3899 -1.02069 -2.05218 0
M  V30 599 C 74.3899 0.0184305 -1.60789 0
M  V30 600 O 75.5799 -0.221569 -1.72785 0
M  V30 601 C 72.7119 -0.544926 -3.36517 0
M  V30 602 H 73.9049 -1.9742 -2.25755 0
M  V30 603 H 71.4579 -1.05684 -1.15155 0
M  V30 604 H 72.1929 0.412241 -3.21669 0
M  V30 605 H 71.9779 -1.2948 -3.70105 0
M  V30 606 H 73.4679 -0.414985 -4.15533 0
M  V30 607 N 73.905 1.17692 -1.04816 0
M  V30 608 C 75.153 1.87488 -0.754497 0
M  V30 609 C 75.474 1.81205 0.720407 0
M  V30 610 O 74.744 1.23544 1.52032 0
M  V30 611 H 73.324 0.694101 -0.276102 0
M  V30 612 H 75.986 1.42793 -1.32651 0
M  V30 613 H 75.082 2.93328 -1.06606 0
M  V30 614 N 75.3831 0.828654 1.34056 0
M  V30 615 C 76.3461 0.259927 2.27721 0
M  V30 616 C 77.3461 -0.565478 1.50529 0
M  V30 617 O 78.5361 -0.38075 1.69988 0
M  V30 618 C 75.6681 -0.634944 3.34935 0
M  V30 619 H 76.8611 1.0863 2.79534 0
M  V30 620 H 74.4141 0.600951 1.44285 0
M  V30 621 H 75.1491 -1.48416 2.88346 0
M  V30 622 H 74.9341 -0.0444999 3.92075 0
M  V30 623 H 76.4241 -1.02648 4.04788 0
M  V30 624 N 76.8612 -1.46375 0.584142 0
M  V30 625 C 77.7942 -2.27351 -0.196676 0
M  V30 626 C 78.7722 -1.35715 -0.895561 0
M  V30 627 O 79.9562 -1.65126 -0.90916 0
M  V30 628 C 77.0832 -3.13486 -1.28235 0
M  V30 629 C 76.1292 -4.20896 -0.689145 0
M  V30 630 S 76.9622 -5.33299 0.48507 0
M  V30 631 C 78.1182 -6.23 -0.601767 0
M  V30 632 H 78.3512 -2.93228 0.490395 0
M  V30 633 H 75.8842 -1.49875 0.371071 0
M  V30 634 H 77.8422 -3.63676 -1.90395 0
M  V30 635 H 76.5032 -2.4692 -1.94138 0
M  V30 636 H 75.6962 -4.80997 -1.50527 0
M  V30 637 H 75.2982 -3.73726 -0.143181 0
M  V30 638 H 77.5902 -6.60979 -1.48705 0
M  V30 639 H 78.5332 -7.0809 -0.0374799 0
M  V30 640 H 78.9412 -5.57173 -0.906557 0
M  V30 641 N 78.3393 -0.321999 -1.54275 0
M  V30 642 C 79.2873 0.560206 -2.25753 0
M  V30 643 C 80.2813 1.11984 -1.27106 0
M  V30 644 O 81.4873 1.06806 -1.44888 0
M  V30 645 H 77.8623 0.199304 -0.725108 0
M  V30 646 H 79.8333 -0.0649365 -2.98329 0
M  V30 647 C 78.5823 1.71023 -3.02731 0
M  V30 648 H 77.9053 1.28885 -3.78456 0
M  V30 649 H 79.3453 2.30314 -3.55993 0
M  V30 650 C 77.8043 2.62692 -2.10938 0
M  V30 651 O 78.3343 3.64364 -1.6912 0
M  V30 652 N 76.5403 2.30891 -1.76459 0
M  V30 653 H 76.0873 1.48253 -2.10663 0
M  V30 654 H 76.0453 2.92487 -1.1532 0
M  V30 655 N 79.8174 1.5752 -0.0501392 0
M  V30 656 C 81.2284 1.80271 0.485705 0
M  V30 657 C 81.5794 0.96228 1.70981 0
M  V30 658 O 80.7044 0.178578 2.15662 0
M  V30 659 C 81.2994 3.26957 0.887938 0
M  V30 660 C 79.8584 3.5063 1.36877 0
M  V30 661 C 79.0054 2.75165 0.343468 0
M  V30 662 H 81.9564 1.56281 -0.276028 0
M  V30 663 H 81.9774 3.37821 1.75093 0
M  V30 664 H 81.4894 3.881 -0.0031809 0
M  V30 665 H 79.5904 2.94766 2.27911 0
M  V30 666 H 79.7034 4.59343 1.36164 0
M  V30 667 H 78.0674 2.4127 0.816128 0
M  V30 668 H 78.8504 3.39034 -0.539548 0
M  V30 669 N 81.2955 -0.223234 1.56011 0
M  V30 670 C 82.5205 -0.968978 1.83373 0
M  V30 671 C 82.9455 -1.77227 0.630254 0
M  V30 672 O 82.3035 -1.76345 -0.420959 0
M  V30 673 C 82.3515 -1.86363 3.08709 0
M  V30 674 O 81.4555 -2.95873 2.87285 0
M  V30 675 H 80.7965 -0.274461 0.604622 0
M  V30 676 H 83.3265 -0.237056 2.03222 0
M  V30 677 H 83.3365 -2.27376 3.38768 0
M  V30 678 H 82.0115 -1.27319 3.95933 0
M  V30 679 H 80.5885 -2.58818 2.68454 0
M  V30 680 N 82.7736 -1.49793 -0.48987 0
M  V30 681 C 83.9986 -1.63836 -1.27172 0
M  V30 682 C 84.4236 -0.31402 -1.8546 0
M  V30 683 O 83.7816 0.719803 -1.66399 0
M  V30 684 C 83.8296 -2.71797 -2.36978 0
M  V30 685 O 82.9336 -2.31744 -3.41128 0
M  V30 686 H 82.2746 -0.547997 -0.37496 0
M  V30 687 H 84.8046 -1.96053 -0.585191 0
M  V30 688 H 84.8146 -2.94305 -2.82575 0
M  V30 689 H 83.4896 -3.67923 -1.93921 0
M  V30 690 H 82.0666 -2.1961 -3.01373 0
M  V30 691 N 84.2517 0.741722 -1.39055 0
M  V30 692 C 85.4767 1.53607 -1.39354 0
M  V30 693 C 85.9017 1.88096 0.0116905 0
M  V30 694 O 85.2597 1.5143 0.996924 0
M  V30 695 C 85.3077 2.80441 -2.26682 0
M  V30 696 O 84.4117 3.76088 -1.69208 0
M  V30 697 H 83.7527 0.464142 -0.474835 0
M  V30 698 H 86.2827 0.915665 -1.82967 0
M  V30 699 H 86.2927 3.29246 -2.40959 0
M  V30 700 H 84.9677 2.5467 -3.2881 0
M  V30 701 H 83.5447 3.34833 -1.64138 0
M  V30 702 N 85.7298 1.2412 0.971189 0
M  V30 703 C 86.6928 1.03156 2.04674 0
M  V30 704 C 87.6928 -0.00990322 1.60797 0
M  V30 705 O 88.8828 0.230729 1.72665 0
M  V30 706 C 86.0148 0.562765 3.36223 0
M  V30 707 H 87.2078 1.98614 2.24705 0
M  V30 708 H 84.7608 1.06293 1.14593 0
M  V30 709 H 85.4958 -0.395176 3.21883 0
M  V30 710 H 85.2808 1.31441 3.69413 0
M  V30 711 H 86.7708 0.437015 4.15307 0
M  V30 712 N 87.2079 -1.17134 1.05439 0
M  V30 713 C 88.4559 -1.87085 0.764429 0
M  V30 714 C 88.7769 -1.81584 -0.710787 0
M  V30 715 O 88.0469 -1.24349 -1.51374 0
M  V30 716 H 86.6269 -0.692627 0.279779 0
M  V30 717 H 89.2889 -1.42087 1.33406 0
M  V30 718 H 88.3849 -2.92759 1.0816 0
M  V30 719 N 88.686 -0.835752 -1.33615 0
M  V30 720 C 89.596 -0.269088 -2.33052 0
M  V30 721 C 90.612 0.603251 -1.63208 0
M  V30 722 O 91.788 0.508112 -1.94885 0
M  V30 723 C 88.853 0.549091 -3.42324 0
M  V30 724 C 87.914 -0.347156 -4.27894 0
M  V30 725 C 87.147 0.43207 -5.31948 0
M  V30 726 O 87.37 1.66409 -5.45586 0
M  V30 727 O 86.304 -0.192298 -6.01593 0
M  V30 728 H 90.13 -1.09243 -2.83372 0
M  V30 729 H 87.715 -0.598198 -1.36901 0
M  V30 730 H 89.597 1.01414 -4.09015 0
M  V30 731 H 88.272 1.34955 -2.94226 0
M  V30 732 H 87.179 -0.859979 -3.64081 0
M  V30 733 H 88.512 -1.1123 -4.79467 0
M  V30 734 N 90.1641 1.46063 -0.591896 0
M  V30 735 C 91.0741 2.34192 0.13831 0
M  V30 736 C 92.0901 1.50305 0.876608 0
M  V30 737 O 93.2661 1.8315 0.837728 0
M  V30 738 C 90.3311 3.27656 1.13326 0
M  V30 739 C 89.3921 4.27445 0.39863 0
M  V30 740 C 88.6251 5.16443 1.34618 0
M  V30 741 O 88.8481 5.08553 2.58321 0
M  V30 742 O 87.7821 5.95843 0.851768 0
M  V30 743 H 91.6081 2.98002 -0.58552 0
M  V30 744 H 89.1931 1.45188 -0.352239 0
M  V30 745 H 91.0751 3.85291 1.70671 0
M  V30 746 H 89.7501 2.6643 1.83839 0
M  V30 747 H 88.6571 3.73471 -0.216895 0
M  V30 748 H 89.9901 4.91482 -0.265709 0
M  V30 749 N 91.6422 0.330177 1.54103 0
M  V30 750 C 92.5892 -0.532762 2.24567 0
M  V30 751 C 93.5592 -1.10635 1.23892 0
M  V30 752 O 94.7442 -1.14546 1.5259 0
M  V30 753 C 91.8842 -1.6845 3.01195 0
M  V30 754 C 90.9972 -1.13951 4.167 0
M  V30 755 C 90.1322 -2.25746 4.80845 0
M  V30 756 C 89.1712 -1.6853 5.88442 0
M  V30 757 N 88.3082 -2.74014 6.46421 0
M  V30 758 H 93.1482 0.0746905 2.97906 0
M  V30 759 H 90.6852 0.048632 1.4702 0
M  V30 760 H 92.6432 -2.36234 3.43874 0
M  V30 761 H 91.2732 -2.26314 2.30178 0
M  V30 762 H 90.3252 -0.35301 3.78758 0
M  V30 763 H 91.6372 -0.680892 4.94131 0
M  V30 764 H 90.7912 -3.01422 5.26526 0
M  V30 765 H 89.5302 -2.74947 4.0281 0
M  V30 766 H 88.5352 -0.913543 5.42157 0
M  V30 767 H 89.7602 -1.20198 6.68378 0
M  V30 768 H 87.7062 -3.22494 5.71256 0
M  V30 769 H 87.6232 -2.32735 7.19285 0
M  V30 770 H 88.8912 -3.49499 6.96757 0
M  V30 771 N 93.1203 -1.57491 0.0584922 0
M  V30 772 C 94.3683 -1.92597 -0.612436 0
M  V30 773 C 94.6893 -0.938162 -1.70949 0
M  V30 774 O 93.9593 0.0158301 -1.95894 0
M  V30 775 H 92.5393 -0.710964 -0.229214 0
M  V30 776 H 95.2013 -1.94571 0.113218 0
M  V30 777 H 94.2973 -2.94038 -1.04633 0
M  V30 778 N 94.5984 0.214957 -1.56127 0
M  V30 779 C 95.5614 1.24997 -1.92116 0
M  V30 780 C 96.5614 1.39467 -0.800344 0
M  V30 781 O 97.7514 1.37619 -1.06802 0
M  V30 782 C 94.8834 2.62271 -2.17777 0
M  V30 783 H 96.0764 0.942875 -2.84693 0
M  V30 784 H 93.6294 0.455654 -1.49511 0
M  V30 785 H 94.3644 2.98068 -1.27773 0
M  V30 786 H 94.1494 2.53143 -2.99434 0
M  V30 787 H 95.6394 3.36946 -2.46693 0
M  V30 788 N 96.0765 1.50051 0.48192 0
M  V30 789 C 97.3045 1.64237 1.25832 0
M  V30 790 C 97.7195 0.321336 1.86045 0
M  V30 791 O 97.0765 -0.695478 1.68729 0
M  V30 792 C 97.1275 2.72548 2.37487 0
M  V30 793 O 96.8485 3.99529 1.79745 0
M  V30 794 C 98.3495 2.9761 3.28547 0
M  V30 795 H 95.5695 0.55237 0.380957 0
M  V30 796 H 98.1135 1.96207 0.576467 0
M  V30 797 H 96.2685 2.43303 3.01467 0
M  V30 798 H 96.6825 4.59342 2.5319 0
M  V30 799 H 98.1565 3.77084 4.03127 0
M  V30 800 H 98.6335 2.0826 3.86684 0
M  V30 801 H 99.2395 3.28345 2.70314 0
M  V30 802 N 97.5546 -0.734337 1.39446 0
M  V30 803 C 98.8026 -1.49096 1.36436 0
M  V30 804 C 99.1236 -1.94961 -0.0388255 0
M  V30 805 O 98.3936 -1.69033 -0.990191 0
M  V30 806 H 96.9736 -0.5531 0.502085 0
M  V30 807 H 99.6356 -0.871725 1.74319 0
M  V30 808 H 98.7316 -2.37276 2.02747 0
M  V30 809 N 99.0327 -1.24633 -0.964593 0
M  V30 810 C 100.281 -1.08573 -1.70459 0
M  V30 811 C 100.602 0.375655 -1.91347 0
M  V30 812 O 99.8717 1.26779 -1.49345 0
M  V30 813 H 98.4517 -0.398784 -0.631649 0
M  V30 814 H 101.114 -1.56601 -1.16026 0
M  V30 815 H 100.21 -1.58623 -2.68785 0
M  V30 816 N 100.511 1.16574 -1.06058 0
M  V30 817 C 101.736 1.91493 -0.796562 0
M  V30 818 C 102.161 1.76773 0.642868 0
M  V30 819 O 101.519 1.09142 1.44768 0
M  V30 820 C 101.567 3.40293 -1.19303 0
M  V30 821 O 100.671 4.11074 -0.330394 0
M  V30 822 H 100.012 0.596678 -0.291326 0
M  V30 823 H 102.542 1.47708 -1.41575 0
M  V30 824 H 102.552 3.91057 -1.16356 0
M  V30 825 H 101.227 3.50326 -2.24153 0
M  V30 826 H 99.8038 3.70513 -0.421225 0
M  V30 827 N 101.989 0.842826 1.3317 0
M  V30 828 C 103.214 0.453129 2.02389 0
M  V30 829 C 103.639 -0.939105 1.6298 0
M  V30 830 O 102.997 -1.61472 0.8244 0
M  V30 831 C 103.045 0.586094 3.55805 0
M  V30 832 O 102.149 -0.386029 4.10589 0
M  V30 833 H 101.49 0.183664 0.638094 0
M  V30 834 H 104.02 1.13875 1.69981 0
M  V30 835 H 104.03 0.469209 4.05293 0
M  V30 836 H 102.705 1.6014 3.83833 0
M  V30 837 H 101.282 -0.226371 3.72212 0
M  V30 838 N 103.467 -1.45747 0.599634 0
M  V30 839 C 104.692 -2.07178 0.0960198 0
M  V30 840 C 105.117 -1.44268 -1.207 0
M  V30 841 O 104.475 -0.532503 -1.73303 0
M  V30 842 C 104.523 -3.60579 -0.0385348 0
M  V30 843 O 103.627 -3.97713 -1.0908 0
M  V30 844 H 102.968 -0.660251 0.0704593 0
M  V30 845 H 105.498 -1.87124 0.827385 0
M  V30 846 H 105.508 -4.07298 -0.239304 0
M  V30 847 H 104.183 -4.05756 0.912947 0
M  V30 848 H 102.76 -3.62678 -0.867135 0
M  V30 849 N 104.945 -0.338344 -1.53925 0
M  V30 850 C 106.17 0.263987 -2.05713 0
M  V30 851 C 106.595 1.43847 -1.21201 0
M  V30 852 O 105.953 1.79904 -0.224535 0
M  V30 853 C 106.001 0.662 -3.54471 0
M  V30 854 O 105.105 1.76265 -3.72833 0
M  V30 855 H 104.446 0.0448722 -0.662482 0
M  V30 856 H 106.976 -0.491048 -1.9862 0
M  V30 857 H 106.986 0.940594 -3.9701 0
M  V30 858 H 105.661 -0.196937 -4.15433 0
M  V30 859 H 104.238 1.48173 -3.42198 0
M  V30 860 N 106.423 1.57458 -0.0668435 0
M  V30 861 C 107.671 1.92919 0.602214 0
M  V30 862 C 107.992 0.947215 1.70449 0
M  V30 863 O 107.262 -0.00544117 1.95899 0
M  V30 864 H 105.842 0.71217 0.22544 0
M  V30 865 H 108.504 1.94508 -0.123535 0
M  V30 866 H 107.6 2.94589 1.03073 0
M  V30 867 N 107.901 -0.206675 1.56239 0
M  V30 868 C 109.126 -0.949474 1.8439 0
M  V30 869 C 109.551 -1.76549 0.649016 0
M  V30 870 O 108.909 -1.76782 -0.402231 0
M  V30 871 C 108.957 -1.83078 3.10668 0
M  V30 872 O 108.061 -2.9281 2.90407 0
M  V30 873 H 107.402 -0.268033 0.607499 0
M  V30 874 H 109.932 -0.215488 2.03462 0
M  V30 875 H 109.942 -2.2377 3.41161 0
M  V30 876 H 108.617 -1.23112 3.97261 0
M  V30 877 H 107.194 -2.55956 2.71184 0
M  V30 878 N 109.379 -1.50304 -0.473955 0
M  V30 879 C 110.627 -1.60832 -1.22382 0
M  V30 880 C 110.948 -0.30939 -1.9253 0
M  V30 881 O 110.218 0.67296 -1.83978 0
M  V30 882 H 108.798 -0.592652 -0.454723 0
M  V30 883 H 111.46 -1.87068 -0.546968 0
M  V30 884 H 110.556 -2.41803 -1.97327 0
M  V30 885 N 110.857 0.726932 -1.39834 0
M  V30 886 C 111.82 1.82269 -1.38962 0
M  V30 887 C 112.82 1.58248 -0.285334 0
M  V30 888 O 114.01 1.65499 -0.54366 0
M  V30 889 C 111.142 3.20186 -1.17019 0
M  V30 890 H 112.335 1.84443 -2.36476 0
M  V30 891 H 109.888 0.931416 -1.25516 0
M  V30 892 H 110.623 3.23669 -0.202204 0
M  V30 893 H 110.408 3.3902 -1.96998 0
M  V30 894 H 111.898 4.00235 -1.1917 0
M  V30 895 N 112.336 1.25143 0.95797 0
M  V30 896 C 113.584 1.09476 1.69881 0
M  V30 897 C 113.905 -0.365502 1.91544 0
M  V30 898 O 113.175 -1.25985 1.50015 0
M  V30 899 H 111.755 0.402128 0.629525 0
M  V30 900 H 114.417 1.57214 1.15194 0
M  V30 901 H 113.513 1.60046 2.6794 0
M  V30 902 N 113.814 -1.1601 1.06675 0
M  V30 903 C 115.039 -1.91068 0.806706 0
M  V30 904 C 115.464 -1.77112 -0.633485 0
M  V30 905 O 114.822 -1.09908 -1.44187 0
M  V30 906 C 114.87 -3.39655 1.21106 0
M  V30 907 O 113.974 -4.10893 0.352189 0
M  V30 908 H 113.315 -0.595125 0.294486 0
M  V30 909 H 115.845 -1.46955 1.42356 0
M  V30 910 H 115.855 -3.90434 1.18428 0
M  V30 911 H 114.53 -3.49132 2.26008 0
M  V30 912 H 113.107 -3.70285 0.440868 0
M  V30 913 N 115.292 -0.849877 -1.32721 0
M  V30 914 C 116.532 -0.457146 -1.99222 0
M  V30 915 C 116.896 0.968038 -1.6581 0
M  V30 916 O 118.097 1.46507 -2.25364 0
M  V30 917 C 116.368 -0.683966 -3.50794 0
M  V30 918 S 117.927 -0.388095 -4.3708 0
M  V30 919 H 114.745 -0.171464 -0.690015 0
M  V30 920 H 117.347 -1.10155 -1.61512 0
M  V30 921 H 116.051 -1.72038 -3.726 0
M  V30 922 H 115.582 -0.0258086 -3.93392 0
M  V30 923 H 117.597 0.787791 -4.89906 0
M  V30 924 N 116.77 1.45427 -0.607355 0
M  V30 925 C 118.01 2.04128 -0.105458 0
M  V30 926 C 118.374 1.46555 1.24039 0
M  V30 927 O 119.575 1.96608 1.833 0
M  V30 928 C 117.846 3.57338 -0.0665324 0
M  V30 929 S 119.405 4.37201 0.374207 0
M  V30 930 H 116.223 0.709278 -0.0494575 0
M  V30 931 H 118.825 1.78139 -0.805404 0
M  V30 932 H 117.529 3.96752 -1.04957 0
M  V30 933 H 117.06 3.87902 0.655415 0
M  V30 934 H 119.075 4.6888 1.62377 0
M  V30 935 N 118.248 0.346503 1.53744 0
M  V30 936 C 119.178 -0.501193 2.28058 0
M  V30 937 C 120.159 -1.10014 1.29734 0
M  V30 938 O 121.344 -1.12097 1.58581 0
M  V30 939 C 118.474 -1.65078 3.05559 0
M  V30 940 C 117.428 -1.18003 4.11411 0
M  V30 941 C 116.754 -2.41837 4.76884 0
M  V30 942 C 118.054 -0.278394 5.21558 0
M  V30 943 H 119.748 0.11875 2.99164 0
M  V30 944 H 117.294 0.0585531 1.43881 0
M  V30 945 H 119.247 -2.25028 3.56287 0
M  V30 946 H 117.971 -2.29767 2.32109 0
M  V30 947 H 116.63 -0.603331 3.61601 0
M  V30 948 H 116.278 -3.0494 4.00026 0
M  V30 949 H 115.978 -2.1102 5.48402 0
M  V30 950 H 117.502 -3.02508 5.30397 0
M  V30 951 H 118.916 -0.784823 5.67903 0
M  V30 952 H 117.313 -0.0619707 6.00068 0
M  V30 953 H 118.383 0.684677 4.80042 0
M  V30 954 N 119.726 -1.57421 0.075193 0
M  V30 955 C 120.974 -1.93236 -0.591974 0
M  V30 956 C 121.295 -0.956241 -1.69944 0
M  V30 957 O 120.565 -0.00494792 -1.95899 0
M  V30 958 H 119.145 -0.713355 -0.22166 0
M  V30 959 H 121.807 -1.9444 0.133848 0
M  V30 960 H 120.903 -2.95131 -1.01509 0
M  V30 961 N 121.204 0.198386 -1.56346 0
M  V30 962 C 122.167 1.22952 -1.93431 0
M  V30 963 C 123.167 1.38611 -0.815092 0
M  V30 964 O 124.357 1.36479 -1.08255 0
M  V30 965 C 121.489 2.59946 -2.20546 0
M  V30 966 H 122.682 0.912626 -2.85677 0
M  V30 967 H 120.235 0.43977 -1.49986 0
M  V30 968 H 120.97 2.96696 -1.30927 0
M  V30 969 H 120.755 2.49953 -3.02102 0
M  V30 970 H 122.245 3.3431 -2.50253 0
M  V30 971 N 122.682 1.50554 0.465978 0
M  V30 972 C 123.592 1.72585 1.58907 0
M  V30 973 C 124.608 0.60911 1.6299 0
M  V30 974 O 125.784 0.88804 1.80765 0
M  V30 975 C 122.849 1.81995 2.95091 0
M  V30 976 C 121.91 3.05751 3.01355 0
M  V30 977 C 121.143 3.14702 4.31043 0
M  V30 978 O 121.366 2.30313 5.21835 0
M  V30 979 O 120.3 4.07468 4.43005 0
M  V30 980 H 124.126 2.67799 1.43239 0
M  V30 981 H 121.711 1.34711 0.646013 0
M  V30 982 H 123.593 1.90335 3.75966 0
M  V30 983 H 122.268 0.899659 3.10947 0
M  V30 984 H 121.175 3.02908 2.19539 0
M  V30 985 H 122.508 3.97375 2.90437 0
M  V30 986 N 124.16 -0.719506 1.40217 0
M  V30 987 C 125.408 -1.47641 1.3801 0
M  V30 988 C 125.729 -1.94992 -0.018145 0
M  V30 989 O 124.999 -1.70073 -0.972207 0
M  V30 990 H 123.579 -0.547744 0.507923 0
M  V30 991 H 126.241 -0.853187 1.75233 0
M  V30 992 H 125.337 -2.35112 2.05253 0
M  V30 993 N 125.638 -1.25649 -0.95132 0
M  V30 994 C 126.886 -1.10375 -1.69298 0
M  V30 995 C 127.207 0.355339 -1.91735 0
M  V30 996 O 126.477 1.25188 -1.50681 0
M  V30 997 H 125.057 -0.405461 -0.627384 0
M  V30 998 H 127.719 -1.57823 -1.14358 0
M  V30 999 H 126.815 -1.61465 -2.67087 0
M  V30 1000 N 127.117 1.15442 -1.07289 0
M  V30 1001 C 128.08 2.18358 -0.696591 0
M  V30 1002 C 129.08 1.58637 0.262837 0
M  V30 1003 O 130.27 1.74145 0.0438809 0
M  V30 1004 C 127.402 3.4089 -0.0266151 0
M  V30 1005 H 128.595 2.53162 -1.60776 0
M  V30 1006 H 126.148 1.29893 -0.869342 0
M  V30 1007 H 126.883 3.11653 0.896822 0
M  V30 1008 H 126.668 3.85495 -0.716657 0
M  V30 1009 H 128.158 4.17009 0.222028 0
M  V30 1010 N 128.595 0.856903 1.32268 0
M  V30 1011 C 129.872 0.382583 1.91822 0
M  V30 1012 C 130.252 -1.13407 1.78051 0
M  V30 1013 O 129.6 -1.95673 1.18001 0
M  V30 1014 C 129.81 0.849446 3.38505 0
M  V30 1015 C 131.158 0.867936 4.15634 0
M  V30 1016 O 132.182 0.794232 3.47232 0
M  V30 1017 O 131.041 0.972286 5.37781 0
M  V30 1018 H 128.135 0.112014 0.819379 0
M  V30 1019 H 130.681 0.943952 1.41024 0
M  V30 1020 H 129.453 1.89267 3.42482 0
M  V30 1021 H 129.076 0.265652 3.96712 0
M  V30 1022 N 130.073 -1.45103 0.615059 0
M  V30 1023 C 131.484 -1.85654 0.197383 0
M  V30 1024 C 131.835 -1.51433 -1.24749 0
M  V30 1025 O 130.96 -0.944608 -1.94695 0
M  V30 1026 C 131.555 -3.36972 0.351448 0
M  V30 1027 C 130.114 -3.76398 -0.011593 0
M  V30 1028 C 129.261 -2.69024 0.672394 0
M  V30 1029 H 132.212 -1.35797 0.821263 0
M  V30 1030 H 132.233 -3.78239 -0.414227 0
M  V30 1031 H 131.745 -3.61847 1.40314 0
M  V30 1032 H 129.846 -3.5714 -1.06217 0
M  V30 1033 H 129.959 -4.77532 0.387265 0
M  V30 1034 H 128.323 -2.54465 0.109284 0
M  V30 1035 H 129.106 -2.96735 1.72636 0
M  V30 1036 N 131.551 -0.354651 -1.53558 0
M  V30 1037 C 132.967 -0.00315426 -1.596 0
M  V30 1038 C 133.167 1.47741 -1.37021 0
M  V30 1039 O 132.223 2.23759 -1.16996 0
M  V30 1040 C 133.536 -0.44929 -2.97325 0
M  V30 1041 C 135.084 -0.402578 -3.104 0
M  V30 1042 C 135.559 -0.824355 -4.5052 0
M  V30 1043 N 137.05 -0.778979 -4.56603 0
M  V30 1044 C 137.785 -1.07715 -5.63192 0
M  V30 1045 N 137.281 -1.44405 -6.77583 0
M  V30 1046 N 139.074 -1.00066 -5.53121 0
M  V30 1047 H 131.225 -1.31893 -1.66487 0
M  V30 1048 H 133.488 -0.538388 -0.780284 0
M  V30 1049 H 133.194 -1.48202 -3.1895 0
M  V30 1050 H 133.068 0.169772 -3.76818 0
M  V30 1051 H 135.455 0.621004 -2.88492 0
M  V30 1052 H 135.536 -1.05699 -2.32941 0
M  V30 1053 H 135.18 -1.846 -4.73165 0
M  V30 1054 H 135.11 -0.147304 -5.26394 0
M  V30 1055 H 137.601 -0.508528 -3.74463 0
M  V30 1056 H 137.914 -1.65612 -7.54846 0
M  V30 1057 H 136.259 -1.4826 -6.79002 0
M  V30 1058 H 139.45 -0.713293 -4.62633 0
M  V30 1059 H 139.623 -1.23638 -6.36096 0
M  V30 1060 N 133.029 1.57378 -0.0835403 0
M  V30 1061 C 134.277 1.93547 0.581718 0
M  V30 1062 C 134.598 0.96524 1.69435 0
M  V30 1063 O 133.868 0.0153369 1.95894 0
M  V30 1064 H 132.448 0.714521 0.217874 0
M  V30 1065 H 135.11 1.94366 -0.144158 0
M  V30 1066 H 134.206 2.95665 0.999423 0
M  V30 1067 N 134.507 -0.190092 1.56449 0
M  V30 1068 C 135.47 -1.21925 1.9408 0
M  V30 1069 C 136.47 -1.38176 0.822431 0
M  V30 1070 O 137.66 -1.35903 1.08977 0
M  V30 1071 C 134.792 -2.58773 2.21922 0
M  V30 1072 H 135.985 -0.897464 2.86157 0
M  V30 1073 H 133.538 -0.43181 1.50217 0
M  V30 1074 H 134.273 -2.95998 1.32499 0
M  V30 1075 H 134.058 -2.48348 3.03424 0
M  V30 1076 H 135.548 -3.32978 2.52022 0
M  V30 1077 N 135.985 -1.50799 -0.457987 0
M  V30 1078 C 137.233 -1.62121 -1.2067 0
M  V30 1079 C 137.554 -0.329793 -1.92191 0
M  V30 1080 O 136.824 0.653409 -1.84682 0
M  V30 1081 H 135.404 -0.597441 -0.448411 0
M  V30 1082 H 138.066 -1.87637 -0.527096 0
M  V30 1083 H 137.162 -2.43882 -1.94751 0
M  V30 1084 N 137.463 0.71206 -1.40597 0
M  V30 1085 C 138.688 1.50617 -1.42581 0
M  V30 1086 C 139.113 1.88079 -0.0282102 0
M  V30 1087 O 138.471 1.53511 0.964579 0
M  V30 1088 C 138.519 2.7557 -2.3258 0
M  V30 1089 O 137.623 3.72414 -1.77148 0
M  V30 1090 H 136.964 0.453966 -0.484573 0
M  V30 1091 H 139.494 0.876649 -1.84868 0
M  V30 1092 H 139.504 3.2406 -2.47889 0
M  V30 1093 H 138.179 2.47639 -3.34138 0
M  V30 1094 H 136.756 3.31276 -1.71204 0
M  V30 1095 N 138.941 1.26152 0.944643 0
M  V30 1096 C 139.904 1.07474 2.0244 0
M  V30 1097 C 140.904 0.0242064 1.60782 0
M  V30 1098 O 142.094 0.267302 1.72137 0
M  V30 1099 C 139.226 0.633956 3.34953 0
M  V30 1100 H 140.419 2.03336 2.20442 0
M  V30 1101 H 137.972 1.087 1.12312 0
M  V30 1102 H 138.707 -0.326811 3.22649 0
M  V30 1103 H 138.492 1.39247 3.66542 0
M  V30 1104 H 139.982 0.52501 4.14287 0
M  V30 1105 N 140.419 -1.14872 1.07899 0
M  V30 1106 C 141.382 -2.17986 0.708161 0
M  V30 1107 C 142.382 -1.58775 -0.25442 0
M  V30 1108 O 143.572 -1.74166 -0.034645 0
M  V30 1109 C 140.704 -3.40871 0.0446929 0
M  V30 1110 H 141.897 -2.52306 1.62116 0
M  V30 1111 H 139.45 -1.2943 0.876218 0
M  V30 1112 H 140.185 -3.12124 -0.880281 0
M  V30 1113 H 139.97 -3.8511 0.737091 0
M  V30 1114 H 141.46 -4.17121 -0.19991 0
M  V30 1115 N 141.898 -0.863906 -1.31812 0
M  V30 1116 C 142.861 -0.320212 -2.26952 0
M  V30 1117 C 143.861 0.525369 -1.51975 0
M  V30 1118 O 145.051 0.335547 -1.70938 0
M  V30 1119 C 142.183 0.545919 -3.365 0
M  V30 1120 H 143.376 -1.16004 -2.76556 0
M  V30 1121 H 140.929 -0.638995 -1.42641 0
M  V30 1122 H 141.664 1.40718 -2.92179 0
M  V30 1123 H 141.449 -0.0594674 -3.92055 0
M  V30 1124 H 142.939 0.918796 -4.07367 0
M  V30 1125 N 143.376 1.44774 -0.622745 0
M  V30 1126 C 144.339 2.29069 0.0774015 0
M  V30 1127 C 145.339 1.4059 0.780461 0
M  V30 1128 O 146.529 1.62551 0.626322 0
M  V30 1129 C 143.661 3.21974 1.12006 0
M  V30 1130 H 144.854 2.92459 -0.663901 0
M  V30 1131 H 142.407 1.51548 -0.382486 0
M  V30 1132 H 143.142 2.63417 1.89162 0
M  V30 1133 H 142.927 3.87168 0.619951 0
M  V30 1134 H 144.417 3.85318 1.60995 0
M  V30 1135 N 144.854 0.36279 1.53368 0
M  V30 1136 C 146.102 -0.227326 2.00817 0
M  V30 1137 C 146.423 -1.49511 1.25186 0
M  V30 1138 O 145.693 -1.92482 0.364348 0
M  V30 1139 H 144.273 -0.0869923 0.741917 0
M  V30 1140 H 146.935 0.488381 1.88682 0
M  V30 1141 H 146.031 -0.456273 3.08747 0
M  V30 1142 N 146.332 -1.57332 0.0918853 0
M  V30 1143 C 147.295 -2.12708 -0.85369 0
M  V30 1144 C 148.295 -1.05561 -1.213 0
M  V30 1145 O 149.485 -1.31461 -1.14296 0
M  V30 1146 C 146.617 -2.64503 -2.15061 0
M  V30 1147 H 147.81 -2.97573 -0.3729 0
M  V30 1148 H 145.363 -1.55509 -0.157072 0
M  V30 1149 H 146.098 -1.83149 -2.67632 0
M  V30 1150 H 145.883 -3.4284 -1.90272 0
M  V30 1151 H 147.373 -3.07351 -2.82711 0
M  V30 1152 N 147.81 0.181792 -1.56548 0
M  V30 1153 C 148.773 1.20894 -1.94724 0
M  V30 1154 C 149.773 1.37738 -0.829747 0
M  V30 1155 O 150.963 1.35323 -1.09697 0
M  V30 1156 C 148.095 2.57593 -2.23291 0
M  V30 1157 H 149.288 0.882275 -2.86629 0
M  V30 1158 H 146.841 0.423838 -1.50444 0
M  V30 1159 H 147.576 2.95291 -1.34067 0
M  V30 1160 H 147.361 2.46735 -3.04736 0
M  V30 1161 H 148.851 3.31637 -2.53785 0
M  V30 1162 N 149.288 1.51039 0.449983 0
M  V30 1163 C 150.251 1.70863 1.5277 0
M  V30 1164 C 151.251 0.578846 1.5002 0
M  V30 1165 O 152.441 0.846213 1.52266 0
M  V30 1166 C 149.573 1.75341 2.9235 0
M  V30 1167 H 150.766 2.67034 1.36502 0
M  V30 1168 H 148.319 1.40838 0.677812 0
M  V30 1169 H 149.054 0.809383 3.14037 0
M  V30 1170 H 148.839 2.57436 2.95752 0
M  V30 1171 H 150.329 1.92559 3.70555 0
M  V30 1172 N 150.766 -0.704594 1.40972 0
M  V30 1173 C 151.696 -1.83124 1.44872 0
M  V30 1174 C 152.677 -1.67281 0.30838 0
M  V30 1175 O 153.862 -1.87149 0.518556 0
M  V30 1176 C 150.992 -3.21181 1.32136 0
M  V30 1177 C 149.946 -3.51714 2.43888 0
M  V30 1178 C 149.272 -4.89032 2.16222 0
M  V30 1179 C 150.572 -3.516 3.86232 0
M  V30 1180 H 152.266 -1.80117 2.39161 0
M  V30 1181 H 149.812 -0.865145 1.15114 0
M  V30 1182 H 151.765 -3.99702 1.33479 0
M  V30 1183 H 150.489 -3.24791 0.343279 0
M  V30 1184 H 149.148 -2.75539 2.41813 0
M  V30 1185 H 148.796 -4.89256 1.16778 0
M  V30 1186 H 148.496 -5.10426 2.911 0
M  V30 1187 H 150.02 -5.69873 2.19265 0
M  V30 1188 H 151.434 -4.2014 3.9007 0
M  V30 1189 H 149.831 -3.84523 4.60719 0
M  V30 1190 H 150.901 -2.50757 4.15029 0
M  V30 1191 N 152.244 -1.26651 -0.937939 0
M  V30 1192 C 153.521 -1.0313 -1.66204 0
M  V30 1193 C 153.901 0.437256 -2.06522 0
M  V30 1194 O 153.249 1.41831 -1.79154 0
M  V30 1195 C 153.459 -1.98314 -2.87181 0
M  V30 1196 C 154.807 -2.27107 -3.58758 0
M  V30 1197 O 155.831 -1.96205 -2.97291 0
M  V30 1198 O 154.69 -2.79736 -4.69479 0
M  V30 1199 H 151.784 -0.392384 -0.727986 0
M  V30 1200 H 154.33 -1.37874 -0.989382 0
M  V30 1201 H 153.102 -2.97399 -2.54302 0
M  V30 1202 H 152.725 -1.64068 -3.6217 0
M  V30 1203 N 153.722 1.14298 -1.08507 0
M  V30 1204 C 154.632 2.23027 -0.727753 0
M  V30 1205 C 155.648 1.71952 0.26619 0
M  V30 1206 O 156.824 2.011 0.109882 0
M  V30 1207 C 153.889 3.46403 -0.143541 0
M  V30 1208 C 152.95 4.12413 -1.19223 0
M  V30 1209 C 152.183 5.29899 -0.635798 0
M  V30 1210 O 152.406 5.67796 0.544393 0
M  V30 1211 O 151.34 5.85717 -1.38634 0
M  V30 1212 H 155.166 2.55945 -1.63481 0
M  V30 1213 H 152.751 1.22248 -0.858817 0
M  V30 1214 H 154.633 4.21018 0.179404 0
M  V30 1215 H 153.308 3.15206 0.736659 0
M  V30 1216 H 152.215 3.39667 -1.56772 0
M  V30 1217 H 153.548 4.47718 -2.04474 0
M  V30 1218 N 155.201 0.870884 1.31352 0
M  V30 1219 C 156.612 0.534714 1.78879 0
M  V30 1220 C 156.963 -0.948423 1.71754 0
M  V30 1221 O 156.088 -1.74055 1.28584 0
M  V30 1222 C 156.683 0.963839 3.24801 0
M  V30 1223 C 155.242 0.679311 3.70219 0
M  V30 1224 C 154.389 1.15465 2.52117 0
M  V30 1225 H 157.34 1.05651 1.18421 0
M  V30 1226 H 157.361 0.286892 3.79417 0
M  V30 1227 H 156.873 2.04332 3.29955 0
M  V30 1228 H 154.974 -0.388769 3.70566 0
M  V30 1229 H 155.087 1.25698 4.62317 0
M  V30 1230 H 153.451 0.574383 2.48139 0
M  V30 1231 H 154.234 2.24157 2.60016 0
M  V30 1232 N 156.679 -1.44442 0.630414 0
M  V30 1233 C 157.642 -2.29107 -0.0652523 0
M  V30 1234 C 158.642 -1.41002 -0.772995 0
M  V30 1235 O 159.832 -1.62881 -0.617692 0
M  V30 1236 C 156.964 -3.22564 -1.10296 0
M  V30 1237 H 158.157 -2.92103 0.679401 0
M  V30 1238 H 155.71 -1.51343 0.390517 0
M  V30 1239 H 156.445 -2.64416 -1.87762 0
M  V30 1240 H 156.23 -3.87491 -0.59941 0
M  V30 1241 H 157.72 -3.86167 -1.5895 0
M  V30 1242 N 158.157 -0.370918 -1.53173 0
M  V30 1243 C 159.12 0.460778 -2.24521 0
M  V30 1244 C 160.12 1.00536 -1.25496 0
M  V30 1245 O 161.31 0.890266 -1.49733 0
M  V30 1246 C 158.442 1.64457 -2.98608 0
M  V30 1247 H 159.635 -0.163613 -2.99453 0
M  V30 1248 H 157.188 -0.122699 -1.55818 0
M  V30 1249 H 157.923 2.30691 -2.2793 0
M  V30 1250 H 157.708 1.26099 -3.7127 0
M  V30 1251 H 159.198 2.23384 -3.5283 0
M  V30 1252 N 159.635 1.57281 -0.100228 0
M  V30 1253 C 160.598 2.13158 0.842398 0
M  V30 1254 C 161.598 1.06202 1.20738 0
M  V30 1255 O 162.788 1.32066 1.13597 0
M  V30 1256 C 159.92 2.65639 2.13655 0
M  V30 1257 H 161.113 2.97766 0.357114 0
M  V30 1258 H 158.666 1.5559 0.148823 0
M  V30 1259 H 159.401 1.84566 2.66657 0
M  V30 1260 H 159.186 3.43844 1.88451 0
M  V30 1261 H 160.676 3.08846 2.81077 0
M  V30 1262 N 161.113 -0.173488 1.56642 0
M  V30 1263 C 162.361 -0.888706 1.81512 0
M  V30 1264 C 162.682 -1.82875 0.676872 0
M  V30 1265 O 161.952 -1.93536 -0.303414 0
M  V30 1266 H 160.532 -0.331164 0.669582 0
M  V30 1267 H 163.194 -0.173823 1.94123 0
M  V30 1268 H 162.29 -1.46691 2.75478 0
M  V30 1269 N 162.591 -1.51276 -0.441967 0
M  V30 1270 C 163.523 -1.68444 -1.55433 0
M  V30 1271 C 164.536 -0.565187 -1.52674 0
M  V30 1272 O 165.725 -0.839356 -1.57534 0
M  V30 1273 C 162.825 -1.67966 -2.94348 0
M  V30 1274 C 161.998 -2.964 -3.21661 0
M  V30 1275 C 161.057 -2.88171 -4.40277 0
M  V30 1276 O 160.083 -3.62119 -4.39157 0
M  V30 1277 N 161.285 -2.03706 -5.43584 0
M  V30 1278 H 164.05 -2.644 -1.41112 0
M  V30 1279 H 161.611 -1.49104 -0.630838 0
M  V30 1280 H 163.603 -1.60035 -3.71713 0
M  V30 1281 H 162.173 -0.796225 -3.0229 0
M  V30 1282 H 161.393 -3.18234 -2.32638 0
M  V30 1283 H 162.681 -3.81427 -3.36736 0
M  V30 1284 H 162.079 -1.42995 -5.47329 0
M  V30 1285 H 160.636 -2.01658 -6.1982 0
M  V30 1286 N 164.069 0.697108 -1.41344 0
M  V30 1287 C 165.016 1.81106 -1.43071 0
M  V30 1288 C 165.986 1.63632 -0.285275 0
M  V30 1289 O 167.171 1.84504 -0.486091 0
M  V30 1290 C 164.311 3.18975 -1.31715 0
M  V30 1291 C 163.424 3.47892 -2.56115 0
M  V30 1292 C 162.559 4.75367 -2.37064 0
M  V30 1293 C 161.598 4.97247 -3.56948 0
M  V30 1294 N 160.735 6.15947 -3.36977 0
M  V30 1295 H 165.575 1.78965 -2.38276 0
M  V30 1296 H 163.112 0.873975 -1.18322 0
M  V30 1297 H 165.07 3.98615 -1.23133 0
M  V30 1298 H 163.7 3.20297 -0.401183 0
M  V30 1299 H 162.752 2.62669 -2.75153 0
M  V30 1300 H 164.064 3.59962 -3.45295 0
M  V30 1301 H 163.218 5.63059 -2.25941 0
M  V30 1302 H 161.957 4.65541 -1.45338 0
M  V30 1303 H 160.962 4.08004 -3.68527 0
M  V30 1304 H 162.187 5.08934 -4.49626 0
M  V30 1305 H 160.133 6.07336 -2.47949 0
M  V30 1306 H 160.05 6.28777 -4.19732 0
M  V30 1307 H 161.318 7.06377 -3.29623 0
M  V30 1308 N 165.547 1.27147 0.931209 0
M  V30 1309 C 166.457 1.11372 2.06478 0
M  V30 1310 C 167.473 0.044645 1.73943 0
M  V30 1311 O 168.649 0.250417 1.99837 0
M  V30 1312 C 165.714 0.758838 3.38294 0
M  V30 1313 C 164.775 1.90841 3.84549 0
M  V30 1314 C 164.008 1.57036 5.10074 0
M  V30 1315 O 164.231 0.476645 5.68405 0
M  V30 1316 O 163.165 2.40839 5.51616 0
M  V30 1317 H 166.991 2.06493 2.22698 0
M  V30 1318 H 164.576 1.06301 1.04978 0
M  V30 1319 H 166.458 0.574098 4.17471 0
M  V30 1320 H 165.133 -0.162879 3.2329 0
M  V30 1321 H 164.04 2.14819 3.06274 0
M  V30 1322 H 165.373 2.81021 4.04089 0
M  V30 1323 N 167.025 -1.13721 1.09112 0
M  V30 1324 C 167.972 -2.19031 0.727591 0
M  V30 1325 C 168.942 -1.63555 -0.289656 0
M  V30 1326 O 170.127 -1.90023 -0.172026 0
M  V30 1327 C 167.267 -3.4477 0.15082 0
M  V30 1328 C 166.38 -4.14365 1.22172 0
M  V30 1329 C 165.515 -5.27709 0.608042 0
M  V30 1330 C 164.554 -5.89147 1.66047 0
M  V30 1331 N 163.691 -6.93929 1.06806 0
M  V30 1332 H 168.531 -2.49475 1.62991 0
M  V30 1333 H 166.068 -1.22499 0.81439 0
M  V30 1334 H 168.026 -4.16714 -0.201358 0
M  V30 1335 H 166.656 -3.14787 -0.714783 0
M  V30 1336 H 165.708 -3.40737 1.69122 0
M  V30 1337 H 167.02 -4.56114 2.01895 0
M  V30 1338 H 166.174 -6.06355 0.204523 0
M  V30 1339 H 164.913 -4.872 -0.220769 0
M  V30 1340 H 163.918 -5.09198 2.07357 0
M  V30 1341 H 165.143 -6.31729 2.49189 0
M  V30 1342 H 163.089 -6.55483 0.260476 0
M  V30 1343 H 163.006 -7.34202 1.8023 0
M  V30 1344 H 164.274 -7.76434 0.690644 0
M  V30 1345 N 168.503 -0.877838 -1.30888 0
M  V30 1346 C 169.78 -0.413052 -1.91189 0
M  V30 1347 C 170.16 1.1056 -1.79832 0
M  V30 1348 O 169.508 1.93771 -1.21099 0
M  V30 1349 C 169.718 -0.903191 -3.3711 0
M  V30 1350 C 171.066 -0.93395 -4.14201 0
M  V30 1351 O 172.09 -0.849373 -3.45925 0
M  V30 1352 O 170.949 -1.05772 -5.36167 0
M  V30 1353 H 168.043 -0.125035 -0.817493 0
M  V30 1354 H 170.589 -0.966269 -1.39504 0
M  V30 1355 H 169.361 -1.94692 -3.39427 0
M  V30 1356 H 168.984 -0.328732 -3.96239 0
M  V30 1357 N 169.982 1.44106 -0.638065 0
M  V30 1358 C 170.892 2.34513 0.0637334 0
M  V30 1359 C 171.908 1.53018 0.828346 0
M  V30 1360 O 173.084 1.85723 0.779036 0
M  V30 1361 C 170.149 3.31095 1.02844 0
M  V30 1362 C 169.21 4.28497 0.26244 0
M  V30 1363 C 168.443 5.20465 1.1812 0
M  V30 1364 O 168.666 5.16514 2.42011 0
M  V30 1365 O 167.6 5.98251 0.661774 0
M  V30 1366 H 171.426 2.95989 -0.68003 0
M  V30 1367 H 169.011 1.43994 -0.398252 0
M  V30 1368 H 170.893 3.90526 1.58327 0
M  V30 1369 H 169.568 2.72144 1.7527 0
M  V30 1370 H 168.475 3.72592 -0.335602 0
M  V30 1371 H 169.808 4.90388 -0.421936 0
M  V30 1372 N 171.46 0.379036 1.52974 0
M  V30 1373 C 172.423 -0.448865 2.24762 0
M  V30 1374 C 173.423 -0.998689 1.26027 0
M  V30 1375 O 174.613 -0.882313 1.50203 0
M  V30 1376 C 171.745 -1.62872 2.99476 0
M  V30 1377 H 172.938 0.179491 2.99362 0
M  V30 1378 H 170.491 0.13096 1.5575 0
M  V30 1379 H 171.226 -2.29479 2.29151 0
M  V30 1380 H 171.011 -1.24128 3.71934 0
M  V30 1381 H 172.501 -2.2151 3.5401 0
M  V30 1382 N 172.938 -1.57226 0.108567 0
M  V30 1383 C 173.868 -2.17778 -0.84232 0
M  V30 1384 C 174.849 -1.11487 -1.2847 0
M  V30 1385 O 176.034 -1.39681 -1.34918 0
M  V30 1386 C 173.164 -2.76888 -2.09644 0
M  V30 1387 C 172.118 -3.88669 -1.79221 0
M  V30 1388 C 171.444 -4.34541 -3.11574 0
M  V30 1389 C 172.744 -5.11251 -1.06864 0
M  V30 1390 H 174.438 -2.97489 -0.337774 0
M  V30 1391 H 171.984 -1.43097 -0.161025 0
M  V30 1392 H 173.937 -3.17904 -2.76614 0
M  V30 1393 H 172.661 -1.94451 -2.62405 0
M  V30 1394 H 171.32 -3.48213 -1.14644 0
M  V30 1395 H 170.968 -3.48977 -3.62249 0
M  V30 1396 H 170.668 -5.09914 -2.91996 0
M  V30 1397 H 172.192 -4.782 -3.7968 0
M  V30 1398 H 173.606 -5.49352 -1.63968 0
M  V30 1399 H 172.003 -5.9214 -0.974178 0
M  V30 1400 H 173.073 -4.8487 -0.0536168 0
M  V30 1401 N 174.416 0.165178 -1.56732 0
M  V30 1402 C 175.326 1.22423 -2.00125 0
M  V30 1403 C 176.342 1.48084 -0.913619 0
M  V30 1404 O 177.518 1.60112 -1.22172 0
M  V30 1405 C 174.583 2.54197 -2.35764 0
M  V30 1406 C 173.644 2.36343 -3.58386 0
M  V30 1407 C 172.877 3.61834 -3.92316 0
M  V30 1408 O 173.1 4.67267 -3.27135 0
M  V30 1409 O 172.034 3.55579 -4.85641 0
M  V30 1410 H 175.86 0.885886 -2.90492 0
M  V30 1411 H 173.445 0.372518 -1.44681 0
M  V30 1412 H 175.327 3.3192 -2.59629 0
M  V30 1413 H 174.002 2.87598 -1.48557 0
M  V30 1414 H 172.909 1.56632 -3.39731 0
M  V30 1415 H 174.242 2.07865 -4.46154 0
M  V30 1416 N 175.894 1.51508 0.433938 0
M  V30 1417 C 176.804 1.75917 1.5521 0
M  V30 1418 C 177.82 0.643545 1.61662 0
M  V30 1419 O 178.996 0.926183 1.7884 0
M  V30 1420 C 176.061 1.88213 2.91164 0
M  V30 1421 C 175.122 3.12074 2.94802 0
M  V30 1422 C 174.355 3.23774 4.24271 0
M  V30 1423 O 174.578 2.4133 5.16833 0
M  V30 1424 O 173.512 4.16774 4.34262 0
M  V30 1425 H 177.338 2.70777 1.37527 0
M  V30 1426 H 174.923 1.36051 0.617293 0
M  V30 1427 H 176.805 1.98267 3.71845 0
M  V30 1428 H 175.48 0.965413 3.08968 0
M  V30 1429 H 174.387 3.07497 2.13065 0
M  V30 1430 H 175.72 4.03446 2.81943 0
M  V30 1431 N 177.372 -0.689602 1.41712 0
M  V30 1432 C 178.319 -1.80345 1.44029 0
M  V30 1433 C 179.289 -1.63478 0.293948 0
M  V30 1434 O 180.474 -1.84244 0.495869 0
M  V30 1435 C 177.614 -3.18272 1.33405 0
M  V30 1436 C 176.727 -3.46529 2.57956 0
M  V30 1437 C 175.862 -4.74103 2.39582 0
M  V30 1438 C 174.901 -4.95347 3.5958 0
M  V30 1439 N 174.038 -6.14151 3.40239 0
M  V30 1440 H 178.878 -1.77698 2.39222 0
M  V30 1441 H 176.415 -0.867688 1.18784 0
M  V30 1442 H 178.373 -3.97956 1.25246 0
M  V30 1443 H 177.003 -3.2008 0.418164 0
M  V30 1444 H 176.055 -2.61207 2.76542 0
M  V30 1445 H 177.367 -3.58126 3.47199 0
M  V30 1446 H 176.521 -5.61853 2.28924 0
M  V30 1447 H 175.26 -4.64763 1.47805 0
M  V30 1448 H 174.265 -4.06044 3.70686 0
M  V30 1449 H 175.49 -5.06542 4.52318 0
M  V30 1450 H 173.436 -6.06013 2.51167 0
M  V30 1451 H 173.353 -6.26543 4.23061 0
M  V30 1452 H 174.621 -7.04619 3.33365 0
M  V30 1453 N 178.85 -1.27639 -0.924453 0
M  V30 1454 C 179.78 -1.13166 -2.04244 0
M  V30 1455 C 180.761 -0.032256 -1.70069 0
M  V30 1456 O 181.946 -0.207328 -1.9309 0
M  V30 1457 C 179.076 -0.781496 -3.38393 0
M  V30 1458 C 178.03 -1.83449 -3.86692 0
M  V30 1459 C 177.356 -1.33822 -5.17683 0
M  V30 1460 C 178.656 -3.23917 -4.09726 0
M  V30 1461 H 180.35 -2.06689 -2.1661 0
M  V30 1462 H 177.896 -0.995136 -1.04082 0
M  V30 1463 H 179.849 -0.667057 -4.16087 0
M  V30 1464 H 178.573 0.189439 -3.2605 0
M  V30 1465 H 177.232 -1.93789 -3.11193 0
M  V30 1466 H 176.88 -0.35665 -5.01734 0
M  V30 1467 H 176.58 -2.04224 -5.50968 0
M  V30 1468 H 178.104 -1.23679 -5.97943 0
M  V30 1469 H 179.518 -3.16559 -4.77978 0
M  V30 1470 H 177.915 -3.92059 -4.54324 0
M  V30 1471 H 178.985 -3.68729 -3.14908 0
M  V30 1472 N 180.328 1.1314 -1.09713 0
M  V30 1473 C 181.744 1.36477 -0.827423 0
M  V30 1474 C 181.944 1.93654 0.556817 0
M  V30 1475 O 181 2.15791 1.31112 0
M  V30 1476 C 182.313 2.31334 -1.92106 0
M  V30 1477 C 183.861 2.44943 -1.94864 0
M  V30 1478 C 184.336 3.4311 -3.0338 0
M  V30 1479 N 185.827 3.50662 -3.02639 0
M  V30 1480 C 186.562 4.2651 -3.83246 0
M  V30 1481 N 186.058 5.05485 -4.73768 0
M  V30 1482 N 187.851 4.2184 -3.71493 0
M  V30 1483 H 180.002 0.743807 -1.9895 0
M  V30 1484 H 182.265 0.389823 -0.864143 0
M  V30 1485 H 181.971 1.96483 -2.91698 0
M  V30 1486 H 181.845 3.31381 -1.80184 0
M  V30 1487 H 184.232 2.79079 -0.959099 0
M  V30 1488 H 184.313 1.4481 -2.10864 0
M  V30 1489 H 183.957 3.09704 -4.02549 0
M  V30 1490 H 183.887 4.43055 -2.84622 0
M  V30 1491 H 186.378 2.94315 -2.37039 0
M  V30 1492 H 186.691 5.60675 -5.3185 0
M  V30 1493 H 185.036 5.04708 -4.77802 0
M  V30 1494 H 188.227 3.5922 -3.00131 0
M  V30 1495 H 188.4 4.80697 -4.3455 0
M  V30 1496 N 181.806 0.884767 1.30421 0
M  V30 1497 C 182.754 0.340869 2.30089 0
M  V30 1498 C 183.748 -0.55201 1.60154 0
M  V30 1499 O 184.954 -0.436467 1.74628 0
M  V30 1500 H 181.329 0.0915739 0.746404 0
M  V30 1501 H 183.3 1.19513 2.73421 0
M  V30 1502 C 182.049 -0.429779 3.45034 0
M  V30 1503 H 181.372 0.248024 3.9903 0
M  V30 1504 H 182.812 -0.775445 4.16849 0
M  V30 1505 C 181.271 -1.62677 2.95022 0
M  V30 1506 O 181.801 -2.72614 2.95033 0
M  V30 1507 N 180.007 -1.46387 2.51036 0
M  V30 1508 H 179.554 -0.569506 2.51226 0
M  V30 1509 H 179.512 -2.26612 2.17932 0
M  V30 1510 N 183.284 -1.43765 0.645699 0
M  V30 1511 C 184.214 -2.33471 -0.0370477 0
M  V30 1512 C 185.195 -1.49042 -0.819779 0
M  V30 1513 O 186.38 -1.77726 -0.782758 0
M  V30 1514 C 183.51 -3.32311 -1.0093 0
M  V30 1515 C 182.464 -4.2667 -0.337201 0
M  V30 1516 C 181.79 -5.1549 -1.42037 0
M  V30 1517 C 183.09 -5.16657 0.765706 0
M  V30 1518 H 184.784 -2.90809 0.712069 0
M  V30 1519 H 182.33 -1.39834 0.343876 0
M  V30 1520 H 184.283 -3.9396 -1.49578 0
M  V30 1521 H 183.007 -2.73213 -1.78948 0
M  V30 1522 H 181.666 -3.66374 0.128771 0
M  V30 1523 H 181.314 -4.52735 -2.1918 0
M  V30 1524 H 181.014 -5.79438 -0.975966 0
M  V30 1525 H 182.538 -5.80012 -1.90838 0
M  V30 1526 H 183.952 -5.72158 0.361702 0
M  V30 1527 H 182.349 -5.89286 1.13413 0
M  V30 1528 H 183.419 -4.56796 1.62683 0
M  V30 1529 N 184.763 -0.387143 -1.52771 0
M  V30 1530 C 185.991 0.195869 -2.05971 0
M  V30 1531 C 186.406 1.40691 -1.25903 0
M  V30 1532 O 185.763 1.79931 -0.305134 0
M  V30 1533 C 185.814 0.56812 -3.57008 0
M  V30 1534 O 185.535 -0.594803 -4.34043 0
M  V30 1535 C 187.036 1.20723 -4.26545 0
M  V30 1536 H 184.256 0.0300578 -0.670326 0
M  V30 1537 H 186.8 -0.551749 -1.96916 0
M  V30 1538 H 184.955 1.26564 -3.66143 0
M  V30 1539 H 185.369 -0.289322 -5.23701 0
M  V30 1540 H 186.843 1.41807 -5.33474 0
M  V30 1541 H 187.32 2.17395 -3.81623 0
M  V30 1542 H 187.926 0.550535 -4.21722 0
M  V30 1543 N 186.241 1.57166 -0.116904 0
M  V30 1544 C 187.488 1.95123 0.541603 0
M  V30 1545 C 187.816 1.00006 1.6682 0
M  V30 1546 O 187.071 0.0235658 1.95686 0
M  V30 1547 C 187.37 3.39508 1.11664 0
M  V30 1548 C 187.036 4.50762 0.111606 0
M  V30 1549 C 185.698 4.80918 -0.164758 0
M  V30 1550 C 188.05 5.18036 -0.573438 0
M  V30 1551 C 185.378 5.75666 -1.13249 0
M  V30 1552 C 187.73 6.13824 -1.52978 0
M  V30 1553 C 186.394 6.42374 -1.81415 0
M  V30 1554 H 185.664 0.714005 0.198187 0
M  V30 1555 H 188.311 1.9048 -0.197365 0
M  V30 1556 H 186.616 3.40835 1.93232 0
M  V30 1557 H 188.313 3.66189 1.63422 0
M  V30 1558 H 184.903 4.27272 0.337192 0
M  V30 1559 H 189.087 4.94896 -0.373092 0
M  V30 1560 H 184.343 5.96092 -1.35958 0
M  V30 1561 H 188.517 6.65039 -2.06629 0
M  V30 1562 H 186.144 7.15599 -2.56557 0
M  V30 1563 N 187.719 -0.156864 1.56817 0
M  V30 1564 C 189.135 -0.50916 1.5126 0
M  V30 1565 C 189.335 -1.83897 0.823658 0
M  V30 1566 O 188.391 -2.49469 0.390055 0
M  V30 1567 C 189.704 -0.52857 2.96018 0
M  V30 1568 C 191.252 -0.614771 3.06903 0
M  V30 1569 C 191.727 -0.664938 4.53147 0
M  V30 1570 N 193.218 -0.727433 4.57452 0
M  V30 1571 C 193.953 -0.787067 5.67973 0
M  V30 1572 N 193.449 -0.806649 6.88088 0
M  V30 1573 N 195.242 -0.827195 5.5598 0
M  V30 1574 H 187.393 0.714935 2.00006 0
M  V30 1575 H 189.656 0.259526 0.911784 0
M  V30 1576 H 189.362 0.380154 3.49639 0
M  V30 1577 H 189.236 -1.36998 3.51442 0
M  V30 1578 H 191.623 -1.51392 2.53307 0
M  V30 1579 H 191.704 0.253597 2.5454 0
M  V30 1580 H 191.348 0.230011 5.07379 0
M  V30 1581 H 191.278 -1.54966 5.03282 0
M  V30 1582 H 193.769 -0.719998 3.70978 0
M  V30 1583 H 194.082 -0.853727 7.6807 0
M  V30 1584 H 192.427 -0.774687 6.90669 0
M  V30 1585 H 195.618 -0.808998 4.61056 0
M  V30 1586 H 195.791 -0.870206 6.4213 0
M  V30 1587 N 189.197 -1.51736 -0.425897 0
M  V30 1588 C 190.144 -1.73875 -1.51776 0
M  V30 1589 C 191.114 -0.580702 -1.55618 0
M  V30 1590 O 192.299 -0.81641 -1.72451 0
M  V30 1591 C 189.439 -1.88012 -2.89388 0
M  V30 1592 C 188.552 -3.15606 -2.94986 0
M  V30 1593 C 187.687 -3.20271 -4.23793 0
M  V30 1594 C 186.726 -4.42134 -4.23302 0
M  V30 1595 N 185.863 -4.44284 -5.43651 0
M  V30 1596 H 190.703 -2.67071 -1.32201 0
M  V30 1597 H 188.24 -1.32351 -0.642008 0
M  V30 1598 H 190.198 -1.9419 -3.69251 0
M  V30 1599 H 188.828 -0.98213 -3.07496 0
M  V30 1600 H 187.88 -3.18681 -2.07717 0
M  V30 1601 H 189.192 -4.05486 -2.90486 0
M  V30 1602 H 188.346 -3.25428 -5.12036 0
M  V30 1603 H 187.085 -2.28299 -4.30965 0
M  V30 1604 H 186.09 -4.3714 -3.3345 0
M  V30 1605 H 187.315 -5.35382 -4.17783 0
M  V30 1606 H 185.261 -3.55188 -5.51523 0
M  V30 1607 H 185.178 -5.27988 -5.41078 0
M  V30 1608 H 186.446 -4.53649 -6.33895 0
M  V30 1609 N 190.675 0.682077 -1.42076 0
M  V30 1610 C 191.607 1.80755 -1.40926 0
M  V30 1611 C 192.62 1.59833 -0.309398 0
M  V30 1612 O 193.809 1.69087 -0.572014 0
M  V30 1613 C 190.909 3.17744 -1.17865 0
M  V30 1614 C 190.082 3.65578 -2.40149 0
M  V30 1615 C 189.141 4.81277 -2.12742 0
M  V30 1616 O 188.167 4.92197 -2.85887 0
M  V30 1617 N 189.369 5.69474 -1.12602 0
M  V30 1618 H 192.134 1.82229 -2.37935 0
M  V30 1619 H 189.695 0.864903 -1.36861 0
M  V30 1620 H 191.687 3.9279 -0.9746 0
M  V30 1621 H 190.257 3.11214 -0.294068 0
M  V30 1622 H 189.477 2.81291 -2.76169 0
M  V30 1623 H 190.765 3.94278 -3.21593 0
M  V30 1624 H 190.163 5.63297 -0.520899 0
M  V30 1625 H 188.72 6.44363 -0.981842 0
M  V30 1626 N 192.153 1.28127 0.917671 0
M  V30 1627 C 193.399 1.15223 1.66888 0
M  V30 1628 C 193.732 -0.299293 1.9188 0
M  V30 1629 O 193.007 -1.21805 1.51637 0
M  V30 1630 C 193.29 1.94706 3.02922 0
M  V30 1631 C 193.143 3.47898 2.85109 0
M  V30 1632 C 194.462 1.75939 4.03402 0
M  V30 1633 H 191.581 0.419946 0.605652 0
M  V30 1634 H 194.223 1.57398 1.06423 0
M  V30 1635 H 192.373 1.58864 3.54534 0
M  V30 1636 H 194.045 3.93624 2.40537 0
M  V30 1637 H 192.288 3.7373 2.20246 0
M  V30 1638 H 192.959 3.98765 3.81694 0
M  V30 1639 H 195.435 2.07209 3.60837 0
M  V30 1640 H 194.311 2.33931 4.96556 0
M  V30 1641 H 194.572 0.709877 4.36364 0
M  V30 1642 N 193.631 -1.12557 1.10312 0
M  V30 1643 C 194.856 -1.88405 0.867085 0
M  V30 1644 C 195.281 -1.79038 -0.576817 0
M  V30 1645 O 194.639 -1.14439 -1.40618 0
M  V30 1646 C 194.687 -3.3563 1.31851 0
M  V30 1647 O 193.791 -4.09565 0.482734 0
M  V30 1648 H 193.132 -0.585455 0.313271 0
M  V30 1649 H 195.662 -1.42352 1.4696 0
M  V30 1650 H 195.672 -3.86469 1.3079 0
M  V30 1651 H 194.347 -3.41765 2.37001 0
M  V30 1652 H 192.924 -3.68695 0.558448 0
M  V30 1653 N 195.109 -0.891671 -1.2995 0
M  V30 1654 C 196.339 -0.527893 -1.99742 0
M  V30 1655 C 196.747 0.88979 -1.66971 0
M  V30 1656 O 196.09 1.59766 -0.906667 0
M  V30 1657 C 196.152 -0.630804 -3.53922 0
M  V30 1658 C 195.816 -2.01401 -4.10228 0
M  V30 1659 C 196.813 -2.98422 -4.25724 0
M  V30 1660 C 194.498 -2.32121 -4.45449 0
M  V30 1661 C 196.492 -4.24293 -4.75662 0
M  V30 1662 C 194.179 -3.58237 -4.95086 0
M  V30 1663 C 195.177 -4.54137 -5.10146 0
M  V30 1664 O 194.865 -5.78014 -5.58708 0
M  V30 1665 H 194.597 -0.201953 -0.645129 0
M  V30 1666 H 197.151 -1.20076 -1.66646 0
M  V30 1667 H 195.381 0.0990616 -3.86573 0
M  V30 1668 H 197.07 -0.277338 -4.04951 0
M  V30 1669 H 197.836 -2.76001 -3.98809 0
M  V30 1670 H 193.715 -1.5824 -4.32991 0
M  V30 1671 H 197.259 -4.99153 -4.87332 0
M  V30 1672 H 193.156 -3.80491 -5.21437 0
M  V30 1673 H 193.924 -5.8049 -5.77039 0
M  V30 1674 N 196.587 1.43421 -0.653314 0
M  V30 1675 C 198.003 1.56341 -0.320886 0
M  V30 1676 C 198.203 1.63696 1.17499 0
M  V30 1677 O 197.259 1.59208 1.95982 0
M  V30 1678 C 198.572 2.82424 -1.03233 0
M  V30 1679 C 200.12 2.96168 -1.01259 0
M  V30 1680 C 200.595 4.25084 -1.70492 0
M  V30 1681 N 202.086 4.31948 -1.67257 0
M  V30 1682 C 202.821 5.30466 -2.17701 0
M  V30 1683 N 202.317 6.35261 -2.76434 0
M  V30 1684 N 204.11 5.2212 -2.082 0
M  V30 1685 H 196.261 1.3689 -1.62403 0
M  V30 1686 H 198.524 0.657455 -0.682977 0
M  V30 1687 H 198.23 2.83053 -2.08744 0
M  V30 1688 H 198.104 3.72653 -0.583948 0
M  V30 1689 H 200.491 2.9508 0.0341235 0
M  V30 1690 H 200.572 2.07229 -1.49966 0
M  V30 1691 H 200.216 4.26932 -2.7512 0
M  V30 1692 H 200.146 5.1292 -1.19251 0
M  V30 1693 H 202.637 3.56838 -1.24398 0
M  V30 1694 H 202.95 7.06754 -3.12601 0
M  V30 1695 H 201.295 6.35884 -2.80495 0
M  V30 1696 H 204.486 4.39166 -1.62021 0
M  V30 1697 H 204.659 5.98739 -2.47822 0
M  V30 1698 N 198.065 0.39524 1.52563 0
M  V30 1699 C 199.012 -0.437036 2.26624 0
M  V30 1700 C 199.982 -1.05281 1.28472 0
M  V30 1701 O 201.167 -1.07971 1.57311 0
M  V30 1702 C 198.307 -1.55524 3.08069 0
M  V30 1703 C 197.42 -0.961745 4.21158 0
M  V30 1704 C 196.555 -2.05149 4.89987 0
M  V30 1705 C 195.594 -1.4342 5.95061 0
M  V30 1706 N 194.731 -2.46351 6.57462 0
M  V30 1707 H 199.571 0.200976 2.97322 0
M  V30 1708 H 197.108 0.110944 1.46681 0
M  V30 1709 H 199.066 -2.21437 3.53584 0
M  V30 1710 H 197.696 -2.16348 2.3957 0
M  V30 1711 H 196.748 -0.192048 3.79915 0
M  V30 1712 H 198.06 -0.470701 4.96574 0
M  V30 1713 H 197.214 -2.78819 5.38837 0
M  V30 1714 H 195.953 -2.57615 4.14109 0
M  V30 1715 H 194.958 -0.682774 5.45544 0
M  V30 1716 H 196.183 -0.917416 6.72875 0
M  V30 1717 H 194.129 -2.97975 5.8442 0
M  V30 1718 H 194.046 -2.02019 7.28508 0
M  V30 1719 H 195.314 -3.19633 7.10954 0
M  V30 1720 N 199.544 -1.57102 0.125237 0
M  V30 1721 C 200.507 -2.14471 -0.80838 0
M  V30 1722 C 201.507 -1.0811 -1.19033 0
M  V30 1723 O 202.697 -1.33856 -1.11482 0
M  V30 1724 C 199.829 -2.69005 -2.09402 0
M  V30 1725 H 201.022 -2.98297 -0.309696 0
M  V30 1726 H 198.575 -1.55807 -0.124051 0
M  V30 1727 H 199.31 -1.88785 -2.63687 0
M  V30 1728 H 199.095 -3.46799 -1.82957 0
M  V30 1729 H 200.585 -3.13278 -2.76128 0
M  V30 1730 N 201.022 0.148545 -1.56898 0
M  V30 1731 C 202.271 0.85984 -1.82454 0
M  V30 1732 C 202.584 1.82406 -0.706229 0
M  V30 1733 O 203.79 2.57938 -0.847349 0
M  V30 1734 C 202.246 1.57967 -3.2338 0
M  V30 1735 C 201.854 0.65794 -4.43142 0
M  V30 1736 C 203.598 2.27784 -3.58211 0
M  V30 1737 C 201.505 1.3793 -5.75091 0
M  V30 1738 H 200.435 0.324834 -0.68044 0
M  V30 1739 H 203.086 0.112588 -1.83154 0
M  V30 1740 H 201.468 2.37249 -3.17063 0
M  V30 1741 H 202.642 -0.0995497 -4.60692 0
M  V30 1742 H 200.957 0.0682643 -4.16344 0
M  V30 1743 H 203.554 2.8239 -4.54048 0
M  V30 1744 H 203.897 3.04204 -2.84193 0
M  V30 1745 H 204.43 1.55421 -3.66182 0
M  V30 1746 H 201.169 0.656982 -6.52199 0
M  V30 1747 H 200.689 2.10954 -5.61479 0
M  V30 1748 H 202.368 1.92063 -6.17835 0
M  V30 1749 N 202.5 1.5196 0.417844 0
M  V30 1750 C 203.725 1.69717 1.1921 0
M  V30 1751 C 204.15 0.402148 1.83751 0
M  V30 1752 O 203.508 -0.639593 1.69643 0
M  V30 1753 C 203.556 2.82794 2.2374 0
M  V30 1754 O 202.66 2.47756 3.29683 0
M  V30 1755 H 202.001 0.565263 0.348387 0
M  V30 1756 H 204.531 1.98621 0.490985 0
M  V30 1757 H 204.541 3.07452 2.68212 0
M  V30 1758 H 203.216 3.76756 1.76146 0
M  V30 1759 H 201.793 2.33739 2.90552 0
M  V30 1760 N 203.978 -0.674533 1.42435 0
M  V30 1761 C 205.394 -0.98769 1.25367 0
M  V30 1762 C 205.594 -2.00879 0.158044 0
M  V30 1763 O 204.65 -2.48075 -0.470633 0
M  V30 1764 C 205.963 -1.49224 2.6106 0
M  V30 1765 C 207.511 -1.61 2.68417 0
M  V30 1766 C 207.986 -2.14852 4.04478 0
M  V30 1767 N 209.477 -2.22185 4.06434 0
M  V30 1768 C 210.212 -2.64928 5.08528 0
M  V30 1769 N 209.708 -3.07121 6.21006 0
M  V30 1770 N 211.501 -2.64679 4.95885 0
M  V30 1771 H 203.652 0.00152503 2.124 0
M  V30 1772 H 205.915 -0.0618434 0.945981 0
M  V30 1773 H 205.621 -0.816453 3.42092 0
M  V30 1774 H 205.495 -2.47094 2.84999 0
M  V30 1775 H 207.882 -2.27686 1.87732 0
M  V30 1776 H 207.963 -0.616195 2.48267 0
M  V30 1777 H 207.607 -1.48775 4.85622 0
M  V30 1778 H 207.537 -3.15024 4.2198 0
M  V30 1779 H 210.028 -1.92435 3.25234 0
M  V30 1780 H 210.341 -3.38423 6.94759 0
M  V30 1781 H 208.686 -3.04978 6.24511 0
M  V30 1782 H 211.877 -2.31078 4.07088 0
M  V30 1783 H 212.05 -2.9767 5.75584 0
M  V30 1784 N 205.456 -1.28612 -0.910864 0
M  V30 1785 C 206.419 -1.12803 -1.9952 0
M  V30 1786 C 207.419 -0.0668264 -1.60661 0
M  V30 1787 O 208.609 -0.312847 -1.71368 0
M  V30 1788 C 205.741 -0.72254 -3.33155 0
M  V30 1789 H 206.934 -2.09109 -2.14973 0
M  V30 1790 H 204.487 -1.11639 -1.09391 0
M  V30 1791 H 205.222 0.241152 -3.23402 0
M  V30 1792 H 205.007 -1.48916 -3.62721 0
M  V30 1793 H 206.497 -0.634666 -4.12749 0
M  V30 1794 N 206.934 1.1197 -1.10907 0
M  V30 1795 C 208.182 1.83225 -0.852819 0
M  V30 1796 C 208.503 1.84769 0.623341 0
M  V30 1797 O 207.773 1.3143 1.45269 0
M  V30 1798 H 206.353 0.67849 -0.312507 0
M  V30 1799 H 209.015 1.3556 -1.40033 0
M  V30 1800 H 208.111 2.87265 -1.22005 0
M  V30 1801 N 208.412 0.89855 1.29475 0
M  V30 1802 C 209.342 0.39201 2.30186 0
M  V30 1803 C 210.323 -0.532359 1.61555 0
M  V30 1804 O 211.508 -0.443331 1.89072 0
M  V30 1805 C 208.638 -0.382353 3.45189 0
M  V30 1806 C 207.592 0.451483 4.25612 0
M  V30 1807 C 206.918 -0.450307 5.328 0
M  V30 1808 C 208.218 1.70079 4.93832 0
M  V30 1809 H 209.912 1.23362 2.72804 0
M  V30 1810 H 207.458 0.594638 1.31149 0
M  V30 1811 H 209.411 -0.747451 4.14718 0
M  V30 1812 H 208.135 -1.25774 3.01411 0
M  V30 1813 H 206.794 0.798897 3.57789 0
M  V30 1814 H 206.442 -1.32379 4.85268 0
M  V30 1815 H 206.142 0.103902 5.87508 0
M  V30 1816 H 207.666 -0.811623 6.05182 0
M  V30 1817 H 209.08 1.40549 5.55805 0
M  V30 1818 H 207.477 2.19623 5.58467 0
M  V30 1819 H 208.547 2.43744 4.19186 0
M  V30 1820 N 209.89 -1.43072 0.660911 0
M  V30 1821 C 210.822 -2.29108 -0.0647641 0
M  V30 1822 C 211.835 -1.42928 -0.779448 0
M  V30 1823 O 213.024 -1.66788 -0.635921 0
M  V30 1824 C 210.124 -3.20032 -1.11503 0
M  V30 1825 C 209.297 -4.34792 -0.476955 0
M  V30 1826 C 208.356 -5.06534 -1.42513 0
M  V30 1827 O 207.382 -5.61538 -0.930771 0
M  V30 1828 N 208.584 -5.1075 -2.75889 0
M  V30 1829 H 211.349 -2.92029 0.673731 0
M  V30 1830 H 208.91 -1.53846 0.50427 0
M  V30 1831 H 210.902 -3.64892 -1.75032 0
M  V30 1832 H 209.472 -2.58658 -1.75541 0
M  V30 1833 H 208.692 -3.92752 0.337572 0
M  V30 1834 H 209.98 -5.0879 -0.0318525 0
M  V30 1835 H 209.378 -4.67447 -3.18606 0
M  V30 1836 H 207.935 -5.59302 -3.347 0
M  V30 1837 N 211.368 -0.403325 -1.52352 0
M  V30 1838 C 212.318 0.442244 -2.2367 0
M  V30 1839 C 213.302 1.01823 -1.24583 0
M  V30 1840 O 214.494 0.942005 -1.49851 0
M  V30 1841 C 211.623 1.5615 -3.05732 0
M  V30 1842 C 210.709 0.996575 -4.12225 0
M  V30 1843 N 211.1 0.157804 -5.05554 0
M  V30 1844 C 209.398 1.26767 -4.27605 0
M  V30 1845 C 210.099 -0.155853 -5.81491 0
M  V30 1846 N 209.075 0.451775 -5.41719 0
M  V30 1847 H 212.877 -0.204964 -2.93184 0
M  V30 1848 H 210.391 -0.213418 -1.60992 0
M  V30 1849 H 212.388 2.17981 -3.55373 0
M  V30 1850 H 211.048 2.21139 -2.37755 0
M  V30 1851 H 212.059 -0.206049 -5.1749 0
M  V30 1852 H 208.736 1.91757 -3.70858 0
M  V30 1853 H 210.126 -0.836329 -6.66675 0
M  V30 1854 N 212.846 1.57033 -0.133567 0
M  V30 1855 C 213.776 2.1909 0.807567 0
M  V30 1856 C 214.757 1.13517 1.26681 0
M  V30 1857 O 215.942 1.41809 1.32679 0
M  V30 1858 C 213.072 2.80188 2.05212 0
M  V30 1859 C 212.026 3.91471 1.73015 0
M  V30 1860 C 211.352 4.39443 3.04622 0
M  V30 1861 C 212.652 5.12886 0.987168 0
M  V30 1862 H 214.346 2.97988 0.290403 0
M  V30 1863 H 211.892 1.43335 0.138239 0
M  V30 1864 H 213.845 3.22264 2.71521 0
M  V30 1865 H 212.569 1.98601 2.59278 0
M  V30 1866 H 211.228 3.49993 1.0909 0
M  V30 1867 H 210.876 3.54695 3.56651 0
M  V30 1868 H 210.576 5.14495 2.83847 0
M  V30 1869 H 212.1 4.8418 3.72024 0
M  V30 1870 H 213.514 5.51891 1.55208 0
M  V30 1871 H 211.911 5.93615 0.87985 0
M  V30 1872 H 212.981 4.84894 -0.0235286 0
M  V30 1873 N 214.325 -0.140222 1.56975 0
M  V30 1874 C 215.288 -1.15689 1.97861 0
M  V30 1875 C 216.288 -1.3549 0.865974 0
M  V30 1876 O 217.478 -1.32367 1.13246 0
M  V30 1877 C 214.61 -2.51582 2.30042 0
M  V30 1878 H 215.803 -0.805971 2.88867 0
M  V30 1879 H 213.356 -0.383801 1.51515 0
M  V30 1880 H 214.091 -2.91632 1.41849 0
M  V30 1881 H 213.876 -2.38569 3.11171 0
M  V30 1882 H 215.366 -3.24792 2.62488 0
M  V30 1883 N 215.803 -1.52179 -0.40978 0
M  V30 1884 C 217.214 -1.58377 -0.988615 0
M  V30 1885 C 217.565 -0.423879 -1.91566 0
M  V30 1886 O 216.69 0.455844 -2.11544 0
M  V30 1887 C 217.285 -2.87044 -1.79976 0
M  V30 1888 C 215.844 -2.95722 -2.32863 0
M  V30 1889 C 214.991 -2.53309 -1.12828 0
M  V30 1890 H 217.942 -1.57558 -0.190039 0
M  V30 1891 H 217.963 -2.7236 -2.65707 0
M  V30 1892 H 217.475 -3.71444 -1.12478 0
M  V30 1893 H 215.576 -2.15814 -3.03735 0
M  V30 1894 H 215.689 -3.99951 -2.63773 0
M  V30 1895 H 214.053 -2.07142 -1.48204 0
M  V30 1896 H 214.836 -3.40082 -0.46897 0
M  V30 1897 N 217.281 0.66697 -1.42791 0
M  V30 1898 C 218.244 1.76211 -1.46568 0
M  V30 1899 C 219.244 1.56896 -0.352196 0
M  V30 1900 O 220.434 1.63044 -0.613364 0
M  V30 1901 C 217.566 3.14935 -1.30494 0
M  V30 1902 H 218.759 1.74247 -2.44086 0
M  V30 1903 H 216.312 0.877342 -1.29354 0
M  V30 1904 H 217.047 3.2252 -0.339301 0
M  V30 1905 H 216.832 3.30359 -2.11199 0
M  V30 1906 H 218.322 3.94821 -1.36038 0
M  V30 1907 N 218.759 1.29093 0.90403 0
M  V30 1908 C 219.709 1.10482 1.99443 0
M  V30 1909 C 220.693 0.0255401 1.6088 0
M  V30 1910 O 221.885 0.24677 1.75271 0
M  V30 1911 C 219.014 0.778882 3.34348 0
M  V30 1912 C 218.1 1.89749 3.79284 0
M  V30 1913 N 218.491 3.14045 3.96497 0
M  V30 1914 C 216.789 1.78955 4.08523 0
M  V30 1915 C 217.49 3.86996 4.34292 0
M  V30 1916 N 216.466 3.14909 4.43095 0
M  V30 1917 H 220.268 2.04778 2.10815 0
M  V30 1918 H 217.782 1.20155 1.09255 0
M  V30 1919 H 219.779 0.62661 4.12164 0
M  V30 1920 H 218.439 -0.156205 3.24324 0
M  V30 1921 H 219.45 3.49548 3.82148 0
M  V30 1922 H 216.127 0.926886 4.07081 0
M  V30 1923 H 217.517 4.93941 4.55491 0
M  V30 1924 N 220.237 -1.11381 1.11499 0
M  V30 1925 C 221.648 -1.6465 0.880191 0
M  V30 1926 C 221.999 -1.87199 -0.587434 0
M  V30 1927 O 221.124 -1.60667 -1.44966 0
M  V30 1928 C 221.719 -2.99105 1.59128 0
M  V30 1929 C 220.278 -3.49279 1.40289 0
M  V30 1930 C 219.425 -2.24077 1.63354 0
M  V30 1931 H 222.376 -0.950123 1.27116 0
M  V30 1932 H 222.397 -3.66107 1.03664 0
M  V30 1933 H 221.909 -2.82661 2.65941 0
M  V30 1934 H 220.01 -3.70887 0.356888 0
M  V30 1935 H 220.123 -4.2803 2.15238 0
M  V30 1936 H 218.487 -2.31733 1.05698 0
M  V30 1937 H 219.27 -2.10175 2.71443 0
M  V30 1938 N 221.715 -0.905404 -1.28997 0
M  V30 1939 C 222.645 -0.404212 -2.29975 0
M  V30 1940 C 223.626 0.523784 -1.61835 0
M  V30 1941 O 224.811 0.433298 -1.89304 0
M  V30 1942 C 221.941 0.364042 -3.45387 0
M  V30 1943 C 220.895 -0.474048 -4.25367 0
M  V30 1944 C 220.221 0.422045 -5.33032 0
M  V30 1945 C 221.521 -1.72696 -4.92923 0
M  V30 1946 H 223.215 -1.24807 -2.72146 0
M  V30 1947 H 220.761 -0.601585 -1.30832 0
M  V30 1948 H 222.714 0.725447 -4.15109 0
M  V30 1949 H 221.438 1.24174 -3.02074 0
M  V30 1950 H 220.097 -0.81786 -3.57361 0
M  V30 1951 H 219.745 1.29804 -4.85963 0
M  V30 1952 H 219.445 -0.135057 -5.87445 0
M  V30 1953 H 220.969 0.779517 -6.05604 0
M  V30 1954 H 222.383 -1.43495 -5.55051 0
M  V30 1955 H 220.78 -2.22582 -5.57295 0
M  V30 1956 H 221.85 -2.45964 -4.17887 0
M  V30 1957 N 223.193 1.4272 -0.668489 0
M  V30 1958 C 224.418 2.06484 -0.194758 0
M  V30 1959 C 224.843 1.49862 1.13679 0
M  V30 1960 O 224.201 0.614582 1.70565 0
M  V30 1961 C 224.249 3.60353 -0.133546 0
M  V30 1962 O 223.353 4.02464 0.899806 0
M  V30 1963 H 222.694 0.656137 -0.10188 0
M  V30 1964 H 225.224 1.82964 -0.915722 0
M  V30 1965 H 225.234 4.07976 0.0447041 0
M  V30 1966 H 223.909 4.00938 -1.1055 0
M  V30 1967 H 222.486 3.66402 0.693109 0
M  V30 1968 N 224.671 0.411399 1.52136 0
M  V30 1969 C 225.601 -0.404015 2.29978 0
M  V30 1970 C 226.582 -1.04412 1.34284 0
M  V30 1971 O 227.767 -1.0527 1.63192 0
M  V30 1972 C 224.897 -1.5197 3.12286 0
M  V30 1973 C 223.851 -1.00448 4.16046 0
M  V30 1974 C 223.177 -2.21393 4.86712 0
M  V30 1975 C 224.477 -0.0569336 5.22269 0
M  V30 1976 H 226.171 0.245529 2.98392 0
M  V30 1977 H 223.717 0.119525 1.43503 0
M  V30 1978 H 225.67 -2.09715 3.6551 0
M  V30 1979 H 224.394 -2.19716 2.41646 0
M  V30 1980 H 223.053 -0.449421 3.63835 0
M  V30 1981 H 222.701 -2.87699 4.12599 0
M  V30 1982 H 222.401 -1.87571 5.56858 0
M  V30 1983 H 223.925 -2.7974 5.4275 0
M  V30 1984 H 225.339 -0.54325 5.7072 0
M  V30 1985 H 223.736 0.192594 5.99791 0
M  V30 1986 H 224.806 0.887663 4.76706 0
M  V30 1987 N 226.149 -1.5696 0.141893 0
M  V30 1988 C 227.56 -1.82797 -0.379776 0
M  V30 1989 C 227.911 -1.06033 -1.6508 0
M  V30 1990 O 227.036 -0.304011 -2.14254 0
M  V30 1991 C 227.631 -3.31578 -0.695802 0
M  V30 1992 C 226.19 -3.58014 -1.16201 0
M  V30 1993 C 225.337 -2.76699 -0.182455 0
M  V30 1994 H 228.288 -1.54406 0.366675 0
M  V30 1995 H 228.309 -3.47454 -1.55099 0
M  V30 1996 H 227.821 -3.87421 0.229449 0
M  V30 1997 H 225.922 -3.07553 -2.10338 0
M  V30 1998 H 226.035 -4.66501 -1.09151 0
M  V30 1999 H 224.399 -2.45618 -0.674072 0
M  V30 2000 H 225.182 -3.35311 0.736297 0
M  V30 2001 N 227.627 0.131896 -1.57047 0
M  V30 2002 C 228.873 0.843179 -1.84441 0
M  V30 2003 C 229.206 1.80129 -0.725749 0
M  V30 2004 O 228.481 1.92624 0.269469 0
M  V30 2005 C 228.764 1.60442 -3.22382 0
M  V30 2006 C 228.617 0.666782 -4.4483 0
M  V30 2007 C 229.936 2.56354 -3.5773 0
M  V30 2008 H 227.055 0.305081 -0.670891 0
M  V30 2009 H 229.697 0.107839 -1.89694 0
M  V30 2010 H 227.847 2.23128 -3.18035 0
M  V30 2011 H 229.519 0.0497646 -4.61273 0
M  V30 2012 H 227.762 -0.022609 -4.33794 0
M  V30 2013 H 228.433 1.23579 -5.37989 0
M  V30 2014 H 230.909 2.0378 -3.62785 0
M  V30 2015 H 229.785 3.06657 -4.5525 0
M  V30 2016 H 230.046 3.38419 -2.84473 0
M  V30 2017 N 229.106 1.52395 0.401703 0
M  V30 2018 C 230.069 1.75636 1.47257 0
M  V30 2019 C 231.069 0.62628 1.48103 0
M  V30 2020 O 232.259 0.894227 1.49497 0
M  V30 2021 C 229.391 1.84553 2.86624 0
M  V30 2022 H 230.584 2.71241 1.27938 0
M  V30 2023 H 228.137 1.42923 0.632662 0
M  V30 2024 H 228.872 0.908882 3.11303 0
M  V30 2025 H 228.657 2.66715 2.87412 0
M  V30 2026 H 230.147 2.04251 3.64241 0
M  V30 2027 N 230.584 -0.659388 1.43143 0
M  V30 2028 C 231.532 -1.79374 1.4808 0
M  V30 2029 C 232.526 -1.65639 0.354988 0
M  V30 2030 O 233.732 -1.7206 0.528704 0
M  V30 2031 H 230.107 -0.591705 0.4641 0
M  V30 2032 H 232.078 -1.72329 2.43609 0
M  V30 2033 C 230.827 -3.17606 1.41499 0
M  V30 2034 H 230.15 -3.28809 2.27431 0
M  V30 2035 H 231.59 -3.96951 1.49015 0
M  V30 2036 C 230.049 -3.36642 0.131765 0
M  V30 2037 O 230.579 -3.93461 -0.809386 0
M  V30 2038 N 228.785 -2.90567 0.0439396 0
M  V30 2039 H 228.332 -2.44513 0.810619 0
M  V30 2040 H 228.29 -3.03681 -0.813969 0
M  V30 2041 N 232.062 -1.29571 -0.897171 0
M  V30 2042 C 233.31 -1.17456 -1.64464 0
M  V30 2043 C 233.631 0.273698 -1.9307 0
M  V30 2044 O 232.901 1.18684 -1.55855 0
M  V30 2045 H 231.481 -0.431706 -0.609622 0
M  V30 2046 H 234.143 -1.62531 -1.07562 0
M  V30 2047 H 233.239 -1.72648 -2.59998 0
M  V30 2048 N 233.54 1.10788 -1.12088 0
M  V30 2049 C 234.951 1.64181 -0.88891 0
M  V30 2050 C 235.302 1.87508 0.577498 0
M  V30 2051 O 234.427 1.61434 1.44112 0
M  V30 2052 C 235.022 2.98257 -1.60712 0
M  V30 2053 C 233.581 3.4853 -1.42139 0
M  V30 2054 C 232.728 2.23208 -1.6454 0
M  V30 2055 H 235.679 0.943368 -1.27618 0
M  V30 2056 H 235.7 3.65552 -1.05604 0
M  V30 2057 H 235.212 2.81246 -2.67436 0
M  V30 2058 H 233.313 3.70692 -0.376552 0
M  V30 2059 H 233.426 4.26882 -2.17505 0
M  V30 2060 H 231.79 2.31169 -1.06925 0
M  V30 2061 H 232.573 2.08733 -2.72554 0
M  V30 2062 N 235.018 0.912232 1.28515 0
M  V30 2063 C 235.981 0.404223 2.25607 0
M  V30 2064 C 236.981 -0.468602 1.53821 0
M  V30 2065 O 238.171 -0.271873 1.72065 0
M  V30 2066 C 235.303 -0.420653 3.38295 0
M  V30 2067 H 236.496 1.26188 2.7206 0
M  V30 2068 H 234.049 0.691495 1.40171 0
M  V30 2069 H 234.784 -1.29777 2.97201 0
M  V30 2070 H 234.569 0.204935 3.91564 0
M  V30 2071 H 236.059 -0.766971 4.10496 0
M  V30 2072 N 236.496 -1.42363 0.676048 0
M  V30 2073 C 237.443 -2.308 -0.00150904 0
M  V30 2074 C 238.413 -1.46032 -0.791444 0
M  V30 2075 O 239.598 -1.74861 -0.76344 0
M  V30 2076 C 236.738 -3.31883 -0.945919 0
M  V30 2077 C 235.851 -4.31741 -0.149675 0
M  V30 2078 C 234.986 -5.19898 -1.08995 0
M  V30 2079 C 234.025 -6.11434 -0.285465 0
M  V30 2080 N 233.162 -6.92138 -1.17851 0
M  V30 2081 H 238.002 -2.88187 0.758455 0
M  V30 2082 H 235.539 -1.41952 0.38576 0
M  V30 2083 H 237.497 -3.89019 -1.50731 0
M  V30 2084 H 236.127 -2.76093 -1.6725 0
M  V30 2085 H 235.179 -3.76713 0.528359 0
M  V30 2086 H 236.491 -4.96534 0.474866 0
M  V30 2087 H 235.645 -5.81772 -1.72123 0
M  V30 2088 H 234.384 -4.55284 -1.74837 0
M  V30 2089 H 233.389 -5.48627 0.359018 0
M  V30 2090 H 234.614 -6.78097 0.368883 0
M  V30 2091 H 232.56 -6.30152 -1.82332 0
M  V30 2092 H 232.477 -7.53542 -0.609082 0
M  V30 2093 H 233.745 -7.58499 -1.79722 0
M  V30 2094 N 237.974 -0.419461 -1.51915 0
M  V30 2095 C 238.884 0.407528 -2.31033 0
M  V30 2096 C 239.9 1.04413 -1.3919 0
M  V30 2097 O 241.076 1.0434 -1.72265 0
M  V30 2098 C 238.141 1.50365 -3.12396 0
M  V30 2099 C 237.202 0.889029 -4.19994 0
M  V30 2100 C 236.435 1.93291 -4.97468 0
M  V30 2101 O 236.658 3.15259 -4.75361 0
M  V30 2102 O 235.592 1.53339 -5.8204 0
M  V30 2103 H 239.418 -0.237865 -3.02767 0
M  V30 2104 H 237.003 -0.182413 -1.48282 0
M  V30 2105 H 238.885 2.13975 -3.63032 0
M  V30 2106 H 237.56 2.13345 -2.43445 0
M  V30 2107 H 236.467 0.215353 -3.7348 0
M  V30 2108 H 237.8 0.302991 -4.91267 0
M  V30 2109 N 239.452 1.56882 -0.150215 0
M  V30 2110 C 240.863 1.82995 0.370076 0
M  V30 2111 C 241.214 1.06907 1.64515 0
M  V30 2112 O 240.339 0.315369 2.1409 0
M  V30 2113 C 240.934 3.31942 0.678208 0
M  V30 2114 C 239.493 3.58625 1.14301 0
M  V30 2115 C 238.64 2.76792 0.167778 0
M  V30 2116 H 241.591 1.54209 -0.374858 0
M  V30 2117 H 241.612 3.48272 1.53254 0
M  V30 2118 H 241.124 3.87294 -0.249991 0
M  V30 2119 H 239.225 3.08664 2.08704 0
M  V30 2120 H 239.338 4.67073 1.06676 0
M  V30 2121 H 237.702 2.45972 0.661037 0
M  V30 2122 H 238.485 3.34916 -0.754069 0
M  V30 2123 N 240.93 -0.123565 1.57115 0
M  V30 2124 C 242.346 -0.476961 1.52306 0
M  V30 2125 C 242.546 -1.82109 0.86248 0
M  V30 2126 O 241.602 -2.48586 0.442884 0
M  V30 2127 C 242.915 -0.465661 2.97073 0
M  V30 2128 C 244.463 -0.549534 3.08138 0
M  V30 2129 C 244.938 -0.568669 4.54456 0
M  V30 2130 N 246.429 -0.630237 4.58892 0
M  V30 2131 C 247.164 -0.666415 5.69514 0
M  V30 2132 N 246.66 -0.660514 6.89644 0
M  V30 2133 N 248.453 -0.709077 5.5761 0
M  V30 2134 H 240.604 0.757198 1.98445 0
M  V30 2135 H 242.867 0.278808 0.906074 0
M  V30 2136 H 242.573 0.454232 3.48754 0
M  V30 2137 H 242.447 -1.29513 3.54269 0
M  V30 2138 H 244.834 -1.45985 2.56461 0
M  V30 2139 H 244.915 0.307532 2.53945 0
M  V30 2140 H 244.559 0.337581 5.06777 0
M  V30 2141 H 244.489 -1.44256 5.06456 0
M  V30 2142 H 246.98 -0.641146 3.72421 0
M  V30 2143 H 247.293 -0.690616 7.69708 0
M  V30 2144 H 245.638 -0.628012 6.92157 0
M  V30 2145 H 248.829 -0.711019 4.62668 0
M  V30 2146 H 249.002 -0.733804 6.43832 0
M  V30 2147 N 242.408 -1.52605 -0.393616 0
M  V30 2148 C 243.371 -1.76415 -1.46323 0
M  V30 2149 C 244.371 -0.634126 -1.47768 0
M  V30 2150 O 245.561 -0.902142 -1.4902 0
M  V30 2151 C 242.693 -1.8607 -2.85641 0
M  V30 2152 H 243.886 -2.71916 -1.26498 0
M  V30 2153 H 241.439 -1.43257 -0.625073 0
M  V30 2154 H 242.174 -0.925378 -3.10817 0
M  V30 2155 H 241.959 -2.68235 -2.85993 0
M  V30 2156 H 243.449 -2.06179 -3.63153 0
M  V30 2157 N 243.887 0.651787 -1.4349 0
M  V30 2158 C 245.115 1.43937 -1.48626 0
M  V30 2159 C 245.53 1.8851 -0.104587 0
M  V30 2160 O 244.887 1.5958 0.885464 0
M  V30 2161 C 244.938 2.6734 -2.43334 0
M  V30 2162 O 244.659 2.24631 -3.76128 0
M  V30 2163 C 246.16 3.60683 -2.57726 0
M  V30 2164 H 243.38 0.44213 -0.504739 0
M  V30 2165 H 245.924 0.798944 -1.88248 0
M  V30 2166 H 244.079 3.2752 -2.06904 0
M  V30 2167 H 244.493 3.04485 -4.2707 0
M  V30 2168 H 245.967 4.43933 -3.28067 0
M  V30 2169 H 246.444 4.08126 -1.62265 0
M  V30 2170 H 247.05 3.06384 -2.94973 0
M  V30 2171 N 245.365 1.30045 0.890287 0
M  V30 2172 C 246.295 1.18541 2.01172 0
M  V30 2173 C 247.276 0.0773356 1.69924 0
M  V30 2174 O 248.461 0.25845 1.92473 0
M  V30 2175 C 245.591 0.870941 3.36202 0
M  V30 2176 C 244.545 1.93637 3.81692 0
M  V30 2177 C 243.871 1.475 5.13953 0
M  V30 2178 C 245.171 3.34666 4.00994 0
M  V30 2179 H 246.865 2.12359 2.11054 0
M  V30 2180 H 244.411 1.02238 1.01407 0
M  V30 2181 H 246.364 0.777141 4.14172 0
M  V30 2182 H 245.088 -0.102926 3.26438 0
M  V30 2183 H 243.747 2.01972 3.05946 0
M  V30 2184 H 243.395 0.489551 5.00612 0
M  V30 2185 H 243.095 2.1876 5.4536 0
M  V30 2186 H 244.619 1.39489 5.94454 0
M  V30 2187 H 246.033 3.2912 4.69417 0
M  V30 2188 H 244.43 4.03966 4.43769 0
M  V30 2189 H 245.5 3.76949 3.05021 0
M  V30 2190 N 246.843 -1.10192 1.12674 0
M  V30 2191 C 248.12 -1.78717 0.794965 0
M  V30 2192 C 248.5 -1.98628 -0.714853 0
M  V30 2193 O 247.848 -1.58135 -1.64941 0
M  V30 2194 C 248.058 -3.11546 1.5729 0
M  V30 2195 C 249.406 -3.86382 1.76052 0
M  V30 2196 O 250.43 -3.21274 1.53823 0
M  V30 2197 O 249.289 -5.03246 2.13087 0
M  V30 2198 H 246.383 -0.774702 0.289423 0
M  V30 2199 H 248.929 -1.16819 1.23091 0
M  V30 2200 H 247.701 -2.92489 2.59935 0
M  V30 2201 H 247.324 -3.81164 1.13137 0
M  V30 2202 N 248.321 -0.919034 -1.28029 0
M  V30 2203 C 249.567 -0.565221 -1.95389 0
M  V30 2204 C 249.922 0.882325 -1.70976 0
M  V30 2205 O 249.215 1.61988 -1.02325 0
M  V30 2206 C 249.409 -0.816855 -3.4794 0
M  V30 2207 C 249.238 -2.28731 -3.87185 0
M  V30 2208 C 248.008 -2.93841 -4.11079 0
M  V30 2209 C 250.206 -3.26415 -3.97439 0
M  V30 2210 N 248.188 -4.31129 -4.37037 0
M  V30 2211 C 249.559 -4.48884 -4.27672 0
M  V30 2212 C 251.614 -3.21742 -3.79982 0
M  V30 2213 C 250.317 -5.67268 -4.42266 0
M  V30 2214 C 252.343 -4.39431 -3.95796 0
M  V30 2215 C 251.705 -5.60675 -4.26407 0
M  V30 2216 H 247.804 -0.256797 -0.738633 0
M  V30 2217 H 250.388 -1.18386 -1.54573 0
M  V30 2218 H 248.559 -0.227445 -3.87733 0
M  V30 2219 H 250.291 -0.426542 -4.02446 0
M  V30 2220 H 247.046 -2.44547 -4.05578 0
M  V30 2221 H 247.47 -5.02127 -4.5409 0
M  V30 2222 H 252.112 -2.29079 -3.55363 0
M  V30 2223 H 249.83 -6.60406 -4.65714 0
M  V30 2224 H 253.416 -4.37323 -3.83719 0
M  V30 2225 H 252.296 -6.50223 -4.38383 0
M  V30 2226 N 249.799 1.42003 -0.683588 0
M  V30 2227 C 251.024 2.06265 -0.216647 0
M  V30 2228 C 251.449 1.51059 1.12083 0
M  V30 2229 O 250.807 0.632638 1.69904 0
M  V30 2230 C 250.855 3.60191 -0.171759 0
M  V30 2231 O 249.959 4.03396 0.857069 0
M  V30 2232 H 249.3 0.65502 -0.108834 0
M  V30 2233 H 251.83 1.81982 -0.935077 0
M  V30 2234 H 251.84 4.08 0.0014303 0
M  V30 2235 H 250.515 3.99743 -1.14796 0
M  V30 2236 H 249.092 3.67117 0.654208 0
M  V30 2237 N 251.277 0.427512 1.51691 0
M  V30 2238 C 252.187 -0.39527 2.31246 0
M  V30 2239 C 253.203 -1.03674 1.39742 0
M  V30 2240 O 254.379 -1.03425 1.72816 0
M  V30 2241 C 251.444 -1.48706 3.13189 0
M  V30 2242 C 250.505 -0.866743 4.20459 0
M  V30 2243 C 249.738 -1.90651 4.98486 0
M  V30 2244 O 249.961 -3.12733 4.77026 0
M  V30 2245 O 248.895 -1.5025 5.82845 0
M  V30 2246 H 252.721 0.253918 3.02637 0
M  V30 2247 H 250.306 0.190274 1.48183 0
M  V30 2248 H 252.188 -2.12047 3.64162 0
M  V30 2249 H 250.863 -2.12051 2.44573 0
M  V30 2250 H 249.77 -0.195544 3.73589 0
M  V30 2251 H 251.103 -0.276934 4.9142 0
M  V30 2252 N 252.755 -1.56801 0.158532 0
M  V30 2253 C 253.703 -2.18638 -0.793729 0
M  V30 2254 C 254.697 -1.14669 -1.24689 0
M  V30 2255 O 255.903 -1.32895 -1.21403 0
M  V30 2256 H 252.278 -0.700226 -0.274204 0
M  V30 2257 H 254.249 -2.97367 -0.248095 0
M  V30 2258 C 252.998 -2.83139 -2.0181 0
M  V30 2259 H 252.321 -3.62863 -1.67841 0
M  V30 2260 H 253.761 -3.29894 -2.66357 0
M  V30 2261 C 252.22 -1.82244 -2.83353 0
M  V30 2262 O 252.75 -1.3 -3.80083 0
M  V30 2263 N 250.956 -1.51288 -2.48114 0
M  V30 2264 H 250.503 -1.93964 -1.69516 0
M  V30 2265 H 250.461 -0.840296 -3.02963 0
M  V30 2266 N 254.233 0.115231 -1.57178 0
M  V30 2267 C 255.196 1.12526 -1.99676 0
M  V30 2268 C 256.196 1.34095 -0.88742 0
M  V30 2269 O 257.386 1.30548 -1.15337 0
M  V30 2270 C 254.518 2.4789 -2.34015 0
M  V30 2271 H 255.711 0.759912 -2.90113 0
M  V30 2272 H 253.264 0.359648 -1.52106 0
M  V30 2273 H 253.999 2.89339 -1.4647 0
M  V30 2274 H 253.784 2.33588 -3.14927 0
M  V30 2275 H 255.274 3.20575 -2.67622 0
M  V30 2276 N 255.711 1.52812 0.385517 0
M  V30 2277 C 256.957 1.68275 1.13188 0
M  V30 2278 C 257.29 0.423179 1.89533 0
M  V30 2279 O 256.565 -0.579113 1.85679 0
M  V30 2280 C 256.848 2.92001 2.1073 0
M  V30 2281 C 256.701 4.28067 1.38125 0
M  V30 2282 C 258.02 3.11283 3.11113 0
M  V30 2283 H 255.139 0.612352 0.410115 0
M  V30 2284 H 257.781 1.85415 0.414869 0
M  V30 2285 H 255.931 2.77519 2.71874 0
M  V30 2286 H 257.603 4.54324 0.799187 0
M  V30 2287 H 255.846 4.28388 0.683092 0
M  V30 2288 H 256.517 5.10733 2.09417 0
M  V30 2289 H 258.993 3.2482 2.6006 0
M  V30 2290 H 257.869 3.99325 3.76605 0
M  V30 2291 H 258.13 2.25656 3.80173 0
M  V30 2292 N 257.189 -0.644168 1.43834 0
M  V30 2293 C 258.137 -1.77793 1.49974 0
M  V30 2294 C 259.131 -1.65253 0.372536 0
M  V30 2295 O 260.337 -1.7149 0.546924 0
M  V30 2296 H 256.712 -0.58675 0.47035 0
M  V30 2297 H 258.683 -1.69736 2.45423 0
M  V30 2298 C 257.432 -3.16087 1.4486 0
M  V30 2299 H 256.755 -3.26378 2.30905 0
M  V30 2300 H 258.195 -3.95349 1.53217 0
M  V30 2301 C 256.654 -3.36484 0.167463 0
M  V30 2302 O 257.184 -3.94298 -0.767609 0
M  V30 2303 N 255.39 -2.90504 0.0747556 0
M  V30 2304 H 254.937 -2.4364 0.836507 0
M  V30 2305 H 254.895 -3.04527 -0.781714 0
M  V30 2306 N 258.668 -1.30515 -0.883378 0
M  V30 2307 C 259.916 -1.19194 -1.63209 0
M  V30 2308 C 260.237 0.253205 -1.93349 0
M  V30 2309 O 259.507 1.17025 -1.57105 0
M  V30 2310 H 258.087 -0.438148 -0.605009 0
M  V30 2311 H 260.749 -1.63663 -1.05832 0
M  V30 2312 H 259.845 -1.75396 -2.58153 0
M  V30 2313 N 260.146 1.09593 -1.13257 0
M  V30 2314 C 261.056 2.19739 -0.821691 0
M  V30 2315 C 262.072 1.72926 0.19302 0
M  V30 2316 O 263.248 2.01385 0.0244895 0
M  V30 2317 C 260.313 3.45482 -0.290333 0
M  V30 2318 C 259.374 4.06985 -1.36607 0
M  V30 2319 C 258.607 5.26726 -0.859975 0
M  V30 2320 O 258.83 5.69594 0.303082 0
M  V30 2321 O 257.764 5.7931 -1.63351 0
M  V30 2322 H 261.59 2.48781 -1.74189 0
M  V30 2323 H 259.175 1.18496 -0.909894 0
M  V30 2324 H 261.057 4.214 0.000674022 0
M  V30 2325 H 259.732 3.18047 0.602306 0
M  V30 2326 H 258.639 3.32712 -1.71037 0
M  V30 2327 H 259.972 4.38643 -2.23279 0
M  V30 2328 N 261.624 0.925811 1.2754 0
M  V30 2329 C 262.574 0.394488 2.24561 0
M  V30 2330 C 263.558 -0.500183 1.52928 0
M  V30 2331 O 264.75 -0.337936 1.73744 0
M  V30 2332 C 261.879 -0.353328 3.41477 0
M  V30 2333 C 260.965 0.557752 4.20416 0
M  V30 2334 N 261.356 1.67674 4.77199 0
M  V30 2335 C 259.654 0.360404 4.44541 0
M  V30 2336 C 260.355 2.24324 5.36706 0
M  V30 2337 N 259.331 1.53305 5.21535 0
M  V30 2338 H 263.133 1.2489 2.66045 0
M  V30 2339 H 260.647 0.779864 1.4245 0
M  V30 2340 H 262.644 -0.7509 4.10082 0
M  V30 2341 H 261.304 -1.20469 3.01525 0
M  V30 2342 H 262.315 2.05915 4.75204 0
M  V30 2343 H 258.992 -0.450454 4.15063 0
M  V30 2344 H 260.382 3.18521 5.91603 0
M  V30 2345 N 263.102 -1.41638 0.69111 0
M  V30 2346 C 264.032 -2.3347 0.037248 0
M  V30 2347 C 265.013 -1.51575 -0.771947 0
M  V30 2348 O 266.198 -1.80126 -0.72582 0
M  V30 2349 C 263.328 -3.35354 -0.903064 0
M  V30 2350 C 262.282 -4.27526 -0.201288 0
M  V30 2351 C 261.608 -5.19747 -1.25565 0
M  V30 2352 C 262.908 -5.13959 0.929689 0
M  V30 2353 H 264.602 -2.88397 0.804227 0
M  V30 2354 H 262.148 -1.38669 0.388189 0
M  V30 2355 H 264.101 -3.98519 -1.36969 0
M  V30 2356 H 262.825 -2.78767 -1.70166 0
M  V30 2357 H 261.484 -3.65779 0.245265 0
M  V30 2358 H 261.132 -4.59479 -2.04666 0
M  V30 2359 H 260.832 -5.8225 -0.791128 0
M  V30 2360 H 262.356 -5.85789 -1.72288 0
M  V30 2361 H 263.77 -5.70718 0.543546 0
M  V30 2362 H 262.167 -5.85379 1.32103 0
M  V30 2363 H 263.237 -4.51389 1.77133 0
M  V30 2364 N 264.58 -0.43555 -1.51462 0
M  V30 2365 C 265.826 0.123979 -2.03022 0
M  V30 2366 C 266.181 1.4054 -1.31401 0
M  V30 2367 O 265.474 1.86948 -0.419634 0
M  V30 2368 C 265.668 0.39942 -3.55161 0
M  V30 2369 C 265.497 -0.853754 -4.41521 0
M  V30 2370 C 264.267 -1.38675 -4.85898 0
M  V30 2371 C 266.465 -1.73939 -4.83994 0
M  V30 2372 N 264.447 -2.59265 -5.56466 0
M  V30 2373 C 265.818 -2.79135 -5.5361 0
M  V30 2374 C 267.873 -1.75402 -4.65981 0
M  V30 2375 C 266.576 -3.85737 -6.07124 0
M  V30 2376 C 268.602 -2.80938 -5.20411 0
M  V30 2377 C 267.964 -3.84854 -5.89972 0
M  V30 2378 H 264.063 0.00624887 -0.781975 0
M  V30 2379 H 266.647 -0.59582 -1.85359 0
M  V30 2380 H 264.818 1.08825 -3.72843 0
M  V30 2381 H 266.55 0.95015 -3.93388 0
M  V30 2382 H 263.305 -0.94094 -4.64159 0
M  V30 2383 H 263.729 -3.2041 -5.96378 0
M  V30 2384 H 268.371 -0.963926 -4.11665 0
M  V30 2385 H 266.089 -4.65586 -6.60496 0
M  V30 2386 H 269.675 -2.8301 -5.08327 0
M  V30 2387 H 268.555 -4.65176 -6.31333 0
M  V30 2388 N 266.058 1.56714 -0.166846 0
M  V30 2389 C 266.988 2.20754 0.760913 0
M  V30 2390 C 267.969 1.16178 1.24244 0
M  V30 2391 O 269.154 1.44592 1.29641 0
M  V30 2392 C 266.284 2.84478 1.99223 0
M  V30 2393 C 265.238 3.95053 1.64672 0
M  V30 2394 C 264.564 4.45805 2.95232 0
M  V30 2395 C 265.864 5.14865 0.878155 0
M  V30 2396 H 267.558 2.98537 0.22713 0
M  V30 2397 H 265.104 1.43596 0.107805 0
M  V30 2398 H 267.057 3.27951 2.64624 0
M  V30 2399 H 265.781 2.04056 2.55007 0
M  V30 2400 H 264.44 3.52228 1.01641 0
M  V30 2401 H 264.088 3.62181 3.49047 0
M  V30 2402 H 263.788 5.204 2.7287 0
M  V30 2403 H 265.312 4.91962 3.6167 0
M  V30 2404 H 266.726 5.55059 1.43466 0
M  V30 2405 H 265.123 5.95348 0.753738 0
M  V30 2406 H 266.193 4.84735 -0.126377 0
M  V30 2407 N 267.536 -0.106894 1.57237 0
M  V30 2408 C 268.446 -1.14911 2.0453 0
M  V30 2409 C 269.462 -1.44592 0.96795 0
M  V30 2410 O 270.638 -1.55468 1.2803 0
M  V30 2411 C 267.703 -2.45272 2.45036 0
M  V30 2412 C 266.764 -2.22879 3.66911 0
M  V30 2413 C 265.997 -3.47024 4.05475 0
M  V30 2414 O 266.22 -4.54804 3.44252 0
M  V30 2415 O 265.154 -3.3731 4.98504 0
M  V30 2416 H 268.98 -0.777461 2.9358 0
M  V30 2417 H 266.565 -0.318563 1.45964 0
M  V30 2418 H 268.447 -3.22055 2.71769 0
M  V30 2419 H 267.122 -2.81886 1.59129 0
M  V30 2420 H 266.029 -1.43915 3.45311 0
M  V30 2421 H 267.362 -1.91163 4.53561 0
M  V30 2422 N 269.014 -1.53014 -0.377408 0
M  V30 2423 C 270.242 -1.72515 -1.14219 0
M  V30 2424 C 270.657 -0.448735 -1.8339 0
M  V30 2425 O 270.014 0.577592 -1.73119 0
M  V30 2426 C 270.065 -2.8826 -2.18148 0
M  V30 2427 O 269.786 -4.10962 -1.51795 0
M  V30 2428 C 271.287 -3.19536 -3.07264 0
M  V30 2429 H 268.507 -0.577301 -0.342001 0
M  V30 2430 H 271.051 -1.99712 -0.439935 0
M  V30 2431 H 269.206 -2.63492 -2.83991 0
M  V30 2432 H 269.62 -4.75693 -2.20945 0
M  V30 2433 H 271.094 -4.03959 -3.76193 0
M  V30 2434 H 271.571 -2.34403 -3.71419 0
M  V30 2435 H 272.177 -3.46186 -2.47053 0
M  V30 2436 N 270.492 0.636531 -1.44174 0
M  V30 2437 C 271.44 1.76995 -1.50915 0
M  V30 2438 C 272.434 1.65053 -0.381295 0
M  V30 2439 O 273.64 1.71197 -0.55601 0
M  V30 2440 H 270.015 0.584247 -0.473455 0
M  V30 2441 H 271.986 1.68432 -2.4632 0
M  V30 2442 C 270.735 3.15314 -1.46534 0
M  V30 2443 H 270.058 3.25149 -2.32633 0
M  V30 2444 H 271.498 3.9453 -1.55312 0
M  V30 2445 C 269.957 3.3639 -0.185305 0
M  V30 2446 O 270.487 3.94699 0.746688 0
M  V30 2447 N 268.693 2.9046 -0.0901606 0
M  V30 2448 H 268.24 2.43193 -0.849416 0
M  V30 2449 H 268.198 3.04937 0.765553 0
M  V30 2450 N 271.97 1.30982 0.876444 0
M  V30 2451 C 273.216 1.20474 1.63138 0
M  V30 2452 C 273.549 -0.238096 1.92735 0
M  V30 2453 O 272.824 -1.1692 1.55435 0
M  V30 2454 C 273.107 2.04244 2.96574 0
M  V30 2455 C 272.96 3.56793 2.73896 0
M  V30 2456 C 274.279 1.88684 3.97601 0
M  V30 2457 H 271.398 0.439001 0.591985 0
M  V30 2458 H 274.04 1.60704 1.01361 0
M  V30 2459 H 272.19 1.70063 3.493 0
M  V30 2460 H 273.862 4.01077 2.27892 0
M  V30 2461 H 272.105 3.80548 2.08245 0
M  V30 2462 H 272.776 4.10706 3.68815 0
M  V30 2463 H 275.252 2.18584 3.54062 0
M  V30 2464 H 274.128 2.4961 4.88862 0
M  V30 2465 H 274.389 0.848343 4.33884 0
M  V30 2466 N 273.449 -1.08991 1.13837 0
M  V30 2467 C 274.674 -1.85551 0.926585 0
M  V30 2468 C 275.099 -1.80782 -0.519566 0
M  V30 2469 O 274.457 -1.18855 -1.36906 0
M  V30 2470 C 274.505 -3.31266 1.42462 0
M  V30 2471 O 273.609 -4.07822 0.612789 0
M  V30 2472 H 272.95 -0.575192 0.331738 0
M  V30 2473 H 275.48 -1.37604 1.51414 0
M  V30 2474 H 275.49 -3.82112 1.43019 0
M  V30 2475 H 274.165 -3.34052 2.47754 0
M  V30 2476 H 272.742 -3.66731 0.675463 0
M  V30 2477 N 274.927 -0.932562 -1.27047 0
M  V30 2478 C 276.175 -0.574422 -1.93765 0
M  V30 2479 C 276.496 0.887993 -1.73608 0
M  V30 2480 O 275.766 1.62999 -1.08665 0
M  V30 2481 H 274.346 -0.209451 -0.717035 0
M  V30 2482 H 277.008 -1.18601 -1.5466 0
M  V30 2483 H 276.104 -0.784841 -3.02071 0
M  V30 2484 N 276.405 1.4127 -0.698611 0
M  V30 2485 C 277.682 1.94955 -0.158762 0
M  V30 2486 C 278.062 1.63781 1.33188 0
M  V30 2487 O 277.41 0.946423 2.07979 0
M  V30 2488 C 277.62 3.46044 -0.453309 0
M  V30 2489 C 278.968 4.22872 -0.382707 0
M  V30 2490 O 279.992 3.54076 -0.388396 0
M  V30 2491 O 278.851 5.45407 -0.345463 0
M  V30 2492 H 275.945 0.82683 -0.0167505 0
M  V30 2493 H 278.491 1.50971 -0.77498 0
M  V30 2494 H 277.263 3.62028 -1.48498 0
M  V30 2495 H 276.886 3.97128 0.19373 0
M  V30 2496 N 277.883 0.443576 1.51229 0
M  V30 2497 C 278.813 -0.355142 2.30783 0
M  V30 2498 C 279.794 -1.0154 1.36468 0
M  V30 2499 O 280.979 -1.01785 1.65389 0
M  V30 2500 C 278.109 -1.45312 3.15439 0
M  V30 2501 C 277.063 -0.916002 4.18083 0
M  V30 2502 C 276.389 -2.1102 4.91299 0
M  V30 2503 C 277.689 0.0538602 5.22272 0
M  V30 2504 H 279.383 0.308767 2.97804 0
M  V30 2505 H 276.929 0.149937 1.43217 0
M  V30 2506 H 278.882 -2.01914 3.69876 0
M  V30 2507 H 277.606 -2.14541 2.46252 0
M  V30 2508 H 276.265 -0.372145 3.64706 0
M  V30 2509 H 275.913 -2.78882 4.18609 0
M  V30 2510 H 275.613 -1.75717 5.60712 0
M  V30 2511 H 277.137 -2.68164 5.48562 0
M  V30 2512 H 278.551 -0.422069 5.71744 0
M  V30 2513 H 276.948 0.319776 5.99247 0
M  V30 2514 H 278.018 0.98858 4.74716 0
M  V30 2515 N 279.361 -1.56624 0.175154 0
M  V30 2516 C 280.601 -1.98894 -0.471221 0
M  V30 2517 C 280.965 -1.05889 -1.60161 0
M  V30 2518 O 282.166 -1.37315 -2.3108 0
M  V30 2519 C 280.437 -3.44865 -0.938241 0
M  V30 2520 S 281.996 -4.09164 -1.58526 0
M  V30 2521 H 278.814 -0.694686 -0.151434 0
M  V30 2522 H 281.416 -1.93577 0.27352 0
M  V30 2523 H 280.12 -4.10265 -0.10518 0
M  V30 2524 H 279.651 -3.53956 -1.71693 0
M  V30 2525 H 281.666 -4.04528 -2.87352 0
M  V30 2526 N 280.839 0.0985539 -1.57292 0
M  V30 2527 C 282.069 0.815135 -1.8984 0
M  V30 2528 C 282.477 1.7297 -0.766679 0
M  V30 2529 O 281.82 1.81698 0.270483 0
M  V30 2530 C 281.882 1.6842 -3.17608 0
M  V30 2531 C 281.546 0.94182 -4.4719 0
M  V30 2532 C 282.543 0.273212 -5.19182 0
M  V30 2533 C 280.228 0.916927 -4.9386 0
M  V30 2534 C 282.222 -0.410361 -6.36078 0
M  V30 2535 C 279.909 0.229567 -6.10669 0
M  V30 2536 C 280.907 -0.432902 -6.81627 0
M  V30 2537 O 280.595 -1.10925 -7.9621 0
M  V30 2538 H 280.327 0.238501 -0.632529 0
M  V30 2539 H 282.881 0.0812659 -2.05239 0
M  V30 2540 H 281.111 2.46022 -2.98345 0
M  V30 2541 H 282.8 2.27704 -3.36015 0
M  V30 2542 H 283.566 0.283927 -4.84168 0
M  V30 2543 H 279.445 1.42201 -4.3852 0
M  V30 2544 H 282.989 -0.928013 -6.914 0
M  V30 2545 H 278.886 0.216686 -6.45136 0
M  V30 2546 H 279.654 -1.01579 -8.12172 0
M  V30 2547 N 282.317 1.53212 0.369288 0
M  V30 2548 C 283.247 1.82365 1.45826 0
M  V30 2549 C 284.228 0.676907 1.56051 0
M  V30 2550 O 285.413 0.926401 1.70679 0
M  V30 2551 C 282.543 2.01023 2.83208 0
M  V30 2552 C 281.497 3.1678 2.8781 0
M  V30 2553 C 280.823 3.20724 4.27832 0
M  V30 2554 C 282.123 4.55447 2.55667 0
M  V30 2555 H 283.817 2.73559 1.21678 0
M  V30 2556 H 281.363 1.3163 0.583911 0
M  V30 2557 H 283.316 2.20001 3.59413 0
M  V30 2558 H 282.04 1.06536 3.08736 0
M  V30 2559 H 280.699 2.97616 2.14056 0
M  V30 2560 H 280.347 2.23882 4.50429 0
M  V30 2561 H 280.047 3.98496 4.31827 0
M  V30 2562 H 281.571 3.41881 5.05915 0
M  V30 2563 H 282.985 4.74611 3.21586 0
M  V30 2564 H 281.382 5.35432 2.70984 0
M  V30 2565 H 282.452 4.60812 1.5093 0
M  V30 2566 N 283.795 -0.628877 1.44509 0
M  V30 2567 C 285.043 -1.38565 1.4712 0
M  V30 2568 C 285.364 -1.94712 0.105899 0
M  V30 2569 O 284.634 -1.75912 -0.862079 0
M  V30 2570 H 283.214 -0.514333 0.541729 0
M  V30 2571 H 285.876 -0.740018 1.80305 0
M  V30 2572 H 284.972 -2.21583 2.19789 0
M  V30 2573 N 285.273 -1.31445 -0.869486 0
M  V30 2574 C 286.183 -1.21097 -2.0093 0
M  V30 2575 C 287.199 -0.127584 -1.73532 0
M  V30 2576 O 288.375 -0.345477 -1.98415 0
M  V30 2577 C 285.44 -0.919378 -3.34288 0
M  V30 2578 C 284.501 -2.08971 -3.75006 0
M  V30 2579 C 283.734 -1.81194 -5.02001 0
M  V30 2580 O 283.957 -0.747296 -5.65484 0
M  V30 2581 O 282.891 -2.66883 -5.39497 0
M  V30 2582 H 286.717 -2.16883 -2.12592 0
M  V30 2583 H 284.302 -1.11189 -0.997868 0
M  V30 2584 H 286.184 -0.772625 -4.14257 0
M  V30 2585 H 284.859 0.00844772 -3.23699 0
M  V30 2586 H 283.766 -2.29187 -2.95676 0
M  V30 2587 H 285.099 -2.9998 -3.90221 0
M  V30 2588 N 286.751 1.08385 -1.14413 0
M  V30 2589 C 287.661 2.18856 -0.844951 0
M  V30 2590 C 288.677 1.73121 0.174668 0
M  V30 2591 O 289.853 2.014 0.00312857 0
M  V30 2592 C 286.918 3.45155 -0.32696 0
M  V30 2593 C 285.979 4.05513 -1.40916 0
M  V30 2594 C 285.212 5.25784 -0.915793 0
M  V30 2595 O 285.435 5.69884 0.242651 0
M  V30 2596 O 284.369 5.77545 -1.69487 0
M  V30 2597 H 288.195 2.46919 -1.76818 0
M  V30 2598 H 285.78 1.17524 -0.922411 0
M  V30 2599 H 287.662 4.21377 -0.0440211 0
M  V30 2600 H 286.337 3.18668 0.568539 0
M  V30 2601 H 285.244 3.30879 -1.74556 0
M  V30 2602 H 286.577 4.3625 -2.27919 0
M  V30 2603 N 288.23 0.939286 1.26551 0
M  V30 2604 C 289.178 0.43815 2.28436 0
M  V30 2605 C 290.172 -0.483587 1.62351 0
M  V30 2606 O 291.378 -0.362009 1.76322 0
M  V30 2607 H 287.753 0.123149 0.741848 0
M  V30 2608 H 289.724 1.31002 2.68106 0
M  V30 2609 C 288.473 -0.283052 3.46546 0
M  V30 2610 H 287.796 0.417043 3.97619 0
M  V30 2611 H 289.236 -0.597948 4.19763 0
M  V30 2612 C 287.695 -1.50018 3.01656 0
M  V30 2613 O 288.225 -2.59855 3.0633 0
M  V30 2614 N 286.431 -1.35608 2.57019 0
M  V30 2615 H 285.978 -0.46244 2.53415 0
M  V30 2616 H 285.936 -2.17165 2.27347 0
M  V30 2617 N 289.708 -1.40897 0.706093 0
M  V30 2618 C 290.948 -2.02916 0.245827 0
M  V30 2619 C 291.312 -1.54751 -1.13649 0
M  V30 2620 O 292.513 -2.08768 -1.69321 0
M  V30 2621 C 290.784 -3.56031 0.312537 0
M  V30 2622 S 292.343 -4.38741 -0.0721388 0
M  V30 2623 H 289.161 -0.704186 0.0982007 0
M  V30 2624 H 291.763 -1.72168 0.926207 0
M  V30 2625 H 290.467 -3.88579 1.32039 0
M  V30 2626 H 289.998 -3.91495 -0.386641 0
M  V30 2627 H 292.013 -4.78952 -1.29692 0
M  V30 2628 N 291.186 -0.45159 -1.50991 0
M  V30 2629 C 292.118 0.388634 -2.25881 0
M  V30 2630 C 293.131 0.974041 -1.30446 0
M  V30 2631 O 294.32 0.865758 -1.56099 0
M  V30 2632 C 291.42 1.5571 -3.01011 0
M  V30 2633 C 290.593 1.08801 -4.23652 0
M  V30 2634 C 289.652 2.12825 -4.8124 0
M  V30 2635 O 288.678 1.71678 -5.42693 0
M  V30 2636 N 289.88 3.45453 -4.66522 0
M  V30 2637 H 292.645 -0.25329 -2.98628 0
M  V30 2638 H 290.206 -0.281268 -1.59438 0
M  V30 2639 H 292.198 2.24952 -3.3642 0
M  V30 2640 H 290.768 2.10409 -2.31186 0
M  V30 2641 H 289.988 0.22215 -3.93574 0
M  V30 2642 H 291.276 0.752213 -5.03209 0
M  V30 2643 H 290.674 3.81605 -4.17605 0
M  V30 2644 H 289.231 4.10549 -5.06254 0
M  V30 2645 N 292.664 1.56529 -0.183458 0
M  V30 2646 C 293.91 1.97537 0.459036 0
M  V30 2647 C 294.243 1.06989 1.62071 0
M  V30 2648 O 293.518 0.11948 1.94133 0
M  V30 2649 C 293.801 3.47874 0.930368 0
M  V30 2650 C 293.654 4.492 -0.232317 0
M  V30 2651 C 294.973 4.01612 1.79989 0
M  V30 2652 H 292.092 0.718204 0.165383 0
M  V30 2653 H 294.734 1.88042 -0.272038 0
M  V30 2654 H 292.884 3.56095 1.55333 0
M  V30 2655 H 294.556 4.53027 -0.86972 0
M  V30 2656 H 292.799 4.24657 -0.885928 0
M  V30 2657 H 293.47 5.51823 0.139796 0
M  V30 2658 H 295.946 3.96097 1.27461 0
M  V30 2659 H 294.822 5.07195 2.09867 0
M  V30 2660 H 295.083 3.46163 2.74998 0
M  V30 2661 N 294.142 -0.090211 1.57342 0
M  V30 2662 C 295.558 -0.444547 1.53284 0
M  V30 2663 C 295.758 -1.80238 0.900914 0
M  V30 2664 O 294.814 -2.4759 0.495513 0
M  V30 2665 C 296.127 -0.402543 2.97993 0
M  V30 2666 C 297.675 -0.48405 3.09234 0
M  V30 2667 C 298.15 -0.472144 4.5556 0
M  V30 2668 N 299.641 -0.532757 4.60126 0
M  V30 2669 C 300.376 -0.545462 5.708 0
M  V30 2670 N 299.872 -0.514082 6.9089 0
M  V30 2671 N 301.665 -0.59064 5.58988 0
M  V30 2672 H 293.816 0.799121 1.96794 0
M  V30 2673 H 296.079 0.297965 0.899956 0
M  V30 2674 H 295.785 0.528106 3.47712 0
M  V30 2675 H 295.659 -1.21969 3.56936 0
M  V30 2676 H 298.046 -1.40512 2.595 0
M  V30 2677 H 298.127 0.361328 2.53235 0
M  V30 2678 H 297.771 0.445 5.05947 0
M  V30 2679 H 297.701 -1.3348 5.09402 0
M  V30 2680 H 300.192 -0.562006 3.73698 0
M  V30 2681 H 300.505 -0.527195 7.71 0
M  V30 2682 H 298.85 -0.481054 6.93333 0
M  V30 2683 H 302.041 -0.61272 4.64073 0
M  V30 2684 H 302.214 -0.597073 6.45243 0
M  V30 2685 N 295.62 -1.53406 -0.361157 0
M  V30 2686 C 296.867 -1.69802 -1.10333 0
M  V30 2687 C 297.195 -0.452087 -1.89173 0
M  V30 2688 O 296.45 0.566017 -1.87336 0
M  V30 2689 C 296.749 -2.90211 -2.08596 0
M  V30 2690 C 296.415 -4.26539 -1.46203 0
M  V30 2691 C 295.077 -4.6361 -1.28915 0
M  V30 2692 C 297.429 -5.113 -1.01101 0
M  V30 2693 C 294.757 -5.83075 -0.651157 0
M  V30 2694 C 297.109 -6.31415 -0.387007 0
M  V30 2695 C 295.773 -6.67195 -0.201657 0
M  V30 2696 H 295.043 -0.621351 -0.403737 0
M  V30 2697 H 297.69 -1.87598 -0.384609 0
M  V30 2698 H 295.995 -2.66946 -2.86788 0
M  V30 2699 H 297.692 -3.00091 -2.65982 0
M  V30 2700 H 294.282 -3.97352 -1.60653 0
M  V30 2701 H 298.466 -4.83206 -1.13249 0
M  V30 2702 H 293.722 -6.09385 -0.496006 0
M  V30 2703 H 297.896 -6.96394 -0.0293563 0
M  V30 2704 H 295.523 -7.59628 0.294766 0
M  V30 2705 N 297.098 0.621204 -1.44841 0
M  V30 2706 C 298.061 1.71459 -1.521 0
M  V30 2707 C 299.061 1.55696 -0.401933 0
M  V30 2708 O 300.251 1.61011 -0.664925 0
M  V30 2709 C 297.383 3.10624 -1.40447 0
M  V30 2710 H 298.576 1.66394 -2.49506 0
M  V30 2711 H 296.129 0.835745 -1.3208 0
M  V30 2712 H 296.864 3.21277 -0.441737 0
M  V30 2713 H 296.649 3.23473 -2.21602 0
M  V30 2714 H 298.139 3.90293 -1.4853 0
M  V30 2715 N 298.576 1.31904 0.862503 0
M  V30 2716 C 299.523 1.20182 1.9704 0
M  V30 2717 C 300.493 0.0858247 1.65878 0
M  V30 2718 O 301.678 0.26 1.8902 0
M  V30 2719 C 298.818 0.922797 3.32533 0
M  V30 2720 C 297.931 2.12284 3.76244 0
M  V30 2721 C 297.066 1.77996 5.00491 0
M  V30 2722 C 296.105 2.94366 5.36671 0
M  V30 2723 N 295.242 2.60223 6.52095 0
M  V30 2724 H 300.082 2.14951 2.06398 0
M  V30 2725 H 297.619 1.06917 1.01031 0
M  V30 2726 H 299.577 0.741548 4.10557 0
M  V30 2727 H 298.207 0.0119227 3.22798 0
M  V30 2728 H 297.259 2.41461 2.9394 0
M  V30 2729 H 298.571 2.99357 3.98982 0
M  V30 2730 H 297.725 1.56377 5.862 0
M  V30 2731 H 296.464 0.881252 4.79672 0
M  V30 2732 H 295.469 3.16625 4.49476 0
M  V30 2733 H 296.694 3.84957 5.59451 0
M  V30 2734 H 294.64 1.72884 6.32809 0
M  V30 2735 H 294.557 3.40827 6.74814 0
M  V30 2736 H 295.825 2.42016 7.40978 0
M  V30 2737 N 300.054 -1.07777 1.14986 0
M  V30 2738 C 301.279 -1.84558 0.946213 0
M  V30 2739 C 301.704 -1.81323 -0.500362 0
M  V30 2740 O 301.062 -1.20301 -1.35637 0
M  V30 2741 C 301.11 -3.29736 1.45968 0
M  V30 2742 O 300.214 -4.07149 0.65601 0
M  V30 2743 H 299.555 -0.571641 0.33782 0
M  V30 2744 H 302.085 -1.35991 1.52865 0
M  V30 2745 H 302.095 -3.80574 1.47063 0
M  V30 2746 H 300.77 -3.31406 2.51283 0
M  V30 2747 H 299.347 -3.65994 0.714322 0
M  V30 2748 N 301.532 -0.945985 -1.26051 0
M  V30 2749 C 302.495 -0.463897 -2.24456 0
M  V30 2750 C 303.495 0.427655 -1.55009 0
M  V30 2751 O 304.685 0.226157 -1.72726 0
M  V30 2752 C 301.817 0.330812 -3.39291 0
M  V30 2753 H 303.01 -1.33357 -2.68619 0
M  V30 2754 H 300.563 -0.728416 -1.38289 0
M  V30 2755 H 301.298 1.21852 -3.00537 0
M  V30 2756 H 301.083 -0.308679 -3.90883 0
M  V30 2757 H 302.573 0.657865 -4.12386 0
M  V30 2758 N 303.011 1.40521 -0.713556 0
M  V30 2759 C 303.941 2.33381 -0.0743864 0
M  V30 2760 C 304.922 1.52784 0.747735 0
M  V30 2761 O 306.107 1.81258 0.697071 0
M  V30 2762 C 303.237 3.36748 0.849598 0
M  V30 2763 C 302.191 4.27793 0.133247 0
M  V30 2764 C 301.517 5.21679 1.17281 0
M  V30 2765 C 302.817 5.12415 -1.01134 0
M  V30 2766 H 304.511 2.87081 -0.850007 0
M  V30 2767 H 302.057 1.38034 -0.410201 0
M  V30 2768 H 304.01 4.00648 1.30612 0
M  V30 2769 H 302.734 2.81439 1.65709 0
M  V30 2770 H 301.393 3.65342 -0.303426 0
M  V30 2771 H 301.041 4.62677 1.9733 0
M  V30 2772 H 300.741 5.83435 0.698397 0
M  V30 2773 H 302.265 5.88456 1.62947 0
M  V30 2774 H 303.679 5.69781 -0.634274 0
M  V30 2775 H 302.076 5.83203 -1.41399 0
M  V30 2776 H 303.146 4.48514 -1.84292 0
M  V30 2777 N 304.489 0.459591 1.5075 0
M  V30 2778 C 305.905 0.113092 1.59199 0
M  V30 2779 C 306.105 -1.37951 1.46874 0
M  V30 2780 O 305.161 -2.15168 1.32132 0
M  V30 2781 C 306.474 0.653043 2.93523 0
M  V30 2782 C 308.022 0.615449 3.0689 0
M  V30 2783 C 308.497 1.13275 4.43771 0
M  V30 2784 N 309.988 1.09167 4.50152 0
M  V30 2785 C 310.723 1.46256 5.54434 0
M  V30 2786 N 310.219 1.90739 6.66026 0
M  V30 2787 N 312.012 1.37932 5.44914 0
M  V30 2788 H 304.163 1.43049 1.57005 0
M  V30 2789 H 306.426 0.590861 0.741341 0
M  V30 2790 H 306.132 1.69822 3.07983 0
M  V30 2791 H 306.006 0.0902132 3.77092 0
M  V30 2792 H 308.393 -0.420793 2.92084 0
M  V30 2793 H 308.474 1.21495 2.25106 0
M  V30 2794 H 308.118 2.16757 4.59324 0
M  V30 2795 H 308.048 0.509576 5.24129 0
M  V30 2796 H 310.539 0.76528 3.7007 0
M  V30 2797 H 310.852 2.17218 7.41644 0
M  V30 2798 H 309.197 1.94683 6.67176 0
M  V30 2799 H 312.388 1.0303 4.56621 0
M  V30 2800 H 312.561 1.67164 6.26067 0
M  V30 2801 N 305.967 -1.56429 0.191757 0
M  V30 2802 C 307.383 -1.58754 -0.164137 0
M  V30 2803 C 307.583 -1.20782 -1.61288 0
M  V30 2804 O 306.639 -0.928999 -2.34789 0
M  V30 2805 C 307.952 -3.00396 0.135195 0
M  V30 2806 C 309.5 -3.1291 0.0750351 0
M  V30 2807 C 309.975 -4.56679 0.347632 0
M  V30 2808 N 311.466 -4.62252 0.296131 0
M  V30 2809 C 312.201 -5.71379 0.480948 0
M  V30 2810 N 311.697 -6.88986 0.725933 0
M  V30 2811 N 313.49 -5.60563 0.415435 0
M  V30 2812 H 305.641 -1.79393 1.13718 0
M  V30 2813 H 307.904 -0.832414 0.453643 0
M  V30 2814 H 307.61 -3.32726 1.13958 0
M  V30 2815 H 307.484 -3.72963 -0.563773 0
M  V30 2816 H 309.871 -2.80394 -0.919948 0
M  V30 2817 H 309.952 -2.42736 0.807029 0
M  V30 2818 H 309.596 -4.89907 1.33992 0
M  V30 2819 H 309.526 -5.25039 -0.405212 0
M  V30 2820 H 312.017 -3.7773 0.113259 0
M  V30 2821 H 312.33 -7.68046 0.855857 0
M  V30 2822 H 310.675 -6.90801 0.762788 0
M  V30 2823 H 313.866 -4.67561 0.224486 0
M  V30 2824 H 314.039 -6.45551 0.562889 0
M  V30 2825 N 307.445 0.0818655 -1.57387 0
M  V30 2826 C 308.392 1.09834 -2.0299 0
M  V30 2827 C 309.362 1.39043 -0.908639 0
M  V30 2828 O 310.547 1.50282 -1.17559 0
M  V30 2829 C 307.687 2.40971 -2.47037 0
M  V30 2830 C 306.8 2.18379 -3.7274 0
M  V30 2831 C 305.935 3.43008 -4.0561 0
M  V30 2832 C 304.974 3.15736 -5.24383 0
M  V30 2833 N 304.111 4.32667 -5.52941 0
M  V30 2834 H 308.951 0.702472 -2.89602 0
M  V30 2835 H 306.488 0.33531 -1.43227 0
M  V30 2836 H 308.446 3.1752 -2.70623 0
M  V30 2837 H 307.076 2.78379 -1.63417 0
M  V30 2838 H 306.128 1.32569 -3.56552 0
M  V30 2839 H 307.44 1.94227 -4.59431 0
M  V30 2840 H 306.594 4.27958 -4.30043 0
M  V30 2841 H 305.333 3.70225 -3.17466 0
M  V30 2842 H 304.338 2.2918 -4.99757 0
M  V30 2843 H 305.563 2.8985 -6.14136 0
M  V30 2844 H 303.509 4.59935 -4.67756 0
M  V30 2845 H 303.426 4.11753 -6.34031 0
M  V30 2846 H 304.694 5.18644 -5.81918 0
M  V30 2847 N 308.923 1.53595 0.353017 0
M  V30 2848 C 310.163 1.72094 1.10286 0
M  V30 2849 C 310.527 0.469217 1.86178 0
M  V30 2850 O 311.728 0.531083 2.63501 0
M  V30 2851 C 309.999 2.94386 2.02661 0
M  V30 2852 S 311.558 3.33651 2.84996 0
M  V30 2853 H 308.376 0.605433 0.372789 0
M  V30 2854 H 310.978 1.91722 0.38248 0
M  V30 2855 H 309.682 3.83669 1.45691 0
M  V30 2856 H 309.213 2.77197 2.79152 0
M  V30 2857 H 311.228 2.86645 4.0503 0
M  V30 2858 N 310.401 -0.613514 1.45168 0
M  V30 2859 C 311.364 -1.7065 1.53007 0
M  V30 2860 C 312.364 -1.5548 0.410184 0
M  V30 2861 O 313.554 -1.60656 0.673455 0
M  V30 2862 C 310.686 -3.09875 1.42093 0
M  V30 2863 H 311.879 -1.65068 2.50385 0
M  V30 2864 H 309.432 -0.828728 1.32521 0
M  V30 2865 H 310.167 -3.21039 0.458769 0
M  V30 2866 H 309.952 -3.22293 2.23315 0
M  V30 2867 H 311.442 -3.895 1.50598 0
M  V30 2868 N 311.879 -1.3236 -0.855495 0
M  V30 2869 C 313.125 -1.23054 -1.612 0
M  V30 2870 C 313.458 0.207404 -1.93089 0
M  V30 2871 O 312.733 1.14432 -1.57275 0
M  V30 2872 C 313.016 -2.08937 -2.93287 0
M  V30 2873 C 312.869 -3.61105 -2.68185 0
M  V30 2874 C 314.188 -1.94986 -3.94549 0
M  V30 2875 H 311.307 -0.448364 -0.584926 0
M  V30 2876 H 313.949 -1.62297 -0.987917 0
M  V30 2877 H 312.099 -1.75599 -3.46551 0
M  V30 2878 H 313.771 -4.04652 -2.21483 0
M  V30 2879 H 312.014 -3.83813 -2.02164 0
M  V30 2880 H 312.685 -4.16522 -3.62234 0
M  V30 2881 H 315.161 -2.24189 -3.5054 0
M  V30 2882 H 314.037 -2.57356 -4.84829 0
M  V30 2883 H 314.298 -0.917263 -4.3248 0
M  V30 2884 N 313.357 1.07166 -1.15556 0
M  V30 2885 C 314.597 1.81391 -0.94216 0
M  V30 2886 C 314.961 1.84788 0.521272 0
M  V30 2887 O 316.162 2.54904 0.85307 0
M  V30 2888 C 314.433 3.22431 -1.54185 0
M  V30 2889 S 315.992 4.13379 -1.47183 0
M  V30 2890 H 312.81 0.624963 -0.339031 0
M  V30 2891 H 315.412 1.28725 -1.4714 0
M  V30 2892 H 314.116 3.17548 -2.59984 0
M  V30 2893 H 313.647 3.80172 -1.01156 0
M  V30 2894 H 315.662 4.94007 -0.466004 0
M  V30 2895 N 314.835 0.952656 1.25548 0
M  V30 2896 C 315.782 0.47008 2.25962 0
M  V30 2897 C 316.752 -0.476384 1.59122 0
M  V30 2898 O 317.937 -0.39007 1.8677 0
M  V30 2899 C 315.077 -0.247881 3.44209 0
M  V30 2900 C 314.19 0.735591 4.25691 0
M  V30 2901 C 313.325 -0.0047306 5.312 0
M  V30 2902 C 312.364 0.969805 6.04368 0
M  V30 2903 N 311.501 0.260486 7.01617 0
M  V30 2904 H 316.341 1.33126 2.66611 0
M  V30 2905 H 313.878 0.66765 1.31076 0
M  V30 2906 H 315.836 -0.680695 4.1161 0
M  V30 2907 H 314.466 -1.07312 3.0444 0
M  V30 2908 H 313.518 1.28689 3.57971 0
M  V30 2909 H 314.83 1.47934 4.76358 0
M  V30 2910 H 313.984 -0.496275 6.04667 0
M  V30 2911 H 312.723 -0.781282 4.81401 0
M  V30 2912 H 311.728 1.47237 5.29718 0
M  V30 2913 H 312.953 1.74655 6.56256 0
M  V30 2914 H 310.899 -0.497364 6.54112 0
M  V30 2915 H 310.816 0.943362 7.50091 0
M  V30 2916 H 312.084 -0.209587 7.79218 0
M  V30 2917 N 316.313 -1.40141 0.720998 0
M  V30 2918 C 317.562 -2.0002 0.259804 0
M  V30 2919 C 317.875 -1.57839 -1.15526 0
M  V30 2920 O 319.081 -2.10455 -1.71525 0
M  V30 2921 C 317.537 -3.57516 0.413566 0
M  V30 2922 C 317.145 -4.08667 1.83562 0
M  V30 2923 C 318.889 -4.24498 0.0134387 0
M  V30 2924 C 316.796 -5.58686 1.93968 0
M  V30 2925 H 315.726 -0.748195 0.0933806 0
M  V30 2926 H 318.377 -1.60313 0.892866 0
M  V30 2927 H 316.759 -3.9495 -0.288169 0
M  V30 2928 H 317.933 -3.82598 2.56817 0
M  V30 2929 H 316.248 -3.543 2.1877 0
M  V30 2930 H 318.845 -5.34654 0.0703954 0
M  V30 2931 H 319.188 -4.03375 -1.02927 0
M  V30 2932 H 319.721 -3.92188 0.665815 0
M  V30 2933 H 316.46 -5.8467 2.96379 0
M  V30 2934 H 315.98 -5.86602 1.25131 0
M  V30 2935 H 317.659 -6.23875 1.71431 0
M  V30 2936 N 317.792 -0.46758 -1.50504 0
M  V30 2937 C 319.038 0.0887532 -2.02606 0
M  V30 2938 C 319.371 1.39686 -1.34913 0
M  V30 2939 O 318.646 1.88644 -0.473694 0
M  V30 2940 C 318.929 0.276206 -3.59039 0
M  V30 2941 C 318.782 -1.05267 -4.37309 0
M  V30 2942 C 320.101 1.03235 -4.27821 0
M  V30 2943 H 317.22 0.0307814 -0.736357 0
M  V30 2944 H 319.862 -0.612485 -1.79857 0
M  V30 2945 H 318.012 0.8735 -3.78553 0
M  V30 2946 H 319.684 -1.68628 -4.29374 0
M  V30 2947 H 317.927 -1.65015 -4.01189 0
M  V30 2948 H 318.598 -0.875197 -5.45018 0
M  V30 2949 H 321.074 0.526111 -4.12761 0
M  V30 2950 H 319.95 1.1323 -5.37094 0
M  V30 2951 H 320.211 2.06806 -3.90748 0
M  V30 2952 N 319.27 1.56325 -0.20005 0
M  V30 2953 C 320.516 1.98012 0.438059 0
M  V30 2954 C 320.849 1.08702 1.60927 0
M  V30 2955 O 320.124 0.140064 1.93995 0
M  V30 2956 C 320.407 3.48841 0.893419 0
M  V30 2957 C 320.26 4.48928 -0.279947 0
M  V30 2958 C 321.579 4.03498 1.75719 0
M  V30 2959 H 318.698 0.719918 0.157757 0
M  V30 2960 H 321.34 1.87743 -0.291968 0
M  V30 2961 H 319.49 3.57723 1.51547 0
M  V30 2962 H 321.162 4.52079 -0.91772 0
M  V30 2963 H 319.405 4.23694 -0.930919 0
M  V30 2964 H 320.076 5.5194 0.0812601 0
M  V30 2965 H 322.552 3.97427 1.23253 0
M  V30 2966 H 321.428 5.09393 2.04476 0
M  V30 2967 H 321.689 3.4906 2.71311 0
M  V30 2968 N 320.748 -0.0735177 1.57428 0
M  V30 2969 C 321.698 -1.09442 2.00016 0
M  V30 2970 C 322.682 -1.34575 0.881947 0
M  V30 2971 O 323.874 -1.34905 1.14585 0
M  V30 2972 C 321.003 -2.40865 2.4462 0
M  V30 2973 C 320.089 -2.19014 3.63172 0
M  V30 2974 N 320.48 -1.67087 4.77405 0
M  V30 2975 C 318.778 -2.49494 3.69688 0
M  V30 2976 C 319.479 -1.6001 5.5926 0
M  V30 2977 N 318.455 -2.05999 5.03056 0
M  V30 2978 H 322.257 -0.686227 2.85776 0
M  V30 2979 H 319.771 -0.280617 1.59957 0
M  V30 2980 H 321.768 -3.14763 2.73368 0
M  V30 2981 H 320.428 -2.82403 1.60246 0
M  V30 2982 H 321.439 -1.35975 4.99731 0
M  V30 2983 H 318.116 -2.94409 2.96023 0
M  V30 2984 H 319.506 -1.2073 6.60964 0
M  V30 2985 N 322.226 -1.5378 -0.344866 0
M  V30 2986 C 323.454 -1.74899 -1.10534 0
M  V30 2987 C 323.869 -0.487534 -1.82397 0
M  V30 2988 O 323.226 0.540741 -1.74305 0
M  V30 2989 C 323.277 -2.92822 -2.11984 0
M  V30 2990 O 322.998 -4.14089 -1.43044 0
M  V30 2991 C 324.499 -3.25982 -3.00417 0
M  V30 2992 H 321.719 -0.584426 -0.329678 0
M  V30 2993 H 324.263 -2.006 -0.397474 0
M  V30 2994 H 322.418 -2.69457 -2.78338 0
M  V30 2995 H 322.832 -4.80272 -2.10805 0
M  V30 2996 H 324.306 -4.11848 -3.67539 0
M  V30 2997 H 324.783 -2.42228 -3.66363 0
M  V30 2998 H 325.389 -3.51349 -2.39654 0
M  V30 2999 N 323.704 0.605807 -1.45491 0
M  V30 3000 C 324.667 1.69836 -1.5391 0
M  V30 3001 C 325.667 1.55261 -0.418424 0
M  V30 3002 O 326.857 1.60296 -0.681965 0
M  V30 3003 C 323.989 3.09117 -1.43734 0
M  V30 3004 H 325.182 1.63738 -2.51257 0
M  V30 3005 H 322.735 0.821689 -1.32959 0
M  V30 3006 H 323.47 3.20791 -0.475788 0
M  V30 3007 H 323.255 3.21104 -2.25021 0
M  V30 3008 H 324.745 3.88696 -1.52661 0
M  V30 3009 N 325.182 1.32811 0.848464 0
M  V30 3010 C 326.422 1.25046 1.61687 0
M  V30 3011 C 326.786 -0.183464 1.91121 0
M  V30 3012 O 327.987 -0.384937 2.66029 0
M  V30 3013 C 326.258 2.09201 2.89775 0
M  V30 3014 S 327.817 2.18526 3.80515 0
M  V30 3015 H 324.635 0.445023 0.554505 0
M  V30 3016 H 327.237 1.67733 1.00429 0
M  V30 3017 H 325.941 3.12433 2.66108 0
M  V30 3018 H 325.472 1.67315 3.56047 0
M  V30 3019 H 327.487 1.3393 4.77784 0
M  V30 3020 N 326.66 -1.06551 1.16123 0
M  V30 3021 C 327.909 -1.78687 0.935622 0
M  V30 3022 C 328.222 -1.88056 -0.538001 0
M  V30 3023 O 329.428 -2.56794 -0.88143 0
M  V30 3024 C 327.884 -3.21143 1.62466 0
M  V30 3025 C 327.492 -3.19949 3.13587 0
M  V30 3026 C 329.236 -3.9783 1.48092 0
M  V30 3027 C 327.143 -4.57108 3.75241 0
M  V30 3028 H 326.073 -0.669712 0.346412 0
M  V30 3029 H 328.724 -1.19534 1.39226 0
M  V30 3030 H 327.106 -3.80539 1.09572 0
M  V30 3031 H 328.28 -2.70151 3.73303 0
M  V30 3032 H 326.595 -2.5676 3.27816 0
M  V30 3033 H 329.192 -4.99217 1.91538 0
M  V30 3034 H 329.535 -4.14078 0.429507 0
M  V30 3035 H 330.068 -3.4495 1.98127 0
M  V30 3036 H 326.807 -4.46065 4.80319 0
M  V30 3037 H 326.327 -5.07111 3.20309 0
M  V30 3038 H 328.006 -5.26069 3.76644 0
M  V30 3039 N 328.138 -0.959301 -1.25041 0
M  V30 3040 C 329.048 -0.489994 -2.29426 0
M  V30 3041 C 330.064 0.444944 -1.68215 0
M  V30 3042 O 331.24 0.320046 -1.98841 0
M  V30 3043 C 328.305 0.220309 -3.45999 0
M  V30 3044 C 327.366 -0.753418 -4.22637 0
M  V30 3045 C 326.599 -0.076918 -5.33645 0
M  V30 3046 O 326.822 1.13649 -5.58963 0
M  V30 3047 O 325.756 -0.764824 -5.97021 0
M  V30 3048 H 329.582 -1.35755 -2.71669 0
M  V30 3049 H 327.167 -0.725961 -1.30576 0
M  V30 3050 H 329.049 0.619677 -4.16819 0
M  V30 3051 H 327.724 1.06296 -3.0575 0
M  V30 3052 H 326.631 -1.20308 -3.54227 0
M  V30 3053 H 327.964 -1.56423 -4.66683 0
M  V30 3054 N 329.616 1.39756 -0.72842 0
M  V30 3055 C 330.548 2.29157 -0.0446202 0
M  V30 3056 C 331.561 1.46484 0.710367 0
M  V30 3057 O 332.75 1.69632 0.55562 0
M  V30 3058 C 329.85 3.24987 0.961071 0
M  V30 3059 C 329.023 4.36572 0.268967 0
M  V30 3060 C 328.082 5.12756 1.18184 0
M  V30 3061 O 327.108 5.6534 0.661794 0
M  V30 3062 N 328.31 5.23331 2.51206 0
M  V30 3063 H 331.075 2.88482 -0.812295 0
M  V30 3064 H 328.636 1.51265 -0.577098 0
M  V30 3065 H 330.628 3.72827 1.57423 0
M  V30 3066 H 329.198 2.66739 1.63 0
M  V30 3067 H 328.418 3.90694 -0.524574 0
M  V30 3068 H 329.706 5.08363 -0.210934 0
M  V30 3069 H 329.104 4.82116 2.9594 0
M  V30 3070 H 327.661 5.74634 3.07634 0
M  V30 3071 N 331.094 0.475555 1.50254 0
M  V30 3072 C 332.024 -0.30611 2.31485 0
M  V30 3073 C 333.005 -0.986228 1.38591 0
M  V30 3074 O 334.19 -0.982541 1.67511 0
M  V30 3075 C 331.32 -1.38588 3.1845 0
M  V30 3076 C 330.274 -0.827115 4.19932 0
M  V30 3077 C 329.6 -2.00551 4.95665 0
M  V30 3078 C 330.9 0.16463 5.2204 0
M  V30 3079 H 332.594 0.371866 2.97082 0
M  V30 3080 H 330.14 0.180282 1.42867 0
M  V30 3081 H 332.093 -1.94023 3.74076 0
M  V30 3082 H 330.817 -2.09269 2.50747 0
M  V30 3083 H 329.476 -0.294702 3.65414 0
M  V30 3084 H 329.124 -2.6994 4.2443 0
M  V30 3085 H 328.824 -1.63784 5.64313 0
M  V30 3086 H 330.348 -2.56468 5.54127 0
M  V30 3087 H 331.762 -0.300699 5.72511 0
M  V30 3088 H 330.159 0.446813 5.98434 0
M  V30 3089 H 331.229 1.08905 4.72512 0
M  V30 3090 N 332.573 -1.56217 0.208337 0
M  V30 3091 C 333.483 -2.23316 -0.718836 0
M  V30 3092 C 334.499 -1.23648 -1.22422 0
M  V30 3093 O 335.675 -1.56423 -1.26861 0
M  V30 3094 C 332.74 -2.88968 -1.91568 0
M  V30 3095 C 331.801 -4.03943 -1.45357 0
M  V30 3096 C 331.034 -4.66455 -2.59337 0
M  V30 3097 O 331.257 -4.27919 -3.77149 0
M  V30 3098 O 330.191 -5.55686 -2.31293 0
M  V30 3099 H 334.017 -3.03182 -0.177315 0
M  V30 3100 H 331.602 -1.49384 -0.0215402 0
M  V30 3101 H 333.484 -3.30455 -2.61491 0
M  V30 3102 H 332.159 -2.12071 -2.44556 0
M  V30 3103 H 331.066 -3.67052 -0.722746 0
M  V30 3104 H 332.399 -4.82543 -0.970219 0
M  V30 3105 N 334.051 0.0651679 -1.57465 0
M  V30 3106 C 334.998 1.07675 -2.04144 0
M  V30 3107 C 335.968 1.38071 -0.923335 0
M  V30 3108 O 337.153 1.49026 -1.19146 0
M  V30 3109 C 334.293 2.38337 -2.49579 0
M  V30 3110 C 333.406 2.14413 -3.75035 0
M  V30 3111 C 332.541 3.38686 -4.09225 0
M  V30 3112 C 331.58 3.10156 -5.27702 0
M  V30 3113 N 330.717 4.26778 -5.57499 0
M  V30 3114 H 335.557 0.671716 -2.90331 0
M  V30 3115 H 333.094 0.3201 -1.43575 0
M  V30 3116 H 335.052 3.14632 -2.73975 0
M  V30 3117 H 333.682 2.7663 -1.6636 0
M  V30 3118 H 332.734 1.2878 -3.57939 0
M  V30 3119 H 334.046 1.89344 -4.61466 0
M  V30 3120 H 333.2 4.23373 -4.34558 0
M  V30 3121 H 331.939 3.66837 -3.21374 0
M  V30 3122 H 330.944 2.23866 -5.02159 0
M  V30 3123 H 332.169 2.8332 -6.17176 0
M  V30 3124 H 330.115 4.54948 -4.72608 0
M  V30 3125 H 330.032 4.05005 -6.38362 0
M  V30 3126 H 331.3 5.12443 -5.87386 0
M  V30 3127 N 335.529 1.53961 0.336706 0
M  V30 3128 C 336.778 1.70751 1.07363 0
M  V30 3129 C 337.091 0.481061 1.89592 0
M  V30 3130 O 338.297 0.530046 2.66276 0
M  V30 3131 C 336.753 3.01965 1.95818 0
M  V30 3132 C 336.361 4.31971 1.18764 0
M  V30 3133 C 338.105 3.28121 2.69327 0
M  V30 3134 C 336.012 5.54255 2.06289 0
M  V30 3135 H 334.942 0.636292 0.404535 0
M  V30 3136 H 337.593 1.80459 0.332681 0
M  V30 3137 H 335.975 2.86132 2.7376 0
M  V30 3138 H 337.149 4.5853 0.456849 0
M  V30 3139 H 335.464 4.12481 0.569946 0
M  V30 3140 H 338.061 4.16673 3.35094 0
M  V30 3141 H 338.404 2.45426 3.36261 0
M  V30 3142 H 338.937 3.44762 1.98454 0
M  V30 3143 H 335.676 6.39513 1.43885 0
M  V30 3144 H 335.196 5.31935 2.77138 0
M  V30 3145 H 336.875 5.90159 2.65182 0
M  V30 3146 N 337.007 -0.598083 1.45811 0
M  V30 3147 C 337.955 -1.72932 1.55555 0
M  V30 3148 C 338.949 -1.63984 0.424921 0
M  V30 3149 O 340.155 -1.69663 0.601205 0
M  V30 3150 H 336.53 -0.571489 0.488779 0
M  V30 3151 H 338.501 -1.61842 2.50699 0
M  V30 3152 C 337.25 -3.11318 1.54843 0
M  V30 3153 H 336.573 -3.18867 2.41172 0
M  V30 3154 H 338.013 -3.90274 1.65717 0
M  V30 3155 C 336.472 -3.3578 0.274427 0
M  V30 3156 O 337.002 -3.9654 -0.641778 0
M  V30 3157 N 335.208 -2.90119 0.167139 0
M  V30 3158 H 334.755 -2.40855 0.913596 0
M  V30 3159 H 334.713 -3.0686 -0.684435 0
M  V30 3160 N 338.485 -1.33259 -0.841409 0
M  V30 3161 C 339.732 -1.24572 -1.5965 0
M  V30 3162 C 340.06 0.189137 -1.93578 0
M  V30 3163 O 339.315 1.14566 -1.5866 0
M  V30 3164 C 339.614 -2.06381 -2.9179 0
M  V30 3165 C 339.28 -3.556 -2.77235 0
M  V30 3166 C 337.942 -3.96282 -2.72973 0
M  V30 3167 C 340.294 -4.50433 -2.62221 0
M  V30 3168 C 337.622 -5.30017 -2.51592 0
M  V30 3169 C 339.974 -5.84327 -2.42374 0
M  V30 3170 C 338.638 -6.24194 -2.36512 0
M  V30 3171 H 337.908 -0.455842 -0.5842 0
M  V30 3172 H 340.555 -1.6482 -0.975016 0
M  V30 3173 H 338.86 -1.58903 -3.5813 0
M  V30 3174 H 340.557 -1.97019 -3.49263 0
M  V30 3175 H 337.147 -3.23298 -2.81384 0
M  V30 3176 H 341.331 -4.19914 -2.64549 0
M  V30 3177 H 336.587 -5.59947 -2.45499 0
M  V30 3178 H 340.761 -6.57414 -2.29739 0
M  V30 3179 H 338.388 -7.27759 -2.19706 0
M  V30 3180 N 339.963 1.05934 -1.16686 0
M  V30 3181 C 341.379 1.30938 -0.912542 0
M  V30 3182 C 341.579 1.96803 0.432533 0
M  V30 3183 O 340.635 2.23693 1.17123 0
M  V30 3184 C 341.948 2.18649 -2.06429 0
M  V30 3185 C 343.496 2.32055 -2.10047 0
M  V30 3186 C 343.971 3.23122 -3.24586 0
M  V30 3187 N 345.462 3.30706 -3.24327 0
M  V30 3188 C 346.197 4.01273 -4.09594 0
M  V30 3189 N 345.693 4.74332 -5.04956 0
M  V30 3190 N 347.486 3.97361 -3.97569 0
M  V30 3191 H 339.637 0.615777 -2.03278 0
M  V30 3192 H 341.9 0.334077 -0.887185 0
M  V30 3193 H 341.606 1.77534 -3.03603 0
M  V30 3194 H 341.48 3.19252 -2.00894 0
M  V30 3195 H 343.867 2.72415 -1.13464 0
M  V30 3196 H 343.948 1.31107 -2.19647 0
M  V30 3197 H 343.592 2.83477 -4.2143 0
M  V30 3198 H 343.522 4.24057 -3.12223 0
M  V30 3199 H 346.013 2.78644 -2.55276 0
M  V30 3200 H 346.326 5.25716 -5.6643 0
M  V30 3201 H 344.671 4.733 -5.08933 0
M  V30 3202 H 347.862 3.39405 -3.22369 0
M  V30 3203 H 348.035 4.52089 -4.64241 0
M  V30 3204 N 341.441 0.965919 1.2453 0
M  V30 3205 C 342.681 0.634656 1.94297 0
M  V30 3206 C 343.045 -0.814822 1.73852 0
M  V30 3207 O 344.246 -1.25622 2.3764 0
M  V30 3208 C 342.517 0.99702 3.43212 0
M  V30 3209 S 344.076 0.780038 4.31811 0
M  V30 3210 H 340.894 0.232893 0.671775 0
M  V30 3211 H 343.496 1.24249 1.50938 0
M  V30 3212 H 342.2 2.04886 3.55598 0
M  V30 3213 H 341.731 0.379888 3.91562 0
M  V30 3214 H 343.746 -0.343512 4.9501 0
M  V30 3215 N 342.919 -1.39368 0.735821 0
M  V30 3216 C 343.866 -2.30599 0.0963825 0
M  V30 3217 C 344.836 -1.49257 -0.728794 0
M  V30 3218 O 346.021 -1.77941 -0.688588 0
M  V30 3219 C 343.161 -3.35596 -0.804305 0
M  V30 3220 C 342.274 -4.31987 0.0335761 0
M  V30 3221 C 341.409 -5.24053 -0.868461 0
M  V30 3222 C 340.448 -6.12095 -0.0258776 0
M  V30 3223 N 339.585 -6.96514 -0.883893 0
M  V30 3224 H 344.425 -2.8471 0.880002 0
M  V30 3225 H 341.962 -1.40188 0.445619 0
M  V30 3226 H 343.92 -3.95062 -1.34096 0
M  V30 3227 H 342.55 -2.82938 -1.55389 0
M  V30 3228 H 341.602 -3.74133 0.68766 0
M  V30 3229 H 342.914 -4.94074 0.685036 0
M  V30 3230 H 342.068 -5.88549 -1.47293 0
M  V30 3231 H 340.807 -4.62289 -1.5537 0
M  V30 3232 H 339.812 -5.4661 0.591386 0
M  V30 3233 H 341.037 -6.75923 0.656156 0
M  V30 3234 H 338.983 -6.37318 -1.55441 0
M  V30 3235 H 338.9 -7.55448 -0.288931 0
M  V30 3236 H 340.168 -7.65439 -1.4739 0
M  V30 3237 N 344.397 -0.483516 -1.5 0
M  V30 3238 C 345.808 -0.0314176 -1.86674 0
M  V30 3239 C 346.159 1.37728 -1.39733 0
M  V30 3240 O 345.284 2.02327 -0.767635 0
M  V30 3241 C 345.879 -0.0502376 -3.38763 0
M  V30 3242 C 344.438 0.346442 -3.74802 0
M  V30 3243 C 343.585 -0.430366 -2.7394 0
M  V30 3244 H 346.536 -0.697182 -1.42566 0
M  V30 3245 H 346.557 0.749116 -3.73053 0
M  V30 3246 H 346.069 -1.07563 -3.72897 0
M  V30 3247 H 344.17 1.37572 -3.46273 0
M  V30 3248 H 344.283 0.0391486 -4.79084 0
M  V30 3249 H 342.647 0.117557 -2.54429 0
M  V30 3250 H 343.43 -1.4555 -3.10918 0
M  V30 3251 N 345.875 1.56104 -0.216619 0
M  V30 3252 C 347.103 2.02563 0.421413 0
M  V30 3253 C 347.518 1.0965 1.53695 0
M  V30 3254 O 346.875 0.10521 1.82196 0
M  V30 3255 C 346.926 3.48584 0.957665 0
M  V30 3256 O 346.647 4.37953 -0.113389 0
M  V30 3257 C 348.148 4.10664 1.66943 0
M  V30 3258 H 345.368 0.662944 0.103665 0
M  V30 3259 H 347.912 2.01793 -0.331629 0
M  V30 3260 H 346.067 3.49985 1.661 0
M  V30 3261 H 346.481 5.23704 0.288932 0
M  V30 3262 H 347.955 5.14622 1.99671 0
M  V30 3263 H 348.432 3.55373 2.58083 0
M  V30 3264 H 349.038 4.13098 1.01142 0
M  V30 3265 N 347.353 -0.0568162 1.57498 0
M  V30 3266 C 348.6 -0.753104 1.87975 0
M  V30 3267 C 348.928 -1.76815 0.81035 0
M  V30 3268 O 348.183 -1.94756 -0.19199 0
M  V30 3269 C 348.482 -1.48359 3.25153 0
M  V30 3270 C 348.148 -0.60713 4.46794 0
M  V30 3271 C 346.81 -0.365642 4.79809 0
M  V30 3272 C 349.162 -0.000305978 5.212 0
M  V30 3273 C 346.49 0.491905 5.84634 0
M  V30 3274 C 348.842 0.844781 6.26934 0
M  V30 3275 C 347.506 1.096 6.58441 0
M  V30 3276 H 346.776 -0.27558 0.687849 0
M  V30 3277 H 349.423 -0.0135173 1.91495 0
M  V30 3278 H 347.728 -2.29577 3.17492 0
M  V30 3279 H 349.425 -2.02739 3.45974 0
M  V30 3280 H 346.015 -0.805487 4.20963 0
M  V30 3281 H 350.199 -0.173961 4.95995 0
M  V30 3282 H 345.455 0.695131 6.07436 0
M  V30 3283 H 349.629 1.32165 6.83744 0
M  V30 3284 H 347.256 1.76224 7.39492 0
M  V30 3285 N 348.832 -1.54138 -0.328536 0
M  V30 3286 C 350.248 -1.44736 -0.672574 0
M  V30 3287 C 350.448 -0.616217 -1.91846 0
M  V30 3288 O 349.504 -0.113067 -2.52247 0
M  V30 3289 C 350.817 -2.884 -0.851217 0
M  V30 3290 C 352.365 -2.98271 -0.948877 0
M  V30 3291 C 352.84 -4.43074 -1.15973 0
M  V30 3292 N 354.331 -4.46665 -1.22658 0
M  V30 3293 C 355.066 -5.55857 -1.40751 0
M  V30 3294 N 354.562 -6.75026 -1.5592 0
M  V30 3295 N 356.355 -5.43495 -1.4342 0
M  V30 3296 H 348.506 -2.06661 0.490421 0
M  V30 3297 H 350.769 -0.934812 0.157579 0
M  V30 3298 H 350.475 -3.51699 -0.00704236 0
M  V30 3299 H 350.349 -3.34225 -1.74853 0
M  V30 3300 H 352.736 -2.35102 -1.78356 0
M  V30 3301 H 352.817 -2.55785 -0.0281435 0
M  V30 3302 H 352.461 -5.06827 -0.329915 0
M  V30 3303 H 352.391 -4.83165 -2.09426 0
M  V30 3304 H 354.882 -3.60797 -1.124 0
M  V30 3305 H 355.195 -7.54004 -1.69404 0
M  V30 3306 H 353.54 -6.77944 -1.53027 0
M  V30 3307 H 356.731 -4.49349 -1.31162 0
M  V30 3308 H 356.904 -6.28649 -1.57178 0
M  V30 3309 N 350.31 0.590341 -1.46126 0
M  V30 3310 C 351.22 1.72793 -1.58681 0
M  V30 3311 C 352.236 1.67516 -0.470566 0
M  V30 3312 O 353.412 1.87562 -0.733642 0
M  V30 3313 C 350.477 3.09287 -1.5666 0
M  V30 3314 C 349.538 3.25886 -2.79458 0
M  V30 3315 C 348.771 4.55869 -2.77524 0
M  V30 3316 O 348.994 5.3928 -1.85832 0
M  V30 3317 O 347.928 4.75552 -3.68964 0
M  V30 3318 H 351.754 1.65149 -2.54872 0
M  V30 3319 H 349.339 0.756486 -1.28832 0
M  V30 3320 H 351.221 3.90577 -1.58202 0
M  V30 3321 H 349.896 3.17385 -0.636271 0
M  V30 3322 H 348.803 2.44119 -2.83472 0
M  V30 3323 H 350.136 3.22675 -3.71674 0
M  V30 3324 N 351.788 1.33704 0.83433 0
M  V30 3325 C 353.036 1.25169 1.58673 0
M  V30 3326 C 353.357 -0.18127 1.94156 0
M  V30 3327 O 352.627 -1.11113 1.6134 0
M  V30 3328 H 351.207 0.4603 0.58833 0
M  V30 3329 H 353.869 1.67478 0.996847 0
M  V30 3330 H 352.965 1.84856 2.51465 0
M  V30 3331 N 353.266 -1.05314 1.17247 0
M  V30 3332 C 354.514 -1.77941 0.958194 0
M  V30 3333 C 354.835 -1.88089 -0.514556 0
M  V30 3334 O 354.105 -1.39676 -1.37359 0
M  V30 3335 H 352.685 -0.659116 0.351533 0
M  V30 3336 H 355.347 -1.27166 1.47699 0
M  V30 3337 H 354.443 -2.79663 1.38546 0
M  V30 3338 N 354.744 -0.972509 -1.24016 0
M  V30 3339 C 355.969 -0.654417 -1.96805 0
M  V30 3340 C 356.394 0.770398 -1.716 0
M  V30 3341 O 355.752 1.52361 -0.982647 0
M  V30 3342 C 355.8 -0.941031 -3.48105 0
M  V30 3343 O 354.904 -0.0289472 -4.1239 0
M  V30 3344 H 354.245 -0.24692 -0.616382 0
M  V30 3345 H 356.775 -1.30396 -1.57664 0
M  V30 3346 H 356.785 -0.87452 -3.98517 0
M  V30 3347 H 355.46 -1.97939 -3.65777 0
M  V30 3348 H 354.037 -0.149192 -3.72601 0
M  V30 3349 N 356.222 1.38976 -0.743202 0
M  V30 3350 C 357.638 1.53984 -0.419664 0
M  V30 3351 C 357.838 1.70837 1.0685 0
M  V30 3352 O 356.894 1.7135 1.8546 0
M  V30 3353 C 358.207 2.75287 -1.20985 0
M  V30 3354 C 359.755 2.89129 -1.19889 0
M  V30 3355 C 360.23 4.13381 -1.97181 0
M  V30 3356 N 361.721 4.20437 -1.94389 0
M  V30 3357 C 362.456 5.15547 -2.50996 0
M  V30 3358 N 361.952 6.16395 -3.16274 0
M  V30 3359 N 363.745 5.07822 -2.40984 0
M  V30 3360 H 355.896 1.26285 -1.7078 0
M  V30 3361 H 358.159 0.612689 -0.723406 0
M  V30 3362 H 357.865 2.69204 -2.26323 0
M  V30 3363 H 357.739 3.68184 -0.819759 0
M  V30 3364 H 360.126 2.947 -0.153606 0
M  V30 3365 H 360.207 1.97272 -1.62841 0
M  V30 3366 H 359.851 4.08572 -3.01714 0
M  V30 3367 H 359.781 5.04298 -1.51629 0
M  V30 3368 H 362.272 3.48205 -1.46839 0
M  V30 3369 H 362.585 6.85443 -3.56915 0
M  V30 3370 H 360.93 6.16758 -3.20367 0
M  V30 3371 H 364.121 4.27973 -1.89622 0
M  V30 3372 H 364.294 5.81767 -2.85397 0
M  V30 3373 N 357.7 0.491464 1.49741 0
M  V30 3374 C 358.925 -0.0557177 2.07325 0
M  V30 3375 C 359.35 -1.30925 1.35056 0
M  V30 3376 O 358.708 -1.76733 0.404365 0
M  V30 3377 C 358.756 -0.302074 3.59333 0
M  V30 3378 O 357.86 -1.37868 3.88672 0
M  V30 3379 H 357.201 0.0219956 0.663636 0
M  V30 3380 H 359.731 0.688352 1.92673 0
M  V30 3381 H 359.741 -0.536464 4.04458 0
M  V30 3382 H 358.416 0.61383 4.11345 0
M  V30 3383 H 356.993 -1.12999 3.55367 0
M  V30 3384 N 359.178 -1.55987 0.224894 0
M  V30 3385 C 360.589 -1.84553 -0.282345 0
M  V30 3386 C 360.94 -1.14634 -1.59227 0
M  V30 3387 O 360.065 -0.417155 -2.12341 0
M  V30 3388 C 360.66 -3.348 -0.519062 0
M  V30 3389 C 359.219 -3.63671 -0.970604 0
M  V30 3390 C 358.366 -2.77277 -0.0355261 0
M  V30 3391 H 361.317 -1.52245 0.448006 0
M  V30 3392 H 361.338 -3.55187 -1.36463 0
M  V30 3393 H 360.85 -3.8566 0.43449 0
M  V30 3394 H 358.951 -3.1827 -1.9374 0
M  V30 3395 H 359.064 -4.71631 -0.842698 0
M  V30 3396 H 357.428 -2.48846 -0.542927 0
M  V30 3397 H 358.211 -3.30937 0.913003 0
M  V30 3398 N 360.656 0.0484629 -1.57525 0
M  V30 3399 C 362.072 0.40375 -1.54409 0
M  V30 3400 C 362.272 1.77786 -0.948384 0
M  V30 3401 O 361.328 2.46189 -0.560983 0
M  V30 3402 C 362.641 0.323394 -2.98956 0
M  V30 3403 C 364.189 0.401892 -3.10409 0
M  V30 3404 C 364.664 0.351195 -4.56652 0
M  V30 3405 N 366.155 0.410576 -4.61377 0
M  V30 3406 C 366.89 0.393933 -5.72045 0
M  V30 3407 N 366.386 0.330724 -6.9201 0
M  V30 3408 N 368.179 0.442227 -5.60358 0
M  V30 3409 H 360.33 -0.851016 -1.94606 0
M  V30 3410 H 362.593 -0.321721 -0.89174 0
M  V30 3411 H 362.299 -0.62011 -3.4619 0
M  V30 3412 H 362.173 1.12463 -3.60044 0
M  V30 3413 H 364.56 1.33582 -2.63134 0
M  V30 3414 H 364.641 -0.428342 -2.52188 0
M  V30 3415 H 364.285 -0.578987 -5.04589 0
M  V30 3416 H 364.215 1.19928 -5.12762 0
M  V30 3417 H 366.706 0.462729 -3.75056 0
M  V30 3418 H 367.019 0.322592 -7.72126 0
M  V30 3419 H 365.364 0.29706 -6.94365 0
M  V30 3420 H 368.555 0.489464 -4.65534 0
M  V30 3421 H 368.728 0.425788 -6.466 0
M  V30 3422 N 362.134 1.5431 0.320358 0
M  V30 3423 C 363.044 1.86946 1.41734 0
M  V30 3424 C 364.06 0.761689 1.56443 0
M  V30 3425 O 365.236 1.05629 1.71477 0
M  V30 3426 C 362.301 2.09293 2.76401 0
M  V30 3427 C 361.362 3.33082 2.70841 0
M  V30 3428 C 360.595 3.54353 3.99086 0
M  V30 3429 O 360.818 2.79002 4.97508 0
M  V30 3430 O 359.752 4.47838 4.0215 0
M  V30 3431 H 363.578 2.80232 1.17062 0
M  V30 3432 H 361.163 1.40255 0.514673 0
M  V30 3433 H 363.045 2.25303 3.56113 0
M  V30 3434 H 361.72 1.19194 3.00956 0
M  V30 3435 H 360.627 3.22454 1.89668 0
M  V30 3436 H 361.96 4.23249 2.5124 0
M  V30 3437 N 363.613 -0.582584 1.46437 0
M  V30 3438 C 364.561 -1.71272 1.5738 0
M  V30 3439 C 365.555 -1.63524 0.44229 0
M  V30 3440 O 366.761 -1.69016 0.619166 0
M  V30 3441 H 363.136 -0.566273 0.494813 0
M  V30 3442 H 365.107 -1.59174 2.52401 0
M  V30 3443 C 363.856 -3.09658 1.58136 0
M  V30 3444 H 363.179 -3.16291 2.44541 0
M  V30 3445 H 364.619 -3.88494 1.69847 0
M  V30 3446 C 363.078 -3.3547 0.310026 0
M  V30 3447 O 363.608 -3.97199 -0.599683 0
M  V30 3448 N 361.814 -2.89925 0.197901 0
M  V30 3449 H 361.361 -2.39873 0.93909 0
M  V30 3450 H 361.319 -3.07568 -0.65185 0
M  V30 3451 N 365.091 -1.34144 -0.827227 0
M  V30 3452 C 366.338 -1.26258 -1.58319 0
M  V30 3453 C 366.666 0.168595 -1.93768 0
M  V30 3454 O 365.921 1.12877 -1.59866 0
M  V30 3455 C 366.22 -2.09464 -2.89585 0
M  V30 3456 C 365.886 -3.58521 -2.73448 0
M  V30 3457 C 364.548 -3.99155 -2.68754 0
M  V30 3458 C 366.9 -4.53189 -2.57428 0
M  V30 3459 C 364.228 -5.32656 -2.45957 0
M  V30 3460 C 366.58 -5.86864 -2.36163 0
M  V30 3461 C 365.244 -6.26667 -2.29879 0
M  V30 3462 H 364.514 -0.462013 -0.579332 0
M  V30 3463 H 367.161 -1.65845 -0.95748 0
M  V30 3464 H 365.466 -1.62692 -3.56425 0
M  V30 3465 H 367.163 -2.00712 -3.47154 0
M  V30 3466 H 363.753 -3.26264 -2.77939 0
M  V30 3467 H 367.937 -4.22696 -2.60081 0
M  V30 3468 H 363.193 -5.62519 -2.39546 0
M  V30 3469 H 367.367 -6.59813 -2.22754 0
M  V30 3470 H 364.994 -7.30049 -2.11975 0
M  V30 3471 N 366.569 1.04691 -1.17803 0
M  V30 3472 C 367.815 1.78045 -0.970969 0
M  V30 3473 C 368.148 1.87686 0.498751 0
M  V30 3474 O 367.423 1.38035 1.37027 0
M  V30 3475 C 367.706 3.2166 -1.61884 0
M  V30 3476 C 367.559 3.20001 -3.161 0
M  V30 3477 C 368.878 4.1962 -1.3269 0
M  V30 3478 H 365.997 0.64633 -0.354155 0
M  V30 3479 H 368.639 1.22333 -1.45378 0
M  V30 3480 H 366.789 3.69232 -1.20831 0
M  V30 3481 H 368.461 2.80467 -3.66246 0
M  V30 3482 H 366.704 2.58203 -3.48588 0
M  V30 3483 H 367.375 4.21386 -3.56564 0
M  V30 3484 H 369.851 3.80567 -1.68249 0
M  V30 3485 H 368.727 5.18339 -1.80599 0
M  V30 3486 H 368.988 4.414 -0.248622 0
M  V30 3487 N 368.047 0.979072 1.23499 0
M  V30 3488 C 369.463 0.687475 1.44034 0
M  V30 3489 C 369.663 -0.746801 1.8715 0
M  V30 3490 O 368.719 -1.51939 2.0167 0
M  V30 3491 C 370.032 1.68127 2.49307 0
M  V30 3492 C 371.58 1.69516 2.63122 0
M  V30 3493 C 372.055 2.67723 3.71603 0
M  V30 3494 N 373.546 2.66233 3.79044 0
M  V30 3495 C 374.281 3.38891 4.62537 0
M  V30 3496 N 373.777 4.21103 5.50131 0
M  V30 3497 N 375.57 3.27661 4.56721 0
M  V30 3498 H 367.721 1.90559 0.938135 0
M  V30 3499 H 369.984 0.821051 0.473897 0
M  V30 3500 H 369.69 2.70693 2.2454 0
M  V30 3501 H 369.564 1.46306 3.4767 0
M  V30 3502 H 371.951 0.676561 2.8724 0
M  V30 3503 H 372.032 1.95404 1.65079 0
M  V30 3504 H 371.676 3.69724 3.48233 0
M  V30 3505 H 371.606 2.39111 4.69184 0
M  V30 3506 H 374.097 2.06568 3.16446 0
M  V30 3507 H 374.41 4.73403 6.10827 0
M  V30 3508 H 372.755 4.25195 5.49759 0
M  V30 3509 H 375.946 2.62887 3.87309 0
M  V30 3510 H 376.119 3.84547 5.21562 0
M  V30 3511 N 369.525 -1.3858 0.750561 0
M  V30 3512 C 370.475 -2.27795 0.0965949 0
M  V30 3513 C 371.459 -1.45048 -0.696411 0
M  V30 3514 O 372.651 -1.67812 -0.562863 0
M  V30 3515 C 369.78 -3.33894 -0.798085 0
M  V30 3516 C 368.866 -4.241 0.0016067 0
M  V30 3517 N 369.257 -4.95067 1.03647 0
M  V30 3518 C 367.555 -4.45429 -0.225674 0
M  V30 3519 C 368.256 -5.61489 1.52004 0
M  V30 3520 N 367.232 -5.37135 0.835874 0
M  V30 3521 H 371.034 -2.80125 0.889228 0
M  V30 3522 H 368.548 -1.51446 0.586323 0
M  V30 3523 H 370.545 -3.96693 -1.28219 0
M  V30 3524 H 369.205 -2.83123 -1.5897 0
M  V30 3525 H 370.216 -4.98104 1.41819 0
M  V30 3526 H 366.893 -4.05571 -0.990872 0
M  V30 3527 H 368.283 -6.28264 2.38188 0
M  V30 3528 N 371.003 -0.499398 -1.49478 0
M  V30 3529 C 371.953 0.299103 -2.2603 0
M  V30 3530 C 372.937 0.936934 -1.30807 0
M  V30 3531 O 374.129 0.844798 -1.55538 0
M  V30 3532 C 371.258 1.36391 -3.15044 0
M  V30 3533 C 370.344 0.732398 -4.17728 0
M  V30 3534 N 370.735 -0.164028 -5.05534 0
M  V30 3535 C 369.033 0.993162 -4.34801 0
M  V30 3536 C 369.734 -0.525345 -5.79323 0
M  V30 3537 N 368.71 0.106348 -5.43496 0
M  V30 3538 H 372.512 -0.391003 -2.91287 0
M  V30 3539 H 370.026 -0.31537 -1.59308 0
M  V30 3540 H 372.023 1.94939 -3.68516 0
M  V30 3541 H 370.683 2.05571 -2.51338 0
M  V30 3542 H 371.694 -0.534736 -5.15132 0
M  V30 3543 H 368.371 1.67783 -3.82302 0
M  V30 3544 H 369.761 -1.25862 -6.60006 0
M  V30 3545 N 372.481 1.55866 -0.233164 0
M  V30 3546 C 373.727 1.99643 0.389148 0
M  V30 3547 C 374.082 1.11836 1.56558 0
M  V30 3548 O 373.375 0.170848 1.90837 0
M  V30 3549 C 373.569 3.46856 0.861724 0
M  V30 3550 C 373.398 4.48904 -0.267376 0
M  V30 3551 C 372.168 4.99888 -0.737577 0
M  V30 3552 C 374.366 5.02624 -1.08966 0
M  V30 3553 N 372.348 5.8566 -1.84052 0
M  V30 3554 C 373.719 5.85434 -2.04125 0
M  V30 3555 C 375.774 4.84959 -1.12779 0
M  V30 3556 C 374.477 6.52466 -3.02789 0
M  V30 3557 C 376.503 5.52759 -2.10266 0
M  V30 3558 C 375.865 6.35346 -3.04162 0
M  V30 3559 H 371.964 0.774402 0.108742 0
M  V30 3560 H 374.548 1.91572 -0.347596 0
M  V30 3561 H 372.719 3.55352 1.5678 0
M  V30 3562 H 374.451 3.77531 1.45783 0
M  V30 3563 H 371.206 4.7249 -0.324122 0
M  V30 3564 H 371.63 6.33246 -2.39434 0
M  V30 3565 H 376.272 4.20751 -0.415749 0
M  V30 3566 H 373.99 7.15849 -3.74948 0
M  V30 3567 H 377.576 5.41051 -2.13905 0
M  V30 3568 H 376.456 6.86883 -3.78366 0
M  V30 3569 N 373.959 -0.0401083 1.57549 0
M  V30 3570 C 375.205 -0.734211 1.89043 0
M  V30 3571 C 375.538 -1.75591 0.829535 0
M  V30 3572 O 374.813 -1.93868 -0.156706 0
M  V30 3573 C 375.096 -1.41374 3.31188 0
M  V30 3574 C 374.949 -0.406299 4.47961 0
M  V30 3575 C 376.268 -2.35061 3.72068 0
M  V30 3576 H 373.387 -0.265447 0.687537 0
M  V30 3577 H 376.029 0.00294087 1.9 0
M  V30 3578 H 374.179 -2.04206 3.30503 0
M  V30 3579 H 375.851 0.219255 4.60779 0
M  V30 3580 H 374.094 0.275485 4.32924 0
M  V30 3581 H 374.765 -0.920022 5.44279 0
M  V30 3582 H 377.241 -1.82282 3.74049 0
M  V30 3583 H 376.117 -2.79593 4.72355 0
M  V30 3584 H 376.378 -3.21258 3.0372 0
M  V30 3585 N 375.437 -1.54477 -0.31217 0
M  V30 3586 C 376.387 -1.81037 -1.38598 0
M  V30 3587 C 377.371 -0.666941 -1.46426 0
M  V30 3588 O 378.563 -0.927269 -1.50767 0
M  V30 3589 C 375.692 -2.05127 -2.75277 0
M  V30 3590 C 374.778 -3.25624 -2.71716 0
M  V30 3591 N 375.169 -4.46428 -2.37773 0
M  V30 3592 C 373.467 -3.27427 -3.02833 0
M  V30 3593 C 374.168 -5.28406 -2.43232 0
M  V30 3594 N 373.144 -4.6586 -2.80135 0
M  V30 3595 H 376.946 -2.7201 -1.11301 0
M  V30 3596 H 374.46 -1.53826 -0.520705 0
M  V30 3597 H 376.457 -2.22299 -3.52688 0
M  V30 3598 H 375.117 -1.15416 -3.03495 0
M  V30 3599 H 376.128 -4.73227 -2.1042 0
M  V30 3600 H 372.805 -2.47786 -3.36018 0
M  V30 3601 H 374.195 -6.34903 -2.19882 0
M  V30 3602 N 376.915 0.57481 -1.46744 0
M  V30 3603 C 378.331 0.898981 -1.31873 0
M  V30 3604 C 378.531 1.99313 -0.29605 0
M  V30 3605 O 377.587 2.50728 0.298621 0
M  V30 3606 C 378.9 1.30886 -2.7072 0
M  V30 3607 C 380.448 1.42127 -2.78871 0
M  V30 3608 C 380.923 1.86478 -4.18318 0
M  V30 3609 N 382.414 1.93658 -4.20774 0
M  V30 3610 C 383.149 2.29267 -5.2557 0
M  V30 3611 N 382.645 2.63612 -6.40688 0
M  V30 3612 N 384.438 2.29889 -5.1294 0
M  V30 3613 H 376.589 -0.147839 -2.11885 0
M  V30 3614 H 378.852 -0.00347013 -0.947994 0
M  V30 3615 H 378.558 0.578853 -3.46904 0
M  V30 3616 H 378.432 2.26874 -3.01343 0
M  V30 3617 H 380.819 2.14213 -2.0297 0
M  V30 3618 H 380.9 0.443705 -2.51922 0
M  V30 3619 H 380.544 1.14968 -4.94717 0
M  V30 3620 H 380.474 2.85207 -4.42679 0
M  V30 3621 H 382.965 1.69574 -3.37718 0
M  V30 3622 H 383.278 2.89759 -7.16421 0
M  V30 3623 H 381.623 2.61232 -6.44036 0
M  V30 3624 H 384.814 2.02485 -4.22039 0
M  V30 3625 H 384.987 2.57312 -5.94722 0
M  V30 3626 N 378.394 1.34581 0.820102 0
M  V30 3627 C 379.81 1.14325 1.11364 0
M  V30 3628 C 380.01 -0.0533648 2.01429 0
M  V30 3629 O 379.066 -0.728044 2.41776 0
M  V30 3630 C 380.379 2.43983 1.75764 0
M  V30 3631 C 381.927 2.50065 1.88246 0
M  V30 3632 C 382.402 3.79732 2.56061 0
M  V30 3633 N 383.893 3.80908 2.63558 0
M  V30 3634 C 384.628 4.77961 3.16766 0
M  V30 3635 N 384.124 5.85397 3.70517 0
M  V30 3636 N 385.917 4.65413 3.15194 0
M  V30 3637 H 378.068 2.11246 0.221096 0
M  V30 3638 H 380.331 0.934289 0.160649 0
M  V30 3639 H 380.037 3.31651 1.1705 0
M  V30 3640 H 379.911 2.57531 2.75604 0
M  V30 3641 H 382.298 1.62834 2.46108 0
M  V30 3642 H 382.379 2.40442 0.873006 0
M  V30 3643 H 382.023 4.67354 1.98853 0
M  V30 3644 H 381.953 3.86639 3.57516 0
M  V30 3645 H 384.444 3.03274 2.25463 0
M  V30 3646 H 384.757 6.55463 4.09376 0
M  V30 3647 H 383.102 5.89107 3.68752 0
M  V30 3648 H 386.293 3.80627 2.72471 0
M  V30 3649 H 386.466 5.41216 3.56356 0
M  V30 3650 N 379.872 -1.04064 1.18357 0
M  V30 3651 C 381.288 -1.2947 0.933258 0
M  V30 3652 C 381.488 -1.97466 -0.401169 0
M  V30 3653 O 380.544 -2.25528 -1.13549 0
M  V30 3654 C 381.857 -2.15337 2.09882 0
M  V30 3655 C 383.405 -2.28683 2.13712 0
M  V30 3656 C 383.88 -3.17917 3.29686 0
M  V30 3657 N 385.371 -3.25504 3.29547 0
M  V30 3658 C 386.106 -3.94706 4.15926 0
M  V30 3659 N 385.602 -4.66239 5.12439 0
M  V30 3660 N 387.395 -3.90986 4.0384 0
M  V30 3661 H 379.546 -0.583359 2.04232 0
M  V30 3662 H 381.809 -0.319921 0.892387 0
M  V30 3663 H 381.515 -1.72682 3.06389 0
M  V30 3664 H 381.389 -3.16015 2.05947 0
M  V30 3665 H 383.776 -2.70575 1.17784 0
M  V30 3666 H 383.857 -1.27596 2.21705 0
M  V30 3667 H 383.501 -2.76736 4.25887 0
M  V30 3668 H 383.431 -4.19036 3.1893 0
M  V30 3669 H 385.922 -2.74547 2.59677 0
M  V30 3670 H 386.235 -5.16638 5.74722 0
M  V30 3671 H 384.58 -4.65143 5.16398 0
M  V30 3672 H 387.771 -3.34234 3.27727 0
M  V30 3673 H 387.944 -4.44646 4.71375 0
M  V30 3674 N 381.35 -0.985608 -1.22978 0
M  V30 3675 C 382.282 -0.488154 -2.23941 0
M  V30 3676 C 383.295 0.41282 -1.57479 0
M  V30 3677 O 384.484 0.216121 -1.77187 0
M  V30 3678 C 381.584 0.312611 -3.37455 0
M  V30 3679 C 380.757 -0.582741 -4.33501 0
M  V30 3680 C 379.816 0.165064 -5.25941 0
M  V30 3681 O 378.842 -0.447077 -5.67442 0
M  V30 3682 N 380.044 1.44953 -5.62111 0
M  V30 3683 H 382.809 -1.3563 -2.67254 0
M  V30 3684 H 380.37 -0.859477 -1.37203 0
M  V30 3685 H 382.362 0.821357 -3.96277 0
M  V30 3686 H 380.932 1.0818 -2.93285 0
M  V30 3687 H 380.152 -1.27225 -3.73105 0
M  V30 3688 H 381.44 -1.19275 -4.94622 0
M  V30 3689 H 380.838 1.9683 -5.30353 0
M  V30 3690 H 379.395 1.90361 -6.23383 0
M  V30 3691 N 382.828 1.3818 -0.7579 0
M  V30 3692 C 383.738 2.3421 -0.135247 0
M  V30 3693 C 384.754 1.59487 0.695683 0
M  V30 3694 O 385.93 1.91657 0.618832 0
M  V30 3695 C 382.995 3.3862 0.744139 0
M  V30 3696 C 382.056 4.2918 -0.101658 0
M  V30 3697 C 381.289 5.28603 0.735851 0
M  V30 3698 O 381.512 5.35166 1.97366 0
M  V30 3699 O 380.446 6.01707 0.152372 0
M  V30 3700 H 384.272 2.8916 -0.928436 0
M  V30 3701 H 381.857 1.40101 -0.518855 0
M  V30 3702 H 383.739 4.02539 1.2466 0
M  V30 3703 H 382.414 2.86019 1.51575 0
M  V30 3704 H 381.321 3.68407 -0.650167 0
M  V30 3705 H 382.654 4.85048 -0.836024 0
M  V30 3706 N 384.306 0.507319 1.49211 0
M  V30 3707 C 385.554 -0.0348839 2.0207 0
M  V30 3708 C 385.875 -1.36898 1.38866 0
M  V30 3709 O 385.145 -1.88133 0.546151 0
M  V30 3710 H 383.725 -0.0158812 0.746831 0
M  V30 3711 H 386.387 0.665998 1.83168 0
M  V30 3712 H 385.483 -0.159917 3.1169 0
M  V30 3713 N 385.784 -1.5574 0.241426 0
M  V30 3714 C 386.731 -2.21149 -0.660432 0
M  V30 3715 C 387.701 -1.17356 -1.17545 0
M  V30 3716 O 388.886 -1.45784 -1.23093 0
M  V30 3717 C 386.026 -2.91059 -1.85414 0
M  V30 3718 C 385.139 -4.09495 -1.37616 0
M  V30 3719 C 384.274 -4.67135 -2.529 0
M  V30 3720 C 383.313 -5.77831 -2.01936 0
M  V30 3721 N 382.45 -6.29677 -3.10566 0
M  V30 3722 H 387.29 -2.97845 -0.095955 0
M  V30 3723 H 384.827 -1.47057 -0.0356024 0
M  V30 3724 H 386.785 -3.29788 -2.5553 0
M  V30 3725 H 385.415 -2.16846 -2.39118 0
M  V30 3726 H 384.467 -3.76117 -0.569235 0
M  V30 3727 H 385.779 -4.89423 -0.962618 0
M  V30 3728 H 384.933 -5.08409 -3.31067 0
M  V30 3729 H 383.672 -3.86411 -2.97553 0
M  V30 3730 H 382.677 -5.36039 -1.22238 0
M  V30 3731 H 383.902 -6.60402 -1.58259 0
M  V30 3732 H 381.848 -5.5186 -3.54664 0
M  V30 3733 H 381.765 -7.04783 -2.73526 0
M  V30 3734 H 383.033 -6.75609 -3.88809 0
M  V30 3735 N 387.262 0.0317525 -1.57568 0
M  V30 3736 C 388.502 0.727979 -1.90997 0
M  V30 3737 C 388.866 1.72664 -0.839708 0
M  V30 3738 O 390.067 2.47092 -1.05825 0
M  V30 3739 C 388.338 1.38239 -3.29583 0
M  V30 3740 S 389.897 2.10814 -3.84841 0
M  V30 3741 H 386.715 0.241226 -0.668828 0
M  V30 3742 H 389.317 -0.0173037 -1.95492 0
M  V30 3743 H 388.021 0.642288 -4.05343 0
M  V30 3744 H 387.552 2.16628 -3.28384 0
M  V30 3745 H 389.567 3.3792 -3.63352 0
M  V30 3746 N 388.74 1.54641 0.303973 0
M  V30 3747 C 389.687 1.85386 1.37479 0
M  V30 3748 C 390.657 0.702528 1.50512 0
M  V30 3749 O 391.842 0.950867 1.65418 0
M  V30 3750 C 388.982 2.10413 2.73533 0
M  V30 3751 C 388.095 3.38049 2.68974 0
M  V30 3752 C 387.23 3.52934 3.97002 0
M  V30 3753 C 386.269 4.74373 3.86829 0
M  V30 3754 N 385.406 4.8608 5.06627 0
M  V30 3755 H 390.246 2.76732 1.1056 0
M  V30 3756 H 387.783 1.37034 0.534805 0
M  V30 3757 H 389.741 2.22919 3.52652 0
M  V30 3758 H 388.371 1.22338 2.98719 0
M  V30 3759 H 387.423 3.3418 1.81736 0
M  V30 3760 H 388.735 4.27288 2.57346 0
M  V30 3761 H 387.889 3.65088 4.84557 0
M  V30 3762 H 386.628 2.61824 4.1146 0
M  V30 3763 H 385.633 4.62255 2.97658 0
M  V30 3764 H 386.858 5.66888 3.73918 0
M  V30 3765 H 384.804 3.97891 5.21554 0
M  V30 3766 H 384.721 5.69315 4.9741 0
M  V30 3767 H 385.989 5.02587 5.95841 0
M  V30 3768 N 390.218 -0.567019 1.47046 0
M  V30 3769 C 391.15 -1.68985 1.54844 0
M  V30 3770 C 392.163 -1.56869 0.435431 0
M  V30 3771 O 393.352 -1.64006 0.70457 0
M  V30 3772 C 390.452 -3.07373 1.42742 0
M  V30 3773 C 389.625 -3.45339 2.6844 0
M  V30 3774 C 388.684 -4.62849 2.50314 0
M  V30 3775 O 387.71 -4.67922 3.24095 0
M  V30 3776 N 388.912 -5.58726 1.57499 0
M  V30 3777 H 391.677 -1.62745 2.51663 0
M  V30 3778 H 389.238 -0.753411 1.43302 0
M  V30 3779 H 391.23 -3.83803 1.28365 0
M  V30 3780 H 389.8 -3.07893 0.540445 0
M  V30 3781 H 389.02 -2.58455 2.97648 0
M  V30 3782 H 390.308 -3.67476 3.51907 0
M  V30 3783 H 389.706 -5.57376 0.966876 0
M  V30 3784 H 388.263 -6.34523 1.49078 0
M  V30 3785 N 391.696 -1.35014 -0.812953 0
M  V30 3786 C 392.936 -1.29289 -1.58315 0
M  V30 3787 C 393.3 0.132727 -1.91541 0
M  V30 3788 O 394.501 0.314269 -2.66957 0
M  V30 3789 C 392.772 -2.1681 -2.84127 0
M  V30 3790 S 394.331 -2.28538 -3.74588 0
M  V30 3791 H 391.149 -0.459569 -0.542511 0
M  V30 3792 H 393.751 -1.70336 -0.959467 0
M  V30 3793 H 392.455 -3.19379 -2.57731 0
M  V30 3794 H 391.986 -1.76697 -3.51485 0
M  V30 3795 H 394.001 -1.4655 -4.74065 0
M  V30 3796 N 393.175 1.03435 -1.18907 0
M  V30 3797 C 394.423 1.76394 -0.986382 0
M  V30 3798 C 394.744 1.88883 0.484567 0
M  V30 3799 O 394.014 1.41843 1.3512 0
M  V30 3800 H 392.594 0.65344 -0.361975 0
M  V30 3801 H 395.256 1.248 -1.49703 0
M  V30 3802 H 394.352 2.77424 -1.42978 0
M  V30 3803 N 394.653 0.992116 1.22453 0
M  V30 3804 C 395.6 0.541731 2.24352 0
M  V30 3805 C 396.57 -0.425519 1.60557 0
M  V30 3806 O 397.755 -0.330453 1.87917 0
M  V30 3807 C 394.895 -0.138248 3.44823 0
M  V30 3808 C 394.008 0.870649 4.23136 0
M  V30 3809 C 393.143 0.164269 5.30946 0
M  V30 3810 C 392.182 1.16159 6.00977 0
M  V30 3811 N 391.319 0.483568 7.00433 0
M  V30 3812 H 396.159 1.41541 2.62241 0
M  V30 3813 H 393.696 0.709013 1.28885 0
M  V30 3814 H 395.654 -0.5494 4.13567 0
M  V30 3815 H 394.284 -0.975721 3.077 0
M  V30 3816 H 393.336 1.40013 3.53696 0
M  V30 3817 H 394.648 1.63014 4.7141 0
M  V30 3818 H 393.802 -0.303653 6.0594 0
M  V30 3819 H 392.541 -0.627733 4.83643 0
M  V30 3820 H 391.546 1.64015 5.24766 0
M  V30 3821 H 392.771 1.95445 6.50368 0
M  V30 3822 H 390.717 -0.289012 6.55363 0
M  V30 3823 H 390.634 1.18152 7.4671 0
M  V30 3824 H 391.902 0.0384219 7.79491 0
M  V30 3825 N 396.131 -1.37776 0.765217 0
M  V30 3826 C 397.379 -1.99454 0.325943 0
M  V30 3827 C 397.7 -1.61049 -1.09947 0
M  V30 3828 O 396.97 -0.872821 -1.75381 0
M  V30 3829 H 395.55 -0.737697 0.117525 0
M  V30 3830 H 398.212 -1.68359 0.981895 0
M  V30 3831 H 397.308 -3.09547 0.398353 0
M  V30 3832 N 397.609 -0.515225 -1.4894 0
M  V30 3833 C 398.856 0.024215 -2.02486 0
M  V30 3834 C 399.184 1.35671 -1.39368 0
M  V30 3835 O 398.439 1.88566 -0.523574 0
M  V30 3836 C 398.738 0.210595 -3.56779 0
M  V30 3837 C 398.404 -1.04569 -4.38607 0
M  V30 3838 C 397.066 -1.39002 -4.60686 0
M  V30 3839 C 399.418 -1.88008 -4.86109 0
M  V30 3840 C 396.746 -2.568 -5.27514 0
M  V30 3841 C 399.098 -3.04972 -5.54234 0
M  V30 3842 C 397.762 -3.39768 -5.74555 0
M  V30 3843 H 397.032 0.00886088 -0.740947 0
M  V30 3844 H 399.679 -0.678263 -1.79086 0
M  V30 3845 H 397.984 0.99572 -3.78936 0
M  V30 3846 H 399.681 0.642659 -3.95817 0
M  V30 3847 H 396.271 -0.767497 -4.21672 0
M  V30 3848 H 400.455 -1.62719 -4.68867 0
M  V30 3849 H 395.711 -2.8398 -5.41447 0
M  V30 3850 H 399.885 -3.69943 -5.90013 0
M  V30 3851 H 397.512 -4.31148 -6.26112 0
M  V30 3852 N 399.087 1.5561 -0.249682 0
M  V30 3853 C 400.019 2.18834 0.681496 0
M  V30 3854 C 401.032 1.16546 1.1367 0
M  V30 3855 O 402.221 1.43397 1.06299 0
M  V30 3856 C 399.321 2.77992 1.9384 0
M  V30 3857 C 398.494 4.05725 1.63419 0
M  V30 3858 C 397.553 4.49174 2.74096 0
M  V30 3859 O 396.579 5.15492 2.41364 0
M  V30 3860 N 397.781 4.17191 4.03649 0
M  V30 3861 H 400.546 2.9937 0.140514 0
M  V30 3862 H 398.107 1.6175 -0.0697541 0
M  V30 3863 H 400.099 3.04015 2.67127 0
M  V30 3864 H 398.669 2.01596 2.38909 0
M  V30 3865 H 397.889 3.87261 0.736358 0
M  V30 3866 H 399.177 4.88999 1.40562 0
M  V30 3867 H 398.575 3.63955 4.33074 0
M  V30 3868 H 397.132 4.48043 4.73393 0
M  V30 3869 N 400.565 -0.0233959 1.57583 0
M  V30 3870 C 401.497 -1.04994 2.03737 0
M  V30 3871 C 402.51 -1.32125 0.951152 0
M  V30 3872 O 403.699 -1.29512 1.22837 0
M  V30 3873 C 400.799 -2.39026 2.40249 0
M  V30 3874 C 399.972 -2.31171 3.7132 0
M  V30 3875 C 399.031 -3.47698 3.94959 0
M  V30 3876 O 398.057 -3.26937 4.65941 0
M  V30 3877 N 399.259 -4.6976 3.41037 0
M  V30 3878 H 402.024 -0.656507 2.92421 0
M  V30 3879 H 399.585 -0.211235 1.60516 0
M  V30 3880 H 401.577 -3.15712 2.53196 0
M  V30 3881 H 400.147 -2.70194 1.57207 0
M  V30 3882 H 399.367 -1.39547 3.68674 0
M  V30 3883 H 400.655 -2.23071 4.57293 0
M  V30 3884 H 400.053 -4.89528 2.83512 0
M  V30 3885 H 398.61 -5.43791 3.59353 0
M  V30 3886 N 402.043 -1.548 -0.295768 0
M  V30 3887 C 402.99 -1.86113 -1.36494 0
M  V30 3888 C 403.96 -0.7105 -1.50137 0
M  V30 3889 O 405.145 -0.959626 -1.64912 0
M  V30 3890 C 402.285 -2.11861 -2.72413 0
M  V30 3891 C 401.398 -3.39471 -2.67177 0
M  V30 3892 C 400.533 -3.55035 -3.95125 0
M  V30 3893 C 399.572 -4.76418 -3.84308 0
M  V30 3894 N 398.709 -4.8876 -5.04042 0
M  V30 3895 H 403.549 -2.77314 -1.09091 0
M  V30 3896 H 401.086 -1.37315 -0.52753 0
M  V30 3897 H 403.044 -2.24786 -3.51464 0
M  V30 3898 H 401.674 -1.2392 -2.98066 0
M  V30 3899 H 400.726 -3.35139 -1.79962 0
M  V30 3900 H 402.038 -4.28646 -2.55076 0
M  V30 3901 H 401.192 -3.67653 -4.82614 0
M  V30 3902 H 399.931 -2.64002 -4.10066 0
M  V30 3903 H 398.936 -4.63827 -2.95202 0
M  V30 3904 H 400.161 -5.68863 -3.70906 0
M  V30 3905 H 398.107 -4.00652 -5.19436 0
M  V30 3906 H 398.024 -5.71945 -4.94384 0
M  V30 3907 H 399.292 -5.0574 -5.93167 0
M  V30 3908 N 403.521 0.559213 -1.47345 0
M  V30 3909 C 404.768 1.31648 -1.53867 0
M  V30 3910 C 405.096 1.93468 -0.200104 0
M  V30 3911 O 404.351 1.78295 0.806799 0
M  V30 3912 C 404.65 2.44853 -2.6035 0
M  V30 3913 C 404.316 2.00876 -4.03683 0
M  V30 3914 C 402.978 1.88599 -4.42701 0
M  V30 3915 C 405.33 1.67279 -4.93626 0
M  V30 3916 C 402.658 1.41017 -5.69501 0
M  V30 3917 C 405.01 1.21169 -6.20887 0
M  V30 3918 C 403.674 1.07487 -6.58789 0
M  V30 3919 H 402.944 0.481734 -0.56304 0
M  V30 3920 H 405.591 0.627301 -1.80934 0
M  V30 3921 H 403.896 3.19318 -2.27032 0
M  V30 3922 H 405.593 3.03039 -2.62619 0
M  V30 3923 H 402.183 2.11374 -3.72853 0
M  V30 3924 H 406.367 1.75638 -4.64182 0
M  V30 3925 H 401.623 1.29086 -5.97618 0
M  V30 3926 H 405.797 0.942345 -6.89995 0
M  V30 3927 H 403.424 0.703946 -7.56934 0
M  V30 3928 N 404.999 1.35443 0.805782 0
M  V30 3929 C 406.224 1.32037 1.59941 0
M  V30 3930 C 406.649 -0.0994215 1.87837 0
M  V30 3931 O 406.007 -1.06648 1.46615 0
M  V30 3932 C 406.055 2.13354 2.90711 0
M  V30 3933 O 405.159 1.5148 3.83572 0
M  V30 3934 H 404.5 0.452666 0.485787 0
M  V30 3935 H 407.03 1.78496 1.00002 0
M  V30 3936 H 407.04 2.25338 3.40128 0
M  V30 3937 H 405.715 3.16572 2.69732 0
M  V30 3938 H 404.292 1.4834 3.42125 0
M  V30 3939 N 406.477 -1.02803 1.19454 0
M  V30 3940 C 407.724 -1.76217 0.997693 0
M  V30 3941 C 408.052 -1.887 -0.47144 0
M  V30 3942 O 407.307 -1.4011 -1.3663 0
M  V30 3943 C 407.606 -3.18941 1.6128 0
M  V30 3944 C 407.272 -3.26463 3.11019 0
M  V30 3945 C 405.934 -3.28223 3.51885 0
M  V30 3946 C 408.286 -3.25542 4.07028 0
M  V30 3947 C 405.614 -3.26719 4.8731 0
M  V30 3948 C 407.966 -3.25579 5.42385 0
M  V30 3949 C 406.63 -3.25637 5.82681 0
M  V30 3950 H 405.9 -0.644823 0.365082 0
M  V30 3951 H 408.547 -1.20655 1.4871 0
M  V30 3952 H 406.852 -3.77587 1.04572 0
M  V30 3953 H 408.549 -3.74415 1.43577 0
M  V30 3954 H 405.139 -3.25822 2.78457 0
M  V30 3955 H 409.323 -3.23362 3.76498 0
M  V30 3956 H 404.579 -3.25089 5.1781 0
M  V30 3957 H 408.753 -3.23817 6.16535 0
M  V30 3958 H 406.38 -3.24226 6.87591 0
M  V30 3959 N 407.956 -0.998596 -1.21925 0
M  V30 3960 C 408.906 -0.524743 -2.21879 0
M  V30 3961 C 409.89 0.41017 -1.55584 0
M  V30 3962 O 411.082 0.236063 -1.75419 0
M  V30 3963 C 408.211 0.153636 -3.42956 0
M  V30 3964 C 407.297 -0.801918 -4.16449 0
M  V30 3965 N 407.688 -1.95211 -4.66611 0
M  V30 3966 C 405.986 -0.618972 -4.41684 0
M  V30 3967 C 406.687 -2.55234 -5.22715 0
M  V30 3968 N 405.663 -1.83451 -5.1171 0
M  V30 3969 H 409.465 -1.40189 -2.58311 0
M  V30 3970 H 406.979 -0.86159 -1.3766 0
M  V30 3971 H 408.976 0.510534 -4.13762 0
M  V30 3972 H 407.636 1.02684 -3.08036 0
M  V30 3973 H 408.647 -2.33271 -4.62391 0
M  V30 3974 H 405.324 0.207694 -4.16983 0
M  V30 3975 H 406.714 -3.52471 -5.72026 0
M  V30 3976 N 409.434 1.37368 -0.772513 0
M  V30 3977 C 410.659 2.0447 -0.347386 0
M  V30 3978 C 411.084 1.57882 1.0225 0
M  V30 3979 O 410.442 0.73941 1.65537 0
M  V30 3980 C 410.49 3.58369 -0.400479 0
M  V30 3981 O 409.594 4.0803 0.598789 0
M  V30 3982 H 408.935 0.646773 -0.15027 0
M  V30 3983 H 411.465 1.75667 -1.04892 0
M  V30 3984 H 411.475 4.07183 -0.258045 0
M  V30 3985 H 410.15 3.91633 -1.39986 0
M  V30 3986 H 408.727 3.70534 0.419411 0
M  V30 3987 N 410.912 0.523116 1.48665 0
M  V30 3988 C 411.859 -0.243398 2.29513 0
M  V30 3989 C 412.829 -0.940139 1.36933 0
M  V30 3990 O 414.014 -0.942503 1.65896 0
M  V30 3991 C 411.154 -1.28855 3.20141 0
M  V30 3992 C 410.267 -0.60135 4.27794 0
M  V30 3993 C 409.402 -1.62884 5.05611 0
M  V30 3994 C 408.441 -0.924726 6.05075 0
M  V30 3995 N 407.578 -1.89744 6.75975 0
M  V30 3996 H 412.418 0.452234 2.94549 0
M  V30 3997 H 409.955 0.234858 1.45213 0
M  V30 3998 H 411.913 -1.90674 3.71079 0
M  V30 3999 H 410.543 -1.95266 2.57043 0
M  V30 4000 H 409.595 0.130623 3.80176 0
M  V30 4001 H 410.907 -0.0481585 4.98777 0
M  V30 4002 H 410.061 -2.32149 5.60528 0
M  V30 4003 H 408.8 -2.21592 4.34452 0
M  V30 4004 H 407.805 -0.217966 5.49368 0
M  V30 4005 H 409.03 -0.343851 6.78229 0
M  V30 4006 H 406.976 -2.47373 6.07571 0
M  V30 4007 H 406.893 -1.3955 7.43009 0
M  V30 4008 H 408.161 -2.58229 7.35485 0
M  V30 4009 N 412.39 -1.55475 0.257931 0
M  V30 4010 C 413.3 -2.2549 -0.647425 0
M  V30 4011 C 414.316 -1.2748 -1.18427 0
M  V30 4012 O 415.492 -1.6038 -1.2182 0
M  V30 4013 C 412.557 -2.94916 -1.82278 0
M  V30 4014 C 411.618 -4.08363 -1.32432 0
M  V30 4015 C 410.851 -4.74469 -2.44366 0
M  V30 4016 O 411.074 -4.39701 -3.63344 0
M  V30 4017 O 410.008 -5.62763 -2.13497 0
M  V30 4018 H 413.834 -3.03593 -0.0807707 0
M  V30 4019 H 411.419 -1.49377 0.0259962 0
M  V30 4020 H 413.301 -3.38606 -2.50846 0
M  V30 4021 H 411.976 -2.19744 -2.37685 0
M  V30 4022 H 410.883 -3.69166 -0.605605 0
M  V30 4023 H 412.216 -4.85385 -0.816211 0
M  V30 4024 N 413.868 0.0150385 -1.57593 0
M  V30 4025 C 415.117 0.702115 -1.89085 0
M  V30 4026 C 415.43 1.75764 -0.858277 0
M  V30 4027 O 416.636 2.49829 -1.0629 0
M  V30 4028 C 415.092 1.29992 -3.35604 0
M  V30 4029 C 414.7 0.280007 -4.47124 0
M  V30 4030 C 416.444 1.96606 -3.76227 0
M  V30 4031 C 414.351 0.886949 -5.84711 0
M  V30 4032 H 413.281 0.265997 -0.705522 0
M  V30 4033 H 415.932 -0.0430408 -1.8345 0
M  V30 4034 H 414.314 2.09525 -3.36029 0
M  V30 4035 H 415.488 -0.489631 -4.58191 0
M  V30 4036 H 413.803 -0.284835 -4.15425 0
M  V30 4037 H 416.4 2.42893 -4.76347 0
M  V30 4038 H 416.743 2.79024 -3.08952 0
M  V30 4039 H 417.276 1.23828 -3.78036 0
M  V30 4040 H 414.015 0.101876 -6.55421 0
M  V30 4041 H 413.535 1.6261 -5.77337 0
M  V30 4042 H 415.214 1.39011 -6.3189 0
M  V30 4043 N 415.346 1.54954 0.287554 0
M  V30 4044 C 416.592 1.75132 1.02257 0
M  V30 4045 C 416.925 0.542858 1.86458 0
M  V30 4046 O 416.2 -0.459856 1.88986 0
M  V30 4047 C 416.483 3.04812 1.91733 0
M  V30 4048 C 416.336 4.35985 1.10622 0
M  V30 4049 C 417.655 3.30438 2.90687 0
M  V30 4050 H 414.774 0.637194 0.370341 0
M  V30 4051 H 417.416 1.87678 0.296111 0
M  V30 4052 H 415.566 2.94247 2.53675 0
M  V30 4053 H 417.238 4.58487 0.508636 0
M  V30 4054 H 415.481 4.31865 0.409271 0
M  V30 4055 H 416.152 5.23017 1.76513 0
M  V30 4056 H 418.628 3.40701 2.38877 0
M  V30 4057 H 417.504 4.22467 3.50447 0
M  V30 4058 H 417.765 2.49377 3.65053 0
M  V30 4059 N 416.824 -0.551391 1.4764 0
M  V30 4060 C 417.787 -1.64007 1.60107 0
M  V30 4061 C 418.787 -1.53601 0.47576 0
M  V30 4062 O 419.977 -1.57655 0.740988 0
M  V30 4063 C 417.109 -3.03569 1.55108 0
M  V30 4064 H 418.302 -1.543 2.57161 0
M  V30 4065 H 415.855 -0.771776 1.35917 0
M  V30 4066 H 416.59 -3.18804 0.594519 0
M  V30 4067 H 416.375 -3.12532 2.36783 0
M  V30 4068 H 417.865 -3.82762 1.66982 0
M  V30 4069 N 418.302 -1.35869 -0.798587 0
M  V30 4070 C 419.551 -1.28921 -1.5512 0
M  V30 4071 C 419.864 0.13208 -1.95154 0
M  V30 4072 O 421.07 0.323879 -2.69561 0
M  V30 4073 C 419.526 -2.26141 -2.79979 0
M  V30 4074 C 419.134 -3.73658 -2.47151 0
M  V30 4075 C 420.878 -2.28152 -3.57976 0
M  V30 4076 C 418.785 -4.62679 -3.6835 0
M  V30 4077 H 417.715 -0.479031 -0.582276 0
M  V30 4078 H 420.366 -1.61179 -0.877125 0
M  V30 4079 H 418.748 -1.86865 -3.49138 0
M  V30 4080 H 419.922 -4.21616 -1.85947 0
M  V30 4081 H 418.237 -3.74333 -1.82383 0
M  V30 4082 H 420.834 -2.91875 -4.4801 0
M  V30 4083 H 421.177 -1.28748 -3.95891 0
M  V30 4084 H 421.71 -2.65998 -2.95787 0
M  V30 4085 H 418.449 -5.63111 -3.35538 0
M  V30 4086 H 417.969 -4.19442 -4.28752 0
M  V30 4087 H 419.648 -4.78498 -4.35487 0
M  V30 4088 N 419.78 1.02168 -1.19998 0
M  V30 4089 C 421.005 1.79833 -1.03319 0
M  V30 4090 C 421.43 1.83504 0.413281 0
M  V30 4091 O 420.788 1.26635 1.29743 0
M  V30 4092 C 420.836 3.22396 -1.61533 0
M  V30 4093 O 419.94 4.03555 -0.849519 0
M  V30 4094 H 419.281 0.554872 -0.364709 0
M  V30 4095 H 421.811 1.28542 -1.59179 0
M  V30 4096 H 421.821 3.73124 -1.65054 0
M  V30 4097 H 420.496 3.19039 -2.66809 0
M  V30 4098 H 419.073 3.62169 -0.888129 0
M  V30 4099 N 421.258 1.00505 1.21394 0
M  V30 4100 C 422.498 0.696149 1.9218 0
M  V30 4101 C 422.862 -0.759099 1.76357 0
M  V30 4102 O 424.063 -1.17998 2.41516 0
M  V30 4103 C 422.334 1.10571 3.39866 0
M  V30 4104 S 423.893 0.91702 4.29111 0
M  V30 4105 H 420.711 0.254147 0.664026 0
M  V30 4106 H 423.313 1.28988 1.46909 0
M  V30 4107 H 422.017 2.16096 3.489 0
M  V30 4108 H 421.548 0.504268 3.90155 0
M  V30 4109 H 423.563 -0.185855 4.95852 0
M  V30 4110 N 422.737 -1.36956 0.779787 0
M  V30 4111 C 423.962 -2.04283 0.358224 0
M  V30 4112 C 424.387 -1.58422 -1.01411 0
M  V30 4113 O 423.745 -0.748179 -1.65142 0
M  V30 4114 C 423.793 -3.58152 0.419479 0
M  V30 4115 O 422.897 -4.08342 -0.577142 0
M  V30 4116 H 422.238 -0.645967 0.153698 0
M  V30 4117 H 424.768 -1.75108 1.05822 0
M  V30 4118 H 424.778 -4.07041 0.279636 0
M  V30 4119 H 423.453 -3.90886 1.42061 0
M  V30 4120 H 422.03 -3.70751 -0.399755 0
M  V30 4121 N 424.215 -0.530993 -1.48385 0
M  V30 4122 C 425.461 -0.00538653 -2.03399 0
M  V30 4123 C 425.816 1.31899 -1.40073 0
M  V30 4124 O 425.109 1.83901 -0.537676 0
M  V30 4125 C 425.303 0.172742 -3.56982 0
M  V30 4126 C 425.132 -1.13282 -4.35198 0
M  V30 4127 C 423.902 -1.69296 -4.76096 0
M  V30 4128 C 426.1 -2.04367 -4.71952 0
M  V30 4129 N 424.082 -2.9413 -5.38851 0
M  V30 4130 C 425.453 -3.13777 -5.34737 0
M  V30 4131 C 427.508 -2.04681 -4.53883 0
M  V30 4132 C 426.211 -4.23567 -5.81363 0
M  V30 4133 C 428.237 -3.13466 -5.01491 0
M  V30 4134 C 427.599 -4.21595 -5.64302 0
M  V30 4135 H 423.698 -0.0434945 -0.780789 0
M  V30 4136 H 426.282 -0.712495 -1.81195 0
M  V30 4137 H 424.453 0.848937 -3.79009 0
M  V30 4138 H 426.185 0.698046 -3.98634 0
M  V30 4139 H 422.94 -1.23422 -4.57235 0
M  V30 4140 H 423.364 -3.57689 -5.74794 0
M  V30 4141 H 428.006 -1.22378 -4.04702 0
M  V30 4142 H 425.724 -5.06648 -6.2955 0
M  V30 4143 H 429.31 -3.14765 -4.893 0
M  V30 4144 H 428.19 -5.04384 -6.00472 0
M  V30 4145 N 425.693 1.55336 -0.266172 0
M  V30 4146 C 426.933 2.01303 0.354459 0
M  V30 4147 C 427.297 1.15046 1.53715 0
M  V30 4148 O 428.498 1.50554 2.22681 0
M  V30 4149 C 426.769 3.49748 0.735579 0
M  V30 4150 S 428.328 4.1771 1.34401 0
M  V30 4151 H 425.146 0.702333 0.110674 0
M  V30 4152 H 427.748 1.91653 -0.385916 0
M  V30 4153 H 426.452 4.10181 -0.134196 0
M  V30 4154 H 425.983 3.63364 1.50764 0
M  V30 4155 H 427.998 4.20594 2.63278 0
M  V30 4156 N 427.171 -0.0066808 1.57599 0
M  V30 4157 C 428.118 -1.00024 2.08 0
M  V30 4158 C 429.088 -1.34549 0.973943 0
M  V30 4159 O 430.273 -1.44502 1.24595 0
M  V30 4160 C 427.413 -2.2891 2.58252 0
M  V30 4161 C 426.526 -2.00346 3.82734 0
M  V30 4162 C 425.661 -3.23265 4.21513 0
M  V30 4163 C 424.7 -2.90357 5.3885 0
M  V30 4164 N 423.837 -4.05793 5.72954 0
M  V30 4165 H 428.677 -0.563499 2.92624 0
M  V30 4166 H 426.214 -0.266592 1.44664 0
M  V30 4167 H 428.172 -3.04247 2.85464 0
M  V30 4168 H 426.802 -2.70265 1.76512 0
M  V30 4169 H 425.854 -1.15406 3.62471 0
M  V30 4170 H 427.166 -1.72086 4.68175 0
M  V30 4171 H 426.32 -4.06953 4.49971 0
M  V30 4172 H 425.059 -3.54657 3.34768 0
M  V30 4173 H 424.064 -2.05075 5.10122 0
M  V30 4174 H 425.289 -2.60219 6.27266 0
M  V30 4175 H 423.235 -4.37094 4.89167 0
M  V30 4176 H 423.152 -3.81034 6.52954 0
M  V30 4177 H 424.42 -4.90289 6.06001 0
M  V30 4178 N 428.649 -1.55105 -0.279332 0
M  V30 4179 C 429.581 -1.83952 -1.36727 0
M  V30 4180 C 430.594 -0.723642 -1.45833 0
M  V30 4181 O 431.783 -1.00141 -1.47763 0
M  V30 4182 C 428.883 -1.98183 -2.74912 0
M  V30 4183 C 428.056 -3.28787 -2.88475 0
M  V30 4184 C 427.115 -3.33162 -4.07295 0
M  V30 4185 O 426.141 -4.06576 -3.98353 0
M  V30 4186 N 427.343 -2.60109 -5.18964 0
M  V30 4187 H 430.108 -2.77853 -1.12328 0
M  V30 4188 H 427.669 -1.54945 -0.469442 0
M  V30 4189 H 429.661 -1.98488 -3.52682 0
M  V30 4190 H 428.231 -1.11177 -2.92162 0
M  V30 4191 H 427.451 -3.41075 -1.97641 0
M  V30 4192 H 428.739 -4.14933 -2.94463 0
M  V30 4193 H 428.137 -2.00136 -5.29115 0
M  V30 4194 H 426.694 -2.66143 -5.94988 0
M  V30 4195 N 430.127 0.543554 -1.4793 0
M  V30 4196 C 431.09 1.63156 -1.60975 0
M  V30 4197 C 432.09 1.53346 -0.483899 0
M  V30 4198 O 433.28 1.5726 -0.749339 0
M  V30 4199 C 430.412 3.02743 -1.56716 0
M  V30 4200 H 431.605 1.52934 -2.57975 0
M  V30 4201 H 429.158 0.764557 -1.36324 0
M  V30 4202 H 429.893 3.18484 -0.611418 0
M  V30 4203 H 429.678 3.11272 -2.38438 0
M  V30 4204 H 431.168 3.81871 -1.6901 0
M  V30 4205 N 431.605 1.3629 0.791371 0
M  V30 4206 C 432.852 1.30412 1.54916 0
M  V30 4207 C 433.18 -0.117162 1.94147 0
M  V30 4208 O 432.435 -1.08599 1.62803 0
M  V30 4209 C 432.734 2.17068 2.8393 0
M  V30 4210 C 432.4 3.65645 2.63846 0
M  V30 4211 C 431.062 4.0614 2.58077 0
M  V30 4212 C 433.414 4.59855 2.45322 0
M  V30 4213 C 430.742 5.3899 2.31748 0
M  V30 4214 C 433.094 5.9292 2.2052 0
M  V30 4215 C 431.758 6.32542 2.13183 0
M  V30 4216 H 431.028 0.47721 0.566879 0
M  V30 4217 H 433.675 1.68325 0.913172 0
M  V30 4218 H 431.98 1.72085 3.51986 0
M  V30 4219 H 433.677 2.09846 3.4171 0
M  V30 4220 H 430.267 3.33518 2.69191 0
M  V30 4221 H 434.451 4.29443 2.48782 0
M  V30 4222 H 429.707 5.68672 2.24548 0
M  V30 4223 H 433.881 6.65487 2.05182 0
M  V30 4224 H 431.508 7.35412 1.92544 0
M  V30 4225 N 433.083 -1.0153 1.20538 0
M  V30 4226 C 434.033 -2.08482 0.922991 0
M  V30 4227 C 435.017 -1.60469 -0.117702 0
M  V30 4228 O 436.209 -1.76772 0.0898465 0
M  V30 4229 C 433.338 -3.39952 0.478312 0
M  V30 4230 C 432.424 -3.94662 1.5525 0
M  V30 4231 N 432.815 -4.22866 2.77521 0
M  V30 4232 C 431.113 -4.22825 1.41897 0
M  V30 4233 C 431.814 -4.67002 3.4682 0
M  V30 4234 N 430.79 -4.69356 2.74237 0
M  V30 4235 H 434.592 -2.28199 1.85209 0
M  V30 4236 H 432.106 -1.19512 1.09957 0
M  V30 4237 H 434.103 -4.16105 0.257408 0
M  V30 4238 H 432.763 -3.21648 -0.444148 0
M  V30 4239 H 433.774 -4.11732 3.1416 0
M  V30 4240 H 430.451 -4.13714 0.561015 0
M  V30 4241 H 431.841 -4.97632 4.51455 0
M  V30 4242 N 434.561 -1.01147 -1.20859 0
M  V30 4243 C 435.509 -0.57059 -2.25493 0
M  V30 4244 C 436.503 0.388109 -1.64894 0
M  V30 4245 O 437.709 0.258592 -1.78133 0
M  V30 4246 H 434.084 -0.166191 -0.733406 0
M  V30 4247 H 436.055 -1.46411 -2.60012 0
M  V30 4248 C 434.804 0.0805241 -3.47607 0
M  V30 4249 H 434.127 -0.648156 -3.94511 0
M  V30 4250 H 435.567 0.352197 -4.22535 0
M  V30 4251 C 434.026 1.32175 -3.09889 0
M  V30 4252 O 434.556 2.41553 -3.20959 0
M  V30 4253 N 432.762 1.20392 -2.64488 0
M  V30 4254 H 432.309 0.313905 -2.5568 0
M  V30 4255 H 432.267 2.03541 -2.39621 0
M  V30 4256 N 436.039 1.36541 -0.78704 0
M  V30 4257 C 436.986 2.30082 -0.181901 0
M  V30 4258 C 437.956 1.5186 0.672896 0
M  V30 4259 O 439.141 1.80374 0.622072 0
M  V30 4260 C 436.281 3.3835 0.679197 0
M  V30 4261 C 435.394 4.31565 -0.193882 0
M  V30 4262 C 434.529 5.26915 0.673364 0
M  V30 4263 C 433.568 6.11769 -0.201315 0
M  V30 4264 N 432.705 6.99315 0.624777 0
M  V30 4265 H 437.545 2.81248 -0.985064 0
M  V30 4266 H 435.082 1.38437 -0.497342 0
M  V30 4267 H 437.04 3.99767 1.19341 0
M  V30 4268 H 435.67 2.8851 1.44781 0
M  V30 4269 H 434.722 3.71323 -0.826044 0
M  V30 4270 H 436.034 4.91191 -0.867937 0
M  V30 4271 H 435.188 5.9361 1.25348 0
M  V30 4272 H 433.927 4.67737 1.38105 0
M  V30 4273 H 432.932 5.44039 -0.793849 0
M  V30 4274 H 434.157 6.73022 -0.906568 0
M  V30 4275 H 432.103 6.42648 1.3168 0
M  V30 4276 H 432.02 7.56 0.00835237 0
M  V30 4277 H 433.288 7.70382 1.18879 0
M  V30 4278 N 437.518 0.538854 1.48102 0
M  V30 4279 C 438.764 0.00801365 2.02798 0
M  V30 4280 C 439.097 -1.3309 1.41424 0
M  V30 4281 O 438.372 -1.86169 0.563158 0
M  V30 4282 C 438.655 -0.104589 3.59948 0
M  V30 4283 C 438.508 1.26012 4.31788 0
M  V30 4284 C 439.827 -0.827055 4.32259 0
M  V30 4285 H 436.946 0.00438624 0.736987 0
M  V30 4286 H 439.588 0.6976 1.7673 0
M  V30 4287 H 437.738 -0.691893 3.82289 0
M  V30 4288 H 439.41 1.88922 4.2084 0
M  V30 4289 H 437.653 1.83968 3.92859 0
M  V30 4290 H 438.324 1.13424 5.40221 0
M  V30 4291 H 440.8 -0.328578 4.14801 0
M  V30 4292 H 439.676 -0.87476 5.41885 0
M  V30 4293 H 439.937 -1.87927 4.0017 0
M  V30 4294 N 438.996 -1.55193 0.274407 0
M  V30 4295 C 440.224 -2.03987 -0.345943 0
M  V30 4296 C 440.639 -1.15279 -1.4952 0
M  V30 4297 O 439.996 -0.172759 -1.8168 0
M  V30 4298 C 440.047 -3.51898 -0.827631 0
M  V30 4299 O 439.768 -4.37231 0.275855 0
M  V30 4300 C 441.269 -4.16577 -1.51587 0
M  V30 4301 H 438.489 -0.666335 -0.0789892 0
M  V30 4302 H 441.033 -2.00423 0.406294 0
M  V30 4303 H 439.188 -3.55909 -1.52996 0
M  V30 4304 H 439.602 -5.24415 -0.0943638 0
M  V30 4305 H 441.076 -5.21678 -1.80433 0
M  V30 4306 H 441.553 -3.64707 -2.44716 0
M  V30 4307 H 442.159 -4.16568 -0.857409 0
M  V30 4308 N 440.474 -0.00167713 -1.576 0
M  V30 4309 C 441.714 0.687302 -1.92498 0
M  V30 4310 C 442.078 1.70844 -0.876144 0
M  V30 4311 O 443.279 2.44792 -1.11043 0
M  V30 4312 C 441.55 1.31217 -3.32441 0
M  V30 4313 S 443.109 2.02604 -3.89226 0
M  V30 4314 H 439.927 0.226985 -0.673794 0
M  V30 4315 H 442.529 -0.0587666 -1.95412 0
M  V30 4316 H 441.233 0.556164 -4.06614 0
M  V30 4317 H 440.764 2.09613 -3.32905 0
M  V30 4318 H 442.779 3.30137 -3.70438 0
M  V30 4319 N 441.952 1.55251 0.271103 0
M  V30 4320 C 443.199 1.75946 1.00245 0
M  V30 4321 C 443.527 0.561611 1.86215 0
M  V30 4322 O 442.782 -0.455832 1.90317 0
M  V30 4323 C 443.081 3.01879 1.91321 0
M  V30 4324 C 442.747 4.34337 1.21086 0
M  V30 4325 C 441.409 4.70338 1.01666 0
M  V30 4326 C 443.761 5.16325 0.71119 0
M  V30 4327 C 441.089 5.8588 0.310099 0
M  V30 4328 C 443.441 6.32597 0.0182157 0
M  V30 4329 C 442.105 6.67236 -0.18768 0
M  V30 4330 H 441.375 0.643833 0.366824 0
M  V30 4331 H 444.022 1.89521 0.27458 0
M  V30 4332 H 442.327 2.83212 2.70736 0
M  V30 4333 H 444.024 3.15088 2.48033 0
M  V30 4334 H 440.614 4.06043 1.37213 0
M  V30 4335 H 444.798 4.88987 0.848844 0
M  V30 4336 H 440.054 6.1124 0.139873 0
M  V30 4337 H 444.228 6.9538 -0.376711 0
M  V30 4338 H 441.855 7.56618 -0.73715 0
M  V30 4339 N 443.43 -0.535701 1.48216 0
M  V30 4340 C 444.363 -1.65726 1.56876 0
M  V30 4341 C 445.341 -1.57094 0.419542 0
M  V30 4342 O 446.525 -1.77648 0.630352 0
M  V30 4343 C 443.652 -3.04096 1.49142 0
M  V30 4344 C 442.698 -3.31105 2.68834 0
M  V30 4345 S 443.531 -3.18001 4.30854 0
M  V30 4346 C 444.687 -4.58828 4.25709 0
M  V30 4347 H 444.92 -1.58129 2.51759 0
M  V30 4348 H 442.453 -0.718218 1.36678 0
M  V30 4349 H 444.411 -3.839 1.45366 0
M  V30 4350 H 443.072 -3.09139 0.556067 0
M  V30 4351 H 442.265 -4.32033 2.59545 0
M  V30 4352 H 441.867 -2.58961 2.69843 0
M  V30 4353 H 444.159 -5.5023 3.95289 0
M  V30 4354 H 445.102 -4.73172 5.26796 0
M  V30 4355 H 445.51 -4.37883 3.56257 0
M  V30 4356 N 444.908 -1.36708 -0.784132 0
M  V30 4357 C 445.838 -1.34153 -1.91116 0
M  V30 4358 C 446.819 -0.212121 -1.68772 0
M  V30 4359 O 448.004 -0.410581 -1.8981 0
M  V30 4360 C 445.134 -1.13535 -3.28218 0
M  V30 4361 C 444.088 -2.23356 -3.65097 0
M  V30 4362 C 443.414 -1.87875 -5.00607 0
M  V30 4363 C 444.714 -3.65473 -3.73131 0
M  V30 4364 H 446.408 -2.28459 -1.93512 0
M  V30 4365 H 443.954 -1.09973 -0.929618 0
M  V30 4366 H 445.907 -1.10381 -4.06687 0
M  V30 4367 H 444.631 -0.156804 -3.26223 0
M  V30 4368 H 443.29 -2.25645 -2.88929 0
M  V30 4369 H 442.938 -0.885814 -4.95139 0
M  V30 4370 H 442.638 -2.61406 -5.26252 0
M  V30 4371 H 444.162 -1.86286 -5.81489 0
M  V30 4372 H 445.576 -3.65382 -4.41779 0
M  V30 4373 H 443.973 -4.37953 -4.10265 0
M  V30 4374 H 445.043 -3.99995 -2.74102 0
M  V30 4375 N 446.386 1.0089 -1.21074 0
M  V30 4376 C 447.336 2.0799 -0.934034 0
M  V30 4377 C 448.32 1.60529 0.10919 0
M  V30 4378 O 449.512 1.76722 -0.0992198 0
M  V30 4379 C 446.641 3.39693 -0.496334 0
M  V30 4380 C 445.727 3.93833 -1.57341 0
M  V30 4381 N 446.118 4.21388 -2.7976 0
M  V30 4382 C 444.416 4.22067 -1.44137 0
M  V30 4383 C 445.117 4.65156 -3.49292 0
M  V30 4384 N 444.093 4.67895 -2.76722 0
M  V30 4385 H 447.895 2.27213 -1.86417 0
M  V30 4386 H 445.409 1.18927 -1.10589 0
M  V30 4387 H 447.406 4.15962 -0.279471 0
M  V30 4388 H 446.066 3.21879 0.427084 0
M  V30 4389 H 447.077 4.10061 -3.1634 0
M  V30 4390 H 443.754 4.1341 -0.582947 0
M  V30 4391 H 445.144 4.95231 -4.54088 0
M  V30 4392 N 447.864 1.01787 1.20321 0
M  V30 4393 C 448.814 0.559976 2.21016 0
M  V30 4394 C 449.798 -0.385366 1.56217 0
M  V30 4395 O 450.99 -0.208126 1.75772 0
M  V30 4396 C 448.119 -0.0990553 3.43157 0
M  V30 4397 C 447.205 0.86807 4.15121 0
M  V30 4398 N 447.596 2.0261 4.63447 0
M  V30 4399 C 445.894 0.689162 4.40643 0
M  V30 4400 C 446.595 2.63518 5.18588 0
M  V30 4401 N 445.571 1.91569 5.08726 0
M  V30 4402 H 449.373 1.44281 2.56048 0
M  V30 4403 H 446.887 0.883381 1.36272 0
M  V30 4404 H 448.884 -0.444643 4.14522 0
M  V30 4405 H 447.544 -0.977709 3.0963 0
M  V30 4406 H 448.555 2.40598 4.58621 0
M  V30 4407 H 445.232 -0.14133 4.17261 0
M  V30 4408 H 446.622 3.61527 5.66346 0
M  V30 4409 N 449.342 -1.36122 0.79427 0
M  V30 4410 C 450.591 -1.98361 0.365464 0
M  V30 4411 C 450.904 -1.6374 -1.06997 0
M  V30 4412 O 452.11 -2.19251 -1.60129 0
M  V30 4413 C 450.566 -3.54821 0.602496 0
M  V30 4414 C 450.174 -3.98362 2.04967 0
M  V30 4415 C 451.918 -4.2383 0.238437 0
M  V30 4416 C 449.825 -5.47619 2.2331 0
M  V30 4417 H 448.755 -0.742193 0.13291 0
M  V30 4418 H 451.406 -1.55354 0.976589 0
M  V30 4419 H 449.788 -3.95922 -0.078409 0
M  V30 4420 H 450.962 -3.68447 2.76737 0
M  V30 4421 H 449.277 -3.42206 2.37243 0
M  V30 4422 H 451.874 -5.33529 0.353705 0
M  V30 4423 H 452.217 -4.08264 -0.814006 0
M  V30 4424 H 452.75 -3.88108 0.872769 0
M  V30 4425 H 449.489 -5.68138 3.26955 0
M  V30 4426 H 449.009 -5.79145 1.5605 0
M  V30 4427 H 450.688 -6.13911 2.0426 0
M  V30 4428 N 450.82 -0.546701 -1.47814 0
M  V30 4429 C 451.73 0.21026 -2.33656 0
M  V30 4430 C 452.746 0.922413 -1.47538 0
M  V30 4431 O 453.922 0.893652 -1.80488 0
M  V30 4432 C 450.987 1.23348 -3.24016 0
M  V30 4433 C 450.048 0.529883 -4.26017 0
M  V30 4434 C 449.281 1.50435 -5.12059 0
M  V30 4435 O 449.504 2.73837 -5.00369 0
M  V30 4436 O 448.438 1.03459 -5.92942 0
M  V30 4437 H 452.264 -0.493605 -2.99662 0
M  V30 4438 H 449.849 -0.307427 -1.46203 0
M  V30 4439 H 451.731 1.82438 -3.79861 0
M  V30 4440 H 450.406 1.91945 -2.60651 0
M  V30 4441 H 449.313 -0.101948 -3.73961 0
M  V30 4442 H 450.646 -0.11445 -4.92067 0
M  V30 4443 N 452.299 1.55045 -0.282633 0
M  V30 4444 C 453.209 2.26491 0.61147 0
M  V30 4445 C 454.225 1.29348 1.16384 0
M  V30 4446 O 455.401 1.62298 1.19253 0
M  V30 4447 C 452.466 2.97779 1.77563 0
M  V30 4448 C 451.527 4.10418 1.25919 0
M  V30 4449 C 450.76 4.78297 2.36786 0
M  V30 4450 O 450.983 4.45426 3.56303 0
M  V30 4451 O 449.917 5.66089 2.04517 0
M  V30 4452 H 453.743 3.03683 0.0324615 0
M  V30 4453 H 451.328 1.49317 -0.0497576 0
M  V30 4454 H 453.21 3.42554 2.45427 0
M  V30 4455 H 451.885 2.23498 2.34159 0
M  V30 4456 H 450.792 3.70082 0.546797 0
M  V30 4457 H 452.125 4.86622 0.738887 0
M  V30 4458 N 453.777 0.010035 1.57597 0
M  V30 4459 C 455.188 -0.531426 1.78977 0
M  V30 4460 C 455.539 -1.73375 0.918454 0
M  V30 4461 O 454.664 -2.16047 0.123635 0
M  V30 4462 C 455.259 -0.97086 3.24592 0
M  V30 4463 C 453.818 -1.45756 3.47033 0
M  V30 4464 C 452.965 -0.413384 2.74201 0
M  V30 4465 H 455.916 0.236166 1.56933 0
M  V30 4466 H 455.937 -1.83633 3.33255 0
M  V30 4467 H 455.449 -0.0955893 3.87982 0
M  V30 4468 H 453.55 -2.35339 2.88871 0
M  V30 4469 H 453.663 -1.4781 4.55729 0
M  V30 4470 H 452.027 -0.877266 2.39115 0
M  V30 4471 H 452.81 0.453092 3.40297 0
M  V30 4472 N 455.255 -1.55392 -0.262866 0
M  V30 4473 C 456.495 -1.78231 -1.00064 0
M  V30 4474 C 456.859 -0.576966 -1.83126 0
M  V30 4475 O 458.06 -0.683809 -2.59957 0
M  V30 4476 C 456.331 -3.05701 -1.85153 0
M  V30 4477 S 457.89 -3.49699 -2.65058 0
M  V30 4478 H 454.708 -0.626138 -0.336856 0
M  V30 4479 H 457.31 -1.93626 -0.27005 0
M  V30 4480 H 456.014 -3.91511 -1.23074 0
M  V30 4481 H 455.545 -2.93 -2.62515 0
M  V30 4482 H 457.56 -3.09772 -3.87629 0
M  V30 4483 N 456.733 0.527833 -1.48498 0
M  V30 4484 C 457.958 1.313 -1.60546 0
M  V30 4485 C 458.383 1.86199 -0.26672 0
M  V30 4486 O 457.741 1.64513 0.761918 0
M  V30 4487 C 457.789 2.43818 -2.65678 0
M  V30 4488 O 456.893 3.46916 -2.22987 0
M  V30 4489 H 456.234 0.388784 -0.538277 0
M  V30 4490 H 458.764 0.634896 -1.945 0
M  V30 4491 H 458.774 2.89973 -2.87018 0
M  V30 4492 H 457.449 2.03222 -3.62869 0
M  V30 4493 H 456.026 3.06864 -2.11869 0
M  V30 4494 N 458.211 1.37122 0.776871 0
M  V30 4495 C 459.141 1.35164 1.90402 0
M  V30 4496 C 460.122 0.221069 1.68657 0
M  V30 4497 O 461.307 0.420642 1.8959 0
M  V30 4498 C 458.437 1.15274 3.27611 0
M  V30 4499 C 457.391 2.25289 3.63908 0
M  V30 4500 C 456.717 1.90527 4.99603 0
M  V30 4501 C 458.017 3.67446 3.71188 0
M  V30 4502 H 459.711 2.29482 1.92297 0
M  V30 4503 H 457.257 1.10465 0.923773 0
M  V30 4504 H 459.21 1.12536 4.06096 0
M  V30 4505 H 457.934 0.174102 3.26136 0
M  V30 4506 H 456.593 2.27174 2.87728 0
M  V30 4507 H 456.241 0.91206 4.94662 0
M  V30 4508 H 455.941 2.64193 5.24858 0
M  V30 4509 H 457.465 1.89367 5.80493 0
M  V30 4510 H 458.879 3.67719 4.39836 0
M  V30 4511 H 457.276 4.40123 4.07936 0
M  V30 4512 H 458.346 4.01443 2.71977 0
M  V30 4513 N 459.689 -1.00246 1.21608 0
M  V30 4514 C 460.937 -1.73717 1.0328 0
M  V30 4515 C 461.258 -1.90102 -0.434318 0
M  V30 4516 O 460.528 -1.45376 -1.31311 0
M  V30 4517 H 459.108 -0.643613 0.379172 0
M  V30 4518 H 461.77 -1.20787 1.52959 0
M  V30 4519 H 460.866 -2.73535 1.50283 0
M  V30 4520 N 461.167 -1.02423 -1.1978 0
M  V30 4521 C 462.13 -0.605703 -2.21052 0
M  V30 4522 C 463.13 0.328209 -1.57415 0
M  V30 4523 O 464.32 0.115853 -1.73814 0
M  V30 4524 C 461.452 0.114366 -3.40708 0
M  V30 4525 H 462.645 -1.5017 -2.59594 0
M  V30 4526 H 460.198 -0.814888 -1.33376 0
M  V30 4527 H 460.933 1.02492 -3.07678 0
M  V30 4528 H 460.718 -0.556641 -3.88129 0
M  V30 4529 H 462.208 0.394272 -4.15735 0
M  V30 4530 N 462.645 1.35699 -0.801477 0
M  V30 4531 C 463.595 2.2728 -0.181073 0
M  V30 4532 C 464.579 1.47533 0.642098 0
M  V30 4533 O 465.771 1.69785 0.500193 0
M  V30 4534 C 462.9 3.36626 0.673612 0
M  V30 4535 C 461.986 4.23802 -0.159008 0
M  V30 4536 N 462.377 4.90879 -1.2195 0
M  V30 4537 C 460.675 4.45959 0.0602005 0
M  V30 4538 C 461.376 5.5546 -1.72738 0
M  V30 4539 N 460.352 5.33663 -1.03465 0
M  V30 4540 H 464.154 2.76632 -0.992582 0
M  V30 4541 H 461.668 1.49166 -0.642127 0
M  V30 4542 H 463.665 4.01179 1.13408 0
M  V30 4543 H 462.325 2.88828 1.48353 0
M  V30 4544 H 463.336 4.92497 -1.60209 0
M  V30 4545 H 460.013 4.08969 0.839664 0
M  V30 4546 H 461.403 6.18991 -2.61342 0
M  V30 4547 N 464.123 0.554532 1.47522 0
M  V30 4548 C 465.086 -0.184174 2.28459 0
M  V30 4549 C 466.086 -0.845195 1.36796 0
M  V30 4550 O 467.276 -0.701467 1.59452 0
M  V30 4551 C 464.408 -1.26903 3.16399 0
M  V30 4552 H 465.601 0.526751 2.95238 0
M  V30 4553 H 463.154 0.311375 1.53167 0
M  V30 4554 H 463.889 -2.01244 2.54306 0
M  V30 4555 H 463.674 -0.799883 3.83854 0
M  V30 4556 H 465.164 -1.78794 3.77389 0
M  V30 4557 N 465.601 -1.54893 0.290851 0
M  V30 4558 C 466.564 -2.21824 -0.576784 0
M  V30 4559 C 467.564 -1.20104 -1.06919 0
M  V30 4560 O 468.754 -1.44906 -0.966843 0
M  V30 4561 C 465.886 -2.89662 -1.79747 0
M  V30 4562 H 467.079 -2.99899 0.00784051 0
M  V30 4563 H 464.632 -1.56245 0.0415934 0
M  V30 4564 H 465.367 -2.15639 -2.42219 0
M  V30 4565 H 465.152 -3.64219 -1.45214 0
M  V30 4566 H 466.642 -3.4075 -2.4141 0
M  V30 4567 N 467.08 -0.0183926 -1.57589 0
M  V30 4568 C 468.326 0.663543 -1.91638 0
M  V30 4569 C 468.659 1.72392 -0.894134 0
M  V30 4570 O 467.934 1.94316 0.0846449 0
M  V30 4571 C 468.217 1.28984 -3.36207 0
M  V30 4572 C 468.07 0.239761 -4.49161 0
M  V30 4573 C 469.389 2.2109 -3.80536 0
M  V30 4574 H 466.508 0.239746 -0.696915 0
M  V30 4575 H 469.15 -0.073456 -1.89858 0
M  V30 4576 H 467.3 1.91799 -3.37854 0
M  V30 4577 H 468.972 -0.390119 -4.59647 0
M  V30 4578 H 467.215 -0.435972 -4.31604 0
M  V30 4579 H 467.886 0.717383 -5.47319 0
M  V30 4580 H 470.362 1.68273 -3.80557 0
M  V30 4581 H 469.238 2.61869 -4.82406 0
M  V30 4582 H 469.499 3.09764 -3.15434 0
M  V30 4583 N 468.558 1.5553 0.254621 0
M  V30 4584 C 469.807 1.76202 0.981612 0
M  V30 4585 C 470.12 0.580883 1.86776 0
M  V30 4586 O 471.326 0.670448 2.63092 0
M  V30 4587 C 469.782 3.11921 1.79537 0
M  V30 4588 C 469.39 4.37659 0.956991 0
M  V30 4589 C 471.134 3.41936 2.51555 0
M  V30 4590 C 469.041 5.64411 1.76619 0
M  V30 4591 H 467.971 0.656841 0.370237 0
M  V30 4592 H 470.622 1.81969 0.236556 0
M  V30 4593 H 469.004 3.00241 2.58208 0
M  V30 4594 H 470.178 4.60307 0.21315 0
M  V30 4595 H 468.493 4.14922 0.350497 0
M  V30 4596 H 471.09 4.33849 3.12536 0
M  V30 4597 H 471.433 2.62905 3.22779 0
M  V30 4598 H 471.966 3.54797 1.799 0
M  V30 4599 H 468.705 6.46241 1.09783 0
M  V30 4600 H 468.225 5.45877 2.48551 0
M  V30 4601 H 469.904 6.03386 2.33527 0
M  V30 4602 N 470.036 -0.519951 1.48776 0
M  V30 4603 C 471.282 -1.27711 1.57536 0
M  V30 4604 C 471.615 -1.92547 0.252866 0
M  V30 4605 O 470.89 -1.7979 -0.742021 0
M  V30 4606 C 471.173 -2.35875 2.72094 0
M  V30 4607 C 471.026 -1.75664 4.1408 0
M  V30 4608 C 472.345 -3.37575 2.82367 0
M  V30 4609 H 469.464 -0.462971 0.573434 0
M  V30 4610 H 472.106 -0.578194 1.80989 0
M  V30 4611 H 470.256 -2.95488 2.52228 0
M  V30 4612 H 471.928 -1.20025 4.45412 0
M  V30 4613 H 470.171 -1.06154 4.20611 0
M  V30 4614 H 470.842 -2.54029 4.90075 0
M  V30 4615 H 473.318 -2.87929 3.00393 0
M  V30 4616 H 472.194 -4.1064 3.64233 0
M  V30 4617 H 472.455 -3.98743 1.90936 0
M  V30 4618 N 471.514 -1.37532 -0.769588 0
M  V30 4619 C 472.925 -1.29382 -1.346 0
M  V30 4620 C 473.276 0.0576039 -1.96115 0
M  V30 4621 O 472.401 0.95947 -1.93967 0
M  V30 4622 C 472.996 -2.34298 -2.44724 0
M  V30 4623 C 471.555 -2.29776 -2.98128 0
M  V30 4624 C 470.702 -2.18013 -1.71364 0
M  V30 4625 H 473.653 -1.48123 -0.56968 0
M  V30 4626 H 473.674 -1.99089 -3.24259 0
M  V30 4627 H 473.186 -3.32645 -1.99922 0
M  V30 4628 H 471.287 -1.34959 -3.47299 0
M  V30 4629 H 471.4 -3.23276 -3.53595 0
M  V30 4630 H 469.764 -1.64595 -1.94372 0
M  V30 4631 H 470.547 -3.18278 -1.28662 0
M  V30 4632 N 472.992 0.995999 -1.22138 0
M  V30 4633 C 474.403 1.54961 -1.04135 0
M  V30 4634 C 474.754 1.92159 0.396147 0
M  V30 4635 O 473.879 1.74435 1.28069 0
M  V30 4636 C 474.474 2.81581 -1.88408 0
M  V30 4637 C 473.033 3.33396 -1.74712 0
M  V30 4638 C 472.18 2.06509 -1.85066 0
M  V30 4639 H 475.131 0.817436 -1.36028 0
M  V30 4640 H 475.152 3.53822 -1.39966 0
M  V30 4641 H 474.664 2.54476 -2.93025 0
M  V30 4642 H 472.765 3.65416 -0.728159 0
M  V30 4643 H 472.878 4.04208 -2.57202 0
M  V30 4644 H 471.242 2.19925 -1.28472 0
M  V30 4645 H 472.025 1.81804 -2.91208 0
M  V30 4646 N 474.47 1.03057 1.19235 0
M  V30 4647 C 475.698 0.747697 1.92917 0
M  V30 4648 C 476.113 -0.69372 1.75593 0
M  V30 4649 O 475.47 -1.47191 1.07894 0
M  V30 4650 C 475.521 1.09159 3.44625 0
M  V30 4651 O 475.242 2.47641 3.61394 0
M  V30 4652 C 476.743 0.831763 4.35427 0
M  V30 4653 H 473.963 0.273453 0.612751 0
M  V30 4654 H 476.507 1.37552 1.51327 0
M  V30 4655 H 474.662 0.508919 3.84043 0
M  V30 4656 H 475.076 2.60499 4.55237 0
M  V30 4657 H 476.55 1.12233 5.4047 0
M  V30 4658 H 477.027 -0.233769 4.38577 0
M  V30 4659 H 477.633 1.39725 4.01693 0
M  V30 4660 N 475.948 -1.35272 0.808662 0
M  V30 4661 C 477.194 -1.99434 0.399717 0
M  V30 4662 C 477.549 -1.62992 -1.02232 0
M  V30 4663 O 476.842 -0.884091 -1.69983 0
M  V30 4664 C 477.036 -3.53556 0.522798 0
M  V30 4665 C 476.865 -4.04969 1.95525 0
M  V30 4666 C 475.635 -4.34228 2.58407 0
M  V30 4667 C 477.833 -4.23362 2.92009 0
M  V30 4668 N 475.815 -4.71585 3.93041 0
M  V30 4669 C 477.186 -4.63739 4.11517 0
M  V30 4670 C 479.241 -4.05576 2.88813 0
M  V30 4671 C 477.944 -4.88189 5.28265 0
M  V30 4672 C 479.97 -4.31184 4.04765 0
M  V30 4673 C 479.332 -4.71834 5.23022 0
M  V30 4674 H 475.431 -0.757534 0.19408 0
M  V30 4675 H 478.015 -1.63939 1.05034 0
M  V30 4676 H 476.186 -3.88277 -0.0978471 0
M  V30 4677 H 477.918 -4.04604 0.0882378 0
M  V30 4678 H 474.673 -4.24621 2.09747 0
M  V30 4679 H 475.097 -4.9452 4.62363 0
M  V30 4680 H 479.739 -3.73288 1.98535 0
M  V30 4681 H 477.457 -5.1935 6.19113 0
M  V30 4682 H 481.043 -4.18972 4.03675 0
M  V30 4683 H 479.923 -4.91263 6.11253 0
M  V30 4684 N 477.426 -0.562348 -1.47226 0
M  V30 4685 C 478.675 -0.038041 -2.01664 0
M  V30 4686 C 478.988 1.32199 -1.44162 0
M  V30 4687 O 480.194 1.9365 -1.90294 0
M  V30 4688 C 478.65 -0.0174958 -3.59896 0
M  V30 4689 C 478.258 -1.3746 -4.2639 0
M  V30 4690 C 480.002 0.453934 -4.22066 0
M  V30 4691 C 477.909 -1.31289 -5.76643 0
M  V30 4692 H 476.839 -0.0104511 -0.753928 0
M  V30 4693 H 479.49 -0.710966 -1.69167 0
M  V30 4694 H 477.872 0.721182 -3.89378 0
M  V30 4695 H 479.046 -2.1314 -4.08544 0
M  V30 4696 H 477.361 -1.78438 -3.7623 0
M  V30 4697 H 479.958 0.518584 -5.32179 0
M  V30 4698 H 480.301 1.46706 -3.89594 0
M  V30 4699 H 480.834 -0.230044 -3.97134 0
M  V30 4700 H 477.573 -2.30217 -6.13743 0
M  V30 4701 H 477.093 -0.597973 -5.96812 0
M  V30 4702 H 478.772 -1.01713 -6.38955 0
M  V30 4703 N 478.904 1.54736 -0.299062 0
M  V30 4704 C 480.153 1.99279 0.311549 0
M  V30 4705 C 480.466 1.19107 1.55154 0
M  V30 4706 O 481.672 1.53908 2.23662 0
M  V30 4707 C 480.128 3.54768 0.605632 0
M  V30 4708 C 479.736 4.43746 -0.615914 0
M  V30 4709 C 481.48 4.07841 1.17754 0
M  V30 4710 C 479.387 5.90663 -0.29509 0
M  V30 4711 H 478.317 0.744359 0.120187 0
M  V30 4712 H 480.968 1.78919 -0.407464 0
M  V30 4713 H 479.35 3.71021 1.38419 0
M  V30 4714 H 480.524 4.39267 -1.39218 0
M  V30 4715 H 478.839 4.01434 -1.10633 0
M  V30 4716 H 481.436 5.15174 1.43179 0
M  V30 4717 H 481.779 3.58324 2.11918 0
M  V30 4718 H 482.312 3.95123 0.460739 0
M  V30 4719 H 479.051 6.44325 -1.20524 0
M  V30 4720 H 478.571 5.98155 0.44394 0
M  V30 4721 H 480.25 6.46916 0.104048 0
M  V30 4722 N 480.382 0.0267497 1.57577 0
M  V30 4723 C 481.329 -0.955894 2.10075 0
M  V30 4724 C 482.299 -1.32453 1.00226 0
M  V30 4725 O 483.484 -1.41826 1.27632 0
M  V30 4726 C 480.624 -2.2338 2.6305 0
M  V30 4727 C 479.737 -1.92183 3.86898 0
M  V30 4728 C 478.872 -3.14251 4.28275 0
M  V30 4729 C 477.911 -2.78862 5.44888 0
M  V30 4730 N 477.048 -3.93548 5.81433 0
M  V30 4731 H 481.888 -0.501303 2.93753 0
M  V30 4732 H 479.425 -0.235847 1.45197 0
M  V30 4733 H 481.383 -2.98124 2.91853 0
M  V30 4734 H 480.013 -2.6646 1.82205 0
M  V30 4735 H 479.065 -1.07692 3.64838 0
M  V30 4736 H 480.377 -1.62117 4.7172 0
M  V30 4737 H 479.531 -3.97317 4.58502 0
M  V30 4738 H 478.27 -3.47476 3.42215 0
M  V30 4739 H 477.275 -1.94208 5.14357 0
M  V30 4740 H 478.5 -2.46855 6.32645 0
M  V30 4741 H 476.446 -4.2662 4.98328 0
M  V30 4742 H 476.363 -3.67098 6.6089 0
M  V30 4743 H 477.631 -4.77325 6.16264 0
M  V30 4744 N 481.861 -1.55662 -0.24637 0
M  V30 4745 C 483.107 -1.77782 -0.975779 0
M  V30 4746 C 483.44 -0.592103 -1.84953 0
M  V30 4747 O 482.715 0.409588 -1.90138 0
M  V30 4748 C 482.998 -3.09788 -1.83584 0
M  V30 4749 C 482.851 -4.38764 -0.990241 0
M  V30 4750 C 484.17 -3.38029 -2.81823 0
M  V30 4751 H 481.289 -0.646789 -0.353317 0
M  V30 4752 H 483.931 -1.88398 -0.246248 0
M  V30 4753 H 482.081 -3.00869 -2.45784 0
M  V30 4754 H 483.753 -4.59675 -0.386897 0
M  V30 4755 H 481.996 -4.32798 -0.294626 0
M  V30 4756 H 482.667 -5.27514 -1.62584 0
M  V30 4757 H 485.143 -3.46915 -2.2976 0
M  V30 4758 H 484.019 -4.3161 -3.39122 0
M  V30 4759 H 484.28 -2.58968 -3.58313 0
M  V30 4760 N 483.339 0.512053 -1.4905 0
M  V30 4761 C 484.286 1.6148 -1.64902 0
M  V30 4762 C 485.256 1.58687 -0.490673 0
M  V30 4763 O 486.441 1.76842 -0.71636 0
M  V30 4764 C 483.581 2.99676 -1.71139 0
M  V30 4765 C 482.694 3.12568 -2.98203 0
M  V30 4766 C 481.829 4.4143 -2.95487 0
M  V30 4767 C 480.868 4.47916 -4.17179 0
M  V30 4768 N 480.005 5.68191 -4.12437 0
M  V30 4769 H 484.845 1.47271 -2.59066 0
M  V30 4770 H 482.382 0.716713 -1.28459 0
M  V30 4771 H 484.34 3.79761 -1.72736 0
M  V30 4772 H 482.97 3.12614 -0.804508 0
M  V30 4773 H 482.022 2.25618 -3.06269 0
M  V30 4774 H 483.334 3.1322 -3.88194 0
M  V30 4775 H 482.488 5.29825 -2.95585 0
M  V30 4776 H 481.227 4.43326 -2.03256 0
M  V30 4777 H 480.232 3.57925 -4.17337 0
M  V30 4778 H 481.457 4.47744 -5.1059 0
M  V30 4779 H 479.403 5.7095 -3.23036 0
M  V30 4780 H 479.32 5.70413 -4.96151 0
M  V30 4781 H 480.588 6.58823 -4.16621 0
M  V30 4782 N 484.817 1.37938 0.762283 0
M  V30 4783 C 485.764 1.34467 1.87583 0
M  V30 4784 C 486.734 0.208633 1.64785 0
M  V30 4785 O 487.919 0.399494 1.86571 0
M  V30 4786 C 485.059 1.16692 3.24772 0
M  V30 4787 C 484.172 2.39608 3.59461 0
M  V30 4788 C 483.307 2.14631 4.85908 0
M  V30 4789 C 482.346 3.33364 5.13357 0
M  V30 4790 N 481.483 3.07877 6.30996 0
M  V30 4791 H 486.323 2.29669 1.89885 0
M  V30 4792 H 483.86 1.14116 0.928219 0
M  V30 4793 H 485.818 1.04405 4.03925 0
M  V30 4794 H 484.448 0.251333 3.2182 0
M  V30 4795 H 483.5 2.626 2.75219 0
M  V30 4796 H 484.812 3.28128 3.75678 0
M  V30 4797 H 483.966 1.99429 5.72986 0
M  V30 4798 H 482.705 1.23463 4.71814 0
M  V30 4799 H 481.71 3.49094 4.24751 0
M  V30 4800 H 482.935 4.25395 5.29354 0
M  V30 4801 H 480.881 2.19348 6.18241 0
M  V30 4802 H 480.798 3.89944 6.47673 0
M  V30 4803 H 482.066 2.96313 7.20985 0
M  V30 4804 N 486.295 -0.989507 1.22664 0
M  V30 4805 C 487.706 -1.54406 1.04955 0
M  V30 4806 C 488.057 -1.92366 -0.385951 0
M  V30 4807 O 487.182 -1.75111 -1.27142 0
M  V30 4808 C 487.777 -2.80578 1.89899 0
M  V30 4809 C 486.336 -3.32464 1.76478 0
M  V30 4810 C 485.483 -2.05524 1.86159 0
M  V30 4811 H 488.434 -0.810211 1.3646 0
M  V30 4812 H 488.455 -3.53075 1.4184 0
M  V30 4813 H 487.967 -2.52918 2.94371 0
M  V30 4814 H 486.068 -3.65024 0.747528 0
M  V30 4815 H 486.181 -4.02838 2.59342 0
M  V30 4816 H 484.545 -2.19241 1.29636 0
M  V30 4817 H 485.328 -1.80258 2.92168 0
M  V30 4818 N 487.773 -1.03688 -1.18687 0
M  V30 4819 C 488.705 -0.582696 -2.21669 0
M  V30 4820 C 489.718 0.345656 -1.59088 0
M  V30 4821 O 490.907 0.140776 -1.77944 0
M  V30 4822 C 488.007 0.169204 -3.38477 0
M  V30 4823 C 487.18 -0.766079 -4.30639 0
M  V30 4824 C 486.239 -0.0581541 -5.26168 0
M  V30 4825 O 485.265 -0.687346 -5.65035 0
M  V30 4826 N 486.467 1.20981 -5.67753 0
M  V30 4827 H 489.232 -1.46843 -2.61261 0
M  V30 4828 H 486.793 -0.916896 -1.33434 0
M  V30 4829 H 488.785 0.652543 -3.99405 0
M  V30 4830 H 487.355 0.956435 -2.97609 0
M  V30 4831 H 486.575 -1.42935 -3.67373 0
M  V30 4832 H 487.863 -1.40146 -4.89118 0
M  V30 4833 H 487.261 1.74159 -5.38224 0
M  V30 4834 H 485.818 1.6375 -6.30896 0
M  V30 4835 N 489.251 1.34841 -0.815825 0
M  V30 4836 C 490.199 2.31549 -0.220888 0
M  V30 4837 C 491.193 1.5707 0.634457 0
M  V30 4838 O 492.399 1.72125 0.526589 0
M  V30 4839 H 488.774 0.750153 -0.0526782 0
M  V30 4840 H 490.745 2.7926 -1.05149 0
M  V30 4841 C 489.494 3.42335 0.608427 0
M  V30 4842 H 488.817 3.9978 -0.0404121 0
M  V30 4843 H 490.257 4.12258 0.990931 0
M  V30 4844 C 488.716 2.86173 1.77782 0
M  V30 4845 O 489.246 2.80474 2.87571 0
M  V30 4846 N 487.452 2.43093 1.59229 0
M  V30 4847 H 486.999 2.47928 0.699237 0
M  V30 4848 H 486.957 2.05866 2.37627 0
M  V30 4849 N 490.729 0.570148 1.46925 0
M  V30 4850 C 491.954 0.0542592 2.07329 0
M  V30 4851 C 492.379 -1.23582 1.41806 0
M  V30 4852 O 491.737 -1.74341 0.497479 0
M  V30 4853 C 491.785 -0.111175 3.60429 0
M  V30 4854 O 490.889 -1.17071 3.95434 0
M  V30 4855 H 490.23 0.0571425 0.661537 0
M  V30 4856 H 492.76 0.789516 1.88753 0
M  V30 4857 H 492.77 -0.321315 4.06733 0
M  V30 4858 H 491.445 0.831012 4.07513 0
M  V30 4859 H 490.022 -0.940029 3.60857 0
M  V30 4860 N 492.207 -1.54576 0.307264 0
M  V30 4861 C 493.137 -2.26708 -0.55907 0
M  V30 4862 C 494.118 -1.26893 -1.1328 0
M  V30 4863 O 495.303 -1.55677 -1.16097 0
M  V30 4864 C 492.433 -3.01259 -1.72801 0
M  V30 4865 C 491.387 -4.08275 -1.28435 0
M  V30 4866 C 490.713 -4.70575 -2.53895 0
M  V30 4867 C 492.013 -5.2068 -0.411038 0
M  V30 4868 H 493.707 -2.9937 0.042576 0
M  V30 4869 H 491.253 -1.43983 0.0219173 0
M  V30 4870 H 493.206 -3.50444 -2.34023 0
M  V30 4871 H 491.93 -2.26187 -2.356 0
M  V30 4872 H 490.589 -3.59949 -0.695161 0
M  V30 4873 H 490.237 -3.92136 -3.15021 0
M  V30 4874 H 489.937 -5.42854 -2.24908 0
M  V30 4875 H 491.461 -5.22527 -3.15908 0
M  V30 4876 H 492.875 -5.65721 -0.929097 0
M  V30 4877 H 491.272 -5.99716 -0.214664 0
M  V30 4878 H 492.342 -4.81629 0.562287 0
M  V30 4879 N 493.685 -0.035106 -1.57561 0
M  V30 4880 C 494.632 0.94474 -2.10578 0
M  V30 4881 C 495.602 1.3192 -1.00927 0
M  V30 4882 O 496.787 1.41147 -1.28382 0
M  V30 4883 C 493.927 2.21982 -2.64231 0
M  V30 4884 C 493.04 1.90128 -3.87911 0
M  V30 4885 C 492.175 3.11975 -4.29936 0
M  V30 4886 C 491.214 2.75968 -5.46359 0
M  V30 4887 N 490.351 3.90459 -5.83512 0
M  V30 4888 H 495.191 0.485717 -2.94015 0
M  V30 4889 H 492.728 0.228143 -1.4532 0
M  V30 4890 H 494.686 2.96572 -2.9343 0
M  V30 4891 H 493.316 2.6549 -1.83616 0
M  V30 4892 H 492.368 1.05755 -3.65404 0
M  V30 4893 H 493.68 1.59613 -4.72573 0
M  V30 4894 H 492.834 3.9488 -4.60603 0
M  V30 4895 H 491.573 3.45657 -3.44053 0
M  V30 4896 H 490.578 1.91478 -5.1538 0
M  V30 4897 H 491.803 2.43497 -6.33945 0
M  V30 4898 H 489.749 4.23971 -5.00584 0
M  V30 4899 H 489.666 3.63588 -6.62827 0
M  V30 4900 H 490.934 4.7405 -6.18787 0
M  V30 4901 N 495.163 1.55791 0.238111 0
M  V30 4902 C 496.126 1.90239 1.27835 0
M  V30 4903 C 497.126 0.779552 1.4064 0
M  V30 4904 O 498.316 1.04747 1.3919 0
M  V30 4905 C 495.448 2.13859 2.65475 0
M  V30 4906 H 496.641 2.83262 0.985034 0
M  V30 4907 H 494.194 1.48818 0.477799 0
M  V30 4908 H 494.929 1.23334 2.99932 0
M  V30 4909 H 494.714 2.95643 2.57561 0
M  V30 4910 H 496.204 2.41664 3.40571 0
M  V30 4911 N 496.642 -0.504142 1.49319 0
M  V30 4912 C 497.867 -1.28729 1.62615 0
M  V30 4913 C 498.292 -1.85752 0.296309 0
M  V30 4914 O 497.65 -1.65704 -0.735649 0
M  V30 4915 C 497.698 -2.39561 2.69524 0
M  V30 4916 O 496.802 -3.43324 2.28478 0
M  V30 4917 H 496.143 -0.380172 0.544395 0
M  V30 4918 H 498.673 -0.603872 1.95485 0
M  V30 4919 H 498.683 -2.8537 2.91595 0
M  V30 4920 H 497.358 -1.97423 3.66056 0
M  V30 4921 H 495.935 -3.03455 2.16725 0
M  V30 4922 N 498.12 -1.38341 -0.754957 0
M  V30 4923 C 499.068 -1.35573 -1.89005 0
M  V30 4924 C 500.062 -0.241824 -1.67665 0
M  V30 4925 O 501.268 -0.410785 -1.7525 0
M  V30 4926 H 497.643 -0.422898 -0.621821 0
M  V30 4927 H 499.614 -2.31359 -1.88455 0
M  V30 4928 C 498.363 -1.19631 -3.26471 0
M  V30 4929 H 497.686 -2.04605 -3.43477 0
M  V30 4930 H 499.126 -1.21748 -4.06144 0
M  V30 4931 C 497.585 0.0968705 -3.36761 0
M  V30 4932 O 498.115 1.07439 -3.87066 0
M  V30 4933 N 496.321 0.153242 -2.90196 0
M  V30 4934 H 495.868 -0.642908 -2.49448 0
M  V30 4935 H 495.826 1.01807 -2.9746 0
M  V30 4936 N 499.598 0.982988 -1.23187 0
M  V30 4937 C 501.014 1.2487 -0.993967 0
M  V30 4938 C 501.214 1.99155 0.306498 0
M  V30 4939 O 500.27 2.30688 1.0266 0
M  V30 4940 C 501.583 2.05078 -2.19917 0
M  V30 4941 C 503.131 2.18227 -2.2438 0
M  V30 4942 C 503.606 3.01825 -3.44479 0
M  V30 4943 N 505.097 3.09411 -3.44702 0
M  V30 4944 C 505.832 3.74412 -4.34285 0
M  V30 4945 N 505.328 4.41259 -5.341 0
M  V30 4946 N 507.121 3.71273 -4.22035 0
M  V30 4947 H 499.272 0.485253 -2.06783 0
M  V30 4948 H 501.535 0.276979 -0.906635 0
M  V30 4949 H 501.241 1.57867 -3.14279 0
M  V30 4950 H 501.115 3.05829 -2.2079 0
M  V30 4951 H 503.502 2.64648 -1.30559 0
M  V30 4952 H 503.583 1.16873 -2.2754 0
M  V30 4953 H 503.227 2.56102 -4.38605 0
M  V30 4954 H 503.157 4.03342 -3.38559 0
M  V30 4955 H 505.648 2.61845 -2.7248 0
M  V30 4956 H 505.961 4.88629 -5.98717 0
M  V30 4957 H 504.306 4.39975 -5.38002 0
M  V30 4958 H 507.497 3.18217 -3.43301 0
M  V30 4959 H 507.67 4.21649 -4.92053 0
M  V30 4960 N 501.076 1.04316 1.18135 0
M  V30 4961 C 502.023 0.636398 2.21853 0
M  V30 4962 C 502.993 -0.357039 1.62217 0
M  V30 4963 O 504.178 -0.250453 1.89149 0
M  V30 4964 C 501.318 0.00812779 3.45099 0
M  V30 4965 C 500.431 1.04933 4.19062 0
M  V30 4966 C 499.566 0.389313 5.29771 0
M  V30 4967 C 498.605 1.41544 5.9551 0
M  V30 4968 N 497.742 0.78021 6.97751 0
M  V30 4969 H 502.582 1.52536 2.56002 0
M  V30 4970 H 500.119 0.76304 1.25762 0
M  V30 4971 H 502.077 -0.373497 4.15525 0
M  V30 4972 H 500.707 -0.844336 3.11562 0
M  V30 4973 H 499.759 1.54888 3.47439 0
M  V30 4974 H 501.071 1.82862 4.64072 0
M  V30 4975 H 500.225 -0.0463805 6.06682 0
M  V30 4976 H 498.964 -0.422038 4.8587 0
M  V30 4977 H 497.969 1.86124 5.17337 0
M  V30 4978 H 499.194 2.22854 6.41493 0
M  V30 4979 H 497.14 -0.0107899 6.55999 0
M  V30 4980 H 497.057 1.49716 7.41027 0
M  V30 4981 H 498.325 0.368996 7.78626 0
M  V30 4982 N 502.554 -1.34406 0.822964 0
M  V30 4983 C 503.501 -2.29519 0.24284 0
M  V30 4984 C 504.471 -1.5359 -0.632397 0
M  V30 4985 O 505.656 -1.8196 -0.57403 0
M  V30 4986 C 502.796 -3.40032 -0.58925 0
M  V30 4987 C 501.909 -4.30899 0.308236 0
M  V30 4988 C 501.044 -5.28515 -0.533425 0
M  V30 4989 C 500.083 -6.1102 0.363444 0
M  V30 4990 N 499.22 -7.00725 -0.439147 0
M  V30 4991 H 504.06 -2.78537 1.05929 0
M  V30 4992 H 501.597 -1.3707 0.533872 0
M  V30 4993 H 503.555 -4.0279 -1.087 0
M  V30 4994 H 502.185 -2.92248 -1.37081 0
M  V30 4995 H 501.237 -3.69002 0.924203 0
M  V30 4996 H 502.549 -4.88717 0.997862 0
M  V30 4997 H 501.703 -5.96725 -1.09565 0
M  V30 4998 H 500.442 -4.71235 -1.25656 0
M  V30 4999 H 499.447 -5.41743 0.937812 0
M  V30 5000 H 500.672 -6.70381 1.08469 0
M  V30 5001 H 498.618 -6.45913 -1.14595 0
M  V30 5002 H 498.535 -7.55756 0.19209 0
M  V30 5003 H 499.803 -7.73263 -0.984124 0
M  V30 5004 N 504.032 -0.577932 -1.46621 0
M  V30 5005 C 504.979 0.158048 -2.30258 0
M  V30 5006 C 505.949 0.888669 -1.40328 0
M  V30 5007 O 507.134 0.880283 -1.6928 0
M  V30 5008 C 504.274 1.16884 -3.24703 0
M  V30 5009 C 503.387 0.442163 -4.29731 0
M  V30 5010 C 502.522 1.44007 -5.11308 0
M  V30 5011 C 501.561 0.69952 -6.0809 0
M  V30 5012 N 500.698 1.64525 -6.82551 0
M  V30 5013 H 505.538 -0.561242 -2.92667 0
M  V30 5014 H 503.075 -0.288591 -1.44241 0
M  V30 5015 H 505.033 1.7677 -3.779 0
M  V30 5016 H 503.663 1.85591 -2.64113 0
M  V30 5017 H 502.715 -0.271632 -3.79429 0
M  V30 5018 H 504.027 -0.136992 -4.98612 0
M  V30 5019 H 503.181 2.11186 -5.68758 0
M  V30 5020 H 501.92 2.05315 -4.42377 0
M  V30 5021 H 500.925 0.0139217 -5.49798 0
M  V30 5022 H 502.15 0.091894 -6.79038 0
M  V30 5023 H 500.096 2.24653 -6.16334 0
M  V30 5024 H 500.013 1.11878 -7.47676 0
M  V30 5025 H 501.281 2.30754 -7.44562 0
M  V30 5026 N 505.51 1.54411 -0.315457 0
M  V30 5027 C 506.926 1.59556 0.037464 0
M  V30 5028 C 507.126 1.33217 1.5118 0
M  V30 5029 O 506.182 1.11264 2.26664 0
M  V30 5030 C 507.495 2.98372 -0.373477 0
M  V30 5031 C 509.043 3.11324 -0.323452 0
M  V30 5032 C 509.518 4.52472 -0.709433 0
M  V30 5033 N 511.009 4.58437 -0.662524 0
M  V30 5034 C 511.744 5.65751 -0.933474 0
M  V30 5035 N 511.24 6.81039 -1.27114 0
M  V30 5036 N 513.033 5.55489 -0.859573 0
M  V30 5037 H 505.184 1.6979 -1.27614 0
M  V30 5038 H 507.447 0.793732 -0.518356 0
M  V30 5039 H 507.153 3.22618 -1.40037 0
M  V30 5040 H 507.027 3.76264 0.265615 0
M  V30 5041 H 509.414 2.86818 0.694223 0
M  V30 5042 H 509.495 2.35555 -0.997367 0
M  V30 5043 H 509.139 4.7771 -1.72498 0
M  V30 5044 H 509.069 5.26598 -0.0132923 0
M  V30 5045 H 511.56 3.75636 -0.413065 0
M  V30 5046 H 511.873 7.58816 -1.46348 0
M  V30 5047 H 510.218 6.82555 -1.30932 0
M  V30 5048 H 513.409 4.64299 -0.595324 0
M  V30 5049 H 513.582 6.39036 -1.0741 0
M  V30 5050 N 506.988 0.0434614 1.5754 0
M  V30 5051 C 508.216 -0.641835 1.96693 0
M  V30 5052 C 508.631 -1.64832 0.920652 0
M  V30 5053 O 507.988 -1.82247 -0.095993 0
M  V30 5054 C 508.039 -1.33557 3.35924 0
M  V30 5055 O 507.76 -0.369403 4.3654 0
M  V30 5056 C 509.261 -2.11135 3.89791 0
M  V30 5057 H 506.481 -0.176013 0.647503 0
M  V30 5058 H 509.025 0.107478 2.04217 0
M  V30 5059 H 507.18 -2.03617 3.29574 0
M  V30 5060 H 507.594 -0.863674 5.1734 0
M  V30 5061 H 509.068 -2.55107 4.89514 0
M  V30 5062 H 509.545 -2.95634 3.24803 0
M  V30 5063 H 510.151 -1.46002 3.99454 0
M  V30 5064 N 508.466 -1.55915 -0.229846 0
M  V30 5065 C 509.691 -1.8296 -0.976743 0
M  V30 5066 C 510.116 -0.622735 -1.77493 0
M  V30 5067 O 509.474 0.428431 -1.76165 0
M  V30 5068 C 509.522 -3.07916 -1.8767 0
M  V30 5069 O 508.626 -2.86028 -2.97088 0
M  V30 5070 H 507.967 -0.603453 -0.277021 0
M  V30 5071 H 510.497 -2.0312 -0.245669 0
M  V30 5072 H 510.507 -3.37802 -2.2881 0
M  V30 5073 H 509.182 -3.95389 -1.28996 0
M  V30 5074 H 507.759 -2.67355 -2.59954 0
M  V30 5075 N 509.944 0.496216 -1.49584 0
M  V30 5076 C 511.191 1.25003 -1.59312 0
M  V30 5077 C 511.519 1.92445 -0.28198 0
M  V30 5078 O 510.774 1.81557 0.730452 0
M  V30 5079 C 511.073 2.3359 -2.705 0
M  V30 5080 C 510.739 1.83574 -4.11839 0
M  V30 5081 C 509.401 1.69653 -4.50302 0
M  V30 5082 C 511.753 1.46193 -5.00277 0
M  V30 5083 C 509.081 1.16736 -5.74969 0
M  V30 5084 C 511.433 0.947265 -6.25468 0
M  V30 5085 C 510.097 0.794485 -6.62755 0
M  V30 5086 H 509.367 0.45742 -0.582965 0
M  V30 5087 H 512.014 0.549996 -1.83432 0
M  V30 5088 H 510.319 3.09401 -2.40371 0
M  V30 5089 H 512.016 2.91627 -2.75235 0
M  V30 5090 H 508.606 1.9537 -3.81482 0
M  V30 5091 H 512.79 1.55793 -4.71214 0
M  V30 5092 H 508.046 1.03623 -6.02555 0
M  V30 5093 H 512.22 0.648846 -6.93371 0
M  V30 5094 H 509.847 0.382271 -7.59238 0
M  V30 5095 N 511.423 1.38739 0.74761 0
M  V30 5096 C 512.37 1.36449 1.86146 0
M  V30 5097 C 513.34 0.226098 1.64554 0
M  V30 5098 O 514.525 0.41926 1.86137 0
M  V30 5099 C 511.665 1.2013 3.23516 0
M  V30 5100 C 510.778 2.43407 3.56899 0
M  V30 5101 C 509.913 2.19773 4.83605 0
M  V30 5102 C 508.952 3.3879 5.09792 0
M  V30 5103 N 508.089 3.14553 6.27695 0
M  V30 5104 H 512.929 2.3167 1.87438 0
M  V30 5105 H 510.466 1.15094 0.916063 0
M  V30 5106 H 512.424 1.08683 4.02795 0
M  V30 5107 H 511.054 0.285453 3.21535 0
M  V30 5108 H 510.106 2.65504 2.72418 0
M  V30 5109 H 511.418 3.32094 3.72176 0
M  V30 5110 H 510.572 2.05496 5.70838 0
M  V30 5111 H 509.311 1.28461 4.70478 0
M  V30 5112 H 508.316 3.53579 4.21025 0
M  V30 5113 H 509.541 4.30986 5.24812 0
M  V30 5114 H 507.487 2.25893 6.1588 0
M  V30 5115 H 507.404 3.96791 6.435 0
M  V30 5116 H 508.672 3.03943 7.17801 0
M  V30 5117 N 512.901 -0.976442 1.23707 0
M  V30 5118 C 514.317 -1.24341 1.00058 0
M  V30 5119 C 514.517 -1.99315 -0.295932 0
M  V30 5120 O 513.573 -2.3123 -1.01435 0
M  V30 5121 C 514.886 -2.03909 2.21001 0
M  V30 5122 C 516.434 -2.17034 2.25534 0
M  V30 5123 C 516.909 -2.99994 3.46075 0
M  V30 5124 N 518.4 -3.07578 3.46338 0
M  V30 5125 C 519.135 -3.72104 4.36264 0
M  V30 5126 N 518.631 -4.3842 5.36432 0
M  V30 5127 N 520.424 -3.69029 4.23998 0
M  V30 5128 H 512.575 -0.47428 2.07037 0
M  V30 5129 H 514.838 -0.272167 0.908091 0
M  V30 5130 H 514.544 -1.56198 3.15111 0
M  V30 5131 H 514.418 -3.04654 2.22409 0
M  V30 5132 H 516.805 -2.63951 1.31961 0
M  V30 5133 H 516.886 -1.15664 2.28156 0
M  V30 5134 H 516.53 -2.53772 4.39957 0
M  V30 5135 H 516.46 -4.01541 3.40694 0
M  V30 5136 H 518.951 -2.60397 2.73865 0
M  V30 5137 H 519.264 -4.85447 6.013 0
M  V30 5138 H 517.609 -4.37116 5.40328 0
M  V30 5139 H 520.8 -3.16392 3.44984 0
M  V30 5140 H 520.973 -4.19034 4.94282 0
M  V30 5141 N 514.379 -1.04941 -1.1758 0
M  V30 5142 C 515.326 -0.648155 -2.21512 0
M  V30 5143 C 516.296 0.348431 -1.62404 0
M  V30 5144 O 517.481 0.240419 -1.89279 0
M  V30 5145 C 514.621 -0.0264291 -3.4509 0
M  V30 5146 C 513.734 -1.07154 -4.185 0
M  V30 5147 C 512.869 -0.417403 -5.29558 0
M  V30 5148 C 511.908 -1.447 -5.94751 0
M  V30 5149 N 511.045 -0.817203 -6.97328 0
M  V30 5150 H 515.885 -1.53891 -2.55189 0
M  V30 5151 H 513.422 -0.769699 -1.25356 0
M  V30 5152 H 515.38 0.351456 -4.15717 0
M  V30 5153 H 514.01 0.827802 -3.12005 0
M  V30 5154 H 513.062 -1.56728 -3.46613 0
M  V30 5155 H 514.374 -1.8532 -4.63096 0
M  V30 5156 H 513.528 0.0142061 -6.06698 0
M  V30 5157 H 512.267 0.396265 -4.86087 0
M  V30 5158 H 511.272 -1.88865 -5.16343 0
M  V30 5159 H 512.497 -2.26252 -6.40302 0
M  V30 5160 H 510.443 -0.0239995 -6.55996 0
M  V30 5161 H 510.36 -1.53644 -7.40223 0
M  V30 5162 H 511.628 -0.410283 -7.7842 0
M  V30 5163 N 515.857 1.33968 -0.830081 0
M  V30 5164 C 516.82 2.27694 -0.26235 0
M  V30 5165 C 517.82 1.50589 0.563876 0
M  V30 5166 O 519.01 1.70028 0.378941 0
M  V30 5167 C 516.142 3.35002 0.63138 0
M  V30 5168 H 517.335 2.79419 -1.08928 0
M  V30 5169 H 514.888 1.44221 -0.602486 0
M  V30 5170 H 515.623 2.88504 1.48109 0
M  V30 5171 H 515.408 3.92079 0.0403276 0
M  V30 5172 H 516.898 4.04897 1.02217 0
M  V30 5173 N 517.335 0.585699 1.46312 0
M  V30 5174 C 518.56 0.0762461 2.0726 0
M  V30 5175 C 518.985 -1.22071 1.43109 0
M  V30 5176 O 518.343 -1.73804 0.515942 0
M  V30 5177 C 518.391 -0.0729404 3.60526 0
M  V30 5178 O 517.495 -1.1287 3.96654 0
M  V30 5179 H 516.836 0.0641558 0.660893 0
M  V30 5180 H 519.366 0.809492 1.87905 0
M  V30 5181 H 519.376 -0.278158 4.07051 0
M  V30 5182 H 518.051 0.874188 4.06609 0
M  V30 5183 H 516.628 -0.901703 3.61834 0
M  V30 5184 N 518.813 -1.54241 0.323641 0
M  V30 5185 C 519.76 -2.24339 -0.542277 0
M  V30 5186 C 520.73 -1.23421 -1.11159 0
M  V30 5187 O 521.915 -1.52104 -1.15192 0
M  V30 5188 C 519.055 -3.00479 -1.69725 0
M  V30 5189 C 518.168 -4.16214 -1.15716 0
M  V30 5190 C 517.303 -4.79884 -2.27783 0
M  V30 5191 C 516.342 -5.87722 -1.71023 0
M  V30 5192 N 515.479 -6.45254 -2.76752 0
M  V30 5193 H 520.319 -2.97935 0.0620613 0
M  V30 5194 H 517.856 -1.47039 0.0423993 0
M  V30 5195 H 519.814 -3.42869 -2.3769 0
M  V30 5196 H 518.444 -2.29217 -2.27288 0
M  V30 5197 H 517.496 -3.78605 -0.369063 0
M  V30 5198 H 518.808 -4.93838 -0.701832 0
M  V30 5199 H 517.962 -5.25243 -3.03651 0
M  V30 5200 H 516.701 -4.01641 -2.76652 0
M  V30 5201 H 515.706 -5.41765 -0.936518 0
M  V30 5202 H 516.931 -6.67863 -1.2303 0
M  V30 5203 H 514.877 -5.69884 -3.24912 0
M  V30 5204 H 514.794 -7.18292 -2.35782 0
M  V30 5205 H 516.062 -6.95269 -3.5245 0
M  V30 5206 N 520.291 -0.0518155 -1.57515 0
M  V30 5207 C 521.707 0.304735 -1.56664 0
M  V30 5208 C 521.907 1.71395 -1.05953 0
M  V30 5209 O 520.963 2.42123 -0.716414 0
M  V30 5210 C 522.276 0.132614 -3.00407 0
M  V30 5211 C 523.824 0.20367 -3.12337 0
M  V30 5212 C 524.299 0.0600706 -4.57961 0
M  V30 5213 N 525.79 0.116326 -4.63054 0
M  V30 5214 C 526.525 0.0293363 -5.73392 0
M  V30 5215 N 526.021 -0.110038 -6.92713 0
M  V30 5216 N 527.814 0.0849651 -5.62036 0
M  V30 5217 H 519.965 -0.973056 -1.888 0
M  V30 5218 H 522.228 -0.377781 -0.869474 0
M  V30 5219 H 521.934 -0.839019 -3.41546 0
M  V30 5220 H 521.808 0.893376 -3.66468 0
M  V30 5221 H 524.195 1.16578 -2.71097 0
M  V30 5222 H 524.276 -0.587857 -2.48954 0
M  V30 5223 H 523.92 -0.898715 -4.99886 0
M  V30 5224 H 523.85 0.87075 -5.19351 0
M  V30 5225 H 526.341 0.22327 -3.7724 0
M  V30 5226 H 526.654 -0.169104 -7.72615 0
M  V30 5227 H 524.999 -0.145132 -6.94848 0
M  V30 5228 H 528.19 0.192411 -4.67704 0
M  V30 5229 H 528.363 0.0137131 -6.47999 0
M  V30 5230 N 521.769 1.56035 0.221574 0
M  V30 5231 C 523.017 1.78693 0.944102 0
M  V30 5232 C 523.338 0.620317 1.8487 0
M  V30 5233 O 522.608 -0.362784 1.92512 0
M  V30 5234 H 521.188 0.659082 0.351597 0
M  V30 5235 H 523.85 1.93497 0.233435 0
M  V30 5236 H 522.946 2.70837 1.55093 0
M  V30 5237 N 523.247 -0.488276 1.49845 0
M  V30 5238 C 524.18 -1.60651 1.62069 0
M  V30 5239 C 525.158 -1.5568 0.469308 0
M  V30 5240 O 526.342 -1.75553 0.686551 0
M  V30 5241 C 523.469 -2.99197 1.58741 0
M  V30 5242 C 522.515 -3.22385 2.79232 0
M  V30 5243 S 523.348 -3.04133 4.40753 0
M  V30 5244 C 524.504 -4.45052 4.4009 0
M  V30 5245 H 524.737 -1.50039 2.56662 0
M  V30 5246 H 522.27 -0.674371 1.38894 0
M  V30 5247 H 524.228 -3.79081 1.57506 0
M  V30 5248 H 522.889 -3.07213 0.654136 0
M  V30 5249 H 522.082 -4.23557 2.73159 0
M  V30 5250 H 521.684 -2.50245 2.77945 0
M  V30 5251 H 523.976 -5.37375 4.12594 0
M  V30 5252 H 524.919 -4.56172 5.41583 0
M  V30 5253 H 525.327 -4.26327 3.70008 0
M  V30 5254 N 524.725 -1.39134 -0.740242 0
M  V30 5255 C 525.635 -1.39697 -1.88473 0
M  V30 5256 C 526.651 -0.292403 -1.71526 0
M  V30 5257 O 527.827 -0.533021 -1.94219 0
M  V30 5258 C 524.892 -1.23382 -3.24003 0
M  V30 5259 C 523.953 -2.43763 -3.53381 0
M  V30 5260 C 523.186 -2.28216 -4.82445 0
M  V30 5261 O 523.409 -1.28288 -5.55786 0
M  V30 5262 O 522.343 -3.1709 -5.11603 0
M  V30 5263 H 526.169 -2.36159 -1.90952 0
M  V30 5264 H 523.754 -1.20194 -0.887346 0
M  V30 5265 H 525.636 -1.16395 -4.05006 0
M  V30 5266 H 524.311 -0.300121 -3.22306 0
M  V30 5267 H 523.218 -2.56325 -2.72485 0
M  V30 5268 H 524.551 -3.35808 -3.59852 0
M  V30 5269 N 526.204 0.969867 -1.24223 0
M  V30 5270 C 527.136 2.0669 -0.99055 0
M  V30 5271 C 528.149 1.62753 0.0392222 0
M  V30 5272 O 529.338 1.77403 -0.197561 0
M  V30 5273 C 526.438 3.35589 -0.472594 0
M  V30 5274 C 525.611 4.08444 -1.56499 0
M  V30 5275 C 524.67 5.15616 -1.05007 0
M  V30 5276 O 523.696 5.41911 -1.7413 0
M  V30 5277 N 524.898 5.80383 0.116641 0
M  V30 5278 H 527.663 2.28855 -1.93508 0
M  V30 5279 H 525.224 1.13733 -1.15223 0
M  V30 5280 H 527.216 4.04542 -0.112919 0
M  V30 5281 H 525.786 3.10311 0.377617 0
M  V30 5282 H 525.006 3.33798 -2.09696 0
M  V30 5283 H 526.294 4.53882 -2.29932 0
M  V30 5284 H 525.692 5.6142 0.694589 0
M  V30 5285 H 524.249 6.50462 0.417483 0
M  V30 5286 N 527.682 1.05563 1.17022 0
M  V30 5287 C 528.592 0.670758 2.24807 0
M  V30 5288 C 529.608 -0.309865 1.71219 0
M  V30 5289 O 530.784 -0.161025 2.00755 0
M  V30 5290 C 527.849 0.055337 3.46656 0
M  V30 5291 C 526.91 1.08688 4.15314 0
M  V30 5292 C 526.143 0.500736 5.31346 0
M  V30 5293 O 526.366 -0.688718 5.66227 0
M  V30 5294 O 525.3 1.23683 5.89055 0
M  V30 5295 H 529.126 1.56914 2.60023 0
M  V30 5296 H 526.711 0.827428 1.24395 0
M  V30 5297 H 528.593 -0.286492 4.20425 0
M  V30 5298 H 527.268 -0.816638 3.13229 0
M  V30 5299 H 526.175 1.48077 3.43546 0
M  V30 5300 H 527.508 1.93014 4.52777 0
M  V30 5301 N 529.16 -1.33526 0.837174 0
M  V30 5302 C 530.108 -2.31168 0.257698 0
M  V30 5303 C 531.102 -1.5806 -0.609388 0
M  V30 5304 O 532.308 -1.72941 -0.499139 0
M  V30 5305 H 528.683 -0.74922 0.0646058 0
M  V30 5306 H 530.654 -2.77552 1.09578 0
M  V30 5307 C 529.403 -3.4326 -0.553887 0
M  V30 5308 H 528.726 -3.99665 0.104008 0
M  V30 5309 H 530.166 -4.13782 -0.925219 0
M  V30 5310 C 528.625 -2.88965 -1.73207 0
M  V30 5311 O 529.155 -2.85013 -2.83073 0
M  V30 5312 N 527.361 -2.45596 -1.55342 0
M  V30 5313 H 526.908 -2.49009 -0.659705 0
M  V30 5314 H 526.866 -2.0962 -2.34322 0
M  V30 5315 N 530.638 -0.59345 -1.46 0
M  V30 5316 C 531.585 0.133618 -2.30413 0
M  V30 5317 C 532.555 0.873736 -1.41262 0
M  V30 5318 O 533.74 0.862279 -1.70204 0
M  V30 5319 C 530.88 1.13434 -3.25924 0
M  V30 5320 C 529.993 0.39656 -4.30176 0
M  V30 5321 C 529.128 1.38575 -5.12806 0
M  V30 5322 C 528.167 0.634984 -6.08797 0
M  V30 5323 N 527.304 1.57276 -6.84258 0
M  V30 5324 H 532.144 -0.592252 -2.92055 0
M  V30 5325 H 529.681 -0.303874 -1.43927 0
M  V30 5326 H 531.639 1.72752 -3.79753 0
M  V30 5327 H 530.269 1.82779 -2.66067 0
M  V30 5328 H 529.321 -0.311861 -3.79119 0
M  V30 5329 H 530.633 -0.189869 -4.98438 0
M  V30 5330 H 529.787 2.05141 -5.70966 0
M  V30 5331 H 528.526 2.00611 -4.44529 0
M  V30 5332 H 527.531 -0.0443925 -5.49782 0
M  V30 5333 H 528.756 0.0198678 -6.79097 0
M  V30 5334 H 526.702 2.18103 -6.18682 0
M  V30 5335 H 526.619 1.03941 -7.48821 0
M  V30 5336 H 527.887 2.22844 -7.46968 0
M  V30 5337 N 532.116 1.54067 -0.331816 0
M  V30 5338 C 533.364 2.00319 0.267739 0
M  V30 5339 C 533.685 1.22148 1.52003 0
M  V30 5340 O 532.955 0.325494 1.93177 0
M  V30 5341 H 531.535 0.740014 0.101922 0
M  V30 5342 H 534.197 1.89628 -0.450267 0
M  V30 5343 H 533.293 3.07765 0.518385 0
M  V30 5344 N 533.594 0.0601682 1.57485 0
M  V30 5345 C 535.01 -0.296422 1.56823 0
M  V30 5346 C 535.21 -1.70831 1.0686 0
M  V30 5347 O 534.266 -2.4174 0.729245 0
M  V30 5348 C 535.579 -0.116681 3.00474 0
M  V30 5349 C 537.127 -0.187103 3.1244 0
M  V30 5350 C 537.602 -0.035783 4.57986 0
M  V30 5351 N 539.093 -0.0917676 4.63109 0
M  V30 5352 C 539.828 0.00107251 5.734 0
M  V30 5353 N 539.324 0.146773 6.92645 0
M  V30 5354 N 541.117 -0.0551577 5.62073 0
M  V30 5355 H 533.268 0.983055 1.88281 0
M  V30 5356 H 535.531 0.382386 0.867459 0
M  V30 5357 H 535.237 0.85712 3.41096 0
M  V30 5358 H 535.111 -0.873929 3.66936 0
M  V30 5359 H 537.498 -1.15138 2.71712 0
M  V30 5360 H 537.579 0.601052 2.48638 0
M  V30 5361 H 537.223 0.925212 4.99402 0
M  V30 5362 H 537.153 -0.843196 5.19806 0
M  V30 5363 H 539.644 -0.203261 3.77353 0
M  V30 5364 H 539.957 0.210076 7.72514 0
M  V30 5365 H 538.302 0.181979 6.94762 0
M  V30 5366 H 541.493 -0.167605 4.678 0
M  V30 5367 H 541.666 0.020652 6.47997 0
M  V30 5368 N 535.072 -1.5615 -0.213296 0
M  V30 5369 C 536.483 -1.69645 -0.779582 0
M  V30 5370 C 536.834 -0.663615 -1.84636 0
M  V30 5371 O 535.959 0.183633 -2.15619 0
M  V30 5372 C 536.554 -3.07567 -1.42084 0
M  V30 5373 C 535.113 -3.22889 -1.93442 0
M  V30 5374 C 534.26 -2.65581 -0.797612 0
M  V30 5375 H 537.211 -1.58696 0.0114951 0
M  V30 5376 H 537.232 -3.03884 -2.28986 0
M  V30 5377 H 536.744 -3.82716 -0.644187 0
M  V30 5378 H 534.845 -2.52623 -2.73884 0
M  V30 5379 H 534.958 -4.30197 -2.10872 0
M  V30 5380 H 533.322 -2.24278 -1.20712 0
M  V30 5381 H 534.105 -3.43284 -0.033494 0
M  V30 5382 N 536.55 0.480323 -1.50102 0
M  V30 5383 C 537.797 1.23307 -1.60629 0
M  V30 5384 C 538.125 1.92135 -0.302375 0
M  V30 5385 O 537.38 1.82321 0.711154 0
M  V30 5386 C 537.679 2.30708 -2.72963 0
M  V30 5387 C 537.345 1.79195 -4.13763 0
M  V30 5388 C 536.007 1.64867 -4.52076 0
M  V30 5389 C 538.359 1.40878 -5.018 0
M  V30 5390 C 535.687 1.10631 -5.76175 0
M  V30 5391 C 538.039 0.880872 -6.26437 0
M  V30 5392 C 536.703 0.724146 -6.6356 0
M  V30 5393 H 535.973 0.451211 -0.587784 0
M  V30 5394 H 538.62 0.53051 -1.84005 0
M  V30 5395 H 536.925 3.06834 -2.43639 0
M  V30 5396 H 538.622 2.88692 -2.78313 0
M  V30 5397 H 535.212 1.91313 -3.83533 0
M  V30 5398 H 539.396 1.50786 -4.7284 0
M  V30 5399 H 534.652 0.972263 -6.0362 0
M  V30 5400 H 538.826 0.575269 -6.9402 0
M  V30 5401 H 536.453 0.301722 -7.59601 0
M  V30 5402 N 538.028 1.39524 0.732853 0
M  V30 5403 C 539.274 1.37068 1.49467 0
M  V30 5404 C 539.607 -0.0327166 1.94172 0
M  V30 5405 O 538.882 -0.998071 1.66939 0
M  V30 5406 C 539.165 2.34494 2.73285 0
M  V30 5407 C 539.018 3.83784 2.34585 0
M  V30 5408 C 540.337 2.29717 3.75391 0
M  V30 5409 H 537.456 0.499206 0.542183 0
M  V30 5410 H 540.098 1.70532 0.837783 0
M  V30 5411 H 538.248 2.06087 3.29333 0
M  V30 5412 H 539.92 4.22949 1.84151 0
M  V30 5413 H 538.163 4.00455 1.66787 0
M  V30 5414 H 538.834 4.47444 3.23262 0
M  V30 5415 H 541.31 2.54839 3.28932 0
M  V30 5416 H 540.186 2.99962 4.59689 0
M  V30 5417 H 540.447 1.30291 4.22465 0
M  V30 5418 N 539.506 -0.963266 1.24736 0
M  V30 5419 C 540.755 -1.70115 1.08369 0
M  V30 5420 C 541.068 -1.91939 -0.376688 0
M  V30 5421 O 542.274 -2.6334 -0.660624 0
M  V30 5422 C 540.73 -3.06218 1.89099 0
M  V30 5423 C 540.338 -2.92221 3.39574 0
M  V30 5424 C 542.082 -3.83848 1.81275 0
M  V30 5425 C 539.989 -4.23662 4.12631 0
M  V30 5426 H 538.919 -0.637944 0.401924 0
M  V30 5427 H 541.57 -1.07304 1.48856 0
M  V30 5428 H 539.952 -3.69884 1.41429 0
M  V30 5429 H 541.126 -2.37541 3.94856 0
M  V30 5430 H 539.441 -2.28054 3.48397 0
M  V30 5431 H 542.038 -4.81188 2.33158 0
M  V30 5432 H 542.381 -4.08949 0.778895 0
M  V30 5433 H 542.914 -3.26918 2.26649 0
M  V30 5434 H 539.653 -4.03753 5.16395 0
M  V30 5435 H 539.173 -4.78141 3.62135 0
M  V30 5436 H 540.852 -4.92256 4.19873 0
M  V30 5437 N 540.985 -1.06182 -1.16461 0
M  V30 5438 C 541.932 -0.671613 -2.20812 0
M  V30 5439 C 542.902 0.331186 -1.62765 0
M  V30 5440 O 544.087 0.22033 -1.89524 0
M  V30 5441 C 541.227 -0.063029 -3.45042 0
M  V30 5442 C 540.34 -1.11587 -4.1734 0
M  V30 5443 C 539.475 -0.473546 -5.29085 0
M  V30 5444 C 538.514 -1.51 -5.93182 0
M  V30 5445 N 537.651 -0.891118 -6.96422 0
M  V30 5446 H 542.491 -1.56589 -2.53542 0
M  V30 5447 H 540.028 -0.782951 -1.24532 0
M  V30 5448 H 541.986 0.307344 -4.16066 0
M  V30 5449 H 540.616 0.794663 -3.12866 0
M  V30 5450 H 539.668 -1.60396 -3.44931 0
M  V30 5451 H 540.98 -1.90221 -4.61104 0
M  V30 5452 H 540.134 -0.0501432 -6.06679 0
M  V30 5453 H 538.873 0.344687 -4.8648 0
M  V30 5454 H 537.878 -1.94331 -5.14311 0
M  V30 5455 H 539.103 -2.33031 -6.37866 0
M  V30 5456 H 537.049 -0.0935753 -6.55933 0
M  V30 5457 H 536.966 -1.61486 -7.38551 0
M  V30 5458 H 538.234 -0.492822 -7.77941 0
M  V30 5459 N 542.463 1.3308 -0.844243 0
M  V30 5460 C 543.874 1.7992 -0.498566 0
M  V30 5461 C 544.225 1.69808 0.982834 0
M  V30 5462 O 543.35 1.25051 1.7661 0
M  V30 5463 C 543.945 3.26677 -0.898204 0
M  V30 5464 C 542.504 3.71513 -0.604583 0
M  V30 5465 C 541.651 2.54393 -1.10362 0
M  V30 5466 H 544.602 1.20526 -1.03244 0
M  V30 5467 H 544.623 3.79918 -0.21039 0
M  V30 5468 H 544.135 3.34004 -1.97643 0
M  V30 5469 H 542.236 3.69708 0.46335 0
M  V30 5470 H 542.349 4.64755 -1.16358 0
M  V30 5471 H 540.713 2.49246 -0.524273 0
M  V30 5472 H 541.496 2.6448 -2.18873 0
M  V30 5473 N 543.941 0.601185 1.45683 0
M  V30 5474 C 545.19 0.0914953 2.01492 0
M  V30 5475 C 545.503 -1.28331 1.47616 0
M  V30 5476 O 546.709 -1.88537 1.95362 0
M  V30 5477 C 545.165 0.11291 3.59723 0
M  V30 5478 C 544.773 1.48717 4.22596 0
M  V30 5479 C 546.517 -0.341871 4.23121 0
M  V30 5480 C 544.424 1.46531 5.7296 0
M  V30 5481 H 543.354 0.0304365 0.753385 0
M  V30 5482 H 546.005 0.755568 1.67223 0
M  V30 5483 H 544.387 -0.617692 3.91153 0
M  V30 5484 H 545.561 2.23897 4.02749 0
M  V30 5485 H 543.876 1.88351 3.71366 0
M  V30 5486 H 546.473 -0.377304 5.33367 0
M  V30 5487 H 546.816 -1.36325 3.93346 0
M  V30 5488 H 547.349 0.335256 3.96385 0
M  V30 5489 H 544.088 2.46408 6.07423 0
M  V30 5490 H 543.608 0.755997 5.95017 0
M  V30 5491 H 545.287 1.18618 6.36034 0
M  V30 5492 N 545.419 -1.53889 0.339982 0
M  V30 5493 C 546.644 -2.05741 -0.261798 0
M  V30 5494 C 547.069 -1.21354 -1.43718 0
M  V30 5495 O 546.427 -0.22645 -1.7988 0
M  V30 5496 C 546.475 -3.54542 -0.658228 0
M  V30 5497 O 545.579 -3.7302 -1.75869 0
M  V30 5498 H 544.92 -0.662529 -0.0441672 0
M  V30 5499 H 547.45 -1.98568 0.493161 0
M  V30 5500 H 547.46 -3.9711 -0.936368 0
M  V30 5501 H 546.135 -4.15412 0.201358 0
M  V30 5502 H 544.712 -3.42355 -1.47809 0
M  V30 5503 N 546.897 -0.0685191 -1.57451 0
M  V30 5504 C 548.122 0.613919 -1.98106 0
M  V30 5505 C 548.547 1.62551 -0.946501 0
M  V30 5506 O 547.905 1.81085 0.0882824 0
M  V30 5507 C 547.953 1.26189 -3.378 0
M  V30 5508 O 547.057 2.37773 -3.36954 0
M  V30 5509 H 546.398 0.158163 -0.644888 0
M  V30 5510 H 548.928 -0.142063 -2.04106 0
M  V30 5511 H 548.938 1.60951 -3.74912 0
M  V30 5512 H 547.613 0.520625 -4.12629 0
M  V30 5513 H 546.19 2.04829 -3.11608 0
M  V30 5514 N 548.375 1.56261 0.205012 0
M  V30 5515 C 549.786 1.70056 0.770574 0
M  V30 5516 C 550.137 0.673398 1.84282 0
M  V30 5517 O 549.262 -0.172196 2.15714 0
M  V30 5518 C 549.857 3.08316 1.40451 0
M  V30 5519 C 548.416 3.2391 1.91727 0
M  V30 5520 C 547.563 2.66001 0.783516 0
M  V30 5521 H 550.514 1.58688 -0.019911 0
M  V30 5522 H 550.535 3.05094 2.27371 0
M  V30 5523 H 550.047 3.83053 0.623882 0
M  V30 5524 H 548.148 2.54072 2.7254 0
M  V30 5525 H 548.261 4.3131 2.08588 0
M  V30 5526 H 546.625 2.24915 1.19521 0
M  V30 5527 H 547.408 3.43297 0.0152883 0
M  V30 5528 N 549.853 -0.472356 1.50355 0
M  V30 5529 C 550.783 -1.57859 1.72055 0
M  V30 5530 C 551.764 -1.60283 0.569505 0
M  V30 5531 O 552.949 -1.7657 0.808503 0
M  V30 5532 C 550.079 -2.96191 1.81351 0
M  V30 5533 C 549.033 -3.08633 2.96529 0
M  V30 5534 C 548.359 -4.486 2.90968 0
M  V30 5535 C 549.659 -2.85969 4.37057 0
M  V30 5536 H 551.353 -1.39953 2.64676 0
M  V30 5537 H 548.899 -0.671846 1.27367 0
M  V30 5538 H 550.852 -3.73507 1.95117 0
M  V30 5539 H 549.576 -3.15251 0.853502 0
M  V30 5540 H 548.235 -2.33749 2.82413 0
M  V30 5541 H 547.883 -4.64577 1.92815 0
M  V30 5542 H 547.583 -4.57861 3.68289 0
M  V30 5543 H 549.107 -5.27938 3.0678 0
M  V30 5544 H 550.521 -3.53036 4.51706 0
M  V30 5545 H 548.918 -3.06677 5.15819 0
M  V30 5546 H 549.988 -1.81838 4.49514 0
M  V30 5547 N 551.331 -1.39911 -0.725443 0
M  V30 5548 C 552.264 -1.33788 -1.84867 0
M  V30 5549 C 553.242 -0.209907 -1.61239 0
M  V30 5550 O 554.426 -0.391943 -1.8438 0
M  V30 5551 C 551.553 -1.07975 -3.21028 0
M  V30 5552 C 550.599 -2.23092 -3.635 0
M  V30 5553 S 551.432 -3.85431 -3.71757 0
M  V30 5554 C 552.588 -3.61862 -5.10692 0
M  V30 5555 H 552.821 -2.28848 -1.89779 0
M  V30 5556 H 550.354 -1.26079 -0.891254 0
M  V30 5557 H 552.312 -0.937669 -3.99647 0
M  V30 5558 H 550.973 -0.145865 -3.13761 0
M  V30 5559 H 550.166 -2.00647 -4.62338 0
M  V30 5560 H 549.768 -2.33553 -2.92112 0
M  V30 5561 H 552.06 -3.19719 -5.97316 0
M  V30 5562 H 553.003 -4.60196 -5.38169 0
M  V30 5563 H 553.411 -2.95757 -4.8082 0
M  V30 5564 N 552.809 0.956637 -1.25245 0
M  V30 5565 C 553.756 2.053 -1.05454 0
M  V30 5566 C 554.726 1.66062 0.0356889 0
M  V30 5567 O 555.911 1.90415 -0.121099 0
M  V30 5568 C 553.051 3.38391 -0.677191 0
M  V30 5569 C 552.164 3.90758 -1.84206 0
M  V30 5570 C 551.299 5.12165 -1.40926 0
M  V30 5571 C 550.338 5.56757 -2.54338 0
M  V30 5572 N 549.475 6.69376 -2.11848 0
M  V30 5573 H 554.315 2.21562 -1.99284 0
M  V30 5574 H 551.852 1.08578 -0.992434 0
M  V30 5575 H 553.81 4.1488 -0.43938 0
M  V30 5576 H 552.44 3.22021 0.224127 0
M  V30 5577 H 551.492 3.10808 -2.19323 0
M  V30 5578 H 552.804 4.19802 -2.69383 0
M  V30 5579 H 551.958 5.96065 -1.13098 0
M  V30 5580 H 550.697 4.84832 -0.528175 0
M  V30 5581 H 549.702 4.71423 -2.82913 0
M  V30 5582 H 550.927 5.861 -3.43022 0
M  V30 5583 H 548.873 6.43756 -1.26153 0
M  V30 5584 H 548.79 6.97927 -2.90574 0
M  V30 5585 H 550.058 7.5669 -1.87191 0
M  V30 5586 N 554.287 1.06798 1.15896 0
M  V30 5587 C 555.698 0.811355 1.68149 0
M  V30 5588 C 556.049 -0.664339 1.8461 0
M  V30 5589 O 555.174 -1.51485 1.54535 0
M  V30 5590 C 555.769 1.46624 3.05429 0
M  V30 5591 C 554.328 1.25726 3.54781 0
M  V30 5592 C 553.475 1.53949 2.3064 0
M  V30 5593 H 556.426 1.23078 1.00187 0
M  V30 5594 H 556.447 0.88437 3.7008 0
M  V30 5595 H 555.959 2.54025 2.93416 0
M  V30 5596 H 554.06 0.20322 3.72045 0
M  V30 5597 H 554.173 1.97354 4.36564 0
M  V30 5598 H 552.537 0.96025 2.35905 0
M  V30 5599 H 553.32 2.6252 2.2122 0
M  V30 5600 N 555.766 -1.3263 0.851289 0
M  V30 5601 C 556.696 -2.31449 0.308771 0
M  V30 5602 C 557.677 -1.59531 -0.590255 0
M  V30 5603 O 558.862 -1.87351 -0.511205 0
M  V30 5604 C 555.992 -3.43586 -0.506548 0
M  V30 5605 C 554.946 -4.26963 0.297753 0
M  V30 5606 C 554.272 -5.30831 -0.642094 0
M  V30 5607 C 555.572 -4.99643 1.52166 0
M  V30 5608 H 557.266 -2.77074 1.13447 0
M  V30 5609 H 554.812 -1.33207 0.546971 0
M  V30 5610 H 556.765 -4.11754 -0.896474 0
M  V30 5611 H 555.489 -2.96681 -1.36558 0
M  V30 5612 H 554.148 -3.60437 0.669391 0
M  V30 5613 H 553.796 -4.8018 -1.49788 0
M  V30 5614 H 553.496 -5.87501 -0.107968 0
M  V30 5615 H 555.02 -6.01862 -1.02927 0
M  V30 5616 H 556.434 -5.6051 1.20421 0
M  V30 5617 H 554.831 -5.66022 1.99347 0
M  V30 5618 H 555.901 -4.27701 2.28474 0
M  V30 5619 N 557.244 -0.608902 -1.45362 0
M  V30 5620 C 558.174 0.0964526 -2.33301 0
M  V30 5621 C 559.155 0.857444 -1.46908 0
M  V30 5622 O 560.34 0.827735 -1.75676 0
M  V30 5623 C 557.47 1.09354 -3.29635 0
M  V30 5624 C 556.424 0.445676 -4.25673 0
M  V30 5625 C 555.75 1.5511 -5.11708 0
M  V30 5626 C 557.05 -0.633972 -5.18438 0
M  V30 5627 H 558.744 -0.637829 -2.92527 0
M  V30 5628 H 556.29 -0.308178 -1.40664 0
M  V30 5629 H 558.243 1.59556 -3.90025 0
M  V30 5630 H 556.967 1.85843 -2.6857 0
M  V30 5631 H 555.626 -0.0354897 -3.66583 0
M  V30 5632 H 555.274 2.30631 -4.4701 0
M  V30 5633 H 554.974 1.12311 -5.76767 0
M  V30 5634 H 556.498 2.05537 -5.74967 0
M  V30 5635 H 557.912 -0.215974 -5.72893 0
M  V30 5636 H 556.309 -0.983789 -5.91981 0
M  V30 5637 H 557.379 -1.51005 -4.60788 0
M  V30 5638 N 558.722 1.53707 -0.348139 0
M  V30 5639 C 559.968 2.01286 0.247332 0
M  V30 5640 C 560.301 1.23546 1.49834 0
M  V30 5641 O 559.576 0.324331 1.91777 0
M  V30 5642 C 559.859 3.55768 0.556858 0
M  V30 5643 C 559.712 4.44216 -0.706564 0
M  V30 5644 C 561.031 4.1841 1.3646 0
M  V30 5645 H 558.15 0.731677 0.0884201 0
M  V30 5646 H 560.792 1.84106 -0.469584 0
M  V30 5647 H 558.942 3.70539 1.16761 0
M  V30 5648 H 560.614 4.41274 -1.34444 0
M  V30 5649 H 558.857 4.12892 -1.33052 0
M  V30 5650 H 559.528 5.50202 -0.445186 0
M  V30 5651 H 562.004 4.07365 0.848113 0
M  V30 5652 H 560.88 5.26563 1.54992 0
M  V30 5653 H 561.141 3.7333 2.36805 0
M  V30 5654 N 560.2 0.0768682 1.57412 0
M  V30 5655 C 561.447 -0.591085 1.93681 0
M  V30 5656 C 561.775 -1.69311 0.957286 0
M  V30 5657 O 561.03 -1.95682 -0.0262428 0
M  V30 5658 C 561.329 -1.20268 3.36557 0
M  V30 5659 C 560.995 -0.226286 4.50332 0
M  V30 5660 C 559.657 0.0423142 4.81181 0
M  V30 5661 C 562.009 0.441415 5.19327 0
M  V30 5662 C 559.337 0.985616 5.78362 0
M  V30 5663 C 561.689 1.37307 6.17519 0
M  V30 5664 C 560.353 1.65009 6.46783 0
M  V30 5665 H 559.623 -0.216293 0.70873 0
M  V30 5666 H 562.27 0.148824 1.90921 0
M  V30 5667 H 560.575 -2.01844 3.35807 0
M  V30 5668 H 562.272 -1.72688 3.61911 0
M  V30 5669 H 558.862 -0.445821 4.26275 0
M  V30 5670 H 563.046 0.247023 4.95685 0
M  V30 5671 H 558.302 1.20743 5.99359 0
M  V30 5672 H 562.476 1.89637 6.70083 0
M  V30 5673 H 560.103 2.38263 7.21897 0
M  V30 5674 N 561.678 -1.56367 -0.196722 0
M  V30 5675 C 562.924 -1.80796 -0.918725 0
M  V30 5676 C 563.257 -0.650645 -1.82976 0
M  V30 5677 O 562.532 0.348889 -1.91345 0
M  V30 5678 C 562.815 -3.15472 -1.73636 0
M  V30 5679 C 562.668 -4.41693 -0.85015 0
M  V30 5680 C 563.987 -3.46824 -2.70927 0
M  V30 5681 H 561.106 -0.657702 -0.332561 0
M  V30 5682 H 563.748 -1.89086 -0.186186 0
M  V30 5683 H 561.898 -3.08536 -2.36088 0
M  V30 5684 H 563.57 -4.60673 -0.240459 0
M  V30 5685 H 561.813 -4.33517 -0.156785 0
M  V30 5686 H 562.484 -5.32419 -1.45719 0
M  V30 5687 H 564.96 -3.54049 -2.18607 0
M  V30 5688 H 563.836 -4.4218 -3.25219 0
M  V30 5689 H 564.097 -2.70236 -3.49893 0
M  V30 5690 N 563.156 0.464375 -1.50603 0
M  V30 5691 C 564.104 1.58224 -1.70493 0
M  V30 5692 C 565.098 1.59492 -0.570836 0
M  V30 5693 O 566.304 1.63561 -0.751517 0
M  V30 5694 H 562.679 0.525161 -0.538247 0
M  V30 5695 H 564.65 1.38613 -2.64252 0
M  V30 5696 C 563.399 2.96113 -1.82243 0
M  V30 5697 H 562.722 2.95858 -2.68901 0
M  V30 5698 H 564.162 3.73769 -2.00182 0
M  V30 5699 C 562.621 3.31946 -0.575628 0
M  V30 5700 O 563.151 4.00708 0.282152 0
M  V30 5701 N 561.357 2.87436 -0.427665 0
M  V30 5702 H 560.904 2.31652 -1.12674 0
M  V30 5703 H 560.862 3.11776 0.405379 0
M  V30 5704 N 564.634 1.40294 0.718013 0
M  V30 5705 C 566.045 1.34289 1.29705 0
M  V30 5706 C 566.396 0.0152228 1.96194 0
M  V30 5707 O 565.521 -0.88682 1.97394 0
M  V30 5708 C 566.116 2.43219 2.3586 0
M  V30 5709 C 564.675 2.40682 2.89394 0
M  V30 5710 C 563.822 2.24223 1.63154 0
M  V30 5711 H 566.773 1.50135 0.514312 0
M  V30 5712 H 566.794 2.10986 3.16647 0
M  V30 5713 H 566.306 3.39836 1.87439 0
M  V30 5714 H 564.407 1.47756 3.42051 0
M  V30 5715 H 564.52 3.36177 3.41353 0
M  V30 5716 H 562.884 1.71696 1.88129 0
M  V30 5717 H 563.667 3.22834 1.16761 0
M  V30 5718 N 566.112 -0.949982 1.2575 0
M  V30 5719 C 567.059 -2.04738 1.06541 0
M  V30 5720 C 568.029 -1.66078 -0.0268818 0
M  V30 5721 O 569.214 -1.90348 0.131196 0
M  V30 5722 C 566.354 -3.38027 0.695127 0
M  V30 5723 C 565.467 -3.89776 1.86276 0
M  V30 5724 C 564.602 -5.11411 1.4364 0
M  V30 5725 C 563.641 -5.554 2.57287 0
M  V30 5726 N 562.778 -6.68244 2.15395 0
M  V30 5727 H 567.618 -2.20502 2.00457 0
M  V30 5728 H 565.155 -1.0805 0.998178 0
M  V30 5729 H 567.113 -4.14641 0.461375 0
M  V30 5730 H 565.743 -3.22135 -0.207046 0
M  V30 5731 H 564.795 -3.0964 2.20969 0
M  V30 5732 H 566.107 -4.18368 2.71606 0
M  V30 5733 H 565.261 -5.95457 1.16257 0
M  V30 5734 H 564 -4.84545 0.553879 0
M  V30 5735 H 563.005 -4.69916 2.85409 0
M  V30 5736 H 564.23 -5.84272 3.46125 0
M  V30 5737 H 562.176 -6.43078 1.29565 0
M  V30 5738 H 562.093 -6.96377 2.94272 0
M  V30 5739 H 563.361 -7.55687 1.91201 0
M  V30 5740 N 567.59 -1.07411 -1.15328 0
M  V30 5741 C 568.815 -0.818856 -1.90551 0
M  V30 5742 C 569.24 0.622194 -1.77512 0
M  V30 5743 O 568.598 1.43484 -1.10824 0
M  V30 5744 C 568.646 -1.23267 -3.38877 0
M  V30 5745 O 567.75 -0.378345 -4.10661 0
M  V30 5746 H 567.091 -0.29827 -0.593238 0
M  V30 5747 H 569.621 -1.43289 -1.46046 0
M  V30 5748 H 569.631 -1.20912 -3.89672 0
M  V30 5749 H 568.306 -2.28226 -3.47686 0
M  V30 5750 H 566.883 -0.464437 -3.69996 0
M  V30 5751 N 569.068 1.32177 -0.85831 0
M  V30 5752 C 570.316 1.96735 -0.462568 0
M  V30 5753 C 570.637 1.6824 0.985911 0
M  V30 5754 O 569.907 0.991564 1.68952 0
M  V30 5755 H 568.487 0.727849 -0.168064 0
M  V30 5756 H 571.149 1.61195 -1.09554 0
M  V30 5757 H 570.245 3.06068 -0.610647 0
M  V30 5758 N 570.547 0.616602 1.45037 0
M  V30 5759 C 571.795 0.115103 2.01772 0
M  V30 5760 C 572.116 -1.2622 1.48639 0
M  V30 5761 O 571.386 -1.83563 0.684199 0
M  V30 5762 H 569.966 0.0395607 0.745952 0
M  V30 5763 H 572.628 0.800032 1.77723 0
M  V30 5764 H 571.724 0.0717274 3.12018 0
M  V30 5765 N 572.025 -1.5352 0.356285 0
M  V30 5766 C 572.973 -2.26945 -0.50978 0
M  V30 5767 C 573.967 -1.29569 -1.09125 0
M  V30 5768 O 575.173 -1.47231 -1.03552 0
M  V30 5769 H 571.548 -0.729368 -0.183102 0
M  V30 5770 H 573.519 -2.98111 0.131374 0
M  V30 5771 C 572.268 -3.06466 -1.64237 0
M  V30 5772 H 571.591 -3.81233 -1.20423 0
M  V30 5773 H 573.031 -3.61035 -2.22327 0
M  V30 5774 C 571.49 -2.16737 -2.57928 0
M  V30 5775 O 572.02 -1.77195 -3.60507 0
M  V30 5776 N 570.226 -1.81558 -2.26903 0
M  V30 5777 H 569.773 -2.13913 -1.43524 0
M  V30 5778 H 569.731 -1.21806 -2.89846 0
M  V30 5779 N 573.503 -0.0852151 -1.57369 0
M  V30 5780 C 574.435 0.907099 -2.10486 0
M  V30 5781 C 575.448 1.25259 -1.03991 0
M  V30 5782 O 576.637 1.20743 -1.31467 0
M  V30 5783 C 573.737 2.21908 -2.56145 0
M  V30 5784 C 572.91 2.05042 -3.86363 0
M  V30 5785 C 571.969 3.19664 -4.17973 0
M  V30 5786 O 570.995 2.94062 -4.87356 0
M  V30 5787 N 572.197 4.45151 -3.72587 0
M  V30 5788 H 574.962 0.453505 -2.96249 0
M  V30 5789 H 572.523 0.100157 -1.6159 0
M  V30 5790 H 574.515 2.97519 -2.74343 0
M  V30 5791 H 573.085 2.58723 -1.75446 0
M  V30 5792 H 572.305 1.13819 -3.77411 0
M  V30 5793 H 573.593 1.91039 -4.71574 0
M  V30 5794 H 572.991 4.68834 -3.16561 0
M  V30 5795 H 571.548 5.17744 -3.9596 0
M  V30 5796 N 574.981 1.5647 0.188427 0
M  V30 5797 C 576.229 1.80655 0.905986 0
M  V30 5798 C 576.55 0.659391 1.83513 0
M  V30 5799 O 575.82 -0.321868 1.93238 0
M  V30 5800 H 574.4 0.666391 0.337538 0
M  V30 5801 H 577.062 1.93949 0.192339 0
M  V30 5802 H 576.158 2.74066 1.49313 0
M  V30 5803 N 576.459 -0.456382 1.50847 0
M  V30 5804 C 577.687 -1.23026 1.66349 0
M  V30 5805 C 578.102 -1.85473 0.352868 0
M  V30 5806 O 577.459 -1.69885 -0.666739 0
M  V30 5807 C 577.51 -2.32827 2.76539 0
M  V30 5808 O 577.231 -1.72938 4.02522 0
M  V30 5809 C 578.732 -3.23448 3.03144 0
M  V30 5810 H 575.952 -0.371527 0.558756 0
M  V30 5811 H 578.496 -0.543082 1.97157 0
M  V30 5812 H 576.651 -2.97294 2.48384 0
M  V30 5813 H 577.065 -2.45357 4.63573 0
M  V30 5814 H 578.539 -3.96669 3.83872 0
M  V30 5815 H 579.016 -3.83094 2.14793 0
M  V30 5816 H 579.622 -2.64702 3.32886 0
M  V30 5817 N 577.937 -1.40673 -0.710563 0
M  V30 5818 C 578.884 -1.41336 -1.82463 0
M  V30 5819 C 579.854 -0.269648 -1.63897 0
M  V30 5820 O 581.039 -0.468463 -1.8496 0
M  V30 5821 C 578.179 -1.28665 -3.20218 0
M  V30 5822 C 577.292 -2.52784 -3.5032 0
M  V30 5823 C 576.427 -2.32517 -4.77608 0
M  V30 5824 C 575.466 -3.52187 -5.0063 0
M  V30 5825 N 574.603 -3.31084 -6.19135 0
M  V30 5826 H 579.443 -2.36558 -1.8123 0
M  V30 5827 H 576.98 -1.17483 -0.885226 0
M  V30 5828 H 578.938 -1.19324 -3.99772 0
M  V30 5829 H 577.568 -0.370602 -3.20666 0
M  V30 5830 H 576.62 -2.72634 -2.65283 0
M  V30 5831 H 577.932 -3.41845 -3.63241 0
M  V30 5832 H 577.086 -2.20558 -5.65189 0
M  V30 5833 H 575.825 -1.40889 -4.66906 0
M  V30 5834 H 574.83 -3.64617 -4.11502 0
M  V30 5835 H 576.055 -4.44749 -5.13201 0
M  V30 5836 H 574.001 -2.42143 -6.09674 0
M  V30 5837 H 573.918 -4.13713 -6.32754 0
M  V30 5838 H 575.186 -3.22868 -7.0949 0
M  V30 5839 N 579.415 0.9433 -1.26252 0
M  V30 5840 C 580.661 1.69175 -1.11837 0
M  V30 5841 C 580.994 1.91238 0.337891 0
M  V30 5842 O 580.269 1.49152 1.24836 0
M  V30 5843 C 580.552 3.06783 -1.88563 0
M  V30 5844 C 580.405 2.9206 -3.42083 0
M  V30 5845 C 581.724 4.06865 -1.67776 0
M  V30 5846 H 578.843 0.61399 -0.407658 0
M  V30 5847 H 581.485 1.09572 -1.55222 0
M  V30 5848 H 579.635 3.57663 -1.51689 0
M  V30 5849 H 581.307 2.48419 -3.88698 0
M  V30 5850 H 579.55 2.27731 -3.69217 0
M  V30 5851 H 580.221 3.89651 -3.90994 0
M  V30 5852 H 582.697 3.64939 -1.99897 0
M  V30 5853 H 581.573 5.01168 -2.23879 0
M  V30 5854 H 581.834 4.37705 -0.621816 0
M  V30 5855 N 580.893 1.08022 1.14757 0
M  V30 5856 C 581.823 0.728248 2.21853 0
M  V30 5857 C 582.804 -0.287486 1.67653 0
M  V30 5858 O 583.989 -0.158727 1.9355 0
M  V30 5859 C 581.119 0.132549 3.47047 0
M  V30 5860 C 580.073 1.07619 4.14249 0
M  V30 5861 C 579.399 0.342907 5.33599 0
M  V30 5862 C 580.699 2.41268 4.63235 0
M  V30 5863 H 582.393 1.62365 2.51551 0
M  V30 5864 H 579.939 0.782125 1.20908 0
M  V30 5865 H 581.892 -0.125665 4.21213 0
M  V30 5866 H 580.616 -0.797971 3.16702 0
M  V30 5867 H 579.275 1.31944 3.42033 0
M  V30 5868 H 578.923 -0.59129 4.99513 0
M  V30 5869 H 578.623 0.971955 5.79506 0
M  V30 5870 H 580.147 0.0926538 6.1053 0
M  V30 5871 H 581.561 2.21232 5.28894 0
M  V30 5872 H 579.958 2.9983 5.19829 0
M  V30 5873 H 581.028 3.03079 3.78512 0
M  V30 5874 N 582.371 -1.3172 0.865308 0
M  V30 5875 C 583.303 -2.27545 0.274906 0
M  V30 5876 C 584.316 -1.52887 -0.559413 0
M  V30 5877 O 585.505 -1.74361 -0.382166 0
M  V30 5878 C 582.605 -3.33006 -0.629286 0
M  V30 5879 C 581.778 -4.37063 0.171553 0
M  V30 5880 C 580.837 -5.22044 -0.660052 0
M  V30 5881 O 579.863 -5.69129 -0.0897527 0
M  V30 5882 N 581.065 -5.45946 -1.97289 0
M  V30 5883 H 583.83 -2.78848 1.09836 0
M  V30 5884 H 581.391 -1.44693 0.726331 0
M  V30 5885 H 583.383 -3.86772 -1.19121 0
M  V30 5886 H 581.953 -2.81782 -1.35342 0
M  V30 5887 H 581.173 -3.83436 0.914919 0
M  V30 5888 H 582.461 -5.03662 0.721235 0
M  V30 5889 H 581.859 -5.0944 -2.45942 0
M  V30 5890 H 580.416 -6.02665 -2.4827 0
M  V30 5891 N 583.85 -0.624285 -1.44708 0
M  V30 5892 C 584.783 0.133905 -2.27807 0
M  V30 5893 C 585.76 0.857794 -1.38133 0
M  V30 5894 O 586.945 0.863277 -1.6757 0
M  V30 5895 C 584.072 1.19541 -3.16903 0
M  V30 5896 C 583.118 0.572813 -4.22636 0
M  V30 5897 S 583.951 -0.631953 -5.31758 0
M  V30 5898 C 585.106 0.429733 -6.24423 0
M  V30 5899 H 585.34 -0.571072 -2.91764 0
M  V30 5900 H 582.873 -0.412261 -1.48794 0
M  V30 5901 H 584.831 1.80293 -3.68788 0
M  V30 5902 H 583.492 1.87255 -2.5218 0
M  V30 5903 H 582.685 1.37205 -4.84965 0
M  V30 5904 H 582.287 0.0400641 -3.73979 0
M  V30 5905 H 584.579 1.30421 -6.64828 0
M  V30 5906 H 585.522 -0.157804 -7.07924 0
M  V30 5907 H 585.93 0.75256 -5.59461 0
M  V30 5908 N 585.328 1.53329 -0.364422 0
M  V30 5909 C 586.575 2.01239 0.225634 0
M  V30 5910 C 586.903 1.25172 1.48869 0
M  V30 5911 O 586.158 0.333289 1.92841 0
M  V30 5912 C 586.457 3.52911 0.564661 0
M  V30 5913 C 586.123 4.46837 -0.603936 0
M  V30 5914 C 584.785 4.72234 -0.924585 0
M  V30 5915 C 587.137 5.02409 -1.38691 0
M  V30 5916 C 584.465 5.50454 -2.0302 0
M  V30 5917 C 586.817 5.81836 -2.48293 0
M  V30 5918 C 585.481 6.0552 -2.80894 0
M  V30 5919 H 584.751 0.736386 0.0825654 0
M  V30 5920 H 587.398 1.84948 -0.496645 0
M  V30 5921 H 585.703 3.67144 1.36794 0
M  V30 5922 H 587.4 3.87455 1.03344 0
M  V30 5923 H 583.99 4.27217 -0.343983 0
M  V30 5924 H 588.174 4.82735 -1.15243 0
M  V30 5925 H 583.43 5.67024 -2.28678 0
M  V30 5926 H 587.604 6.23905 -3.0938 0
M  V30 5927 H 585.231 6.65916 -3.66688 0
M  V30 5928 N 586.806 0.0935595 1.57322 0
M  V30 5929 C 587.739 -0.902505 2.09595 0
M  V30 5930 C 588.717 -1.27732 1.00615 0
M  V30 5931 O 589.901 -1.38283 1.28102 0
M  V30 5932 C 587.028 -2.20416 2.57166 0
M  V30 5933 C 586.074 -1.97932 3.7779 0
M  V30 5934 S 586.907 -1.21873 5.21447 0
M  V30 5935 C 588.063 -2.53273 5.72367 0
M  V30 5936 H 588.296 -0.457797 2.93754 0
M  V30 5937 H 585.829 -0.119694 1.53935 0
M  V30 5938 H 587.787 -2.95217 2.85232 0
M  V30 5939 H 586.448 -2.62008 1.73235 0
M  V30 5940 H 585.641 -2.94316 4.09138 0
M  V30 5941 H 585.243 -1.3126 3.5021 0
M  V30 5942 H 587.535 -3.49256 5.8054 0
M  V30 5943 H 588.478 -2.26505 6.70896 0
M  V30 5944 H 588.886 -2.61475 5.00291 0
M  V30 5945 N 588.284 -1.56567 -0.180126 0
M  V30 5946 C 589.53 -1.82658 -0.894859 0
M  V30 5947 C 589.885 -0.672826 -1.80252 0
M  V30 5948 O 589.178 0.331227 -1.88715 0
M  V30 5949 C 589.372 -3.1252 -1.73395 0
M  V30 5950 C 589.201 -4.40417 -0.909028 0
M  V30 5951 C 587.971 -5.01872 -0.587562 0
M  V30 5952 C 590.169 -5.13669 -0.254698 0
M  V30 5953 N 588.151 -6.13373 0.254428 0
M  V30 5954 C 589.522 -6.18373 0.448837 0
M  V30 5955 C 591.577 -4.97603 -0.171958 0
M  V30 5956 C 590.28 -7.08753 1.22725 0
M  V30 5957 C 592.306 -5.88418 0.593101 0
M  V30 5958 C 591.668 -6.92579 1.28503 0
M  V30 5959 H 587.767 -0.719493 -0.306356 0
M  V30 5960 H 590.351 -1.94021 -0.16247 0
M  V30 5961 H 588.522 -3.02365 -2.43783 0
M  V30 5962 H 590.254 -3.2664 -2.38931 0
M  V30 5963 H 587.009 -4.64666 -0.915557 0
M  V30 5964 H 587.433 -6.73721 0.665474 0
M  V30 5965 H 592.075 -4.17089 -0.692555 0
M  V30 5966 H 589.793 -7.88718 1.75923 0
M  V30 5967 H 593.379 -5.78059 0.658674 0
M  V30 5968 H 592.259 -7.61638 1.86754 0
M  V30 5969 N 589.762 0.448376 -1.51087 0
M  V30 5970 C 590.992 1.21965 -1.66757 0
M  V30 5971 C 591.4 1.85748 -0.359753 0
M  V30 5972 O 590.743 1.71022 0.670604 0
M  V30 5973 C 590.805 2.35284 -2.71812 0
M  V30 5974 C 590.469 1.91957 -4.1473 0
M  V30 5975 C 591.466 1.42921 -4.9987 0
M  V30 5976 C 589.151 1.99985 -4.60772 0
M  V30 5977 C 591.145 1.02485 -6.29107 0
M  V30 5978 C 588.832 1.5916 -5.90009 0
M  V30 5979 C 589.83 1.10491 -6.74004 0
M  V30 5980 O 589.518 0.702413 -8.00825 0
M  V30 5981 H 589.25 0.374125 -0.563034 0
M  V30 5982 H 591.804 0.538927 -1.98204 0
M  V30 5983 H 590.034 3.06599 -2.35657 0
M  V30 5984 H 591.723 2.97184 -2.76472 0
M  V30 5985 H 592.489 1.36123 -4.65506 0
M  V30 5986 H 588.368 2.36814 -3.95525 0
M  V30 5987 H 591.912 0.644271 -6.94619 0
M  V30 5988 H 587.809 1.65626 -6.2389 0
M  V30 5989 H 588.577 0.829248 -8.14288 0
M  V30 5990 N 591.24 1.41047 0.703093 0
M  V30 5991 C 592.17 1.45067 1.82969 0
M  V30 5992 C 593.151 0.31016 1.67248 0
M  V30 5993 O 594.336 0.520548 1.87093 0
M  V30 5994 C 591.466 1.32478 3.2104 0
M  V30 5995 C 590.42 2.44262 3.51454 0
M  V30 5996 C 589.746 2.16742 4.88801 0
M  V30 5997 C 591.046 3.86606 3.51189 0
M  V30 5998 H 592.74 2.39353 1.79863 0
M  V30 5999 H 590.286 1.15206 0.863919 0
M  V30 6000 H 592.239 1.33904 3.99559 0
M  V30 6001 H 590.963 0.346735 3.24754 0
M  V30 6002 H 589.622 2.42107 2.75282 0
M  V30 6003 H 589.27 1.17299 4.89132 0
M  V30 6004 H 588.97 2.91643 5.10116 0
M  V30 6005 H 590.494 2.19872 5.69639 0
M  V30 6006 H 591.908 3.90517 4.19725 0
M  V30 6007 H 590.305 4.61128 3.84033 0
M  V30 6008 H 591.375 4.15296 2.50315 0
M  V30 6009 N 592.718 -0.936591 1.26751 0
M  V30 6010 C 593.666 -2.0573 1.08527 0
M  V30 6011 C 594.66 -1.69397 0.0108784 0
M  V30 6012 O 595.866 -1.79215 0.167915 0
M  V30 6013 H 592.241 -0.673691 0.334133 0
M  V30 6014 H 594.212 -2.1825 2.03493 0
M  V30 6015 C 592.961 -3.39738 0.739845 0
M  V30 6016 H 592.284 -3.68174 1.55845 0
M  V30 6017 H 593.724 -4.18955 0.652149 0
M  V30 6018 C 592.183 -3.32292 -0.555288 0
M  V30 6019 O 592.713 -3.68794 -1.59229 0
M  V30 6020 N 590.919 -2.85394 -0.54762 0
M  V30 6021 H 590.466 -2.55886 0.296667 0
M  V30 6022 H 590.424 -2.80795 -1.41427 0
M  V30 6023 N 594.196 -1.08629 -1.14182 0
M  V30 6024 C 595.607 -0.838003 -1.66836 0
M  V30 6025 C 595.958 0.634885 -1.85644 0
M  V30 6026 O 595.083 1.49008 -1.56926 0
M  V30 6027 C 595.678 -1.51465 -3.03058 0
M  V30 6028 C 594.237 -1.31355 -3.52736 0
M  V30 6029 C 593.384 -1.57599 -2.28162 0
M  V30 6030 H 596.335 -1.24656 -0.982165 0
M  V30 6031 H 596.356 -0.943134 -3.68626 0
M  V30 6032 H 595.868 -2.58661 -2.89337 0
M  V30 6033 H 593.969 -0.262384 -3.71675 0
M  V30 6034 H 594.082 -2.04275 -4.33369 0
M  V30 6035 H 592.446 -0.997659 -2.34348 0
M  V30 6036 H 593.229 -2.66006 -2.17015 0
M  V30 6037 N 595.674 1.31259 -0.872281 0
M  V30 6038 C 597.09 1.49283 -0.564521 0
M  V30 6039 C 597.29 1.80243 0.900807 0
M  V30 6040 O 596.346 1.88246 1.68284 0
M  V30 6041 C 597.659 2.62503 -1.46673 0
M  V30 6042 C 599.207 2.76386 -1.46901 0
M  V30 6043 C 599.682 3.92705 -2.35684 0
M  V30 6044 N 601.173 3.99995 -2.33577 0
M  V30 6045 C 601.908 4.89276 -2.98992 0
M  V30 6046 N 601.404 5.83443 -3.73585 0
M  V30 6047 N 603.197 4.82541 -2.88289 0
M  V30 6048 H 595.348 1.09432 -1.82039 0
M  V30 6049 H 597.611 0.540949 -0.77851 0
M  V30 6050 H 597.317 2.46407 -2.50951 0
M  V30 6051 H 597.191 3.58695 -1.16696 0
M  V30 6052 H 599.578 2.91894 -0.433796 0
M  V30 6053 H 599.659 1.80853 -1.80903 0
M  V30 6054 H 599.303 3.77954 -3.39283 0
M  V30 6055 H 599.233 4.87549 -1.99006 0
M  V30 6056 H 601.724 3.32624 -1.7936 0
M  V30 6057 H 602.037 6.48303 -4.20622 0
M  V30 6058 H 600.382 5.83415 -3.77694 0
M  V30 6059 H 603.573 4.07951 -2.2955 0
M  V30 6060 H 603.746 5.51916 -3.39549 0
M  V30 6061 N 597.152 0.631951 1.44375 0
M  V30 6062 C 598.084 -0.110911 2.28931 0
M  V30 6063 C 599.097 -0.808086 1.41329 0
M  V30 6064 O 600.286 -0.669396 1.65473 0
M  V30 6065 C 597.386 -1.17928 3.1772 0
M  V30 6066 C 596.559 -0.564458 4.33743 0
M  V30 6067 C 595.618 -1.5269 5.0356 0
M  V30 6068 O 594.644 -1.04372 5.59549 0
M  V30 6069 N 595.846 -2.86123 5.05088 0
M  V30 6070 H 598.611 0.614758 2.93327 0
M  V30 6071 H 596.172 0.473171 1.54831 0
M  V30 6072 H 598.164 -1.82348 3.61291 0
M  V30 6073 H 596.734 -1.80717 2.55069 0
M  V30 6074 H 595.954 0.258373 3.93352 0
M  V30 6075 H 597.242 -0.134355 5.08623 0
M  V30 6076 H 596.64 -3.27959 4.60933 0
M  V30 6077 H 595.197 -3.45901 5.52445 0
M  V30 6078 N 598.631 -1.53133 0.372548 0
M  V30 6079 C 599.877 -2.01654 -0.215277 0
M  V30 6080 C 600.21 -1.25914 -1.47849 0
M  V30 6081 O 599.485 -0.3548 -1.91237 0
M  V30 6082 C 599.768 -3.56609 -0.500187 0
M  V30 6083 C 599.621 -4.43036 0.777145 0
M  V30 6084 C 600.94 -4.20528 -1.29786 0
M  V30 6085 H 598.059 -0.732991 -0.0767686 0
M  V30 6086 H 600.701 -1.83335 0.498814 0
M  V30 6087 H 598.851 -3.7235 -1.10852 0
M  V30 6088 H 600.523 -4.39079 1.41447 0
M  V30 6089 H 598.766 -4.10723 1.39604 0
M  V30 6090 H 599.437 -5.49424 0.532662 0
M  V30 6091 H 601.913 -4.08663 -0.783198 0
M  V30 6092 H 600.789 -5.28962 -1.46596 0
M  V30 6093 H 601.05 -3.77051 -2.30836 0
M  V30 6094 N 600.109 -0.101901 -1.5727 0
M  V30 6095 C 601.356 0.560197 -1.94597 0
M  V30 6096 C 601.684 1.67767 -0.984101 0
M  V30 6097 O 600.939 1.95699 -0.00489193 0
M  V30 6098 C 601.238 1.14898 -3.38427 0
M  V30 6099 C 600.904 0.154613 -4.50635 0
M  V30 6100 C 599.566 -0.118861 -4.81053 0
M  V30 6101 C 601.918 -0.523979 -5.18559 0
M  V30 6102 C 599.246 -1.0775 -5.76721 0
M  V30 6103 C 601.598 -1.47114 -6.15256 0
M  V30 6104 C 600.262 -1.75278 -6.44076 0
M  V30 6105 H 599.532 0.204991 -0.712081 0
M  V30 6106 H 602.179 -0.17918 -1.9066 0
M  V30 6107 H 600.484 1.96476 -3.38976 0
M  V30 6108 H 602.181 1.66909 -3.64613 0
M  V30 6109 H 598.771 0.377948 -4.2693 0
M  V30 6110 H 602.955 -0.325851 -4.95229 0
M  V30 6111 H 598.211 -1.30263 -5.97362 0
M  V30 6112 H 602.385 -2.00274 -6.66981 0
M  V30 6113 H 600.012 -2.49717 -7.18015 0
M  V30 6114 N 601.587 1.56661 0.17182 0
M  V30 6115 C 602.864 1.72838 0.915778 0
M  V30 6116 C 603.244 0.66316 2.00413 0
M  V30 6117 O 602.592 -0.322123 2.26218 0
M  V30 6118 C 602.802 3.16019 1.48097 0
M  V30 6119 C 604.15 3.76962 1.95408 0
M  V30 6120 O 605.174 3.19294 1.57892 0
M  V30 6121 O 604.033 4.78219 2.64516 0
M  V30 6122 H 601.127 0.705797 0.431021 0
M  V30 6123 H 603.673 1.68947 0.159689 0
M  V30 6124 H 602.445 3.85031 0.697618 0
M  V30 6125 H 602.068 3.24234 2.30126 0
M  V30 6126 N 603.065 -0.440357 1.51323 0
M  V30 6127 C 603.995 -1.54174 1.75364 0
M  V30 6128 C 604.976 -1.59039 0.603375 0
M  V30 6129 O 606.161 -1.74815 0.845774 0
M  V30 6130 C 603.291 -2.92277 1.87593 0
M  V30 6131 C 602.245 -3.02274 3.03009 0
M  V30 6132 C 601.571 -4.42327 3.00418 0
M  V30 6133 C 602.871 -2.76634 4.43024 0
M  V30 6134 H 604.565 -1.34307 2.67585 0
M  V30 6135 H 602.111 -0.644678 1.28763 0
M  V30 6136 H 604.064 -3.69284 2.02995 0
M  V30 6137 H 602.788 -3.13369 0.920179 0
M  V30 6138 H 601.447 -2.27706 2.87307 0
M  V30 6139 H 601.095 -4.60382 2.02626 0
M  V30 6140 H 600.795 -4.49946 3.77918 0
M  V30 6141 H 602.319 -5.21312 3.17909 0
M  V30 6142 H 603.733 -3.43376 4.59093 0
M  V30 6143 H 602.13 -2.95666 5.22208 0
M  V30 6144 H 603.2 -1.72262 4.5327 0
M  V30 6145 N 604.543 -1.41418 -0.695603 0
M  V30 6146 C 605.768 -1.44329 -1.48942 0
M  V30 6147 C 606.193 -0.0501579 -1.88033 0
M  V30 6148 O 605.551 0.946598 -1.54626 0
M  V30 6149 C 605.599 -2.3578 -2.72837 0
M  V30 6150 O 604.703 -1.81482 -3.70322 0
M  V30 6151 H 604.044 -0.489838 -0.44828 0
M  V30 6152 H 606.574 -1.85878 -0.855014 0
M  V30 6153 H 606.584 -2.51654 -3.21145 0
M  V30 6154 H 605.259 -3.37005 -2.43722 0
M  V30 6155 H 603.836 -1.75058 -3.29255 0
M  V30 6156 N 606.021 0.929856 -1.27246 0
M  V30 6157 C 606.953 2.03434 -1.0558 0
M  V30 6158 C 607.966 1.62795 -0.0125762 0
M  V30 6159 O 609.155 1.76685 -0.2539 0
M  V30 6160 C 606.255 3.33915 -0.57912 0
M  V30 6161 C 605.428 4.03259 -1.69415 0
M  V30 6162 C 604.487 5.12014 -1.21357 0
M  V30 6163 O 603.513 5.36097 -1.91282 0
M  V30 6164 N 604.715 5.8046 -0.0680622 0
M  V30 6165 H 607.48 2.22583 -2.00691 0
M  V30 6166 H 605.041 1.1001 -1.18783 0
M  V30 6167 H 607.033 4.03978 -0.241563 0
M  V30 6168 H 605.603 3.11355 0.278703 0
M  V30 6169 H 604.823 3.26958 -2.20209 0
M  V30 6170 H 606.111 4.46337 -2.44255 0
M  V30 6171 H 605.509 5.63345 0.515626 0
M  V30 6172 H 604.066 6.51461 0.210332 0
M  V30 6173 N 607.499 1.09233 1.13605 0
M  V30 6174 C 608.409 0.741939 2.22559 0
M  V30 6175 C 609.425 -0.255236 1.72118 0
M  V30 6176 O 610.601 -0.0970747 2.01166 0
M  V30 6177 C 607.666 0.165595 3.46304 0
M  V30 6178 C 606.727 1.21846 4.11645 0
M  V30 6179 C 605.96 0.669526 5.29484 0
M  V30 6180 O 606.183 -0.508228 5.68131 0
M  V30 6181 O 605.117 1.42361 5.84822 0
M  V30 6182 H 608.943 1.65107 2.54899 0
M  V30 6183 H 606.528 0.866584 1.21699 0
M  V30 6184 H 608.41 -0.152592 4.21124 0
M  V30 6185 H 607.085 -0.716573 3.15669 0
M  V30 6186 H 605.992 1.58931 3.38662 0
M  V30 6187 H 607.325 2.07321 4.46407 0
M  V30 6188 N 608.977 -1.30795 0.87923 0
M  V30 6189 C 610.225 -1.95974 0.493809 0
M  V30 6190 C 610.546 -1.69787 -0.959021 0
M  V30 6191 O 609.816 -1.01832 -1.67353 0
M  V30 6192 H 608.396 -0.725083 0.179622 0
M  V30 6193 H 611.058 -1.59432 1.12105 0
M  V30 6194 H 610.154 -3.05058 0.659263 0
M  V30 6195 N 610.455 -0.639598 -1.44038 0
M  V30 6196 C 611.866 -0.228866 -1.85292 0
M  V30 6197 C 612.217 1.22161 -1.53529 0
M  V30 6198 O 611.342 1.93064 -0.977518 0
M  V30 6199 C 611.937 -0.408592 -3.36327 0
M  V30 6200 C 610.496 -0.0522953 -3.76364 0
M  V30 6201 C 609.643 -0.717959 -2.67844 0
M  V30 6202 H 612.594 -0.844194 -1.34384 0
M  V30 6203 H 612.615 0.349968 -3.78887 0
M  V30 6204 H 612.127 -1.46435 -3.59414 0
M  V30 6205 H 610.228 1.0014 -3.58891 0
M  V30 6206 H 610.341 -0.468261 -4.76806 0
M  V30 6207 H 608.705 -0.152459 -2.54243 0
M  V30 6208 H 609.488 -1.77648 -2.93762 0
M  V30 6209 N 611.933 1.52934 -0.380664 0
M  V30 6210 C 612.88 2.26197 0.458641 0
M  V30 6211 C 613.85 1.27462 1.06502 0
M  V30 6212 O 615.035 1.56274 1.09467 0
M  V30 6213 C 612.175 3.06571 1.58456 0
M  V30 6214 C 611.288 4.20222 1.00189 0
M  V30 6215 C 610.423 4.88007 2.09815 0
M  V30 6216 C 609.462 5.93665 1.49092 0
M  V30 6217 N 608.599 6.55081 2.52613 0
M  V30 6218 H 613.439 2.975 -0.172595 0
M  V30 6219 H 610.976 1.4678 -0.0969426 0
M  V30 6220 H 612.934 3.51455 2.24801 0
M  V30 6221 H 611.564 2.37494 2.18624 0
M  V30 6222 H 610.616 3.79714 0.228292 0
M  V30 6223 H 611.928 4.96102 0.518064 0
M  V30 6224 H 611.082 5.36151 2.83948 0
M  V30 6225 H 609.821 4.11632 2.61555 0
M  V30 6226 H 608.826 5.44868 0.7348 0
M  V30 6227 H 610.051 6.71969 0.981582 0
M  V30 6228 H 607.997 5.8155 3.03538 0
M  V30 6229 H 607.914 7.26548 2.08961 0
M  V30 6230 H 609.182 7.07871 3.26402 0
M  V30 6231 N 613.412 0.11024 1.57214 0
M  V30 6232 C 614.689 -0.592956 1.86396 0
M  V30 6233 C 615.069 -1.85379 1.00985 0
M  V30 6234 O 614.417 -2.28337 0.0863592 0
M  V30 6235 C 614.627 -0.893816 3.3736 0
M  V30 6236 C 615.975 -1.25069 4.05762 0
M  V30 6237 O 616.999 -0.984356 3.42329 0
M  V30 6238 O 615.858 -1.75017 5.17718 0
M  V30 6239 H 612.952 -0.29828 0.771335 0
M  V30 6240 H 615.498 0.144083 1.69087 0
M  V30 6241 H 614.27 2.6031e-05 3.913 0
M  V30 6242 H 613.893 -1.68631 3.60068 0
M  V30 6243 N 614.89 -1.56749 -0.16351 0
M  V30 6244 C 615.853 -1.96121 -1.18613 0
M  V30 6245 C 616.853 -0.845765 -1.36761 0
M  V30 6246 O 618.043 -1.11268 -1.34033 0
M  V30 6247 C 615.175 -2.26282 -2.54969 0
M  V30 6248 H 616.368 -2.87639 -0.848764 0
M  V30 6249 H 613.921 -1.50928 -0.406251 0
M  V30 6250 H 614.656 -1.37504 -2.93706 0
M  V30 6251 H 614.441 -3.07595 -2.43162 0
M  V30 6252 H 615.931 -2.57638 -3.28653 0
M  V30 6253 N 616.368 0.432326 -1.51554 0
M  V30 6254 C 617.298 1.53242 -1.76179 0
M  V30 6255 C 618.279 1.58717 -0.611801 0
M  V30 6256 O 619.464 1.74364 -0.855033 0
M  V30 6257 C 616.594 2.91278 -1.89141 0
M  V30 6258 C 615.548 3.00663 -3.04608 0
M  V30 6259 C 614.874 4.40728 -3.02759 0
M  V30 6260 C 616.174 2.74281 -4.44485 0
M  V30 6261 H 617.868 1.32886 -2.68294 0
M  V30 6262 H 615.414 0.637841 -1.29103 0
M  V30 6263 H 617.367 3.68203 -2.04951 0
M  V30 6264 H 616.091 3.12877 -0.936785 0
M  V30 6265 H 614.75 2.26179 -2.88511 0
M  V30 6266 H 614.398 4.59301 -2.05065 0
M  V30 6267 H 614.098 4.47936 -3.80299 0
M  V30 6268 H 615.622 5.19619 -3.20669 0
M  V30 6269 H 617.036 3.40936 -4.60907 0
M  V30 6270 H 615.433 2.92893 -5.23769 0
M  V30 6271 H 616.503 1.69856 -4.54177 0
M  V30 6272 N 617.846 1.41785 0.688094 0
M  V30 6273 C 618.756 1.46596 1.83158 0
M  V30 6274 C 619.772 0.355862 1.70322 0
M  V30 6275 O 620.948 0.604737 1.92106 0
M  V30 6276 C 618.013 1.35322 3.192 0
M  V30 6277 C 617.074 2.56711 3.4409 0
M  V30 6278 C 616.307 2.45965 4.73642 0
M  V30 6279 O 616.53 1.48827 5.50642 0
M  V30 6280 O 615.464 3.35859 4.99482 0
M  V30 6281 H 619.29 2.43083 1.82056 0
M  V30 6282 H 616.875 1.23404 0.842126 0
M  V30 6283 H 618.757 1.31347 4.00407 0
M  V30 6284 H 617.432 0.419536 3.2097 0
M  V30 6285 H 616.339 2.66262 2.62784 0
M  V30 6286 H 617.672 3.48933 3.47141 0
M  V30 6287 N 619.324 -0.923095 1.27737 0
M  V30 6288 C 620.254 -2.04124 1.13383 0
M  V30 6289 C 621.235 -1.70066 0.0340658 0
M  V30 6290 O 622.42 -1.93068 0.209383 0
M  V30 6291 C 619.55 -3.3831 0.785097 0
M  V30 6292 C 618.504 -3.86496 1.8386 0
M  V30 6293 C 617.83 -5.1754 1.34373 0
M  V30 6294 C 619.13 -4.09381 3.24353 0
M  V30 6295 H 620.824 -2.1639 2.06919 0
M  V30 6296 H 618.37 -1.03976 0.996243 0
M  V30 6297 H 620.323 -4.16016 0.671485 0
M  V30 6298 H 619.047 -3.2607 -0.185969 0
M  V30 6299 H 617.706 -3.10987 1.9412 0
M  V30 6300 H 617.354 -5.01696 0.361989 0
M  V30 6301 H 617.054 -5.50751 2.04811 0
M  V30 6302 H 618.578 -5.97811 1.24315 0
M  V30 6303 H 619.992 -4.77641 3.17067 0
M  V30 6304 H 618.389 -4.53906 3.92542 0
M  V30 6305 H 619.459 -3.14515 3.69064 0
M  V30 6306 N 620.802 -1.09834 -1.13024 0
M  V30 6307 C 622.032 -0.857657 -1.87957 0
M  V30 6308 C 622.44 0.595008 -1.796 0
M  V30 6309 O 621.783 1.42158 -1.16347 0
M  V30 6310 C 621.845 -1.21949 -3.38185 0
M  V30 6311 C 621.509 -2.67791 -3.7032 0
M  V30 6312 C 622.506 -3.66036 -3.69207 0
M  V30 6313 C 620.191 -3.04019 -3.99847 0
M  V30 6314 C 622.185 -4.98533 -3.9717 0
M  V30 6315 C 619.872 -4.36706 -4.27471 0
M  V30 6316 C 620.87 -5.33772 -4.26118 0
M  V30 6317 O 620.558 -6.64072 -4.53061 0
M  V30 6318 H 620.29 -0.308009 -0.601753 0
M  V30 6319 H 622.844 -1.46496 -1.43973 0
M  V30 6320 H 621.074 -0.555249 -3.82693 0
M  V30 6321 H 622.763 -0.957281 -3.9445 0
M  V30 6322 H 623.529 -3.39392 -3.46465 0
M  V30 6323 H 619.408 -2.29096 -4.00045 0
M  V30 6324 H 622.952 -5.74288 -3.96029 0
M  V30 6325 H 618.849 -4.63091 -4.49685 0
M  V30 6326 H 619.617 -6.69608 -4.7071 0
M  V30 6327 N 622.28 1.30327 -0.886154 0
M  V30 6328 C 623.696 1.48676 -0.580323 0
M  V30 6329 C 623.896 1.81189 0.881639 0
M  V30 6330 O 622.952 1.90021 1.66278 0
M  V30 6331 C 624.265 2.60932 -1.49449 0
M  V30 6332 C 625.813 2.74812 -1.49824 0
M  V30 6333 C 626.288 3.90183 -2.39836 0
M  V30 6334 N 627.779 3.97495 -2.37806 0
M  V30 6335 C 628.514 4.86078 -3.04165 0
M  V30 6336 N 628.01 5.79448 -3.79753 0
M  V30 6337 N 629.803 4.79456 -2.93391 0
M  V30 6338 H 621.954 1.07495 -1.8319 0
M  V30 6339 H 624.217 0.532661 -0.784204 0
M  V30 6340 H 623.923 2.43731 -2.5355 0
M  V30 6341 H 623.797 3.57437 -1.20494 0
M  V30 6342 H 626.184 2.91418 -0.464731 0
M  V30 6343 H 626.265 1.78924 -1.82811 0
M  V30 6344 H 625.909 3.74334 -3.43273 0
M  V30 6345 H 625.839 4.85411 -2.04166 0
M  V30 6346 H 628.33 3.30703 -1.82877 0
M  V30 6347 H 628.643 6.43805 -4.27475 0
M  V30 6348 H 626.988 5.79376 -3.8386 0
M  V30 6349 H 630.179 4.05494 -2.33864 0
M  V30 6350 H 630.352 5.48283 -3.45383 0
M  V30 6351 N 623.758 0.647228 1.43697 0
M  V30 6352 C 624.705 -0.0480092 2.3075 0
M  V30 6353 C 625.675 -0.820705 1.44408 0
M  V30 6354 O 626.86 -0.798515 1.73287 0
M  V30 6355 C 624 -1.01259 3.2991 0
M  V30 6356 C 623.113 -0.236629 4.31351 0
M  V30 6357 C 622.248 -1.19447 5.17596 0
M  V30 6358 C 621.287 -0.408595 6.10735 0
M  V30 6359 N 620.424 -1.31772 6.89623 0
M  V30 6360 H 625.264 0.700238 2.89656 0
M  V30 6361 H 622.801 0.357082 1.427 0
M  V30 6362 H 624.759 -1.58538 3.85903 0
M  V30 6363 H 623.389 -1.72778 2.72667 0
M  V30 6364 H 622.441 0.452353 3.77701 0
M  V30 6365 H 623.753 0.374731 4.9739 0
M  V30 6366 H 622.907 -1.83809 5.78186 0
M  V30 6367 H 621.646 -1.83975 4.51669 0
M  V30 6368 H 620.651 0.24841 5.49239 0
M  V30 6369 H 621.876 0.232188 6.78703 0
M  V30 6370 H 619.822 -1.94991 6.2635 0
M  V30 6371 H 619.739 -0.760779 7.52162 0
M  V30 6372 H 621.007 -1.94967 7.54724 0
M  V30 6373 N 625.236 -1.5273 0.388769 0
M  V30 6374 C 626.482 -2.01871 -0.193877 0
M  V30 6375 C 626.815 -1.27475 -1.46505 0
M  V30 6376 O 626.09 -0.375063 -1.90849 0
M  V30 6377 C 626.373 -3.5712 -0.462336 0
M  V30 6378 C 626.226 -4.42186 0.824091 0
M  V30 6379 C 627.545 -4.21881 -1.25319 0
M  V30 6380 H 624.664 -0.733764 -0.0689899 0
M  V30 6381 H 627.306 -1.82796 0.518231 0
M  V30 6382 H 625.456 -3.73504 -1.06896 0
M  V30 6383 H 627.128 -4.37554 1.46096 0
M  V30 6384 H 625.371 -4.09219 1.43952 0
M  V30 6385 H 626.042 -5.48828 0.590905 0
M  V30 6386 H 628.518 -4.0947 -0.73981 0
M  V30 6387 H 627.394 -5.30487 -1.40977 0
M  V30 6388 H 627.655 -3.79478 -2.26824 0
M  V30 6389 N 626.714 -0.118576 -1.57153 0
M  V30 6390 C 628.125 0.40687 -1.82213 0
M  V30 6391 C 628.476 1.66636 -1.03571 0
M  V30 6392 O 627.601 2.14682 -0.272171 0
M  V30 6393 C 628.196 0.744949 -3.30509 0
M  V30 6394 C 626.755 1.21503 -3.5625 0
M  V30 6395 C 625.902 0.223511 -2.76398 0
M  V30 6396 H 628.853 -0.343712 -1.54933 0
M  V30 6397 H 628.874 1.6024 -3.45114 0
M  V30 6398 H 628.386 -0.171911 -3.87719 0
M  V30 6399 H 626.487 2.1488 -3.04396 0
M  V30 6400 H 626.6 1.16065 -4.64829 0
M  V30 6401 H 624.964 0.71046 -2.44591 0
M  V30 6402 H 625.747 -0.686439 -3.36367 0
M  V30 6403 N 628.193 1.56834 0.155195 0
M  V30 6404 C 629.141 1.98584 1.21107 0
M  V30 6405 C 630.135 0.876987 1.44932 0
M  V30 6406 O 631.341 1.06215 1.45322 0
M  V30 6407 H 627.716 0.632039 0.407469 0
M  V30 6408 H 629.687 2.86561 0.832195 0
M  V30 6409 C 628.436 2.37555 2.53895 0
M  V30 6410 H 627.759 3.22428 2.3639 0
M  V30 6411 H 629.199 2.70598 3.26424 0
M  V30 6412 C 627.658 1.22507 3.13837 0
M  V30 6413 O 628.188 0.521388 3.98302 0
M  V30 6414 N 626.394 0.991444 2.73164 0
M  V30 6415 H 625.941 1.56544 2.04577 0
M  V30 6416 H 625.899 0.223546 3.13604 0
M  V30 6417 N 629.671 -0.424282 1.51781 0
M  V30 6418 C 630.601 -1.52305 1.7699 0
M  V30 6419 C 631.582 -1.5839 0.620209 0
M  V30 6420 O 632.767 -1.73908 0.864268 0
M  V30 6421 C 629.897 -2.90271 1.90683 0
M  V30 6422 C 628.851 -2.99043 3.06198 0
M  V30 6423 C 628.177 -4.39116 3.05092 0
M  V30 6424 C 629.477 -2.7192 4.45934 0
M  V30 6425 H 631.171 -1.31461 2.68995 0
M  V30 6426 H 628.717 -0.630985 1.29439 0
M  V30 6427 H 630.67 -3.6711 2.06901 0
M  V30 6428 H 629.394 -3.12376 0.953365 0
M  V30 6429 H 628.053 -2.24646 2.89706 0
M  V30 6430 H 627.701 -4.58207 2.07498 0
M  V30 6431 H 627.401 -4.45912 3.82669 0
M  V30 6432 H 628.925 -5.17911 3.2342 0
M  V30 6433 H 630.339 -3.38487 4.62709 0
M  V30 6434 H 628.736 -2.90111 5.25315 0
M  V30 6435 H 629.806 -1.67445 4.55072 0
M  V30 6436 N 631.149 -1.42148 -0.680565 0
M  V30 6437 C 632.565 -1.24947 -0.992995 0
M  V30 6438 C 632.765 -0.149527 -2.00944 0
M  V30 6439 O 631.821 0.481145 -2.47873 0
M  V30 6440 C 633.134 -2.60426 -1.5033 0
M  V30 6441 C 634.682 -2.67733 -1.62137 0
M  V30 6442 C 635.157 -4.03564 -2.16565 0
M  V30 6443 N 636.648 -4.05488 -2.23905 0
M  V30 6444 C 637.383 -5.07401 -2.67081 0
M  V30 6445 N 636.879 -6.19698 -3.09751 0
M  V30 6446 N 638.672 -4.94758 -2.66778 0
M  V30 6447 H 630.823 -2.12399 -0.0074788 0
M  V30 6448 H 633.086 -0.94571 -0.0658529 0
M  V30 6449 H 632.792 -3.41743 -0.830947 0
M  V30 6450 H 632.666 -2.83949 -2.483 0
M  V30 6451 H 635.053 -1.86765 -2.2848 0
M  V30 6452 H 635.134 -2.48004 -0.626713 0
M  V30 6453 H 634.778 -4.84987 -1.50833 0
M  V30 6454 H 634.708 -4.20641 -3.1681 0
M  V30 6455 H 637.199 -3.24415 -1.93812 0
M  V30 6456 H 637.512 -6.93318 -3.41365 0
M  V30 6457 H 635.857 -6.23212 -3.07623 0
M  V30 6458 H 639.048 -4.06105 -2.32801 0
M  V30 6459 H 639.221 -5.74317 -3.00107 0
M  V30 6460 N 632.627 0.916307 -1.28225 0
M  V30 6461 C 633.876 1.65975 -1.14608 0
M  V30 6462 C 634.189 1.93204 0.305191 0
M  V30 6463 O 635.395 2.65611 0.562432 0
M  V30 6464 C 633.851 2.98989 -2.00333 0
M  V30 6465 C 633.459 2.79417 -3.50186 0
M  V30 6466 C 635.203 3.76856 -1.95397 0
M  V30 6467 C 633.11 4.08056 -4.28071 0
M  V30 6468 H 632.04 0.622587 -0.425324 0
M  V30 6469 H 634.691 1.01705 -1.52736 0
M  V30 6470 H 633.073 3.6438 -1.5506 0
M  V30 6471 H 634.247 2.22723 -4.034 0
M  V30 6472 H 632.562 2.14966 -3.56621 0
M  V30 6473 H 635.159 4.72203 -2.50856 0
M  V30 6474 H 635.502 4.05776 -0.930137 0
M  V30 6475 H 636.035 3.1828 -2.38626 0
M  V30 6476 H 632.774 3.8431 -5.31024 0
M  V30 6477 H 632.294 4.64371 -3.79631 0
M  V30 6478 H 633.973 4.76333 -4.37854 0
M  V30 6479 N 634.105 1.10431 1.1244 0
M  V30 6480 C 635.035 0.775143 2.20258 0
M  V30 6481 C 636.016 -0.25186 1.68225 0
M  V30 6482 O 637.201 -0.117637 1.93843 0
M  V30 6483 C 634.331 0.206133 3.46688 0
M  V30 6484 C 633.285 1.16382 4.11873 0
M  V30 6485 C 632.611 0.456014 5.32752 0
M  V30 6486 C 633.911 2.5104 4.58013 0
M  V30 6487 H 635.605 1.67665 2.4805 0
M  V30 6488 H 633.151 0.807595 1.19222 0
M  V30 6489 H 635.104 -0.036291 4.21384 0
M  V30 6490 H 633.828 -0.730614 3.18323 0
M  V30 6491 H 632.487 1.39169 3.39157 0
M  V30 6492 H 632.135 -0.485203 5.00654 0
M  V30 6493 H 631.835 1.09466 5.77314 0
M  V30 6494 H 633.359 0.222135 6.10196 0
M  V30 6495 H 634.773 2.32401 5.24083 0
M  V30 6496 H 633.17 3.10789 5.13352 0
M  V30 6497 H 634.24 3.11039 3.71998 0
M  V30 6498 N 635.583 -1.29855 0.893053 0
M  V30 6499 C 636.546 -2.26183 0.370687 0
M  V30 6500 C 637.546 -1.53108 -0.491385 0
M  V30 6501 O 638.736 -1.71643 -0.297386 0
M  V30 6502 C 635.868 -3.37633 -0.470827 0
M  V30 6503 H 637.061 -2.73903 1.22135 0
M  V30 6504 H 634.614 -1.41183 0.67061 0
M  V30 6505 H 635.349 -2.95241 -1.34175 0
M  V30 6506 H 635.134 -3.91825 0.146784 0
M  V30 6507 H 636.624 -4.09313 -0.827825 0
M  V30 6508 N 637.061 -0.65484 -1.43351 0
M  V30 6509 C 638.301 -0.172514 -2.03671 0
M  V30 6510 C 638.665 1.19154 -1.50553 0
M  V30 6511 O 639.866 1.76737 -2.02528 0
M  V30 6512 C 638.137 -0.183982 -3.56926 0
M  V30 6513 S 639.696 0.230262 -4.38195 0
M  V30 6514 H 636.514 -0.0727503 -0.707268 0
M  V30 6515 H 639.116 -0.863537 -1.75395 0
M  V30 6516 H 637.82 -1.17945 -3.93087 0
M  V30 6517 H 637.351 0.527527 -3.89847 0
M  V30 6518 H 639.366 1.46874 -4.73965 0
M  V30 6519 N 638.539 1.52521 -0.396863 0
M  V30 6520 C 639.787 2.01274 0.182536 0
M  V30 6521 C 640.108 1.28485 1.46685 0
M  V30 6522 O 639.378 0.407134 1.91623 0
M  V30 6523 H 637.958 0.743671 0.0704442 0
M  V30 6524 H 640.62 1.87547 -0.530289 0
M  V30 6525 H 639.716 3.09687 0.387385 0
M  V30 6526 N 640.017 0.126909 1.57088 0
M  V30 6527 C 641.265 -0.528123 1.95078 0
M  V30 6528 C 641.586 -1.66708 1.0116 0
M  V30 6529 O 640.856 -1.95777 0.0693527 0
M  V30 6530 H 639.436 -0.198087 0.720257 0
M  V30 6531 H 642.098 0.197703 1.93895 0
M  V30 6532 H 641.194 -0.917507 2.98309 0
M  V30 6533 N 641.495 -1.56914 -0.146875 0
M  V30 6534 C 642.772 -1.74273 -0.888165 0
M  V30 6535 C 643.152 -0.69496 -1.99333 0
M  V30 6536 O 642.5 0.286093 -2.26702 0
M  V30 6537 C 642.71 -3.18336 -1.43051 0
M  V30 6538 C 644.058 -3.80024 -1.89387 0
M  V30 6539 O 645.082 -3.21765 -1.52792 0
M  V30 6540 O 643.941 -4.82367 -2.56874 0
M  V30 6541 H 641.035 -0.712565 -0.419738 0
M  V30 6542 H 643.581 -1.6918 -0.132791 0
M  V30 6543 H 642.353 -3.86092 -0.636274 0
M  V30 6544 H 641.976 -3.27854 -2.24938 0
M  V30 6545 N 642.974 0.416227 -1.52004 0
M  V30 6546 C 644.222 1.16153 -1.65387 0
M  V30 6547 C 644.543 1.91208 -0.382669 0
M  V30 6548 O 643.813 1.86413 0.602231 0
M  V30 6549 H 642.393 0.431765 -0.60958 0
M  V30 6550 H 645.055 0.475151 -1.89019 0
M  V30 6551 H 644.151 1.87952 -2.4916 0
M  V30 6552 N 644.452 1.42507 0.673017 0
M  V30 6553 C 645.68 1.46473 1.46128 0
M  V30 6554 C 646.095 0.0765912 1.88645 0
M  V30 6555 O 645.452 -0.909057 1.58248 0
M  V30 6556 C 645.503 2.39339 2.70923 0
M  V30 6557 O 645.224 3.72752 2.3019 0
M  V30 6558 C 646.725 2.52343 3.64469 0
M  V30 6559 H 643.945 0.49812 0.449575 0
M  V30 6560 H 646.489 1.87041 0.826802 0
M  V30 6561 H 644.644 2.02019 3.30556 0
M  V30 6562 H 645.058 4.22503 3.10791 0
M  V30 6563 H 646.532 3.2144 4.48754 0
M  V30 6564 H 647.009 1.56189 4.1049 0
M  V30 6565 H 647.615 2.90392 3.10729 0
M  V30 6566 N 645.93 -0.909495 1.28709 0
M  V30 6567 C 647.176 -1.66151 1.16283 0
M  V30 6568 C 647.509 -1.92067 -0.287069 0
M  V30 6569 O 646.784 -1.52409 -1.20837 0
M  V30 6570 C 647.067 -3.01676 1.9663 0
M  V30 6571 C 646.92 -2.82888 3.49707 0
M  V30 6572 C 648.239 -4.02274 1.78504 0
M  V30 6573 H 645.358 -0.602966 0.423793 0
M  V30 6574 H 648 -1.05418 1.58073 0
M  V30 6575 H 646.15 -3.53515 1.61119 0
M  V30 6576 H 647.822 -2.38026 3.95147 0
M  V30 6577 H 646.065 -2.17862 3.75125 0
M  V30 6578 H 646.736 -3.79147 4.01187 0
M  V30 6579 H 649.212 -3.59511 2.09503 0
M  V30 6580 H 648.088 -4.95056 2.37088 0
M  V30 6581 H 648.349 -4.35903 0.737647 0
M  V30 6582 N 647.408 -1.11026 -1.11852 0
M  V30 6583 C 648.656 -0.854769 -1.83134 0
M  V30 6584 C 648.977 0.621375 -1.84835 0
M  V30 6585 O 648.247 1.45129 -1.31584 0
M  V30 6586 H 646.827 -0.313229 -0.678157 0
M  V30 6587 H 649.489 -1.40178 -1.35411 0
M  V30 6588 H 648.585 -1.22311 -2.87135 0
M  V30 6589 N 648.886 1.2938 -0.899927 0
M  V30 6590 C 650.132 1.96206 -0.536153 0
M  V30 6591 C 650.487 1.69647 0.90761 0
M  V30 6592 O 649.78 0.999089 1.63489 0
M  V30 6593 C 649.974 3.49114 -0.765113 0
M  V30 6594 C 649.803 3.90538 -2.22958 0
M  V30 6595 C 648.573 4.15395 -2.87706 0
M  V30 6596 C 650.771 4.0224 -3.20479 0
M  V30 6597 N 648.753 4.43389 -4.24593 0
M  V30 6598 C 650.124 4.34288 -4.42486 0
M  V30 6599 C 652.179 3.84716 -3.16066 0
M  V30 6600 C 650.882 4.50638 -5.6064 0
M  V30 6601 C 652.908 4.02276 -4.33507 0
M  V30 6602 C 652.27 4.34684 -5.54283 0
M  V30 6603 H 648.369 0.742364 -0.245804 0
M  V30 6604 H 650.953 1.56314 -1.16078 0
M  V30 6605 H 649.124 3.88028 -0.169861 0
M  V30 6606 H 650.856 4.03035 -0.366751 0
M  V30 6607 H 647.611 4.09164 -2.385 0
M  V30 6608 H 648.035 4.61494 -4.95331 0
M  V30 6609 H 652.677 3.58724 -2.23778 0
M  V30 6610 H 650.395 4.75467 -6.5342 0
M  V30 6611 H 653.981 3.90169 -4.31578 0
M  V30 6612 H 652.861 4.47988 -6.43643 0
M  V30 6613 N 650.364 0.662433 1.43002 0
M  V30 6614 C 651.613 0.176873 2.00923 0
M  V30 6615 C 651.926 -1.21954 1.52927 0
M  V30 6616 O 653.132 -1.80081 2.03182 0
M  V30 6617 C 651.588 0.265379 3.5892 0
M  V30 6618 C 651.196 1.66507 4.15908 0
M  V30 6619 C 652.94 -0.162103 4.2419 0
M  V30 6620 C 650.847 1.707 5.66229 0
M  V30 6621 H 649.777 0.0623627 0.751417 0
M  V30 6622 H 652.428 0.825813 1.63868 0
M  V30 6623 H 650.81 -0.451235 3.93421 0
M  V30 6624 H 651.984 2.40777 3.92891 0
M  V30 6625 H 650.299 2.03932 3.63044 0
M  V30 6626 H 652.896 -0.150745 5.34487 0
M  V30 6627 H 653.239 -1.19519 3.98774 0
M  V30 6628 H 653.772 0.503075 3.94606 0
M  V30 6629 H 650.511 2.7195 5.96426 0
M  V30 6630 H 650.031 1.00768 5.91275 0
M  V30 6631 H 651.71 1.45487 6.3043 0
M  V30 6632 N 651.842 -1.52309 0.404946 0
M  V30 6633 C 652.772 -2.29805 -0.41376 0
M  V30 6634 C 653.753 -1.3384 -1.0498 0
M  V30 6635 O 654.938 -1.62745 -1.05961 0
M  V30 6636 C 652.068 -3.11639 -1.53292 0
M  V30 6637 C 651.022 -4.15616 -1.02211 0
M  V30 6638 C 650.348 -4.8577 -2.23455 0
M  V30 6639 C 651.648 -5.2224 -0.0790725 0
M  V30 6640 H 653.342 -2.98493 0.232878 0
M  V30 6641 H 650.888 -1.43552 0.113441 0
M  V30 6642 H 652.841 -3.64618 -2.11262 0
M  V30 6643 H 651.565 -2.40712 -2.20738 0
M  V30 6644 H 650.224 -3.63641 -0.46484 0
M  V30 6645 H 649.872 -4.11376 -2.89445 0
M  V30 6646 H 649.572 -5.56058 -1.89929 0
M  V30 6647 H 651.096 -5.4156 -2.82038 0
M  V30 6648 H 652.51 -5.70485 -0.567438 0
M  V30 6649 H 650.907 -5.99867 0.167167 0
M  V30 6650 H 651.977 -4.77078 0.867447 0
M  V30 6651 N 653.32 -0.135238 -1.57019 0
M  V30 6652 C 654.545 0.529343 -2.00531 0
M  V30 6653 C 654.97 1.58391 -1.01459 0
M  V30 6654 O 654.328 1.81296 0.0113986 0
M  V30 6655 C 654.376 1.11748 -3.42848 0
M  V30 6656 O 653.48 2.23267 -3.46736 0
M  V30 6657 H 652.821 0.130669 -0.651016 0
M  V30 6658 H 655.351 -0.228503 -2.0332 0
M  V30 6659 H 655.361 1.44905 -3.81401 0
M  V30 6660 H 654.036 0.345147 -4.14465 0
M  V30 6661 H 652.613 1.91428 -3.20015 0
M  V30 6662 N 654.798 1.5699 0.138552 0
M  V30 6663 C 656.047 1.82998 0.848205 0
M  V30 6664 C 656.36 0.717829 1.81952 0
M  V30 6665 O 657.566 0.863756 2.57394 0
M  V30 6666 C 656.022 3.24379 1.55904 0
M  V30 6667 C 655.63 4.43552 0.62971 0
M  V30 6668 C 657.374 3.59654 2.25498 0
M  V30 6669 C 655.281 5.75957 1.34266 0
M  V30 6670 H 654.211 0.682495 0.320495 0
M  V30 6671 H 656.862 1.83222 0.100924 0
M  V30 6672 H 655.244 3.18567 2.35226 0
M  V30 6673 H 656.418 4.6062 -0.128882 0
M  V30 6674 H 654.733 4.16379 0.0417526 0
M  V30 6675 H 657.33 4.55837 2.79493 0
M  V30 6676 H 657.673 2.86124 3.02388 0
M  V30 6677 H 658.206 3.67164 1.53087 0
M  V30 6678 H 654.945 6.52604 0.615441 0
M  V30 6679 H 654.465 5.62811 2.07375 0
M  V30 6680 H 656.144 6.19046 1.88126 0
M  V30 6681 N 656.276 -0.40816 1.52223 0
M  V30 6682 C 657.206 -1.5042 1.78595 0
M  V30 6683 C 658.187 -1.57723 0.636974 0
M  V30 6684 O 659.372 -1.72982 0.882664 0
M  V30 6685 C 656.502 -2.88232 1.93751 0
M  V30 6686 C 655.456 -2.95779 3.09352 0
M  V30 6687 C 654.782 -4.35855 3.09732 0
M  V30 6688 C 656.082 -2.67175 4.48793 0
M  V30 6689 H 657.776 -1.28601 2.70374 0
M  V30 6690 H 655.322 -0.617221 1.30101 0
M  V30 6691 H 657.275 -3.64895 2.10783 0
M  V30 6692 H 655.999 -3.11347 0.986443 0
M  V30 6693 H 654.658 -2.21561 2.92072 0
M  V30 6694 H 654.306 -4.55981 2.12346 0
M  V30 6695 H 654.006 -4.41829 3.87377 0
M  V30 6696 H 655.53 -5.14451 3.28895 0
M  V30 6697 H 656.944 -3.3356 4.66273 0
M  V30 6698 H 655.341 -2.84523 5.28362 0
M  V30 6699 H 656.411 -1.62609 4.56822 0
M  V30 6700 N 657.755 -1.42862 -0.66545 0
M  V30 6701 C 659.032 -1.3431 -1.42197 0
M  V30 6702 C 659.412 0.0150265 -2.11095 0
M  V30 6703 O 658.76 1.03101 -2.03918 0
M  V30 6704 C 658.97 -2.51783 -2.41674 0
M  V30 6705 C 660.318 -2.94321 -3.0604 0
M  V30 6706 O 661.342 -2.51741 -2.52001 0
M  V30 6707 O 660.201 -3.68047 -4.03985 0
M  V30 6708 H 657.295 -0.530159 -0.634713 0
M  V30 6709 H 659.841 -1.54888 -0.693386 0
M  V30 6710 H 658.613 -3.42282 -1.89627 0
M  V30 6711 H 658.236 -2.33241 -3.22001 0
M  V30 6712 N 659.233 0.902656 -1.29189 0
M  V30 6713 C 660.143 2.03946 -1.15944 0
M  V30 6714 C 661.159 1.738 -0.0833803 0
M  V30 6715 O 662.335 1.9923 -0.29487 0
M  V30 6716 C 659.4 3.36519 -0.834006 0
M  V30 6717 C 658.461 3.80203 -1.9936 0
M  V30 6718 C 657.694 5.06449 -1.68359 0
M  V30 6719 O 657.917 5.67202 -0.603141 0
M  V30 6720 O 656.851 5.46114 -2.53067 0
M  V30 6721 H 660.677 2.18043 -2.11403 0
M  V30 6722 H 658.262 1.02584 -1.08613 0
M  V30 6723 H 660.144 4.16089 -0.666949 0
M  V30 6724 H 658.819 3.23573 0.0908245 0
M  V30 6725 H 657.726 3.01413 -2.21588 0
M  V30 6726 H 659.059 3.97729 -2.89952 0
M  V30 6727 N 660.711 1.11618 1.11262 0
M  V30 6728 C 661.641 0.79846 2.19424 0
M  V30 6729 C 662.622 -0.234003 1.68483 0
M  V30 6730 O 663.807 -0.0970704 1.93957 0
M  V30 6731 C 660.937 0.242892 3.4645 0
M  V30 6732 C 659.891 1.20744 4.10615 0
M  V30 6733 C 659.217 0.512494 5.32238 0
M  V30 6734 C 660.517 2.55884 4.55325 0
M  V30 6735 H 662.211 1.70286 2.46258 0
M  V30 6736 H 659.757 0.820195 1.18359 0
M  V30 6737 H 661.71 0.00840447 4.21399 0
M  V30 6738 H 660.434 -0.696811 3.1908 0
M  V30 6739 H 659.093 1.42759 3.37662 0
M  V30 6740 H 658.741 -0.432075 5.01141 0
M  V30 6741 H 658.441 1.15583 5.7612 0
M  V30 6742 H 659.965 0.286842 6.09926 0
M  V30 6743 H 661.379 2.37946 5.21588 0
M  V30 6744 H 659.776 3.16216 5.10027 0
M  V30 6745 H 660.846 3.14968 3.68678 0
M  V30 6746 N 662.189 -1.289 0.906776 0
M  V30 6747 C 663.121 -2.26556 0.347159 0
M  V30 6748 C 664.134 -1.54589 -0.51049 0
M  V30 6749 O 665.323 -1.75489 -0.326501 0
M  V30 6750 C 662.423 -3.3484 -0.523024 0
M  V30 6751 C 661.596 -4.36296 0.310515 0
M  V30 6752 C 660.655 -5.23879 -0.493634 0
M  V30 6753 O 659.681 -5.69127 0.0913569 0
M  V30 6754 N 660.883 -5.51946 -1.7982 0
M  V30 6755 H 663.648 -2.75212 1.18652 0
M  V30 6756 H 661.209 -1.42309 0.771996 0
M  V30 6757 H 663.201 -3.90366 -1.06756 0
M  V30 6758 H 661.771 -2.85946 -1.26309 0
M  V30 6759 H 660.991 -3.80331 1.03644 0
M  V30 6760 H 662.279 -5.01113 0.881106 0
M  V30 6761 H 661.677 -5.17006 -2.2961 0
M  V30 6762 H 660.234 -6.10258 -2.28971 0
M  V30 6763 N 663.667 -0.670007 -1.42649 0
M  V30 6764 C 664.597 -0.00258501 -2.335 0
M  V30 6765 C 665.578 0.794364 -1.50412 0
M  V30 6766 O 666.763 0.75248 -1.79029 0
M  V30 6767 C 663.893 0.952748 -3.33976 0
M  V30 6768 C 662.847 0.264733 -4.2718 0
M  V30 6769 C 662.173 1.33267 -5.17826 0
M  V30 6770 C 663.473 -0.853289 -5.15283 0
M  V30 6771 H 665.167 -0.761326 -2.89559 0
M  V30 6772 H 662.713 -0.367561 -1.3923 0
M  V30 6773 H 664.666 1.4287 -3.96442 0
M  V30 6774 H 663.39 1.74285 -2.7621 0
M  V30 6775 H 662.049 -0.190938 -3.66102 0
M  V30 6776 H 661.697 2.11464 -4.5639 0
M  V30 6777 H 661.397 0.877476 -5.81011 0
M  V30 6778 H 662.921 1.80965 -5.83167 0
M  V30 6779 H 664.335 -0.458763 -5.71462 0
M  V30 6780 H 662.732 -1.23398 -5.87276 0
M  V30 6781 H 663.802 -1.70412 -4.53969 0
M  V30 6782 N 665.145 1.52092 -0.413018 0
M  V30 6783 C 666.37 2.06756 0.163338 0
M  V30 6784 C 666.795 1.28073 1.37764 0
M  V30 6785 O 666.153 0.312015 1.78595 0
M  V30 6786 C 666.201 3.57278 0.488322 0
M  V30 6787 O 665.305 3.80986 1.57871 0
M  V30 6788 H 664.646 0.663882 0.0125068 0
M  V30 6789 H 667.176 1.95988 -0.587339 0
M  V30 6790 H 667.186 4.01125 0.745836 0
M  V30 6791 H 665.861 4.13978 -0.399327 0
M  V30 6792 H 664.438 3.49017 1.31306 0
M  V30 6793 N 666.623 0.143563 1.56945 0
M  V30 6794 C 668.034 -0.37783 1.82837 0
M  V30 6795 C 668.385 -1.64967 1.06209 0
M  V30 6796 O 667.51 -2.14221 0.306291 0
M  V30 6797 C 668.105 -0.692274 3.31652 0
M  V30 6798 C 666.664 -1.1582 3.58138 0
M  V30 6799 C 665.811 -0.17951 2.76718 0
M  V30 6800 H 668.762 0.368317 1.54367 0
M  V30 6801 H 668.783 -1.54729 3.47619 0
M  V30 6802 H 668.295 0.233572 3.87397 0
M  V30 6803 H 666.396 -2.10011 3.07776 0
M  V30 6804 H 666.509 -1.08655 4.66616 0
M  V30 6805 H 664.873 -0.671458 2.4569 0
M  V30 6806 H 665.656 0.739865 3.35233 0
M  V30 6807 N 668.101 -1.57061 -0.130224 0
M  V30 6808 C 669.033 -1.96147 -1.18571 0
M  V30 6809 C 670.046 -0.859347 -1.38272 0
M  V30 6810 O 671.235 -1.13769 -1.37545 0
M  V30 6811 C 668.335 -2.23484 -2.54771 0
M  V30 6812 C 667.508 -3.54786 -2.55824 0
M  V30 6813 C 666.567 -3.70467 -3.73686 0
M  V30 6814 O 665.593 -4.42693 -3.57787 0
M  V30 6815 N 666.795 -3.08389 -4.91809 0
M  V30 6816 H 669.56 -2.87295 -0.853333 0
M  V30 6817 H 667.121 -1.58714 -0.319621 0
M  V30 6818 H 669.113 -2.312 -3.32158 0
M  V30 6819 H 667.683 -1.38518 -2.80235 0
M  V30 6820 H 666.903 -3.5836 -1.64232 0
M  V30 6821 H 668.191 -4.4111 -2.53573 0
M  V30 6822 H 667.589 -2.49656 -5.0763 0
M  V30 6823 H 666.146 -3.21642 -5.66912 0
M  V30 6824 N 669.579 0.400081 -1.52437 0
M  V30 6825 C 670.99 0.97851 -1.59003 0
M  V30 6826 C 671.341 1.91293 -0.436068 0
M  V30 6827 O 670.466 2.1183 0.442365 0
M  V30 6828 C 671.061 1.78145 -2.88184 0
M  V30 6829 C 669.62 2.30976 -2.97199 0
M  V30 6830 C 668.767 1.11212 -2.54022 0
M  V30 6831 H 671.718 0.180002 -1.57676 0
M  V30 6832 H 671.739 2.63968 -2.74046 0
M  V30 6833 H 671.251 1.1011 -3.72152 0
M  V30 6834 H 669.352 3.02355 -2.17744 0
M  V30 6835 H 669.465 2.61221 -4.01622 0
M  V30 6836 H 667.829 1.46882 -2.08081 0
M  V30 6837 H 668.612 0.447307 -3.40373 0
M  V30 6838 N 671.057 1.43213 0.657864 0
M  V30 6839 C 672.468 1.39669 1.23893 0
M  V30 6840 C 672.819 0.0984217 1.95953 0
M  V30 6841 O 671.944 -0.8023 2.00978 0
M  V30 6842 C 672.539 2.53004 2.25332 0
M  V30 6843 C 671.098 2.5274 2.78926 0
M  V30 6844 C 670.245 2.30941 1.53497 0
M  V30 6845 H 673.196 1.52181 0.450172 0
M  V30 6846 H 673.217 2.24226 3.07413 0
M  V30 6847 H 672.729 3.4748 1.72856 0
M  V30 6848 H 670.83 1.6213 3.35477 0
M  V30 6849 H 670.943 3.50352 3.26787 0
M  V30 6850 H 669.307 1.7952 1.80678 0
M  V30 6851 H 670.09 3.27496 1.02963 0
M  V30 6852 N 672.536 -0.895792 1.29666 0
M  V30 6853 C 673.782 -1.64908 1.18039 0
M  V30 6854 C 674.115 -1.9236 -0.266682 0
M  V30 6855 O 673.39 -1.53682 -1.19214 0
M  V30 6856 C 673.673 -2.99574 1.99819 0
M  V30 6857 C 673.526 -2.79163 3.52687 0
M  V30 6858 C 674.845 -4.00358 1.82761 0
M  V30 6859 H 671.964 -0.598437 0.430165 0
M  V30 6860 H 674.606 -1.03736 1.59182 0
M  V30 6861 H 672.756 -3.51786 1.64859 0
M  V30 6862 H 674.428 -2.33821 3.9765 0
M  V30 6863 H 672.671 -2.13871 3.77414 0
M  V30 6864 H 673.342 -3.74871 4.05186 0
M  V30 6865 H 675.818 -3.57268 2.13304 0
M  V30 6866 H 674.694 -4.92514 2.42325 0
M  V30 6867 H 674.955 -4.35096 0.783839 0
M  V30 6868 N 674.014 -1.12206 -1.10668 0
M  V30 6869 C 675.262 -0.874144 -1.82217 0
M  V30 6870 C 675.583 0.601736 -1.85484 0
M  V30 6871 O 674.853 1.43725 -1.33116 0
M  V30 6872 H 673.433 -0.320404 -0.674797 0
M  V30 6873 H 676.095 -1.41606 -1.33917 0
M  V30 6874 H 675.191 -1.25349 -2.85822 0
M  V30 6875 N 675.492 1.28418 -0.913599 0
M  V30 6876 C 676.738 1.9527 -0.547484 0
M  V30 6877 C 677.071 1.71745 0.906486 0
M  V30 6878 O 676.346 1.03834 1.64465 0
M  V30 6879 C 676.629 3.49748 -0.857205 0
M  V30 6880 C 676.482 3.82675 -2.3639 0
M  V30 6881 C 677.801 4.3868 -0.353258 0
M  V30 6882 H 674.92 0.709236 -0.200381 0
M  V30 6883 H 677.562 1.51789 -1.14281 0
M  V30 6884 H 675.712 3.86915 -0.350548 0
M  V30 6885 H 677.384 3.55378 -2.94116 0
M  V30 6886 H 675.627 3.29724 -2.81894 0
M  V30 6887 H 676.298 4.90547 -2.53115 0
M  V30 6888 H 678.774 4.08584 -0.787288 0
M  V30 6889 H 677.65 5.45621 -0.599049 0
M  V30 6890 H 677.911 4.35753 0.746413 0
M  V30 6891 N 676.97 0.677563 1.42291 0
M  V30 6892 C 677.9 0.014968 2.33495 0
M  V30 6893 C 678.881 -0.786376 1.50831 0
M  V30 6894 O 680.066 -0.742975 1.79426 0
M  V30 6895 C 677.196 -0.935023 3.34477 0
M  V30 6896 C 676.15 -0.242074 4.27315 0
M  V30 6897 C 675.476 -1.30519 5.18526 0
M  V30 6898 C 676.776 0.880604 5.14823 0
M  V30 6899 H 678.47 0.776671 2.89151 0
M  V30 6900 H 676.016 0.37494 1.39033 0
M  V30 6901 H 677.969 -1.40766 3.97194 0
M  V30 6902 H 676.693 -1.72818 2.77131 0
M  V30 6903 H 675.352 0.210351 3.65996 0
M  V30 6904 H 675 -2.09041 4.57505 0
M  V30 6905 H 674.7 -0.846652 5.81468 0
M  V30 6906 H 676.224 -1.7787 5.84119 0
M  V30 6907 H 677.638 0.489062 5.7121 0
M  V30 6908 H 676.035 1.26511 5.86613 0
M  V30 6909 H 677.105 1.72818 4.53059 0
M  V30 6910 N 678.448 -1.51871 0.421078 0
M  V30 6911 C 679.859 -1.86644 -0.0457991 0
M  V30 6912 C 680.21 -1.33919 -1.43388 0
M  V30 6913 O 679.335 -0.683316 -2.05328 0
M  V30 6914 C 679.93 -3.38681 -0.0898844 0
M  V30 6915 C 678.489 -3.73049 -0.501127 0
M  V30 6916 C 677.636 -2.75485 0.316723 0
M  V30 6917 H 680.587 -1.45327 0.637635 0
M  V30 6918 H 680.608 -3.69636 -0.902734 0
M  V30 6919 H 680.12 -3.77025 0.920513 0
M  V30 6920 H 678.221 -3.40288 -1.51773 0
M  V30 6921 H 678.334 -4.78512 -0.237217 0
M  V30 6922 H 676.698 -2.53725 -0.222663 0
M  V30 6923 H 677.481 -3.16671 1.32569 0
M  V30 6924 N 679.926 -0.151884 -1.56866 0
M  V30 6925 C 680.856 0.781943 -2.20018 0
M  V30 6926 C 681.837 1.25347 -1.14987 0
M  V30 6927 O 683.022 1.31015 -1.43348 0
M  V30 6928 C 680.152 2.01928 -2.82564 0
M  V30 6929 C 679.106 1.68434 -3.93464 0
M  V30 6930 C 678.432 2.99472 -4.42968 0
M  V30 6931 C 679.732 0.927244 -5.14003 0
M  V30 6932 H 681.426 0.255607 -2.98307 0
M  V30 6933 H 678.972 0.121502 -1.43486 0
M  V30 6934 H 680.925 2.67741 -3.25411 0
M  V30 6935 H 679.649 2.56943 -2.01614 0
M  V30 6936 H 678.308 1.04998 -3.51242 0
M  V30 6937 H 677.956 3.52488 -3.58834 0
M  V30 6938 H 677.656 2.77823 -5.17772 0
M  V30 6939 H 679.18 3.66348 -4.88489 0
M  V30 6940 H 680.594 1.48756 -5.53665 0
M  V30 6941 H 678.991 0.810513 -5.94601 0
M  V30 6942 H 680.061 -0.0801163 -4.84834 0
M  V30 6943 N 681.404 1.57128 0.121893 0
M  V30 6944 C 682.652 1.84335 0.828548 0
M  V30 6945 C 682.973 0.736632 1.80551 0
M  V30 6946 O 682.243 -0.23962 1.94429 0
M  V30 6947 H 680.823 0.680108 0.30897 0
M  V30 6948 H 683.485 1.9459 0.109906 0
M  V30 6949 H 682.581 2.80152 1.37554 0
M  V30 6950 N 682.882 -0.391992 1.52647 0
M  V30 6951 C 684.11 -1.1586 1.71418 0
M  V30 6952 C 684.525 -1.8381 0.431216 0
M  V30 6953 O 683.882 -1.7256 -0.594085 0
M  V30 6954 C 683.933 -2.20888 2.86165 0
M  V30 6955 O 683.654 -1.5571 4.09495 0
M  V30 6956 C 685.155 -3.103 3.1659 0
M  V30 6957 H 682.375 -0.347494 0.574011 0
M  V30 6958 H 684.919 -0.458972 1.99283 0
M  V30 6959 H 683.074 -2.86492 2.6077 0
M  V30 6960 H 683.488 -2.25474 4.73563 0
M  V30 6961 H 684.962 -3.8003 4.00351 0
M  V30 6962 H 685.439 -3.73639 2.30848 0
M  V30 6963 H 686.045 -2.50345 3.43813 0
M  V30 6964 N 684.36 -1.4356 -0.65026 0
M  V30 6965 C 685.608 -1.45046 -1.40734 0
M  V30 6966 C 685.929 -0.0769822 -1.94848 0
M  V30 6967 O 685.199 0.888098 -1.74613 0
M  V30 6968 H 683.779 -0.534034 -0.522318 0
M  V30 6969 H 686.441 -1.79186 -0.766703 0
M  V30 6970 H 685.537 -2.16476 -2.24822 0
M  V30 6971 N 685.838 0.888903 -1.30139 0
M  V30 6972 C 686.786 2.0156 -1.16088 0
M  V30 6973 C 687.78 1.69239 -0.0737413 0
M  V30 6974 O 688.986 1.78468 -0.234313 0
M  V30 6975 H 685.361 0.660825 -0.358907 0
M  V30 6976 H 687.332 2.10547 -2.11453 0
M  V30 6977 C 686.081 3.36758 -0.865426 0
M  V30 6978 H 685.404 3.62137 -1.69402 0
M  V30 6979 H 686.844 4.16246 -0.807192 0
M  V30 6980 C 685.303 3.34124 0.431577 0
M  V30 6981 O 685.833 3.7445 1.45431 0
M  V30 6982 N 684.039 2.87229 0.441321 0
M  V30 6983 H 683.586 2.54609 -0.391433 0
M  V30 6984 H 683.544 2.8585 1.30909 0
M  V30 6985 N 687.317 1.12792 1.10072 0
M  V30 6986 C 688.594 0.796867 1.78632 0
M  V30 6987 C 688.974 -0.712739 1.98704 0
M  V30 6988 O 688.322 -1.64773 1.5831 0
M  V30 6989 C 688.532 1.57622 3.11378 0
M  V30 6990 C 689.88 1.76463 3.86194 0
M  V30 6991 O 690.904 1.54165 3.2111 0
M  V30 6992 O 689.763 2.13623 5.03018 0
M  V30 6993 H 686.857 0.290248 0.774394 0
M  V30 6994 H 689.403 1.23215 1.16688 0
M  V30 6995 H 688.175 2.60246 2.92212 0
M  V30 6996 H 687.798 1.13543 3.81043 0
M  V30 6997 N 688.795 -1.27931 0.920396 0
M  V30 6998 C 689.725 -2.29487 0.431024 0
M  V30 6999 C 690.706 -1.62435 -0.504861 0
M  V30 7000 O 691.891 -1.89797 -0.411176 0
M  V30 7001 C 689.021 -3.45788 -0.323709 0
M  V30 7002 C 687.975 -4.24784 0.523658 0
M  V30 7003 C 687.301 -5.33488 -0.359809 0
M  V30 7004 C 688.601 -4.90874 1.78437 0
M  V30 7005 H 690.295 -2.70671 1.27975 0
M  V30 7006 H 687.841 -1.30121 0.616813 0
M  V30 7007 H 689.794 -4.15927 -0.676952 0
M  V30 7008 H 688.518 -3.03502 -1.2064 0
M  V30 7009 H 687.177 -3.56382 0.85951 0
M  V30 7010 H 686.825 -4.87445 -1.24124 0
M  V30 7011 H 686.525 -5.87247 0.203605 0
M  V30 7012 H 688.049 -6.06472 -0.708787 0
M  V30 7013 H 689.463 -5.53339 1.49963 0
M  V30 7014 H 687.86 -5.54659 2.29071 0
M  V30 7015 H 688.93 -4.14988 2.50824 0
M  V30 7016 N 690.273 -0.685099 -1.4193 0
M  V30 7017 C 691.236 -0.0222632 -2.29189 0
M  V30 7018 C 692.236 0.7186 -1.4385 0
M  V30 7019 O 693.426 0.555058 -1.6512 0
M  V30 7020 C 690.558 0.979013 -3.2654 0
M  V30 7021 H 691.751 -0.790424 -2.89296 0
M  V30 7022 H 689.304 -0.448012 -1.49742 0
M  V30 7023 H 690.039 1.77531 -2.71392 0
M  V30 7024 H 689.824 0.451037 -3.89497 0
M  V30 7025 H 691.314 1.44091 -3.91954 0
M  V30 7026 N 691.751 1.51645 -0.429126 0
M  V30 7027 C 693.167 1.59394 -0.080994 0
M  V30 7028 C 693.367 1.44064 1.40882 0
M  V30 7029 O 692.423 1.27771 2.17786 0
M  V30 7030 C 693.736 2.94779 -0.593773 0
M  V30 7031 C 695.284 3.08067 -0.553494 0
M  V30 7032 C 695.759 4.45963 -1.04311 0
M  V30 7033 N 697.25 4.5226 -1.00076 0
M  V30 7034 C 697.985 5.57268 -1.35056 0
M  V30 7035 N 697.481 6.69734 -1.77282 0
M  V30 7036 N 699.274 5.47582 -1.26925 0
M  V30 7037 H 691.425 1.59856 -1.39857 0
M  V30 7038 H 693.688 0.753095 -0.575805 0
M  V30 7039 H 693.394 3.11342 -1.63583 0
M  V30 7040 H 693.268 3.77197 -0.0142202 0
M  V30 7041 H 695.655 2.91177 0.479556 0
M  V30 7042 H 695.736 2.27508 -1.16935 0
M  V30 7043 H 695.38 4.63598 -2.07459 0
M  V30 7044 H 695.31 5.25049 -0.403873 0
M  V30 7045 H 697.801 3.71537 -0.690564 0
M  V30 7046 H 698.114 7.4587 -2.02232 0
M  V30 7047 H 696.459 6.70963 -1.81202 0
M  V30 7048 H 699.65 4.58604 -0.93809 0
M  V30 7049 H 699.823 6.29308 -1.54516 0
M  V30 7050 N 693.229 0.160201 1.56784 0
M  V30 7051 C 694.457 -0.494165 2.00912 0
M  V30 7052 C 694.872 -1.57548 1.04038 0
M  V30 7053 O 694.229 -1.82457 0.0394581 0
M  V30 7054 C 694.28 -1.08271 3.44905 0
M  V30 7055 O 694.001 -0.0445704 4.38077 0
M  V30 7056 C 695.502 -1.8164 4.04378 0
M  V30 7057 H 692.722 -0.127498 0.658776 0
M  V30 7058 H 695.266 0.258665 2.02858 0
M  V30 7059 H 693.421 -1.78609 3.4377 0
M  V30 7060 H 693.835 -0.477544 5.22322 0
M  V30 7061 H 695.309 -2.18094 5.07089 0
M  V30 7062 H 695.786 -2.70727 3.45838 0
M  V30 7063 H 696.392 -1.15969 4.09184 0
M  V30 7064 N 694.707 -1.5719 -0.113559 0
M  V30 7065 C 695.637 -2.03772 -1.14013 0
M  V30 7066 C 696.618 -0.923176 -1.42869 0
M  V30 7067 O 697.803 -1.19325 -1.53216 0
M  V30 7068 C 694.933 -2.44663 -2.4649 0
M  V30 7069 C 693.887 -3.59612 -2.32085 0
M  V30 7070 C 693.213 -3.8642 -3.69573 0
M  V30 7071 C 694.513 -4.91149 -1.7768 0
M  V30 7072 H 696.207 -2.89785 -0.752665 0
M  V30 7073 H 693.753 -1.39412 -0.360609 0
M  V30 7074 H 695.706 -2.75857 -3.18561 0
M  V30 7075 H 694.43 -1.55628 -2.87137 0
M  V30 7076 H 693.089 -3.28636 -1.62461 0
M  V30 7077 H 692.737 -2.94581 -4.07715 0
M  V30 7078 H 692.437 -4.63797 -3.60786 0
M  V30 7079 H 693.961 -4.2007 -4.4314 0
M  V30 7080 H 695.375 -5.20843 -2.39574 0
M  V30 7081 H 693.772 -5.72562 -1.79701 0
M  V30 7082 H 694.842 -4.79301 -0.734776 0
M  V30 7083 N 696.185 0.383891 -1.52853 0
M  V30 7084 C 697.133 1.48965 -1.7864 0
M  V30 7085 C 698.127 1.56242 -0.654577 0
M  V30 7086 O 699.333 1.59347 -0.83716 0
M  V30 7087 H 695.708 0.495892 -0.565328 0
M  V30 7088 H 697.679 1.24411 -2.71228 0
M  V30 7089 C 696.428 2.86036 -1.97683 0
M  V30 7090 H 695.751 2.81188 -2.84206 0
M  V30 7091 H 697.191 3.62632 -2.19713 0
M  V30 7092 C 695.65 3.28428 -0.750776 0
M  V30 7093 O 696.18 4.0164 0.0693491 0
M  V30 7094 N 694.386 2.84765 -0.579427 0
M  V30 7095 H 693.933 2.25353 -1.24795 0
M  V30 7096 H 693.891 3.13486 0.239544 0
M  V30 7097 N 697.663 1.43903 0.642637 0
M  V30 7098 C 698.909 1.47291 1.40275 0
M  V30 7099 C 699.264 0.0996024 1.92142 0
M  V30 7100 O 698.557 -0.883423 1.70018 0
M  V30 7101 C 698.751 2.45907 2.59354 0
M  V30 7102 C 698.58 3.92691 2.19143 0
M  V30 7103 C 697.35 4.6097 2.06966 0
M  V30 7104 C 699.548 4.82231 1.78768 0
M  V30 7105 N 697.53 5.9263 1.60196 0
M  V30 7106 C 698.901 6.03246 1.43159 0
M  V30 7107 C 700.956 4.69397 1.66045 0
M  V30 7108 C 699.659 7.12851 0.961014 0
M  V30 7109 C 701.685 5.79016 1.20392 0
M  V30 7110 C 701.047 6.99164 0.857271 0
M  V30 7111 H 697.146 0.594055 0.50855 0
M  V30 7112 H 699.73 1.80153 0.738434 0
M  V30 7113 H 697.901 2.15054 3.23429 0
M  V30 7114 H 699.633 2.39665 3.26102 0
M  V30 7115 H 696.388 4.15622 2.27058 0
M  V30 7116 H 696.812 6.62547 1.39143 0
M  V30 7117 H 701.454 3.76954 1.91482 0
M  V30 7118 H 699.172 8.05113 0.694148 0
M  V30 7119 H 702.758 5.71109 1.11023 0
M  V30 7120 H 701.638 7.82544 0.509408 0
M  V30 7121 N 699.141 -0.881989 1.30609 0
M  V30 7122 C 700.389 -1.63082 1.19368 0
M  V30 7123 C 700.71 -1.93376 -0.251147 0
M  V30 7124 O 699.98 -1.5723 -1.16857 0
M  V30 7125 H 698.56 -0.604542 0.438791 0
M  V30 7126 H 701.222 -1.05658 1.63776 0
M  V30 7127 H 700.318 -2.57966 1.7567 0
M  V30 7128 N 700.619 -1.13374 -1.09472 0
M  V30 7129 C 701.867 -0.893422 -1.8128 0
M  V30 7130 C 702.188 0.582029 -1.86111 0
M  V30 7131 O 701.458 1.42305 -1.34633 0
M  V30 7132 H 700.038 -0.327543 -0.67136 0
M  V30 7133 H 702.7 -1.43018 -1.32408 0
M  V30 7134 H 701.796 -1.28374 -2.84476 0
M  V30 7135 N 702.098 1.27442 -0.927168 0
M  V30 7136 C 703.346 1.94007 -0.566203 0
M  V30 7137 C 703.667 1.7323 0.895345 0
M  V30 7138 O 702.937 1.07973 1.63459 0
M  V30 7139 H 701.517 0.717917 -0.206409 0
M  V30 7140 H 704.179 1.55161 -1.17945 0
M  V30 7141 H 703.275 3.02401 -0.772028 0
M  V30 7142 N 703.576 0.692616 1.41565 0
M  V30 7143 C 704.806 0.230943 2.05305 0
M  V30 7144 C 705.214 -1.12379 1.52209 0
M  V30 7145 O 704.557 -1.71281 0.663968 0
M  V30 7146 C 704.619 0.107894 3.59338 0
M  V30 7147 C 704.283 1.39419 4.35214 0
M  V30 7148 C 705.28 2.33143 4.64694 0
M  V30 7149 C 702.965 1.64674 4.74539 0
M  V30 7150 C 704.959 3.50385 5.32456 0
M  V30 7151 C 702.646 2.82202 5.42038 0
M  V30 7152 C 703.644 3.74881 5.70923 0
M  V30 7153 O 703.332 4.90351 6.37033 0
M  V30 7154 H 703.064 0.105708 0.667684 0
M  V30 7155 H 705.618 0.94488 1.82376 0
M  V30 7156 H 703.848 -0.661785 3.80995 0
M  V30 7157 H 705.537 -0.316213 4.04666 0
M  V30 7158 H 706.303 2.14887 4.34797 0
M  V30 7159 H 702.182 0.934007 4.51439 0
M  V30 7160 H 705.726 4.22743 5.54918 0
M  V30 7161 H 701.623 3.00376 5.71353 0
M  V30 7162 H 702.391 4.90128 6.55528 0
M  V30 7163 N 705.054 -1.51416 0.437162 0
M  V30 7164 C 706.282 -2.06503 -0.128045 0
M  V30 7165 C 706.697 -1.30461 -1.36475 0
M  V30 7166 O 706.054 -0.364127 -1.78831 0
M  V30 7167 C 706.105 -3.58683 -0.450437 0
M  V30 7168 O 705.826 -4.31853 0.737186 0
M  V30 7169 C 707.327 -4.30284 -1.06633 0
M  V30 7170 H 704.547 -0.670952 -0.00800269 0
M  V30 7171 H 707.091 -1.94996 0.616193 0
M  V30 7172 H 705.246 -3.70106 -1.14457 0
M  V30 7173 H 705.66 -5.22467 0.461347 0
M  V30 7174 H 707.134 -5.37848 -1.24191 0
M  V30 7175 H 707.611 -3.88564 -2.0473 0
M  V30 7176 H 708.217 -4.23304 -0.411585 0
M  V30 7177 N 706.532 -0.168513 -1.56696 0
M  V30 7178 C 707.809 0.523367 -1.88468 0
M  V30 7179 C 708.189 1.81503 -1.07796 0
M  V30 7180 O 707.537 2.27859 -0.171045 0
M  V30 7181 C 707.747 0.767991 -3.40445 0
M  V30 7182 C 709.095 1.09924 -4.10124 0
M  V30 7183 O 710.119 0.856625 -3.45746 0
M  V30 7184 O 708.978 1.55681 -5.23856 0
M  V30 7185 H 706.072 0.269447 -0.781874 0
M  V30 7186 H 708.618 -0.206739 -1.68436 0
M  V30 7187 H 707.39 -0.145254 -3.9103 0
M  V30 7188 H 707.013 1.55151 -3.66079 0
M  V30 7189 N 708.01 1.57248 0.105221 0
M  V30 7190 C 708.92 2.04653 1.14693 0
M  V30 7191 C 709.936 0.969488 1.44489 0
M  V30 7192 O 711.112 1.28196 1.55331 0
M  V30 7193 C 708.177 2.45297 2.45011 0
M  V30 7194 C 707.238 3.67148 2.22489 0
M  V30 7195 C 706.471 4.05844 3.46592 0
M  V30 7196 O 706.694 3.44736 4.54437 0
M  V30 7197 O 705.628 4.98862 3.36779 0
M  V30 7198 H 709.454 2.93663 0.774336 0
M  V30 7199 H 707.039 1.45998 0.31701 0
M  V30 7200 H 708.921 2.72112 3.21766 0
M  V30 7201 H 707.596 1.59429 2.81717 0
M  V30 7202 H 706.503 3.45463 1.43547 0
M  V30 7203 H 707.836 4.53764 1.9068 0
M  V30 7204 N 709.488 -0.375779 1.53054 0
M  V30 7205 C 710.899 -0.95309 1.6054 0
M  V30 7206 C 711.25 -1.90575 0.466446 0
M  V30 7207 O 710.375 -2.12507 -0.408609 0
M  V30 7208 C 710.97 -1.73537 2.90982 0
M  V30 7209 C 709.529 -2.26218 3.00836 0
M  V30 7210 C 708.676 -1.07157 2.55759 0
M  V30 7211 H 711.627 -0.154895 1.57942 0
M  V30 7212 H 711.648 -2.59574 2.78211 0
M  V30 7213 H 711.16 -1.04176 3.73857 0
M  V30 7214 H 709.261 -2.98852 2.22527 0
M  V30 7215 H 709.374 -2.54799 4.05727 0
M  V30 7216 H 707.738 -1.43553 2.10391 0
M  V30 7217 H 708.521 -0.393099 3.41042 0
M  V30 7218 N 710.966 -1.44241 -0.634997 0
M  V30 7219 C 712.212 -1.47038 -1.39669 0
M  V30 7220 C 712.545 -0.101122 -1.93937 0
M  V30 7221 O 711.82 0.880699 -1.73418 0
M  V30 7222 C 712.103 -2.52763 -2.56482 0
M  V30 7223 C 711.956 -3.99032 -2.07589 0
M  V30 7224 C 713.275 -2.55031 -3.58674 0
M  V30 7225 H 710.394 -0.53537 -0.506506 0
M  V30 7226 H 713.036 -1.75898 -0.718317 0
M  V30 7227 H 711.186 -2.28284 -3.14354 0
M  V30 7228 H 712.858 -4.3463 -1.54577 0
M  V30 7229 H 711.101 -4.10994 -1.38804 0
M  V30 7230 H 711.772 -4.68649 -2.91671 0
M  V30 7231 H 714.248 -2.76893 -3.10595 0
M  V30 7232 H 713.124 -3.30916 -4.37934 0
M  V30 7233 H 713.385 -1.59085 -4.12486 0
M  V30 7234 N 712.444 0.87505 -1.31075 0
M  V30 7235 C 713.669 1.66583 -1.23551 0
M  V30 7236 C 714.094 1.87067 0.19686 0
M  V30 7237 O 713.452 1.40877 1.1412 0
M  V30 7238 C 713.5 3.01401 -1.97965 0
M  V30 7239 O 712.604 3.90923 -1.31351 0
M  V30 7240 H 711.945 0.508645 -0.426821 0
M  V30 7241 H 714.475 1.09139 -1.7306 0
M  V30 7242 H 714.485 3.51374 -2.07366 0
M  V30 7243 H 713.16 2.85812 -3.02133 0
M  V30 7244 H 711.737 3.49369 -1.30368 0
M  V30 7245 N 713.922 1.13953 1.08869 0
M  V30 7246 C 714.869 0.82213 2.15661 0
M  V30 7247 C 715.839 -0.218274 1.6466 0
M  V30 7248 O 717.024 -0.0892475 1.90591 0
M  V30 7249 C 714.164 0.300572 3.43789 0
M  V30 7250 C 713.277 1.40071 4.08661 0
M  V30 7251 C 712.412 0.836897 5.24566 0
M  V30 7252 C 711.451 1.91504 5.81371 0
M  V30 7253 N 710.588 1.36875 6.88629 0
M  V30 7254 H 715.428 1.73683 2.42153 0
M  V30 7255 H 712.965 0.866879 1.18843 0
M  V30 7256 H 714.923 -0.0199943 4.17195 0
M  V30 7257 H 713.553 -0.577248 3.17597 0
M  V30 7258 H 712.605 1.83776 3.33062 0
M  V30 7259 H 713.917 2.21534 4.46905 0
M  V30 7260 H 713.071 0.467953 6.04893 0
M  V30 7261 H 711.81 -0.00874207 4.87699 0
M  V30 7262 H 710.815 2.29299 4.99702 0
M  V30 7263 H 712.04 2.76419 6.20298 0
M  V30 7264 H 709.986 0.545211 6.5373 0
M  V30 7265 H 709.903 2.1198 7.25672 0
M  V30 7266 H 711.171 1.02756 7.72698 0
M  V30 7267 N 715.4 -1.26948 0.933913 0
M  V30 7268 C 716.649 -1.93378 0.573409 0
M  V30 7269 C 716.962 -1.74148 -0.890614 0
M  V30 7270 O 718.168 -2.34971 -1.36017 0
M  V30 7271 C 716.624 -3.46449 0.974747 0
M  V30 7272 C 716.232 -3.74425 2.45988 0
M  V30 7273 C 717.976 -4.18924 0.685791 0
M  V30 7274 C 715.883 -5.209 2.8003 0
M  V30 7275 H 714.813 -0.723952 0.210736 0
M  V30 7276 H 717.464 -1.44143 1.13557 0
M  V30 7277 H 715.846 -3.94528 0.341181 0
M  V30 7278 H 717.02 -3.37079 3.14188 0
M  V30 7279 H 715.335 -3.15167 2.72138 0
M  V30 7280 H 717.932 -5.26786 0.916546 0
M  V30 7281 H 718.275 -4.14587 -0.377217 0
M  V30 7282 H 718.808 -3.76687 1.27874 0
M  V30 7283 H 715.547 -5.30332 3.85264 0
M  V30 7284 H 715.067 -5.59369 2.16485 0
M  V30 7285 H 716.746 -5.88837 2.68105 0
M  V30 7286 N 716.879 -0.700114 -1.41195 0
M  V30 7287 C 717.809 -0.0521132 -2.33442 0
M  V30 7288 C 718.79 0.76228 -1.52063 0
M  V30 7289 O 719.975 0.714336 -1.80585 0
M  V30 7290 C 717.105 0.881693 -3.35922 0
M  V30 7291 C 716.059 0.174062 -4.27646 0
M  V30 7292 C 715.385 1.22254 -5.20536 0
M  V30 7293 C 716.685 -0.962396 -5.13357 0
M  V30 7294 H 718.379 -0.822574 -2.87879 0
M  V30 7295 H 715.925 -0.397011 -1.38419 0
M  V30 7296 H 717.878 1.34429 -3.99383 0
M  V30 7297 H 716.602 1.68387 -2.79845 0
M  V30 7298 H 715.261 -0.268551 -3.65615 0
M  V30 7299 H 714.909 2.01736 -4.60773 0
M  V30 7300 H 714.609 0.754038 -5.82742 0
M  V30 7301 H 716.133 1.68555 -5.86874 0
M  V30 7302 H 717.547 -0.579875 -5.7036 0
M  V30 7303 H 715.944 -1.35828 -5.84526 0
M  V30 7304 H 717.014 -1.80003 -4.50252 0
M  V30 7305 N 718.357 1.51182 -0.445186 0
M  V30 7306 C 719.597 2.04061 0.117717 0
M  V30 7307 C 719.961 1.32158 1.39278 0
M  V30 7308 O 721.162 1.75452 2.03642 0
M  V30 7309 C 719.433 3.55933 0.323445 0
M  V30 7310 S 720.992 4.30516 0.848627 0
M  V30 7311 H 717.81 0.710442 0.028165 0
M  V30 7312 H 720.412 1.85858 -0.606391 0
M  V30 7313 H 719.116 4.0583 -0.610764 0
M  V30 7314 H 718.647 3.78444 1.07441 0
M  V30 7315 H 720.662 4.48382 2.12528 0
M  V30 7316 N 719.835 0.176821 1.56605 0
M  V30 7317 C 720.767 -0.782836 2.15417 0
M  V30 7318 C 721.78 -1.18982 1.11117 0
M  V30 7319 O 722.969 -1.12872 1.38283 0
M  V30 7320 C 720.069 -2.06596 2.68647 0
M  V30 7321 C 719.242 -1.82167 3.9766 0
M  V30 7322 C 718.301 -2.94751 4.35899 0
M  V30 7323 O 717.327 -2.65148 5.03672 0
M  V30 7324 N 718.529 -4.2267 3.97907 0
M  V30 7325 H 721.294 -0.280012 2.98389 0
M  V30 7326 H 718.855 -0.00577529 1.61899 0
M  V30 7327 H 720.847 -2.81018 2.91223 0
M  V30 7328 H 719.417 -2.48054 1.90232 0
M  V30 7329 H 718.637 -0.916208 3.83405 0
M  V30 7330 H 719.925 -1.6322 4.81909 0
M  V30 7331 H 719.323 -4.4958 3.43357 0
M  V30 7332 H 717.88 -4.93778 4.25472 0
M  V30 7333 N 721.313 -1.57302 -0.09688 0
M  V30 7334 C 722.559 -1.86273 -0.801885 0
M  V30 7335 C 722.892 -0.765694 -1.78468 0
M  V30 7336 O 722.167 0.226495 -1.93177 0
M  V30 7337 C 722.45 -3.25876 -1.53221 0
M  V30 7338 C 722.303 -4.46205 -0.567529 0
M  V30 7339 C 723.622 -3.63352 -2.48321 0
M  V30 7340 H 720.741 -0.67752 -0.29006 0
M  V30 7341 H 723.383 -1.89887 -0.0655577 0
M  V30 7342 H 721.533 -3.22926 -2.15988 0
M  V30 7343 H 723.205 -4.6127 0.0529982 0
M  V30 7344 H 721.448 -4.33636 0.119233 0
M  V30 7345 H 722.119 -5.40608 -1.11564 0
M  V30 7346 H 724.595 -3.67234 -1.95648 0
M  V30 7347 H 723.471 -4.61968 -2.9644 0
M  V30 7348 H 723.732 -2.91941 -3.31998 0
M  V30 7349 N 722.791 0.367657 -1.53252 0
M  V30 7350 C 723.701 1.47415 -1.82499 0
M  V30 7351 C 724.717 1.58711 -0.713222 0
M  V30 7352 O 725.893 1.74644 -1.00306 0
M  V30 7353 C 722.958 2.82706 -2.00694 0
M  V30 7354 C 722.019 2.80955 -3.24596 0
M  V30 7355 C 721.252 4.09793 -3.41914 0
M  V30 7356 O 721.475 5.05852 -2.63572 0
M  V30 7357 O 720.409 4.15731 -4.3526 0
M  V30 7358 H 724.235 1.25624 -2.765 0
M  V30 7359 H 721.82 0.557559 -1.38606 0
M  V30 7360 H 723.702 3.62873 -2.14246 0
M  V30 7361 H 722.377 3.04479 -1.09883 0
M  V30 7362 H 721.284 1.99494 -3.16469 0
M  V30 7363 H 722.617 2.64136 -4.15323 0
M  V30 7364 N 724.269 1.44576 0.627338 0
M  V30 7365 C 725.546 1.38033 1.38586 0
M  V30 7366 C 725.926 0.0409468 2.1106 0
M  V30 7367 O 725.274 -0.976582 2.0658 0
M  V30 7368 C 725.484 2.58102 2.34913 0
M  V30 7369 C 726.832 3.02332 2.98129 0
M  V30 7370 O 727.856 2.58334 2.45238 0
M  V30 7371 O 726.715 3.78628 3.94085 0
M  V30 7372 H 723.809 0.546801 0.620434 0
M  V30 7373 H 726.355 1.56672 0.652077 0
M  V30 7374 H 725.127 3.4719 1.80485 0
M  V30 7375 H 724.75 2.41696 3.15703 0
M  V30 7376 N 725.747 -0.868086 1.31537 0
M  V30 7377 C 726.995 -1.61807 1.21091 0
M  V30 7378 C 727.316 -1.93631 -0.230623 0
M  V30 7379 O 726.586 -1.5846 -1.15183 0
M  V30 7380 H 725.166 -0.599854 0.445178 0
M  V30 7381 H 727.828 -1.03915 1.64887 0
M  V30 7382 H 726.924 -2.56088 1.78396 0
M  V30 7383 N 727.225 -1.14528 -1.08264 0
M  V30 7384 C 728.453 -0.937964 -1.84418 0
M  V30 7385 C 728.868 0.51357 -1.81681 0
M  V30 7386 O 728.225 1.35591 -1.22153 0
M  V30 7387 C 728.276 -1.43272 -3.31897 0
M  V30 7388 O 727.997 -2.82738 -3.34651 0
M  V30 7389 C 729.498 -1.26555 -4.24851 0
M  V30 7390 H 726.718 -0.333704 -0.582136 0
M  V30 7391 H 729.262 -1.52076 -1.36723 0
M  V30 7392 H 727.417 -0.892653 -3.76975 0
M  V30 7393 H 727.831 -3.04971 -4.26724 0
M  V30 7394 H 729.305 -1.66031 -5.26439 0
M  V30 7395 H 729.782 -0.208589 -4.38704 0
M  V30 7396 H 730.388 -1.79423 -3.856 0
M  V30 7397 N 728.703 1.26451 -0.940633 0
M  V30 7398 C 729.949 1.94065 -0.58878 0
M  V30 7399 C 730.282 1.7363 0.869853 0
M  V30 7400 O 729.557 1.073 1.62225 0
M  V30 7401 C 729.84 3.47852 -0.931199 0
M  V30 7402 C 729.693 3.77575 -2.44453 0
M  V30 7403 C 731.012 4.37832 -0.446229 0
M  V30 7404 H 728.131 0.704827 -0.21538 0
M  V30 7405 H 730.773 1.4933 -1.17475 0
M  V30 7406 H 728.923 3.86085 -0.432539 0
M  V30 7407 H 730.595 3.49059 -3.01588 0
M  V30 7408 H 728.838 3.23671 -2.88825 0
M  V30 7409 H 729.509 4.85068 -2.63464 0
M  V30 7410 H 731.985 4.06822 -0.873778 0
M  V30 7411 H 730.861 5.44228 -0.714648 0
M  V30 7412 H 731.122 4.37239 0.653815 0
M  V30 7413 N 730.181 0.707592 1.40822 0
M  V30 7414 C 731.427 0.244031 2.01326 0
M  V30 7415 C 731.76 -1.15722 1.55955 0
M  V30 7416 O 731.035 -1.78347 0.776044 0
M  V30 7417 C 731.318 0.315128 3.58718 0
M  V30 7418 C 731.171 1.75419 4.14184 0
M  V30 7419 C 732.49 -0.318251 4.38948 0
M  V30 7420 H 729.609 0.0901471 0.731466 0
M  V30 7421 H 732.251 0.898584 1.67408 0
M  V30 7422 H 730.401 -0.242176 3.87744 0
M  V30 7423 H 732.073 2.36626 3.95987 0
M  V30 7424 H 730.316 2.28449 3.68773 0
M  V30 7425 H 730.987 1.75538 5.23345 0
M  V30 7426 H 733.463 0.156514 4.15806 0
M  V30 7427 H 732.339 -0.238019 5.48384 0
M  V30 7428 H 732.6 -1.40067 4.19325 0
M  V30 7429 N 731.66 -1.50943 0.453197 0
M  V30 7430 C 732.592 -2.25922 -0.38623 0
M  V30 7431 C 733.605 -1.3055 -0.972652 0
M  V30 7432 O 734.794 -1.56191 -0.864097 0
M  V30 7433 C 731.894 -3.01176 -1.5539 0
M  V30 7434 C 731.067 -4.23768 -1.0835 0
M  V30 7435 C 730.126 -4.81466 -2.12313 0
M  V30 7436 O 729.152 -5.42875 -1.71101 0
M  V30 7437 N 730.354 -4.66889 -3.44956 0
M  V30 7438 H 733.119 -2.98601 0.256468 0
M  V30 7439 H 730.68 -1.59408 0.282965 0
M  V30 7440 H 732.672 -3.36659 -2.24594 0
M  V30 7441 H 731.242 -2.31409 -2.10163 0
M  V30 7442 H 730.462 -3.93597 -0.217961 0
M  V30 7443 H 731.75 -5.03289 -0.746857 0
M  V30 7444 H 731.148 -4.18011 -3.81161 0
M  V30 7445 H 729.705 -5.06691 -4.1001 0
M  V30 7446 N 733.138 -0.185124 -1.56509 0
M  V30 7447 C 734.068 0.735098 -2.21627 0
M  V30 7448 C 735.049 1.2288 -1.1762 0
M  V30 7449 O 736.234 1.27945 -1.46095 0
M  V30 7450 C 733.364 1.95889 -2.86783 0
M  V30 7451 C 732.318 1.6005 -3.96948 0
M  V30 7452 C 731.644 2.90009 -4.4922 0
M  V30 7453 C 732.944 0.818008 -5.15855 0
M  V30 7454 H 734.638 0.192274 -2.98782 0
M  V30 7455 H 732.184 0.0910393 -1.43712 0
M  V30 7456 H 734.137 2.60779 -3.31017 0
M  V30 7457 H 732.861 2.52608 -2.07018 0
M  V30 7458 H 731.52 0.975237 -3.5339 0
M  V30 7459 H 731.168 3.44797 -3.6623 0
M  V30 7460 H 730.868 2.66778 -5.23549 0
M  V30 7461 H 732.392 3.55904 -4.9615 0
M  V30 7462 H 733.806 1.36979 -5.56695 0
M  V30 7463 H 732.203 0.684207 -5.96187 0
M  V30 7464 H 733.273 -0.182939 -4.84555 0
M  V30 7465 N 734.616 1.57351 0.0885366 0
M  V30 7466 C 735.893 1.77449 0.822873 0
M  V30 7467 C 736.273 0.768463 1.96616 0
M  V30 7468 O 735.621 -0.201757 2.27608 0
M  V30 7469 C 735.831 3.23425 1.31137 0
M  V30 7470 C 737.179 3.86791 1.75152 0
M  V30 7471 O 738.203 3.27215 1.40745 0
M  V30 7472 O 737.062 4.91568 2.38794 0
M  V30 7473 H 734.156 0.727653 0.393002 0
M  V30 7474 H 736.702 1.69556 0.0699095 0
M  V30 7475 H 735.474 3.88188 0.49254 0
M  V30 7476 H 735.097 3.35977 2.12615 0
M  V30 7477 N 736.094 -0.359525 1.53444 0
M  V30 7478 C 737.51 -0.701599 1.43352 0
M  V30 7479 C 737.71 -1.93049 0.577439 0
M  V30 7480 O 736.766 -2.52423 0.0622224 0
M  V30 7481 C 738.079 -0.90915 2.86627 0
M  V30 7482 C 739.627 -1.00878 2.96298 0
M  V30 7483 C 740.102 -1.24876 4.40647 0
M  V30 7484 N 741.593 -1.31632 4.44103 0
M  V30 7485 C 742.328 -1.51922 5.52908 0
M  V30 7486 N 741.824 -1.69489 6.71748 0
M  V30 7487 N 743.617 -1.54341 5.40496 0
M  V30 7488 H 735.768 0.448685 2.07607 0
M  V30 7489 H 738.031 0.138713 0.937797 0
M  V30 7490 H 737.737 -0.0778997 3.51614 0
M  V30 7491 H 737.611 -1.81551 3.30634 0
M  V30 7492 H 739.998 -1.83057 2.31461 0
M  V30 7493 H 740.079 -0.0796721 2.55676 0
M  V30 7494 H 739.723 -0.431961 5.0606 0
M  V30 7495 H 739.653 -2.19118 4.78848 0
M  V30 7496 H 742.144 -1.19646 3.5846 0
M  V30 7497 H 742.457 -1.84561 7.50438 0
M  V30 7498 H 740.802 -1.66655 6.74723 0
M  V30 7499 H 743.993 -1.40188 4.46615 0
M  V30 7500 H 744.166 -1.69812 6.25354 0
M  V30 7501 N 737.572 -1.44907 -0.619662 0
M  V30 7502 C 738.818 -1.49504 -1.37914 0
M  V30 7503 C 739.173 -0.130158 -1.91959 0
M  V30 7504 O 738.466 0.856263 -1.71402 0
M  V30 7505 C 738.66 -2.50002 -2.55409 0
M  V30 7506 C 738.489 -3.96128 -2.12867 0
M  V30 7507 C 737.259 -4.64204 -1.99606 0
M  V30 7508 C 739.457 -4.85014 -1.71074 0
M  V30 7509 N 737.439 -5.95104 -1.50748 0
M  V30 7510 C 738.81 -6.05447 -1.33544 0
M  V30 7511 C 740.865 -4.71979 -1.58557 0
M  V30 7512 C 739.568 -7.1429 -0.847484 0
M  V30 7513 C 741.594 -5.80858 -1.11165 0
M  V30 7514 C 740.956 -7.00439 -0.745932 0
M  V30 7515 H 737.055 -0.60207 -0.499034 0
M  V30 7516 H 739.639 -1.81305 -0.70968 0
M  V30 7517 H 737.81 -2.20172 -3.19967 0
M  V30 7518 H 739.542 -2.44823 -3.22248 0
M  V30 7519 H 736.297 -4.19182 -2.20417 0
M  V30 7520 H 736.721 -6.64676 -1.28585 0
M  V30 7521 H 741.363 -3.79953 -1.85461 0
M  V30 7522 H 739.081 -8.06116 -0.565974 0
M  V30 7523 H 742.667 -5.72803 -1.01923 0
M  V30 7524 H 741.547 -7.83255 -0.384848 0
M  V30 7525 N 739.05 0.861098 -1.31996 0
M  V30 7526 C 739.998 1.99052 -1.20337 0
M  V30 7527 C 740.992 1.69045 -0.109623 0
M  V30 7528 O 742.198 1.77931 -0.272117 0
M  V30 7529 H 738.573 0.653064 -0.372843 0
M  V30 7530 H 740.544 2.06015 -2.15872 0
M  V30 7531 C 739.293 3.34846 -0.936663 0
M  V30 7532 H 738.616 3.58462 -1.77045 0
M  V30 7533 H 740.056 4.1444 -0.895302 0
M  V30 7534 C 738.515 3.34965 0.360607 0
M  V30 7535 O 739.045 3.7745 1.37456 0
M  V30 7536 N 737.251 2.88101 0.380296 0
M  V30 7537 H 736.798 2.53721 -0.445351 0
M  V30 7538 H 736.756 2.88563 1.24816 0
M  V30 7539 N 740.528 1.15101 1.07655 0
M  V30 7540 C 741.458 0.867864 2.16773 0
M  V30 7541 C 742.439 -0.180283 1.69142 0
M  V30 7542 O 743.624 -0.0353152 1.94168 0
M  V30 7543 C 740.754 0.35299 3.45501 0
M  V30 7544 C 739.708 1.33746 4.06566 0
M  V30 7545 C 739.034 0.681562 5.30338 0
M  V30 7546 C 740.334 2.7024 4.46954 0
M  V30 7547 H 742.028 1.78034 2.40716 0
M  V30 7548 H 739.574 0.857435 1.15689 0
M  V30 7549 H 741.527 0.142465 4.21159 0
M  V30 7550 H 740.251 -0.594945 3.21135 0
M  V30 7551 H 738.91 1.53429 3.32949 0
M  V30 7552 H 738.558 -0.272422 5.02262 0
M  V30 7553 H 738.258 1.33853 5.72151 0
M  V30 7554 H 739.782 0.48074 6.08705 0
M  V30 7555 H 741.196 2.5442 5.13754 0
M  V30 7556 H 739.593 3.32282 4.99709 0
M  V30 7557 H 740.663 3.26537 3.58471 0
M  V30 7558 N 742.006 -1.2595 0.947325 0
M  V30 7559 C 742.956 -2.23859 0.432547 0
M  V30 7560 C 743.94 -1.53755 -0.474154 0
M  V30 7561 O 745.132 -1.74293 -0.308397 0
M  V30 7562 C 742.261 -3.42027 -0.295318 0
M  V30 7563 C 741.347 -4.19409 0.62903 0
M  V30 7564 N 741.738 -4.74284 1.7575 0
M  V30 7565 C 740.036 -4.43866 0.435805 0
M  V30 7566 C 740.737 -5.32821 2.33401 0
M  V30 7567 N 739.713 -5.18858 1.62135 0
M  V30 7568 H 743.515 -2.63886 1.29388 0
M  V30 7569 H 741.029 -1.41105 0.80393 0
M  V30 7570 H 743.026 -4.11297 -0.681188 0
M  V30 7571 H 741.686 -3.03526 -1.15334 0
M  V30 7572 H 742.697 -4.71641 2.13952 0
M  V30 7573 H 739.374 -4.15768 -0.37994 0
M  V30 7574 H 740.764 -5.86111 3.28517 0
M  V30 7575 N 743.484 -0.715051 -1.40445 0
M  V30 7576 C 744.73 -0.254705 -2.01194 0
M  V30 7577 C 745.063 1.14894 -1.56567 0
M  V30 7578 O 744.338 1.77933 -0.785491 0
M  V30 7579 C 744.621 -0.334148 -3.58546 0
M  V30 7580 C 744.474 -1.77613 -4.13248 0
M  V30 7581 C 745.793 0.294968 -4.3911 0
M  V30 7582 H 742.912 -0.094025 -0.730978 0
M  V30 7583 H 745.554 -0.907449 -1.66929 0
M  V30 7584 H 743.704 0.221609 -3.87867 0
M  V30 7585 H 745.376 -2.38723 -3.94727 0
M  V30 7586 H 743.619 -2.30402 -3.67556 0
M  V30 7587 H 744.29 -1.78311 -5.22407 0
M  V30 7588 H 746.766 -0.178563 -4.15717 0
M  V30 7589 H 745.642 0.208934 -5.48502 0
M  V30 7590 H 745.903 1.37841 -4.20062 0
M  V30 7591 N 744.962 1.50701 -0.461195 0
M  V30 7592 C 745.872 2.32069 0.343661 0
M  V30 7593 C 746.888 1.42016 1.00535 0
M  V30 7594 O 748.064 1.75077 0.995498 0
M  V30 7595 C 745.129 3.16424 1.41692 0
M  V30 7596 C 744.19 4.22286 0.772869 0
M  V30 7597 C 743.423 5.02609 1.79499 0
M  V30 7598 O 743.646 4.83874 3.0203 0
M  V30 7599 O 742.58 5.86047 1.3723 0
M  V30 7600 H 746.406 3.01996 -0.321268 0
M  V30 7601 H 743.991 1.47723 -0.223235 0
M  V30 7602 H 745.873 3.68795 2.03883 0
M  V30 7603 H 744.548 2.49236 2.0655 0
M  V30 7604 H 743.455 3.73931 0.112277 0
M  V30 7605 H 744.788 4.91915 0.167399 0
M  V30 7606 N 746.441 0.193421 1.56409 0
M  V30 7607 C 747.857 -0.162447 1.58771 0
M  V30 7608 C 748.057 -1.6116 1.20954 0
M  V30 7609 O 747.113 -2.3469 0.931497 0
M  V30 7610 C 748.426 0.138391 3.00381 0
M  V30 7611 C 749.974 0.0783649 3.12902 0
M  V30 7612 C 750.449 0.352491 4.56642 0
M  V30 7613 N 751.94 0.30105 4.62221 0
M  V30 7614 C 752.675 0.487028 5.71328 0
M  V30 7615 N 752.171 0.733265 6.88909 0
M  V30 7616 N 753.964 0.4214 5.60518 0
M  V30 7617 H 746.115 1.13909 1.79272 0
M  V30 7618 H 748.378 0.454528 0.83193 0
M  V30 7619 H 748.084 1.14312 3.32604 0
M  V30 7620 H 747.958 -0.559804 3.73023 0
M  V30 7621 H 750.345 -0.916963 2.80492 0
M  V30 7622 H 750.426 0.809611 2.4265 0
M  V30 7623 H 750.07 1.34513 4.89764 0
M  V30 7624 H 750 -0.399624 5.25081 0
M  V30 7625 H 752.491 0.117279 3.77718 0
M  V30 7626 H 752.804 0.86403 7.67955 0
M  V30 7627 H 751.149 0.770138 6.9072 0
M  V30 7628 H 754.34 0.229461 4.67537 0
M  V30 7629 H 754.513 0.569758 6.4549 0
M  V30 7630 N 747.919 -1.57396 -0.0801906 0
M  V30 7631 C 748.867 -2.04136 -1.11495 0
M  V30 7632 C 749.861 -0.945137 -1.40583 0
M  V30 7633 O 751.067 -1.13028 -1.40088 0
M  V30 7634 H 747.442 -0.65076 -0.37685 0
M  V30 7635 H 749.413 -2.90205 -0.694526 0
M  V30 7636 C 748.162 -2.49399 -2.42272 0
M  V30 7637 H 747.485 -3.33339 -2.20737 0
M  V30 7638 H 748.925 -2.85864 -3.13142 0
M  V30 7639 C 747.384 -1.37341 -3.07635 0
M  V30 7640 O 747.914 -0.710829 -3.95361 0
M  V30 7641 N 746.12 -1.12064 -2.68123 0
M  V30 7642 H 745.667 -1.66126 -1.96875 0
M  V30 7643 H 745.625 -0.372916 -3.12181 0
M  V30 7644 N 749.397 0.351382 -1.53633 0
M  V30 7645 C 750.808 0.927429 -1.62036 0
M  V30 7646 C 751.159 1.89809 -0.496706 0
M  V30 7647 O 750.284 2.1313 0.374749 0
M  V30 7648 C 750.879 1.68886 -2.93706 0
M  V30 7649 C 749.438 2.21404 -3.04397 0
M  V30 7650 C 748.585 1.03075 -2.57431 0
M  V30 7651 H 751.536 0.129748 -1.58169 0
M  V30 7652 H 751.557 2.55116 -2.82305 0
M  V30 7653 H 751.069 0.982149 -3.75467 0
M  V30 7654 H 749.17 2.95274 -2.27253 0
M  V30 7655 H 749.283 2.48312 -4.09729 0
M  V30 7656 H 747.647 1.40188 -2.12649 0
M  V30 7657 H 748.43 0.338793 -3.41624 0
M  V30 7658 N 750.875 1.45233 0.611969 0
M  V30 7659 C 752.152 1.39495 1.37115 0
M  V30 7660 C 752.532 0.0633303 2.11005 0
M  V30 7661 O 751.88 -0.954617 2.07604 0
M  V30 7662 C 752.09 2.60579 2.32163 0
M  V30 7663 C 753.438 3.05477 2.94905 0
M  V30 7664 O 754.462 2.60921 2.42485 0
M  V30 7665 O 753.321 3.82787 3.90047 0
M  V30 7666 H 750.415 0.55335 0.614599 0
M  V30 7667 H 752.961 1.57355 0.635423 0
M  V30 7668 H 751.733 3.49085 1.76793 0
M  V30 7669 H 751.356 2.45031 3.13122 0
M  V30 7670 N 752.353 -0.854086 1.3245 0
M  V30 7671 C 753.283 -1.97827 1.24044 0
M  V30 7672 C 754.264 -1.69646 0.124166 0
M  V30 7673 O 755.449 -1.91687 0.31143 0
M  V30 7674 C 752.579 -3.33673 0.963324 0
M  V30 7675 C 751.533 -3.76207 2.04089 0
M  V30 7676 C 750.859 -5.0969 1.61618 0
M  V30 7677 C 752.159 -3.91612 3.45597 0
M  V30 7678 H 753.853 -2.05118 2.18099 0
M  V30 7679 H 751.399 -0.985489 1.04996 0
M  V30 7680 H 753.352 -4.11871 0.891061 0
M  V30 7681 H 752.076 -3.26597 -0.0128649 0
M  V30 7682 H 750.735 -3.0026 2.10332 0
M  V30 7683 H 750.383 -4.99072 0.627418 0
M  V30 7684 H 750.083 -5.3912 2.33717 0
M  V30 7685 H 751.607 -5.90381 1.55829 0
M  V30 7686 H 753.021 -4.60163 3.4194 0
M  V30 7687 H 751.418 -4.3246 4.16051 0
M  V30 7688 H 752.488 -2.9451 3.85217 0
M  V30 7689 N 753.831 -1.1567 -1.07043 0
M  V30 7690 C 755.242 -0.942408 -1.61169 0
M  V30 7691 C 755.593 0.515537 -1.89306 0
M  V30 7692 O 754.718 1.38726 -1.66084 0
M  V30 7693 C 755.313 -1.70431 -2.92812 0
M  V30 7694 C 753.872 -1.53521 -3.43669 0
M  V30 7695 C 753.019 -1.7179 -2.17678 0
M  V30 7696 H 755.97 -1.3065 -0.9009 0
M  V30 7697 H 755.991 -1.17566 -3.61882 0
M  V30 7698 H 755.503 -2.76538 -2.72302 0
M  V30 7699 H 753.604 -0.498224 -3.69254 0
M  V30 7700 H 753.717 -2.31422 -4.19501 0
M  V30 7701 H 752.081 -1.14468 -2.27529 0
M  V30 7702 H 752.864 -2.79269 -1.99659 0
M  V30 7703 N 755.309 1.25446 -0.953992 0
M  V30 7704 C 756.72 1.75047 -0.649255 0
M  V30 7705 C 757.071 1.77527 0.835385 0
M  V30 7706 O 756.196 1.39569 1.65377 0
M  V30 7707 C 756.791 3.17889 -1.17183 0
M  V30 7708 C 755.35 3.65052 -0.917267 0
M  V30 7709 C 754.497 2.44124 -1.31525 0
M  V30 7710 H 757.448 1.11342 -1.13087 0
M  V30 7711 H 757.469 3.76768 -0.531616 0
M  V30 7712 H 756.981 3.16052 -2.25239 0
M  V30 7713 H 755.082 3.72305 0.148354 0
M  V30 7714 H 755.195 4.53222 -1.55328 0
M  V30 7715 H 753.559 2.43906 -0.733624 0
M  V30 7716 H 754.342 2.44979 -2.405 0
M  V30 7717 N 756.787 0.722489 1.40064 0
M  V30 7718 C 757.697 0.0755984 2.34478 0
M  V30 7719 C 758.713 -0.736046 1.57665 0
M  V30 7720 O 759.889 -0.667407 1.9002 0
M  V30 7721 C 756.954 -0.830075 3.36616 0
M  V30 7722 C 756.015 -0.00759884 4.29299 0
M  V30 7723 C 755.248 -0.870139 5.26559 0
M  V30 7724 O 755.471 -2.10921 5.2997 0
M  V30 7725 O 754.405 -0.305454 6.01124 0
M  V30 7726 H 758.231 0.854545 2.9143 0
M  V30 7727 H 755.816 0.483032 1.41376 0
M  V30 7728 H 757.698 -1.34864 3.99236 0
M  V30 7729 H 756.373 -1.58805 2.82069 0
M  V30 7730 H 755.28 0.556199 3.69942 0
M  V30 7731 H 756.613 0.712312 4.87018 0
M  V30 7732 N 758.265 -1.50454 0.469181 0
M  V30 7733 C 759.175 -2.32248 -0.331349 0
M  V30 7734 C 760.191 -1.42548 -0.997807 0
M  V30 7735 O 761.367 -1.75602 -0.9862 0
M  V30 7736 C 758.432 -3.17171 -1.40012 0
M  V30 7737 C 757.493 -4.2269 -0.750463 0
M  V30 7738 C 756.726 -5.03554 -1.76831 0
M  V30 7739 O 756.949 -4.85469 -2.99459 0
M  V30 7740 O 755.883 -5.86767 -1.3412 0
M  V30 7741 H 759.709 -3.01821 0.337279 0
M  V30 7742 H 757.294 -1.47602 0.231066 0
M  V30 7743 H 759.176 -3.69871 -2.01924 0
M  V30 7744 H 757.851 -2.50328 -2.05226 0
M  V30 7745 H 756.758 -3.73986 -0.0924446 0
M  V30 7746 H 758.091 -4.91997 -0.14131 0
M  V30 7747 N 759.743 -0.201713 -1.56304 0
M  V30 7748 C 760.673 0.71155 -2.22394 0
M  V30 7749 C 761.654 1.21625 -1.18917 0
M  V30 7750 O 762.839 1.26388 -1.47444 0
M  V30 7751 C 759.969 1.92837 -2.88845 0
M  V30 7752 C 758.923 1.55831 -3.98623 0
M  V30 7753 C 758.249 2.85228 -4.52271 0
M  V30 7754 C 759.549 0.763249 -5.16693 0
M  V30 7755 H 761.243 0.160573 -2.98969 0
M  V30 7756 H 758.789 0.0757916 -1.438 0
M  V30 7757 H 760.742 2.57253 -3.33764 0
M  V30 7758 H 759.466 2.50398 -2.09686 0
M  V30 7759 H 758.125 0.9377 -3.54405 0
M  V30 7760 H 757.773 3.40893 -3.69866 0
M  V30 7761 H 757.473 2.6121 -5.26349 0
M  V30 7762 H 758.997 3.50622 -4.99897 0
M  V30 7763 H 760.411 1.31066 -5.58117 0
M  V30 7764 H 758.808 0.620935 -5.96879 0
M  V30 7765 H 759.878 -0.234322 -4.84334 0
M  V30 7766 N 761.222 1.57436 0.0718424 0
M  V30 7767 C 762.132 2.07039 1.10326 0
M  V30 7768 C 763.148 0.999918 1.424 0
M  V30 7769 O 764.324 1.31462 1.52577 0
M  V30 7770 C 761.389 2.50439 2.39752 0
M  V30 7771 C 760.45 3.71784 2.14651 0
M  V30 7772 C 759.683 4.13104 3.37906 0
M  V30 7773 O 759.906 3.54298 4.47023 0
M  V30 7774 O 758.84 5.05894 3.26121 0
M  V30 7775 H 762.666 2.95239 0.711872 0
M  V30 7776 H 760.251 1.46638 0.28597 0
M  V30 7777 H 762.133 2.78876 3.15921 0
M  V30 7778 H 760.808 1.65368 2.78271 0
M  V30 7779 H 759.715 3.48431 1.36187 0
M  V30 7780 H 761.048 4.57707 1.81012 0
M  V30 7781 N 762.7 -0.34323 1.53817 0
M  V30 7782 C 763.977 -1.10047 1.61706 0
M  V30 7783 C 764.357 -2.06495 0.438514 0
M  V30 7784 O 763.705 -2.21297 -0.569188 0
M  V30 7785 C 763.915 -1.81985 2.97796 0
M  V30 7786 C 765.263 -2.35717 3.53161 0
M  V30 7787 O 766.287 -1.9208 2.99973 0
M  V30 7788 O 765.146 -3.15551 4.46195 0
M  V30 7789 H 762.24 -0.506096 0.654061 0
M  V30 7790 H 764.786 -0.344697 1.66162 0
M  V30 7791 H 763.558 -1.11722 3.75012 0
M  V30 7792 H 763.181 -2.64419 2.96931 0
M  V30 7793 N 764.178 -1.45556 -0.604258 0
M  V30 7794 C 765.426 -1.4945 -1.36048 0
M  V30 7795 C 765.747 -0.138933 -1.94504 0
M  V30 7796 O 765.017 0.832097 -1.7735 0
M  V30 7797 H 763.597 -0.550381 -0.505064 0
M  V30 7798 H 766.259 -1.81535 -0.709308 0
M  V30 7799 H 765.355 -2.23519 -2.17821 0
M  V30 7800 N 765.656 0.84705 -1.32902 0
M  V30 7801 C 766.902 1.60414 -1.24078 0
M  V30 7802 C 767.235 1.93217 0.195105 0
M  V30 7803 O 766.51 1.58001 1.13428 0
M  V30 7804 C 766.793 2.91951 -2.108 0
M  V30 7805 C 766.646 2.6588 -3.62805 0
M  V30 7806 C 767.965 3.93299 -1.97494 0
M  V30 7807 H 765.084 0.58206 -0.452079 0
M  V30 7808 H 767.726 0.977562 -1.62922 0
M  V30 7809 H 765.876 3.45425 -1.77802 0
M  V30 7810 H 767.548 2.18902 -4.06054 0
M  V30 7811 H 765.791 1.99716 -3.85092 0
M  V30 7812 H 766.462 3.59574 -4.1882 0
M  V30 7813 H 768.938 3.49105 -2.26417 0
M  V30 7814 H 767.814 4.8318 -2.60438 0
M  V30 7815 H 768.075 4.31887 -0.944782 0
M  V30 7816 N 767.134 1.16236 1.06428 0
M  V30 7817 C 768.374 0.95369 1.80787 0
M  V30 7818 C 768.738 -0.509495 1.85117 0
M  V30 7819 O 769.939 -0.836822 2.55442 0
M  V30 7820 C 768.21 1.56235 3.21443 0
M  V30 7821 S 769.769 1.49812 4.12434 0
M  V30 7822 H 766.587 0.343004 0.622792 0
M  V30 7823 H 769.189 1.47957 1.27785 0
M  V30 7824 H 767.893 2.62 3.15886 0
M  V30 7825 H 767.424 1.03574 3.79521 0
M  V30 7826 H 769.439 0.49745 4.937 0
M  V30 7827 N 768.612 -1.24939 0.960631 0
M  V30 7828 C 769.559 -2.25658 0.484459 0
M  V30 7829 C 770.529 -1.59422 -0.466242 0
M  V30 7830 O 771.714 -1.87015 -0.378169 0
M  V30 7831 C 768.854 -3.44359 -0.225958 0
M  V30 7832 C 767.967 -4.25214 0.762682 0
M  V30 7833 C 767.102 -5.31192 0.0290931 0
M  V30 7834 C 766.141 -6.03739 1.00827 0
M  V30 7835 N 765.278 -7.01437 0.305155 0
M  V30 7836 H 770.118 -2.65758 1.34821 0
M  V30 7837 H 767.655 -1.30648 0.675983 0
M  V30 7838 H 769.613 -4.12035 -0.654472 0
M  V30 7839 H 768.243 -3.05118 -1.05371 0
M  V30 7840 H 767.295 -3.57144 1.30966 0
M  V30 7841 H 768.607 -4.75406 1.50964 0
M  V30 7842 H 767.761 -6.04971 -0.457763 0
M  V30 7843 H 766.5 -4.81889 -0.750614 0
M  V30 7844 H 765.505 -5.2877 1.50607 0
M  V30 7845 H 766.73 -6.55131 1.7883 0
M  V30 7846 H 764.676 -6.54415 -0.455704 0
M  V30 7847 H 764.593 -7.49475 0.991104 0
M  V30 7848 H 765.861 -7.79336 -0.159966 0
M  V30 7849 N 770.09 -0.729906 -1.39679 0
M  V30 7850 C 771.02 -0.101618 -2.33279 0
M  V30 7851 C 772.001 0.729854 -1.53646 0
M  V30 7852 O 773.186 0.67587 -1.82059 0
M  V30 7853 C 770.316 0.81024 -3.37716 0
M  V30 7854 C 769.27 0.0833126 -4.27919 0
M  V30 7855 C 768.596 1.11185 -5.23012 0
M  V30 7856 C 769.896 -1.07107 -5.112 0
M  V30 7857 H 771.59 -0.883452 -2.86069 0
M  V30 7858 H 769.136 -0.426283 -1.37546 0
M  V30 7859 H 771.089 1.25927 -4.02145 0
M  V30 7860 H 769.813 1.62413 -2.83354 0
M  V30 7861 H 768.472 -0.346043 -3.64963 0
M  V30 7862 H 768.12 1.91917 -4.64948 0
M  V30 7863 H 767.82 0.63026 -5.8421 0
M  V30 7864 H 769.344 1.56068 -5.90318 0
M  V30 7865 H 770.758 -0.700726 -5.69002 0
M  V30 7866 H 769.155 -1.48196 -5.81514 0
M  V30 7867 H 770.225 -1.89513 -4.46332 0
M  V30 7868 N 771.568 1.50203 -0.477153 0
M  V30 7869 C 772.979 1.86685 -0.0235041 0
M  V30 7870 C 773.33 1.39148 1.38319 0
M  V30 7871 O 772.455 0.759051 2.02651 0
M  V30 7872 C 773.05 3.38781 -0.0358767 0
M  V30 7873 C 771.609 3.74652 0.362327 0
M  V30 7874 C 770.756 2.7412 -0.41875 0
M  V30 7875 H 773.707 1.4286 -0.691133 0
M  V30 7876 H 773.728 3.72732 0.764924 0
M  V30 7877 H 773.24 3.73349 -1.05981 0
M  V30 7878 H 771.341 3.45686 1.39039 0
M  V30 7879 H 771.454 4.79063 0.059457 0
M  V30 7880 H 769.818 2.54376 0.128341 0
M  V30 7881 H 770.601 3.11532 -1.44231 0
M  V30 7882 N 773.046 0.209999 1.56195 0
M  V30 7883 C 773.976 -0.699746 2.22769 0
M  V30 7884 C 774.957 -1.20993 1.1956 0
M  V30 7885 O 776.142 -1.25605 1.48112 0
M  V30 7886 C 773.272 -1.91302 2.89863 0
M  V30 7887 C 772.226 -1.53715 3.99444 0
M  V30 7888 C 771.552 -2.82826 4.53777 0
M  V30 7889 C 772.852 -0.735836 5.17091 0
M  V30 7890 H 774.546 -0.144716 2.9905 0
M  V30 7891 H 772.092 -0.0681645 1.43839 0
M  V30 7892 H 774.045 -2.5548 3.35124 0
M  V30 7893 H 772.769 -2.49283 2.11011 0
M  V30 7894 H 771.428 -0.918892 3.54897 0
M  V30 7895 H 771.076 -3.38927 3.71669 0
M  V30 7896 H 770.776 -2.58415 5.27727 0
M  V30 7897 H 772.3 -3.47966 5.01749 0
M  V30 7898 H 773.714 -1.28105 5.58804 0
M  V30 7899 H 772.111 -0.589272 5.972 0
M  V30 7900 H 773.181 0.260004 4.84202 0
M  V30 7901 N 774.524 -1.57472 -0.0634922 0
M  V30 7902 C 775.472 -2.05307 -1.09323 0
M  V30 7903 C 776.466 -0.959995 -1.39572 0
M  V30 7904 O 777.672 -1.14507 -1.38882 0
M  V30 7905 H 774.047 -0.65472 -0.369927 0
M  V30 7906 H 776.018 -2.90925 -0.663707 0
M  V30 7907 C 774.767 -2.51954 -2.39613 0
M  V30 7908 H 774.09 -3.35662 -2.1719 0
M  V30 7909 H 775.53 -2.89169 -3.10092 0
M  V30 7910 C 773.989 -1.40596 -3.06161 0
M  V30 7911 O 774.519 -0.752722 -3.94585 0
M  V30 7912 N 772.725 -1.14902 -2.66919 0
M  V30 7913 H 772.272 -1.68205 -1.95102 0
M  V30 7914 H 772.23 -0.406006 -3.11767 0
M  V30 7915 N 776.003 0.335068 -1.53997 0
M  V30 7916 C 777.249 1.07594 -1.71905 0
M  V30 7917 C 777.582 1.88039 -0.485264 0
M  V30 7918 O 776.857 1.87482 0.517752 0
M  V30 7919 C 777.14 2.01016 -2.98772 0
M  V30 7920 C 776.993 1.23977 -4.32377 0
M  V30 7921 C 778.312 3.0071 -3.21343 0
M  V30 7922 H 775.431 0.38976 -0.625505 0
M  V30 7923 H 778.073 0.353684 -1.86679 0
M  V30 7924 H 776.223 2.62603 -2.86307 0
M  V30 7925 H 777.895 0.649383 -4.56706 0
M  V30 7926 H 776.138 0.541878 -4.30402 0
M  V30 7927 H 776.809 1.92512 -5.17342 0
M  V30 7928 H 779.285 2.4924 -3.33194 0
M  V30 7929 H 778.161 3.63272 -4.11491 0
M  V30 7930 H 778.422 3.72549 -2.38033 0
M  V30 7931 N 777.481 1.45874 0.596531 0
M  V30 7932 C 778.728 1.50467 1.35521 0
M  V30 7933 C 779.056 0.150802 1.93915 0
M  V30 7934 O 778.311 -0.851913 1.76184 0
M  V30 7935 C 778.61 2.54034 2.51399 0
M  V30 7936 C 778.276 3.9844 2.11085 0
M  V30 7937 C 776.938 4.37758 1.99804 0
M  V30 7938 C 779.29 4.89209 1.79788 0
M  V30 7939 C 776.618 5.65727 1.55465 0
M  V30 7940 C 778.97 6.17602 1.36931 0
M  V30 7941 C 777.634 6.5584 1.24218 0
M  V30 7942 H 776.904 0.550597 0.495907 0
M  V30 7943 H 779.551 1.79279 0.673145 0
M  V30 7944 H 777.856 2.18832 3.24992 0
M  V30 7945 H 779.553 2.54822 3.09624 0
M  V30 7946 H 776.143 3.67353 2.20794 0
M  V30 7947 H 780.327 4.59562 1.87395 0
M  V30 7948 H 775.583 5.94139 1.44253 0
M  V30 7949 H 779.757 6.87373 1.11764 0
M  V30 7950 H 777.384 7.54897 0.896353 0
M  V30 7951 N 778.959 -0.83999 1.33349 0
M  V30 7952 C 779.907 -1.97113 1.23488 0
M  V30 7953 C 780.901 -1.68849 0.136503 0
M  V30 7954 O 782.107 -1.77476 0.300389 0
M  V30 7955 H 778.482 -0.647049 0.383185 0
M  V30 7956 H 780.453 -2.02554 2.19122 0
M  V30 7957 C 779.202 -3.33314 0.989815 0
M  V30 7958 H 778.525 -3.556 1.82726 0
M  V30 7959 H 779.965 -4.12963 0.961123 0
M  V30 7960 C 778.424 -3.35496 -0.307272 0
M  V30 7961 O 778.954 -3.79589 -1.31434 0
M  V30 7962 N 777.16 -2.88669 -0.334414 0
M  V30 7963 H 776.707 -2.5298 0.485659 0
M  V30 7964 H 776.665 -2.90512 -1.20209 0
M  V30 7965 N 780.437 -1.16799 -1.0581 0
M  V30 7966 C 781.385 -0.875111 -2.1551 0
M  V30 7967 C 782.379 0.157781 -1.68664 0
M  V30 7968 O 783.585 0.011297 -1.79996 0
M  V30 7969 H 779.96 -0.26542 -0.703602 0
M  V30 7970 H 781.931 -1.8076 -2.37421 0
M  V30 7971 C 780.68 -0.39802 -3.45414 0
M  V30 7972 H 780.003 -1.18425 -3.81858 0
M  V30 7973 H 781.443 -0.231913 -4.23365 0
M  V30 7974 C 779.902 0.88327 -3.25115 0
M  V30 7975 O 780.432 1.95145 -3.51114 0
M  V30 7976 N 778.638 0.828961 -2.78526 0
M  V30 7977 H 778.185 -0.0405029 -2.57568 0
M  V30 7978 H 778.143 1.68673 -2.65324 0
M  V30 7979 N 781.915 1.24427 -0.967243 0
M  V30 7980 C 783.145 1.96256 -0.64554 0
M  V30 7981 C 783.553 1.71959 0.789098 0
M  V30 7982 O 782.896 0.999913 1.54102 0
M  V30 7983 C 782.958 3.49553 -0.839798 0
M  V30 7984 C 782.622 3.97548 -2.25399 0
M  V30 7985 C 783.619 4.07257 -3.23168 0
M  V30 7986 C 781.304 4.30884 -2.58156 0
M  V30 7987 C 783.298 4.49635 -4.51782 0
M  V30 7988 C 780.985 4.72946 -3.86996 0
M  V30 7989 C 781.983 4.82286 -4.83621 0
M  V30 7990 O 781.671 5.23409 -6.10162 0
M  V30 7991 H 781.403 0.632002 -0.239895 0
M  V30 7992 H 783.957 1.59224 -1.29757 0
M  V30 7993 H 782.187 3.86479 -0.130603 0
M  V30 7994 H 783.876 4.02591 -0.517249 0
M  V30 7995 H 784.642 3.8172 -2.9919 0
M  V30 7996 H 780.521 4.22833 -1.83666 0
M  V30 7997 H 784.065 4.5684 -5.27203 0
M  V30 7998 H 779.962 4.9793 -4.10775 0
M  V30 7999 H 780.73 5.4156 -6.13722 0
M  V30 8000 N 783.393 0.737304 1.3929 0
M  V30 8001 C 784.64 0.286257 2.00467 0
M  V30 8002 C 784.968 -1.1272 1.58507 0
M  V30 8003 O 784.223 -1.7832 0.806257 0
M  V30 8004 C 784.522 0.338438 3.55794 0
M  V30 8005 C 784.188 1.70524 4.17411 0
M  V30 8006 C 782.85 2.07934 4.33955 0
M  V30 8007 C 785.202 2.60256 4.51571 0
M  V30 8008 C 782.53 3.34578 4.81948 0
M  V30 8009 C 784.882 3.86275 5.00974 0
M  V30 8010 C 783.546 4.23774 5.15725 0
M  V30 8011 H 782.816 0.104749 0.733559 0
M  V30 8012 H 785.463 0.944598 1.66582 0
M  V30 8013 H 783.768 -0.403478 3.89717 0
M  V30 8014 H 785.465 -0.0287255 4.0099 0
M  V30 8015 H 782.055 1.40439 4.04938 0
M  V30 8016 H 786.239 2.32624 4.38406 0
M  V30 8017 H 781.495 3.63572 4.91554 0
M  V30 8018 H 785.669 4.5596 5.26378 0
M  V30 8019 H 783.296 5.21972 5.52674 0
M  V30 8020 N 784.871 -1.49948 0.485112 0
M  V30 8021 C 786.096 -2.073 -0.0645059 0
M  V30 8022 C 786.521 -1.345 -1.31497 0
M  V30 8023 O 785.879 -0.39687 -1.76903 0
M  V30 8024 C 785.927 -3.59201 -0.317304 0
M  V30 8025 O 785.031 -3.88085 -1.39514 0
M  V30 8026 H 784.372 -0.663723 0.0191822 0
M  V30 8027 H 786.902 -1.92963 0.680179 0
M  V30 8028 H 786.912 -4.04227 -0.553604 0
M  V30 8029 H 785.587 -4.11602 0.596387 0
M  V30 8030 H 784.164 -3.54885 -1.14504 0
M  V30 8031 N 786.349 -0.21828 -1.56081 0
M  V30 8032 C 787.279 0.687922 -2.23136 0
M  V30 8033 C 788.26 1.20357 -1.202 0
M  V30 8034 O 789.445 1.24817 -1.48776 0
M  V30 8035 C 786.575 1.89762 -2.90874 0
M  V30 8036 C 785.529 1.51595 -4.00254 0
M  V30 8037 C 784.855 2.80415 -4.55271 0
M  V30 8038 C 786.155 0.708404 -5.17474 0
M  V30 8039 H 787.849 0.128854 -2.99123 0
M  V30 8040 H 785.395 0.0605354 -1.43873 0
M  V30 8041 H 787.348 2.53699 -3.36474 0
M  V30 8042 H 786.072 2.4816 -2.1233 0
M  V30 8043 H 784.731 0.900058 -3.55379 0
M  V30 8044 H 784.379 3.36951 -3.73461 0
M  V30 8045 H 784.079 2.55613 -5.2909 0
M  V30 8046 H 785.603 3.453 -5.03587 0
M  V30 8047 H 787.017 1.2514 -5.59476 0
M  V30 8048 H 785.414 0.557593 -5.97504 0
M  V30 8049 H 786.484 -0.285679 -4.84058 0
M  V30 8050 N 787.827 1.57504 0.0551401 0
M  V30 8051 C 789.075 1.87684 0.74962 0
M  V30 8052 C 789.396 0.812547 1.77264 0
M  V30 8053 O 788.666 -0.15694 1.9527 0
M  V30 8054 H 787.246 0.6926 0.279846 0
M  V30 8055 H 789.908 1.94881 0.0272745 0
M  V30 8056 H 789.004 2.85734 1.25548 0
M  V30 8057 N 789.305 -0.326896 1.54172 0
M  V30 8058 C 790.552 -1.06523 1.72218 0
M  V30 8059 C 790.88 -1.88119 0.494114 0
M  V30 8060 O 790.135 -1.8855 -0.524147 0
M  V30 8061 C 790.434 -2.0208 2.94785 0
M  V30 8062 C 790.1 -1.36665 4.2969 0
M  V30 8063 C 788.762 -1.18556 4.66367 0
M  V30 8064 C 791.114 -0.896868 5.13425 0
M  V30 8065 C 788.442 -0.521113 5.84381 0
M  V30 8066 C 790.794 -0.246261 6.3212 0
M  V30 8067 C 789.458 -0.052987 6.67479 0
M  V30 8068 H 788.728 -0.389796 0.63019 0
M  V30 8069 H 791.375 -0.342725 1.88408 0
M  V30 8070 H 789.68 -2.8077 2.73268 0
M  V30 8071 H 791.377 -2.59231 3.05941 0
M  V30 8072 H 787.967 -1.51762 4.00832 0
M  V30 8073 H 792.151 -1.02458 4.85609 0
M  V30 8074 H 787.407 -0.36014 6.10338 0
M  V30 8075 H 791.581 0.125775 6.96286 0
M  V30 8076 H 789.208 0.463903 7.58783 0
M  V30 8077 N 790.784 -1.46188 -0.588786 0
M  V30 8078 C 792.061 -1.41659 -1.34878 0
M  V30 8079 C 792.441 -0.0968913 -2.10878 0
M  V30 8080 O 791.789 0.921468 -2.09096 0
M  V30 8081 C 791.999 -2.6424 -2.27988 0
M  V30 8082 C 793.347 -3.1013 -2.90008 0
M  V30 8083 O 794.371 -2.64745 -2.38303 0
M  V30 8084 O 793.23 -3.88944 -3.83908 0
M  V30 8085 H 790.324 -0.563058 -0.605718 0
M  V30 8086 H 792.87 -1.58346 -0.610309 0
M  V30 8087 H 791.642 -3.51853 -1.71217 0
M  V30 8088 H 791.265 -2.49982 -3.09184 0
M  V30 8089 N 792.262 0.832906 -1.33792 0
M  V30 8090 C 793.225 1.92471 -1.24449 0
M  V30 8091 C 794.225 1.59981 -0.162085 0
M  V30 8092 O 795.415 1.69208 -0.414029 0
M  V30 8093 C 792.547 3.28278 -0.919044 0
M  V30 8094 H 793.74 2.0218 -2.21502 0
M  V30 8095 H 791.293 1.0257 -1.17936 0
M  V30 8096 H 792.028 3.24263 0.048738 0
M  V30 8097 H 791.813 3.53241 -1.70187 0
M  V30 8098 H 793.303 4.08253 -0.878576 0
M  V30 8099 N 793.74 1.17359 1.05189 0
M  V30 8100 C 794.69 0.858445 2.11222 0
M  V30 8101 C 795.674 -0.166991 1.60031 0
M  V30 8102 O 796.866 0.0354456 1.76965 0
M  V30 8103 C 793.995 0.373549 3.41262 0
M  V30 8104 C 793.081 1.43041 3.99249 0
M  V30 8105 N 793.472 2.64387 4.312 0
M  V30 8106 C 791.77 1.28828 4.26989 0
M  V30 8107 C 792.471 3.32296 4.77446 0
M  V30 8108 N 791.447 2.59674 4.77567 0
M  V30 8109 H 795.249 1.78104 2.33786 0
M  V30 8110 H 792.763 1.0623 1.22837 0
M  V30 8111 H 794.76 0.129331 4.16699 0
M  V30 8112 H 793.42 -0.542847 3.2013 0
M  V30 8113 H 794.431 3.01351 4.21198 0
M  V30 8114 H 791.108 0.43353 4.15243 0
M  V30 8115 H 792.498 4.35939 5.11279 0
M  V30 8116 N 795.218 -1.23913 0.973828 0
M  V30 8117 C 796.464 -1.92436 0.640026 0
M  V30 8118 C 796.797 -1.75875 -0.823512 0
M  V30 8119 O 796.072 -1.11563 -1.59323 0
M  V30 8120 C 796.355 -3.4526 1.0231 0
M  V30 8121 C 796.208 -3.70961 2.54378 0
M  V30 8122 C 797.527 -4.36495 0.562155 0
M  V30 8123 H 794.646 -0.698868 0.233992 0
M  V30 8124 H 797.288 -1.46163 1.21393 0
M  V30 8125 H 795.438 -3.84802 0.534751 0
M  V30 8126 H 797.11 -3.40941 3.10737 0
M  V30 8127 H 795.353 -3.15899 2.97305 0
M  V30 8128 H 796.024 -4.77912 2.76232 0
M  V30 8129 H 798.5 -4.04363 0.981333 0
M  V30 8130 H 797.376 -5.42142 0.858689 0
M  V30 8131 H 797.637 -4.38818 -0.537659 0
M  V30 8132 N 796.696 -0.74468 -1.38897 0
M  V30 8133 C 797.924 -0.307428 -2.04603 0
M  V30 8134 C 798.339 1.06115 -1.56157 0
M  V30 8135 O 797.696 1.67233 -0.730701 0
M  V30 8136 C 797.747 -0.31101 -3.6016 0
M  V30 8137 O 797.468 -1.62557 -4.06825 0
M  V30 8138 C 798.969 0.141213 -4.43075 0
M  V30 8139 H 796.189 -0.132741 -0.657739 0
M  V30 8140 H 798.733 -1.01104 -1.77759 0
M  V30 8141 H 796.888 0.343792 -3.85872 0
M  V30 8142 H 797.302 -1.54569 -5.01207 0
M  V30 8143 H 798.776 0.0875449 -5.51931 0
M  V30 8144 H 799.253 1.18782 -4.22833 0
M  V30 8145 H 799.859 -0.484383 -4.22533 0
M  V30 8146 N 798.174 1.49689 -0.493057 0
M  V30 8147 C 799.104 2.31826 0.279073 0
M  V30 8148 C 800.085 1.39733 0.969987 0
M  V30 8149 O 801.27 1.68646 0.962925 0
M  V30 8150 C 798.4 3.20046 1.34862 0
M  V30 8151 C 797.354 4.20869 0.77805 0
M  V30 8152 C 796.68 4.97971 1.94753 0
M  V30 8153 C 797.98 5.21813 -0.225543 0
M  V30 8154 H 799.674 2.96627 -0.406512 0
M  V30 8155 H 797.22 1.42647 -0.196943 0
M  V30 8156 H 799.173 3.76315 1.89645 0
M  V30 8157 H 797.897 2.53172 2.06328 0
M  V30 8158 H 796.556 3.65733 0.252036 0
M  V30 8159 H 796.204 4.27552 2.64969 0
M  V30 8160 H 795.904 5.66186 1.57187 0
M  V30 8161 H 797.428 5.57082 2.49984 0
M  V30 8162 H 798.842 5.72823 0.233864 0
M  V30 8163 H 797.239 5.97872 -0.516622 0
M  V30 8164 H 798.309 4.71209 -1.14412 0
M  V30 8165 N 799.652 0.226554 1.55963 0
M  V30 8166 C 800.562 -0.692725 2.24139 0
M  V30 8167 C 801.578 -1.20971 1.25068 0
M  V30 8168 O 802.754 -1.25027 1.57893 0
M  V30 8169 C 799.819 -1.88183 2.91184 0
M  V30 8170 C 798.88 -1.40633 4.05612 0
M  V30 8171 C 798.113 -2.53875 4.6945 0
M  V30 8172 O 798.336 -3.72129 4.32292 0
M  V30 8173 O 797.27 -2.24792 5.58348 0
M  V30 8174 H 801.096 -0.141921 3.03368 0
M  V30 8175 H 798.681 -0.0041049 1.49399 0
M  V30 8176 H 800.563 -2.57617 3.33484 0
M  V30 8177 H 799.238 -2.42064 2.14911 0
M  V30 8178 H 798.145 -0.67986 3.67871 0
M  V30 8179 H 799.478 -0.913838 4.83642 0
M  V30 8180 N 801.13 -1.57531 -0.0467866 0
M  V30 8181 C 802.377 -1.88451 -0.74112 0
M  V30 8182 C 802.705 -0.821592 -1.76296 0
M  V30 8183 O 801.96 0.179585 -1.94874 0
M  V30 8184 C 802.259 -3.26091 -1.46285 0
M  V30 8185 C 801.925 -4.47171 -0.578669 0
M  V30 8186 C 800.587 -4.80032 -0.335083 0
M  V30 8187 C 802.939 -5.2119 0.0328809 0
M  V30 8188 C 800.267 -5.84309 0.529121 0
M  V30 8189 C 802.619 -6.26383 0.884684 0
M  V30 8190 C 801.283 -6.57729 1.1379 0
M  V30 8191 H 800.553 -0.68959 -0.271195 0
M  V30 8192 H 803.2 -1.915 -0.00132378 0
M  V30 8193 H 801.505 -3.18948 -2.27551 0
M  V30 8194 H 803.202 -3.47258 -2.00532 0
M  V30 8195 H 799.792 -4.21467 -0.778666 0
M  V30 8196 H 803.976 -4.96096 -0.142375 0
M  V30 8197 H 799.232 -6.06981 0.733794 0
M  V30 8198 H 803.406 -6.82888 1.36516 0
M  V30 8199 H 801.033 -7.38355 1.80929 0
M  V30 8200 N 802.608 0.318715 -1.54344 0
M  V30 8201 C 803.558 1.39364 -1.80448 0
M  V30 8202 C 804.542 1.46708 -0.660728 0
M  V30 8203 O 805.734 1.51159 -0.920869 0
M  V30 8204 C 802.863 2.76144 -2.03959 0
M  V30 8205 C 801.949 2.73094 -3.24469 0
M  V30 8206 N 802.34 2.39663 -4.45416 0
M  V30 8207 C 800.638 3.04218 -3.2614 0
M  V30 8208 C 801.339 2.45469 -5.27371 0
M  V30 8209 N 800.315 2.82107 -4.64668 0
M  V30 8210 H 804.117 1.12453 -2.71535 0
M  V30 8211 H 801.631 0.527221 -1.53604 0
M  V30 8212 H 803.628 3.53627 -2.20802 0
M  V30 8213 H 802.288 3.03982 -1.14129 0
M  V30 8214 H 803.299 2.12424 -4.72331 0
M  V30 8215 H 799.976 3.37066 -2.4636 0
M  V30 8216 H 801.366 2.22571 -6.33965 0
M  V30 8217 N 804.086 1.46499 0.581025 0
M  V30 8218 C 804.996 1.59778 1.71779 0
M  V30 8219 C 806.012 0.481223 1.67213 0
M  V30 8220 O 807.188 0.74557 1.87091 0
M  V30 8221 C 804.253 1.58626 3.08283 0
M  V30 8222 C 803.314 2.81527 3.241 0
M  V30 8223 C 802.547 2.80421 4.54092 0
M  V30 8224 O 802.77 1.89262 5.38085 0
M  V30 8225 O 801.704 3.71984 4.73193 0
M  V30 8226 H 805.53 2.55918 1.63523 0
M  V30 8227 H 803.115 1.29311 0.748267 0
M  V30 8228 H 804.997 1.60686 3.89561 0
M  V30 8229 H 803.672 0.656467 3.16973 0
M  V30 8230 H 802.579 2.85021 2.42309 0
M  V30 8231 H 803.912 3.73721 3.20302 0
M  V30 8232 N 805.565 -0.825799 1.34232 0
M  V30 8233 C 806.79 -1.61883 1.29648 0
M  V30 8234 C 807.215 -1.87669 -0.127295 0
M  V30 8235 O 806.573 -1.45016 -1.08813 0
M  V30 8236 C 806.621 -2.93846 2.09014 0
M  V30 8237 O 805.725 -3.85778 1.4577 0
M  V30 8238 H 805.066 -0.492454 0.445405 0
M  V30 8239 H 807.596 -1.02641 1.76992 0
M  V30 8240 H 807.606 -3.43435 2.20264 0
M  V30 8241 H 806.281 -2.74401 3.12533 0
M  V30 8242 H 804.858 -3.4429 1.43245 0
M  V30 8243 N 807.043 -1.17915 -1.04565 0
M  V30 8244 C 808.459 -0.927761 -1.29864 0
M  V30 8245 C 808.659 0.409536 -1.97294 0
M  V30 8246 O 807.715 1.14505 -2.25044 0
M  V30 8247 C 809.028 -2.08967 -2.16225 0
M  V30 8248 C 810.576 -2.12741 -2.29587 0
M  V30 8249 C 811.051 -3.28335 -3.19312 0
M  V30 8250 N 812.542 -3.28164 -3.26898 0
M  V30 8251 C 813.277 -4.14249 -3.96466 0
M  V30 8252 N 812.773 -5.10457 -4.68407 0
M  V30 8253 N 814.566 -4.02179 -3.92694 0
M  V30 8254 H 806.717 -2.03983 -0.592011 0
M  V30 8255 H 808.98 -0.891023 -0.323701 0
M  V30 8256 H 808.686 -3.05654 -1.73979 0
M  V30 8257 H 808.56 -2.04606 -3.16885 0
M  V30 8258 H 810.947 -1.16636 -2.71072 0
M  V30 8259 H 811.028 -2.21162 -1.28535 0
M  V30 8260 H 810.672 -4.2471 -2.78539 0
M  V30 8261 H 810.602 -3.17151 -4.20384 0
M  V30 8262 H 813.093 -2.58511 -2.75646 0
M  V30 8263 H 813.406 -5.72526 -5.1907 0
M  V30 8264 H 811.751 -5.14422 -4.67328 0
M  V30 8265 H 814.942 -3.26308 -3.3562 0
M  V30 8266 H 815.115 -4.69486 -4.4664 0
M  V30 8267 N 808.521 1.23394 -0.980386 0
M  V30 8268 C 809.431 2.28561 -0.528864 0
M  V30 8269 C 810.447 1.68946 0.416329 0
M  V30 8270 O 811.623 1.99355 0.286251 0
M  V30 8271 C 808.688 3.46323 0.16155 0
M  V30 8272 C 807.749 4.21297 -0.825044 0
M  V30 8273 C 806.982 5.33437 -0.167483 0
M  V30 8274 O 807.205 5.60812 1.04146 0
M  V30 8275 O 806.139 5.95637 -0.866047 0
M  V30 8276 H 809.965 2.69326 -1.40346 0
M  V30 8277 H 807.55 1.29325 -0.748019 0
M  V30 8278 H 809.432 4.17811 0.548841 0
M  V30 8279 H 808.107 3.0751 1.01092 0
M  V30 8280 H 807.014 3.52134 -1.26303 0
M  V30 8281 H 808.347 4.6396 -1.64322 0
M  V30 8282 N 809.999 0.752036 1.385 0
M  V30 8283 C 810.962 0.131587 2.28822 0
M  V30 8284 C 811.962 -0.649149 1.47115 0
M  V30 8285 O 813.152 -0.475645 1.67581 0
M  V30 8286 C 810.284 -0.822101 3.30839 0
M  V30 8287 H 811.477 0.927551 2.85196 0
M  V30 8288 H 809.03 0.518945 1.47434 0
M  V30 8289 H 809.765 -1.6438 2.79553 0
M  V30 8290 H 809.55 -0.264689 3.91206 0
M  V30 8291 H 811.04 -1.25226 3.98382 0
M  V30 8292 N 811.477 -1.49425 0.500989 0
M  V30 8293 C 812.425 -2.30771 -0.291149 0
M  V30 8294 C 813.419 -1.3938 -0.962787 0
M  V30 8295 O 814.625 -1.56431 -0.890477 0
M  V30 8296 H 811 -0.743499 -0.11275 0
M  V30 8297 H 812.971 -2.95501 0.414917 0
M  V30 8298 C 811.72 -3.20725 -1.34279 0
M  V30 8299 H 811.043 -3.90975 -0.83538 0
M  V30 8300 H 812.483 -3.80583 -1.86903 0
M  V30 8301 C 810.942 -2.40334 -2.36095 0
M  V30 8302 O 811.472 -2.10749 -3.41976 0
M  V30 8303 N 809.678 -2.02359 -2.08565 0
M  V30 8304 H 809.225 -2.26619 -1.22482 0
M  V30 8305 H 809.183 -1.48878 -2.76916 0
M  V30 8306 N 812.955 -0.234822 -1.55841 0
M  V30 8307 C 814.366 0.270588 -1.84729 0
M  V30 8308 C 814.717 1.58494 -1.15646 0
M  V30 8309 O 813.842 2.12071 -0.430667 0
M  V30 8310 C 814.437 0.497733 -3.35124 0
M  V30 8311 C 812.996 0.947428 -3.64281 0
M  V30 8312 C 812.143 0.01787 -2.77294 0
M  V30 8313 H 815.094 -0.457691 -1.51957 0
M  V30 8314 H 815.115 1.34199 -3.56049 0
M  V30 8315 H 814.627 -0.459037 -3.85376 0
M  V30 8316 H 812.728 1.91709 -3.19497 0
M  V30 8317 H 812.841 0.812651 -4.72158 0
M  V30 8318 H 811.205 0.527071 -2.49187 0
M  V30 8319 H 811.988 -0.934056 -3.30349 0
M  V30 8320 N 814.433 1.57553 0.0384317 0
M  V30 8321 C 815.343 2.09333 1.0591 0
M  V30 8322 C 816.359 1.0299 1.40247 0
M  V30 8323 O 817.535 1.34669 1.49754 0
M  V30 8324 C 814.6 2.55468 2.34386 0
M  V30 8325 C 813.661 3.76254 2.06716 0
M  V30 8326 C 812.894 4.20179 3.29067 0
M  V30 8327 O 813.117 3.637 4.39407 0
M  V30 8328 O 812.051 5.12697 3.15317 0
M  V30 8329 H 815.877 2.96683 0.649087 0
M  V30 8330 H 813.462 1.47211 0.254802 0
M  V30 8331 H 815.344 2.85514 3.09935 0
M  V30 8332 H 814.019 1.71234 2.74701 0
M  V30 8333 H 812.926 3.51241 1.28766 0
M  V30 8334 H 814.259 4.61443 1.71263 0
M  V30 8335 N 815.911 -0.310526 1.54511 0
M  V30 8336 C 816.858 -1.38264 1.84802 0
M  V30 8337 C 817.828 -1.50808 0.696141 0
M  V30 8338 O 819.013 -1.6582 0.943846 0
M  V30 8339 C 816.153 -2.74422 2.09252 0
M  V30 8340 C 815.266 -2.70405 3.36906 0
M  V30 8341 C 814.401 -3.98495 3.51248 0
M  V30 8342 C 813.44 -3.88836 4.72729 0
M  V30 8343 N 812.577 -5.08683 4.83928 0
M  V30 8344 H 817.417 -1.11732 2.76261 0
M  V30 8345 H 814.954 -0.540609 1.36806 0
M  V30 8346 H 816.912 -3.53593 2.21422 0
M  V30 8347 H 815.542 -2.99235 1.2107 0
M  V30 8348 H 814.594 -1.83151 3.33406 0
M  V30 8349 H 815.906 -2.59155 4.26193 0
M  V30 8350 H 815.06 -4.861 3.63031 0
M  V30 8351 H 813.799 -4.12567 2.60077 0
M  V30 8352 H 812.804 -2.99615 4.60989 0
M  V30 8353 H 814.029 -3.76318 5.65298 0
M  V30 8354 H 811.975 -5.23236 3.95677 0
M  V30 8355 H 811.892 -4.99819 5.67201 0
M  V30 8356 H 813.16 -5.97966 5.00057 0
M  V30 8357 N 817.389 -1.46805 -0.573248 0
M  V30 8358 C 818.636 -1.52604 -1.3311 0
M  V30 8359 C 818.964 -0.181633 -1.9365 0
M  V30 8360 O 818.219 0.823775 -1.77517 0
M  V30 8361 C 818.518 -2.58001 -2.47326 0
M  V30 8362 C 818.184 -4.01747 -2.04719 0
M  V30 8363 C 816.846 -4.40881 -1.92814 0
M  V30 8364 C 819.198 -4.92008 -1.71982 0
M  V30 8365 C 816.526 -5.68129 -1.46445 0
M  V30 8366 C 818.878 -6.19703 -1.27089 0
M  V30 8367 C 817.542 -6.57733 -1.13768 0
M  V30 8368 H 816.812 -0.558417 -0.487084 0
M  V30 8369 H 819.459 -1.80327 -0.644538 0
M  V30 8370 H 817.764 -2.23974 -3.2147 0
M  V30 8371 H 819.461 -2.59715 -3.05531 0
M  V30 8372 H 816.051 -3.70819 -2.14922 0
M  V30 8373 H 820.235 -4.62485 -1.8006 0
M  V30 8374 H 815.491 -5.96359 -1.34783 0
M  V30 8375 H 819.665 -6.89064 -1.00814 0
M  V30 8376 H 817.292 -7.56228 -0.776142 0
M  V30 8377 N 818.867 0.818669 -1.34668 0
M  V30 8378 C 819.815 1.95123 -1.26609 0
M  V30 8379 C 820.809 1.68611 -0.163348 0
M  V30 8380 O 822.015 1.76975 -0.328586 0
M  V30 8381 H 818.39 0.640871 -0.393431 0
M  V30 8382 H 820.361 1.99043 -2.22316 0
M  V30 8383 C 819.11 3.31697 -1.04272 0
M  V30 8384 H 818.433 3.52648 -1.8836 0
M  V30 8385 H 819.873 4.11382 -1.0267 0
M  V30 8386 C 818.332 3.35942 0.253858 0
M  V30 8387 O 818.862 3.81632 1.25378 0
M  V30 8388 N 817.068 2.89165 0.288447 0
M  V30 8389 H 816.615 2.52176 -0.525845 0
M  V30 8390 H 816.573 2.92387 1.15572 0
M  V30 8391 N 820.346 1.18468 1.03938 0
M  V30 8392 C 821.571 1.00638 1.81347 0
M  V30 8393 C 821.996 -0.440477 1.8287 0
M  V30 8394 O 821.354 -1.31609 1.24695 0
M  V30 8395 C 821.402 1.5673 3.24759 0
M  V30 8396 O 820.506 0.789517 4.04772 0
M  V30 8397 H 819.847 0.356432 0.560225 0
M  V30 8398 H 822.377 1.57253 1.30891 0
M  V30 8399 H 822.387 1.59496 3.75533 0
M  V30 8400 H 821.062 2.62043 3.22965 0
M  V30 8401 H 819.639 0.834267 3.63448 0
M  V30 8402 N 821.824 -1.22873 0.986916 0
M  V30 8403 C 823.24 -1.43594 0.696633 0
M  V30 8404 C 823.44 -1.87622 -0.734869 0
M  V30 8405 O 822.496 -2.02633 -1.50652 0
M  V30 8406 C 823.809 -2.48231 1.69711 0
M  V30 8407 C 825.357 -2.62037 1.71188 0
M  V30 8408 C 825.832 -3.6989 2.70084 0
M  V30 8409 N 827.323 -3.77341 2.68641 0
M  V30 8410 C 828.058 -4.6037 3.41829 0
M  V30 8411 N 827.554 -5.47438 4.24598 0
M  V30 8412 N 829.347 -4.54626 3.30563 0
M  V30 8413 H 821.498 -0.925982 1.91153 0
M  V30 8414 H 823.761 -0.46866 0.824052 0
M  V30 8415 H 823.467 -2.22812 2.72117 0
M  V30 8416 H 823.341 -3.46731 1.48516 0
M  V30 8417 H 825.728 -2.86803 0.694837 0
M  V30 8418 H 825.809 -1.63831 1.96451 0
M  V30 8419 H 825.453 -3.45872 3.71934 0
M  V30 8420 H 825.383 -4.67652 2.42093 0
M  V30 8421 H 827.874 -3.15124 2.08578 0
M  V30 8422 H 828.187 -6.078 4.77283 0
M  V30 8423 H 826.532 -5.4704 4.28687 0
M  V30 8424 H 829.723 -3.85627 2.65347 0
M  V30 8425 H 829.896 -5.19103 3.8786 0
M  V30 8426 N 823.302 -0.75937 -1.38099 0
M  V30 8427 C 824.549 -0.318113 -1.99986 0
M  V30 8428 C 824.877 1.10184 -1.6028 0
M  V30 8429 O 824.132 1.77015 -0.834524 0
M  V30 8430 C 824.431 -0.394999 -3.55211 0
M  V30 8431 C 824.097 -1.77143 -4.14646 0
M  V30 8432 C 822.759 -2.14811 -4.30592 0
M  V30 8433 C 825.111 -2.67407 -4.47373 0
M  V30 8434 C 822.439 -3.42203 -4.76565 0
M  V30 8435 C 824.791 -3.94196 -4.94765 0
M  V30 8436 C 823.455 -4.31925 -5.08918 0
M  V30 8437 H 822.725 -0.116406 -0.7318 0
M  V30 8438 H 825.372 -0.97098 -1.65058 0
M  V30 8439 H 823.677 0.341426 -3.9031 0
M  V30 8440 H 825.374 -0.0350722 -4.00985 0
M  V30 8441 H 821.964 -1.46864 -4.02652 0
M  V30 8442 H 826.148 -2.39569 -4.3465 0
M  V30 8443 H 821.404 -3.71346 -4.85708 0
M  V30 8444 H 825.578 -4.64276 -5.19057 0
M  V30 8445 H 823.205 -5.30699 -5.443 0
M  V30 8446 N 824.78 1.49157 -0.508906 0
M  V30 8447 C 826.196 1.58741 -0.165372 0
M  V30 8448 C 826.396 1.5133 1.33047 0
M  V30 8449 O 825.452 1.39135 2.10707 0
M  V30 8450 C 826.765 2.91217 -0.749194 0
M  V30 8451 C 828.313 3.047 -0.716015 0
M  V30 8452 C 828.788 4.39807 -1.27804 0
M  V30 8453 N 830.279 4.46319 -1.23908 0
M  V30 8454 C 831.014 5.49325 -1.64406 0
M  V30 8455 N 830.51 6.59395 -2.12534 0
M  V30 8456 N 832.303 5.40084 -1.55773 0
M  V30 8457 H 824.454 1.52217 -1.48134 0
M  V30 8458 H 826.717 0.721514 -0.614915 0
M  V30 8459 H 826.423 3.02233 -1.79856 0
M  V30 8460 H 826.297 3.76592 -0.214144 0
M  V30 8461 H 828.684 2.9331 0.324535 0
M  V30 8462 H 828.765 2.2099 -1.2883 0
M  V30 8463 H 828.409 4.5195 -2.31741 0
M  V30 8464 H 828.339 5.2217 -0.681623 0
M  V30 8465 H 830.83 3.67354 -0.886537 0
M  V30 8466 H 831.143 7.34102 -2.41485 0
M  V30 8467 H 829.488 6.60414 -2.16513 0
M  V30 8468 H 832.679 4.52986 -1.17987 0
M  V30 8469 H 832.852 6.20233 -1.87657 0
M  V30 8470 N 826.258 0.243083 1.55714 0
M  V30 8471 C 827.206 -0.674349 2.2261 0
M  V30 8472 C 828.2 -1.18307 1.21243 0
M  V30 8473 O 829.406 -1.1404 1.39265 0
M  V30 8474 H 825.781 -0.235941 0.714028 0
M  V30 8475 H 827.752 -0.0869446 2.98273 0
M  V30 8476 C 826.501 -1.86206 2.93637 0
M  V30 8477 H 825.824 -1.47975 3.71407 0
M  V30 8478 H 827.264 -2.4813 3.43813 0
M  V30 8479 C 825.723 -2.73084 1.97298 0
M  V30 8480 O 826.253 -3.72497 1.50361 0
M  V30 8481 N 824.459 -2.39571 1.64482 0
M  V30 8482 H 824.006 -1.5878 2.02846 0
M  V30 8483 H 823.964 -2.97976 1.00288 0
M  V30 8484 N 827.736 -1.57571 -0.0300757 0
M  V30 8485 C 828.683 -2.06492 -1.03101 0
M  V30 8486 C 829.653 -0.953862 -1.3598 0
M  V30 8487 O 830.838 -1.22436 -1.46335 0
M  V30 8488 C 827.978 -2.54826 -2.32718 0
M  V30 8489 C 827.091 -3.79718 -2.06006 0
M  V30 8490 C 826.226 -4.16668 -3.29487 0
M  V30 8491 C 825.265 -5.3448 -2.98324 0
M  V30 8492 N 824.402 -5.66867 -4.14254 0
M  V30 8493 H 829.242 -2.91755 -0.606877 0
M  V30 8494 H 826.779 -1.44252 -0.288038 0
M  V30 8495 H 828.737 -2.80916 -3.08451 0
M  V30 8496 H 827.367 -1.72481 -2.72856 0
M  V30 8497 H 826.419 -3.60718 -1.20774 0
M  V30 8498 H 827.731 -4.65569 -1.79017 0
M  V30 8499 H 826.885 -4.43881 -4.13588 0
M  V30 8500 H 825.624 -3.29466 -3.59588 0
M  V30 8501 H 824.629 -5.07021 -2.12625 0
M  V30 8502 H 825.854 -6.23334 -2.69502 0
M  V30 8503 H 823.8 -4.82625 -4.44308 0
M  V30 8504 H 823.717 -6.47226 -3.90685 0
M  V30 8505 H 824.985 -5.98656 -4.99231 0
M  V30 8506 N 829.214 0.302327 -1.54673 0
M  V30 8507 C 830.147 1.39738 -1.80412 0
M  V30 8508 C 831.125 1.48813 -0.655241 0
M  V30 8509 O 832.309 1.65895 -0.89505 0
M  V30 8510 C 829.436 2.7766 -1.93966 0
M  V30 8511 C 828.482 2.86014 -3.16383 0
M  V30 8512 S 829.315 2.48246 -4.74483 0
M  V30 8513 C 830.471 3.88198 -4.90971 0
M  V30 8514 H 830.704 1.17696 -2.73011 0
M  V30 8515 H 828.237 0.500364 -1.46068 0
M  V30 8516 H 830.195 3.571 -2.0246 0
M  V30 8517 H 828.856 2.96971 -1.02307 0
M  V30 8518 H 828.049 3.87174 -3.22664 0
M  V30 8519 H 827.651 2.14568 -3.06328 0
M  V30 8520 H 829.943 4.83181 -4.74913 0
M  V30 8521 H 830.886 3.86887 -5.93063 0
M  V30 8522 H 831.294 3.78139 -4.19131 0
M  V30 8523 N 830.692 1.47107 0.565454 0
M  V30 8524 C 831.939 1.53308 1.32299 0
M  V30 8525 C 832.267 0.1919 1.93551 0
M  V30 8526 O 831.522 -0.81435 1.77952 0
M  V30 8527 C 831.821 2.59309 2.45954 0
M  V30 8528 C 831.487 4.02827 2.02586 0
M  V30 8529 C 830.149 4.41897 1.90474 0
M  V30 8530 C 832.501 4.92913 1.6937 0
M  V30 8531 C 829.829 5.68898 1.4343 0
M  V30 8532 C 832.181 6.20368 1.238 0
M  V30 8533 C 830.845 6.58327 1.10278 0
M  V30 8534 H 830.115 0.560993 0.484116 0
M  V30 8535 H 832.762 1.80667 0.634965 0
M  V30 8536 H 831.067 2.25676 3.20277 0
M  V30 8537 H 832.764 2.61332 3.04149 0
M  V30 8538 H 829.354 3.71953 2.12952 0
M  V30 8539 H 833.538 4.63433 1.77605 0
M  V30 8540 H 828.794 5.97065 1.31618 0
M  V30 8541 H 832.968 6.89589 0.971586 0
M  V30 8542 H 830.595 7.56628 0.736027 0
M  V30 8543 N 832.17 -0.811516 1.35101 0
M  V30 8544 C 833.4 -1.59749 1.31011 0
M  V30 8545 C 833.808 -1.88847 -0.115566 0
M  V30 8546 O 833.151 -1.48854 -1.07649 0
M  V30 8547 C 833.213 -2.95714 2.04435 0
M  V30 8548 C 832.877 -2.89456 3.53645 0
M  V30 8549 C 833.874 -2.63237 4.48333 0
M  V30 8550 C 831.559 -3.08728 3.96222 0
M  V30 8551 C 833.553 -2.56361 5.83573 0
M  V30 8552 C 831.24 -3.01475 5.3156 0
M  V30 8553 C 832.238 -2.75326 6.25048 0
M  V30 8554 O 831.926 -2.68026 7.57903 0
M  V30 8555 H 831.658 -0.502889 0.45175 0
M  V30 8556 H 834.212 -1.01687 1.78462 0
M  V30 8557 H 832.442 -3.55739 1.51613 0
M  V30 8558 H 834.131 -3.56816 1.93487 0
M  V30 8559 H 834.897 -2.48072 4.16756 0
M  V30 8560 H 830.776 -3.28094 3.23845 0
M  V30 8561 H 834.32 -2.35871 6.56514 0
M  V30 8562 H 830.217 -3.16197 5.62752 0
M  V30 8563 H 830.985 -2.8367 7.67772 0
M  V30 8564 N 833.648 -1.19017 -1.03309 0
M  V30 8565 C 834.611 -0.926076 -2.09658 0
M  V30 8566 C 835.611 0.0917077 -1.60538 0
M  V30 8567 O 836.801 -0.142574 -1.73616 0
M  V30 8568 C 833.933 -0.390958 -3.38651 0
M  V30 8569 H 835.126 -1.86923 -2.3452 0
M  V30 8570 H 832.679 -1.00325 -1.19853 0
M  V30 8571 H 833.414 0.558446 -3.19456 0
M  V30 8572 H 833.199 -1.12474 -3.75622 0
M  V30 8573 H 834.689 -0.225131 -4.16993 0
M  V30 8574 N 835.127 1.22348 -0.993418 0
M  V30 8575 C 836.375 1.90733 -0.668246 0
M  V30 8576 C 836.696 1.77732 0.802261 0
M  V30 8577 O 835.966 1.16486 1.57505 0
M  V30 8578 H 834.546 0.705966 -0.244174 0
M  V30 8579 H 837.208 1.48691 -1.26004 0
M  V30 8580 H 836.304 2.97883 -0.931239 0
M  V30 8581 N 836.605 0.766683 1.37694 0
M  V30 8582 C 837.568 0.155849 2.2867 0
M  V30 8583 C 838.568 -0.633509 1.47795 0
M  V30 8584 O 839.758 -0.457844 1.68076 0
M  V30 8585 C 836.89 -0.786965 3.31692 0
M  V30 8586 H 838.083 0.957748 2.84196 0
M  V30 8587 H 835.636 0.534554 1.46875 0
M  V30 8588 H 836.371 -1.61406 2.8128 0
M  V30 8589 H 836.156 -0.223182 3.91464 0
M  V30 8590 H 837.646 -1.20994 3.99688 0
M  V30 8591 N 838.083 -1.48885 0.516809 0
M  V30 8592 C 839.046 -2.27916 -0.242256 0
M  V30 8593 C 840.046 -1.34601 -0.879735 0
M  V30 8594 O 841.236 -1.57616 -0.74182 0
M  V30 8595 C 838.368 -3.13067 -1.34914 0
M  V30 8596 H 839.561 -2.96483 0.451444 0
M  V30 8597 H 837.114 -1.5391 0.272294 0
M  V30 8598 H 837.849 -2.49102 -2.07651 0
M  V30 8599 H 837.634 -3.81695 -0.897313 0
M  V30 8600 H 839.124 -3.72716 -1.88341 0
M  V30 8601 N 839.561 -0.251338 -1.55583 0
M  V30 8602 C 840.808 0.372169 -1.99051 0
M  V30 8603 C 841.136 1.57623 -1.13953 0
M  V30 8604 O 840.391 1.94762 -0.191398 0
M  V30 8605 C 840.69 0.821186 -3.47838 0
M  V30 8606 C 840.356 -0.275608 -4.50057 0
M  V30 8607 C 839.018 -0.57683 -4.7773 0
M  V30 8608 C 841.37 -1.01585 -5.11204 0
M  V30 8609 C 838.698 -1.62229 -5.63825 0
M  V30 8610 C 841.05 -2.05087 -5.98433 0
M  V30 8611 C 839.714 -2.35869 -6.24437 0
M  V30 8612 H 838.984 0.136186 -0.728378 0
M  V30 8613 H 841.631 -0.360089 -1.88084 0
M  V30 8614 H 839.936 1.63272 -3.56159 0
M  V30 8615 H 841.633 1.31396 -3.78861 0
M  V30 8616 H 838.223 -0.030697 -4.28589 0
M  V30 8617 H 842.407 -0.79639 -4.89869 0
M  V30 8618 H 837.663 -1.86607 -5.82226 0
M  V30 8619 H 841.837 -2.62934 -6.44855 0
M  V30 8620 H 839.464 -3.17017 -6.90944 0
M  V30 8621 N 841.039 1.57585 0.0217189 0
M  V30 8622 C 842.264 1.94267 0.726309 0
M  V30 8623 C 842.689 0.851904 1.67703 0
M  V30 8624 O 842.047 -0.191792 1.80283 0
M  V30 8625 C 842.095 3.30023 1.45318 0
M  V30 8626 O 841.199 3.22791 2.5667 0
M  V30 8627 H 840.54 0.634777 0.194818 0
M  V30 8628 H 843.07 2.04585 -0.0249985 0
M  V30 8629 H 843.08 3.65084 1.82147 0
M  V30 8630 H 841.755 4.08972 0.755962 0
M  V30 8631 H 840.332 2.99373 2.2233 0
M  V30 8632 N 842.517 -0.29412 1.54831 0
M  V30 8633 C 843.794 -1.04847 1.65126 0
M  V30 8634 C 844.174 -2.04996 0.503986 0
M  V30 8635 O 843.522 -2.22996 -0.498496 0
M  V30 8636 C 843.732 -1.72418 3.03435 0
M  V30 8637 C 845.08 -2.24362 3.60481 0
M  V30 8638 O 846.104 -1.8244 3.05932 0
M  V30 8639 O 844.963 -3.01196 4.56008 0
M  V30 8640 H 842.057 -0.485032 0.669831 0
M  V30 8641 H 844.603 -0.291659 1.67175 0
M  V30 8642 H 843.375 -0.997351 3.78376 0
M  V30 8643 H 842.998 -2.54839 3.05193 0
M  V30 8644 N 843.995 -1.47404 -0.557645 0
M  V30 8645 C 845.242 -1.54007 -1.31484 0
M  V30 8646 C 845.57 -0.202162 -1.93447 0
M  V30 8647 O 844.825 0.804901 -1.78381 0
M  V30 8648 C 845.124 -2.6061 -2.44575 0
M  V30 8649 C 844.79 -4.03896 -2.00446 0
M  V30 8650 C 843.452 -4.42901 -1.88127 0
M  V30 8651 C 845.804 -4.93804 -1.66754 0
M  V30 8652 C 843.132 -5.6965 -1.40411 0
M  V30 8653 C 845.484 -6.21016 -1.20509 0
M  V30 8654 C 844.148 -6.58903 -1.06786 0
M  V30 8655 H 843.418 -0.563552 -0.481134 0
M  V30 8656 H 846.065 -1.81001 -0.625375 0
M  V30 8657 H 844.37 -2.27371 -3.19076 0
M  V30 8658 H 846.067 -2.62941 -3.02759 0
M  V30 8659 H 842.657 -3.73077 -2.10977 0
M  V30 8660 H 846.841 -4.64369 -1.75144 0
M  V30 8661 H 842.097 -5.97755 -1.2845 0
M  V30 8662 H 846.271 -6.90095 -0.935001 0
M  V30 8663 H 843.898 -7.57008 -0.695891 0
M  V30 8664 N 845.473 0.80434 -1.35529 0
M  V30 8665 C 846.403 1.93086 -1.31301 0
M  V30 8666 C 847.384 1.69068 -0.187044 0
M  V30 8667 O 848.569 1.90399 -0.382359 0
M  V30 8668 C 845.699 3.29867 -1.0865 0
M  V30 8669 C 844.653 3.68373 -2.17911 0
M  V30 8670 C 843.979 5.0334 -1.80423 0
M  V30 8671 C 845.279 3.78516 -3.59893 0
M  V30 8672 H 846.973 1.96882 -2.25561 0
M  V30 8673 H 844.519 0.945841 -1.08581 0
M  V30 8674 H 846.472 4.08281 -1.04331 0
M  V30 8675 H 845.196 3.2642 -0.108359 0
M  V30 8676 H 843.855 2.92247 -2.21331 0
M  V30 8677 H 843.503 4.96399 -0.812213 0
M  V30 8678 H 843.203 5.30074 -2.53565 0
M  V30 8679 H 844.727 5.84191 -1.77633 0
M  V30 8680 H 846.141 4.47155 -3.58783 0
M  V30 8681 H 844.538 4.16721 -4.31814 0
M  V30 8682 H 845.608 2.8001 -3.95882 0
M  V30 8683 N 846.951 1.19563 1.02676 0
M  V30 8684 C 847.883 0.893054 2.11086 0
M  V30 8685 C 848.896 -0.115101 1.62393 0
M  V30 8686 O 850.085 0.11459 1.78132 0
M  V30 8687 C 847.185 0.315533 3.37428 0
M  V30 8688 C 846.358 1.37276 4.153 0
M  V30 8689 C 845.417 0.808398 5.19953 0
M  V30 8690 O 844.443 1.48661 5.49444 0
M  V30 8691 N 845.645 -0.387253 5.79207 0
M  V30 8692 H 848.41 1.82622 2.37633 0
M  V30 8693 H 845.971 1.09792 1.18984 0
M  V30 8694 H 847.963 -0.0759166 4.04629 0
M  V30 8695 H 846.533 -0.521961 3.08211 0
M  V30 8696 H 845.753 1.93897 3.43217 0
M  V30 8697 H 847.041 2.08509 4.64114 0
M  V30 8698 H 846.439 -0.955725 5.57568 0
M  V30 8699 H 844.996 -0.720457 6.47806 0
M  V30 8700 N 848.429 -1.21819 0.999893 0
M  V30 8701 C 849.845 -1.42847 0.711824 0
M  V30 8702 C 850.045 -1.88391 -0.714928 0
M  V30 8703 O 849.101 -2.0422 -1.48494 0
M  V30 8704 C 850.414 -2.46417 1.72334 0
M  V30 8705 C 851.962 -2.60207 1.73958 0
M  V30 8706 C 852.437 -3.67005 2.73992 0
M  V30 8707 N 853.928 -3.7447 2.72628 0
M  V30 8708 C 854.663 -4.56718 3.46693 0
M  V30 8709 N 854.159 -5.42904 4.3038 0
M  V30 8710 N 855.952 -4.51094 3.35366 0
M  V30 8711 H 848.103 -0.905656 1.92124 0
M  V30 8712 H 850.366 -0.459893 0.828977 0
M  V30 8713 H 850.072 -2.19914 2.74465 0
M  V30 8714 H 849.946 -3.45137 1.52186 0
M  V30 8715 H 852.333 -2.8605 0.725217 0
M  V30 8716 H 852.414 -1.61739 1.98177 0
M  V30 8717 H 852.058 -3.41908 3.75582 0
M  V30 8718 H 851.988 -4.65058 2.4704 0
M  V30 8719 H 854.479 -3.12895 2.11909 0
M  V30 8720 H 854.792 -6.02704 4.83702 0
M  V30 8721 H 853.137 -5.42463 4.34464 0
M  V30 8722 H 856.328 -3.82791 2.69423 0
M  V30 8723 H 856.501 -5.1496 3.93344 0
M  V30 8724 N 849.908 -0.773975 -1.37286 0
M  V30 8725 C 851.133 -0.349561 -2.04433 0
M  V30 8726 C 851.558 1.02082 -1.5799 0
M  V30 8727 O 850.916 1.65458 -0.741172 0
M  V30 8728 C 850.964 -0.404292 -3.58326 0
M  V30 8729 O 850.068 0.594447 -4.08093 0
M  V30 8730 H 849.409 -0.150959 -0.646612 0
M  V30 8731 H 851.939 -1.05079 -1.75555 0
M  V30 8732 H 851.949 -0.262378 -4.07155 0
M  V30 8733 H 850.624 -1.40403 -3.91484 0
M  V30 8734 H 849.201 0.415468 -3.70578 0
M  V30 8735 N 851.386 1.48609 -0.524698 0
M  V30 8736 C 852.611 2.07398 0.00952139 0
M  V30 8737 C 853.036 1.37939 1.27884 0
M  V30 8738 O 852.394 0.443633 1.75788 0
M  V30 8739 C 852.442 3.59916 0.221956 0
M  V30 8740 O 851.546 3.91647 1.29175 0
M  V30 8741 H 850.887 0.662981 -0.0367729 0
M  V30 8742 H 853.417 1.91092 -0.7311 0
M  V30 8743 H 853.427 4.05552 0.446236 0
M  V30 8744 H 852.102 4.09876 -0.705306 0
M  V30 8745 H 850.679 3.57796 1.05055 0
M  V30 8746 N 852.864 0.259585 1.55447 0
M  V30 8747 C 854.28 -0.094961 1.59317 0
M  V30 8748 C 854.48 -1.55884 1.2768 0
M  V30 8749 O 853.536 -2.30528 1.0302 0
M  V30 8750 C 854.849 0.265669 2.99524 0
M  V30 8751 C 856.397 0.211007 3.12288 0
M  V30 8752 C 856.872 0.545851 4.54736 0
M  V30 8753 N 858.363 0.496823 4.60528 0
M  V30 8754 C 859.098 0.728909 5.68748 0
M  V30 8755 N 858.594 1.02479 6.85179 0
M  V30 8756 N 860.387 0.658756 5.58226 0
M  V30 8757 H 852.538 1.2141 1.7428 0
M  V30 8758 H 854.801 0.489404 0.811904 0
M  V30 8759 H 854.507 1.28316 3.27457 0
M  V30 8760 H 854.381 -0.401089 3.75061 0
M  V30 8761 H 856.768 -0.797172 2.84129 0
M  V30 8762 H 856.849 0.911799 2.38998 0
M  V30 8763 H 856.493 1.55164 4.83618 0
M  V30 8764 H 856.423 -0.17656 5.26304 0
M  V30 8765 H 858.914 0.277376 3.76881 0
M  V30 8766 H 859.227 1.18897 7.63599 0
M  V30 8767 H 857.572 1.0624 6.86832 0
M  V30 8768 H 860.763 0.427553 4.66143 0
M  V30 8769 H 860.936 0.84302 6.42493 0
M  V30 8770 N 854.342 -1.57594 -0.0133615 0
M  V30 8771 C 855.619 -1.81173 -0.737273 0
M  V30 8772 C 855.999 -0.861395 -1.92726 0
M  V30 8773 O 855.347 0.0929324 -2.28311 0
M  V30 8774 C 855.557 -3.29314 -1.15557 0
M  V30 8775 C 856.905 -3.94707 -1.56498 0
M  V30 8776 O 857.929 -3.33557 -1.24973 0
M  V30 8777 O 856.788 -5.02402 -2.15069 0
M  V30 8778 H 853.882 -0.745575 -0.357837 0
M  V30 8779 H 856.428 -1.69696 0.0110674 0
M  V30 8780 H 855.2 -3.90096 -0.30677 0
M  V30 8781 H 854.823 -3.45739 -1.96343 0
M  V30 8782 N 855.82 0.285905 -1.54985 0
M  V30 8783 C 856.75 1.35752 -1.89983 0
M  V30 8784 C 857.731 1.52163 -0.760295 0
M  V30 8785 O 858.916 1.65421 -1.01733 0
M  V30 8786 C 856.046 2.71925 -2.16042 0
M  V30 8787 C 855 2.70261 -3.31878 0
M  V30 8788 C 854.326 4.09864 -3.43388 0
M  V30 8789 C 855.626 2.30667 -4.68604 0
M  V30 8790 H 857.32 1.06709 -2.79738 0
M  V30 8791 H 854.866 0.511884 -1.34595 0
M  V30 8792 H 856.819 3.46992 -2.39113 0
M  V30 8793 H 855.543 3.02523 -1.23074 0
M  V30 8794 H 854.202 1.97651 -3.08755 0
M  V30 8795 H 853.85 4.37664 -2.47909 0
M  V30 8796 H 853.55 4.09648 -4.21262 0
M  V30 8797 H 855.074 4.86689 -3.68736 0
M  V30 8798 H 856.488 2.95453 -4.91305 0
M  V30 8799 H 854.885 2.41637 -5.49301 0
M  V30 8800 H 855.955 1.25793 -4.68299 0
M  V30 8801 N 857.298 1.47698 0.54982 0
M  V30 8802 C 858.523 1.58579 1.33669 0
M  V30 8803 C 858.948 0.239049 1.86575 0
M  V30 8804 O 858.306 -0.786256 1.63364 0
M  V30 8805 C 858.354 2.62029 2.47736 0
M  V30 8806 O 857.458 2.17813 3.50188 0
M  V30 8807 H 856.799 0.532447 0.396732 0
M  V30 8808 H 859.329 1.93536 0.6637 0
M  V30 8809 H 859.339 2.82682 2.94202 0
M  V30 8810 H 858.014 3.59812 2.08586 0
M  V30 8811 H 856.591 2.07291 3.09976 0
M  V30 8812 N 858.776 -0.797141 1.35954 0
M  V30 8813 C 859.723 -1.90944 1.2965 0
M  V30 8814 C 860.693 -1.65262 0.166628 0
M  V30 8815 O 861.878 -1.87527 0.351883 0
M  V30 8816 C 859.018 -3.27637 1.08389 0
M  V30 8817 C 858.131 -3.65442 2.30382 0
M  V30 8818 C 857.266 -4.91213 2.02195 0
M  V30 8819 C 856.305 -5.21674 3.20191 0
M  V30 8820 N 855.442 -6.38627 2.91719 0
M  V30 8821 H 860.282 -1.95668 2.24762 0
M  V30 8822 H 857.819 -0.95696 1.11717 0
M  V30 8823 H 859.777 -4.06451 0.940912 0
M  V30 8824 H 858.407 -3.22355 0.169351 0
M  V30 8825 H 857.459 -2.81813 2.55511 0
M  V30 8826 H 858.771 -3.83907 3.18461 0
M  V30 8827 H 857.925 -5.77876 1.84783 0
M  V30 8828 H 856.664 -4.74803 1.11416 0
M  V30 8829 H 855.669 -4.33498 3.38171 0
M  V30 8830 H 856.894 -5.40009 4.11786 0
M  V30 8831 H 854.84 -6.23623 2.03543 0
M  V30 8832 H 854.757 -6.57387 3.73334 0
M  V30 8833 H 856.025 -7.28292 2.77868 0
M  V30 8834 N 860.254 -1.20106 -1.0204 0
M  V30 8835 C 861.204 -0.914145 -2.08872 0
M  V30 8836 C 862.188 0.124503 -1.60418 0
M  V30 8837 O 863.38 -0.0823521 -1.76808 0
M  V30 8838 C 860.509 -0.463897 -3.40151 0
M  V30 8839 C 859.595 -1.53576 -3.95317 0
M  V30 8840 N 859.986 -2.75726 -4.24038 0
M  V30 8841 C 858.284 -1.40103 -4.23423 0
M  V30 8842 C 858.985 -3.44838 -4.68468 0
M  V30 8843 N 857.961 -2.72245 -4.70514 0
M  V30 8844 H 861.763 -1.8424 -2.28982 0
M  V30 8845 H 859.277 -1.0945 -1.19977 0
M  V30 8846 H 861.274 -0.239766 -4.1621 0
M  V30 8847 H 859.934 0.457779 -3.21457 0
M  V30 8848 H 860.945 -3.12412 -4.13061 0
M  V30 8849 H 857.622 -0.543472 -4.13948 0
M  V30 8850 H 859.012 -4.49342 -4.99541 0
M  V30 8851 N 861.732 1.21287 -1.00634 0
M  V30 8852 C 862.978 1.90671 -0.690822 0
M  V30 8853 C 863.311 1.77996 0.776592 0
M  V30 8854 O 862.586 1.15748 1.5631 0
M  V30 8855 C 862.869 3.42426 -1.11428 0
M  V30 8856 C 862.722 3.64086 -2.64124 0
M  V30 8857 C 864.041 4.34851 -0.677686 0
M  V30 8858 H 861.16 0.692419 -0.252439 0
M  V30 8859 H 863.802 1.42893 -1.25226 0
M  V30 8860 H 861.952 3.83249 -0.636586 0
M  V30 8861 H 863.624 3.32582 -3.19667 0
M  V30 8862 H 861.867 3.07906 -3.05576 0
M  V30 8863 H 862.538 4.7042 -2.88806 0
M  V30 8864 H 865.014 4.01619 -1.0882 0
M  V30 8865 H 863.89 5.39675 -1.00213 0
M  V30 8866 H 864.151 4.4009 0.421125 0
M  V30 8867 N 863.21 0.781244 1.36873 0
M  V30 8868 C 864.157 0.172146 2.30157 0
M  V30 8869 C 865.127 -0.679328 1.51573 0
M  V30 8870 O 866.312 -0.629713 1.80109 0
M  V30 8871 C 863.452 -0.693534 3.38059 0
M  V30 8872 C 862.565 0.175586 4.31643 0
M  V30 8873 C 861.7 -0.695695 5.26625 0
M  V30 8874 C 860.739 0.17538 6.11849 0
M  V30 8875 N 859.876 -0.654416 6.99043 0
M  V30 8876 H 864.716 0.973133 2.81663 0
M  V30 8877 H 862.253 0.491469 1.38647 0
M  V30 8878 H 864.211 -1.21035 3.99257 0
M  V30 8879 H 862.841 -1.46003 2.87894 0
M  V30 8880 H 861.893 0.810295 3.7167 0
M  V30 8881 H 863.205 0.847107 4.91554 0
M  V30 8882 H 862.359 -1.27863 5.93073 0
M  V30 8883 H 861.098 -1.40087 4.67148 0
M  V30 8884 H 860.103 0.77078 5.4437 0
M  V30 8885 H 861.328 0.87803 6.734 0
M  V30 8886 H 859.274 -1.34403 6.42084 0
M  V30 8887 H 859.191 -0.0403998 7.55989 0
M  V30 8888 H 860.459 -1.22144 7.69871 0
M  V30 8889 N 864.689 -1.48329 0.532571 0
M  V30 8890 C 865.935 -2.028 -0.000583219 0
M  V30 8891 C 866.268 -1.40858 -1.33688 0
M  V30 8892 O 865.543 -0.555261 -1.86406 0
M  V30 8893 C 865.826 -3.59901 -0.119846 0
M  V30 8894 C 865.679 -4.32318 1.2418 0
M  V30 8895 C 866.998 -4.31904 -0.845372 0
M  V30 8896 H 864.117 -0.736999 0.00126205 0
M  V30 8897 H 866.759 -1.77024 0.690102 0
M  V30 8898 H 864.909 -3.81993 -0.708092 0
M  V30 8899 H 866.581 -4.21637 1.87136 0
M  V30 8900 H 864.824 -3.93635 1.82301 0
M  V30 8901 H 865.495 -5.40697 1.11132 0
M  V30 8902 H 867.971 -4.14658 -0.346159 0
M  V30 8903 H 866.847 -5.41509 -0.897723 0
M  V30 8904 H 867.108 -3.99369 -1.89622 0
M  V30 8905 N 866.167 -0.267825 -1.55308 0
M  V30 8906 C 867.413 0.351556 -1.9973 0
M  V30 8907 C 867.746 1.56049 -1.15596 0
M  V30 8908 O 867.021 1.93203 -0.224274 0
M  V30 8909 C 867.304 0.74091 -3.52395 0
M  V30 8910 C 867.157 -0.474861 -4.47286 0
M  V30 8911 C 868.476 1.5801 -4.10756 0
M  V30 8912 H 865.595 0.126308 -0.726096 0
M  V30 8913 H 868.237 -0.373316 -1.86296 0
M  V30 8914 H 866.387 1.35851 -3.63973 0
M  V30 8915 H 868.059 -1.1134 -4.47662 0
M  V30 8916 H 866.302 -1.11425 -4.19246 0
M  V30 8917 H 866.973 -0.158782 -5.51772 0
M  V30 8918 H 869.449 1.05857 -4.0241 0
M  V30 8919 H 868.325 1.82135 -5.17801 0
M  V30 8920 H 868.586 2.55878 -3.60526 0
M  V30 8921 N 867.645 1.57599 0.00500368 0
M  V30 8922 C 868.885 1.92205 0.695456 0
M  V30 8923 C 869.249 0.868894 1.71214 0
M  V30 8924 O 870.45 1.10004 2.4526 0
M  V30 8925 C 868.721 3.31882 1.32625 0
M  V30 8926 S 870.28 3.88364 2.04252 0
M  V30 8927 H 867.098 0.672826 0.22984 0
M  V30 8928 H 869.7 1.95435 -0.0504824 0
M  V30 8929 H 868.404 4.06375 0.573396 0
M  V30 8930 H 867.935 3.32013 2.11023 0
M  V30 8931 H 869.95 3.69035 3.31704 0
M  V30 8932 N 869.123 -0.277682 1.55134 0
M  V30 8933 C 870.4 -1.0309 1.66228 0
M  V30 8934 C 870.78 -2.0445 0.525701 0
M  V30 8935 O 870.128 -2.23512 -0.474816 0
M  V30 8936 C 870.338 -1.6919 3.05247 0
M  V30 8937 C 871.686 -2.20526 3.62841 0
M  V30 8938 O 872.71 -1.79185 3.07849 0
M  V30 8939 O 871.569 -2.96342 4.59177 0
M  V30 8940 H 868.663 -0.4779 0.674937 0
M  V30 8941 H 871.209 -0.273912 1.67475 0
M  V30 8942 H 869.981 -0.957163 3.79413 0
M  V30 8943 H 869.604 -2.51587 3.07879 0
M  V30 8944 N 870.601 -1.47988 -0.541979 0
M  V30 8945 C 871.849 -1.55086 -1.29587 0
M  V30 8946 C 872.17 -0.221304 -1.9374 0
M  V30 8947 O 871.44 0.756128 -1.80719 0
M  V30 8948 H 870.02 -0.571307 -0.481266 0
M  V30 8949 H 872.682 -1.8438 -0.631675 0
M  V30 8950 H 871.778 -2.32556 -2.08144 0
M  V30 8951 N 872.079 0.78992 -1.36375 0
M  V30 8952 C 873.307 1.57873 -1.3373 0
M  V30 8953 C 873.722 1.88624 0.0815544 0
M  V30 8954 O 873.079 1.50085 1.03831 0
M  V30 8955 C 873.13 2.90003 -2.15825 0
M  V30 8956 O 872.851 2.60578 -3.5218 0
M  V30 8957 C 874.352 3.84309 -2.20955 0
M  V30 8958 H 871.572 0.489685 -0.458748 0
M  V30 8959 H 874.116 0.980436 -1.79465 0
M  V30 8960 H 872.271 3.46303 -1.73646 0
M  V30 8961 H 872.685 3.4506 -3.95011 0
M  V30 8962 H 874.159 4.74081 -2.82756 0
M  V30 8963 H 874.636 4.22121 -1.21287 0
M  V30 8964 H 875.242 3.33942 -2.63368 0
M  V30 8965 N 873.557 1.20646 1.01402 0
M  V30 8966 C 874.834 0.927176 1.72229 0
M  V30 8967 C 875.214 -0.563382 2.03443 0
M  V30 8968 O 874.562 -1.52576 1.70096 0
M  V30 8969 C 874.772 1.80285 2.98828 0
M  V30 8970 C 876.12 2.04624 3.72041 0
M  V30 8971 O 877.144 1.77559 3.0879 0
M  V30 8972 O 876.003 2.50347 4.85787 0
M  V30 8973 H 873.097 0.346891 0.75073 0
M  V30 8974 H 875.643 1.31532 1.07227 0
M  V30 8975 H 874.415 2.81204 2.72102 0
M  V30 8976 H 874.038 1.41495 3.71571 0
M  V30 8977 N 875.035 -1.20752 1.01276 0
M  V30 8978 C 875.965 -2.25658 0.600064 0
M  V30 8979 C 876.946 -1.65733 -0.38298 0
M  V30 8980 O 878.131 -1.92324 -0.269256 0
M  V30 8981 C 875.261 -3.47237 -0.0663197 0
M  V30 8982 C 874.215 -4.1973 0.83731 0
M  V30 8983 C 873.541 -5.34687 0.0369102 0
M  V30 8984 C 874.841 -4.76286 2.14357 0
M  V30 8985 H 876.535 -2.60432 1.477 0
M  V30 8986 H 874.081 -1.25187 0.711634 0
M  V30 8987 H 876.034 -4.19803 -0.366563 0
M  V30 8988 H 874.758 -3.11615 -0.977944 0
M  V30 8989 H 873.417 -3.49024 1.1215 0
M  V30 8990 H 873.065 -4.95309 -0.876244 0
M  V30 8991 H 872.765 -5.84119 0.63865 0
M  V30 8992 H 874.289 -6.10059 -0.256968 0
M  V30 8993 H 875.703 -5.40691 1.90595 0
M  V30 8994 H 874.1 -5.36139 2.69583 0
M  V30 8995 H 875.17 -3.9524 2.80916 0
M  V30 8996 N 876.513 -0.788492 -1.36457 0
M  V30 8997 C 877.741 -0.372365 -2.03522 0
M  V30 8998 C 878.156 1.01093 -1.59454 0
M  V30 8999 O 877.513 1.64824 -0.783535 0
M  V30 9000 C 877.564 -0.425435 -3.58988 0
M  V30 9001 O 877.285 -1.75418 -4.01448 0
M  V30 9002 C 878.786 0.000180167 -4.433 0
M  V30 9003 H 876.006 -0.1536 -0.653183 0
M  V30 9004 H 878.55 -1.06708 -1.74452 0
M  V30 9005 H 876.705 0.220856 -3.8677 0
M  V30 9006 H 877.119 -1.70437 -4.96036 0
M  V30 9007 H 878.593 -0.0880919 -5.5193 0
M  V30 9008 H 879.07 1.05269 -4.26398 0
M  V30 9009 H 879.676 -0.618563 -4.20778 0
M  V30 9010 N 877.991 1.48044 -0.54043 0
M  V30 9011 C 879.402 1.86418 -0.102662 0
M  V30 9012 C 879.753 1.4489 1.32293 0
M  V30 9013 O 878.878 0.844319 1.99249 0
M  V30 9014 C 879.473 3.38324 -0.179533 0
M  V30 9015 C 878.032 3.75852 0.203098 0
M  V30 9016 C 877.179 2.72097 -0.534637 0
M  V30 9017 H 880.13 1.398 -0.751103 0
M  V30 9018 H 880.151 3.75641 0.606147 0
M  V30 9019 H 879.663 3.68518 -1.21721 0
M  V30 9020 H 877.764 3.51272 1.24252 0
M  V30 9021 H 877.877 4.78884 -0.143784 0
M  V30 9022 H 876.241 2.54692 0.0203358 0
M  V30 9023 H 877.024 3.05135 -1.57314 0
M  V30 9024 N 879.47 0.276058 1.55163 0
M  V30 9025 C 880.417 -0.611006 2.22565 0
M  V30 9026 C 881.387 -1.14902 1.19945 0
M  V30 9027 O 882.572 -1.19815 1.48489 0
M  V30 9028 C 879.712 -1.78885 2.95117 0
M  V30 9029 C 878.825 -1.2846 4.12458 0
M  V30 9030 C 877.96 -2.42432 4.72652 0
M  V30 9031 C 876.999 -1.89015 5.82185 0
M  V30 9032 N 876.136 -2.96463 6.36439 0
M  V30 9033 H 880.976 -0.0295849 2.97985 0
M  V30 9034 H 878.513 -0.00283607 1.471 0
M  V30 9035 H 880.471 -2.48121 3.35398 0
M  V30 9036 H 879.101 -2.34229 2.22119 0
M  V30 9037 H 878.153 -0.485312 3.77292 0
M  V30 9038 H 879.465 -0.853358 4.91446 0
M  V30 9039 H 878.619 -3.19659 5.15658 0
M  V30 9040 H 877.358 -2.88872 3.92943 0
M  V30 9041 H 876.363 -1.10267 5.38629 0
M  V30 9042 H 877.588 -1.43509 6.63763 0
M  V30 9043 H 875.534 -3.42283 5.59623 0
M  V30 9044 H 875.451 -2.57759 7.10701 0
M  V30 9045 H 876.719 -3.73663 6.84103 0
M  V30 9046 N 880.948 -1.576 0.00335426 0
M  V30 9047 C 882.197 -1.89892 -0.680001 0
M  V30 9048 C 882.51 -0.878731 -1.7475 0
M  V30 9049 O 883.716 -1.09199 -2.48572 0
M  V30 9050 C 882.172 -3.37098 -1.26066 0
M  V30 9051 C 881.78 -4.4742 -0.227807 0
M  V30 9052 C 883.524 -3.78495 -1.92202 0
M  V30 9053 C 881.431 -5.85706 -0.81865 0
M  V30 9054 H 880.361 -0.708578 -0.257746 0
M  V30 9055 H 883.012 -1.83387 0.0644472 0
M  V30 9056 H 881.394 -3.38451 -2.05589 0
M  V30 9057 H 882.568 -4.57589 0.54307 0
M  V30 9058 H 880.883 -4.15064 0.333297 0
M  V30 9059 H 883.48 -4.7915 -2.37318 0
M  V30 9060 H 883.823 -3.12187 -2.75399 0
M  V30 9061 H 884.356 -3.79456 -1.19408 0
M  V30 9062 H 881.095 -6.55495 -0.0253787 0
M  V30 9063 H 880.615 -5.79196 -1.55861 0
M  V30 9064 H 882.294 -6.33469 -1.31627 0
M  V30 9065 N 882.426 0.269451 -1.5528 0
M  V30 9066 C 883.358 1.35553 -1.84819 0
M  V30 9067 C 884.371 1.45369 -0.732914 0
M  V30 9068 O 885.56 1.47122 -1.0108 0
M  V30 9069 C 882.66 2.73645 -1.9993 0
M  V30 9070 C 881.833 2.86376 -3.30617 0
M  V30 9071 C 880.892 4.05165 -3.35749 0
M  V30 9072 O 879.918 3.95756 -4.09104 0
M  V30 9073 N 881.12 5.17297 -2.63408 0
M  V30 9074 H 883.885 1.10557 -2.78563 0
M  V30 9075 H 881.446 0.459566 -1.5524 0
M  V30 9076 H 883.438 3.51411 -2.00729 0
M  V30 9077 H 882.008 2.91448 -1.13035 0
M  V30 9078 H 881.228 1.95465 -3.42326 0
M  V30 9079 H 882.516 2.91815 -4.16799 0
M  V30 9080 H 881.914 5.2783 -2.03501 0
M  V30 9081 H 880.471 5.93281 -2.69927 0
M  V30 9082 N 883.904 1.48273 0.534124 0
M  V30 9083 C 884.814 1.65162 1.66609 0
M  V30 9084 C 885.83 0.534177 1.65598 0
M  V30 9085 O 887.006 0.804715 1.84625 0
M  V30 9086 C 884.071 1.68354 3.03081 0
M  V30 9087 C 883.132 2.91696 3.1498 0
M  V30 9088 C 882.365 2.94725 4.44941 0
M  V30 9089 O 882.588 2.06285 5.31792 0
M  V30 9090 O 881.522 3.8685 4.61119 0
M  V30 9091 H 885.348 2.60991 1.55298 0
M  V30 9092 H 882.933 1.31626 0.706749 0
M  V30 9093 H 884.815 1.72998 3.84252 0
M  V30 9094 H 883.49 0.756978 3.14725 0
M  V30 9095 H 882.397 2.92586 2.33119 0
M  V30 9096 H 883.73 3.83722 3.0825 0
M  V30 9097 N 885.382 -0.782676 1.36792 0
M  V30 9098 C 886.312 -1.90973 1.34356 0
M  V30 9099 C 887.293 -1.6875 0.213917 0
M  V30 9100 O 888.478 -1.89766 0.412601 0
M  V30 9101 C 885.608 -3.28097 1.13884 0
M  V30 9102 C 884.562 -3.6486 2.23744 0
M  V30 9103 C 883.888 -5.00406 1.88408 0
M  V30 9104 C 885.188 -3.72742 3.6587 0
M  V30 9105 H 886.882 -1.93268 2.28665 0
M  V30 9106 H 884.428 -0.928447 1.10072 0
M  V30 9107 H 886.381 -4.06569 1.10813 0
M  V30 9108 H 885.105 -3.26206 0.160275 0
M  V30 9109 H 883.764 -2.88689 2.25952 0
M  V30 9110 H 883.412 -4.95044 0.891083 0
M  V30 9111 H 883.112 -5.25973 2.61966 0
M  V30 9112 H 884.636 -5.81291 1.86905 0
M  V30 9113 H 886.05 -4.4139 3.65852 0
M  V30 9114 H 884.447 -4.09798 4.38389 0
M  V30 9115 H 885.517 -2.73676 4.00287 0
M  V30 9116 N 886.86 -1.21182 -1.00761 0
M  V30 9117 C 887.807 -0.968741 -2.09485 0
M  V30 9118 C 888.777 0.104325 -1.65772 0
M  V30 9119 O 889.962 -0.0422587 -1.90753 0
M  V30 9120 C 887.102 -0.536686 -3.40901 0
M  V30 9121 C 886.215 -1.6789 -3.98041 0
M  V30 9122 C 885.35 -1.19627 -5.17555 0
M  V30 9123 C 884.389 -2.31099 -5.66798 0
M  V30 9124 N 883.526 -1.83988 -6.77564 0
M  V30 9125 H 888.366 -1.89952 -2.29613 0
M  V30 9126 H 885.903 -0.946688 -1.12589 0
M  V30 9127 H 887.861 -0.26745 -4.16342 0
M  V30 9128 H 886.491 0.357092 -3.20819 0
M  V30 9129 H 885.543 -2.06284 -3.19611 0
M  V30 9130 H 886.855 -2.51794 -4.30582 0
M  V30 9131 H 886.009 -0.883539 -6.00232 0
M  V30 9132 H 884.748 -0.327244 -4.86601 0
M  V30 9133 H 883.753 -2.63178 -4.82719 0
M  V30 9134 H 884.978 -3.18493 -5.99782 0
M  V30 9135 H 882.924 -0.994257 -6.48422 0
M  V30 9136 H 882.841 -2.61466 -7.09346 0
M  V30 9137 H 884.109 -1.55741 -7.63783 0
M  V30 9138 N 888.338 1.20213 -1.01915 0
M  V30 9139 C 889.585 1.89647 -0.709955 0
M  V30 9140 C 889.913 1.7901 0.760631 0
M  V30 9141 O 889.168 1.17028 1.56853 0
M  V30 9142 C 889.467 3.40232 -1.09438 0
M  V30 9143 C 889.133 3.7107 -2.5616 0
M  V30 9144 C 887.795 3.79196 -2.96249 0
M  V30 9145 C 890.147 3.85169 -3.51133 0
M  V30 9146 C 887.475 3.98882 -4.30244 0
M  V30 9147 C 889.827 4.06365 -4.8482 0
M  V30 9148 C 888.491 4.12722 -5.24611 0
M  V30 9149 H 887.761 0.693967 -0.259791 0
M  V30 9150 H 890.408 1.42419 -1.2802 0
M  V30 9151 H 888.713 3.89292 -0.442596 0
M  V30 9152 H 890.41 3.92257 -0.832811 0
M  V30 9153 H 887 3.65346 -2.24099 0
M  V30 9154 H 891.184 3.78243 -3.21319 0
M  V30 9155 H 886.44 4.02039 -4.60624 0
M  V30 9156 H 890.614 4.16216 -5.58334 0
M  V30 9157 H 888.241 4.27728 -6.28453 0
M  V30 9158 N 889.816 0.795718 1.36037 0
M  V30 9159 C 890.748 0.156336 2.28666 0
M  V30 9160 C 891.761 -0.638075 1.49775 0
M  V30 9161 O 892.95 -0.472222 1.7214 0
M  V30 9162 C 890.05 -0.801417 3.29288 0
M  V30 9163 C 889.223 -0.0557118 4.37365 0
M  V30 9164 C 888.282 -0.930338 5.1791 0
M  V30 9165 O 887.308 -0.385266 5.67895 0
M  V30 9166 N 888.51 -2.25382 5.34961 0
M  V30 9167 H 891.275 0.952033 2.84177 0
M  V30 9168 H 888.836 0.650189 1.48271 0
M  V30 9169 H 890.828 -1.39051 3.80062 0
M  V30 9170 H 889.398 -1.49796 2.74372 0
M  V30 9171 H 888.618 0.714508 3.87671 0
M  V30 9172 H 889.906 0.458633 5.06729 0
M  V30 9173 H 889.304 -2.72073 4.95977 0
M  V30 9174 H 887.861 -2.79241 5.88955 0
M  V30 9175 N 891.294 -1.47756 0.548274 0
M  V30 9176 C 892.534 -2.04387 0.0231354 0
M  V30 9177 C 892.898 -1.41438 -1.29843 0
M  V30 9178 O 894.099 -1.89064 -1.91072 0
M  V30 9179 C 892.37 -3.57316 -0.077482 0
M  V30 9180 S 893.929 -4.35339 -0.550038 0
M  V30 9181 H 890.747 -0.710694 0.0208428 0
M  V30 9182 H 893.349 -1.81239 0.732984 0
M  V30 9183 H 892.053 -4.00658 0.88888 0
M  V30 9184 H 891.584 -3.84947 -0.811157 0
M  V30 9185 H 893.599 -4.61957 -1.81135 0
M  V30 9186 N 892.772 -0.284283 -1.55015 0
M  V30 9187 C 894.021 0.33055 -1.98973 0
M  V30 9188 C 894.334 1.56284 -1.17621 0
M  V30 9189 O 895.54 2.2512 -1.51767 0
M  V30 9190 C 893.996 0.639457 -3.54174 0
M  V30 9191 C 893.604 -0.573543 -4.44313 0
M  V30 9192 C 895.348 1.21641 -4.06699 0
M  V30 9193 C 893.255 -0.238715 -5.90918 0
M  V30 9194 H 892.185 0.127285 -0.743179 0
M  V30 9195 H 894.836 -0.390372 -1.793 0
M  V30 9196 H 893.218 1.41953 -3.69683 0
M  V30 9197 H 894.392 -1.3502 -4.40575 0
M  V30 9198 H 892.707 -1.06797 -4.02472 0
M  V30 9199 H 895.304 1.48088 -5.13784 0
M  V30 9200 H 895.647 2.15328 -3.56286 0
M  V30 9201 H 896.18 0.498422 -3.94665 0
M  V30 9202 H 892.919 -1.1437 -6.45445 0
M  V30 9203 H 892.439 0.500997 -5.97704 0
M  V30 9204 H 894.118 0.165774 -6.46788 0
M  V30 9205 N 894.251 1.57596 -0.0117121 0
M  V30 9206 C 895.497 1.91355 0.671661 0
M  V30 9207 C 895.83 0.886818 1.72769 0
M  V30 9208 O 895.105 -0.0928813 1.94278 0
M  V30 9209 C 895.388 3.35657 1.30409 0
M  V30 9210 C 895.241 4.49055 0.2588 0
M  V30 9211 C 896.56 3.79595 2.22701 0
M  V30 9212 H 893.679 0.695893 0.242698 0
M  V30 9213 H 896.321 1.89887 -0.0654071 0
M  V30 9214 H 894.471 3.37038 1.9323 0
M  V30 9215 H 896.143 4.59809 -0.370631 0
M  V30 9216 H 894.386 4.31785 -0.417672 0
M  V30 9217 H 895.057 5.4701 0.740578 0
M  V30 9218 H 897.533 3.7984 1.69885 0
M  V30 9219 H 896.409 4.81292 2.63912 0
M  V30 9220 H 896.67 3.14118 3.11098 0
M  V30 9221 N 895.729 -0.261212 1.5542 0
M  V30 9222 C 896.976 -0.99123 1.76581 0
M  V30 9223 C 897.304 -1.85854 0.573457 0
M  V30 9224 O 896.559 -1.90604 -0.443705 0
M  V30 9225 C 896.858 -1.89395 3.03091 0
M  V30 9226 C 896.524 -1.18318 4.351 0
M  V30 9227 C 895.186 -0.986688 4.70975 0
M  V30 9228 C 897.538 -0.678299 5.16767 0
M  V30 9229 C 894.866 -0.272788 5.86065 0
M  V30 9230 C 897.218 0.0220646 6.32596 0
M  V30 9231 C 895.882 0.230161 6.67103 0
M  V30 9232 H 895.152 -0.362717 0.646156 0
M  V30 9233 H 897.799 -0.262506 1.89692 0
M  V30 9234 H 896.104 -2.68927 2.8493 0
M  V30 9235 H 897.801 -2.46022 3.16661 0
M  V30 9236 H 894.391 -1.34625 4.06908 0
M  V30 9237 H 898.575 -0.817691 4.89518 0
M  V30 9238 H 893.831 -0.10095 6.11317 0
M  V30 9239 H 898.005 0.420981 6.95126 0
M  V30 9240 H 895.632 0.785312 7.56133 0
M  V30 9241 N 897.207 -1.48554 -0.526253 0
M  V30 9242 C 898.137 -1.66252 -1.63959 0
M  V30 9243 C 899.118 -0.511351 -1.62232 0
M  V30 9244 O 900.303 -0.744322 -1.7937 0
M  V30 9245 C 897.433 -1.70556 -3.02536 0
M  V30 9246 C 896.387 -2.8521 -3.19123 0
M  V30 9247 C 895.713 -2.74606 -4.58798 0
M  V30 9248 C 897.013 -4.26463 -3.0154 0
M  V30 9249 H 898.707 -2.59459 -1.49404 0
M  V30 9250 H 896.253 -1.24862 -0.717326 0
M  V30 9251 H 898.206 -1.81524 -3.80298 0
M  V30 9252 H 896.93 -0.739297 -3.18123 0
M  V30 9253 H 895.589 -2.73802 -2.43779 0
M  V30 9254 H 895.237 -1.75941 -4.71226 0
M  V30 9255 H 894.937 -3.51544 -4.70841 0
M  V30 9256 H 896.461 -2.87548 -5.38655 0
M  V30 9257 H 897.875 -4.38685 -3.69091 0
M  V30 9258 H 896.272 -5.04428 -3.25073 0
M  V30 9259 H 897.342 -4.42667 -1.97925 0
M  V30 9260 N 898.685 0.775411 -1.37205 0
M  V30 9261 C 899.633 1.90996 -1.32752 0
M  V30 9262 C 900.627 1.68006 -0.216907 0
M  V30 9263 O 901.833 1.7584 -0.384723 0
M  V30 9264 H 898.208 0.62803 -0.413621 0
M  V30 9265 H 900.179 1.91869 -2.28536 0
M  V30 9266 C 898.928 3.28211 -1.14772 0
M  V30 9267 H 898.251 3.46477 -1.99484 0
M  V30 9268 H 899.691 4.07907 -1.15706 0
M  V30 9269 C 898.15 3.3658 0.146852 0
M  V30 9270 O 898.68 3.85428 1.13173 0
M  V30 9271 N 896.886 2.89936 0.196305 0
M  V30 9272 H 896.433 2.50375 -0.605807 0
M  V30 9273 H 896.391 2.95916 1.06212 0
M  V30 9274 N 900.163 1.21714 1.00117 0
M  V30 9275 C 901.412 1.03087 1.73367 0
M  V30 9276 C 901.725 -0.435532 1.90689 0
M  V30 9277 O 902.931 -0.741291 2.61184 0
M  V30 9278 C 901.387 1.79593 3.11888 0
M  V30 9279 C 900.995 3.30428 3.02525 0
M  V30 9280 C 902.739 1.69386 3.89241 0
M  V30 9281 C 900.646 3.99408 4.3615 0
M  V30 9282 H 899.576 0.382117 0.650002 0
M  V30 9283 H 902.227 1.45486 1.11831 0
M  V30 9284 H 900.609 1.29988 3.74058 0
M  V30 9285 H 901.783 3.87364 2.49571 0
M  V30 9286 H 900.098 3.4122 2.38659 0
M  V30 9287 H 902.695 2.18251 4.8813 0
M  V30 9288 H 903.038 0.652773 4.1115 0
M  V30 9289 H 903.571 2.16489 3.33733 0
M  V30 9290 H 900.31 5.03735 4.19442 0
M  V30 9291 H 899.83 3.47261 4.8905 0
M  V30 9292 H 901.509 4.04537 5.04934 0
M  V30 9293 N 901.641 -1.19671 1.02551 0
M  V30 9294 C 903.052 -1.70964 0.750208 0
M  V30 9295 C 903.403 -1.82095 -0.730461 0
M  V30 9296 O 902.528 -1.48974 -1.56958 0
M  V30 9297 C 903.123 -3.10516 1.35518 0
M  V30 9298 C 901.682 -3.59083 1.12854 0
M  V30 9299 C 900.829 -2.36041 1.45534 0
M  V30 9300 H 903.78 -1.04559 1.19386 0
M  V30 9301 H 903.801 -3.73028 0.750378 0
M  V30 9302 H 903.313 -3.02383 2.43282 0
M  V30 9303 H 901.414 -3.72536 0.0689627 0
M  V30 9304 H 901.527 -4.43395 1.81488 0
M  V30 9305 H 899.891 -2.39214 0.87458 0
M  V30 9306 H 900.674 -2.3054 2.54374 0
M  V30 9307 N 903.119 -0.802921 -1.35613 0
M  V30 9308 C 904.535 -0.486214 -1.52014 0
M  V30 9309 C 904.735 0.993219 -1.75321 0
M  V30 9310 O 903.791 1.77835 -1.79251 0
M  V30 9311 C 905.104 -1.32839 -2.69767 0
M  V30 9312 C 906.652 -1.32346 -2.83643 0
M  V30 9313 C 907.127 -2.14967 -4.04417 0
M  V30 9314 N 908.618 -2.12484 -4.11588 0
M  V30 9315 C 909.353 -2.73173 -5.04147 0
M  V30 9316 N 908.849 -3.42774 -6.02061 0
M  V30 9317 N 910.642 -2.62834 -4.96865 0
M  V30 9318 H 902.793 -1.76109 -1.18741 0
M  V30 9319 H 905.056 -0.74936 -0.580658 0
M  V30 9320 H 904.762 -2.37813 -2.5911 0
M  V30 9321 H 904.636 -0.979058 -3.64272 0
M  V30 9322 H 907.023 -0.281586 -2.93753 0
M  V30 9323 H 907.104 -1.71264 -1.90006 0
M  V30 9324 H 906.748 -3.19193 -3.95068 0
M  V30 9325 H 906.678 -1.73411 -4.97228 0
M  V30 9326 H 909.169 -1.61839 -3.41492 0
M  V30 9327 H 909.482 -3.86378 -6.69277 0
M  V30 9328 H 907.827 -3.46878 -6.02246 0
M  V30 9329 H 911.018 -2.08049 -4.19325 0
M  V30 9330 H 911.191 -3.10421 -5.68808 0
M  V30 9331 N 904.597 1.47463 -0.556102 0
M  V30 9332 C 905.827 2.06568 -0.0364056 0
M  V30 9333 C 906.235 1.40939 1.26225 0
M  V30 9334 O 905.578 0.499572 1.76777 0
M  V30 9335 C 905.64 3.58755 0.231278 0
M  V30 9336 C 905.304 4.46417 -0.977776 0
M  V30 9337 C 906.301 4.846 -1.88305 0
M  V30 9338 C 903.986 4.87948 -1.19214 0
M  V30 9339 C 905.98 5.63111 -2.98639 0
M  V30 9340 C 903.667 5.66224 -2.29857 0
M  V30 9341 C 904.665 6.03716 -3.194 0
M  V30 9342 O 904.353 6.80415 -4.28125 0
M  V30 9343 H 904.085 0.674675 -0.042305 0
M  V30 9344 H 906.639 1.9047 -0.768775 0
M  V30 9345 H 904.869 3.73061 1.01794 0
M  V30 9346 H 906.558 3.99884 0.696221 0
M  V30 9347 H 907.324 4.53115 -1.72949 0
M  V30 9348 H 903.203 4.58233 -0.504347 0
M  V30 9349 H 906.747 5.92293 -3.68557 0
M  V30 9350 H 902.644 5.97121 -2.45186 0
M  V30 9351 H 903.412 6.98807 -4.26159 0
M  V30 9352 N 906.075 0.2925 1.54862 0
M  V30 9353 C 907.315 -0.32024 2.01876 0
M  V30 9354 C 907.679 -1.5174 1.17639 0
M  V30 9355 O 908.88 -2.20094 1.54312 0
M  V30 9356 C 907.151 -0.67611 3.50947 0
M  V30 9357 S 908.71 -1.27292 4.19931 0
M  V30 9358 H 905.528 -0.0987374 0.704111 0
M  V30 9359 H 908.13 0.41839 1.90971 0
M  V30 9360 H 906.834 0.203797 4.09894 0
M  V30 9361 H 906.365 -1.44575 3.65871 0
M  V30 9362 H 908.38 -2.56102 4.25002 0
M  V30 9363 N 907.553 -1.57587 0.0200696 0
M  V30 9364 C 908.516 -2.08595 -0.949767 0
M  V30 9365 C 909.516 -0.999215 -1.25985 0
M  V30 9366 O 910.706 -1.26115 -1.2017 0
M  V30 9367 C 907.838 -2.54424 -2.26895 0
M  V30 9368 H 909.031 -2.95563 -0.508161 0
M  V30 9369 H 906.584 -1.54631 -0.227798 0
M  V30 9370 H 907.319 -1.70758 -2.75703 0
M  V30 9371 H 907.104 -3.3381 -2.05702 0
M  V30 9372 H 908.594 -2.94144 -2.96427 0
M  V30 9373 N 909.032 0.252966 -1.55557 0
M  V30 9374 C 910.28 0.979912 -1.76754 0
M  V30 9375 C 910.601 1.86083 -0.582944 0
M  V30 9376 O 909.871 1.91742 0.401497 0
M  V30 9377 H 908.451 0.364805 -0.651864 0
M  V30 9378 H 911.113 0.272372 -1.92987 0
M  V30 9379 H 910.209 1.60518 -2.67657 0
M  V30 9380 N 910.51 1.48831 0.518367 0
M  V30 9381 C 911.738 1.6112 1.298 0
M  V30 9382 C 912.153 0.275872 1.86774 0
M  V30 9383 O 911.51 -0.736416 1.66983 0
M  V30 9384 C 911.561 2.66675 2.44063 0
M  V30 9385 O 911.282 3.95027 1.89434 0
M  V30 9386 C 912.783 2.8951 3.35706 0
M  V30 9387 H 910.003 0.542916 0.394314 0
M  V30 9388 H 912.547 1.94743 0.624142 0
M  V30 9389 H 910.702 2.35879 3.07311 0
M  V30 9390 H 911.116 4.53031 2.64316 0
M  V30 9391 H 912.59 3.67142 4.12202 0
M  V30 9392 H 913.067 1.98768 3.91648 0
M  V30 9393 H 913.673 3.21656 2.7824 0
M  V30 9394 N 911.988 -0.768124 1.37614 0
M  V30 9395 C 912.921 -1.88894 1.2804 0
M  V30 9396 C 913.899 -1.61809 0.160226 0
M  V30 9397 O 915.083 -1.85498 0.33506 0
M  V30 9398 C 912.21 -3.24197 0.980523 0
M  V30 9399 C 911.256 -3.70188 2.11808 0
M  V30 9400 S 912.089 -3.83433 3.73817 0
M  V30 9401 C 913.245 -5.21578 3.45987 0
M  V30 9402 H 913.478 -1.96726 2.22904 0
M  V30 9403 H 911.011 -0.929602 1.23279 0
M  V30 9404 H 912.969 -4.02342 0.814331 0
M  V30 9405 H 911.63 -3.14061 0.0493122 0
M  V30 9406 H 910.823 -4.6829 1.86335 0
M  V30 9407 H 910.425 -2.99155 2.2446 0
M  V30 9408 H 912.717 -6.06865 3.012 0
M  V30 9409 H 913.66 -5.52065 4.43429 0
M  V30 9410 H 914.068 -4.89687 2.80832 0
M  V30 9411 N 913.466 -1.22244 -0.994698 0
M  V30 9412 C 914.877 -1.043 -1.5485 0
M  V30 9413 C 915.228 0.394102 -1.92201 0
M  V30 9414 O 914.353 1.27883 -1.74571 0
M  V30 9415 C 914.948 -1.88708 -2.8138 0
M  V30 9416 C 913.507 -1.75067 -3.3321 0
M  V30 9417 C 912.654 -1.85286 -2.06312 0
M  V30 9418 H 915.605 -1.36115 -0.815988 0
M  V30 9419 H 915.626 -1.40342 -3.53673 0
M  V30 9420 H 915.138 -2.93296 -2.54164 0
M  V30 9421 H 913.239 -0.732047 -3.65338 0
M  V30 9422 H 913.352 -2.57632 -4.03934 0
M  V30 9423 H 911.716 -1.28706 -2.19788 0
M  V30 9424 H 912.499 -2.91401 -1.81494 0
M  V30 9425 N 914.944 1.19125 -1.03184 0
M  V30 9426 C 916.19 1.89428 -0.740857 0
M  V30 9427 C 916.545 1.78302 0.72291 0
M  V30 9428 O 915.838 1.16656 1.51994 0
M  V30 9429 C 916.032 3.39052 -1.13041 0
M  V30 9430 C 915.861 3.64739 -2.6305 0
M  V30 9431 C 914.631 3.82603 -3.30066 0
M  V30 9432 C 916.829 3.66052 -3.61262 0
M  V30 9433 N 914.811 3.95947 -4.69147 0
M  V30 9434 C 916.182 3.85003 -4.85976 0
M  V30 9435 C 918.237 3.49093 -3.55019 0
M  V30 9436 C 916.94 3.88753 -6.05197 0
M  V30 9437 C 918.966 3.54122 -4.73658 0
M  V30 9438 C 918.328 3.73561 -5.97187 0
M  V30 9439 H 914.427 0.71217 -0.323014 0
M  V30 9440 H 917.011 1.43146 -1.31974 0
M  V30 9441 H 915.182 3.8405 -0.579699 0
M  V30 9442 H 916.914 3.96887 -0.791369 0
M  V30 9443 H 913.669 3.81615 -2.80476 0
M  V30 9444 H 914.093 4.06461 -5.41404 0
M  V30 9445 H 918.735 3.33018 -2.60497 0
M  V30 9446 H 916.453 4.03619 -7.00084 0
M  V30 9447 H 920.039 3.42286 -4.70459 0
M  V30 9448 H 918.919 3.7733 -6.87453 0
M  V30 9449 N 916.422 0.810101 1.35185 0
M  V30 9450 C 917.67 0.391343 1.98275 0
M  V30 9451 C 917.991 -1.04592 1.64577 0
M  V30 9452 O 917.261 -1.72417 0.93001 0
M  V30 9453 H 915.841 0.141715 0.733434 0
M  V30 9454 H 918.503 1.03672 1.6504 0
M  V30 9455 H 917.599 0.49991 3.0807 0
M  V30 9456 N 917.9 -1.47166 0.563914 0
M  V30 9457 C 918.848 -2.31798 -0.193009 0
M  V30 9458 C 919.842 -1.43338 -0.902805 0
M  V30 9459 O 921.048 -1.60067 -0.823328 0
M  V30 9460 H 917.423 -0.747613 -0.0811139 0
M  V30 9461 H 919.394 -2.93476 0.539876 0
M  V30 9462 C 918.143 -3.26131 -1.20555 0
M  V30 9463 H 917.466 -3.94166 -0.668803 0
M  V30 9464 H 918.906 -3.88167 -1.70593 0
M  V30 9465 C 917.365 -2.50132 -2.25689 0
M  V30 9466 O 917.895 -2.25064 -3.3273 0
M  V30 9467 N 916.101 -2.11022 -1.99795 0
M  V30 9468 H 915.648 -2.3161 -1.1276 0
M  V30 9469 H 915.606 -1.60489 -2.70353 0
M  V30 9470 N 919.378 -0.300708 -1.54705 0
M  V30 9471 C 920.789 0.191995 -1.8571 0
M  V30 9472 C 921.14 1.53447 -1.22264 0
M  V30 9473 O 920.265 2.10054 -0.520226 0
M  V30 9474 C 920.86 0.355148 -3.36933 0
M  V30 9475 C 919.419 0.792071 -3.67972 0
M  V30 9476 C 918.566 -0.099756 -2.77121 0
M  V30 9477 H 921.517 -0.521729 -1.49879 0
M  V30 9478 H 921.538 1.18977 -3.61421 0
M  V30 9479 H 921.05 -0.622075 -3.83082 0
M  V30 9480 H 919.151 1.77986 -3.27341 0
M  V30 9481 H 919.264 0.611661 -4.75179 0
M  V30 9482 H 917.628 0.420909 -2.51198 0
M  V30 9483 H 918.411 -1.07333 -3.2609 0
M  V30 9484 N 920.856 1.57574 -0.0284266 0
M  V30 9485 C 922.104 1.91393 0.649079 0
M  V30 9486 C 922.425 0.905368 1.72708 0
M  V30 9487 O 921.695 -0.0532107 1.95828 0
M  V30 9488 H 920.275 0.70646 0.24274 0
M  V30 9489 H 922.937 1.94752 -0.076066 0
M  V30 9490 H 922.033 2.91988 1.10226 0
M  V30 9491 N 922.334 -0.244713 1.55689 0
M  V30 9492 C 923.611 -0.995407 1.68378 0
M  V30 9493 C 923.991 -2.03288 0.568949 0
M  V30 9494 O 923.339 -2.24469 -0.427299 0
M  V30 9495 C 923.549 -1.62678 3.08767 0
M  V30 9496 C 924.897 -2.1278 3.67437 0
M  V30 9497 O 925.921 -1.72614 3.11581 0
M  V30 9498 O 924.78 -2.86536 4.65359 0
M  V30 9499 H 921.874 -0.463476 0.684923 0
M  V30 9500 H 924.42 -0.238326 1.68018 0
M  V30 9501 H 923.192 -0.876469 3.81358 0
M  V30 9502 H 922.815 -2.45 3.13146 0
M  V30 9503 N 923.813 -1.49104 -0.510467 0
M  V30 9504 C 924.763 -1.6147 -1.6097 0
M  V30 9505 C 925.747 -0.470797 -1.53858 0
M  V30 9506 O 926.939 -0.723266 -1.61548 0
M  V30 9507 C 924.068 -1.67575 -2.99622 0
M  V30 9508 C 923.154 -2.87511 -3.11766 0
M  V30 9509 N 923.545 -4.11704 -2.93826 0
M  V30 9510 C 921.843 -2.85251 -3.42852 0
M  V30 9511 C 922.544 -4.92276 -3.09902 0
M  V30 9512 N 921.52 -4.2546 -3.38355 0
M  V30 9513 H 925.322 -2.5522 -1.45739 0
M  V30 9514 H 922.836 -1.45745 -0.716383 0
M  V30 9515 H 924.833 -1.74531 -3.78609 0
M  V30 9516 H 923.493 -0.749557 -3.1593 0
M  V30 9517 H 924.504 -4.41834 -2.70191 0
M  V30 9518 H 921.181 -2.0197 -3.65396 0
M  V30 9519 H 922.571 -6.00905 -3.00604 0
M  V30 9520 N 925.291 0.760815 -1.38019 0
M  V30 9521 C 926.241 1.86487 -1.31174 0
M  V30 9522 C 927.225 1.59684 -0.197414 0
M  V30 9523 O 928.417 1.71628 -0.432764 0
M  V30 9524 C 925.546 3.24103 -1.13192 0
M  V30 9525 C 924.632 3.5682 -2.29216 0
M  V30 9526 N 925.023 3.60644 -3.5464 0
M  V30 9527 C 923.321 3.87047 -2.2161 0
M  V30 9528 C 924.022 3.90423 -4.31214 0
M  V30 9529 N 922.998 4.06883 -3.60482 0
M  V30 9530 H 926.8 1.87711 -2.26146 0
M  V30 9531 H 924.314 0.957811 -1.31148 0
M  V30 9532 H 926.311 4.03101 -1.06372 0
M  V30 9533 H 924.971 3.24135 -0.191473 0
M  V30 9534 H 925.982 3.42581 -3.88405 0
M  V30 9535 H 922.659 3.94837 -1.35684 0
M  V30 9536 H 924.049 4.00065 -5.39812 0
M  V30 9537 N 926.769 1.22769 0.988202 0
M  V30 9538 C 928.046 0.9635 1.70223 0
M  V30 9539 C 928.426 -0.520102 2.04593 0
M  V30 9540 O 927.774 -1.48934 1.73295 0
M  V30 9541 C 927.984 1.86583 2.94937 0
M  V30 9542 C 929.332 2.12469 3.67616 0
M  V30 9543 O 930.356 1.84069 3.04954 0
M  V30 9544 O 929.215 2.60595 4.80367 0
M  V30 9545 H 926.309 0.362737 0.743203 0
M  V30 9546 H 928.855 1.33776 1.04412 0
M  V30 9547 H 927.627 2.86913 2.66077 0
M  V30 9548 H 927.25 1.49344 3.68486 0
M  V30 9549 N 928.247 -1.18576 1.03814 0
M  V30 9550 C 929.494 -1.88493 0.740036 0
M  V30 9551 C 929.822 -1.80198 -0.732056 0
M  V30 9552 O 929.077 -1.19509 -1.54971 0
M  V30 9553 C 929.376 -3.38448 1.14837 0
M  V30 9554 C 929.042 -3.66947 2.62031 0
M  V30 9555 C 927.704 -3.74435 3.02244 0
M  V30 9556 C 930.056 -3.79534 3.57217 0
M  V30 9557 C 927.384 -3.91986 4.36536 0
M  V30 9558 C 929.736 -3.986 4.91223 0
M  V30 9559 C 928.4 -4.04323 5.31111 0
M  V30 9560 H 927.67 -0.689746 0.270798 0
M  V30 9561 H 930.317 -1.40364 1.3027 0
M  V30 9562 H 928.622 -3.88539 0.504472 0
M  V30 9563 H 930.319 -3.90882 0.89511 0
M  V30 9564 H 926.909 -3.61734 2.29883 0
M  V30 9565 H 931.093 -3.73083 3.27296 0
M  V30 9566 H 926.349 -3.9466 4.66962 0
M  V30 9567 H 930.523 -4.07281 5.64885 0
M  V30 9568 H 928.15 -4.17676 6.35178 0
M  V30 9569 N 929.725 -0.817259 -1.34754 0
M  V30 9570 C 930.635 -0.236946 -2.334 0
M  V30 9571 C 931.651 0.625685 -1.62361 0
M  V30 9572 O 932.827 0.534921 -1.94166 0
M  V30 9573 C 929.892 0.596215 -3.41535 0
M  V30 9574 C 928.953 -0.288154 -4.28332 0
M  V30 9575 C 928.186 0.505337 -5.31302 0
M  V30 9576 O 928.409 1.73912 -5.43241 0
M  V30 9577 O 927.343 -0.109374 -6.01801 0
M  V30 9578 H 931.169 -1.05327 -2.84851 0
M  V30 9579 H 928.754 -0.579275 -1.37713 0
M  V30 9580 H 930.636 1.07041 -4.07578 0
M  V30 9581 H 929.311 1.38997 -2.92338 0
M  V30 9582 H 928.218 -0.809724 -3.65232 0
M  V30 9583 H 929.551 -1.04612 -4.80955 0
M  V30 9584 N 931.203 1.46865 -0.571711 0
M  V30 9585 C 932.614 1.86158 -0.142181 0
M  V30 9586 C 932.965 1.47663 1.2919 0
M  V30 9587 O 932.09 0.886393 1.97413 0
M  V30 9588 C 932.685 3.37867 -0.251256 0
M  V30 9589 C 931.244 3.76198 0.123329 0
M  V30 9590 C 930.391 2.70902 -0.592232 0
M  V30 9591 H 933.342 1.38176 -0.780587 0
M  V30 9592 H 933.363 3.76842 0.526331 0
M  V30 9593 H 932.875 3.65853 -1.2951 0
M  V30 9594 H 930.976 3.53829 1.16773 0
M  V30 9595 H 931.089 4.78471 -0.24533 0
M  V30 9596 H 929.453 2.54678 -0.0336927 0
M  V30 9597 H 930.236 3.01729 -1.63751 0
M  V30 9598 N 932.681 0.308908 1.54543 0
M  V30 9599 C 933.613 -0.597453 2.21276 0
M  V30 9600 C 934.626 -1.09137 1.20801 0
M  V30 9601 O 935.815 -1.00747 1.47351 0
M  V30 9602 C 932.915 -1.83085 2.85189 0
M  V30 9603 C 932.088 -1.4781 4.11669 0
M  V30 9604 C 931.147 -2.56748 4.59311 0
M  V30 9605 O 930.173 -2.21507 5.24331 0
M  V30 9606 N 931.375 -3.87427 4.32297 0
M  V30 9607 H 934.14 -0.0261183 2.99689 0
M  V30 9608 H 931.701 0.131456 1.61365 0
M  V30 9609 H 933.693 -2.55326 3.13992 0
M  V30 9610 H 932.263 -2.31039 2.1057 0
M  V30 9611 H 931.483 -0.587974 3.8979 0
M  V30 9612 H 932.771 -1.2179 4.94009 0
M  V30 9613 H 932.169 -4.18863 3.80224 0
M  V30 9614 H 930.726 -4.55942 4.6579 0
M  V30 9615 N 934.159 -1.57557 0.0367827 0
M  V30 9616 C 935.575 -1.56366 -0.31967 0
M  V30 9617 C 935.775 -1.04313 -1.72398 0
M  V30 9618 O 934.831 -0.693278 -2.42796 0
M  V30 9619 C 936.144 -3.00267 -0.161274 0
M  V30 9620 C 937.692 -3.12128 -0.233464 0
M  V30 9621 C 938.167 -4.57882 -0.103767 0
M  V30 9622 N 939.658 -4.62922 -0.160506 0
M  V30 9623 C 940.393 -5.73338 -0.0840493 0
M  V30 9624 N 939.889 -6.92786 0.043933 0
M  V30 9625 N 941.682 -5.61929 -0.138592 0
M  V30 9626 H 933.833 -1.8972 0.954996 0
M  V30 9627 H 936.096 -0.87304 0.369467 0
M  V30 9628 H 935.802 -3.42331 0.80639 0
M  V30 9629 H 935.676 -3.65599 -0.928304 0
M  V30 9630 H 938.063 -2.69972 -1.19159 0
M  V30 9631 H 938.144 -2.49503 0.564075 0
M  V30 9632 H 937.788 -5.0072 0.850973 0
M  V30 9633 H 937.718 -5.18496 -0.920268 0
M  V30 9634 H 940.209 -3.7701 -0.259257 0
M  V30 9635 H 940.522 -7.72741 0.095372 0
M  V30 9636 H 938.867 -6.94955 0.0788211 0
M  V30 9637 H 942.058 -4.67499 -0.237031 0
M  V30 9638 H 942.231 -6.47956 -0.075546 0
M  V30 9639 N 935.637 0.236453 -1.55816 0
M  V30 9640 C 936.587 1.29603 -1.87582 0
M  V30 9641 C 937.571 1.42999 -0.737566 0
M  V30 9642 O 938.763 1.46065 -0.999701 0
M  V30 9643 C 935.892 2.64945 -2.1831 0
M  V30 9644 C 934.978 2.55511 -3.38489 0
M  V30 9645 N 935.369 2.15716 -4.57494 0
M  V30 9646 C 933.667 2.86502 -3.41808 0
M  V30 9647 C 934.368 2.17169 -5.39641 0
M  V30 9648 N 933.344 2.5708 -4.78969 0
M  V30 9649 H 937.146 0.979016 -2.77115 0
M  V30 9650 H 934.66 0.445058 -1.56183 0
M  V30 9651 H 936.657 3.41426 -2.39236 0
M  V30 9652 H 935.317 2.97504 -1.30082 0
M  V30 9653 H 936.328 1.87089 -4.82927 0
M  V30 9654 H 933.005 3.23533 -2.6388 0
M  V30 9655 H 934.395 1.88653 -6.44872 0
M  V30 9656 N 937.115 1.49373 0.502552 0
M  V30 9657 C 938.392 1.49282 1.26389 0
M  V30 9658 C 938.772 0.219674 2.09954 0
M  V30 9659 O 938.12 -0.797991 2.14113 0
M  V30 9660 C 938.33 2.77083 2.12194 0
M  V30 9661 C 939.678 3.26511 2.71433 0
M  V30 9662 O 940.702 2.78189 2.22462 0
M  V30 9663 O 939.561 4.10665 3.60578 0
M  V30 9664 H 936.655 0.597415 0.57186 0
M  V30 9665 H 939.201 1.61634 0.516951 0
M  V30 9666 H 937.973 3.61237 1.50411 0
M  V30 9667 H 937.596 2.67583 2.94084 0
M  V30 9668 N 938.594 -0.753485 1.38421 0
M  V30 9669 C 939.871 -1.50318 1.25155 0
M  V30 9670 C 940.251 -2.10588 -0.147003 0
M  V30 9671 O 939.599 -1.97071 -1.15651 0
M  V30 9672 C 939.809 -2.56946 2.36177 0
M  V30 9673 C 941.157 -3.23846 2.74607 0
M  V30 9674 O 942.181 -2.67251 2.3549 0
M  V30 9675 O 941.04 -4.2621 3.42064 0
M  V30 9676 H 938.134 -0.666624 0.48943 0
M  V30 9677 H 940.68 -0.788887 1.50249 0
M  V30 9678 H 939.452 -2.1066 3.29754 0
M  V30 9679 H 939.075 -3.35956 2.12648 0
M  V30 9680 N 940.072 -1.23292 -0.981677 0
M  V30 9681 C 941.32 -1.06214 -1.71939 0
M  V30 9682 C 941.641 0.401989 -1.90812 0
M  V30 9683 O 940.911 1.28825 -1.47584 0
M  V30 9684 H 939.491 -0.390042 -0.637084 0
M  V30 9685 H 942.153 -1.54988 -1.18173 0
M  V30 9686 H 941.249 -1.54904 -2.70945 0
M  V30 9687 N 941.55 1.18024 -1.04442 0
M  V30 9688 C 942.78 1.91753 -0.769044 0
M  V30 9689 C 943.188 1.76629 0.678141 0
M  V30 9690 O 942.531 1.09589 1.47431 0
M  V30 9691 C 942.593 3.43505 -1.0604 0
M  V30 9692 C 942.257 3.82409 -2.50225 0
M  V30 9693 C 943.254 3.8588 -3.48414 0
M  V30 9694 C 940.939 4.13594 -2.85036 0
M  V30 9695 C 942.933 4.19993 -4.79463 0
M  V30 9696 C 940.62 4.47377 -4.1629 0
M  V30 9697 C 941.618 4.50553 -5.13314 0
M  V30 9698 O 941.306 4.83546 -6.42214 0
M  V30 9699 H 941.038 0.615466 -0.279603 0
M  V30 9700 H 943.592 1.5065 -1.3962 0
M  V30 9701 H 941.822 3.84866 -0.376125 0
M  V30 9702 H 943.511 3.98486 -0.772235 0
M  V30 9703 H 944.277 3.6192 -3.2286 0
M  V30 9704 H 940.156 4.10297 -2.10185 0
M  V30 9705 H 943.7 4.22387 -5.55189 0
M  V30 9706 H 939.597 4.70798 -4.4161 0
M  V30 9707 H 940.365 5.01433 -6.46921 0
M  V30 9708 N 943.028 0.824394 1.34319 0
M  V30 9709 C 944.277 0.40956 1.97498 0
M  V30 9710 C 944.59 -1.03323 1.66083 0
M  V30 9711 O 945.796 -1.55205 2.22764 0
M  V30 9712 C 944.252 0.681384 3.53391 0
M  V30 9713 C 943.86 2.1379 3.93698 0
M  V30 9714 C 945.604 0.332788 4.23194 0
M  V30 9715 C 943.511 2.35453 5.42509 0
M  V30 9716 H 942.441 0.149409 0.739049 0
M  V30 9717 H 945.092 1.01095 1.5314 0
M  V30 9718 H 943.474 0.00980375 3.95999 0
M  V30 9719 H 944.648 2.84876 3.62191 0
M  V30 9720 H 942.963 2.44807 3.36836 0
M  V30 9721 H 945.56 0.472463 5.32609 0
M  V30 9722 H 945.903 -0.722862 4.09976 0
M  V30 9723 H 946.436 0.959005 3.86067 0
M  V30 9724 H 943.175 3.39529 5.60714 0
M  V30 9725 H 942.695 1.68912 5.75525 0
M  V30 9726 H 944.374 2.17885 6.09209 0
M  V30 9727 N 944.506 -1.46559 0.579492 0
M  V30 9728 C 945.416 -2.34066 -0.15816 0
M  V30 9729 C 946.432 -1.49556 -0.88932 0
M  V30 9730 O 947.608 -1.82434 -0.853226 0
M  V30 9731 C 944.673 -3.26683 -1.161 0
M  V30 9732 C 943.734 -4.27092 -0.434855 0
M  V30 9733 C 942.967 -5.15283 -1.38992 0
M  V30 9734 O 943.19 -5.06345 -2.62623 0
M  V30 9735 O 942.124 -5.95099 -0.902253 0
M  V30 9736 H 945.95 -2.98488 0.560234 0
M  V30 9737 H 943.535 -1.45482 0.339918 0
M  V30 9738 H 945.417 -3.8383 -1.73932 0
M  V30 9739 H 944.092 -2.64862 -1.86091 0
M  V30 9740 H 942.999 -3.73641 0.185224 0
M  V30 9741 H 944.332 -4.9169 0.224031 0
M  V30 9742 N 945.984 -0.3171 -1.54377 0
M  V30 9743 C 947.23 0.287836 -2.00747 0
M  V30 9744 C 947.563 1.52292 -1.20502 0
M  V30 9745 O 946.838 1.92391 -0.285626 0
M  V30 9746 C 947.121 0.628423 -3.54574 0
M  V30 9747 C 946.974 -0.616922 -4.45549 0
M  V30 9748 C 948.293 1.44862 -4.15575 0
M  V30 9749 H 945.412 0.103144 -0.729747 0
M  V30 9750 H 948.054 -0.432396 -1.85014 0
M  V30 9751 H 946.204 1.24203 -3.68111 0
M  V30 9752 H 947.876 -1.25526 -4.43893 0
M  V30 9753 H 946.119 -1.24706 -4.15489 0
M  V30 9754 H 946.79 -0.334243 -5.50987 0
M  V30 9755 H 949.266 0.930015 -4.05574 0
M  V30 9756 H 948.142 1.6557 -5.23333 0
M  V30 9757 H 948.403 2.44279 -3.68484 0
M  V30 9758 N 947.462 1.57535 -0.0451378 0
M  V30 9759 C 948.711 1.91628 0.629415 0
M  V30 9760 C 949.024 0.924754 1.72359 0
M  V30 9761 O 950.23 1.15751 2.45589 0
M  V30 9762 C 948.686 3.40322 1.17084 0
M  V30 9763 C 948.294 4.47867 0.109101 0
M  V30 9764 C 950.038 3.83458 1.82099 0
M  V30 9765 C 947.945 5.87671 0.663072 0
M  V30 9766 H 946.875 0.715163 0.238868 0
M  V30 9767 H 949.526 1.83151 -0.113046 0
M  V30 9768 H 947.908 3.43783 1.96543 0
M  V30 9769 H 949.082 4.55988 -0.664201 0
M  V30 9770 H 947.397 4.14034 -0.443227 0
M  V30 9771 H 949.994 4.85273 2.2453 0
M  V30 9772 H 950.337 3.19379 2.67026 0
M  V30 9773 H 950.87 3.82488 1.09305 0
M  V30 9774 H 947.609 6.55332 -0.148423 0
M  V30 9775 H 947.129 5.83124 1.4045 0
M  V30 9776 H 948.808 6.36737 1.14785 0
M  V30 9777 N 948.94 -0.228186 1.55939 0
M  V30 9778 C 950.188 -0.951668 1.78291 0
M  V30 9779 C 950.509 -1.85132 0.612474 0
M  V30 9780 O 949.779 -1.92356 -0.370942 0
M  V30 9781 H 948.359 -0.354388 0.657585 0
M  V30 9782 H 951.021 -0.241635 1.93396 0
M  V30 9783 H 950.117 -1.56239 2.70177 0
M  V30 9784 N 950.418 -1.49637 -0.494624 0
M  V30 9785 C 951.665 -1.59445 -1.24834 0
M  V30 9786 C 951.993 -0.284028 -1.92415 0
M  V30 9787 O 951.248 0.728519 -1.81634 0
M  V30 9788 C 951.547 -2.70749 -2.33302 0
M  V30 9789 C 951.213 -4.12034 -1.83135 0
M  V30 9790 C 949.875 -4.50482 -1.69173 0
M  V30 9791 C 952.227 -5.00432 -1.4566 0
M  V30 9792 C 949.555 -5.75093 -1.16124 0
M  V30 9793 C 951.907 -6.25568 -0.940608 0
M  V30 9794 C 950.571 -6.62839 -0.787432 0
M  V30 9795 H 949.841 -0.583451 -0.456799 0
M  V30 9796 H 952.488 -1.8349 -0.548044 0
M  V30 9797 H 950.793 -2.407 -3.09145 0
M  V30 9798 H 952.49 -2.75546 -2.91334 0
M  V30 9799 H 949.08 -3.8169 -1.94964 0
M  V30 9800 H 953.264 -4.71379 -1.55291 0
M  V30 9801 H 948.52 -6.02665 -1.02982 0
M  V30 9802 H 952.694 -6.93439 -0.641467 0
M  V30 9803 H 950.321 -7.59279 -0.374191 0
M  V30 9804 N 951.896 0.746133 -1.38819 0
M  V30 9805 C 953.124 1.53539 -1.38685 0
M  V30 9806 C 953.539 1.88788 0.0215039 0
M  V30 9807 O 952.896 1.53312 0.990031 0
M  V30 9808 C 952.947 2.8299 -2.24942 0
M  V30 9809 O 952.668 2.49242 -3.60292 0
M  V30 9810 C 954.169 3.77085 -2.3307 0
M  V30 9811 H 951.389 0.474842 -0.474095 0
M  V30 9812 H 953.933 0.922844 -1.82493 0
M  V30 9813 H 952.088 3.40603 -1.84576 0
M  V30 9814 H 952.502 3.32319 -4.05789 0
M  V30 9815 H 953.976 4.64845 -2.97696 0
M  V30 9816 H 954.453 4.18049 -1.34655 0
M  V30 9817 H 955.059 3.25394 -2.73859 0
M  V30 9818 N 953.375 1.23811 0.975125 0
M  V30 9819 C 954.308 0.967173 2.06691 0
M  V30 9820 C 955.286 -0.09642 1.62314 0
M  V30 9821 O 956.47 0.0389532 1.8846 0
M  V30 9822 C 953.597 0.458094 3.35588 0
M  V30 9823 C 952.643 1.5091 3.98909 0
M  V30 9824 S 953.476 3.08815 4.37485 0
M  V30 9825 C 954.632 2.59591 5.69529 0
M  V30 9826 H 954.865 1.89166 2.29355 0
M  V30 9827 H 952.398 1.07113 1.11203 0
M  V30 9828 H 954.356 0.170991 4.10144 0
M  V30 9829 H 953.017 -0.445562 3.10924 0
M  V30 9830 H 952.21 1.10315 4.91779 0
M  V30 9831 H 951.812 1.74582 3.30752 0
M  V30 9832 H 954.104 2.0194 6.46704 0
M  V30 9833 H 955.047 3.51021 6.14971 0
M  V30 9834 H 955.455 2.00267 5.27782 0
M  V30 9835 N 954.853 -1.17469 1.05066 0
M  V30 9836 C 955.816 -2.19648 0.654793 0
M  V30 9837 C 956.816 -1.58107 -0.293063 0
M  V30 9838 O 958.006 -1.74029 -0.077106 0
M  V30 9839 C 955.138 -3.40878 -0.0384437 0
M  V30 9840 H 956.331 -2.56184 1.55915 0
M  V30 9841 H 953.884 -1.31528 0.844396 0
M  V30 9842 H 954.619 -3.09885 -0.956133 0
M  V30 9843 H 954.404 -3.86792 0.642961 0
M  V30 9844 H 955.894 -4.1651 -0.301568 0
M  V30 9845 N 956.331 -0.831506 -1.3388 0
M  V30 9846 C 957.556 -0.435954 -2.02766 0
M  V30 9847 C 957.981 0.952889 -1.62178 0
M  V30 9848 O 957.339 1.62166 -0.810681 0
M  V30 9849 C 957.387 -0.555907 -3.56289 0
M  V30 9850 O 956.491 0.420826 -4.10247 0
M  V30 9851 H 955.832 -0.178248 -0.639628 0
M  V30 9852 H 958.362 -1.1243 -1.70941 0
M  V30 9853 H 958.372 -0.434831 -4.05676 0
M  V30 9854 H 957.047 -1.56881 -3.85177 0
M  V30 9855 H 955.624 0.257919 -3.72007 0
M  V30 9856 N 957.809 1.4625 -0.587256 0
M  V30 9857 C 958.739 2.33132 0.131076 0
M  V30 9858 C 959.72 1.45619 0.879158 0
M  V30 9859 O 960.905 1.74428 0.853723 0
M  V30 9860 C 958.035 3.27975 1.14236 0
M  V30 9861 C 956.989 4.24965 0.508819 0
M  V30 9862 C 956.315 5.09349 1.62689 0
M  V30 9863 C 957.615 5.19322 -0.55694 0
M  V30 9864 H 959.309 2.93442 -0.594333 0
M  V30 9865 H 956.855 1.41106 -0.287263 0
M  V30 9866 H 958.808 3.87614 1.65328 0
M  V30 9867 H 957.532 2.65781 1.8981 0
M  V30 9868 H 956.191 3.66595 0.0189337 0
M  V30 9869 H 955.839 4.43537 2.37242 0
M  V30 9870 H 955.539 5.75036 1.20861 0
M  V30 9871 H 957.063 5.71852 2.14049 0
M  V30 9872 H 958.477 5.73151 -0.130903 0
M  V30 9873 H 956.874 5.93376 -0.895801 0
M  V30 9874 H 957.944 4.62979 -1.44148 0
M  V30 9875 N 959.287 0.325282 1.54207 0
M  V30 9876 C 960.25 -0.527228 2.23054 0
M  V30 9877 C 961.25 -1.04217 1.22456 0
M  V30 9878 O 962.44 -0.934325 1.47024 0
M  V30 9879 C 959.572 -1.7325 2.93594 0
M  V30 9880 H 960.765 0.0746423 2.99807 0
M  V30 9881 H 958.318 0.0763872 1.56113 0
M  V30 9882 H 959.053 -2.37356 2.20981 0
M  V30 9883 H 958.838 -1.37065 3.67363 0
M  V30 9884 H 960.328 -2.3376 3.46043 0
M  V30 9885 N 960.765 -1.57509 0.0534917 0
M  V30 9886 C 961.728 -2.10563 -0.905307 0
M  V30 9887 C 962.728 -1.02571 -1.23838 0
M  V30 9888 O 963.918 -1.28635 -1.17468 0
M  V30 9889 C 961.05 -2.5918 -2.21447 0
M  V30 9890 H 962.243 -2.96575 -0.445354 0
M  V30 9891 H 959.796 -1.55079 -0.194947 0
M  V30 9892 H 960.531 -1.76568 -2.72019 0
M  V30 9893 H 960.316 -3.38098 -1.98575 0
M  V30 9894 H 961.806 -3.00365 -2.90122 0
M  V30 9895 N 962.243 0.219913 -1.56058 0
M  V30 9896 C 963.173 1.27572 -1.9557 0
M  V30 9897 C 964.154 1.48801 -0.824148 0
M  V30 9898 O 965.339 1.60957 -1.08658 0
M  V30 9899 C 962.469 2.62517 -2.27381 0
M  V30 9900 C 961.423 2.55941 -3.43042 0
M  V30 9901 C 960.749 3.94931 -3.60463 0
M  V30 9902 C 962.049 2.10584 -4.77966 0
M  V30 9903 H 963.743 0.947482 -2.84013 0
M  V30 9904 H 961.289 0.454337 -1.36645 0
M  V30 9905 H 963.242 3.36538 -2.53615 0
M  V30 9906 H 961.966 2.97031 -1.35794 0
M  V30 9907 H 960.625 1.84377 -3.1686 0
M  V30 9908 H 960.273 4.26756 -2.66249 0
M  V30 9909 H 959.973 3.91413 -4.38258 0
M  V30 9910 H 961.497 4.70611 -3.89046 0
M  V30 9911 H 962.911 2.74349 -5.03394 0
M  V30 9912 H 961.308 2.18122 -5.59055 0
M  V30 9913 H 962.378 1.05818 -4.73213 0
M  V30 9914 N 963.721 1.49897 0.486681 0
M  V30 9915 C 964.653 1.63755 1.60365 0
M  V30 9916 C 965.666 0.519614 1.54285 0
M  V30 9917 O 966.855 0.792219 1.59957 0
M  V30 9918 C 963.955 1.59153 2.99205 0
M  V30 9919 C 963.128 2.8672 3.30319 0
M  V30 9920 C 962.187 2.74974 4.48638 0
M  V30 9921 O 961.213 3.48922 4.49714 0
M  V30 9922 N 962.415 1.87479 5.49392 0
M  V30 9923 H 965.18 2.60094 1.48899 0
M  V30 9924 H 962.741 1.47166 0.674825 0
M  V30 9925 H 964.733 1.4893 3.76301 0
M  V30 9926 H 963.303 0.706133 3.0452 0
M  V30 9927 H 962.523 3.11188 2.41983 0
M  V30 9928 H 963.811 3.71262 3.47911 0
M  V30 9929 H 963.209 1.26684 5.51333 0
M  V30 9930 H 961.766 1.83169 6.25534 0
M  V30 9931 N 965.199 -0.738761 1.39212 0
M  V30 9932 C 966.445 -1.50046 1.36433 0
M  V30 9933 C 966.778 -1.94157 -0.0409474 0
M  V30 9934 O 966.053 -1.66515 -1.00514 0
M  V30 9935 C 966.336 -2.74277 2.33333 0
M  V30 9936 C 966.189 -2.36209 3.82786 0
M  V30 9937 C 967.508 -3.76361 2.28123 0
M  V30 9938 H 964.627 -0.544294 0.496903 0
M  V30 9939 H 967.269 -0.845005 1.70175 0
M  V30 9940 H 965.419 -3.30204 2.04689 0
M  V30 9941 H 967.091 -1.85942 4.22165 0
M  V30 9942 H 965.334 -1.68483 3.99745 0
M  V30 9943 H 966.005 -3.25156 4.46069 0
M  V30 9944 H 968.481 -3.30009 2.53443 0
M  V30 9945 H 967.357 -4.60957 2.9801 0
M  V30 9946 H 967.618 -4.23013 1.28499 0
M  V30 9947 N 966.677 -1.24326 -0.968545 0
M  V30 9948 C 967.925 -1.08032 -1.70803 0
M  V30 9949 C 968.246 0.381728 -1.91227 0
M  V30 9950 O 967.516 1.27253 -1.48942 0
M  V30 9951 H 966.096 -0.396777 -0.632912 0
M  V30 9952 H 968.758 -1.56232 -1.16523 0
M  V30 9953 H 967.854 -1.57769 -2.69287 0
M  V30 9954 N 968.156 1.1691 -1.05688 0
M  V30 9955 C 969.404 1.86922 -0.768409 0
M  V30 9956 C 969.725 1.81735 0.706921 0
M  V30 9957 O 968.995 1.24671 1.51109 0
M  V30 9958 H 967.575 0.69203 -0.281253 0
M  V30 9959 H 970.237 1.41803 -1.33708 0
M  V30 9960 H 969.333 2.92528 -1.08783 0
M  V30 9961 N 969.634 0.838594 1.33437 0
M  V30 9962 C 970.584 0.243681 2.26694 0
M  V30 9963 C 971.568 -0.601168 1.49247 0
M  V30 9964 O 972.76 -0.453181 1.711 0
M  V30 9965 C 969.889 -0.580525 3.38356 0
M  V30 9966 C 968.975 0.275819 4.23202 0
M  V30 9967 N 969.366 1.3544 4.87329 0
M  V30 9968 C 967.664 0.0628047 4.45956 0
M  V30 9969 C 968.365 1.87991 5.50486 0
M  V30 9970 N 967.341 1.18143 5.30607 0
M  V30 9971 H 971.143 1.06849 2.73789 0
M  V30 9972 H 968.657 0.683019 1.47338 0
M  V30 9973 H 970.654 -1.02301 4.04153 0
M  V30 9974 H 969.314 -1.40331 2.92809 0
M  V30 9975 H 970.325 1.73729 4.87892 0
M  V30 9976 H 967.002 -0.726563 4.11129 0
M  V30 9977 H 968.392 2.78312 6.11549 0
M  V30 9978 N 971.112 -1.45937 0.595003 0
M  V30 9979 C 972.36 -2.01921 0.0851368 0
M  V30 9980 C 972.681 -1.46748 -1.28413 0
M  V30 9981 O 971.951 -0.656873 -1.84559 0
M  V30 9982 H 970.531 -0.746457 0.0284826 0
M  V30 9983 H 973.193 -1.78891 0.773561 0
M  V30 9984 H 972.289 -3.1209 0.0254002 0
M  V30 9985 N 972.59 -0.333456 -1.54032 0
M  V30 9986 C 973.5 0.536674 -2.28379 0
M  V30 9987 C 974.516 1.12068 -1.33104 0
M  V30 9988 O 975.692 1.13853 -1.66131 0
M  V30 9989 C 972.757 1.67677 -3.03456 0
M  V30 9990 C 971.818 1.12357 -4.14336 0
M  V30 9991 C 971.051 2.20933 -4.85823 0
M  V30 9992 O 971.274 3.41466 -4.569 0
M  V30 9993 O 970.208 1.85795 -5.72507 0
M  V30 9994 H 974.034 -0.0674003 -3.03625 0
M  V30 9995 H 971.619 -0.098823 -1.49073 0
M  V30 9996 H 973.501 2.34032 -3.50438 0
M  V30 9997 H 972.176 2.26684 -2.31076 0
M  V30 9998 H 971.083 0.424827 -3.7168 0
M  V30 9999 H 972.416 0.578497 -4.88789 0
M  V30 10000 N 974.068 1.57479 -0.061844 0
M  V30 10001 C 975.484 1.56855 0.294753 0
M  V30 10002 C 975.684 1.07042 1.70717 0
M  V30 10003 O 974.74 0.731817 2.41662 0
M  V30 10004 C 976.053 3.00486 0.113484 0
M  V30 10005 C 977.601 3.1246 0.183778 0
M  V30 10006 C 978.076 4.5799 0.0309092 0
M  V30 10007 N 979.567 4.63119 0.0868393 0
M  V30 10008 C 980.302 5.734 -0.00717446 0
M  V30 10009 N 979.798 6.92628 -0.154144 0
M  V30 10010 N 981.591 5.62078 0.0491763 0
M  V30 10011 H 973.742 1.88176 -0.985058 0
M  V30 10012 H 976.005 0.867051 -0.383309 0
M  V30 10013 H 975.711 3.41004 -0.86075 0
M  V30 10014 H 975.585 3.67029 0.870023 0
M  V30 10015 H 977.972 2.71834 1.14849 0
M  V30 10016 H 978.053 2.48574 -0.603697 0
M  V30 10017 H 977.697 4.99303 -0.930526 0
M  V30 10018 H 977.627 5.19895 0.837664 0
M  V30 10019 H 980.118 3.77374 0.199245 0
M  V30 10020 H 980.431 7.72492 -0.218296 0
M  V30 10021 H 978.776 6.94742 -0.189372 0
M  V30 10022 H 981.967 4.67817 0.162626 0
M  V30 10023 H 982.14 6.47994 -0.0275478 0
M  V30 10024 N 975.546 -0.211634 1.56173 0
M  V30 10025 C 976.476 -1.26533 1.96244 0
M  V30 10026 C 977.457 -1.48362 0.832028 0
M  V30 10027 O 978.642 -1.60378 1.0951 0
M  V30 10028 C 975.772 -2.61307 2.2877 0
M  V30 10029 C 974.726 -2.54119 3.44395 0
M  V30 10030 C 974.052 -3.93014 3.62552 0
M  V30 10031 C 975.352 -2.08046 4.79076 0
M  V30 10032 H 977.046 -0.932407 2.84511 0
M  V30 10033 H 974.592 -0.447084 1.36884 0
M  V30 10034 H 976.545 -3.35188 2.55396 0
M  V30 10035 H 975.269 -2.96307 1.37367 0
M  V30 10036 H 973.928 -1.82694 3.17834 0
M  V30 10037 H 973.576 -4.25338 2.68508 0
M  V30 10038 H 973.276 -3.89083 4.40327 0
M  V30 10039 H 974.8 -4.68542 3.91537 0
M  V30 10040 H 976.214 -2.71676 5.04842 0
M  V30 10041 H 974.611 -2.15154 5.60204 0
M  V30 10042 H 975.681 -1.03306 4.73768 0
M  V30 10043 N 977.024 -1.50153 -0.478725 0
M  V30 10044 C 977.974 -1.64848 -1.57509 0
M  V30 10045 C 978.958 -0.503327 -1.52825 0
M  V30 10046 O 980.15 -0.75737 -1.59978 0
M  V30 10047 C 977.279 -1.73893 -2.96 0
M  V30 10048 C 976.365 -2.9406 -3.05597 0
M  V30 10049 N 976.756 -4.17844 -2.85027 0
M  V30 10050 C 975.054 -2.92459 -3.36725 0
M  V30 10051 C 975.755 -4.98739 -2.9939 0
M  V30 10052 N 974.731 -4.32542 -3.29255 0
M  V30 10053 H 978.533 -2.58254 -1.40293 0
M  V30 10054 H 976.047 -1.47232 -0.685307 0
M  V30 10055 H 978.044 -1.82523 -3.74821 0
M  V30 10056 H 976.704 -0.816402 -3.14269 0
M  V30 10057 H 977.715 -4.47465 -2.60759 0
M  V30 10058 H 974.392 -2.09675 -3.6103 0
M  V30 10059 H 975.782 -6.07146 -2.8779 0
M  V30 10060 N 978.502 0.731368 -1.39602 0
M  V30 10061 C 979.434 1.85575 -1.34516 0
M  V30 10062 C 980.447 1.60818 -0.253287 0
M  V30 10063 O 981.636 1.70984 -0.512505 0
M  V30 10064 C 978.736 3.21673 -1.06676 0
M  V30 10065 C 977.909 3.73757 -2.27211 0
M  V30 10066 C 976.968 4.88426 -1.95773 0
M  V30 10067 O 975.994 5.01898 -2.68491 0
M  V30 10068 N 977.196 5.73065 -0.926083 0
M  V30 10069 H 979.961 1.90442 -2.31413 0
M  V30 10070 H 977.522 0.912258 -1.33752 0
M  V30 10071 H 979.514 3.95959 -0.836577 0
M  V30 10072 H 978.084 3.12052 -0.185003 0
M  V30 10073 H 977.304 2.90781 -2.66158 0
M  V30 10074 H 978.592 4.05289 -3.07601 0
M  V30 10075 H 977.99 5.64774 -0.323497 0
M  V30 10076 H 976.547 6.47403 -0.755795 0
M  V30 10077 N 979.98 1.24838 0.961938 0
M  V30 10078 C 981.22 1.10348 1.72054 0
M  V30 10079 C 981.584 -0.350775 1.88769 0
M  V30 10080 O 982.785 -0.617323 2.61615 0
M  V30 10081 C 981.056 1.82916 3.07045 0
M  V30 10082 S 982.615 1.84227 3.98253 0
M  V30 10083 H 979.433 0.394552 0.591481 0
M  V30 10084 H 982.035 1.58254 1.14786 0
M  V30 10085 H 980.739 2.87829 2.92545 0
M  V30 10086 H 980.27 1.35366 3.69377 0
M  V30 10087 H 982.285 0.914073 4.87708 0
M  V30 10088 N 981.458 -1.16348 1.06306 0
M  V30 10089 C 982.874 -1.38873 0.786543 0
M  V30 10090 C 983.074 -1.91915 -0.614061 0
M  V30 10091 O 982.13 -2.11804 -1.3746 0
M  V30 10092 C 983.443 -2.36936 1.85154 0
M  V30 10093 C 984.991 -2.5062 1.87506 0
M  V30 10094 C 985.466 -3.51965 2.9306 0
M  V30 10095 N 986.957 -3.59492 2.92095 0
M  V30 10096 C 987.692 -4.37699 3.70415 0
M  V30 10097 N 987.188 -5.19327 4.58553 0
M  V30 10098 N 988.981 -4.32683 3.58806 0
M  V30 10099 H 981.132 -0.802542 1.96655 0
M  V30 10100 H 983.395 -0.415304 0.852189 0
M  V30 10101 H 983.101 -2.05056 2.85736 0
M  V30 10102 H 982.975 -3.36585 1.70267 0
M  V30 10103 H 985.362 -2.81804 0.875827 0
M  V30 10104 H 985.443 -1.51006 2.06472 0
M  V30 10105 H 985.087 -3.21518 3.93177 0
M  V30 10106 H 985.017 -4.51309 2.71344 0
M  V30 10107 H 987.508 -3.01222 2.28197 0
M  V30 10108 H 987.821 -5.76216 5.1497 0
M  V30 10109 H 986.166 -5.1867 4.62608 0
M  V30 10110 H 989.357 -3.67971 2.89335 0
M  V30 10111 H 989.53 -4.93386 4.20088 0
M  V30 10112 N 982.937 -0.845659 -1.3299 0
M  V30 10113 C 983.847 -0.2864 -2.32845 0
M  V30 10114 C 984.863 0.591105 -1.63652 0
M  V30 10115 O 986.039 0.493615 -1.95257 0
M  V30 10116 C 983.104 0.523636 -3.42723 0
M  V30 10117 C 982.165 -0.378945 -4.27624 0
M  V30 10118 C 981.398 0.392526 -5.32255 0
M  V30 10119 O 981.621 1.6235 -5.46808 0
M  V30 10120 O 980.555 -0.237 -6.01433 0
M  V30 10121 H 984.381 -1.11346 -2.82552 0
M  V30 10122 H 981.966 -0.608356 -1.36453 0
M  V30 10123 H 983.848 0.983718 -4.09757 0
M  V30 10124 H 982.523 1.32764 -2.95221 0
M  V30 10125 H 981.43 -0.887012 -3.63432 0
M  V30 10126 H 982.763 -1.1479 -4.78627 0
M  V30 10127 N 984.415 1.45619 -0.602734 0
M  V30 10128 C 985.661 2.02572 -0.0961759 0
M  V30 10129 C 985.994 1.47076 1.26815 0
M  V30 10130 O 985.269 0.643566 1.83544 0
M  V30 10131 C 985.552 3.60062 -0.0520032 0
M  V30 10132 C 985.405 4.25901 -1.44665 0
M  V30 10133 C 986.724 4.35446 0.638342 0
M  V30 10134 H 983.843 0.736099 -0.0364238 0
M  V30 10135 H 986.485 1.7353 -0.773776 0
M  V30 10136 H 984.635 3.84936 0.525032 0
M  V30 10137 H 986.307 4.12228 -2.0704 0
M  V30 10138 H 984.55 3.84489 -2.00874 0
M  V30 10139 H 985.221 5.34779 -1.36803 0
M  V30 10140 H 987.697 4.15837 0.147926 0
M  V30 10141 H 986.573 5.45176 0.63834 0
M  V30 10142 H 986.834 4.07962 1.70351 0
M  V30 10143 N 985.893 0.34162 1.53853 0
M  V30 10144 C 986.826 -0.559051 2.21246 0
M  V30 10145 C 987.804 -1.10179 1.1958 0
M  V30 10146 O 988.988 -1.16242 1.48392 0
M  V30 10147 C 986.115 -1.7689 2.88838 0
M  V30 10148 C 985.161 -1.3558 4.04377 0
M  V30 10149 S 985.994 -0.377225 5.3417 0
M  V30 10150 C 987.15 -1.59395 6.05264 0
M  V30 10151 H 987.383 0.013373 2.97297 0
M  V30 10152 H 984.916 0.125694 1.53888 0
M  V30 10153 H 986.874 -2.463 3.284 0
M  V30 10154 H 985.535 -2.31254 2.12557 0
M  V30 10155 H 984.728 -2.25781 4.50599 0
M  V30 10156 H 984.33 -0.741197 3.66582 0
M  V30 10157 H 986.622 -2.52872 6.2854 0
M  V30 10158 H 987.565 -1.17356 6.98307 0
M  V30 10159 H 987.973 -1.78913 5.35397 0
M  V30 10160 N 987.371 -1.57444 0.0701946 0
M  V30 10161 C 988.301 -2.15659 -0.895176 0
M  V30 10162 C 989.282 -1.08321 -1.31151 0
M  V30 10163 O 990.467 -1.36349 -1.38284 0
M  V30 10164 C 987.597 -2.71693 -2.16334 0
M  V30 10165 C 986.551 -3.84183 -1.88645 0
M  V30 10166 C 985.877 -4.26814 -3.22078 0
M  V30 10167 C 987.177 -5.08493 -1.19299 0
M  V30 10168 H 988.871 -2.96576 -0.410217 0
M  V30 10169 H 986.417 -1.42662 -0.195872 0
M  V30 10170 H 988.37 -3.11064 -2.84284 0
M  V30 10171 H 987.094 -1.87994 -2.67069 0
M  V30 10172 H 985.753 -3.45314 -1.23101 0
M  V30 10173 H 985.401 -3.40039 -3.70651 0
M  V30 10174 H 985.101 -5.02642 -3.04344 0
M  V30 10175 H 986.625 -4.68799 -3.91228 0
M  V30 10176 H 988.039 -5.4519 -1.77316 0
M  V30 10177 H 986.436 -5.89588 -1.11828 0
M  V30 10178 H 987.506 -4.84595 -0.171839 0
M  V30 10179 N 988.849 0.203349 -1.56283 0
M  V30 10180 C 989.779 1.2549 -1.96912 0
M  V30 10181 C 990.76 1.47919 -0.839884 0
M  V30 10182 O 991.945 1.59795 -1.10359 0
M  V30 10183 C 989.075 2.6009 -2.30153 0
M  V30 10184 C 988.029 2.52289 -3.45738 0
M  V30 10185 C 987.355 3.91086 -3.64632 0
M  V30 10186 C 988.655 2.05503 -4.80173 0
M  V30 10187 H 990.349 0.917306 -2.85002 0
M  V30 10188 H 987.895 0.439818 -1.37119 0
M  V30 10189 H 989.848 3.33829 -2.5717 0
M  V30 10190 H 988.572 2.95574 -1.38937 0
M  V30 10191 H 987.231 1.81006 -3.18798 0
M  V30 10192 H 986.879 4.23908 -2.7076 0
M  V30 10193 H 986.579 3.86742 -4.42385 0
M  V30 10194 H 988.103 4.66459 -3.94016 0
M  V30 10195 H 989.517 2.68995 -5.06275 0
M  V30 10196 H 987.914 2.1218 -5.61337 0
M  V30 10197 H 988.984 1.00793 -4.74309 0
M  V30 10198 N 990.327 1.50405 0.470755 0
M  V30 10199 C 991.555 1.65168 1.24608 0
M  V30 10200 C 991.97 0.335153 1.85801 0
M  V30 10201 O 991.327 -0.682919 1.69241 0
M  V30 10202 C 991.378 2.74305 2.35455 0
M  V30 10203 O 991.099 4.00854 1.76771 0
M  V30 10204 C 992.6 3.00044 3.26326 0
M  V30 10205 H 989.82 0.555186 0.376842 0
M  V30 10206 H 992.364 1.9663 0.56187 0
M  V30 10207 H 990.519 2.45536 2.99651 0
M  V30 10208 H 990.933 4.61211 2.49769 0
M  V30 10209 H 992.407 3.8007 4.00313 0
M  V30 10210 H 992.884 2.11128 3.85126 0
M  V30 10211 H 993.49 3.30345 2.67866 0
M  V30 10212 N 991.805 -0.723954 1.39988 0
M  V30 10213 C 993.035 -1.51094 1.40905 0
M  V30 10214 C 993.443 -1.89199 0.00476744 0
M  V30 10215 O 992.786 -1.55398 -0.979646 0
M  V30 10216 C 992.848 -2.82114 2.22827 0
M  V30 10217 C 992.512 -2.66379 3.71337 0
M  V30 10218 C 993.509 -2.34192 4.64166 0
M  V30 10219 C 991.194 -2.82905 4.15054 0
M  V30 10220 C 993.188 -2.18729 5.98696 0
M  V30 10221 C 990.875 -2.67059 5.49657 0
M  V30 10222 C 991.873 -2.35018 6.41292 0
M  V30 10223 O 991.561 -2.19284 7.73414 0
M  V30 10224 H 991.293 -0.473142 0.482818 0
M  V30 10225 H 993.847 -0.901321 1.84568 0
M  V30 10226 H 992.077 -3.45377 1.7393 0
M  V30 10227 H 993.766 -3.43789 2.15787 0
M  V30 10228 H 994.532 -2.21065 4.31689 0
M  V30 10229 H 990.411 -3.06834 3.44055 0
M  V30 10230 H 993.955 -1.93641 6.70186 0
M  V30 10231 H 989.852 -2.79768 5.81722 0
M  V30 10232 H 990.62 -2.34269 7.84258 0
M  V30 10233 N 993.283 -1.25346 -0.955304 0
M  V30 10234 C 994.23 -1.05672 -2.05188 0
M  V30 10235 C 995.2 0.0339217 -1.66065 0
M  V30 10236 O 996.385 -0.123126 -1.90402 0
M  V30 10237 C 993.525 -0.680791 -3.38318 0
M  V30 10238 C 992.638 -1.84622 -3.90562 0
M  V30 10239 C 991.773 -1.41471 -5.12015 0
M  V30 10240 C 990.812 -2.54931 -5.56486 0
M  V30 10241 N 989.949 -2.1256 -6.69151 0
M  V30 10242 H 994.789 -1.9952 -2.2135 0
M  V30 10243 H 992.326 -0.993588 -1.08472 0
M  V30 10244 H 994.284 -0.443794 -4.14833 0
M  V30 10245 H 992.914 0.2207 -3.22045 0
M  V30 10246 H 991.966 -2.19654 -3.10574 0
M  V30 10247 H 993.278 -2.6983 -4.19515 0
M  V30 10248 H 992.432 -1.13732 -5.95945 0
M  V30 10249 H 991.171 -0.533334 -4.84775 0
M  V30 10250 H 990.176 -2.83415 -4.71122 0
M  V30 10251 H 991.401 -3.43645 -5.85734 0
M  V30 10252 H 989.347 -1.26838 -6.43621 0
M  V30 10253 H 989.264 -2.91317 -6.97618 0
M  V30 10254 H 990.532 -1.87996 -7.5649 0
M  V30 10255 N 994.761 1.15782 -1.06922 0
M  V30 10256 C 995.986 1.90896 -0.810771 0
M  V30 10257 C 996.411 1.77246 0.629714 0
M  V30 10258 O 995.769 1.10215 1.43953 0
M  V30 10259 C 995.817 3.39397 -1.21829 0
M  V30 10260 O 994.921 4.10818 -0.360934 0
M  V30 10261 H 994.262 0.594497 -0.295752 0
M  V30 10262 H 996.792 1.46652 -1.42669 0
M  V30 10263 H 996.802 3.90181 -1.19259 0
M  V30 10264 H 995.477 3.4865 -2.2675 0
M  V30 10265 H 994.054 3.7019 -0.448748 0
M  V30 10266 N 996.239 0.8527 1.3254 0
M  V30 10267 C 997.488 0.45136 1.96585 0
M  V30 10268 C 997.801 -0.997773 1.68237 0
M  V30 10269 O 999.007 -1.50445 2.26006 0
M  V30 10270 C 997.463 0.75619 3.51866 0
M  V30 10271 C 997.071 2.22092 3.89075 0
M  V30 10272 C 998.815 0.422478 4.22392 0
M  V30 10273 C 996.722 2.46908 5.37392 0
M  V30 10274 H 995.652 0.165052 0.735713 0
M  V30 10275 H 998.303 1.04321 1.50962 0
M  V30 10276 H 996.685 0.0937988 3.95889 0
M  V30 10277 H 997.859 2.92494 3.56067 0
M  V30 10278 H 996.174 2.51896 3.31568 0
M  V30 10279 H 998.771 0.58533 5.31487 0
M  V30 10280 H 999.114 -0.635737 4.11417 0
M  V30 10281 H 999.647 1.04068 3.83946 0
M  V30 10282 H 996.386 3.51346 5.53386 0
M  V30 10283 H 995.906 1.81082 5.71812 0
M  V30 10284 H 997.585 2.30758 6.0445 0
M  V30 10285 N 997.718 -1.45297 0.610449 0
M  V30 10286 C 999.129 -1.85715 0.191488 0
M  V30 10287 C 999.48 -1.51036 -1.25229 0
M  V30 10288 O 998.605 -0.938422 -1.94994 0
M  V30 10289 C 999.2 -3.37082 0.340747 0
M  V30 10290 C 997.759 -3.76393 -0.0235433 0
M  V30 10291 C 996.906 -2.69237 0.663849 0
M  V30 10292 H 999.857 -1.36058 0.816948 0
M  V30 10293 H 999.878 -3.78105 -0.426233 0
M  V30 10294 H 999.39 -3.62291 1.39164 0
M  V30 10295 H 997.491 -3.56801 -1.07351 0
M  V30 10296 H 997.604 -4.77653 0.372102 0
M  V30 10297 H 995.968 -2.54499 0.101204 0
M  V30 10298 H 996.751 -2.97281 1.71694 0
M  V30 10299 N 999.196 -0.349774 -1.5367 0
M  V30 10300 C 1000.13 0.547309 -2.2154 0
M  V30 10301 C 1001.11 1.09543 -1.20163 0
M  V30 10302 O 1002.29 1.15453 -1.49006 0
M  V30 10303 C 999.418 1.75356 -2.89772 0
M  V30 10304 C 998.464 1.33433 -4.0509 0
M  V30 10305 S 999.297 0.348891 -5.34362 0
M  V30 10306 C 1000.45 1.56183 -6.061 0
M  V30 10307 H 1000.69 -0.0291392 -2.97286 0
M  V30 10308 H 998.219 -0.133853 -1.53819 0
M  V30 10309 H 1000.18 2.44555 -3.29701 0
M  V30 10310 H 998.838 2.30123 -2.1378 0
M  V30 10311 H 998.031 2.23388 -4.5179 0
M  V30 10312 H 997.633 0.721746 -3.6697 0
M  V30 10313 H 999.925 2.49535 -6.29872 0
M  V30 10314 H 1000.87 1.13651 -6.9892 0
M  V30 10315 H 1001.28 1.76071 -5.36339 0
M  V30 10316 N 1000.67 1.57404 -0.0785433 0
M  V30 10317 C 1001.61 2.101 0.916013 0
M  V30 10318 C 1002.62 1.03459 1.25698 0
M  V30 10319 O 1003.81 1.30954 1.21299 0
M  V30 10320 C 1000.91 2.55202 2.22992 0
M  V30 10321 C 1000.08 3.85491 2.06678 0
M  V30 10322 C 999.14 4.16614 3.21433 0
M  V30 10323 O 998.166 4.86105 2.96126 0
M  V30 10324 N 999.368 3.70697 4.46726 0
M  V30 10325 H 1002.13 2.96054 0.466059 0
M  V30 10326 H 999.694 1.61546 0.107006 0
M  V30 10327 H 1001.69 2.7308 2.9868 0
M  V30 10328 H 1000.26 1.74348 2.59464 0
M  V30 10329 H 999.476 3.76925 1.15417 0
M  V30 10330 H 1000.76 4.70759 1.93036 0
M  V30 10331 H 1000.16 3.14571 4.70172 0
M  V30 10332 H 998.719 3.93762 5.19418 0
M  V30 10333 N 1002.15 -0.195058 1.56388 0
M  V30 10334 C 1003.4 -0.9168 1.80894 0
M  V30 10335 C 1003.73 -1.82907 0.652592 0
M  V30 10336 O 1003.01 -1.91382 -0.346853 0
M  V30 10337 C 1003.29 -1.733 3.15657 0
M  V30 10338 C 1003.14 -0.845449 4.41783 0
M  V30 10339 C 1004.46 -2.70557 3.47112 0
M  V30 10340 H 1001.58 -0.331861 0.658056 0
M  V30 10341 H 1004.22 -0.184174 1.89105 0
M  V30 10342 H 1002.37 -2.3576 3.08787 0
M  V30 10343 H 1004.04 -0.235557 4.60698 0
M  V30 10344 H 1002.29 -0.152172 4.33533 0
M  V30 10345 H 1002.96 -1.45152 5.32574 0
M  V30 10346 H 1005.43 -2.1823 3.54281 0
M  V30 10347 H 1004.31 -3.24749 4.42526 0
M  V30 10348 H 1004.57 -3.49605 2.70608 0
M  V30 10349 N 1003.63 -1.50653 -0.462772 0
M  V30 10350 C 1004.91 -1.5258 -1.22387 0
M  V30 10351 C 1005.29 -0.275263 -2.09298 0
M  V30 10352 O 1004.63 0.740943 -2.16153 0
M  V30 10353 C 1004.84 -2.82611 -2.04773 0
M  V30 10354 C 1006.19 -3.33592 -2.62681 0
M  V30 10355 O 1007.22 -2.83989 -2.15008 0
M  V30 10356 O 1006.08 -4.20081 -3.49563 0
M  V30 10357 H 1003.17 -0.612367 -0.55582 0
M  V30 10358 H 1005.72 -1.62948 -0.473914 0
M  V30 10359 H 1004.49 -3.65098 -1.40781 0
M  V30 10360 H 1004.11 -2.75286 -2.86886 0
M  V30 10361 N 1005.11 0.71652 -1.4037 0
M  V30 10362 C 1006.36 1.47347 -1.38324 0
M  V30 10363 C 1006.68 1.94995 0.0139949 0
M  V30 10364 O 1005.95 1.7028 0.968585 0
M  V30 10365 H 1004.53 0.546662 -0.509087 0
M  V30 10366 H 1007.19 0.849455 -1.75415 0
M  V30 10367 H 1006.29 2.34675 -2.05752 0
M  V30 10368 N 1006.59 1.25851 0.948643 0
M  V30 10369 C 1007.5 1.08516 2.07994 0
M  V30 10370 C 1008.51 0.0206696 1.73988 0
M  V30 10371 O 1009.69 0.222854 2.00163 0
M  V30 10372 C 1006.75 0.712145 3.39307 0
M  V30 10373 C 1005.81 1.85523 3.87143 0
M  V30 10374 C 1005.05 1.49992 5.1219 0
M  V30 10375 O 1005.27 0.398268 5.69008 0
M  V30 10376 O 1004.2 2.33215 5.54882 0
M  V30 10377 H 1008.03 2.03405 2.25522 0
M  V30 10378 H 1005.62 1.04844 1.06433 0
M  V30 10379 H 1007.5 0.516512 4.18223 0
M  V30 10380 H 1006.17 -0.207416 3.23035 0
M  V30 10381 H 1005.08 2.10578 3.09205 0
M  V30 10382 H 1006.41 2.75425 4.07924 0
M  V30 10383 N 1008.06 -1.15214 1.07534 0
M  V30 10384 C 1009.48 -1.67628 0.822045 0
M  V30 10385 C 1009.83 -1.8503 -0.652571 0
M  V30 10386 O 1008.95 -1.55497 -1.50498 0
M  V30 10387 C 1009.55 -3.04489 1.48566 0
M  V30 10388 C 1008.11 -3.53974 1.27983 0
M  V30 10389 C 1007.25 -2.29656 1.55414 0
M  V30 10390 H 1010.2 -0.994016 1.23713 0
M  V30 10391 H 1010.22 -3.69509 0.907916 0
M  V30 10392 H 1009.74 -2.91792 2.55888 0
M  V30 10393 H 1007.84 -3.71908 0.226906 0
M  V30 10394 H 1007.95 -4.35298 2.0013 0
M  V30 10395 H 1006.31 -2.35289 0.975251 0
M  V30 10396 H 1007.1 -2.19544 2.63923 0
M  V30 10397 N 1009.54 -0.859717 -1.32086 0
M  V30 10398 C 1010.78 -0.471939 -1.98877 0
M  V30 10399 C 1011.15 0.955689 -1.66525 0
M  V30 10400 O 1012.35 1.44829 -2.26447 0
M  V30 10401 C 1010.62 -0.710016 -3.50276 0
M  V30 10402 S 1012.18 -0.420566 -4.3678 0
M  V30 10403 H 1009 -0.176588 -0.688722 0
M  V30 10404 H 1011.6 -1.11352 -1.60689 0
M  V30 10405 H 1010.3 -1.74803 -3.71311 0
M  V30 10406 H 1009.83 -0.0550429 -3.93361 0
M  V30 10407 H 1011.85 0.751362 -4.90478 0
M  V30 10408 N 1011.02 1.44971 -0.618145 0
M  V30 10409 C 1012.44 1.57077 -0.282666 0
M  V30 10410 C 1012.64 1.60782 1.21456 0
M  V30 10411 O 1011.69 1.54382 1.99806 0
M  V30 10412 C 1013.01 2.84858 -0.963148 0
M  V30 10413 C 1014.55 2.9855 -0.940062 0
M  V30 10414 C 1015.03 4.29115 -1.60076 0
M  V30 10415 N 1016.52 4.35899 -1.56674 0
M  V30 10416 C 1017.25 5.35617 -2.04701 0
M  V30 10417 N 1016.75 6.41813 -2.6086 0
M  V30 10418 N 1018.54 5.27042 -1.95406 0
M  V30 10419 H 1010.69 1.4081 -1.59017 0
M  V30 10420 H 1012.96 0.673914 -0.666741 0
M  V30 10421 H 1012.66 2.88059 -2.0178 0
M  V30 10422 H 1012.54 3.73966 -0.492901 0
M  V30 10423 H 1014.92 2.94909 0.10607 0
M  V30 10424 H 1015.01 2.10825 -1.44868 0
M  V30 10425 H 1014.65 4.33514 -2.64627 0
M  V30 10426 H 1014.58 5.15675 -1.06708 0
M  V30 10427 H 1017.07 3.59766 -1.15659 0
M  V30 10428 H 1017.38 7.14166 -2.95273 0
M  V30 10429 H 1015.73 6.42534 -2.64905 0
M  V30 10430 H 1018.92 4.42987 -1.51263 0
M  V30 10431 H 1019.09 6.04604 -2.33147 0
M  V30 10432 N 1012.5 0.357919 1.53482 0
M  V30 10433 C 1013.43 -0.484231 2.28424 0
M  V30 10434 C 1014.41 -1.09046 1.30548 0
M  V30 10435 O 1015.59 -1.10916 1.59409 0
M  V30 10436 C 1012.72 -1.62803 3.06778 0
M  V30 10437 C 1011.68 -1.14943 4.12277 0
M  V30 10438 C 1011 -2.38287 4.78669 0
M  V30 10439 C 1012.3 -0.239627 5.2175 0
M  V30 10440 H 1014 0.140979 2.99068 0
M  V30 10441 H 1011.54 0.069244 1.43833 0
M  V30 10442 H 1013.5 -2.22374 3.57949 0
M  V30 10443 H 1012.22 -2.28036 2.3381 0
M  V30 10444 H 1010.88 -0.576442 3.6204 0
M  V30 10445 H 1010.53 -3.01959 4.02281 0
M  V30 10446 H 1010.23 -2.06939 5.49955 0
M  V30 10447 H 1011.75 -2.98558 5.32631 0
M  V30 10448 H 1013.17 -0.742597 5.6847 0
M  V30 10449 H 1011.56 -0.0173747 6.00097 0
M  V30 10450 H 1012.63 0.720333 4.7952 0
M  V30 10451 N 1013.98 -1.5736 0.0868897 0
M  V30 10452 C 1014.94 -2.12436 -0.860439 0
M  V30 10453 C 1015.94 -1.05175 -1.21634 0
M  V30 10454 O 1017.13 -1.31098 -1.14713 0
M  V30 10455 C 1014.26 -2.63818 -2.159 0
M  V30 10456 H 1015.45 -2.97453 -0.382346 0
M  V30 10457 H 1013.01 -1.55458 -0.162009 0
M  V30 10458 H 1013.74 -1.82298 -2.68212 0
M  V30 10459 H 1013.53 -3.42234 -1.91359 0
M  V30 10460 H 1015.02 -3.06452 -2.83685 0
M  V30 10461 N 1015.45 0.186762 -1.56489 0
M  V30 10462 C 1016.87 0.750675 -1.70944 0
M  V30 10463 C 1017.22 1.83483 -0.694858 0
M  V30 10464 O 1016.34 2.159 0.147009 0
M  V30 10465 C 1016.94 1.36843 -3.09934 0
M  V30 10466 C 1015.5 1.87934 -3.26125 0
M  V30 10467 C 1014.64 0.75242 -2.66897 0
M  V30 10468 H 1017.59 -0.0384292 -1.58653 0
M  V30 10469 H 1017.61 2.23795 -3.07727 0
M  V30 10470 H 1017.13 0.579135 -3.83755 0
M  V30 10471 H 1015.23 2.69556 -2.57235 0
M  V30 10472 H 1015.34 2.0354 -4.33715 0
M  V30 10473 H 1013.7 1.16888 -2.26295 0
M  V30 10474 H 1014.49 -0.0247769 -3.43291 0
M  V30 10475 N 1016.93 1.50896 0.454776 0
M  V30 10476 C 1017.9 1.70377 1.53312 0
M  V30 10477 C 1018.9 0.57408 1.50203 0
M  V30 10478 O 1020.09 0.841374 1.52534 0
M  V30 10479 C 1017.22 1.74411 2.92905 0
M  V30 10480 H 1018.41 2.66599 1.37349 0
M  V30 10481 H 1015.96 1.40622 0.68228 0
M  V30 10482 H 1016.7 0.799408 3.14293 0
M  V30 10483 H 1016.48 2.56496 2.96568 0
M  V30 10484 H 1017.97 1.91382 3.71164 0
M  V30 10485 N 1018.41 -0.709066 1.40748 0
M  V30 10486 C 1019.34 -1.83293 1.35937 0
M  V30 10487 C 1020.32 -1.60983 0.22871 0
M  V30 10488 O 1021.51 -1.8391 0.413435 0
M  V30 10489 C 1018.63 -3.19746 1.11714 0
M  V30 10490 C 1017.68 -3.60872 2.27319 0
M  V30 10491 S 1018.51 -3.67233 3.89743 0
M  V30 10492 C 1019.67 -5.06434 3.67797 0
M  V30 10493 H 1019.9 -1.87095 2.31047 0
M  V30 10494 H 1017.43 -0.876479 1.27111 0
M  V30 10495 H 1019.39 -3.98526 0.984245 0
M  V30 10496 H 1018.05 -3.1357 0.182472 0
M  V30 10497 H 1017.25 -4.59965 2.06029 0
M  V30 10498 H 1016.85 -2.89366 2.36946 0
M  V30 10499 H 1019.14 -5.93544 3.26668 0
M  V30 10500 H 1020.08 -5.32761 4.66445 0
M  V30 10501 H 1020.49 -4.77336 3.01348 0
M  V30 10502 N 1019.89 -1.26353 -0.941956 0
M  V30 10503 C 1021.14 -1.11241 -1.68251 0
M  V30 10504 C 1021.45 0.344055 -1.9255 0
M  V30 10505 O 1022.66 0.615832 -2.64423 0
M  V30 10506 C 1021.11 -1.94269 -3.02965 0
M  V30 10507 C 1020.72 -3.44485 -2.86415 0
M  V30 10508 C 1022.47 -1.87764 -3.80716 0
M  V30 10509 C 1020.37 -4.19763 -4.16597 0
M  V30 10510 H 1019.3 -0.412694 -0.63103 0
M  V30 10511 H 1021.95 -1.50656 -1.04762 0
M  V30 10512 H 1020.34 -1.47687 -3.6743 0
M  V30 10513 H 1021.51 -3.9883 -2.30805 0
M  V30 10514 H 1019.82 -3.52218 -2.22107 0
M  V30 10515 H 1022.42 -2.41292 -4.77161 0
M  V30 10516 H 1022.76 -0.848195 -4.07568 0
M  V30 10517 H 1023.3 -2.32165 -3.23024 0
M  V30 10518 H 1020.04 -5.23173 -3.9493 0
M  V30 10519 H 1019.56 -3.70198 -4.71925 0
M  V30 10520 H 1021.24 -4.28168 -4.85058 0
M  V30 10521 N 1021.37 1.14642 -1.08144 0
M  V30 10522 C 1022.78 1.37604 -0.808537 0
M  V30 10523 C 1022.98 1.92868 0.583452 0
M  V30 10524 O 1022.04 2.13964 1.34073 0
M  V30 10525 C 1023.35 2.3396 -1.889 0
M  V30 10526 C 1024.9 2.47605 -1.9147 0
M  V30 10527 C 1025.38 3.47258 -2.98623 0
M  V30 10528 N 1026.87 3.548 -2.97777 0
M  V30 10529 C 1027.6 4.31751 -3.77331 0
M  V30 10530 N 1027.1 5.11966 -4.66757 0
M  V30 10531 N 1028.89 4.2692 -3.65645 0
M  V30 10532 H 1021.04 0.771154 -1.97906 0
M  V30 10533 H 1023.3 0.401694 -0.858688 0
M  V30 10534 H 1023.01 2.00484 -2.88962 0
M  V30 10535 H 1022.88 3.33833 -1.756 0
M  V30 10536 H 1025.27 2.80375 -0.920548 0
M  V30 10537 H 1025.35 1.47702 -2.08848 0
M  V30 10538 H 1025 3.15223 -3.98243 0
M  V30 10539 H 1024.93 4.46935 -2.7849 0
M  V30 10540 H 1027.42 2.97553 -2.3296 0
M  V30 10541 H 1027.73 5.67951 -5.24072 0
M  V30 10542 H 1026.08 5.11245 -4.70801 0
M  V30 10543 H 1029.27 3.63322 -2.95152 0
M  V30 10544 H 1029.44 4.8664 -4.27885 0
M  V30 10545 N 1022.85 0.866709 1.31628 0
M  V30 10546 C 1024.09 0.472185 1.96095 0
M  V30 10547 C 1024.41 -0.979873 1.69286 0
M  V30 10548 O 1025.61 -1.48039 2.27589 0
M  V30 10549 C 1024.07 0.793468 3.51044 0
M  V30 10550 C 1023.68 2.26206 3.86697 0
M  V30 10551 C 1025.42 0.467255 4.21921 0
M  V30 10552 C 1023.33 2.52593 5.34743 0
M  V30 10553 H 1022.26 0.172846 0.733921 0
M  V30 10554 H 1024.91 1.05916 1.49847 0
M  V30 10555 H 1023.29 0.135783 3.95767 0
M  V30 10556 H 1024.47 2.96254 3.52945 0
M  V30 10557 H 1022.78 2.55399 3.28877 0
M  V30 10558 H 1025.38 0.641669 5.30836 0
M  V30 10559 H 1025.72 -0.592065 4.12068 0
M  V30 10560 H 1026.25 1.08134 3.82821 0
M  V30 10561 H 1022.99 3.57196 5.49628 0
M  V30 10562 H 1022.51 1.87136 5.6986 0
M  V30 10563 H 1024.19 2.37156 6.01968 0
M  V30 10564 N 1024.32 -1.44642 0.625825 0
M  V30 10565 C 1025.55 -2.06971 0.133373 0
M  V30 10566 C 1025.97 -1.46421 -1.18078 0
M  V30 10567 O 1025.33 -0.563676 -1.72315 0
M  V30 10568 C 1025.38 -3.6059 0.0265097 0
M  V30 10569 O 1024.48 -3.99615 -1.01889 0
M  V30 10570 H 1023.82 -0.658873 0.0823568 0
M  V30 10571 H 1026.35 -1.85601 0.861002 0
M  V30 10572 H 1026.36 -4.07663 -0.1658 0
M  V30 10573 H 1025.04 -4.04043 0.985986 0
M  V30 10574 H 1023.62 -3.64183 -0.801577 0
M  V30 10575 N 1025.8 -0.366053 -1.5329 0
M  V30 10576 C 1026.73 0.47211 -2.28677 0
M  V30 10577 C 1027.71 1.08353 -1.31125 0
M  V30 10578 O 1028.9 1.10069 -1.59995 0
M  V30 10579 C 1026.03 1.61174 -3.07637 0
M  V30 10580 C 1024.98 1.12755 -4.12881 0
M  V30 10581 C 1024.31 2.35745 -4.79925 0
M  V30 10582 C 1025.61 0.211954 -5.2187 0
M  V30 10583 H 1027.3 -0.156838 -2.98989 0
M  V30 10584 H 1024.85 -0.0768709 -1.43795 0
M  V30 10585 H 1026.8 2.20473 -3.59123 0
M  V30 10586 H 1025.52 2.26793 -2.35016 0
M  V30 10587 H 1024.18 0.557234 -3.6234 0
M  V30 10588 H 1023.83 2.99821 -4.03877 0
M  V30 10589 H 1023.53 2.04019 -5.51044 0
M  V30 10590 H 1025.06 2.95729 -5.34207 0
M  V30 10591 H 1026.47 0.71244 -5.68856 0
M  V30 10592 H 1024.87 -0.0144501 -6.00098 0
M  V30 10593 H 1025.94 -0.745753 -4.79131 0
M  V30 10594 N 1027.28 1.57312 -0.0952337 0
M  V30 10595 C 1028.7 1.57445 0.261416 0
M  V30 10596 C 1028.9 1.10639 1.68408 0
M  V30 10597 O 1027.95 0.782912 2.40056 0
M  V30 10598 C 1029.26 3.00659 0.0497206 0
M  V30 10599 C 1030.81 3.1278 0.117459 0
M  V30 10600 C 1031.29 4.57952 -0.0662441 0
M  V30 10601 N 1032.78 4.63199 -0.0114146 0
M  V30 10602 C 1033.51 5.73255 -0.128799 0
M  V30 10603 N 1033.01 6.92146 -0.301026 0
M  V30 10604 N 1034.8 5.62056 -0.0700599 0
M  V30 10605 H 1026.95 1.86045 -1.02475 0
M  V30 10606 H 1029.22 0.858726 -0.401614 0
M  V30 10607 H 1028.92 3.39102 -0.932888 0
M  V30 10608 H 1028.8 3.68792 0.791975 0
M  V30 10609 H 1031.18 2.74209 1.09057 0
M  V30 10610 H 1031.26 2.47238 -0.656288 0
M  V30 10611 H 1030.91 4.97217 -1.03623 0
M  V30 10612 H 1030.84 5.21555 0.727198 0
M  V30 10613 H 1033.33 3.77712 0.119154 0
M  V30 10614 H 1033.64 7.71855 -0.382104 0
M  V30 10615 H 1031.99 6.94184 -0.336695 0
M  V30 10616 H 1035.18 4.68057 0.0633587 0
M  V30 10617 H 1035.35 6.4779 -0.164991 0
M  V30 10618 N 1028.76 -0.17846 1.56586 0
M  V30 10619 C 1029.71 -1.24042 1.96765 0
M  V30 10620 C 1030.7 -1.46218 0.855375 0
M  V30 10621 O 1031.91 -1.46882 1.04046 0
M  V30 10622 H 1028.28 -0.416807 0.62592 0
M  V30 10623 H 1030.25 -0.874644 2.85294 0
M  V30 10624 C 1029 -2.57394 2.3376 0
M  V30 10625 H 1028.32 -2.41151 3.18883 0
M  V30 10626 H 1029.76 -3.30405 2.65723 0
M  V30 10627 C 1028.22 -3.15621 1.17835 0
M  V30 10628 O 1028.75 -3.99032 0.462202 0
M  V30 10629 N 1026.96 -2.74606 0.950783 0
M  V30 10630 H 1026.51 -2.06878 1.5349 0
M  V30 10631 H 1026.46 -3.13902 0.176967 0
M  V30 10632 N 1030.24 -1.51135 -0.446768 0
M  V30 10633 C 1031.17 -1.67949 -1.55967 0
M  V30 10634 C 1032.18 -0.560337 -1.52853 0
M  V30 10635 O 1033.37 -0.83435 -1.578 0
M  V30 10636 C 1030.47 -1.6703 -2.9488 0
M  V30 10637 C 1029.64 -2.95377 -3.22601 0
M  V30 10638 C 1028.7 -2.86772 -4.4119 0
M  V30 10639 O 1027.73 -3.60722 -4.40304 0
M  V30 10640 N 1028.93 -2.01979 -5.44228 0
M  V30 10641 H 1031.69 -2.63951 -1.41951 0
M  V30 10642 H 1029.26 -1.48903 -0.635569 0
M  V30 10643 H 1031.25 -1.58854 -3.7222 0
M  V30 10644 H 1029.82 -0.786623 -3.02541 0
M  V30 10645 H 1029.04 -3.17494 -2.33647 0
M  V30 10646 H 1030.33 -3.80356 -3.37945 0
M  V30 10647 H 1029.72 -1.41257 -5.4778 0
M  V30 10648 H 1028.28 -1.99689 -6.20457 0
M  V30 10649 N 1031.71 0.701592 -1.41122 0
M  V30 10650 C 1032.68 1.79733 -1.42227 0
M  V30 10651 C 1033.68 1.57708 -0.313831 0
M  V30 10652 O 1034.87 1.64492 -0.573423 0
M  V30 10653 C 1032 3.18024 -1.22775 0
M  V30 10654 H 1033.19 1.80148 -2.39764 0
M  V30 10655 H 1030.74 0.908624 -1.27176 0
M  V30 10656 H 1031.48 3.23252 -0.260552 0
M  V30 10657 H 1031.26 3.35411 -2.0308 0
M  V30 10658 H 1032.75 3.98021 -1.2637 0
M  V30 10659 N 1033.19 1.2685 0.935242 0
M  V30 10660 C 1034.14 1.08746 2.05614 0
M  V30 10661 C 1035.13 0.012681 1.69395 0
M  V30 10662 O 1036.34 0.169822 1.79197 0
M  V30 10663 H 1032.71 0.33485 0.673335 0
M  V30 10664 H 1034.69 2.03725 2.18033 0
M  V30 10665 C 1033.43 0.74346 3.39659 0
M  V30 10666 H 1032.76 1.56236 3.68008 0
M  V30 10667 H 1034.2 0.656607 4.18885 0
M  V30 10668 C 1032.66 -0.551751 3.32351 0
M  V30 10669 O 1033.19 -1.58836 3.68963 0
M  V30 10670 N 1031.39 -0.544583 2.85452 0
M  V30 10671 H 1030.94 0.29939 2.55854 0
M  V30 10672 H 1030.9 -1.41129 2.80945 0
M  V30 10673 N 1034.67 -1.14067 1.0875 0
M  V30 10674 C 1035.6 -2.18306 0.664652 0
M  V30 10675 C 1036.58 -1.59312 -0.325359 0
M  V30 10676 O 1037.77 -1.87111 -0.228385 0
M  V30 10677 C 1034.89 -3.38693 -0.0218723 0
M  V30 10678 C 1033.94 -4.16263 0.928844 0
M  V30 10679 S 1034.77 -4.76817 2.43734 0
M  V30 10680 C 1035.93 -6.00557 1.76302 0
M  V30 10681 H 1036.16 -2.53837 1.54772 0
M  V30 10682 H 1033.69 -1.25254 0.902817 0
M  V30 10683 H 1035.65 -4.0843 -0.411686 0
M  V30 10684 H 1034.31 -3.01478 -0.881481 0
M  V30 10685 H 1033.51 -5.02446 0.395446 0
M  V30 10686 H 1033.11 -3.52146 1.25972 0
M  V30 10687 H 1035.4 -6.68788 1.08301 0
M  V30 10688 H 1036.34 -6.58492 2.60373 0
M  V30 10689 H 1036.75 -5.50827 1.23489 0
M  V30 10690 N 1036.15 -0.873678 -1.31166 0
M  V30 10691 C 1037.39 -0.487178 -1.96861 0
M  V30 10692 C 1037.73 0.95887 -1.68877 0
M  V30 10693 O 1037 1.6758 -0.987279 0
M  V30 10694 C 1037.29 -0.74925 -3.52219 0
M  V30 10695 C 1037.14 -2.2451 -3.89763 0
M  V30 10696 C 1038.46 -0.218194 -4.39559 0
M  V30 10697 H 1035.58 -0.178477 -0.715063 0
M  V30 10698 H 1038.22 -1.0956 -1.55231 0
M  V30 10699 H 1036.37 -0.231403 -3.8781 0
M  V30 10700 H 1038.04 -2.83049 -3.64254 0
M  V30 10701 H 1036.28 -2.71621 -3.38237 0
M  V30 10702 H 1036.95 -2.37911 -4.98099 0
M  V30 10703 H 1039.43 -0.661274 -4.10812 0
M  V30 10704 H 1038.31 -0.430983 -5.47205 0
M  V30 10705 H 1038.57 0.880056 -4.33252 0
M  V30 10706 N 1037.63 1.44308 -0.633487 0
M  V30 10707 C 1038.56 2.28943 0.108474 0
M  V30 10708 C 1039.57 1.41415 0.806582 0
M  V30 10709 O 1040.76 1.65544 0.667634 0
M  V30 10710 C 1037.86 3.17845 1.1759 0
M  V30 10711 C 1037.03 4.33802 0.559842 0
M  V30 10712 C 1036.09 5.03722 1.52154 0
M  V30 10713 O 1035.12 5.5966 1.03776 0
M  V30 10714 N 1036.32 5.05392 2.85586 0
M  V30 10715 H 1039.09 2.93262 -0.617879 0
M  V30 10716 H 1036.65 1.54781 -0.474819 0
M  V30 10717 H 1038.64 3.61485 1.81963 0
M  V30 10718 H 1037.21 2.55261 1.80445 0
M  V30 10719 H 1036.43 3.93325 -0.262559 0
M  V30 10720 H 1037.72 5.08637 0.128942 0
M  V30 10721 H 1037.11 4.61282 3.27468 0
M  V30 10722 H 1035.67 5.52813 3.45313 0
M  V30 10723 N 1039.1 0.374177 1.53094 0
M  V30 10724 C 1040.05 -0.468226 2.26001 0
M  V30 10725 C 1041.02 -1.07041 1.27009 0
M  V30 10726 O 1042.21 -1.10129 1.55809 0
M  V30 10727 C 1039.35 -1.59754 3.05896 0
M  V30 10728 C 1038.46 -1.01969 4.19793 0
M  V30 10729 C 1037.59 -2.11882 4.87113 0
M  V30 10730 C 1036.63 -1.51607 5.93028 0
M  V30 10731 N 1035.77 -2.55388 6.54004 0
M  V30 10732 H 1040.61 0.159983 2.9757 0
M  V30 10733 H 1038.15 0.0907196 1.4682 0
M  V30 10734 H 1040.11 -2.26288 3.50499 0
M  V30 10735 H 1038.74 -2.19628 2.36565 0
M  V30 10736 H 1037.79 -0.244386 3.79614 0
M  V30 10737 H 1039.1 -0.539089 4.95878 0
M  V30 10738 H 1038.25 -2.86218 5.34943 0
M  V30 10739 H 1036.99 -2.63297 4.10519 0
M  V30 10740 H 1036 -0.757891 5.44551 0
M  V30 10741 H 1037.22 -1.01006 6.71546 0
M  V30 10742 H 1035.17 -3.06 5.80258 0
M  V30 10743 H 1035.09 -2.12039 7.25655 0
M  V30 10744 H 1036.35 -3.294 7.06481 0
M  V30 10745 N 1040.58 -1.57259 0.103575 0
M  V30 10746 C 1041.81 -1.99424 -0.569638 0
M  V30 10747 C 1042.23 -0.982475 -1.60403 0
M  V30 10748 O 1041.59 0.0479231 -1.81237 0
M  V30 10749 C 1041.64 -3.40527 -1.18633 0
M  V30 10750 O 1040.74 -3.42167 -2.30208 0
M  V30 10751 H 1040.08 -0.648251 -0.143759 0
M  V30 10752 H 1042.61 -2.03739 0.187493 0
M  V30 10753 H 1042.62 -3.78404 -1.5256 0
M  V30 10754 H 1041.3 -4.13686 -0.428582 0
M  V30 10755 H 1039.88 -3.16093 -1.97837 0
M  V30 10756 N 1042.06 0.170153 -1.56679 0
M  V30 10757 C 1043.01 1.21064 -1.965 0
M  V30 10758 C 1043.98 1.43928 -0.829092 0
M  V30 10759 O 1045.16 1.56649 -1.08931 0
M  V30 10760 C 1042.3 2.54468 -2.33109 0
M  V30 10761 C 1041.42 2.38974 -3.59883 0
M  V30 10762 C 1040.55 3.65252 -3.857 0
M  V30 10763 C 1039.59 3.44696 -5.05817 0
M  V30 10764 N 1038.73 4.63047 -5.27761 0
M  V30 10765 H 1043.57 0.864055 -2.85198 0
M  V30 10766 H 1041.1 0.415243 -1.41117 0
M  V30 10767 H 1043.06 3.32222 -2.52358 0
M  V30 10768 H 1041.69 2.8712 -1.4752 0
M  V30 10769 H 1040.74 1.5239 -3.48542 0
M  V30 10770 H 1042.06 2.19731 -4.47794 0
M  V30 10771 H 1041.21 4.51441 -4.05322 0
M  V30 10772 H 1039.95 3.87475 -2.96166 0
M  V30 10773 H 1038.95 2.56893 -4.86092 0
M  V30 10774 H 1040.18 3.23894 -5.96883 0
M  V30 10775 H 1038.12 4.85487 -4.41179 0
M  V30 10776 H 1038.04 4.46722 -6.09898 0
M  V30 10777 H 1039.31 5.50516 -5.51863 0
M  V30 10778 N 1043.54 1.5137 0.438746 0
M  V30 10779 C 1044.95 1.39514 0.775116 0
M  V30 10780 C 1045.15 0.47638 1.95788 0
M  V30 10781 O 1044.21 -0.0689832 2.52406 0
M  V30 10782 C 1045.52 2.81517 1.05681 0
M  V30 10783 C 1047.07 2.90658 1.16133 0
M  V30 10784 C 1047.55 4.33566 1.47597 0
M  V30 10785 N 1049.04 4.36665 1.54524 0
M  V30 10786 C 1049.77 5.4427 1.80438 0
M  V30 10787 N 1049.27 6.62037 2.04154 0
M  V30 10788 N 1051.06 5.31749 1.82208 0
M  V30 10789 H 1043.21 2.09657 -0.340237 0
M  V30 10790 H 1045.48 0.943736 -0.0898115 0
M  V30 10791 H 1045.18 3.50734 0.260441 0
M  V30 10792 H 1045.06 3.20757 1.98481 0
M  V30 10793 H 1047.44 2.2164 1.94833 0
M  V30 10794 H 1047.52 2.54917 0.212376 0
M  V30 10795 H 1047.17 5.03133 0.694251 0
M  V30 10796 H 1047.1 4.66819 2.43696 0
M  V30 10797 H 1049.59 3.51761 1.38105 0
M  V30 10798 H 1049.9 7.39838 2.23293 0
M  V30 10799 H 1048.25 6.65155 2.01479 0
M  V30 10800 H 1051.44 4.3873 1.63198 0
M  V30 10801 H 1051.61 6.15689 2.02067 0
M  V30 10802 N 1045.02 -0.694098 1.41492 0
M  V30 10803 C 1046.43 -1.00487 1.23994 0
M  V30 10804 C 1046.63 -2.01078 0.130346 0
M  V30 10805 O 1045.69 -2.47403 -0.504775 0
M  V30 10806 C 1047 -1.52808 2.58979 0
M  V30 10807 C 1048.55 -1.64684 2.66173 0
M  V30 10808 C 1049.02 -2.20406 4.01479 0
M  V30 10809 N 1050.52 -2.27765 4.03333 0
M  V30 10810 C 1051.25 -2.7191 5.04829 0
M  V30 10811 N 1050.75 -3.1565 6.16714 0
M  V30 10812 N 1052.54 -2.71487 4.9219 0
M  V30 10813 H 1044.69 -0.027746 2.12382 0
M  V30 10814 H 1046.95 -0.0748741 0.945039 0
M  V30 10815 H 1046.66 -0.863519 3.40934 0
M  V30 10816 H 1046.53 -2.50998 2.81566 0
M  V30 10817 H 1048.92 -2.30251 1.84576 0
M  V30 10818 H 1049 -0.65035 2.47395 0
M  V30 10819 H 1048.65 -1.55454 4.83525 0
M  V30 10820 H 1048.58 -3.2081 4.17599 0
M  V30 10821 H 1051.07 -1.96899 3.22551 0
M  V30 10822 H 1051.38 -3.47966 6.90029 0
M  V30 10823 H 1049.72 -3.13555 6.20248 0
M  V30 10824 H 1052.92 -2.36666 4.03865 0
M  V30 10825 H 1053.09 -3.05573 5.71427 0
M  V30 10826 N 1046.49 -1.27344 -0.928501 0
M  V30 10827 C 1047.72 -1.16447 -1.7102 0
M  V30 10828 C 1048.14 0.278799 -1.8673 0
M  V30 10829 O 1047.49 1.18989 -1.38376 0
M  V30 10830 C 1047.55 -1.84242 -3.11026 0
M  V30 10831 O 1047.27 -3.2293 -2.96054 0
M  V30 10832 C 1048.77 -1.7946 -4.05351 0
M  V30 10833 H 1045.99 -0.404898 -0.535069 0
M  V30 10834 H 1048.53 -1.68201 -1.16313 0
M  V30 10835 H 1046.69 -1.36395 -3.62595 0
M  V30 10836 H 1047.1 -3.5667 -3.8456 0
M  V30 10837 H 1048.57 -2.31511 -5.01105 0
M  V30 10838 H 1049.05 -0.763771 -4.32508 0
M  V30 10839 H 1049.66 -2.26918 -3.59706 0
M  V30 10840 N 1047.97 1.13488 -1.09353 0
M  V30 10841 C 1049.2 1.89133 -0.85108 0
M  V30 10842 C 1049.62 1.78542 0.591976 0
M  V30 10843 O 1048.98 1.13243 1.41583 0
M  V30 10844 C 1049.03 3.36736 -1.29001 0
M  V30 10845 O 1048.13 4.09959 -0.447993 0
M  V30 10846 H 1047.47 0.58809 -0.308296 0
M  V30 10847 H 1050 1.43593 -1.45747 0
M  V30 10848 H 1050.01 3.87564 -1.27508 0
M  V30 10849 H 1048.69 3.43762 -2.34095 0
M  V30 10850 H 1047.27 3.69155 -0.52717 0
M  V30 10851 N 1049.45 0.880621 1.30701 0
M  V30 10852 C 1050.38 0.288813 2.26365 0
M  V30 10853 C 1051.36 -0.588135 1.51591 0
M  V30 10854 O 1052.55 -0.539197 1.80624 0
M  V30 10855 C 1049.67 -0.590032 3.33521 0
M  V30 10856 C 1048.72 0.217003 4.25948 0
M  V30 10857 S 1049.55 1.60246 5.10961 0
M  V30 10858 C 1050.71 0.730023 6.21628 0
M  V30 10859 H 1050.94 1.09971 2.76213 0
M  V30 10860 H 1048.47 0.67978 1.3863 0
M  V30 10861 H 1050.43 -1.09136 3.95727 0
M  V30 10862 H 1049.09 -1.37498 2.82406 0
M  V30 10863 H 1048.29 -0.453481 5.01956 0
M  V30 10864 H 1047.89 0.650803 3.68294 0
M  V30 10865 H 1050.18 -0.0548644 6.77478 0
M  V30 10866 H 1051.12 1.46157 6.92852 0
M  V30 10867 H 1051.53 0.292854 5.6374 0
M  V30 10868 N 1050.93 -1.4397 0.641131 0
M  V30 10869 C 1052.34 -1.85267 0.230838 0
M  V30 10870 C 1052.69 -1.53659 -1.21998 0
M  V30 10871 O 1051.82 -0.979572 -1.92959 0
M  V30 10872 C 1052.41 -3.36284 0.412171 0
M  V30 10873 C 1050.97 -3.76358 0.0563004 0
M  V30 10874 C 1050.12 -2.67768 0.720809 0
M  V30 10875 H 1053.07 -1.34294 0.845624 0
M  V30 10876 H 1053.09 -3.78924 -0.345936 0
M  V30 10877 H 1052.6 -3.59258 1.46818 0
M  V30 10878 H 1050.7 -3.58997 -0.997582 0
M  V30 10879 H 1050.82 -4.76756 0.473335 0
M  V30 10880 H 1049.18 -2.54227 0.155164 0
M  V30 10881 H 1049.96 -2.93573 1.77961 0
M  V30 10882 N 1052.41 -0.382291 -1.52893 0
M  V30 10883 C 1053.34 0.447829 -2.29165 0
M  V30 10884 C 1054.32 1.06956 -1.32267 0
M  V30 10885 O 1055.5 1.08365 -1.61154 0
M  V30 10886 C 1052.63 1.57902 -3.09329 0
M  V30 10887 C 1051.59 1.08369 -4.14053 0
M  V30 10888 C 1050.91 2.30641 -4.82399 0
M  V30 10889 C 1052.21 0.156591 -5.22065 0
M  V30 10890 H 1053.91 -0.188541 -2.98806 0
M  V30 10891 H 1051.45 -0.0921179 -1.43705 0
M  V30 10892 H 1053.41 2.16652 -3.61442 0
M  V30 10893 H 1052.13 2.24287 -2.37409 0
M  V30 10894 H 1050.79 0.518772 -3.62911 0
M  V30 10895 H 1050.44 2.9552 -4.07034 0
M  V30 10896 H 1050.14 1.98163 -5.53177 0
M  V30 10897 H 1051.66 2.90047 -5.37313 0
M  V30 10898 H 1053.08 0.652065 -5.6958 0
M  V30 10899 H 1051.47 -0.0780978 -6.00049 0
M  V30 10900 H 1052.54 -0.796529 -4.78313 0
M  V30 10901 N 1053.89 1.57202 -0.111913 0
M  V30 10902 C 1054.82 2.17957 0.837683 0
M  V30 10903 C 1055.8 1.1176 1.28233 0
M  V30 10904 O 1056.98 1.39967 1.34621 0
M  V30 10905 C 1054.11 2.77333 2.09054 0
M  V30 10906 C 1053.07 3.8905 1.78393 0
M  V30 10907 C 1052.39 4.35203 3.10649 0
M  V30 10908 C 1053.69 5.11477 1.05775 0
M  V30 10909 H 1055.39 2.9756 0.331441 0
M  V30 10910 H 1052.93 1.43131 0.157979 0
M  V30 10911 H 1054.88 3.18492 2.75936 0
M  V30 10912 H 1053.61 1.95009 2.6199 0
M  V30 10913 H 1052.27 3.48456 1.13903 0
M  V30 10914 H 1051.92 3.49747 3.61506 0
M  V30 10915 H 1051.62 5.10534 2.9091 0
M  V30 10916 H 1053.14 4.79007 3.78661 0
M  V30 10917 H 1054.55 5.497 1.62798 0
M  V30 10918 H 1052.95 5.92346 0.961573 0
M  V30 10919 H 1054.02 4.84881 0.043297 0
M  V30 10920 N 1055.36 -0.161842 1.56767 0
M  V30 10921 C 1056.31 -1.21948 1.98069 0
M  V30 10922 C 1057.31 -1.45303 0.870835 0
M  V30 10923 O 1058.51 -1.45771 1.05598 0
M  V30 10924 H 1054.89 -0.410145 0.630306 0
M  V30 10925 H 1056.86 -0.844336 2.86205 0
M  V30 10926 C 1055.61 -2.549 2.36477 0
M  V30 10927 H 1054.93 -2.37755 3.21423 0
M  V30 10928 H 1056.37 -3.27568 2.69212 0
M  V30 10929 C 1054.83 -3.14353 1.21176 0
M  V30 10930 O 1055.36 -3.98519 0.504499 0
M  V30 10931 N 1053.56 -2.73582 0.979855 0
M  V30 10932 H 1053.11 -2.05239 1.55675 0
M  V30 10933 H 1053.07 -3.13696 0.21025 0
M  V30 10934 N 1056.84 -1.516 -0.430713 0
M  V30 10935 C 1058.12 -1.55142 -1.19123 0
M  V30 10936 C 1058.5 -0.319596 -2.08667 0
M  V30 10937 O 1057.85 0.694927 -2.17676 0
M  V30 10938 C 1058.06 -2.86891 -1.98732 0
M  V30 10939 C 1059.4 -3.39089 -2.55546 0
M  V30 10940 O 1060.43 -2.88486 -2.08936 0
M  V30 10941 O 1059.29 -4.27401 -3.40574 0
M  V30 10942 H 1056.38 -0.624019 -0.542705 0
M  V30 10943 H 1058.93 -1.63917 -0.439244 0
M  V30 10944 H 1057.7 -3.68002 -1.33005 0
M  V30 10945 H 1057.32 -2.81309 -2.80982 0
M  V30 10946 N 1058.32 0.686584 -1.41858 0
M  V30 10947 C 1059.73 1.26682 -1.37145 0
M  V30 10948 C 1060.08 1.96112 -0.058922 0
M  V30 10949 O 1059.21 1.99321 0.842629 0
M  V30 10950 C 1059.8 2.30383 -2.48413 0
M  V30 10951 C 1058.36 2.83961 -2.47069 0
M  V30 10952 C 1057.51 1.58119 -2.27802 0
M  V30 10953 H 1060.46 0.480742 -1.51243 0
M  V30 10954 H 1060.48 3.11868 -2.17987 0
M  V30 10955 H 1059.99 1.79822 -3.43927 0
M  V30 10956 H 1058.09 3.38675 -1.55338 0
M  V30 10957 H 1058.21 3.3378 -3.43697 0
M  V30 10958 H 1056.57 1.84258 -1.75844 0
M  V30 10959 H 1057.35 1.09541 -3.25355 0
M  V30 10960 N 1059.8 1.27835 0.921735 0
M  V30 10961 C 1060.73 1.06874 2.02758 0
M  V30 10962 C 1061.74 0.0229418 1.62784 0
M  V30 10963 O 1062.93 0.265145 1.7652 0
M  V30 10964 C 1060.03 0.60037 3.3354 0
M  V30 10965 C 1059.2 1.71979 4.02172 0
M  V30 10966 C 1058.26 1.24615 5.11231 0
M  V30 10967 O 1057.29 1.94692 5.34868 0
M  V30 10968 N 1058.49 0.105021 5.80405 0
M  V30 10969 H 1061.26 2.02105 2.213 0
M  V30 10970 H 1058.82 1.19481 1.09251 0
M  V30 10971 H 1060.81 0.267281 4.03816 0
M  V30 10972 H 1059.38 -0.258872 3.11526 0
M  V30 10973 H 1058.6 2.22287 3.25549 0
M  V30 10974 H 1059.89 2.47092 4.44773 0
M  V30 10975 H 1059.29 -0.479745 5.63662 0
M  V30 10976 H 1057.84 -0.168846 6.51581 0
M  V30 10977 N 1061.28 -1.12907 1.09954 0
M  V30 10978 C 1062.5 -1.88679 0.861099 0
M  V30 10979 C 1062.93 -1.78853 -0.582499 0
M  V30 10980 O 1062.28 -1.13992 -1.4098 0
M  V30 10981 C 1062.33 -3.36047 1.30785 0
M  V30 10982 O 1061.44 -4.09716 0.469728 0
M  V30 10983 H 1060.78 -0.586447 0.31141 0
M  V30 10984 H 1063.31 -1.42818 1.46507 0
M  V30 10985 H 1063.32 -3.86882 1.29562 0
M  V30 10986 H 1061.99 -3.42516 2.35914 0
M  V30 10987 H 1060.57 -3.6887 0.54674 0
M  V30 10988 N 1062.75 -0.88754 -1.30232 0
M  V30 10989 C 1064 -0.508031 -1.96334 0
M  V30 10990 C 1064.33 0.940905 -1.69884 0
M  V30 10991 O 1063.61 1.66523 -1.005 0
M  V30 10992 C 1063.89 -0.786566 -3.51405 0
M  V30 10993 C 1063.74 -2.28632 -3.8736 0
M  V30 10994 C 1065.06 -0.264803 -4.39303 0
M  V30 10995 H 1062.18 -0.186051 -0.71313 0
M  V30 10996 H 1064.82 -1.112 -1.5406 0
M  V30 10997 H 1062.97 -0.272523 -3.87543 0
M  V30 10998 H 1064.65 -2.86896 -3.61231 0
M  V30 10999 H 1062.89 -2.75194 -3.35337 0
M  V30 11000 H 1063.56 -2.43181 -4.95547 0
M  V30 11001 H 1066.04 -0.704809 -4.10087 0
M  V30 11002 H 1064.91 -0.488998 -5.46717 0
M  V30 11003 H 1065.17 0.834055 -4.34161 0
M  V30 11004 N 1064.23 1.43628 -0.648757 0
M  V30 11005 C 1065.64 1.85142 -0.24066 0
M  V30 11006 C 1065.99 1.54304 1.21181 0
M  V30 11007 O 1065.12 0.989792 1.92437 0
M  V30 11008 C 1065.71 3.3606 -0.429999 0
M  V30 11009 C 1064.27 3.76323 -0.0762588 0
M  V30 11010 C 1063.42 2.67382 -0.734999 0
M  V30 11011 H 1066.37 1.33844 -0.852734 0
M  V30 11012 H 1066.39 3.79102 0.325836 0
M  V30 11013 H 1065.9 3.58474 -1.48721 0
M  V30 11014 H 1064.01 3.59521 0.978529 0
M  V30 11015 H 1064.12 4.76498 -0.498612 0
M  V30 11016 H 1062.48 2.54141 -0.168644 0
M  V30 11017 H 1063.27 2.92625 -1.79515 0
M  V30 11018 N 1065.71 0.390394 1.52688 0
M  V30 11019 C 1066.99 -0.249068 1.94008 0
M  V30 11020 C 1067.37 -1.64263 1.32593 0
M  V30 11021 O 1066.72 -2.23086 0.494448 0
M  V30 11022 C 1066.93 -0.274318 3.4792 0
M  V30 11023 C 1068.27 -0.502743 4.21613 0
M  V30 11024 O 1069.3 -0.35448 3.54432 0
M  V30 11025 O 1068.16 -0.79334 5.40711 0
M  V30 11026 H 1065.25 -0.155116 0.812323 0
M  V30 11027 H 1067.8 0.44498 1.63762 0
M  V30 11028 H 1066.57 0.701766 3.84956 0
M  V30 11029 H 1066.19 -1.01324 3.84473 0
M  V30 11030 N 1067.19 -1.57141 0.120249 0
M  V30 11031 C 1068.6 -1.5784 -0.236335 0
M  V30 11032 C 1068.8 -1.13304 -1.66626 0
M  V30 11033 O 1067.86 -0.821004 -2.3878 0
M  V30 11034 C 1069.17 -3.007 -0.00188211 0
M  V30 11035 C 1070.72 -3.12927 -0.0676838 0
M  V30 11036 C 1071.2 -4.57789 0.139092 0
M  V30 11037 N 1072.69 -4.63122 0.085104 0
M  V30 11038 C 1073.42 -5.72978 0.219983 0
M  V30 11039 N 1072.92 -6.91579 0.411102 0
M  V30 11040 N 1074.71 -5.61874 0.159469 0
M  V30 11041 H 1066.86 -1.84391 1.05422 0
M  V30 11042 H 1069.13 -0.852228 0.415225 0
M  V30 11043 H 1068.83 -3.37575 0.986718 0
M  V30 11044 H 1068.71 -3.70005 -0.733203 0
M  V30 11045 H 1071.09 -2.75909 -1.04681 0
M  V30 11046 H 1071.17 -2.46162 0.695538 0
M  V30 11047 H 1070.82 -4.95506 1.1152 0
M  V30 11048 H 1070.75 -5.22646 -0.644131 0
M  V30 11049 H 1073.24 -3.77854 -0.0590479 0
M  V30 11050 H 1073.55 -7.71149 0.504851 0
M  V30 11051 H 1071.9 -6.9356 0.447091 0
M  V30 11052 H 1075.09 -4.68099 0.0111131 0
M  V30 11053 H 1075.26 -6.47445 0.268028 0
M  V30 11054 N 1068.67 0.153526 -1.5685 0
M  V30 11055 C 1069.6 1.19162 -2.00805 0
M  V30 11056 C 1070.58 1.45172 -0.886518 0
M  V30 11057 O 1071.76 1.56203 -1.15387 0
M  V30 11058 C 1068.89 2.52637 -2.38311 0
M  V30 11059 C 1067.85 2.41161 -3.53589 0
M  V30 11060 C 1067.17 3.79287 -3.76889 0
M  V30 11061 C 1068.47 1.90122 -4.86468 0
M  V30 11062 H 1070.17 0.82617 -2.87776 0
M  V30 11063 H 1067.71 0.395972 -1.38449 0
M  V30 11064 H 1069.67 3.25478 -2.6766 0
M  V30 11065 H 1068.39 2.91005 -1.4827 0
M  V30 11066 H 1067.05 1.70772 -3.24395 0
M  V30 11067 H 1066.7 4.15079 -2.84109 0
M  V30 11068 H 1066.4 3.72472 -4.54465 0
M  V30 11069 H 1067.92 4.53687 -4.08657 0
M  V30 11070 H 1069.33 2.52752 -5.14577 0
M  V30 11071 H 1067.73 1.94214 -5.67804 0
M  V30 11072 H 1068.8 0.856517 -4.77275 0
M  V30 11073 N 1070.14 1.51827 0.422667 0
M  V30 11074 C 1071.56 1.40328 0.760275 0
M  V30 11075 C 1071.76 0.497119 1.95272 0
M  V30 11076 O 1070.82 -0.0422083 2.52465 0
M  V30 11077 C 1072.13 2.82622 1.02689 0
M  V30 11078 C 1073.68 2.91874 1.13044 0
M  V30 11079 C 1074.15 4.35107 1.4299 0
M  V30 11080 N 1075.64 4.3828 1.49883 0
M  V30 11081 C 1076.38 5.46153 1.74655 0
M  V30 11082 N 1075.87 6.64165 1.9712 0
M  V30 11083 N 1077.67 5.33651 1.76558 0
M  V30 11084 H 1069.82 2.09285 -0.362455 0
M  V30 11085 H 1072.08 0.94273 -0.0998161 0
M  V30 11086 H 1071.79 3.50991 0.223226 0
M  V30 11087 H 1071.66 3.22844 1.95068 0
M  V30 11088 H 1074.05 2.23694 1.92471 0
M  V30 11089 H 1074.13 2.55128 0.185326 0
M  V30 11090 H 1073.77 5.03841 0.640848 0
M  V30 11091 H 1073.7 4.69377 2.38731 0
M  V30 11092 H 1076.19 3.53206 1.34366 0
M  V30 11093 H 1076.51 7.42165 2.15434 0
M  V30 11094 H 1074.85 6.67255 1.94413 0
M  V30 11095 H 1078.04 4.40436 1.58536 0
M  V30 11096 H 1078.22 6.17798 1.95525 0
M  V30 11097 N 1071.62 -0.679052 1.4222 0
M  V30 11098 C 1072.87 -1.43485 1.41757 0
M  V30 11099 C 1073.18 -1.95567 0.0358698 0
M  V30 11100 O 1074.39 -2.71346 -0.0913713 0
M  V30 11101 C 1072.85 -2.59541 2.49332 0
M  V30 11102 C 1072.45 -2.14176 3.93488 0
M  V30 11103 C 1074.2 -3.37078 2.58029 0
M  V30 11104 C 1072.11 -3.27289 4.92581 0
M  V30 11105 H 1071.04 -0.539022 0.52723 0
M  V30 11106 H 1073.69 -0.735581 1.68111 0
M  V30 11107 H 1072.07 -3.31815 2.16135 0
M  V30 11108 H 1073.24 -1.49082 4.36017 0
M  V30 11109 H 1071.56 -1.49589 3.88603 0
M  V30 11110 H 1074.15 -4.21312 3.29242 0
M  V30 11111 H 1074.5 -3.83383 1.62245 0
M  V30 11112 H 1075.03 -2.7187 2.90399 0
M  V30 11113 H 1071.77 -2.8598 5.89827 0
M  V30 11114 H 1071.29 -3.91178 4.54687 0
M  V30 11115 H 1072.97 -3.9282 5.14103 0
M  V30 11116 N 1073.1 -1.28322 -0.914942 0
M  V30 11117 C 1074.52 -1.06003 -1.19313 0
M  V30 11118 C 1074.72 0.198366 -2.00521 0
M  V30 11119 O 1073.77 0.900364 -2.35902 0
M  V30 11120 C 1075.09 -2.30684 -1.92887 0
M  V30 11121 C 1076.63 -2.35851 -2.05775 0
M  V30 11122 C 1077.11 -3.60295 -2.82757 0
M  V30 11123 N 1078.6 -3.60928 -2.9032 0
M  V30 11124 C 1079.33 -4.53894 -3.50383 0
M  V30 11125 N 1078.83 -5.57178 -4.11734 0
M  V30 11126 N 1080.62 -4.41492 -3.4791 0
M  V30 11127 H 1072.77 -2.09104 -0.372735 0
M  V30 11128 H 1075.04 -0.920285 -0.227552 0
M  V30 11129 H 1074.74 -3.22355 -1.40643 0
M  V30 11130 H 1074.62 -2.37003 -2.93444 0
M  V30 11131 H 1077 -1.44678 -2.57201 0
M  V30 11132 H 1077.09 -2.33526 -1.04399 0
M  V30 11133 H 1076.73 -4.51811 -2.32011 0
M  V30 11134 H 1076.66 -3.59873 -3.84446 0
M  V30 11135 H 1079.15 -2.8624 -2.46729 0
M  V30 11136 H 1079.46 -6.24261 -4.55541 0
M  V30 11137 H 1077.81 -5.61005 -4.10242 0
M  V30 11138 H 1081 -3.60005 -2.99189 0
M  V30 11139 H 1081.17 -5.14132 -3.94427 0
M  V30 11140 N 1074.58 1.12322 -1.10551 0
M  V30 11141 C 1075.82 1.8413 -0.849932 0
M  V30 11142 C 1076.16 1.83938 0.622946 0
M  V30 11143 O 1075.43 1.28579 1.45937 0
M  V30 11144 C 1075.72 3.31751 -1.40048 0
M  V30 11145 C 1075.57 3.40391 -2.9403 0
M  V30 11146 C 1076.89 4.27543 -1.04379 0
M  V30 11147 H 1074.01 0.668533 -0.310213 0
M  V30 11148 H 1076.65 1.31766 -1.36886 0
M  V30 11149 H 1074.8 3.76475 -0.959102 0
M  V30 11150 H 1076.47 3.04294 -3.46703 0
M  V30 11151 H 1074.71 2.809 -3.30571 0
M  V30 11152 H 1075.38 4.44252 -3.27635 0
M  V30 11153 H 1077.86 3.90951 -1.42466 0
M  V30 11154 H 1076.74 5.2924 -1.4559 0
M  V30 11155 H 1077 4.42075 0.0466316 0
M  V30 11156 N 1076.06 0.894434 1.2976 0
M  V30 11157 C 1077 0.357958 2.29829 0
M  V30 11158 C 1078 -0.540093 1.6056 0
M  V30 11159 O 1079.2 -0.423478 1.74948 0
M  V30 11160 H 1075.58 0.0971183 0.745702 0
M  V30 11161 H 1077.55 1.21542 2.72526 0
M  V30 11162 C 1076.3 -0.404126 3.45343 0
M  V30 11163 H 1075.62 0.277671 3.98835 0
M  V30 11164 H 1077.06 -0.744446 4.17413 0
M  V30 11165 C 1075.52 -1.6048 2.96222 0
M  V30 11166 O 1076.05 -2.70414 2.97051 0
M  V30 11167 N 1074.26 -1.44517 2.52117 0
M  V30 11168 H 1073.8 -0.55082 2.51642 0
M  V30 11169 H 1073.76 -2.24987 2.1961 0
M  V30 11170 N 1077.53 -1.43282 0.656365 0
M  V30 11171 C 1078.48 -2.30776 -0.0333155 0
M  V30 11172 C 1079.45 -1.44928 -0.811493 0
M  V30 11173 O 1080.64 -1.73792 -0.787465 0
M  V30 11174 C 1077.78 -3.30548 -0.991566 0
M  V30 11175 C 1076.89 -4.31493 -0.209159 0
M  V30 11176 C 1076.02 -5.18346 -1.16149 0
M  V30 11177 C 1075.06 -6.10983 -0.369699 0
M  V30 11178 N 1074.2 -6.90449 -1.27378 0
M  V30 11179 H 1079.04 -2.89204 0.718668 0
M  V30 11180 H 1076.58 -1.4247 0.366161 0
M  V30 11181 H 1078.54 -3.86905 -1.56078 0
M  V30 11182 H 1077.17 -2.73762 -1.71039 0
M  V30 11183 H 1076.22 -3.77405 0.476394 0
M  V30 11184 H 1077.53 -4.97142 0.406394 0
M  V30 11185 H 1076.68 -5.79345 -1.80124 0
M  V30 11186 H 1075.42 -4.52831 -1.81095 0
M  V30 11187 H 1074.43 -5.49069 0.283377 0
M  V30 11188 H 1075.65 -6.78541 0.275399 0
M  V30 11189 H 1073.6 -6.27579 -1.90999 0
M  V30 11190 H 1073.52 -7.52631 -0.71287 0
M  V30 11191 H 1074.78 -7.5595 -1.90158 0
M  V30 11192 N 1079.01 -0.398486 -1.52479 0
M  V30 11193 C 1080.26 0.182046 -2.00877 0
M  V30 11194 C 1080.58 1.47128 -1.2889 0
M  V30 11195 O 1081.78 2.13242 -1.68048 0
M  V30 11196 C 1080.24 0.374978 -3.57941 0
M  V30 11197 C 1079.85 -0.901544 -4.38835 0
M  V30 11198 C 1081.59 0.911378 -4.14601 0
M  V30 11199 C 1079.5 -0.676385 -5.87519 0
M  V30 11200 H 1078.43 0.0718068 -0.750573 0
M  V30 11201 H 1081.08 -0.522297 -1.7591 0
M  V30 11202 H 1079.46 1.14139 -3.79194 0
M  V30 11203 H 1080.63 -1.67329 -4.29346 0
M  V30 11204 H 1078.95 -1.36357 -3.93441 0
M  V30 11205 H 1081.55 1.09569 -5.23353 0
M  V30 11206 H 1081.89 1.88306 -3.71277 0
M  V30 11207 H 1082.42 0.204296 -3.97275 0
M  V30 11208 H 1079.16 -1.61933 -6.35184 0
M  V30 11209 H 1078.68 0.0562542 -5.99774 0
M  V30 11210 H 1080.36 -0.314454 -6.46235 0
M  V30 11211 N 1080.49 1.57075 -0.12858 0
M  V30 11212 C 1081.72 2.00305 0.537839 0
M  V30 11213 C 1082.14 1.00787 1.58819 0
M  V30 11214 O 1081.5 -0.0190839 1.8129 0
M  V30 11215 C 1081.55 3.42371 1.13201 0
M  V30 11216 O 1080.65 3.45786 2.24735 0
M  V30 11217 H 1079.99 0.650456 0.133428 0
M  V30 11218 H 1082.52 2.03415 -0.219882 0
M  V30 11219 H 1082.53 3.80783 1.4652 0
M  V30 11220 H 1081.21 4.14315 0.362713 0
M  V30 11221 H 1079.78 3.19201 1.92783 0
M  V30 11222 N 1081.97 -0.145205 1.5693 0
M  V30 11223 C 1082.9 -1.18096 2.01434 0
M  V30 11224 C 1083.88 -1.447 0.894204 0
M  V30 11225 O 1085.07 -1.55589 1.16214 0
M  V30 11226 C 1082.2 -2.51369 2.39647 0
M  V30 11227 C 1081.15 -2.39283 3.54863 0
M  V30 11228 C 1080.48 -3.77283 3.78895 0
M  V30 11229 C 1081.78 -1.8754 4.87469 0
M  V30 11230 H 1083.47 -0.810897 2.8821 0
M  V30 11231 H 1081.02 -0.388624 1.38657 0
M  V30 11232 H 1082.97 -3.24054 2.69382 0
M  V30 11233 H 1081.69 -2.90214 1.49811 0
M  V30 11234 H 1080.35 -1.6905 3.25296 0
M  V30 11235 H 1080 -4.13567 2.86307 0
M  V30 11236 H 1079.7 -3.70057 4.56433 0
M  V30 11237 H 1081.22 -4.51514 4.11057 0
M  V30 11238 H 1082.64 -2.50019 5.1591 0
M  V30 11239 H 1081.03 -1.912 5.68826 0
M  V30 11240 H 1082.1 -0.831194 4.77723 0
M  V30 11241 N 1083.45 -1.52049 -0.414609 0
M  V30 11242 C 1084.38 -1.7122 -1.52369 0
M  V30 11243 C 1085.39 -0.592634 -1.5163 0
M  V30 11244 O 1086.58 -0.867634 -1.55995 0
M  V30 11245 C 1083.68 -1.73247 -2.91271 0
M  V30 11246 C 1082.85 -3.02153 -3.16263 0
M  V30 11247 C 1081.91 -2.96066 -4.35007 0
M  V30 11248 O 1080.94 -3.69981 -4.32554 0
M  V30 11249 N 1082.14 -2.13478 -5.39822 0
M  V30 11250 H 1084.91 -2.66902 -1.3632 0
M  V30 11251 H 1082.47 -1.50218 -0.603842 0
M  V30 11252 H 1084.46 -1.66714 -3.68766 0
M  V30 11253 H 1083.03 -0.85062 -3.00804 0
M  V30 11254 H 1082.25 -3.22379 -2.2686 0
M  V30 11255 H 1083.54 -3.87439 -3.29801 0
M  V30 11256 H 1082.94 -1.52844 -5.44661 0
M  V30 11257 H 1081.49 -2.12805 -6.16082 0
M  V30 11258 N 1084.93 0.6715 -1.42579 0
M  V30 11259 C 1086.2 1.42766 -1.33706 0
M  V30 11260 C 1086.58 2.11086 0.0239748 0
M  V30 11261 O 1085.93 2.03479 1.03964 0
M  V30 11262 C 1086.14 2.42739 -2.50756 0
M  V30 11263 C 1087.49 3.07284 -2.93021 0
M  V30 11264 O 1088.51 2.53066 -2.50671 0
M  V30 11265 O 1087.37 4.05541 -3.66331 0
M  V30 11266 H 1084.47 0.636955 -0.527463 0
M  V30 11267 H 1087.01 0.699946 -1.54593 0
M  V30 11268 H 1085.78 1.91076 -3.41476 0
M  V30 11269 H 1085.41 3.22986 -2.31874 0
M  V30 11270 N 1086.4 1.28806 0.908124 0
M  V30 11271 C 1087.63 1.1898 1.689 0
M  V30 11272 C 1088.04 -0.253334 1.87496 0
M  V30 11273 O 1087.38 -1.18245 1.40584 0
M  V30 11274 C 1087.45 1.82266 3.0987 0
M  V30 11275 C 1087.11 3.31534 3.14538 0
M  V30 11276 C 1088.11 4.27886 2.95313 0
M  V30 11277 C 1085.79 3.72589 3.36872 0
M  V30 11278 C 1087.79 5.63267 2.98343 0
M  V30 11279 C 1085.47 5.08095 3.39534 0
M  V30 11280 C 1086.47 6.03244 3.2029 0
M  V30 11281 O 1086.16 7.36277 3.22724 0
M  V30 11282 H 1085.89 0.413772 0.534574 0
M  V30 11283 H 1088.45 1.7055 1.14464 0
M  V30 11284 H 1086.68 1.25197 3.65872 0
M  V30 11285 H 1088.36 1.6688 3.70008 0
M  V30 11286 H 1089.13 3.97502 2.77879 0
M  V30 11287 H 1085.01 2.98989 3.50894 0
M  V30 11288 H 1088.55 6.37511 2.83241 0
M  V30 11289 H 1084.45 5.38126 3.56497 0
M  V30 11290 H 1085.22 7.44976 3.39048 0
M  V30 11291 N 1087.88 -1.11734 1.11145 0
M  V30 11292 C 1088.79 -2.21267 0.779607 0
M  V30 11293 C 1089.81 -1.72526 -0.225986 0
M  V30 11294 O 1090.98 -2.01302 -0.0629166 0
M  V30 11295 C 1088.05 -3.45973 0.22435 0
M  V30 11296 C 1087.11 -4.09518 1.28816 0
M  V30 11297 C 1086.34 -5.28271 0.7593 0
M  V30 11298 O 1086.57 -5.68912 -0.411725 0
M  V30 11299 O 1085.5 -5.82322 1.52266 0
M  V30 11300 H 1089.33 -2.5206 1.6941 0
M  V30 11301 H 1086.91 -1.20211 0.887115 0
M  V30 11302 H 1088.79 -4.21322 -0.0810921 0
M  V30 11303 H 1087.47 -3.1684 -0.662891 0
M  V30 11304 H 1086.37 -3.35915 1.64657 0
M  V30 11305 H 1087.71 -4.42824 2.14868 0
M  V30 11306 N 1089.36 -0.901303 -1.29284 0
M  V30 11307 C 1090.61 -0.527 -1.95108 0
M  V30 11308 C 1090.93 0.930065 -1.71391 0
M  V30 11309 O 1090.2 1.65601 -1.04658 0
M  V30 11310 H 1088.78 -0.191903 -0.721929 0
M  V30 11311 H 1091.44 -1.14795 -1.57506 0
M  V30 11312 H 1090.54 -0.710945 -3.03895 0
M  V30 11313 N 1090.84 1.42931 -0.663954 0
M  V30 11314 C 1092.08 2.01683 -0.181738 0
M  V30 11315 C 1092.41 1.52437 1.20802 0
M  V30 11316 O 1091.67 0.71254 1.82267 0
M  V30 11317 C 1091.97 3.57072 -0.153163 0
M  V30 11318 C 1091.63 4.25706 -1.48612 0
M  V30 11319 C 1090.29 4.4417 -1.85111 0
M  V30 11320 C 1092.65 4.6448 -2.36448 0
M  V30 11321 C 1089.97 4.98677 -3.09092 0
M  V30 11322 C 1092.33 5.20362 -3.5973 0
M  V30 11323 C 1090.99 5.37041 -3.96412 0
M  V30 11324 H 1090.26 0.73801 -0.0665026 0
M  V30 11325 H 1092.91 1.71264 -0.856791 0
M  V30 11326 H 1091.21 3.87095 0.605372 0
M  V30 11327 H 1092.91 4.00299 0.236981 0
M  V30 11328 H 1089.5 4.11686 -1.19215 0
M  V30 11329 H 1093.68 4.49898 -2.09537 0
M  V30 11330 H 1088.94 5.09776 -3.37547 0
M  V30 11331 H 1093.11 5.49352 -4.28001 0
M  V30 11332 H 1090.74 5.79042 -4.92559 0
M  V30 11333 N 1092.32 0.406567 1.52266 0
M  V30 11334 C 1093.27 -0.437483 2.23763 0
M  V30 11335 C 1094.25 -1.01557 1.248 0
M  V30 11336 O 1095.44 -0.938813 1.50051 0
M  V30 11337 C 1092.57 -1.55499 3.06064 0
M  V30 11338 C 1091.66 -0.987799 4.12436 0
M  V30 11339 N 1092.05 -0.147044 5.05586 0
M  V30 11340 C 1090.35 -1.25857 4.27874 0
M  V30 11341 C 1091.05 0.168229 5.81457 0
M  V30 11342 N 1090.02 -0.440245 5.41814 0
M  V30 11343 H 1093.82 0.211203 2.9314 0
M  V30 11344 H 1091.34 0.216843 1.60946 0
M  V30 11345 H 1093.34 -2.17224 3.55836 0
M  V30 11346 H 1092 -2.20632 2.38226 0
M  V30 11347 H 1093.01 0.217062 5.17445 0
M  V30 11348 H 1089.68 -1.90967 3.71265 0
M  V30 11349 H 1091.07 0.850516 6.66495 0
M  V30 11350 N 1093.79 -1.57004 0.136909 0
M  V30 11351 C 1095.02 -1.99866 -0.523177 0
M  V30 11352 C 1095.43 -1.01584 -1.59616 0
M  V30 11353 O 1094.78 -0.00326426 -1.837 0
M  V30 11354 C 1094.84 -3.39157 -1.19217 0
M  V30 11355 C 1094.5 -4.56231 -0.265 0
M  V30 11356 C 1095.5 -5.17457 0.503412 0
M  V30 11357 C 1093.18 -5.02009 -0.170846 0
M  V30 11358 C 1095.18 -6.22863 1.35353 0
M  V30 11359 C 1092.86 -6.07273 0.682884 0
M  V30 11360 C 1093.86 -6.67568 1.44369 0
M  V30 11361 O 1093.55 -7.70795 2.28321 0
M  V30 11362 H 1093.28 -0.661005 -0.141593 0
M  V30 11363 H 1095.84 -2.04159 0.225445 0
M  V30 11364 H 1094.07 -3.31672 -1.98823 0
M  V30 11365 H 1095.76 -3.66191 -1.75096 0
M  V30 11366 H 1096.52 -4.82994 0.440648 0
M  V30 11367 H 1092.4 -4.54813 -0.752744 0
M  V30 11368 H 1095.94 -6.69855 1.94783 0
M  V30 11369 H 1091.84 -6.41163 0.746978 0
M  V30 11370 H 1092.61 -7.87971 2.21458 0
M  V30 11371 N 1095.27 0.136881 -1.57004 0
M  V30 11372 C 1096.55 0.87705 -1.74835 0
M  V30 11373 C 1096.93 1.98886 -0.707639 0
M  V30 11374 O 1096.28 2.26879 0.271652 0
M  V30 11375 C 1096.49 1.41021 -3.1924 0
M  V30 11376 C 1097.84 1.86963 -3.81222 0
M  V30 11377 O 1098.86 1.5074 -3.22732 0
M  V30 11378 O 1097.72 2.53798 -4.83993 0
M  V30 11379 H 1094.81 0.415192 -0.715223 0
M  V30 11380 H 1097.36 0.122016 -1.69261 0
M  V30 11381 H 1096.13 0.611677 -3.8649 0
M  V30 11382 H 1095.75 2.22846 -3.2928 0
M  V30 11383 N 1096.75 1.52266 0.40654 0
M  V30 11384 C 1097.7 1.75794 1.4955 0
M  V30 11385 C 1098.67 0.600472 1.54866 0
M  V30 11386 O 1099.85 0.838305 1.71397 0
M  V30 11387 C 1096.99 1.91682 2.86971 0
M  V30 11388 C 1096.11 3.19337 2.90943 0
M  V30 11389 C 1095.24 3.25641 4.1968 0
M  V30 11390 C 1094.28 4.47488 4.17637 0
M  V30 11391 N 1093.42 4.51171 5.37949 0
M  V30 11392 H 1098.26 2.68733 1.28789 0
M  V30 11393 H 1095.79 1.33157 0.625102 0
M  V30 11394 H 1097.75 1.98877 3.66748 0
M  V30 11395 H 1096.38 1.02121 3.06221 0
M  V30 11396 H 1095.43 3.21301 2.03642 0
M  V30 11397 H 1096.75 4.09153 2.85299 0
M  V30 11398 H 1095.9 3.31922 5.07851 0
M  V30 11399 H 1094.64 2.33769 4.28023 0
M  V30 11400 H 1093.64 4.41351 3.27856 0
M  V30 11401 H 1094.87 5.40659 4.10932 0
M  V30 11402 H 1092.81 3.62182 5.46955 0
M  V30 11403 H 1092.73 5.34835 5.3431 0
M  V30 11404 H 1094 4.61685 6.28066 0
M  V30 11405 N 1098.23 -0.663929 1.42933 0
M  V30 11406 C 1099.14 -1.80643 1.49683 0
M  V30 11407 C 1100.15 -1.69694 0.38472 0
M  V30 11408 O 1101.33 -1.91052 0.637256 0
M  V30 11409 C 1098.4 -3.16858 1.4072 0
M  V30 11410 C 1097.46 -3.39684 2.62514 0
M  V30 11411 C 1096.69 -4.69399 2.53969 0
M  V30 11412 O 1096.91 -5.48037 1.58152 0
M  V30 11413 O 1095.85 -4.93709 3.44289 0
M  V30 11414 H 1099.67 -1.77903 2.46138 0
M  V30 11415 H 1097.26 -0.821059 1.24816 0
M  V30 11416 H 1099.14 -3.9812 1.38124 0
M  V30 11417 H 1097.81 -3.20211 0.473954 0
M  V30 11418 H 1096.72 -2.58227 2.70684 0
M  V30 11419 H 1098.05 -3.41169 3.54774 0
M  V30 11420 N 1099.71 -1.29285 -0.901281 0
M  V30 11421 C 1100.65 -1.1428 -2.00521 0
M  V30 11422 C 1101.62 -0.0365428 -1.6606 0
M  V30 11423 O 1102.81 -0.203771 -1.89709 0
M  V30 11424 C 1099.95 -0.823671 -3.35126 0
M  V30 11425 C 1099.06 -2.01021 -3.8238 0
M  V30 11426 C 1098.2 -1.6306 -5.05554 0
M  V30 11427 C 1097.24 -2.78304 -5.45173 0
M  V30 11428 N 1096.37 -2.4075 -6.59533 0
M  V30 11429 H 1101.21 -2.08729 -2.12688 0
M  V30 11430 H 1098.75 -1.0387 -1.04161 0
M  V30 11431 H 1100.71 -0.61934 -4.12577 0
M  V30 11432 H 1099.34 0.0839113 -3.22691 0
M  V30 11433 H 1098.39 -2.32629 -3.00978 0
M  V30 11434 H 1099.7 -2.8738 -4.07694 0
M  V30 11435 H 1098.86 -1.38906 -5.90584 0
M  V30 11436 H 1097.59 -0.738464 -4.82077 0
M  V30 11437 H 1096.6 -3.03142 -4.58678 0
M  V30 11438 H 1097.82 -3.68179 -5.70632 0
M  V30 11439 H 1095.77 -1.54022 -6.37662 0
M  V30 11440 H 1095.69 -3.20643 -6.84634 0
M  V30 11441 H 1096.96 -2.19912 -7.47836 0
M  V30 11442 N 1101.18 1.11143 -1.11736 0
M  V30 11443 C 1102.11 2.19339 -0.800795 0
M  V30 11444 C 1103.1 1.68508 0.23221 0
M  V30 11445 O 1104.28 1.93967 0.0950063 0
M  V30 11446 C 1101.41 3.46424 -0.246579 0
M  V30 11447 C 1100.36 4.10487 -1.21181 0
M  V30 11448 C 1099.69 5.32183 -0.518158 0
M  V30 11449 C 1100.99 4.55052 -2.56368 0
M  V30 11450 H 1102.68 2.46077 -1.70548 0
M  V30 11451 H 1100.23 1.18271 -0.821454 0
M  V30 11452 H 1102.18 4.21398 -0.0128889 0
M  V30 11453 H 1100.91 3.19154 0.693415 0
M  V30 11454 H 1099.57 3.3751 -1.43118 0
M  V30 11455 H 1099.21 5.01187 0.426742 0
M  V30 11456 H 1098.91 5.75997 -1.16196 0
M  V30 11457 H 1100.44 6.09895 -0.293333 0
M  V30 11458 H 1101.85 5.21335 -2.38501 0
M  V30 11459 H 1100.25 5.0969 -3.16758 0
M  V30 11460 H 1101.32 3.68343 -3.1536 0
M  V30 11461 N 1102.66 0.908147 1.28804 0
M  V30 11462 C 1104.08 0.605474 1.47669 0
M  V30 11463 C 1104.28 -0.850759 1.82659 0
M  V30 11464 O 1103.33 -1.63029 1.92816 0
M  V30 11465 C 1104.65 1.53856 2.58358 0
M  V30 11466 C 1106.2 1.54467 2.7223 0
M  V30 11467 C 1106.67 2.46424 3.86056 0
M  V30 11468 N 1108.16 2.44519 3.93402 0
M  V30 11469 C 1108.9 3.12371 4.80845 0
M  V30 11470 N 1108.39 3.89533 5.72919 0
M  V30 11471 N 1110.19 3.01486 4.74407 0
M  V30 11472 H 1102.34 1.84988 1.04371 0
M  V30 11473 H 1104.6 0.793132 0.519274 0
M  V30 11474 H 1104.31 2.57651 2.39393 0
M  V30 11475 H 1104.18 1.26543 3.5534 0
M  V30 11476 H 1106.57 0.514127 2.90587 0
M  V30 11477 H 1106.65 1.85821 1.75796 0
M  V30 11478 H 1106.29 3.49577 3.68454 0
M  V30 11479 H 1106.22 2.12375 4.81876 0
M  V30 11480 H 1108.71 1.88464 3.27551 0
M  V30 11481 H 1109.03 4.3834 6.36457 0
M  V30 11482 H 1107.37 3.93639 5.72777 0
M  V30 11483 H 1110.56 2.40713 4.01466 0
M  V30 11484 H 1110.73 3.5464 5.42342 0
M  V30 11485 N 1104.14 -1.42577 0.671525 0
M  V30 11486 C 1105.05 -2.34598 -0.00898225 0
M  V30 11487 C 1106.07 -1.54909 -0.792407 0
M  V30 11488 O 1107.24 -1.87491 -0.735477 0
M  V30 11489 C 1104.31 -3.33405 -0.950888 0
M  V30 11490 C 1103.37 -4.28993 -0.16236 0
M  V30 11491 C 1102.6 -5.2308 -1.0594 0
M  V30 11492 O 1102.82 -5.22022 -2.2989 0
M  V30 11493 O 1101.76 -5.99632 -0.521966 0
M  V30 11494 H 1105.58 -2.94321 0.748927 0
M  V30 11495 H 1103.17 -1.43025 0.43175 0
M  V30 11496 H 1105.05 -3.94115 -1.49169 0
M  V30 11497 H 1103.73 -2.7616 -1.68871 0
M  V30 11498 H 1102.63 -3.71707 0.42247 0
M  V30 11499 H 1103.97 -4.8927 0.536274 0
M  V30 11500 N 1105.62 -0.414636 -1.52048 0
M  V30 11501 C 1106.58 0.396285 -2.25748 0
M  V30 11502 C 1107.58 0.969003 -1.28324 0
M  V30 11503 O 1108.77 0.847016 -1.52221 0
M  V30 11504 C 1105.9 1.55838 -3.03195 0
M  V30 11505 H 1107.1 -0.249311 -2.98862 0
M  V30 11506 H 1104.65 -0.167276 -1.55402 0
M  V30 11507 H 1105.38 2.24068 -2.34444 0
M  V30 11508 H 1105.17 1.15414 -3.74729 0
M  V30 11509 H 1106.66 2.13187 -3.59084 0
M  V30 11510 N 1107.1 1.56929 -0.145233 0
M  V30 11511 C 1108.32 2.00864 0.516564 0
M  V30 11512 C 1108.75 1.02466 1.57741 0
M  V30 11513 O 1108.1 0.000145439 1.813 0
M  V30 11514 C 1108.15 3.43552 1.09563 0
M  V30 11515 O 1107.26 3.4815 2.21055 0
M  V30 11516 H 1106.6 0.651835 0.126521 0
M  V30 11517 H 1109.13 2.0317 -0.241445 0
M  V30 11518 H 1109.14 3.82316 1.42473 0
M  V30 11519 H 1107.81 4.14677 0.318749 0
M  V30 11520 H 1106.39 3.21228 1.89387 0
M  V30 11521 N 1108.58 -0.128553 1.57075 0
M  V30 11522 C 1109.82 -0.836536 1.83535 0
M  V30 11523 C 1110.14 -1.81491 0.7294 0
M  V30 11524 O 1111.34 -2.56838 0.880128 0
M  V30 11525 C 1109.8 -1.53836 3.25365 0
M  V30 11526 C 1109.41 -0.601454 4.43944 0
M  V30 11527 C 1111.15 -2.23204 3.61082 0
M  V30 11528 C 1109.06 -1.30596 5.768 0
M  V30 11529 H 1107.99 -0.316142 0.684522 0
M  V30 11530 H 1110.64 -0.0892555 1.83283 0
M  V30 11531 H 1109.02 -2.33192 3.20058 0
M  V30 11532 H 1110.2 0.158209 4.60528 0
M  V30 11533 H 1108.51 -0.0152393 4.16397 0
M  V30 11534 H 1111.11 -2.76585 4.57608 0
M  V30 11535 H 1111.45 -3.0056 2.88044 0
M  V30 11536 H 1111.98 -1.50746 3.68131 0
M  V30 11537 H 1108.72 -0.573874 6.52983 0
M  V30 11538 H 1108.24 -2.03787 5.6412 0
M  V30 11539 H 1109.92 -1.8418 6.20231 0
M  V30 11540 N 1110.05 -1.5248 -0.398459 0
M  V30 11541 C 1111.28 -1.71221 -1.17039 0
M  V30 11542 C 1111.7 -0.425515 -1.83224 0
M  V30 11543 O 1111.06 0.617938 -1.70444 0
M  V30 11544 C 1111.11 -2.8562 -2.20121 0
M  V30 11545 O 1110.21 -2.51934 -3.26501 0
M  V30 11546 H 1109.55 -0.569654 -0.34116 0
M  V30 11547 H 1112.08 -1.99231 -0.465652 0
M  V30 11548 H 1112.09 -3.10842 -2.64275 0
M  V30 11549 H 1110.77 -3.78969 -1.71334 0
M  V30 11550 H 1109.35 -2.3742 -2.87552 0
M  V30 11551 N 1111.53 0.65634 -1.43283 0
M  V30 11552 C 1112.81 1.41339 -1.35213 0
M  V30 11553 C 1113.19 2.111 0.00158494 0
M  V30 11554 O 1112.54 2.0457 1.018 0
M  V30 11555 C 1112.75 2.40066 -2.53317 0
M  V30 11556 C 1114.09 3.04159 -2.96264 0
M  V30 11557 O 1115.12 2.50393 -2.53341 0
M  V30 11558 O 1113.98 4.01633 -3.70612 0
M  V30 11559 H 1111.07 0.631325 -0.534189 0
M  V30 11560 H 1113.62 0.68351 -1.55326 0
M  V30 11561 H 1112.39 1.87444 -3.43483 0
M  V30 11562 H 1112.01 3.20509 -2.35287 0
M  V30 11563 N 1113.01 1.29761 0.894412 0
M  V30 11564 C 1114.26 1.19224 1.64794 0
M  V30 11565 C 1114.61 -0.252648 1.90734 0
M  V30 11566 O 1113.9 -1.17881 1.51045 0
M  V30 11567 C 1114.1 1.94458 2.99868 0
M  V30 11568 C 1113.93 3.46115 2.87114 0
M  V30 11569 C 1112.7 4.15469 2.87599 0
M  V30 11570 C 1114.89 4.41518 2.63754 0
M  V30 11571 N 1112.88 5.53453 2.65637 0
M  V30 11572 C 1114.25 5.66999 2.50823 0
M  V30 11573 C 1116.3 4.31221 2.48903 0
M  V30 11574 C 1115.01 6.83351 2.24554 0
M  V30 11575 C 1117.03 5.4733 2.24018 0
M  V30 11576 C 1116.39 6.71786 2.11856 0
M  V30 11577 H 1112.49 0.491294 0.608403 0
M  V30 11578 H 1115.08 1.63656 1.05474 0
M  V30 11579 H 1113.25 1.52432 3.57238 0
M  V30 11580 H 1114.98 1.76142 3.64357 0
M  V30 11581 H 1111.73 3.67217 2.9908 0
M  V30 11582 H 1112.16 6.26037 2.57695 0
M  V30 11583 H 1116.8 3.35689 2.57046 0
M  V30 11584 H 1114.52 7.78933 2.15149 0
M  V30 11585 H 1118.1 5.41265 2.13363 0
M  V30 11586 H 1116.98 7.60113 1.92867 0
M  V30 11587 N 1114.49 -1.10549 1.12324 0
M  V30 11588 C 1115.42 -2.18911 0.812416 0
M  V30 11589 C 1116.4 -1.68628 -0.22327 0
M  V30 11590 O 1117.58 -1.94015 -0.0847184 0
M  V30 11591 C 1114.71 -3.46288 0.264947 0
M  V30 11592 C 1113.67 -4.09838 1.23356 0
M  V30 11593 C 1112.99 -5.31901 0.546374 0
M  V30 11594 C 1114.29 -4.53686 2.58778 0
M  V30 11595 H 1115.99 -2.45169 1.71851 0
M  V30 11596 H 1113.53 -1.17834 0.827715 0
M  V30 11597 H 1115.49 -4.21385 0.0352364 0
M  V30 11598 H 1114.21 -3.19517 -0.676479 0
M  V30 11599 H 1112.87 -3.36746 1.44906 0
M  V30 11600 H 1112.52 -5.01406 -0.400157 0
M  V30 11601 H 1112.22 -5.75372 1.19249 0
M  V30 11602 H 1113.74 -6.09731 0.325673 0
M  V30 11603 H 1115.16 -5.20063 2.41263 0
M  V30 11604 H 1113.55 -5.08003 3.19457 0
M  V30 11605 H 1114.62 -3.66665 3.17309 0
M  V30 11606 N 1115.97 -0.914965 -1.28321 0
M  V30 11607 C 1117.38 -0.613297 -1.47346 0
M  V30 11608 C 1117.58 0.84106 -1.83108 0
M  V30 11609 O 1116.64 1.62004 -1.93678 0
M  V30 11610 C 1117.95 -1.55224 -2.57538 0
M  V30 11611 C 1119.5 -1.55909 -2.71407 0
M  V30 11612 C 1119.97 -2.48468 -3.84744 0
M  V30 11613 N 1121.46 -2.46602 -3.92099 0
M  V30 11614 C 1122.2 -3.14917 -4.79182 0
M  V30 11615 N 1121.7 -3.92566 -5.70845 0
M  V30 11616 N 1123.49 -3.03998 -4.72802 0
M  V30 11617 H 1115.64 -1.85539 -1.03388 0
M  V30 11618 H 1117.9 -0.795875 -0.515061 0
M  V30 11619 H 1117.61 -2.58917 -2.38023 0
M  V30 11620 H 1117.48 -1.28426 -3.54664 0
M  V30 11621 H 1119.87 -0.52953 -2.9031 0
M  V30 11622 H 1119.95 -1.86751 -1.74808 0
M  V30 11623 H 1119.59 -3.51526 -3.66595 0
M  V30 11624 H 1119.52 -2.14928 -4.80743 0
M  V30 11625 H 1122.02 -1.90199 -3.26547 0
M  V30 11626 H 1122.33 -4.41709 -6.34123 0
M  V30 11627 H 1120.67 -3.96671 -5.70681 0
M  V30 11628 H 1123.86 -2.42839 -4.00184 0
M  V30 11629 H 1124.04 -3.57511 -5.40454 0
M  V30 11630 N 1117.44 1.42219 -0.679077 0
M  V30 11631 C 1118.67 2.05815 -0.211649 0
M  V30 11632 C 1119.09 1.51037 1.13284 0
M  V30 11633 O 1118.44 0.651894 1.7046 0
M  V30 11634 C 1118.49 3.61218 -0.142663 0
M  V30 11635 O 1118.22 4.13965 -1.43402 0
M  V30 11636 C 1119.72 4.41934 0.347746 0
M  V30 11637 H 1116.94 0.663215 -0.101914 0
M  V30 11638 H 1119.48 1.82282 -0.927017 0
M  V30 11639 H 1117.64 3.83848 0.52342 0
M  V30 11640 H 1118.05 5.07872 -1.31021 0
M  V30 11641 H 1119.52 5.50921 0.344916 0
M  V30 11642 H 1120 4.16832 1.38377 0
M  V30 11643 H 1120.61 4.24332 -0.286751 0
M  V30 11644 N 1118.92 0.422693 1.51826 0
M  V30 11645 C 1120.17 -0.150066 2.01141 0
M  V30 11646 C 1120.48 -1.45059 1.31214 0
M  V30 11647 O 1121.69 -2.10542 1.71419 0
M  V30 11648 C 1120.15 -0.317985 3.58492 0
M  V30 11649 C 1119.75 0.971244 4.37345 0
M  V30 11650 C 1121.5 -0.845303 4.15999 0
M  V30 11651 C 1119.4 0.769769 5.86369 0
M  V30 11652 H 1118.33 -0.0598567 0.75162 0
M  V30 11653 H 1120.99 0.550217 1.75057 0
M  V30 11654 H 1119.37 -1.08092 3.80962 0
M  V30 11655 H 1120.54 1.74138 4.26629 0
M  V30 11656 H 1118.86 1.42599 3.91222 0
M  V30 11657 H 1121.45 -1.01229 5.2503 0
M  V30 11658 H 1121.8 -1.82375 3.74226 0
M  V30 11659 H 1122.33 -0.141067 3.9755 0
M  V30 11660 H 1119.07 1.72017 6.32527 0
M  V30 11661 H 1118.59 0.0391717 5.99787 0
M  V30 11662 H 1120.27 0.417225 6.45653 0
M  V30 11663 N 1120.4 -1.5685 0.153553 0
M  V30 11664 C 1121.36 -2.15894 -0.769564 0
M  V30 11665 C 1122.36 -1.10239 -1.17064 0
M  V30 11666 O 1123.55 -1.35845 -1.09049 0
M  V30 11667 C 1120.68 -2.72738 -2.04516 0
M  V30 11668 H 1121.88 -2.98807 -0.255842 0
M  V30 11669 H 1119.43 -1.56005 -0.0959279 0
M  V30 11670 H 1120.17 -1.9351 -2.60239 0
M  V30 11671 H 1119.95 -3.50042 -1.76672 0
M  V30 11672 H 1121.44 -3.18208 -2.70432 0
M  V30 11673 N 1121.88 0.120221 -1.57141 0
M  V30 11674 C 1123.13 0.826586 -1.84423 0
M  V30 11675 C 1123.45 1.80473 -0.738553 0
M  V30 11676 O 1122.72 1.94454 0.23755 0
M  V30 11677 H 1121.3 0.308246 -0.680436 0
M  V30 11678 H 1123.96 0.107835 -1.94601 0
M  V30 11679 H 1123.05 1.37256 -2.80298 0
M  V30 11680 N 1123.36 1.52689 0.390367 0
M  V30 11681 C 1124.27 1.8029 1.50108 0
M  V30 11682 C 1125.28 0.689582 1.59752 0
M  V30 11683 O 1126.46 0.977024 1.76114 0
M  V30 11684 C 1123.52 1.96475 2.85654 0
M  V30 11685 C 1122.58 3.2039 2.85743 0
M  V30 11686 C 1121.82 3.35793 4.14824 0
M  V30 11687 O 1122.04 2.56033 5.09709 0
M  V30 11688 O 1120.97 4.2904 4.22147 0
M  V30 11689 H 1124.8 2.74605 1.29715 0
M  V30 11690 H 1122.39 1.37763 0.578074 0
M  V30 11691 H 1124.27 2.08835 3.66013 0
M  V30 11692 H 1122.94 1.05351 3.06077 0
M  V30 11693 H 1121.85 3.13473 2.0417 0
M  V30 11694 H 1123.18 4.11356 2.70272 0
M  V30 11695 N 1124.83 -0.648732 1.43629 0
M  V30 11696 C 1125.76 -1.77298 1.51947 0
M  V30 11697 C 1126.75 -1.65942 0.373785 0
M  V30 11698 O 1127.93 -1.8497 0.591596 0
M  V30 11699 C 1125.06 -3.15749 1.44638 0
M  V30 11700 C 1124.01 -3.41872 2.57502 0
M  V30 11701 C 1123.34 -4.8017 2.35246 0
M  V30 11702 C 1124.64 -3.36173 3.99731 0
M  V30 11703 H 1126.33 -1.70594 2.46045 0
M  V30 11704 H 1123.88 -0.819306 1.1842 0
M  V30 11705 H 1125.83 -3.94156 1.4906 0
M  V30 11706 H 1124.56 -3.23194 0.470466 0
M  V30 11707 H 1123.22 -2.65838 2.5244 0
M  V30 11708 H 1122.86 -4.84297 1.35887 0
M  V30 11709 H 1122.56 -4.9861 3.10906 0
M  V30 11710 H 1124.09 -5.6083 2.41459 0
M  V30 11711 H 1125.5 -4.0451 4.06257 0
M  V30 11712 H 1123.9 -3.66148 4.75453 0
M  V30 11713 H 1124.97 -2.34277 4.24549 0
M  V30 11714 N 1126.31 -1.30234 -0.887518 0
M  V30 11715 C 1127.56 -1.19086 -1.64153 0
M  V30 11716 C 1127.89 0.254428 -1.92526 0
M  V30 11717 O 1127.17 1.18233 -1.54438 0
M  V30 11718 C 1127.45 -2.01723 -2.98295 0
M  V30 11719 C 1127.3 -3.54458 -2.76911 0
M  V30 11720 C 1128.62 -1.85307 -3.99186 0
M  V30 11721 H 1125.74 -0.433967 -0.595686 0
M  V30 11722 H 1128.38 -1.59839 -1.0272 0
M  V30 11723 H 1126.53 -1.67096 -3.5073 0
M  V30 11724 H 1128.2 -3.99131 -2.31284 0
M  V30 11725 H 1126.45 -3.78768 -2.11464 0
M  V30 11726 H 1127.12 -4.07565 -3.72283 0
M  V30 11727 H 1129.59 -2.15575 -3.55903 0
M  V30 11728 H 1128.47 -2.45456 -4.90961 0
M  V30 11729 H 1128.73 -0.811528 -4.34588 0
M  V30 11730 N 1127.79 1.09952 -1.12909 0
M  V30 11731 C 1128.72 2.16257 -0.759305 0
M  V30 11732 C 1129.74 1.61355 0.216427 0
M  V30 11733 O 1130.92 1.785 -0.00297224 0
M  V30 11734 C 1128.02 3.38741 -0.103908 0
M  V30 11735 C 1127.2 4.23072 -1.11037 0
M  V30 11736 C 1126.26 5.23991 -0.481667 0
M  V30 11737 O 1125.28 5.57665 -1.14011 0
M  V30 11738 N 1126.48 5.75652 0.748698 0
M  V30 11739 H 1129.25 2.48588 -1.67405 0
M  V30 11740 H 1126.81 1.25617 -1.02137 0
M  V30 11741 H 1128.8 4.03362 0.328799 0
M  V30 11742 H 1127.37 3.04344 0.713677 0
M  V30 11743 H 1126.59 3.5467 -1.72054 0
M  V30 11744 H 1127.88 4.76244 -1.79078 0
M  V30 11745 H 1127.28 5.505 1.30253 0
M  V30 11746 H 1125.84 6.42033 1.12415 0
M  V30 11747 N 1129.27 0.921757 1.27833 0
M  V30 11748 C 1130.49 0.574599 1.99281 0
M  V30 11749 C 1130.92 -0.838905 1.68357 0
M  V30 11750 O 1130.28 -1.56196 0.920468 0
M  V30 11751 C 1130.32 0.800027 3.51613 0
M  V30 11752 O 1129.43 -0.137215 4.12172 0
M  V30 11753 H 1128.77 0.221887 0.625829 0
M  V30 11754 H 1131.3 1.23939 1.62789 0
M  V30 11755 H 1131.31 0.71326 4.01717 0
M  V30 11756 H 1129.98 1.83042 3.73455 0
M  V30 11757 H 1128.56 -0.00103872 3.729 0
M  V30 11758 N 1130.75 -1.41857 0.686609 0
M  V30 11759 C 1131.99 -2.01368 0.213801 0
M  V30 11760 C 1132.32 -1.5434 -1.18361 0
M  V30 11761 O 1131.58 -0.741447 -1.81111 0
M  V30 11762 C 1131.88 -3.56783 0.209951 0
M  V30 11763 C 1131.54 -4.23288 1.55365 0
M  V30 11764 C 1130.2 -4.41169 1.92154 0
M  V30 11765 C 1132.56 -4.6066 2.43807 0
M  V30 11766 C 1129.88 -4.93697 3.16986 0
M  V30 11767 C 1132.24 -5.14573 3.67963 0
M  V30 11768 C 1130.9 -5.30667 4.04906 0
M  V30 11769 H 1130.17 -0.736858 0.0782352 0
M  V30 11770 H 1132.82 -1.69879 0.88393 0
M  V30 11771 H 1131.12 -3.88009 -0.543712 0
M  V30 11772 H 1132.82 -4.00625 -0.173267 0
M  V30 11773 H 1129.41 -4.09738 1.2575 0
M  V30 11774 H 1133.59 -4.46507 2.16668 0
M  V30 11775 H 1128.85 -5.04342 3.45615 0
M  V30 11776 H 1133.02 -5.42473 4.36687 0
M  V30 11777 H 1130.65 -5.71133 5.01709 0
M  V30 11778 N 1132.22 -0.430739 -1.51599 0
M  V30 11779 C 1133.47 0.137657 -2.01631 0
M  V30 11780 C 1133.79 1.43787 -1.31721 0
M  V30 11781 O 1133.06 1.90668 -0.449717 0
M  V30 11782 H 1131.64 0.0538611 -0.745056 0
M  V30 11783 H 1134.31 -0.571935 -1.86319 0
M  V30 11784 H 1133.4 0.318305 -3.10473 0
M  V30 11785 N 1133.7 1.56767 -0.161869 0
M  V30 11786 C 1134.67 2.16299 0.758104 0
M  V30 11787 C 1135.67 1.10859 1.16478 0
M  V30 11788 O 1136.86 1.36422 1.08327 0
M  V30 11789 C 1133.99 2.73819 2.03067 0
M  V30 11790 H 1135.18 2.98938 0.239992 0
M  V30 11791 H 1132.73 1.56054 0.0876532 0
M  V30 11792 H 1133.47 1.94887 2.59209 0
M  V30 11793 H 1133.25 3.50974 1.74813 0
M  V30 11794 H 1134.74 3.19638 2.68741 0
M  V30 11795 N 1135.18 -0.111886 1.57202 0
M  V30 11796 C 1136.43 -0.817022 1.84412 0
M  V30 11797 C 1136.74 -1.80708 0.748608 0
M  V30 11798 O 1137.95 -2.55891 0.907319 0
M  V30 11799 C 1136.4 -1.50376 3.26979 0
M  V30 11800 C 1136.01 -0.554334 4.44557 0
M  V30 11801 C 1137.76 -2.19361 3.63429 0
M  V30 11802 C 1135.66 -1.24471 5.78153 0
M  V30 11803 H 1134.59 -0.308864 0.687836 0
M  V30 11804 H 1137.24 -0.0698109 1.83367 0
M  V30 11805 H 1135.63 -2.29785 3.22514 0
M  V30 11806 H 1136.8 0.207045 4.60335 0
M  V30 11807 H 1135.12 0.0289261 4.1639 0
M  V30 11808 H 1137.71 -2.71716 4.60515 0
M  V30 11809 H 1138.06 -2.97488 2.91215 0
M  V30 11810 H 1138.59 -1.46833 3.69709 0
M  V30 11811 H 1135.33 -0.504584 6.53555 0
M  V30 11812 H 1134.85 -1.97792 5.66249 0
M  V30 11813 H 1136.53 -1.77591 6.2215 0
M  V30 11814 N 1136.66 -1.52894 -0.382264 0
M  V30 11815 C 1138.07 -1.60135 -0.959887 0
M  V30 11816 C 1138.42 -0.458363 -1.90771 0
M  V30 11817 O 1137.55 0.417614 -2.12332 0
M  V30 11818 C 1138.14 -2.90243 -1.74769 0
M  V30 11819 C 1136.7 -2.99874 -2.27491 0
M  V30 11820 C 1135.85 -2.55302 -1.0824 0
M  V30 11821 H 1138.8 -1.57875 -0.161589 0
M  V30 11822 H 1138.82 -2.77108 -2.60751 0
M  V30 11823 H 1138.33 -3.73412 -1.0576 0
M  V30 11824 H 1136.43 -2.21258 -2.99793 0
M  V30 11825 H 1136.54 -4.04643 -2.56516 0
M  V30 11826 H 1134.91 -2.09781 -1.44444 0
M  V30 11827 H 1135.69 -3.40872 -0.407553 0
M  V30 11828 N 1138.14 0.641106 -1.43971 0
M  V30 11829 C 1139.07 1.76489 -1.52885 0
M  V30 11830 C 1140.05 1.65742 -0.38258 0
M  V30 11831 O 1141.23 1.84653 -0.601397 0
M  V30 11832 C 1138.36 3.14977 -1.4631 0
M  V30 11833 C 1137.32 3.40502 -2.59311 0
M  V30 11834 C 1136.64 4.78916 -2.37789 0
M  V30 11835 C 1137.94 3.34048 -4.01509 0
M  V30 11836 H 1139.64 1.69286 -2.46946 0
M  V30 11837 H 1137.18 0.813015 -1.18853 0
M  V30 11838 H 1139.14 3.9336 -1.51149 0
M  V30 11839 H 1137.86 3.2294 -0.487599 0
M  V30 11840 H 1136.52 2.64495 -2.53846 0
M  V30 11841 H 1136.17 4.8357 -1.38454 0
M  V30 11842 H 1135.87 4.96954 -3.13545 0
M  V30 11843 H 1137.39 5.59541 -2.4443 0
M  V30 11844 H 1138.81 4.0235 -4.08396 0
M  V30 11845 H 1137.2 3.63622 -4.77388 0
M  V30 11846 H 1138.27 2.32022 -4.25786 0
M  V30 11847 N 1139.62 1.30703 0.880598 0
M  V30 11848 C 1140.86 1.19541 1.62955 0
M  V30 11849 C 1141.18 -0.249089 1.93403 0
M  V30 11850 O 1140.45 -1.1669 1.57354 0
M  V30 11851 H 1139.03 0.439434 0.604075 0
M  V30 11852 H 1141.7 1.63888 1.05483 0
M  V30 11853 H 1140.79 1.75945 2.57779 0
M  V30 11854 N 1141.09 -1.09351 1.1349 0
M  V30 11855 C 1142.34 -1.80915 0.89177 0
M  V30 11856 C 1142.66 -1.86688 -0.5837 0
M  V30 11857 O 1143.86 -2.54568 -0.943788 0
M  V30 11858 C 1142.32 -3.25009 1.54587 0
M  V30 11859 C 1141.93 -3.27501 3.05691 0
M  V30 11860 C 1143.67 -4.01323 1.38346 0
M  V30 11861 C 1141.58 -4.66123 3.63983 0
M  V30 11862 H 1140.51 -0.677961 0.329978 0
M  V30 11863 H 1143.16 -1.22893 1.3627 0
M  V30 11864 H 1141.54 -3.83098 1.0026 0
M  V30 11865 H 1142.71 -2.79174 3.66604 0
M  V30 11866 H 1141.03 -2.64677 3.21457 0
M  V30 11867 H 1143.63 -5.03739 1.79307 0
M  V30 11868 H 1143.97 -4.15003 0.328404 0
M  V30 11869 H 1144.5 -3.49679 1.89656 0
M  V30 11870 H 1141.24 -4.57646 4.69298 0
M  V30 11871 H 1140.76 -5.14772 3.07848 0
M  V30 11872 H 1142.44 -5.35097 3.63703 0
M  V30 11873 N 1142.57 -0.928524 -1.27343 0
M  V30 11874 C 1143.5 -0.445627 -2.29208 0
M  V30 11875 C 1144.48 0.494508 -1.62753 0
M  V30 11876 O 1145.67 0.399082 -1.90055 0
M  V30 11877 C 1142.8 0.301684 -3.45987 0
M  V30 11878 C 1141.75 -0.550695 -4.24442 0
M  V30 11879 C 1141.08 0.325833 -5.33706 0
M  V30 11880 C 1142.38 -1.81559 -4.89728 0
M  V30 11881 H 1144.07 -1.29696 -2.69851 0
M  V30 11882 H 1141.62 -0.625085 -1.29725 0
M  V30 11883 H 1143.57 0.650455 -4.1635 0
M  V30 11884 H 1142.29 1.18705 -3.04264 0
M  V30 11885 H 1140.95 -0.882185 -3.55827 0
M  V30 11886 H 1140.6 1.21018 -4.88225 0
M  V30 11887 H 1140.3 -0.240994 -5.87106 0
M  V30 11888 H 1141.83 0.670156 -6.06911 0
M  V30 11889 H 1143.24 -1.53483 -5.52373 0
M  V30 11890 H 1141.64 -2.32598 -5.53189 0
M  V30 11891 H 1142.71 -2.53461 -4.13383 0
M  V30 11892 N 1144.05 1.41491 -0.694123 0
M  V30 11893 C 1145.3 2.0155 -0.224809 0
M  V30 11894 C 1145.63 1.54844 1.17205 0
M  V30 11895 O 1144.9 0.75899 1.7908 0
M  V30 11896 C 1145.19 3.59003 -0.280884 0
M  V30 11897 C 1145.04 4.15839 -1.71458 0
M  V30 11898 C 1146.36 4.38624 0.360122 0
M  V30 11899 H 1143.48 0.732293 -0.0831632 0
M  V30 11900 H 1146.12 1.68258 -0.882569 0
M  V30 11901 H 1144.27 3.87496 0.279164 0
M  V30 11902 H 1145.94 3.98227 -2.32837 0
M  V30 11903 H 1144.18 3.70936 -2.2492 0
M  V30 11904 H 1144.86 5.24997 -1.70536 0
M  V30 11905 H 1147.33 4.15936 -0.11683 0
M  V30 11906 H 1146.21 5.48132 0.290337 0
M  V30 11907 H 1146.47 4.1797 1.44062 0
M  V30 11908 N 1145.53 0.438773 1.51369 0
M  V30 11909 C 1146.77 -0.127401 2.02399 0
M  V30 11910 C 1147.11 -1.42235 1.32223 0
M  V30 11911 O 1146.38 -1.89513 0.437607 0
M  V30 11912 C 1146.66 -0.344673 3.58447 0
M  V30 11913 C 1146.52 0.969027 4.39238 0
M  V30 11914 C 1147.84 -1.11381 4.25773 0
M  V30 11915 H 1144.96 -0.0448281 0.735635 0
M  V30 11916 H 1147.6 0.57805 1.80993 0
M  V30 11917 H 1145.75 -0.945582 3.76817 0
M  V30 11918 H 1147.42 1.60403 4.32514 0
M  V30 11919 H 1145.66 1.57329 4.04265 0
M  V30 11920 H 1146.33 0.771029 5.46589 0
M  V30 11921 H 1148.81 -0.604785 4.11681 0
M  V30 11922 H 1147.69 -1.23459 5.34835 0
M  V30 11923 H 1147.95 -2.14225 3.8673 0
M  V30 11924 N 1147.01 -1.56678 0.170181 0
M  V30 11925 C 1148.42 -1.58512 -0.185999 0
M  V30 11926 C 1148.62 -1.18548 -1.62937 0
M  V30 11927 O 1147.68 -0.896554 -2.36047 0
M  V30 11928 C 1148.99 -3.00554 0.0937842 0
M  V30 11929 C 1150.54 -3.12984 0.0319057 0
M  V30 11930 C 1151.01 -4.57115 0.284664 0
M  V30 11931 N 1152.5 -4.62617 0.2324 0
M  V30 11932 C 1153.24 -5.71988 0.40216 0
M  V30 11933 N 1152.74 -6.89921 0.630915 0
M  V30 11934 N 1154.53 -5.61082 0.338144 0
M  V30 11935 H 1146.68 -1.80944 1.11235 0
M  V30 11936 H 1148.94 -0.838586 0.442128 0
M  V30 11937 H 1148.65 -3.34265 1.09362 0
M  V30 11938 H 1148.52 -3.72151 -0.615118 0
M  V30 11939 H 1150.91 -2.791 -0.958502 0
M  V30 11940 H 1150.99 -2.43825 0.773501 0
M  V30 11941 H 1150.63 -4.91707 1.27227 0
M  V30 11942 H 1150.56 -5.2443 -0.477529 0
M  V30 11943 H 1153.06 -3.7785 0.0611933 0
M  V30 11944 H 1153.37 -7.69153 0.749931 0
M  V30 11945 H 1151.71 -6.91787 0.667516 0
M  V30 11946 H 1154.9 -4.67826 0.16003 0
M  V30 11947 H 1155.08 -6.46265 0.473872 0
M  V30 11948 N 1148.48 0.103547 -1.57259 0
M  V30 11949 C 1149.73 0.806979 -1.8529 0
M  V30 11950 C 1150.05 1.79679 -0.757653 0
M  V30 11951 O 1149.32 1.94695 0.216913 0
M  V30 11952 H 1147.9 0.301012 -0.683667 0
M  V30 11953 H 1150.56 0.0871886 -1.94705 0
M  V30 11954 H 1149.66 1.34275 -2.81738 0
M  V30 11955 N 1149.96 1.53094 0.37415 0
M  V30 11956 C 1151.24 1.59456 1.13283 0
M  V30 11957 C 1151.62 0.396821 2.07337 0
M  V30 11958 O 1150.97 -0.613659 2.20106 0
M  V30 11959 C 1151.18 2.94069 1.87948 0
M  V30 11960 C 1152.52 3.4834 2.42785 0
M  V30 11961 O 1153.55 2.96042 1.98085 0
M  V30 11962 O 1152.41 4.39747 3.24477 0
M  V30 11963 H 1149.5 0.643731 0.519171 0
M  V30 11964 H 1152.05 1.65434 0.378105 0
M  V30 11965 H 1150.82 3.72685 1.19255 0
M  V30 11966 H 1150.44 2.91544 2.70348 0
M  V30 11967 N 1151.44 -0.633461 1.44309 0
M  V30 11968 C 1152.68 -1.40465 1.48489 0
M  V30 11969 C 1153.04 -1.91664 0.113519 0
M  V30 11970 O 1154.24 -2.68783 0.0299948 0
M  V30 11971 C 1152.52 -2.54041 2.51392 0
M  V30 11972 S 1154.07 -3.42256 2.74602 0
M  V30 11973 H 1150.89 -0.479228 0.525225 0
M  V30 11974 H 1153.49 -0.733561 1.81216 0
M  V30 11975 H 1152.2 -2.14734 3.49739 0
M  V30 11976 H 1151.73 -3.25979 2.2023 0
M  V30 11977 H 1153.74 -4.51409 2.06021 0
M  V30 11978 N 1152.92 -1.31168 -0.873655 0
M  V30 11979 C 1154.2 -1.11285 -1.60857 0
M  V30 11980 C 1154.58 0.333788 -2.08444 0
M  V30 11981 O 1153.92 1.32726 -1.86 0
M  V30 11982 C 1154.13 -2.12379 -2.7694 0
M  V30 11983 C 1155.48 -2.44704 -3.46994 0
M  V30 11984 O 1156.51 -2.10778 -2.87143 0
M  V30 11985 O 1155.36 -3.02786 -4.54954 0
M  V30 11986 H 1152.46 -0.428177 -0.707526 0
M  V30 11987 H 1155 -1.42634 -0.91944 0
M  V30 11988 H 1153.78 -3.09703 -2.39164 0
M  V30 11989 H 1153.4 -1.81914 -3.53544 0
M  V30 11990 N 1154.4 1.08748 -1.14068 0
M  V30 11991 C 1155.33 2.17591 -0.84714 0
M  V30 11992 C 1156.31 1.68962 0.196415 0
M  V30 11993 O 1157.49 1.94125 0.0538415 0
M  V30 11994 C 1154.62 3.45823 -0.320005 0
M  V30 11995 C 1153.58 4.07824 -1.2986 0
M  V30 11996 C 1152.9 5.30965 -0.630925 0
M  V30 11997 C 1154.2 4.49512 -2.65963 0
M  V30 11998 H 1155.9 2.42404 -1.75729 0
M  V30 11999 H 1153.44 1.16502 -0.846356 0
M  V30 12000 H 1155.4 4.21276 -0.102271 0
M  V30 12001 H 1154.12 3.20553 0.625561 0
M  V30 12002 H 1152.78 3.34398 -1.50245 0
M  V30 12003 H 1152.43 5.01979 0.320337 0
M  V30 12004 H 1152.13 5.73402 -1.28388 0
M  V30 12005 H 1153.65 6.09136 -0.422635 0
M  V30 12006 H 1155.06 5.16159 -2.49506 0
M  V30 12007 H 1153.46 5.02857 -3.27498 0
M  V30 12008 H 1154.53 3.6157 -3.23102 0
M  V30 12009 N 1155.87 0.935264 1.26849 0
M  V30 12010 C 1156.78 0.446122 2.30319 0
M  V30 12011 C 1157.8 -0.476965 1.67335 0
M  V30 12012 O 1158.98 -0.357934 1.98194 0
M  V30 12013 C 1156.04 -0.286297 3.45516 0
M  V30 12014 C 1155.1 0.672626 4.23998 0
M  V30 12015 C 1154.34 -0.0249345 5.33694 0
M  V30 12016 O 1154.56 -1.24296 5.56693 0
M  V30 12017 O 1153.49 0.650752 5.98372 0
M  V30 12018 H 1157.32 1.30546 2.74211 0
M  V30 12019 H 1154.9 0.70091 1.31938 0
M  V30 12020 H 1156.79 -0.699109 4.1556 0
M  V30 12021 H 1155.46 -1.12112 3.03665 0
M  V30 12022 H 1154.37 1.13527 3.56458 0
M  V30 12023 H 1155.7 1.47489 4.69583 0
M  V30 12024 N 1157.35 -1.41121 0.701616 0
M  V30 12025 C 1158.58 -2.05452 0.244365 0
M  V30 12026 C 1159 -1.5282 -1.10866 0
M  V30 12027 O 1158.35 -0.67893 -1.69401 0
M  V30 12028 C 1158.4 -3.60946 0.200112 0
M  V30 12029 O 1158.12 -4.11632 1.4997 0
M  V30 12030 C 1159.63 -4.42431 -0.277394 0
M  V30 12031 H 1156.85 -0.66151 0.112453 0
M  V30 12032 H 1159.39 -1.80784 0.9559 0
M  V30 12033 H 1157.54 -3.84632 -0.462287 0
M  V30 12034 H 1157.96 -5.05723 1.39084 0
M  V30 12035 H 1159.43 -5.514 -0.257225 0
M  V30 12036 H 1159.91 -4.1898 -1.31728 0
M  V30 12037 H 1160.52 -4.23822 0.354223 0
M  V30 12038 N 1158.83 -0.446794 -1.51134 0
M  V30 12039 C 1160.07 0.115546 -2.04073 0
M  V30 12040 C 1160.43 1.39137 -1.32306 0
M  V30 12041 O 1161.64 2.03455 -1.75668 0
M  V30 12042 C 1159.91 0.319657 -3.55968 0
M  V30 12043 S 1161.47 0.844045 -4.30606 0
M  V30 12044 H 1158.28 0.0274089 -0.710471 0
M  V30 12045 H 1160.89 -0.608368 -1.85793 0
M  V30 12046 H 1159.59 -0.615082 -4.05765 0
M  V30 12047 H 1159.12 1.07038 -3.78558 0
M  V30 12048 H 1161.14 2.12051 -4.48608 0
M  V30 12049 N 1160.31 1.56586 -0.178487 0
M  V30 12050 C 1161.72 1.58609 0.17759 0
M  V30 12051 C 1161.92 1.19411 1.62306 0
M  V30 12052 O 1160.98 0.90906 2.35568 0
M  V30 12053 C 1162.29 3.005 -0.109722 0
M  V30 12054 C 1163.84 3.12962 -0.0485036 0
M  V30 12055 C 1164.32 4.56957 -0.308901 0
M  V30 12056 N 1165.81 4.62487 -0.25693 0
M  V30 12057 C 1166.54 5.71767 -0.432488 0
M  V30 12058 N 1166.04 6.89577 -0.667494 0
M  V30 12059 N 1167.83 5.60895 -0.367895 0
M  V30 12060 H 1159.98 1.80351 -1.12193 0
M  V30 12061 H 1162.25 0.83623 -0.446569 0
M  V30 12062 H 1161.95 3.3368 -1.11133 0
M  V30 12063 H 1161.83 3.72472 0.595373 0
M  V30 12064 H 1164.21 2.79604 0.943687 0
M  V30 12065 H 1164.29 2.43411 -0.78642 0
M  V30 12066 H 1163.94 4.91025 -1.29833 0
M  V30 12067 H 1163.87 5.24676 0.449711 0
M  V30 12068 H 1166.36 3.77813 -0.0812308 0
M  V30 12069 H 1166.67 7.68744 -0.79071 0
M  V30 12070 H 1165.02 6.91423 -0.704193 0
M  V30 12071 H 1168.21 4.67735 -0.184837 0
M  V30 12072 H 1168.38 6.46005 -0.508138 0
M  V30 12073 N 1161.79 -0.095206 1.57312 0
M  V30 12074 C 1162.72 -1.14662 1.97301 0
M  V30 12075 C 1163.7 -1.38845 0.846212 0
M  V30 12076 O 1164.88 -1.52607 1.1065 0
M  V30 12077 C 1162.01 -2.49582 2.28968 0
M  V30 12078 C 1161.05 -2.41681 3.51415 0
M  V30 12079 S 1161.89 -1.83343 5.03136 0
M  V30 12080 C 1163.04 -3.19888 5.3798 0
M  V30 12081 H 1163.28 -0.805726 2.86174 0
M  V30 12082 H 1160.81 -0.302881 1.514 0
M  V30 12083 H 1162.77 -3.27202 2.47889 0
M  V30 12084 H 1161.43 -2.80841 1.40667 0
M  V30 12085 H 1160.62 -3.41122 3.71015 0
M  V30 12086 H 1160.22 -1.7219 3.32004 0
M  V30 12087 H 1162.52 -4.16161 5.34618 0
M  V30 12088 H 1163.46 -3.05093 6.39002 0
M  V30 12089 H 1163.87 -3.19414 4.6544 0
M  V30 12090 N 1163.26 -1.53291 -0.366026 0
M  V30 12091 C 1164.49 -1.73108 -1.1277 0
M  V30 12092 C 1164.9 -0.459662 -1.83531 0
M  V30 12093 O 1164.25 0.577151 -1.74398 0
M  V30 12094 C 1164.31 -2.84137 -2.20242 0
M  V30 12095 C 1163.97 -4.24503 -1.69252 0
M  V30 12096 C 1164.97 -5.06866 -1.15684 0
M  V30 12097 C 1162.65 -4.70912 -1.74778 0
M  V30 12098 C 1164.65 -6.33728 -0.683191 0
M  V30 12099 C 1162.33 -5.97752 -1.27025 0
M  V30 12100 C 1163.33 -6.78992 -0.738858 0
M  V30 12101 O 1163.02 -8.03452 -0.268375 0
M  V30 12102 H 1162.75 -0.582439 -0.343134 0
M  V30 12103 H 1165.31 -2.00828 -0.430969 0
M  V30 12104 H 1163.54 -2.5189 -2.93408 0
M  V30 12105 H 1165.23 -2.92136 -2.818 0
M  V30 12106 H 1165.99 -4.72185 -1.10753 0
M  V30 12107 H 1161.87 -4.07751 -2.15081 0
M  V30 12108 H 1165.41 -6.97086 -0.267746 0
M  V30 12109 H 1161.31 -6.31933 -1.31649 0
M  V30 12110 H 1162.08 -8.17581 -0.387745 0
M  V30 12111 N 1164.74 0.6258 -1.44643 0
M  V30 12112 C 1165.99 1.38125 -1.46984 0
M  V30 12113 C 1166.3 1.95299 -0.108429 0
M  V30 12114 O 1167.51 2.71498 -0.00940005 0
M  V30 12115 C 1165.97 2.50108 -2.58793 0
M  V30 12116 C 1165.57 1.99424 -4.01166 0
M  V30 12117 C 1167.32 3.27269 -2.70361 0
M  V30 12118 C 1165.23 3.08781 -5.04389 0
M  V30 12119 H 1164.16 0.519083 -0.546872 0
M  V30 12120 H 1166.81 0.67268 -1.70726 0
M  V30 12121 H 1165.19 3.23565 -2.28302 0
M  V30 12122 H 1166.36 1.32797 -4.4125 0
M  V30 12123 H 1164.68 1.35063 -3.93887 0
M  V30 12124 H 1167.27 4.08802 -3.44652 0
M  V30 12125 H 1167.62 3.77097 -1.76362 0
M  V30 12126 H 1168.15 2.60905 -3.00289 0
M  V30 12127 H 1164.89 2.63891 -6.00035 0
M  V30 12128 H 1164.41 3.74033 -4.68892 0
M  V30 12129 H 1166.09 3.73469 -5.28328 0
M  V30 12130 N 1166.22 1.31629 0.866686 0
M  V30 12131 C 1167.5 1.12136 1.60265 0
M  V30 12132 C 1167.88 -0.322729 2.08618 0
M  V30 12133 O 1167.23 -1.31738 1.86701 0
M  V30 12134 C 1167.44 2.13845 2.7581 0
M  V30 12135 C 1168.78 2.46541 3.45692 0
M  V30 12136 O 1169.81 2.12298 2.86021 0
M  V30 12137 O 1168.67 3.05194 4.53342 0
M  V30 12138 H 1165.76 0.431923 0.705246 0
M  V30 12139 H 1168.31 1.43119 0.911863 0
M  V30 12140 H 1167.08 3.10967 2.37518 0
M  V30 12141 H 1166.7 1.83786 3.52574 0
M  V30 12142 N 1167.7 -1.08142 1.14644 0
M  V30 12143 C 1169.12 -1.32656 0.887388 0
M  V30 12144 C 1169.32 -1.95942 -0.470012 0
M  V30 12145 O 1168.37 -2.21417 -1.21371 0
M  V30 12146 C 1169.68 -2.22549 2.02219 0
M  V30 12147 C 1171.23 -2.36021 2.0558 0
M  V30 12148 C 1171.71 -3.29257 3.18361 0
M  V30 12149 N 1173.2 -3.36835 3.17957 0
M  V30 12150 C 1173.93 -4.09017 4.01862 0
M  V30 12151 N 1173.43 -4.83882 4.95812 0
M  V30 12152 N 1175.22 -4.04875 3.89913 0
M  V30 12153 H 1167.37 -0.654457 2.02066 0
M  V30 12154 H 1169.64 -0.350947 0.880648 0
M  V30 12155 H 1169.34 -1.83296 3.00159 0
M  V30 12156 H 1169.22 -3.23027 1.94765 0
M  V30 12157 H 1171.6 -2.74531 1.08245 0
M  V30 12158 H 1171.68 -1.35275 2.17105 0
M  V30 12159 H 1171.33 -2.91468 4.15944 0
M  V30 12160 H 1171.26 -4.29938 3.04074 0
M  V30 12161 H 1173.75 -2.83465 2.49912 0
M  V30 12162 H 1174.06 -5.3643 5.56294 0
M  V30 12163 H 1172.41 -4.82926 4.99808 0
M  V30 12164 H 1175.6 -3.45496 3.15833 0
M  V30 12165 H 1175.77 -4.60866 4.55529 0
M  V30 12166 N 1169.18 -0.941978 -1.26351 0
M  V30 12167 C 1170.11 -0.469913 -2.28723 0
M  V30 12168 C 1171.09 0.477218 -1.63269 0
M  V30 12169 O 1172.27 0.378902 -1.90468 0
M  V30 12170 C 1169.4 0.264971 -3.46288 0
M  V30 12171 C 1168.36 -0.595682 -4.23834 0
M  V30 12172 C 1167.68 0.269208 -5.34022 0
M  V30 12173 C 1168.98 -1.86743 -4.87775 0
M  V30 12174 H 1170.68 -1.32551 -2.6846 0
M  V30 12175 H 1168.22 -0.638809 -1.29055 0
M  V30 12176 H 1170.18 0.606259 -4.17016 0
M  V30 12177 H 1168.9 1.15471 -3.05506 0
M  V30 12178 H 1167.56 -0.919875 -3.54872 0
M  V30 12179 H 1167.21 1.15832 -4.89481 0
M  V30 12180 H 1166.91 -0.30325 -5.86817 0
M  V30 12181 H 1168.43 0.605748 -6.07588 0
M  V30 12182 H 1169.85 -1.59333 -5.50714 0
M  V30 12183 H 1168.24 -2.38452 -5.50691 0
M  V30 12184 H 1169.31 -2.57831 -4.10671 0
M  V30 12185 N 1170.66 1.40747 -0.709091 0
M  V30 12186 C 1171.59 2.29196 -0.0130359 0
M  V30 12187 C 1172.6 1.45491 0.730487 0
M  V30 12188 O 1173.79 1.6885 0.578944 0
M  V30 12189 C 1170.89 3.23632 1.00577 0
M  V30 12190 C 1170.06 4.3616 0.329105 0
M  V30 12191 C 1169.12 5.11079 1.25239 0
M  V30 12192 O 1168.15 5.64374 0.739641 0
M  V30 12193 N 1169.35 5.1982 2.58394 0
M  V30 12194 H 1172.11 2.89574 -0.772462 0
M  V30 12195 H 1169.68 1.52046 -0.556197 0
M  V30 12196 H 1171.67 3.70622 1.62546 0
M  V30 12197 H 1170.24 2.64467 1.66661 0
M  V30 12198 H 1169.46 3.9138 -0.470683 0
M  V30 12199 H 1170.75 5.08605 -0.140856 0
M  V30 12200 H 1170.14 4.77992 3.02556 0
M  V30 12201 H 1168.7 5.7034 3.15524 0
M  V30 12202 N 1172.13 0.454803 1.50895 0
M  V30 12203 C 1173.04 -0.353495 2.31921 0
M  V30 12204 C 1174.06 -1.01136 1.41589 0
M  V30 12205 O 1175.24 -1.00291 1.74653 0
M  V30 12206 C 1172.3 -1.43032 3.15821 0
M  V30 12207 C 1171.36 -0.790763 4.21954 0
M  V30 12208 C 1170.59 -1.81628 5.01843 0
M  V30 12209 O 1170.82 -3.04078 4.8259 0
M  V30 12210 O 1169.75 -1.39713 5.8546 0
M  V30 12211 H 1173.58 0.308463 3.02129 0
M  V30 12212 H 1171.16 0.216971 1.47816 0
M  V30 12213 H 1173.04 -2.05444 3.67927 0
M  V30 12214 H 1171.72 -2.07605 2.48358 0
M  V30 12215 H 1170.63 -0.128127 3.73881 0
M  V30 12216 H 1171.96 -0.188251 4.9184 0
M  V30 12217 N 1173.61 -1.56489 0.186789 0
M  V30 12218 C 1174.89 -1.89066 -0.501337 0
M  V30 12219 C 1175.27 -1.09906 -1.80233 0
M  V30 12220 O 1174.62 -0.197626 -2.27644 0
M  V30 12221 C 1174.83 -3.41318 -0.728207 0
M  V30 12222 C 1176.17 -4.11379 -1.0513 0
M  V30 12223 O 1177.2 -3.46722 -0.816216 0
M  V30 12224 O 1176.06 -5.25638 -1.49557 0
M  V30 12225 H 1173.15 -0.784966 -0.260303 0
M  V30 12226 H 1175.7 -1.68183 0.226382 0
M  V30 12227 H 1174.47 -3.90834 0.19088 0
M  V30 12228 H 1174.09 -3.67865 -1.50869 0
M  V30 12229 N 1175.09 0.086862 -1.5736 0
M  V30 12230 C 1176.02 1.10538 -2.05678 0
M  V30 12231 C 1177 1.41281 -0.947293 0
M  V30 12232 O 1178.19 1.51169 -1.21908 0
M  V30 12233 C 1175.32 2.42302 -2.48812 0
M  V30 12234 C 1174.27 2.25948 -3.63499 0
M  V30 12235 C 1173.6 3.62961 -3.92637 0
M  V30 12236 C 1174.9 1.69319 -4.94094 0
M  V30 12237 H 1176.59 0.703371 -2.91021 0
M  V30 12238 H 1174.14 0.336895 -1.40004 0
M  V30 12239 H 1176.09 3.13833 -2.81224 0
M  V30 12240 H 1174.81 2.84454 -1.60479 0
M  V30 12241 H 1173.47 1.5686 -3.31347 0
M  V30 12242 H 1173.12 4.02656 -3.01459 0
M  V30 12243 H 1172.82 3.52862 -4.69853 0
M  V30 12244 H 1174.34 4.35946 -4.27531 0
M  V30 12245 H 1175.76 2.30699 -5.24834 0
M  V30 12246 H 1174.15 1.69957 -5.7553 0
M  V30 12247 H 1175.22 0.653318 -4.80479 0
M  V30 12248 N 1176.57 1.53483 0.357892 0
M  V30 12249 C 1177.5 1.76757 1.4591 0
M  V30 12250 C 1178.51 0.648502 1.49326 0
M  V30 12251 O 1179.7 0.924932 1.52667 0
M  V30 12252 C 1176.8 1.83938 2.8464 0
M  V30 12253 C 1175.97 3.13683 3.04831 0
M  V30 12254 C 1175.03 3.12007 4.23719 0
M  V30 12255 O 1174.06 3.8578 4.18524 0
M  V30 12256 N 1175.26 2.33366 5.31527 0
M  V30 12257 H 1178.03 2.71778 1.2632 0
M  V30 12258 H 1175.59 1.52355 0.547673 0
M  V30 12259 H 1177.58 1.80285 3.62325 0
M  V30 12260 H 1176.15 0.961675 2.9744 0
M  V30 12261 H 1175.37 3.30576 2.14739 0
M  V30 12262 H 1176.66 3.99412 3.15194 0
M  V30 12263 H 1176.06 1.72954 5.38613 0
M  V30 12264 H 1174.61 2.35524 6.07759 0
M  V30 12265 N 1178.05 -0.61812 1.44973 0
M  V30 12266 C 1179.27 -1.40921 1.52171 0
M  V30 12267 C 1179.7 -1.87487 0.151755 0
M  V30 12268 O 1179.05 -1.59518 -0.861606 0
M  V30 12269 C 1179.1 -2.59689 2.50188 0
M  V30 12270 O 1178.21 -3.59967 2.0124 0
M  V30 12271 H 1177.55 -0.421138 0.51336 0
M  V30 12272 H 1180.08 -0.753258 1.90229 0
M  V30 12273 H 1180.09 -3.07069 2.6865 0
M  V30 12274 H 1178.76 -2.25144 3.4969 0
M  V30 12275 H 1177.34 -3.19308 1.92605 0
M  V30 12276 N 1179.52 -1.32087 -0.859693 0
M  V30 12277 C 1180.77 -1.22542 -1.6159 0
M  V30 12278 C 1181.1 0.213533 -1.93022 0
M  V30 12279 O 1180.38 1.14931 -1.56911 0
M  V30 12280 C 1180.66 -2.08004 -2.93949 0
M  V30 12281 C 1180.51 -3.60252 -2.6933 0
M  V30 12282 C 1181.83 -1.93732 -3.95166 0
M  V30 12283 H 1178.95 -0.446504 -0.586347 0
M  V30 12284 H 1181.59 -1.61982 -0.993064 0
M  V30 12285 H 1179.74 -1.74498 -3.47106 0
M  V30 12286 H 1181.42 -4.03947 -2.22766 0
M  V30 12287 H 1179.66 -3.83169 -2.03382 0
M  V30 12288 H 1180.33 -4.1537 -3.63555 0
M  V30 12289 H 1182.81 -2.23075 -3.5125 0
M  V30 12290 H 1181.68 -2.55815 -4.85644 0
M  V30 12291 H 1181.94 -0.903528 -4.32769 0
M  V30 12292 N 1181 1.07532 -1.15215 0
M  V30 12293 C 1182.23 1.84356 -0.950139 0
M  V30 12294 C 1182.65 1.81429 0.496502 0
M  V30 12295 O 1182.01 1.20589 1.35381 0
M  V30 12296 C 1182.06 3.29425 -1.46669 0
M  V30 12297 O 1181.16 4.07008 -0.664674 0
M  V30 12298 H 1180.5 0.570921 -0.339036 0
M  V30 12299 H 1183.03 1.35665 -1.53154 0
M  V30 12300 H 1183.04 3.8026 -1.47873 0
M  V30 12301 H 1181.72 3.3087 -2.51988 0
M  V30 12302 H 1180.29 3.65841 -0.72211 0
M  V30 12303 N 1182.48 0.948665 1.2585 0
M  V30 12304 C 1183.71 0.616741 1.98018 0
M  V30 12305 C 1184.13 -0.803005 1.70098 0
M  V30 12306 O 1183.49 -1.54208 0.953392 0
M  V30 12307 C 1183.54 0.874429 3.49837 0
M  V30 12308 O 1182.64 -0.0497568 4.1237 0
M  V30 12309 H 1181.98 0.235112 0.620982 0
M  V30 12310 H 1184.51 1.27364 1.60124 0
M  V30 12311 H 1184.52 0.798309 4.00114 0
M  V30 12312 H 1183.2 1.90922 3.69488 0
M  V30 12313 H 1181.77 0.0780591 3.72818 0
M  V30 12314 N 1183.96 -1.40369 0.716545 0
M  V30 12315 C 1185.21 -2.00473 0.255959 0
M  V30 12316 C 1185.53 -1.57104 -1.15514 0
M  V30 12317 O 1184.8 -0.810925 -1.78328 0
M  V30 12318 H 1183.38 -0.741357 0.0916427 0
M  V30 12319 H 1186.04 -1.71692 0.922389 0
M  V30 12320 H 1185.14 -3.10752 0.289806 0
M  V30 12321 N 1185.44 -0.462799 -1.50652 0
M  V30 12322 C 1186.66 0.0952726 -2.07181 0
M  V30 12323 C 1187.09 1.33479 -1.32533 0
M  V30 12324 O 1186.44 1.77473 -0.370564 0
M  V30 12325 C 1186.49 0.370592 -3.58691 0
M  V30 12326 O 1185.6 1.4526 -3.85971 0
M  V30 12327 H 1184.94 -0.00932702 -0.663934 0
M  V30 12328 H 1187.47 -0.651458 -1.93951 0
M  V30 12329 H 1187.48 0.613551 -4.0336 0
M  V30 12330 H 1186.15 -0.535219 -4.12442 0
M  V30 12331 H 1184.73 1.1976 -3.53146 0
M  V30 12332 N 1186.91 1.56388 -0.195085 0
M  V30 12333 C 1187.85 2.16316 0.757643 0
M  V30 12334 C 1188.86 1.12498 1.17678 0
M  V30 12335 O 1190.05 1.39591 1.11251 0
M  V30 12336 C 1187.15 2.7104 2.03447 0
M  V30 12337 C 1186.32 3.99759 1.77514 0
M  V30 12338 C 1185.38 4.3931 2.89644 0
M  V30 12339 O 1184.41 5.06732 2.59252 0
M  V30 12340 N 1185.61 4.02813 4.17998 0
M  V30 12341 H 1188.37 2.98696 0.24517 0
M  V30 12342 H 1185.93 1.61895 -0.0131194 0
M  V30 12343 H 1187.93 2.94483 2.776 0
M  V30 12344 H 1186.5 1.93114 2.45817 0
M  V30 12345 H 1185.72 3.84448 0.8714 0
M  V30 12346 H 1187 4.83782 1.57585 0
M  V30 12347 H 1186.4 3.4858 4.45543 0
M  V30 12348 H 1184.96 4.31206 4.88779 0
M  V30 12349 N 1188.39 -0.0785156 1.57404 0
M  V30 12350 C 1189.81 -0.433143 1.5361 0
M  V30 12351 C 1190.01 -1.79564 0.914283 0
M  V30 12352 O 1189.06 -2.47215 0.513899 0
M  V30 12353 C 1190.38 -0.380387 2.98284 0
M  V30 12354 C 1191.93 -0.461056 3.09586 0
M  V30 12355 C 1192.4 -0.438276 4.55898 0
M  V30 12356 N 1193.89 -0.498548 4.60509 0
M  V30 12357 C 1194.63 -0.503028 5.71189 0
M  V30 12358 N 1194.12 -0.462724 6.91253 0
M  V30 12359 N 1195.92 -0.549083 5.59412 0
M  V30 12360 H 1188.07 0.813724 1.96195 0
M  V30 12361 H 1190.33 0.304644 0.897717 0
M  V30 12362 H 1190.04 0.553932 3.4731 0
M  V30 12363 H 1189.91 -1.19313 3.57833 0
M  V30 12364 H 1192.3 -1.3858 2.60537 0
M  V30 12365 H 1192.38 0.380138 2.5296 0
M  V30 12366 H 1192.02 0.482588 5.05602 0
M  V30 12367 H 1191.95 -1.29691 5.1038 0
M  V30 12368 H 1194.44 -0.534219 3.74105 0
M  V30 12369 H 1194.76 -0.469883 7.7137 0
M  V30 12370 H 1193.1 -0.429515 6.93672 0
M  V30 12371 H 1196.29 -0.578215 4.64515 0
M  V30 12372 H 1196.46 -0.549105 6.45669 0
M  V30 12373 N 1189.87 -1.5367 -0.349747 0
M  V30 12374 C 1191.12 -1.7087 -1.0923 0
M  V30 12375 C 1191.45 -0.467299 -1.88494 0
M  V30 12376 O 1190.72 0.535619 -1.8698 0
M  V30 12377 C 1191.01 -2.9684 -2.03858 0
M  V30 12378 C 1190.86 -4.31174 -1.28097 0
M  V30 12379 C 1192.18 -3.18459 -3.03763 0
M  V30 12380 H 1189.3 -0.621757 -0.395711 0
M  V30 12381 H 1191.94 -1.86333 -0.371481 0
M  V30 12382 H 1190.09 -2.83788 -2.65323 0
M  V30 12383 H 1191.76 -4.56066 -0.692933 0
M  V30 12384 H 1190.01 -4.29866 -0.582924 0
M  V30 12385 H 1190.68 -5.15482 -1.9744 0
M  V30 12386 H 1193.15 -3.30801 -2.52409 0
M  V30 12387 H 1192.03 -4.08006 -3.67182 0
M  V30 12388 H 1192.29 -2.34467 -3.74803 0
M  V30 12389 N 1191.35 0.610423 -1.45298 0
M  V30 12390 C 1192.3 1.71552 -1.5018 0
M  V30 12391 C 1193.28 1.56697 -0.365357 0
M  V30 12392 O 1194.47 1.66082 -0.612029 0
M  V30 12393 C 1191.6 3.10298 -1.46867 0
M  V30 12394 C 1190.69 3.30549 -2.65703 0
M  V30 12395 N 1191.08 3.21073 -3.90827 0
M  V30 12396 C 1189.38 3.6141 -2.6134 0
M  V30 12397 C 1190.08 3.42577 -4.70123 0
M  V30 12398 N 1189.06 3.66434 -4.01531 0
M  V30 12399 H 1192.86 1.62714 -2.44747 0
M  V30 12400 H 1190.37 0.813587 -1.40551 0
M  V30 12401 H 1192.37 3.89575 -1.48449 0
M  V30 12402 H 1191.03 3.20286 -0.533548 0
M  V30 12403 H 1192.04 2.99537 -4.2249 0
M  V30 12404 H 1188.72 3.78253 -1.76722 0
M  V30 12405 H 1190.11 3.40669 -5.79132 0
M  V30 12406 N 1192.83 1.32541 0.852676 0
M  V30 12407 C 1194.06 1.26037 1.63702 0
M  V30 12408 C 1194.46 -0.173583 1.88402 0
M  V30 12409 O 1193.81 -1.12175 1.45473 0
M  V30 12410 C 1193.87 1.95245 3.01861 0
M  V30 12411 C 1193.53 3.44576 3.00193 0
M  V30 12412 C 1194.53 4.40026 2.76899 0
M  V30 12413 C 1192.22 3.86541 3.20766 0
M  V30 12414 C 1194.21 5.75414 2.74185 0
M  V30 12415 C 1191.9 5.22038 3.17678 0
M  V30 12416 C 1192.89 6.16286 2.94416 0
M  V30 12417 O 1192.58 7.49303 2.91206 0
M  V30 12418 H 1192.31 0.436073 0.516543 0
M  V30 12419 H 1194.87 1.75251 1.07127 0
M  V30 12420 H 1193.1 1.40603 3.60233 0
M  V30 12421 H 1194.79 1.82423 3.62597 0
M  V30 12422 H 1195.55 4.0893 2.6077 0
M  V30 12423 H 1191.43 3.13603 3.37897 0
M  V30 12424 H 1194.98 6.4895 2.55947 0
M  V30 12425 H 1190.87 5.52762 3.33353 0
M  V30 12426 H 1191.64 7.58686 3.07146 0
M  V30 12427 N 1194.3 -1.0692 1.15784 0
M  V30 12428 C 1195.24 -2.14168 0.816375 0
M  V30 12429 C 1196.25 -1.61872 -0.17357 0
M  V30 12430 O 1197.44 -1.78429 0.0502973 0
M  V30 12431 C 1194.54 -3.38346 0.193682 0
M  V30 12432 C 1193.71 -4.19979 1.22215 0
M  V30 12433 C 1192.77 -5.2253 0.620424 0
M  V30 12434 O 1191.8 -5.54446 1.28757 0
M  V30 12435 N 1193 -5.77434 -0.595811 0
M  V30 12436 H 1195.76 -2.44062 1.73937 0
M  V30 12437 H 1193.32 -1.22865 1.05431 0
M  V30 12438 H 1195.32 -4.04092 -0.22174 0
M  V30 12439 H 1193.89 -3.06129 -0.632735 0
M  V30 12440 H 1193.11 -3.49984 1.81397 0
M  V30 12441 H 1194.39 -4.71329 1.91641 0
M  V30 12442 H 1193.79 -5.5376 -1.15611 0
M  V30 12443 H 1192.35 -6.44788 -0.953529 0
M  V30 12444 N 1195.78 -0.955326 -1.25345 0
M  V30 12445 C 1197.06 -0.527828 -1.88344 0
M  V30 12446 C 1197.44 0.994911 -1.86185 0
M  V30 12447 O 1196.79 1.86099 -1.32587 0
M  V30 12448 C 1197 -1.10525 -3.31037 0
M  V30 12449 C 1198.35 -1.18253 -4.07801 0
M  V30 12450 O 1199.37 -1.05685 -3.4016 0
M  V30 12451 O 1198.23 -1.37978 -5.28795 0
M  V30 12452 H 1195.32 -0.174206 -0.808444 0
M  V30 12453 H 1197.87 -1.0488 -1.3341 0
M  V30 12454 H 1196.64 -2.14847 -3.27042 0
M  V30 12455 H 1196.26 -0.567568 -3.93528 0
M  V30 12456 N 1197.26 1.39987 -0.723979 0
M  V30 12457 C 1198.21 2.27938 -0.0531058 0
M  V30 12458 C 1199.2 1.43693 0.723965 0
M  V30 12459 O 1200.39 1.66707 0.594785 0
M  V30 12460 C 1197.52 3.32311 0.861659 0
M  V30 12461 C 1196.6 4.24026 0.079327 0
M  V30 12462 N 1196.99 4.96954 -0.941805 0
M  V30 12463 C 1195.29 4.44917 0.310637 0
M  V30 12464 C 1195.99 5.64287 -1.41261 0
M  V30 12465 N 1194.97 5.38632 -0.733217 0
M  V30 12466 H 1198.77 2.81771 -0.835608 0
M  V30 12467 H 1196.28 1.52538 -0.557315 0
M  V30 12468 H 1198.28 3.94174 1.35766 0
M  V30 12469 H 1196.94 2.80038 1.64344 0
M  V30 12470 H 1197.95 5.0072 -1.32288 0
M  V30 12471 H 1194.63 4.03606 1.06809 0
M  V30 12472 H 1196.02 6.32695 -2.26155 0
M  V30 12473 N 1198.74 0.470782 1.50404 0
M  V30 12474 C 1199.65 -0.328877 2.32283 0
M  V30 12475 C 1200.67 -0.99629 1.42654 0
M  V30 12476 O 1201.84 -0.984331 1.75707 0
M  V30 12477 C 1198.91 -1.39675 3.1732 0
M  V30 12478 C 1197.97 -0.745965 4.22769 0
M  V30 12479 C 1197.2 -1.76295 5.03742 0
M  V30 12480 O 1197.42 -2.98943 4.85788 0
M  V30 12481 O 1196.36 -1.33495 5.86909 0
M  V30 12482 H 1200.18 0.340491 3.01785 0
M  V30 12483 H 1197.77 0.232637 1.47578 0
M  V30 12484 H 1199.65 -2.0153 3.70086 0
M  V30 12485 H 1198.33 -2.04959 2.50546 0
M  V30 12486 H 1197.23 -0.0884647 3.73995 0
M  V30 12487 H 1198.57 -0.136074 4.92012 0
M  V30 12488 N 1200.22 -1.56282 0.203376 0
M  V30 12489 C 1201.45 -2.02198 -0.438572 0
M  V30 12490 C 1201.86 -1.08343 -1.54619 0
M  V30 12491 O 1201.22 -0.0897594 -1.82279 0
M  V30 12492 C 1201.27 -3.4776 -0.987184 0
M  V30 12493 O 1200.99 -4.38034 0.0762552 0
M  V30 12494 C 1202.49 -4.09234 -1.70419 0
M  V30 12495 H 1199.71 -0.662041 -0.109282 0
M  V30 12496 H 1202.25 -2.02067 0.314509 0
M  V30 12497 H 1200.41 -3.48564 -1.69061 0
M  V30 12498 H 1200.82 -5.2344 -0.333322 0
M  V30 12499 H 1202.3 -5.1291 -2.04027 0
M  V30 12500 H 1202.77 -3.53172 -2.61087 0
M  V30 12501 H 1203.38 -4.12226 -1.04641 0
M  V30 12502 N 1201.7 0.070167 -1.57444 0
M  V30 12503 C 1202.92 0.785703 -1.91941 0
M  V30 12504 C 1203.35 1.70243 -0.799932 0
M  V30 12505 O 1202.7 1.79608 0.247139 0
M  V30 12506 C 1202.75 1.55398 -3.25398 0
M  V30 12507 O 1201.86 2.66475 -3.14746 0
M  V30 12508 H 1201.2 0.214245 -0.628486 0
M  V30 12509 H 1203.73 0.0379243 -2.04565 0
M  V30 12510 H 1203.74 1.93287 -3.5931 0
M  V30 12511 H 1202.41 0.881366 -4.06454 0
M  V30 12512 H 1200.99 2.3143 -2.92394 0
M  V30 12513 N 1203.17 1.53854 0.341593 0
M  V30 12514 C 1204.42 1.71194 1.08162 0
M  V30 12515 C 1204.75 0.47614 1.88582 0
M  V30 12516 O 1204 -0.542115 1.88041 0
M  V30 12517 C 1204.3 2.92844 2.04884 0
M  V30 12518 C 1203.97 4.28366 1.40759 0
M  V30 12519 C 1202.63 4.65214 1.23 0
M  V30 12520 C 1204.98 5.12546 0.945819 0
M  V30 12521 C 1202.31 5.83857 0.576852 0
M  V30 12522 C 1204.66 6.31857 0.306568 0
M  V30 12523 C 1203.33 6.67398 0.116677 0
M  V30 12524 H 1202.6 0.626442 0.395792 0
M  V30 12525 H 1205.24 1.88073 0.360688 0
M  V30 12526 H 1203.55 2.70576 2.83365 0
M  V30 12527 H 1205.25 3.03454 2.62139 0
M  V30 12528 H 1201.84 3.99366 1.5558 0
M  V30 12529 H 1206.02 4.84609 1.07087 0
M  V30 12530 H 1201.28 6.09967 0.418363 0
M  V30 12531 H 1205.45 6.96375 -0.0593285 0
M  V30 12532 H 1203.08 7.59191 -0.391477 0
M  V30 12533 N 1204.65 -0.602709 1.4562 0
M  V30 12534 C 1206.06 -1.1847 1.44297 0
M  V30 12535 C 1206.41 -1.95434 0.17316 0
M  V30 12536 O 1205.54 -2.03894 -0.724986 0
M  V30 12537 C 1206.13 -2.15508 2.61422 0
M  V30 12538 C 1204.69 -2.69073 2.63204 0
M  V30 12539 C 1203.84 -1.44568 2.36633 0
M  V30 12540 H 1206.79 -0.391745 1.53789 0
M  V30 12541 H 1206.81 -2.98628 2.35799 0
M  V30 12542 H 1206.32 -1.59464 3.53826 0
M  V30 12543 H 1204.42 -3.29042 1.7482 0
M  V30 12544 H 1204.54 -3.13173 3.62573 0
M  V30 12545 H 1202.9 -1.73692 1.86287 0
M  V30 12546 H 1203.68 -0.903852 3.31188 0
M  V30 12547 N 1206.13 -1.32992 -0.845635 0
M  V30 12548 C 1207.55 -1.12179 -1.13526 0
M  V30 12549 C 1207.75 0.091795 -2.01291 0
M  V30 12550 O 1206.8 0.774051 -2.40343 0
M  V30 12551 C 1208.11 -2.40584 -1.80388 0
M  V30 12552 C 1209.66 -2.46427 -1.92984 0
M  V30 12553 C 1210.14 -3.74776 -2.63261 0
M  V30 12554 N 1211.63 -3.75809 -2.7078 0
M  V30 12555 C 1212.36 -4.71829 -3.2583 0
M  V30 12556 N 1211.86 -5.78219 -3.81621 0
M  V30 12557 N 1213.65 -4.59313 -3.24018 0
M  V30 12558 H 1205.8 -2.10786 -0.261369 0
M  V30 12559 H 1208.07 -0.931053 -0.17845 0
M  V30 12560 H 1207.77 -3.29357 -1.23357 0
M  V30 12561 H 1207.65 -2.52225 -2.80468 0
M  V30 12562 H 1210.03 -1.58108 -2.4917 0
M  V30 12563 H 1210.11 -2.38732 -0.918732 0
M  V30 12564 H 1209.76 -4.63474 -2.07736 0
M  V30 12565 H 1209.69 -3.79746 -3.6483 0
M  V30 12566 H 1212.18 -2.98916 -2.31209 0
M  V30 12567 H 1212.49 -6.47531 -4.2181 0
M  V30 12568 H 1210.84 -5.81962 -3.79927 0
M  V30 12569 H 1214.03 -3.75358 -2.79685 0
M  V30 12570 H 1214.2 -5.34316 -3.6662 0
M  V30 12571 N 1207.61 1.06304 -1.1635 0
M  V30 12572 C 1208.57 2.11947 -0.872419 0
M  V30 12573 C 1209.57 1.60253 0.132534 0
M  V30 12574 O 1210.76 1.73922 -0.0983441 0
M  V30 12575 C 1207.89 3.39536 -0.304646 0
M  V30 12576 H 1209.09 2.39201 -1.80894 0
M  V30 12577 H 1206.64 1.22367 -0.972419 0
M  V30 12578 H 1207.37 3.17931 0.639565 0
M  V30 12579 H 1207.16 3.78363 -1.02878 0
M  V30 12580 H 1208.65 4.17431 -0.118936 0
M  V30 12581 N 1209.09 0.96196 1.24836 0
M  V30 12582 C 1210.02 0.506241 2.27946 0
M  V30 12583 C 1211 -0.451183 1.64007 0
M  V30 12584 O 1212.18 -0.348552 1.91046 0
M  V30 12585 C 1209.31 -0.209846 3.46665 0
M  V30 12586 C 1208.27 0.663035 4.22833 0
M  V30 12587 C 1207.59 -0.184216 5.34383 0
M  V30 12588 C 1208.89 1.94479 4.84742 0
M  V30 12589 H 1210.59 1.36805 2.66317 0
M  V30 12590 H 1208.13 0.65926 1.28023 0
M  V30 12591 H 1210.08 -0.539838 4.17928 0
M  V30 12592 H 1208.81 -1.10596 3.07305 0
M  V30 12593 H 1207.47 0.976216 3.53363 0
M  V30 12594 H 1207.12 -1.08031 4.91262 0
M  V30 12595 H 1206.82 0.39657 5.8626 0
M  V30 12596 H 1208.34 -0.509009 6.08475 0
M  V30 12597 H 1209.75 1.68074 5.48109 0
M  V30 12598 H 1208.15 2.47183 5.46828 0
M  V30 12599 H 1209.22 2.64332 4.06517 0
M  V30 12600 N 1210.56 -1.39601 0.731392 0
M  V30 12601 C 1211.79 -2.05411 0.286532 0
M  V30 12602 C 1212.21 -1.54777 -1.06892 0
M  V30 12603 O 1211.57 -0.689942 -1.67659 0
M  V30 12604 C 1211.62 -3.594 0.293914 0
M  V30 12605 O 1210.72 -4.06072 -0.719657 0
M  V30 12606 H 1210.06 -0.650949 0.131004 0
M  V30 12607 H 1212.59 -1.78703 0.996305 0
M  V30 12608 H 1212.6 -4.0777 0.137052 0
M  V30 12609 H 1211.28 -3.95617 1.28298 0
M  V30 12610 H 1209.86 -3.69125 -0.529226 0
M  V30 12611 N 1212.04 -0.478751 -1.50152 0
M  V30 12612 C 1213.01 0.300181 -2.27226 0
M  V30 12613 C 1214.01 0.913705 -1.32318 0
M  V30 12614 O 1215.2 0.781692 -1.55677 0
M  V30 12615 C 1212.33 1.42838 -3.09532 0
M  V30 12616 H 1213.52 -0.375845 -2.97536 0
M  V30 12617 H 1211.07 -0.233037 -1.54553 0
M  V30 12618 H 1211.81 2.13923 -2.43737 0
M  V30 12619 H 1211.59 0.994161 -3.79287 0
M  V30 12620 H 1213.08 1.97765 -3.67802 0
M  V30 12621 N 1213.52 1.56172 -0.211661 0
M  V30 12622 C 1214.45 2.17107 0.734657 0
M  V30 12623 C 1215.47 1.1374 1.16478 0
M  V30 12624 O 1216.65 1.40763 1.09764 0
M  V30 12625 C 1213.75 2.73182 2.00561 0
M  V30 12626 C 1212.93 4.0162 1.73264 0
M  V30 12627 C 1211.99 4.42357 2.84968 0
M  V30 12628 O 1211.01 5.09453 2.53863 0
M  V30 12629 N 1212.21 4.07223 4.13702 0
M  V30 12630 H 1214.98 2.98939 0.213475 0
M  V30 12631 H 1212.54 1.61872 -0.0302898 0
M  V30 12632 H 1214.53 2.97411 2.74461 0
M  V30 12633 H 1213.1 1.9571 2.43754 0
M  V30 12634 H 1212.32 3.85351 0.830575 0
M  V30 12635 H 1213.61 4.85426 1.52445 0
M  V30 12636 H 1213.01 3.53286 4.4182 0
M  V30 12637 H 1211.57 4.36366 4.84178 0
M  V30 12638 N 1215 -0.0618163 1.57479 0
M  V30 12639 C 1216.41 -0.416827 1.54061 0
M  V30 12640 C 1216.61 -1.78584 0.933277 0
M  V30 12641 O 1215.67 -2.46656 0.54009 0
M  V30 12642 C 1216.98 -0.348728 2.98671 0
M  V30 12643 C 1218.53 -0.428194 3.10057 0
M  V30 12644 C 1219.01 -0.389898 4.56337 0
M  V30 12645 N 1220.5 -0.449677 4.61012 0
M  V30 12646 C 1221.23 -0.442418 5.71691 0
M  V30 12647 N 1220.73 -0.389381 6.91705 0
M  V30 12648 N 1222.52 -0.489719 5.59963 0
M  V30 12649 H 1214.67 0.834487 1.9532 0
M  V30 12650 H 1216.94 0.314149 0.894435 0
M  V30 12651 H 1216.64 0.590738 3.46703 0
M  V30 12652 H 1216.52 -1.15511 3.59078 0
M  V30 12653 H 1218.9 -1.35808 2.61992 0
M  V30 12654 H 1218.98 0.406946 2.52542 0
M  V30 12655 H 1218.63 0.536186 5.05062 0
M  V30 12656 H 1218.56 -1.24271 5.11727 0
M  V30 12657 H 1221.05 -0.49451 3.74651 0
M  V30 12658 H 1221.36 -0.388042 7.71825 0
M  V30 12659 H 1219.71 -0.355918 6.94088 0
M  V30 12660 H 1222.9 -0.528915 4.65102 0
M  V30 12661 H 1223.07 -0.480592 6.46215 0
M  V30 12662 N 1216.48 -1.54033 -0.333429 0
M  V30 12663 C 1217.41 -1.85719 -1.4153 0
M  V30 12664 C 1218.39 -0.713144 -1.54429 0
M  V30 12665 O 1219.57 -0.965984 -1.68471 0
M  V30 12666 C 1216.7 -2.07578 -2.78439 0
M  V30 12667 C 1215.66 -3.23411 -2.80338 0
M  V30 12668 C 1214.98 -3.30622 -4.2023 0
M  V30 12669 C 1216.28 -4.6129 -2.44968 0
M  V30 12670 H 1217.98 -2.76325 -1.15261 0
M  V30 12671 H 1215.52 -1.32957 -0.55303 0
M  V30 12672 H 1217.48 -2.28329 -3.5418 0
M  V30 12673 H 1216.2 -1.13713 -3.06165 0
M  V30 12674 H 1214.86 -3.02531 -2.07052 0
M  V30 12675 H 1214.51 -2.34333 -4.45081 0
M  V30 12676 H 1214.21 -4.08466 -4.22409 0
M  V30 12677 H 1215.73 -3.53596 -4.97798 0
M  V30 12678 H 1217.14 -4.81987 -3.10421 0
M  V30 12679 H 1215.54 -5.41611 -2.58414 0
M  V30 12680 H 1216.61 -4.6421 -1.40134 0
M  V30 12681 N 1217.95 0.594978 -1.45938 0
M  V30 12682 C 1219.18 1.38482 -1.54394 0
M  V30 12683 C 1219.6 1.87222 -0.181563 0
M  V30 12684 O 1218.96 1.60869 0.836119 0
M  V30 12685 C 1219.01 2.55676 -2.54287 0
M  V30 12686 O 1218.11 3.5672 -2.06941 0
M  V30 12687 H 1217.46 0.412918 -0.519995 0
M  V30 12688 H 1219.99 0.722899 -1.91404 0
M  V30 12689 H 1220 3.02756 -2.73501 0
M  V30 12690 H 1218.67 2.19552 -3.53228 0
M  V30 12691 H 1217.25 3.16204 -1.97661 0
M  V30 12692 N 1219.43 1.33438 0.838571 0
M  V30 12693 C 1220.84 1.22366 1.41009 0
M  V30 12694 C 1221.19 -0.157317 1.95568 0
M  V30 12695 O 1220.32 -1.05692 1.88834 0
M  V30 12696 C 1220.91 2.21542 2.56329 0
M  V30 12697 C 1219.47 2.14309 3.09433 0
M  V30 12698 C 1218.62 2.09012 1.82235 0
M  V30 12699 H 1221.57 1.45032 0.64431 0
M  V30 12700 H 1221.59 1.82332 3.33969 0
M  V30 12701 H 1221.1 3.22042 2.16589 0
M  V30 12702 H 1219.21 1.17113 3.53717 0
M  V30 12703 H 1219.32 3.04866 3.69586 0
M  V30 12704 H 1217.68 1.54492 2.02495 0
M  V30 12705 H 1218.47 3.11319 1.4469 0
M  V30 12706 N 1220.91 -1.05686 1.16912 0
M  V30 12707 C 1222.33 -1.30744 0.915327 0
M  V30 12708 C 1222.53 -1.96895 -0.428344 0
M  V30 12709 O 1221.58 -2.23941 -1.16647 0
M  V30 12710 C 1222.9 -2.18209 2.06894 0
M  V30 12711 C 1224.44 -2.31607 2.1054 0
M  V30 12712 C 1224.92 -3.2243 3.25273 0
M  V30 12713 N 1226.41 -3.30015 3.2503 0
M  V30 12714 C 1227.14 -4.00401 4.10447 0
M  V30 12715 N 1226.64 -4.73256 5.05965 0
M  V30 12716 N 1228.43 -3.96514 3.98413 0
M  V30 12717 H 1220.58 -0.611449 2.03409 0
M  V30 12718 H 1222.85 -0.332188 0.887894 0
M  V30 12719 H 1222.55 -1.76887 3.0398 0
M  V30 12720 H 1222.43 -3.18823 2.01573 0
M  V30 12721 H 1224.81 -2.72173 1.14044 0
M  V30 12722 H 1224.9 -1.30639 2.19925 0
M  V30 12723 H 1224.54 -2.82579 4.22032 0
M  V30 12724 H 1224.47 -4.23392 3.13125 0
M  V30 12725 H 1226.96 -2.781 2.55869 0
M  V30 12726 H 1227.27 -5.24509 5.67547 0
M  V30 12727 H 1225.62 -4.72215 5.09939 0
M  V30 12728 H 1228.81 -3.38719 3.2309 0
M  V30 12729 H 1228.98 -4.511 4.65202 0
M  V30 12730 N 1222.39 -0.968567 -1.24324 0
M  V30 12731 C 1223.63 -0.641458 -1.9302 0
M  V30 12732 C 1223.99 0.814553 -1.74307 0
M  V30 12733 O 1223.28 1.57848 -1.08603 0
M  V30 12734 C 1223.48 -0.952762 -3.44467 0
M  V30 12735 C 1223.31 -2.43748 -3.77911 0
M  V30 12736 C 1222.08 -3.09746 -3.99231 0
M  V30 12737 C 1224.27 -3.4176 -3.84324 0
M  V30 12738 N 1222.26 -4.47947 -4.19782 0
M  V30 12739 C 1223.63 -4.65321 -4.09728 0
M  V30 12740 C 1225.68 -3.36406 -3.67064 0
M  V30 12741 C 1224.38 -5.84186 -4.19665 0
M  V30 12742 C 1226.41 -4.54624 -3.78248 0
M  V30 12743 C 1225.77 -5.76976 -4.04077 0
M  V30 12744 H 1221.87 -0.285584 -0.727987 0
M  V30 12745 H 1224.46 -1.2436 -1.49808 0
M  V30 12746 H 1222.63 -0.379421 -3.86542 0
M  V30 12747 H 1224.36 -0.584137 -4.00462 0
M  V30 12748 H 1221.11 -2.60274 -3.95669 0
M  V30 12749 H 1221.54 -5.19559 -4.34036 0
M  V30 12750 H 1226.18 -2.42847 -3.461 0
M  V30 12751 H 1223.9 -6.78172 -4.3944 0
M  V30 12752 H 1227.48 -4.52043 -3.66262 0
M  V30 12753 H 1226.36 -6.66925 -4.1253 0
M  V30 12754 N 1223.87 1.39211 -0.738786 0
M  V30 12755 C 1225.11 2.02287 -0.293119 0
M  V30 12756 C 1225.47 1.57361 1.10006 0
M  V30 12757 O 1226.67 2.12663 1.64402 0
M  V30 12758 C 1224.94 3.55204 -0.395547 0
M  V30 12759 S 1226.5 4.3879 -0.0302798 0
M  V30 12760 H 1223.32 0.701702 -0.114609 0
M  V30 12761 H 1225.92 1.69959 -0.966138 0
M  V30 12762 H 1224.63 3.85392 -1.41072 0
M  V30 12763 H 1224.16 3.92291 0.295163 0
M  V30 12764 H 1226.17 4.81848 1.18478 0
M  V30 12765 N 1225.34 0.486708 1.49896 0
M  V30 12766 C 1226.59 -0.062852 2.02402 0
M  V30 12767 C 1226.92 -1.38306 1.36754 0
M  V30 12768 O 1226.17 -1.89531 0.487493 0
M  V30 12769 C 1226.47 -0.278643 3.56312 0
M  V30 12770 C 1226.14 0.961794 4.40523 0
M  V30 12771 C 1224.8 1.30185 4.63255 0
M  V30 12772 C 1227.15 1.78697 4.89609 0
M  V30 12773 C 1224.48 2.46686 5.32318 0
M  V30 12774 C 1226.83 2.9434 5.59953 0
M  V30 12775 C 1225.5 3.28742 5.80935 0
M  V30 12776 H 1224.77 -0.0229992 0.740643 0
M  V30 12777 H 1227.41 0.643963 1.80348 0
M  V30 12778 H 1225.72 -1.06785 3.76967 0
M  V30 12779 H 1227.42 -0.718078 3.94518 0
M  V30 12780 H 1224.01 0.686887 4.2306 0
M  V30 12781 H 1228.19 1.53742 4.71887 0
M  V30 12782 H 1223.45 2.73596 5.46768 0
M  V30 12783 H 1227.62 3.58616 5.96965 0
M  V30 12784 H 1225.25 4.19121 6.34225 0
M  V30 12785 N 1226.82 -1.56058 0.219941 0
M  V30 12786 C 1227.75 -2.2321 -0.685547 0
M  V30 12787 C 1228.73 -1.20328 -1.20229 0
M  V30 12788 O 1229.92 -1.48909 -1.24659 0
M  V30 12789 C 1227.05 -2.91076 -1.89452 0
M  V30 12790 C 1226 -4.00415 -1.51169 0
M  V30 12791 C 1225.33 -4.55569 -2.79931 0
M  V30 12792 C 1226.63 -5.17549 -0.702896 0
M  V30 12793 H 1228.32 -2.99136 -0.125671 0
M  V30 12794 H 1225.87 -1.43879 -0.0590043 0
M  V30 12795 H 1227.82 -3.36744 -2.53341 0
M  V30 12796 H 1226.55 -2.12594 -2.47934 0
M  V30 12797 H 1225.21 -3.55475 -0.896275 0
M  V30 12798 H 1224.85 -3.73819 -3.36553 0
M  V30 12799 H 1224.55 -5.29361 -2.55049 0
M  V30 12800 H 1226.08 -5.03955 -3.44764 0
M  V30 12801 H 1227.49 -5.59608 -1.24544 0
M  V30 12802 H 1225.89 -5.97563 -0.551234 0
M  V30 12803 H 1226.96 -4.84027 0.29083 0
M  V30 12804 N 1228.3 0.053464 -1.57509 0
M  V30 12805 C 1229.58 0.783141 -1.79238 0
M  V30 12806 C 1229.96 1.94855 -0.812069 0
M  V30 12807 O 1229.31 2.28 0.151006 0
M  V30 12808 C 1229.52 1.239 -3.26266 0
M  V30 12809 C 1230.86 1.66492 -3.90596 0
M  V30 12810 O 1231.89 1.33421 -3.30269 0
M  V30 12811 O 1230.75 2.27785 -4.96766 0
M  V30 12812 H 1227.84 0.376696 -0.736226 0
M  V30 12813 H 1230.39 0.0321229 -1.6967 0
M  V30 12814 H 1229.16 0.405948 -3.89189 0
M  V30 12815 H 1228.78 2.05078 -3.4063 0
M  V30 12816 N 1229.78 1.54207 0.325255 0
M  V30 12817 C 1231.06 1.6298 1.08153 0
M  V30 12818 C 1231.44 0.462583 2.05969 0
M  V30 12819 O 1230.78 -0.543323 2.21947 0
M  V30 12820 C 1230.99 2.999 1.78497 0
M  V30 12821 C 1232.34 3.55888 2.3158 0
M  V30 12822 O 1233.37 3.02194 1.88566 0
M  V30 12823 O 1232.23 4.49847 3.10322 0
M  V30 12824 H 1229.32 0.659923 0.498429 0
M  V30 12825 H 1231.87 1.66553 0.325282 0
M  V30 12826 H 1230.64 3.7629 1.07338 0
M  V30 12827 H 1230.26 2.99997 2.60936 0
M  V30 12828 N 1231.26 -0.58723 1.46251 0
M  V30 12829 C 1232.67 -0.910129 1.31106 0
M  V30 12830 C 1232.87 -1.99557 0.279141 0
M  V30 12831 O 1231.93 -2.50466 -0.319867 0
M  V30 12832 C 1233.24 -1.33177 2.69601 0
M  V30 12833 C 1234.79 -1.44486 2.77656 0
M  V30 12834 C 1235.27 -1.90018 4.16722 0
M  V30 12835 N 1236.76 -1.97219 4.19117 0
M  V30 12836 C 1237.49 -2.33714 5.23608 0
M  V30 12837 N 1236.99 -2.69034 6.3843 0
M  V30 12838 N 1238.78 -2.3423 5.10972 0
M  V30 12839 H 1230.93 0.12987 2.12003 0
M  V30 12840 H 1233.19 -0.00456718 0.947989 0
M  V30 12841 H 1232.9 -0.608243 3.464 0
M  V30 12842 H 1232.77 -2.29421 2.99409 0
M  V30 12843 H 1235.16 -2.15926 2.01147 0
M  V30 12844 H 1235.24 -0.465047 2.51537 0
M  V30 12845 H 1234.89 -1.19159 4.93724 0
M  V30 12846 H 1234.82 -2.88949 4.40245 0
M  V30 12847 H 1237.31 -1.72431 3.36268 0
M  V30 12848 H 1237.62 -2.95822 7.13939 0
M  V30 12849 H 1235.97 -2.66683 6.41798 0
M  V30 12850 H 1239.16 -2.06056 4.20308 0
M  V30 12851 H 1239.33 -2.62345 5.92519 0
M  V30 12852 N 1232.74 -1.33881 -0.831482 0
M  V30 12853 C 1233.96 -1.28961 -1.62431 0
M  V30 12854 C 1234.39 0.135249 -1.87613 0
M  V30 12855 O 1233.74 1.09426 -1.44553 0
M  V30 12856 C 1233.79 -2.07767 -2.94729 0
M  V30 12857 O 1232.9 -1.44133 -3.86393 0
M  V30 12858 H 1232.24 -0.443313 -0.494337 0
M  V30 12859 H 1234.77 -1.76555 -1.0339 0
M  V30 12860 H 1234.78 -2.18806 -3.44366 0
M  V30 12861 H 1233.45 -3.11367 -2.75724 0
M  V30 12862 H 1232.03 -1.41784 -3.44894 0
M  V30 12863 N 1234.21 1.05064 -1.1747 0
M  V30 12864 C 1235.15 2.12842 -0.850344 0
M  V30 12865 C 1236.16 1.62128 0.147796 0
M  V30 12866 O 1237.35 1.78327 -0.0786774 0
M  V30 12867 C 1234.45 3.37995 -0.247486 0
M  V30 12868 C 1233.62 4.17981 -1.28881 0
M  V30 12869 C 1232.68 5.21476 -0.703476 0
M  V30 12870 O 1231.71 5.52327 -1.37561 0
M  V30 12871 N 1232.91 5.78309 0.50387 0
M  V30 12872 H 1235.67 2.41264 -1.77797 0
M  V30 12873 H 1233.23 1.21172 -1.07373 0
M  V30 12874 H 1235.23 4.04394 0.157424 0
M  V30 12875 H 1233.8 3.07097 0.583952 0
M  V30 12876 H 1233.02 3.47054 -1.86942 0
M  V30 12877 H 1234.3 4.6822 -1.99116 0
M  V30 12878 H 1233.7 5.5553 1.06787 0
M  V30 12879 H 1232.26 6.46223 0.850828 0
M  V30 12880 N 1235.69 0.975146 1.23809 0
M  V30 12881 C 1236.6 0.51917 2.28783 0
M  V30 12882 C 1237.62 -0.423487 1.68768 0
M  V30 12883 O 1238.79 -0.294699 1.99232 0
M  V30 12884 C 1235.86 -0.176229 3.46252 0
M  V30 12885 C 1234.92 0.807177 4.21643 0
M  V30 12886 C 1234.15 0.144869 5.33503 0
M  V30 12887 O 1234.38 -1.06522 5.60365 0
M  V30 12888 O 1233.31 0.84079 5.95999 0
M  V30 12889 H 1237.14 1.39204 2.69919 0
M  V30 12890 H 1234.72 0.74253 1.29641 0
M  V30 12891 H 1236.6 -0.566547 4.17574 0
M  V30 12892 H 1235.28 -1.02394 3.07078 0
M  V30 12893 H 1234.18 1.2481 3.52666 0
M  V30 12894 H 1235.52 1.62354 4.64653 0
M  V30 12895 N 1237.17 -1.38817 0.746158 0
M  V30 12896 C 1238.12 -2.27825 0.089362 0
M  V30 12897 C 1239.1 -1.44826 -0.701013 0
M  V30 12898 O 1240.3 -1.67632 -0.568188 0
M  V30 12899 C 1237.42 -3.33639 -0.808682 0
M  V30 12900 C 1236.51 -4.24098 -0.0118582 0
M  V30 12901 N 1236.9 -4.95393 1.02075 0
M  V30 12902 C 1235.2 -4.45355 -0.239815 0
M  V30 12903 C 1235.9 -5.61969 1.5022 0
M  V30 12904 N 1234.88 -5.37398 0.818816 0
M  V30 12905 H 1238.68 -2.80406 0.88033 0
M  V30 12906 H 1236.19 -1.51632 0.581512 0
M  V30 12907 H 1238.19 -3.96284 -1.29478 0
M  V30 12908 H 1236.85 -2.82617 -1.59868 0
M  V30 12909 H 1237.86 -4.98552 1.40237 0
M  V30 12910 H 1234.54 -4.05255 -1.00374 0
M  V30 12911 H 1235.93 -6.29017 2.36192 0
M  V30 12912 N 1238.65 -0.49465 -1.49636 0
M  V30 12913 C 1239.58 0.276606 -2.31856 0
M  V30 12914 C 1240.56 0.968499 -1.39836 0
M  V30 12915 O 1241.74 0.96113 -1.68748 0
M  V30 12916 C 1238.87 1.34522 -3.20189 0
M  V30 12917 C 1237.83 0.773571 -4.20951 0
M  V30 12918 C 1237.15 1.94223 -4.98178 0
M  V30 12919 C 1238.45 -0.231096 -5.21788 0
M  V30 12920 H 1240.15 -0.409668 -2.96584 0
M  V30 12921 H 1237.69 -0.198461 -1.42626 0
M  V30 12922 H 1239.65 1.89244 -3.76517 0
M  V30 12923 H 1238.37 2.06059 -2.53392 0
M  V30 12924 H 1237.03 0.248144 -3.65759 0
M  V30 12925 H 1236.68 2.64514 -4.27834 0
M  V30 12926 H 1236.38 1.56584 -5.66353 0
M  V30 12927 H 1237.9 2.49391 -5.57348 0
M  V30 12928 H 1239.32 0.227768 -5.72847 0
M  V30 12929 H 1237.71 -0.522984 -5.97817 0
M  V30 12930 H 1238.78 -1.14914 -4.71087 0
M  V30 12931 N 1240.13 1.55939 -0.228214 0
M  V30 12932 C 1241.08 2.17223 0.692674 0
M  V30 12933 C 1242.06 1.12252 1.15275 0
M  V30 12934 O 1243.25 1.3822 1.10563 0
M  V30 12935 C 1240.38 2.86084 1.89766 0
M  V30 12936 C 1239.47 3.98288 1.45695 0
M  V30 12937 N 1239.86 5.00515 0.729258 0
M  V30 12938 C 1238.16 4.105 1.74372 0
M  V30 12939 C 1238.86 5.79516 0.503606 0
M  V30 12940 N 1237.83 5.33119 1.06229 0
M  V30 12941 H 1241.63 2.9362 0.128345 0
M  V30 12942 H 1239.15 1.62373 -0.0297445 0
M  V30 12943 H 1241.15 3.28404 2.5682 0
M  V30 12944 H 1239.81 2.11185 2.46639 0
M  V30 12945 H 1240.82 5.16495 0.381261 0
M  V30 12946 H 1237.49 3.46759 2.32518 0
M  V30 12947 H 1238.88 6.71857 -0.0760344 0
M  V30 12948 N 1241.6 -0.0451101 1.57535 0
M  V30 12949 C 1242.85 -0.739114 1.88529 0
M  V30 12950 C 1243.18 -1.76208 0.823468 0
M  V30 12951 O 1242.43 -1.94893 -0.177512 0
M  V30 12952 C 1242.73 -1.45938 3.26247 0
M  V30 12953 C 1242.4 -0.57391 4.47233 0
M  V30 12954 C 1241.06 -0.329974 4.80067 0
M  V30 12955 C 1243.41 0.0384272 5.21186 0
M  V30 12956 C 1240.74 0.535339 5.84253 0
M  V30 12957 C 1243.09 0.891349 6.26289 0
M  V30 12958 C 1241.76 1.1449 6.57608 0
M  V30 12959 H 1241.03 -0.270461 0.689878 0
M  V30 12960 H 1243.67 0.000714103 1.915 0
M  V30 12961 H 1241.98 -2.27212 3.1919 0
M  V30 12962 H 1243.68 -2.00162 3.47471 0
M  V30 12963 H 1240.27 -0.774181 4.2155 0
M  V30 12964 H 1244.45 -0.137096 4.96111 0
M  V30 12965 H 1239.71 0.740253 6.06902 0
M  V30 12966 H 1243.88 1.37243 6.82743 0
M  V30 12967 H 1241.51 1.81715 7.38162 0
M  V30 12968 N 1243.08 -1.54377 -0.317073 0
M  V30 12969 C 1244.33 -1.73149 -1.05581 0
M  V30 12970 C 1244.66 -0.507176 -1.8746 0
M  V30 12971 O 1243.94 0.495837 -1.88074 0
M  V30 12972 C 1244.22 -3.01098 -1.97515 0
M  V30 12973 C 1244.07 -4.33794 -1.18922 0
M  V30 12974 C 1245.39 -3.24831 -2.9694 0
M  V30 12975 H 1242.51 -0.630011 -0.382434 0
M  V30 12976 H 1245.15 -1.87079 -0.331873 0
M  V30 12977 H 1243.3 -2.89352 -2.59244 0
M  V30 12978 H 1244.97 -4.57433 -0.596039 0
M  V30 12979 H 1243.22 -4.31005 -0.491612 0
M  V30 12980 H 1243.89 -5.19554 -1.86462 0
M  V30 12981 H 1246.36 -3.3608 -2.45335 0
M  V30 12982 H 1245.24 -4.15702 -3.58445 0
M  V30 12983 H 1245.5 -2.42365 -3.69745 0
M  V30 12984 N 1244.56 0.579466 -1.4656 0
M  V30 12985 C 1245.49 1.7031 -1.51887 0
M  V30 12986 C 1246.47 1.58271 -0.372721 0
M  V30 12987 O 1247.66 1.79441 -0.577336 0
M  V30 12988 C 1244.78 3.0839 -1.40048 0
M  V30 12989 C 1243.83 3.3894 -2.58886 0
M  V30 12990 S 1244.66 3.30652 -4.21224 0
M  V30 12991 C 1245.82 4.71264 -4.119 0
M  V30 12992 H 1246.05 1.65533 -2.46954 0
M  V30 12993 H 1243.58 0.758477 -1.34486 0
M  V30 12994 H 1245.54 3.88046 -1.33905 0
M  V30 12995 H 1244.2 3.10653 -0.464048 0
M  V30 12996 H 1243.4 4.39547 -2.46605 0
M  V30 12997 H 1243 2.66858 -2.62036 0
M  V30 12998 H 1245.29 5.61722 -3.7878 0
M  V30 12999 H 1246.23 4.88602 -5.12517 0
M  V30 13000 H 1246.64 4.48266 -3.43101 0
M  V30 13001 N 1246.04 1.3432 0.824371 0
M  V30 13002 C 1246.95 1.27847 1.96704 0
M  V30 13003 C 1247.96 0.18641 1.72999 0
M  V30 13004 O 1249.14 0.412623 1.97128 0
M  V30 13005 C 1246.21 1.03231 3.30975 0
M  V30 13006 C 1245.27 2.21579 3.67697 0
M  V30 13007 C 1244.5 1.98128 4.95561 0
M  V30 13008 O 1244.72 0.938798 5.62621 0
M  V30 13009 O 1243.66 2.85041 5.30128 0
M  V30 13010 H 1247.48 2.23974 2.05108 0
M  V30 13011 H 1245.07 1.14512 0.959554 0
M  V30 13012 H 1246.95 0.912784 4.11395 0
M  V30 13013 H 1245.62 0.101425 3.23541 0
M  V30 13014 H 1244.53 2.3909 2.87727 0
M  V30 13015 H 1245.86 3.13052 3.79815 0
M  V30 13016 N 1247.52 -1.0444 1.18026 0
M  V30 13017 C 1248.77 -1.7697 0.9677 0
M  V30 13018 C 1249.08 -1.88995 -0.503994 0
M  V30 13019 O 1250.28 -2.58342 -0.834968 0
M  V30 13020 C 1248.74 -3.1816 1.68232 0
M  V30 13021 C 1248.35 -3.14241 3.19307 0
M  V30 13022 C 1250.09 -3.95095 1.55244 0
M  V30 13023 C 1248 -4.50266 3.83425 0
M  V30 13024 H 1246.93 -0.663355 0.358436 0
M  V30 13025 H 1249.58 -1.17003 1.4136 0
M  V30 13026 H 1247.96 -3.78501 1.16418 0
M  V30 13027 H 1249.14 -2.63373 3.78115 0
M  V30 13028 H 1247.45 -2.50805 3.32394 0
M  V30 13029 H 1250.05 -4.95681 2.00511 0
M  V30 13030 H 1250.39 -4.13236 0.504125 0
M  V30 13031 H 1250.92 -3.4132 2.04317 0
M  V30 13032 H 1247.66 -4.37329 4.88286 0
M  V30 13033 H 1247.18 -5.01251 3.29404 0
M  V30 13034 H 1248.86 -5.1919 3.86071 0
M  V30 13035 N 1248.99 -0.981699 -1.2329 0
M  V30 13036 C 1250.22 -0.669025 -1.96313 0
M  V30 13037 C 1250.64 0.757624 -1.72168 0
M  V30 13038 O 1250 1.51626 -0.993942 0
M  V30 13039 C 1250.05 -0.966875 -3.47396 0
M  V30 13040 O 1249.15 -0.0595933 -4.12357 0
M  V30 13041 H 1248.5 -0.251493 -0.61453 0
M  V30 13042 H 1251.03 -1.31564 -1.56691 0
M  V30 13043 H 1251.04 -0.904112 -3.97857 0
M  V30 13044 H 1249.71 -2.00651 -3.64296 0
M  V30 13045 H 1248.29 -0.176878 -3.7248 0
M  V30 13046 N 1250.47 1.3842 -0.753509 0
M  V30 13047 C 1251.4 2.29039 -0.0859463 0
M  V30 13048 C 1252.42 1.47742 0.68383 0
M  V30 13049 O 1253.61 1.70607 0.524933 0
M  V30 13050 C 1250.71 3.26668 0.902296 0
M  V30 13051 C 1249.88 4.36986 0.190178 0
M  V30 13052 C 1248.94 5.14805 1.08916 0
M  V30 13053 O 1247.96 5.66441 0.559715 0
M  V30 13054 N 1249.17 5.27777 2.41726 0
M  V30 13055 H 1251.93 2.8697 -0.864196 0
M  V30 13056 H 1249.49 1.502 -0.604288 0
M  V30 13057 H 1251.48 3.75606 1.50672 0
M  V30 13058 H 1250.05 2.69636 1.58163 0
M  V30 13059 H 1249.27 3.89684 -0.594959 0
M  V30 13060 H 1250.56 5.07899 -0.302594 0
M  V30 13061 H 1249.96 4.87376 2.87196 0
M  V30 13062 H 1248.52 5.8009 2.97219 0
M  V30 13063 N 1251.95 0.502579 1.49372 0
M  V30 13064 C 1253.23 -0.104472 1.95321 0
M  V30 13065 C 1253.61 -1.53975 1.44412 0
M  V30 13066 O 1252.96 -2.18804 0.658566 0
M  V30 13067 C 1253.17 -0.0154833 3.48997 0
M  V30 13068 C 1254.51 -0.188615 4.24181 0
M  V30 13069 O 1255.54 -0.090595 3.56085 0
M  V30 13070 O 1254.4 -0.390068 5.45106 0
M  V30 13071 H 1251.49 -0.0944325 0.821591 0
M  V30 13072 H 1254.04 0.565229 1.6001 0
M  V30 13073 H 1252.81 0.985383 3.7869 0
M  V30 13074 H 1252.43 -0.72526 3.90929 0
M  V30 13075 N 1253.43 -1.55816 0.23648 0
M  V30 13076 C 1254.34 -2.24576 -0.678439 0
M  V30 13077 C 1255.35 -1.25836 -1.20172 0
M  V30 13078 O 1256.53 -1.58686 -1.24019 0
M  V30 13079 C 1253.6 -2.92376 -1.86325 0
M  V30 13080 C 1252.66 -4.06499 -1.38047 0
M  V30 13081 C 1251.89 -4.71057 -2.50881 0
M  V30 13082 O 1252.11 -4.34652 -3.69369 0
M  V30 13083 O 1251.05 -5.59768 -2.21232 0
M  V30 13084 H 1254.87 -3.03452 -0.122601 0
M  V30 13085 H 1252.46 -1.49399 0.00540803 0
M  V30 13086 H 1254.34 -3.35117 -2.55488 0
M  V30 13087 H 1253.01 -2.16448 -2.40691 0
M  V30 13088 H 1251.92 -3.68296 -0.656422 0
M  V30 13089 H 1253.25 -4.84214 -0.883024 0
M  V30 13090 N 1254.91 0.036755 -1.57557 0
M  V30 13091 C 1256.16 0.728107 -1.881 0
M  V30 13092 C 1256.47 1.7693 -0.833974 0
M  V30 13093 O 1257.67 2.5127 -1.02837 0
M  V30 13094 C 1256.13 1.34604 -3.33781 0
M  V30 13095 C 1255.74 0.341599 -4.46696 0
M  V30 13096 C 1257.48 2.01772 -3.73481 0
M  V30 13097 C 1255.39 0.967444 -5.83433 0
M  V30 13098 H 1254.32 0.275695 -0.701789 0
M  V30 13099 H 1256.97 -0.0177555 -1.83491 0
M  V30 13100 H 1255.35 2.14135 -3.3311 0
M  V30 13101 H 1256.53 -0.426441 -4.58823 0
M  V30 13102 H 1254.84 -0.227558 -4.15778 0
M  V30 13103 H 1257.44 2.49435 -4.72955 0
M  V30 13104 H 1257.78 2.83255 -3.05077 0
M  V30 13105 H 1258.31 1.29026 -3.76294 0
M  V30 13106 H 1255.05 0.19219 -6.55218 0
M  V30 13107 H 1254.57 1.70551 -5.75041 0
M  V30 13108 H 1256.25 1.47705 -6.29914 0
M  V30 13109 N 1256.39 1.54543 0.308881 0
M  V30 13110 C 1257.63 1.73449 1.04506 0
M  V30 13111 C 1257.96 0.516034 1.8753 0
M  V30 13112 O 1257.22 -0.502106 1.89149 0
M  V30 13113 C 1257.51 2.97124 1.98626 0
M  V30 13114 C 1257.18 4.31256 1.31641 0
M  V30 13115 C 1255.84 4.67719 1.13105 0
M  V30 13116 C 1258.19 5.14437 0.836888 0
M  V30 13117 C 1255.52 5.84949 0.452878 0
M  V30 13118 C 1257.87 6.32365 0.172473 0
M  V30 13119 C 1256.54 6.67495 -0.0249143 0
M  V30 13120 H 1255.81 0.634697 0.382415 0
M  V30 13121 H 1258.46 1.88795 0.320714 0
M  V30 13122 H 1256.76 2.76526 2.77562 0
M  V30 13123 H 1258.46 3.08946 2.55643 0
M  V30 13124 H 1255.05 4.02576 1.47074 0
M  V30 13125 H 1259.23 4.86772 0.967834 0
M  V30 13126 H 1254.49 6.10717 0.288886 0
M  V30 13127 H 1258.66 6.96092 -0.207027 0
M  V30 13128 H 1256.29 7.5819 -0.552425 0
M  V30 13129 N 1257.86 -0.571685 1.46866 0
M  V30 13130 C 1259.11 -1.32574 1.5201 0
M  V30 13131 C 1259.43 -1.94762 0.180838 0
M  V30 13132 O 1260.63 -2.71276 0.110158 0
M  V30 13133 C 1259.09 -2.40331 2.67897 0
M  V30 13134 C 1258.7 -1.84398 4.08291 0
M  V30 13135 C 1260.44 -3.17009 2.82321 0
M  V30 13136 C 1258.35 -2.89849 5.15501 0
M  V30 13137 H 1257.28 -0.498428 0.565761 0
M  V30 13138 H 1259.93 -0.608853 1.73105 0
M  V30 13139 H 1258.31 -3.14869 2.40153 0
M  V30 13140 H 1259.48 -1.16329 4.45875 0
M  V30 13141 H 1257.8 -1.20351 3.98628 0
M  V30 13142 H 1260.4 -3.95729 3.59587 0
M  V30 13143 H 1260.74 -3.70292 1.90236 0
M  V30 13144 H 1261.27 -2.4958 3.09765 0
M  V30 13145 H 1258.01 -2.4144 6.09415 0
M  V30 13146 H 1257.53 -3.56372 4.82451 0
M  V30 13147 H 1259.21 -3.53603 5.41825 0
M  V30 13148 N 1259.34 -1.34755 -0.817236 0
M  V30 13149 C 1260.27 -1.29452 -1.94331 0
M  V30 13150 C 1261.25 -0.170902 -1.69239 0
M  V30 13151 O 1262.44 -0.364173 -1.90755 0
M  V30 13152 C 1259.57 -1.05497 -3.30889 0
M  V30 13153 C 1258.52 -2.14386 -3.70436 0
M  V30 13154 C 1257.85 -1.75612 -5.05039 0
M  V30 13155 C 1259.15 -3.56265 -3.81933 0
M  V30 13156 H 1260.84 -2.23672 -1.99025 0
M  V30 13157 H 1258.39 -1.07674 -0.956159 0
M  V30 13158 H 1260.34 -1.0043 -4.09257 0
M  V30 13159 H 1259.06 -0.0772059 -3.26509 0
M  V30 13160 H 1257.72 -2.18532 -2.94345 0
M  V30 13161 H 1257.37 -0.764809 -4.97152 0
M  V30 13162 H 1257.07 -2.48495 -5.3247 0
M  V30 13163 H 1258.6 -1.72051 -5.85859 0
M  V30 13164 H 1260.01 -3.545 -4.50558 0
M  V30 13165 H 1258.41 -4.27818 -4.20822 0
M  V30 13166 H 1259.48 -3.93192 -2.83775 0
M  V30 13167 N 1260.82 1.03812 -1.18578 0
M  V30 13168 C 1262.1 1.74062 -0.892288 0
M  V30 13169 C 1262.48 2.02267 0.604256 0
M  V30 13170 O 1261.82 1.66988 1.55972 0
M  V30 13171 C 1262.03 3.024 -1.74228 0
M  V30 13172 C 1263.38 3.76088 -1.97087 0
M  V30 13173 O 1264.41 3.12305 -1.71302 0
M  V30 13174 O 1263.27 4.90732 -2.40509 0
M  V30 13175 H 1260.36 0.757567 -0.331695 0
M  V30 13176 H 1262.91 1.09855 -1.29345 0
M  V30 13177 H 1261.68 2.77713 -2.75665 0
M  V30 13178 H 1261.3 3.74346 -1.3398 0
M  V30 13179 N 1262.3 0.988223 1.22768 0
M  V30 13180 C 1263.71 0.697281 1.7319 0
M  V30 13181 C 1264.06 -0.786111 1.79763 0
M  V30 13182 O 1263.18 -1.61465 1.44077 0
M  V30 13183 C 1263.78 1.25905 3.14537 0
M  V30 13184 C 1262.34 1.01759 3.62384 0
M  V30 13185 C 1261.49 1.38207 2.40404 0
M  V30 13186 H 1264.44 1.16114 1.08181 0
M  V30 13187 H 1264.46 0.635315 3.75159 0
M  V30 13188 H 1263.97 2.33869 3.09721 0
M  V30 13189 H 1262.07 -0.045627 3.72572 0
M  V30 13190 H 1262.18 1.67767 4.48766 0
M  V30 13191 H 1260.55 0.800607 2.4179 0
M  V30 13192 H 1261.33 2.47165 2.38253 0
M  V30 13193 N 1263.78 -1.38018 0.760839 0
M  V30 13194 C 1265.05 -1.94054 0.245437 0
M  V30 13195 C 1265.43 -1.6955 -1.25761 0
M  V30 13196 O 1264.78 -1.03812 -2.03557 0
M  V30 13197 C 1264.99 -3.43681 0.606986 0
M  V30 13198 C 1266.34 -4.20748 0.570673 0
M  V30 13199 O 1267.36 -3.51995 0.545715 0
M  V30 13200 O 1266.22 -5.43327 0.588043 0
M  V30 13201 H 1263.32 -0.825264 0.0535607 0
M  V30 13202 H 1265.86 -1.47369 0.841453 0
M  V30 13203 H 1264.63 -3.55054 1.64476 0
M  V30 13204 H 1264.26 -3.97597 -0.0166576 0
M  V30 13205 N 1265.25 -0.510493 -1.49103 0
M  V30 13206 C 1266.19 0.309697 -2.26089 0
M  V30 13207 C 1267.16 0.962061 -1.31084 0
M  V30 13208 O 1268.35 0.990296 -1.60391 0
M  V30 13209 C 1265.48 1.43693 -3.06708 0
M  V30 13210 C 1264.52 0.897978 -4.1694 0
M  V30 13211 S 1265.35 -0.218781 -5.35053 0
M  V30 13212 C 1266.51 0.911396 -6.19229 0
M  V30 13213 H 1266.74 -0.343702 -2.95307 0
M  V30 13214 H 1264.28 -0.295944 -1.51537 0
M  V30 13215 H 1266.23 2.08277 -3.53739 0
M  V30 13216 H 1264.9 2.06198 -2.36941 0
M  V30 13217 H 1264.09 1.74303 -4.729 0
M  V30 13218 H 1263.69 0.329192 -3.72548 0
M  V30 13219 H 1265.98 1.8145 -6.5275 0
M  V30 13220 H 1266.93 0.390201 -7.07024 0
M  V30 13221 H 1267.33 1.18301 -5.51965 0
M  V30 13222 N 1266.73 1.55688 -0.24474 0
M  V30 13223 C 1267.98 1.99186 0.381167 0
M  V30 13224 C 1268.31 1.13266 1.57748 0
M  V30 13225 O 1267.59 0.195568 1.93514 0
M  V30 13226 C 1267.87 3.51257 0.793142 0
M  V30 13227 C 1267.72 4.47942 -0.408409 0
M  V30 13228 C 1269.04 4.08365 1.64091 0
M  V30 13229 H 1266.16 0.724141 0.137073 0
M  V30 13230 H 1268.8 1.8683 -0.345619 0
M  V30 13231 H 1266.95 3.61917 1.4124 0
M  V30 13232 H 1268.62 4.49265 -1.04682 0
M  V30 13233 H 1266.87 4.20854 -1.05189 0
M  V30 13234 H 1267.54 5.51946 -0.0768531 0
M  V30 13235 H 1270.01 4.00794 1.1182 0
M  V30 13236 H 1268.89 5.1504 1.89802 0
M  V30 13237 H 1269.15 3.56687 2.61202 0
M  V30 13238 N 1268.21 -0.0283989 1.57574 0
M  V30 13239 C 1269.46 -0.720142 1.89583 0
M  V30 13240 C 1269.79 -1.7497 0.842562 0
M  V30 13241 O 1269.06 -1.93979 -0.142294 0
M  V30 13242 C 1269.35 -1.38909 3.32229 0
M  V30 13243 C 1269.2 -0.372998 4.48251 0
M  V30 13244 C 1270.52 -2.32289 3.73804 0
M  V30 13245 H 1267.64 -0.26033 0.689491 0
M  V30 13246 H 1270.28 0.0170607 1.89992 0
M  V30 13247 H 1268.43 -2.01744 3.32011 0
M  V30 13248 H 1270.1 0.253492 4.60603 0
M  V30 13249 H 1268.34 0.30765 4.32708 0
M  V30 13250 H 1269.02 -0.879549 5.44948 0
M  V30 13251 H 1271.49 -1.79497 3.75393 0
M  V30 13252 H 1270.37 -2.76075 4.74419 0
M  V30 13253 H 1270.63 -3.18992 3.06099 0
M  V30 13254 N 1269.69 -1.54705 -0.300681 0
M  V30 13255 C 1270.91 -1.78318 -1.05913 0
M  V30 13256 C 1271.34 -0.541177 -1.80147 0
M  V30 13257 O 1270.7 0.508291 -1.74029 0
M  V30 13258 C 1270.74 -2.99041 -2.01511 0
M  V30 13259 O 1269.85 -2.72188 -3.09818 0
M  V30 13260 H 1269.19 -0.590197 -0.304242 0
M  V30 13261 H 1271.72 -2.01789 -0.338006 0
M  V30 13262 H 1271.73 -3.2702 -2.43971 0
M  V30 13263 H 1270.4 -3.89098 -1.46886 0
M  V30 13264 H 1268.98 -2.55227 -2.71871 0
M  V30 13265 N 1271.17 0.563888 -1.47167 0
M  V30 13266 C 1272.1 1.68655 -1.55204 0
M  V30 13267 C 1273.11 1.56776 -0.438769 0
M  V30 13268 O 1274.3 1.63856 -0.708059 0
M  V30 13269 C 1271.4 3.07068 -1.43396 0
M  V30 13270 C 1270.57 3.44767 -2.69174 0
M  V30 13271 C 1269.63 4.62316 -2.51298 0
M  V30 13272 O 1268.66 4.67231 -3.2509 0
M  V30 13273 N 1269.86 5.58389 -1.58688 0
M  V30 13274 H 1272.63 1.62209 -2.52009 0
M  V30 13275 H 1270.19 0.750359 -1.43462 0
M  V30 13276 H 1272.18 3.83529 -1.29181 0
M  V30 13277 H 1270.75 3.07777 -0.546997 0
M  V30 13278 H 1269.97 2.57821 -2.98198 0
M  V30 13279 H 1271.26 3.66726 -3.52689 0
M  V30 13280 H 1270.65 5.57169 -0.978737 0
M  V30 13281 H 1269.21 6.34204 -1.50428 0
M  V30 13282 N 1272.64 1.35187 0.810078 0
M  V30 13283 C 1274.06 1.25329 1.38381 0
M  V30 13284 C 1274.41 -0.115799 1.95858 0
M  V30 13285 O 1273.53 -1.01663 1.91033 0
M  V30 13286 C 1274.13 2.2693 2.51572 0
M  V30 13287 C 1272.69 2.20824 3.04818 0
M  V30 13288 C 1271.83 2.1283 1.7776 0
M  V30 13289 H 1274.78 1.46366 0.613402 0
M  V30 13290 H 1274.8 1.89375 3.30026 0
M  V30 13291 H 1274.32 3.26563 2.09709 0
M  V30 13292 H 1272.42 1.24589 3.51153 0
M  V30 13293 H 1272.53 3.12637 3.63036 0
M  V30 13294 H 1270.89 1.58752 1.99173 0
M  V30 13295 H 1271.68 3.14318 1.38054 0
M  V30 13296 N 1274.12 -1.03182 1.19127 0
M  V30 13297 C 1275.09 -2.09559 0.928307 0
M  V30 13298 C 1276.09 -1.60548 -0.0899992 0
M  V30 13299 O 1277.28 -1.736 0.144422 0
M  V30 13300 C 1274.41 -3.38609 0.394561 0
M  V30 13301 H 1275.6 -2.34321 1.87173 0
M  V30 13302 H 1273.15 -1.19746 1.00452 0
M  V30 13303 H 1273.89 -3.19515 -0.555046 0
M  V30 13304 H 1273.67 -3.75502 1.12873 0
M  V30 13305 H 1275.16 -4.16969 0.229569 0
M  V30 13306 N 1275.6 -0.99472 -1.22242 0
M  V30 13307 C 1276.85 -0.670275 -1.90661 0
M  V30 13308 C 1277.17 0.800369 -1.77818 0
M  V30 13309 O 1276.44 1.57381 -1.16653 0
M  V30 13310 H 1275.02 -0.244925 -0.705706 0
M  V30 13311 H 1277.68 -1.26162 -1.48557 0
M  V30 13312 H 1276.78 -0.934408 -2.97784 0
M  V30 13313 N 1277.08 1.37613 -0.768148 0
M  V30 13314 C 1278.31 2.04052 -0.342111 0
M  V30 13315 C 1278.72 1.57936 1.03449 0
M  V30 13316 O 1278.08 0.758981 1.65969 0
M  V30 13317 C 1278.13 3.5958 -0.372096 0
M  V30 13318 O 1277.85 4.04008 -1.69439 0
M  V30 13319 C 1279.35 4.43251 0.0659884 0
M  V30 13320 H 1276.57 0.655391 -0.143886 0
M  V30 13321 H 1279.12 1.76017 -1.04107 0
M  V30 13322 H 1277.27 3.86399 0.278248 0
M  V30 13323 H 1277.68 4.98511 -1.63054 0
M  V30 13324 H 1279.16 5.52 -0.00614775 0
M  V30 13325 H 1279.64 4.24788 1.11588 0
M  V30 13326 H 1280.24 4.2165 -0.55603 0
M  V30 13327 N 1278.56 0.518393 1.4883 0
M  V30 13328 C 1279.97 0.0749773 1.86549 0
M  V30 13329 C 1280.32 -1.34429 1.4291 0
M  V30 13330 O 1279.44 -2.00481 0.814648 0
M  V30 13331 C 1280.04 0.129289 3.38553 0
M  V30 13332 C 1278.6 -0.258871 3.75509 0
M  V30 13333 C 1277.74 0.494185 2.72861 0
M  V30 13334 H 1280.7 0.730266 1.409 0
M  V30 13335 H 1280.72 -0.661844 3.747 0
M  V30 13336 H 1280.23 1.16237 3.70285 0
M  V30 13337 H 1278.33 -1.29453 3.49389 0
M  V30 13338 H 1278.44 0.0726769 4.79045 0
M  V30 13339 H 1276.81 -0.0581428 2.54634 0
M  V30 13340 H 1277.59 1.52767 3.07436 0
M  V30 13341 N 1280.03 -1.55556 0.252993 0
M  V30 13342 C 1281.45 -1.85032 -0.249011 0
M  V30 13343 C 1281.8 -1.17488 -1.57134 0
M  V30 13344 O 1280.92 -0.455387 -2.11554 0
M  V30 13345 C 1281.52 -3.35682 -0.458589 0
M  V30 13346 C 1280.08 -3.65362 -0.90485 0
M  V30 13347 C 1279.22 -2.77296 0.0144927 0
M  V30 13348 H 1282.17 -1.51412 0.475394 0
M  V30 13349 H 1282.19 -3.57591 -1.30034 0
M  V30 13350 H 1281.71 -3.84814 0.503981 0
M  V30 13351 H 1279.81 -3.21713 -1.87967 0
M  V30 13352 H 1279.92 -4.73074 -0.757492 0
M  V30 13353 H 1278.28 -2.49785 -0.497954 0
M  V30 13354 H 1279.07 -3.29236 0.972546 0
M  V30 13355 N 1281.51 0.0200419 -1.57587 0
M  V30 13356 C 1282.76 0.707627 -1.89307 0
M  V30 13357 C 1283.08 1.7541 -0.851831 0
M  V30 13358 O 1282.35 1.95571 0.113404 0
M  V30 13359 H 1280.93 0.264349 -0.698662 0
M  V30 13360 H 1283.59 -0.0161428 -1.94893 0
M  V30 13361 H 1282.69 1.19152 -2.8846 0
M  V30 13362 N 1282.99 1.54862 0.292472 0
M  V30 13363 C 1283.92 1.81298 1.38586 0
M  V30 13364 C 1284.9 0.664704 1.48393 0
M  V30 13365 O 1286.09 0.905595 1.65322 0
M  V30 13366 C 1283.21 1.9573 2.76419 0
M  V30 13367 C 1282.26 3.18197 2.83994 0
M  V30 13368 S 1283.09 4.76054 2.45219 0
M  V30 13369 C 1284.25 4.93433 3.85064 0
M  V30 13370 H 1284.48 2.73755 1.15955 0
M  V30 13371 H 1282.01 1.46383 0.491053 0
M  V30 13372 H 1283.97 2.0473 3.55803 0
M  V30 13373 H 1282.63 1.04196 2.96314 0
M  V30 13374 H 1281.83 3.25123 3.85112 0
M  V30 13375 H 1281.43 3.07688 2.12613 0
M  V30 13376 H 1283.72 4.7798 4.80148 0
M  V30 13377 H 1284.66 5.95515 3.83103 0
M  V30 13378 H 1285.07 4.2153 3.75463 0
M  V30 13379 N 1284.47 -0.556076 1.47464 0
M  V30 13380 C 1285.88 -1.1382 1.47993 0
M  V30 13381 C 1286.23 -1.94785 0.235249 0
M  V30 13382 O 1285.36 -2.06098 -0.659752 0
M  V30 13383 C 1285.95 -2.07082 2.68146 0
M  V30 13384 C 1284.51 -2.60564 2.71631 0
M  V30 13385 C 1283.66 -1.36967 2.41113 0
M  V30 13386 H 1286.61 -0.34262 1.54957 0
M  V30 13387 H 1286.63 -2.90975 2.45181 0
M  V30 13388 H 1286.14 -1.48127 3.5872 0
M  V30 13389 H 1284.24 -3.23314 1.852 0
M  V30 13390 H 1284.35 -3.0148 3.72353 0
M  V30 13391 H 1282.72 -1.67678 1.91719 0
M  V30 13392 H 1283.5 -0.79803 3.33896 0
M  V30 13393 N 1285.95 -1.35615 -0.802897 0
M  V30 13394 C 1287.22 -1.19655 -1.54732 0
M  V30 13395 C 1287.6 0.222827 -2.09921 0
M  V30 13396 O 1286.95 1.2268 -1.92774 0
M  V30 13397 C 1287.16 -2.26761 -2.65293 0
M  V30 13398 C 1288.51 -2.62754 -3.33535 0
M  V30 13399 O 1289.53 -2.25702 -2.75567 0
M  V30 13400 O 1288.39 -3.26476 -4.38264 0
M  V30 13401 H 1285.49 -0.465079 -0.683835 0
M  V30 13402 H 1288.03 -1.47307 -0.84254 0
M  V30 13403 H 1286.81 -3.21946 -2.22411 0
M  V30 13404 H 1286.43 -2.00399 -3.43404 0
M  V30 13405 N 1287.43 1.02549 -1.19673 0
M  V30 13406 C 1288.36 2.12794 -0.961289 0
M  V30 13407 C 1289.34 1.69766 0.106575 0
M  V30 13408 O 1290.52 1.94138 -0.0491358 0
M  V30 13409 C 1287.65 3.4364 -0.502868 0
M  V30 13410 C 1286.61 4.00367 -1.51296 0
M  V30 13411 C 1285.93 5.26874 -0.911491 0
M  V30 13412 C 1287.23 4.34782 -2.89416 0
M  V30 13413 H 1288.93 2.32748 -1.88331 0
M  V30 13414 H 1286.47 1.11852 -0.906922 0
M  V30 13415 H 1288.42 4.20141 -0.325436 0
M  V30 13416 H 1287.15 3.23418 0.454764 0
M  V30 13417 H 1285.81 3.25964 -1.67759 0
M  V30 13418 H 1285.46 5.02971 0.0537982 0
M  V30 13419 H 1285.16 5.65791 -1.58602 0
M  V30 13420 H 1286.68 6.06039 -0.74493 0
M  V30 13421 H 1288.09 5.02207 -2.76516 0
M  V30 13422 H 1286.49 4.8479 -3.53693 0
M  V30 13423 H 1287.56 3.43935 -3.41814 0
M  V30 13424 N 1288.9 1.00119 1.21713 0
M  V30 13425 C 1290.15 0.682733 1.90962 0
M  V30 13426 C 1290.48 -0.784131 1.77665 0
M  V30 13427 O 1289.76 -1.56799 1.15084 0
M  V30 13428 C 1290.04 1.09975 3.42896 0
M  V30 13429 C 1289.89 2.62578 3.65202 0
M  V30 13430 C 1291.21 0.659247 4.35134 0
M  V30 13431 H 1288.33 0.249501 0.693483 0
M  V30 13432 H 1290.97 1.24619 1.43423 0
M  V30 13433 H 1289.12 0.620334 3.83515 0
M  V30 13434 H 1290.8 3.18254 3.33934 0
M  V30 13435 H 1289.04 3.04268 3.09198 0
M  V30 13436 H 1289.71 2.86809 4.7164 0
M  V30 13437 H 1292.19 1.07116 4.02076 0
M  V30 13438 H 1291.06 0.979241 5.40095 0
M  V30 13439 H 1291.32 -0.439777 4.39907 0
M  V30 13440 N 1290.38 -1.37203 0.775435 0
M  V30 13441 C 1291.63 -1.99897 0.341936 0
M  V30 13442 C 1291.96 -1.61414 -1.07978 0
M  V30 13443 O 1291.24 -0.862108 -1.7435 0
M  V30 13444 C 1291.52 -3.56755 0.489715 0
M  V30 13445 C 1291.37 -4.05135 1.95411 0
M  V30 13446 C 1292.69 -4.39978 -0.103779 0
M  V30 13447 H 1289.81 -0.726199 0.125717 0
M  V30 13448 H 1292.45 -1.62826 0.979167 0
M  V30 13449 H 1290.6 -3.88464 -0.0527684 0
M  V30 13450 H 1292.27 -3.83975 2.55658 0
M  V30 13451 H 1290.52 -3.57192 2.46164 0
M  V30 13452 H 1291.19 -5.14161 2.00855 0
M  V30 13453 H 1293.66 -4.14547 0.359134 0
M  V30 13454 H 1292.54 -5.48892 0.0297337 0
M  V30 13455 H 1292.8 -4.25658 -1.19448 0
M  V30 13456 N 1291.86 -0.526279 -1.48553 0
M  V30 13457 C 1292.77 0.24244 -2.33344 0
M  V30 13458 C 1293.79 0.942658 -1.46253 0
M  V30 13459 O 1294.96 0.91844 -1.79239 0
M  V30 13460 C 1292.03 1.27801 -3.22285 0
M  V30 13461 C 1291.09 0.588543 -4.25247 0
M  V30 13462 C 1290.32 1.57478 -5.09938 0
M  V30 13463 O 1290.54 2.80707 -4.96548 0
M  V30 13464 O 1289.48 1.11621 -5.9146 0
M  V30 13465 H 1293.3 -0.452262 -3.00314 0
M  V30 13466 H 1290.89 -0.287249 -1.46613 0
M  V30 13467 H 1292.77 1.87656 -3.7731 0
M  V30 13468 H 1291.45 1.95519 -2.57981 0
M  V30 13469 H 1290.35 -0.0504022 -3.74066 0
M  V30 13470 H 1291.69 -0.046627 -4.92178 0
M  V30 13471 N 1293.34 1.5542 -0.261239 0
M  V30 13472 C 1294.27 2.19334 0.665214 0
M  V30 13473 C 1295.28 1.17388 1.128 0
M  V30 13474 O 1296.47 1.44183 1.0523 0
M  V30 13475 C 1293.57 2.79425 1.91768 0
M  V30 13476 C 1292.74 4.06929 1.60399 0
M  V30 13477 C 1291.8 4.51199 2.70751 0
M  V30 13478 O 1290.83 5.17272 2.37526 0
M  V30 13479 N 1292.03 4.20179 4.00537 0
M  V30 13480 H 1294.8 2.99467 0.118262 0
M  V30 13481 H 1292.36 1.61693 -0.0817727 0
M  V30 13482 H 1294.35 3.05992 2.64861 0
M  V30 13483 H 1292.92 2.03366 2.37405 0
M  V30 13484 H 1292.14 3.87798 0.707559 0
M  V30 13485 H 1293.43 4.9003 1.36924 0
M  V30 13486 H 1292.83 3.67164 4.30357 0
M  V30 13487 H 1291.38 4.51549 4.7005 0
M  V30 13488 N 1294.82 -0.0116844 1.57596 0
M  V30 13489 C 1295.78 -0.991601 2.0664 0
M  V30 13490 C 1296.78 -1.27973 0.973629 0
M  V30 13491 O 1297.97 -1.22686 1.23668 0
M  V30 13492 C 1295.1 -2.31975 2.49801 0
M  V30 13493 H 1296.29 -0.567607 2.9448 0
M  V30 13494 H 1293.85 -0.258906 1.54141 0
M  V30 13495 H 1294.58 -2.79087 1.65169 0
M  V30 13496 H 1294.37 -2.12386 3.29598 0
M  V30 13497 H 1295.86 -3.02294 2.88112 0
M  V30 13498 N 1296.29 -1.55015 -0.284256 0
M  V30 13499 C 1297.52 -1.79431 -1.04016 0
M  V30 13500 C 1297.94 -0.560254 -1.79563 0
M  V30 13501 O 1297.3 0.489804 -1.74558 0
M  V30 13502 C 1297.35 -3.01162 -1.98328 0
M  V30 13503 O 1296.45 -2.75459 -3.06914 0
M  V30 13504 H 1295.79 -0.593391 -0.297965 0
M  V30 13505 H 1298.32 -2.02136 -0.316585 0
M  V30 13506 H 1298.33 -3.29589 -2.40489 0
M  V30 13507 H 1297.01 -3.90634 -1.42751 0
M  V30 13508 H 1295.59 -2.58096 -2.69148 0
M  V30 13509 N 1297.77 0.548248 -1.47757 0
M  V30 13510 C 1299.02 1.30243 -1.54535 0
M  V30 13511 C 1299.34 1.93832 -0.213089 0
M  V30 13512 O 1298.61 1.80397 0.763782 0
M  V30 13513 H 1297.19 0.483684 -0.569262 0
M  V30 13514 H 1299.85 0.639485 -1.8411 0
M  V30 13515 H 1298.95 2.09128 -2.31672 0
M  V30 13516 N 1299.25 1.36039 0.795694 0
M  V30 13517 C 1300.5 1.29251 1.54845 0
M  V30 13518 C 1300.81 -0.127926 1.95181 0
M  V30 13519 O 1302.02 -0.318141 2.6963 0
M  V30 13520 C 1300.47 2.26736 2.79497 0
M  V30 13521 C 1300.08 3.74183 2.46355 0
M  V30 13522 C 1301.83 2.28913 3.5749 0
M  V30 13523 C 1299.73 4.63462 3.67365 0
M  V30 13524 H 1298.66 0.48027 0.581255 0
M  V30 13525 H 1301.31 1.61366 0.873693 0
M  V30 13526 H 1299.7 1.87608 3.4874 0
M  V30 13527 H 1300.87 4.22011 1.8505 0
M  V30 13528 H 1299.18 3.7472 1.81586 0
M  V30 13529 H 1301.78 2.92828 4.47388 0
M  V30 13530 H 1302.12 1.2959 3.95616 0
M  V30 13531 H 1302.66 2.66627 2.9522 0
M  V30 13532 H 1299.4 5.63824 3.34339 0
M  V30 13533 H 1298.92 4.20354 4.27858 0
M  V30 13534 H 1300.6 4.79424 4.34467 0
M  V30 13535 N 1300.73 -1.01913 1.20215 0
M  V30 13536 C 1301.95 -1.79613 1.03702 0
M  V30 13537 C 1302.38 -1.83591 -0.409374 0
M  V30 13538 O 1301.74 -1.26911 -1.29473 0
M  V30 13539 C 1301.78 -3.22052 1.62219 0
M  V30 13540 O 1300.89 -4.03374 0.858106 0
M  V30 13541 H 1300.23 -0.554095 0.365889 0
M  V30 13542 H 1302.76 -1.28203 1.59452 0
M  V30 13543 H 1302.77 -3.72772 1.65847 0
M  V30 13544 H 1301.44 -3.18471 2.67487 0
M  V30 13545 H 1300.02 -3.6198 0.895835 0
M  V30 13546 N 1302.21 -1.00763 -1.2118 0
M  V30 13547 C 1303.48 -0.607236 -1.85935 0
M  V30 13548 C 1303.86 0.915048 -1.90237 0
M  V30 13549 O 1303.21 1.80308 -1.40361 0
M  V30 13550 C 1303.42 -1.24466 -3.26051 0
M  V30 13551 C 1304.77 -1.35443 -4.02418 0
M  V30 13552 O 1305.79 -1.20018 -3.35372 0
M  V30 13553 O 1304.65 -1.60282 -5.22467 0
M  V30 13554 H 1301.75 -0.208338 -0.800328 0
M  V30 13555 H 1304.29 -1.10444 -1.28842 0
M  V30 13556 H 1303.06 -2.28524 -3.17635 0
M  V30 13557 H 1302.69 -0.733966 -3.90767 0
M  V30 13558 N 1303.68 1.3679 -0.7827 0
M  V30 13559 C 1304.93 2.0016 -0.361585 0
M  V30 13560 C 1305.29 1.61011 1.05324 0
M  V30 13561 O 1304.58 0.851491 1.7164 0
M  V30 13562 C 1304.77 3.54489 -0.455232 0
M  V30 13563 C 1304.6 4.08627 -1.87761 0
M  V30 13564 C 1303.37 4.3908 -2.50073 0
M  V30 13565 C 1305.57 4.28858 -2.83876 0
M  V30 13566 N 1303.55 4.79 -3.8397 0
M  V30 13567 C 1304.92 4.71507 -4.02593 0
M  V30 13568 C 1306.98 4.11013 -2.81021 0
M  V30 13569 C 1305.68 4.98181 -5.18852 0
M  V30 13570 C 1307.71 4.3883 -3.96463 0
M  V30 13571 C 1307.07 4.81729 -5.13922 0
M  V30 13572 H 1303.17 0.761099 -0.179588 0
M  V30 13573 H 1305.75 1.65913 -1.01887 0
M  V30 13574 H 1303.92 3.88019 0.171926 0
M  V30 13575 H 1305.65 4.04699 -0.0110089 0
M  V30 13576 H 1302.41 4.28547 -2.01605 0
M  V30 13577 H 1302.83 5.03253 -4.52841 0
M  V30 13578 H 1307.48 3.77009 -1.91375 0
M  V30 13579 H 1305.19 5.3107 -6.0909 0
M  V30 13580 H 1308.78 4.266 -3.95606 0
M  V30 13581 H 1307.66 5.02838 -6.01767 0
M  V30 13582 N 1305.16 0.53415 1.48272 0
M  V30 13583 C 1306.41 0.00971554 2.03398 0
M  V30 13584 C 1306.76 -1.316 1.40353 0
M  V30 13585 O 1306.06 -1.83786 0.541589 0
M  V30 13586 C 1306.25 -0.165144 3.57018 0
M  V30 13587 C 1306.08 1.14208 4.34956 0
M  V30 13588 C 1304.85 1.70309 4.75734 0
M  V30 13589 C 1307.05 2.05371 4.71516 0
M  V30 13590 N 1305.03 2.95276 5.38224 0
M  V30 13591 C 1306.4 3.14915 5.34068 0
M  V30 13592 C 1308.46 2.05647 4.53447 0
M  V30 13593 C 1307.16 4.24804 5.8046 0
M  V30 13594 C 1309.18 3.14533 5.00823 0
M  V30 13595 C 1308.55 4.22795 5.63404 0
M  V30 13596 H 1304.65 0.0451562 0.780695 0
M  V30 13597 H 1307.23 0.71635 1.81043 0
M  V30 13598 H 1305.4 -0.840869 3.79189 0
M  V30 13599 H 1307.13 -0.68956 3.98782 0
M  V30 13600 H 1303.89 1.24395 4.56971 0
M  V30 13601 H 1304.31 3.58911 5.74031 0
M  V30 13602 H 1308.95 1.23239 4.0444 0
M  V30 13603 H 1306.67 5.07987 6.2847 0
M  V30 13604 H 1310.26 3.15806 4.88629 0
M  V30 13605 H 1309.14 5.05661 5.99397 0
M  V30 13606 N 1306.64 -1.55279 0.269478 0
M  V30 13607 C 1307.59 -2.23723 -0.636468 0
M  V30 13608 C 1308.58 -1.23234 -1.16232 0
M  V30 13609 O 1309.79 -1.41181 -1.1166 0
M  V30 13610 H 1306.16 -0.71793 -0.223788 0
M  V30 13611 H 1308.13 -2.98378 -0.0363057 0
M  V30 13612 C 1306.88 -2.96755 -1.81195 0
M  V30 13613 H 1306.21 -3.73865 -1.4165 0
M  V30 13614 H 1307.65 -3.47975 -2.42258 0
M  V30 13615 C 1306.11 -2.01905 -2.69696 0
M  V30 13616 O 1306.64 -1.56662 -3.69892 0
M  V30 13617 N 1304.84 -1.68524 -2.36744 0
M  V30 13618 H 1304.39 -2.05512 -1.55314 0
M  V30 13619 H 1304.35 -1.05331 -2.96231 0
M  V30 13620 N 1308.12 0.00332656 -1.576 0
M  V30 13621 C 1309.53 0.546581 -1.7852 0
M  V30 13622 C 1309.88 1.74147 -0.903722 0
M  V30 13623 O 1309.01 2.16144 -0.105314 0
M  V30 13624 C 1309.6 0.998344 -3.23757 0
M  V30 13625 C 1308.16 1.48693 -3.45785 0
M  V30 13626 C 1307.31 0.436617 -2.73841 0
M  V30 13627 H 1310.26 -0.222852 -1.57128 0
M  V30 13628 H 1310.28 1.86452 -3.31686 0
M  V30 13629 H 1309.79 0.128479 -3.87887 0
M  V30 13630 H 1307.89 2.3778 -2.86865 0
M  V30 13631 H 1308 1.51668 -4.5446 0
M  V30 13632 H 1306.37 0.897506 -2.38363 0
M  V30 13633 H 1307.15 -0.424225 -3.40669 0
M  V30 13634 N 1309.6 1.55164 0.276031 0
M  V30 13635 C 1310.56 1.87065 1.32436 0
M  V30 13636 C 1311.56 0.745024 1.42499 0
M  V30 13637 O 1312.75 1.01321 1.41702 0
M  V30 13638 C 1309.88 2.07322 2.70611 0
M  V30 13639 H 1311.07 2.80775 1.05382 0
M  V30 13640 H 1308.63 1.47609 0.513947 0
M  V30 13641 H 1309.36 1.15983 3.0285 0
M  V30 13642 H 1309.15 2.89275 2.64693 0
M  V30 13643 H 1310.64 2.33287 3.46362 0
M  V30 13644 N 1311.07 -0.540404 1.48045 0
M  V30 13645 C 1312 -1.65538 1.6468 0
M  V30 13646 C 1312.99 -1.62713 0.495847 0
M  V30 13647 O 1314.17 -1.80072 0.727172 0
M  V30 13648 C 1311.3 -3.0415 1.67661 0
M  V30 13649 C 1310.25 -3.2183 2.82152 0
M  V30 13650 C 1309.58 -4.61397 2.70216 0
M  V30 13651 C 1310.88 -3.05596 4.23567 0
M  V30 13652 H 1312.57 -1.51873 2.58021 0
M  V30 13653 H 1310.12 -0.729208 1.24171 0
M  V30 13654 H 1312.07 -3.82013 1.77887 0
M  V30 13655 H 1310.8 -3.18814 0.708907 0
M  V30 13656 H 1309.46 -2.4638 2.71463 0
M  V30 13657 H 1309.1 -4.72883 1.71437 0
M  V30 13658 H 1308.8 -4.74174 3.47035 0
M  V30 13659 H 1310.33 -5.41374 2.82395 0
M  V30 13660 H 1311.74 -3.73261 4.35143 0
M  V30 13661 H 1310.14 -3.29871 5.01303 0
M  V30 13662 H 1311.21 -2.0214 4.40758 0
M  V30 13663 N 1312.55 -1.36459 -0.788468 0
M  V30 13664 C 1313.97 -1.16893 -1.08666 0
M  V30 13665 C 1314.17 0.00633808 -2.01499 0
M  V30 13666 O 1313.22 0.671417 -2.4341 0
M  V30 13667 C 1314.54 -2.48018 -1.70022 0
M  V30 13668 C 1316.09 -2.5439 -1.82358 0
M  V30 13669 C 1316.56 -3.85605 -2.47129 0
M  V30 13670 N 1318.05 -3.86956 -2.54597 0
M  V30 13671 C 1318.79 -4.85224 -3.05525 0
M  V30 13672 N 1318.28 -5.93885 -3.56753 0
M  V30 13673 N 1320.08 -4.72643 -3.04246 0
M  V30 13674 H 1312.23 -2.11705 -0.171733 0
M  V30 13675 H 1314.49 -0.937784 -0.1388 0
M  V30 13676 H 1314.2 -3.34292 -1.09277 0
M  V30 13677 H 1314.07 -2.63894 -2.69518 0
M  V30 13678 H 1316.46 -1.68534 -2.4224 0
M  V30 13679 H 1316.54 -2.42414 -0.816651 0
M  V30 13680 H 1316.18 -4.71868 -1.87891 0
M  V30 13681 H 1316.11 -3.94878 -3.48395 0
M  V30 13682 H 1318.6 -3.08453 -2.18323 0
M  V30 13683 H 1318.92 -6.64839 -3.93966 0
M  V30 13684 H 1317.26 -5.97553 -3.54902 0
M  V30 13685 H 1320.45 -3.86883 -2.63513 0
M  V30 13686 H 1320.62 -5.49385 -3.43627 0
M  V30 13687 N 1314.03 1.01274 -1.20754 0
M  V30 13688 C 1314.98 2.09894 -0.959852 0
M  V30 13689 C 1315.95 1.65726 0.111351 0
M  V30 13690 O 1317.13 1.90769 -0.0341721 0
M  V30 13691 C 1314.27 3.41126 -0.52223 0
M  V30 13692 C 1313.39 3.98749 -1.66202 0
M  V30 13693 C 1312.52 5.18057 -1.17432 0
M  V30 13694 C 1311.56 5.67772 -2.28694 0
M  V30 13695 N 1310.7 6.78338 -1.81114 0
M  V30 13696 H 1315.54 2.30416 -1.88977 0
M  V30 13697 H 1313.07 1.12989 -0.941906 0
M  V30 13698 H 1315.03 4.16451 -0.249799 0
M  V30 13699 H 1313.66 3.20665 0.370688 0
M  V30 13700 H 1312.71 3.20483 -2.04927 0
M  V30 13701 H 1314.03 4.31646 -2.49967 0
M  V30 13702 H 1313.18 6.00601 -0.858086 0
M  V30 13703 H 1311.92 4.86735 -0.306614 0
M  V30 13704 H 1310.92 4.8383 -2.61129 0
M  V30 13705 H 1312.15 6.01127 -3.15948 0
M  V30 13706 H 1310.09 6.48837 -0.966761 0
M  V30 13707 H 1310.01 7.10448 -2.58457 0
M  V30 13708 H 1311.28 7.64437 -1.52502 0
M  V30 13709 N 1315.51 1.01404 1.20644 0
M  V30 13710 C 1316.93 0.728446 1.42006 0
M  V30 13711 C 1317.13 -0.692894 1.89212 0
M  V30 13712 O 1316.18 -1.46101 2.05939 0
M  V30 13713 C 1317.49 1.75198 2.44389 0
M  V30 13714 C 1319.04 1.76983 2.58159 0
M  V30 13715 C 1319.52 2.78256 3.63782 0
M  V30 13716 N 1321.01 2.7698 3.71263 0
M  V30 13717 C 1321.74 3.51999 4.52641 0
M  V30 13718 N 1321.24 4.36687 5.37844 0
M  V30 13719 N 1323.03 3.40608 4.47149 0
M  V30 13720 H 1315.18 1.93168 0.883172 0
M  V30 13721 H 1317.45 0.834287 0.450187 0
M  V30 13722 H 1317.15 2.77013 2.16695 0
M  V30 13723 H 1317.03 1.56203 3.43337 0
M  V30 13724 H 1319.41 0.758551 2.85184 0
M  V30 13725 H 1319.49 2.00051 1.59415 0
M  V30 13726 H 1319.14 3.79546 3.37501 0
M  V30 13727 H 1319.07 2.5245 4.62143 0
M  V30 13728 H 1321.56 2.15546 3.104 0
M  V30 13729 H 1321.87 4.90703 5.97018 0
M  V30 13730 H 1320.22 4.40766 5.37355 0
M  V30 13731 H 1323.41 2.73872 3.79621 0
M  V30 13732 H 1323.58 3.99327 5.10335 0
M  V30 13733 N 1316.99 -1.36373 0.789944 0
M  V30 13734 C 1317.92 -2.27803 0.134613 0
M  V30 13735 C 1318.9 -1.47252 -0.689599 0
M  V30 13736 O 1320.08 -1.76551 -0.660466 0
M  V30 13737 C 1317.21 -3.28751 -0.814888 0
M  V30 13738 C 1316.26 -4.26439 -0.0724012 0
M  V30 13739 S 1317.09 -5.20654 1.2522 0
M  V30 13740 C 1318.24 -6.25148 0.306715 0
M  V30 13741 H 1318.48 -2.83036 0.909837 0
M  V30 13742 H 1316.01 -1.42922 0.584187 0
M  V30 13743 H 1317.97 -3.87413 -1.35726 0
M  V30 13744 H 1316.63 -2.72429 -1.56336 0
M  V30 13745 H 1315.82 -4.97724 -0.792894 0
M  V30 13746 H 1315.42 -3.7186 0.399504 0
M  V30 13747 H 1317.72 -6.75546 -0.514246 0
M  V30 13748 H 1318.66 -7.0117 0.98827 0
M  V30 13749 H 1319.07 -5.64428 -0.0901834 0
M  V30 13750 N 1318.47 -0.542005 -1.47987 0
M  V30 13751 C 1319.4 0.202703 -2.32618 0
M  V30 13752 C 1320.38 0.923521 -1.42846 0
M  V30 13753 O 1321.56 0.906957 -1.7172 0
M  V30 13754 C 1318.69 1.24267 -3.24307 0
M  V30 13755 C 1317.65 0.639257 -4.23199 0
M  V30 13756 C 1316.97 1.78275 -5.04105 0
M  V30 13757 C 1318.27 -0.396982 -5.20789 0
M  V30 13758 H 1319.97 -0.503817 -2.95131 0
M  V30 13759 H 1317.51 -0.243736 -1.41922 0
M  V30 13760 H 1319.46 1.7717 -3.82347 0
M  V30 13761 H 1318.19 1.97893 -2.59819 0
M  V30 13762 H 1316.85 0.131655 -3.66364 0
M  V30 13763 H 1316.5 2.50768 -4.36032 0
M  V30 13764 H 1316.2 1.38487 -5.71047 0
M  V30 13765 H 1317.72 2.31533 -5.65 0
M  V30 13766 H 1319.13 0.0454057 -5.73282 0
M  V30 13767 H 1317.53 -0.712911 -5.9585 0
M  V30 13768 H 1318.6 -1.29843 -4.67193 0
M  V30 13769 N 1319.94 1.55134 -0.277709 0
M  V30 13770 C 1321.17 2.04519 0.344472 0
M  V30 13771 C 1321.59 1.15466 1.4849 0
M  V30 13772 O 1320.95 0.153798 1.80646 0
M  V30 13773 C 1321 3.51602 0.800527 0
M  V30 13774 O 1320.1 3.65632 1.90754 0
M  V30 13775 H 1319.44 0.660212 0.0708226 0
M  V30 13776 H 1321.97 2.00393 -0.412764 0
M  V30 13777 H 1321.98 3.93015 1.09559 0
M  V30 13778 H 1320.66 4.15886 -0.033838 0
M  V30 13779 H 1319.24 3.36122 1.61481 0
M  V30 13780 N 1321.42 0.00503138 1.57599 0
M  V30 13781 C 1322.7 -0.716079 1.82021 0
M  V30 13782 C 1323.08 -1.91707 0.883829 0
M  V30 13783 O 1322.43 -2.28404 -0.0662812 0
M  V30 13784 C 1322.64 -1.11706 3.3064 0
M  V30 13785 C 1323.98 -1.51881 3.96506 0
M  V30 13786 O 1325.01 -1.21071 3.34993 0
M  V30 13787 O 1323.87 -2.09191 5.04877 0
M  V30 13788 H 1320.96 -0.349112 0.7497 0
M  V30 13789 H 1323.51 0.030871 1.69672 0
M  V30 13790 H 1322.28 -0.261223 3.90427 0
M  V30 13791 H 1321.9 -1.92295 3.48006 0
M  V30 13792 N 1322.9 -1.55308 -0.267798 0
M  V30 13793 C 1324.12 -1.80524 -1.02107 0
M  V30 13794 C 1324.55 -0.579268 -1.78958 0
M  V30 13795 O 1323.91 0.471262 -1.75068 0
M  V30 13796 C 1323.96 -3.03248 -1.95123 0
M  V30 13797 O 1323.06 -2.78699 -3.03975 0
M  V30 13798 H 1322.4 -0.596518 -0.291655 0
M  V30 13799 H 1324.93 -2.0246 -0.295128 0
M  V30 13800 H 1324.94 -3.32121 -2.3698 0
M  V30 13801 H 1323.62 -3.92126 -1.386 0
M  V30 13802 H 1322.19 -2.60936 -2.66396 0
M  V30 13803 N 1324.38 0.532545 -1.4833 0
M  V30 13804 C 1325.63 1.28597 -1.55908 0
M  V30 13805 C 1325.95 1.93595 -0.233635 0
M  V30 13806 O 1325.22 1.81197 0.744605 0
M  V30 13807 H 1323.8 0.477619 -0.57436 0
M  V30 13808 H 1326.46 0.619922 -1.84778 0
M  V30 13809 H 1325.55 2.0666 -2.33877 0
M  V30 13810 N 1325.86 1.36875 0.78122 0
M  V30 13811 C 1326.79 1.34559 1.9083 0
M  V30 13812 C 1327.77 0.215713 1.68727 0
M  V30 13813 O 1328.95 0.41462 1.89722 0
M  V30 13814 C 1326.08 1.14233 3.27976 0
M  V30 13815 C 1325.04 2.24132 3.64621 0
M  V30 13816 C 1324.36 1.8894 5.00206 0
M  V30 13817 C 1325.66 3.66266 3.72353 0
M  V30 13818 H 1327.36 2.28871 1.93025 0
M  V30 13819 H 1324.9 1.10171 0.927275 0
M  V30 13820 H 1326.85 1.11246 4.06451 0
M  V30 13821 H 1325.58 0.163747 3.26189 0
M  V30 13822 H 1324.24 2.26259 2.88448 0
M  V30 13823 H 1323.89 0.896351 4.94949 0
M  V30 13824 H 1323.59 2.62525 5.25694 0
M  V30 13825 H 1325.11 1.87523 5.81092 0
M  V30 13826 H 1326.52 3.66321 4.41001 0
M  V30 13827 H 1324.92 4.38825 4.09332 0
M  V30 13828 H 1325.99 4.00578 2.7325 0
M  V30 13829 N 1327.33 -1.00632 1.21289 0
M  V30 13830 C 1328.58 -1.74044 1.02728 0
M  V30 13831 C 1328.9 -1.89963 -0.440351 0
M  V30 13832 O 1328.17 -1.44958 -1.31772 0
M  V30 13833 H 1326.75 -0.644813 0.377127 0
M  V30 13834 H 1329.41 -1.21272 1.52575 0
M  V30 13835 H 1328.51 -2.74011 1.49413 0
M  V30 13836 N 1328.81 -1.02043 -1.20104 0
M  V30 13837 C 1329.74 -0.538603 -2.21753 0
M  V30 13838 C 1330.72 0.416016 -1.57188 0
M  V30 13839 O 1331.91 0.335114 -1.85497 0
M  V30 13840 C 1329.03 0.215706 -3.38012 0
M  V30 13841 C 1328.08 -0.68905 -4.20897 0
M  V30 13842 S 1328.91 -2.16041 -4.89986 0
M  V30 13843 C 1330.07 -1.41637 -6.09664 0
M  V30 13844 H 1330.3 -1.39988 -2.6228 0
M  V30 13845 H 1327.83 -0.829641 -1.30216 0
M  V30 13846 H 1329.79 0.644798 -4.05404 0
M  V30 13847 H 1328.45 1.0526 -2.95938 0
M  V30 13848 H 1327.65 -0.107195 -5.03886 0
M  V30 13849 H 1327.25 -1.05609 -3.5878 0
M  V30 13850 H 1329.54 -0.698414 -6.73891 0
M  V30 13851 H 1330.48 -2.22254 -6.72316 0
M  V30 13852 H 1330.89 -0.917572 -5.56993 0
M  V30 13853 N 1330.29 1.35952 -0.797165 0
M  V30 13854 C 1331.54 1.98283 -0.369685 0
M  V30 13855 C 1331.85 1.63968 1.06649 0
M  V30 13856 O 1333.06 2.19591 1.59662 0
M  V30 13857 C 1331.51 3.54692 -0.610046 0
M  V30 13858 C 1331.12 3.97925 -2.05814 0
M  V30 13859 C 1332.87 4.23778 -0.247457 0
M  V30 13860 C 1330.77 5.47142 -2.24475 0
M  V30 13861 H 1329.7 0.741909 -0.134489 0
M  V30 13862 H 1332.35 1.55146 -0.979893 0
M  V30 13863 H 1330.74 3.95938 0.0699822 0
M  V30 13864 H 1331.91 3.67857 -2.77521 0
M  V30 13865 H 1330.23 3.417 -2.37971 0
M  V30 13866 H 1332.82 5.33452 -0.365059 0
M  V30 13867 H 1333.17 4.08436 0.805315 0
M  V30 13868 H 1333.7 3.87921 -0.881028 0
M  V30 13869 H 1330.44 5.67441 -3.28163 0
M  V30 13870 H 1329.96 5.78811 -1.57282 0
M  V30 13871 H 1331.64 6.13475 -2.05567 0
M  V30 13872 N 1331.77 0.549846 1.47697 0
M  V30 13873 C 1332.73 -0.191427 2.28399 0
M  V30 13874 C 1333.73 -0.849533 1.36527 0
M  V30 13875 O 1334.92 -0.706526 1.59229 0
M  V30 13876 C 1332.05 -1.27907 3.15995 0
M  V30 13877 H 1333.25 0.517375 2.95404 0
M  V30 13878 H 1330.8 0.30651 1.53265 0
M  V30 13879 H 1331.53 -2.0205 2.53665 0
M  V30 13880 H 1331.32 -0.812066 3.83599 0
M  V30 13881 H 1332.81 -1.79992 3.76819 0
M  V30 13882 N 1333.25 -1.54984 0.285932 0
M  V30 13883 C 1334.66 -1.85519 -0.209707 0
M  V30 13884 C 1335.01 -1.20794 -1.54606 0
M  V30 13885 O 1334.13 -0.500159 -2.10541 0
M  V30 13886 C 1334.73 -3.36579 -0.387283 0
M  V30 13887 C 1333.29 -3.67199 -0.827148 0
M  V30 13888 C 1332.43 -2.77203 0.073308 0
M  V30 13889 H 1335.39 -1.5037 0.507404 0
M  V30 13890 H 1335.41 -3.60269 -1.2242 0
M  V30 13891 H 1334.92 -3.83658 0.585493 0
M  V30 13892 H 1333.02 -3.25627 -1.81101 0
M  V30 13893 H 1333.13 -4.74574 -0.656976 0
M  V30 13894 H 1331.5 -2.50785 -0.444859 0
M  V30 13895 H 1332.28 -3.27099 1.04216 0
M  V30 13896 N 1334.72 -0.0133892 -1.57594 0
M  V30 13897 C 1335.95 0.67827 -1.95149 0
M  V30 13898 C 1336.36 1.67089 -0.887572 0
M  V30 13899 O 1335.71 1.8316 0.140774 0
M  V30 13900 C 1335.77 1.45441 -3.28766 0
M  V30 13901 C 1335.43 0.621889 -4.52749 0
M  V30 13902 C 1336.43 -0.0961541 -5.19811 0
M  V30 13903 C 1334.11 0.563917 -4.99124 0
M  V30 13904 C 1336.11 -0.86101 -6.31558 0
M  V30 13905 C 1333.79 -0.204654 -6.10757 0
M  V30 13906 C 1334.79 -0.915839 -6.76832 0
M  V30 13907 O 1334.48 -1.67184 -7.86323 0
M  V30 13908 H 1334.21 0.192983 -0.647869 0
M  V30 13909 H 1336.77 -0.0646816 -2.05298 0
M  V30 13910 H 1335 2.24215 -3.15063 0
M  V30 13911 H 1336.69 2.03268 -3.51336 0
M  V30 13912 H 1337.45 -0.0606029 -4.84962 0
M  V30 13913 H 1333.33 1.10702 -4.47511 0
M  V30 13914 H 1336.87 -1.41664 -6.83064 0
M  V30 13915 H 1332.77 -0.241979 -6.45046 0
M  V30 13916 H 1333.54 -1.58996 -8.02909 0
M  V30 13917 N 1336.2 1.55448 0.259558 0
M  V30 13918 C 1337.43 1.80465 1.00577 0
M  V30 13919 C 1337.84 0.585001 1.79929 0
M  V30 13920 O 1337.18 -0.455641 1.7796 0
M  V30 13921 C 1337.25 2.98634 2.00146 0
M  V30 13922 C 1336.91 4.35154 1.39607 0
M  V30 13923 C 1337.91 5.13631 0.804923 0
M  V30 13924 C 1335.59 4.81833 1.41923 0
M  V30 13925 C 1337.59 6.36929 0.245007 0
M  V30 13926 C 1335.27 6.05083 0.855458 0
M  V30 13927 C 1336.27 6.82469 0.269359 0
M  V30 13928 O 1335.96 8.03392 -0.285743 0
M  V30 13929 H 1335.69 0.604693 0.302196 0
M  V30 13930 H 1338.24 2.0332 0.291599 0
M  V30 13931 H 1336.47 2.71504 2.75359 0
M  V30 13932 H 1338.16 3.10855 2.61006 0
M  V30 13933 H 1338.93 4.78693 0.779625 0
M  V30 13934 H 1334.81 4.21599 1.86481 0
M  V30 13935 H 1338.35 6.97274 -0.213098 0
M  V30 13936 H 1334.25 6.395 0.878041 0
M  V30 13937 H 1335.02 8.1831 -0.17639 0
M  V30 13938 N 1337.68 -0.524672 1.4861 0
M  V30 13939 C 1338.59 -1.65554 1.6622 0
M  V30 13940 C 1339.61 -1.65254 0.54471 0
M  V30 13941 O 1340.78 -1.84109 0.816454 0
M  V30 13942 C 1337.85 -3.02003 1.7028 0
M  V30 13943 C 1336.91 -3.13116 2.93695 0
M  V30 13944 C 1336.14 -4.43055 2.97553 0
M  V30 13945 O 1336.36 -5.30468 2.09667 0
M  V30 13946 O 1335.3 -4.58646 3.89779 0
M  V30 13947 H 1339.12 -1.53633 2.61974 0
M  V30 13948 H 1336.71 -0.698354 1.32073 0
M  V30 13949 H 1338.59 -3.83143 1.75441 0
M  V30 13950 H 1337.27 -3.14236 0.777002 0
M  V30 13951 H 1336.17 -2.31251 2.94064 0
M  V30 13952 H 1337.51 -3.058 3.85677 0
M  V30 13953 N 1339.16 -1.37287 -0.77395 0
M  V30 13954 C 1340.44 -1.2291 -1.52159 0
M  V30 13955 C 1340.82 0.178249 -2.10346 0
M  V30 13956 O 1340.16 1.18564 -1.95333 0
M  V30 13957 C 1340.37 -2.32337 -2.60424 0
M  V30 13958 C 1341.72 -2.69769 -3.27887 0
M  V30 13959 O 1342.75 -2.31497 -2.70717 0
M  V30 13960 O 1341.6 -3.35699 -4.31241 0
M  V30 13961 H 1338.7 -0.47948 -0.673816 0
M  V30 13962 H 1341.24 -1.49061 -0.811105 0
M  V30 13963 H 1340.02 -3.26591 -2.15532 0
M  V30 13964 H 1339.64 -2.07638 -3.39076 0
M  V30 13965 N 1340.64 0.999871 -1.21821 0
M  V30 13966 C 1341.86 1.7794 -1.06546 0
M  V30 13967 C 1342.29 1.84219 0.380115 0
M  V30 13968 O 1341.64 1.28955 1.27438 0
M  V30 13969 C 1341.69 3.1943 -1.67322 0
M  V30 13970 O 1340.8 4.01957 -0.922171 0
M  V30 13971 H 1340.14 0.548204 -0.374658 0
M  V30 13972 H 1342.67 1.2565 -1.61472 0
M  V30 13973 H 1342.68 3.70086 -1.71757 0
M  V30 13974 H 1341.35 3.14175 -2.7252 0
M  V30 13975 H 1339.93 3.60509 -0.95331 0
M  V30 13976 N 1342.11 1.02678 1.19562 0
M  V30 13977 C 1343.39 0.63674 1.84946 0
M  V30 13978 C 1343.77 -0.884667 1.91669 0
M  V30 13979 O 1343.12 -1.78053 1.43211 0
M  V30 13980 C 1343.33 1.29637 3.2403 0
M  V30 13981 C 1344.68 1.41828 4.00212 0
M  V30 13982 O 1345.7 1.25338 3.3342 0
M  V30 13983 O 1344.56 1.68573 5.19851 0
M  V30 13984 H 1341.65 0.221044 0.796912 0
M  V30 13985 H 1344.2 1.1248 1.27068 0
M  V30 13986 H 1342.97 2.33549 3.1396 0
M  V30 13987 H 1342.6 0.796041 3.8955 0
M  V30 13988 N 1343.59 -1.35528 0.804364 0
M  V30 13989 C 1344.52 -2.32388 0.227604 0
M  V30 13990 C 1345.5 -1.57368 -0.645709 0
M  V30 13991 O 1346.69 -1.85448 -0.576441 0
M  V30 13992 C 1343.82 -3.41603 -0.62645 0
M  V30 13993 C 1342.77 -4.27743 0.148187 0
M  V30 13994 C 1342.1 -5.28259 -0.827425 0
M  V30 13995 C 1343.4 -5.04661 1.34591 0
M  V30 13996 H 1345.09 -2.80874 1.03684 0
M  V30 13997 H 1342.64 -1.3504 0.500031 0
M  V30 13998 H 1344.59 -4.08365 -1.03999 0
M  V30 13999 H 1343.32 -2.91721 -1.46855 0
M  V30 14000 H 1341.97 -3.62558 0.542874 0
M  V30 14001 H 1341.62 -4.74645 -1.66496 0
M  V30 14002 H 1341.32 -5.86763 -0.313453 0
M  V30 14003 H 1342.85 -5.97893 -1.23921 0
M  V30 14004 H 1344.26 -5.6438 1.00736 0
M  V30 14005 H 1342.66 -5.7265 1.79422 0
M  V30 14006 H 1343.73 -4.35432 2.1337 0
M  V30 14007 N 1345.07 -0.557671 -1.47404 0
M  V30 14008 C 1346.02 0.189765 -2.30019 0
M  V30 14009 C 1346.99 0.907923 -1.3909 0
M  V30 14010 O 1348.17 0.903528 -1.68051 0
M  V30 14011 C 1345.31 1.21348 -3.23061 0
M  V30 14012 C 1344.43 0.501343 -4.29081 0
M  V30 14013 C 1343.56 1.51039 -5.09275 0
M  V30 14014 C 1342.6 0.783254 -6.07068 0
M  V30 14015 N 1341.74 1.73916 -6.80219 0
M  V30 14016 H 1346.58 -0.520856 -2.93413 0
M  V30 14017 H 1344.11 -0.268686 -1.44625 0
M  V30 14018 H 1346.07 1.81961 -3.75428 0
M  V30 14019 H 1344.7 1.89213 -2.61531 0
M  V30 14020 H 1343.75 -0.219317 -3.79767 0
M  V30 14021 H 1345.07 -0.0682656 -4.98753 0
M  V30 14022 H 1344.22 2.19004 -5.65793 0
M  V30 14023 H 1342.96 2.11392 -4.39505 0
M  V30 14024 H 1341.96 0.0896883 -5.49727 0
M  V30 14025 H 1343.19 0.185464 -6.78847 0
M  V30 14026 H 1341.14 2.33125 -6.13179 0
M  V30 14027 H 1341.05 1.22171 -7.46063 0
M  V30 14028 H 1342.32 2.40993 -7.41311 0
M  V30 14029 N 1346.55 1.54831 -0.294147 0
M  V30 14030 C 1347.83 1.92071 0.369902 0
M  V30 14031 C 1348.21 1.22061 1.72233 0
M  V30 14032 O 1347.55 0.353975 2.25742 0
M  V30 14033 C 1347.76 3.45524 0.49135 0
M  V30 14034 C 1349.11 4.17644 0.765411 0
M  V30 14035 O 1350.14 3.51521 0.575428 0
M  V30 14036 O 1349 5.34692 1.12992 0
M  V30 14037 H 1346.09 0.801033 0.20561 0
M  V30 14038 H 1348.64 1.66224 -0.341702 0
M  V30 14039 H 1347.41 3.88591 -0.459663 0
M  V30 14040 H 1347.03 3.77384 1.25169 0
M  V30 14041 N 1348.03 0.0217466 1.57585 0
M  V30 14042 C 1348.96 -0.961069 2.12804 0
M  V30 14043 C 1349.94 -1.3442 1.04237 0
M  V30 14044 O 1351.12 -1.42412 1.32032 0
M  V30 14045 C 1348.25 -2.24586 2.64912 0
M  V30 14046 C 1347.21 -2.0037 3.78201 0
M  V30 14047 C 1346.53 -3.35051 4.16708 0
M  V30 14048 C 1347.83 -1.34879 5.04584 0
M  V30 14049 H 1349.53 -0.501222 2.95175 0
M  V30 14050 H 1347.07 -0.239649 1.41992 0
M  V30 14051 H 1349.03 -2.93715 3.02175 0
M  V30 14052 H 1347.75 -2.72723 1.79693 0
M  V30 14053 H 1346.41 -1.33662 3.41365 0
M  V30 14054 H 1346.06 -3.80932 3.28481 0
M  V30 14055 H 1345.76 -3.19656 4.93045 0
M  V30 14056 H 1347.28 -4.05459 4.56547 0
M  V30 14057 H 1348.7 -1.93997 5.3948 0
M  V30 14058 H 1347.09 -1.29906 5.85871 0
M  V30 14059 H 1348.16 -0.320774 4.83838 0
M  V30 14060 N 1349.51 -1.55583 -0.251311 0
M  V30 14061 C 1350.73 -1.81597 -1.00186 0
M  V30 14062 C 1351.16 -0.598216 -1.78334 0
M  V30 14063 O 1350.51 0.452667 -1.75558 0
M  V30 14064 C 1350.56 -3.05301 -1.91895 0
M  V30 14065 O 1349.67 -2.81907 -3.01002 0
M  V30 14066 H 1349.01 -0.599578 -0.285311 0
M  V30 14067 H 1351.54 -2.02762 -0.273638 0
M  V30 14068 H 1351.55 -3.34616 -2.33444 0
M  V30 14069 H 1350.22 -3.93574 -1.34433 0
M  V30 14070 H 1348.8 -2.63747 -2.63613 0
M  V30 14071 N 1350.98 0.516783 -1.48886 0
M  V30 14072 C 1351.93 1.61653 -1.60786 0
M  V30 14073 C 1352.92 1.54056 -0.464271 0
M  V30 14074 O 1354.11 1.61853 -0.716412 0
M  V30 14075 C 1351.24 3.0033 -1.66304 0
M  V30 14076 C 1350.32 3.12982 -2.86187 0
M  V30 14077 N 1350.72 2.95568 -4.10455 0
M  V30 14078 C 1349.01 3.44059 -2.83795 0
M  V30 14079 C 1349.71 3.11986 -4.90958 0
M  V30 14080 N 1348.69 3.40156 -4.24022 0
M  V30 14081 H 1352.49 1.4682 -2.546 0
M  V30 14082 H 1350.01 0.722555 -1.4544 0
M  V30 14083 H 1352 3.79345 -1.72924 0
M  V30 14084 H 1350.66 3.16245 -0.736158 0
M  V30 14085 H 1351.67 2.72062 -4.40684 0
M  V30 14086 H 1348.35 3.66249 -2.0042 0
M  V30 14087 H 1349.74 3.03149 -5.99625 0
M  V30 14088 N 1352.46 1.37696 0.766659 0
M  V30 14089 C 1353.69 1.36564 1.56093 0
M  V30 14090 C 1354.11 -0.0455828 1.88045 0
M  V30 14091 O 1353.47 -1.02405 1.49609 0
M  V30 14092 C 1353.52 2.21592 2.84481 0
M  V30 14093 O 1352.62 1.62404 3.79076 0
M  V30 14094 H 1351.96 0.466394 0.472623 0
M  V30 14095 H 1354.49 1.81287 0.948486 0
M  V30 14096 H 1354.5 2.34987 3.33534 0
M  V30 14097 H 1353.18 3.24167 2.60554 0
M  V30 14098 H 1351.75 1.58078 3.37736 0
M  V30 14099 N 1353.94 -0.993397 1.22349 0
M  V30 14100 C 1355.36 -1.25708 0.983345 0
M  V30 14101 C 1355.56 -1.98888 -0.323372 0
M  V30 14102 O 1354.61 -2.2981 -1.04612 0
M  V30 14103 C 1355.92 -2.06935 2.1817 0
M  V30 14104 C 1357.47 -2.20121 2.22521 0
M  V30 14105 C 1357.95 -3.04735 3.41907 0
M  V30 14106 N 1359.44 -3.12322 3.42066 0
M  V30 14107 C 1360.17 -3.78081 4.31095 0
M  V30 14108 N 1359.67 -4.45771 5.3034 0
M  V30 14109 N 1361.46 -3.74837 4.18872 0
M  V30 14110 H 1353.61 -0.502767 2.06364 0
M  V30 14111 H 1355.88 -0.284656 0.904254 0
M  V30 14112 H 1355.58 -1.60525 3.12929 0
M  V30 14113 H 1355.46 -3.0769 2.18189 0
M  V30 14114 H 1357.84 -2.65745 1.28311 0
M  V30 14115 H 1357.92 -1.18798 2.26541 0
M  V30 14116 H 1357.57 -2.59811 4.36418 0
M  V30 14117 H 1357.5 -4.06198 3.35128 0
M  V30 14118 H 1359.99 -2.64146 2.7025 0
M  V30 14119 H 1360.3 -4.93687 5.94553 0
M  V30 14120 H 1358.65 -4.44521 5.34253 0
M  V30 14121 H 1361.84 -3.21116 3.40591 0
M  V30 14122 H 1362.01 -4.25806 4.8846 0
M  V30 14123 N 1355.42 -1.03311 -1.19015 0
M  V30 14124 C 1356.66 -0.733124 -1.89085 0
M  V30 14125 C 1357 0.73675 -1.79682 0
M  V30 14126 O 1356.27 1.53692 -1.19201 0
M  V30 14127 C 1356.55 -1.19028 -3.39859 0
M  V30 14128 C 1356.41 -2.72169 -3.58112 0
M  V30 14129 C 1357.73 -0.774383 -4.33234 0
M  V30 14130 H 1354.85 -0.2678 -0.686624 0
M  V30 14131 H 1357.49 -1.28378 -1.40068 0
M  V30 14132 H 1355.64 -0.721799 -3.81736 0
M  V30 14133 H 1357.31 -3.26996 -3.25379 0
M  V30 14134 H 1355.55 -3.12358 -3.01023 0
M  V30 14135 H 1356.22 -2.99213 -4.6387 0
M  V30 14136 H 1358.7 -1.17739 -3.99095 0
M  V30 14137 H 1357.58 -1.12209 -5.37308 0
M  V30 14138 H 1357.84 0.322989 -4.40919 0
M  V30 14139 N 1356.9 1.35099 -0.81154 0
M  V30 14140 C 1357.83 2.32264 -0.239925 0
M  V30 14141 C 1358.81 1.57708 0.637354 0
M  V30 14142 O 1359.99 1.85751 0.566598 0
M  V30 14143 C 1357.12 3.41931 0.608325 0
M  V30 14144 C 1356.08 4.27659 -0.170869 0
M  V30 14145 C 1355.4 5.28691 0.799398 0
M  V30 14146 C 1356.7 5.0394 -1.37266 0
M  V30 14147 H 1358.4 2.8032 -1.05172 0
M  V30 14148 H 1355.94 1.34773 -0.507185 0
M  V30 14149 H 1357.89 4.08911 1.01832 0
M  V30 14150 H 1356.62 2.92496 1.45306 0
M  V30 14151 H 1355.28 3.62265 -0.562094 0
M  V30 14152 H 1354.93 4.75521 1.63977 0
M  V30 14153 H 1354.63 5.86921 0.282331 0
M  V30 14154 H 1356.15 5.98542 1.20749 0
M  V30 14155 H 1357.56 5.63838 -1.03728 0
M  V30 14156 H 1355.96 5.7169 -1.82456 0
M  V30 14157 H 1357.03 4.34295 -2.15676 0
M  V30 14158 N 1358.37 0.56548 1.47106 0
M  V30 14159 C 1359.31 -0.215154 2.28188 0
M  V30 14160 C 1360.32 -0.871671 1.37498 0
M  V30 14161 O 1361.51 -0.744131 1.6225 0
M  V30 14162 C 1358.61 -1.32289 3.12014 0
M  V30 14163 C 1357.78 -0.761594 4.30719 0
M  V30 14164 C 1356.84 -1.75486 4.96076 0
M  V30 14165 O 1355.87 -1.29771 5.5421 0
M  V30 14166 N 1357.07 -3.0885 4.9152 0
M  V30 14167 H 1359.83 0.480405 2.95825 0
M  V30 14168 H 1357.39 0.402099 1.56827 0
M  V30 14169 H 1359.39 -1.98628 3.52603 0
M  V30 14170 H 1357.96 -1.92156 2.46566 0
M  V30 14171 H 1357.18 0.078794 3.94121 0
M  V30 14172 H 1358.46 -0.366072 5.07481 0
M  V30 14173 H 1357.86 -3.4863 4.45504 0
M  V30 14174 H 1356.42 -3.70725 5.36103 0
M  V30 14175 N 1359.85 -1.54672 0.302354 0
M  V30 14176 C 1361.08 -2.05041 -0.311891 0
M  V30 14177 C 1361.5 -1.17814 -1.46634 0
M  V30 14178 O 1360.86 -0.182517 -1.80379 0
M  V30 14179 C 1360.91 -3.52831 -0.744489 0
M  V30 14180 O 1360.01 -3.68621 -1.84913 0
M  V30 14181 H 1359.35 -0.661255 -0.0603102 0
M  V30 14182 H 1361.88 -1.99711 0.444593 0
M  V30 14183 H 1361.89 -3.94708 -1.03293 0
M  V30 14184 H 1360.57 -4.1578 0.0999976 0
M  V30 14185 H 1359.15 -3.38649 -1.56113 0
M  V30 14186 N 1361.33 -0.0301034 -1.57571 0
M  V30 14187 C 1362.74 0.508591 -1.79639 0
M  V30 14188 C 1363.09 1.72191 -0.940458 0
M  V30 14189 O 1362.22 2.15872 -0.151138 0
M  V30 14190 C 1362.81 0.929446 -3.25802 0
M  V30 14191 C 1361.37 1.41325 -3.48861 0
M  V30 14192 C 1360.52 0.378433 -2.74706 0
M  V30 14193 H 1363.47 -0.256131 -1.56619 0
M  V30 14194 H 1363.49 1.79374 -3.35567 0
M  V30 14195 H 1363 0.0461738 -3.88073 0
M  V30 14196 H 1361.1 2.31641 -2.91844 0
M  V30 14197 H 1361.22 1.41995 -4.57574 0
M  V30 14198 H 1359.58 0.846744 -2.40213 0
M  V30 14199 H 1360.36 -0.49639 -3.39692 0
M  V30 14200 N 1362.81 1.55714 0.243056 0
M  V30 14201 C 1364.05 1.77989 0.971993 0
M  V30 14202 C 1364.39 0.596038 1.84827 0
M  V30 14203 O 1363.66 -0.40554 1.90225 0
M  V30 14204 C 1363.95 3.10178 1.82925 0
M  V30 14205 C 1363.8 4.38974 0.9809 0
M  V30 14206 C 1365.12 3.38628 2.81103 0
M  V30 14207 H 1362.24 0.64754 0.35194 0
M  V30 14208 H 1364.88 1.88449 0.242237 0
M  V30 14209 H 1363.03 3.01392 2.45143 0
M  V30 14210 H 1364.7 4.59756 0.377113 0
M  V30 14211 H 1362.94 4.3286 0.285414 0
M  V30 14212 H 1363.61 5.27858 1.61461 0
M  V30 14213 H 1366.09 3.47403 2.29021 0
M  V30 14214 H 1364.97 4.32331 3.38203 0
M  V30 14215 H 1365.23 2.5973 3.57761 0
M  V30 14216 N 1364.29 -0.50888 1.49158 0
M  V30 14217 C 1365.51 -1.29245 1.62205 0
M  V30 14218 C 1365.94 -1.85845 0.29041 0
M  V30 14219 O 1365.29 -1.6547 -0.740906 0
M  V30 14220 C 1365.34 -2.40415 2.68762 0
M  V30 14221 O 1364.45 -3.44048 2.27387 0
M  V30 14222 H 1363.79 -0.381898 0.543185 0
M  V30 14223 H 1366.32 -0.610076 1.95293 0
M  V30 14224 H 1366.33 -2.86295 2.90688 0
M  V30 14225 H 1365 -1.98584 3.65427 0
M  V30 14226 H 1363.58 -3.04141 2.1576 0
M  V30 14227 N 1365.76 -1.381 -0.759346 0
M  V30 14228 C 1366.99 -1.37389 -1.55367 0
M  V30 14229 C 1367.41 0.0356097 -1.88066 0
M  V30 14230 O 1366.77 1.0161 -1.5015 0
M  V30 14231 C 1366.82 -2.23098 -2.83302 0
M  V30 14232 O 1365.92 -1.64412 -3.7821 0
M  V30 14233 H 1365.27 -0.468894 -0.470143 0
M  V30 14234 H 1367.8 -1.81787 -0.938858 0
M  V30 14235 H 1367.81 -2.36753 -3.32283 0
M  V30 14236 H 1366.48 -3.25544 -2.58831 0
M  V30 14237 H 1365.06 -1.59867 -3.36893 0
M  V30 14238 N 1367.24 0.986894 -1.22875 0
M  V30 14239 C 1368.15 2.11232 -1.02069 0
M  V30 14240 C 1369.17 1.73969 0.0328424 0
M  V30 14241 O 1370.34 2.00754 -0.161197 0
M  V30 14242 C 1367.41 3.41337 -0.60747 0
M  V30 14243 C 1366.47 3.92665 -1.73531 0
M  V30 14244 C 1365.7 5.1656 -1.34171 0
M  V30 14245 O 1365.93 5.69964 -0.223106 0
M  V30 14246 O 1364.86 5.61791 -2.16041 0
M  V30 14247 H 1368.69 2.3167 -1.96374 0
M  V30 14248 H 1366.27 1.09607 -1.01522 0
M  V30 14249 H 1368.15 4.19613 -0.387661 0
M  V30 14250 H 1366.83 3.22244 0.306653 0
M  V30 14251 H 1365.74 3.15534 -2.0097 0
M  V30 14252 H 1367.07 4.162 -2.62751 0
M  V30 14253 N 1368.72 1.0394 1.18466 0
M  V30 14254 C 1370 0.65632 1.8426 0
M  V30 14255 C 1370.38 -0.864288 1.92596 0
M  V30 14256 O 1369.73 -1.76524 1.45092 0
M  V30 14257 C 1369.94 1.33067 3.22636 0
M  V30 14258 C 1371.28 1.46065 3.98686 0
M  V30 14259 O 1372.31 1.28867 3.32072 0
M  V30 14260 O 1371.17 1.74078 5.18034 0
M  V30 14261 H 1368.26 0.229484 0.794523 0
M  V30 14262 H 1370.81 1.13821 1.25868 0
M  V30 14263 H 1369.58 2.36866 3.11465 0
M  V30 14264 H 1369.2 0.837313 3.88683 0
M  V30 14265 N 1370.2 -1.34667 0.818693 0
M  V30 14266 C 1371.15 -2.27031 0.210001 0
M  V30 14267 C 1372.13 -1.48338 -0.623258 0
M  V30 14268 O 1373.32 -1.70409 -0.478531 0
M  V30 14269 C 1370.45 -3.37457 -0.63069 0
M  V30 14270 C 1369.54 -4.23565 0.212964 0
M  V30 14271 N 1369.93 -4.89286 1.28191 0
M  V30 14272 C 1368.23 -4.46 -0.00340477 0
M  V30 14273 C 1368.93 -5.53216 1.79798 0
M  V30 14274 N 1367.91 -5.32302 1.10253 0
M  V30 14275 H 1371.71 -2.75345 1.02773 0
M  V30 14276 H 1369.22 -1.48336 0.661071 0
M  V30 14277 H 1371.22 -4.0259 -1.0829 0
M  V30 14278 H 1369.88 -2.90694 -1.44663 0
M  V30 14279 H 1370.89 -4.90417 1.66467 0
M  V30 14280 H 1367.57 -4.10005 -0.787516 0
M  V30 14281 H 1368.96 -6.15613 2.69203 0
M  V30 14282 N 1371.68 -0.573274 -1.46804 0
M  V30 14283 C 1372.64 0.155066 -2.28675 0
M  V30 14284 C 1373.64 0.827706 -1.37861 0
M  V30 14285 O 1374.83 0.681105 -1.60333 0
M  V30 14286 C 1371.96 1.22864 -3.1799 0
M  V30 14287 H 1373.15 -0.564305 -2.94543 0
M  V30 14288 H 1370.71 -0.330855 -1.52758 0
M  V30 14289 H 1371.44 1.97989 -2.56848 0
M  V30 14290 H 1371.23 0.750936 -3.84842 0
M  V30 14291 H 1372.72 1.73974 -3.79635 0
M  V30 14292 N 1373.15 1.5451 -0.310553 0
M  V30 14293 C 1374.4 1.99505 0.296731 0
M  V30 14294 C 1374.72 1.20257 1.54265 0
M  V30 14295 O 1375.92 1.55566 2.22512 0
M  V30 14296 C 1374.38 3.55208 0.579251 0
M  V30 14297 C 1373.99 4.43276 -0.648874 0
M  V30 14298 C 1375.73 4.08705 1.1472 0
M  V30 14299 C 1373.64 5.90428 -0.338978 0
M  V30 14300 H 1372.57 0.745232 0.114652 0
M  V30 14301 H 1375.22 1.78611 -0.420749 0
M  V30 14302 H 1373.6 3.72039 1.35658 0
M  V30 14303 H 1374.77 4.3822 -1.42478 0
M  V30 14304 H 1373.09 4.00601 -1.13613 0
M  V30 14305 H 1375.69 5.16223 1.39346 0
M  V30 14306 H 1376.03 3.59889 2.09249 0
M  V30 14307 H 1376.56 3.95454 0.431363 0
M  V30 14308 H 1373.3 6.43411 -1.25309 0
M  V30 14309 H 1372.82 5.98468 0.399475 0
M  V30 14310 H 1374.5 6.46976 0.0559696 0
M  V30 14311 N 1374.63 0.0384594 1.57553 0
M  V30 14312 C 1375.56 -0.938444 2.13812 0
M  V30 14313 C 1376.54 -1.33307 1.05657 0
M  V30 14314 O 1377.73 -1.41003 1.33535 0
M  V30 14315 C 1374.86 -2.21764 2.67279 0
M  V30 14316 C 1373.81 -1.96347 3.80305 0
M  V30 14317 C 1373.14 -3.30612 4.20238 0
M  V30 14318 C 1374.44 -1.2952 5.05986 0
M  V30 14319 H 1376.13 -0.469887 2.9569 0
M  V30 14320 H 1373.68 -0.224576 1.42238 0
M  V30 14321 H 1375.63 -2.90493 3.05273 0
M  V30 14322 H 1374.36 -2.70802 1.82576 0
M  V30 14323 H 1373.02 -1.30033 3.42764 0
M  V30 14324 H 1372.66 -3.77427 3.32502 0
M  V30 14325 H 1372.36 -3.14409 4.96408 0
M  V30 14326 H 1373.89 -4.00594 4.60822 0
M  V30 14327 H 1375.3 -1.88264 5.41507 0
M  V30 14328 H 1373.7 -1.23685 5.87216 0
M  V30 14329 H 1374.77 -0.269439 4.84151 0
M  V30 14330 N 1376.11 -1.55841 -0.234795 0
M  V30 14331 C 1377.04 -1.87793 -1.31402 0
M  V30 14332 C 1378.06 -0.765113 -1.43701 0
M  V30 14333 O 1379.25 -1.04332 -1.44834 0
M  V30 14334 C 1376.35 -2.05976 -2.69123 0
M  V30 14335 C 1375.52 -3.36914 -2.7894 0
M  V30 14336 C 1374.58 -3.44691 -3.97586 0
M  V30 14337 O 1373.6 -4.17818 -3.86545 0
M  V30 14338 N 1374.81 -2.74866 -5.11301 0
M  V30 14339 H 1377.57 -2.80957 -1.04324 0
M  V30 14340 H 1375.13 -1.56226 -0.424872 0
M  V30 14341 H 1377.12 -2.08507 -3.46853 0
M  V30 14342 H 1375.69 -1.195 -2.88857 0
M  V30 14343 H 1374.91 -3.46595 -1.87791 0
M  V30 14344 H 1376.2 -4.23196 -2.82458 0
M  V30 14345 H 1375.6 -2.15208 -5.23165 0
M  V30 14346 H 1374.16 -2.83075 -5.87122 0
M  V30 14347 N 1377.59 0.500963 -1.49426 0
M  V30 14348 C 1378.55 1.58478 -1.65582 0
M  V30 14349 C 1379.55 1.51897 -0.52762 0
M  V30 14350 O 1380.74 1.55049 -0.794071 0
M  V30 14351 C 1377.87 2.9813 -1.65322 0
M  V30 14352 H 1379.07 1.45483 -2.6225 0
M  V30 14353 H 1376.62 0.725199 -1.38458 0
M  V30 14354 H 1377.36 3.16602 -0.702384 0
M  V30 14355 H 1377.14 3.04315 -2.47255 0
M  V30 14356 H 1378.63 3.76874 -1.79878 0
M  V30 14357 N 1379.07 1.38501 0.752011 0
M  V30 14358 C 1380.31 1.34995 1.51341 0
M  V30 14359 C 1380.65 -0.0594724 1.94109 0
M  V30 14360 O 1379.92 -1.02098 1.65548 0
M  V30 14361 C 1380.2 2.30705 2.76491 0
M  V30 14362 C 1380.06 3.80515 2.39851 0
M  V30 14363 C 1381.38 2.24521 3.78521 0
M  V30 14364 H 1378.5 0.491687 0.549011 0
M  V30 14365 H 1381.14 1.69361 0.861205 0
M  V30 14366 H 1379.29 2.01529 3.32142 0
M  V30 14367 H 1380.96 4.20371 1.89962 0
M  V30 14368 H 1379.2 3.98119 1.7229 0
M  V30 14369 H 1379.87 4.42946 3.29397 0
M  V30 14370 H 1382.35 2.50282 3.32413 0
M  V30 14371 H 1381.23 2.93598 4.63779 0
M  V30 14372 H 1381.49 1.24457 4.2422 0
M  V30 14373 N 1380.55 -0.980364 1.23396 0
M  V30 14374 C 1381.79 -1.71592 1.06015 0
M  V30 14375 C 1382.11 -1.91401 -0.403103 0
M  V30 14376 O 1383.31 -2.62405 -0.696853 0
M  V30 14377 C 1381.77 -3.08795 1.84861 0
M  V30 14378 C 1381.38 -2.96873 3.35515 0
M  V30 14379 C 1383.12 -3.8631 1.75968 0
M  V30 14380 C 1381.03 -4.29308 4.06753 0
M  V30 14381 H 1379.96 -0.643423 0.393095 0
M  V30 14382 H 1382.61 -1.09345 1.47363 0
M  V30 14383 H 1380.99 -3.71797 1.36318 0
M  V30 14384 H 1382.17 -2.4296 3.91544 0
M  V30 14385 H 1380.48 -2.32833 3.45221 0
M  V30 14386 H 1383.08 -4.84355 2.26504 0
M  V30 14387 H 1383.42 -4.09983 0.722464 0
M  V30 14388 H 1383.95 -3.3001 2.22122 0
M  V30 14389 H 1380.69 -4.10831 5.10782 0
M  V30 14390 H 1380.21 -4.83086 3.55511 0
M  V30 14391 H 1381.89 -4.97995 4.1305 0
M  V30 14392 N 1382.02 -1.04567 -1.17913 0
M  V30 14393 C 1382.99 -0.645476 -2.19923 0
M  V30 14394 C 1383.99 0.299763 -1.57981 0
M  V30 14395 O 1385.18 0.0844825 -1.73995 0
M  V30 14396 C 1382.31 0.0528935 -3.40859 0
M  V30 14397 H 1383.5 -1.54828 -2.56843 0
M  V30 14398 H 1381.05 -0.838812 -1.31885 0
M  V30 14399 H 1381.79 0.969261 -3.09477 0
M  V30 14400 H 1381.57 -0.626558 -3.87062 0
M  V30 14401 H 1383.06 0.319221 -4.16378 0
M  V30 14402 N 1383.5 1.34231 -0.825823 0
M  V30 14403 C 1384.75 1.97805 -0.414456 0
M  V30 14404 C 1385.07 1.65786 1.02664 0
M  V30 14405 O 1384.34 0.950069 1.7132 0
M  V30 14406 H 1382.92 0.73173 -0.150265 0
M  V30 14407 H 1385.58 1.63819 -1.05591 0
M  V30 14408 H 1384.68 3.07466 -0.535829 0
M  V30 14409 N 1384.98 0.581051 1.46498 0
M  V30 14410 C 1386.26 -0.000789846 1.956 0
M  V30 14411 C 1386.64 -1.46104 1.52371 0
M  V30 14412 O 1385.98 -2.15005 0.773623 0
M  V30 14413 C 1386.19 0.169534 3.48588 0
M  V30 14414 C 1387.54 0.036499 4.24584 0
M  V30 14415 O 1388.57 0.0982852 3.56064 0
M  V30 14416 O 1387.43 -0.100571 5.46407 0
M  V30 14417 H 1384.52 -0.050749 0.825441 0
M  V30 14418 H 1387.07 0.649252 1.56789 0
M  V30 14419 H 1385.84 1.18473 3.72934 0
M  V30 14420 H 1385.46 -0.517017 3.94224 0
M  V30 14421 N 1386.46 -1.54343 0.318742 0
M  V30 14422 C 1387.39 -2.27118 -0.542206 0
M  V30 14423 C 1388.37 -1.27731 -1.12334 0
M  V30 14424 O 1389.55 -1.56535 -1.14937 0
M  V30 14425 C 1386.68 -3.02535 -1.70558 0
M  V30 14426 C 1385.64 -4.09218 -1.25398 0
M  V30 14427 C 1384.96 -4.72449 -2.50391 0
M  V30 14428 C 1386.26 -5.20971 -0.372332 0
M  V30 14429 H 1387.96 -2.9933 0.0648226 0
M  V30 14430 H 1385.5 -1.43963 0.0326168 0
M  V30 14431 H 1387.46 -3.52174 -2.31412 0
M  V30 14432 H 1386.18 -2.27931 -2.33912 0
M  V30 14433 H 1384.84 -3.60455 -0.668392 0
M  V30 14434 H 1384.49 -3.94466 -3.12099 0
M  V30 14435 H 1384.19 -5.4451 -2.20868 0
M  V30 14436 H 1385.71 -5.2486 -3.12016 0
M  V30 14437 H 1387.13 -5.66396 -0.887029 0
M  V30 14438 H 1385.52 -5.99859 -0.17009 0
M  V30 14439 H 1386.59 -4.81198 0.598064 0
M  V30 14440 N 1387.94 -0.0468143 -1.5753 0
M  V30 14441 C 1388.87 0.96433 -2.06823 0
M  V30 14442 C 1389.85 1.30663 -0.967783 0
M  V30 14443 O 1391.03 1.42025 -1.2394 0
M  V30 14444 C 1388.16 2.27954 -2.50509 0
M  V30 14445 C 1387.2 2.0906 -3.71748 0
M  V30 14446 S 1388.04 1.373 -5.17599 0
M  V30 14447 C 1389.19 2.70153 -5.64596 0
M  V30 14448 H 1389.43 0.544801 -2.92266 0
M  V30 14449 H 1386.96 0.16534 -1.53512 0
M  V30 14450 H 1388.92 3.03555 -2.76342 0
M  V30 14451 H 1387.58 2.67036 -1.65381 0
M  V30 14452 H 1386.77 3.06333 -4.0022 0
M  V30 14453 H 1386.37 1.41599 -3.46158 0
M  V30 14454 H 1388.66 3.66337 -5.69915 0
M  V30 14455 H 1389.61 2.46322 -6.63876 0
M  V30 14456 H 1390.02 2.76212 -4.92308 0
M  V30 14457 N 1389.41 1.55964 0.226527 0
M  V30 14458 C 1390.36 1.92007 1.28069 0
M  V30 14459 C 1391.33 0.776666 1.46823 0
M  V30 14460 O 1392.52 1.03213 1.60474 0
M  V30 14461 C 1389.66 2.23784 2.62707 0
M  V30 14462 C 1388.77 3.51034 2.51792 0
M  V30 14463 C 1387.9 3.72281 3.7892 0
M  V30 14464 C 1386.94 4.93062 3.62707 0
M  V30 14465 N 1386.08 5.10725 4.81772 0
M  V30 14466 H 1390.92 2.81898 0.96631 0
M  V30 14467 H 1388.46 1.39529 0.465847 0
M  V30 14468 H 1390.42 2.40217 3.41104 0
M  V30 14469 H 1389.05 1.37073 2.92251 0
M  V30 14470 H 1388.1 3.42822 1.64856 0
M  V30 14471 H 1389.41 4.39582 2.35731 0
M  V30 14472 H 1388.56 3.88783 4.6576 0
M  V30 14473 H 1387.3 2.82004 3.97901 0
M  V30 14474 H 1386.31 4.76515 2.7425 0
M  V30 14475 H 1387.53 5.84819 3.45201 0
M  V30 14476 H 1385.48 4.2339 5.01076 0
M  V30 14477 H 1385.4 5.93397 4.68419 0
M  V30 14478 H 1386.66 5.31658 5.70053 0
M  V30 14479 N 1390.89 -0.493031 1.4969 0
M  V30 14480 C 1391.82 -1.60215 1.69863 0
M  V30 14481 C 1392.8 -1.61053 0.547362 0
M  V30 14482 O 1393.99 -1.77667 0.784093 0
M  V30 14483 C 1391.12 -2.98662 1.77252 0
M  V30 14484 C 1390.07 -3.1269 2.92248 0
M  V30 14485 C 1389.4 -4.52567 2.84758 0
M  V30 14486 C 1390.7 -2.91965 4.33074 0
M  V30 14487 H 1392.39 -1.43587 2.62723 0
M  V30 14488 H 1389.94 -0.689334 1.26429 0
M  V30 14489 H 1391.89 -3.7616 1.89951 0
M  V30 14490 H 1390.62 -3.16397 0.809976 0
M  V30 14491 H 1389.27 -2.37619 2.79164 0
M  V30 14492 H 1388.92 -4.6719 1.86394 0
M  V30 14493 H 1388.62 -4.62893 3.61944 0
M  V30 14494 H 1390.15 -5.32116 2.99475 0
M  V30 14495 H 1391.56 -3.59228 4.46798 0
M  V30 14496 H 1389.96 -3.13756 5.11544 0
M  V30 14497 H 1391.03 -1.88015 4.46966 0
M  V30 14498 N 1392.37 -1.38898 -0.744656 0
M  V30 14499 C 1393.62 -1.34909 -1.49941 0
M  V30 14500 C 1393.93 0.0553979 -1.95522 0
M  V30 14501 O 1395.14 0.21785 -2.70625 0
M  V30 14502 C 1393.59 -2.36954 -2.70889 0
M  V30 14503 C 1393.2 -3.83069 -2.32298 0
M  V30 14504 C 1394.95 -2.42024 -3.48747 0
M  V30 14505 C 1392.85 -4.76777 -3.4991 0
M  V30 14506 H 1391.78 -0.501512 -0.563029 0
M  V30 14507 H 1394.43 -1.64497 -0.813201 0
M  V30 14508 H 1392.82 -2.00421 -3.41537 0
M  V30 14509 H 1393.99 -4.28588 -1.69259 0
M  V30 14510 H 1392.31 -3.81202 -1.67554 0
M  V30 14511 H 1394.9 -3.0923 -4.36212 0
M  V30 14512 H 1395.25 -1.44184 -3.90534 0
M  V30 14513 H 1395.78 -2.774 -2.85121 0
M  V30 14514 H 1392.52 -5.75844 -3.13183 0
M  V30 14515 H 1392.04 -4.35944 -4.11962 0
M  V30 14516 H 1393.72 -4.95219 -4.16374 0
M  V30 14517 N 1393.85 0.973806 -1.23914 0
M  V30 14518 C 1394.76 2.10138 -1.04304 0
M  V30 14519 C 1395.77 1.73994 0.0143888 0
M  V30 14520 O 1396.95 2.00572 -0.182481 0
M  V30 14521 C 1394.02 3.40673 -0.643639 0
M  V30 14522 C 1393.08 3.90802 -1.77686 0
M  V30 14523 C 1392.31 5.15108 -1.39642 0
M  V30 14524 O 1392.53 5.69695 -0.283546 0
M  V30 14525 O 1391.47 5.59468 -2.21988 0
M  V30 14526 H 1395.29 2.29574 -1.9882 0
M  V30 14527 H 1392.88 1.08524 -1.02679 0
M  V30 14528 H 1394.76 4.19178 -0.432145 0
M  V30 14529 H 1393.43 3.22551 0.272458 0
M  V30 14530 H 1392.34 3.13385 -2.04305 0
M  V30 14531 H 1393.67 4.1339 -2.67151 0
M  V30 14532 N 1395.33 1.05191 1.17357 0
M  V30 14533 C 1396.55 0.782343 1.92079 0
M  V30 14534 C 1396.98 -0.655957 1.76292 0
M  V30 14535 O 1396.33 -1.45573 1.08065 0
M  V30 14536 C 1396.38 1.16777 3.41168 0
M  V30 14537 O 1395.49 0.299908 4.11308 0
M  V30 14538 H 1394.83 0.286894 0.598822 0
M  V30 14539 H 1397.36 1.40476 1.48754 0
M  V30 14540 H 1397.37 1.13454 3.91909 0
M  V30 14541 H 1396.04 2.2155 3.51978 0
M  V30 14542 H 1394.62 0.393744 3.70815 0
M  V30 14543 N 1396.8 -1.33791 0.83293 0
M  V30 14544 C 1398.03 -2.01894 0.43844 0
M  V30 14545 C 1398.44 -1.62844 -0.963247 0
M  V30 14546 O 1397.79 -0.834636 -1.63644 0
M  V30 14547 C 1397.85 -3.5638 0.472604 0
M  V30 14548 C 1397.51 -4.18788 1.82937 0
M  V30 14549 C 1398.51 -4.38588 2.79172 0
M  V30 14550 C 1396.19 -4.55342 2.12058 0
M  V30 14551 C 1398.19 -4.94081 4.02694 0
M  V30 14552 C 1395.87 -5.10544 3.35839 0
M  V30 14553 C 1396.87 -5.29859 4.30974 0
M  V30 14554 O 1396.56 -5.83889 5.52566 0
M  V30 14555 H 1396.29 -0.65348 0.173031 0
M  V30 14556 H 1398.85 -1.71827 1.12537 0
M  V30 14557 H 1397.08 -3.85749 -0.271074 0
M  V30 14558 H 1398.77 -4.05785 0.0967701 0
M  V30 14559 H 1399.53 -4.10701 2.57972 0
M  V30 14560 H 1395.41 -4.39607 1.38806 0
M  V30 14561 H 1398.95 -5.09072 4.7696 0
M  V30 14562 H 1394.85 -5.3786 3.56898 0
M  V30 14563 H 1395.62 -6.02311 5.54224 0
M  V30 14564 N 1398.28 -0.588812 -1.46187 0
M  V30 14565 C 1399.23 0.140932 -2.30369 0
M  V30 14566 C 1400.2 0.878216 -1.40984 0
M  V30 14567 O 1401.38 0.867678 -1.69929 0
M  V30 14568 C 1398.52 1.14468 -3.25563 0
M  V30 14569 C 1397.64 0.410215 -4.30048 0
M  V30 14570 C 1396.77 1.40203 -5.12364 0
M  V30 14571 C 1395.81 0.65431 -6.08593 0
M  V30 14572 N 1394.95 1.59448 -6.83755 0
M  V30 14573 H 1399.79 -0.582976 -2.92242 0
M  V30 14574 H 1397.33 -0.299302 -1.44023 0
M  V30 14575 H 1399.28 1.73957 -3.79203 0
M  V30 14576 H 1397.91 1.83623 -2.65485 0
M  V30 14577 H 1396.97 -0.299822 -3.79217 0
M  V30 14578 H 1398.28 -0.174043 -4.98496 0
M  V30 14579 H 1397.43 2.06953 -5.70312 0
M  V30 14580 H 1396.17 2.02022 -4.4389 0
M  V30 14581 H 1395.18 -0.0269371 -5.49793 0
M  V30 14582 H 1396.4 0.0414285 -6.79087 0
M  V30 14583 H 1394.35 2.20066 -6.17986 0
M  V30 14584 H 1394.26 1.06318 -7.48487 0
M  V30 14585 H 1395.53 2.25215 -7.46256 0
M  V30 14586 N 1399.76 1.54172 -0.326923 0
M  V30 14587 C 1400.71 2.25931 0.552996 0
M  V30 14588 C 1401.7 1.27463 1.11578 0
M  V30 14589 O 1402.91 1.45228 1.06343 0
M  V30 14590 H 1399.28 0.725741 0.196988 0
M  V30 14591 H 1401.25 2.98307 -0.0744603 0
M  V30 14592 C 1400 3.03276 1.70056 0
M  V30 14593 H 1399.33 3.78865 1.27676 0
M  V30 14594 H 1400.77 3.56727 2.29177 0
M  V30 14595 C 1399.23 2.11775 2.62017 0
M  V30 14596 O 1399.76 1.70282 3.63822 0
M  V30 14597 N 1397.96 1.77195 2.30327 0
M  V30 14598 H 1397.51 2.11135 1.4758 0
M  V30 14599 H 1397.47 1.16253 2.92117 0
M  V30 14600 N 1401.24 0.0551678 1.57503 0
M  V30 14601 C 1402.49 -0.6165 1.92467 0
M  V30 14602 C 1402.81 -1.71147 0.934552 0
M  V30 14603 O 1402.08 -1.9589 -0.0199649 0
M  V30 14604 H 1400.66 -0.230714 0.710479 0
M  V30 14605 H 1403.32 0.109111 1.94594 0
M  V30 14606 H 1402.42 -1.05254 2.93816 0
M  V30 14607 N 1402.72 -1.56081 -0.218252 0
M  V30 14608 C 1403.96 -1.78893 -0.940296 0
M  V30 14609 C 1404.29 -0.62425 -1.84738 0
M  V30 14610 O 1403.56 0.358686 -1.92588 0
M  V30 14611 H 1402.14 -0.659828 -0.350193 0
M  V30 14612 H 1404.8 -1.93546 -0.229316 0
M  V30 14613 H 1403.89 -2.71167 -1.54516 0
M  V30 14614 N 1404.2 0.485086 -1.49949 0
M  V30 14615 C 1405.42 1.26648 -1.64241 0
M  V30 14616 C 1405.85 1.85359 -0.319939 0
M  V30 14617 O 1405.2 1.66628 0.714487 0
M  V30 14618 C 1405.25 2.36109 -2.72552 0
M  V30 14619 O 1404.36 3.40387 -2.32832 0
M  V30 14620 H 1403.7 0.373208 -0.549192 0
M  V30 14621 H 1406.23 0.578929 -1.96239 0
M  V30 14622 H 1406.24 2.81634 -2.95205 0
M  V30 14623 H 1404.91 1.92745 -3.6854 0
M  V30 14624 H 1403.49 3.0067 -2.20571 0
M  V30 14625 N 1405.67 1.39291 0.737279 0
M  V30 14626 C 1406.6 1.40562 1.86452 0
M  V30 14627 C 1407.58 0.269283 1.67955 0
M  V30 14628 O 1408.77 0.474769 1.88307 0
M  V30 14629 C 1405.9 1.2461 3.24175 0
M  V30 14630 C 1404.85 2.35619 3.57306 0
M  V30 14631 C 1404.18 2.04758 4.93941 0
M  V30 14632 C 1405.48 3.77927 3.60512 0
M  V30 14633 H 1407.17 2.34896 1.85646 0
M  V30 14634 H 1404.72 1.13065 0.891756 0
M  V30 14635 H 1406.67 1.2412 4.02706 0
M  V30 14636 H 1405.4 0.267438 3.25503 0
M  V30 14637 H 1404.06 2.35322 2.81104 0
M  V30 14638 H 1403.7 1.05336 4.91847 0
M  V30 14639 H 1403.4 2.79117 5.17076 0
M  V30 14640 H 1404.93 2.05915 5.74832 0
M  V30 14641 H 1406.34 3.80166 4.29123 0
M  V30 14642 H 1404.74 4.51626 3.95164 0
M  V30 14643 H 1405.81 4.09068 2.60368 0
M  V30 14644 N 1407.15 -0.967221 1.24429 0
M  V30 14645 C 1408.08 -2.07966 1.06172 0
M  V30 14646 C 1409.06 -1.70081 -0.0254566 0
M  V30 14647 O 1410.25 -1.93682 0.141705 0
M  V30 14648 C 1407.38 -3.4085 0.666251 0
M  V30 14649 C 1406.33 -3.92692 1.70225 0
M  V30 14650 C 1405.66 -5.21925 1.16183 0
M  V30 14651 C 1406.96 -4.20478 3.09831 0
M  V30 14652 H 1408.65 -2.23497 1.99222 0
M  V30 14653 H 1406.2 -1.07398 0.959255 0
M  V30 14654 H 1408.15 -4.1811 0.52552 0
M  V30 14655 H 1406.87 -3.2522 -0.299939 0
M  V30 14656 H 1405.53 -3.17588 1.83121 0
M  V30 14657 H 1405.18 -5.02655 0.186237 0
M  V30 14658 H 1404.88 -5.57579 1.85416 0
M  V30 14659 H 1406.41 -6.01795 1.03323 0
M  V30 14660 H 1407.82 -4.88442 3.00162 0
M  V30 14661 H 1406.22 -4.67362 3.7642 0
M  V30 14662 H 1407.29 -3.27235 3.57834 0
M  V30 14663 N 1408.63 -1.05812 -1.16797 0
M  V30 14664 C 1409.88 -0.767008 -1.86547 0
M  V30 14665 C 1410.19 0.708979 -1.82299 0
M  V30 14666 O 1411.4 1.11428 -2.4758 0
M  V30 14667 C 1409.85 -1.32186 -3.34746 0
M  V30 14668 C 1409.46 -2.82774 -3.4748 0
M  V30 14669 C 1411.21 -1.10808 -4.09783 0
M  V30 14670 C 1409.11 -3.31529 -4.89737 0
M  V30 14671 H 1408.04 -0.283235 -0.698781 0
M  V30 14672 H 1410.69 -1.27621 -1.31853 0
M  V30 14673 H 1409.08 -0.740453 -3.89016 0
M  V30 14674 H 1410.25 -3.46825 -3.03396 0
M  V30 14675 H 1408.56 -3.02765 -2.85871 0
M  V30 14676 H 1411.16 -1.44728 -5.14741 0
M  V30 14677 H 1411.5 -0.046167 -4.16274 0
M  V30 14678 H 1412.04 -1.65502 -3.61737 0
M  V30 14679 H 1408.78 -4.37177 -4.88422 0
M  V30 14680 H 1408.3 -2.72224 -5.34466 0
M  V30 14681 H 1409.98 -3.26572 -5.58534 0
M  V30 14682 N 1410.11 1.33347 -0.840014 0
M  V30 14683 C 1411.04 2.28029 -0.231432 0
M  V30 14684 C 1412.05 1.51792 0.588488 0
M  V30 14685 O 1413.24 1.736 0.415371 0
M  V30 14686 C 1410.34 3.31745 0.692721 0
M  V30 14687 C 1409.51 4.37311 -0.0881144 0
M  V30 14688 C 1408.57 5.20689 0.759557 0
M  V30 14689 O 1407.6 5.68854 0.198347 0
M  V30 14690 N 1408.8 5.42082 2.07672 0
M  V30 14691 H 1411.57 2.80893 -1.04495 0
M  V30 14692 H 1409.13 1.46053 -0.698586 0
M  V30 14693 H 1411.12 3.84428 1.2648 0
M  V30 14694 H 1409.69 2.79148 1.40695 0
M  V30 14695 H 1408.91 3.85112 -0.841579 0
M  V30 14696 H 1410.2 5.04947 -0.624986 0
M  V30 14697 H 1409.6 5.04654 2.55619 0
M  V30 14698 H 1408.15 5.97817 2.59726 0
M  V30 14699 N 1411.59 0.596556 1.45873 0
M  V30 14700 C 1412.83 0.0872856 2.01911 0
M  V30 14701 C 1413.15 -1.28257 1.46885 0
M  V30 14702 O 1412.42 -1.84489 0.658837 0
M  V30 14703 H 1411 0.0292769 0.746426 0
M  V30 14704 H 1413.67 0.775464 1.78809 0
M  V30 14705 H 1412.76 0.0287213 3.12087 0
M  V30 14706 N 1413.06 -1.53996 0.335095 0
M  V30 14707 C 1414.47 -1.86092 -0.15058 0
M  V30 14708 C 1414.83 -1.25652 -1.50685 0
M  V30 14709 O 1413.95 -0.566887 -2.08843 0
M  V30 14710 C 1414.55 -3.37641 -0.280007 0
M  V30 14711 C 1413.1 -3.69645 -0.709907 0
M  V30 14712 C 1412.25 -2.7683 0.161461 0
M  V30 14713 H 1415.2 -1.4868 0.554986 0
M  V30 14714 H 1415.22 -3.63981 -1.10896 0
M  V30 14715 H 1414.74 -3.81601 0.707254 0
M  V30 14716 H 1412.84 -3.31224 -1.7065 0
M  V30 14717 H 1412.95 -4.76424 -0.505661 0
M  V30 14718 H 1411.31 -2.52073 -0.364849 0
M  V30 14719 H 1412.1 -3.23618 1.1457 0
M  V30 14720 N 1414.54 -0.0635198 -1.57472 0
M  V30 14721 C 1415.82 0.648029 -1.84553 0
M  V30 14722 C 1416.2 1.88295 -0.954371 0
M  V30 14723 O 1415.55 2.28492 -0.0185351 0
M  V30 14724 C 1415.76 0.993573 -3.34558 0
M  V30 14725 C 1417.1 1.3706 -4.0187 0
M  V30 14726 O 1418.13 1.08555 -3.39255 0
M  V30 14727 O 1416.99 1.90309 -5.12294 0
M  V30 14728 H 1414.08 0.321047 -0.76214 0
M  V30 14729 H 1416.63 -0.0938223 -1.6944 0
M  V30 14730 H 1415.4 0.116139 -3.91128 0
M  V30 14731 H 1415.02 1.79246 -3.54904 0
M  V30 14732 N 1416.02 1.56195 0.209972 0
M  V30 14733 C 1416.97 1.89755 1.26401 0
M  V30 14734 C 1417.95 0.761731 1.41727 0
M  V30 14735 O 1419.15 1.02435 1.44347 0
M  V30 14736 C 1416.27 2.22775 2.61201 0
M  V30 14737 C 1415.36 3.42777 2.49729 0
M  V30 14738 N 1415.75 4.61089 2.0792 0
M  V30 14739 C 1414.05 3.46621 2.8066 0
M  V30 14740 C 1414.75 5.43249 2.07979 0
M  V30 14741 N 1413.73 4.83263 2.48913 0
M  V30 14742 H 1417.53 2.78736 0.93184 0
M  V30 14743 H 1415.04 1.56915 0.418485 0
M  V30 14744 H 1417.04 2.44997 3.37316 0
M  V30 14745 H 1415.7 1.35112 2.95254 0
M  V30 14746 H 1416.71 4.86033 1.78865 0
M  V30 14747 H 1413.39 2.69334 3.19007 0
M  V30 14748 H 1414.78 6.47981 1.77681 0
M  V30 14749 N 1417.5 -0.477127 1.50204 0
M  V30 14750 C 1418.74 -1.23956 1.62525 0
M  V30 14751 C 1419.1 -1.89385 0.315789 0
M  V30 14752 O 1420.3 -2.66955 0.314378 0
M  V30 14753 C 1418.57 -2.25999 2.76874 0
M  V30 14754 S 1420.13 -3.11262 3.09292 0
M  V30 14755 H 1416.95 -0.420931 0.573008 0
M  V30 14756 H 1419.55 -0.537592 1.87963 0
M  V30 14757 H 1418.26 -1.76501 3.70507 0
M  V30 14758 H 1417.79 -3.00832 2.53503 0
M  V30 14759 H 1419.8 -4.27061 2.52652 0
M  V30 14760 N 1418.98 -1.3968 -0.729882 0
M  V30 14761 C 1420.2 -1.40654 -1.52418 0
M  V30 14762 C 1420.63 -0.00428997 -1.881 0
M  V30 14763 O 1419.98 0.984023 -1.52272 0
M  V30 14764 C 1420.03 -2.29057 -2.78506 0
M  V30 14765 O 1419.14 -1.72397 -3.74637 0
M  V30 14766 H 1418.48 -0.478761 -0.460091 0
M  V30 14767 H 1421.01 -1.83738 -0.900087 0
M  V30 14768 H 1421.02 -2.43748 -3.27187 0
M  V30 14769 H 1419.69 -3.30961 -2.51868 0
M  V30 14770 H 1418.27 -1.66977 -3.33426 0
M  V30 14771 N 1420.45 0.960609 -1.2494 0
M  V30 14772 C 1421.38 2.074 -1.07274 0
M  V30 14773 C 1422.37 1.70092 0.0164365 0
M  V30 14774 O 1423.55 1.93604 -0.151975 0
M  V30 14775 C 1420.68 3.40491 -0.684317 0
M  V30 14776 C 1419.63 3.91784 -1.72306 0
M  V30 14777 C 1418.96 5.21301 -1.18949 0
M  V30 14778 C 1420.26 4.18829 -3.12056 0
M  V30 14779 H 1421.95 2.22438 -2.00404 0
M  V30 14780 H 1419.5 1.06888 -0.964937 0
M  V30 14781 H 1421.45 4.17826 -0.547686 0
M  V30 14782 H 1420.18 3.25374 0.282687 0
M  V30 14783 H 1418.84 3.16613 -1.84802 0
M  V30 14784 H 1418.48 5.02549 -0.212892 0
M  V30 14785 H 1418.18 5.56588 -1.8837 0
M  V30 14786 H 1419.71 6.01238 -1.06513 0
M  V30 14787 H 1421.12 4.86844 -3.02748 0
M  V30 14788 H 1419.52 4.6536 -3.78894 0
M  V30 14789 H 1420.59 3.25333 -3.59564 0
M  V30 14790 N 1421.93 1.0643 1.16234 0
M  V30 14791 C 1422.86 0.697605 2.22836 0
M  V30 14792 C 1423.84 -0.310563 1.67241 0
M  V30 14793 O 1425.03 -0.185385 1.93313 0
M  V30 14794 C 1422.16 0.0847097 3.47197 0
M  V30 14795 C 1421.11 1.019 4.15693 0
M  V30 14796 C 1420.44 0.269339 5.34021 0
M  V30 14797 C 1421.74 2.34861 4.66516 0
M  V30 14798 H 1423.43 1.58883 2.53765 0
M  V30 14799 H 1420.98 0.765388 1.21975 0
M  V30 14800 H 1422.93 -0.1837 4.20999 0
M  V30 14801 H 1421.66 -0.84154 3.15572 0
M  V30 14802 H 1420.31 1.27218 3.43818 0
M  V30 14803 H 1419.96 -0.660072 4.9865 0
M  V30 14804 H 1419.66 0.892001 5.8079 0
M  V30 14805 H 1421.19 0.00850775 6.10599 0
M  V30 14806 H 1422.6 2.13922 5.31893 0
M  V30 14807 H 1421 2.92637 5.23912 0
M  V30 14808 H 1422.07 2.97834 3.82653 0
M  V30 14809 N 1423.41 -1.329 0.847073 0
M  V30 14810 C 1424.36 -2.26534 0.258111 0
M  V30 14811 C 1425.34 -1.49627 -0.591653 0
M  V30 14812 O 1426.54 -1.71385 -0.442277 0
M  V30 14813 C 1423.67 -3.38719 -0.558969 0
M  V30 14814 C 1422.75 -4.23018 0.30276 0
M  V30 14815 N 1423.14 -4.86457 1.38541 0
M  V30 14816 C 1421.44 -4.45907 0.0911992 0
M  V30 14817 C 1422.14 -5.49277 1.91492 0
M  V30 14818 N 1421.12 -5.29843 1.21519 0
M  V30 14819 H 1424.92 -2.73103 1.0859 0
M  V30 14820 H 1422.43 -1.46901 0.692386 0
M  V30 14821 H 1424.43 -4.04797 -0.997259 0
M  V30 14822 H 1423.09 -2.93697 -1.38464 0
M  V30 14823 H 1424.1 -4.86776 1.76832 0
M  V30 14824 H 1420.78 -4.11584 -0.70037 0
M  V30 14825 H 1422.17 -6.09764 2.82201 0
M  V30 14826 N 1424.89 -0.604284 -1.45555 0
M  V30 14827 C 1426.12 -0.104301 -2.06337 0
M  V30 14828 C 1426.53 1.21523 -1.45013 0
M  V30 14829 O 1425.87 1.75039 -0.557422 0
M  V30 14830 C 1425.93 0.113202 -3.59322 0
M  V30 14831 C 1425.6 -1.12402 -4.42961 0
M  V30 14832 C 1426.59 -2.04136 -4.78147 0
M  V30 14833 C 1424.28 -1.35192 -4.83765 0
M  V30 14834 C 1426.27 -3.16991 -5.52988 0
M  V30 14835 C 1423.96 -2.48348 -5.5836 0
M  V30 14836 C 1424.96 -3.39076 -5.92888 0
M  V30 14837 O 1424.64 -4.50264 -6.65971 0
M  V30 14838 H 1424.38 -0.0644639 -0.672919 0
M  V30 14839 H 1426.93 -0.830982 -1.8784 0
M  V30 14840 H 1425.16 0.894739 -3.76206 0
M  V30 14841 H 1426.85 0.564372 -4.01957 0
M  V30 14842 H 1427.62 -1.87753 -4.47184 0
M  V30 14843 H 1423.49 -0.654731 -4.56327 0
M  V30 14844 H 1427.04 -3.87831 -5.79856 0
M  V30 14845 H 1422.94 -2.64686 -5.88737 0
M  V30 14846 H 1423.7 -4.48904 -6.84418 0
M  V30 14847 N 1426.37 1.53816 -0.343257 0
M  V30 14848 C 1427.33 2.23654 0.501161 0
M  V30 14849 C 1428.33 1.23664 1.02781 0
M  V30 14850 O 1429.52 1.48104 0.917103 0
M  V30 14851 C 1426.65 2.95596 1.69812 0
M  V30 14852 H 1427.84 2.997 -0.109626 0
M  V30 14853 H 1425.4 1.56013 -0.0946011 0
M  V30 14854 H 1426.13 2.23736 2.34761 0
M  V30 14855 H 1425.92 3.68938 1.32768 0
M  V30 14856 H 1427.41 3.48748 2.29706 0
M  V30 14857 N 1427.84 0.0718701 1.57436 0
M  V30 14858 C 1428.81 -0.880671 2.11605 0
M  V30 14859 C 1429.81 -1.22632 1.0401 0
M  V30 14860 O 1431 -1.15958 1.29997 0
M  V30 14861 C 1428.13 -2.18407 2.61746 0
M  V30 14862 H 1429.32 -0.410712 2.97074 0
M  V30 14863 H 1426.88 -0.176836 1.55296 0
M  V30 14864 H 1427.61 -2.6994 1.79731 0
M  V30 14865 H 1427.4 -1.94616 3.40392 0
M  V30 14866 H 1428.89 -2.86596 3.03731 0
M  V30 14867 N 1429.32 -1.56304 -0.201686 0
M  V30 14868 C 1430.27 -1.94021 -1.24999 0
M  V30 14869 C 1431.24 -0.799926 -1.45569 0
M  V30 14870 O 1432.42 -1.05752 -1.58811 0
M  V30 14871 C 1429.56 -2.27935 -2.59113 0
M  V30 14872 C 1428.68 -3.54995 -2.46176 0
M  V30 14873 C 1427.81 -3.78262 -3.72949 0
M  V30 14874 C 1426.85 -4.9877 -3.54817 0
M  V30 14875 N 1425.99 -5.18325 -4.73586 0
M  V30 14876 H 1430.83 -2.834 -0.92134 0
M  V30 14877 H 1428.37 -1.40252 -0.44359 0
M  V30 14878 H 1430.32 -2.45613 -3.37239 0
M  V30 14879 H 1428.95 -1.41705 -2.90034 0
M  V30 14880 H 1428.01 -3.45401 -1.59381 0
M  V30 14881 H 1429.32 -4.43277 -2.28708 0
M  V30 14882 H 1428.47 -3.96144 -4.59516 0
M  V30 14883 H 1427.21 -2.88299 -3.93364 0
M  V30 14884 H 1426.22 -4.80818 -2.66635 0
M  V30 14885 H 1427.44 -5.90237 -3.35854 0
M  V30 14886 H 1425.39 -4.31308 -4.94277 0
M  V30 14887 H 1425.3 -6.00774 -4.58919 0
M  V30 14888 H 1426.57 -5.40659 -5.61523 0
M  V30 14889 N 1430.8 0.469154 -1.50455 0
M  V30 14890 C 1432.03 1.24432 -1.653 0
M  V30 14891 C 1432.44 1.85766 -0.33713 0
M  V30 14892 O 1431.8 1.69313 0.681118 0
M  V30 14893 C 1431.85 2.35163 -2.74555 0
M  V30 14894 O 1431.57 1.76344 -4.01042 0
M  V30 14895 C 1433.07 3.26006 -3.00391 0
M  V30 14896 H 1430.29 0.376251 -0.555587 0
M  V30 14897 H 1432.84 0.559777 -1.96689 0
M  V30 14898 H 1430.99 2.99389 -2.45855 0
M  V30 14899 H 1431.41 2.49278 -4.61477 0
M  V30 14900 H 1432.88 3.99909 -3.80496 0
M  V30 14901 H 1433.36 3.84901 -2.11537 0
M  V30 14902 H 1433.96 2.67515 -3.3063 0
M  V30 14903 N 1432.28 1.40065 0.722464 0
M  V30 14904 C 1433.53 1.37698 1.47932 0
M  V30 14905 C 1433.85 -0.0222608 1.94987 0
M  V30 14906 O 1433.12 -0.975795 1.69868 0
M  V30 14907 H 1431.7 0.506766 0.548815 0
M  V30 14908 H 1434.36 1.75053 0.856884 0
M  V30 14909 H 1433.46 2.04756 2.35545 0
M  V30 14910 N 1433.76 -0.95397 1.25448 0
M  V30 14911 C 1434.71 -2.07206 1.05681 0
M  V30 14912 C 1435.7 -1.69395 -0.0124672 0
M  V30 14913 O 1436.91 -1.79429 0.143201 0
M  V30 14914 H 1433.28 -0.678231 0.324817 0
M  V30 14915 H 1435.25 -2.21034 2.00466 0
M  V30 14916 C 1434 -3.40725 0.692955 0
M  V30 14917 H 1433.32 -3.70287 1.50756 0
M  V30 14918 H 1434.76 -4.19814 0.594351 0
M  V30 14919 C 1433.22 -3.31495 -0.601028 0
M  V30 14920 O 1433.75 -3.66565 -1.64296 0
M  V30 14921 N 1431.96 -2.84612 -0.586899 0
M  V30 14922 H 1431.51 -2.56271 0.261375 0
M  V30 14923 H 1431.46 -2.78819 -1.45284 0
M  V30 14924 N 1435.24 -1.07045 -1.15668 0
M  V30 14925 C 1436.48 -0.790172 -1.86013 0
M  V30 14926 C 1436.8 0.685663 -1.82548 0
M  V30 14927 O 1436.07 1.49644 -1.26426 0
M  V30 14928 H 1434.65 -0.28931 -0.688701 0
M  V30 14929 H 1437.32 -1.35354 -1.40233 0
M  V30 14930 H 1436.41 -1.1219 -2.91239 0
M  V30 14931 N 1436.71 1.32449 -0.85411 0
M  V30 14932 C 1437.62 2.32658 -0.301221 0
M  V30 14933 C 1438.64 1.64025 0.580673 0
M  V30 14934 O 1439.82 1.95568 0.481172 0
M  V30 14935 C 1436.88 3.43049 0.501803 0
M  V30 14936 C 1435.94 4.27374 -0.406166 0
M  V30 14937 C 1435.17 5.32494 0.358627 0
M  V30 14938 O 1435.4 5.4783 1.58865 0
M  V30 14939 O 1434.33 6.0127 -0.275291 0
M  V30 14940 H 1438.16 2.81838 -1.13143 0
M  V30 14941 H 1435.74 1.36063 -0.617032 0
M  V30 14942 H 1437.62 4.10375 0.957608 0
M  V30 14943 H 1436.3 2.9606 1.30882 0
M  V30 14944 H 1435.21 3.6286 -0.910136 0
M  V30 14945 H 1436.54 4.77887 -1.17835 0
M  V30 14946 N 1438.19 0.611994 1.45232 0
M  V30 14947 C 1439.44 0.106467 2.01419 0
M  V30 14948 C 1439.75 -1.2723 1.48566 0
M  V30 14949 O 1440.96 -1.8708 1.96757 0
M  V30 14950 C 1439.42 0.139639 3.59629 0
M  V30 14951 C 1439.02 1.51853 4.21479 0
M  V30 14952 C 1440.77 -0.310417 4.23364 0
M  V30 14953 C 1438.67 1.50785 5.71855 0
M  V30 14954 H 1437.6 0.0360345 0.753138 0
M  V30 14955 H 1440.26 0.767974 1.66657 0
M  V30 14956 H 1438.64 -0.588606 3.91601 0
M  V30 14957 H 1439.81 2.26884 4.01074 0
M  V30 14958 H 1438.13 1.91105 3.69956 0
M  V30 14959 H 1440.72 -0.337656 5.33633 0
M  V30 14960 H 1441.07 -1.33398 3.94348 0
M  V30 14961 H 1441.6 0.364704 3.96125 0
M  V30 14962 H 1438.34 2.50916 6.05575 0
M  V30 14963 H 1437.86 0.800195 5.94438 0
M  V30 14964 H 1439.54 1.23341 6.35135 0
M  V30 14965 N 1439.67 -1.53632 0.351409 0
M  V30 14966 C 1440.92 -2.01338 -0.243047 0
M  V30 14967 C 1441.25 -1.23864 -1.4957 0
M  V30 14968 O 1440.52 -0.328412 -1.91707 0
M  V30 14969 C 1440.81 -3.55886 -0.549284 0
M  V30 14970 C 1440.66 -4.44064 0.716016 0
M  V30 14971 C 1441.98 -4.18699 -1.35569 0
M  V30 14972 H 1439.1 -0.731863 -0.0868627 0
M  V30 14973 H 1441.74 -1.84005 0.473501 0
M  V30 14974 H 1439.89 -3.70787 -1.15972 0
M  V30 14975 H 1441.56 -4.40987 1.35383 0
M  V30 14976 H 1439.8 -4.12608 1.3393 0
M  V30 14977 H 1440.48 -5.50106 0.456895 0
M  V30 14978 H 1442.95 -4.07545 -0.839441 0
M  V30 14979 H 1441.83 -5.26892 -1.53871 0
M  V30 14980 H 1442.09 -3.73834 -2.3601 0
M  V30 14981 N 1441.15 -0.0802183 -1.57396 0
M  V30 14982 C 1442.09 0.884041 -2.13198 0
M  V30 14983 C 1443.06 1.28975 -1.04664 0
M  V30 14984 O 1444.25 1.37413 -1.32372 0
M  V30 14985 C 1441.39 2.14323 -2.7048 0
M  V30 14986 C 1440.5 1.7894 -3.93198 0
M  V30 14987 C 1439.64 2.99534 -4.38695 0
M  V30 14988 C 1438.68 2.60207 -5.54039 0
M  V30 14989 N 1437.81 3.73587 -5.94455 0
M  V30 14990 H 1442.65 0.40131 -2.95285 0
M  V30 14991 H 1440.19 0.186429 -1.45914 0
M  V30 14992 H 1442.15 2.88046 -3.01804 0
M  V30 14993 H 1440.78 2.60122 -1.91144 0
M  V30 14994 H 1439.83 0.952465 -3.68283 0
M  V30 14995 H 1441.14 1.46012 -4.76951 0
M  V30 14996 H 1440.3 3.81526 -4.71724 0
M  V30 14997 H 1439.04 3.35661 -3.53812 0
M  V30 14998 H 1438.04 1.76638 -5.20652 0
M  V30 14999 H 1439.27 2.2524 -6.40659 0
M  V30 15000 H 1437.21 4.0946 -5.12521 0
M  V30 15001 H 1437.13 3.44455 -6.72969 0
M  V30 15002 H 1438.4 4.56133 -6.3211 0
M  V30 15003 N 1442.63 1.56409 0.193394 0
M  V30 15004 C 1443.86 1.84569 0.928328 0
M  V30 15005 C 1444.26 0.660788 1.77286 0
M  V30 15006 O 1443.61 -0.379752 1.79732 0
M  V30 15007 C 1443.67 3.06854 1.87299 0
M  V30 15008 C 1443.33 4.40684 1.21025 0
M  V30 15009 C 1444.33 5.16583 0.58635 0
M  V30 15010 C 1442.01 4.87419 1.21359 0
M  V30 15011 C 1444.01 6.37395 -0.0253573 0
M  V30 15012 C 1441.7 6.08167 0.598052 0
M  V30 15013 C 1442.69 6.82997 -0.0203414 0
M  V30 15014 O 1442.38 8.01457 -0.626232 0
M  V30 15015 H 1442.11 0.616966 0.276277 0
M  V30 15016 H 1444.67 2.04373 0.205102 0
M  V30 15017 H 1442.9 2.82938 2.63596 0
M  V30 15018 H 1444.59 3.21645 2.47587 0
M  V30 15019 H 1445.35 4.81569 0.575894 0
M  V30 15020 H 1441.23 4.29129 1.68432 0
M  V30 15021 H 1444.78 6.95743 -0.508644 0
M  V30 15022 H 1440.67 6.42649 0.606017 0
M  V30 15023 H 1441.44 8.16825 -0.523305 0
M  V30 15024 N 1444.1 -0.461169 1.50702 0
M  V30 15025 C 1445.35 -1.20934 1.61425 0
M  V30 15026 C 1445.67 -1.92884 0.32481 0
M  V30 15027 O 1446.87 -2.69712 0.311081 0
M  V30 15028 C 1445.33 -2.19797 2.84987 0
M  V30 15029 C 1444.94 -1.53604 4.20844 0
M  V30 15030 C 1446.68 -2.95194 3.05059 0
M  V30 15031 C 1444.59 -2.50811 5.35582 0
M  V30 15032 H 1443.52 -0.455088 0.601174 0
M  V30 15033 H 1446.17 -0.478771 1.77144 0
M  V30 15034 H 1444.55 -2.96187 2.62848 0
M  V30 15035 H 1445.72 -0.829345 4.53275 0
M  V30 15036 H 1444.04 -0.904504 4.06457 0
M  V30 15037 H 1446.64 -3.67965 3.87951 0
M  V30 15038 H 1446.98 -3.5516 2.1718 0
M  V30 15039 H 1447.51 -2.25915 3.27425 0
M  V30 15040 H 1444.25 -1.9557 6.25646 0
M  V30 15041 H 1443.77 -3.19604 5.07556 0
M  V30 15042 H 1445.45 -3.12437 5.66561 0
M  V30 15043 N 1445.58 -1.40446 -0.715026 0
M  V30 15044 C 1446.51 -1.43511 -1.84193 0
M  V30 15045 C 1447.49 -0.295969 -1.67505 0
M  V30 15046 O 1448.68 -0.504667 -1.87528 0
M  V30 15047 C 1445.81 -1.29751 -3.22152 0
M  V30 15048 C 1444.76 -2.41274 -3.53512 0
M  V30 15049 C 1444.09 -2.12591 -4.90621 0
M  V30 15050 C 1445.39 -3.83614 -3.54454 0
M  V30 15051 H 1447.08 -2.37819 -1.81885 0
M  V30 15052 H 1444.63 -1.14469 -0.873655 0
M  V30 15053 H 1446.58 -1.30511 -4.0068 0
M  V30 15054 H 1445.3 -0.319189 -3.25037 0
M  V30 15055 H 1443.96 -2.39764 -2.77324 0
M  V30 15056 H 1443.61 -1.13148 -4.90109 0
M  V30 15057 H 1443.31 -2.87308 -5.1257 0
M  V30 15058 H 1444.84 -2.15034 -5.71483 0
M  V30 15059 H 1446.25 -3.86945 -4.23021 0
M  V30 15060 H 1444.65 -4.57855 -3.87929 0
M  V30 15061 H 1445.72 -4.13159 -2.53827 0
M  V30 15062 N 1447.06 0.947303 -1.25952 0
M  V30 15063 C 1448.34 1.66964 -1.01894 0
M  V30 15064 C 1448.72 2.06192 0.452555 0
M  V30 15065 O 1448.06 1.78098 1.43156 0
M  V30 15066 C 1448.27 2.88643 -1.96179 0
M  V30 15067 C 1449.62 3.60432 -2.24441 0
M  V30 15068 O 1450.65 2.98737 -1.93996 0
M  V30 15069 O 1449.51 4.7154 -2.76247 0
M  V30 15070 H 1446.6 0.730875 -0.386976 0
M  V30 15071 H 1449.15 0.999577 -1.37137 0
M  V30 15072 H 1447.92 2.565 -2.95506 0
M  V30 15073 H 1447.54 3.63377 -1.61379 0
M  V30 15074 N 1448.54 1.07657 1.15099 0
M  V30 15075 C 1449.49 0.669428 2.17951 0
M  V30 15076 C 1450.47 -0.307034 1.57943 0
M  V30 15077 O 1451.66 -0.120267 1.76591 0
M  V30 15078 C 1448.79 0.0720873 3.43224 0
M  V30 15079 C 1447.88 1.07388 4.10279 0
M  V30 15080 N 1448.27 2.25455 4.52773 0
M  V30 15081 C 1446.57 0.907909 4.36661 0
M  V30 15082 C 1447.27 2.89035 5.0481 0
M  V30 15083 N 1446.25 2.16684 4.98547 0
M  V30 15084 H 1450.05 1.56862 2.48539 0
M  V30 15085 H 1447.56 0.950198 1.317 0
M  V30 15086 H 1449.56 -0.237505 4.16223 0
M  V30 15087 H 1448.22 -0.822183 3.14118 0
M  V30 15088 H 1449.23 2.63155 4.4606 0
M  V30 15089 H 1445.91 0.0667966 4.17447 0
M  V30 15090 H 1447.3 3.89303 5.47625 0
M  V30 15091 N 1450.02 -1.31994 0.861122 0
M  V30 15092 C 1451.26 -1.96636 0.466754 0
M  V30 15093 C 1451.59 -1.6845 -0.982328 0
M  V30 15094 O 1450.86 -0.995157 -1.68741 0
M  V30 15095 H 1449.44 -0.727489 0.169613 0
M  V30 15096 H 1452.1 -1.60962 1.09897 0
M  V30 15097 H 1451.19 -3.05937 0.61716 0
M  V30 15098 N 1451.49 -0.619688 -1.44906 0
M  V30 15099 C 1452.91 -0.203309 -1.8559 0
M  V30 15100 C 1453.26 1.24265 -1.51831 0
M  V30 15101 O 1452.38 1.94392 -0.950819 0
M  V30 15102 C 1452.98 -0.362204 -3.36858 0
M  V30 15103 C 1451.54 -0.000423575 -3.764 0
M  V30 15104 C 1450.68 -0.680979 -2.68808 0
M  V30 15105 H 1453.63 -0.825595 -1.35535 0
M  V30 15106 H 1453.65 0.402149 -3.78369 0
M  V30 15107 H 1453.17 -1.41468 -3.61398 0
M  V30 15108 H 1451.27 1.05077 -3.57477 0
M  V30 15109 H 1451.38 -0.402508 -4.77406 0
M  V30 15110 H 1449.74 -0.117407 -2.54429 0
M  V30 15111 H 1450.53 -1.73583 -2.96182 0
M  V30 15112 N 1452.97 1.53444 -0.359552 0
M  V30 15113 C 1454.2 2.06058 0.235576 0
M  V30 15114 C 1454.62 1.23175 1.42161 0
M  V30 15115 O 1453.98 0.249338 1.79577 0
M  V30 15116 C 1454.03 3.55351 0.613025 0
M  V30 15117 O 1453.13 3.75229 1.71104 0
M  V30 15118 H 1452.47 0.663038 0.0357266 0
M  V30 15119 H 1455 1.97923 -0.518408 0
M  V30 15120 H 1455.01 3.9827 0.885722 0
M  V30 15121 H 1453.69 4.15122 -0.254243 0
M  V30 15122 H 1452.27 3.4421 1.43437 0
M  V30 15123 N 1454.45 0.0885642 1.57351 0
M  V30 15124 C 1455.36 -0.887092 2.17182 0
M  V30 15125 C 1456.38 -1.31498 1.13949 0
M  V30 15126 O 1457.55 -1.38424 1.4629 0
M  V30 15127 C 1454.62 -2.13053 2.73513 0
M  V30 15128 C 1453.68 -1.75747 3.91678 0
M  V30 15129 C 1452.91 -2.94163 4.45313 0
M  V30 15130 O 1453.13 -4.08693 3.97903 0
M  V30 15131 O 1452.07 -2.73008 5.36424 0
M  V30 15132 H 1455.89 -0.408073 3.00946 0
M  V30 15133 H 1453.48 -0.135431 1.48785 0
M  V30 15134 H 1455.36 -2.85937 3.09545 0
M  V30 15135 H 1454.04 -2.6002 1.92798 0
M  V30 15136 H 1452.94 -1.00064 3.60469 0
M  V30 15137 H 1454.28 -1.33549 4.73736 0
M  V30 15138 N 1455.93 -1.56509 -0.185096 0
M  V30 15139 C 1456.86 -1.98363 -1.23184 0
M  V30 15140 C 1457.84 -0.85709 -1.46929 0
M  V30 15141 O 1459.02 -1.12216 -1.58497 0
M  V30 15142 C 1456.15 -2.33172 -2.57387 0
M  V30 15143 C 1455.11 -3.48658 -2.48236 0
M  V30 15144 C 1454.43 -3.69171 -3.86804 0
M  V30 15145 C 1455.73 -4.82538 -1.99885 0
M  V30 15146 H 1457.43 -2.86053 -0.883982 0
M  V30 15147 H 1454.97 -1.37623 -0.423786 0
M  V30 15148 H 1456.93 -2.61048 -3.30805 0
M  V30 15149 H 1455.65 -1.42377 -2.93933 0
M  V30 15150 H 1454.31 -3.20889 -1.77273 0
M  V30 15151 H 1453.96 -2.75689 -4.20719 0
M  V30 15152 H 1453.66 -4.46868 -3.81553 0
M  V30 15153 H 1455.18 -3.99433 -4.61829 0
M  V30 15154 H 1456.6 -5.0938 -2.63068 0
M  V30 15155 H 1454.99 -5.63775 -2.05614 0
M  V30 15156 H 1456.06 -4.75453 -0.952503 0
M  V30 15157 N 1457.41 0.45317 -1.50944 0
M  V30 15158 C 1458.34 1.55655 -1.74051 0
M  V30 15159 C 1459.32 1.59545 -0.58987 0
M  V30 15160 O 1460.5 1.75526 -0.830922 0
M  V30 15161 C 1457.63 2.93857 -1.85109 0
M  V30 15162 C 1456.59 3.04832 -3.00435 0
M  V30 15163 C 1455.91 4.44858 -2.96657 0
M  V30 15164 C 1457.21 2.80381 -4.40663 0
M  V30 15165 H 1458.91 1.36571 -2.66437 0
M  V30 15166 H 1456.45 0.655572 -1.28212 0
M  V30 15167 H 1458.41 3.70992 -1.99857 0
M  V30 15168 H 1457.13 3.14138 -0.893579 0
M  V30 15169 H 1455.79 2.30134 -2.85366 0
M  V30 15170 H 1455.44 4.62083 -1.98716 0
M  V30 15171 H 1455.14 4.53134 -3.7409 0
M  V30 15172 H 1456.66 5.23989 -3.13478 0
M  V30 15173 H 1458.07 3.47255 -4.56165 0
M  V30 15174 H 1456.47 3.00083 -5.19683 0
M  V30 15175 H 1457.54 1.76099 -4.51793 0
M  V30 15176 N 1458.88 1.40823 0.707568 0
M  V30 15177 C 1460.16 1.3003 1.46122 0
M  V30 15178 C 1460.54 -0.0776873 2.10957 0
M  V30 15179 O 1459.89 -1.09109 2.00767 0
M  V30 15180 C 1460.1 2.44498 2.49042 0
M  V30 15181 C 1461.45 2.85106 3.14642 0
M  V30 15182 O 1462.47 2.44149 2.59364 0
M  V30 15183 O 1461.33 3.55892 4.14733 0
M  V30 15184 H 1458.42 0.511082 0.650172 0
M  V30 15185 H 1460.97 1.52761 0.739062 0
M  V30 15186 H 1459.74 3.36502 1.99705 0
M  V30 15187 H 1459.37 2.23579 3.28783 0
M  V30 15188 N 1460.36 -0.94061 1.26453 0
M  V30 15189 C 1461.3 -2.03945 1.0238 0
M  V30 15190 C 1462.27 -1.62518 -0.051622 0
M  V30 15191 O 1463.46 -1.88281 0.09091 0
M  V30 15192 C 1460.58 -3.34197 0.550464 0
M  V30 15193 C 1459.63 -3.94596 1.61853 0
M  V30 15194 S 1460.46 -4.28803 3.20762 0
M  V30 15195 C 1461.62 -5.62154 2.75198 0
M  V30 15196 H 1461.85 -2.24051 1.95419 0
M  V30 15197 H 1459.39 -1.08207 1.10139 0
M  V30 15198 H 1461.34 -4.09516 0.284031 0
M  V30 15199 H 1460 -3.12034 -0.359649 0
M  V30 15200 H 1459.2 -4.8855 1.23835 0
M  V30 15201 H 1458.8 -3.25812 1.83637 0
M  V30 15202 H 1461.09 -6.40889 2.19697 0
M  V30 15203 H 1462.03 -6.05057 3.67847 0
M  V30 15204 H 1462.44 -5.22058 2.14745 0
M  V30 15205 N 1461.84 -1.08266 -1.14527 0
M  V30 15206 C 1462.8 -0.715117 -2.17758 0
M  V30 15207 C 1463.8 0.24935 -1.58855 0
M  V30 15208 O 1464.99 0.0290846 -1.74176 0
M  V30 15209 C 1462.13 -0.055575 -3.40855 0
M  V30 15210 H 1463.32 -1.62921 -2.51787 0
M  V30 15211 H 1460.87 -0.880346 -1.2915 0
M  V30 15212 H 1461.61 0.870312 -3.12404 0
M  V30 15213 H 1461.39 -0.749382 -3.84872 0
M  V30 15214 H 1462.88 0.186592 -4.17183 0
M  V30 15215 N 1463.32 1.31536 -0.86811 0
M  V30 15216 C 1464.6 1.9149 -0.398866 0
M  V30 15217 C 1464.98 1.79008 1.1189 0
M  V30 15218 O 1464.32 1.19659 1.94664 0
M  V30 15219 C 1464.53 3.37771 -0.878173 0
M  V30 15220 C 1465.88 4.14882 -0.903216 0
M  V30 15221 O 1466.91 3.46545 -0.823703 0
M  V30 15222 O 1465.77 5.36936 -1.01794 0
M  V30 15223 H 1462.86 0.818398 -0.118971 0
M  V30 15224 H 1465.41 1.40216 -0.955899 0
M  V30 15225 H 1464.18 3.40861 -1.9217 0
M  V30 15226 H 1463.8 3.96472 -0.299346 0
M  V30 15227 N 1464.8 0.627364 1.44575 0
M  V30 15228 C 1466.02 0.135576 2.06956 0
M  V30 15229 C 1466.45 -1.17922 1.46547 0
M  V30 15230 O 1465.81 -1.72255 0.565509 0
M  V30 15231 C 1465.85 0.030347 3.60587 0
M  V30 15232 O 1464.96 -1.01464 3.99724 0
M  V30 15233 H 1464.3 0.083058 0.658785 0
M  V30 15234 H 1466.83 0.862977 1.8551 0
M  V30 15235 H 1466.84 -0.161461 4.0768 0
M  V30 15236 H 1465.51 0.990285 4.03938 0
M  V30 15237 H 1464.09 -0.797701 3.64268 0
M  V30 15238 N 1466.28 -1.53251 0.367684 0
M  V30 15239 C 1467.19 -2.29518 -0.485669 0
M  V30 15240 C 1468.2 -1.35568 -1.09075 0
M  V30 15241 O 1469.38 -1.68626 -1.10124 0
M  V30 15242 C 1466.44 -3.07115 -1.60876 0
M  V30 15243 C 1465.5 -4.16736 -1.031 0
M  V30 15244 C 1464.74 -4.90624 -2.10056 0
M  V30 15245 O 1464.96 -4.64393 -3.31203 0
M  V30 15246 O 1463.89 -5.76503 -1.72996 0
M  V30 15247 H 1467.72 -3.034 0.135017 0
M  V30 15248 H 1465.3 -1.48816 0.132005 0
M  V30 15249 H 1467.19 -3.55564 -2.26168 0
M  V30 15250 H 1465.86 -2.36068 -2.21481 0
M  V30 15251 H 1464.77 -3.72534 -0.341928 0
M  V30 15252 H 1466.1 -4.89956 -0.469473 0
M  V30 15253 N 1467.75 -0.0969077 -1.57302 0
M  V30 15254 C 1468.98 0.574705 -1.98758 0
M  V30 15255 C 1469.4 1.61612 -0.976067 0
M  V30 15256 O 1468.75 1.82468 0.0340803 0
M  V30 15257 C 1468.8 1.22078 -3.40263 0
M  V30 15258 O 1468.53 0.221022 -4.37542 0
M  V30 15259 C 1470.03 1.97783 -3.96732 0
M  V30 15260 H 1467.25 0.153934 -0.653104 0
M  V30 15261 H 1469.79 -0.17673 -2.03735 0
M  V30 15262 H 1467.95 1.92314 -3.36295 0
M  V30 15263 H 1468.36 0.687583 -5.19974 0
M  V30 15264 H 1469.83 2.38346 -4.97891 0
M  V30 15265 H 1470.31 2.8444 -3.3465 0
M  V30 15266 H 1470.92 1.3236 -4.04179 0
M  V30 15267 N 1469.23 1.56605 0.176793 0
M  V30 15268 C 1470.48 1.81324 0.892535 0
M  V30 15269 C 1470.8 0.67301 1.83018 0
M  V30 15270 O 1470.07 -0.307498 1.93472 0
M  V30 15271 H 1468.65 0.668881 0.332576 0
M  V30 15272 H 1471.31 1.94086 0.17792 0
M  V30 15273 H 1470.41 2.75168 1.47272 0
M  V30 15274 N 1470.71 -0.445159 1.51182 0
M  V30 15275 C 1471.62 -1.5651 1.74762 0
M  V30 15276 C 1472.64 -1.62134 0.631542 0
M  V30 15277 O 1473.81 -1.79522 0.912898 0
M  V30 15278 C 1470.88 -2.92552 1.86049 0
M  V30 15279 C 1469.94 -2.97108 3.0988 0
M  V30 15280 C 1469.17 -4.2666 3.2062 0
M  V30 15281 O 1469.39 -5.18608 2.37491 0
M  V30 15282 O 1468.33 -4.3734 4.13542 0
M  V30 15283 H 1472.15 -1.3953 2.6975 0
M  V30 15284 H 1469.74 -0.627363 1.3559 0
M  V30 15285 H 1471.62 -3.73304 1.95504 0
M  V30 15286 H 1470.3 -3.09676 0.94248 0
M  V30 15287 H 1469.2 -2.15338 3.05909 0
M  V30 15288 H 1470.54 -2.84927 4.01345 0
M  V30 15289 N 1472.19 -1.41197 -0.700089 0
M  V30 15290 C 1473.42 -1.43658 -1.48896 0
M  V30 15291 C 1473.83 -0.0405771 -1.88756 0
M  V30 15292 O 1473.19 0.93909 -1.56484 0
M  V30 15293 C 1473.24 -2.34125 -2.75441 0
M  V30 15294 O 1472.96 -3.68291 -2.37261 0
M  V30 15295 C 1474.46 -2.45342 -3.69218 0
M  V30 15296 H 1471.68 -0.48945 -0.458999 0
M  V30 15297 H 1474.22 -1.85429 -0.862345 0
M  V30 15298 H 1472.38 -1.95674 -3.34351 0
M  V30 15299 H 1472.79 -4.16495 -3.18798 0
M  V30 15300 H 1474.27 -3.12818 -4.54807 0
M  V30 15301 H 1474.74 -1.48327 -4.13395 0
M  V30 15302 H 1475.35 -2.84409 -3.16214 0
M  V30 15303 N 1473.67 0.933891 -1.2695 0
M  V30 15304 C 1474.63 2.0152 -1.0919 0
M  V30 15305 C 1475.63 1.60755 -0.037865 0
M  V30 15306 O 1476.82 1.71904 -0.281917 0
M  V30 15307 C 1473.95 3.34403 -0.66239 0
M  V30 15308 H 1475.14 2.18706 -2.05201 0
M  V30 15309 H 1472.7 1.11385 -1.0965 0
M  V30 15310 H 1473.43 3.22915 0.299388 0
M  V30 15311 H 1473.22 3.65345 -1.42356 0
M  V30 15312 H 1474.71 4.13826 -0.560187 0
M  V30 15313 N 1475.14 1.08871 1.13951 0
M  V30 15314 C 1476.07 0.744715 2.21306 0
M  V30 15315 C 1477.05 -0.275019 1.67862 0
M  V30 15316 O 1478.24 -0.144339 1.93663 0
M  V30 15317 C 1475.37 0.158336 3.46939 0
M  V30 15318 C 1474.32 1.10695 4.13438 0
M  V30 15319 C 1473.65 0.382552 5.3333 0
M  V30 15320 C 1474.95 2.44704 4.61429 0
M  V30 15321 H 1476.64 1.6423 2.50337 0
M  V30 15322 H 1474.19 0.791088 1.20324 0
M  V30 15323 H 1476.14 -0.0943587 4.21294 0
M  V30 15324 H 1474.87 -0.774413 3.17286 0
M  V30 15325 H 1473.53 1.34482 3.41043 0
M  V30 15326 H 1473.17 -0.554153 4.99938 0
M  V30 15327 H 1472.87 1.01499 5.78767 0
M  V30 15328 H 1474.4 0.138023 6.10444 0
M  V30 15329 H 1475.81 2.25156 5.27236 0
M  V30 15330 H 1474.21 3.03684 5.17586 0
M  V30 15331 H 1475.28 3.05883 3.76249 0
M  V30 15332 N 1476.62 -1.31073 0.875073 0
M  V30 15333 C 1477.57 -2.25936 0.306104 0
M  V30 15334 C 1478.56 -1.50848 -0.559782 0
M  V30 15335 O 1479.75 -1.72285 -0.405824 0
M  V30 15336 C 1476.88 -3.39828 -0.486995 0
M  V30 15337 C 1475.96 -4.22281 0.392421 0
M  V30 15338 N 1476.35 -4.83409 1.48828 0
M  V30 15339 C 1474.65 -4.45613 0.185762 0
M  V30 15340 C 1475.35 -5.45092 2.031 0
M  V30 15341 N 1474.33 -5.27147 1.3273 0
M  V30 15342 H 1478.13 -2.70738 1.14359 0
M  V30 15343 H 1475.64 -1.45399 0.72339 0
M  V30 15344 H 1477.64 -4.06821 -0.911171 0
M  V30 15345 H 1476.3 -2.96568 -1.32203 0
M  V30 15346 H 1477.31 -4.82915 1.87118 0
M  V30 15347 H 1473.99 -4.12977 -0.61291 0
M  V30 15348 H 1475.38 -6.03641 2.95071 0
M  V30 15349 N 1478.1 -0.635022 -1.4424 0
M  V30 15350 C 1479.05 0.0675707 -2.30701 0
M  V30 15351 C 1480.02 0.832919 -1.43707 0
M  V30 15352 O 1481.2 0.813177 -1.72604 0
M  V30 15353 C 1478.34 1.04053 -3.2904 0
M  V30 15354 C 1477.46 0.273191 -4.31135 0
M  V30 15355 C 1476.59 1.23831 -5.16565 0
M  V30 15356 C 1475.63 0.460359 -6.10366 0
M  V30 15357 N 1474.77 1.37614 -6.88481 0
M  V30 15358 H 1479.61 -0.675656 -2.90239 0
M  V30 15359 H 1477.14 -0.344971 -1.42998 0
M  V30 15360 H 1479.1 1.61805 -3.84545 0
M  V30 15361 H 1477.73 1.75084 -2.71193 0
M  V30 15362 H 1476.78 -0.420315 -3.78071 0
M  V30 15363 H 1478.1 -0.332548 -4.9769 0
M  V30 15364 H 1477.25 1.88704 -5.76607 0
M  V30 15365 H 1475.99 1.87797 -4.50093 0
M  V30 15366 H 1474.99 -0.201836 -5.49429 0
M  V30 15367 H 1476.22 -0.174639 -6.78875 0
M  V30 15368 H 1474.16 2.00294 -6.24675 0
M  V30 15369 H 1474.08 0.82452 -7.5149 0
M  V30 15370 H 1475.35 2.01359 -7.53044 0
M  V30 15371 N 1479.58 1.53054 -0.375806 0
M  V30 15372 C 1480.54 2.24666 0.453608 0
M  V30 15373 C 1481.54 1.25816 1.00135 0
M  V30 15374 O 1482.73 1.50016 0.885481 0
M  V30 15375 C 1479.86 2.99131 1.63503 0
M  V30 15376 H 1481.06 2.994 -0.173172 0
M  V30 15377 H 1478.61 1.55778 -0.127673 0
M  V30 15378 H 1479.34 2.28666 2.29962 0
M  V30 15379 H 1479.13 3.71671 1.24913 0
M  V30 15380 H 1480.62 3.53542 2.22256 0
M  V30 15381 N 1481.06 0.105248 1.57248 0
M  V30 15382 C 1482.02 -0.835589 2.13426 0
M  V30 15383 C 1483.02 -1.20398 1.06587 0
M  V30 15384 O 1484.21 -1.13175 1.32428 0
M  V30 15385 C 1481.34 -2.12806 2.6632 0
M  V30 15386 H 1482.53 -0.347606 2.97879 0
M  V30 15387 H 1480.09 -0.143855 1.55637 0
M  V30 15388 H 1480.82 -2.66066 1.85416 0
M  V30 15389 H 1480.61 -1.87352 3.44444 0
M  V30 15390 H 1482.1 -2.80089 3.09741 0
M  V30 15391 N 1482.53 -1.56697 -0.168486 0
M  V30 15392 C 1483.77 -1.83952 -0.891116 0
M  V30 15393 C 1484.14 -0.68657 -1.79305 0
M  V30 15394 O 1485.34 -0.839644 -2.5535 0
M  V30 15395 C 1483.61 -3.16331 -1.66342 0
M  V30 15396 S 1485.17 -3.65077 -2.43442 0
M  V30 15397 H 1481.99 -0.645349 -0.298405 0
M  V30 15398 H 1484.59 -1.94904 -0.152554 0
M  V30 15399 H 1483.29 -3.98233 -0.991915 0
M  V30 15400 H 1482.82 -3.08328 -2.4433 0
M  V30 15401 H 1484.84 -3.32629 -3.68201 0
M  V30 15402 N 1484.01 0.437135 -1.51416 0
M  V30 15403 C 1484.94 1.54894 -1.68939 0
M  V30 15404 C 1485.96 1.52493 -0.570059 0
M  V30 15405 O 1487.15 1.57266 -0.844381 0
M  V30 15406 C 1484.25 2.9381 -1.68904 0
M  V30 15407 C 1483.42 3.20714 -2.97425 0
M  V30 15408 C 1482.48 4.39355 -2.89575 0
M  V30 15409 O 1481.5 4.37999 -3.63519 0
M  V30 15410 N 1482.71 5.42931 -2.05441 0
M  V30 15411 H 1485.47 1.40267 -2.64849 0
M  V30 15412 H 1483.03 0.626075 -1.49305 0
M  V30 15413 H 1485.02 3.71201 -1.61221 0
M  V30 15414 H 1483.59 3.02034 -0.805871 0
M  V30 15415 H 1482.81 2.31621 -3.18975 0
M  V30 15416 H 1484.1 3.35516 -3.825 0
M  V30 15417 H 1483.5 5.4687 -1.44742 0
M  V30 15418 H 1482.06 6.19173 -2.03636 0
M  V30 15419 N 1485.49 1.41566 0.692592 0
M  V30 15420 C 1486.91 1.24101 1.00355 0
M  V30 15421 C 1487.11 0.132485 2.01064 0
M  V30 15422 O 1486.16 -0.502142 2.47457 0
M  V30 15423 C 1487.48 2.59142 1.52532 0
M  V30 15424 C 1489.02 2.66348 1.64401 0
M  V30 15425 C 1489.5 4.01713 2.19978 0
M  V30 15426 N 1490.99 4.03575 2.27335 0
M  V30 15427 C 1491.72 5.05118 2.71373 0
M  V30 15428 N 1491.22 6.1705 3.14994 0
M  V30 15429 N 1493.01 4.92479 2.70963 0
M  V30 15430 H 1485.16 2.12385 0.0254859 0
M  V30 15431 H 1487.43 0.945118 0.0738684 0
M  V30 15432 H 1487.13 3.41026 0.85989 0
M  V30 15433 H 1487.01 2.81833 2.50699 0
M  V30 15434 H 1489.39 1.84821 2.30055 0
M  V30 15435 H 1489.48 2.47464 0.647717 0
M  V30 15436 H 1489.12 4.8369 1.54939 0
M  V30 15437 H 1489.05 4.1794 3.20365 0
M  V30 15438 H 1491.54 3.2276 1.96556 0
M  V30 15439 H 1491.85 6.90399 3.47231 0
M  V30 15440 H 1490.2 6.20582 3.12895 0
M  V30 15441 H 1493.39 4.04117 2.36236 0
M  V30 15442 H 1493.56 5.71752 3.04965 0
M  V30 15443 N 1486.97 -0.927146 1.27443 0
M  V30 15444 C 1487.92 -2.04917 1.10053 0
M  V30 15445 C 1488.91 -1.69384 0.0234668 0
M  V30 15446 O 1490.12 -1.79085 0.181228 0
M  V30 15447 H 1486.49 -0.671189 0.33913 0
M  V30 15448 H 1488.46 -2.16732 2.05109 0
M  V30 15449 C 1487.21 -3.39178 0.765072 0
M  V30 15450 H 1486.53 -3.67006 1.58577 0
M  V30 15451 H 1487.97 -4.18458 0.683266 0
M  V30 15452 C 1486.43 -3.32696 -0.530578 0
M  V30 15453 O 1486.96 -3.69967 -1.56484 0
M  V30 15454 N 1485.17 -2.85793 -0.526396 0
M  V30 15455 H 1484.72 -2.55658 0.315675 0
M  V30 15456 H 1484.67 -2.81838 -1.39337 0
M  V30 15457 N 1488.45 -1.09474 -1.13372 0
M  V30 15458 C 1489.86 -0.824541 -1.36651 0
M  V30 15459 C 1490.06 0.560903 -1.93536 0
M  V30 15460 O 1489.12 1.31567 -2.15514 0
M  V30 15461 C 1490.43 -1.91618 -2.31739 0
M  V30 15462 C 1491.98 -1.94346 -2.45354 0
M  V30 15463 C 1492.45 -3.02655 -3.4375 0
M  V30 15464 N 1493.95 -3.01898 -3.513 0
M  V30 15465 C 1494.68 -3.82344 -4.27318 0
M  V30 15466 N 1494.18 -4.727 -5.06484 0
M  V30 15467 N 1495.97 -3.70602 -4.22623 0
M  V30 15468 H 1488.12 -1.98793 -0.748005 0
M  V30 15469 H 1490.38 -0.863318 -0.391646 0
M  V30 15470 H 1490.09 -2.91282 -1.97098 0
M  V30 15471 H 1489.96 -1.79484 -3.31761 0
M  V30 15472 H 1492.35 -0.953206 -2.79281 0
M  V30 15473 H 1492.43 -2.10558 -1.45255 0
M  V30 15474 H 1492.08 -4.01894 -3.10553 0
M  V30 15475 H 1492.01 -2.83687 -4.43655 0
M  V30 15476 H 1494.5 -2.36417 -2.94814 0
M  V30 15477 H 1494.81 -5.30665 -5.61796 0
M  V30 15478 H 1493.15 -4.76736 -5.05715 0
M  V30 15479 H 1496.35 -2.99372 -3.59853 0
M  V30 15480 H 1496.52 -4.33535 -4.81614 0
M  V30 15481 N 1489.92 1.30607 -0.882012 0
M  V30 15482 C 1490.89 2.26489 -0.351498 0
M  V30 15483 C 1491.89 1.52686 0.504348 0
M  V30 15484 O 1493.08 1.71385 0.311928 0
M  V30 15485 C 1490.21 3.37222 0.499435 0
M  V30 15486 H 1491.4 2.74929 -1.19809 0
M  V30 15487 H 1488.96 1.41746 -0.658616 0
M  V30 15488 H 1489.69 2.94093 1.36673 0
M  V30 15489 H 1489.48 3.91936 -0.11356 0
M  V30 15490 H 1490.97 4.08596 0.862497 0
M  V30 15491 N 1491.4 0.642663 1.43901 0
M  V30 15492 C 1492.65 0.152003 2.0223 0
M  V30 15493 C 1492.98 -1.22711 1.50518 0
M  V30 15494 O 1492.26 -1.817 0.693937 0
M  V30 15495 C 1492.54 0.151278 3.59782 0
M  V30 15496 C 1492.39 1.56356 4.2175 0
M  V30 15497 C 1493.71 -0.518016 4.37041 0
M  V30 15498 H 1490.83 0.0567094 0.734815 0
M  V30 15499 H 1493.47 0.821337 1.7133 0
M  V30 15500 H 1491.62 -0.418679 3.86237 0
M  V30 15501 H 1493.29 2.18329 4.06362 0
M  V30 15502 H 1491.54 2.11401 3.78803 0
M  V30 15503 H 1492.21 1.51499 5.30803 0
M  V30 15504 H 1494.68 -0.0331947 4.16087 0
M  V30 15505 H 1493.56 -0.487754 5.46729 0
M  V30 15506 H 1493.82 -1.59036 4.12504 0
M  V30 15507 N 1492.88 -1.52852 0.383918 0
M  V30 15508 C 1494.12 -2.03421 -0.199832 0
M  V30 15509 C 1494.49 -1.26439 -1.44489 0
M  V30 15510 O 1495.69 -1.67105 -2.10545 0
M  V30 15511 C 1493.96 -3.54341 -0.466577 0
M  V30 15512 S 1495.52 -4.26747 -1.02138 0
M  V30 15513 H 1492.33 -0.70873 -0.0567636 0
M  V30 15514 H 1494.94 -1.8815 0.531022 0
M  V30 15515 H 1493.64 -4.07961 0.446772 0
M  V30 15516 H 1493.17 -3.73808 -1.226 0
M  V30 15517 H 1495.19 -4.39456 -2.3042 0
M  V30 15518 N 1494.36 -0.113586 -1.5719 0
M  V30 15519 C 1495.29 0.868985 -2.12088 0
M  V30 15520 C 1496.3 1.23362 -1.06233 0
M  V30 15521 O 1497.49 1.18352 -1.33623 0
M  V30 15522 C 1494.59 2.17252 -2.60106 0
M  V30 15523 C 1493.77 1.9804 -3.89999 0
M  V30 15524 C 1492.83 3.12073 -4.23671 0
M  V30 15525 O 1491.85 2.85224 -4.92581 0
M  V30 15526 N 1493.05 4.38358 -3.80556 0
M  V30 15527 H 1495.82 0.399996 -2.97019 0
M  V30 15528 H 1493.38 0.0709947 -1.61744 0
M  V30 15529 H 1495.37 2.92523 -2.79665 0
M  V30 15530 H 1493.94 2.55516 -1.80084 0
M  V30 15531 H 1493.16 1.06993 -3.79402 0
M  V30 15532 H 1494.45 1.82502 -4.74943 0
M  V30 15533 H 1493.85 4.63048 -3.24966 0
M  V30 15534 H 1492.4 5.10518 -4.05234 0
M  V30 15535 N 1495.84 1.56784 0.160173 0
M  V30 15536 C 1496.77 2.00298 1.20012 0
M  V30 15537 C 1497.75 0.880356 1.45546 0
M  V30 15538 O 1498.93 1.14724 1.56691 0
M  V30 15539 C 1496.06 2.37238 2.53645 0
M  V30 15540 C 1495.02 3.52563 2.42658 0
M  V30 15541 C 1494.34 3.75278 3.80881 0
M  V30 15542 C 1495.64 4.85657 1.92183 0
M  V30 15543 H 1497.34 2.87423 0.838362 0
M  V30 15544 H 1494.88 1.3828 0.401838 0
M  V30 15545 H 1496.84 2.66278 3.2661 0
M  V30 15546 H 1495.56 1.47035 2.9163 0
M  V30 15547 H 1494.22 3.23669 1.72146 0
M  V30 15548 H 1493.87 2.82347 4.1628 0
M  V30 15549 H 1493.57 4.52882 3.74396 0
M  V30 15550 H 1495.09 4.0673 4.55415 0
M  V30 15551 H 1496.51 5.13501 2.54931 0
M  V30 15552 H 1494.9 5.66975 1.96619 0
M  V30 15553 H 1495.97 4.76908 0.876742 0
M  V30 15554 N 1497.32 -0.429099 1.51646 0
M  V30 15555 C 1498.25 -1.52867 1.76505 0
M  V30 15556 C 1499.23 -1.58586 0.615178 0
M  V30 15557 O 1500.41 -1.74182 0.858742 0
M  V30 15558 C 1497.54 -2.90875 1.8976 0
M  V30 15559 C 1496.5 -3.00014 3.05247 0
M  V30 15560 C 1495.82 -4.40082 3.03696 0
M  V30 15561 C 1497.12 -2.73334 4.45068 0
M  V30 15562 H 1498.82 -1.32315 2.68576 0
M  V30 15563 H 1496.36 -0.635091 1.29238 0
M  V30 15564 H 1498.31 -3.67765 2.05734 0
M  V30 15565 H 1497.04 -3.12677 0.943442 0
M  V30 15566 H 1495.7 -2.25565 2.88991 0
M  V30 15567 H 1495.35 -4.58864 2.06042 0
M  V30 15568 H 1495.05 -4.47125 3.81252 0
M  V30 15569 H 1496.57 -5.18935 3.21774 0
M  V30 15570 H 1497.98 -3.39954 4.61632 0
M  V30 15571 H 1496.38 -2.91777 5.24391 0
M  V30 15572 H 1497.45 -1.68889 4.54538 0
M  V30 15573 N 1498.79 -1.41931 -0.685074 0
M  V30 15574 C 1500.04 -1.42062 -1.44728 0
M  V30 15575 C 1500.37 -0.0332072 -1.94172 0
M  V30 15576 O 1499.65 0.940835 -1.70231 0
M  V30 15577 C 1499.93 -2.43634 -2.65168 0
M  V30 15578 C 1499.78 -3.91525 -2.21423 0
M  V30 15579 C 1501.1 -2.42325 -3.67378 0
M  V30 15580 H 1498.22 -0.517321 -0.524927 0
M  V30 15581 H 1500.86 -1.73277 -0.779419 0
M  V30 15582 H 1499.01 -2.17146 -3.22149 0
M  V30 15583 H 1500.69 -4.28956 -1.69689 0
M  V30 15584 H 1498.93 -4.05886 -1.53099 0
M  V30 15585 H 1499.6 -4.58158 -3.07889 0
M  V30 15586 H 1502.08 -2.65857 -3.20093 0
M  V30 15587 H 1500.95 -3.15391 -4.49243 0
M  V30 15588 H 1501.21 -1.44555 -4.17799 0
M  V30 15589 N 1500.27 0.920374 -1.27933 0
M  V30 15590 C 1501.55 1.64765 -1.05413 0
M  V30 15591 C 1501.93 2.07106 0.408717 0
M  V30 15592 O 1501.28 1.81094 1.39346 0
M  V30 15593 C 1501.49 2.84417 -2.02257 0
M  V30 15594 C 1502.83 3.5559 -2.32036 0
M  V30 15595 O 1503.86 2.94555 -2.00289 0
M  V30 15596 O 1502.72 4.65574 -2.86187 0
M  V30 15597 H 1499.81 0.722503 -0.402391 0
M  V30 15598 H 1502.36 0.970263 -1.39226 0
M  V30 15599 H 1501.13 2.50174 -3.0088 0
M  V30 15600 H 1500.75 3.59872 -1.6905 0
M  V30 15601 N 1501.75 1.10074 1.1279 0
M  V30 15602 C 1502.71 0.74967 2.16593 0
M  V30 15603 C 1503.71 -0.224046 1.59232 0
M  V30 15604 O 1504.9 -0.00137104 1.742 0
M  V30 15605 C 1502.03 0.109795 3.40723 0
M  V30 15606 H 1503.23 1.66906 2.49164 0
M  V30 15607 H 1500.78 0.900781 1.27733 0
M  V30 15608 H 1501.52 -0.820501 3.13749 0
M  V30 15609 H 1501.3 0.810517 3.83631 0
M  V30 15610 H 1502.79 -0.120198 4.17427 0
M  V30 15611 N 1503.23 -1.30138 0.888926 0
M  V30 15612 C 1504.48 -1.95602 0.508359 0
M  V30 15613 C 1504.8 -1.70495 -0.946377 0
M  V30 15614 O 1504.07 -1.03073 -1.66592 0
M  V30 15615 H 1502.65 -0.723728 0.185006 0
M  V30 15616 H 1505.31 -1.58594 1.13286 0
M  V30 15617 H 1504.4 -3.04559 0.681915 0
M  V30 15618 N 1504.71 -0.650285 -1.43559 0
M  V30 15619 C 1505.67 0.0336325 -2.29175 0
M  V30 15620 C 1506.67 0.753465 -1.42055 0
M  V30 15621 O 1507.86 0.595158 -1.63718 0
M  V30 15622 C 1504.99 1.05835 -3.24055 0
M  V30 15623 H 1506.18 -0.719643 -2.91138 0
M  V30 15624 H 1503.74 -0.411363 -1.5079 0
M  V30 15625 H 1504.47 1.84096 -2.66982 0
M  V30 15626 H 1504.26 0.545884 -3.88281 0
M  V30 15627 H 1505.75 1.53606 -3.88323 0
M  V30 15628 N 1506.18 1.52647 -0.392018 0
M  V30 15629 C 1507.41 2.06511 0.191815 0
M  V30 15630 C 1507.83 1.26162 1.39516 0
M  V30 15631 O 1507.19 0.287373 1.79008 0
M  V30 15632 C 1507.24 3.56571 0.537512 0
M  V30 15633 O 1506.34 3.78774 1.63106 0
M  V30 15634 H 1505.68 0.663647 0.0216546 0
M  V30 15635 H 1508.21 1.96779 -0.560274 0
M  V30 15636 H 1508.22 4.00059 0.801044 0
M  V30 15637 H 1506.9 4.14489 -0.342239 0
M  V30 15638 H 1505.48 3.47175 1.36103 0
M  V30 15639 N 1507.66 0.121921 1.57128 0
M  V30 15640 C 1508.59 -0.823788 2.18486 0
M  V30 15641 C 1509.57 -1.27519 1.12574 0
M  V30 15642 O 1510.76 -1.33727 1.40822 0
M  V30 15643 C 1507.89 -2.07284 2.78659 0
M  V30 15644 C 1506.84 -1.75912 3.90178 0
M  V30 15645 C 1506.17 -3.07871 4.37172 0
M  V30 15646 C 1507.47 -1.02517 5.1214 0
M  V30 15647 H 1509.16 -0.312488 2.97765 0
M  V30 15648 H 1506.71 -0.148862 1.43228 0
M  V30 15649 H 1508.66 -2.73903 3.20242 0
M  V30 15650 H 1507.39 -2.60743 1.96673 0
M  V30 15651 H 1506.04 -1.11681 3.49174 0
M  V30 15652 H 1505.69 -3.59271 3.52041 0
M  V30 15653 H 1505.39 -2.87653 5.12376 0
M  V30 15654 H 1506.92 -3.75604 4.81409 0
M  V30 15655 H 1508.33 -1.59295 5.50725 0
M  V30 15656 H 1506.73 -0.923836 5.92946 0
M  V30 15657 H 1507.8 -0.0124219 4.84898 0
M  V30 15658 N 1509.14 -1.56867 -0.151857 0
M  V30 15659 C 1510.56 -1.51422 -0.504328 0
M  V30 15660 C 1510.76 -0.829524 -1.83633 0
M  V30 15661 O 1509.81 -0.398018 -2.49343 0
M  V30 15662 C 1511.13 -2.96185 -0.519117 0
M  V30 15663 C 1512.67 -3.07098 -0.60497 0
M  V30 15664 C 1513.15 -4.53357 -0.650468 0
M  V30 15665 N 1514.64 -4.57682 -0.712825 0
M  V30 15666 C 1515.37 -5.68221 -0.768931 0
M  V30 15667 N 1514.87 -6.88342 -0.784678 0
M  V30 15668 N 1516.66 -5.56241 -0.809441 0
M  V30 15669 H 1508.81 -1.99777 0.721316 0
M  V30 15670 H 1511.08 -0.910951 0.262436 0
M  V30 15671 H 1510.78 -3.49516 0.391315 0
M  V30 15672 H 1510.66 -3.51877 -1.35876 0
M  V30 15673 H 1513.04 -2.53789 -1.50582 0
M  V30 15674 H 1513.13 -2.54458 0.261722 0
M  V30 15675 H 1512.77 -5.07303 0.246207 0
M  V30 15676 H 1512.7 -5.03775 -1.53358 0
M  V30 15677 H 1515.19 -3.71206 -0.708151 0
M  V30 15678 H 1515.5 -7.68339 -0.829202 0
M  V30 15679 H 1513.85 -6.90913 -0.752634 0
M  V30 15680 H 1517.04 -4.61312 -0.794274 0
M  V30 15681 H 1517.21 -6.42405 -0.849701 0
M  V30 15682 N 1510.62 0.421051 -1.51871 0
M  V30 15683 C 1511.57 1.5122 -1.74359 0
M  V30 15684 C 1512.54 1.55432 -0.585667 0
M  V30 15685 O 1513.72 1.7219 -0.821912 0
M  V30 15686 C 1510.86 2.88787 -1.88935 0
M  V30 15687 C 1509.97 2.93977 -3.16546 0
M  V30 15688 C 1509.11 4.22768 -3.21622 0
M  V30 15689 C 1508.15 4.21888 -4.43483 0
M  V30 15690 N 1507.28 5.4223 -4.46017 0
M  V30 15691 H 1512.12 1.31348 -2.67492 0
M  V30 15692 H 1509.66 0.637779 -1.32555 0
M  V30 15693 H 1511.62 3.68629 -1.95368 0
M  V30 15694 H 1510.25 3.07181 -0.991942 0
M  V30 15695 H 1509.3 2.06699 -3.19343 0
M  V30 15696 H 1510.61 2.8919 -4.06412 0
M  V30 15697 H 1509.77 5.10995 -3.27061 0
M  V30 15698 H 1508.51 4.30234 -2.29674 0
M  V30 15699 H 1507.51 3.32052 -4.38202 0
M  V30 15700 H 1508.74 4.16072 -5.36713 0
M  V30 15701 H 1506.68 5.50386 -3.56947 0
M  V30 15702 H 1506.6 5.39389 -5.29713 0
M  V30 15703 H 1507.87 6.32443 -4.55671 0
M  V30 15704 N 1512.1 1.42293 0.677538 0
M  V30 15705 C 1513.32 1.46008 1.46592 0
M  V30 15706 C 1513.74 0.0706015 1.88668 0
M  V30 15707 O 1513.1 -0.914076 1.57959 0
M  V30 15708 C 1513.15 2.38477 2.71682 0
M  V30 15709 O 1512.87 3.72019 2.31372 0
M  V30 15710 C 1514.37 2.51185 3.65269 0
M  V30 15711 H 1511.59 0.49669 0.451154 0
M  V30 15712 H 1514.13 1.86777 0.832736 0
M  V30 15713 H 1512.29 2.00969 3.31195 0
M  V30 15714 H 1512.7 4.21514 3.12131 0
M  V30 15715 H 1514.18 3.20014 4.49772 0
M  V30 15716 H 1514.65 1.54885 4.10983 0
M  V30 15717 H 1515.26 2.89404 3.1165 0
M  V30 15718 N 1513.57 -0.913576 1.28419 0
M  V30 15719 C 1514.85 -1.64203 1.06285 0
M  V30 15720 C 1515.23 -2.07319 -0.397728 0
M  V30 15721 O 1514.58 -1.8183 -1.38383 0
M  V30 15722 C 1514.79 -2.8334 2.03763 0
M  V30 15723 C 1516.14 -3.54355 2.33918 0
M  V30 15724 O 1517.16 -2.93489 2.01848 0
M  V30 15725 O 1516.02 -4.6405 2.88652 0
M  V30 15726 H 1513.11 -0.720359 0.406217 0
M  V30 15727 H 1515.66 -0.962866 1.39739 0
M  V30 15728 H 1514.43 -2.48575 3.02203 0
M  V30 15729 H 1514.06 -3.5897 1.70956 0
M  V30 15730 N 1515.05 -1.1067 -1.12204 0
M  V30 15731 C 1516.28 -0.873095 -1.88127 0
M  V30 15732 C 1516.7 0.571099 -1.79221 0
M  V30 15733 O 1516.06 1.40251 -1.14888 0
M  V30 15734 C 1516.11 -1.32922 -3.35208 0
M  V30 15735 O 1515.21 -0.495807 -4.09409 0
M  V30 15736 H 1514.55 -0.315138 -0.584452 0
M  V30 15737 H 1517.08 -1.47413 -1.41882 0
M  V30 15738 H 1517.09 -1.32023 -3.86049 0
M  V30 15739 H 1515.77 -2.38091 -3.41007 0
M  V30 15740 H 1514.35 -0.570216 -3.68515 0
M  V30 15741 N 1516.53 1.29665 -0.895815 0
M  V30 15742 C 1517.48 2.27831 -0.369011 0
M  V30 15743 C 1518.45 1.56843 0.546756 0
M  V30 15744 O 1519.63 1.84848 0.472837 0
M  V30 15745 C 1516.77 3.42764 0.400884 0
M  V30 15746 C 1515.89 4.28544 -0.545335 0
M  V30 15747 C 1515.02 5.30652 0.241228 0
M  V30 15748 C 1514.06 6.08087 -0.699765 0
M  V30 15749 N 1513.2 7.02081 0.0521477 0
M  V30 15750 H 1518.04 2.72274 -1.21124 0
M  V30 15751 H 1515.57 1.33918 -0.608631 0
M  V30 15752 H 1517.53 4.08171 0.863277 0
M  V30 15753 H 1516.16 2.99361 1.2076 0
M  V30 15754 H 1515.21 3.63346 -1.12624 0
M  V30 15755 H 1516.53 4.82472 -1.26579 0
M  V30 15756 H 1515.68 6.01858 0.764994 0
M  V30 15757 H 1514.42 4.77446 0.994838 0
M  V30 15758 H 1513.42 5.35748 -1.23507 0
M  V30 15759 H 1514.65 6.63382 -1.45264 0
M  V30 15760 H 1512.59 6.51249 0.788096 0
M  V30 15761 H 1512.51 7.53547 -0.60847 0
M  V30 15762 H 1513.78 7.77512 0.556304 0
M  V30 15763 N 1518.01 0.657889 1.43212 0
M  V30 15764 C 1519.26 0.172845 2.0136 0
M  V30 15765 C 1519.58 -1.21911 1.52193 0
M  V30 15766 O 1518.85 -1.81529 0.736492 0
M  V30 15767 H 1517.43 0.0609091 0.744513 0
M  V30 15768 H 1520.09 0.850605 1.75359 0
M  V30 15769 H 1519.19 0.161062 3.11684 0
M  V30 15770 N 1519.49 -1.52437 0.400108 0
M  V30 15771 C 1520.43 -2.26763 -0.429799 0
M  V30 15772 C 1521.4 -1.28808 -1.0487 0
M  V30 15773 O 1522.59 -1.57655 -1.07468 0
M  V30 15774 C 1519.73 -3.08564 -1.54539 0
M  V30 15775 C 1518.84 -4.21463 -0.948294 0
M  V30 15776 C 1517.98 -4.9064 -2.03584 0
M  V30 15777 C 1517.02 -5.95515 -1.4152 0
M  V30 15778 N 1516.15 -6.58245 -2.4425 0
M  V30 15779 H 1520.99 -2.97256 0.210467 0
M  V30 15780 H 1518.53 -1.46645 0.115627 0
M  V30 15781 H 1520.49 -3.54289 -2.20307 0
M  V30 15782 H 1519.12 -2.40259 -2.15582 0
M  V30 15783 H 1518.17 -3.79974 -0.179918 0
M  V30 15784 H 1519.48 -4.96722 -0.454845 0
M  V30 15785 H 1518.64 -5.39724 -2.77097 0
M  V30 15786 H 1517.37 -4.14929 -2.56291 0
M  V30 15787 H 1516.38 -5.45759 -0.665354 0
M  V30 15788 H 1517.6 -6.73164 -0.89593 0
M  V30 15789 H 1515.55 -5.85369 -2.96107 0
M  V30 15790 H 1515.47 -7.2915 -1.99692 0
M  V30 15791 H 1516.74 -7.1197 -3.17362 0
M  V30 15792 N 1520.96 -0.130252 -1.57061 0
M  V30 15793 C 1522.19 0.532416 -1.99932 0
M  V30 15794 C 1522.61 1.59505 -1.01013 0
M  V30 15795 O 1521.96 1.82499 -0.00463158 0
M  V30 15796 C 1522.02 1.14833 -3.42776 0
M  V30 15797 O 1521.74 0.128163 -4.37912 0
M  V30 15798 C 1523.24 1.89324 -4.00838 0
M  V30 15799 H 1520.46 0.140046 -0.656223 0
M  V30 15800 H 1523 -0.219905 -2.03314 0
M  V30 15801 H 1521.16 1.85137 -3.40298 0
M  V30 15802 H 1521.57 0.577135 -5.21315 0
M  V30 15803 H 1523.04 2.27731 -5.02835 0
M  V30 15804 H 1523.52 2.77277 -3.40608 0
M  V30 15805 H 1524.13 1.23757 -4.06896 0
M  V30 15806 N 1522.44 1.56945 0.143535 0
M  V30 15807 C 1523.85 1.72949 0.703249 0
M  V30 15808 C 1524.21 0.745193 1.81497 0
M  V30 15809 O 1523.33 -0.0874144 2.16223 0
M  V30 15810 C 1523.93 3.1359 1.28244 0
M  V30 15811 C 1522.48 3.31184 1.78869 0
M  V30 15812 C 1521.63 2.6887 0.678531 0
M  V30 15813 H 1524.58 1.58487 -0.0821664 0
M  V30 15814 H 1524.6 3.13782 2.15224 0
M  V30 15815 H 1524.12 3.85206 0.473087 0
M  V30 15816 H 1522.22 2.64571 2.6236 0
M  V30 15817 H 1522.33 4.39163 1.91502 0
M  V30 15818 H 1520.69 2.29432 1.10603 0
M  V30 15819 H 1521.48 3.43092 -0.119437 0
M  V30 15820 N 1523.92 -0.412991 1.52093 0
M  V30 15821 C 1524.85 -1.52187 1.71382 0
M  V30 15822 C 1525.87 -1.51567 0.594247 0
M  V30 15823 O 1527.06 -1.55902 0.869293 0
M  V30 15824 C 1524.16 -2.91086 1.73557 0
M  V30 15825 C 1523.33 -3.15941 3.0249 0
M  V30 15826 C 1522.39 -4.34692 2.96529 0
M  V30 15827 O 1521.41 -4.3216 3.70441 0
M  V30 15828 N 1522.62 -5.39594 2.14052 0
M  V30 15829 H 1525.38 -1.36036 2.67047 0
M  V30 15830 H 1522.94 -0.602243 1.50282 0
M  V30 15831 H 1524.93 -3.68589 1.67106 0
M  V30 15832 H 1523.5 -3.00714 0.85382 0
M  V30 15833 H 1522.72 -2.26517 3.2262 0
M  V30 15834 H 1524.01 -3.29388 3.87789 0
M  V30 15835 H 1523.41 -5.44498 1.53424 0
M  V30 15836 H 1521.97 -6.15855 2.13461 0
M  V30 15837 N 1525.4 -1.4265 -0.669982 0
M  V30 15838 C 1526.31 -1.48916 -1.81276 0
M  V30 15839 C 1527.33 -0.377523 -1.69855 0
M  V30 15840 O 1528.5 -0.629151 -1.91321 0
M  V30 15841 C 1525.57 -1.39376 -3.17451 0
M  V30 15842 C 1524.63 -2.61072 -3.40793 0
M  V30 15843 C 1523.86 -2.51976 -4.70472 0
M  V30 15844 O 1524.08 -1.55827 -5.48702 0
M  V30 15845 O 1523.02 -3.42193 -4.95164 0
M  V30 15846 H 1526.84 -2.45382 -1.78945 0
M  V30 15847 H 1524.43 -1.24467 -0.826342 0
M  V30 15848 H 1526.31 -1.36435 -3.98702 0
M  V30 15849 H 1524.99 -0.460376 -3.20409 0
M  V30 15850 H 1523.89 -2.69587 -2.59372 0
M  V30 15851 H 1525.23 -3.53325 -3.42669 0
M  V30 15852 N 1526.88 0.906753 -1.28902 0
M  V30 15853 C 1528.29 1.18635 -1.06761 0
M  V30 15854 C 1528.49 2.00643 0.185594 0
M  V30 15855 O 1527.55 2.3647 0.885324 0
M  V30 15856 C 1528.86 1.91414 -2.31907 0
M  V30 15857 C 1530.41 2.04269 -2.37156 0
M  V30 15858 C 1530.89 2.80458 -3.62088 0
M  V30 15859 N 1532.38 2.88016 -3.62769 0
M  V30 15860 C 1533.11 3.47485 -4.56116 0
M  V30 15861 N 1532.61 4.08178 -5.59788 0
M  V30 15862 N 1534.4 3.45092 -4.43698 0
M  V30 15863 H 1526.55 0.359413 -2.09337 0
M  V30 15864 H 1528.81 0.221688 -0.921715 0
M  V30 15865 H 1528.52 1.38587 -3.23244 0
M  V30 15866 H 1528.39 2.91929 -2.38867 0
M  V30 15867 H 1530.78 2.56275 -1.46312 0
M  V30 15868 H 1530.86 1.0291 -2.34186 0
M  V30 15869 H 1530.51 2.2913 -4.53279 0
M  V30 15870 H 1530.44 3.82147 -3.62314 0
M  V30 15871 H 1532.93 2.44902 -2.87805 0
M  V30 15872 H 1533.24 4.51557 -6.27149 0
M  V30 15873 H 1531.59 4.06661 -5.63606 0
M  V30 15874 H 1534.78 2.96891 -3.61903 0
M  V30 15875 H 1534.95 3.91145 -5.16633 0
M  V30 15876 N 1528.36 1.11264 1.11616 0
M  V30 15877 C 1529.32 0.7726 2.15786 0
M  V30 15878 C 1530.32 -0.207145 1.5946 0
M  V30 15879 O 1531.51 0.0171053 1.74192 0
M  V30 15880 C 1528.64 0.145927 3.40588 0
M  V30 15881 H 1529.83 1.69539 2.47379 0
M  V30 15882 H 1527.39 0.914278 1.2677 0
M  V30 15883 H 1528.12 -0.787178 3.14601 0
M  V30 15884 H 1527.91 0.851161 3.8275 0
M  V30 15885 H 1529.4 -0.0759176 4.17531 0
M  V30 15886 N 1529.83 -1.29188 0.902679 0
M  V30 15887 C 1530.77 -2.26665 0.339964 0
M  V30 15888 C 1531.78 -1.54426 -0.515396 0
M  V30 15889 O 1532.97 -1.75384 -0.332071 0
M  V30 15890 C 1530.07 -3.34672 -0.533653 0
M  V30 15891 C 1529.24 -4.36393 0.296661 0
M  V30 15892 C 1528.3 -5.2372 -0.510264 0
M  V30 15893 O 1527.33 -5.69153 0.0732871 0
M  V30 15894 N 1528.53 -5.51373 -1.81572 0
M  V30 15895 H 1531.29 -2.75588 1.17778 0
M  V30 15896 H 1528.85 -1.42553 0.767474 0
M  V30 15897 H 1530.85 -3.90025 -1.07995 0
M  V30 15898 H 1529.42 -2.85543 -1.27216 0
M  V30 15899 H 1528.64 -3.80658 1.02436 0
M  V30 15900 H 1529.92 -5.0139 0.865191 0
M  V30 15901 H 1529.32 -5.16275 -2.31251 0
M  V30 15902 H 1527.88 -6.09528 -2.30908 0
M  V30 15903 N 1531.31 -0.665475 -1.42861 0
M  V30 15904 C 1532.24 0.0574495 -2.29128 0
M  V30 15905 C 1533.26 0.774881 -1.43176 0
M  V30 15906 O 1534.45 0.630593 -1.6699 0
M  V30 15907 C 1531.55 1.10481 -3.20386 0
M  V30 15908 C 1530.72 0.463071 -4.34942 0
M  V30 15909 C 1529.78 1.40896 -5.06986 0
M  V30 15910 O 1528.8 0.912839 -5.61833 0
M  V30 15911 N 1530.01 2.74257 -5.11628 0
M  V30 15912 H 1532.77 -0.683051 -2.91812 0
M  V30 15913 H 1530.33 -0.509179 -1.53685 0
M  V30 15914 H 1532.32 1.73866 -3.65449 0
M  V30 15915 H 1530.89 1.74715 -2.59217 0
M  V30 15916 H 1530.11 -0.350109 -3.92642 0
M  V30 15917 H 1531.4 0.0156092 -5.08798 0
M  V30 15918 H 1530.8 3.17112 -4.68462 0
M  V30 15919 H 1529.36 3.32913 -5.60368 0
M  V30 15920 N 1532.79 1.52222 -0.408187 0
M  V30 15921 C 1533.75 2.25578 0.405851 0
M  V30 15922 C 1534.75 1.27912 0.974434 0
M  V30 15923 O 1535.94 1.51861 0.853461 0
M  V30 15924 C 1533.07 3.02532 1.57122 0
M  V30 15925 H 1534.27 2.98965 -0.23664 0
M  V30 15926 H 1531.82 1.55472 -0.160687 0
M  V30 15927 H 1532.56 2.33492 2.2506 0
M  V30 15928 H 1532.34 3.74237 1.17001 0
M  V30 15929 H 1533.83 3.58177 2.14707 0
M  V30 15930 N 1534.27 0.138579 1.5699 0
M  V30 15931 C 1535.52 -0.513611 1.95465 0
M  V30 15932 C 1535.84 -1.65952 1.02396 0
M  V30 15933 O 1535.11 -1.9572 0.0839001 0
M  V30 15934 H 1533.69 -0.192729 0.72171 0
M  V30 15935 H 1536.35 0.212107 1.93742 0
M  V30 15936 H 1535.44 -0.895313 2.98983 0
M  V30 15937 N 1535.75 -1.57019 -0.13521 0
M  V30 15938 C 1537.02 -1.74928 -0.875189 0
M  V30 15939 C 1537.4 -0.709755 -1.98811 0
M  V30 15940 O 1536.75 0.269237 -2.26908 0
M  V30 15941 C 1536.96 -3.1939 -1.40681 0
M  V30 15942 C 1538.31 -3.8142 -1.86557 0
M  V30 15943 O 1539.33 -3.22892 -1.50397 0
M  V30 15944 O 1538.19 -4.84263 -2.53282 0
M  V30 15945 H 1535.29 -0.715665 -0.414431 0
M  V30 15946 H 1537.83 -1.69274 -0.120215 0
M  V30 15947 H 1536.6 -3.86554 -0.607564 0
M  V30 15948 H 1536.23 -3.29517 -2.22496 0
M  V30 15949 N 1537.22 0.404919 -1.52309 0
M  V30 15950 C 1538.64 0.983553 -1.58692 0
M  V30 15951 C 1538.99 1.9143 -0.429993 0
M  V30 15952 O 1538.11 2.11689 0.449088 0
M  V30 15953 C 1538.71 1.79059 -2.87617 0
M  V30 15954 C 1537.27 2.31918 -2.96464 0
M  V30 15955 C 1536.41 1.12018 -2.53667 0
M  V30 15956 H 1539.36 0.185007 -1.57618 0
M  V30 15957 H 1539.38 2.64836 -2.73207 0
M  V30 15958 H 1538.9 1.11291 -3.71801 0
M  V30 15959 H 1537 3.03044 -2.16783 0
M  V30 15960 H 1537.11 2.62495 -4.00791 0
M  V30 15961 H 1535.47 1.47542 -2.07614 0
M  V30 15962 H 1536.26 0.458111 -3.4023 0
M  V30 15963 N 1538.7 1.43003 0.662408 0
M  V30 15964 C 1539.98 1.34613 1.41911 0
M  V30 15965 C 1540.36 -0.0105336 2.11097 0
M  V30 15966 O 1539.71 -1.02667 2.04137 0
M  V30 15967 C 1539.92 2.52297 2.41137 0
M  V30 15968 C 1541.27 2.94972 3.05412 0
M  V30 15969 O 1542.29 2.52277 2.51465 0
M  V30 15970 O 1541.15 3.68906 4.03201 0
M  V30 15971 H 1538.24 0.531508 0.633583 0
M  V30 15972 H 1540.79 1.55035 0.690088 0
M  V30 15973 H 1539.56 3.42685 1.88898 0
M  V30 15974 H 1539.18 2.33926 3.21503 0
M  V30 15975 N 1540.18 -0.899904 1.29381 0
M  V30 15976 C 1541.11 -2.02045 1.17047 0
M  V30 15977 C 1542.09 -1.69977 0.0647354 0
M  V30 15978 O 1543.28 -1.92659 0.244173 0
M  V30 15979 C 1540.41 -3.36839 0.845991 0
M  V30 15980 C 1539.36 -3.83117 1.90802 0
M  V30 15981 C 1538.69 -5.15032 1.43686 0
M  V30 15982 C 1539.99 -4.03464 3.31684 0
M  V30 15983 H 1541.68 -2.12623 2.10789 0
M  V30 15984 H 1539.23 -1.02162 1.01484 0
M  V30 15985 H 1541.18 -4.14737 0.746413 0
M  V30 15986 H 1539.9 -3.26352 -0.127125 0
M  V30 15987 H 1538.56 -3.07435 1.99698 0
M  V30 15988 H 1538.21 -5.00961 0.452422 0
M  V30 15989 H 1537.91 -5.46967 2.14711 0
M  V30 15990 H 1539.43 -5.95472 1.35078 0
M  V30 15991 H 1540.85 -4.71845 3.25631 0
M  V30 15992 H 1539.25 -4.46752 4.00665 0
M  V30 15993 H 1540.32 -3.07807 3.74677 0
M  V30 15994 N 1541.66 -1.11854 -1.11024 0
M  V30 15995 C 1542.62 -0.784033 -2.15373 0
M  V30 15996 C 1543.62 0.198686 -1.59568 0
M  V30 15997 O 1544.81 -0.0263428 -1.7418 0
M  V30 15998 C 1541.94 -0.163987 -3.40505 0
M  V30 15999 H 1543.14 -1.70849 -2.46477 0
M  V30 16000 H 1540.69 -0.920988 -1.26283 0
M  V30 16001 H 1541.42 0.770483 -3.15014 0
M  V30 16002 H 1541.21 -0.871447 -3.82293 0
M  V30 16003 H 1542.7 0.0537739 -4.17565 0
M  V30 16004 N 1543.14 1.28707 -0.909517 0
M  V30 16005 C 1544.1 2.25692 -0.39946 0
M  V30 16006 C 1545.1 1.53721 0.471848 0
M  V30 16007 O 1546.29 1.72008 0.275504 0
M  V30 16008 C 1543.42 3.38205 0.427793 0
M  V30 16009 H 1544.61 2.72326 -1.25613 0
M  V30 16010 H 1542.17 1.40317 -0.688535 0
M  V30 16011 H 1542.9 2.96926 1.30404 0
M  V30 16012 H 1542.69 3.91606 -0.19667 0
M  V30 16013 H 1544.18 4.10334 0.775634 0
M  V30 16014 N 1544.61 0.673042 1.42506 0
M  V30 16015 C 1545.84 0.202628 2.05604 0
M  V30 16016 C 1546.25 -1.14466 1.50646 0
M  V30 16017 O 1545.6 -1.7218 0.6403 0
M  V30 16018 C 1545.66 0.0583637 3.59453 0
M  V30 16019 C 1545.32 1.33408 4.37094 0
M  V30 16020 C 1546.32 2.26717 4.67863 0
M  V30 16021 C 1544 1.58119 4.76764 0
M  V30 16022 C 1546 3.43014 5.37234 0
M  V30 16023 C 1543.68 2.74706 5.45875 0
M  V30 16024 C 1544.68 3.66978 5.76035 0
M  V30 16025 O 1544.37 4.81526 6.4373 0
M  V30 16026 H 1544.1 0.0964964 0.669077 0
M  V30 16027 H 1546.66 0.919656 1.83661 0
M  V30 16028 H 1544.89 -0.714227 3.80047 0
M  V30 16029 H 1546.58 -0.37195 4.04192 0
M  V30 16030 H 1547.34 2.08875 4.37717 0
M  V30 16031 H 1543.22 0.871705 4.52683 0
M  V30 16032 H 1546.76 4.15055 5.60692 0
M  V30 16033 H 1542.66 2.92474 5.75438 0
M  V30 16034 H 1543.43 4.81047 6.6222 0
M  V30 16035 N 1546.09 -1.52004 0.416254 0
M  V30 16036 C 1547.02 -2.30106 -0.396671 0
M  V30 16037 C 1548 -1.34616 -1.03983 0
M  V30 16038 O 1549.19 -1.63528 -1.04749 0
M  V30 16039 C 1546.32 -3.12769 -1.50972 0
M  V30 16040 C 1545.27 -4.16365 -0.99119 0
M  V30 16041 C 1544.6 -4.87417 -2.19838 0
M  V30 16042 C 1545.9 -5.22284 -0.0402599 0
M  V30 16043 H 1547.59 -2.98312 0.255054 0
M  V30 16044 H 1545.14 -1.43464 0.124106 0
M  V30 16045 H 1547.09 -3.66178 -2.08547 0
M  V30 16046 H 1545.82 -2.42346 -2.18943 0
M  V30 16047 H 1544.47 -3.63976 -0.437803 0
M  V30 16048 H 1544.12 -4.13516 -2.8638 0
M  V30 16049 H 1543.82 -5.57454 -1.85792 0
M  V30 16050 H 1545.35 -5.43641 -2.78006 0
M  V30 16051 H 1546.76 -5.70891 -0.525027 0
M  V30 16052 H 1545.16 -5.99726 0.211742 0
M  V30 16053 H 1546.23 -4.7642 0.902877 0
M  V30 16054 N 1547.57 -0.146903 -1.56914 0
M  V30 16055 C 1548.48 0.805875 -2.20324 0
M  V30 16056 C 1549.5 1.27178 -1.18751 0
M  V30 16057 O 1550.67 1.32899 -1.51327 0
M  V30 16058 C 1547.74 2.02755 -2.81232 0
M  V30 16059 C 1546.8 1.61089 -3.97931 0
M  V30 16060 C 1546.03 2.77433 -4.55924 0
M  V30 16061 O 1546.25 3.93643 -4.12797 0
M  V30 16062 O 1545.19 2.52911 -5.46187 0
M  V30 16063 H 1549.01 0.296098 -3.02253 0
M  V30 16064 H 1546.6 0.0801175 -1.49185 0
M  V30 16065 H 1548.48 2.74252 -3.19944 0
M  V30 16066 H 1547.16 2.52686 -2.02316 0
M  V30 16067 H 1546.06 0.86616 -3.63935 0
M  V30 16068 H 1547.4 1.15874 -4.78366 0
M  V30 16069 N 1549.05 1.57088 0.126881 0
M  V30 16070 C 1550.27 1.88984 0.854389 0
M  V30 16071 C 1550.7 0.738037 1.73016 0
M  V30 16072 O 1550.06 -0.311728 1.786 0
M  V30 16073 C 1550.1 3.19584 1.67028 0
M  V30 16074 O 1549.21 3.04935 2.77648 0
M  V30 16075 H 1548.55 0.620354 0.236763 0
M  V30 16076 H 1551.08 2.04295 0.111647 0
M  V30 16077 H 1551.09 3.52109 2.06115 0
M  V30 16078 H 1549.76 4.03012 1.02732 0
M  V30 16079 H 1548.34 2.83861 2.41821 0
M  V30 16080 N 1550.53 -0.396836 1.52522 0
M  V30 16081 C 1551.94 -0.736347 1.41598 0
M  V30 16082 C 1552.14 -1.944 0.530191 0
M  V30 16083 O 1551.2 -2.525 0.000649033 0
M  V30 16084 C 1552.51 -0.978775 2.84325 0
M  V30 16085 C 1554.06 -1.08073 2.9375 0
M  V30 16086 C 1554.53 -1.35584 4.37471 0
M  V30 16087 N 1556.03 -1.42423 4.40761 0
M  V30 16088 C 1556.76 -1.6536 5.49039 0
M  V30 16089 N 1556.26 -1.85819 6.67415 0
M  V30 16090 N 1558.05 -1.67475 5.36571 0
M  V30 16091 H 1550.2 0.397925 2.08639 0
M  V30 16092 H 1552.46 0.115803 0.9409 0
M  V30 16093 H 1552.17 -0.16362 3.51319 0
M  V30 16094 H 1552.04 -1.8956 3.26109 0
M  V30 16095 H 1554.43 -1.88646 2.26928 0
M  V30 16096 H 1554.51 -0.141996 2.55406 0
M  V30 16097 H 1554.16 -0.555238 5.04856 0
M  V30 16098 H 1554.09 -2.3073 4.73362 0
M  V30 16099 H 1556.58 -1.28352 3.55435 0
M  V30 16100 H 1556.89 -2.02806 7.45714 0
M  V30 16101 H 1555.23 -1.83059 6.70458 0
M  V30 16102 H 1558.43 -1.51038 4.43064 0
M  V30 16103 H 1558.6 -1.85011 6.21027 0
M  V30 16104 N 1552.01 -1.43353 -0.654814 0
M  V30 16105 C 1552.94 -1.44353 -1.7803 0
M  V30 16106 C 1553.95 -0.339872 -1.59213 0
M  V30 16107 O 1555.14 -0.604207 -1.67963 0
M  V30 16108 C 1552.24 -1.23913 -3.15434 0
M  V30 16109 C 1551.41 -2.47088 -3.60924 0
M  V30 16110 C 1550.47 -2.21896 -4.77126 0
M  V30 16111 O 1549.5 -2.95236 -4.86646 0
M  V30 16112 N 1550.7 -1.23459 -5.6722 0
M  V30 16113 H 1553.46 -2.41372 -1.77651 0
M  V30 16114 H 1551.03 -1.38488 -0.838603 0
M  V30 16115 H 1553.02 -1.04945 -3.90856 0
M  V30 16116 H 1551.59 -0.35346 -3.10595 0
M  V30 16117 H 1550.81 -2.81492 -2.75964 0
M  V30 16118 H 1552.1 -3.29066 -3.88064 0
M  V30 16119 H 1551.49 -0.6284 -5.62199 0
M  V30 16120 H 1550.05 -1.10474 -6.4237 0
M  V30 16121 N 1553.48 0.89303 -1.29857 0
M  V30 16122 C 1554.43 2.01928 -1.15447 0
M  V30 16123 C 1555.43 1.69262 -0.0683677 0
M  V30 16124 O 1556.63 1.78542 -0.228646 0
M  V30 16125 H 1553.01 0.661961 -0.356807 0
M  V30 16126 H 1554.98 2.11218 -2.10784 0
M  V30 16127 C 1553.73 3.37031 -0.85473 0
M  V30 16128 H 1553.05 3.62673 -1.68251 0
M  V30 16129 H 1554.49 4.165 -0.793973 0
M  V30 16130 C 1552.95 3.33986 0.442183 0
M  V30 16131 O 1553.48 3.73986 1.4662 0
M  V30 16132 N 1551.68 2.87088 0.450438 0
M  V30 16133 H 1551.23 2.54732 -0.383347 0
M  V30 16134 H 1551.19 2.85433 1.31815 0
M  V30 16135 N 1554.96 1.12442 1.10429 0
M  V30 16136 C 1556.19 0.901291 1.85904 0
M  V30 16137 C 1556.6 -0.552928 1.8094 0
M  V30 16138 O 1555.94 -1.39404 1.19633 0
M  V30 16139 C 1556 1.29808 3.35246 0
M  V30 16140 C 1555.67 2.76361 3.63969 0
M  V30 16141 C 1556.67 3.74553 3.60564 0
M  V30 16142 C 1554.35 3.13268 3.92643 0
M  V30 16143 C 1556.34 5.07667 3.85426 0
M  V30 16144 C 1554.03 4.46564 4.17162 0
M  V30 16145 C 1555.03 5.43572 4.13544 0
M  V30 16146 O 1554.72 6.74465 4.37439 0
M  V30 16147 H 1554.45 0.321969 0.5944 0
M  V30 16148 H 1557 1.49816 1.40514 0
M  V30 16149 H 1555.23 0.644416 3.81293 0
M  V30 16150 H 1556.92 1.04908 3.92108 0
M  V30 16151 H 1557.69 3.47385 3.3845 0
M  V30 16152 H 1553.57 2.3837 3.94589 0
M  V30 16153 H 1557.11 5.83375 3.82518 0
M  V30 16154 H 1553.01 4.73461 4.38754 0
M  V30 16155 H 1553.78 6.80412 4.54953 0
M  V30 16156 N 1556.44 -1.28223 0.91633 0
M  V30 16157 C 1557.39 -2.27215 0.40521 0
M  V30 16158 C 1558.36 -1.57693 -0.521734 0
M  V30 16159 O 1559.54 -1.85577 -0.443369 0
M  V30 16160 C 1556.68 -3.43358 -0.346303 0
M  V30 16161 C 1555.79 -4.27622 0.613443 0
M  V30 16162 C 1554.93 -5.30969 -0.156775 0
M  V30 16163 C 1553.97 -6.06897 0.796418 0
M  V30 16164 N 1553.11 -7.02075 0.0595539 0
M  V30 16165 H 1557.95 -2.70312 1.2544 0
M  V30 16166 H 1555.48 -1.32933 0.629859 0
M  V30 16167 H 1557.44 -4.09492 -0.798231 0
M  V30 16168 H 1556.07 -3.01244 -1.15982 0
M  V30 16169 H 1555.12 -3.61508 1.1839 0
M  V30 16170 H 1556.43 -4.80397 1.34239 0
M  V30 16171 H 1555.59 -6.02999 -0.669146 0
M  V30 16172 H 1554.33 -4.78968 -0.918755 0
M  V30 16173 H 1553.33 -5.33716 1.32014 0
M  V30 16174 H 1554.56 -6.60987 1.558 0
M  V30 16175 H 1552.5 -6.5242 -0.684388 0
M  V30 16176 H 1552.42 -7.52484 0.728275 0
M  V30 16177 H 1553.69 -7.78299 -0.432538 0
M  V30 16178 N 1557.92 -0.68059 -1.42147 0
M  V30 16179 C 1559.16 -0.205567 -2.01755 0
M  V30 16180 C 1559.5 1.18677 -1.53718 0
M  V30 16181 O 1558.77 1.79796 -0.741867 0
M  V30 16182 C 1559.05 -0.246615 -3.59255 0
M  V30 16183 C 1558.91 -1.67483 -4.17456 0
M  V30 16184 C 1560.23 0.40196 -4.38261 0
M  V30 16185 H 1557.35 -0.0761717 -0.733053 0
M  V30 16186 H 1559.99 -0.866473 -1.69092 0
M  V30 16187 H 1558.14 0.316127 -3.87212 0
M  V30 16188 H 1559.81 -2.29026 -4.00431 0
M  V30 16189 H 1558.05 -2.2137 -3.73065 0
M  V30 16190 H 1558.72 -1.65519 -5.266 0
M  V30 16191 H 1561.2 -0.077135 -4.16028 0
M  V30 16192 H 1560.08 0.342627 -5.4783 0
M  V30 16193 H 1560.34 1.48044 -4.16576 0
M  V30 16194 N 1559.4 1.51781 -0.424309 0
M  V30 16195 C 1560.64 2.01157 0.147925 0
M  V30 16196 C 1560.96 1.31369 1.44919 0
M  V30 16197 O 1562.16 1.71643 2.10359 0
M  V30 16198 C 1560.62 3.58526 0.31417 0
M  V30 16199 C 1560.23 4.37242 -0.975898 0
M  V30 16200 C 1561.97 4.16088 0.840876 0
M  V30 16201 C 1559.88 5.86287 -0.776009 0
M  V30 16202 H 1558.81 0.751684 0.0590568 0
M  V30 16203 H 1561.46 1.74998 -0.552079 0
M  V30 16204 H 1559.84 3.81077 1.07687 0
M  V30 16205 H 1561.02 4.26444 -1.74592 0
M  V30 16206 H 1559.33 3.9107 -1.43015 0
M  V30 16207 H 1561.93 5.25138 1.0067 0
M  V30 16208 H 1562.27 3.7442 1.81977 0
M  V30 16209 H 1562.8 3.97565 0.136836 0
M  V30 16210 H 1559.54 6.32343 -1.7269 0
M  V30 16211 H 1559.06 5.99783 -0.0455544 0
M  V30 16212 H 1560.74 6.45609 -0.424095 0
M  V30 16213 N 1560.87 0.155222 1.56834 0
M  V30 16214 C 1562.12 -0.49285 1.95998 0
M  V30 16215 C 1562.44 -1.64857 1.0415 0
M  V30 16216 O 1561.71 -1.9562 0.104654 0
M  V30 16217 H 1560.29 -0.185063 0.723713 0
M  V30 16218 H 1562.95 0.232644 1.93507 0
M  V30 16219 H 1562.05 -0.863552 2.99915 0
M  V30 16220 N 1562.35 -1.57153 -0.118549 0
M  V30 16221 C 1563.3 -1.96802 -1.15122 0
M  V30 16222 C 1564.29 -0.843066 -1.37045 0
M  V30 16223 O 1565.48 -1.10676 -1.38129 0
M  V30 16224 C 1562.61 -2.37625 -2.47768 0
M  V30 16225 C 1561.69 -3.56754 -2.29319 0
M  V30 16226 N 1562.08 -4.72427 -1.80683 0
M  V30 16227 C 1560.38 -3.62395 -2.59973 0
M  V30 16228 C 1561.08 -5.54451 -1.75952 0
M  V30 16229 N 1560.06 -4.96954 -2.20314 0
M  V30 16230 H 1563.86 -2.83695 -0.767744 0
M  V30 16231 H 1561.37 -1.59088 -0.326287 0
M  V30 16232 H 1563.37 -2.64247 -3.22458 0
M  V30 16233 H 1562.03 -1.52097 -2.86874 0
M  V30 16234 H 1563.04 -4.95634 -1.50223 0
M  V30 16235 H 1559.72 -2.87475 -3.02762 0
M  V30 16236 H 1561.11 -6.57238 -1.39599 0
M  V30 16237 N 1563.83 0.388742 -1.5273 0
M  V30 16238 C 1564.74 1.49916 -1.8045 0
M  V30 16239 C 1565.76 1.59679 -0.691282 0
M  V30 16240 O 1566.93 1.7601 -0.978898 0
M  V30 16241 C 1564 2.85445 -1.96779 0
M  V30 16242 C 1563.06 2.85402 -3.20693 0
M  V30 16243 C 1562.29 4.14466 -3.36234 0
M  V30 16244 O 1562.51 5.09436 -2.56576 0
M  V30 16245 O 1561.45 4.2169 -4.29489 0
M  V30 16246 H 1565.27 1.29423 -2.74743 0
M  V30 16247 H 1562.86 0.576607 -1.37825 0
M  V30 16248 H 1564.74 3.65791 -2.09224 0
M  V30 16249 H 1563.42 3.05964 -1.05676 0
M  V30 16250 H 1562.32 2.03836 -3.1369 0
M  V30 16251 H 1563.66 2.69835 -4.11643 0
M  V30 16252 N 1565.31 1.43698 0.647203 0
M  V30 16253 C 1566.58 1.3611 1.40476 0
M  V30 16254 C 1566.96 0.0118567 2.11097 0
M  V30 16255 O 1566.31 -1.00496 2.05214 0
M  V30 16256 C 1566.52 2.5484 2.38448 0
M  V30 16257 C 1567.87 2.98195 3.02267 0
M  V30 16258 O 1568.89 2.5493 2.48775 0
M  V30 16259 O 1567.75 3.73162 3.99265 0
M  V30 16260 H 1564.85 0.538198 0.62791 0
M  V30 16261 H 1567.39 1.55758 0.673606 0
M  V30 16262 H 1566.17 3.4467 1.85253 0
M  V30 16263 H 1565.79 2.37323 3.19004 0
M  V30 16264 N 1566.79 -0.886131 1.30328 0
M  V30 16265 C 1567.72 -2.00793 1.19183 0
M  V30 16266 C 1568.7 -1.69899 0.08276 0
M  V30 16267 O 1569.88 -1.92389 0.264593 0
M  V30 16268 C 1567.01 -3.35922 0.881669 0
M  V30 16269 C 1565.97 -3.81072 1.94855 0
M  V30 16270 C 1565.29 -5.1348 1.4914 0
M  V30 16271 C 1566.59 -3.99923 3.35944 0
M  V30 16272 H 1568.29 -2.10375 2.13032 0
M  V30 16273 H 1565.83 -1.0108 1.02561 0
M  V30 16274 H 1567.79 -4.13922 0.790359 0
M  V30 16275 H 1566.51 -3.26469 -0.0925037 0
M  V30 16276 H 1565.17 -3.053 2.02947 0
M  V30 16277 H 1564.82 -5.00453 0.50553 0
M  V30 16278 H 1564.52 -5.44659 2.205 0
M  V30 16279 H 1566.04 -5.94005 1.41386 0
M  V30 16280 H 1567.45 -4.68364 3.30617 0
M  V30 16281 H 1565.85 -4.42477 4.05381 0
M  V30 16282 H 1566.92 -3.03816 3.77921 0
M  V30 16283 N 1568.26 -1.13026 -1.09832 0
M  V30 16284 C 1569.17 -0.817051 -2.19912 0
M  V30 16285 C 1570.19 0.19667 -1.72885 0
M  V30 16286 O 1571.37 0.0287402 -2.01379 0
M  V30 16287 C 1568.43 -0.28304 -3.45543 0
M  V30 16288 C 1567.49 -1.35748 -4.07273 0
M  V30 16289 C 1566.73 -0.848855 -5.26906 0
M  V30 16290 O 1566.95 0.315104 -5.69529 0
M  V30 16291 O 1565.88 -1.62128 -5.79653 0
M  V30 16292 H 1569.71 -1.73663 -2.49148 0
M  V30 16293 H 1567.29 -0.907391 -1.18688 0
M  V30 16294 H 1569.18 0.00956876 -4.21399 0
M  V30 16295 H 1567.85 0.609018 -3.17919 0
M  V30 16296 H 1566.76 -1.70334 -3.33072 0
M  V30 16297 H 1568.09 -2.22353 -4.39113 0
M  V30 16298 N 1569.74 1.27735 -0.923117 0
M  V30 16299 C 1570.97 1.98682 -0.577317 0
M  V30 16300 C 1571.39 1.68904 0.843608 0
M  V30 16301 O 1570.74 0.947021 1.56006 0
M  V30 16302 C 1570.79 3.52804 -0.788144 0
M  V30 16303 O 1570.51 3.81537 -2.15316 0
M  V30 16304 C 1572.02 4.41006 -0.450437 0
M  V30 16305 H 1569.24 0.634186 -0.2192 0
M  V30 16306 H 1571.78 1.62702 -1.23888 0
M  V30 16307 H 1569.93 3.87012 -0.173441 0
M  V30 16308 H 1570.35 4.76142 -2.19976 0
M  V30 16309 H 1571.82 5.48175 -0.648674 0
M  V30 16310 H 1572.3 4.3489 0.613806 0
M  V30 16311 H 1572.91 4.1231 -1.04308 0
M  V30 16312 N 1571.22 0.688118 1.41784 0
M  V30 16313 C 1572.18 0.0271411 2.29184 0
M  V30 16314 C 1573.18 -0.715537 1.44002 0
M  V30 16315 O 1574.37 -0.551542 1.65238 0
M  V30 16316 C 1571.51 -0.97206 3.26747 0
M  V30 16317 H 1572.7 0.79658 2.89127 0
M  V30 16318 H 1570.25 0.451198 1.49646 0
M  V30 16319 H 1570.99 -1.76953 2.71769 0
M  V30 16320 H 1570.77 -0.442746 3.89592 0
M  V30 16321 H 1572.26 -1.43256 3.92259 0
M  V30 16322 N 1572.7 -1.51554 0.432352 0
M  V30 16323 C 1573.94 -2.02344 -0.13598 0
M  V30 16324 C 1574.28 -1.31619 -1.42794 0
M  V30 16325 O 1573.55 -0.42957 -1.89697 0
M  V30 16326 C 1573.84 -3.58297 -0.359865 0
M  V30 16327 C 1573.69 -4.39645 0.950399 0
M  V30 16328 C 1575.01 -4.25297 -1.13184 0
M  V30 16329 H 1572.13 -0.735439 -0.0479461 0
M  V30 16330 H 1574.77 -1.81237 0.570373 0
M  V30 16331 H 1572.92 -3.76413 -0.961547 0
M  V30 16332 H 1574.59 -4.3319 1.58568 0
M  V30 16333 H 1572.83 -4.04928 1.55614 0
M  V30 16334 H 1573.5 -5.46911 0.747852 0
M  V30 16335 H 1575.98 -4.11421 -0.622231 0
M  V30 16336 H 1574.86 -5.34307 -1.25726 0
M  V30 16337 H 1575.12 -3.85818 -2.15862 0
M  V30 16338 O 1574.22 -0.304523 -1.58603 0
M  V30 16339 H 1574.91 0.259368 -1.91956 0
M  V30 END ATOM
M  V30 BEGIN BOND
M  V30 END BOND
M  V30 END CTAB
M  END
$$$$
