drugbank_target|O75914 Serine/threonine-protein kinase PAK 3 (DB12010)
 OpenBabel12092121173D

  0  0  0     0  0            999 V3000
M  V30 BEGIN CTAB
M  V30 COUNTS 8730 8818 0 0 0
M  V30 BEGIN ATOM
M  V30 1 H -0.908 1.98254 -0.117106 0
M  V30 2 N 0 1.576 0 0
M  V30 3 C 0.933 2.03868 1.02534 0
M  V30 4 C 1.911 0.928543 1.3348 0
M  V30 5 O 3.095 1.19667 1.45644 0
M  V30 6 C 0.222 2.43627 2.35294 0
M  V30 7 C -0.732 3.65373 2.2001 0
M  V30 8 S 0.101 5.13292 1.52614 0
M  V30 9 C 1.257 5.56322 2.86805 0
M  V30 10 H 1.49 2.90518 0.631377 0
M  V30 11 H -0.977 1.52953 0.210867 0
M  V30 12 H 0.981 2.67203 3.11629 0
M  V30 13 H -0.358 1.57376 2.7183 0
M  V30 14 H -1.165 3.90944 3.18086 0
M  V30 15 H -1.563 3.418 1.51819 0
M  V30 16 H 0.729 5.58782 3.83104 0
M  V30 17 H 1.672 6.56266 2.65933 0
M  V30 18 H 2.08 4.83886 2.90714 0
M  V30 19 N 1.4781 -0.272755 1.55222 0
M  V30 20 C 2.7031 -1.02683 1.80197 0
M  V30 21 C 3.1281 -1.79142 0.573551 0
M  V30 22 O 2.4861 -1.74917 -0.476849 0
M  V30 23 C 2.5341 -1.9609 3.02624 0
M  V30 24 O 1.6381 -3.04863 2.77727 0
M  V30 25 H 0.9791 -0.293557 0.595584 0
M  V30 26 H 3.5091 -0.30159 2.02365 0
M  V30 27 H 3.5191 -2.38039 3.31363 0
M  V30 28 H 2.1941 -1.39851 3.91682 0
M  V30 29 H 0.7711 -2.67228 2.60084 0
M  V30 30 N 2.9562 -1.48159 -0.537278 0
M  V30 31 C 4.2332 -1.46291 -1.29839 0
M  V30 32 C 4.6132 -0.170613 -2.10409 0
M  V30 33 O 3.9612 0.847746 -2.12192 0
M  V30 34 C 4.1712 -2.72055 -2.18603 0
M  V30 35 C 5.5192 -3.20087 -2.7898 0
M  V30 36 O 6.5432 -2.72921 -2.28894 0
M  V30 37 O 5.4022 -4.02138 -3.70064 0
M  V30 38 H 2.4962 -0.583906 -0.585647 0
M  V30 39 H 5.0422 -1.60384 -0.554534 0
M  V30 40 H 3.8142 -3.57628 -1.58801 0
M  V30 41 H 3.4372 -2.60646 -3.00249 0
M  V30 42 N 4.4343 0.785586 -1.36625 0
M  V30 43 C 5.6823 1.54057 -1.30808 0
M  V30 44 C 6.0033 1.94683 0.111157 0
M  V30 45 O 5.2733 1.65241 1.05224 0
M  V30 46 H 3.8533 0.571354 -0.481211 0
M  V30 47 H 6.5153 0.935821 -1.70963 0
M  V30 48 H 5.6113 2.44637 -1.93801 0
M  V30 49 N 5.9124 1.20967 1.01018 0
M  V30 50 C 6.8424 0.988272 2.11555 0
M  V30 51 C 7.8234 -0.0849778 1.69888 0
M  V30 52 O 9.0084 0.0738202 1.9406 0
M  V30 53 C 6.1384 0.546528 3.42973 0
M  V30 54 C 5.0924 1.56375 3.9841 0
M  V30 55 C 4.4184 0.97842 5.25672 0
M  V30 56 C 5.7184 2.94922 4.31066 0
M  V30 57 H 7.4124 1.91276 2.30334 0
M  V30 58 H 4.9584 0.921073 1.1069 0
M  V30 59 H 6.9114 0.378839 4.19694 0
M  V30 60 H 5.6354 -0.413598 3.23971 0
M  V30 61 H 4.2944 1.71891 3.23804 0
M  V30 62 H 3.9424 0.0101688 5.02999 0
M  V30 63 H 3.6424 1.65784 5.63728 0
M  V30 64 H 5.1664 0.821939 6.05043 0
M  V30 65 H 6.5804 2.8288 4.9865 0
M  V30 66 H 4.9774 3.5983 4.80253 0
M  V30 67 H 6.0474 3.4616 3.39561 0
M  V30 68 N 7.3905 -1.2043 1.01659 0
M  V30 69 C 8.6675 -1.8548 0.621004 0
M  V30 70 C 9.0475 -1.9091 -0.900919 0
M  V30 71 O 8.3955 -1.41694 -1.79263 0
M  V30 72 C 8.6055 -3.25119 1.2688 0
M  V30 73 C 9.9535 -4.01403 1.38423 0
M  V30 74 O 10.9775 -3.34473 1.22501 0
M  V30 75 O 9.8365 -5.21265 1.64151 0
M  V30 76 H 6.9305 -0.798761 0.214266 0
M  V30 77 H 9.4765 -1.28019 1.11396 0
M  V30 78 H 8.2485 -3.15932 2.30873 0
M  V30 79 H 7.8715 -3.90212 0.762917 0
M  V30 80 N 8.8686 -0.792821 -1.36206 0
M  V30 81 C 9.8166 -0.181555 -2.3189 0
M  V30 82 C 10.8106 0.661025 -1.55971 0
M  V30 83 O 12.0166 0.555728 -1.71206 0
M  V30 84 H 8.3916 -0.0399382 -0.750939 0
M  V30 85 H 10.3626 -1.00394 -2.81005 0
M  V30 86 C 9.1116 0.666444 -3.41253 0
M  V30 87 H 8.4346 0.0274489 -3.99791 0
M  V30 88 H 9.8746 1.06076 -4.10517 0
M  V30 89 C 8.3336 1.82614 -2.83114 0
M  V30 90 O 8.8636 2.9229 -2.75553 0
M  V30 91 N 7.0696 1.63333 -2.40356 0
M  V30 92 H 6.6166 0.741217 -2.46706 0
M  V30 93 H 6.5746 2.41087 -2.01803 0
M  V30 94 N 10.3467 1.47872 -0.545128 0
M  V30 95 C 11.2567 2.33633 0.212746 0
M  V30 96 C 12.2727 1.4744 0.923983 0
M  V30 97 O 13.4487 1.80393 0.895572 0
M  V30 98 C 10.5137 3.23884 1.23693 0
M  V30 99 C 9.5747 4.25961 0.534417 0
M  V30 100 C 8.8077 5.11899 1.5098 0
M  V30 101 O 9.0307 5.00077 2.7437 0
M  V30 102 O 7.9647 5.92831 1.0409 0
M  V30 103 H 11.7907 2.99714 -0.490416 0
M  V30 104 H 9.3757 1.46235 -0.305871 0
M  V30 105 H 11.2577 3.79666 1.82843 0
M  V30 106 H 9.9327 2.60446 1.92222 0
M  V30 107 H 8.8397 3.73972 -0.0979679 0
M  V30 108 H 10.1727 4.92079 -0.109213 0
M  V30 109 N 11.8248 0.280983 1.55075 0
M  V30 110 C 12.7348 -0.61388 2.26426 0
M  V30 111 C 13.7508 -1.16521 1.29224 0
M  V30 112 O 14.9268 -1.19426 1.62171 0
M  V30 113 C 11.9918 -1.7788 2.9759 0
M  V30 114 C 11.0528 -1.26355 4.10284 0
M  V30 115 C 10.2858 -2.37295 4.78045 0
M  V30 116 O 10.5088 -3.56777 4.45047 0
M  V30 117 O 9.4428 -2.05119 5.65871 0
M  V30 118 H 13.2688 -0.0356932 3.03679 0
M  V30 119 H 10.8538 0.0481686 1.49322 0
M  V30 120 H 12.7358 -2.45791 3.42293 0
M  V30 121 H 11.4108 -2.34397 2.23249 0
M  V30 122 H 10.3178 -0.550735 3.70024 0
M  V30 123 H 11.6508 -0.744065 4.86543 0
M  V30 124 N 13.3029 -1.57598 0.00835791 0
M  V30 125 C 14.2499 -2.08945 -0.980346 0
M  V30 126 C 15.2199 -0.986738 -1.33614 0
M  V30 127 O 16.4049 -1.25968 -1.43306 0
M  V30 128 C 13.5449 -2.60425 -2.26435 0
M  V30 129 C 12.6579 -3.84628 -1.96685 0
M  V30 130 C 11.7929 -4.24579 -3.19228 0
M  V30 131 C 10.8319 -5.41596 -2.85202 0
M  V30 132 N 9.9689 -5.768 -4.00307 0
M  V30 133 H 14.8089 -2.93148 -0.535551 0
M  V30 134 H 12.3459 -1.44912 -0.252776 0
M  V30 135 H 14.3039 -2.88354 -3.01509 0
M  V30 136 H 12.9339 -1.79083 -2.68568 0
M  V30 137 H 11.9859 -3.63556 -1.11942 0
M  V30 138 H 13.2979 -4.69796 -1.67611 0
M  V30 139 H 12.4519 -4.53834 -4.02641 0
M  V30 140 H 11.1909 -3.38137 -3.51447 0
M  V30 141 H 10.1959 -5.12056 -2.00198 0
M  V30 142 H 11.4209 -6.29721 -2.54222 0
M  V30 143 H 9.3669 -4.93316 -4.32407 0
M  V30 144 H 9.2839 -6.5656 -3.74786 0
M  V30 145 H 10.5519 -6.10652 -4.84484 0
M  V30 146 N 14.781 0.264519 -1.55364 0
M  V30 147 C 16.192 0.834936 -1.6699 0
M  V30 148 C 16.543 1.86718 -0.602552 0
M  V30 149 O 15.668 2.14899 0.254425 0
M  V30 150 C 16.263 1.5212 -3.02729 0
M  V30 151 C 14.822 2.03954 -3.16354 0
M  V30 152 C 13.969 0.884498 -2.62815 0
M  V30 153 H 16.92 0.0406869 -1.58648 0
M  V30 154 H 16.941 2.38853 -2.96191 0
M  V30 155 H 16.453 0.769668 -3.80392 0
M  V30 156 H 14.554 2.82041 -2.43482 0
M  V30 157 H 14.667 2.24902 -4.23032 0
M  V30 158 H 13.031 1.2802 -2.20188 0
M  V30 159 H 13.814 0.14634 -3.42988 0
M  V30 160 N 16.2591 1.48442 0.529413 0
M  V30 161 C 17.6701 1.5002 1.11134 0
M  V30 162 C 18.0211 0.27031 1.94329 0
M  V30 163 O 17.1461 -0.622507 2.07253 0
M  V30 164 C 17.7411 2.71834 2.02217 0
M  V30 165 C 16.3001 2.76283 2.55627 0
M  V30 166 C 15.4471 2.43542 1.326 0
M  V30 167 H 18.3981 1.5555 0.314641 0
M  V30 168 H 18.4191 2.50384 2.8651 0
M  V30 169 H 17.9311 3.61331 1.41639 0
M  V30 170 H 16.0321 1.90995 3.19924 0
M  V30 171 H 16.1451 3.77725 2.94721 0
M  V30 172 H 14.5091 1.94709 1.64196 0
M  V30 173 H 15.2921 3.3528 0.737734 0
M  V30 174 N 17.7372 -0.778329 1.37039 0
M  V30 175 C 18.7002 -1.87301 1.32102 0
M  V30 176 C 19.7002 -1.59198 0.226405 0
M  V30 177 O 20.8902 -1.67403 0.481861 0
M  V30 178 C 18.0222 -3.24309 1.05055 0
M  V30 179 H 19.2152 -1.93093 2.29467 0
M  V30 180 H 16.7682 -0.977358 1.21973 0
M  V30 181 H 17.5032 -3.24196 0.0819373 0
M  V30 182 H 17.2882 -3.46098 1.84279 0
M  V30 183 H 18.7782 -4.04382 1.04234 0
M  V30 184 N 19.2153 -1.21501 -1.00376 0
M  V30 185 C 20.6263 -1.03146 -1.55621 0
M  V30 186 C 20.9773 0.408375 -1.91903 0
M  V30 187 O 20.1023 1.29177 -1.73616 0
M  V30 188 C 20.6973 -1.86612 -2.82775 0
M  V30 189 C 19.2563 -1.72586 -3.34501 0
M  V30 190 C 18.4033 -1.83747 -2.07683 0
M  V30 191 H 21.3543 -1.35505 -0.826081 0
M  V30 192 H 21.3753 -1.3771 -3.54706 0
M  V30 193 H 20.8873 -2.91399 -2.56336 0
M  V30 194 H 18.9883 -0.704877 -3.65872 0
M  V30 195 H 19.1013 -2.54623 -4.05837 0
M  V30 196 H 17.4653 -1.27069 -2.20739 0
M  V30 197 H 18.2483 -2.90044 -1.83655 0
M  V30 198 N 20.6934 1.19889 -1.02296 0
M  V30 199 C 22.1044 1.71124 -0.746568 0
M  V30 200 C 22.4554 1.81939 0.734335 0
M  V30 201 O 21.5804 1.48639 1.57275 0
M  V30 202 C 22.1754 3.10804 -1.34857 0
M  V30 203 C 20.7344 3.59323 -1.1209 0
M  V30 204 C 19.8814 2.3635 -1.45031 0
M  V30 205 H 22.8324 1.04813 -1.19163 0
M  V30 206 H 22.8534 3.73186 -0.742437 0
M  V30 207 H 22.3654 3.029 -2.42638 0
M  V30 208 H 20.4664 3.7255 -0.0610337 0
M  V30 209 H 20.5794 4.4378 -1.80544 0
M  V30 210 H 18.9434 2.39399 -0.869487 0
M  V30 211 H 19.7264 2.31081 -2.53883 0
M  V30 212 N 22.1715 0.800033 1.35784 0
M  V30 213 C 23.1015 0.220184 2.3246 0
M  V30 214 C 24.0825 -0.65073 1.57161 0
M  V30 215 O 25.2675 -0.582359 1.85263 0
M  V30 216 C 22.3975 -0.637353 3.41402 0
M  V30 217 C 21.3515 0.134531 4.27789 0
M  V30 218 C 20.6775 -0.844285 5.27992 0
M  V30 219 C 21.9775 1.32979 5.05088 0
M  V30 220 H 23.6715 1.02787 2.81203 0
M  V30 221 H 21.2175 0.495717 1.35199 0
M  V30 222 H 23.1705 -1.05302 4.08031 0
M  V30 223 H 21.8945 -1.47785 2.91251 0
M  V30 224 H 20.5535 0.531296 3.6273 0
M  V30 225 H 20.2015 -1.68011 4.74111 0
M  V30 226 H 19.9015 -0.332184 5.8666 0
M  V30 227 H 21.4255 -1.2583 5.97494 0
M  V30 228 H 22.8395 0.98934 5.64699 0
M  V30 229 H 21.2365 1.77593 5.7322 0
M  V30 230 H 22.3065 2.11978 4.36111 0
M  V30 231 N 23.6496 -1.47581 0.552962 0
M  V30 232 C 25.0656 -1.5818 0.212424 0
M  V30 233 C 25.2656 -1.55213 -1.28496 0
M  V30 234 O 24.3216 -1.45329 -2.06484 0
M  V30 235 C 25.6346 -2.88865 0.835318 0
M  V30 236 C 27.1826 -3.0244 0.806156 0
M  V30 237 C 27.6576 -4.35819 1.40804 0
M  V30 238 N 29.1486 -4.42444 1.37103 0
M  V30 239 C 29.8836 -5.44202 1.80641 0
M  V30 240 N 29.3796 -6.52795 2.32015 0
M  V30 241 N 31.1726 -5.35222 1.71738 0
M  V30 242 H 23.3236 -1.47753 1.52587 0
M  V30 243 H 25.5866 -0.702941 0.636064 0
M  V30 244 H 25.2926 -2.9676 1.88749 0
M  V30 245 H 25.1666 -3.7579 0.325848 0
M  V30 246 H 27.5536 -2.94144 -0.237317 0
M  V30 247 H 27.6346 -2.17068 1.35334 0
M  V30 248 H 27.2786 -4.44871 2.45056 0
M  V30 249 H 27.2086 -5.19916 0.836338 0
M  V30 250 H 29.6996 -3.6456 0.995202 0
M  V30 251 H 30.0126 -7.26609 2.63171 0
M  V30 252 H 28.3576 -6.53696 2.36023 0
M  V30 253 H 31.5486 -4.49284 1.31382 0
M  V30 254 H 31.7216 -6.14389 2.05987 0
M  V30 255 N 25.1277 -0.289203 -1.54924 0
M  V30 256 C 26.0607 0.633823 -2.19221 0
M  V30 257 C 27.0387 1.14174 -1.15772 0
M  V30 258 O 28.2227 1.21211 -1.44361 0
M  V30 259 C 25.3497 1.86592 -2.82668 0
M  V30 260 C 24.3957 1.49227 -3.99542 0
M  V30 261 S 25.2287 0.558312 -5.32582 0
M  V30 262 C 26.3847 1.79847 -5.99505 0
M  V30 263 H 26.6177 0.0875416 -2.97171 0
M  V30 264 H 24.1507 -0.0733899 -1.54225 0
M  V30 265 H 26.1087 2.57305 -3.19851 0
M  V30 266 H 24.7697 2.38335 -2.04585 0
M  V30 267 H 23.9627 2.40945 -4.42676 0
M  V30 268 H 23.5647 0.865193 -3.63855 0
M  V30 269 H 25.8567 2.7406 -6.19595 0
M  V30 270 H 26.7997 1.4099 -6.93922 0
M  V30 271 H 27.2077 1.96982 -5.29016 0
M  V30 272 N 26.6058 1.57591 -0.0167156 0
M  V30 273 C 27.5538 2.10604 0.987353 0
M  V30 274 C 28.5478 1.02977 1.34507 0
M  V30 275 O 29.7538 1.21425 1.32875 0
M  V30 276 H 26.1288 0.672695 0.336134 0
M  V30 277 H 28.0998 2.93925 0.514817 0
M  V30 278 C 26.8488 2.6382 2.26483 0
M  V30 279 H 26.1718 3.46278 1.99829 0
M  V30 280 H 27.6118 3.04573 2.94977 0
M  V30 281 C 26.0708 1.55992 2.9861 0
M  V30 282 O 26.6008 0.952521 3.90243 0
M  V30 283 N 24.8068 1.28335 2.60727 0
M  V30 284 H 24.3538 1.77914 1.86291 0
M  V30 285 H 24.3118 0.564115 3.09298 0
M  V30 286 N 28.0839 -0.256276 1.55502 0
M  V30 287 C 29.3089 -1.00766 1.81276 0
M  V30 288 C 29.7339 -1.78524 0.59252 0
M  V30 289 O 29.0919 -1.75413 -0.45827 0
M  V30 290 C 29.1399 -1.92869 3.04687 0
M  V30 291 O 28.2439 -3.019 2.80945 0
M  V30 292 H 27.5849 -0.287224 0.598664 0
M  V30 293 H 30.1149 -0.280109 2.02674 0
M  V30 294 H 30.1249 -2.34511 3.33869 0
M  V30 295 H 28.7999 -1.35689 3.93143 0
M  V30 296 H 27.3769 -2.64454 2.62904 0
M  V30 297 N 29.562 -1.4872 -0.521534 0
M  V30 298 C 30.51 -1.64328 -1.64618 0
M  V30 299 C 31.504 -0.50953 -1.61555 0
M  V30 300 O 32.71 -0.688525 -1.66311 0
M  V30 301 H 29.085 -0.517805 -0.545328 0
M  V30 302 H 31.056 -2.58767 -1.48601 0
M  V30 303 C 29.805 -1.70805 -3.02855 0
M  V30 304 H 29.128 -2.5741 -3.05909 0
M  V30 305 H 30.568 -1.85766 -3.81139 0
M  V30 306 C 29.027 -0.448479 -3.33902 0
M  V30 307 O 29.557 0.434928 -3.99339 0
M  V30 308 N 27.763 -0.317616 -2.88859 0
M  V30 309 H 27.31 -1.03748 -2.35784 0
M  V30 310 H 27.268 0.524113 -3.10001 0
M  V30 311 N 31.0401 0.771051 -1.3745 0
M  V30 312 C 31.9881 1.90574 -1.33358 0
M  V30 313 C 32.9821 1.67936 -0.22224 0
M  V30 314 O 34.1881 1.75717 -0.390304 0
M  V30 315 H 30.5631 0.626714 -0.415612 0
M  V30 316 H 32.5341 1.91142 -2.29144 0
M  V30 317 C 31.2831 3.27845 -1.15813 0
M  V30 318 H 30.6061 3.45842 -2.00583 0
M  V30 319 H 32.0461 4.07538 -1.17 0
M  V30 320 C 30.5051 3.36625 0.136165 0
M  V30 321 O 31.0351 3.85785 1.11949 0
M  V30 322 N 29.2411 2.89997 0.187099 0
M  V30 323 H 28.7881 2.50182 -0.613753 0
M  V30 324 H 28.7461 2.96252 1.05272 0
M  V30 325 N 32.5182 1.22032 0.997298 0
M  V30 326 C 33.9342 0.979326 1.26021 0
M  V30 327 C 34.1342 -0.32972 1.98784 0
M  V30 328 O 33.1902 -1.05345 2.29475 0
M  V30 329 C 34.5032 2.17509 2.07631 0
M  V30 330 C 36.0512 2.21817 2.2083 0
M  V30 331 C 36.5262 3.40933 3.05825 0
M  V30 332 N 38.0172 3.41067 3.13412 0
M  V30 333 C 38.7522 4.29885 3.79455 0
M  V30 334 N 38.2482 5.28914 4.47462 0
M  V30 335 N 40.0412 4.17673 3.76173 0
M  V30 336 H 32.1922 2.06202 0.509352 0
M  V30 337 H 34.4552 0.90334 0.287541 0
M  V30 338 H 34.1612 3.12415 1.61524 0
M  V30 339 H 34.0352 2.17206 3.08385 0
M  V30 340 H 36.4222 1.27462 2.66153 0
M  V30 341 H 36.5032 2.2616 1.1952 0
M  V30 342 H 36.1472 4.35586 2.61203 0
M  V30 343 H 36.0772 3.33829 4.07266 0
M  V30 344 H 38.5682 2.69406 2.65007 0
M  V30 345 H 38.8812 5.92973 4.95583 0
M  V30 346 H 37.2262 5.32831 4.46224 0
M  V30 347 H 40.4172 3.39564 3.22202 0
M  V30 348 H 40.5902 4.87098 4.27363 0
M  V30 349 N 33.9963 -1.19345 1.0293 0
M  V30 350 C 35.2733 -1.84811 0.640642 0
M  V30 351 C 35.6533 -1.91855 -0.88062 0
M  V30 352 O 35.0013 -1.43587 -1.7775 0
M  V30 353 C 35.2113 -3.23755 1.30321 0
M  V30 354 C 36.5593 -3.99912 1.42673 0
M  V30 355 O 37.5833 -3.33155 1.26041 0
M  V30 356 O 36.4423 -5.19494 1.6967 0
M  V30 357 H 33.5363 -0.796443 0.222726 0
M  V30 358 H 36.0823 -1.26831 1.12748 0
M  V30 359 H 34.8543 -3.13466 2.34211 0
M  V30 360 H 34.4773 -3.89381 0.804261 0
M  V30 361 N 35.4744 -0.807222 -1.35358 0
M  V30 362 C 36.6994 -0.399309 -2.0352 0
M  V30 363 C 37.1244 0.981986 -1.60433 0
M  V30 364 O 36.4824 1.63601 -0.781299 0
M  V30 365 C 36.5304 -0.491552 -3.57234 0
M  V30 366 O 35.6344 0.494754 -4.09421 0
M  V30 367 H 34.9754 -0.166682 -0.642739 0
M  V30 368 H 37.5054 -1.09328 -1.72941 0
M  V30 369 H 37.5154 -0.361588 -4.06395 0
M  V30 370 H 36.1904 -1.49907 -3.87944 0
M  V30 371 H 34.7674 0.324977 -3.71481 0
M  V30 372 N 36.9525 1.47285 -0.560781 0
M  V30 373 C 38.1775 2.07359 -0.0410566 0
M  V30 374 C 38.6025 1.41017 1.24483 0
M  V30 375 O 37.9605 0.486368 1.74654 0
M  V30 376 C 38.0085 3.6035 0.134123 0
M  V30 377 O 37.1125 3.94681 1.19587 0
M  V30 378 H 36.4535 0.661887 -0.0529291 0
M  V30 379 H 38.9835 1.89252 -0.777482 0
M  V30 380 H 38.9935 4.0652 0.347207 0
M  V30 381 H 37.6685 4.08034 -0.805047 0
M  V30 382 H 36.2455 3.60251 0.962987 0
M  V30 383 N 38.4306 0.297415 1.54768 0
M  V30 384 C 39.3936 -0.567375 2.22066 0
M  V30 385 C 40.3936 -1.06409 1.20556 0
M  V30 386 O 41.5836 -0.960691 1.45315 0
M  V30 387 C 38.7156 -1.78517 2.90421 0
M  V30 388 H 39.9086 0.0205534 2.99893 0
M  V30 389 H 37.4616 0.0482163 1.56226 0
M  V30 390 H 38.1966 -2.41303 2.16664 0
M  V30 391 H 37.9816 -1.43669 3.64831 0
M  V30 392 H 39.4716 -2.39964 3.41771 0
M  V30 393 N 39.9087 -1.5758 0.0250728 0
M  V30 394 C 40.8387 -2.13007 -0.956575 0
M  V30 395 C 41.8197 -1.0452 -1.342 0
M  V30 396 O 43.0047 -1.32332 -1.42133 0
M  V30 397 C 40.1347 -2.65386 -2.24026 0
M  V30 398 C 39.0887 -3.78623 -1.99571 0
M  V30 399 C 38.4147 -4.17414 -3.3417 0
M  V30 400 C 39.7147 -5.04867 -1.33814 0
M  V30 401 H 41.4087 -2.9528 -0.494991 0
M  V30 402 H 38.9547 -1.42042 -0.236651 0
M  V30 403 H 40.9077 -3.02794 -2.93076 0
M  V30 404 H 39.6317 -1.80268 -2.72343 0
M  V30 405 H 38.2907 -3.41646 -1.32941 0
M  V30 406 H 37.9387 -3.29284 -3.80238 0
M  V30 407 H 37.6387 -4.93719 -3.18615 0
M  V30 408 H 39.1627 -4.57402 -4.04495 0
M  V30 409 H 40.5767 -5.39888 -1.92857 0
M  V30 410 H 38.9737 -5.86144 -1.28669 0
M  V30 411 H 40.0437 -4.83904 -0.310561 0
M  V30 412 N 41.3868 0.248026 -1.55636 0
M  V30 413 C 42.3348 1.32683 -1.91045 0
M  V30 414 C 43.3288 1.49883 -0.789401 0
M  V30 415 O 44.5348 1.51371 -0.974007 0
M  V30 416 H 40.9098 0.444272 -0.606734 0
M  V30 417 H 42.8808 1.00085 -2.81115 0
M  V30 418 C 41.6298 2.6755 -2.22064 0
M  V30 419 H 40.9528 2.55114 -3.07826 0
M  V30 420 H 42.3928 3.41912 -2.50743 0
M  V30 421 C 40.8518 3.20556 -1.0366 0
M  V30 422 O 41.3818 4.00695 -0.284016 0
M  V30 423 N 39.5878 2.78568 -0.82753 0
M  V30 424 H 39.1348 2.1351 -1.44123 0
M  V30 425 H 39.0928 3.14378 -0.0369803 0
M  V30 426 N 42.8649 1.48995 0.513639 0
M  V30 427 C 43.8149 1.61127 1.61314 0
M  V30 428 C 44.7989 0.467521 1.53958 0
M  V30 429 O 45.9909 0.719826 1.61702 0
M  V30 430 C 43.1199 1.66937 2.99978 0
M  V30 431 C 42.2059 2.86847 3.12377 0
M  V30 432 N 42.5969 4.11078 2.94701 0
M  V30 433 C 40.8949 2.84521 3.43459 0
M  V30 434 C 41.5959 4.91615 3.10949 0
M  V30 435 N 40.5719 4.24739 3.3926 0
M  V30 436 H 44.3739 2.54909 1.46282 0
M  V30 437 H 41.8879 1.45593 0.719483 0
M  V30 438 H 43.8849 1.73725 3.78979 0
M  V30 439 H 42.5449 0.742831 3.16089 0
M  V30 440 H 43.5559 4.41258 2.71131 0
M  V30 441 H 40.2329 2.01192 3.65825 0
M  V30 442 H 41.6229 6.00264 3.01882 0
M  V30 443 N 44.343 -0.763751 1.37857 0
M  V30 444 C 45.568 -1.55805 1.36893 0
M  V30 445 C 45.993 -1.88054 -0.0416135 0
M  V30 446 O 45.351 -1.49825 -1.02089 0
M  V30 447 C 45.399 -2.84012 2.22192 0
M  V30 448 O 44.503 -3.78732 1.63204 0
M  V30 449 H 43.844 -0.471638 0.46739 0
M  V30 450 H 46.374 -0.944657 1.81487 0
M  V30 451 H 46.384 -3.33037 2.35691 0
M  V30 452 H 45.059 -2.59869 3.24716 0
M  V30 453 H 43.636 -3.37402 1.58791 0
M  V30 454 N 45.8211 -1.22559 -0.990812 0
M  V30 455 C 47.0461 -1.07862 -1.77145 0
M  V30 456 C 47.4711 0.366447 -1.84496 0
M  V30 457 O 46.8291 1.26478 -1.29896 0
M  V30 458 C 46.8771 -1.69686 -3.18181 0
M  V30 459 O 45.9811 -0.951946 -4.01263 0
M  V30 460 H 45.3221 -0.378712 -0.545411 0
M  V30 461 H 47.8521 -1.62399 -1.2445 0
M  V30 462 H 47.8621 -1.74496 -3.68802 0
M  V30 463 H 46.5371 -2.74841 -3.12146 0
M  V30 464 H 45.1141 -0.980011 -3.59792 0
M  V30 465 N 47.2992 1.18797 -1.03562 0
M  V30 466 C 48.2462 2.22253 -0.622259 0
M  V30 467 C 49.2162 1.61987 0.36736 0
M  V30 468 O 50.4012 1.88986 0.262492 0
M  V30 469 C 47.5412 3.45097 0.0138462 0
M  V30 470 C 46.6542 4.19722 -1.02263 0
M  V30 471 C 45.7892 5.30009 -0.355573 0
M  V30 472 C 44.8282 5.96399 -1.37749 0
M  V30 473 N 43.9652 6.98234 -0.735766 0
M  V30 474 H 48.8052 2.56968 -1.50903 0
M  V30 475 H 46.3422 1.26245 -0.755017 0
M  V30 476 H 48.3002 4.15279 0.399948 0
M  V30 477 H 46.9302 3.11018 0.864158 0
M  V30 478 H 45.9822 3.48418 -1.52673 0
M  V30 479 H 47.2942 4.65227 -1.79903 0
M  V30 480 H 46.4482 6.0664 0.0850095 0
M  V30 481 H 45.1872 4.85592 0.452967 0
M  V30 482 H 44.1922 5.18512 -1.82826 0
M  V30 483 H 45.4172 6.42899 -2.18764 0
M  V30 484 H 43.3632 6.55979 0.0525597 0
M  V30 485 H 43.2802 7.41965 -1.44995 0
M  V30 486 H 44.5482 7.78845 -0.31941 0
M  V30 487 N 48.7773 0.814389 1.34928 0
M  V30 488 C 50.1883 0.458364 1.80986 0
M  V30 489 C 50.5393 -1.02042 1.67577 0
M  V30 490 O 49.6643 -1.79352 1.21086 0
M  V30 491 C 50.2593 0.825212 3.28597 0
M  V30 492 C 48.8183 0.521677 3.72767 0
M  V30 493 C 47.9653 1.04668 2.56788 0
M  V30 494 H 50.9163 1.00533 1.22795 0
M  V30 495 H 50.9373 0.12571 3.80292 0
M  V30 496 H 50.4493 1.90154 3.38324 0
M  V30 497 H 48.5503 -0.545589 3.68584 0
M  V30 498 H 48.6633 1.05977 4.67232 0
M  V30 499 H 47.0273 0.468622 2.50352 0
M  V30 500 H 47.8103 2.12927 2.6929 0
M  V30 501 N 50.2554 -1.46986 0.568584 0
M  V30 502 C 51.1854 -2.32946 -0.160753 0
M  V30 503 C 52.1664 -1.44487 -0.897631 0
M  V30 504 O 53.3514 -1.73327 -0.875867 0
M  V30 505 C 50.4814 -3.26494 -1.18403 0
M  V30 506 C 49.4354 -4.24282 -0.562895 0
M  V30 507 C 48.7614 -5.07236 -1.69163 0
M  V30 508 C 50.0614 -5.19989 0.490761 0
M  V30 509 H 51.7554 -2.94175 0.556916 0
M  V30 510 H 49.3014 -1.4146 0.26927 0
M  V30 511 H 51.2544 -3.85477 -1.70251 0
M  V30 512 H 49.9784 -2.63343 -1.93179 0
M  V30 513 H 48.6374 -3.66541 -0.0656164 0
M  V30 514 H 48.2854 -4.4048 -2.42871 0
M  V30 515 H 47.9854 -5.7345 -1.28174 0
M  V30 516 H 49.5094 -5.6908 -2.21314 0
M  V30 517 H 50.9234 -5.73271 0.0579047 0
M  V30 518 H 49.3204 -5.94469 0.820165 0
M  V30 519 H 50.3904 -4.64777 1.3824 0
M  V30 520 N 51.7335 -0.305618 -1.54608 0
M  V30 521 C 53.1445 0.186098 -1.8577 0
M  V30 522 C 53.4955 1.53058 -1.22751 0
M  V30 523 O 52.6205 2.09888 -0.526893 0
M  V30 524 C 53.2155 0.344449 -3.37044 0
M  V30 525 C 51.7745 0.780384 -3.68221 0
M  V30 526 C 50.9215 -0.108554 -2.77087 0
M  V30 527 H 53.8725 -0.526485 -1.49712 0
M  V30 528 H 53.8935 1.17828 -3.61796 0
M  V30 529 H 53.4055 -0.634235 -3.82883 0
M  V30 530 H 51.5065 1.76945 -3.27904 0
M  V30 531 H 51.6195 0.596572 -4.75371 0
M  V30 532 H 49.9835 0.412931 -2.5133 0
M  V30 533 H 50.7665 -1.08368 -3.25747 0
M  V30 534 N 53.2116 1.57565 -0.0334293 0
M  V30 535 C 54.1446 2.05997 0.981866 0
M  V30 536 C 55.1226 0.956647 1.3148 0
M  V30 537 O 56.3066 1.22729 1.43073 0
M  V30 538 C 53.4336 2.48564 2.30074 0
M  V30 539 C 52.4796 3.69958 2.12211 0
M  V30 540 S 53.3126 5.16414 1.41692 0
M  V30 541 C 54.4686 5.6228 2.7494 0
M  V30 542 H 54.7016 2.91792 0.569612 0
M  V30 543 H 52.2346 1.53366 0.178376 0
M  V30 544 H 54.1926 2.73753 3.05892 0
M  V30 545 H 52.8536 1.63106 2.68431 0
M  V30 546 H 52.0466 3.97603 3.09722 0
M  V30 547 H 51.6486 3.44943 1.44535 0
M  V30 548 H 53.9406 5.66783 3.71165 0
M  V30 549 H 54.8836 6.61759 2.51953 0
M  V30 550 H 55.2916 4.89944 2.80384 0
M  V30 551 N 54.6897 -0.239769 1.55765 0
M  V30 552 C 55.6527 -1.28038 1.90103 0
M  V30 553 C 56.6527 -1.40723 0.778055 0
M  V30 554 O 57.8427 -1.39301 1.04599 0
M  V30 555 C 54.9747 -2.65702 2.13577 0
M  V30 556 H 56.1677 -0.988048 2.83157 0
M  V30 557 H 53.7207 -0.479382 1.48767 0
M  V30 558 H 54.4557 -3.00063 1.23015 0
M  V30 559 H 54.2407 -2.57875 2.95369 0
M  V30 560 H 55.7307 -3.40828 2.41301 0
M  V30 561 N 56.1678 -1.49265 -0.50573 0
M  V30 562 C 57.5788 -1.51769 -1.08734 0
M  V30 563 C 57.9298 -0.301192 -1.93874 0
M  V30 564 O 57.0548 0.589456 -2.08217 0
M  V30 565 C 57.6498 -2.75017 -1.97867 0
M  V30 566 C 56.2088 -2.80314 -2.51199 0
M  V30 567 C 55.3558 -2.4562 -1.28709 0
M  V30 568 H 58.3068 -1.56031 -0.289855 0
M  V30 569 H 58.3278 -2.5491 -2.82491 0
M  V30 570 H 57.8398 -3.63539 -1.35873 0
M  V30 571 H 55.9408 -1.96061 -3.16845 0
M  V30 572 H 56.0538 -3.82366 -2.88675 0
M  V30 573 H 54.4178 -1.97297 -1.61078 0
M  V30 574 H 55.2008 -3.36411 -0.6843 0
M  V30 575 N 57.6459 0.756429 -1.3826 0
M  V30 576 C 58.5559 1.9009 -1.37488 0
M  V30 577 C 59.5719 1.71855 -0.272366 0
M  V30 578 O 60.7479 1.94827 -0.510318 0
M  V30 579 C 57.8129 3.25421 -1.19592 0
M  V30 580 C 56.8739 3.56202 -2.39622 0
M  V30 581 C 56.1069 4.85075 -2.2257 0
M  V30 582 O 56.3299 5.57246 -1.21793 0
M  V30 583 O 55.2639 5.15269 -3.11098 0
M  V30 584 H 59.0899 1.93695 -2.33914 0
M  V30 585 H 56.6749 0.901313 -1.1915 0
M  V30 586 H 58.5569 4.06337 -1.11661 0
M  V30 587 H 57.2319 3.22634 -0.262486 0
M  V30 588 H 56.1389 2.75458 -2.53128 0
M  V30 589 H 57.4719 3.63747 -3.31586 0
M  V30 590 N 59.124 1.23083 0.984299 0
M  V30 591 C 60.034 1.02515 2.11016 0
M  V30 592 C 61.05 -0.0291702 1.73976 0
M  V30 593 O 62.226 0.165434 2.00719 0
M  V30 594 C 59.291 0.614673 3.41208 0
M  V30 595 C 58.352 1.74359 3.92297 0
M  V30 596 C 57.585 1.35261 5.16275 0
M  V30 597 O 57.808 0.235136 5.69915 0
M  V30 598 O 56.742 2.17227 5.61334 0
M  V30 599 H 60.568 1.96862 2.31255 0
M  V30 600 H 58.153 1.01753 1.09392 0
M  V30 601 H 60.035 0.396518 4.1953 0
M  V30 602 H 58.71 -0.299851 3.22308 0
M  V30 603 H 57.617 2.01635 3.1511 0
M  V30 604 H 58.95 2.63629 4.15645 0
M  V30 605 N 60.6021 -1.18246 1.0419 0
M  V30 606 C 61.5491 -2.2192 0.634037 0
M  V30 607 C 62.5191 -1.62179 -0.358765 0
M  V30 608 O 63.7041 -1.89122 -0.252466 0
M  V30 609 C 60.8441 -3.451 0.00445535 0
M  V30 610 C 59.9571 -4.19174 1.04487 0
M  V30 611 C 59.0921 -5.29813 0.383676 0
M  V30 612 C 58.1311 -5.9566 1.4091 0
M  V30 613 N 57.2681 -6.97834 0.772784 0
M  V30 614 H 62.1081 -2.56164 1.52263 0
M  V30 615 H 59.6451 -1.25843 0.761701 0
M  V30 616 H 61.6031 -4.15485 -0.377919 0
M  V30 617 H 60.2331 -3.11472 -0.847652 0
M  V30 618 H 59.2851 -3.47604 1.54518 0
M  V30 619 H 60.5971 -4.64267 1.82368 0
M  V30 620 H 59.7511 -6.06677 -0.0528366 0
M  V30 621 H 58.4901 -4.85825 -0.427208 0
M  V30 622 H 57.4951 -5.17535 1.85574 0
M  V30 623 H 58.7201 -6.4173 2.22171 0
M  V30 624 H 56.6661 -6.55998 -0.0177708 0
M  V30 625 H 56.5831 -7.41186 1.48928 0
M  V30 626 H 57.8511 -7.78665 0.36071 0
M  V30 627 N 62.0802 -0.821533 -1.34494 0
M  V30 628 C 63.0282 -0.230702 -2.31453 0
M  V30 629 C 64.0222 0.627793 -1.57338 0
M  V30 630 O 65.2282 0.519288 -1.72347 0
M  V30 631 H 61.6032 -0.0558577 -0.749923 0
M  V30 632 H 63.5742 -1.06332 -2.78812 0
M  V30 633 C 62.3232 0.59391 -3.4259 0
M  V30 634 H 61.6462 -0.0573588 -3.99759 0
M  V30 635 H 63.0862 0.973446 -4.12674 0
M  V30 636 C 61.5452 1.76568 -2.86924 0
M  V30 637 O 62.0752 2.8638 -2.81691 0
M  V30 638 N 60.2812 1.58198 -2.43766 0
M  V30 639 H 59.8282 0.68872 -2.48222 0
M  V30 640 H 59.7862 2.36752 -2.06871 0
M  V30 641 N 63.5583 1.46682 -0.576371 0
M  V30 642 C 64.5053 2.30241 0.160499 0
M  V30 643 C 65.4753 1.40233 0.890162 0
M  V30 644 O 66.6603 1.69186 0.882084 0
M  V30 645 C 63.8003 3.24578 1.1723 0
M  V30 646 C 62.9133 4.29684 0.446736 0
M  V30 647 C 62.0483 5.11154 1.44551 0
M  V30 648 C 61.0873 6.08015 0.70599 0
M  V30 649 N 60.2243 6.82376 1.65251 0
M  V30 650 H 65.0643 2.92727 -0.558127 0
M  V30 651 H 62.6013 1.44272 -0.287056 0
M  V30 652 H 64.5593 3.77711 1.77172 0
M  V30 653 H 63.1893 2.63916 1.85872 0
M  V30 654 H 62.2413 3.79458 -0.267594 0
M  V30 655 H 63.5533 4.98626 -0.131686 0
M  V30 656 H 62.7073 5.68533 2.11791 0
M  V30 657 H 61.4463 4.42158 2.05786 0
M  V30 658 H 60.4513 5.49796 0.0197725 0
M  V30 659 H 61.6763 6.79028 0.09912 0
M  V30 660 H 59.6223 6.16094 2.25308 0
M  V30 661 H 59.5393 7.47556 1.12673 0
M  V30 662 H 60.8073 7.44316 2.31546 0
M  V30 663 N 65.0364 0.313813 1.54444 0
M  V30 664 C 65.9834 -0.55655 2.23989 0
M  V30 665 C 66.9534 -1.11943 1.22711 0
M  V30 666 O 68.1384 -1.16158 1.51367 0
M  V30 667 C 65.2784 -1.71635 2.99392 0
M  V30 668 C 64.3914 -1.18364 4.15468 0
M  V30 669 C 63.5264 -2.30834 4.78424 0
M  V30 670 C 62.5654 -1.74762 5.86622 0
M  V30 671 N 61.7024 -2.80855 6.43479 0
M  V30 672 H 66.5424 0.0430893 2.97969 0
M  V30 673 H 64.0794 0.0330359 1.47063 0
M  V30 674 H 66.0374 -2.39868 3.41349 0
M  V30 675 H 64.6674 -2.28742 2.27765 0
M  V30 676 H 63.7194 -0.393163 3.78363 0
M  V30 677 H 65.0314 -0.733262 4.93381 0
M  V30 678 H 64.1854 -3.0699 5.23299 0
M  V30 679 H 62.9244 -2.79204 3.99871 0
M  V30 680 H 61.9294 -0.970995 5.41158 0
M  V30 681 H 63.1544 -1.2728 6.67066 0
M  V30 682 H 61.1004 -3.28535 5.67804 0
M  V30 683 H 61.0174 -2.40351 7.16776 0
M  V30 684 H 62.2854 -3.5687 6.93011 0
M  V30 685 N 66.5145 -1.57545 0.0417849 0
M  V30 686 C 67.4775 -2.09885 -0.92093 0
M  V30 687 C 68.4775 -1.01648 -1.24596 0
M  V30 688 O 69.6675 -1.27759 -1.1842 0
M  V30 689 C 66.7995 -2.57527 -2.23367 0
M  V30 690 H 67.9925 -2.96236 -0.467382 0
M  V30 691 H 65.5455 -1.5493 -0.206467 0
M  V30 692 H 66.2805 -1.74542 -2.73323 0
M  V30 693 H 66.0655 -3.36613 -2.01083 0
M  V30 694 H 67.5555 -2.98201 -2.92346 0
M  V30 695 N 67.9926 0.231505 -1.5589 0
M  V30 696 C 69.4086 0.580748 -1.48659 0
M  V30 697 C 69.6086 1.87617 -0.73498 0
M  V30 698 O 68.6646 2.51046 -0.270586 0
M  V30 699 C 69.9776 0.669202 -2.93159 0
M  V30 700 C 71.5256 0.760499 -3.03621 0
M  V30 701 C 72.0006 0.880383 -4.49459 0
M  V30 702 N 73.4916 0.944861 -4.53461 0
M  V30 703 C 74.2266 1.05716 -5.63571 0
M  V30 704 N 73.7226 1.13403 -6.83456 0
M  V30 705 N 75.5156 1.09152 -5.514 0
M  V30 706 H 67.6666 -0.618695 -2.03189 0
M  V30 707 H 69.9296 -0.215728 -0.923128 0
M  V30 708 H 69.6356 -0.212904 -3.51055 0
M  V30 709 H 69.5096 1.5361 -3.44505 0
M  V30 710 H 71.8966 1.63305 -2.45796 0
M  V30 711 H 71.9776 -0.131864 -2.5546 0
M  V30 712 H 71.6216 0.0123284 -5.07899 0
M  V30 713 H 71.5516 1.78802 -4.95316 0
M  V30 714 H 74.0426 0.896176 -3.6712 0
M  V30 715 H 74.3556 1.21921 -7.63122 0
M  V30 716 H 72.7006 1.10333 -6.86186 0
M  V30 717 H 75.8916 1.02805 -4.56671 0
M  V30 718 H 76.0646 1.17558 -6.37247 0
M  V30 719 N 69.4707 1.49531 0.497807 0
M  V30 720 C 70.4007 1.6935 1.60757 0
M  V30 721 C 71.3817 0.542218 1.61227 0
M  V30 722 O 72.5667 0.778417 1.77917 0
M  V30 723 C 69.6967 1.76298 2.99226 0
M  V30 724 C 68.6507 2.91248 3.13622 0
M  V30 725 C 67.9767 2.83312 4.53474 0
M  V30 726 C 69.2767 4.3214 2.93346 0
M  V30 727 H 70.9707 2.62263 1.44425 0
M  V30 728 H 68.5167 1.26208 0.693367 0
M  V30 729 H 70.4697 1.88749 3.76765 0
M  V30 730 H 69.1937 0.799871 3.16654 0
M  V30 731 H 67.8527 2.78404 2.38509 0
M  V30 732 H 67.5007 1.84902 4.67782 0
M  V30 733 H 67.2007 3.60465 4.64046 0
M  V30 734 H 68.7247 2.97775 5.33069 0
M  V30 735 H 70.1387 4.45649 3.60652 0
M  V30 736 H 68.5357 5.1054 3.15387 0
M  V30 737 H 69.6057 4.46363 1.89441 0
M  V30 738 N 70.9488 -0.749086 1.3866 0
M  V30 739 C 72.3648 -1.05276 1.19955 0
M  V30 740 C 72.5648 -2.01435 0.05134 0
M  V30 741 O 71.6208 -2.45232 -0.60147 0
M  V30 742 C 72.9338 -1.62853 2.52783 0
M  V30 743 C 74.4818 -1.75002 2.59506 0
M  V30 744 C 74.9568 -2.35991 3.92521 0
M  V30 745 N 76.4478 -2.43416 3.94085 0
M  V30 746 C 77.1828 -2.91511 4.9377 0
M  V30 747 N 76.6788 -3.39608 6.03853 0
M  V30 748 N 78.4718 -2.90592 4.81157 0
M  V30 749 H 70.6228 -0.111066 2.12109 0
M  V30 750 H 72.8858 -0.111901 0.941373 0
M  V30 751 H 72.5918 -0.99664 3.37283 0
M  V30 752 H 72.4658 -2.61854 2.715 0
M  V30 753 H 74.8528 -2.37317 1.75398 0
M  V30 754 H 74.9338 -0.74693 2.44652 0
M  V30 755 H 74.5778 -1.74308 4.77053 0
M  V30 756 H 74.5078 -3.3695 4.04688 0
M  V30 757 H 76.9988 -2.09405 3.14576 0
M  V30 758 H 77.3118 -3.74775 6.75843 0
M  V30 759 H 75.6568 -3.37653 6.07466 0
M  V30 760 H 78.8478 -2.52332 3.94267 0
M  V30 761 H 79.0208 -3.27762 5.58996 0
M  V30 762 N 72.4269 -1.23603 -0.977757 0
M  V30 763 C 73.6519 -1.09735 -1.75991 0
M  V30 764 C 74.0769 0.346858 -1.84874 0
M  V30 765 O 73.4349 1.25093 -1.3123 0
M  V30 766 C 73.4829 -1.73051 -3.16363 0
M  V30 767 O 72.5869 -0.994452 -4.0023 0
M  V30 768 H 71.9279 -0.384476 -0.541364 0
M  V30 769 H 74.4579 -1.6371 -1.2272 0
M  V30 770 H 74.4679 -1.78398 -3.66931 0
M  V30 771 H 73.1429 -2.78137 -3.09213 0
M  V30 772 H 71.7199 -1.01812 -3.58732 0
M  V30 773 N 73.905 1.17692 -1.04816 0
M  V30 774 C 75.154 1.87192 -0.751132 0
M  V30 775 C 75.467 1.8169 0.724441 0
M  V30 776 O 76.673 2.46625 1.13527 0
M  V30 777 C 75.129 3.35857 -1.29338 0
M  V30 778 C 74.737 3.4987 -2.79812 0
M  V30 779 C 76.481 4.10709 -1.07322 0
M  V30 780 C 74.388 4.92536 -3.27356 0
M  V30 781 H 73.318 0.701162 -0.277288 0
M  V30 782 H 75.969 1.32932 -1.26496 0
M  V30 783 H 74.351 3.89631 -0.707376 0
M  V30 784 H 75.525 3.06332 -3.44235 0
M  V30 785 H 73.84 2.88433 -3.00325 0
M  V30 786 H 76.437 5.15952 -1.4035 0
M  V30 787 H 76.78 4.16299 -0.0108001 0
M  V30 788 H 77.313 3.6313 -1.62423 0
M  V30 789 H 74.052 4.92119 -4.33012 0
M  V30 790 H 73.572 5.3676 -2.67673 0
M  V30 791 H 75.251 5.61288 -3.21815 0
M  V30 792 N 75.3831 0.828654 1.34056 0
M  V30 793 C 76.6301 0.419458 1.98108 0
M  V30 794 C 76.9581 -1.01886 1.65679 0
M  V30 795 O 76.2131 -1.72539 0.923512 0
M  V30 796 C 76.5121 0.575226 3.52741 0
M  V30 797 C 76.1781 1.98012 4.05095 0
M  V30 798 C 74.8401 2.36442 4.19104 0
M  V30 799 C 77.1921 2.89824 4.33188 0
M  V30 800 C 74.5201 3.66009 4.58535 0
M  V30 801 C 76.8721 4.1886 4.74066 0
M  V30 802 C 75.5361 4.5726 4.86281 0
M  V30 803 H 74.8061 0.153491 0.724929 0
M  V30 804 H 77.4531 1.05371 1.59904 0
M  V30 805 H 75.7581 -0.142385 3.91541 0
M  V30 806 H 77.4551 0.239057 4.00287 0
M  V30 807 H 74.0451 1.67162 3.94658 0
M  V30 808 H 78.2291 2.61375 4.21897 0
M  V30 809 H 73.4851 3.95579 4.66184 0
M  V30 810 H 77.6591 4.90086 4.94761 0
M  V30 811 H 75.2861 5.57707 5.16592 0
M  V30 812 N 76.8612 -1.46375 0.584142 0
M  V30 813 C 78.2722 -1.86031 0.157959 0
M  V30 814 C 78.6232 -1.48753 -1.27933 0
M  V30 815 O 77.7482 -0.903098 -1.96655 0
M  V30 816 C 78.3432 -3.37642 0.279892 0
M  V30 817 C 76.9022 -3.76289 -0.09143 0
M  V30 818 C 76.0492 -2.7039 0.615178 0
M  V30 819 H 79.0002 -1.37509 0.792274 0
M  V30 820 H 79.0212 -3.77275 -0.494364 0
M  V30 821 H 78.5332 -3.64742 1.32607 0
M  V30 822 H 76.6342 -3.54806 -1.13769 0
M  V30 823 H 76.7472 -4.78246 0.285886 0
M  V30 824 H 75.1112 -2.5464 0.0552833 0
M  V30 825 H 75.8942 -3.0033 1.66303 0
M  V30 826 N 78.3393 -0.321999 -1.54275 0
M  V30 827 C 79.5873 0.280489 -2.00144 0
M  V30 828 C 79.9083 1.52777 -1.21178 0
M  V30 829 O 79.1783 1.9338 -0.313187 0
M  V30 830 H 77.7583 0.106632 -0.73935 0
M  V30 831 H 80.4203 -0.438184 -1.8991 0
M  V30 832 H 79.5163 0.537972 -3.07428 0
M  V30 833 N 79.8174 1.5752 -0.0501392 0
M  V30 834 C 81.0654 1.9227 0.622642 0
M  V30 835 C 81.3864 0.929083 1.71444 0
M  V30 836 O 80.6564 -0.0262186 1.95882 0
M  V30 837 H 79.2364 0.709739 0.232981 0
M  V30 838 H 81.8984 1.94628 -0.102898 0
M  V30 839 H 80.9944 2.93479 1.06191 0
M  V30 840 N 81.2955 -0.223234 1.56011 0
M  V30 841 C 82.5435 -0.946003 1.78592 0
M  V30 842 C 82.8645 -1.84936 0.618349 0
M  V30 843 O 82.1345 -1.92473 -0.364833 0
M  V30 844 H 80.7145 -0.352298 0.658707 0
M  V30 845 H 83.3765 -0.235494 1.93472 0
M  V30 846 H 82.4725 -1.55381 2.70672 0
M  V30 847 N 82.7736 -1.49793 -0.48987 0
M  V30 848 C 84.0506 -1.50348 -1.25119 0
M  V30 849 C 84.4306 -0.237466 -2.0976 0
M  V30 850 O 83.7786 0.77981 -2.14782 0
M  V30 851 C 83.9886 -2.78872 -2.09837 0
M  V30 852 C 85.3366 -3.288 -2.68655 0
M  V30 853 O 86.3606 -2.80065 -2.20096 0
M  V30 854 O 85.2196 -4.13707 -3.57083 0
M  V30 855 H 82.3136 -0.602242 -0.566775 0
M  V30 856 H 84.8596 -1.62067 -0.503229 0
M  V30 857 H 83.6316 -3.62499 -1.47343 0
M  V30 858 H 83.2546 -2.70066 -2.91805 0
M  V30 859 N 84.2517 0.741722 -1.39055 0
M  V30 860 C 85.1987 1.85566 -1.37237 0
M  V30 861 C 86.1687 1.64457 -0.233072 0
M  V30 862 O 87.3537 1.85957 -0.427147 0
M  V30 863 C 84.4937 3.23004 -1.215 0
M  V30 864 C 83.6067 3.55864 -2.44918 0
M  V30 865 C 82.7417 4.82669 -2.21821 0
M  V30 866 C 81.7807 5.08351 -3.40948 0
M  V30 867 N 80.9177 6.26356 -3.17211 0
M  V30 868 H 85.7577 1.86455 -2.32462 0
M  V30 869 H 83.2947 0.911176 -1.15482 0
M  V30 870 H 85.2527 4.02331 -1.10389 0
M  V30 871 H 83.8827 3.21411 -0.29908 0
M  V30 872 H 82.9347 2.7129 -2.66657 0
M  V30 873 H 84.2467 3.70765 -3.33668 0
M  V30 874 H 83.4007 5.69962 -2.07914 0
M  V30 875 H 82.1397 4.69929 -1.30454 0
M  V30 876 H 81.1447 4.19522 -3.55361 0
M  V30 877 H 82.3697 5.22981 -4.33207 0
M  V30 878 H 80.3157 6.14917 -2.28502 0
M  V30 879 H 80.2327 6.41813 -3.99515 0
M  V30 880 H 81.5007 7.16506 -3.06984 0
M  V30 881 N 85.7298 1.2412 0.971189 0
M  V30 882 C 86.9578 1.10575 1.74874 0
M  V30 883 C 87.3728 -0.342017 1.85676 0
M  V30 884 O 86.7298 -1.23617 1.34258 0
M  V30 885 C 86.7808 1.73579 3.171 0
M  V30 886 O 86.5018 3.12695 3.06844 0
M  V30 887 C 88.0028 1.65598 4.11208 0
M  V30 888 H 85.2228 0.386504 0.548503 0
M  V30 889 H 87.7668 1.64156 1.21955 0
M  V30 890 H 85.9218 1.24009 3.67016 0
M  V30 891 H 86.3358 3.43412 3.96445 0
M  V30 892 H 87.8098 2.1437 5.08674 0
M  V30 893 H 88.2868 0.616532 4.34851 0
M  V30 894 H 88.8928 2.14578 3.67201 0
M  V30 895 N 87.2079 -1.17134 1.05439 0
M  V30 896 C 88.1559 -2.23289 0.651511 0
M  V30 897 C 89.1499 -1.66186 -0.328411 0
M  V30 898 O 90.3559 -1.78949 -0.194206 0
M  V30 899 H 86.7309 -0.726938 0.192523 0
M  V30 900 H 88.7019 -2.54565 1.55689 0
M  V30 901 C 87.4509 -3.47671 0.0448436 0
M  V30 902 H 86.7739 -3.91918 0.78996 0
M  V30 903 H 88.2139 -4.2353 -0.19964 0
M  V30 904 C 86.6729 -3.14453 -1.20918 0
M  V30 905 O 87.2029 -3.29459 -2.29825 0
M  V30 906 N 85.4089 -2.68657 -1.10779 0
M  V30 907 H 84.9559 -2.56646 -0.221526 0
M  V30 908 H 84.9139 -2.46804 -1.9477 0
M  V30 909 N 88.686 -0.835752 -1.33615 0
M  V30 910 C 89.633 -0.26473 -2.29277 0
M  V30 911 C 90.603 0.617712 -1.54187 0
M  V30 912 O 91.788 0.556641 -1.825 0
M  V30 913 C 88.928 0.556777 -3.40579 0
M  V30 914 C 88.041 -0.349339 -4.30585 0
M  V30 915 C 87.176 0.482969 -5.29 0
M  V30 916 C 86.215 -0.421732 -6.10645 0
M  V30 917 N 85.352 0.372262 -7.01112 0
M  V30 918 H 90.192 -1.08582 -2.77514 0
M  V30 919 H 87.729 -0.546927 -1.36554 0
M  V30 920 H 89.687 1.04852 -4.03809 0
M  V30 921 H 88.317 1.34286 -2.93542 0
M  V30 922 H 87.369 -0.959372 -3.68104 0
M  V30 923 H 88.681 -1.04445 -4.87742 0
M  V30 924 H 87.835 1.03866 -5.97743 0
M  V30 925 H 86.574 1.21153 -4.72412 0
M  V30 926 H 85.579 -0.989464 -5.40823 0
M  V30 927 H 86.804 -1.14861 -6.69316 0
M  V30 928 H 84.75 1.08426 -6.46977 0
M  V30 929 H 84.667 -0.264198 -7.55538 0
M  V30 930 H 85.935 0.910293 -7.74167 0
M  V30 931 N 90.1641 1.46063 -0.591896 0
M  V30 932 C 91.1111 2.30399 0.136069 0
M  V30 933 C 92.0811 1.41169 0.875238 0
M  V30 934 O 93.2661 1.70112 0.86409 0
M  V30 935 C 90.4061 3.25804 1.13781 0
M  V30 936 C 89.5191 4.30134 0.401137 0
M  V30 937 C 88.6541 5.12659 1.39121 0
M  V30 938 C 87.6931 6.0873 0.641462 0
M  V30 939 N 86.8301 6.8409 1.58004 0
M  V30 940 H 91.6701 2.92118 -0.589144 0
M  V30 941 H 89.2071 1.43959 -0.302342 0
M  V30 942 H 91.1651 3.79569 1.73156 0
M  V30 943 H 89.7951 2.65872 1.83062 0
M  V30 944 H 88.8471 3.79152 -0.307826 0
M  V30 945 H 90.1591 4.98458 -0.184565 0
M  V30 946 H 89.3131 5.70747 2.05749 0
M  V30 947 H 88.0521 4.44316 2.01084 0
M  V30 948 H 87.0571 5.49786 -0.0385419 0
M  V30 949 H 88.2821 6.79095 0.0270945 0
M  V30 950 H 86.2281 6.18449 2.18761 0
M  V30 951 H 86.1451 7.48709 1.04738 0
M  V30 952 H 87.4131 7.4673 2.23639 0
M  V30 953 N 91.6422 0.330177 1.54103 0
M  V30 954 C 92.5892 -0.532762 2.24567 0
M  V30 955 C 93.5592 -1.10635 1.23892 0
M  V30 956 O 94.7442 -1.14546 1.5259 0
M  V30 957 C 91.8842 -1.6845 3.01195 0
M  V30 958 C 90.9972 -1.13951 4.167 0
M  V30 959 C 90.1322 -2.25746 4.80845 0
M  V30 960 C 89.1712 -1.6853 5.88442 0
M  V30 961 N 88.3082 -2.74014 6.46421 0
M  V30 962 H 93.1482 0.0746905 2.97906 0
M  V30 963 H 90.6852 0.048632 1.4702 0
M  V30 964 H 92.6432 -2.36234 3.43874 0
M  V30 965 H 91.2732 -2.26314 2.30178 0
M  V30 966 H 90.3252 -0.35301 3.78758 0
M  V30 967 H 91.6372 -0.680892 4.94131 0
M  V30 968 H 90.7912 -3.01422 5.26526 0
M  V30 969 H 89.5302 -2.74947 4.0281 0
M  V30 970 H 88.5352 -0.913543 5.42157 0
M  V30 971 H 89.7602 -1.20198 6.68378 0
M  V30 972 H 87.7062 -3.22494 5.71256 0
M  V30 973 H 87.6232 -2.32735 7.19285 0
M  V30 974 H 88.8912 -3.49499 6.96757 0
M  V30 975 N 93.1203 -1.57491 0.0584922 0
M  V30 976 C 94.0303 -2.15448 -0.928414 0
M  V30 977 C 95.0463 -1.11416 -1.3365 0
M  V30 978 O 96.2223 -1.4362 -1.41193 0
M  V30 979 C 93.2873 -2.69393 -2.18239 0
M  V30 980 C 92.3483 -3.88249 -1.83196 0
M  V30 981 C 91.5813 -4.39613 -3.02616 0
M  V30 982 O 91.8043 -3.90023 -4.16219 0
M  V30 983 O 90.7383 -5.31111 -2.83204 0
M  V30 984 H 94.5643 -3.00112 -0.465483 0
M  V30 985 H 92.1493 -1.48499 -0.163826 0
M  V30 986 H 94.0313 -3.04026 -2.91798 0
M  V30 987 H 92.7063 -1.87796 -2.63656 0
M  V30 988 H 91.6133 -3.58492 -1.06931 0
M  V30 989 H 92.9463 -4.71098 -1.42573 0
M  V30 990 N 94.5984 0.214957 -1.56127 0
M  V30 991 C 95.5454 1.26642 -1.92952 0
M  V30 992 C 96.5154 1.46244 -0.78753 0
M  V30 993 O 97.7004 1.59704 -1.04399 0
M  V30 994 C 94.8404 2.6104 -2.25726 0
M  V30 995 C 93.9534 2.49183 -3.52891 0
M  V30 996 C 93.0884 3.76149 -3.7508 0
M  V30 997 C 92.1274 3.59041 -4.95738 0
M  V30 998 N 91.2644 4.77972 -5.14283 0
M  V30 999 H 96.1044 0.945384 -2.82607 0
M  V30 1000 H 93.6414 0.455489 -1.3987 0
M  V30 1001 H 95.5994 3.39313 -2.42739 0
M  V30 1002 H 94.2294 2.91227 -1.39236 0
M  V30 1003 H 93.2814 1.6231 -3.44034 0
M  V30 1004 H 94.5934 2.32466 -4.41318 0
M  V30 1005 H 93.7474 4.62865 -3.92226 0
M  V30 1006 H 92.4864 3.95799 -2.84947 0
M  V30 1007 H 91.4914 2.7071 -4.78535 0
M  V30 1008 H 92.7164 3.40856 -5.87362 0
M  V30 1009 H 90.6624 4.97923 -4.27093 0
M  V30 1010 H 90.5794 4.64006 -5.96853 0
M  V30 1011 H 91.8474 5.66096 -5.35869 0
M  V30 1012 N 96.0765 1.50051 0.48192 0
M  V30 1013 C 96.9865 1.7089 1.60728 0
M  V30 1014 C 98.0025 0.591788 1.63627 0
M  V30 1015 O 99.1785 0.868817 1.81696 0
M  V30 1016 C 96.2435 1.78855 2.97005 0
M  V30 1017 C 95.3045 3.02537 3.04581 0
M  V30 1018 C 94.5375 3.10112 4.34357 0
M  V30 1019 O 94.7605 2.24765 5.24249 0
M  V30 1020 O 93.6945 4.02747 4.47301 0
M  V30 1021 H 97.5205 2.66264 1.46072 0
M  V30 1022 H 95.1055 1.34018 0.660264 0
M  V30 1023 H 96.9875 1.86336 3.77964 0
M  V30 1024 H 95.6625 0.866628 3.11883 0
M  V30 1025 H 94.5695 3.00563 2.22739 0
M  V30 1026 H 95.9025 3.94272 2.94636 0
M  V30 1027 N 97.5546 -0.734337 1.39446 0
M  V30 1028 C 98.9706 -1.03997 1.21065 0
M  V30 1029 C 99.1706 -2.01369 0.0727019 0
M  V30 1030 O 98.2266 -2.45856 -0.575426 0
M  V30 1031 C 99.5396 -1.60163 2.54496 0
M  V30 1032 C 101.088 -1.7224 2.61347 0
M  V30 1033 C 101.563 -2.31814 3.95002 0
M  V30 1034 N 103.054 -2.39223 3.96644 0
M  V30 1035 C 103.789 -2.86258 4.96834 0
M  V30 1036 N 103.285 -3.33184 6.07421 0
M  V30 1037 N 105.078 -2.85473 4.84213 0
M  V30 1038 H 97.2286 -0.0885624 2.12215 0
M  V30 1039 H 99.4916 -0.10191 0.942506 0
M  V30 1040 H 99.1976 -0.960811 3.38321 0
M  V30 1041 H 99.0716 -2.5896 2.74262 0
M  V30 1042 H 101.459 -2.35443 1.77906 0
M  V30 1043 H 101.54 -0.720939 2.4543 0
M  V30 1044 H 101.184 -1.69238 4.78875 0
M  V30 1045 H 101.114 -3.32638 4.08239 0
M  V30 1046 H 103.605 -2.06057 3.16779 0
M  V30 1047 H 103.918 -3.67586 6.7978 0
M  V30 1048 H 102.263 -3.31191 6.11013 0
M  V30 1049 H 105.454 -2.48136 3.96921 0
M  V30 1050 H 105.627 -3.21814 5.62441 0
M  V30 1051 N 99.0327 -1.24633 -0.964593 0
M  V30 1052 C 100.444 -1.08045 -1.5226 0
M  V30 1053 C 100.795 0.347116 -1.93105 0
M  V30 1054 O 99.9197 1.23588 -1.77637 0
M  V30 1055 C 100.515 -1.95514 -2.76695 0
M  V30 1056 C 99.0737 -1.8314 -3.28841 0
M  V30 1057 C 98.2207 -1.90262 -2.01732 0
M  V30 1058 H 101.172 -1.38064 -0.782553 0
M  V30 1059 H 101.193 -1.48925 -3.50145 0
M  V30 1060 H 100.705 -2.99407 -2.46936 0
M  V30 1061 H 98.8057 -0.82092 -3.63444 0
M  V30 1062 H 98.9187 -2.67406 -3.97531 0
M  V30 1063 H 97.2827 -1.34027 -2.16584 0
M  V30 1064 H 98.0657 -2.9574 -1.74334 0
M  V30 1065 N 100.511 1.16574 -1.06058 0
M  V30 1066 C 101.421 2.2452 -0.680282 0
M  V30 1067 C 102.437 1.71348 0.302604 0
M  V30 1068 O 103.613 2.00822 0.152513 0
M  V30 1069 C 100.678 3.46629 -0.0700315 0
M  V30 1070 C 99.7388 4.14849 -1.10448 0
M  V30 1071 C 98.9718 5.31129 -0.523256 0
M  V30 1072 O 99.1948 5.66514 0.664709 0
M  V30 1073 O 98.1288 5.88526 -1.26179 0
M  V30 1074 H 101.955 2.59355 -1.58015 0
M  V30 1075 H 99.5398 1.24043 -0.832694 0
M  V30 1076 H 101.422 4.20543 0.268667 0
M  V30 1077 H 100.097 3.13573 0.803353 0
M  V30 1078 H 99.0038 3.42916 -1.49532 0
M  V30 1079 H 100.337 4.51954 -1.94931 0
M  V30 1080 N 101.989 0.842826 1.3317 0
M  V30 1081 C 103.238 0.436738 1.96915 0
M  V30 1082 C 103.551 -1.01025 1.67491 0
M  V30 1083 O 104.757 -1.5212 2.24881 0
M  V30 1084 C 103.213 0.730021 3.52418 0
M  V30 1085 C 102.821 2.19195 3.90714 0
M  V30 1086 C 104.565 0.391076 4.22695 0
M  V30 1087 C 102.472 2.42907 5.39212 0
M  V30 1088 H 101.402 0.15958 0.736919 0
M  V30 1089 H 104.053 1.03196 1.51733 0
M  V30 1090 H 102.435 0.0643755 3.95948 0
M  V30 1091 H 103.609 2.8984 3.58231 0
M  V30 1092 H 101.924 2.49425 3.33431 0
M  V30 1093 H 104.521 0.545817 5.31907 0
M  V30 1094 H 104.864 -0.666294 4.10933 0
M  V30 1095 H 105.397 1.01212 3.84709 0
M  V30 1096 H 102.136 3.47224 5.55982 0
M  V30 1097 H 101.656 1.76827 5.73142 0
M  V30 1098 H 103.335 2.2626 6.06148 0
M  V30 1099 N 103.467 -1.45747 0.599634 0
M  V30 1100 C 104.692 -2.07178 0.0960198 0
M  V30 1101 C 105.117 -1.44268 -1.207 0
M  V30 1102 O 104.475 -0.532503 -1.73303 0
M  V30 1103 C 104.523 -3.60579 -0.0385348 0
M  V30 1104 O 103.627 -3.97713 -1.0908 0
M  V30 1105 H 102.968 -0.660251 0.0704593 0
M  V30 1106 H 105.498 -1.87124 0.827385 0
M  V30 1107 H 105.508 -4.07298 -0.239304 0
M  V30 1108 H 104.183 -4.05756 0.912947 0
M  V30 1109 H 102.76 -3.62678 -0.867135 0
M  V30 1110 N 104.945 -0.338344 -1.53925 0
M  V30 1111 C 105.875 0.51328 -2.27789 0
M  V30 1112 C 106.856 1.107 -1.29149 0
M  V30 1113 O 108.041 1.12937 -1.57984 0
M  V30 1114 C 105.171 1.66697 -3.04679 0
M  V30 1115 C 104.125 1.20183 -4.1078 0
M  V30 1116 C 103.451 2.44363 -4.75595 0
M  V30 1117 C 104.751 0.30605 -5.21403 0
M  V30 1118 H 106.445 -0.102883 -2.99223 0
M  V30 1119 H 103.991 -0.0509219 -1.4391 0
M  V30 1120 H 105.944 2.26915 -3.55088 0
M  V30 1121 H 104.668 2.30995 -2.30887 0
M  V30 1122 H 103.327 0.622499 -3.61276 0
M  V30 1123 H 102.975 3.07057 -3.98403 0
M  V30 1124 H 102.675 2.13925 -5.47275 0
M  V30 1125 H 104.199 3.05317 -5.28786 0
M  V30 1126 H 105.613 0.814929 -5.67478 0
M  V30 1127 H 104.01 0.0937929 -6.00027 0
M  V30 1128 H 105.08 -0.65921 -4.80398 0
M  V30 1129 N 106.423 1.57458 -0.0668435 0
M  V30 1130 C 107.834 1.80776 0.466558 0
M  V30 1131 C 108.185 0.980361 1.69951 0
M  V30 1132 O 107.31 0.201441 2.1546 0
M  V30 1133 C 107.905 3.27881 0.85321 0
M  V30 1134 C 106.464 3.52062 1.3315 0
M  V30 1135 C 105.611 2.75513 0.314264 0
M  V30 1136 H 108.562 1.5598 -0.292588 0
M  V30 1137 H 108.583 3.39659 1.715 0
M  V30 1138 H 108.095 3.88075 -0.0443439 0
M  V30 1139 H 106.196 2.97167 2.24772 0
M  V30 1140 H 106.309 4.60762 1.31285 0
M  V30 1141 H 104.673 2.42123 0.790492 0
M  V30 1142 H 105.456 3.38442 -0.575477 0
M  V30 1143 N 107.901 -0.206675 1.56239 0
M  V30 1144 C 109.126 -0.949474 1.8439 0
M  V30 1145 C 109.551 -1.76549 0.649016 0
M  V30 1146 O 108.909 -1.76782 -0.402231 0
M  V30 1147 C 108.957 -1.83078 3.10668 0
M  V30 1148 O 108.061 -2.9281 2.90407 0
M  V30 1149 H 107.402 -0.268033 0.607499 0
M  V30 1150 H 109.932 -0.215488 2.03462 0
M  V30 1151 H 109.942 -2.2377 3.41161 0
M  V30 1152 H 108.617 -1.23112 3.97261 0
M  V30 1153 H 107.194 -2.55956 2.71184 0
M  V30 1154 N 109.379 -1.50304 -0.473955 0
M  V30 1155 C 110.656 -1.51667 -1.23518 0
M  V30 1156 C 111.036 -0.259701 -2.09496 0
M  V30 1157 O 110.384 0.756986 -2.15597 0
M  V30 1158 C 110.594 -2.81082 -2.06868 0
M  V30 1159 C 111.942 -3.31631 -2.65153 0
M  V30 1160 O 112.966 -2.82384 -2.17113 0
M  V30 1161 O 111.825 -4.17471 -3.52675 0
M  V30 1162 H 108.919 -0.60822 -0.560355 0
M  V30 1163 H 111.465 -1.62592 -0.486011 0
M  V30 1164 H 110.237 -3.64041 -1.4349 0
M  V30 1165 H 109.86 -2.73146 -2.88924 0
M  V30 1166 N 110.857 0.726932 -1.39834 0
M  V30 1167 C 112.104 1.48664 -1.37496 0
M  V30 1168 C 112.432 1.94482 0.0264678 0
M  V30 1169 O 111.687 1.67692 1.00886 0
M  V30 1170 C 111.986 2.73495 -2.30077 0
M  V30 1171 C 111.652 2.46502 -3.77555 0
M  V30 1172 C 110.314 2.3885 -4.17737 0
M  V30 1173 C 112.666 2.23604 -4.70798 0
M  V30 1174 C 109.994 2.06352 -5.49214 0
M  V30 1175 C 112.346 1.92622 -6.02561 0
M  V30 1176 C 111.01 1.83444 -6.41798 0
M  V30 1177 H 110.28 0.544001 -0.503135 0
M  V30 1178 H 112.927 0.833657 -1.72402 0
M  V30 1179 H 111.232 3.43575 -1.88317 0
M  V30 1180 H 112.929 3.31549 -2.25558 0
M  V30 1181 H 109.519 2.5334 -3.45712 0
M  V30 1182 H 113.703 2.28479 -4.40581 0
M  V30 1183 H 108.959 1.97776 -5.78528 0
M  V30 1184 H 113.133 1.73914 -6.74334 0
M  V30 1185 H 110.76 1.58029 -7.43593 0
M  V30 1186 N 112.336 1.25143 0.95797 0
M  V30 1187 C 113.246 1.06968 2.08794 0
M  V30 1188 C 114.262 0.00773911 1.73998 0
M  V30 1189 O 115.438 0.207972 2.00323 0
M  V30 1190 C 112.503 0.68691 3.39827 0
M  V30 1191 C 111.564 1.82641 3.88511 0
M  V30 1192 C 110.797 1.46181 5.1329 0
M  V30 1193 O 111.02 0.355971 5.69288 0
M  V30 1194 O 109.954 2.29085 5.566 0
M  V30 1195 H 113.78 2.01723 2.27027 0
M  V30 1196 H 111.365 1.04051 1.07209 0
M  V30 1197 H 113.247 0.485417 4.18595 0
M  V30 1198 H 111.922 -0.231417 3.22872 0
M  V30 1199 H 110.829 2.08274 3.10762 0
M  V30 1200 H 112.162 2.72386 4.09959 0
M  V30 1201 N 113.814 -1.1601 1.06675 0
M  V30 1202 C 114.764 -2.18512 0.650888 0
M  V30 1203 C 115.748 -1.57677 -0.320441 0
M  V30 1204 O 116.94 -1.76482 -0.135266 0
M  V30 1205 C 114.069 -3.43273 0.0429255 0
M  V30 1206 C 113.155 -4.11176 1.03898 0
M  V30 1207 N 113.546 -4.54672 2.216 0
M  V30 1208 C 111.844 -4.37417 0.870779 0
M  V30 1209 C 112.545 -5.07248 2.84736 0
M  V30 1210 N 111.521 -5.0037 2.12441 0
M  V30 1211 H 115.323 -2.49863 1.54745 0
M  V30 1212 H 112.837 -1.32503 0.938975 0
M  V30 1213 H 114.834 -4.16006 -0.272857 0
M  V30 1214 H 113.494 -3.13408 -0.84884 0
M  V30 1215 H 114.505 -4.4828 2.59356 0
M  V30 1216 H 111.182 -4.17488 0.0313293 0
M  V30 1217 H 112.572 -5.50912 3.84636 0
M  V30 1218 N 115.292 -0.849877 -1.32721 0
M  V30 1219 C 116.52 -0.464754 -2.01613 0
M  V30 1220 C 116.935 0.937191 -1.63897 0
M  V30 1221 O 116.292 1.61081 -0.857856 0
M  V30 1222 C 116.343 -0.588638 -3.56675 0
M  V30 1223 O 116.064 -1.93535 -3.93034 0
M  V30 1224 C 117.565 -0.2019 -4.4284 0
M  V30 1225 H 114.785 -0.183215 -0.645502 0
M  V30 1226 H 117.329 -1.1455 -1.69407 0
M  V30 1227 H 115.484 0.0443159 -3.87375 0
M  V30 1228 H 115.898 -1.92871 -4.87751 0
M  V30 1229 H 117.372 -0.339599 -5.50954 0
M  V30 1230 H 117.849 0.857224 -4.30753 0
M  V30 1231 H 118.455 -0.809733 -4.17521 0
M  V30 1232 N 116.77 1.45427 -0.607355 0
M  V30 1233 C 118.019 2.01452 -0.100036 0
M  V30 1234 C 118.332 1.48159 1.27704 0
M  V30 1235 O 119.538 1.96159 1.87707 0
M  V30 1236 C 117.994 3.59672 -0.128158 0
M  V30 1237 C 117.602 4.21962 -1.50507 0
M  V30 1238 C 119.346 4.23262 0.323932 0
M  V30 1239 C 117.253 5.72333 -1.48959 0
M  V30 1240 H 116.183 0.75325 -0.0336299 0
M  V30 1241 H 118.834 1.66901 -0.76265 0
M  V30 1242 H 117.216 3.91411 0.601105 0
M  V30 1243 H 118.39 4.01796 -2.25602 0
M  V30 1244 H 116.705 3.70565 -1.89923 0
M  V30 1245 H 119.302 5.33522 0.354691 0
M  V30 1246 H 119.645 3.93921 1.34656 0
M  V30 1247 H 120.178 3.96239 -0.352056 0
M  V30 1248 H 116.917 6.06373 -2.48981 0
M  V30 1249 H 116.437 5.94691 -0.781214 0
M  V30 1250 H 118.116 6.35525 -1.21313 0
M  V30 1251 N 118.248 0.346503 1.53744 0
M  V30 1252 C 119.198 -0.524953 2.21874 0
M  V30 1253 C 120.182 -1.06376 1.20718 0
M  V30 1254 O 121.374 -0.996972 1.46251 0
M  V30 1255 C 118.503 -1.6739 2.99726 0
M  V30 1256 C 117.589 -1.14888 4.08242 0
M  V30 1257 N 117.98 -0.345329 5.0462 0
M  V30 1258 C 116.278 -1.4255 4.22606 0
M  V30 1259 C 116.979 -0.0600706 5.81669 0
M  V30 1260 N 115.955 -0.65252 5.39669 0
M  V30 1261 H 119.757 0.0960091 2.93743 0
M  V30 1262 H 117.271 0.15352 1.61673 0
M  V30 1263 H 119.268 -2.3102 3.47038 0
M  V30 1264 H 117.928 -2.29811 2.29384 0
M  V30 1265 H 118.939 0.0138439 5.17898 0
M  V30 1266 H 115.616 -2.05389 3.63486 0
M  V30 1267 H 117.006 0.588321 6.69319 0
M  V30 1268 N 119.726 -1.57421 0.075193 0
M  V30 1269 C 120.972 -1.93905 -0.594025 0
M  V30 1270 C 121.305 -0.955701 -1.69056 0
M  V30 1271 O 120.58 0.0145373 -1.94495 0
M  V30 1272 C 120.863 -3.40638 -1.1678 0
M  V30 1273 C 120.716 -4.49733 -0.0776792 0
M  V30 1274 C 122.035 -3.88259 -2.07228 0
M  V30 1275 H 119.154 -0.705105 -0.214466 0
M  V30 1276 H 121.796 -1.8947 0.141854 0
M  V30 1277 H 119.946 -3.44549 -1.79494 0
M  V30 1278 H 121.618 -4.57942 0.555573 0
M  V30 1279 H 119.861 -4.29751 0.591286 0
M  V30 1280 H 120.532 -5.49549 -0.519603 0
M  V30 1281 H 123.008 -3.86376 -1.54445 0
M  V30 1282 H 121.884 -4.91533 -2.44308 0
M  V30 1283 H 122.145 -3.26396 -2.98191 0
M  V30 1284 N 121.204 0.198386 -1.56346 0
M  V30 1285 C 122.452 0.91747 -1.80075 0
M  V30 1286 C 122.773 1.83929 -0.647692 0
M  V30 1287 O 122.043 1.93029 0.334166 0
M  V30 1288 H 120.623 0.341774 -0.664228 0
M  V30 1289 H 123.285 0.204684 -1.93822 0
M  V30 1290 H 122.381 1.51055 -2.7311 0
M  V30 1291 N 122.682 1.50554 0.465978 0
M  V30 1292 C 123.929 1.61798 1.21768 0
M  V30 1293 C 124.257 0.320696 1.91838 0
M  V30 1294 O 123.512 -0.693724 1.82992 0
M  V30 1295 C 123.811 2.75152 2.28093 0
M  V30 1296 C 123.477 4.15454 1.75239 0
M  V30 1297 C 122.139 4.53628 1.60546 0
M  V30 1298 C 124.491 5.03121 1.36083 0
M  V30 1299 C 121.819 5.77204 1.05128 0
M  V30 1300 C 124.171 6.27249 0.821056 0
M  V30 1301 C 122.835 6.64221 0.660795 0
M  V30 1302 H 122.105 0.592063 0.445582 0
M  V30 1303 H 124.752 1.84503 0.512927 0
M  V30 1304 H 123.057 2.46556 3.04496 0
M  V30 1305 H 124.754 2.81055 2.86023 0
M  V30 1306 H 121.344 3.85341 1.87644 0
M  V30 1307 H 125.528 4.74257 1.46267 0
M  V30 1308 H 120.784 6.0452 0.91462 0
M  V30 1309 H 124.958 6.94537 0.509018 0
M  V30 1310 H 122.585 7.59854 0.229226 0
M  V30 1311 N 124.16 -0.719506 1.40217 0
M  V30 1312 C 125.437 -1.47221 1.28784 0
M  V30 1313 C 125.817 -2.10883 -0.0956067 0
M  V30 1314 O 125.165 -1.99833 -1.10811 0
M  V30 1315 C 125.375 -2.5111 2.42373 0
M  V30 1316 C 126.723 -3.17053 2.82423 0
M  V30 1317 O 127.747 -2.61429 2.41937 0
M  V30 1318 O 126.606 -4.17742 3.52355 0
M  V30 1319 H 123.7 -0.654491 0.50554 0
M  V30 1320 H 126.246 -0.752014 1.52128 0
M  V30 1321 H 125.018 -2.02556 3.34793 0
M  V30 1322 H 124.641 -3.3067 2.20778 0
M  V30 1323 N 125.638 -1.25649 -0.95132 0
M  V30 1324 C 126.601 -1.06399 -2.03007 0
M  V30 1325 C 127.601 -0.0156794 -1.60792 0
M  V30 1326 O 128.791 -0.25817 -1.72276 0
M  V30 1327 C 125.923 -0.616184 -3.35285 0
M  V30 1328 H 127.116 -2.02164 -2.21517 0
M  V30 1329 H 124.669 -1.08103 -1.12887 0
M  V30 1330 H 125.404 0.343917 -3.22471 0
M  V30 1331 H 125.189 -1.37301 -3.67275 0
M  V30 1332 H 126.679 -0.503032 -4.14559 0
M  V30 1333 N 127.117 1.15442 -1.07289 0
M  V30 1334 C 128.363 1.86489 -0.796846 0
M  V30 1335 C 128.696 1.82078 0.675371 0
M  V30 1336 O 127.971 1.24346 1.4956 0
M  V30 1337 C 128.254 3.35626 -1.30489 0
M  V30 1338 C 128.107 3.48673 -2.84161 0
M  V30 1339 C 129.426 4.30357 -0.920907 0
M  V30 1340 H 126.545 0.677144 -0.290939 0
M  V30 1341 H 129.187 1.35633 -1.33056 0
M  V30 1342 H 127.337 3.79068 -0.850883 0
M  V30 1343 H 129.009 3.14099 -3.37846 0
M  V30 1344 H 127.252 2.90253 -3.22391 0
M  V30 1345 H 127.923 4.53453 -3.14777 0
M  V30 1346 H 130.399 3.94871 -1.3121 0
M  V30 1347 H 129.275 5.33193 -1.30372 0
M  V30 1348 H 129.536 4.4176 0.173226 0
M  V30 1349 N 128.595 0.856903 1.32268 0
M  V30 1350 C 129.823 0.475439 2.01363 0
M  V30 1351 C 130.238 -0.928486 1.64392 0
M  V30 1352 O 129.595 -1.60624 0.866387 0
M  V30 1353 C 129.646 0.607545 3.56358 0
M  V30 1354 O 129.367 1.95617 3.92002 0
M  V30 1355 C 130.868 0.225382 4.42727 0
M  V30 1356 H 128.088 0.186636 0.644521 0
M  V30 1357 H 130.632 1.15446 1.68797 0
M  V30 1358 H 128.787 -0.0237719 3.87393 0
M  V30 1359 H 129.201 1.95455 4.86721 0
M  V30 1360 H 130.675 0.368813 5.50767 0
M  V30 1361 H 131.152 -0.834369 4.31202 0
M  V30 1362 H 131.758 0.831864 4.17085 0
M  V30 1363 N 130.073 -1.45103 0.615059 0
M  V30 1364 C 131.321 -2.01784 0.112955 0
M  V30 1365 C 131.642 -1.48504 -1.26378 0
M  V30 1366 O 130.912 -0.682245 -1.83636 0
M  V30 1367 H 129.492 -0.745993 0.0387668 0
M  V30 1368 H 132.154 -1.77808 0.798141 0
M  V30 1369 H 131.25 -3.12025 0.0684069 0
M  V30 1370 N 131.551 -0.354651 -1.53558 0
M  V30 1371 C 132.461 0.50515 -2.29097 0
M  V30 1372 C 133.477 1.10223 -1.34636 0
M  V30 1373 O 134.653 1.11553 -1.67684 0
M  V30 1374 C 131.718 1.63479 -3.05738 0
M  V30 1375 C 130.779 1.06636 -4.15845 0
M  V30 1376 C 130.012 2.14217 -4.88822 0
M  V30 1377 O 130.235 3.35137 -4.61562 0
M  V30 1378 O 129.169 1.77887 -5.75013 0
M  V30 1379 H 132.995 -0.109237 -3.03503 0
M  V30 1380 H 130.58 -0.119357 -1.48922 0
M  V30 1381 H 132.462 2.2918 -3.5363 0
M  V30 1382 H 131.137 2.23478 -2.34178 0
M  V30 1383 H 130.044 0.373565 -3.7223 0
M  V30 1384 H 131.377 0.511081 -4.89539 0
M  V30 1385 N 133.029 1.57378 -0.0835403 0
M  V30 1386 C 134.276 1.9393 0.58287 0
M  V30 1387 C 134.604 0.964455 1.68904 0
M  V30 1388 O 133.859 -0.0179474 1.95692 0
M  V30 1389 C 134.158 3.37063 1.1884 0
M  V30 1390 C 133.824 4.50424 0.207194 0
M  V30 1391 C 132.486 4.81159 -0.0627115 0
M  V30 1392 C 134.838 5.19136 -0.463426 0
M  V30 1393 C 132.166 5.77939 -1.01012 0
M  V30 1394 C 134.518 6.16931 -1.39924 0
M  V30 1395 C 133.182 6.46078 -1.67749 0
M  V30 1396 H 132.452 0.70964 0.213287 0
M  V30 1397 H 135.099 1.90856 -0.156916 0
M  V30 1398 H 133.404 3.3666 2.00418 0
M  V30 1399 H 135.101 3.6264 1.71153 0
M  V30 1400 H 131.691 4.2646 0.427747 0
M  V30 1401 H 135.875 4.95576 -0.268034 0
M  V30 1402 H 131.131 5.98842 -1.23283 0
M  V30 1403 H 135.305 6.69273 -1.92476 0
M  V30 1404 H 132.932 7.2088 -2.41321 0
M  V30 1405 N 134.507 -0.190092 1.56449 0
M  V30 1406 C 135.735 -0.925772 1.85033 0
M  V30 1407 C 136.15 -1.76638 0.666658 0
M  V30 1408 O 135.507 -1.78822 -0.364565 0
M  V30 1409 C 135.558 -1.81786 3.12468 0
M  V30 1410 O 135.279 -1.01118 4.26271 0
M  V30 1411 C 136.78 -2.6648 3.54265 0
M  V30 1412 H 134 -0.269872 0.614337 0
M  V30 1413 H 136.544 -0.195837 2.0356 0
M  V30 1414 H 134.699 -2.50136 2.95822 0
M  V30 1415 H 135.113 -1.61956 4.98869 0
M  V30 1416 H 136.587 -3.24722 4.46385 0
M  V30 1417 H 137.064 -3.40434 2.77491 0
M  V30 1418 H 137.67 -2.03493 3.73458 0
M  V30 1419 N 135.985 -1.50799 -0.457987 0
M  V30 1420 C 137.396 -1.55152 -1.0385 0
M  V30 1421 C 137.747 -0.362719 -1.92818 0
M  V30 1422 O 136.872 0.522915 -2.09987 0
M  V30 1423 C 137.467 -2.81173 -1.89017 0
M  V30 1424 C 136.026 -2.88164 -2.42154 0
M  V30 1425 C 135.173 -2.49591 -1.20829 0
M  V30 1426 H 138.124 -1.56874 -0.240068 0
M  V30 1427 H 138.145 -2.63769 -2.74238 0
M  V30 1428 H 137.657 -3.67677 -1.24238 0
M  V30 1429 H 135.758 -2.06042 -3.10447 0
M  V30 1430 H 135.871 -3.91356 -2.76364 0
M  V30 1431 H 134.235 -2.02322 -1.54719 0
M  V30 1432 H 135.018 -3.38418 -0.576927 0
M  V30 1433 N 137.463 0.71206 -1.40597 0
M  V30 1434 C 138.74 1.46536 -1.29563 0
M  V30 1435 C 139.12 2.10931 0.0844217 0
M  V30 1436 O 138.468 2.00418 1.0975 0
M  V30 1437 C 138.678 2.49821 -2.43701 0
M  V30 1438 C 140.026 3.15551 -2.841 0
M  V30 1439 O 141.05 2.60142 -2.4332 0
M  V30 1440 O 139.909 4.15867 -3.54566 0
M  V30 1441 H 137.003 0.651801 -0.509004 0
M  V30 1442 H 139.549 0.743935 -1.52524 0
M  V30 1443 H 138.321 2.00778 -3.35863 0
M  V30 1444 H 137.944 3.29495 -2.22528 0
M  V30 1445 N 138.941 1.26152 0.944643 0
M  V30 1446 C 139.871 1.09902 2.06019 0
M  V30 1447 C 140.852 0.00519538 1.70099 0
M  V30 1448 O 142.037 0.176583 1.93396 0
M  V30 1449 C 139.167 0.727562 3.39594 0
M  V30 1450 C 138.121 1.77274 3.89561 0
M  V30 1451 C 137.447 1.25569 5.19747 0
M  V30 1452 C 138.747 3.17357 4.14827 0
M  V30 1453 H 140.441 2.03217 2.19871 0
M  V30 1454 H 137.987 0.978452 1.05652 0
M  V30 1455 H 139.94 0.600777 4.17095 0
M  V30 1456 H 138.664 -0.241287 3.25707 0
M  V30 1457 H 137.323 1.88814 3.14237 0
M  V30 1458 H 136.971 0.276783 5.02238 0
M  V30 1459 H 136.671 1.95433 5.54148 0
M  V30 1460 H 138.195 1.1415 5.99835 0
M  V30 1461 H 139.609 3.08914 4.82954 0
M  V30 1462 H 138.006 3.84781 4.60504 0
M  V30 1463 H 139.076 3.63673 3.20734 0
M  V30 1464 N 140.419 -1.14872 1.07899 0
M  V30 1465 C 141.649 -1.89386 0.825631 0
M  V30 1466 C 142.057 -1.78565 -0.625406 0
M  V30 1467 O 141.4 -1.13918 -1.44113 0
M  V30 1468 C 141.462 -3.40206 1.16191 0
M  V30 1469 C 141.126 -3.74812 2.61467 0
M  V30 1470 C 142.123 -3.75367 3.59716 0
M  V30 1471 C 139.808 -4.0495 2.97189 0
M  V30 1472 C 141.802 -4.05574 4.9172 0
M  V30 1473 C 139.489 -4.34821 4.29388 0
M  V30 1474 C 140.487 -4.35116 5.26463 0
M  V30 1475 O 140.175 -4.64267 6.56286 0
M  V30 1476 H 139.907 -0.606894 0.297751 0
M  V30 1477 H 142.461 -1.46438 1.44031 0
M  V30 1478 H 140.691 -3.8358 0.490214 0
M  V30 1479 H 142.38 -3.96018 0.890193 0
M  V30 1480 H 143.146 -3.52176 3.33462 0
M  V30 1481 H 139.025 -4.03876 2.22273 0
M  V30 1482 H 142.569 -4.05719 5.67484 0
M  V30 1483 H 138.466 -4.5748 4.55392 0
M  V30 1484 H 139.234 -4.82007 6.61522 0
M  V30 1485 N 141.898 -0.863906 -1.31812 0
M  V30 1486 C 143.146 -0.470904 -1.96537 0
M  V30 1487 C 143.467 0.978771 -1.68657 0
M  V30 1488 O 142.737 1.6853 -0.998717 0
M  V30 1489 H 141.317 -0.171148 -0.72713 0
M  V30 1490 H 143.979 -1.10236 -1.60729 0
M  V30 1491 H 143.075 -0.623616 -3.05806 0
M  V30 1492 N 143.376 1.44774 -0.622745 0
M  V30 1493 C 144.601 2.06999 -0.128968 0
M  V30 1494 C 145.026 1.4617 1.1839 0
M  V30 1495 O 144.384 0.560007 1.72434 0
M  V30 1496 C 144.432 3.60595 -0.0188351 0
M  V30 1497 O 143.536 3.99398 1.02739 0
M  V30 1498 H 142.877 0.659047 -0.0809544 0
M  V30 1499 H 145.407 1.85784 -0.85705 0
M  V30 1500 H 145.417 4.07627 0.174476 0
M  V30 1501 H 144.092 4.04252 -0.977384 0
M  V30 1502 H 142.669 3.64011 0.809326 0
M  V30 1503 N 144.854 0.36279 1.53368 0
M  V30 1504 C 145.786 -0.519668 2.23231 0
M  V30 1505 C 146.799 -1.04844 1.24546 0
M  V30 1506 O 147.988 -0.955296 1.50786 0
M  V30 1507 C 145.088 -1.72995 2.9142 0
M  V30 1508 C 144.261 -1.33316 4.16588 0
M  V30 1509 C 143.32 -2.40521 4.68013 0
M  V30 1510 O 142.346 -2.03027 5.3176 0
M  V30 1511 N 143.548 -3.72065 4.45587 0
M  V30 1512 H 146.313 0.078751 2.99597 0
M  V30 1513 H 143.874 0.187833 1.60807 0
M  V30 1514 H 145.866 -2.44184 3.22733 0
M  V30 1515 H 144.436 -2.2353 2.18525 0
M  V30 1516 H 143.656 -0.451236 3.91609 0
M  V30 1517 H 144.944 -1.04432 4.97967 0
M  V30 1518 H 144.342 -4.05304 3.94646 0
M  V30 1519 H 142.899 -4.39366 4.81457 0
M  V30 1520 N 146.332 -1.57332 0.0918853 0
M  V30 1521 C 147.265 -2.09499 -0.904735 0
M  V30 1522 C 148.243 -1.00479 -1.27839 0
M  V30 1523 O 149.427 -1.27954 -1.38419 0
M  V30 1524 C 146.554 -2.56931 -2.2069 0
M  V30 1525 C 145.6 -3.77579 -1.98334 0
M  V30 1526 S 146.433 -5.21317 -1.22428 0
M  V30 1527 C 147.589 -5.72097 -2.53882 0
M  V30 1528 H 147.822 -2.93705 -0.460922 0
M  V30 1529 H 145.355 -1.53923 -0.121332 0
M  V30 1530 H 147.313 -2.84917 -2.95521 0
M  V30 1531 H 145.974 -1.72956 -2.62192 0
M  V30 1532 H 145.167 -4.08824 -2.94752 0
M  V30 1533 H 144.769 -3.5007 -1.31633 0
M  V30 1534 H 147.061 -5.80168 -3.49874 0
M  V30 1535 H 148.004 -6.70654 -2.27219 0
M  V30 1536 H 148.412 -5.00012 -2.62007 0
M  V30 1537 N 147.81 0.181792 -1.56548 0
M  V30 1538 C 149.05 0.906711 -1.83189 0
M  V30 1539 C 149.414 1.79882 -0.671312 0
M  V30 1540 O 150.615 2.56054 -0.81792 0
M  V30 1541 C 148.886 1.69023 -3.14906 0
M  V30 1542 S 150.445 2.46535 -3.62996 0
M  V30 1543 H 147.263 0.303877 -0.642791 0
M  V30 1544 H 149.865 0.169107 -1.94767 0
M  V30 1545 H 148.569 1.02571 -3.97376 0
M  V30 1546 H 148.1 2.46941 -3.06241 0
M  V30 1547 H 150.115 3.71014 -3.29489 0
M  V30 1548 N 149.288 1.51039 0.449983 0
M  V30 1549 C 150.699 1.557 1.03026 0
M  V30 1550 C 151.05 0.372939 1.92623 0
M  V30 1551 O 150.175 -0.511771 2.10261 0
M  V30 1552 C 150.77 2.82171 1.87523 0
M  V30 1553 C 149.329 2.89444 2.40622 0
M  V30 1554 C 148.476 2.50228 1.19504 0
M  V30 1555 H 151.427 1.56999 0.231745 0
M  V30 1556 H 151.448 2.65219 2.72835 0
M  V30 1557 H 150.96 3.68331 1.22286 0
M  V30 1558 H 149.061 2.07685 3.0935 0
M  V30 1559 H 149.174 3.92816 2.74285 0
M  V30 1560 H 147.538 2.03139 1.53644 0
M  V30 1561 H 148.321 3.38719 0.558972 0
M  V30 1562 N 150.766 -0.704594 1.40972 0
M  V30 1563 C 152.014 -1.46169 1.39568 0
M  V30 1564 C 152.335 -1.95 0.00253745 0
M  V30 1565 O 151.605 -1.71095 -0.954114 0
M  V30 1566 H 150.185 -0.542326 0.513704 0
M  V30 1567 H 152.847 -0.834553 1.76128 0
M  V30 1568 H 151.943 -2.32922 2.07735 0
M  V30 1569 N 152.244 -1.26651 -0.937939 0
M  V30 1570 C 153.191 -1.0849 -2.03712 0
M  V30 1571 C 154.161 0.011033 -1.66096 0
M  V30 1572 O 155.346 -0.149353 -1.90215 0
M  V30 1573 C 152.486 -0.72735 -3.37348 0
M  V30 1574 C 151.599 -1.89986 -3.87981 0
M  V30 1575 C 150.734 -1.48513 -5.10017 0
M  V30 1576 C 149.773 -2.62575 -5.5292 0
M  V30 1577 N 148.91 -2.21762 -6.66158 0
M  V30 1578 H 153.75 -2.02551 -2.18579 0
M  V30 1579 H 151.287 -1.00844 -1.07093 0
M  V30 1580 H 153.245 -0.50092 -4.14182 0
M  V30 1581 H 151.875 0.176298 -3.22318 0
M  V30 1582 H 150.927 -2.23913 -3.07518 0
M  V30 1583 H 152.239 -2.75586 -4.15757 0
M  V30 1584 H 151.393 -1.21934 -5.94321 0
M  V30 1585 H 150.132 -0.60009 -4.83994 0
M  V30 1586 H 149.137 -2.8988 -4.67172 0
M  V30 1587 H 150.362 -3.51685 -5.80943 0
M  V30 1588 H 148.308 -1.35696 -6.41812 0
M  V30 1589 H 148.225 -3.00903 -6.93537 0
M  V30 1590 H 149.493 -1.98403 -7.53828 0
M  V30 1591 N 153.722 1.14298 -1.08507 0
M  V30 1592 C 154.652 2.21542 -0.737646 0
M  V30 1593 C 155.633 1.67773 0.280377 0
M  V30 1594 O 156.818 1.93616 0.150521 0
M  V30 1595 C 153.948 3.46988 -0.147259 0
M  V30 1596 C 152.902 4.13789 -1.09374 0
M  V30 1597 C 152.228 5.33449 -0.365524 0
M  V30 1598 C 153.528 4.62208 -2.4323 0
M  V30 1599 H 155.222 2.5086 -1.6343 0
M  V30 1600 H 152.768 1.20576 -0.787243 0
M  V30 1601 H 154.721 4.21262 0.107808 0
M  V30 1602 H 153.445 3.17037 0.784538 0
M  V30 1603 H 152.104 3.4147 -1.33393 0
M  V30 1604 H 151.752 4.99759 0.57011 0
M  V30 1605 H 151.452 5.79088 -0.996512 0
M  V30 1606 H 152.976 6.10485 -0.118534 0
M  V30 1607 H 154.39 5.27952 -2.23472 0
M  V30 1608 H 152.787 5.18553 -3.02031 0
M  V30 1609 H 153.857 3.77224 -3.04681 0
M  V30 1610 N 155.201 0.870884 1.31352 0
M  V30 1611 C 156.612 0.534714 1.78879 0
M  V30 1612 C 156.963 -0.948423 1.71754 0
M  V30 1613 O 156.088 -1.74055 1.28584 0
M  V30 1614 C 156.683 0.963839 3.24801 0
M  V30 1615 C 155.242 0.679311 3.70219 0
M  V30 1616 C 154.389 1.15465 2.52117 0
M  V30 1617 H 157.34 1.05651 1.18421 0
M  V30 1618 H 157.361 0.286892 3.79417 0
M  V30 1619 H 156.873 2.04332 3.29955 0
M  V30 1620 H 154.974 -0.388769 3.70566 0
M  V30 1621 H 155.087 1.25698 4.62317 0
M  V30 1622 H 153.451 0.574383 2.48139 0
M  V30 1623 H 154.234 2.24157 2.60016 0
M  V30 1624 N 156.679 -1.44442 0.630414 0
M  V30 1625 C 157.589 -2.34476 -0.0761693 0
M  V30 1626 C 158.605 -1.52576 -0.836449 0
M  V30 1627 O 159.781 -1.85307 -0.788874 0
M  V30 1628 C 156.846 -3.30545 -1.04599 0
M  V30 1629 C 155.907 -4.28352 -0.28516 0
M  V30 1630 C 155.14 -5.19831 -1.20878 0
M  V30 1631 O 155.363 -5.15223 -2.44747 0
M  V30 1632 O 154.297 -5.97892 -0.693491 0
M  V30 1633 H 158.123 -2.96345 0.664324 0
M  V30 1634 H 155.708 -1.44203 0.39061 0
M  V30 1635 H 157.59 -3.89681 -1.60396 0
M  V30 1636 H 156.265 -2.7121 -1.76711 0
M  V30 1637 H 155.172 -3.72764 0.315837 0
M  V30 1638 H 156.505 -4.90605 0.395924 0
M  V30 1639 N 158.157 -0.370918 -1.53173 0
M  V30 1640 C 159.405 0.216673 -2.00935 0
M  V30 1641 C 159.726 1.48845 -1.25977 0
M  V30 1642 O 158.996 1.92286 -0.374551 0
M  V30 1643 H 157.576 0.0830565 -0.742368 0
M  V30 1644 H 160.238 -0.49838 -1.8842 0
M  V30 1645 H 159.334 0.439893 -3.08984 0
M  V30 1646 N 159.635 1.57281 -0.100228 0
M  V30 1647 C 160.884 1.93713 0.561984 0
M  V30 1648 C 161.197 0.984492 1.69018 0
M  V30 1649 O 162.403 1.24273 2.41389 0
M  V30 1650 C 160.859 3.4421 1.05106 0
M  V30 1651 C 160.467 4.47975 -0.0476628 0
M  V30 1652 C 162.211 3.89595 1.68571 0
M  V30 1653 C 160.118 5.89631 0.457055 0
M  V30 1654 H 159.048 0.723082 0.2137 0
M  V30 1655 H 161.699 1.82644 -0.177057 0
M  V30 1656 H 160.081 3.50449 1.84395 0
M  V30 1657 H 161.255 4.53385 -0.823333 0
M  V30 1658 H 159.57 4.1223 -0.587816 0
M  V30 1659 H 162.167 4.92832 2.07414 0
M  V30 1660 H 162.51 3.28526 2.55688 0
M  V30 1661 H 163.043 3.86078 0.958562 0
M  V30 1662 H 159.782 6.54411 -0.377616 0
M  V30 1663 H 159.302 5.87681 1.19962 0
M  V30 1664 H 160.981 6.40363 0.92437 0
M  V30 1665 N 161.113 -0.173488 1.56642 0
M  V30 1666 C 162.524 -0.736155 1.71574 0
M  V30 1667 C 162.875 -1.82888 0.710389 0
M  V30 1668 O 162 -2.16017 -0.1287 0
M  V30 1669 C 162.595 -1.34211 3.11083 0
M  V30 1670 C 161.154 -1.85162 3.27707 0
M  V30 1671 C 160.301 -0.729765 2.67525 0
M  V30 1672 H 163.252 0.0518786 1.58615 0
M  V30 1673 H 163.273 -2.21178 3.09613 0
M  V30 1674 H 162.785 -0.546579 3.84232 0
M  V30 1675 H 160.886 -2.67366 2.59512 0
M  V30 1676 H 160.999 -1.99855 4.35425 0
M  V30 1677 H 159.363 -1.14965 2.27278 0
M  V30 1678 H 160.146 0.0538806 3.43258 0
M  V30 1679 N 162.591 -1.51276 -0.441967 0
M  V30 1680 C 163.501 -1.75092 -1.56141 0
M  V30 1681 C 164.517 -0.634963 -1.62001 0
M  V30 1682 O 165.693 -0.916686 -1.79329 0
M  V30 1683 C 162.758 -1.86666 -2.92158 0
M  V30 1684 C 161.819 -3.10506 -2.96453 0
M  V30 1685 C 161.052 -3.21519 -4.25982 0
M  V30 1686 O 161.275 -2.38586 -5.18105 0
M  V30 1687 O 160.209 -4.14465 -4.36466 0
M  V30 1688 H 164.035 -2.70044 -1.38961 0
M  V30 1689 H 161.62 -1.35722 -0.624499 0
M  V30 1690 H 163.502 -1.96292 -3.72891 0
M  V30 1691 H 162.177 -0.949014 -3.09476 0
M  V30 1692 H 161.084 -3.06363 -2.14692 0
M  V30 1693 H 162.417 -4.01945 -2.84079 0
M  V30 1694 N 164.069 0.697108 -1.41344 0
M  V30 1695 C 165.001 1.8224 -1.39001 0
M  V30 1696 C 166.014 1.60152 -0.292428 0
M  V30 1697 O 167.203 1.69684 -0.554048 0
M  V30 1698 C 164.303 3.18976 -1.14489 0
M  V30 1699 C 163.476 3.68105 -2.36258 0
M  V30 1700 C 162.535 4.83506 -2.07625 0
M  V30 1701 O 161.561 4.95201 -2.8065 0
M  V30 1702 N 162.763 5.70637 -1.06555 0
M  V30 1703 H 165.528 1.84742 -2.35988 0
M  V30 1704 H 163.089 0.87937 -1.35936 0
M  V30 1705 H 165.081 3.93801 -0.932885 0
M  V30 1706 H 163.651 3.11508 -0.261043 0
M  V30 1707 H 162.871 2.84204 -2.7317 0
M  V30 1708 H 164.159 3.97667 -3.17393 0
M  V30 1709 H 163.557 5.63817 -0.461125 0
M  V30 1710 H 162.114 6.45368 -0.913444 0
M  V30 1711 N 165.547 1.27147 0.931209 0
M  V30 1712 C 166.793 1.14455 1.68141 0
M  V30 1713 C 167.148 -0.307172 1.89932 0
M  V30 1714 O 166.441 -1.22158 1.47607 0
M  V30 1715 C 166.635 1.8579 3.05314 0
M  V30 1716 C 166.464 3.3775 2.96909 0
M  V30 1717 C 165.234 4.07062 2.99381 0
M  V30 1718 C 167.432 4.33783 2.76291 0
M  V30 1719 N 165.414 5.45618 2.8138 0
M  V30 1720 C 166.785 5.59582 2.6696 0
M  V30 1721 C 168.84 4.23915 2.61152 0
M  V30 1722 C 167.543 6.76639 2.44033 0
M  V30 1723 C 169.569 5.40689 2.39602 0
M  V30 1724 C 168.931 6.65443 2.3101 0
M  V30 1725 H 165.03 0.473667 0.622225 0
M  V30 1726 H 167.614 1.60568 1.10118 0
M  V30 1727 H 165.785 1.42138 3.61457 0
M  V30 1728 H 167.517 1.65634 3.69253 0
M  V30 1729 H 164.272 3.585 3.09475 0
M  V30 1730 H 164.696 6.184 2.75519 0
M  V30 1731 H 169.338 3.28189 2.66555 0
M  V30 1732 H 167.056 7.72451 2.3737 0
M  V30 1733 H 170.642 5.34932 2.28778 0
M  V30 1734 H 169.522 7.54277 2.14558 0
M  V30 1735 N 167.025 -1.13721 1.09112 0
M  V30 1736 C 167.988 -2.17222 0.731241 0
M  V30 1737 C 168.988 -1.59035 -0.237566 0
M  V30 1738 O 170.178 -1.74192 -0.0161704 0
M  V30 1739 C 167.31 -3.40804 0.0808443 0
M  V30 1740 H 168.503 -2.50573 1.64783 0
M  V30 1741 H 166.056 -1.28493 0.889897 0
M  V30 1742 H 166.791 -3.1304 -0.847127 0
M  V30 1743 H 166.576 -3.84306 0.777896 0
M  V30 1744 H 168.066 -4.1731 -0.155657 0
M  V30 1745 N 168.503 -0.877838 -1.30888 0
M  V30 1746 C 169.919 -0.570844 -1.49042 0
M  V30 1747 C 170.119 0.893159 -1.80624 0
M  V30 1748 O 169.175 1.67485 -1.88958 0
M  V30 1749 C 170.488 -1.47784 -2.61878 0
M  V30 1750 C 172.036 -1.48071 -2.75761 0
M  V30 1751 C 172.511 -2.37347 -3.91702 0
M  V30 1752 N 174.002 -2.35271 -3.99001 0
M  V30 1753 C 174.737 -3.01063 -4.88004 0
M  V30 1754 N 174.233 -3.76055 -5.81854 0
M  V30 1755 N 176.026 -2.90332 -4.81315 0
M  V30 1756 H 168.177 -1.82502 -1.0866 0
M  V30 1757 H 170.44 -0.780797 -0.537644 0
M  V30 1758 H 170.146 -2.51993 -2.45341 0
M  V30 1759 H 170.02 -1.18215 -3.58197 0
M  V30 1760 H 172.407 -0.446166 -2.91708 0
M  V30 1761 H 172.488 -1.81668 -1.80085 0
M  V30 1762 H 172.132 -3.40883 -3.76512 0
M  V30 1763 H 172.062 -2.01071 -4.86701 0
M  V30 1764 H 174.553 -1.80768 -3.3186 0
M  V30 1765 H 174.866 -4.23366 -6.46514 0
M  V30 1766 H 173.211 -3.80163 -5.81808 0
M  V30 1767 H 176.402 -2.31278 -4.06974 0
M  V30 1768 H 176.575 -3.41885 -5.50471 0
M  V30 1769 N 169.982 1.44106 -0.638065 0
M  V30 1770 C 170.912 2.33448 0.0494287 0
M  V30 1771 C 171.893 1.48606 0.827672 0
M  V30 1772 O 173.078 1.77308 0.792173 0
M  V30 1773 C 170.208 3.31771 1.02691 0
M  V30 1774 C 169.162 4.26485 0.359823 0
M  V30 1775 C 168.488 5.14729 1.44769 0
M  V30 1776 C 169.788 5.17056 -0.738296 0
M  V30 1777 H 171.482 2.91183 -0.696636 0
M  V30 1778 H 169.028 1.40014 -0.336456 0
M  V30 1779 H 170.981 3.93161 1.51666 0
M  V30 1780 H 169.705 2.7226 1.80395 0
M  V30 1781 H 168.364 3.66437 -0.10934 0
M  V30 1782 H 168.012 4.51566 2.21578 0
M  V30 1783 H 167.712 5.78913 1.00668 0
M  V30 1784 H 169.236 5.78991 1.93911 0
M  V30 1785 H 170.65 5.72342 -0.331354 0
M  V30 1786 H 169.047 5.89879 -1.10286 0
M  V30 1787 H 170.117 4.57652 -1.60258 0
M  V30 1788 N 171.46 0.379036 1.52974 0
M  V30 1789 C 172.39 -0.452706 2.29069 0
M  V30 1790 C 173.371 -1.07237 1.32039 0
M  V30 1791 O 174.556 -1.08708 1.60923 0
M  V30 1792 C 171.686 -1.5856 3.08992 0
M  V30 1793 C 170.64 -1.0925 4.13822 0
M  V30 1794 C 169.966 -2.31668 4.81907 0
M  V30 1795 C 171.266 -0.167702 5.22031 0
M  V30 1796 H 172.96 0.182181 2.98845 0
M  V30 1797 H 170.506 0.0890592 1.43724 0
M  V30 1798 H 172.459 -2.1742 3.6098 0
M  V30 1799 H 171.183 -2.24792 2.36931 0
M  V30 1800 H 169.842 -0.526494 3.628 0
M  V30 1801 H 169.49 -2.96386 4.06404 0
M  V30 1802 H 169.19 -1.9934 5.52754 0
M  V30 1803 H 170.714 -2.91189 5.36695 0
M  V30 1804 H 172.128 -0.664186 5.6944 0
M  V30 1805 H 170.525 0.0653265 6.00064 0
M  V30 1806 H 171.595 0.786347 4.78482 0
M  V30 1807 N 172.938 -1.57226 0.108567 0
M  V30 1808 C 173.87 -2.11809 -0.875752 0
M  V30 1809 C 174.883 -1.05839 -1.23701 0
M  V30 1810 O 176.072 -1.33245 -1.18778 0
M  V30 1811 C 173.172 -2.59411 -2.18081 0
M  V30 1812 C 172.345 -3.89364 -1.99284 0
M  V30 1813 C 171.404 -4.22672 -3.13424 0
M  V30 1814 O 170.43 -4.91668 -2.86795 0
M  V30 1815 N 171.632 -3.79154 -4.3957 0
M  V30 1816 H 174.397 -2.9689 -0.409477 0
M  V30 1817 H 171.958 -1.61721 -0.076158 0
M  V30 1818 H 173.95 -2.7873 -2.93414 0
M  V30 1819 H 172.52 -1.79268 -2.5609 0
M  V30 1820 H 171.74 -3.79059 -1.08203 0
M  V30 1821 H 173.028 -4.74358 -1.84017 0
M  V30 1822 H 172.426 -3.23486 -4.64083 0
M  V30 1823 H 170.983 -4.03602 -5.11809 0
M  V30 1824 N 174.416 0.165178 -1.56732 0
M  V30 1825 C 175.644 0.896218 -1.86482 0
M  V30 1826 C 176.059 1.75555 -0.694675 0
M  V30 1827 O 175.416 1.79379 0.33607 0
M  V30 1828 C 175.467 1.76792 -3.1532 0
M  V30 1829 O 175.188 0.943239 -4.27825 0
M  V30 1830 C 176.689 2.6081 -3.58459 0
M  V30 1831 H 173.909 0.260064 -0.618553 0
M  V30 1832 H 176.453 0.163428 -2.03846 0
M  V30 1833 H 174.608 2.45398 -2.99764 0
M  V30 1834 H 175.022 1.53998 -5.01383 0
M  V30 1835 H 176.496 3.17579 -4.51495 0
M  V30 1836 H 176.973 3.35977 -2.82872 0
M  V30 1837 H 177.579 1.97526 -3.76648 0
M  V30 1838 N 175.894 1.51508 0.433938 0
M  V30 1839 C 177.119 1.68443 1.21003 0
M  V30 1840 C 177.544 0.382636 1.84167 0
M  V30 1841 O 176.902 -0.65755 1.68956 0
M  V30 1842 C 176.95 2.80405 2.26727 0
M  V30 1843 O 176.054 2.44245 3.32292 0
M  V30 1844 H 175.395 0.561536 0.354363 0
M  V30 1845 H 177.925 1.9809 0.512024 0
M  V30 1846 H 177.935 3.0459 2.71457 0
M  V30 1847 H 176.61 3.74867 1.80132 0
M  V30 1848 H 175.187 2.30644 2.93015 0
M  V30 1849 N 177.372 -0.689602 1.41712 0
M  V30 1850 C 178.32 -1.82475 1.44242 0
M  V30 1851 C 179.314 -1.66354 0.319774 0
M  V30 1852 O 180.52 -1.73143 0.492089 0
M  V30 1853 H 176.895 -0.601416 0.451445 0
M  V30 1854 H 178.866 -1.77458 2.39899 0
M  V30 1855 C 177.615 -3.20535 1.3473 0
M  V30 1856 H 176.938 -3.33559 2.20405 0
M  V30 1857 H 178.378 -4.00023 1.40562 0
M  V30 1858 C 176.837 -3.36846 0.0603281 0
M  V30 1859 O 177.367 -3.91656 -0.892663 0
M  V30 1860 N 175.573 -2.90595 -0.0177039 0
M  V30 1861 H 175.12 -2.46178 0.758572 0
M  V30 1862 H 175.078 -3.01886 -0.878201 0
M  V30 1863 N 178.85 -1.27639 -0.924453 0
M  V30 1864 C 180.099 -1.13549 -1.66702 0
M  V30 1865 C 180.412 0.317487 -1.93006 0
M  V30 1866 O 181.618 0.579333 -2.65247 0
M  V30 1867 C 180.074 -1.98426 -3.00259 0
M  V30 1868 C 179.682 -3.484 -2.81641 0
M  V30 1869 C 181.426 -1.92993 -3.78092 0
M  V30 1870 C 179.333 -4.25464 -4.10773 0
M  V30 1871 H 178.263 -0.421351 -0.625283 0
M  V30 1872 H 180.914 -1.52085 -1.02676 0
M  V30 1873 H 179.296 -1.52736 -3.6536 0
M  V30 1874 H 180.47 -4.01973 -2.25287 0
M  V30 1875 H 178.785 -3.55245 -2.17232 0
M  V30 1876 H 181.382 -2.47844 -4.7379 0
M  V30 1877 H 181.725 -0.904281 -4.0636 0
M  V30 1878 H 182.258 -2.36595 -3.19793 0
M  V30 1879 H 178.997 -5.28566 -3.87683 0
M  V30 1880 H 178.517 -3.76667 -4.66779 0
M  V30 1881 H 180.196 -4.34812 -4.79111 0
M  V30 1882 N 180.328 1.1314 -1.09713 0
M  V30 1883 C 181.556 1.88321 -0.856898 0
M  V30 1884 C 181.971 1.79276 0.592073 0
M  V30 1885 O 181.328 1.16142 1.40774 0
M  V30 1886 C 181.379 3.37812 -1.28706 0
M  V30 1887 O 181.1 3.46627 -2.67921 0
M  V30 1888 C 182.601 4.29952 -1.07964 0
M  V30 1889 H 179.821 0.596094 -0.308079 0
M  V30 1890 H 182.365 1.43205 -1.45988 0
M  V30 1891 H 180.52 3.805 -0.727912 0
M  V30 1892 H 180.934 4.39579 -2.8613 0
M  V30 1893 H 182.408 5.33159 -1.42986 0
M  V30 1894 H 182.885 4.39196 -0.0176577 0
M  V30 1895 H 183.491 3.93036 -1.62489 0
M  V30 1896 N 181.806 0.884767 1.30421 0
M  V30 1897 C 182.753 0.349642 2.28136 0
M  V30 1898 C 183.723 -0.560061 1.56373 0
M  V30 1899 O 184.908 -0.488524 1.8444 0
M  V30 1900 C 182.048 -0.42999 3.42411 0
M  V30 1901 C 181.161 0.508907 4.28992 0
M  V30 1902 C 180.296 -0.286301 5.30428 0
M  V30 1903 C 179.335 0.648079 6.08659 0
M  V30 1904 N 178.472 -0.111792 7.02011 0
M  V30 1905 H 183.312 1.18807 2.73293 0
M  V30 1906 H 180.849 0.597231 1.3443 0
M  V30 1907 H 182.807 -0.897923 4.07423 0
M  V30 1908 H 181.437 -1.23299 2.98324 0
M  V30 1909 H 180.489 1.09533 3.64289 0
M  V30 1910 H 181.801 1.22475 4.8353 0
M  V30 1911 H 180.955 -0.816098 6.01186 0
M  V30 1912 H 179.694 -1.03536 4.76583 0
M  V30 1913 H 178.699 1.18951 5.36778 0
M  V30 1914 H 179.924 1.39623 6.64592 0
M  V30 1915 H 177.87 -0.843395 6.50556 0
M  V30 1916 H 177.787 0.544429 7.54037 0
M  V30 1917 H 179.055 -0.622339 7.77012 0
M  V30 1918 N 183.284 -1.43765 0.645699 0
M  V30 1919 C 184.214 -2.33471 -0.0370477 0
M  V30 1920 C 185.195 -1.49042 -0.819779 0
M  V30 1921 O 186.38 -1.77726 -0.782758 0
M  V30 1922 C 183.51 -3.32311 -1.0093 0
M  V30 1923 C 182.464 -4.2667 -0.337201 0
M  V30 1924 C 181.79 -5.1549 -1.42037 0
M  V30 1925 C 183.09 -5.16657 0.765706 0
M  V30 1926 H 184.784 -2.90809 0.712069 0
M  V30 1927 H 182.33 -1.39834 0.343876 0
M  V30 1928 H 184.283 -3.9396 -1.49578 0
M  V30 1929 H 183.007 -2.73213 -1.78948 0
M  V30 1930 H 181.666 -3.66374 0.128771 0
M  V30 1931 H 181.314 -4.52735 -2.1918 0
M  V30 1932 H 181.014 -5.79438 -0.975966 0
M  V30 1933 H 182.538 -5.80012 -1.90838 0
M  V30 1934 H 183.952 -5.72158 0.361702 0
M  V30 1935 H 182.349 -5.89286 1.13413 0
M  V30 1936 H 183.419 -4.56796 1.62683 0
M  V30 1937 N 184.763 -0.387143 -1.52771 0
M  V30 1938 C 185.673 0.456442 -2.30117 0
M  V30 1939 C 186.689 1.07342 -1.36944 0
M  V30 1940 O 187.865 1.07971 -1.70013 0
M  V30 1941 C 184.93 1.56957 -3.09136 0
M  V30 1942 C 183.991 0.977916 -4.18014 0
M  V30 1943 C 183.224 2.038 -4.93256 0
M  V30 1944 O 183.447 3.25271 -4.68567 0
M  V30 1945 O 182.381 1.6565 -5.78657 0
M  V30 1946 H 186.207 -0.17359 -3.03203 0
M  V30 1947 H 183.792 -0.150919 -1.48636 0
M  V30 1948 H 185.674 2.21628 -3.58412 0
M  V30 1949 H 184.349 2.18461 -2.38865 0
M  V30 1950 H 183.256 0.294525 -3.72939 0
M  V30 1951 H 184.589 0.407128 -4.90513 0
M  V30 1952 N 186.241 1.57166 -0.116904 0
M  V30 1953 C 187.173 2.12271 0.864507 0
M  V30 1954 C 188.186 1.06494 1.23138 0
M  V30 1955 O 189.375 1.33873 1.18069 0
M  V30 1956 C 186.475 2.60564 2.16702 0
M  V30 1957 C 185.648 3.90416 1.97216 0
M  V30 1958 C 184.707 4.24329 3.11178 0
M  V30 1959 O 183.733 4.93182 2.84184 0
M  V30 1960 N 184.935 3.8148 4.37554 0
M  V30 1961 H 187.7 2.97102 0.393726 0
M  V30 1962 H 185.261 1.61759 0.0675805 0
M  V30 1963 H 187.253 2.80282 2.91932 0
M  V30 1964 H 185.823 1.80623 2.55135 0
M  V30 1965 H 185.043 3.79627 1.06192 0
M  V30 1966 H 186.331 4.75327 1.81499 0
M  V30 1967 H 185.729 3.25943 4.62361 0
M  V30 1968 H 184.286 4.06311 5.09661 0
M  V30 1969 N 187.719 -0.156864 1.56817 0
M  V30 1970 C 188.666 -1.19394 1.97519 0
M  V30 1971 C 189.636 -1.4322 0.841265 0
M  V30 1972 O 190.821 -1.55719 1.10255 0
M  V30 1973 C 187.961 -2.52483 2.35258 0
M  V30 1974 C 187.074 -2.35914 3.61896 0
M  V30 1975 C 186.209 -3.61969 3.88782 0
M  V30 1976 C 185.248 -3.40395 5.08722 0
M  V30 1977 N 184.385 -4.58556 5.31668 0
M  V30 1978 H 189.225 -0.839845 2.85921 0
M  V30 1979 H 186.762 -0.403264 1.41464 0
M  V30 1980 H 188.72 -3.30071 2.55165 0
M  V30 1981 H 187.35 -2.85859 1.49949 0
M  V30 1982 H 186.402 -1.49429 3.49821 0
M  V30 1983 H 187.714 -2.15926 4.49641 0
M  V30 1984 H 186.868 -4.47989 4.09135 0
M  V30 1985 H 185.607 -3.84951 2.9944 0
M  V30 1986 H 184.612 -2.52763 4.88253 0
M  V30 1987 H 185.837 -3.18822 5.99608 0
M  V30 1988 H 183.783 -4.81729 4.45279 0
M  V30 1989 H 183.7 -4.41535 6.13664 0
M  V30 1990 H 184.968 -5.45817 5.5651 0
M  V30 1991 N 189.197 -1.51736 -0.425897 0
M  V30 1992 C 190.144 -1.73875 -1.51776 0
M  V30 1993 C 191.114 -0.580702 -1.55618 0
M  V30 1994 O 192.299 -0.81641 -1.72451 0
M  V30 1995 C 189.439 -1.88012 -2.89388 0
M  V30 1996 C 188.552 -3.15606 -2.94986 0
M  V30 1997 C 187.687 -3.20271 -4.23793 0
M  V30 1998 C 186.726 -4.42134 -4.23302 0
M  V30 1999 N 185.863 -4.44284 -5.43651 0
M  V30 2000 H 190.703 -2.67071 -1.32201 0
M  V30 2001 H 188.24 -1.32351 -0.642008 0
M  V30 2002 H 190.198 -1.9419 -3.69251 0
M  V30 2003 H 188.828 -0.98213 -3.07496 0
M  V30 2004 H 187.88 -3.18681 -2.07717 0
M  V30 2005 H 189.192 -4.05486 -2.90486 0
M  V30 2006 H 188.346 -3.25428 -5.12036 0
M  V30 2007 H 187.085 -2.28299 -4.30965 0
M  V30 2008 H 186.09 -4.3714 -3.3345 0
M  V30 2009 H 187.315 -5.35382 -4.17783 0
M  V30 2010 H 185.261 -3.55188 -5.51523 0
M  V30 2011 H 185.178 -5.27988 -5.41078 0
M  V30 2012 H 186.446 -4.53649 -6.33895 0
M  V30 2013 N 190.675 0.682077 -1.42076 0
M  V30 2014 C 191.623 1.81707 -1.45208 0
M  V30 2015 C 192.617 1.66183 -0.328591 0
M  V30 2016 O 193.823 1.7288 -0.501264 0
M  V30 2017 H 190.198 0.599014 -0.454628 0
M  V30 2018 H 192.169 1.76183 -2.40836 0
M  V30 2019 C 190.918 3.19816 -1.36428 0
M  V30 2020 H 190.241 3.32385 -2.22171 0
M  V30 2021 H 191.681 3.99272 -1.42681 0
M  V30 2022 C 190.14 3.36809 -0.078191 0
M  V30 2023 O 190.67 3.92124 0.87188 0
M  V30 2024 N 188.876 2.906 0.00229266 0
M  V30 2025 H 188.423 2.45772 -0.771616 0
M  V30 2026 H 188.381 3.02347 0.862179 0
M  V30 2027 N 192.153 1.28127 0.917671 0
M  V30 2028 C 193.564 1.13622 1.48145 0
M  V30 2029 C 193.915 -0.275207 1.9426 0
M  V30 2030 O 193.04 -1.1691 1.82102 0
M  V30 2031 C 193.635 2.05648 2.69248 0
M  V30 2032 C 192.194 1.95219 3.21818 0
M  V30 2033 C 191.341 1.97618 1.94532 0
M  V30 2034 H 194.292 1.40874 0.730772 0
M  V30 2035 H 194.313 1.61818 3.44377 0
M  V30 2036 H 193.825 3.08365 2.35653 0
M  V30 2037 H 191.926 0.955244 3.60147 0
M  V30 2038 H 192.039 2.81976 3.87333 0
M  V30 2039 H 190.403 1.41973 2.11461 0
M  V30 2040 H 191.186 3.02007 1.63238 0
M  V30 2041 N 193.631 -1.12557 1.10312 0
M  V30 2042 C 194.563 -2.17971 0.708625 0
M  V30 2043 C 195.576 -1.60806 -0.254027 0
M  V30 2044 O 196.765 -1.78458 -0.0386891 0
M  V30 2045 C 193.865 -3.38891 0.0248198 0
M  V30 2046 C 193.038 -4.25548 1.01132 0
M  V30 2047 C 192.097 -5.24972 0.35924 0
M  V30 2048 O 191.123 -5.60174 1.00965 0
M  V30 2049 N 192.325 -5.73747 -0.882847 0
M  V30 2050 H 195.09 -2.52427 1.61557 0
M  V30 2051 H 192.651 -1.27967 0.991771 0
M  V30 2052 H 194.643 -4.02485 -0.422852 0
M  V30 2053 H 193.213 -3.02596 -0.784514 0
M  V30 2054 H 192.433 -3.58589 1.6373 0
M  V30 2055 H 193.721 -4.80294 1.67914 0
M  V30 2056 H 193.119 -5.4731 -1.43065 0
M  V30 2057 H 191.676 -6.39234 -1.27369 0
M  V30 2058 N 195.109 -0.891671 -1.2995 0
M  V30 2059 C 196.072 -0.36828 -2.26222 0
M  V30 2060 C 197.072 0.493014 -1.53056 0
M  V30 2061 O 198.262 0.299213 -1.71611 0
M  V30 2062 C 195.394 0.47442 -3.37583 0
M  V30 2063 H 196.587 -1.21844 -2.74033 0
M  V30 2064 H 194.14 -0.669107 -1.41254 0
M  V30 2065 H 194.875 1.34489 -2.95099 0
M  V30 2066 H 194.66 -0.142615 -3.91841 0
M  V30 2067 H 196.15 0.83218 -4.09224 0
M  V30 2068 N 196.587 1.43421 -0.653314 0
M  V30 2069 C 197.833 2.02111 -0.166992 0
M  V30 2070 C 198.166 1.51423 1.21592 0
M  V30 2071 O 197.441 0.707389 1.8118 0
M  V30 2072 C 197.724 3.5966 -0.177948 0
M  V30 2073 C 197.577 4.20579 -1.59478 0
M  V30 2074 C 198.896 4.37413 0.4856 0
M  V30 2075 H 196.015 0.734374 -0.0621557 0
M  V30 2076 H 198.657 1.70717 -0.834016 0
M  V30 2077 H 196.807 3.86537 0.390032 0
M  V30 2078 H 198.479 4.04732 -2.21336 0
M  V30 2079 H 196.722 3.77226 -2.14204 0
M  V30 2080 H 197.393 5.29665 -1.5543 0
M  V30 2081 H 199.869 4.161 0.00234528 0
M  V30 2082 H 198.745 5.47075 0.447207 0
M  V30 2083 H 199.006 4.13672 1.55974 0
M  V30 2084 N 198.065 0.39524 1.52563 0
M  V30 2085 C 198.995 -0.428384 2.29537 0
M  V30 2086 C 199.976 -1.05831 1.33169 0
M  V30 2087 O 201.161 -1.06995 1.62067 0
M  V30 2088 C 198.291 -1.55274 3.10656 0
M  V30 2089 C 197.245 -1.04855 4.14957 0
M  V30 2090 C 196.571 -2.26543 4.84337 0
M  V30 2091 C 197.871 -0.112324 5.22179 0
M  V30 2092 H 199.565 0.213867 2.98635 0
M  V30 2093 H 197.111 0.104298 1.43622 0
M  V30 2094 H 199.064 -2.1358 3.63265 0
M  V30 2095 H 197.788 -2.22266 2.39302 0
M  V30 2096 H 196.447 -0.487985 3.63338 0
M  V30 2097 H 196.095 -2.92059 4.09525 0
M  V30 2098 H 195.795 -1.93466 5.54837 0
M  V30 2099 H 197.319 -2.85481 5.39753 0
M  V30 2100 H 198.733 -0.603752 5.70112 0
M  V30 2101 H 197.13 0.128968 5.99961 0
M  V30 2102 H 198.2 0.837052 4.77621 0
M  V30 2103 N 199.544 -1.57102 0.125237 0
M  V30 2104 C 200.821 -1.86953 -0.575142 0
M  V30 2105 C 201.201 -1.02749 -1.84407 0
M  V30 2106 O 200.549 -0.108144 -2.28244 0
M  V30 2107 C 200.759 -3.38198 -0.861583 0
M  V30 2108 C 202.107 -4.06937 -1.21192 0
M  V30 2109 O 203.131 -3.43252 -0.951645 0
M  V30 2110 O 201.99 -5.19364 -1.70068 0
M  V30 2111 H 199.084 -0.774147 -0.290906 0
M  V30 2112 H 201.63 -1.68942 0.160211 0
M  V30 2113 H 200.402 -3.91282 0.0373647 0
M  V30 2114 H 200.025 -3.61661 -1.65188 0
M  V30 2115 N 201.022 0.148545 -1.56898 0
M  V30 2116 C 202.268 0.862694 -1.83536 0
M  V30 2117 C 202.601 1.80889 -0.706604 0
M  V30 2118 O 201.876 1.92328 0.289885 0
M  V30 2119 C 202.159 1.63853 -3.20662 0
M  V30 2120 C 202.012 0.713925 -4.44098 0
M  V30 2121 C 203.331 2.60133 -3.54991 0
M  V30 2122 H 200.45 0.312179 -0.667618 0
M  V30 2123 H 203.092 0.127953 -1.89569 0
M  V30 2124 H 201.242 2.26489 -3.1565 0
M  V30 2125 H 202.914 0.098686 -4.61194 0
M  V30 2126 H 201.157 0.0234019 -4.33794 0
M  V30 2127 H 201.828 1.29278 -5.36648 0
M  V30 2128 H 204.304 2.07616 -3.60603 0
M  V30 2129 H 203.18 3.11468 -4.51972 0
M  V30 2130 H 203.441 3.41417 -2.80868 0
M  V30 2131 N 202.5 1.5196 0.417844 0
M  V30 2132 C 203.43 1.77634 1.51554 0
M  V30 2133 C 204.411 0.626918 1.58126 0
M  V30 2134 O 205.596 0.871632 1.7354 0
M  V30 2135 C 202.726 1.91911 2.8946 0
M  V30 2136 C 201.68 3.07463 2.97743 0
M  V30 2137 C 201.006 3.06951 4.37819 0
M  V30 2138 C 202.306 4.47082 2.70027 0
M  V30 2139 H 204 2.6955 1.3032 0
M  V30 2140 H 201.546 1.29706 0.625492 0
M  V30 2141 H 203.499 2.08455 3.6623 0
M  V30 2142 H 202.223 0.966598 3.11969 0
M  V30 2143 H 200.882 2.90656 2.23416 0
M  V30 2144 H 200.53 2.09438 4.57323 0
M  V30 2145 H 200.23 3.84556 4.44286 0
M  V30 2146 H 201.754 3.25613 5.16535 0
M  V30 2147 H 203.168 4.6414 3.36522 0
M  V30 2148 H 201.565 5.2654 2.87881 0
M  V30 2149 H 202.635 4.55777 1.65514 0
M  V30 2150 N 203.978 -0.674533 1.42435 0
M  V30 2151 C 204.925 -1.78807 1.45934 0
M  V30 2152 C 205.895 -1.63157 0.311271 0
M  V30 2153 O 207.08 -1.83707 0.515383 0
M  V30 2154 C 204.22 -3.16839 1.36773 0
M  V30 2155 C 203.333 -3.43774 2.61617 0
M  V30 2156 C 202.468 -4.71536 2.44597 0
M  V30 2157 C 201.507 -4.91505 3.64814 0
M  V30 2158 N 200.644 -6.10508 3.46734 0
M  V30 2159 H 205.484 -1.75151 2.41093 0
M  V30 2160 H 203.021 -0.85504 1.19697 0
M  V30 2161 H 204.979 -3.96606 1.29459 0
M  V30 2162 H 203.609 -3.19619 0.452089 0
M  V30 2163 H 202.661 -2.58259 2.79297 0
M  V30 2164 H 203.973 -3.54423 3.50978 0
M  V30 2165 H 203.127 -5.59393 2.3487 0
M  V30 2166 H 201.866 -4.6317 1.52726 0
M  V30 2167 H 200.871 -4.0209 3.74972 0
M  V30 2168 H 202.096 -5.01716 4.57665 0
M  V30 2169 H 200.042 -6.03315 2.5758 0
M  V30 2170 H 199.959 -6.2202 4.29682 0
M  V30 2171 H 201.227 -7.01044 3.40819 0
M  V30 2172 N 205.456 -1.28612 -0.910864 0
M  V30 2173 C 206.703 -1.15934 -1.66029 0
M  V30 2174 C 207.031 0.291483 -1.92303 0
M  V30 2175 O 206.286 1.22816 -1.52364 0
M  V30 2176 C 206.585 -1.90624 -3.0232 0
M  V30 2177 C 206.251 -3.40405 -2.95695 0
M  V30 2178 C 204.913 -3.81255 -2.93595 0
M  V30 2179 C 207.265 -4.359 -2.85728 0
M  V30 2180 C 204.593 -5.15936 -2.79334 0
M  V30 2181 C 206.945 -5.70657 -2.73007 0
M  V30 2182 C 205.609 -6.10779 -2.69267 0
M  V30 2183 H 204.879 -0.424234 -0.607541 0
M  V30 2184 H 207.526 -1.5942 -1.06101 0
M  V30 2185 H 205.831 -1.39696 -3.6605 0
M  V30 2186 H 207.528 -1.78228 -3.59215 0
M  V30 2187 H 204.118 -3.07927 -2.98125 0
M  V30 2188 H 208.302 -4.053 -2.86436 0
M  V30 2189 H 203.558 -5.46146 -2.74835 0
M  V30 2190 H 207.732 -6.44311 -2.64264 0
M  V30 2191 H 205.359 -7.1509 -2.57974 0
M  V30 2192 N 206.934 1.1197 -1.10907 0
M  V30 2193 C 208.164 1.8713 -0.875553 0
M  V30 2194 C 208.572 1.8016 0.577843 0
M  V30 2195 O 207.915 1.17699 1.41042 0
M  V30 2196 C 207.977 3.37005 -1.2517 0
M  V30 2197 C 207.641 3.67748 -2.71313 0
M  V30 2198 C 208.638 3.65698 -3.69542 0
M  V30 2199 C 206.323 3.96928 -3.07821 0
M  V30 2200 C 208.317 3.92395 -5.023 0
M  V30 2201 C 206.004 4.23284 -4.40765 0
M  V30 2202 C 207.002 4.21005 -5.37814 0
M  V30 2203 O 206.69 4.46704 -6.68364 0
M  V30 2204 H 206.422 0.598786 -0.313737 0
M  V30 2205 H 208.976 1.42568 -1.47863 0
M  V30 2206 H 207.206 3.82146 -0.591741 0
M  V30 2207 H 208.895 3.93519 -0.994877 0
M  V30 2208 H 209.661 3.43211 -3.42682 0
M  V30 2209 H 205.54 3.97841 -2.32902 0
M  V30 2210 H 209.084 3.90531 -5.78041 0
M  V30 2211 H 204.981 4.45246 -4.67361 0
M  V30 2212 H 205.749 4.64299 -6.74069 0
M  V30 2213 N 208.412 0.89855 1.29475 0
M  V30 2214 C 209.689 0.443416 1.90508 0
M  V30 2215 C 210.069 -1.07685 1.81569 0
M  V30 2216 O 209.417 -1.9182 1.24166 0
M  V30 2217 C 209.627 0.956708 3.35631 0
M  V30 2218 C 210.975 0.999728 4.12663 0
M  V30 2219 O 211.999 0.904299 3.4453 0
M  V30 2220 O 210.858 1.14289 5.34416 0
M  V30 2221 H 207.952 0.138025 0.815401 0
M  V30 2222 H 210.498 0.98834 1.37949 0
M  V30 2223 H 209.27 2.00067 3.36287 0
M  V30 2224 H 208.893 0.391728 3.95666 0
M  V30 2225 N 209.89 -1.43072 0.660911 0
M  V30 2226 C 211.115 -2.06584 0.183805 0
M  V30 2227 C 211.54 -1.49257 -1.14472 0
M  V30 2228 O 210.898 -0.605528 -1.70889 0
M  V30 2229 C 210.946 -3.60418 0.114434 0
M  V30 2230 O 210.05 -4.01981 -0.921137 0
M  V30 2231 H 209.391 -0.656669 0.0983994 0
M  V30 2232 H 211.921 -1.83447 0.906006 0
M  V30 2233 H 211.931 -4.07946 -0.0663394 0
M  V30 2234 H 210.606 -4.01519 1.08422 0
M  V30 2235 H 209.183 -3.66029 -0.71253 0
M  V30 2236 N 211.368 -0.403325 -1.52352 0
M  V30 2237 C 212.315 0.425011 -2.26853 0
M  V30 2238 C 213.285 1.04598 -1.29029 0
M  V30 2239 O 214.47 1.07135 -1.57882 0
M  V30 2240 C 211.61 1.53888 -3.08889 0
M  V30 2241 C 210.723 0.939396 -4.21663 0
M  V30 2242 C 209.858 2.02547 -4.91068 0
M  V30 2243 C 208.897 1.40263 -5.95813 0
M  V30 2244 N 208.034 2.4286 -6.58759 0
M  V30 2245 H 212.874 -0.21674 -2.97211 0
M  V30 2246 H 210.411 -0.118722 -1.4662 0
M  V30 2247 H 212.369 2.19558 -3.54753 0
M  V30 2248 H 210.999 2.15074 -2.40714 0
M  V30 2249 H 210.051 0.171898 -3.80011 0
M  V30 2250 H 211.363 0.44436 -4.96817 0
M  V30 2251 H 210.517 2.75958 -5.40308 0
M  V30 2252 H 209.256 2.55415 -4.15469 0
M  V30 2253 H 208.261 0.653833 -5.45898 0
M  V30 2254 H 209.486 0.881719 -6.73352 0
M  V30 2255 H 207.432 2.94871 -5.85992 0
M  V30 2256 H 207.349 1.98152 -7.2957 0
M  V30 2257 H 208.617 3.15858 -7.12639 0
M  V30 2258 N 212.846 1.57033 -0.133567 0
M  V30 2259 C 213.756 2.19632 0.824564 0
M  V30 2260 C 214.772 1.17666 1.28182 0
M  V30 2261 O 215.948 1.50193 1.3418 0
M  V30 2262 C 213.013 2.79499 2.05137 0
M  V30 2263 C 212.074 3.96548 1.64464 0
M  V30 2264 C 211.307 4.5355 2.81297 0
M  V30 2265 O 211.53 4.09438 3.97136 0
M  V30 2266 O 210.464 5.44018 2.57542 0
M  V30 2267 H 214.29 3.01991 0.321766 0
M  V30 2268 H 211.875 1.49112 0.0927889 0
M  V30 2269 H 213.757 3.17602 2.7696 0
M  V30 2270 H 212.432 2.00162 2.54395 0
M  V30 2271 H 211.339 3.63186 0.897048 0
M  V30 2272 H 212.672 4.77364 1.19934 0
M  V30 2273 N 214.325 -0.140222 1.56975 0
M  V30 2274 C 215.553 -0.866437 1.87884 0
M  V30 2275 C 215.968 -1.74428 0.722517 0
M  V30 2276 O 215.325 -1.79891 -0.30749 0
M  V30 2277 C 215.376 -1.71753 3.18093 0
M  V30 2278 O 215.097 -0.875056 4.29272 0
M  V30 2279 C 216.598 -2.55074 3.62563 0
M  V30 2280 H 213.818 -0.25019 0.622612 0
M  V30 2281 H 216.362 -0.130977 2.0408 0
M  V30 2282 H 214.517 -2.40598 3.03631 0
M  V30 2283 H 214.931 -1.46002 5.03769 0
M  V30 2284 H 216.405 -3.10356 4.5649 0
M  V30 2285 H 216.882 -3.31434 2.88181 0
M  V30 2286 H 217.488 -1.91509 3.79743 0
M  V30 2287 N 215.803 -1.52179 -0.40978 0
M  V30 2288 C 217.049 -1.66453 -1.15851 0
M  V30 2289 C 217.382 -0.392972 -1.90182 0
M  V30 2290 O 216.657 0.608579 -1.84734 0
M  V30 2291 C 216.94 -2.88612 -2.15349 0
M  V30 2292 C 216.793 -4.25815 -1.44918 0
M  V30 2293 C 218.112 -3.06294 -3.16026 0
M  V30 2294 H 215.231 -0.60575 -0.419805 0
M  V30 2295 H 217.873 -1.84732 -0.444314 0
M  V30 2296 H 216.023 -2.73158 -2.76255 0
M  V30 2297 H 217.695 -4.52995 -0.871365 0
M  V30 2298 H 215.938 -4.27247 -0.751159 0
M  V30 2299 H 216.609 -5.07337 -2.17516 0
M  V30 2300 H 219.085 -3.20641 -2.65195 0
M  V30 2301 H 217.961 -3.93283 -3.8291 0
M  V30 2302 H 218.222 -2.19579 -3.83715 0
M  V30 2303 N 217.281 0.66697 -1.42791 0
M  V30 2304 C 218.229 1.80157 -1.47127 0
M  V30 2305 C 219.223 1.65825 -0.346199 0
M  V30 2306 O 220.429 1.72338 -0.519572 0
M  V30 2307 H 216.804 0.594158 -0.460956 0
M  V30 2308 H 218.775 1.73619 -2.42692 0
M  V30 2309 C 217.524 3.18351 -1.39813 0
M  V30 2310 H 216.847 3.3001 -2.25684 0
M  V30 2311 H 218.287 3.97736 -1.46908 0
M  V30 2312 C 216.746 3.36707 -0.11391 0
M  V30 2313 O 217.276 3.93027 0.830241 0
M  V30 2314 N 215.482 2.90586 -0.0285295 0
M  V30 2315 H 215.029 2.4494 -0.79764 0
M  V30 2316 H 214.987 3.03245 0.830063 0
M  V30 2317 N 218.759 1.29093 0.90403 0
M  V30 2318 C 219.707 1.13727 2.02901 0
M  V30 2319 C 220.701 0.0539853 1.69314 0
M  V30 2320 O 221.907 0.213469 1.7873 0
M  V30 2321 H 218.282 0.35117 0.664969 0
M  V30 2322 H 220.253 2.08982 2.13001 0
M  V30 2323 C 219.002 0.826066 3.37745 0
M  V30 2324 H 218.325 1.65164 3.64089 0
M  V30 2325 H 219.765 0.758559 4.17159 0
M  V30 2326 C 218.224 -0.470541 3.33598 0
M  V30 2327 O 218.754 -1.49792 3.72727 0
M  V30 2328 N 216.96 -0.474812 2.86695 0
M  V30 2329 H 216.507 0.361692 2.55048 0
M  V30 2330 H 216.465 -1.34236 2.84303 0
M  V30 2331 N 220.237 -1.11381 1.11499 0
M  V30 2332 C 221.169 -2.17207 0.731704 0
M  V30 2333 C 222.182 -1.61066 -0.236957 0
M  V30 2334 O 223.371 -1.78489 -0.0197591 0
M  V30 2335 C 220.471 -3.38846 0.0607624 0
M  V30 2336 C 219.644 -4.24451 1.0564 0
M  V30 2337 C 218.703 -5.24562 0.4149 0
M  V30 2338 O 217.729 -5.59071 1.069 0
M  V30 2339 N 218.931 -5.74651 -0.821943 0
M  V30 2340 H 221.696 -2.50699 1.64225 0
M  V30 2341 H 219.257 -1.26908 1.00529 0
M  V30 2342 H 221.249 -4.02911 -0.380139 0
M  V30 2343 H 219.819 -3.03411 -0.752376 0
M  V30 2344 H 219.039 -3.56833 1.67524 0
M  V30 2345 H 220.327 -4.78486 1.72998 0
M  V30 2346 H 219.725 -5.48797 -1.37252 0
M  V30 2347 H 218.282 -6.40549 -1.20582 0
M  V30 2348 N 221.715 -0.905404 -1.28997 0
M  V30 2349 C 222.662 -0.385892 -2.27551 0
M  V30 2350 C 223.632 0.535113 -1.57244 0
M  V30 2351 O 224.817 0.459119 -1.85194 0
M  V30 2352 C 221.957 0.375461 -3.43051 0
M  V30 2353 C 221.07 -0.577092 -4.28128 0
M  V30 2354 C 220.205 0.201879 -5.30816 0
M  V30 2355 C 219.244 -0.744829 -6.07551 0
M  V30 2356 N 218.381 9.42587e-05 -7.021 0
M  V30 2357 H 223.221 -1.23139 -2.71368 0
M  V30 2358 H 220.758 -0.618542 -1.33463 0
M  V30 2359 H 222.716 0.832992 -4.088 0
M  V30 2360 H 221.346 1.18537 -3.00248 0
M  V30 2361 H 220.398 -1.15315 -3.62501 0
M  V30 2362 H 221.71 -1.30152 -4.8152 0
M  V30 2363 H 220.864 0.720351 -6.02408 0
M  V30 2364 H 219.603 0.959413 -4.7817 0
M  V30 2365 H 218.608 -1.27475 -5.34818 0
M  V30 2366 H 219.833 -1.50178 -6.62286 0
M  V30 2367 H 217.779 0.739791 -6.51815 0
M  V30 2368 H 217.696 -0.664321 -7.53076 0
M  V30 2369 H 218.964 0.498644 -7.77903 0
M  V30 2370 N 223.193 1.4272 -0.668489 0
M  V30 2371 C 224.423 2.05668 -0.196063 0
M  V30 2372 C 224.831 1.5028 1.14946 0
M  V30 2373 O 224.174 0.6348 1.72383 0
M  V30 2374 C 224.236 3.59469 -0.0468879 0
M  V30 2375 C 223.9 4.37518 -1.32012 0
M  V30 2376 C 224.897 4.68584 -2.25222 0
M  V30 2377 C 222.582 4.77266 -1.56596 0
M  V30 2378 C 224.576 5.38326 -3.41297 0
M  V30 2379 C 222.263 5.4675 -2.72962 0
M  V30 2380 C 223.261 5.77204 -3.65137 0
M  V30 2381 O 222.949 6.45264 -4.79468 0
M  V30 2382 H 222.681 0.669382 -0.0943599 0
M  V30 2383 H 225.235 1.83954 -0.913788 0
M  V30 2384 H 223.465 3.79817 0.726357 0
M  V30 2385 H 225.154 4.04071 0.384852 0
M  V30 2386 H 225.92 4.38382 -2.07477 0
M  V30 2387 H 221.799 4.52959 -0.857249 0
M  V30 2388 H 225.343 5.62014 -4.13263 0
M  V30 2389 H 221.24 5.76369 -2.90635 0
M  V30 2390 H 222.008 6.63753 -4.78931 0
M  V30 2391 N 224.671 0.411399 1.52136 0
M  V30 2392 C 225.604 -0.457614 2.23565 0
M  V30 2393 C 226.582 -1.04613 1.24478 0
M  V30 2394 O 227.766 -1.09356 1.53536 0
M  V30 2395 C 224.893 -1.6354 2.96602 0
M  V30 2396 C 223.939 -1.17005 4.10137 0
M  V30 2397 S 224.772 -0.13333 5.35334 0
M  V30 2398 C 225.928 -1.31638 6.119 0
M  V30 2399 H 226.161 0.148883 2.96927 0
M  V30 2400 H 223.694 0.195713 1.53155 0
M  V30 2401 H 225.652 -2.31074 3.39286 0
M  V30 2402 H 224.313 -2.21324 2.22878 0
M  V30 2403 H 223.506 -2.05005 4.60422 0
M  V30 2404 H 223.108 -0.573319 3.6958 0
M  V30 2405 H 225.4 -2.23957 6.39413 0
M  V30 2406 H 226.343 -0.854014 7.02931 0
M  V30 2407 H 226.751 -1.54321 5.42997 0
M  V30 2408 N 226.149 -1.5696 0.141893 0
M  V30 2409 C 227.374 -2.00754 -0.520838 0
M  V30 2410 C 227.799 -1.0213 -1.57959 0
M  V30 2411 O 227.157 0.00371324 -1.813 0
M  V30 2412 C 227.205 -3.43318 -1.10294 0
M  V30 2413 O 226.309 -3.47679 -2.21795 0
M  V30 2414 H 225.65 -0.651564 -0.127908 0
M  V30 2415 H 228.18 -2.03221 0.23712 0
M  V30 2416 H 228.19 -3.82012 -1.43287 0
M  V30 2417 H 226.865 -4.14608 -0.327574 0
M  V30 2418 H 225.442 -3.20824 -1.9007 0
M  V30 2419 N 227.627 0.131896 -1.57047 0
M  V30 2420 C 228.874 0.841932 -1.84168 0
M  V30 2421 C 229.202 1.8048 -0.725066 0
M  V30 2422 O 228.457 1.93618 0.284692 0
M  V30 2423 C 228.756 1.63703 -3.17704 0
M  V30 2424 C 228.422 0.81961 -4.43388 0
M  V30 2425 C 227.084 0.594148 -4.77518 0
M  V30 2426 C 229.436 0.248977 -5.20605 0
M  V30 2427 C 226.764 -0.212409 -5.86315 0
M  V30 2428 C 229.116 -0.544701 -6.30251 0
M  V30 2429 C 227.78 -0.780599 -6.6292 0
M  V30 2430 H 227.05 0.308085 -0.673917 0
M  V30 2431 H 229.697 0.104867 -1.91213 0
M  V30 2432 H 228.002 2.44464 -3.06177 0
M  V30 2433 H 229.699 2.19015 -3.35907 0
M  V30 2434 H 226.289 1.00542 -4.16641 0
M  V30 2435 H 230.473 0.410408 -4.946 0
M  V30 2436 H 225.729 -0.404524 -6.1006 0
M  V30 2437 H 229.903 -0.993922 -6.89271 0
M  V30 2438 H 227.53 -1.40742 -7.47058 0
M  V30 2439 N 229.106 1.52395 0.401703 0
M  V30 2440 C 230.334 1.70676 1.16949 0
M  V30 2441 C 230.749 0.419503 1.8408 0
M  V30 2442 O 230.106 -0.605061 1.72178 0
M  V30 2443 C 230.157 2.84753 2.22706 0
M  V30 2444 O 229.878 4.08495 1.58314 0
M  V30 2445 C 231.379 3.14608 3.12309 0
M  V30 2446 H 228.599 0.571787 0.351142 0
M  V30 2447 H 231.143 1.98987 0.471652 0
M  V30 2448 H 229.298 2.58941 2.88147 0
M  V30 2449 H 229.712 4.72117 2.28485 0
M  V30 2450 H 231.186 3.97923 3.82572 0
M  V30 2451 H 231.663 2.28464 3.75101 0
M  V30 2452 H 232.269 3.42212 2.52529 0
M  V30 2453 N 230.584 -0.659388 1.43143 0
M  V30 2454 C 231.809 -1.45221 1.48073 0
M  V30 2455 C 232.234 -1.87845 0.097995 0
M  V30 2456 O 231.592 -1.56985 -0.90694 0
M  V30 2457 C 231.64 -2.66748 2.42647 0
M  V30 2458 O 230.744 -3.65583 1.90848 0
M  V30 2459 H 230.085 -0.435669 0.501088 0
M  V30 2460 H 232.615 -0.807432 1.87994 0
M  V30 2461 H 232.625 -3.14637 2.59745 0
M  V30 2462 H 231.3 -2.35067 3.43098 0
M  V30 2463 H 229.877 -3.24693 1.83381 0
M  V30 2464 N 232.062 -1.29571 -0.897171 0
M  V30 2465 C 233.31 -1.17456 -1.64464 0
M  V30 2466 C 233.631 0.273698 -1.9307 0
M  V30 2467 O 232.901 1.18684 -1.55855 0
M  V30 2468 H 231.481 -0.431706 -0.609622 0
M  V30 2469 H 234.143 -1.62531 -1.07562 0
M  V30 2470 H 233.239 -1.72648 -2.59998 0
M  V30 2471 N 233.54 1.10788 -1.12088 0
M  V30 2472 C 234.817 1.79136 -0.785476 0
M  V30 2473 C 235.197 1.98246 0.725377 0
M  V30 2474 O 234.545 1.57258 1.65778 0
M  V30 2475 C 234.755 3.12375 -1.55636 0
M  V30 2476 C 236.103 3.8731 -1.74001 0
M  V30 2477 O 237.127 3.22085 -1.52117 0
M  V30 2478 O 235.986 5.04369 -2.10415 0
M  V30 2479 H 233.08 0.776226 -0.285311 0
M  V30 2480 H 235.626 1.1747 -1.2247 0
M  V30 2481 H 234.398 2.93863 -2.5838 0
M  V30 2482 H 234.021 3.81758 -1.11114 0
M  V30 2483 N 235.018 0.912232 1.28515 0
M  V30 2484 C 235.965 0.397954 2.27343 0
M  V30 2485 C 236.935 -0.526766 1.57526 0
M  V30 2486 O 238.12 -0.449292 1.85435 0
M  V30 2487 C 235.26 -0.357263 3.43246 0
M  V30 2488 C 234.373 0.599788 4.27816 0
M  V30 2489 C 233.508 -0.173725 5.30916 0
M  V30 2490 C 232.547 0.777039 6.07148 0
M  V30 2491 N 231.684 0.0371398 7.0209 0
M  V30 2492 H 236.524 1.24577 2.70711 0
M  V30 2493 H 234.061 0.625612 1.33133 0
M  V30 2494 H 236.019 -0.8113 4.09236 0
M  V30 2495 H 234.649 -1.16943 3.00872 0
M  V30 2496 H 233.701 1.17235 3.61884 0
M  V30 2497 H 235.013 1.32704 4.80823 0
M  V30 2498 H 234.167 -0.688394 6.02782 0
M  V30 2499 H 232.906 -0.934041 4.78672 0
M  V30 2500 H 231.911 1.3031 5.34134 0
M  V30 2501 H 233.136 1.53689 6.61481 0
M  V30 2502 H 231.082 -0.705213 6.52198 0
M  V30 2503 H 230.999 0.704249 7.52713 0
M  V30 2504 H 232.267 -0.457383 7.78157 0
M  V30 2505 N 236.496 -1.42363 0.676048 0
M  V30 2506 C 237.721 -2.06377 0.205705 0
M  V30 2507 C 238.146 -1.50463 -1.12883 0
M  V30 2508 O 237.504 -0.623619 -1.70237 0
M  V30 2509 C 237.552 -3.60277 0.152655 0
M  V30 2510 O 236.656 -4.02935 -0.87845 0
M  V30 2511 H 235.997 -0.655588 0.105359 0
M  V30 2512 H 238.527 -1.82475 0.925412 0
M  V30 2513 H 238.537 -4.07993 -0.0230675 0
M  V30 2514 H 237.212 -4.00346 1.12675 0
M  V30 2515 H 235.789 -3.66764 -0.673668 0
M  V30 2516 N 237.974 -0.419461 -1.51915 0
M  V30 2517 C 238.937 0.389116 -2.25873 0
M  V30 2518 C 239.937 0.964924 -1.28631 0
M  V30 2519 O 241.127 0.842179 -1.52489 0
M  V30 2520 C 238.259 1.54874 -3.03689 0
M  V30 2521 H 239.452 -0.258799 -2.98781 0
M  V30 2522 H 237.005 -0.172209 -1.55348 0
M  V30 2523 H 237.74 2.23323 -2.35154 0
M  V30 2524 H 237.525 1.14223 -3.75094 0
M  V30 2525 H 239.015 2.12046 -3.59759 0
M  V30 2526 N 239.452 1.56882 -0.150215 0
M  V30 2527 C 240.402 2.13501 0.800071 0
M  V30 2528 C 241.386 1.06368 1.20726 0
M  V30 2529 O 242.578 1.32538 1.17314 0
M  V30 2530 C 239.707 2.76271 2.03787 0
M  V30 2531 C 238.793 3.90533 1.65364 0
M  V30 2532 N 239.184 4.96259 0.977794 0
M  V30 2533 C 237.482 4.013 1.94613 0
M  V30 2534 C 238.183 5.76286 0.791794 0
M  V30 2535 N 237.159 5.27163 1.32666 0
M  V30 2536 H 240.961 2.92615 0.274517 0
M  V30 2537 H 238.475 1.62319 0.0512144 0
M  V30 2538 H 240.472 3.15197 2.72867 0
M  V30 2539 H 239.132 1.98631 2.56857 0
M  V30 2540 H 240.143 5.13953 0.638193 0
M  V30 2541 H 236.82 3.3474 2.4951 0
M  V30 2542 H 238.21 6.71401 0.258894 0
M  V30 2543 N 240.93 -0.123565 1.57115 0
M  V30 2544 C 242.178 -0.83051 1.84247 0
M  V30 2545 C 242.499 -1.80629 0.73471 0
M  V30 2546 O 241.769 -1.94403 -0.241688 0
M  V30 2547 H 240.349 -0.309694 0.679778 0
M  V30 2548 H 243.011 -0.111976 1.94578 0
M  V30 2549 H 242.107 -1.37852 2.80006 0
M  V30 2550 N 242.408 -1.52605 -0.393616 0
M  V30 2551 C 243.638 -1.71046 -1.15874 0
M  V30 2552 C 244.046 -0.426483 -1.84331 0
M  V30 2553 O 243.389 0.608513 -1.73329 0
M  V30 2554 C 243.451 -2.80118 -2.25332 0
M  V30 2555 C 243.115 -4.21381 -1.76881 0
M  V30 2556 C 244.112 -5.04697 -1.24808 0
M  V30 2557 C 241.797 -4.67683 -1.83244 0
M  V30 2558 C 243.791 -6.32393 -0.797387 0
M  V30 2559 C 241.478 -5.95364 -1.37787 0
M  V30 2560 C 242.476 -6.77549 -0.861208 0
M  V30 2561 O 242.164 -8.02837 -0.413252 0
M  V30 2562 H 241.896 -0.576155 -0.353583 0
M  V30 2563 H 244.45 -2.00018 -0.467123 0
M  V30 2564 H 242.68 -2.46557 -2.97904 0
M  V30 2565 H 244.369 -2.87006 -2.87023 0
M  V30 2566 H 245.135 -4.70111 -1.19252 0
M  V30 2567 H 241.014 -4.03805 -2.22401 0
M  V30 2568 H 244.558 -6.9649 -0.393437 0
M  V30 2569 H 240.455 -6.29455 -1.43026 0
M  V30 2570 H 241.223 -8.16749 -0.53515 0
M  V30 2571 N 243.887 0.651787 -1.4349 0
M  V30 2572 C 245.136 1.40754 -1.44469 0
M  V30 2573 C 245.449 1.95463 -0.0731845 0
M  V30 2574 O 246.655 2.71471 0.0395721 0
M  V30 2575 C 245.111 2.54735 -2.5424 0
M  V30 2576 C 244.719 2.06628 -3.97504 0
M  V30 2577 C 246.463 3.32092 -2.64414 0
M  V30 2578 C 244.37 3.17829 -4.98737 0
M  V30 2579 H 243.3 0.528862 -0.53742 0
M  V30 2580 H 245.951 0.703365 -1.69485 0
M  V30 2581 H 244.333 3.2763 -2.22428 0
M  V30 2582 H 245.507 1.40734 -4.38783 0
M  V30 2583 H 243.822 1.42146 -3.91387 0
M  V30 2584 H 246.419 4.14952 -3.37223 0
M  V30 2585 H 246.762 3.80217 -1.69532 0
M  V30 2586 H 247.295 2.66279 -2.95534 0
M  V30 2587 H 244.034 2.74671 -5.95177 0
M  V30 2588 H 243.554 3.82429 -4.62069 0
M  V30 2589 H 245.233 3.82937 -5.21505 0
M  V30 2590 N 245.365 1.30045 0.890287 0
M  V30 2591 C 246.328 1.15963 1.977 0
M  V30 2592 C 247.328 0.0923777 1.60534 0
M  V30 2593 O 248.518 0.340071 1.70848 0
M  V30 2594 C 245.65 0.775451 3.31963 0
M  V30 2595 H 246.843 2.12502 2.11619 0
M  V30 2596 H 244.396 1.13366 1.07601 0
M  V30 2597 H 245.131 -0.189671 3.23745 0
M  V30 2598 H 244.916 1.54668 3.60306 0
M  V30 2599 H 246.406 0.700251 4.11687 0
M  V30 2600 N 246.843 -1.10192 1.12674 0
M  V30 2601 C 247.806 -2.14786 0.799979 0
M  V30 2602 C 248.806 -1.59711 -0.18685 0
M  V30 2603 O 249.996 -1.74156 0.0392558 0
M  V30 2604 C 247.128 -3.40374 0.189228 0
M  V30 2605 H 248.321 -2.45203 1.72671 0
M  V30 2606 H 245.874 -1.25597 0.930326 0
M  V30 2607 H 246.609 -3.15577 -0.747107 0
M  V30 2608 H 246.394 -3.81637 0.899766 0
M  V30 2609 H 247.884 -4.17594 -0.0228143 0
M  V30 2610 N 248.321 -0.919034 -1.28029 0
M  V30 2611 C 249.271 -0.382574 -2.24767 0
M  V30 2612 C 250.255 0.508286 -1.52661 0
M  V30 2613 O 251.447 0.347145 -1.73562 0
M  V30 2614 C 248.576 0.371432 -3.41285 0
M  V30 2615 C 247.662 -0.535449 -4.20706 0
M  V30 2616 N 248.053 -1.65141 -4.78082 0
M  V30 2617 C 246.351 -0.336824 -4.44726 0
M  V30 2618 C 247.052 -2.21475 -5.37888 0
M  V30 2619 N 246.028 -1.50537 -5.22341 0
M  V30 2620 H 249.83 -1.23477 -2.66703 0
M  V30 2621 H 247.344 -0.772299 -1.42861 0
M  V30 2622 H 249.341 0.772638 -4.09678 0
M  V30 2623 H 248.001 1.22066 -3.00882 0
M  V30 2624 H 249.012 -2.03392 -4.7629 0
M  V30 2625 H 245.689 0.47246 -4.14818 0
M  V30 2626 H 247.079 -3.15379 -5.93284 0
M  V30 2627 N 249.799 1.42003 -0.683588 0
M  V30 2628 C 251.21 1.84501 -0.285736 0
M  V30 2629 C 251.561 1.57213 1.17382 0
M  V30 2630 O 250.686 1.03642 1.89966 0
M  V30 2631 C 251.281 3.34912 -0.511821 0
M  V30 2632 C 249.84 3.76025 -0.168005 0
M  V30 2633 C 248.987 2.6551 -0.799983 0
M  V30 2634 H 251.938 1.31724 -0.885119 0
M  V30 2635 H 251.959 3.79784 0.233292 0
M  V30 2636 H 251.471 3.54741 -1.57418 0
M  V30 2637 H 249.572 3.61801 0.890567 0
M  V30 2638 H 249.685 4.75141 -0.614661 0
M  V30 2639 H 248.049 2.53654 -0.230568 0
M  V30 2640 H 248.832 2.8816 -1.86597 0
M  V30 2641 N 251.277 0.427512 1.51691 0
M  V30 2642 C 252.502 -0.143601 2.06902 0
M  V30 2643 C 252.927 -1.36536 1.29382 0
M  V30 2644 O 252.285 -1.78289 0.329043 0
M  V30 2645 C 252.333 -0.454207 3.57728 0
M  V30 2646 O 251.437 -1.54228 3.82475 0
M  V30 2647 H 250.778 -0.00617128 0.663971 0
M  V30 2648 H 253.308 0.606014 1.95419 0
M  V30 2649 H 253.318 -0.707525 4.01818 0
M  V30 2650 H 251.993 0.438812 4.13579 0
M  V30 2651 H 250.57 -1.2797 3.50254 0
M  V30 2652 N 252.755 -1.56801 0.158532 0
M  V30 2653 C 253.98 -2.01295 -0.499516 0
M  V30 2654 C 254.405 -1.03799 -1.56867 0
M  V30 2655 O 253.763 -0.0155162 -1.81293 0
M  V30 2656 C 253.811 -3.44469 -1.06647 0
M  V30 2657 O 252.915 -3.50012 -2.18095 0
M  V30 2658 H 252.256 -0.652884 -0.12099 0
M  V30 2659 H 254.786 -2.02958 0.258661 0
M  V30 2660 H 254.796 -3.8351 -1.39227 0
M  V30 2661 H 253.471 -4.14932 -0.283581 0
M  V30 2662 H 252.048 -3.22822 -1.86656 0
M  V30 2663 N 254.233 0.115231 -1.57178 0
M  V30 2664 C 255.461 0.836437 -1.89239 0
M  V30 2665 C 255.876 1.73256 -0.750175 0
M  V30 2666 O 255.233 1.80357 0.278832 0
M  V30 2667 C 255.284 1.66671 -3.20785 0
M  V30 2668 O 255.005 0.806652 -4.3061 0
M  V30 2669 C 256.506 2.49274 -3.66575 0
M  V30 2670 H 253.726 0.240253 -0.626514 0
M  V30 2671 H 256.27 0.0984932 -2.04263 0
M  V30 2672 H 254.425 2.35737 -3.0742 0
M  V30 2673 H 254.839 1.37969 -5.06028 0
M  V30 2674 H 256.313 3.03055 -4.6137 0
M  V30 2675 H 256.79 3.26807 -2.93417 0
M  V30 2676 H 257.396 1.85443 -3.82741 0
M  V30 2677 N 255.711 1.52812 0.385517 0
M  V30 2678 C 256.658 1.77838 1.47113 0
M  V30 2679 C 257.628 0.621757 1.54024 0
M  V30 2680 O 258.813 0.861846 1.70226 0
M  V30 2681 C 255.953 1.95618 2.84302 0
M  V30 2682 C 255.066 3.23316 2.86515 0
M  V30 2683 C 254.201 3.31394 4.15152 0
M  V30 2684 C 253.24 4.53201 4.1143 0
M  V30 2685 N 252.377 4.58542 5.3168 0
M  V30 2686 H 257.217 2.70482 1.25073 0
M  V30 2687 H 254.754 1.34006 0.606692 0
M  V30 2688 H 256.712 2.03912 3.63972 0
M  V30 2689 H 255.342 1.06331 3.04784 0
M  V30 2690 H 254.394 3.24076 1.99195 0
M  V30 2691 H 255.706 4.13045 2.79634 0
M  V30 2692 H 254.86 3.3889 5.03228 0
M  V30 2693 H 253.599 2.39645 4.24761 0
M  V30 2694 H 252.604 4.45827 3.21742 0
M  V30 2695 H 253.829 5.46271 4.03442 0
M  V30 2696 H 251.775 3.69686 5.41912 0
M  V30 2697 H 251.692 5.42148 5.26889 0
M  V30 2698 H 252.96 4.70296 6.21644 0
M  V30 2699 N 257.189 -0.644168 1.43834 0
M  V30 2700 C 258.417 -1.43147 1.49387 0
M  V30 2701 C 258.832 -1.88452 0.114583 0
M  V30 2702 O 258.189 -1.60047 -0.876989 0
M  V30 2703 C 258.24 -2.66046 2.44748 0
M  V30 2704 O 257.961 -2.22633 3.77314 0
M  V30 2705 C 259.462 -3.59311 2.59635 0
M  V30 2706 H 256.682 -0.439447 0.507077 0
M  V30 2707 H 259.226 -0.78895 1.88669 0
M  V30 2708 H 257.381 -3.26418 2.08638 0
M  V30 2709 H 257.795 -3.02216 4.28679 0
M  V30 2710 H 259.269 -4.42187 3.30416 0
M  V30 2711 H 259.746 -4.07259 1.64427 0
M  V30 2712 H 260.352 -3.04816 2.96593 0
M  V30 2713 N 258.668 -1.30515 -0.883378 0
M  V30 2714 C 259.631 -1.1701 -1.97082 0
M  V30 2715 C 260.631 -0.10089 -1.60483 0
M  V30 2716 O 261.821 -0.349127 -1.70666 0
M  V30 2717 C 258.953 -0.793045 -3.31547 0
M  V30 2718 H 260.146 -2.13622 -2.10489 0
M  V30 2719 H 257.699 -1.13935 -1.06998 0
M  V30 2720 H 258.434 0.172499 -3.23841 0
M  V30 2721 H 258.219 -1.56576 -3.5948 0
M  V30 2722 H 259.709 -0.722073 -4.1131 0
M  V30 2723 N 260.146 1.09593 -1.13257 0
M  V30 2724 C 261.371 1.8604 -0.916732 0
M  V30 2725 C 261.796 1.80504 0.529146 0
M  V30 2726 O 261.154 1.18127 1.37534 0
M  V30 2727 C 261.202 3.32017 -1.40703 0
M  V30 2728 O 260.306 4.08141 -0.591153 0
M  V30 2729 H 259.647 0.576943 -0.328683 0
M  V30 2730 H 262.177 1.38405 -1.50682 0
M  V30 2731 H 262.187 3.82865 -1.4099 0
M  V30 2732 H 260.862 3.35361 -2.45979 0
M  V30 2733 H 259.439 3.67084 -0.656005 0
M  V30 2734 N 261.624 0.925811 1.2754 0
M  V30 2735 C 262.534 0.428993 2.30644 0
M  V30 2736 C 263.55 -0.489387 1.66976 0
M  V30 2737 O 264.726 -0.372653 1.97922 0
M  V30 2738 C 261.791 -0.311967 3.45294 0
M  V30 2739 C 260.852 0.641098 4.24486 0
M  V30 2740 C 260.085 -0.0645955 5.33661 0
M  V30 2741 O 260.308 -1.28429 5.55754 0
M  V30 2742 O 259.242 0.606265 5.98839 0
M  V30 2743 H 263.068 1.28504 2.75173 0
M  V30 2744 H 260.653 0.691086 1.32455 0
M  V30 2745 H 262.535 -0.729972 4.15029 0
M  V30 2746 H 261.21 -1.14365 3.02824 0
M  V30 2747 H 260.117 1.10874 3.57292 0
M  V30 2748 H 261.45 1.43995 4.70666 0
M  V30 2749 N 263.102 -1.41638 0.69111 0
M  V30 2750 C 264.513 -1.84346 0.295517 0
M  V30 2751 C 264.864 -1.57833 -1.16547 0
M  V30 2752 O 263.989 -1.04648 -1.89414 0
M  V30 2753 C 264.584 -3.34636 0.529575 0
M  V30 2754 C 263.143 -3.7593 0.187944 0
M  V30 2755 C 262.29 -2.65082 0.814052 0
M  V30 2756 H 265.241 -1.31253 0.892092 0
M  V30 2757 H 265.262 -3.79903 -0.213148 0
M  V30 2758 H 264.774 -3.53901 1.59297 0
M  V30 2759 H 262.875 -3.62268 -0.871367 0
M  V30 2760 H 262.988 -4.74808 0.63985 0
M  V30 2761 H 261.352 -2.53528 0.244017 0
M  V30 2762 H 262.135 -2.87167 1.88123 0
M  V30 2763 N 264.58 -0.43555 -1.51462 0
M  V30 2764 C 265.991 0.0279871 -1.86679 0
M  V30 2765 C 266.342 1.42104 -1.35281 0
M  V30 2766 O 265.467 2.04667 -0.702878 0
M  V30 2767 C 266.062 0.0575626 -3.38751 0
M  V30 2768 C 264.621 0.465507 -3.7351 0
M  V30 2769 C 263.768 -0.342996 -2.75171 0
M  V30 2770 H 266.719 -0.651473 -1.44712 0
M  V30 2771 H 266.74 0.867421 -3.70481 0
M  V30 2772 H 266.252 -0.956448 -3.7613 0
M  V30 2773 H 264.353 1.48519 -3.41721 0
M  V30 2774 H 264.466 0.191546 -4.78717 0
M  V30 2775 H 262.83 0.198442 -2.53926 0
M  V30 2776 H 263.613 -1.35585 -3.15391 0
M  V30 2777 N 266.058 1.56714 -0.166846 0
M  V30 2778 C 266.988 2.20754 0.760913 0
M  V30 2779 C 267.969 1.16178 1.24244 0
M  V30 2780 O 269.154 1.44592 1.29641 0
M  V30 2781 C 266.284 2.84478 1.99223 0
M  V30 2782 C 265.238 3.95053 1.64672 0
M  V30 2783 C 264.564 4.45805 2.95232 0
M  V30 2784 C 265.864 5.14865 0.878155 0
M  V30 2785 H 267.558 2.98537 0.22713 0
M  V30 2786 H 265.104 1.43596 0.107805 0
M  V30 2787 H 267.057 3.27951 2.64624 0
M  V30 2788 H 265.781 2.04056 2.55007 0
M  V30 2789 H 264.44 3.52228 1.01641 0
M  V30 2790 H 264.088 3.62181 3.49047 0
M  V30 2791 H 263.788 5.204 2.7287 0
M  V30 2792 H 265.312 4.91962 3.6167 0
M  V30 2793 H 266.726 5.55059 1.43466 0
M  V30 2794 H 265.123 5.95348 0.753738 0
M  V30 2795 H 266.193 4.84735 -0.126377 0
M  V30 2796 N 267.536 -0.106894 1.57237 0
M  V30 2797 C 268.499 -1.11466 2.0027 0
M  V30 2798 C 269.499 -1.33623 0.894519 0
M  V30 2799 O 270.689 -1.29935 1.16028 0
M  V30 2800 C 267.821 -2.46646 2.35327 0
M  V30 2801 H 269.014 -0.744516 2.90512 0
M  V30 2802 H 266.567 -0.351576 1.52295 0
M  V30 2803 H 267.302 -2.88558 1.48003 0
M  V30 2804 H 267.087 -2.31915 3.16161 0
M  V30 2805 H 268.577 -3.19151 2.69318 0
M  V30 2806 N 269.014 -1.53014 -0.377408 0
M  V30 2807 C 270.425 -1.60438 -0.954798 0
M  V30 2808 C 270.776 -0.464418 -1.90624 0
M  V30 2809 O 269.901 0.41087 -2.12464 0
M  V30 2810 C 270.496 -2.90797 -1.73847 0
M  V30 2811 C 269.055 -3.00595 -2.26538 0
M  V30 2812 C 268.202 -2.55645 -1.07429 0
M  V30 2813 H 271.153 -1.57926 -0.156575 0
M  V30 2814 H 271.174 -2.77935 -2.5987 0
M  V30 2815 H 270.686 -3.73746 -1.04574 0
M  V30 2816 H 268.787 -2.22208 -2.99089 0
M  V30 2817 H 268.9 -4.05456 -2.5523 0
M  V30 2818 H 267.264 -2.10239 -1.43777 0
M  V30 2819 H 268.047 -3.41 -0.396728 0
M  V30 2820 N 270.492 0.636531 -1.44174 0
M  V30 2821 C 271.903 1.21806 -1.41493 0
M  V30 2822 C 272.254 1.95785 -0.1275 0
M  V30 2823 O 271.379 2.02147 0.772376 0
M  V30 2824 C 271.974 2.21551 -2.56321 0
M  V30 2825 C 270.533 2.75143 -2.56853 0
M  V30 2826 C 269.68 1.50052 -2.33195 0
M  V30 2827 H 272.631 0.427531 -1.52833 0
M  V30 2828 H 272.652 3.0405 -2.28765 0
M  V30 2829 H 272.164 1.67679 -3.50008 0
M  V30 2830 H 270.265 3.33033 -1.67093 0
M  V30 2831 H 270.378 3.2155 -3.55165 0
M  V30 2832 H 268.742 1.77993 -1.82183 0
M  V30 2833 H 269.525 0.980903 -3.28988 0
M  V30 2834 N 271.97 1.30982 0.876444 0
M  V30 2835 C 273.216 1.20474 1.63138 0
M  V30 2836 C 273.549 -0.238096 1.92735 0
M  V30 2837 O 272.824 -1.1692 1.55435 0
M  V30 2838 C 273.107 2.04244 2.96574 0
M  V30 2839 C 272.96 3.56793 2.73896 0
M  V30 2840 C 274.279 1.88684 3.97601 0
M  V30 2841 H 271.398 0.439001 0.591985 0
M  V30 2842 H 274.04 1.60704 1.01361 0
M  V30 2843 H 272.19 1.70063 3.493 0
M  V30 2844 H 273.862 4.01077 2.27892 0
M  V30 2845 H 272.105 3.80548 2.08245 0
M  V30 2846 H 272.776 4.10706 3.68815 0
M  V30 2847 H 275.252 2.18584 3.54062 0
M  V30 2848 H 274.128 2.4961 4.88862 0
M  V30 2849 H 274.389 0.848343 4.33884 0
M  V30 2850 N 273.449 -1.08991 1.13837 0
M  V30 2851 C 274.674 -1.85551 0.926585 0
M  V30 2852 C 275.099 -1.80782 -0.519566 0
M  V30 2853 O 274.457 -1.18855 -1.36906 0
M  V30 2854 C 274.505 -3.31266 1.42462 0
M  V30 2855 O 273.609 -4.07822 0.612789 0
M  V30 2856 H 272.95 -0.575192 0.331738 0
M  V30 2857 H 275.48 -1.37604 1.51414 0
M  V30 2858 H 275.49 -3.82112 1.43019 0
M  V30 2859 H 274.165 -3.34052 2.47754 0
M  V30 2860 H 272.742 -3.66731 0.675463 0
M  V30 2861 N 274.927 -0.932562 -1.27047 0
M  V30 2862 C 275.837 -0.441219 -2.30414 0
M  V30 2863 C 276.853 0.480525 -1.67233 0
M  V30 2864 O 278.029 0.362151 -1.98117 0
M  V30 2865 C 275.094 0.293651 -3.45454 0
M  V30 2866 C 274.155 -0.663601 -4.2414 0
M  V30 2867 C 273.388 0.0362932 -5.33688 0
M  V30 2868 O 273.611 1.2548 -5.56427 0
M  V30 2869 O 272.545 -0.638015 -5.98509 0
M  V30 2870 H 276.371 -1.29962 -2.74488 0
M  V30 2871 H 273.956 -0.6981 -1.32087 0
M  V30 2872 H 275.838 0.707951 -4.15411 0
M  V30 2873 H 274.513 1.12758 -3.03426 0
M  V30 2874 H 273.42 -1.12768 -3.56699 0
M  V30 2875 H 274.753 -1.46489 -4.69896 0
M  V30 2876 N 276.405 1.4127 -0.698611 0
M  V30 2877 C 277.315 2.34573 -0.0357891 0
M  V30 2878 C 278.331 1.56393 0.762701 0
M  V30 2879 O 279.507 1.8886 0.699564 0
M  V30 2880 C 276.572 3.35159 0.887089 0
M  V30 2881 C 275.633 4.29225 0.0804634 0
M  V30 2882 C 274.866 5.25006 0.959387 0
M  V30 2883 O 275.089 5.26314 2.19886 0
M  V30 2884 O 274.023 6.00519 0.407439 0
M  V30 2885 H 277.849 2.92838 -0.804957 0
M  V30 2886 H 275.434 1.42175 -0.458966 0
M  V30 2887 H 277.316 3.9689 1.41621 0
M  V30 2888 H 275.991 2.79333 1.6357 0
M  V30 2889 H 274.898 3.70833 -0.493328 0
M  V30 2890 H 276.231 4.88157 -0.629547 0
M  V30 2891 N 277.883 0.443576 1.51229 0
M  V30 2892 C 278.793 -0.370721 2.31652 0
M  V30 2893 C 279.809 -1.02186 1.40833 0
M  V30 2894 O 280.985 -1.01586 1.73903 0
M  V30 2895 C 278.05 -1.45376 3.14749 0
M  V30 2896 C 277.111 -0.822099 4.21355 0
M  V30 2897 C 276.344 -1.85353 5.0048 0
M  V30 2898 O 276.567 -3.07656 4.80316 0
M  V30 2899 O 275.501 -1.4406 5.84406 0
M  V30 2900 H 279.327 0.286002 3.0235 0
M  V30 2901 H 276.912 0.20598 1.47973 0
M  V30 2902 H 278.794 -2.08173 3.66391 0
M  V30 2903 H 277.469 -2.09445 2.46809 0
M  V30 2904 H 276.376 -0.155909 3.73775 0
M  V30 2905 H 277.709 -0.224797 4.91686 0
M  V30 2906 N 279.361 -1.56624 0.175154 0
M  V30 2907 C 280.638 -1.88688 -0.515373 0
M  V30 2908 C 281.018 -1.08564 -1.81044 0
M  V30 2909 O 280.366 -0.180703 -2.27784 0
M  V30 2910 C 280.576 -3.40768 -0.753552 0
M  V30 2911 C 281.924 -4.10587 -1.08184 0
M  V30 2912 O 282.948 -3.46106 -0.841961 0
M  V30 2913 O 281.807 -5.24512 -1.53459 0
M  V30 2914 H 278.901 -0.78301 -0.26613 0
M  V30 2915 H 281.447 -1.68347 0.213877 0
M  V30 2916 H 280.219 -3.90965 0.161829 0
M  V30 2917 H 279.842 -3.66733 -1.53598 0
M  V30 2918 N 280.839 0.0985539 -1.57292 0
M  V30 2919 C 281.749 1.13824 -2.05137 0
M  V30 2920 C 282.765 1.44076 -0.975604 0
M  V30 2921 O 283.941 1.54786 -1.28853 0
M  V30 2922 C 281.006 2.43969 -2.46333 0
M  V30 2923 C 280.067 2.2093 -3.68087 0
M  V30 2924 C 279.3 3.44869 -4.0731 0
M  V30 2925 O 279.523 4.52972 -3.46659 0
M  V30 2926 O 278.457 3.34661 -5.00285 0
M  V30 2927 H 282.283 0.761881 -2.93988 0
M  V30 2928 H 279.868 0.310818 -1.46131 0
M  V30 2929 H 281.75 3.20609 -2.73473 0
M  V30 2930 H 280.425 2.81038 -1.60621 0
M  V30 2931 H 279.332 1.42081 -3.46069 0
M  V30 2932 H 280.665 1.88755 -4.54568 0
M  V30 2933 N 282.317 1.53212 0.369288 0
M  V30 2934 C 283.227 1.82342 1.47609 0
M  V30 2935 C 284.243 0.711532 1.58787 0
M  V30 2936 O 285.419 1.0012 1.74751 0
M  V30 2937 C 282.484 2.00393 2.8292 0
M  V30 2938 C 281.545 3.24297 2.81301 0
M  V30 2939 C 280.778 3.41478 4.10157 0
M  V30 2940 O 281.001 2.63033 5.06132 0
M  V30 2941 O 279.935 4.34817 4.16194 0
M  V30 2942 H 283.761 2.76366 1.25918 0
M  V30 2943 H 281.346 1.38547 0.559034 0
M  V30 2944 H 283.228 2.13859 3.63101 0
M  V30 2945 H 281.903 1.09559 3.04596 0
M  V30 2946 H 280.81 3.16257 1.99831 0
M  V30 2947 H 282.143 4.15041 2.64578 0
M  V30 2948 N 283.795 -0.628877 1.44509 0
M  V30 2949 C 284.705 -1.7694 1.54044 0
M  V30 2950 C 285.721 -1.68705 0.425987 0
M  V30 2951 O 286.897 -1.89442 0.683656 0
M  V30 2952 C 283.962 -3.13332 1.48405 0
M  V30 2953 C 283.023 -3.33181 2.70719 0
M  V30 2954 C 282.256 -4.63067 2.6534 0
M  V30 2955 O 282.479 -5.44017 1.71469 0
M  V30 2956 O 281.413 -4.85167 3.56226 0
M  V30 2957 H 285.239 -1.71848 2.50403 0
M  V30 2958 H 282.824 -0.790378 1.26781 0
M  V30 2959 H 284.706 -3.94634 1.47791 0
M  V30 2960 H 283.381 -3.1896 0.551898 0
M  V30 2961 H 282.288 -2.51549 2.769 0
M  V30 2962 H 283.621 -3.32416 3.62988 0
M  V30 2963 N 285.273 -1.31445 -0.869486 0
M  V30 2964 C 286.183 -1.21097 -2.0093 0
M  V30 2965 C 287.199 -0.127584 -1.73532 0
M  V30 2966 O 288.375 -0.345477 -1.98415 0
M  V30 2967 C 285.44 -0.919378 -3.34288 0
M  V30 2968 C 284.501 -2.08971 -3.75006 0
M  V30 2969 C 283.734 -1.81194 -5.02001 0
M  V30 2970 O 283.957 -0.747296 -5.65484 0
M  V30 2971 O 282.891 -2.66883 -5.39497 0
M  V30 2972 H 286.717 -2.16883 -2.12592 0
M  V30 2973 H 284.302 -1.11189 -0.997868 0
M  V30 2974 H 286.184 -0.772625 -4.14257 0
M  V30 2975 H 284.859 0.00844772 -3.23699 0
M  V30 2976 H 283.766 -2.29187 -2.95676 0
M  V30 2977 H 285.099 -2.9998 -3.90221 0
M  V30 2978 N 286.751 1.08385 -1.14413 0
M  V30 2979 C 287.661 2.18856 -0.844951 0
M  V30 2980 C 288.677 1.73121 0.174668 0
M  V30 2981 O 289.853 2.014 0.00312857 0
M  V30 2982 C 286.918 3.45155 -0.32696 0
M  V30 2983 C 285.979 4.05513 -1.40916 0
M  V30 2984 C 285.212 5.25784 -0.915793 0
M  V30 2985 O 285.435 5.69884 0.242651 0
M  V30 2986 O 284.369 5.77545 -1.69487 0
M  V30 2987 H 288.195 2.46919 -1.76818 0
M  V30 2988 H 285.78 1.17524 -0.922411 0
M  V30 2989 H 287.662 4.21377 -0.0440211 0
M  V30 2990 H 286.337 3.18668 0.568539 0
M  V30 2991 H 285.244 3.30879 -1.74556 0
M  V30 2992 H 286.577 4.3625 -2.27919 0
M  V30 2993 N 288.23 0.939286 1.26551 0
M  V30 2994 C 289.14 0.453432 2.30176 0
M  V30 2995 C 290.156 -0.471649 1.67486 0
M  V30 2996 O 291.332 -0.35164 1.98306 0
M  V30 2997 C 288.397 -0.275326 3.45605 0
M  V30 2998 C 287.458 0.686084 4.23782 0
M  V30 2999 C 286.691 -0.00798994 5.33699 0
M  V30 3000 O 286.914 -1.22528 5.57085 0
M  V30 3001 O 285.848 0.669746 5.98162 0
M  V30 3002 H 289.674 1.31416 2.73795 0
M  V30 3003 H 287.259 0.705095 1.31715 0
M  V30 3004 H 289.141 -0.685911 4.1578 0
M  V30 3005 H 287.816 -1.11147 3.0402 0
M  V30 3006 H 286.723 1.14658 3.56096 0
M  V30 3007 H 288.056 1.48979 4.69112 0
M  V30 3008 N 289.708 -1.40897 0.706093 0
M  V30 3009 C 290.618 -2.3455 0.0482286 0
M  V30 3010 C 291.634 -1.56796 -0.754396 0
M  V30 3011 O 292.81 -1.89228 -0.689538 0
M  V30 3012 C 289.875 -3.35625 -0.869303 0
M  V30 3013 C 288.936 -4.29261 -0.0576994 0
M  V30 3014 C 288.169 -5.25508 -0.931531 0
M  V30 3015 O 288.392 -5.27472 -2.17092 0
M  V30 3016 O 287.326 -6.00727 -0.375587 0
M  V30 3017 H 291.152 -2.92407 0.820476 0
M  V30 3018 H 288.737 -1.4193 0.4665 0
M  V30 3019 H 290.619 -3.97635 -1.39514 0
M  V30 3020 H 289.294 -2.80196 -1.62086 0
M  V30 3021 H 288.201 -3.70566 0.512988 0
M  V30 3022 H 289.534 -4.87817 0.655426 0
M  V30 3023 N 291.186 -0.45159 -1.50991 0
M  V30 3024 C 292.463 0.170707 -1.94854 0
M  V30 3025 C 292.843 1.58788 -1.39103 0
M  V30 3026 O 292.191 2.20913 -0.583921 0
M  V30 3027 C 292.401 0.133929 -3.48743 0
M  V30 3028 C 293.749 0.33248 -4.23296 0
M  V30 3029 O 294.773 0.211403 -3.55572 0
M  V30 3030 O 293.632 0.57486 -5.43468 0
M  V30 3031 H 290.726 0.122264 -0.817912 0
M  V30 3032 H 293.272 -0.510594 -1.61836 0
M  V30 3033 H 292.044 -0.856283 -3.81816 0
M  V30 3034 H 291.667 0.857529 -3.88242 0
M  V30 3035 N 292.664 1.56529 -0.183458 0
M  V30 3036 C 293.574 2.22144 0.754272 0
M  V30 3037 C 294.59 1.21684 1.24374 0
M  V30 3038 O 295.766 1.54385 1.29333 0
M  V30 3039 C 292.831 2.85884 1.96141 0
M  V30 3040 C 291.892 4.01579 1.51765 0
M  V30 3041 C 291.125 4.6227 2.66725 0
M  V30 3042 O 291.348 4.21865 3.83909 0
M  V30 3043 O 290.282 5.51936 2.40104 0
M  V30 3044 H 294.108 3.02861 0.225527 0
M  V30 3045 H 291.693 1.49331 0.0453032 0
M  V30 3046 H 293.575 3.26253 2.66715 0
M  V30 3047 H 292.25 2.08154 2.47899 0
M  V30 3048 H 291.157 3.65856 0.781049 0
M  V30 3049 H 292.49 4.80938 1.04686 0
M  V30 3050 N 294.142 -0.090211 1.57342 0
M  V30 3051 C 295.09 -1.12792 2.03422 0
M  V30 3052 C 296.084 -1.41182 0.936166 0
M  V30 3053 O 297.29 -1.40805 1.12133 0
M  V30 3054 H 293.665 -0.380986 0.648347 0
M  V30 3055 H 295.636 -0.71299 2.89757 0
M  V30 3056 C 294.385 -2.43855 2.47851 0
M  V30 3057 H 293.708 -2.22855 3.31927 0
M  V30 3058 H 295.148 -3.14955 2.83865 0
M  V30 3059 C 293.607 -3.08503 1.3538 0
M  V30 3060 O 294.137 -3.95805 0.685641 0
M  V30 3061 N 292.343 -2.68831 1.10355 0
M  V30 3062 H 291.89 -1.97929 1.64869 0
M  V30 3063 H 291.848 -3.12412 0.353031 0
M  V30 3064 N 295.62 -1.53406 -0.361157 0
M  V30 3065 C 296.53 -1.83122 -1.4664 0
M  V30 3066 C 297.546 -0.719943 -1.58407 0
M  V30 3067 O 298.722 -1.01046 -1.74218 0
M  V30 3068 C 295.787 -2.01891 -2.81853 0
M  V30 3069 C 294.848 -3.25784 -2.79577 0
M  V30 3070 C 294.081 -3.43648 -4.0834 0
M  V30 3071 O 294.304 -2.65714 -5.0473 0
M  V30 3072 O 293.238 -4.37018 -4.13883 0
M  V30 3073 H 297.064 -2.7703 -1.24451 0
M  V30 3074 H 294.649 -1.38841 -0.551678 0
M  V30 3075 H 296.531 -2.15782 -3.61962 0
M  V30 3076 H 295.206 -1.11173 -3.0401 0
M  V30 3077 H 294.113 -3.17312 -1.98151 0
M  V30 3078 H 295.446 -4.16439 -2.62373 0
M  V30 3079 N 297.098 0.621204 -1.44841 0
M  V30 3080 C 298.509 1.20298 -1.42777 0
M  V30 3081 C 298.86 1.95639 -0.148259 0
M  V30 3082 O 297.985 2.02955 0.750892 0
M  V30 3083 C 298.58 2.1882 -2.58657 0
M  V30 3084 C 297.139 2.72403 -2.59756 0
M  V30 3085 C 296.286 1.4757 -2.34773 0
M  V30 3086 H 299.237 0.411297 -1.53278 0
M  V30 3087 H 299.258 3.01607 -2.31977 0
M  V30 3088 H 298.77 1.63957 -3.51766 0
M  V30 3089 H 296.871 3.31242 -1.70615 0
M  V30 3090 H 296.984 3.17765 -3.58556 0
M  V30 3091 H 295.348 1.76051 -1.8406 0
M  V30 3092 H 296.131 0.945954 -3.3001 0
M  V30 3093 N 298.576 1.31904 0.862503 0
M  V30 3094 C 299.987 1.19803 1.43193 0
M  V30 3095 C 300.338 -0.192567 1.95253 0
M  V30 3096 O 299.463 -1.09081 1.86896 0
M  V30 3097 C 300.058 2.16883 2.60283 0
M  V30 3098 C 298.617 2.08692 3.13248 0
M  V30 3099 C 297.764 2.05691 1.85975 0
M  V30 3100 H 300.715 1.43846 0.670365 0
M  V30 3101 H 300.736 1.76278 3.37204 0
M  V30 3102 H 300.248 3.18083 2.22363 0
M  V30 3103 H 298.349 1.10713 3.55771 0
M  V30 3104 H 298.462 2.9815 3.75025 0
M  V30 3105 H 296.826 1.50814 2.05249 0
M  V30 3106 H 297.609 3.08659 1.50282 0
M  V30 3107 N 300.054 -1.07777 1.14986 0
M  V30 3108 C 301.465 -1.61766 0.932127 0
M  V30 3109 C 301.816 -1.88974 -0.527581 0
M  V30 3110 O 300.941 -1.65198 -1.39781 0
M  V30 3111 C 301.536 -2.93891 1.68563 0
M  V30 3112 C 300.095 -3.44639 1.5133 0
M  V30 3113 C 299.242 -2.18767 1.704 0
M  V30 3114 H 302.193 -0.909201 1.30074 0
M  V30 3115 H 302.214 -3.62623 1.15259 0
M  V30 3116 H 301.726 -2.74057 2.74799 0
M  V30 3117 H 299.827 -3.69564 0.474702 0
M  V30 3118 H 299.94 -4.20966 2.28746 0
M  V30 3119 H 298.304 -2.28253 1.13016 0
M  V30 3120 H 299.087 -2.01433 2.77992 0
M  V30 3121 N 301.532 -0.945985 -1.26051 0
M  V30 3122 C 302.778 -0.597002 -1.93814 0
M  V30 3123 C 303.111 0.862484 -1.73997 0
M  V30 3124 O 302.386 1.61769 -1.07986 0
M  V30 3125 C 302.669 -0.945937 -3.47454 0
M  V30 3126 C 302.522 -2.46052 -3.76535 0
M  V30 3127 C 303.841 -0.464785 -4.37639 0
M  V30 3128 H 300.96 -0.218366 -0.703907 0
M  V30 3129 H 303.602 -1.18107 -1.48831 0
M  V30 3130 H 301.752 -0.448902 -3.85898 0
M  V30 3131 H 303.424 -3.03065 -3.47778 0
M  V30 3132 H 301.667 -2.90194 -3.22444 0
M  V30 3133 H 302.338 -2.65517 -4.83947 0
M  V30 3134 H 304.814 -0.891016 -4.06448 0
M  V30 3135 H 303.69 -0.737712 -5.4392 0
M  V30 3136 H 303.951 0.635274 -4.37512 0
M  V30 3137 N 303.011 1.40521 -0.713556 0
M  V30 3138 C 304.26 2.00155 -0.249192 0
M  V30 3139 C 304.573 1.57224 1.16362 0
M  V30 3140 O 305.779 2.09542 1.72639 0
M  V30 3141 C 304.235 3.5773 -0.3946 0
M  V30 3142 C 303.843 4.09635 -1.81392 0
M  V30 3143 C 305.587 4.24499 0.00907364 0
M  V30 3144 C 303.494 5.59707 -1.91003 0
M  V30 3145 H 302.424 0.74868 -0.0894114 0
M  V30 3146 H 305.075 1.60784 -0.884352 0
M  V30 3147 H 303.457 3.94792 0.30911 0
M  V30 3148 H 304.631 3.83955 -2.54785 0
M  V30 3149 H 302.946 3.55456 -2.16888 0
M  V30 3150 H 305.543 5.34683 -0.0420404 0
M  V30 3151 H 305.886 4.02824 1.05065 0
M  V30 3152 H 306.419 3.92536 -0.645007 0
M  V30 3153 H 303.158 5.86234 -2.93275 0
M  V30 3154 H 302.678 5.87258 -1.22019 0
M  V30 3155 H 304.357 6.24776 -1.6812 0
M  V30 3156 N 304.489 0.459591 1.5075 0
M  V30 3157 C 305.452 -0.329093 2.26825 0
M  V30 3158 C 306.452 -0.930481 1.31144 0
M  V30 3159 O 307.642 -0.801453 1.54669 0
M  V30 3160 C 304.774 -1.46768 3.07688 0
M  V30 3161 H 305.967 0.337924 2.9799 0
M  V30 3162 H 303.52 0.213336 1.54837 0
M  V30 3163 H 304.255 -2.17009 2.40993 0
M  V30 3164 H 304.04 -1.04238 3.77991 0
M  V30 3165 H 305.53 -2.02433 3.65254 0
M  V30 3166 N 305.967 -1.56429 0.191757 0
M  V30 3167 C 307.378 -1.83912 -0.321428 0
M  V30 3168 C 307.729 -1.11231 -1.61623 0
M  V30 3169 O 306.854 -0.37202 -2.13178 0
M  V30 3170 C 307.449 -3.33624 -0.589961 0
M  V30 3171 C 306.008 -3.6153 -1.04753 0
M  V30 3172 C 305.155 -2.7714 -0.0943327 0
M  V30 3173 H 308.106 -1.53161 0.415612 0
M  V30 3174 H 308.127 -3.52213 -1.43966 0
M  V30 3175 H 307.639 -3.86495 0.352588 0
M  V30 3176 H 305.74 -3.14089 -2.00447 0
M  V30 3177 H 305.853 -4.69737 -0.942549 0
M  V30 3178 H 304.217 -2.47638 -0.595589 0
M  V30 3179 H 305 -3.32799 0.842601 0
M  V30 3180 N 307.445 0.0818655 -1.57387 0
M  V30 3181 C 308.861 0.436412 -1.53517 0
M  V30 3182 C 309.061 1.79758 -0.910459 0
M  V30 3183 O 308.117 2.47324 -0.508636 0
M  V30 3184 C 309.43 0.386734 -2.98203 0
M  V30 3185 C 310.978 0.467644 -3.09487 0
M  V30 3186 C 311.453 0.447978 -4.55804 0
M  V30 3187 N 312.944 0.508348 -4.60402 0
M  V30 3188 C 313.679 0.515184 -5.71081 0
M  V30 3189 N 313.175 0.477435 -6.91153 0
M  V30 3190 N 314.968 0.560988 -5.59294 0
M  V30 3191 H 307.119 -0.809546 -1.96367 0
M  V30 3192 H 309.382 -0.302733 -0.898363 0
M  V30 3193 H 309.088 -0.546539 -3.47427 0
M  V30 3194 H 308.962 1.20075 -3.57578 0
M  V30 3195 H 311.349 1.39134 -2.60242 0
M  V30 3196 H 311.43 -0.374753 -2.5304 0
M  V30 3197 H 311.074 -0.471826 -5.05704 0
M  V30 3198 H 311.004 1.30777 -5.10103 0
M  V30 3199 H 313.495 0.54218 -3.7399 0
M  V30 3200 H 313.808 0.486299 -7.71268 0
M  V30 3201 H 312.153 0.444278 -6.93579 0
M  V30 3202 H 315.344 0.5881 -4.64391 0
M  V30 3203 H 315.517 0.562846 -6.45551 0
M  V30 3204 N 308.923 1.53595 0.353017 0
M  V30 3205 C 310.334 1.61937 0.929153 0
M  V30 3206 C 310.685 0.494686 1.89861 0
M  V30 3207 O 309.81 -0.377017 2.1309 0
M  V30 3208 C 310.405 2.93526 1.69199 0
M  V30 3209 C 308.964 3.04161 2.21727 0
M  V30 3210 C 308.111 2.57322 1.03348 0
M  V30 3211 H 311.062 1.58155 0.131431 0
M  V30 3212 H 311.083 2.82034 2.55416 0
M  V30 3213 H 310.595 3.75362 0.986144 0
M  V30 3214 H 308.696 2.26938 2.95516 0
M  V30 3215 H 308.809 4.09465 2.48748 0
M  V30 3216 H 307.173 2.12499 1.40414 0
M  V30 3217 H 307.956 3.41588 0.342428 0
M  V30 3218 N 310.401 -0.613514 1.45168 0
M  V30 3219 C 311.311 -1.75296 1.55912 0
M  V30 3220 C 312.327 -1.68244 0.443856 0
M  V30 3221 O 313.503 -1.88706 0.70371 0
M  V30 3222 C 310.568 -3.1174 1.5172 0
M  V30 3223 C 309.629 -3.30291 2.74238 0
M  V30 3224 C 308.862 -4.60226 2.70236 0
M  V30 3225 O 309.085 -5.42168 1.77229 0
M  V30 3226 O 308.019 -4.81361 3.61352 0
M  V30 3227 H 311.845 -1.69183 2.52212 0
M  V30 3228 H 309.43 -0.776886 1.27612 0
M  V30 3229 H 311.312 -3.93044 1.51968 0
M  V30 3230 H 309.987 -3.18357 0.585697 0
M  V30 3231 H 308.894 -2.48598 2.79553 0
M  V30 3232 H 310.227 -3.28547 3.66494 0
M  V30 3233 N 311.879 -1.3236 -0.855495 0
M  V30 3234 C 312.829 -1.17809 -1.95205 0
M  V30 3235 C 313.813 -0.0852319 -1.60674 0
M  V30 3236 O 315.005 -0.311651 -1.74235 0
M  V30 3237 C 312.134 -0.902437 -3.31226 0
M  V30 3238 C 311.22 -2.03695 -3.7198 0
M  V30 3239 N 311.611 -3.28544 -3.84568 0
M  V30 3240 C 309.909 -1.93993 -4.016 0
M  V30 3241 C 310.61 -4.02847 -4.19629 0
M  V30 3242 N 309.586 -3.31138 -4.31102 0
M  V30 3243 H 313.388 -2.12462 -2.0307 0
M  V30 3244 H 310.902 -1.24127 -1.0472 0
M  V30 3245 H 312.899 -0.77915 -4.09554 0
M  V30 3246 H 311.559 0.0357267 -3.2468 0
M  V30 3247 H 312.57 -3.6349 -3.68911 0
M  V30 3248 H 309.247 -1.07733 -4.03361 0
M  V30 3249 H 310.637 -5.10506 -4.36845 0
M  V30 3250 N 313.357 1.07166 -1.15556 0
M  V30 3251 C 314.585 1.83514 -0.955519 0
M  V30 3252 C 315 1.82163 0.49621 0
M  V30 3253 O 314.357 1.23441 1.34419 0
M  V30 3254 C 314.408 3.30515 -1.46432 0
M  V30 3255 O 314.129 3.31937 -2.85918 0
M  V30 3256 C 315.63 4.23625 -1.30603 0
M  V30 3257 H 312.85 0.578926 -0.339244 0
M  V30 3258 H 315.394 1.35265 -1.53374 0
M  V30 3259 H 313.549 3.76106 -0.928584 0
M  V30 3260 H 313.963 4.23794 -3.09029 0
M  V30 3261 H 315.437 5.24831 -1.71047 0
M  V30 3262 H 315.914 4.38485 -0.250441 0
M  V30 3263 H 316.52 3.83871 -1.83094 0
M  V30 3264 N 314.835 0.952656 1.25548 0
M  V30 3265 C 315.782 0.47008 2.25962 0
M  V30 3266 C 316.752 -0.476384 1.59122 0
M  V30 3267 O 317.937 -0.39007 1.8677 0
M  V30 3268 C 315.077 -0.247881 3.44209 0
M  V30 3269 C 314.19 0.735591 4.25691 0
M  V30 3270 C 313.325 -0.0047306 5.312 0
M  V30 3271 C 312.364 0.969805 6.04368 0
M  V30 3272 N 311.501 0.260486 7.01617 0
M  V30 3273 H 316.341 1.33126 2.66611 0
M  V30 3274 H 313.878 0.66765 1.31076 0
M  V30 3275 H 315.836 -0.680695 4.1161 0
M  V30 3276 H 314.466 -1.07312 3.0444 0
M  V30 3277 H 313.518 1.28689 3.57971 0
M  V30 3278 H 314.83 1.47934 4.76358 0
M  V30 3279 H 313.984 -0.496275 6.04667 0
M  V30 3280 H 312.723 -0.781282 4.81401 0
M  V30 3281 H 311.728 1.47237 5.29718 0
M  V30 3282 H 312.953 1.74655 6.56256 0
M  V30 3283 H 310.899 -0.497364 6.54112 0
M  V30 3284 H 310.816 0.943362 7.50091 0
M  V30 3285 H 312.084 -0.209587 7.79218 0
M  V30 3286 N 316.313 -1.40141 0.720998 0
M  V30 3287 C 317.538 -2.05618 0.271258 0
M  V30 3288 C 317.963 -1.53978 -1.08039 0
M  V30 3289 O 317.321 -0.677463 -1.68167 0
M  V30 3290 C 317.369 -3.59609 0.267197 0
M  V30 3291 O 316.473 -4.05526 -0.749814 0
M  V30 3292 H 315.814 -0.651904 0.126162 0
M  V30 3293 H 318.344 -1.79439 0.982997 0
M  V30 3294 H 318.354 -4.0786 0.106744 0
M  V30 3295 H 317.029 -3.96559 1.25354 0
M  V30 3296 H 315.606 -3.68722 -0.556644 0
M  V30 3297 N 317.792 -0.46758 -1.50504 0
M  V30 3298 C 319.041 0.0902868 -2.01498 0
M  V30 3299 C 319.354 1.411 -1.35463 0
M  V30 3300 O 320.56 2.0536 -1.77594 0
M  V30 3301 C 319.016 0.21142 -3.59278 0
M  V30 3302 C 318.624 -1.10065 -4.34269 0
M  V30 3303 C 320.368 0.721433 -4.18325 0
M  V30 3304 C 318.275 -0.943505 -5.83825 0
M  V30 3305 H 317.205 0.037517 -0.753066 0
M  V30 3306 H 319.856 -0.601943 -1.73346 0
M  V30 3307 H 318.238 0.967352 -3.84003 0
M  V30 3308 H 319.412 -1.86726 -4.21272 0
M  V30 3309 H 317.727 -1.5415 -3.86816 0
M  V30 3310 H 320.324 0.85598 -5.27804 0
M  V30 3311 H 320.667 1.71186 -3.79475 0
M  V30 3312 H 321.2 0.0229843 -3.97793 0
M  V30 3313 H 317.939 -1.90719 -6.27141 0
M  V30 3314 H 317.459 -0.217213 -5.99407 0
M  V30 3315 H 319.138 -0.608715 -6.4413 0
M  V30 3316 N 319.27 1.56325 -0.20005 0
M  V30 3317 C 320.5 2.01811 0.442232 0
M  V30 3318 C 320.908 1.07932 1.55394 0
M  V30 3319 O 320.251 0.0772685 1.83537 0
M  V30 3320 C 320.313 3.43685 1.05457 0
M  V30 3321 C 319.977 4.56928 0.0809833 0
M  V30 3322 C 320.974 5.15009 -0.711471 0
M  V30 3323 C 318.659 5.0229 -0.0315364 0
M  V30 3324 C 320.653 6.16904 -1.60336 0
M  V30 3325 C 318.34 6.04028 -0.926981 0
M  V30 3326 C 319.338 6.6121 -1.71146 0
M  V30 3327 O 319.026 7.60971 -2.59189 0
M  V30 3328 H 318.758 0.666173 0.114848 0
M  V30 3329 H 321.312 2.03085 -0.307511 0
M  V30 3330 H 319.542 3.39413 1.85299 0
M  V30 3331 H 321.231 3.72948 1.60201 0
M  V30 3332 H 321.997 4.80827 -0.634873 0
M  V30 3333 H 317.876 4.57476 0.568902 0
M  V30 3334 H 321.42 6.61464 -2.21611 0
M  V30 3335 H 317.317 6.37634 -1.00468 0
M  V30 3336 H 318.085 7.7841 -2.53023 0
M  V30 3337 N 320.748 -0.0735177 1.57428 0
M  V30 3338 C 321.976 -0.785969 1.9139 0
M  V30 3339 C 322.391 -1.71207 0.795847 0
M  V30 3340 O 321.748 -1.81033 -0.230915 0
M  V30 3341 C 321.799 -1.58107 3.25091 0
M  V30 3342 O 321.52 -0.6922 4.32597 0
M  V30 3343 C 323.021 -2.39467 3.73055 0
M  V30 3344 H 320.241 -0.223558 0.632663 0
M  V30 3345 H 322.785 -0.044302 2.04452 0
M  V30 3346 H 320.94 -2.27503 3.13562 0
M  V30 3347 H 321.354 -1.24504 5.09508 0
M  V30 3348 H 322.828 -2.90716 4.69242 0
M  V30 3349 H 323.305 -3.18913 3.01979 0
M  V30 3350 H 323.911 -1.7523 3.87523 0
M  V30 3351 N 322.226 -1.5378 -0.344866 0
M  V30 3352 C 323.642 -1.44015 -0.687888 0
M  V30 3353 C 323.842 -0.595834 -1.92489 0
M  V30 3354 O 322.898 -0.0863064 -2.52352 0
M  V30 3355 C 324.211 -2.87481 -0.881758 0
M  V30 3356 C 325.759 -2.97247 -0.980459 0
M  V30 3357 C 326.234 -4.41819 -1.20665 0
M  V30 3358 N 327.725 -4.45339 -1.27389 0
M  V30 3359 C 328.46 -5.54333 -1.46639 0
M  V30 3360 N 327.956 -6.73335 -1.63071 0
M  V30 3361 N 329.749 -5.41944 -1.49176 0
M  V30 3362 H 321.9 -2.07169 0.468475 0
M  V30 3363 H 324.163 -0.93643 0.147655 0
M  V30 3364 H 323.869 -3.51672 -0.0443444 0
M  V30 3365 H 323.743 -3.32352 -1.78388 0
M  V30 3366 H 326.13 -2.33197 -1.8084 0
M  V30 3367 H 326.211 -2.5574 -0.0552713 0
M  V30 3368 H 325.855 -5.06449 -0.383652 0
M  V30 3369 H 325.785 -4.80917 -2.14539 0
M  V30 3370 H 328.276 -3.59585 -1.1622 0
M  V30 3371 H 328.589 -7.52165 -1.77391 0
M  V30 3372 H 326.934 -6.76282 -1.60209 0
M  V30 3373 H 330.125 -4.47932 -1.3592 0
M  V30 3374 H 330.298 -6.26946 -1.63837 0
M  V30 3375 N 323.704 0.605807 -1.45491 0
M  V30 3376 C 324.929 1.39625 -1.53361 0
M  V30 3377 C 325.354 1.87351 -0.167645 0
M  V30 3378 O 324.712 1.60243 0.848051 0
M  V30 3379 C 324.76 2.57559 -2.5238 0
M  V30 3380 O 323.864 3.58248 -2.04285 0
M  V30 3381 H 323.205 0.416771 -0.516912 0
M  V30 3382 H 325.735 0.737103 -1.90861 0
M  V30 3383 H 325.745 3.0478 -2.71244 0
M  V30 3384 H 324.42 2.22171 -3.51586 0
M  V30 3385 H 322.997 3.17664 -1.95305 0
M  V30 3386 N 325.182 1.32811 0.848464 0
M  V30 3387 C 326.428 1.23907 1.60546 0
M  V30 3388 C 326.761 -0.197161 1.93197 0
M  V30 3389 O 326.036 -1.13596 1.5788 0
M  V30 3390 C 326.319 2.10489 2.92175 0
M  V30 3391 C 326.172 3.62522 2.66266 0
M  V30 3392 C 327.491 1.97075 3.93509 0
M  V30 3393 H 324.61 0.451459 0.58254 0
M  V30 3394 H 327.252 1.62818 0.979296 0
M  V30 3395 H 325.402 1.77434 3.45614 0
M  V30 3396 H 327.074 4.05821 2.19334 0
M  V30 3397 H 325.317 3.84879 2.00126 0
M  V30 3398 H 325.988 4.18437 3.6002 0
M  V30 3399 H 328.464 2.26045 3.49346 0
M  V30 3400 H 327.34 2.59923 4.83457 0
M  V30 3401 H 327.601 0.940186 4.31987 0
M  V30 3402 N 326.66 -1.06551 1.16123 0
M  V30 3403 C 327.906 -1.79567 0.94252 0
M  V30 3404 C 328.239 -1.86869 -0.528547 0
M  V30 3405 O 327.514 -1.35838 -1.39206 0
M  V30 3406 C 327.797 -3.24195 1.56747 0
M  V30 3407 C 327.65 -3.24989 3.10969 0
M  V30 3408 C 328.969 -4.21678 1.25998 0
M  V30 3409 H 326.088 -0.651883 0.343828 0
M  V30 3410 H 328.73 -1.2463 1.43413 0
M  V30 3411 H 326.88 -3.71107 1.14942 0
M  V30 3412 H 328.552 -2.86258 3.61737 0
M  V30 3413 H 326.795 -2.63716 3.44436 0
M  V30 3414 H 327.466 -4.27005 3.49815 0
M  V30 3415 H 329.942 -3.83196 1.62174 0
M  V30 3416 H 328.818 -5.21146 1.7233 0
M  V30 3417 H 329.079 -4.4174 0.178367 0
M  V30 3418 N 328.138 -0.959301 -1.25041 0
M  V30 3419 C 329.048 -0.489994 -2.29426 0
M  V30 3420 C 330.064 0.444944 -1.68215 0
M  V30 3421 O 331.24 0.320046 -1.98841 0
M  V30 3422 C 328.305 0.220309 -3.45999 0
M  V30 3423 C 327.366 -0.753418 -4.22637 0
M  V30 3424 C 326.599 -0.076918 -5.33645 0
M  V30 3425 O 326.822 1.13649 -5.58963 0
M  V30 3426 O 325.756 -0.764824 -5.97021 0
M  V30 3427 H 329.582 -1.35755 -2.71669 0
M  V30 3428 H 327.167 -0.725961 -1.30576 0
M  V30 3429 H 329.049 0.619677 -4.16819 0
M  V30 3430 H 327.724 1.06296 -3.0575 0
M  V30 3431 H 326.631 -1.20308 -3.54227 0
M  V30 3432 H 327.964 -1.56423 -4.66683 0
M  V30 3433 N 329.616 1.39756 -0.72842 0
M  V30 3434 C 330.841 2.05472 -0.282159 0
M  V30 3435 C 331.266 1.54549 1.07221 0
M  V30 3436 O 330.624 0.686372 1.67805 0
M  V30 3437 C 330.672 3.59462 -0.286264 0
M  V30 3438 O 329.776 4.05918 0.728298 0
M  V30 3439 H 329.117 0.651226 -0.129618 0
M  V30 3440 H 331.647 1.78915 -0.992499 0
M  V30 3441 H 331.657 4.07798 -0.128373 0
M  V30 3442 H 330.332 3.95889 -1.27456 0
M  V30 3443 H 328.909 3.69012 0.537081 0
M  V30 3444 N 331.094 0.475555 1.50254 0
M  V30 3445 C 332.343 -0.0795996 2.01543 0
M  V30 3446 C 332.656 -1.4038 1.36209 0
M  V30 3447 O 333.862 -2.04415 1.7868 0
M  V30 3448 C 332.318 -0.192363 3.59386 0
M  V30 3449 C 331.926 1.12367 4.33679 0
M  V30 3450 C 333.67 -0.699238 4.18701 0
M  V30 3451 C 331.577 0.974453 5.83317 0
M  V30 3452 H 330.507 -0.0335228 0.753254 0
M  V30 3453 H 333.158 0.611128 1.73025 0
M  V30 3454 H 331.54 -0.946974 3.84511 0
M  V30 3455 H 332.714 1.88958 4.20276 0
M  V30 3456 H 331.029 1.562 3.85993 0
M  V30 3457 H 333.626 -0.827978 5.28251 0
M  V30 3458 H 333.969 -1.69171 3.80377 0
M  V30 3459 H 334.502 -0.00188807 3.978 0
M  V30 3460 H 331.241 1.94042 6.26121 0
M  V30 3461 H 330.761 0.248998 5.99283 0
M  V30 3462 H 332.44 0.642867 6.43798 0
M  V30 3463 N 332.573 -1.56217 0.208337 0
M  V30 3464 C 333.536 -2.18455 -0.693557 0
M  V30 3465 C 334.536 -1.14268 -1.13135 0
M  V30 3466 O 335.726 -1.39577 -1.0423 0
M  V30 3467 C 332.858 -2.79727 -1.94848 0
M  V30 3468 H 334.051 -2.99519 -0.15114 0
M  V30 3469 H 331.604 -1.56245 -0.041287 0
M  V30 3470 H 332.339 -2.02497 -2.53309 0
M  V30 3471 H 332.124 -3.56009 -1.64316 0
M  V30 3472 H 333.614 -3.27475 -2.59133 0
M  V30 3473 N 334.051 0.0651679 -1.57465 0
M  V30 3474 C 335.276 0.779605 -1.9219 0
M  V30 3475 C 335.701 1.69988 -0.805333 0
M  V30 3476 O 335.059 1.79685 0.241435 0
M  V30 3477 C 335.107 1.54364 -3.2589 0
M  V30 3478 O 334.211 2.65474 -3.1559 0
M  V30 3479 H 333.552 0.212249 -0.629163 0
M  V30 3480 H 336.082 0.0314294 -2.04576 0
M  V30 3481 H 336.092 1.92146 -3.59922 0
M  V30 3482 H 334.767 0.868457 -4.06732 0
M  V30 3483 H 333.344 2.30501 -2.93128 0
M  V30 3484 N 335.529 1.53961 0.336706 0
M  V30 3485 C 336.94 1.62914 0.911925 0
M  V30 3486 C 337.291 0.514795 1.89326 0
M  V30 3487 O 336.416 -0.354395 2.13478 0
M  V30 3488 C 337.011 2.95304 1.66076 0
M  V30 3489 C 335.57 3.06496 2.18489 0
M  V30 3490 C 334.717 2.58403 1.00613 0
M  V30 3491 H 337.668 1.58285 0.114649 0
M  V30 3492 H 337.689 2.84727 2.5241 0
M  V30 3493 H 337.201 3.76387 0.946276 0
M  V30 3494 H 335.302 2.3006 2.93092 0
M  V30 3495 H 335.415 4.1208 2.44391 0
M  V30 3496 H 333.779 2.13977 1.38152 0
M  V30 3497 H 334.562 3.41932 0.306179 0
M  V30 3498 N 337.007 -0.598083 1.45811 0
M  V30 3499 C 337.97 -1.69018 1.54808 0
M  V30 3500 C 338.97 -1.55037 0.426652 0
M  V30 3501 O 340.16 -1.59932 0.690456 0
M  V30 3502 C 337.292 -3.0835 1.45371 0
M  V30 3503 H 338.485 -1.62403 2.52121 0
M  V30 3504 H 336.038 -0.814626 1.33392 0
M  V30 3505 H 336.773 -3.20534 0.492793 0
M  V30 3506 H 336.558 -3.19907 2.26721 0
M  V30 3507 H 338.048 -3.8788 1.54721 0
M  V30 3508 N 338.485 -1.33259 -0.841409 0
M  V30 3509 C 339.731 -1.24757 -1.59886 0
M  V30 3510 C 340.064 0.186913 -1.93298 0
M  V30 3511 O 339.339 1.12757 -1.5848 0
M  V30 3512 C 339.622 -2.12036 -2.91055 0
M  V30 3513 C 339.475 -3.63929 -2.6434 0
M  V30 3514 C 340.794 -1.9916 -3.92458 0
M  V30 3515 H 337.913 -0.454542 -0.580138 0
M  V30 3516 H 340.555 -1.63335 -0.970647 0
M  V30 3517 H 338.705 -1.79265 -3.44669 0
M  V30 3518 H 340.377 -4.06978 -2.17178 0
M  V30 3519 H 338.62 -3.85935 -1.98082 0
M  V30 3520 H 339.291 -4.20341 -3.57796 0
M  V30 3521 H 341.767 -2.27895 -3.48143 0
M  V30 3522 H 340.643 -2.62484 -4.82072 0
M  V30 3523 H 340.904 -0.963082 -4.31482 0
M  V30 3524 N 339.963 1.05934 -1.16686 0
M  V30 3525 C 341.374 1.60263 -0.957745 0
M  V30 3526 C 341.725 1.89789 0.49745 0
M  V30 3527 O 340.85 1.67401 1.37135 0
M  V30 3528 C 341.445 2.91172 -1.73218 0
M  V30 3529 C 340.004 3.42188 -1.56794 0
M  V30 3530 C 339.151 2.16028 -1.73859 0
M  V30 3531 H 342.102 0.888392 -1.31504 0
M  V30 3532 H 342.123 3.60744 -1.21014 0
M  V30 3533 H 341.635 2.6965 -2.79124 0
M  V30 3534 H 339.736 3.68762 -0.533437 0
M  V30 3535 H 339.849 4.17273 -2.35414 0
M  V30 3536 H 338.213 2.26426 -1.16633 0
M  V30 3537 H 338.996 1.96985 -2.81161 0
M  V30 3538 N 341.441 0.965919 1.2453 0
M  V30 3539 C 342.389 0.486506 2.27455 0
M  V30 3540 C 343.383 -0.449041 1.6334 0
M  V30 3541 O 344.589 -0.324527 1.7705 0
M  V30 3542 H 340.964 0.138857 0.739069 0
M  V30 3543 H 342.935 1.3666 2.65267 0
M  V30 3544 C 341.684 -0.209481 3.47068 0
M  V30 3545 H 341.007 0.50129 3.96645 0
M  V30 3546 H 342.447 -0.508775 4.20936 0
M  V30 3547 C 340.906 -1.43586 3.0477 0
M  V30 3548 O 341.436 -2.53299 3.11773 0
M  V30 3549 N 339.642 -1.30126 2.59838 0
M  V30 3550 H 339.189 -0.408583 2.54339 0
M  V30 3551 H 339.147 -2.12294 2.31902 0
M  V30 3552 N 342.919 -1.39368 0.735821 0
M  V30 3553 C 343.866 -2.30599 0.0963825 0
M  V30 3554 C 344.836 -1.49257 -0.728794 0
M  V30 3555 O 346.021 -1.77941 -0.688588 0
M  V30 3556 C 343.161 -3.35596 -0.804305 0
M  V30 3557 C 342.274 -4.31987 0.0335761 0
M  V30 3558 C 341.409 -5.24053 -0.868461 0
M  V30 3559 C 340.448 -6.12095 -0.0258776 0
M  V30 3560 N 339.585 -6.96514 -0.883893 0
M  V30 3561 H 344.425 -2.8471 0.880002 0
M  V30 3562 H 341.962 -1.40188 0.445619 0
M  V30 3563 H 343.92 -3.95062 -1.34096 0
M  V30 3564 H 342.55 -2.82938 -1.55389 0
M  V30 3565 H 341.602 -3.74133 0.68766 0
M  V30 3566 H 342.914 -4.94074 0.685036 0
M  V30 3567 H 342.068 -5.88549 -1.47293 0
M  V30 3568 H 340.807 -4.62289 -1.5537 0
M  V30 3569 H 339.812 -5.4661 0.591386 0
M  V30 3570 H 341.037 -6.75923 0.656156 0
M  V30 3571 H 338.983 -6.37318 -1.55441 0
M  V30 3572 H 338.9 -7.55448 -0.288931 0
M  V30 3573 H 340.168 -7.65439 -1.4739 0
M  V30 3574 N 344.397 -0.483516 -1.5 0
M  V30 3575 C 345.307 0.309172 -2.32554 0
M  V30 3576 C 346.323 0.984159 -1.43493 0
M  V30 3577 O 347.499 0.969399 -1.76535 0
M  V30 3578 C 344.564 1.36979 -3.18493 0
M  V30 3579 C 343.625 0.710095 -4.23387 0
M  V30 3580 C 342.858 1.72018 -5.05218 0
M  V30 3581 O 343.081 2.94813 -4.88305 0
M  V30 3582 O 342.015 1.28515 -5.8802 0
M  V30 3583 H 345.841 -0.366064 -3.01486 0
M  V30 3584 H 343.426 -0.24514 -1.47375 0
M  V30 3585 H 345.308 1.98385 -3.71781 0
M  V30 3586 H 343.983 2.02828 -2.52275 0
M  V30 3587 H 342.89 0.0567539 -3.74057 0
M  V30 3588 H 344.223 0.0943557 -4.9211 0
M  V30 3589 N 345.875 1.56104 -0.216619 0
M  V30 3590 C 347.121 1.98466 0.417033 0
M  V30 3591 C 347.454 1.10403 1.59765 0
M  V30 3592 O 346.729 0.160632 1.93836 0
M  V30 3593 C 347.012 3.49769 0.85637 0
M  V30 3594 C 346.865 4.48606 -0.327546 0
M  V30 3595 C 348.184 4.05339 1.7143 0
M  V30 3596 H 345.303 0.721551 0.150112 0
M  V30 3597 H 347.945 1.87423 -0.311864 0
M  V30 3598 H 346.095 3.5931 1.47745 0
M  V30 3599 H 347.767 4.5108 -0.965618 0
M  V30 3600 H 346.01 4.22682 -0.975805 0
M  V30 3601 H 346.681 5.51995 0.0227149 0
M  V30 3602 H 349.157 3.98712 1.19031 0
M  V30 3603 H 348.033 5.11533 1.99061 0
M  V30 3604 H 348.294 3.51918 2.67593 0
M  V30 3605 N 347.353 -0.0568162 1.57498 0
M  V30 3606 C 348.581 -0.765626 1.92213 0
M  V30 3607 C 348.996 -1.70353 0.813961 0
M  V30 3608 O 348.353 -1.81268 -0.211701 0
M  V30 3609 C 348.404 -1.5465 3.2675 0
M  V30 3610 O 348.125 -0.646278 4.33307 0
M  V30 3611 C 349.626 -2.35497 3.75574 0
M  V30 3612 H 346.846 -0.216835 0.634999 0
M  V30 3613 H 349.39 -0.0226146 2.04487 0
M  V30 3614 H 347.545 -2.24165 3.15957 0
M  V30 3615 H 347.959 -1.19093 5.108 0
M  V30 3616 H 349.433 -2.85722 4.72299 0
M  V30 3617 H 349.91 -3.15692 3.05344 0
M  V30 3618 H 350.516 -1.7111 3.8936 0
M  V30 3619 N 348.832 -1.54138 -0.328536 0
M  V30 3620 C 350.243 -1.63395 -0.903272 0
M  V30 3621 C 350.594 -0.524828 -1.8905 0
M  V30 3622 O 349.719 0.343068 -2.13663 0
M  V30 3623 C 350.314 -2.9618 -1.64507 0
M  V30 3624 C 348.873 -3.0765 -2.1686 0
M  V30 3625 C 348.02 -2.58933 -0.992416 0
M  V30 3626 H 350.971 -1.58344 -0.106253 0
M  V30 3627 H 350.992 -2.86061 -2.50897 0
M  V30 3628 H 350.504 -3.76884 -0.926302 0
M  V30 3629 H 348.605 -2.31611 -2.91868 0
M  V30 3630 H 348.718 -4.1337 -2.42202 0
M  V30 3631 H 347.082 -2.14706 -1.37016 0
M  V30 3632 H 347.865 -3.42089 -0.288041 0
M  V30 3633 N 350.31 0.590341 -1.46126 0
M  V30 3634 C 351.721 1.17243 -1.45296 0
M  V30 3635 C 352.072 1.95281 -0.189723 0
M  V30 3636 O 351.197 2.04502 0.707674 0
M  V30 3637 C 351.792 2.13284 -2.6324 0
M  V30 3638 C 350.351 2.66832 -2.65476 0
M  V30 3639 C 349.498 1.42557 -2.3785 0
M  V30 3640 H 352.449 0.378692 -1.54116 0
M  V30 3641 H 352.47 2.96619 -2.38323 0
M  V30 3642 H 351.982 1.56459 -3.55165 0
M  V30 3643 H 350.083 3.27548 -1.77603 0
M  V30 3644 H 350.196 3.10088 -3.65215 0
M  V30 3645 H 348.56 1.72107 -1.87753 0
M  V30 3646 H 349.343 0.875741 -3.31942 0
M  V30 3647 N 351.788 1.33704 0.83433 0
M  V30 3648 C 353.013 1.28615 1.62705 0
M  V30 3649 C 353.438 -0.139242 1.87584 0
M  V30 3650 O 352.796 -1.09734 1.4432 0
M  V30 3651 C 352.844 2.07139 2.95171 0
M  V30 3652 O 351.948 1.4331 3.86699 0
M  V30 3653 H 351.289 0.44226 0.49528 0
M  V30 3654 H 353.819 1.76335 1.03766 0
M  V30 3655 H 353.829 2.18073 3.44831 0
M  V30 3656 H 352.504 3.10779 2.76386 0
M  V30 3657 H 351.081 1.4105 3.45195 0
M  V30 3658 N 353.266 -1.05314 1.17247 0
M  V30 3659 C 354.229 -2.112 0.890357 0
M  V30 3660 C 355.229 -1.60359 -0.118943 0
M  V30 3661 O 356.419 -1.73833 0.113086 0
M  V30 3662 C 353.551 -3.39266 0.333422 0
M  V30 3663 H 354.744 -2.37659 1.82916 0
M  V30 3664 H 352.297 -1.21538 0.982758 0
M  V30 3665 H 353.032 -3.18462 -0.612587 0
M  V30 3666 H 352.817 -3.77477 1.06082 0
M  V30 3667 H 354.307 -4.17315 0.154322 0
M  V30 3668 N 354.744 -0.972509 -1.24016 0
M  V30 3669 C 355.654 -0.5143 -2.28893 0
M  V30 3670 C 356.67 0.427078 -1.68677 0
M  V30 3671 O 357.846 0.298939 -1.99169 0
M  V30 3672 C 354.911 0.183598 -3.46214 0
M  V30 3673 C 353.972 -0.798202 -4.21814 0
M  V30 3674 C 353.205 -0.133514 -5.33533 0
M  V30 3675 O 353.428 1.07714 -5.60137 0
M  V30 3676 O 352.362 -0.828103 -5.96176 0
M  V30 3677 H 356.188 -1.38629 -2.70214 0
M  V30 3678 H 353.773 -0.739769 -1.29799 0
M  V30 3679 H 355.655 0.575433 -4.17453 0
M  V30 3680 H 354.33 1.03048 -3.0686 0
M  V30 3681 H 353.237 -1.24059 -3.52931 0
M  V30 3682 H 354.57 -1.61364 -4.64997 0
M  V30 3683 N 356.222 1.38976 -0.743202 0
M  V30 3684 C 357.17 2.32394 -0.0978389 0
M  V30 3685 C 358.164 1.53486 0.716824 0
M  V30 3686 O 359.37 1.69092 0.617088 0
M  V30 3687 H 355.745 0.75189 -0.0128402 0
M  V30 3688 H 357.716 2.84441 -0.901981 0
M  V30 3689 C 356.465 3.38629 0.789036 0
M  V30 3690 H 355.788 3.99432 0.171559 0
M  V30 3691 H 357.228 4.06426 1.20807 0
M  V30 3692 C 355.687 2.76347 1.92702 0
M  V30 3693 O 356.217 2.64836 3.02034 0
M  V30 3694 N 354.423 2.34311 1.71891 0
M  V30 3695 H 353.97 2.43873 0.829675 0
M  V30 3696 H 353.928 1.9298 2.48205 0
M  V30 3697 N 357.7 0.491464 1.49741 0
M  V30 3698 C 358.663 -0.280906 2.27472 0
M  V30 3699 C 359.663 -0.902454 1.33088 0
M  V30 3700 O 360.853 -0.768465 1.56334 0
M  V30 3701 C 357.985 -1.40209 3.10732 0
M  V30 3702 H 359.178 0.401056 2.97206 0
M  V30 3703 H 356.731 0.246131 1.5435 0
M  V30 3704 H 357.466 -2.11849 2.45541 0
M  V30 3705 H 357.251 -0.961969 3.80117 0
M  V30 3706 H 358.741 -1.9464 3.69466 0
M  V30 3707 N 359.178 -1.55987 0.224894 0
M  V30 3708 C 360.126 -2.21808 -0.700283 0
M  V30 3709 C 361.12 -1.19854 -1.19714 0
M  V30 3710 O 362.326 -1.37925 -1.15658 0
M  V30 3711 H 358.701 -0.711226 -0.244258 0
M  V30 3712 H 360.672 -2.98152 -0.121749 0
M  V30 3713 C 359.421 -2.91444 -1.8962 0
M  V30 3714 H 358.744 -3.69655 -1.52299 0
M  V30 3715 H 360.184 -3.40894 -2.52125 0
M  V30 3716 C 358.643 -1.94098 -2.75368 0
M  V30 3717 O 359.173 -1.46004 -3.74227 0
M  V30 3718 N 357.379 -1.61675 -2.41474 0
M  V30 3719 H 356.926 -2.00979 -1.61137 0
M  V30 3720 H 356.884 -0.968036 -2.99126 0
M  V30 3721 N 360.656 0.0484629 -1.57525 0
M  V30 3722 C 361.881 0.759177 -1.93006 0
M  V30 3723 C 362.306 1.69125 -0.823317 0
M  V30 3724 O 361.664 1.79931 0.222364 0
M  V30 3725 C 361.712 1.50899 -3.27509 0
M  V30 3726 O 360.816 2.62112 -3.18388 0
M  V30 3727 H 360.157 0.205564 -0.631379 0
M  V30 3728 H 362.687 0.00972959 -2.04598 0
M  V30 3729 H 362.697 1.88317 -3.6194 0
M  V30 3730 H 361.372 0.825269 -4.0763 0
M  V30 3731 H 359.949 2.27379 -2.95556 0
M  V30 3732 N 362.134 1.5431 0.320358 0
M  V30 3733 C 363.359 1.76954 1.08175 0
M  V30 3734 C 363.784 0.518193 1.80821 0
M  V30 3735 O 363.142 -0.530411 1.73368 0
M  V30 3736 C 363.19 2.96451 2.05303 0
M  V30 3737 O 362.294 2.68221 3.13259 0
M  V30 3738 H 361.635 0.586275 0.311733 0
M  V30 3739 H 364.165 2.01342 0.363676 0
M  V30 3740 H 364.175 3.23887 2.48116 0
M  V30 3741 H 362.85 3.87196 1.51829 0
M  V30 3742 H 361.427 2.51744 2.75099 0
M  V30 3743 N 363.613 -0.582584 1.46437 0
M  V30 3744 C 364.841 -1.36682 1.55324 0
M  V30 3745 C 365.256 -1.87796 0.194409 0
M  V30 3746 O 364.613 -1.63623 -0.808318 0
M  V30 3747 C 364.664 -2.55426 2.55812 0
M  V30 3748 O 364.385 -2.0643 3.86417 0
M  V30 3749 C 365.886 -3.47976 2.74641 0
M  V30 3750 H 363.106 -0.417545 0.525259 0
M  V30 3751 H 365.65 -0.708219 1.91845 0
M  V30 3752 H 363.805 -3.17275 2.22295 0
M  V30 3753 H 364.219 -2.83762 4.41111 0
M  V30 3754 H 365.693 -4.27775 3.48874 0
M  V30 3755 H 366.17 -3.99919 1.81553 0
M  V30 3756 H 366.776 -2.91962 3.09255 0
M  V30 3757 N 365.091 -1.34144 -0.827227 0
M  V30 3758 C 366.021 -1.28005 -1.95287 0
M  V30 3759 C 367.002 -0.158321 -1.69362 0
M  V30 3760 O 368.187 -0.349987 -1.9102 0
M  V30 3761 C 365.317 -1.03036 -3.31664 0
M  V30 3762 C 364.271 -2.11628 -3.72019 0
M  V30 3763 C 363.597 -1.71854 -5.0633 0
M  V30 3764 C 364.897 -3.53417 -3.8457 0
M  V30 3765 H 366.591 -2.22187 -2.00682 0
M  V30 3766 H 364.137 -1.0696 -0.964135 0
M  V30 3767 H 366.09 -0.973863 -4.09993 0
M  V30 3768 H 364.814 -0.0529391 -3.26557 0
M  V30 3769 H 363.473 -2.16339 -2.95961 0
M  V30 3770 H 363.121 -0.727841 -4.97706 0
M  V30 3771 H 362.821 -2.44531 -5.34302 0
M  V30 3772 H 364.345 -1.67692 -5.87122 0
M  V30 3773 H 365.759 -3.51142 -4.5318 0
M  V30 3774 H 364.156 -4.24679 -4.2399 0
M  V30 3775 H 365.226 -3.91072 -2.86689 0
M  V30 3776 N 366.569 1.04691 -1.17803 0
M  V30 3777 C 367.799 1.81183 -0.992788 0
M  V30 3778 C 368.207 1.8347 0.462098 0
M  V30 3779 O 367.55 1.2643 1.33271 0
M  V30 3780 C 367.612 3.28363 -1.46349 0
M  V30 3781 C 367.276 3.49749 -2.94151 0
M  V30 3782 C 368.273 3.41456 -3.92051 0
M  V30 3783 C 365.958 3.76548 -3.32441 0
M  V30 3784 C 367.952 3.59656 -5.26238 0
M  V30 3785 C 365.639 3.94396 -4.66792 0
M  V30 3786 C 366.637 3.8595 -5.635 0
M  V30 3787 O 366.325 4.03294 -6.9542 0
M  V30 3788 H 366.057 0.577622 -0.351182 0
M  V30 3789 H 368.611 1.32876 -1.5663 0
M  V30 3790 H 366.841 3.77609 -0.833574 0
M  V30 3791 H 368.53 3.86395 -1.24313 0
M  V30 3792 H 369.296 3.20723 -3.63815 0
M  V30 3793 H 365.175 3.82224 -2.57732 0
M  V30 3794 H 368.719 3.52979 -6.01707 0
M  V30 3795 H 364.616 4.14622 -4.94731 0
M  V30 3796 H 365.384 4.2049 -7.02232 0
M  V30 3797 N 368.047 0.979072 1.23499 0
M  V30 3798 C 369.463 0.687475 1.44034 0
M  V30 3799 C 369.663 -0.746801 1.8715 0
M  V30 3800 O 368.719 -1.51939 2.0167 0
M  V30 3801 C 370.032 1.68127 2.49307 0
M  V30 3802 C 371.58 1.69516 2.63122 0
M  V30 3803 C 372.055 2.67723 3.71603 0
M  V30 3804 N 373.546 2.66233 3.79044 0
M  V30 3805 C 374.281 3.38891 4.62537 0
M  V30 3806 N 373.777 4.21103 5.50131 0
M  V30 3807 N 375.57 3.27661 4.56721 0
M  V30 3808 H 367.721 1.90559 0.938135 0
M  V30 3809 H 369.984 0.821051 0.473897 0
M  V30 3810 H 369.69 2.70693 2.2454 0
M  V30 3811 H 369.564 1.46306 3.4767 0
M  V30 3812 H 371.951 0.676561 2.8724 0
M  V30 3813 H 372.032 1.95404 1.65079 0
M  V30 3814 H 371.676 3.69724 3.48233 0
M  V30 3815 H 371.606 2.39111 4.69184 0
M  V30 3816 H 374.097 2.06568 3.16446 0
M  V30 3817 H 374.41 4.73403 6.10827 0
M  V30 3818 H 372.755 4.25195 5.49759 0
M  V30 3819 H 375.946 2.62887 3.87309 0
M  V30 3820 H 376.119 3.84547 5.21562 0
M  V30 3821 N 369.525 -1.3858 0.750561 0
M  V30 3822 C 370.473 -2.32339 0.110162 0
M  V30 3823 C 371.467 -1.53864 -0.708674 0
M  V30 3824 O 372.673 -1.69417 -0.608112 0
M  V30 3825 H 369.048 -0.751812 0.0168275 0
M  V30 3826 H 371.019 -2.83959 0.917053 0
M  V30 3827 C 369.768 -3.39043 -0.771067 0
M  V30 3828 H 369.091 -3.99517 -0.150374 0
M  V30 3829 H 370.531 -4.07061 -1.1865 0
M  V30 3830 C 368.99 -2.77365 -1.91234 0
M  V30 3831 O 369.52 -2.66434 -3.00626 0
M  V30 3832 N 367.726 -2.35219 -1.70646 0
M  V30 3833 H 367.273 -2.4431 -0.81673 0
M  V30 3834 H 367.231 -1.94294 -2.47178 0
M  V30 3835 N 371.003 -0.499398 -1.49478 0
M  V30 3836 C 372.231 0.0425456 -2.06856 0
M  V30 3837 C 372.646 1.30964 -1.35992 0
M  V30 3838 O 372.003 1.77172 -0.437762 0
M  V30 3839 C 372.054 0.301735 -3.60239 0
M  V30 3840 O 371.775 -0.915127 -4.28436 0
M  V30 3841 C 373.276 0.887499 -4.34325 0
M  V30 3842 H 370.496 -0.0197482 -0.670709 0
M  V30 3843 H 373.04 -0.696297 -1.92281 0
M  V30 3844 H 371.195 0.990556 -3.74522 0
M  V30 3845 H 371.609 -0.676993 -5.20113 0
M  V30 3846 H 373.083 1.01845 -5.42523 0
M  V30 3847 H 373.56 1.88488 -3.96698 0
M  V30 3848 H 374.166 0.236196 -4.24644 0
M  V30 3849 N 372.481 1.55866 -0.233164 0
M  V30 3850 C 373.758 1.90471 0.444988 0
M  V30 3851 C 374.138 1.15209 1.7689 0
M  V30 3852 O 373.486 0.265119 2.26957 0
M  V30 3853 C 373.696 3.4333 0.626559 0
M  V30 3854 C 375.044 4.14319 0.92871 0
M  V30 3855 O 376.068 3.48993 0.712926 0
M  V30 3856 O 374.927 5.29846 1.33887 0
M  V30 3857 H 372.021 0.792347 0.236885 0
M  V30 3858 H 374.567 1.67437 -0.276211 0
M  V30 3859 H 373.339 3.90095 -0.306822 0
M  V30 3860 H 372.962 3.72181 1.39881 0
M  V30 3861 N 373.959 -0.0401083 1.57549 0
M  V30 3862 C 375.375 -0.395556 1.54621 0
M  V30 3863 C 375.575 -1.77281 0.957799 0
M  V30 3864 O 374.631 -2.45888 0.574031 0
M  V30 3865 C 375.944 -0.307535 2.99123 0
M  V30 3866 C 377.492 -0.385425 3.10618 0
M  V30 3867 C 377.967 -0.326973 4.56831 0
M  V30 3868 N 379.458 -0.386102 4.61588 0
M  V30 3869 C 380.193 -0.363591 5.72246 0
M  V30 3870 N 379.689 -0.29402 6.92176 0
M  V30 3871 N 381.482 -0.412503 5.60584 0
M  V30 3872 H 373.633 0.861325 1.94152 0
M  V30 3873 H 375.896 0.326445 0.890021 0
M  V30 3874 H 375.602 0.638461 3.45856 0
M  V30 3875 H 375.476 -1.10552 3.60636 0
M  V30 3876 H 377.863 -1.32185 2.63839 0
M  V30 3877 H 377.944 0.44171 2.51957 0
M  V30 3878 H 377.588 0.605738 5.04275 0
M  V30 3879 H 377.518 -1.17207 5.13391 0
M  V30 3880 H 380.009 -0.442832 3.75296 0
M  V30 3881 H 380.322 -0.28164 7.72287 0
M  V30 3882 H 378.667 -0.260232 6.94513 0
M  V30 3883 H 381.858 -0.464769 4.65787 0
M  V30 3884 H 382.031 -0.391492 6.46816 0
M  V30 3885 N 375.437 -1.54477 -0.31217 0
M  V30 3886 C 376.369 -1.81011 -1.40598 0
M  V30 3887 C 377.382 -0.692546 -1.47335 0
M  V30 3888 O 378.571 -0.969847 -1.49854 0
M  V30 3889 C 375.671 -1.92307 -2.79054 0
M  V30 3890 C 374.844 -3.22594 -2.95384 0
M  V30 3891 C 373.903 -3.24448 -4.1427 0
M  V30 3892 O 372.929 -3.98035 -4.06887 0
M  V30 3893 N 374.131 -2.49042 -5.24365 0
M  V30 3894 H 376.896 -2.75408 -1.18196 0
M  V30 3895 H 374.457 -1.53914 -0.502202 0
M  V30 3896 H 376.449 -1.90962 -3.56813 0
M  V30 3897 H 375.019 -1.04955 -2.94454 0
M  V30 3898 H 374.239 -3.36806 -2.04831 0
M  V30 3899 H 375.527 -4.08593 -3.03198 0
M  V30 3900 H 374.925 -1.88867 -5.33241 0
M  V30 3901 H 373.482 -2.53463 -6.005 0
M  V30 3902 N 376.915 0.57481 -1.46744 0
M  V30 3903 C 378.331 0.898981 -1.31873 0
M  V30 3904 C 378.531 1.99313 -0.29605 0
M  V30 3905 O 377.587 2.50728 0.298621 0
M  V30 3906 C 378.9 1.30886 -2.7072 0
M  V30 3907 C 380.448 1.42127 -2.78871 0
M  V30 3908 C 380.923 1.86478 -4.18318 0
M  V30 3909 N 382.414 1.93658 -4.20774 0
M  V30 3910 C 383.149 2.29267 -5.2557 0
M  V30 3911 N 382.645 2.63612 -6.40688 0
M  V30 3912 N 384.438 2.29889 -5.1294 0
M  V30 3913 H 376.589 -0.147839 -2.11885 0
M  V30 3914 H 378.852 -0.00347013 -0.947994 0
M  V30 3915 H 378.558 0.578853 -3.46904 0
M  V30 3916 H 378.432 2.26874 -3.01343 0
M  V30 3917 H 380.819 2.14213 -2.0297 0
M  V30 3918 H 380.9 0.443705 -2.51922 0
M  V30 3919 H 380.544 1.14968 -4.94717 0
M  V30 3920 H 380.474 2.85207 -4.42679 0
M  V30 3921 H 382.965 1.69574 -3.37718 0
M  V30 3922 H 383.278 2.89759 -7.16421 0
M  V30 3923 H 381.623 2.61232 -6.44036 0
M  V30 3924 H 384.814 2.02485 -4.22039 0
M  V30 3925 H 384.987 2.57312 -5.94722 0
M  V30 3926 N 378.394 1.34581 0.820102 0
M  V30 3927 C 379.341 1.2639 1.93117 0
M  V30 3928 C 380.311 0.138554 1.65521 0
M  V30 3929 O 381.496 0.320004 1.88097 0
M  V30 3930 C 378.636 1.02812 3.29429 0
M  V30 3931 C 377.749 2.24146 3.693 0
M  V30 3932 C 376.884 1.93829 4.94574 0
M  V30 3933 C 375.923 3.1129 5.27034 0
M  V30 3934 N 375.06 2.80838 6.43486 0
M  V30 3935 H 379.9 2.21408 1.99455 0
M  V30 3936 H 377.437 1.10077 0.975784 0
M  V30 3937 H 379.395 0.871788 4.0799 0
M  V30 3938 H 378.025 0.114612 3.22596 0
M  V30 3939 H 377.077 2.50691 2.86109 0
M  V30 3940 H 378.389 3.11899 3.89257 0
M  V30 3941 H 377.543 1.74948 5.80929 0
M  V30 3942 H 376.282 1.03341 4.76626 0
M  V30 3943 H 375.287 3.30764 4.39175 0
M  V30 3944 H 376.512 4.02561 5.4692 0
M  V30 3945 H 374.458 1.92929 6.26988 0
M  V30 3946 H 374.375 3.62123 6.63629 0
M  V30 3947 H 375.643 2.65467 7.32903 0
M  V30 3948 N 379.872 -1.04064 1.18357 0
M  V30 3949 C 380.819 -2.12077 0.910603 0
M  V30 3950 C 381.789 -1.65421 -0.15 0
M  V30 3951 O 382.974 -1.90797 -0.0103614 0
M  V30 3952 C 380.114 -3.42252 0.442472 0
M  V30 3953 C 379.227 -4.0252 1.5685 0
M  V30 3954 C 378.362 -5.20657 1.05309 0
M  V30 3955 C 377.401 -5.72955 2.1538 0
M  V30 3956 N 376.538 -6.8238 1.65233 0
M  V30 3957 H 381.378 -2.34764 1.83548 0
M  V30 3958 H 378.915 -1.15157 0.915279 0
M  V30 3959 H 380.873 -4.16921 0.152534 0
M  V30 3960 H 379.503 -3.19712 -0.445428 0
M  V30 3961 H 378.555 -3.25178 1.97391 0
M  V30 3962 H 379.867 -4.37362 2.39824 0
M  V30 3963 H 379.021 -6.0244 0.717677 0
M  V30 3964 H 377.76 -4.87318 0.19293 0
M  V30 3965 H 376.765 -4.89793 2.49766 0
M  V30 3966 H 377.99 -6.08337 3.01832 0
M  V30 3967 H 375.936 -6.50917 0.815064 0
M  V30 3968 H 375.853 -7.16286 2.41805 0
M  V30 3969 H 377.121 -7.67788 1.34619 0
M  V30 3970 N 381.35 -0.985608 -1.22978 0
M  V30 3971 C 382.575 -0.675254 -1.961 0
M  V30 3972 C 383 0.752154 -1.72407 0
M  V30 3973 O 382.358 1.5131 -0.998751 0
M  V30 3974 C 382.406 -0.977899 -3.47087 0
M  V30 3975 O 381.51 -0.072685 -4.12336 0
M  V30 3976 H 380.851 -0.253443 -0.613728 0
M  V30 3977 H 383.381 -1.32061 -1.56272 0
M  V30 3978 H 383.391 -0.916739 -3.97567 0
M  V30 3979 H 382.066 -2.01807 -3.63657 0
M  V30 3980 H 380.643 -0.188703 -3.72422 0
M  V30 3981 N 382.828 1.3818 -0.7579 0
M  V30 3982 C 383.775 2.30416 -0.133057 0
M  V30 3983 C 384.745 1.50398 0.704957 0
M  V30 3984 O 385.93 1.79014 0.660192 0
M  V30 3985 C 383.07 3.36834 0.750813 0
M  V30 3986 C 382.183 4.31879 -0.102297 0
M  V30 3987 C 381.318 5.25368 0.784979 0
M  V30 3988 C 380.357 6.12058 -0.0715046 0
M  V30 3989 N 379.494 6.97832 0.772972 0
M  V30 3990 H 384.334 2.83274 -0.925186 0
M  V30 3991 H 381.871 1.39461 -0.467866 0
M  V30 3992 H 383.829 3.97145 1.27794 0
M  V30 3993 H 382.459 2.85374 1.50868 0
M  V30 3994 H 381.511 3.72991 -0.747095 0
M  V30 3995 H 382.823 4.92921 -0.763552 0
M  V30 3996 H 381.977 5.90818 1.37911 0
M  V30 3997 H 380.716 4.64703 1.47996 0
M  V30 3998 H 379.721 5.456 -0.678272 0
M  V30 3999 H 380.946 6.74793 -0.763606 0
M  V30 4000 H 378.892 6.3971 1.45282 0
M  V30 4001 H 378.809 7.55812 0.168709 0
M  V30 4002 H 380.077 7.67687 1.35194 0
M  V30 4003 N 384.306 0.507319 1.49211 0
M  V30 4004 C 385.239 -0.314509 2.26022 0
M  V30 4005 C 386.217 -0.964849 1.30879 0
M  V30 4006 O 387.401 -0.993707 1.6018 0
M  V30 4007 C 384.528 -1.44346 3.06402 0
M  V30 4008 C 383.574 -0.90685 4.16748 0
M  V30 4009 S 384.407 0.207392 5.35098 0
M  V30 4010 C 385.563 -0.924573 6.19033 0
M  V30 4011 H 385.796 0.337416 2.95379 0
M  V30 4012 H 383.329 0.292718 1.516 0
M  V30 4013 H 385.287 -2.09029 3.53295 0
M  V30 4014 H 383.948 -2.06702 2.36502 0
M  V30 4015 H 383.141 -1.75309 4.72528 0
M  V30 4016 H 382.743 -0.33712 3.72478 0
M  V30 4017 H 385.035 -1.82839 6.52362 0
M  V30 4018 H 385.978 -0.405248 7.06939 0
M  V30 4019 H 386.386 -1.19476 5.51712 0
M  V30 4020 N 385.784 -1.5574 0.241426 0
M  V30 4021 C 387.012 -2.03208 -0.389134 0
M  V30 4022 C 387.427 -1.12082 -1.51931 0
M  V30 4023 O 386.784 -0.134183 -1.82006 0
M  V30 4024 C 386.835 -3.50064 -0.902087 0
M  V30 4025 O 386.556 -4.37717 0.18305 0
M  V30 4026 C 388.057 -4.13268 -1.60389 0
M  V30 4027 H 385.277 -0.664509 -0.0931053 0
M  V30 4028 H 387.821 -2.0124 0.36369 0
M  V30 4029 H 385.976 -3.52583 -1.60511 0
M  V30 4030 H 386.39 -5.24097 -0.205579 0
M  V30 4031 H 387.864 -5.17733 -1.91458 0
M  V30 4032 H 388.341 -3.59434 -2.52397 0
M  V30 4033 H 388.947 -4.14655 -0.945576 0
M  V30 4034 N 387.262 0.0317525 -1.57568 0
M  V30 4035 C 388.539 0.758366 -1.803 0
M  V30 4036 C 388.919 1.93718 -0.838845 0
M  V30 4037 O 388.267 2.28187 0.119571 0
M  V30 4038 C 388.477 1.19392 -3.27943 0
M  V30 4039 C 389.825 1.61094 -3.92854 0
M  V30 4040 O 390.849 1.28857 -3.32076 0
M  V30 4041 O 389.708 2.20918 -4.99858 0
M  V30 4042 H 386.802 0.366514 -0.741348 0
M  V30 4043 H 389.348 0.00873765 -1.69698 0
M  V30 4044 H 388.12 0.352275 -3.89711 0
M  V30 4045 H 387.743 2.00365 -3.43424 0
M  V30 4046 N 388.74 1.54641 0.303973 0
M  V30 4047 C 389.65 1.88439 1.39743 0
M  V30 4048 C 390.666 0.778239 1.55626 0
M  V30 4049 O 391.842 1.07442 1.70347 0
M  V30 4050 C 388.907 2.12212 2.74166 0
M  V30 4051 C 387.968 3.35936 2.67293 0
M  V30 4052 C 387.201 3.58566 3.95305 0
M  V30 4053 O 387.424 2.84263 4.9452 0
M  V30 4054 O 386.358 4.52078 3.97378 0
M  V30 4055 H 390.184 2.81458 1.14083 0
M  V30 4056 H 387.769 1.40793 0.499768 0
M  V30 4057 H 389.651 2.29067 3.53704 0
M  V30 4058 H 388.326 1.22379 2.99675 0
M  V30 4059 H 387.233 3.24448 1.86237 0
M  V30 4060 H 388.566 4.2589 2.46736 0
M  V30 4061 N 390.218 -0.567019 1.47046 0
M  V30 4062 C 391.128 -1.70247 1.6141 0
M  V30 4063 C 392.144 -1.66746 0.497157 0
M  V30 4064 O 393.32 -1.86371 0.763389 0
M  V30 4065 C 390.385 -3.06756 1.61561 0
M  V30 4066 C 389.446 -3.21399 2.84607 0
M  V30 4067 C 388.679 -4.51396 2.84741 0
M  V30 4068 O 388.902 -5.36255 1.94388 0
M  V30 4069 O 387.836 -4.69621 3.76483 0
M  V30 4070 H 391.662 -1.61073 2.57467 0
M  V30 4071 H 389.247 -0.735894 1.30019 0
M  V30 4072 H 391.129 -3.8801 1.64396 0
M  V30 4073 H 389.804 -3.16333 0.686684 0
M  V30 4074 H 388.711 -2.39579 2.8732 0
M  V30 4075 H 390.044 -3.16721 3.76761 0
M  V30 4076 N 391.696 -1.35014 -0.812953 0
M  V30 4077 C 392.945 -1.27269 -1.56479 0
M  V30 4078 C 393.258 0.152771 -1.95002 0
M  V30 4079 O 394.464 0.352451 -2.69203 0
M  V30 4080 C 392.92 -2.23159 -2.82362 0
M  V30 4081 C 392.528 -3.71016 -2.511 0
M  V30 4082 C 394.272 -2.24342 -3.60376 0
M  V30 4083 C 392.179 -4.58746 -3.73237 0
M  V30 4084 H 391.109 -0.472829 -0.587324 0
M  V30 4085 H 393.76 -1.6024 -0.894171 0
M  V30 4086 H 392.142 -1.83151 -3.51101 0
M  V30 4087 H 393.316 -4.1962 -1.90409 0
M  V30 4088 H 391.631 -3.72378 -1.86343 0
M  V30 4089 H 394.228 -2.87107 -4.51081 0
M  V30 4090 H 394.571 -1.24542 -3.97234 0
M  V30 4091 H 395.104 -2.62846 -2.98591 0
M  V30 4092 H 391.843 -5.59521 -3.41492 0
M  V30 4093 H 391.363 -4.14871 -4.33176 0
M  V30 4094 H 393.042 -4.73852 -4.40537 0
M  V30 4095 N 393.175 1.03435 -1.18907 0
M  V30 4096 C 394.105 2.13503 -0.945448 0
M  V30 4097 C 395.086 1.69682 0.119189 0
M  V30 4098 O 396.271 1.94169 -0.034707 0
M  V30 4099 C 393.401 3.44004 -0.477316 0
M  V30 4100 C 392.355 4.0148 -1.48316 0
M  V30 4101 C 391.681 5.27537 -0.872311 0
M  V30 4102 C 392.981 4.36921 -2.86177 0
M  V30 4103 H 394.675 2.34141 -1.86597 0
M  V30 4104 H 392.221 1.12523 -0.898584 0
M  V30 4105 H 394.174 4.20372 -0.294204 0
M  V30 4106 H 392.898 3.23072 0.478786 0
M  V30 4107 H 391.557 3.27201 -1.65332 0
M  V30 4108 H 391.205 5.02917 0.0911752 0
M  V30 4109 H 390.905 5.66954 -1.54393 0
M  V30 4110 H 392.429 6.06576 -0.699871 0
M  V30 4111 H 393.843 5.04248 -2.72776 0
M  V30 4112 H 392.24 4.87405 -3.50081 0
M  V30 4113 H 393.31 3.46466 -3.39248 0
M  V30 4114 N 394.653 0.992116 1.22453 0
M  V30 4115 C 395.563 0.55065 2.28046 0
M  V30 4116 C 396.579 -0.400189 1.69335 0
M  V30 4117 O 397.755 -0.267215 1.99619 0
M  V30 4118 C 394.82 -0.128496 3.46462 0
M  V30 4119 C 393.881 0.865208 4.20491 0
M  V30 4120 C 393.114 0.218377 5.33253 0
M  V30 4121 O 393.337 -0.987894 5.6178 0
M  V30 4122 O 392.271 0.922845 5.94783 0
M  V30 4123 H 396.097 1.4291 2.67975 0
M  V30 4124 H 393.682 0.760326 1.28606 0
M  V30 4125 H 395.564 -0.508947 4.18315 0
M  V30 4126 H 394.239 -0.981526 3.0846 0
M  V30 4127 H 393.146 1.29658 3.50913 0
M  V30 4128 H 394.479 1.68741 4.62371 0
M  V30 4129 N 396.131 -1.37776 0.765217 0
M  V30 4130 C 397.078 -2.30342 0.145274 0
M  V30 4131 C 398.048 -1.5077 -0.696971 0
M  V30 4132 O 399.233 -1.79362 -0.650689 0
M  V30 4133 C 396.373 -3.37227 -0.732939 0
M  V30 4134 C 395.486 -4.31819 0.125199 0
M  V30 4135 C 394.621 -5.25777 -0.757107 0
M  V30 4136 C 393.66 -6.12012 0.103963 0
M  V30 4137 N 392.797 -6.98232 -0.735953 0
M  V30 4138 H 397.637 -2.8278 0.940195 0
M  V30 4139 H 395.174 -1.39211 0.475255 0
M  V30 4140 H 397.132 -3.97818 -1.25686 0
M  V30 4141 H 395.762 -2.86171 -1.49353 0
M  V30 4142 H 394.814 -3.7259 0.766865 0
M  V30 4143 H 396.126 -4.92509 0.789683 0
M  V30 4144 H 395.28 -5.91541 -1.34776 0
M  V30 4145 H 394.019 -4.65481 -1.45529 0
M  V30 4146 H 393.024 -5.45233 0.707197 0
M  V30 4147 H 394.249 -6.74379 0.799381 0
M  V30 4148 H 392.195 -6.40472 -1.41887 0
M  V30 4149 H 392.112 -7.55891 -0.128624 0
M  V30 4150 H 393.38 -7.68393 -1.31121 0
M  V30 4151 N 397.609 -0.515225 -1.4894 0
M  V30 4152 C 398.539 0.244628 -2.32215 0
M  V30 4153 C 399.52 0.949136 -1.41157 0
M  V30 4154 O 400.705 0.937783 -1.70057 0
M  V30 4155 C 397.835 1.30096 -3.22013 0
M  V30 4156 C 396.789 0.715486 -4.21977 0
M  V30 4157 C 396.115 1.87339 -5.00808 0
M  V30 4158 C 397.415 -0.302982 -5.2142 0
M  V30 4159 H 399.109 -0.450501 -2.95991 0
M  V30 4160 H 396.655 -0.218098 -1.42339 0
M  V30 4161 H 398.608 1.84037 -3.79089 0
M  V30 4162 H 397.332 2.02547 -2.56207 0
M  V30 4163 H 395.991 0.197715 -3.66066 0
M  V30 4164 H 395.639 2.58592 -4.31438 0
M  V30 4165 H 395.339 1.48764 -5.68457 0
M  V30 4166 H 396.863 2.41686 -5.60732 0
M  V30 4167 H 398.277 0.148802 -5.73107 0
M  V30 4168 H 396.674 -0.60532 -5.97039 0
M  V30 4169 H 397.744 -1.21395 -4.69459 0
M  V30 4170 N 399.087 1.5561 -0.249682 0
M  V30 4171 C 400.503 1.59254 0.105103 0
M  V30 4172 C 400.703 1.26685 1.56694 0
M  V30 4173 O 399.759 1.0155 2.31179 0
M  V30 4174 C 401.072 2.99687 -0.246592 0
M  V30 4175 C 402.62 3.12416 -0.191118 0
M  V30 4176 C 403.095 4.55074 -0.516885 0
M  V30 4177 N 404.586 4.60835 -0.467489 0
M  V30 4178 C 405.321 5.69201 -0.69268 0
M  V30 4179 N 404.817 6.85817 -0.981146 0
M  V30 4180 N 406.61 5.58635 -0.623198 0
M  V30 4181 H 398.761 1.75049 -1.20298 0
M  V30 4182 H 401.024 0.815003 -0.484225 0
M  V30 4183 H 400.73 3.28267 -1.26228 0
M  V30 4184 H 400.604 3.74798 0.424962 0
M  V30 4185 H 402.991 2.83615 0.815247 0
M  V30 4186 H 403.072 2.39573 -0.896563 0
M  V30 4187 H 402.716 4.84596 -1.52082 0
M  V30 4188 H 402.646 5.26181 0.210068 0
M  V30 4189 H 405.137 3.7705 -0.253373 0
M  V30 4190 H 405.45 7.64341 -1.14032 0
M  V30 4191 H 403.795 6.87494 -1.01865 0
M  V30 4192 H 406.986 4.66406 -0.397863 0
M  V30 4193 H 407.159 6.43017 -0.802093 0
M  V30 4194 N 400.565 -0.0233959 1.57583 0
M  V30 4195 C 401.79 -0.728376 1.94189 0
M  V30 4196 C 402.215 -1.67793 0.850119 0
M  V30 4197 O 401.573 -1.80262 -0.19371 0
M  V30 4198 C 401.621 -1.45669 3.29868 0
M  V30 4199 O 400.725 -2.57013 3.22518 0
M  V30 4200 H 400.066 -0.195493 0.63457 0
M  V30 4201 H 402.596 0.0228214 2.04587 0
M  V30 4202 H 402.606 -1.82535 3.6489 0
M  V30 4203 H 401.281 -0.760314 4.08891 0
M  V30 4204 H 399.858 -2.22648 2.99136 0
M  V30 4205 N 402.043 -1.548 -0.295768 0
M  V30 4206 C 403.292 -1.73538 -1.02798 0
M  V30 4207 C 403.605 -0.531159 -1.8825 0
M  V30 4208 O 404.811 -0.600458 -2.64777 0
M  V30 4209 C 403.267 -3.07051 -1.87744 0
M  V30 4210 C 402.875 -4.34968 -1.07269 0
M  V30 4211 C 404.619 -3.35146 -2.60533 0
M  V30 4212 C 402.526 -5.5953 -1.91521 0
M  V30 4213 H 401.456 -0.646794 -0.387522 0
M  V30 4214 H 404.107 -1.81278 -0.284718 0
M  V30 4215 H 402.489 -2.93289 -2.66078 0
M  V30 4216 H 403.663 -4.5958 -0.335117 0
M  V30 4217 H 401.978 -4.13847 -0.460384 0
M  V30 4218 H 404.575 -4.2541 -3.23929 0
M  V30 4219 H 404.918 -2.54255 -3.29636 0
M  V30 4220 H 405.451 -3.49902 -1.89244 0
M  V30 4221 H 402.19 -6.43103 -1.26878 0
M  V30 4222 H 401.71 -5.39096 -2.62937 0
M  V30 4223 H 403.389 -5.96982 -2.49442 0
M  V30 4224 N 403.521 0.559213 -1.47345 0
M  V30 4225 C 404.767 1.31843 -1.54095 0
M  V30 4226 C 405.1 1.93149 -0.201726 0
M  V30 4227 O 404.375 1.77759 0.789428 0
M  V30 4228 C 404.658 2.43006 -2.65744 0
M  V30 4229 C 404.511 1.86581 -4.09277 0
M  V30 4230 C 405.83 3.44943 -2.73318 0
M  V30 4231 H 402.949 0.478012 -0.560957 0
M  V30 4232 H 405.591 0.625977 -1.79392 0
M  V30 4233 H 403.741 3.02072 -2.44305 0
M  V30 4234 H 405.413 1.31792 -4.42073 0
M  V30 4235 H 403.656 1.17268 -4.17649 0
M  V30 4236 H 404.327 2.66933 -4.83168 0
M  V30 4237 H 406.803 2.95793 -2.92653 0
M  V30 4238 H 405.679 4.20153 -3.53218 0
M  V30 4239 H 405.94 4.03665 -1.80296 0
M  V30 4240 N 404.999 1.35443 0.805782 0
M  V30 4241 C 406.224 1.32037 1.59941 0
M  V30 4242 C 406.649 -0.0994215 1.87837 0
M  V30 4243 O 406.007 -1.06648 1.46615 0
M  V30 4244 C 406.055 2.13354 2.90711 0
M  V30 4245 O 405.159 1.5148 3.83572 0
M  V30 4246 H 404.5 0.452666 0.485787 0
M  V30 4247 H 407.03 1.78496 1.00002 0
M  V30 4248 H 407.04 2.25338 3.40128 0
M  V30 4249 H 405.715 3.16572 2.69732 0
M  V30 4250 H 404.292 1.4834 3.42125 0
M  V30 4251 N 406.477 -1.02803 1.19454 0
M  V30 4252 C 407.723 -1.76478 0.999171 0
M  V30 4253 C 408.056 -1.88456 -0.468828 0
M  V30 4254 O 407.331 -1.40198 -1.34814 0
M  V30 4255 C 407.614 -3.19044 1.66981 0
M  V30 4256 C 407.467 -3.14932 3.21151 0
M  V30 4257 C 408.786 -4.17456 1.39349 0
M  V30 4258 H 405.905 -0.640614 0.364393 0
M  V30 4259 H 408.547 -1.20005 1.47305 0
M  V30 4260 H 406.697 -3.67263 1.2669 0
M  V30 4261 H 408.369 -2.74605 3.70661 0
M  V30 4262 H 406.612 -2.52625 3.52652 0
M  V30 4263 H 407.283 -4.1566 3.63223 0
M  V30 4264 H 409.759 -3.77842 1.74283 0
M  V30 4265 H 408.635 -5.154 1.88823 0
M  V30 4266 H 408.896 -4.40949 0.318813 0
M  V30 4267 N 407.956 -0.998596 -1.21925 0
M  V30 4268 C 409.204 -0.676325 -1.90448 0
M  V30 4269 C 409.525 0.794719 -1.78071 0
M  V30 4270 O 408.795 1.5701 -1.17152 0
M  V30 4271 H 407.375 -0.247165 -0.704925 0
M  V30 4272 H 410.037 -1.26633 -1.48156 0
M  V30 4273 H 409.133 -0.943858 -2.97486 0
M  V30 4274 N 409.434 1.37368 -0.772513 0
M  V30 4275 C 410.711 1.93839 -0.26188 0
M  V30 4276 C 411.091 1.7061 1.24319 0
M  V30 4277 O 410.439 1.05534 2.02669 0
M  V30 4278 C 410.649 3.43154 -0.636102 0
M  V30 4279 C 411.997 4.20249 -0.606324 0
M  V30 4280 O 413.021 3.5152 -0.575538 0
M  V30 4281 O 411.88 5.42809 -0.634086 0
M  V30 4282 H 408.974 0.82478 -0.0605555 0
M  V30 4283 H 411.52 1.4665 -0.853917 0
M  V30 4284 H 410.292 3.53647 -1.6748 0
M  V30 4285 H 409.915 3.97596 -0.0170516 0
M  V30 4286 N 410.912 0.523116 1.48665 0
M  V30 4287 C 412.323 0.0808997 1.86525 0
M  V30 4288 C 412.674 -1.33975 1.43336 0
M  V30 4289 O 411.799 -2.00221 0.821009 0
M  V30 4290 C 412.394 0.140037 3.3851 0
M  V30 4291 C 410.953 -0.246948 3.75589 0
M  V30 4292 C 410.1 0.502845 2.72703 0
M  V30 4293 H 413.051 0.734736 1.40667 0
M  V30 4294 H 413.072 -0.649945 3.74908 0
M  V30 4295 H 412.584 1.17412 3.69914 0
M  V30 4296 H 410.685 -1.28343 3.49798 0
M  V30 4297 H 410.798 0.0878859 4.79019 0
M  V30 4298 H 409.162 -0.0500581 2.54651 0
M  V30 4299 H 409.945 1.53743 3.0695 0
M  V30 4300 N 412.39 -1.55475 0.257931 0
M  V30 4301 C 413.337 -2.21837 -0.636939 0
M  V30 4302 C 414.307 -1.18596 -1.16294 0
M  V30 4303 O 415.492 -1.47081 -1.21539 0
M  V30 4304 C 412.632 -2.9301 -1.82317 0
M  V30 4305 C 411.745 -4.10931 -1.33265 0
M  V30 4306 C 410.88 -4.69791 -2.47931 0
M  V30 4307 C 409.919 -5.7994 -1.95796 0
M  V30 4308 N 409.056 -6.32935 -3.0387 0
M  V30 4309 H 413.896 -2.9793 -0.0643591 0
M  V30 4310 H 411.433 -1.47086 -0.0200031 0
M  V30 4311 H 413.391 -3.3248 -2.52018 0
M  V30 4312 H 412.021 -2.1937 -2.36805 0
M  V30 4313 H 411.073 -3.76699 -0.52931 0
M  V30 4314 H 412.385 -4.90417 -0.910654 0
M  V30 4315 H 411.539 -5.11892 -3.25656 0
M  V30 4316 H 410.278 -3.89545 -2.93438 0
M  V30 4317 H 409.283 -5.37305 -1.16546 0
M  V30 4318 H 410.508 -6.62043 -1.51246 0
M  V30 4319 H 408.454 -5.55591 -3.48791 0
M  V30 4320 H 408.371 -7.07645 -2.66035 0
M  V30 4321 H 409.639 -6.79695 -3.81621 0
M  V30 4322 N 413.868 0.0150385 -1.57593 0
M  V30 4323 C 414.815 1.01126 -2.07466 0
M  V30 4324 C 415.785 1.35064 -0.966794 0
M  V30 4325 O 416.97 1.4516 -1.23827 0
M  V30 4326 C 414.11 2.30276 -2.57035 0
M  V30 4327 C 413.223 2.02373 -3.81666 0
M  V30 4328 C 412.358 3.25496 -4.19793 0
M  V30 4329 C 411.397 2.93211 -5.37303 0
M  V30 4330 N 410.534 4.08826 -5.70794 0
M  V30 4331 H 415.374 0.57901 -2.92321 0
M  V30 4332 H 412.911 0.27426 -1.44521 0
M  V30 4333 H 414.869 3.05757 -2.83846 0
M  V30 4334 H 413.499 2.71197 -1.75077 0
M  V30 4335 H 412.551 1.17327 -3.61854 0
M  V30 4336 H 413.863 1.74567 -4.67256 0
M  V30 4337 H 413.017 4.09333 -4.47807 0
M  V30 4338 H 411.756 3.56428 -3.32882 0
M  V30 4339 H 410.761 2.07777 -5.09027 0
M  V30 4340 H 411.986 2.63542 -6.25877 0
M  V30 4341 H 409.932 4.39682 -4.86842 0
M  V30 4342 H 409.849 3.84491 -6.50924 0
M  V30 4343 H 411.117 4.93496 -6.03392 0
M  V30 4344 N 415.346 1.54954 0.287554 0
M  V30 4345 C 416.293 1.86834 1.35505 0
M  V30 4346 C 417.263 0.718452 1.49758 0
M  V30 4347 O 418.448 0.968358 1.644 0
M  V30 4348 C 415.588 2.13303 2.71286 0
M  V30 4349 C 414.701 3.40883 2.65373 0
M  V30 4350 C 413.836 3.57125 3.93236 0
M  V30 4351 C 412.875 4.78449 3.81776 0
M  V30 4352 N 412.012 4.91426 5.01443 0
M  V30 4353 H 416.852 2.77889 1.07619 0
M  V30 4354 H 414.389 1.37593 0.520241 0
M  V30 4355 H 416.347 2.26646 3.50267 0
M  V30 4356 H 414.977 1.25499 2.97405 0
M  V30 4357 H 414.029 3.36088 1.78182 0
M  V30 4358 H 415.341 4.29993 2.52799 0
M  V30 4359 H 414.495 3.70207 4.80658 0
M  V30 4360 H 413.234 2.66173 4.0866 0
M  V30 4361 H 412.239 4.65386 2.92738 0
M  V30 4362 H 413.464 5.70822 3.67884 0
M  V30 4363 H 411.41 4.03401 5.17304 0
M  V30 4364 H 411.327 5.74559 4.91343 0
M  V30 4365 H 412.595 5.08879 5.90477 0
M  V30 4366 N 416.824 -0.551391 1.4764 0
M  V30 4367 C 418.054 -1.33163 1.57959 0
M  V30 4368 C 418.462 -1.87785 0.23094 0
M  V30 4369 O 417.805 -1.65996 -0.786825 0
M  V30 4370 C 417.867 -2.53449 2.54958 0
M  V30 4371 C 417.531 -2.20071 4.00522 0
M  V30 4372 C 418.528 -1.77017 4.88836 0
M  V30 4373 C 416.213 -2.31252 4.45901 0
M  V30 4374 C 418.207 -1.4558 6.20552 0
M  V30 4375 C 415.894 -1.99427 5.77644 0
M  V30 4376 C 416.892 -1.56659 6.64791 0
M  V30 4377 O 416.58 -1.25242 7.94084 0
M  V30 4378 H 416.312 -0.412022 0.535923 0
M  V30 4379 H 418.866 -0.674186 1.9402 0
M  V30 4380 H 417.096 -3.22104 2.13976 0
M  V30 4381 H 418.785 -3.15523 2.55343 0
M  V30 4382 H 419.551 -1.67867 4.55023 0
M  V30 4383 H 415.43 -2.63498 3.78272 0
M  V30 4384 H 418.974 -1.12125 6.8853 0
M  V30 4385 H 414.871 -2.08211 6.10998 0
M  V30 4386 H 415.639 -1.38822 8.06642 0
M  V30 4387 N 418.302 -1.35869 -0.798587 0
M  V30 4388 C 419.53 -1.32722 -1.58722 0
M  V30 4389 C 419.945 0.0935631 -1.88568 0
M  V30 4390 O 419.302 1.04784 -1.49421 0
M  V30 4391 C 419.353 -2.13974 -2.91371 0
M  V30 4392 O 419.074 -3.50514 -2.62815 0
M  V30 4393 C 420.575 -2.18504 -3.85708 0
M  V30 4394 H 417.795 -0.45562 -0.492596 0
M  V30 4395 H 420.339 -1.78837 -0.991843 0
M  V30 4396 H 418.494 -1.71438 -3.47402 0
M  V30 4397 H 418.908 -3.92806 -3.47568 0
M  V30 4398 H 420.382 -2.79732 -4.75872 0
M  V30 4399 H 420.859 -1.18597 -4.22885 0
M  V30 4400 H 421.465 -2.61236 -3.35612 0
M  V30 4401 N 419.78 1.02168 -1.19998 0
M  V30 4402 C 421.196 1.27969 -0.953737 0
M  V30 4403 C 421.396 1.98079 0.369703 0
M  V30 4404 O 420.452 2.27306 1.09947 0
M  V30 4405 C 421.765 2.11971 -2.13281 0
M  V30 4406 C 423.313 2.25255 -2.17323 0
M  V30 4407 C 423.788 3.12632 -3.34702 0
M  V30 4408 N 425.279 3.2022 -3.34684 0
M  V30 4409 C 426.014 3.88039 -4.22153 0
M  V30 4410 N 425.51 4.58027 -5.19791 0
M  V30 4411 N 427.303 3.84511 -4.10009 0
M  V30 4412 H 419.454 0.550794 -2.05134 0
M  V30 4413 H 421.717 0.305683 -0.897364 0
M  V30 4414 H 421.423 1.67785 -3.09097 0
M  V30 4415 H 421.297 3.12699 -2.10949 0
M  V30 4416 H 423.684 2.68667 -1.22073 0
M  V30 4417 H 423.765 1.24053 -2.23706 0
M  V30 4418 H 423.409 2.69926 -4.30235 0
M  V30 4419 H 423.339 4.13909 -3.25556 0
M  V30 4420 H 425.83 2.70382 -2.64012 0
M  V30 4421 H 426.143 5.07429 -5.82868 0
M  V30 4422 H 424.488 4.56869 -5.23733 0
M  V30 4423 H 427.679 3.28978 -3.33003 0
M  V30 4424 H 427.852 4.3709 -4.78389 0
M  V30 4425 N 421.258 1.00505 1.21394 0
M  V30 4426 C 422.505 0.687774 1.90462 0
M  V30 4427 C 422.833 -0.78147 1.7811 0
M  V30 4428 O 422.088 -1.58208 1.1519 0
M  V30 4429 C 422.387 1.0546 3.41486 0
M  V30 4430 C 422.053 2.51812 3.74034 0
M  V30 4431 C 420.715 2.91804 3.82628 0
M  V30 4432 C 423.067 3.46614 3.8924 0
M  V30 4433 C 420.395 4.2556 4.03876 0
M  V30 4434 C 422.747 4.80044 4.11995 0
M  V30 4435 C 421.411 5.19759 4.18816 0
M  V30 4436 H 420.681 0.251674 0.696951 0
M  V30 4437 H 423.328 1.26349 1.43903 0
M  V30 4438 H 421.633 0.397133 3.89782 0
M  V30 4439 H 423.33 0.786976 3.93202 0
M  V30 4440 H 419.92 2.1982 3.67936 0
M  V30 4441 H 424.104 3.16883 3.81967 0
M  V30 4442 H 419.36 4.55901 4.07387 0
M  V30 4443 H 423.534 5.53439 4.22704 0
M  V30 4444 H 421.161 6.23418 4.35033 0
M  V30 4445 N 422.737 -1.36956 0.779787 0
M  V30 4446 C 423.647 -2.33965 0.172491 0
M  V30 4447 C 424.663 -1.60574 -0.670222 0
M  V30 4448 O 425.839 -1.92617 -0.588263 0
M  V30 4449 C 422.904 -3.39761 -0.690173 0
M  V30 4450 C 421.965 -4.28964 0.169924 0
M  V30 4451 C 421.198 -5.29707 -0.651662 0
M  V30 4452 O 421.421 -5.38238 -1.88827 0
M  V30 4453 O 420.355 -6.01873 -0.0566264 0
M  V30 4454 H 424.181 -2.87647 0.974321 0
M  V30 4455 H 421.766 -1.39258 0.541078 0
M  V30 4456 H 423.648 -4.04471 -1.1824 0
M  V30 4457 H 422.323 -2.88394 -1.47006 0
M  V30 4458 H 421.23 -3.67326 0.708696 0
M  V30 4459 H 422.563 -4.83656 0.913085 0
M  V30 4460 N 424.215 -0.530993 -1.48385 0
M  V30 4461 C 425.162 0.231223 -2.29639 0
M  V30 4462 C 426.132 0.932864 -1.37429 0
M  V30 4463 O 427.317 0.933692 -1.66394 0
M  V30 4464 C 424.457 1.27155 -3.2082 0
M  V30 4465 C 423.57 0.578655 -4.28107 0
M  V30 4466 C 422.705 1.602 -5.06467 0
M  V30 4467 C 421.744 0.892625 -6.05556 0
M  V30 4468 N 420.881 1.86157 -6.76971 0
M  V30 4469 H 425.721 -0.467848 -2.94305 0
M  V30 4470 H 423.258 -0.242556 -1.45086 0
M  V30 4471 H 425.216 1.88703 -3.72085 0
M  V30 4472 H 423.846 1.939 -2.58075 0
M  V30 4473 H 422.898 -0.150782 -3.80101 0
M  V30 4474 H 424.21 0.0217065 -4.98795 0
M  V30 4475 H 423.364 2.29173 -5.61751 0
M  V30 4476 H 422.103 2.19285 -4.35621 0
M  V30 4477 H 421.108 0.188829 -5.49476 0
M  V30 4478 H 422.333 0.307878 -6.78402 0
M  V30 4479 H 420.279 2.44147 -6.08875 0
M  V30 4480 H 420.196 1.35608 -7.43738 0
M  V30 4481 H 421.464 2.54325 -7.36844 0
M  V30 4482 N 425.693 1.55336 -0.266172 0
M  V30 4483 C 426.942 1.98574 0.353749 0
M  V30 4484 C 427.255 1.15789 1.57646 0
M  V30 4485 O 428.461 1.49129 2.26876 0
M  V30 4486 C 426.917 3.53403 0.680747 0
M  V30 4487 C 426.525 4.44953 -0.52165 0
M  V30 4488 C 428.269 4.05251 1.26379 0
M  V30 4489 C 426.176 5.91156 -0.169736 0
M  V30 4490 H 425.106 0.741643 0.135949 0
M  V30 4491 H 427.757 1.79743 -0.369421 0
M  V30 4492 H 426.139 3.68001 1.46257 0
M  V30 4493 H 427.313 4.42121 -1.29869 0
M  V30 4494 H 425.628 4.03691 -1.02093 0
M  V30 4495 H 428.225 5.12021 1.54074 0
M  V30 4496 H 428.568 3.53749 2.19471 0
M  V30 4497 H 429.101 3.94057 0.544447 0
M  V30 4498 H 425.84 6.46736 -1.0683 0
M  V30 4499 H 425.36 5.97079 0.570717 0
M  V30 4500 H 427.039 6.4655 0.241245 0
M  V30 4501 N 427.171 -0.0066808 1.57599 0
M  V30 4502 C 428.419 -0.691552 1.899 0
M  V30 4503 C 428.74 -1.74682 0.866672 0
M  V30 4504 O 428.01 -1.95661 -0.0968189 0
M  V30 4505 H 426.59 -0.258416 0.700878 0
M  V30 4506 H 429.252 0.0326655 1.94873 0
M  V30 4507 H 428.348 -1.16702 2.8946 0
M  V30 4508 N 428.649 -1.55105 -0.279332 0
M  V30 4509 C 429.581 -1.83952 -1.36727 0
M  V30 4510 C 430.594 -0.723642 -1.45833 0
M  V30 4511 O 431.783 -1.00141 -1.47763 0
M  V30 4512 C 428.883 -1.98183 -2.74912 0
M  V30 4513 C 428.056 -3.28787 -2.88475 0
M  V30 4514 C 427.115 -3.33162 -4.07295 0
M  V30 4515 O 426.141 -4.06576 -3.98353 0
M  V30 4516 N 427.343 -2.60109 -5.18964 0
M  V30 4517 H 430.108 -2.77853 -1.12328 0
M  V30 4518 H 427.669 -1.54945 -0.469442 0
M  V30 4519 H 429.661 -1.98488 -3.52682 0
M  V30 4520 H 428.231 -1.11177 -2.92162 0
M  V30 4521 H 427.451 -3.41075 -1.97641 0
M  V30 4522 H 428.739 -4.14933 -2.94463 0
M  V30 4523 H 428.137 -2.00136 -5.29115 0
M  V30 4524 H 426.694 -2.66143 -5.94988 0
M  V30 4525 N 430.127 0.543554 -1.4793 0
M  V30 4526 C 431.375 1.29752 -1.54948 0
M  V30 4527 C 431.696 1.93764 -0.219242 0
M  V30 4528 O 430.966 1.80639 0.75805 0
M  V30 4529 H 429.546 0.481874 -0.570795 0
M  V30 4530 H 432.208 0.633636 -1.84312 0
M  V30 4531 H 431.304 2.08392 -2.32334 0
M  V30 4532 N 431.605 1.3629 0.791371 0
M  V30 4533 C 432.568 1.30309 1.88553 0
M  V30 4534 C 433.568 0.211204 1.59407 0
M  V30 4535 O 434.758 0.465865 1.67855 0
M  V30 4536 C 431.89 1.01956 3.25297 0
M  V30 4537 H 433.083 2.27614 1.95273 0
M  V30 4538 H 430.636 1.21035 0.988953 0
M  V30 4539 H 431.371 0.050998 3.2426 0
M  V30 4540 H 431.156 1.80968 3.4784 0
M  V30 4541 H 432.646 1.0037 4.05359 0
M  V30 4542 N 433.083 -1.0153 1.20538 0
M  V30 4543 C 434.308 -1.79283 1.04271 0
M  V30 4544 C 434.733 -1.8372 -0.403544 0
M  V30 4545 O 434.091 -1.27321 -1.2907 0
M  V30 4546 C 434.139 -3.21535 1.63241 0
M  V30 4547 O 433.243 -4.03099 0.870908 0
M  V30 4548 H 432.584 -0.55293 0.367647 0
M  V30 4549 H 435.114 -1.27696 1.59859 0
M  V30 4550 H 435.124 -3.72243 1.6703 0
M  V30 4551 H 433.799 -3.1762 2.68497 0
M  V30 4552 H 432.376 -3.61693 0.907323 0
M  V30 4553 N 434.561 -1.01147 -1.20859 0
M  V30 4554 C 435.809 -0.696486 -1.89719 0
M  V30 4555 C 436.13 0.775788 -1.78904 0
M  V30 4556 O 435.4 1.55759 -1.18811 0
M  V30 4557 H 433.98 -0.254628 -0.702263 0
M  V30 4558 H 436.642 -1.28197 -1.46804 0
M  V30 4559 H 435.738 -0.975357 -2.96468 0
M  V30 4560 N 436.039 1.36541 -0.78704 0
M  V30 4561 C 437.267 2.03561 -0.370199 0
M  V30 4562 C 437.682 1.59347 1.01263 0
M  V30 4563 O 437.039 0.781781 1.64907 0
M  V30 4564 C 437.09 3.59033 -0.421614 0
M  V30 4565 O 436.811 4.01634 -1.7499 0
M  V30 4566 C 438.312 4.433 0.00489763 0
M  V30 4567 H 435.532 0.653346 -0.152904 0
M  V30 4568 H 438.076 1.74566 -1.06522 0
M  V30 4569 H 436.231 3.86746 0.224971 0
M  V30 4570 H 436.645 4.96217 -1.69909 0
M  V30 4571 H 438.119 5.51939 -0.0822184 0
M  V30 4572 H 438.596 4.26285 1.05723 0
M  V30 4573 H 439.202 4.20843 -0.614085 0
M  V30 4574 N 437.518 0.538854 1.48102 0
M  V30 4575 C 438.764 0.00801365 2.02798 0
M  V30 4576 C 439.097 -1.3309 1.41424 0
M  V30 4577 O 438.372 -1.86169 0.563158 0
M  V30 4578 C 438.655 -0.104589 3.59948 0
M  V30 4579 C 438.508 1.26012 4.31788 0
M  V30 4580 C 439.827 -0.827055 4.32259 0
M  V30 4581 H 436.946 0.00438624 0.736987 0
M  V30 4582 H 439.588 0.6976 1.7673 0
M  V30 4583 H 437.738 -0.691893 3.82289 0
M  V30 4584 H 439.41 1.88922 4.2084 0
M  V30 4585 H 437.653 1.83968 3.92859 0
M  V30 4586 H 438.324 1.13424 5.40221 0
M  V30 4587 H 440.8 -0.328578 4.14801 0
M  V30 4588 H 439.676 -0.87476 5.41885 0
M  V30 4589 H 439.937 -1.87927 4.0017 0
M  V30 4590 N 438.996 -1.55193 0.274407 0
M  V30 4591 C 440.226 -2.03692 -0.345442 0
M  V30 4592 C 440.634 -1.15224 -1.50067 0
M  V30 4593 O 439.977 -0.164749 -1.8296 0
M  V30 4594 C 440.039 -3.48325 -0.88939 0
M  V30 4595 C 439.703 -4.56794 0.137115 0
M  V30 4596 C 440.7 -5.11028 0.956378 0
M  V30 4597 C 438.385 -5.01568 0.27115 0
M  V30 4598 C 440.379 -6.08552 1.89587 0
M  V30 4599 C 438.066 -5.98918 1.21412 0
M  V30 4600 C 439.064 -6.52291 2.02498 0
M  V30 4601 O 438.752 -7.47738 2.952 0
M  V30 4602 H 438.484 -0.670893 -0.0829332 0
M  V30 4603 H 441.038 -2.01387 0.404056 0
M  V30 4604 H 439.268 -3.47867 -1.68895 0
M  V30 4605 H 440.957 -3.80167 -1.42225 0
M  V30 4606 H 441.723 -4.7725 0.863559 0
M  V30 4607 H 437.602 -4.5967 -0.349987 0
M  V30 4608 H 441.146 -6.50137 2.52918 0
M  V30 4609 H 437.043 -6.32114 1.30776 0
M  V30 4610 H 437.811 -7.65451 2.89874 0
M  V30 4611 N 440.474 -0.00167713 -1.576 0
M  V30 4612 C 441.702 0.693759 -1.94922 0
M  V30 4613 C 442.117 1.67215 -0.876626 0
M  V30 4614 O 441.474 1.81929 0.144279 0
M  V30 4615 C 441.525 1.42416 -3.32265 0
M  V30 4616 O 441.246 0.485014 -4.35407 0
M  V30 4617 C 442.747 2.21395 -3.84056 0
M  V30 4618 H 439.967 0.193118 -0.642609 0
M  V30 4619 H 442.511 -0.0532952 -2.04431 0
M  V30 4620 H 440.666 2.12284 -3.24059 0
M  V30 4621 H 441.08 1.00053 -5.14868 0
M  V30 4622 H 442.554 2.67996 -4.82578 0
M  V30 4623 H 443.031 3.04142 -3.16851 0
M  V30 4624 H 443.637 1.56542 -3.95443 0
M  V30 4625 N 441.952 1.55251 0.271103 0
M  V30 4626 C 442.915 1.87484 1.31842 0
M  V30 4627 C 443.915 0.749545 1.42262 0
M  V30 4628 O 445.105 1.01771 1.4138 0
M  V30 4629 C 442.237 2.0818 2.69951 0
M  V30 4630 H 443.43 2.81108 1.0449 0
M  V30 4631 H 440.983 1.47771 0.509258 0
M  V30 4632 H 441.718 1.16944 3.02481 0
M  V30 4633 H 441.503 2.90114 2.63774 0
M  V30 4634 H 442.993 2.34385 3.4562 0
M  V30 4635 N 443.43 -0.535701 1.48216 0
M  V30 4636 C 444.36 -1.65014 1.65204 0
M  V30 4637 C 445.341 -1.62554 0.501011 0
M  V30 4638 O 446.526 -1.7984 0.732886 0
M  V30 4639 C 443.656 -3.03616 1.68626 0
M  V30 4640 C 442.61 -3.20932 2.83172 0
M  V30 4641 C 441.936 -4.60537 2.71679 0
M  V30 4642 C 443.236 -3.04249 4.24535 0
M  V30 4643 H 444.93 -1.51053 2.58502 0
M  V30 4644 H 442.476 -0.725262 1.24402 0
M  V30 4645 H 444.429 -3.81446 1.79099 0
M  V30 4646 H 443.153 -3.18587 0.719026 0
M  V30 4647 H 441.812 -2.45517 2.72244 0
M  V30 4648 H 441.46 -4.72336 1.72937 0
M  V30 4649 H 441.16 -4.73069 3.48538 0
M  V30 4650 H 442.684 -5.40475 2.84112 0
M  V30 4651 H 444.098 -3.71877 4.36326 0
M  V30 4652 H 442.495 -3.28278 5.02348 0
M  V30 4653 H 443.565 -2.00739 4.41397 0
M  V30 4654 N 444.908 -1.36708 -0.784132 0
M  V30 4655 C 446.185 -1.21776 -1.53069 0
M  V30 4656 C 446.565 0.193876 -2.10208 0
M  V30 4657 O 445.913 1.20012 -1.94446 0
M  V30 4658 C 446.123 -2.30395 -2.62143 0
M  V30 4659 C 447.471 -2.67325 -3.29882 0
M  V30 4660 O 448.495 -2.29478 -2.7243 0
M  V30 4661 O 447.354 -3.32485 -4.33724 0
M  V30 4662 H 444.448 -0.474459 -0.677361 0
M  V30 4663 H 446.994 -1.48454 -0.82216 0
M  V30 4664 H 445.766 -3.2498 -2.17953 0
M  V30 4665 H 445.389 -2.05112 -3.40609 0
M  V30 4666 N 446.386 1.0089 -1.21074 0
M  V30 4667 C 447.635 1.74019 -1.01981 0
M  V30 4668 C 447.948 1.90408 0.447665 0
M  V30 4669 O 449.154 2.60707 0.757906 0
M  V30 4670 C 447.61 3.13026 -1.77603 0
M  V30 4671 C 447.218 3.04623 -3.28495 0
M  V30 4672 C 448.962 3.90312 -1.66904 0
M  V30 4673 C 446.869 4.38685 -3.96623 0
M  V30 4674 H 445.799 0.652422 -0.377971 0
M  V30 4675 H 448.45 1.12755 -1.44771 0
M  V30 4676 H 446.832 3.74878 -1.27604 0
M  V30 4677 H 448.006 2.52032 -3.85767 0
M  V30 4678 H 446.321 2.40827 -3.39693 0
M  V30 4679 H 448.918 4.8951 -2.15138 0
M  V30 4680 H 449.261 4.11558 -0.62658 0
M  V30 4681 H 449.794 3.35104 -2.14359 0
M  V30 4682 H 446.533 4.22641 -5.01054 0
M  V30 4683 H 446.053 4.91252 -3.4414 0
M  V30 4684 H 447.732 5.075 -4.01314 0
M  V30 4685 N 447.864 1.01787 1.20321 0
M  V30 4686 C 448.827 0.593972 2.2137 0
M  V30 4687 C 449.827 -0.336553 1.57239 0
M  V30 4688 O 451.017 -0.125069 1.7375 0
M  V30 4689 C 448.149 -0.132433 3.40643 0
M  V30 4690 H 449.342 1.48791 2.60387 0
M  V30 4691 H 446.895 0.807803 1.33807 0
M  V30 4692 H 447.63 -1.04123 3.0713 0
M  V30 4693 H 447.415 0.53605 3.88418 0
M  V30 4694 H 448.905 -0.416314 4.1552 0
M  V30 4695 N 449.342 -1.36122 0.79427 0
M  V30 4696 C 450.57 -2.03362 0.380989 0
M  V30 4697 C 450.985 -1.59881 -1.00416 0
M  V30 4698 O 450.342 -0.790515 -1.6449 0
M  V30 4699 C 450.393 -3.58804 0.440649 0
M  V30 4700 O 450.114 -4.007 1.77118 0
M  V30 4701 C 451.615 -4.43296 0.0186117 0
M  V30 4702 H 448.835 -0.652526 0.156367 0
M  V30 4703 H 451.379 -1.73998 1.07447 0
M  V30 4704 H 449.534 -3.8686 -0.204458 0
M  V30 4705 H 449.948 -4.95309 1.72538 0
M  V30 4706 H 451.422 -5.51887 0.111488 0
M  V30 4707 H 451.899 -4.2684 -1.03461 0
M  V30 4708 H 452.505 -4.20512 0.636395 0
M  V30 4709 N 450.82 -0.546701 -1.47814 0
M  V30 4710 C 452.068 -0.0187037 -2.02091 0
M  V30 4711 C 452.389 1.33168 -1.42447 0
M  V30 4712 O 451.659 1.86619 -0.595839 0
M  V30 4713 H 450.239 -0.00392531 -0.74699 0
M  V30 4714 H 452.901 -0.714327 -1.81338 0
M  V30 4715 H 451.997 0.0772219 -3.12004 0
M  V30 4716 N 452.299 1.55045 -0.282633 0
M  V30 4717 C 453.231 2.2023 0.634924 0
M  V30 4718 C 454.244 1.18931 1.11172 0
M  V30 4719 O 455.433 1.4562 1.03233 0
M  V30 4720 C 452.533 2.82041 1.87899 0
M  V30 4721 C 451.706 4.091 1.54776 0
M  V30 4722 C 450.765 4.54887 2.64507 0
M  V30 4723 O 449.791 5.20496 2.30375 0
M  V30 4724 N 450.993 4.25659 3.94709 0
M  V30 4725 H 453.758 2.99601 0.0769811 0
M  V30 4726 H 451.319 1.61565 -0.104048 0
M  V30 4727 H 453.311 3.09613 2.60619 0
M  V30 4728 H 451.881 2.06618 2.3458 0
M  V30 4729 H 451.101 3.88736 0.654049 0
M  V30 4730 H 452.389 4.9187 1.30158 0
M  V30 4731 H 451.787 3.7306 4.25256 0
M  V30 4732 H 450.344 4.57984 4.63782 0
M  V30 4733 N 453.777 0.010035 1.57597 0
M  V30 4734 C 454.687 -0.994226 2.12491 0
M  V30 4735 C 455.703 -1.37013 1.07254 0
M  V30 4736 O 456.879 -1.45542 1.3921 0
M  V30 4737 C 453.944 -2.2642 2.62555 0
M  V30 4738 C 453.005 -1.95049 3.82432 0
M  V30 4739 C 452.238 -3.15991 4.30099 0
M  V30 4740 O 452.461 -4.28015 3.7704 0
M  V30 4741 O 451.395 -2.99403 5.22151 0
M  V30 4742 H 455.221 -0.557549 2.98538 0
M  V30 4743 H 452.806 -0.209413 1.47925 0
M  V30 4744 H 454.688 -3.01009 2.9491 0
M  V30 4745 H 453.363 -2.69306 1.796 0
M  V30 4746 H 452.27 -1.17904 3.55034 0
M  V30 4747 H 453.603 -1.56992 4.66491 0
M  V30 4748 N 455.255 -1.55392 -0.262866 0
M  V30 4749 C 456.501 -1.76737 -0.99458 0
M  V30 4750 C 456.834 -0.572453 -1.85571 0
M  V30 4751 O 456.109 0.429732 -1.89693 0
M  V30 4752 C 456.392 -3.07824 -1.8686 0
M  V30 4753 C 456.245 -4.3769 -1.03672 0
M  V30 4754 C 457.564 -3.35021 -2.85393 0
M  V30 4755 H 454.683 -0.643005 -0.360157 0
M  V30 4756 H 457.325 -1.88126 -0.266216 0
M  V30 4757 H 455.475 -2.98245 -2.48962 0
M  V30 4758 H 457.147 -4.59238 -0.43563 0
M  V30 4759 H 455.39 -4.32461 -0.340513 0
M  V30 4760 H 456.061 -5.25759 -1.6817 0
M  V30 4761 H 458.537 -3.44458 -2.33426 0
M  V30 4762 H 457.413 -4.27989 -3.43681 0
M  V30 4763 H 457.674 -2.55153 -3.61039 0
M  V30 4764 N 456.733 0.527833 -1.48498 0
M  V30 4765 C 457.696 1.61439 -1.62696 0
M  V30 4766 C 458.696 1.52824 -0.500136 0
M  V30 4767 O 459.886 1.56456 -0.765976 0
M  V30 4768 C 457.018 3.01063 -1.59918 0
M  V30 4769 H 458.211 1.50189 -2.59583 0
M  V30 4770 H 455.764 0.750055 -1.37127 0
M  V30 4771 H 456.499 3.17818 -0.645163 0
M  V30 4772 H 456.284 3.08725 -2.41726 0
M  V30 4773 H 457.774 3.80057 -1.73051 0
M  V30 4774 N 458.211 1.37122 0.776871 0
M  V30 4775 C 459.46 1.31373 1.53049 0
M  V30 4776 C 459.773 -0.101016 1.95339 0
M  V30 4777 O 460.979 -0.280953 2.70042 0
M  V30 4778 C 459.435 2.30567 2.76346 0
M  V30 4779 C 459.043 3.77543 2.41175 0
M  V30 4780 C 460.787 2.33818 3.54301 0
M  V30 4781 C 458.694 4.68481 3.60943 0
M  V30 4782 H 457.624 0.488234 0.574581 0
M  V30 4783 H 460.275 1.62554 0.851372 0
M  V30 4784 H 458.657 1.92396 3.46121 0
M  V30 4785 H 459.831 4.24521 1.79216 0
M  V30 4786 H 458.146 3.77187 1.76405 0
M  V30 4787 H 460.743 2.98965 4.4331 0
M  V30 4788 H 461.086 1.3503 3.93793 0
M  V30 4789 H 461.619 2.7067 2.91518 0
M  V30 4790 H 458.358 5.68378 3.26537 0
M  V30 4791 H 457.878 4.2621 4.22025 0
M  V30 4792 H 459.557 4.85366 4.27819 0
M  V30 4793 N 459.689 -1.00246 1.21608 0
M  V30 4794 C 460.636 -2.09073 0.977613 0
M  V30 4795 C 461.606 -1.65815 -0.097297 0
M  V30 4796 O 462.791 -1.90734 0.0503445 0
M  V30 4797 C 459.931 -3.40671 0.551133 0
M  V30 4798 C 459.044 -3.97326 1.69576 0
M  V30 4799 C 458.179 -5.17043 1.2182 0
M  V30 4800 C 457.218 -5.65813 2.335 0
M  V30 4801 N 456.355 -6.76778 1.86859 0
M  V30 4802 H 461.195 -2.28806 1.90924 0
M  V30 4803 H 458.732 -1.12186 0.951452 0
M  V30 4804 H 460.69 -4.16225 0.285097 0
M  V30 4805 H 459.32 -3.20967 -0.343489 0
M  V30 4806 H 458.372 -3.18734 2.07637 0
M  V30 4807 H 459.684 -4.29511 2.53617 0
M  V30 4808 H 458.838 -5.99852 0.908975 0
M  V30 4809 H 457.577 -4.86458 0.347869 0
M  V30 4810 H 456.582 -4.81599 2.65222 0
M  V30 4811 H 457.807 -5.98427 3.21033 0
M  V30 4812 H 455.753 -6.47994 1.02174 0
M  V30 4813 H 455.67 -7.08231 2.64471 0
M  V30 4814 H 456.938 -7.63116 1.58978 0
M  V30 4815 N 461.167 -1.02423 -1.1978 0
M  V30 4816 C 462.099 -0.559152 -2.22275 0
M  V30 4817 C 463.112 0.36251 -1.58713 0
M  V30 4818 O 464.301 0.159641 -1.77785 0
M  V30 4819 C 461.401 0.205094 -3.38279 0
M  V30 4820 C 460.574 -0.720361 -4.31427 0
M  V30 4821 C 459.633 -0.00234368 -5.262 0
M  V30 4822 O 458.659 -0.627378 -5.65732 0
M  V30 4823 N 459.861 1.26996 -5.66438 0
M  V30 4824 H 462.626 -1.44064 -2.62804 0
M  V30 4825 H 460.187 -0.902692 -1.34399 0
M  V30 4826 H 462.179 0.694868 -3.9869 0
M  V30 4827 H 460.749 0.987947 -2.96578 0
M  V30 4828 H 459.969 -1.39031 -3.68869 0
M  V30 4829 H 461.257 -1.3495 -4.90577 0
M  V30 4830 H 460.655 1.79858 -5.36347 0
M  V30 4831 H 459.212 1.70432 -6.29123 0
M  V30 4832 N 462.645 1.35699 -0.801477 0
M  V30 4833 C 463.578 2.2768 -0.153922 0
M  V30 4834 C 464.556 1.47832 0.67709 0
M  V30 4835 O 465.74 1.77104 0.645474 0
M  V30 4836 C 462.867 3.2943 0.786986 0
M  V30 4837 C 461.913 4.26485 0.0362447 0
M  V30 4838 S 462.746 5.19573 -1.2963 0
M  V30 4839 C 463.902 6.24866 -0.359705 0
M  V30 4840 H 464.135 2.82254 -0.9338 0
M  V30 4841 H 461.668 1.42421 -0.596283 0
M  V30 4842 H 463.626 3.8855 1.32436 0
M  V30 4843 H 462.287 2.73745 1.54021 0
M  V30 4844 H 461.48 4.98378 0.750668 0
M  V30 4845 H 461.082 3.71508 -0.431017 0
M  V30 4846 H 463.374 6.75957 0.456954 0
M  V30 4847 H 464.317 7.00307 -1.04768 0
M  V30 4848 H 464.725 5.64484 0.0423274 0
M  V30 4849 N 464.123 0.554532 1.47522 0
M  V30 4850 C 465.071 -0.207765 2.3167 0
M  V30 4851 C 466.065 -0.911914 1.4276 0
M  V30 4852 O 467.271 -0.833504 1.59539 0
M  V30 4853 H 463.646 -0.0858726 0.747081 0
M  V30 4854 H 465.617 0.521178 2.93813 0
M  V30 4855 C 464.366 -1.2263 3.25357 0
M  V30 4856 H 463.689 -0.693887 3.93732 0
M  V30 4857 H 465.129 -1.73062 3.87073 0
M  V30 4858 C 463.588 -2.27278 2.4869 0
M  V30 4859 O 464.118 -3.34156 2.22941 0
M  V30 4860 N 462.324 -2.01134 2.09746 0
M  V30 4861 H 461.871 -1.14232 2.30887 0
M  V30 4862 H 461.829 -2.71369 1.58765 0
M  V30 4863 N 465.601 -1.54893 0.290851 0
M  V30 4864 C 466.531 -2.26103 -0.583084 0
M  V30 4865 C 467.512 -1.25684 -1.14619 0
M  V30 4866 O 468.697 -1.54436 -1.17741 0
M  V30 4867 C 465.827 -2.99409 -1.75987 0
M  V30 4868 C 464.781 -4.0689 -1.32758 0
M  V30 4869 C 464.107 -4.67856 -2.58872 0
M  V30 4870 C 465.407 -5.20215 -0.46624 0
M  V30 4871 H 467.101 -2.99398 0.0108214 0
M  V30 4872 H 464.647 -1.43998 0.00664468 0
M  V30 4873 H 466.6 -3.47943 -2.37727 0
M  V30 4874 H 465.324 -2.23675 -2.37985 0
M  V30 4875 H 463.983 -3.59191 -0.733299 0
M  V30 4876 H 463.631 -3.88772 -3.19163 0
M  V30 4877 H 463.331 -5.40438 -2.30653 0
M  V30 4878 H 464.855 -5.19147 -3.21433 0
M  V30 4879 H 466.269 -5.64704 -0.989047 0
M  V30 4880 H 464.666 -5.99455 -0.27826 0
M  V30 4881 H 465.736 -4.82198 0.511173 0
M  V30 4882 N 467.08 -0.0183926 -1.57589 0
M  V30 4883 C 468.012 0.995557 -2.06449 0
M  V30 4884 C 469.025 1.29556 -0.985849 0
M  V30 4885 O 470.214 1.2621 -1.26227 0
M  V30 4886 C 467.314 2.32572 -2.46502 0
M  V30 4887 C 466.487 2.21245 -3.77319 0
M  V30 4888 C 465.546 3.37104 -4.04039 0
M  V30 4889 O 464.572 3.14468 -4.74445 0
M  V30 4890 N 465.774 4.60553 -3.53372 0
M  V30 4891 H 468.539 0.578746 -2.94059 0
M  V30 4892 H 466.1 0.168603 -1.6102 0
M  V30 4893 H 468.092 3.08887 -2.61478 0
M  V30 4894 H 466.662 2.65931 -1.64315 0
M  V30 4895 H 465.882 1.29723 -3.72244 0
M  V30 4896 H 467.17 2.10868 -4.63047 0
M  V30 4897 H 466.568 4.81839 -2.96391 0
M  V30 4898 H 465.125 5.34072 -3.73644 0
M  V30 4899 N 468.558 1.5553 0.254621 0
M  V30 4900 C 469.49 1.86104 1.33783 0
M  V30 4901 C 470.503 0.746752 1.44663 0
M  V30 4902 O 471.692 1.0248 1.46151 0
M  V30 4903 C 468.792 2.02532 2.71724 0
M  V30 4904 C 467.965 3.33335 2.83208 0
M  V30 4905 C 467.024 3.396 4.01943 0
M  V30 4906 O 466.05 4.12862 3.91834 0
M  V30 4907 N 467.252 2.68332 5.1476 0
M  V30 4908 H 470.017 2.79605 1.07893 0
M  V30 4909 H 467.578 1.55672 0.444732 0
M  V30 4910 H 469.57 2.04074 3.4948 0
M  V30 4911 H 468.14 1.15811 2.90356 0
M  V30 4912 H 467.36 3.44176 1.92189 0
M  V30 4913 H 468.648 4.19565 2.87824 0
M  V30 4914 H 468.046 2.08528 5.25864 0
M  V30 4915 H 466.603 2.75575 5.90679 0
M  V30 4916 N 470.036 -0.519951 1.48776 0
M  V30 4917 C 470.968 -1.63973 1.60142 0
M  V30 4918 C 471.981 -1.55404 0.485117 0
M  V30 4919 O 473.17 -1.61682 0.756391 0
M  V30 4920 C 470.27 -3.02676 1.52449 0
M  V30 4921 C 469.443 -3.36624 2.79291 0
M  V30 4922 C 468.502 -4.54652 2.64912 0
M  V30 4923 O 467.528 -4.57374 3.38818 0
M  V30 4924 N 468.73 -5.53432 1.75195 0
M  V30 4925 H 471.495 -1.54656 2.56713 0
M  V30 4926 H 469.056 -0.707439 1.45626 0
M  V30 4927 H 471.048 -3.79525 1.4051 0
M  V30 4928 H 469.618 -3.06018 0.638125 0
M  V30 4929 H 468.838 -2.48855 3.0572 0
M  V30 4930 H 470.126 -3.56094 3.6342 0
M  V30 4931 H 469.524 -5.54018 1.14371 0
M  V30 4932 H 468.081 -6.29459 1.69189 0
M  V30 4933 N 471.514 -1.37532 -0.769588 0
M  V30 4934 C 472.925 -1.29382 -1.346 0
M  V30 4935 C 473.276 0.0576039 -1.96115 0
M  V30 4936 O 472.401 0.95947 -1.93967 0
M  V30 4937 C 472.996 -2.34298 -2.44724 0
M  V30 4938 C 471.555 -2.29776 -2.98128 0
M  V30 4939 C 470.702 -2.18013 -1.71364 0
M  V30 4940 H 473.653 -1.48123 -0.56968 0
M  V30 4941 H 473.674 -1.99089 -3.24259 0
M  V30 4942 H 473.186 -3.32645 -1.99922 0
M  V30 4943 H 471.287 -1.34959 -3.47299 0
M  V30 4944 H 471.4 -3.23276 -3.53595 0
M  V30 4945 H 469.764 -1.64595 -1.94372 0
M  V30 4946 H 470.547 -3.18278 -1.28662 0
M  V30 4947 N 472.992 0.995999 -1.22138 0
M  V30 4948 C 473.939 2.08551 -0.988687 0
M  V30 4949 C 474.909 1.65864 0.0885021 0
M  V30 4950 O 476.094 1.90704 -0.0604589 0
M  V30 4951 C 473.234 3.40374 -0.569191 0
M  V30 4952 C 472.347 3.96421 -1.71681 0
M  V30 4953 C 471.482 5.1639 -1.2456 0
M  V30 4954 C 470.521 5.64567 -2.36497 0
M  V30 4955 N 469.658 6.75777 -1.90445 0
M  V30 4956 H 474.498 2.2779 -1.92135 0
M  V30 4957 H 472.035 1.1168 -0.957388 0
M  V30 4958 H 473.993 4.16068 -0.307166 0
M  V30 4959 H 472.623 3.21145 0.326462 0
M  V30 4960 H 471.675 3.17628 -2.09324 0
M  V30 4961 H 472.987 4.2816 -2.55891 0
M  V30 4962 H 472.141 5.99362 -0.940774 0
M  V30 4963 H 470.88 4.86266 -0.373662 0
M  V30 4964 H 469.885 4.80185 -2.67772 0
M  V30 4965 H 471.11 5.96716 -3.24202 0
M  V30 4966 H 469.056 6.47443 -1.05609 0
M  V30 4967 H 468.973 7.06818 -2.68223 0
M  V30 4968 H 470.241 7.62262 -1.63022 0
M  V30 4969 N 474.47 1.03057 1.19235 0
M  V30 4970 C 475.417 0.612832 2.22515 0
M  V30 4971 C 476.387 -0.374224 1.61829 0
M  V30 4972 O 477.572 -0.270501 1.88873 0
M  V30 4973 C 474.712 -0.028475 3.45088 0
M  V30 4974 C 473.825 1.00483 4.20151 0
M  V30 4975 C 472.96 0.333102 5.30155 0
M  V30 4976 C 471.999 1.3522 5.96977 0
M  V30 4977 N 471.136 0.70616 6.9854 0
M  V30 4978 H 475.976 1.49812 2.57605 0
M  V30 4979 H 473.513 0.749658 1.26564 0
M  V30 4980 H 475.471 -0.417548 4.15105 0
M  V30 4981 H 474.101 -0.877334 3.10649 0
M  V30 4982 H 473.153 1.51194 3.49062 0
M  V30 4983 H 474.465 1.77929 4.65986 0
M  V30 4984 H 473.619 -0.110725 6.06599 0
M  V30 4985 H 472.358 -0.473547 4.85396 0
M  V30 4986 H 471.363 1.80627 5.19282 0
M  V30 4987 H 472.588 2.16037 6.4382 0
M  V30 4988 H 470.534 -0.0803667 6.55951 0
M  V30 4989 H 470.451 1.41848 7.42573 0
M  V30 4990 H 471.719 0.286391 7.78974 0
M  V30 4991 N 475.948 -1.35272 0.808662 0
M  V30 4992 C 476.858 -2.33546 0.222079 0
M  V30 4993 C 477.874 -1.6196 -0.636011 0
M  V30 4994 O 479.05 -1.93822 -0.547274 0
M  V30 4995 C 476.115 -3.41148 -0.61795 0
M  V30 4996 C 475.176 -4.28507 0.260875 0
M  V30 4997 C 474.409 -5.3097 -0.539156 0
M  V30 4998 O 474.632 -5.42123 -1.77367 0
M  V30 4999 O 473.566 -6.01858 0.0710526 0
M  V30 5000 H 477.392 -2.85515 1.03512 0
M  V30 5001 H 474.977 -1.38079 0.570495 0
M  V30 5002 H 476.859 -4.06889 -1.09634 0
M  V30 5003 H 475.534 -2.91447 -1.40855 0
M  V30 5004 H 474.441 -3.6574 0.786451 0
M  V30 5005 H 475.774 -4.81611 1.01547 0
M  V30 5006 N 477.426 -0.562348 -1.47226 0
M  V30 5007 C 478.356 0.170627 -2.32876 0
M  V30 5008 C 479.337 0.903748 -1.44106 0
M  V30 5009 O 480.522 0.883206 -1.72954 0
M  V30 5010 C 477.652 1.19786 -3.25989 0
M  V30 5011 C 476.606 0.580875 -4.2404 0
M  V30 5012 C 475.932 1.71311 -5.06514 0
M  V30 5013 C 477.232 -0.468714 -5.20193 0
M  V30 5014 H 478.926 -0.544441 -2.94408 0
M  V30 5015 H 476.472 -0.263271 -1.41573 0
M  V30 5016 H 478.425 1.71884 -3.84752 0
M  V30 5017 H 477.149 1.94294 -2.62521 0
M  V30 5018 H 475.808 0.0811538 -3.6651 0
M  V30 5019 H 475.456 2.44736 -4.39447 0
M  V30 5020 H 475.156 1.30604 -5.72902 0
M  V30 5021 H 476.68 2.23725 -5.68137 0
M  V30 5022 H 478.094 -0.0336028 -5.7329 0
M  V30 5023 H 476.491 -0.794957 -5.94811 0
M  V30 5024 H 477.561 -1.36269 -4.65359 0
M  V30 5025 N 478.904 1.54736 -0.299062 0
M  V30 5026 C 480.153 1.99279 0.311549 0
M  V30 5027 C 480.466 1.19107 1.55154 0
M  V30 5028 O 481.672 1.53908 2.23662 0
M  V30 5029 C 480.128 3.54768 0.605632 0
M  V30 5030 C 479.736 4.43746 -0.615914 0
M  V30 5031 C 481.48 4.07841 1.17754 0
M  V30 5032 C 479.387 5.90663 -0.29509 0
M  V30 5033 H 478.317 0.744359 0.120187 0
M  V30 5034 H 480.968 1.78919 -0.407464 0
M  V30 5035 H 479.35 3.71021 1.38419 0
M  V30 5036 H 480.524 4.39267 -1.39218 0
M  V30 5037 H 478.839 4.01434 -1.10633 0
M  V30 5038 H 481.436 5.15174 1.43179 0
M  V30 5039 H 481.779 3.58324 2.11918 0
M  V30 5040 H 482.312 3.95123 0.460739 0
M  V30 5041 H 479.051 6.44325 -1.20524 0
M  V30 5042 H 478.571 5.98155 0.44394 0
M  V30 5043 H 480.25 6.46916 0.104048 0
M  V30 5044 N 480.382 0.0267497 1.57577 0
M  V30 5045 C 481.631 -0.651736 1.9088 0
M  V30 5046 C 481.944 -1.73427 0.904576 0
M  V30 5047 O 483.15 -2.46923 1.12877 0
M  V30 5048 C 481.606 -1.21048 3.38933 0
M  V30 5049 C 481.214 -0.161362 4.47709 0
M  V30 5050 C 482.958 -1.86562 3.81307 0
M  V30 5051 C 480.865 -0.731611 5.86857 0
M  V30 5052 H 479.795 -0.247198 0.712326 0
M  V30 5053 H 482.446 0.0916641 1.83271 0
M  V30 5054 H 480.828 -2.00542 3.41466 0
M  V30 5055 H 482.002 0.61094 4.56732 0
M  V30 5056 H 480.317 0.394877 4.14523 0
M  V30 5057 H 482.914 -2.30178 4.8262 0
M  V30 5058 H 483.257 -2.70735 3.16241 0
M  V30 5059 H 483.79 -1.13762 3.81186 0
M  V30 5060 H 480.529 0.0719329 6.55461 0
M  V30 5061 H 480.049 -1.47245 5.81445 0
M  V30 5062 H 481.728 -1.22208 6.35354 0
M  V30 5063 N 481.861 -1.55662 -0.24637 0
M  V30 5064 C 482.809 -1.91186 -1.3248 0
M  V30 5065 C 483.803 -0.790996 -1.49799 0
M  V30 5066 O 485.009 -0.975617 -1.51267 0
M  V30 5067 H 481.384 -0.607207 -0.443626 0
M  V30 5068 H 483.355 -2.81221 -0.997853 0
M  V30 5069 C 482.104 -2.22349 -2.67313 0
M  V30 5070 H 481.427 -3.08097 -2.54786 0
M  V30 5071 H 482.867 -2.51107 -3.41645 0
M  V30 5072 C 481.326 -1.04001 -3.20446 0
M  V30 5073 O 481.856 -0.28828 -4.00664 0
M  V30 5074 N 480.062 -0.830494 -2.7848 0
M  V30 5075 H 479.609 -1.4435 -2.13356 0
M  V30 5076 H 479.567 -0.0403258 -3.14374 0
M  V30 5077 N 483.339 0.512053 -1.4905 0
M  V30 5078 C 484.249 1.64139 -1.67617 0
M  V30 5079 C 485.265 1.64786 -0.558701 0
M  V30 5080 O 486.441 1.8341 -0.832034 0
M  V30 5081 C 483.506 3.00548 -1.72835 0
M  V30 5082 C 482.567 3.10615 -2.96339 0
M  V30 5083 C 481.8 4.40517 -3.01298 0
M  V30 5084 O 482.023 5.28671 -2.14157 0
M  V30 5085 O 480.957 4.55325 -3.93653 0
M  V30 5086 H 484.783 1.51407 -2.63267 0
M  V30 5087 H 482.368 0.687131 -1.32661 0
M  V30 5088 H 484.25 3.81641 -1.78683 0
M  V30 5089 H 482.925 3.13566 -0.803616 0
M  V30 5090 H 481.832 2.2875 -2.96014 0
M  V30 5091 H 483.165 3.0252 -3.88256 0
M  V30 5092 N 484.817 1.37938 0.762283 0
M  V30 5093 C 486.066 1.32989 1.51647 0
M  V30 5094 C 486.379 -0.0802922 1.95435 0
M  V30 5095 O 487.585 -0.252295 2.70325 0
M  V30 5096 C 486.041 2.33485 2.73885 0
M  V30 5097 C 485.649 3.80079 2.37157 0
M  V30 5098 C 487.393 2.37563 3.51801 0
M  V30 5099 C 485.3 4.72283 3.55954 0
M  V30 5100 H 484.23 0.494301 0.56937 0
M  V30 5101 H 486.881 1.63448 0.834083 0
M  V30 5102 H 485.263 1.96056 3.44061 0
M  V30 5103 H 486.437 4.26398 1.74704 0
M  V30 5104 H 484.752 3.79037 1.72395 0
M  V30 5105 H 487.349 3.0365 4.40114 0
M  V30 5106 H 487.692 1.39199 3.92338 0
M  V30 5107 H 488.225 2.73747 2.8863 0
M  V30 5108 H 484.964 5.7181 3.2049 0
M  V30 5109 H 484.484 4.30663 4.1748 0
M  V30 5110 H 486.163 4.89876 4.22647 0
M  V30 5111 N 486.295 -0.989507 1.22664 0
M  V30 5112 C 487.225 -2.09847 1.02404 0
M  V30 5113 C 488.206 -1.70007 -0.0561303 0
M  V30 5114 O 489.391 -1.93906 0.106748 0
M  V30 5115 C 486.521 -3.41996 0.604663 0
M  V30 5116 C 485.475 -3.95699 1.63115 0
M  V30 5117 C 484.801 -5.23936 1.0675 0
M  V30 5118 C 486.101 -4.25999 3.02196 0
M  V30 5119 H 487.795 -2.27054 1.95158 0
M  V30 5120 H 485.341 -1.09111 0.939727 0
M  V30 5121 H 487.294 -4.1899 0.45002 0
M  V30 5122 H 486.018 -3.24626 -0.35855 0
M  V30 5123 H 484.677 -3.2084 1.77362 0
M  V30 5124 H 484.325 -5.02909 0.0955422 0
M  V30 5125 H 484.025 -5.60833 1.75328 0
M  V30 5126 H 485.549 -6.0356 0.924516 0
M  V30 5127 H 486.963 -4.93777 2.91303 0
M  V30 5128 H 485.36 -4.74076 3.67929 0
M  V30 5129 H 486.43 -3.33636 3.51873 0
M  V30 5130 N 487.773 -1.03688 -1.18687 0
M  V30 5131 C 489.019 -0.739123 -1.88851 0
M  V30 5132 C 489.352 0.731042 -1.79915 0
M  V30 5133 O 488.627 1.53313 -1.19688 0
M  V30 5134 C 488.91 -1.20106 -3.3948 0
M  V30 5135 C 488.763 -2.73304 -3.57246 0
M  V30 5136 C 490.082 -0.788134 -4.32986 0
M  V30 5137 H 487.201 -0.269978 -0.68577 0
M  V30 5138 H 489.843 -1.28822 -1.3966 0
M  V30 5139 H 487.993 -0.733915 -3.81505 0
M  V30 5140 H 489.665 -3.28027 -3.24339 0
M  V30 5141 H 487.908 -3.13313 -3.00029 0
M  V30 5142 H 488.579 -3.00684 -4.62918 0
M  V30 5143 H 491.055 -1.19005 -3.98719 0
M  V30 5144 H 489.931 -1.13915 -5.36949 0
M  V30 5145 H 490.192 0.308988 -4.41019 0
M  V30 5146 N 489.251 1.34841 -0.815825 0
M  V30 5147 C 490.184 2.27504 -0.178062 0
M  V30 5148 C 491.162 1.48542 0.661373 0
M  V30 5149 O 492.346 1.77779 0.626653 0
M  V30 5150 C 489.473 3.30246 0.752002 0
M  V30 5151 C 488.519 4.26499 -0.00899172 0
M  V30 5152 S 489.352 5.18169 -1.35134 0
M  V30 5153 C 490.508 6.24449 -0.42596 0
M  V30 5154 H 490.741 2.81248 -0.963684 0
M  V30 5155 H 488.274 1.41781 -0.611355 0
M  V30 5156 H 490.232 3.89933 1.28308 0
M  V30 5157 H 488.893 2.75363 1.51109 0
M  V30 5158 H 488.086 4.99146 0.697766 0
M  V30 5159 H 487.688 3.7103 -0.470396 0
M  V30 5160 H 489.98 6.76404 0.385234 0
M  V30 5161 H 490.923 6.99156 -1.1219 0
M  V30 5162 H 491.331 5.64497 -0.0175461 0
M  V30 5163 N 490.729 0.570148 1.46925 0
M  V30 5164 C 492.145 0.23087 1.57921 0
M  V30 5165 C 492.345 -1.26676 1.56702 0
M  V30 5166 O 491.401 -2.04774 1.47729 0
M  V30 5167 C 492.714 0.868973 2.8787 0
M  V30 5168 C 494.262 0.841397 3.01479 0
M  V30 5169 C 494.737 1.45881 4.34146 0
M  V30 5170 N 496.228 1.42258 4.40814 0
M  V30 5171 C 496.963 1.8698 5.42057 0
M  V30 5172 N 496.459 2.39618 6.50042 0
M  V30 5173 N 498.252 1.77972 5.33181 0
M  V30 5174 H 490.403 1.54301 1.45962 0
M  V30 5175 H 492.666 0.644224 0.69547 0
M  V30 5176 H 492.372 1.922 2.94537 0
M  V30 5177 H 492.246 0.369682 3.75384 0
M  V30 5178 H 494.633 -0.202973 2.94401 0
M  V30 5179 H 494.714 1.37858 2.15474 0
M  V30 5180 H 494.358 2.50231 4.4198 0
M  V30 5181 H 494.288 0.896958 5.18905 0
M  V30 5182 H 496.779 1.03768 3.63374 0
M  V30 5183 H 497.092 2.71633 7.23488 0
M  V30 5184 H 495.437 2.43636 6.50897 0
M  V30 5185 H 498.628 1.36617 4.4772 0
M  V30 5186 H 498.801 2.13143 6.11943 0
M  V30 5187 N 492.207 -1.54576 0.307264 0
M  V30 5188 C 493.117 -2.27435 -0.57536 0
M  V30 5189 C 494.133 -1.31183 -1.14311 0
M  V30 5190 O 495.309 -1.64175 -1.16656 0
M  V30 5191 C 492.374 -3.00566 -1.72803 0
M  V30 5192 C 491.435 -4.12369 -1.19373 0
M  V30 5193 C 490.668 -4.82003 -2.29147 0
M  V30 5194 O 490.891 -4.51038 -3.49171 0
M  V30 5195 O 489.825 -5.69271 -1.95485 0
M  V30 5196 H 493.651 -3.03696 0.0158558 0
M  V30 5197 H 491.236 -1.49219 0.0735064 0
M  V30 5198 H 493.118 -3.46416 -2.39946 0
M  V30 5199 H 491.793 -2.27195 -2.30574 0
M  V30 5200 H 490.7 -3.70905 -0.487851 0
M  V30 5201 H 492.033 -4.87736 -0.661376 0
M  V30 5202 N 493.685 -0.035106 -1.57561 0
M  V30 5203 C 494.633 0.962707 -2.11742 0
M  V30 5204 C 495.627 1.33296 -1.0454 0
M  V30 5205 O 496.833 1.31449 -1.22968 0
M  V30 5206 H 493.208 0.32826 -0.676572 0
M  V30 5207 H 495.179 0.48048 -2.94506 0
M  V30 5208 C 493.928 2.23388 -2.66445 0
M  V30 5209 H 493.251 1.95774 -3.48587 0
M  V30 5210 H 494.691 2.91402 -3.07995 0
M  V30 5211 C 493.15 2.96769 -1.59467 0
M  V30 5212 O 493.68 3.89105 -0.998 0
M  V30 5213 N 491.886 2.59212 -1.31369 0
M  V30 5214 H 491.433 1.84202 -1.80076 0
M  V30 5215 H 491.391 3.08618 -0.600173 0
M  V30 5216 N 495.163 1.55791 0.238111 0
M  V30 5217 C 496.11 1.9105 1.29493 0
M  V30 5218 C 497.08 0.765733 1.47397 0
M  V30 5219 O 498.265 1.02017 1.61236 0
M  V30 5220 C 495.405 2.21826 2.64362 0
M  V30 5221 C 494.518 3.49153 2.54394 0
M  V30 5222 C 493.653 3.69455 3.81676 0
M  V30 5223 C 492.692 4.90353 3.66361 0
M  V30 5224 N 491.829 5.07131 4.85554 0
M  V30 5225 H 496.669 2.81172 0.987233 0
M  V30 5226 H 494.206 1.39179 0.476203 0
M  V30 5227 H 496.164 2.37675 3.4288 0
M  V30 5228 H 494.794 1.34897 2.93262 0
M  V30 5229 H 493.846 3.41587 1.67399 0
M  V30 5230 H 495.158 4.37818 2.38991 0
M  V30 5231 H 494.312 3.85311 4.68636 0
M  V30 5232 H 493.051 2.7904 3.99985 0
M  V30 5233 H 492.056 4.74464 2.77784 0
M  V30 5234 H 493.281 5.82237 3.49538 0
M  V30 5235 H 491.227 4.19654 5.04209 0
M  V30 5236 H 491.144 5.89899 4.72816 0
M  V30 5237 H 492.412 5.27407 5.73988 0
M  V30 5238 N 496.642 -0.504142 1.49319 0
M  V30 5239 C 497.59 -1.62689 1.66238 0
M  V30 5240 C 498.584 -1.6095 0.528349 0
M  V30 5241 O 499.79 -1.65496 0.707887 0
M  V30 5242 H 496.165 -0.539247 0.524134 0
M  V30 5243 H 498.136 -1.45571 2.60484 0
M  V30 5244 C 496.885 -3.00841 1.74328 0
M  V30 5245 H 496.208 -3.02884 2.60963 0
M  V30 5246 H 497.648 -3.78945 1.90202 0
M  V30 5247 C 496.107 -3.33355 0.487416 0
M  V30 5248 O 496.637 -3.99819 -0.388294 0
M  V30 5249 N 494.843 -2.88469 0.351306 0
M  V30 5250 H 494.39 -2.34557 1.06492 0
M  V30 5251 H 494.348 -3.10591 -0.487899 0
M  V30 5252 N 498.12 -1.38341 -0.754957 0
M  V30 5253 C 499.531 -1.30803 -1.3322 0
M  V30 5254 C 499.882 0.0368 -1.96165 0
M  V30 5255 O 499.007 0.938844 -1.94974 0
M  V30 5256 C 499.602 -2.3688 -2.42225 0
M  V30 5257 C 498.161 -2.32925 -2.95674 0
M  V30 5258 C 497.308 -2.19819 -1.69042 0
M  V30 5259 H 500.259 -1.48719 -0.553937 0
M  V30 5260 H 500.28 -2.02517 -3.22129 0
M  V30 5261 H 499.792 -3.34747 -1.96383 0
M  V30 5262 H 497.893 -1.38635 -3.45848 0
M  V30 5263 H 498.006 -3.27008 -3.50146 0
M  V30 5264 H 496.37 -1.66648 -1.92615 0
M  V30 5265 H 497.153 -3.19625 -1.25279 0
M  V30 5266 N 499.598 0.982988 -1.23187 0
M  V30 5267 C 500.546 2.09616 -1.00817 0
M  V30 5268 C 501.54 1.6932 0.0519995 0
M  V30 5269 O 502.746 1.79715 -0.101284 0
M  V30 5270 H 499.121 0.685628 -0.308899 0
M  V30 5271 H 501.092 2.25652 -1.95253 0
M  V30 5272 C 499.841 3.42249 -0.613243 0
M  V30 5273 H 499.164 3.73705 -1.42073 0
M  V30 5274 H 500.604 4.21086 -0.496208 0
M  V30 5275 C 499.063 3.30002 0.678233 0
M  V30 5276 O 499.593 3.6263 1.72807 0
M  V30 5277 N 497.799 2.83164 0.653165 0
M  V30 5278 H 497.346 2.56811 -0.201492 0
M  V30 5279 H 497.304 2.75352 1.51752 0
M  V30 5280 N 501.076 1.04316 1.18135 0
M  V30 5281 C 502.325 0.74319 1.87509 0
M  V30 5282 C 502.638 -0.732136 1.81381 0
M  V30 5283 O 503.844 -1.14572 2.46141 0
M  V30 5284 C 502.3 1.27913 3.36402 0
M  V30 5285 C 501.908 2.78326 3.51053 0
M  V30 5286 C 503.652 1.0558 4.11161 0
M  V30 5287 C 501.559 3.25266 4.93919 0
M  V30 5288 H 500.489 0.274313 0.702331 0
M  V30 5289 H 503.14 1.25931 1.33467 0
M  V30 5290 H 501.522 0.690853 3.89927 0
M  V30 5291 H 502.696 3.42933 3.07788 0
M  V30 5292 H 501.011 2.991 2.89704 0
M  V30 5293 H 503.608 1.38161 5.16542 0
M  V30 5294 H 503.951 -0.00684729 4.16299 0
M  V30 5295 H 504.484 1.60882 3.63816 0
M  V30 5296 H 501.223 4.30922 4.9395 0
M  V30 5297 H 500.743 2.65396 5.3789 0
M  V30 5298 H 502.422 3.19433 5.62647 0
M  V30 5299 N 502.554 -1.34406 0.822964 0
M  V30 5300 C 503.8 -1.98578 0.411666 0
M  V30 5301 C 504.133 -1.65093 -1.02264 0
M  V30 5302 O 503.408 -0.92258 -1.71227 0
M  V30 5303 C 503.691 -3.54823 0.614235 0
M  V30 5304 C 503.544 -3.9805 2.09466 0
M  V30 5305 C 504.863 -4.40071 0.050221 0
M  V30 5306 H 501.982 -0.721355 0.151047 0
M  V30 5307 H 504.624 -1.59301 1.03554 0
M  V30 5308 H 502.774 -3.88411 0.0831774 0
M  V30 5309 H 504.446 -3.74795 2.68936 0
M  V30 5310 H 502.689 -3.4836 2.5851 0
M  V30 5311 H 503.36 -5.06819 2.18721 0
M  V30 5312 H 505.836 -4.13037 0.503953 0
M  V30 5313 H 504.712 -5.48452 0.221759 0
M  V30 5314 H 504.973 -4.29576 -1.04482 0
M  V30 5315 N 504.032 -0.577932 -1.46621 0
M  V30 5316 C 504.98 0.170882 -2.31971 0
M  V30 5317 C 505.974 0.889086 -1.44193 0
M  V30 5318 O 507.18 0.808017 -1.60845 0
M  V30 5319 H 503.555 0.0739763 -0.748353 0
M  V30 5320 H 505.526 -0.567856 -2.92947 0
M  V30 5321 C 504.275 1.17438 -3.27267 0
M  V30 5322 H 503.598 0.63116 -3.94787 0
M  V30 5323 H 505.038 1.66882 -3.89778 0
M  V30 5324 C 503.497 2.23292 -2.52274 0
M  V30 5325 O 504.027 3.30567 -2.28229 0
M  V30 5326 N 502.233 1.97772 -2.12919 0
M  V30 5327 H 501.78 1.10545 -2.32675 0
M  V30 5328 H 501.738 2.68809 -1.63062 0
M  V30 5329 N 505.51 1.54411 -0.315457 0
M  V30 5330 C 506.74 2.04536 0.291315 0
M  V30 5331 C 507.148 1.19162 1.4696 0
M  V30 5332 O 506.491 0.213199 1.82459 0
M  V30 5333 C 506.553 3.5056 0.796725 0
M  V30 5334 C 506.217 4.5627 -0.258178 0
M  V30 5335 C 507.214 5.08312 -1.09153 0
M  V30 5336 C 504.899 5.00672 -0.404036 0
M  V30 5337 C 506.893 6.03312 -2.05655 0
M  V30 5338 C 504.58 5.95488 -1.37248 0
M  V30 5339 C 505.578 6.46693 -2.19721 0
M  V30 5340 O 505.266 7.39648 -3.14921 0
M  V30 5341 H 504.998 0.672856 0.0651165 0
M  V30 5342 H 507.552 2.00244 -0.457308 0
M  V30 5343 H 505.782 3.52223 1.59612 0
M  V30 5344 H 507.471 3.83804 1.32096 0
M  V30 5345 H 508.237 4.74793 -0.98979 0
M  V30 5346 H 504.116 4.60436 0.22799 0
M  V30 5347 H 507.66 6.43203 -2.70067 0
M  V30 5348 H 503.557 6.28424 -1.47489 0
M  V30 5349 H 504.325 7.57496 -3.10067 0
M  V30 5350 N 506.988 0.0434614 1.5754 0
M  V30 5351 C 507.918 -0.931651 2.14109 0
M  V30 5352 C 508.899 -1.32971 1.06079 0
M  V30 5353 O 510.084 -1.40579 1.33982 0
M  V30 5354 C 507.214 -2.20914 2.67982 0
M  V30 5355 C 506.168 -1.95139 3.80926 0
M  V30 5356 C 505.494 -3.29276 4.21285 0
M  V30 5357 C 506.794 -1.27913 5.06395 0
M  V30 5358 H 508.488 -0.460497 2.95837 0
M  V30 5359 H 506.034 -0.220058 1.42309 0
M  V30 5360 H 507.987 -2.89522 3.06194 0
M  V30 5361 H 506.711 -2.70221 1.83434 0
M  V30 5362 H 505.37 -1.28945 3.43175 0
M  V30 5363 H 505.018 -3.76369 3.33699 0
M  V30 5364 H 504.718 -3.12831 4.97404 0
M  V30 5365 H 506.242 -3.99129 4.62091 0
M  V30 5366 H 507.656 -1.86544 5.42102 0
M  V30 5367 H 506.053 -1.2182 5.87605 0
M  V30 5368 H 507.123 -0.254066 4.84234 0
M  V30 5369 N 508.466 -1.55915 -0.229846 0
M  V30 5370 C 509.743 -1.6932 -0.979295 0
M  V30 5371 C 510.123 -0.588321 -2.02736 0
M  V30 5372 O 509.471 0.40586 -2.24867 0
M  V30 5373 C 509.681 -3.10305 -1.59724 0
M  V30 5374 C 511.029 -3.6945 -2.09264 0
M  V30 5375 O 512.053 -3.13214 -1.69633 0
M  V30 5376 O 510.912 -4.68072 -2.82082 0
M  V30 5377 H 508.006 -0.689314 -0.456919 0
M  V30 5378 H 510.552 -1.68238 -0.222283 0
M  V30 5379 H 509.324 -3.82177 -0.840039 0
M  V30 5380 H 508.947 -3.1547 -2.42001 0
M  V30 5381 N 509.944 0.496216 -1.49584 0
M  V30 5382 C 511.169 1.27865 -1.63295 0
M  V30 5383 C 511.594 1.85592 -0.306156 0
M  V30 5384 O 510.952 1.66092 0.726851 0
M  V30 5385 C 511 2.38128 -2.7079 0
M  V30 5386 O 510.104 3.42108 -2.30296 0
M  V30 5387 H 509.445 0.377279 -0.546403 0
M  V30 5388 H 511.975 0.593497 -1.95803 0
M  V30 5389 H 511.985 2.8382 -2.93104 0
M  V30 5390 H 510.66 1.95479 -3.67098 0
M  V30 5391 H 509.237 3.02301 -2.18331 0
M  V30 5392 N 511.423 1.38739 0.74761 0
M  V30 5393 C 512.653 1.3832 1.53464 0
M  V30 5394 C 513.061 -0.0273464 1.8918 0
M  V30 5395 O 512.404 -1.00588 1.53713 0
M  V30 5396 C 512.466 2.18007 2.85855 0
M  V30 5397 C 512.13 3.66762 2.72644 0
M  V30 5398 C 513.127 4.60124 2.42037 0
M  V30 5399 C 510.812 4.10193 2.89909 0
M  V30 5400 C 512.806 5.94897 2.28859 0
M  V30 5401 C 510.493 5.45045 2.7635 0
M  V30 5402 C 511.491 6.37211 2.45869 0
M  V30 5403 O 511.179 7.69581 2.3238 0
M  V30 5404 H 510.911 0.474718 0.481268 0
M  V30 5405 H 513.465 1.83012 0.932518 0
M  V30 5406 H 511.695 1.68043 3.48279 0
M  V30 5407 H 513.384 2.09921 3.47402 0
M  V30 5408 H 514.15 4.27874 2.28361 0
M  V30 5409 H 510.029 3.38797 3.1263 0
M  V30 5410 H 513.573 6.66802 2.04989 0
M  V30 5411 H 509.47 5.76889 2.89601 0
M  V30 5412 H 510.238 7.80169 2.47546 0
M  V30 5413 N 512.901 -0.976442 1.23707 0
M  V30 5414 C 513.831 -2.08749 1.04624 0
M  V30 5415 C 514.812 -1.70057 -0.0380956 0
M  V30 5416 O 515.997 -1.93782 0.127308 0
M  V30 5417 C 513.127 -3.41335 0.640902 0
M  V30 5418 C 512.081 -3.93947 1.67302 0
M  V30 5419 C 511.407 -5.22774 1.12301 0
M  V30 5420 C 512.707 -4.22769 3.06697 0
M  V30 5421 H 514.401 -2.24972 1.97555 0
M  V30 5422 H 511.947 -1.08108 0.951247 0
M  V30 5423 H 513.9 -4.18489 0.494434 0
M  V30 5424 H 512.624 -3.24988 -0.324099 0
M  V30 5425 H 511.283 -3.18941 1.80755 0
M  V30 5426 H 510.931 -5.0278 0.148877 0
M  V30 5427 H 510.631 -5.58942 1.81267 0
M  V30 5428 H 512.155 -6.02546 0.988479 0
M  V30 5429 H 513.569 -4.90659 2.96524 0
M  V30 5430 H 511.966 -4.70147 3.72937 0
M  V30 5431 H 513.036 -3.29885 3.55392 0
M  V30 5432 N 514.379 -1.04941 -1.1758 0
M  V30 5433 C 515.625 -0.759112 -1.88057 0
M  V30 5434 C 515.958 0.711918 -1.8068 0
M  V30 5435 O 515.233 1.52035 -1.21308 0
M  V30 5436 C 515.516 -1.237 -3.38187 0
M  V30 5437 C 515.369 -2.77078 -3.54327 0
M  V30 5438 C 516.688 -0.834014 -4.32125 0
M  V30 5439 H 513.807 -0.277237 -0.682868 0
M  V30 5440 H 516.449 -1.30296 -1.38286 0
M  V30 5441 H 514.599 -0.774337 -3.80705 0
M  V30 5442 H 516.271 -3.31449 -3.20842 0
M  V30 5443 H 514.514 -3.16477 -2.96689 0
M  V30 5444 H 515.185 -3.05577 -4.59703 0
M  V30 5445 H 517.661 -1.23228 -3.97434 0
M  V30 5446 H 516.537 -1.19603 -5.35711 0
M  V30 5447 H 516.798 0.262195 -4.41322 0
M  V30 5448 N 515.857 1.33968 -0.830081 0
M  V30 5449 C 517.105 1.97672 -0.420734 0
M  V30 5450 C 517.426 1.66111 1.02138 0
M  V30 5451 O 516.696 0.955503 1.71017 0
M  V30 5452 H 515.276 0.73125 -0.152587 0
M  V30 5453 H 517.938 1.63483 -1.0611 0
M  V30 5454 H 517.034 3.07294 -0.545588 0
M  V30 5455 N 517.335 0.585699 1.46312 0
M  V30 5456 C 518.612 0.00542031 1.95599 0
M  V30 5457 C 518.992 -1.45619 1.52834 0
M  V30 5458 O 518.34 -2.14759 0.780446 0
M  V30 5459 C 518.55 0.180601 3.48532 0
M  V30 5460 C 519.898 0.049979 4.24571 0
M  V30 5461 O 520.922 0.109589 3.56031 0
M  V30 5462 O 519.781 -0.0832226 5.46437 0
M  V30 5463 H 516.875 -0.0481281 0.825598 0
M  V30 5464 H 519.421 0.654227 1.56582 0
M  V30 5465 H 518.193 1.19657 3.72556 0
M  V30 5466 H 517.816 -0.504498 3.94386 0
M  V30 5467 N 518.813 -1.54241 0.323641 0
M  V30 5468 C 519.723 -2.28033 -0.551205 0
M  V30 5469 C 520.739 -1.32388 -1.12913 0
M  V30 5470 O 521.915 -1.65403 -1.14908 0
M  V30 5471 C 518.98 -3.02382 -1.69606 0
M  V30 5472 C 518.041 -4.13612 -1.14993 0
M  V30 5473 C 517.274 -4.84407 -2.24022 0
M  V30 5474 O 517.497 -4.54716 -3.44368 0
M  V30 5475 O 516.431 -5.71312 -1.89436 0
M  V30 5476 H 520.257 -3.03662 0.048066 0
M  V30 5477 H 517.842 -1.49133 0.0893289 0
M  V30 5478 H 519.724 -3.48941 -2.36259 0
M  V30 5479 H 518.399 -2.29628 -2.28151 0
M  V30 5480 H 517.306 -3.71402 -0.448484 0
M  V30 5481 H 518.639 -4.8841 -0.609608 0
M  V30 5482 N 520.291 -0.0518155 -1.57515 0
M  V30 5483 C 521.221 0.920283 -2.146 0
M  V30 5484 C 522.202 1.32406 -1.06783 0
M  V30 5485 O 523.387 1.39866 -1.34726 0
M  V30 5486 C 520.517 2.1949 -2.6915 0
M  V30 5487 C 519.471 1.93116 -3.81956 0
M  V30 5488 C 518.797 3.27037 -4.23026 0
M  V30 5489 C 520.097 1.25225 -5.07066 0
M  V30 5490 H 521.791 0.444801 -2.96077 0
M  V30 5491 H 519.337 0.212508 -1.42423 0
M  V30 5492 H 521.29 2.87894 -3.07725 0
M  V30 5493 H 520.014 2.69244 -1.84865 0
M  V30 5494 H 518.673 1.27123 -3.43854 0
M  V30 5495 H 518.321 3.74595 -3.3569 0
M  V30 5496 H 518.021 3.10189 -4.99056 0
M  V30 5497 H 519.545 3.96673 -4.64202 0
M  V30 5498 H 520.959 1.83666 -5.43083 0
M  V30 5499 H 519.356 1.18702 -5.88243 0
M  V30 5500 H 520.426 0.228382 -4.84362 0
M  V30 5501 N 521.769 1.56035 0.221574 0
M  V30 5502 C 523.015 1.80221 0.942973 0
M  V30 5503 C 523.37 0.624799 1.81973 0
M  V30 5504 O 522.663 -0.381145 1.87771 0
M  V30 5505 C 522.857 3.07813 1.8162 0
M  V30 5506 C 522.686 4.37852 1.02548 0
M  V30 5507 C 521.456 5.00138 0.720418 0
M  V30 5508 C 523.654 5.12813 0.390799 0
M  V30 5509 N 521.636 6.13831 -0.0917139 0
M  V30 5510 C 523.007 6.19346 -0.284728 0
M  V30 5511 C 525.062 4.96972 0.303828 0
M  V30 5512 C 523.765 7.11758 -1.03891 0
M  V30 5513 C 525.791 5.89784 -0.436883 0
M  V30 5514 C 525.153 6.95743 -1.10095 0
M  V30 5515 H 521.252 0.711117 0.325325 0
M  V30 5516 H 523.836 1.93522 0.213854 0
M  V30 5517 H 522.007 2.95795 2.51714 0
M  V30 5518 H 523.739 3.20191 2.47508 0
M  V30 5519 H 520.494 4.62075 1.03843 0
M  V30 5520 H 520.918 6.75249 -0.486615 0
M  V30 5521 H 525.56 4.15107 0.802896 0
M  V30 5522 H 523.278 7.93105 -1.54949 0
M  V30 5523 H 526.864 5.79603 -0.505181 0
M  V30 5524 H 525.744 7.66322 -1.66495 0
M  V30 5525 N 523.247 -0.488276 1.49845 0
M  V30 5526 C 524.493 -1.24341 1.6021 0
M  V30 5527 C 524.826 -1.91967 0.293651 0
M  V30 5528 O 524.101 -1.81323 -0.703718 0
M  V30 5529 C 524.384 -2.3005 2.77036 0
M  V30 5530 C 524.237 -1.66842 4.17713 0
M  V30 5531 C 525.556 -3.31509 2.89464 0
M  V30 5532 H 522.675 -0.450704 0.583125 0
M  V30 5533 H 525.317 -0.539673 1.82174 0
M  V30 5534 H 523.467 -2.90071 2.58439 0
M  V30 5535 H 525.139 -1.1055 4.47858 0
M  V30 5536 H 523.382 -0.972079 4.22768 0
M  V30 5537 H 524.053 -2.43576 4.95353 0
M  V30 5538 H 526.529 -2.81493 3.06433 0
M  V30 5539 H 525.405 -4.02822 3.72861 0
M  V30 5540 H 525.666 -3.94603 1.99351 0
M  V30 5541 N 524.725 -1.39134 -0.740242 0
M  V30 5542 C 525.971 -1.36273 -1.50192 0
M  V30 5543 C 526.304 0.0430136 -1.94152 0
M  V30 5544 O 525.579 1.00691 -1.66408 0
M  V30 5545 C 525.862 -2.33041 -2.74525 0
M  V30 5546 C 525.715 -3.82535 -2.36617 0
M  V30 5547 C 527.034 -2.27723 -3.76604 0
M  V30 5548 H 524.153 -0.496323 -0.544823 0
M  V30 5549 H 526.795 -1.70085 -0.846815 0
M  V30 5550 H 524.945 -2.04337 -3.30422 0
M  V30 5551 H 526.617 -4.21967 -1.86391 0
M  V30 5552 H 524.86 -3.99565 -1.68909 0
M  V30 5553 H 525.531 -4.45723 -3.2563 0
M  V30 5554 H 528.007 -2.53091 -3.30279 0
M  V30 5555 H 526.883 -2.97519 -4.61274 0
M  V30 5556 H 527.144 -1.28049 -4.2315 0
M  V30 5557 N 526.204 0.969867 -1.24223 0
M  V30 5558 C 527.137 2.06279 -0.975926 0
M  V30 5559 C 528.115 1.62353 0.0895385 0
M  V30 5560 O 529.299 1.88442 -0.0469418 0
M  V30 5561 C 526.426 3.35391 -0.472315 0
M  V30 5562 C 525.472 3.98266 -1.526 0
M  V30 5563 S 526.305 4.36172 -3.10667 0
M  V30 5564 C 527.461 5.68423 -2.62003 0
M  V30 5565 H 527.694 2.28551 -1.90137 0
M  V30 5566 H 525.227 1.10748 -1.07584 0
M  V30 5567 H 527.185 4.10068 -0.188376 0
M  V30 5568 H 525.846 3.1111 0.432378 0
M  V30 5569 H 525.039 4.91307 -1.12399 0
M  V30 5570 H 524.641 3.30009 -1.75983 0
M  V30 5571 H 526.933 6.45842 -2.0468 0
M  V30 5572 H 527.876 6.13478 -3.53625 0
M  V30 5573 H 528.284 5.26928 -2.02502 0
M  V30 5574 N 527.682 1.05563 1.17022 0
M  V30 5575 C 528.592 0.670758 2.24807 0
M  V30 5576 C 529.608 -0.309865 1.71219 0
M  V30 5577 O 530.784 -0.161025 2.00755 0
M  V30 5578 C 527.849 0.055337 3.46656 0
M  V30 5579 C 526.91 1.08688 4.15314 0
M  V30 5580 C 526.143 0.500736 5.31346 0
M  V30 5581 O 526.366 -0.688718 5.66227 0
M  V30 5582 O 525.3 1.23683 5.89055 0
M  V30 5583 H 529.126 1.56914 2.60023 0
M  V30 5584 H 526.711 0.827428 1.24395 0
M  V30 5585 H 528.593 -0.286492 4.20425 0
M  V30 5586 H 527.268 -0.816638 3.13229 0
M  V30 5587 H 526.175 1.48077 3.43546 0
M  V30 5588 H 527.508 1.93014 4.52777 0
M  V30 5589 N 529.16 -1.33526 0.837174 0
M  V30 5590 C 530.39 -2.01754 0.444848 0
M  V30 5591 C 530.798 -1.63149 -0.958072 0
M  V30 5592 O 530.141 -0.839827 -1.63379 0
M  V30 5593 C 530.203 -3.56228 0.483917 0
M  V30 5594 C 529.867 -4.18205 1.84265 0
M  V30 5595 C 530.864 -4.37699 2.80563 0
M  V30 5596 C 528.549 -4.54667 2.13503 0
M  V30 5597 C 530.543 -4.928 4.04261 0
M  V30 5598 C 528.23 -5.09475 3.37458 0
M  V30 5599 C 529.228 -5.28488 4.32654 0
M  V30 5600 O 528.916 -5.82132 5.54417 0
M  V30 5601 H 528.648 -0.652928 0.175104 0
M  V30 5602 H 531.202 -1.71469 1.13082 0
M  V30 5603 H 529.432 -3.85833 -0.258826 0
M  V30 5604 H 531.121 -4.05752 0.109653 0
M  V30 5605 H 531.887 -4.0988 2.59274 0
M  V30 5606 H 527.766 -4.39164 1.40201 0
M  V30 5607 H 531.31 -5.07555 4.78574 0
M  V30 5608 H 527.207 -5.36725 3.58604 0
M  V30 5609 H 527.975 -6.00548 5.56133 0
M  V30 5610 N 530.638 -0.59345 -1.46 0
M  V30 5611 C 531.568 0.121192 -2.33185 0
M  V30 5612 C 532.549 0.872977 -1.4599 0
M  V30 5613 O 533.734 0.846321 -1.74789 0
M  V30 5614 C 530.864 1.12844 -3.28456 0
M  V30 5615 C 529.818 0.4908 -4.25177 0
M  V30 5616 C 529.144 1.60529 -5.10034 0
M  V30 5617 C 530.444 -0.578949 -5.19081 0
M  V30 5618 H 532.138 -0.606767 -2.93187 0
M  V30 5619 H 529.684 -0.293242 -1.40983 0
M  V30 5620 H 531.637 1.63684 -3.88311 0
M  V30 5621 H 530.361 1.88681 -2.66584 0
M  V30 5622 H 529.02 0.00339328 -3.666 0
M  V30 5623 H 528.668 2.35359 -4.44539 0
M  V30 5624 H 528.368 1.18422 -5.75543 0
M  V30 5625 H 529.892 2.11623 -5.72755 0
M  V30 5626 H 531.306 -0.155199 -5.7309 0
M  V30 5627 H 529.703 -0.920947 -5.92991 0
M  V30 5628 H 530.773 -1.46109 -4.62364 0
M  V30 5629 N 532.116 1.54067 -0.331816 0
M  V30 5630 C 533.079 2.23275 0.517768 0
M  V30 5631 C 534.079 1.22897 1.03697 0
M  V30 5632 O 535.269 1.47419 0.928084 0
M  V30 5633 C 532.401 2.94326 1.72004 0
M  V30 5634 H 533.594 2.99773 -0.0873507 0
M  V30 5635 H 531.147 1.56079 -0.0830042 0
M  V30 5636 H 531.882 2.21986 2.36417 0
M  V30 5637 H 531.667 3.67941 1.35507 0
M  V30 5638 H 533.157 3.47031 2.32291 0
M  V30 5639 N 533.594 0.0601682 1.57485 0
M  V30 5640 C 534.842 -0.610386 1.92662 0
M  V30 5641 C 535.163 -1.70849 0.939981 0
M  V30 5642 O 534.433 -1.95895 -0.0137455 0
M  V30 5643 H 533.013 -0.228457 0.711208 0
M  V30 5644 H 535.675 0.115288 1.94559 0
M  V30 5645 H 534.771 -1.0432 2.94149 0
M  V30 5646 N 535.072 -1.5615 -0.213296 0
M  V30 5647 C 536.32 -1.79191 -0.934612 0
M  V30 5648 C 536.641 -0.630112 -1.84539 0
M  V30 5649 O 535.911 0.35257 -1.92701 0
M  V30 5650 H 534.491 -0.660937 -0.348097 0
M  V30 5651 H 537.153 -1.93618 -0.22317 0
M  V30 5652 H 536.249 -2.71656 -1.53654 0
M  V30 5653 N 536.55 0.480323 -1.50102 0
M  V30 5654 C 537.775 1.26126 -1.64642 0
M  V30 5655 C 538.2 1.85257 -0.325823 0
M  V30 5656 O 537.558 1.66854 0.709194 0
M  V30 5657 C 537.606 2.35243 -2.73301 0
M  V30 5658 O 536.71 3.39646 -2.33911 0
M  V30 5659 H 536.051 0.371463 -0.550374 0
M  V30 5660 H 538.581 0.572696 -1.96421 0
M  V30 5661 H 538.591 2.80695 -2.96098 0
M  V30 5662 H 537.266 1.91574 -3.6915 0
M  V30 5663 H 535.843 2.99969 -2.21525 0
M  V30 5664 N 538.028 1.39524 0.732853 0
M  V30 5665 C 538.958 1.41153 1.86005 0
M  V30 5666 C 539.939 0.274614 1.67869 0
M  V30 5667 O 541.124 0.480745 1.88155 0
M  V30 5668 C 538.254 1.25638 3.23778 0
M  V30 5669 C 537.208 2.36752 3.56556 0
M  V30 5670 C 536.534 2.06326 4.93289 0
M  V30 5671 C 537.834 3.79069 3.5931 0
M  V30 5672 H 539.528 2.35484 1.84899 0
M  V30 5673 H 537.074 1.13348 0.888162 0
M  V30 5674 H 539.027 1.25398 4.0231 0
M  V30 5675 H 537.751 0.277772 3.25417 0
M  V30 5676 H 536.41 2.36213 2.80355 0
M  V30 5677 H 536.058 1.06897 4.9151 0
M  V30 5678 H 535.758 2.80757 5.16187 0
M  V30 5679 H 537.282 2.07739 5.74175 0
M  V30 5680 H 538.696 3.81526 4.27914 0
M  V30 5681 H 537.093 4.52878 3.93728 0
M  V30 5682 H 538.163 4.09893 2.59068 0
M  V30 5683 N 539.506 -0.963266 1.24736 0
M  V30 5684 C 540.734 -1.74166 1.11686 0
M  V30 5685 C 541.149 -1.8589 -0.330187 0
M  V30 5686 O 540.506 -1.35042 -1.2276 0
M  V30 5687 C 540.557 -3.15989 1.75595 0
M  V30 5688 O 540.278 -3.04847 3.14642 0
M  V30 5689 C 541.779 -4.10145 1.68213 0
M  V30 5690 H 538.999 -0.546031 0.389989 0
M  V30 5691 H 541.543 -1.20907 1.64929 0
M  V30 5692 H 539.698 -3.66219 1.26343 0
M  V30 5693 H 540.112 -3.9425 3.4593 0
M  V30 5694 H 541.586 -5.07299 2.17604 0
M  V30 5695 H 542.063 -4.3445 0.644208 0
M  V30 5696 H 542.669 -3.65827 2.16912 0
M  V30 5697 N 540.985 -1.06182 -1.16461 0
M  V30 5698 C 542.262 -0.691364 -1.82974 0
M  V30 5699 C 542.642 0.827377 -1.9421 0
M  V30 5700 O 541.99 1.73723 -1.48434 0
M  V30 5701 C 542.2 -1.39199 -3.20038 0
M  V30 5702 C 543.548 -1.53647 -3.95825 0
M  V30 5703 O 544.572 -1.35181 -3.29552 0
M  V30 5704 O 543.431 -1.83932 -5.14618 0
M  V30 5705 H 540.525 -0.244605 -0.789998 0
M  V30 5706 H 543.071 -1.16203 -1.23673 0
M  V30 5707 H 541.843 -2.42766 -3.06888 0
M  V30 5708 H 541.466 -0.911335 -3.87015 0
M  V30 5709 N 542.463 1.3308 -0.844243 0
M  V30 5710 C 543.709 1.97898 -0.443206 0
M  V30 5711 C 544.042 1.66699 0.99625 0
M  V30 5712 O 543.317 0.949704 1.69738 0
M  V30 5713 C 543.6 3.53801 -0.670606 0
M  V30 5714 C 543.453 3.94667 -2.15772 0
M  V30 5715 C 544.772 4.39936 -0.120226 0
M  V30 5716 H 541.891 0.718861 -0.162504 0
M  V30 5717 H 544.533 1.57633 -1.06075 0
M  V30 5718 H 542.683 3.88229 -0.14496 0
M  V30 5719 H 544.355 3.70469 -2.74865 0
M  V30 5720 H 542.598 3.44203 -2.6402 0
M  V30 5721 H 543.269 5.03275 -2.26757 0
M  V30 5722 H 545.745 4.12183 -0.5696 0
M  V30 5723 H 544.621 5.4803 -0.308984 0
M  V30 5724 H 544.882 4.31184 0.976347 0
M  V30 5725 N 543.941 0.601185 1.45683 0
M  V30 5726 C 545.187 0.0940202 2.02582 0
M  V30 5727 C 545.52 -1.26972 1.46941 0
M  V30 5728 O 544.795 -1.83613 0.641612 0
M  V30 5729 C 545.078 0.0481715 3.60068 0
M  V30 5730 C 544.931 1.44212 4.26055 0
M  V30 5731 C 546.25 -0.642975 4.35378 0
M  V30 5732 H 543.369 0.0356404 0.736138 0
M  V30 5733 H 546.011 0.771929 1.73612 0
M  V30 5734 H 544.161 -0.529128 3.8488 0
M  V30 5735 H 545.833 2.06601 4.12449 0
M  V30 5736 H 544.076 2.00465 3.84703 0
M  V30 5737 H 544.747 1.36234 5.34925 0
M  V30 5738 H 547.223 -0.152351 4.15821 0
M  V30 5739 H 546.099 -0.644141 5.45107 0
M  V30 5740 H 546.36 -1.70785 4.0778 0
M  V30 5741 N 545.419 -1.53889 0.339982 0
M  V30 5742 C 546.647 -2.05271 -0.259114 0
M  V30 5743 C 547.062 -1.21517 -1.44496 0
M  V30 5744 O 546.419 -0.24966 -1.80784 0
M  V30 5745 C 546.47 -3.55092 -0.677634 0
M  V30 5746 O 546.191 -4.35667 0.461051 0
M  V30 5747 C 547.692 -4.22631 -1.33782 0
M  V30 5748 H 544.912 -0.669085 -0.0506566 0
M  V30 5749 H 547.456 -1.9852 0.490935 0
M  V30 5750 H 545.611 -3.62077 -1.37763 0
M  V30 5751 H 546.025 -5.24343 0.128144 0
M  V30 5752 H 547.499 -5.28861 -1.58145 0
M  V30 5753 H 547.976 -3.74758 -2.29027 0
M  V30 5754 H 548.582 -4.19829 -0.679957 0
M  V30 5755 N 546.897 -0.0685191 -1.57451 0
M  V30 5756 C 547.807 0.914677 -2.16034 0
M  V30 5757 C 548.823 1.32938 -1.12265 0
M  V30 5758 O 549.999 1.40275 -1.44516 0
M  V30 5759 C 547.064 2.16519 -2.70777 0
M  V30 5760 C 546.125 1.80721 -3.89408 0
M  V30 5761 C 545.358 2.9981 -4.41531 0
M  V30 5762 O 545.581 4.13727 -3.92666 0
M  V30 5763 O 544.515 2.79817 -5.32903 0
M  V30 5764 H 548.341 0.446364 -3.00402 0
M  V30 5765 H 545.926 0.154367 -1.486 0
M  V30 5766 H 547.808 2.89856 -3.05878 0
M  V30 5767 H 546.483 2.62454 -1.89471 0
M  V30 5768 H 545.39 1.04646 -3.59166 0
M  V30 5769 H 546.723 1.39571 -4.71997 0
M  V30 5770 N 548.375 1.56261 0.205012 0
M  V30 5771 C 549.603 1.84141 0.943386 0
M  V30 5772 C 550.018 0.649772 1.77266 0
M  V30 5773 O 549.375 -0.381612 1.78466 0
M  V30 5774 C 549.426 3.10719 1.84759 0
M  V30 5775 O 549.147 4.25286 1.05181 0
M  V30 5776 C 550.648 3.51706 2.69848 0
M  V30 5777 H 547.868 0.611734 0.275721 0
M  V30 5778 H 550.412 2.03364 0.215253 0
M  V30 5779 H 548.567 2.93422 2.52947 0
M  V30 5780 H 548.981 4.97301 1.66709 0
M  V30 5781 H 550.455 4.43266 3.28967 0
M  V30 5782 H 550.932 2.7423 3.43067 0
M  V30 5783 H 551.538 3.71499 2.07047 0
M  V30 5784 N 549.853 -0.472356 1.50355 0
M  V30 5785 C 551.093 -1.23439 1.62918 0
M  V30 5786 C 551.457 -1.89284 0.321801 0
M  V30 5787 O 552.658 -2.66854 0.322852 0
M  V30 5788 C 550.929 -2.25119 2.7759 0
M  V30 5789 S 552.488 -3.10278 3.10279 0
M  V30 5790 H 549.306 -0.41911 0.574341 0
M  V30 5791 H 551.908 -0.531621 1.88133 0
M  V30 5792 H 550.612 -1.75324 3.71066 0
M  V30 5793 H 550.143 -3.00026 2.54457 0
M  V30 5794 H 552.158 -4.26257 2.54007 0
M  V30 5795 N 551.331 -1.39911 -0.725443 0
M  V30 5796 C 552.264 -1.33788 -1.84867 0
M  V30 5797 C 553.242 -0.209907 -1.61239 0
M  V30 5798 O 554.426 -0.391943 -1.8438 0
M  V30 5799 C 551.553 -1.07975 -3.21028 0
M  V30 5800 C 550.599 -2.23092 -3.635 0
M  V30 5801 S 551.432 -3.85431 -3.71757 0
M  V30 5802 C 552.588 -3.61862 -5.10692 0
M  V30 5803 H 552.821 -2.28848 -1.89779 0
M  V30 5804 H 550.354 -1.26079 -0.891254 0
M  V30 5805 H 552.312 -0.937669 -3.99647 0
M  V30 5806 H 550.973 -0.145865 -3.13761 0
M  V30 5807 H 550.166 -2.00647 -4.62338 0
M  V30 5808 H 549.768 -2.33553 -2.92112 0
M  V30 5809 H 552.06 -3.19719 -5.97316 0
M  V30 5810 H 553.003 -4.60196 -5.38169 0
M  V30 5811 H 553.411 -2.95757 -4.8082 0
M  V30 5812 N 552.809 0.956637 -1.25245 0
M  V30 5813 C 554.086 1.67716 -1.00651 0
M  V30 5814 C 554.466 2.0585 0.467866 0
M  V30 5815 O 553.814 1.77029 1.44475 0
M  V30 5816 C 554.024 2.90093 -1.94028 0
M  V30 5817 C 555.372 3.6209 -2.21756 0
M  V30 5818 O 556.396 3.00171 -1.9177 0
M  V30 5819 O 555.255 4.7358 -2.72735 0
M  V30 5820 H 552.349 0.733731 -0.381533 0
M  V30 5821 H 554.895 1.00974 -1.3639 0
M  V30 5822 H 553.667 2.58689 -2.93591 0
M  V30 5823 H 553.29 3.64566 -1.58674 0
M  V30 5824 N 554.287 1.06798 1.15896 0
M  V30 5825 C 555.197 0.694564 2.24083 0
M  V30 5826 C 556.213 -0.291687 1.71538 0
M  V30 5827 O 557.389 -0.139723 2.00915 0
M  V30 5828 C 554.454 0.0921014 3.46578 0
M  V30 5829 C 553.515 1.13087 4.14137 0
M  V30 5830 C 552.748 0.557064 5.30785 0
M  V30 5831 O 552.971 -0.628623 5.66925 0
M  V30 5832 O 551.905 1.29924 5.8771 0
M  V30 5833 H 555.731 1.59663 2.58344 0
M  V30 5834 H 553.316 0.840575 1.2351 0
M  V30 5835 H 555.198 -0.241884 4.20705 0
M  V30 5836 H 553.873 -0.78337 3.14078 0
M  V30 5837 H 552.78 1.51712 3.41957 0
M  V30 5838 H 554.113 1.97805 4.50704 0
M  V30 5839 N 555.766 -1.3263 0.851289 0
M  V30 5840 C 557.014 -1.96978 0.452128 0
M  V30 5841 C 557.335 -1.67715 -0.99482 0
M  V30 5842 O 556.605 -0.98259 -1.69476 0
M  V30 5843 H 555.185 -0.72873 0.164202 0
M  V30 5844 H 557.847 -1.61774 1.08698 0
M  V30 5845 H 556.943 -3.06387 0.594407 0
M  V30 5846 N 557.244 -0.608902 -1.45362 0
M  V30 5847 C 558.176 0.147318 -2.28726 0
M  V30 5848 C 559.189 0.830468 -1.40025 0
M  V30 5849 O 560.378 0.695636 -1.64387 0
M  V30 5850 C 557.478 1.22968 -3.15804 0
M  V30 5851 C 556.651 0.633391 -4.3279 0
M  V30 5852 C 555.71 1.60682 -5.01067 0
M  V30 5853 O 554.736 1.13261 -5.57818 0
M  V30 5854 N 555.938 2.94123 -5.00472 0
M  V30 5855 H 558.703 -0.568014 -2.94268 0
M  V30 5856 H 556.264 -0.448479 -1.55564 0
M  V30 5857 H 558.256 1.88072 -3.58345 0
M  V30 5858 H 556.826 1.84752 -2.52162 0
M  V30 5859 H 556.046 -0.195762 -3.93714 0
M  V30 5860 H 557.334 0.215255 -5.08344 0
M  V30 5861 H 556.732 3.3525 -4.55657 0
M  V30 5862 H 555.289 3.54646 -5.46872 0
M  V30 5863 N 558.722 1.53707 -0.348139 0
M  V30 5864 C 559.971 2.0017 0.247992 0
M  V30 5865 C 560.284 1.23983 1.51286 0
M  V30 5866 O 561.49 1.60946 2.18652 0
M  V30 5867 C 559.946 3.56515 0.492459 0
M  V30 5868 C 559.554 4.41562 -0.756777 0
M  V30 5869 C 561.298 4.11381 1.0472 0
M  V30 5870 C 559.205 5.89426 -0.482856 0
M  V30 5871 H 558.135 0.747806 0.0964452 0
M  V30 5872 H 560.786 1.77532 -0.464179 0
M  V30 5873 H 559.168 3.75236 1.26545 0
M  V30 5874 H 560.342 4.34615 -1.53122 0
M  V30 5875 H 558.657 3.97711 -1.23348 0
M  V30 5876 H 561.254 5.19468 1.26717 0
M  V30 5877 H 561.597 3.64885 2.00411 0
M  V30 5878 H 562.13 3.96389 0.334801 0
M  V30 5879 H 558.869 6.40164 -1.40962 0
M  V30 5880 H 558.389 5.99264 0.253416 0
M  V30 5881 H 560.068 6.4692 -0.101816 0
M  V30 5882 N 560.2 0.0768682 1.57412 0
M  V30 5883 C 561.163 -0.873949 2.11884 0
M  V30 5884 C 562.163 -1.22301 1.04398 0
M  V30 5885 O 563.353 -1.15545 1.30365 0
M  V30 5886 C 560.485 -2.17575 2.62438 0
M  V30 5887 H 561.678 -0.401278 2.97203 0
M  V30 5888 H 559.231 -0.171904 1.55352 0
M  V30 5889 H 559.966 -2.69368 1.80587 0
M  V30 5890 H 559.751 -1.93534 3.41009 0
M  V30 5891 H 561.241 -2.85631 3.04639 0
M  V30 5892 N 561.678 -1.56367 -0.196722 0
M  V30 5893 C 562.641 -1.93561 -1.22746 0
M  V30 5894 C 563.641 -0.816566 -1.38524 0
M  V30 5895 O 564.831 -1.084 -1.36363 0
M  V30 5896 C 561.963 -2.20823 -2.59712 0
M  V30 5897 H 563.156 -2.85774 -0.909586 0
M  V30 5898 H 560.709 -1.50032 -0.438174 0
M  V30 5899 H 561.444 -1.31243 -2.96557 0
M  V30 5900 H 561.229 -3.02368 -2.49632 0
M  V30 5901 H 562.719 -2.50608 -3.34044 0
M  V30 5902 N 563.156 0.464375 -1.50603 0
M  V30 5903 C 564.402 1.21776 -1.62168 0
M  V30 5904 C 564.735 1.91476 -0.324154 0
M  V30 5905 O 564.01 1.8242 0.674782 0
M  V30 5906 C 564.293 2.25614 -2.80661 0
M  V30 5907 C 564.146 1.60175 -4.20314 0
M  V30 5908 C 565.465 3.26862 -2.94702 0
M  V30 5909 H 562.584 0.44137 -0.590222 0
M  V30 5910 H 565.226 0.510623 -1.8301 0
M  V30 5911 H 563.376 2.85923 -2.63021 0
M  V30 5912 H 565.048 1.03411 -4.4956 0
M  V30 5913 H 563.291 0.904697 -4.24261 0
M  V30 5914 H 563.962 2.35665 -4.99165 0
M  V30 5915 H 566.438 2.76582 -3.10872 0
M  V30 5916 H 565.314 3.96839 -3.79223 0
M  V30 5917 H 565.575 3.91382 -2.05603 0
M  V30 5918 N 564.634 1.40294 0.718013 0
M  V30 5919 C 565.874 1.39888 1.49032 0
M  V30 5920 C 566.238 -0.000462935 1.92 0
M  V30 5921 O 567.439 -0.129622 2.68487 0
M  V30 5922 C 565.71 2.35868 2.68516 0
M  V30 5923 S 567.269 2.53799 3.57954 0
M  V30 5924 H 564.087 0.495849 0.509563 0
M  V30 5925 H 566.689 1.76541 0.839846 0
M  V30 5926 H 565.393 3.36375 2.35117 0
M  V30 5927 H 564.924 2.0049 3.38478 0
M  V30 5928 H 566.939 1.78859 4.62843 0
M  V30 5929 N 566.112 -0.949982 1.2575 0
M  V30 5930 C 567.528 -1.22191 1.02672 0
M  V30 5931 C 567.728 -1.99898 -0.253588 0
M  V30 5932 O 566.784 -2.33329 -0.965076 0
M  V30 5933 C 568.097 -1.99175 2.25277 0
M  V30 5934 C 569.645 -2.12201 2.30087 0
M  V30 5935 C 570.12 -2.92586 3.5236 0
M  V30 5936 N 571.611 -3.00163 3.52784 0
M  V30 5937 C 572.346 -3.62766 4.44059 0
M  V30 5938 N 571.842 -4.26943 5.45611 0
M  V30 5939 N 573.635 -3.59953 4.3173 0
M  V30 5940 H 565.786 -0.430258 2.07996 0
M  V30 5941 H 568.049 -0.252844 0.91366 0
M  V30 5942 H 567.755 -1.49479 3.18354 0
M  V30 5943 H 567.629 -2.99868 2.28821 0
M  V30 5944 H 570.016 -2.61093 1.3753 0
M  V30 5945 H 570.097 -1.10799 2.30559 0
M  V30 5946 H 569.741 -2.44383 4.45241 0
M  V30 5947 H 569.671 -3.94224 3.49134 0
M  V30 5948 H 572.162 -2.54529 2.79327 0
M  V30 5949 H 572.475 -4.72583 6.11461 0
M  V30 5950 H 570.82 -4.25557 5.49478 0
M  V30 5951 H 574.011 -3.09003 3.51617 0
M  V30 5952 H 574.184 -4.08455 5.03059 0
M  V30 5953 N 567.59 -1.07411 -1.15328 0
M  V30 5954 C 568.5 -0.706438 -2.23711 0
M  V30 5955 C 569.516 0.282586 -1.7169 0
M  V30 5956 O 570.692 0.129066 -2.00986 0
M  V30 5957 C 567.757 -0.11048 -3.46524 0
M  V30 5958 C 566.818 -1.15282 -4.13532 0
M  V30 5959 C 566.051 -0.585205 -5.30482 0
M  V30 5960 O 566.274 0.598549 -5.67251 0
M  V30 5961 O 565.208 -1.33039 -5.87013 0
M  V30 5962 H 569.034 -1.61031 -2.57493 0
M  V30 5963 H 566.619 -0.847113 -1.23062 0
M  V30 5964 H 568.501 0.21957 -4.20828 0
M  V30 5965 H 567.176 0.766703 -3.14489 0
M  V30 5966 H 566.083 -1.53523 -3.41147 0
M  V30 5967 H 567.416 -2.00192 -4.49649 0
M  V30 5968 N 569.068 1.32177 -0.85831 0
M  V30 5969 C 570.308 1.98927 -0.469822 0
M  V30 5970 C 570.672 1.66423 0.95746 0
M  V30 5971 O 571.873 2.26293 1.45069 0
M  V30 5972 C 570.144 3.50352 -0.706288 0
M  V30 5973 S 571.703 4.36824 -0.415918 0
M  V30 5974 H 568.521 0.688909 -0.175855 0
M  V30 5975 H 571.123 1.60807 -1.11181 0
M  V30 5976 H 569.827 3.71497 -1.74407 0
M  V30 5977 H 569.358 3.93367 -0.0508568 0
M  V30 5978 H 571.373 4.90398 0.756581 0
M  V30 5979 N 570.547 0.616602 1.45037 0
M  V30 5980 C 571.477 -0.0840787 2.33349 0
M  V30 5981 C 572.458 -0.849641 1.4736 0
M  V30 5982 O 573.643 -0.818407 1.76113 0
M  V30 5983 C 570.773 -1.07604 3.3021 0
M  V30 5984 C 569.727 -0.423096 4.25904 0
M  V30 5985 C 569.053 -1.52394 5.12523 0
M  V30 5986 C 570.353 0.661457 5.18095 0
M  V30 5987 H 572.047 0.653333 2.92185 0
M  V30 5988 H 569.593 0.315634 1.40498 0
M  V30 5989 H 571.546 -1.57485 3.90866 0
M  V30 5990 H 570.27 -1.84416 2.69552 0
M  V30 5991 H 568.929 0.05493 3.66559 0
M  V30 5992 H 568.577 -2.28257 4.48227 0
M  V30 5993 H 568.277 -1.09251 5.77354 0
M  V30 5994 H 569.801 -2.02485 5.76049 0
M  V30 5995 H 571.215 0.246353 5.7277 0
M  V30 5996 H 569.612 1.01517 5.91451 0
M  V30 5997 H 570.682 1.53446 4.59981 0
M  V30 5998 N 572.025 -1.5352 0.356285 0
M  V30 5999 C 572.957 -2.23009 -0.529127 0
M  V30 6000 C 573.97 -1.241 -1.05371 0
M  V30 6001 O 575.159 -1.50379 -0.961679 0
M  V30 6002 C 572.259 -2.90685 -1.74229 0
M  V30 6003 C 571.432 -4.16019 -1.35081 0
M  V30 6004 C 570.491 -4.66989 -2.42502 0
M  V30 6005 O 569.517 -5.30895 -2.05279 0
M  V30 6006 N 570.719 -4.44006 -3.7395 0
M  V30 6007 H 573.484 -2.99627 0.0660501 0
M  V30 6008 H 571.045 -1.60885 0.181014 0
M  V30 6009 H 573.037 -3.21695 -2.4555 0
M  V30 6010 H 571.607 -2.17575 -2.24454 0
M  V30 6011 H 570.827 -3.91414 -0.467833 0
M  V30 6012 H 572.115 -4.9752 -1.06542 0
M  V30 6013 H 571.513 -3.92924 -4.06973 0
M  V30 6014 H 570.07 -4.7959 -4.41403 0
M  V30 6015 N 573.503 -0.0852151 -1.57369 0
M  V30 6016 C 574.466 0.8627 -2.12344 0
M  V30 6017 C 575.466 1.21746 -1.05046 0
M  V30 6018 O 576.656 1.14852 -1.30976 0
M  V30 6019 C 573.788 2.1618 -2.63589 0
M  V30 6020 H 574.981 0.385511 -2.97412 0
M  V30 6021 H 572.534 0.163663 -1.55441 0
M  V30 6022 H 573.269 2.68406 -1.82013 0
M  V30 6023 H 573.054 1.91723 -3.4203 0
M  V30 6024 H 574.544 2.84011 -3.06149 0
M  V30 6025 N 574.981 1.5647 0.188427 0
M  V30 6026 C 575.911 1.98101 1.23606 0
M  V30 6027 C 576.892 0.853961 1.47111 0
M  V30 6028 O 578.077 1.11879 1.58735 0
M  V30 6029 C 575.207 2.32624 2.57882 0
M  V30 6030 C 574.161 3.48129 2.48978 0
M  V30 6031 C 573.487 3.68347 3.87588 0
M  V30 6032 C 574.787 4.82112 2.00911 0
M  V30 6033 H 576.481 2.85864 0.890068 0
M  V30 6034 H 574.027 1.37532 0.426714 0
M  V30 6035 H 575.98 2.60343 3.3136 0
M  V30 6036 H 574.704 1.41751 2.94235 0
M  V30 6037 H 573.363 3.20511 1.77956 0
M  V30 6038 H 573.011 2.74793 4.21305 0
M  V30 6039 H 572.711 4.46055 3.82503 0
M  V30 6040 H 574.235 3.98449 4.62678 0
M  V30 6041 H 575.649 5.08819 2.64151 0
M  V30 6042 H 574.046 5.63337 2.06814 0
M  V30 6043 H 575.116 4.75249 0.96262 0
M  V30 6044 N 576.459 -0.456382 1.50847 0
M  V30 6045 C 577.736 -1.21739 1.53098 0
M  V30 6046 C 578.116 -2.09179 0.284132 0
M  V30 6047 O 577.464 -2.16466 -0.731773 0
M  V30 6048 C 577.674 -2.03573 2.83477 0
M  V30 6049 C 579.022 -2.61264 3.34703 0
M  V30 6050 O 580.046 -2.13802 2.84898 0
M  V30 6051 O 578.905 -3.47779 4.21559 0
M  V30 6052 H 575.999 -0.553219 0.614718 0
M  V30 6053 H 578.545 -0.467003 1.63148 0
M  V30 6054 H 577.317 -1.39232 3.65691 0
M  V30 6055 H 576.94 -2.85716 2.76499 0
M  V30 6056 N 577.937 -1.40673 -0.710563 0
M  V30 6057 C 579.184 -1.39222 -1.47049 0
M  V30 6058 C 579.512 0.0037691 -1.945 0
M  V30 6059 O 578.767 0.989224 -1.68857 0
M  V30 6060 C 579.066 -2.33253 -2.70791 0
M  V30 6061 C 578.732 -3.80406 -2.42079 0
M  V30 6062 C 577.394 -4.20496 -2.33959 0
M  V30 6063 C 579.746 -4.73375 -2.18094 0
M  V30 6064 C 577.074 -5.51584 -1.99929 0
M  V30 6065 C 579.426 -6.04768 -1.85576 0
M  V30 6066 C 578.09 -6.43895 -1.75941 0
M  V30 6067 H 577.36 -0.509449 -0.538092 0
M  V30 6068 H 580.007 -1.73363 -0.81348 0
M  V30 6069 H 578.312 -1.92314 -3.41354 0
M  V30 6070 H 580.009 -2.29412 -3.28894 0
M  V30 6071 H 576.599 -3.48645 -2.49288 0
M  V30 6072 H 580.783 -4.43217 -2.23321 0
M  V30 6073 H 576.039 -5.80797 -1.91011 0
M  V30 6074 H 580.213 -6.76318 -1.66033 0
M  V30 6075 H 577.84 -7.45387 -1.4934 0
M  V30 6076 N 579.415 0.9433 -1.26252 0
M  V30 6077 C 580.345 2.05902 -1.10122 0
M  V30 6078 C 581.326 1.70099 -0.00700552 0
M  V30 6079 O 582.511 1.93377 -0.178641 0
M  V30 6080 C 579.641 3.39516 -0.731175 0
M  V30 6081 C 578.595 3.89372 -1.77688 0
M  V30 6082 C 577.921 5.19613 -1.26122 0
M  V30 6083 C 579.221 4.14489 -3.17799 0
M  V30 6084 H 580.915 2.19655 -2.03451 0
M  V30 6085 H 578.461 1.05548 -0.979576 0
M  V30 6086 H 580.414 4.17031 -0.605215 0
M  V30 6087 H 579.138 3.25733 0.23782 0
M  V30 6088 H 577.797 3.14036 -1.89148 0
M  V30 6089 H 577.445 5.02208 -0.282128 0
M  V30 6090 H 577.145 5.53939 -1.96023 0
M  V30 6091 H 578.669 5.99713 -1.14789 0
M  V30 6092 H 580.083 4.82625 -3.09428 0
M  V30 6093 H 578.48 4.60094 -3.85271 0
M  V30 6094 H 579.55 3.20347 -3.64014 0
M  V30 6095 N 580.893 1.08022 1.14757 0
M  V30 6096 C 581.843 0.676345 2.17737 0
M  V30 6097 C 582.827 -0.302018 1.5804 0
M  V30 6098 O 584.019 -0.11466 1.76628 0
M  V30 6099 C 581.148 0.082984 3.432 0
M  V30 6100 C 580.234 1.0869 4.09936 0
M  V30 6101 N 580.625 2.26891 4.52055 0
M  V30 6102 C 578.923 0.921768 4.36371 0
M  V30 6103 C 579.624 2.90636 5.0389 0
M  V30 6104 N 578.6 2.18266 4.97856 0
M  V30 6105 H 582.402 1.5765 2.4804 0
M  V30 6106 H 579.916 0.954374 1.31398 0
M  V30 6107 H 581.913 -0.224289 4.16296 0
M  V30 6108 H 580.573 -0.812206 3.14378 0
M  V30 6109 H 581.584 2.6457 4.45223 0
M  V30 6110 H 578.261 0.0800499 4.17423 0
M  V30 6111 H 579.651 3.9104 5.46386 0
M  V30 6112 N 582.371 -1.3172 0.865308 0
M  V30 6113 C 583.596 -2.01591 0.487415 0
M  V30 6114 C 584.021 -1.6455 -0.911307 0
M  V30 6115 O 583.379 -0.851689 -1.6005 0
M  V30 6116 C 583.427 -3.54759 0.646401 0
M  V30 6117 O 582.531 -4.11185 -0.316284 0
M  V30 6118 H 581.872 -0.634884 0.194468 0
M  V30 6119 H 584.402 -1.68024 1.16744 0
M  V30 6120 H 584.412 -4.04438 0.537932 0
M  V30 6121 H 583.087 -3.8106 1.66632 0
M  V30 6122 H 581.664 -3.72543 -0.163162 0
M  V30 6123 N 583.85 -0.624285 -1.44708 0
M  V30 6124 C 584.798 0.0969952 -2.32398 0
M  V30 6125 C 585.792 0.842762 -1.46949 0
M  V30 6126 O 586.998 0.756436 -1.63334 0
M  V30 6127 H 583.373 0.0501306 -0.750327 0
M  V30 6128 H 585.344 -0.660767 -2.90992 0
M  V30 6129 C 584.093 1.06967 -3.30837 0
M  V30 6130 H 583.416 0.505242 -3.96595 0
M  V30 6131 H 584.856 1.54397 -3.94889 0
M  V30 6132 C 583.315 2.15153 -2.5925 0
M  V30 6133 O 583.845 3.23139 -2.3863 0
M  V30 6134 N 582.051 1.90898 -2.19103 0
M  V30 6135 H 581.598 1.03086 -2.36074 0
M  V30 6136 H 581.556 2.63485 -1.71531 0
M  V30 6137 N 585.328 1.53329 -0.364422 0
M  V30 6138 C 586.26 2.23286 0.517293 0
M  V30 6139 C 587.273 1.24657 1.04711 0
M  V30 6140 O 588.462 1.50887 0.95369 0
M  V30 6141 C 585.562 2.91604 1.72685 0
M  V30 6142 C 584.735 4.1673 1.32873 0
M  V30 6143 C 583.794 4.68269 2.40022 0
M  V30 6144 O 582.82 5.31976 2.02461 0
M  V30 6145 N 584.022 4.45983 3.7159 0
M  V30 6146 H 586.787 2.99588 -0.0819391 0
M  V30 6147 H 584.348 1.60787 -0.189544 0
M  V30 6148 H 586.34 3.22992 2.4384 0
M  V30 6149 H 584.91 2.18763 2.23297 0
M  V30 6150 H 584.13 3.91657 0.447069 0
M  V30 6151 H 585.418 4.98078 1.03902 0
M  V30 6152 H 584.816 3.95077 4.04883 0
M  V30 6153 H 583.373 4.81924 4.38854 0
M  V30 6154 N 586.806 0.0935595 1.57322 0
M  V30 6155 C 588.052 -0.571355 1.94585 0
M  V30 6156 C 588.385 -1.67929 0.975366 0
M  V30 6157 O 587.66 -1.94498 0.00816206 0
M  V30 6158 C 587.943 -1.12797 3.41978 0
M  V30 6159 C 587.796 -0.0251881 4.49793 0
M  V30 6160 C 589.115 -2.02682 3.90651 0
M  V30 6161 H 586.234 -0.206223 0.70756 0
M  V30 6162 H 588.876 0.163956 1.89291 0
M  V30 6163 H 587.026 -1.75461 3.4662 0
M  V30 6164 H 588.698 0.608979 4.57263 0
M  V30 6165 H 586.941 0.641399 4.29032 0
M  V30 6166 H 587.612 -0.455433 5.50118 0
M  V30 6167 H 590.088 -1.49925 3.88152 0
M  V30 6168 H 588.964 -2.38555 4.94351 0
M  V30 6169 H 589.225 -2.94362 3.29854 0
M  V30 6170 N 588.284 -1.56567 -0.180126 0
M  V30 6171 C 589.533 -1.80685 -0.896426 0
M  V30 6172 C 589.846 -0.669335 -1.83791 0
M  V30 6173 O 591.052 -0.795209 -2.59593 0
M  V30 6174 C 589.508 -3.20132 -1.6445 0
M  V30 6175 C 589.116 -4.41727 -0.747088 0
M  V30 6176 C 590.86 -3.53549 -2.34955 0
M  V30 6177 C 588.767 -5.72195 -1.49489 0
M  V30 6178 H 587.697 -0.673758 -0.338477 0
M  V30 6179 H 590.348 -1.8289 -0.149467 0
M  V30 6180 H 588.73 -3.12218 -2.43589 0
M  V30 6181 H 589.904 -4.608 0.00671129 0
M  V30 6182 H 588.219 -4.16122 -0.152134 0
M  V30 6183 H 590.816 -4.48267 -2.91481 0
M  V30 6184 H 591.159 -2.78006 -3.09868 0
M  V30 6185 H 591.692 -3.62976 -1.62768 0
M  V30 6186 H 588.431 -6.50743 -0.788251 0
M  V30 6187 H 587.951 -5.57115 -2.22224 0
M  V30 6188 H 589.63 -6.1384 -2.04472 0
M  V30 6189 N 589.762 0.448376 -1.51087 0
M  V30 6190 C 590.712 1.54156 -1.67988 0
M  V30 6191 C 591.696 1.5178 -0.534015 0
M  V30 6192 O 592.888 1.58419 -0.789448 0
M  V30 6193 C 590.017 2.92437 -1.79822 0
M  V30 6194 C 589.103 2.99611 -3.00157 0
M  V30 6195 N 589.494 2.7655 -4.23502 0
M  V30 6196 C 587.792 3.30764 -2.99184 0
M  V30 6197 C 588.493 2.89281 -5.0467 0
M  V30 6198 N 587.469 3.20473 -4.39088 0
M  V30 6199 H 591.271 1.35061 -2.61028 0
M  V30 6200 H 588.785 0.655504 -1.48583 0
M  V30 6201 H 590.782 3.71068 -1.90037 0
M  V30 6202 H 589.442 3.1256 -0.879554 0
M  V30 6203 H 590.453 2.5169 -4.52628 0
M  V30 6204 H 587.13 3.56732 -2.16907 0
M  V30 6205 H 588.52 2.75499 -6.12821 0
M  V30 6206 N 591.24 1.41047 0.703093 0
M  V30 6207 C 592.656 1.23351 1.01275 0
M  V30 6208 C 592.856 0.11754 2.01157 0
M  V30 6209 O 591.912 -0.520518 2.47077 0
M  V30 6210 C 593.225 2.58001 1.54454 0
M  V30 6211 C 594.773 2.65119 1.66376 0
M  V30 6212 C 595.248 4.00067 2.22958 0
M  V30 6213 N 596.739 4.01875 2.30328 0
M  V30 6214 C 597.474 5.03087 2.75119 0
M  V30 6215 N 596.97 6.14692 3.19571 0
M  V30 6216 N 598.763 4.90451 2.74616 0
M  V30 6217 H 590.914 2.1236 0.0412686 0
M  V30 6218 H 593.177 0.944543 0.08089 0
M  V30 6219 H 592.883 3.40378 0.88521 0
M  V30 6220 H 592.757 2.79962 2.52786 0
M  V30 6221 H 595.144 1.83106 2.31422 0
M  V30 6222 H 595.225 2.46975 0.666089 0
M  V30 6223 H 594.869 4.82526 1.58529 0
M  V30 6224 H 594.799 4.15547 3.23462 0
M  V30 6225 H 597.29 3.21291 1.98949 0
M  V30 6226 H 597.603 6.87799 3.52352 0
M  V30 6227 H 595.948 6.18239 3.17498 0
M  V30 6228 H 599.139 4.0235 2.39233 0
M  V30 6229 H 599.312 5.6947 3.09206 0
M  V30 6230 N 592.718 -0.936591 1.26751 0
M  V30 6231 C 593.995 -1.66094 1.03306 0
M  V30 6232 C 594.375 -2.06568 -0.435058 0
M  V30 6233 O 593.723 -1.79305 -1.41641 0
M  V30 6234 C 593.933 -2.86969 1.98619 0
M  V30 6235 C 595.281 -3.58516 2.27489 0
M  V30 6236 O 596.305 -2.97082 1.96522 0
M  V30 6237 O 595.164 -4.69181 2.80235 0
M  V30 6238 H 592.258 -0.727568 0.393158 0
M  V30 6239 H 594.804 -0.987914 1.3798 0
M  V30 6240 H 593.576 -2.53985 2.9767 0
M  V30 6241 H 593.199 -3.61996 1.64454 0
M  V30 6242 N 594.196 -1.08629 -1.14182 0
M  V30 6243 C 595.445 -0.812271 -1.84621 0
M  V30 6244 C 595.758 0.664313 -1.83973 0
M  V30 6245 O 596.964 1.05357 -2.50224 0
M  V30 6246 C 595.42 -1.4031 -3.31423 0
M  V30 6247 C 595.028 -2.91164 -3.40481 0
M  V30 6248 C 596.772 -1.20767 -4.06959 0
M  V30 6249 C 594.679 -3.43373 -4.81507 0
M  V30 6250 H 593.609 -0.30019 -0.691666 0
M  V30 6251 H 596.26 -1.30798 -1.28701 0
M  V30 6252 H 594.642 -0.835096 -3.87094 0
M  V30 6253 H 595.816 -3.5412 -2.94848 0
M  V30 6254 H 594.131 -3.09646 -2.78403 0
M  V30 6255 H 596.728 -1.57237 -5.11058 0
M  V30 6256 H 597.071 -0.147664 -4.16038 0
M  V30 6257 H 597.604 -1.74274 -3.57594 0
M  V30 6258 H 594.343 -4.48958 -4.77616 0
M  V30 6259 H 593.863 -2.85176 -5.27669 0
M  V30 6260 H 595.542 -3.40095 -5.50404 0
M  V30 6261 N 595.674 1.31259 -0.872281 0
M  V30 6262 C 596.621 2.28459 -0.327857 0
M  V30 6263 C 597.591 1.55831 0.574957 0
M  V30 6264 O 598.776 1.83965 0.506101 0
M  V30 6265 C 595.916 3.41985 0.462644 0
M  V30 6266 C 595.029 4.29458 -0.467949 0
M  V30 6267 C 594.164 5.30131 0.336903 0
M  V30 6268 C 593.203 6.0925 -0.58997 0
M  V30 6269 N 592.34 7.01872 0.178775 0
M  V30 6270 H 597.18 2.74414 -1.16193 0
M  V30 6271 H 594.717 1.34994 -0.584376 0
M  V30 6272 H 596.675 4.06547 0.936759 0
M  V30 6273 H 595.305 2.97134 1.2614 0
M  V30 6274 H 594.357 3.65318 -1.06052 0
M  V30 6275 H 595.669 4.84677 -1.17856 0
M  V30 6276 H 594.823 6.0038 0.873427 0
M  V30 6277 H 593.562 4.75573 1.08079 0
M  V30 6278 H 592.567 5.37889 -1.13823 0
M  V30 6279 H 593.792 6.65894 -1.33275 0
M  V30 6280 H 591.738 6.49721 0.905435 0
M  V30 6281 H 591.655 7.54522 -0.472452 0
M  V30 6282 H 592.923 7.76382 0.696454 0
M  V30 6283 N 597.152 0.631951 1.44375 0
M  V30 6284 C 598.377 0.142146 2.06912 0
M  V30 6285 C 598.802 -1.17456 1.4692 0
M  V30 6286 O 598.16 -1.72074 0.570975 0
M  V30 6287 C 598.208 0.0417952 3.60576 0
M  V30 6288 O 597.312 -1.00194 4.00044 0
M  V30 6289 H 596.653 0.0851491 0.658518 0
M  V30 6290 H 599.183 0.868863 1.85235 0
M  V30 6291 H 599.193 -0.148517 4.0773 0
M  V30 6292 H 597.868 1.0031 4.03622 0
M  V30 6293 H 596.445 -0.786131 3.64519 0
M  V30 6294 N 598.631 -1.53133 0.372548 0
M  V30 6295 C 599.908 -1.93704 -0.271693 0
M  V30 6296 C 600.288 -1.30667 -1.65799 0
M  V30 6297 O 599.636 -0.46838 -2.23648 0
M  V30 6298 C 599.846 -3.47576 -0.314903 0
M  V30 6299 C 601.194 -4.20998 -0.551912 0
M  V30 6300 O 602.218 -3.53994 -0.39582 0
M  V30 6301 O 601.077 -5.39748 -0.85639 0
M  V30 6302 H 598.171 -0.810457 -0.164586 0
M  V30 6303 H 600.717 -1.6427 0.425838 0
M  V30 6304 H 599.489 -3.85749 0.656792 0
M  V30 6305 H 599.112 -3.83264 -1.05804 0
M  V30 6306 N 600.109 -0.101901 -1.5727 0
M  V30 6307 C 601.057 0.872034 -2.15635 0
M  V30 6308 C 602.051 1.28742 -1.10099 0
M  V30 6309 O 603.257 1.26116 -1.28432 0
M  V30 6310 H 599.632 0.299269 -0.689886 0
M  V30 6311 H 601.603 0.355137 -2.96279 0
M  V30 6312 C 600.352 2.11886 -2.7568 0
M  V30 6313 H 599.675 1.80813 -3.56576 0
M  V30 6314 H 601.115 2.78077 -3.20077 0
M  V30 6315 C 599.574 2.89739 -1.7191 0
M  V30 6316 O 600.104 3.84522 -1.16213 0
M  V30 6317 N 598.31 2.53407 -1.42245 0
M  V30 6318 H 597.857 1.76398 -1.87727 0
M  V30 6319 H 597.815 3.05795 -0.730529 0
M  V30 6320 N 601.587 1.56661 0.17182 0
M  V30 6321 C 602.836 1.81158 0.886831 0
M  V30 6322 C 603.149 0.679072 1.83434 0
M  V30 6323 O 604.355 0.808964 2.59168 0
M  V30 6324 C 602.811 3.20999 1.6275 0
M  V30 6325 C 602.419 4.42117 0.723652 0
M  V30 6326 C 604.163 3.5479 2.33076 0
M  V30 6327 C 602.07 5.7298 1.46452 0
M  V30 6328 H 601 0.675543 0.334899 0
M  V30 6329 H 603.651 1.82967 0.139765 0
M  V30 6330 H 602.033 3.13506 2.4193 0
M  V30 6331 H 603.207 4.60789 -0.0311485 0
M  V30 6332 H 601.522 4.16197 0.130063 0
M  V30 6333 H 604.119 4.49806 2.89099 0
M  V30 6334 H 604.462 2.79646 3.08389 0
M  V30 6335 H 604.995 3.63834 1.6084 0
M  V30 6336 H 601.734 6.51152 0.753729 0
M  V30 6337 H 601.254 5.58285 2.19266 0
M  V30 6338 H 602.933 6.14916 2.01214 0
M  V30 6339 N 603.065 -0.440357 1.51323 0
M  V30 6340 C 603.995 -1.54174 1.75364 0
M  V30 6341 C 604.976 -1.59039 0.603375 0
M  V30 6342 O 606.161 -1.74815 0.845774 0
M  V30 6343 C 603.291 -2.92277 1.87593 0
M  V30 6344 C 602.245 -3.02274 3.03009 0
M  V30 6345 C 601.571 -4.42327 3.00418 0
M  V30 6346 C 602.871 -2.76634 4.43024 0
M  V30 6347 H 604.565 -1.34307 2.67585 0
M  V30 6348 H 602.111 -0.644678 1.28763 0
M  V30 6349 H 604.064 -3.69284 2.02995 0
M  V30 6350 H 602.788 -3.13369 0.920179 0
M  V30 6351 H 601.447 -2.27706 2.87307 0
M  V30 6352 H 601.095 -4.60382 2.02626 0
M  V30 6353 H 600.795 -4.49946 3.77918 0
M  V30 6354 H 602.319 -5.21312 3.17909 0
M  V30 6355 H 603.733 -3.43376 4.59093 0
M  V30 6356 H 602.13 -2.95666 5.22208 0
M  V30 6357 H 603.2 -1.72262 4.5327 0
M  V30 6358 N 604.543 -1.41418 -0.695603 0
M  V30 6359 C 605.473 -1.46035 -1.82197 0
M  V30 6360 C 606.454 -0.319025 -1.67082 0
M  V30 6361 O 607.639 -0.530462 -1.86815 0
M  V30 6362 C 604.769 -1.34179 -3.20333 0
M  V30 6363 C 603.723 -2.46123 -3.50154 0
M  V30 6364 C 603.049 -2.19332 -4.87645 0
M  V30 6365 C 604.349 -3.88463 -3.49133 0
M  V30 6366 H 606.043 -2.40303 -1.78591 0
M  V30 6367 H 603.589 -1.15663 -0.857797 0
M  V30 6368 H 605.542 -1.36021 -3.98844 0
M  V30 6369 H 604.266 -0.363952 -3.24566 0
M  V30 6370 H 602.925 -2.43563 -2.73994 0
M  V30 6371 H 602.573 -1.19891 -4.88503 0
M  V30 6372 H 602.273 -2.94344 -5.08562 0
M  V30 6373 H 603.797 -2.22889 -5.68465 0
M  V30 6374 H 605.211 -3.92738 -4.17648 0
M  V30 6375 H 603.608 -4.63158 -3.81582 0
M  V30 6376 H 604.678 -4.16617 -2.48109 0
M  V30 6377 N 606.021 0.929856 -1.27246 0
M  V30 6378 C 607.269 1.674 -1.13233 0
M  V30 6379 C 607.59 1.92311 0.322744 0
M  V30 6380 O 606.86 1.52784 1.22612 0
M  V30 6381 H 605.44 0.620411 -0.416052 0
M  V30 6382 H 608.102 1.11663 -1.59741 0
M  V30 6383 H 607.198 2.64308 -1.65975 0
M  V30 6384 N 607.499 1.09233 1.13605 0
M  V30 6385 C 608.432 0.6739 2.18023 0
M  V30 6386 C 609.41 -0.318603 1.59448 0
M  V30 6387 O 610.594 -0.220452 1.87206 0
M  V30 6388 C 607.721 -0.00751458 3.38699 0
M  V30 6389 C 606.767 0.946481 4.15865 0
M  V30 6390 S 607.6 2.45753 4.75779 0
M  V30 6391 C 608.756 1.78846 5.99804 0
M  V30 6392 H 608.989 1.55846 2.53178 0
M  V30 6393 H 606.522 0.908118 1.2487 0
M  V30 6394 H 608.48 -0.394368 4.08601 0
M  V30 6395 H 607.141 -0.868693 3.01849 0
M  V30 6396 H 606.334 0.416742 5.02274 0
M  V30 6397 H 605.936 1.27464 3.51609 0
M  V30 6398 H 608.228 1.11135 6.68323 0
M  V30 6399 H 609.171 2.63163 6.57382 0
M  V30 6400 H 609.579 1.25823 5.50299 0
M  V30 6401 N 608.977 -1.30795 0.87923 0
M  V30 6402 C 610.254 -1.91145 0.415086 0
M  V30 6403 C 610.634 -1.7995 -1.10368 0
M  V30 6404 O 609.982 -1.21305 -1.93642 0
M  V30 6405 C 610.192 -3.37014 0.906778 0
M  V30 6406 C 611.54 -4.14101 0.938358 0
M  V30 6407 O 612.564 -3.45834 0.853053 0
M  V30 6408 O 611.423 -5.36054 1.06342 0
M  V30 6409 H 608.517 -0.81736 0.125905 0
M  V30 6410 H 611.063 -1.39401 0.967753 0
M  V30 6411 H 609.835 -3.3922 1.95053 0
M  V30 6412 H 609.458 -3.96204 0.332948 0
M  V30 6413 N 610.455 -0.639598 -1.44038 0
M  V30 6414 C 611.703 -0.147188 -2.01563 0
M  V30 6415 C 612.024 1.2384 -1.50628 0
M  V30 6416 O 611.294 1.82452 -0.713316 0
M  V30 6417 H 609.874 -0.0514231 -0.745228 0
M  V30 6418 H 612.536 -0.828205 -1.76428 0
M  V30 6419 H 611.632 -0.121358 -3.11864 0
M  V30 6420 N 611.933 1.52934 -0.380664 0
M  V30 6421 C 613.158 2.06363 0.207157 0
M  V30 6422 C 613.583 1.25122 1.4045 0
M  V30 6423 O 612.941 0.274062 1.79217 0
M  V30 6424 C 612.989 3.56162 0.563996 0
M  V30 6425 O 612.093 3.77552 1.65917 0
M  V30 6426 H 611.434 0.663468 0.0265859 0
M  V30 6427 H 613.964 1.9719 -0.545635 0
M  V30 6428 H 613.974 3.99453 0.830752 0
M  V30 6429 H 612.649 4.14732 -0.311427 0
M  V30 6430 H 611.226 3.46154 1.3868 0
M  V30 6431 N 613.412 0.11024 1.57214 0
M  V30 6432 C 614.658 -0.550684 1.9518 0
M  V30 6433 C 614.991 -1.66885 0.993122 0
M  V30 6434 O 614.266 -1.94479 0.0287907 0
M  V30 6435 C 614.549 -1.09163 3.43155 0
M  V30 6436 C 614.402 0.0225198 4.49794 0
M  V30 6437 C 615.721 -1.98527 3.92778 0
M  V30 6438 H 612.84 -0.198706 0.709708 0
M  V30 6439 H 615.482 0.184024 1.89107 0
M  V30 6440 H 613.632 -1.71775 3.48462 0
M  V30 6441 H 615.304 0.657443 4.56591 0
M  V30 6442 H 613.547 0.686868 4.28328 0
M  V30 6443 H 614.218 -0.39706 5.5057 0
M  V30 6444 H 616.694 -1.458 3.8972 0
M  V30 6445 H 615.57 -2.33298 4.96853 0
M  V30 6446 H 615.831 -2.90846 3.32958 0
M  V30 6447 N 614.89 -1.56749 -0.16351 0
M  V30 6448 C 615.837 -1.97011 -1.2023 0
M  V30 6449 C 616.807 -0.835186 -1.43575 0
M  V30 6450 O 617.992 -1.09594 -1.56185 0
M  V30 6451 C 615.132 -2.34186 -2.53478 0
M  V30 6452 C 614.245 -3.60893 -2.37446 0
M  V30 6453 C 613.38 -3.87245 -3.63614 0
M  V30 6454 C 612.419 -5.07274 -3.42548 0
M  V30 6455 N 611.556 -5.29719 -4.60806 0
M  V30 6456 H 616.396 -2.85562 -0.851958 0
M  V30 6457 H 613.933 -1.41292 -0.409257 0
M  V30 6458 H 615.891 -2.53764 -3.31149 0
M  V30 6459 H 614.521 -1.48736 -2.86492 0
M  V30 6460 H 613.573 -3.49185 -1.50911 0
M  V30 6461 H 614.885 -4.48722 -2.1783 0
M  V30 6462 H 614.039 -4.07232 -4.49719 0
M  V30 6463 H 612.778 -2.97806 -3.86216 0
M  V30 6464 H 611.783 -4.87177 -2.5483 0
M  V30 6465 H 613.008 -5.98251 -3.2136 0
M  V30 6466 H 610.954 -4.43233 -4.83612 0
M  V30 6467 H 610.871 -6.11786 -4.44132 0
M  V30 6468 H 612.139 -5.54192 -5.48171 0
M  V30 6469 N 616.368 0.432326 -1.51554 0
M  V30 6470 C 617.298 1.53242 -1.76179 0
M  V30 6471 C 618.279 1.58717 -0.611801 0
M  V30 6472 O 619.464 1.74364 -0.855033 0
M  V30 6473 C 616.594 2.91278 -1.89141 0
M  V30 6474 C 615.548 3.00663 -3.04608 0
M  V30 6475 C 614.874 4.40728 -3.02759 0
M  V30 6476 C 616.174 2.74281 -4.44485 0
M  V30 6477 H 617.868 1.32886 -2.68294 0
M  V30 6478 H 615.414 0.637841 -1.29103 0
M  V30 6479 H 617.367 3.68203 -2.04951 0
M  V30 6480 H 616.091 3.12877 -0.936785 0
M  V30 6481 H 614.75 2.26179 -2.88511 0
M  V30 6482 H 614.398 4.59301 -2.05065 0
M  V30 6483 H 614.098 4.47936 -3.80299 0
M  V30 6484 H 615.622 5.19619 -3.20669 0
M  V30 6485 H 617.036 3.40936 -4.60907 0
M  V30 6486 H 615.433 2.92893 -5.23769 0
M  V30 6487 H 616.503 1.69856 -4.54177 0
M  V30 6488 N 617.846 1.41785 0.688094 0
M  V30 6489 C 619.074 1.44915 1.47673 0
M  V30 6490 C 619.489 0.0565786 1.88715 0
M  V30 6491 O 618.846 -0.92579 1.57275 0
M  V30 6492 C 618.897 2.36452 2.73446 0
M  V30 6493 O 618.618 3.7029 2.34131 0
M  V30 6494 C 620.119 2.48463 3.67125 0
M  V30 6495 H 617.339 0.493324 0.454832 0
M  V30 6496 H 619.883 1.86153 0.846594 0
M  V30 6497 H 618.038 1.98502 3.3268 0
M  V30 6498 H 618.452 4.19183 3.15255 0
M  V30 6499 H 619.926 3.16662 4.52138 0
M  V30 6500 H 620.403 1.51826 4.12123 0
M  V30 6501 H 621.009 2.8708 3.13792 0
M  V30 6502 N 619.324 -0.923095 1.27737 0
M  V30 6503 C 620.601 -1.64989 1.05062 0
M  V30 6504 C 620.981 -2.07018 -0.413124 0
M  V30 6505 O 620.329 -1.80797 -1.39731 0
M  V30 6506 C 620.539 -2.84847 2.01652 0
M  V30 6507 C 621.887 -3.56083 2.31279 0
M  V30 6508 O 622.911 -2.94981 1.99662 0
M  V30 6509 O 621.77 -4.66182 2.85196 0
M  V30 6510 H 618.864 -0.723357 0.400853 0
M  V30 6511 H 621.41 -0.973224 1.3902 0
M  V30 6512 H 620.182 -2.50814 3.00347 0
M  V30 6513 H 619.805 -3.60231 1.68284 0
M  V30 6514 N 620.802 -1.09834 -1.13024 0
M  V30 6515 C 622.049 -0.83695 -1.84395 0
M  V30 6516 C 622.377 0.637463 -1.83757 0
M  V30 6517 O 621.632 1.48554 -1.27398 0
M  V30 6518 C 621.931 -1.32263 -3.32026 0
M  V30 6519 C 621.597 -2.80739 -3.52841 0
M  V30 6520 C 620.259 -3.21286 -3.5823 0
M  V30 6521 C 622.611 -3.76449 -3.60466 0
M  V30 6522 C 619.939 -4.56308 -3.68781 0
M  V30 6523 C 622.291 -5.11266 -3.72546 0
M  V30 6524 C 620.955 -5.51397 -3.76189 0
M  V30 6525 H 620.225 -0.306262 -0.674748 0
M  V30 6526 H 622.872 -1.37385 -1.33408 0
M  V30 6527 H 621.177 -0.705618 -3.85394 0
M  V30 6528 H 622.874 -1.09695 -3.85705 0
M  V30 6529 H 619.464 -2.48363 -3.49305 0
M  V30 6530 H 623.648 -3.46234 -3.55578 0
M  V30 6531 H 618.904 -4.86832 -3.69871 0
M  V30 6532 H 623.078 -5.85279 -3.77388 0
M  V30 6533 H 620.705 -6.56017 -3.84117 0
M  V30 6534 N 622.28 1.30327 -0.886154 0
M  V30 6535 C 623.528 1.9571 -0.504195 0
M  V30 6536 C 623.849 1.70294 0.950003 0
M  V30 6537 O 623.119 1.02718 1.66811 0
M  V30 6538 H 621.699 0.72412 -0.183465 0
M  V30 6539 H 624.361 1.58835 -1.12949 0
M  V30 6540 H 623.457 3.04704 -0.675431 0
M  V30 6541 N 623.758 0.647228 1.43697 0
M  V30 6542 C 625.005 0.158188 2.01881 0
M  V30 6543 C 625.333 -1.22573 1.51017 0
M  V30 6544 O 624.588 -1.83086 0.69122 0
M  V30 6545 C 624.887 0.111481 3.57226 0
M  V30 6546 C 624.553 1.43633 4.27411 0
M  V30 6547 C 623.215 1.79915 4.463 0
M  V30 6548 C 625.567 2.31011 4.67208 0
M  V30 6549 C 622.895 3.03251 5.02251 0
M  V30 6550 C 625.247 3.53633 5.24525 0
M  V30 6551 C 623.911 3.90118 5.41631 0
M  V30 6552 H 623.181 0.0578851 0.738736 0
M  V30 6553 H 625.828 0.836746 1.72252 0
M  V30 6554 H 624.133 -0.650507 3.86362 0
M  V30 6555 H 625.83 -0.283682 3.99995 0
M  V30 6556 H 622.42 1.14403 4.1305 0
M  V30 6557 H 626.604 2.04272 4.52313 0
M  V30 6558 H 621.86 3.31575 5.13681 0
M  V30 6559 H 626.034 4.21561 5.5431 0
M  V30 6560 H 623.661 4.85768 5.84751 0
M  V30 6561 N 625.236 -1.5273 0.388769 0
M  V30 6562 C 626.476 -2.03483 -0.193372 0
M  V30 6563 C 626.84 -1.26897 -1.44087 0
M  V30 6564 O 628.041 -1.67773 -2.10014 0
M  V30 6565 C 626.312 -3.54488 -0.455325 0
M  V30 6566 S 627.871 -4.27069 -1.00783 0
M  V30 6567 H 624.689 -0.708907 -0.0545131 0
M  V30 6568 H 627.291 -1.8798 0.536993 0
M  V30 6569 H 625.995 -4.07817 0.459722 0
M  V30 6570 H 625.526 -3.74196 -1.21413 0
M  V30 6571 H 627.541 -4.40185 -2.29023 0
M  V30 6572 N 626.714 -0.118576 -1.57153 0
M  V30 6573 C 627.677 0.817464 -2.14127 0
M  V30 6574 C 628.677 1.1949 -1.07604 0
M  V30 6575 O 629.867 1.12048 -1.33382 0
M  V30 6576 C 626.999 2.10541 -2.68115 0
M  V30 6577 H 628.192 0.322339 -2.98163 0
M  V30 6578 H 625.745 0.130655 -1.55753 0
M  V30 6579 H 626.48 2.64485 -1.87665 0
M  V30 6580 H 626.265 1.84425 -3.4602 0
M  V30 6581 H 627.755 2.77453 -3.12105 0
M  V30 6582 N 628.193 1.56834 0.155195 0
M  V30 6583 C 629.125 1.94235 1.21677 0
M  V30 6584 C 630.138 0.83724 1.39621 0
M  V30 6585 O 631.327 1.11567 1.39338 0
M  V30 6586 C 628.427 2.19402 2.58294 0
M  V30 6587 C 627.6 3.50671 2.61436 0
M  V30 6588 C 626.659 3.64475 3.79532 0
M  V30 6589 O 625.685 4.36945 3.64784 0
M  V30 6590 N 626.887 3.00526 4.96653 0
M  V30 6591 H 629.652 2.85901 0.898932 0
M  V30 6592 H 627.213 1.58185 0.34483 0
M  V30 6593 H 629.205 2.25886 3.35794 0
M  V30 6594 H 627.775 1.34042 2.82403 0
M  V30 6595 H 626.995 3.55702 1.69912 0
M  V30 6596 H 628.283 4.3702 2.60559 0
M  V30 6597 H 627.681 2.41549 5.11538 0
M  V30 6598 H 626.238 3.12583 5.71958 0
M  V30 6599 N 629.671 -0.424282 1.51781 0
M  V30 6600 C 630.92 -1.16961 1.64326 0
M  V30 6601 C 631.233 -1.92035 0.371749 0
M  V30 6602 O 632.439 -2.68873 0.37676 0
M  V30 6603 C 630.895 -2.12782 2.90262 0
M  V30 6604 C 630.503 -1.43295 4.24465 0
M  V30 6605 C 632.247 -2.87667 3.12166 0
M  V30 6606 C 630.154 -2.37676 5.41538 0
M  V30 6607 H 629.084 -0.440293 0.612093 0
M  V30 6608 H 631.735 -0.435431 1.78259 0
M  V30 6609 H 630.117 -2.8969 2.69992 0
M  V30 6610 H 631.291 -0.718564 4.55163 0
M  V30 6611 H 629.606 -0.805118 4.08542 0
M  V30 6612 H 632.203 -3.58395 3.96808 0
M  V30 6613 H 632.546 -3.49758 2.25776 0
M  V30 6614 H 633.079 -2.17863 3.32837 0
M  V30 6615 H 629.818 -1.80255 6.30229 0
M  V30 6616 H 629.338 -3.07132 5.15199 0
M  V30 6617 H 631.017 -2.98529 5.74012 0
M  V30 6618 N 631.149 -1.42148 -0.680565 0
M  V30 6619 C 632.377 -1.45696 -1.46902 0
M  V30 6620 C 632.792 -0.0665858 -1.88683 0
M  V30 6621 O 632.149 0.917436 -1.57764 0
M  V30 6622 C 632.2 -2.37898 -2.72188 0
M  V30 6623 O 631.921 -3.71526 -2.32163 0
M  V30 6624 C 633.422 -2.50407 -3.65802 0
M  V30 6625 H 630.642 -0.495729 -0.45221 0
M  V30 6626 H 633.186 -1.866 -0.836709 0
M  V30 6627 H 631.341 -2.00263 -3.31622 0
M  V30 6628 H 631.755 -4.20849 -3.13027 0
M  V30 6629 H 633.229 -3.19056 -4.50452 0
M  V30 6630 H 633.706 -1.5401 -4.11312 0
M  V30 6631 H 634.312 -2.8874 -3.12265 0
M  V30 6632 N 632.627 0.916307 -1.28225 0
M  V30 6633 C 634.038 1.48024 -1.13779 0
M  V30 6634 C 634.389 1.94289 0.273139 0
M  V30 6635 O 633.514 1.82226 1.16716 0
M  V30 6636 C 634.109 2.69029 -2.05935 0
M  V30 6637 C 632.668 3.2161 -1.95561 0
M  V30 6638 C 631.815 1.94321 -1.97825 0
M  V30 6639 H 634.766 0.729272 -1.40951 0
M  V30 6640 H 634.787 3.44204 -1.62184 0
M  V30 6641 H 634.299 2.35325 -3.08616 0
M  V30 6642 H 632.4 3.60045 -0.959076 0
M  V30 6643 H 632.513 3.87032 -2.82388 0
M  V30 6644 H 630.877 2.1131 -1.42198 0
M  V30 6645 H 631.66 1.62917 -3.0218 0
M  V30 6646 N 634.105 1.10431 1.1244 0
M  V30 6647 C 635.015 0.765502 2.21759 0
M  V30 6648 C 636.031 -0.236966 1.72379 0
M  V30 6649 O 637.207 -0.0757329 2.01258 0
M  V30 6650 C 634.272 0.202316 3.46109 0
M  V30 6651 C 633.333 1.26205 4.1033 0
M  V30 6652 C 632.566 0.725648 5.28744 0
M  V30 6653 O 632.789 -0.447942 5.68638 0
M  V30 6654 O 631.723 1.48555 5.83279 0
M  V30 6655 H 635.549 1.67801 2.53133 0
M  V30 6656 H 633.134 0.879443 1.20773 0
M  V30 6657 H 635.016 -0.107918 4.21262 0
M  V30 6658 H 633.691 -0.683052 3.16411 0
M  V30 6659 H 632.598 1.62514 3.36957 0
M  V30 6660 H 633.931 2.12044 4.44183 0
M  V30 6661 N 635.583 -1.29855 0.893053 0
M  V30 6662 C 636.515 -2.26911 0.32311 0
M  V30 6663 C 637.528 -1.54039 -0.526858 0
M  V30 6664 O 638.717 -1.75132 -0.345095 0
M  V30 6665 C 635.817 -3.34266 -0.558509 0
M  V30 6666 C 634.99 -4.36601 0.264222 0
M  V30 6667 C 634.049 -5.23326 -0.549171 0
M  V30 6668 O 633.075 -5.69192 0.0309883 0
M  V30 6669 N 634.277 -5.50008 -1.85664 0
M  V30 6670 H 637.042 -2.76455 1.15726 0
M  V30 6671 H 634.603 -1.4312 0.756859 0
M  V30 6672 H 636.595 -3.89211 -1.1089 0
M  V30 6673 H 635.165 -2.8459 -1.29334 0
M  V30 6674 H 634.385 -3.81409 0.996046 0
M  V30 6675 H 635.673 -5.02019 0.827906 0
M  V30 6676 H 635.071 -5.14542 -2.35081 0
M  V30 6677 H 633.628 -6.07796 -2.35431 0
M  V30 6678 N 637.061 -0.65484 -1.43351 0
M  V30 6679 C 638.286 -0.175046 -2.0666 0
M  V30 6680 C 638.711 1.15104 -1.4877 0
M  V30 6681 O 638.069 1.71144 -0.598279 0
M  V30 6682 C 638.117 -0.0991544 -3.60464 0
M  V30 6683 O 637.221 0.938169 -4.01587 0
M  V30 6684 H 636.562 -0.0956148 -0.65708 0
M  V30 6685 H 639.092 -0.898222 -1.83829 0
M  V30 6686 H 639.102 0.083632 -4.07914 0
M  V30 6687 H 637.777 -1.06719 -4.01975 0
M  V30 6688 H 636.354 0.72804 -3.65724 0
M  V30 6689 N 638.539 1.52521 -0.396863 0
M  V30 6690 C 639.486 2.26671 0.434624 0
M  V30 6691 C 640.456 1.28584 1.05144 0
M  V30 6692 O 641.641 1.57426 1.07804 0
M  V30 6693 C 638.781 3.08234 1.55196 0
M  V30 6694 C 637.894 4.21261 0.957262 0
M  V30 6695 C 637.029 4.90205 2.04627 0
M  V30 6696 C 636.068 5.95213 1.42787 0
M  V30 6697 N 635.205 6.57723 2.45651 0
M  V30 6698 H 640.045 2.973 -0.204139 0
M  V30 6699 H 637.582 1.46669 -0.112505 0
M  V30 6700 H 639.54 3.53819 2.2106 0
M  V30 6701 H 638.17 2.398 2.16092 0
M  V30 6702 H 637.222 3.79935 0.188005 0
M  V30 6703 H 638.534 4.96624 0.465416 0
M  V30 6704 H 637.688 5.39133 2.78246 0
M  V30 6705 H 636.427 4.14383 2.57174 0
M  V30 6706 H 635.432 5.45616 0.676968 0
M  V30 6707 H 636.657 6.72972 0.910255 0
M  V30 6708 H 634.603 5.84737 2.97353 0
M  V30 6709 H 634.52 7.28723 2.01243 0
M  V30 6710 H 635.788 7.11293 3.18876 0
M  V30 6711 N 640.017 0.126909 1.57088 0
M  V30 6712 C 641.433 -0.229641 1.57939 0
M  V30 6713 C 641.633 -1.66145 1.1401 0
M  V30 6714 O 640.689 -2.3843 0.831119 0
M  V30 6715 C 642.002 0.0108648 3.00698 0
M  V30 6716 C 643.55 -0.054418 3.12953 0
M  V30 6717 C 644.025 0.158497 4.57726 0
M  V30 6718 N 645.516 0.104735 4.63082 0
M  V30 6719 C 646.251 0.24427 5.72879 0
M  V30 6720 N 645.747 0.440415 6.91399 0
M  V30 6721 N 647.54 0.183286 5.61801 0
M  V30 6722 H 639.691 1.06203 1.83942 0
M  V30 6723 H 641.954 0.418834 0.85046 0
M  V30 6724 H 641.66 1.00102 3.37154 0
M  V30 6725 H 641.534 -0.717512 3.70313 0
M  V30 6726 H 643.921 -1.0351 2.7635 0
M  V30 6727 H 644.002 0.705967 2.45865 0
M  V30 6728 H 643.646 1.13619 4.95028 0
M  V30 6729 H 643.576 -0.62197 5.22914 0
M  V30 6730 H 646.067 -0.0430298 3.77876 0
M  V30 6731 H 646.38 0.537536 7.70928 0
M  V30 6732 H 644.725 0.476488 6.93365 0
M  V30 6733 H 647.916 0.0309561 4.6809 0
M  V30 6734 H 648.089 0.295471 6.47326 0
M  V30 6735 N 641.495 -1.56914 -0.146875 0
M  V30 6736 C 642.72 -1.87881 -0.878386 0
M  V30 6737 C 643.145 -0.715945 -1.73942 0
M  V30 6738 O 642.503 0.334447 -1.78189 0
M  V30 6739 C 642.551 -3.17431 -1.71084 0
M  V30 6740 O 641.655 -3.01374 -2.81509 0
M  V30 6741 H 640.996 -0.617289 -0.244644 0
M  V30 6742 H 643.526 -2.04136 -0.137654 0
M  V30 6743 H 643.536 -3.49455 -2.10582 0
M  V30 6744 H 642.211 -4.01671 -1.07856 0
M  V30 6745 H 640.788 -2.80758 -2.45416 0
M  V30 6746 N 642.974 0.416227 -1.52004 0
M  V30 6747 C 644.202 1.18573 -1.69553 0
M  V30 6748 C 644.617 1.84472 -0.401919 0
M  V30 6749 O 643.974 1.71593 0.621463 0
M  V30 6750 C 644.025 2.25413 -2.82615 0
M  V30 6751 O 643.746 1.62205 -4.06966 0
M  V30 6752 C 645.247 3.15297 -3.11613 0
M  V30 6753 H 642.467 0.356582 -0.56841 0
M  V30 6754 H 645.011 0.490618 -1.98528 0
M  V30 6755 H 643.166 2.90604 -2.56179 0
M  V30 6756 H 643.58 2.3298 -4.69916 0
M  V30 6757 H 645.054 3.86351 -3.94255 0
M  V30 6758 H 645.531 3.77264 -2.24874 0
M  V30 6759 H 646.137 2.55783 -3.39787 0
M  V30 6760 N 644.452 1.42507 0.673017 0
M  V30 6761 C 645.385 1.40557 1.79774 0
M  V30 6762 C 646.363 0.269606 1.60349 0
M  V30 6763 O 647.547 0.460105 1.82798 0
M  V30 6764 C 644.674 1.19815 3.168 0
M  V30 6765 C 643.72 2.36429 3.5497 0
M  V30 6766 S 644.553 3.98963 3.57196 0
M  V30 6767 C 645.709 3.80567 4.9691 0
M  V30 6768 H 645.942 2.35734 1.81154 0
M  V30 6769 H 643.475 1.293 0.843846 0
M  V30 6770 H 645.433 1.08535 3.95892 0
M  V30 6771 H 644.094 0.262215 3.13004 0
M  V30 6772 H 643.287 2.17669 4.54573 0
M  V30 6773 H 642.889 2.44233 2.83242 0
M  V30 6774 H 645.181 3.41668 5.85038 0
M  V30 6775 H 646.124 4.79852 5.20718 0
M  V30 6776 H 646.532 3.13399 4.69512 0
M  V30 6777 N 645.93 -0.909495 1.28709 0
M  V30 6778 C 647.176 -1.66151 1.16283 0
M  V30 6779 C 647.509 -1.92067 -0.287069 0
M  V30 6780 O 646.784 -1.52409 -1.20837 0
M  V30 6781 C 647.067 -3.01676 1.9663 0
M  V30 6782 C 646.92 -2.82888 3.49707 0
M  V30 6783 C 648.239 -4.02274 1.78504 0
M  V30 6784 H 645.358 -0.602966 0.423793 0
M  V30 6785 H 648 -1.05418 1.58073 0
M  V30 6786 H 646.15 -3.53515 1.61119 0
M  V30 6787 H 647.822 -2.38026 3.95147 0
M  V30 6788 H 646.065 -2.17862 3.75125 0
M  V30 6789 H 646.736 -3.79147 4.01187 0
M  V30 6790 H 649.212 -3.59511 2.09503 0
M  V30 6791 H 648.088 -4.95056 2.37088 0
M  V30 6792 H 648.349 -4.35903 0.737647 0
M  V30 6793 N 647.408 -1.11026 -1.11852 0
M  V30 6794 C 648.656 -0.854769 -1.83134 0
M  V30 6795 C 648.977 0.621375 -1.84835 0
M  V30 6796 O 648.247 1.45129 -1.31584 0
M  V30 6797 H 646.827 -0.313229 -0.678157 0
M  V30 6798 H 649.489 -1.40178 -1.35411 0
M  V30 6799 H 648.585 -1.22311 -2.87135 0
M  V30 6800 N 648.886 1.2938 -0.899927 0
M  V30 6801 C 650.114 1.99691 -0.541386 0
M  V30 6802 C 650.529 1.67355 0.873936 0
M  V30 6803 O 649.886 0.918728 1.57688 0
M  V30 6804 C 649.937 3.54168 -0.72438 0
M  V30 6805 O 649.658 3.85359 -2.08399 0
M  V30 6806 C 651.159 4.41746 -0.370819 0
M  V30 6807 H 648.379 0.638037 -0.207726 0
M  V30 6808 H 650.923 1.6491 -1.20934 0
M  V30 6809 H 649.078 3.87261 -0.103607 0
M  V30 6810 H 649.492 4.80032 -2.11352 0
M  V30 6811 H 650.966 5.49256 -0.549693 0
M  V30 6812 H 651.443 4.33712 0.692148 0
M  V30 6813 H 652.049 4.14125 -0.968543 0
M  V30 6814 N 650.364 0.662433 1.43002 0
M  V30 6815 C 651.775 0.258315 1.84904 0
M  V30 6816 C 652.126 -1.19703 1.55453 0
M  V30 6817 O 651.251 -1.91484 1.00811 0
M  V30 6818 C 651.846 0.462047 3.35635 0
M  V30 6819 C 650.405 0.112165 3.76233 0
M  V30 6820 C 649.552 0.760479 2.66668 0
M  V30 6821 H 652.503 0.865467 1.33024 0
M  V30 6822 H 652.524 -0.289646 3.79396 0
M  V30 6823 H 652.036 1.52135 3.57039 0
M  V30 6824 H 650.137 -0.944179 3.60439 0
M  V30 6825 H 650.25 0.544058 4.76001 0
M  V30 6826 H 648.614 0.192887 2.53969 0
M  V30 6827 H 649.397 1.82299 2.90898 0
M  V30 6828 N 651.842 -1.52309 0.404946 0
M  V30 6829 C 653.072 -2.05886 -0.171569 0
M  V30 6830 C 653.48 -1.27527 -1.39762 0
M  V30 6831 O 652.823 -0.319215 -1.80905 0
M  V30 6832 C 652.885 -3.54609 -0.590983 0
M  V30 6833 C 652.549 -4.53989 0.523757 0
M  V30 6834 C 653.546 -5.01084 1.38604 0
M  V30 6835 C 651.231 -4.97465 0.695255 0
M  V30 6836 C 653.225 -5.90295 2.4048 0
M  V30 6837 C 650.912 -5.86473 1.71733 0
M  V30 6838 C 651.91 -6.32782 2.57051 0
M  V30 6839 O 651.598 -7.20029 3.57509 0
M  V30 6840 H 651.33 -0.675508 -0.0257763 0
M  V30 6841 H 653.884 -1.97238 0.573278 0
M  V30 6842 H 652.114 -3.60929 -1.38805 0
M  V30 6843 H 653.803 -3.90853 -1.09494 0
M  V30 6844 H 654.569 -4.68214 1.26492 0
M  V30 6845 H 650.448 -4.60982 0.0408447 0
M  V30 6846 H 653.992 -6.26363 3.07108 0
M  V30 6847 H 649.889 -6.18756 1.83877 0
M  V30 6848 H 650.657 -7.3813 3.53703 0
M  V30 6849 N 653.32 -0.135238 -1.57019 0
M  V30 6850 C 654.566 0.513232 -1.96818 0
M  V30 6851 C 654.921 1.63245 -1.01827 0
M  V30 6852 O 654.214 1.91532 -0.0511756 0
M  V30 6853 C 654.408 1.07694 -3.40788 0
M  V30 6854 C 654.237 0.0138667 -4.49698 0
M  V30 6855 C 653.007 -0.423532 -5.03522 0
M  V30 6856 C 655.205 -0.77322 -5.08454 0
M  V30 6857 N 653.187 -1.47068 -5.96024 0
M  V30 6858 C 654.558 -1.67115 -5.97053 0
M  V30 6859 C 656.613 -0.822313 -4.91063 0
M  V30 6860 C 655.316 -2.61395 -6.70123 0
M  V30 6861 C 657.342 -1.75288 -5.64826 0
M  V30 6862 C 656.704 -2.63836 -6.53123 0
M  V30 6863 H 652.803 0.156956 -0.766087 0
M  V30 6864 H 655.387 -0.227118 -1.93371 0
M  V30 6865 H 653.558 1.78694 -3.44852 0
M  V30 6866 H 655.29 1.69106 -3.67675 0
M  V30 6867 H 652.045 -0.0280202 -4.73592 0
M  V30 6868 H 652.469 -1.99366 -6.46979 0
M  V30 6869 H 657.111 -0.151822 -4.22527 0
M  V30 6870 H 654.829 -3.2945 -7.37895 0
M  V30 6871 H 658.415 -1.79652 -5.53368 0
M  V30 6872 H 657.295 -3.34672 -7.092 0
M  V30 6873 N 654.798 1.5699 0.138552 0
M  V30 6874 C 655.731 1.94064 1.2006 0
M  V30 6875 C 656.709 0.807601 1.41126 0
M  V30 6876 O 657.893 1.06399 1.556 0
M  V30 6877 C 655.02 2.21999 2.55801 0
M  V30 6878 C 654.066 3.44617 2.5128 0
M  V30 6879 S 654.899 4.97888 1.97149 0
M  V30 6880 C 656.055 5.28954 3.34602 0
M  V30 6881 H 656.288 2.83843 0.884337 0
M  V30 6882 H 653.821 1.50507 0.344517 0
M  V30 6883 H 655.779 2.38772 3.33914 0
M  V30 6884 H 654.44 1.32869 2.84613 0
M  V30 6885 H 653.633 3.61466 3.51224 0
M  V30 6886 H 653.235 3.27129 1.8128 0
M  V30 6887 H 655.527 5.22938 4.30745 0
M  V30 6888 H 656.47 6.30346 3.22598 0
M  V30 6889 H 656.878 4.56455 3.32128 0
M  V30 6890 N 656.276 -0.40816 1.52223 0
M  V30 6891 C 657.239 -1.48 1.7501 0
M  V30 6892 C 658.239 -1.48367 0.619996 0
M  V30 6893 O 659.429 -1.49874 0.887881 0
M  V30 6894 C 656.561 -2.87403 1.83336 0
M  V30 6895 H 657.754 -1.29086 2.70697 0
M  V30 6896 H 655.307 -0.638715 1.42654 0
M  V30 6897 H 656.042 -3.11686 0.895677 0
M  V30 6898 H 655.827 -2.8854 2.65494 0
M  V30 6899 H 657.317 -3.65103 2.02705 0
M  V30 6900 N 657.755 -1.42862 -0.66545 0
M  V30 6901 C 659.166 -1.3901 -1.24632 0
M  V30 6902 C 659.517 -0.0880285 -1.96002 0
M  V30 6903 O 658.642 0.812947 -2.0055 0
M  V30 6904 C 659.237 -2.51806 -2.2667 0
M  V30 6905 C 657.796 -2.51257 -2.80262 0
M  V30 6906 C 656.943 -2.30124 -1.5472 0
M  V30 6907 H 659.894 -1.5194 -0.458237 0
M  V30 6908 H 659.915 -2.22593 -3.08598 0
M  V30 6909 H 659.427 -3.46558 -1.74697 0
M  V30 6910 H 657.528 -1.60349 -3.36332 0
M  V30 6911 H 657.641 -3.48614 -3.28641 0
M  V30 6912 H 656.005 -1.7856 -1.81627 0
M  V30 6913 H 656.788 -3.26945 -1.04699 0
M  V30 6914 N 659.233 0.902656 -1.29189 0
M  V30 6915 C 660.143 2.03946 -1.15944 0
M  V30 6916 C 661.159 1.738 -0.0833803 0
M  V30 6917 O 662.335 1.9923 -0.29487 0
M  V30 6918 C 659.4 3.36519 -0.834006 0
M  V30 6919 C 658.461 3.80203 -1.9936 0
M  V30 6920 C 657.694 5.06449 -1.68359 0
M  V30 6921 O 657.917 5.67202 -0.603141 0
M  V30 6922 O 656.851 5.46114 -2.53067 0
M  V30 6923 H 660.677 2.18043 -2.11403 0
M  V30 6924 H 658.262 1.02584 -1.08613 0
M  V30 6925 H 660.144 4.16089 -0.666949 0
M  V30 6926 H 658.819 3.23573 0.0908245 0
M  V30 6927 H 657.726 3.01413 -2.21588 0
M  V30 6928 H 659.059 3.97729 -2.89952 0
M  V30 6929 N 660.711 1.11618 1.11262 0
M  V30 6930 C 661.957 0.867463 1.83311 0
M  V30 6931 C 662.29 -0.605366 1.84524 0
M  V30 6932 O 661.565 -1.44704 1.29965 0
M  V30 6933 C 661.848 1.43207 3.30399 0
M  V30 6934 C 661.701 2.97265 3.3757 0
M  V30 6935 C 663.02 1.08454 4.26528 0
M  V30 6936 H 660.139 0.316578 0.665543 0
M  V30 6937 H 662.781 1.38137 1.30454 0
M  V30 6938 H 660.931 0.994982 3.75543 0
M  V30 6939 H 662.603 3.49591 3.00971 0
M  V30 6940 H 660.846 3.33237 2.77733 0
M  V30 6941 H 661.517 3.31859 4.41105 0
M  V30 6942 H 663.993 1.4619 3.89574 0
M  V30 6943 H 662.869 1.50633 5.27826 0
M  V30 6944 H 663.13 -0.00444568 4.421 0
M  V30 6945 N 662.189 -1.289 0.906776 0
M  V30 6946 C 663.435 -1.95558 0.53712 0
M  V30 6947 C 663.768 -1.71262 -0.915582 0
M  V30 6948 O 663.043 -1.02961 -1.65013 0
M  V30 6949 C 663.326 -3.50198 0.838645 0
M  V30 6950 C 663.179 -3.83923 2.34357 0
M  V30 6951 C 664.498 -4.38861 0.329988 0
M  V30 6952 H 661.617 -0.710289 0.196617 0
M  V30 6953 H 664.259 -1.52392 1.13475 0
M  V30 6954 H 662.409 -3.87096 0.330024 0
M  V30 6955 H 664.081 -3.56933 2.92227 0
M  V30 6956 H 662.324 -3.31215 2.80141 0
M  V30 6957 H 662.995 -4.91883 2.5051 0
M  V30 6958 H 665.471 -4.08996 0.765609 0
M  V30 6959 H 664.347 -5.45931 0.570105 0
M  V30 6960 H 664.608 -4.35352 -0.769511 0
M  V30 6961 N 663.667 -0.670007 -1.42649 0
M  V30 6962 C 664.895 -0.19854 -2.05945 0
M  V30 6963 C 665.31 1.14243 -1.50313 0
M  V30 6964 O 664.667 1.70872 -0.641027 0
M  V30 6965 C 664.718 -0.11966 -3.61302 0
M  V30 6966 O 664.439 -1.40764 -4.1487 0
M  V30 6967 C 665.94 0.375878 -4.41704 0
M  V30 6968 H 663.16 -0.0976894 -0.663851 0
M  V30 6969 H 665.704 -0.915392 -1.82868 0
M  V30 6970 H 663.859 0.547851 -3.83507 0
M  V30 6971 H 664.273 -1.27784 -5.08696 0
M  V30 6972 H 665.747 0.379988 -5.50691 0
M  V30 6973 H 666.224 1.41028 -4.15942 0
M  V30 6974 H 666.83 -0.259727 -4.24506 0
M  V30 6975 N 665.145 1.52092 -0.413018 0
M  V30 6976 C 666.561 1.59471 -0.0640836 0
M  V30 6977 C 666.761 1.42562 1.42402 0
M  V30 6978 O 665.817 1.25453 2.19129 0
M  V30 6979 C 667.13 2.95392 -0.562474 0
M  V30 6980 C 668.678 3.08637 -0.520788 0
M  V30 6981 C 669.153 4.47044 -0.995752 0
M  V30 6982 N 670.644 4.53296 -0.952732 0
M  V30 6983 C 671.379 5.58669 -1.29138 0
M  V30 6984 N 670.875 6.71576 -1.70168 0
M  V30 6985 N 672.668 5.48898 -1.2111 0
M  V30 6986 H 664.819 1.6133 -1.38153 0
M  V30 6987 H 667.082 0.75916 -0.567785 0
M  V30 6988 H 666.788 3.13059 -1.60271 0
M  V30 6989 H 666.662 3.77191 0.0257875 0
M  V30 6990 H 669.049 2.90652 0.510412 0
M  V30 6991 H 669.13 2.28735 -1.14515 0
M  V30 6992 H 668.774 4.65773 -2.0253 0
M  V30 6993 H 668.704 5.25448 -0.348162 0
M  V30 6994 H 671.195 3.72248 -0.651119 0
M  V30 6995 H 671.508 7.47973 -1.9431 0
M  V30 6996 H 669.853 6.72847 -1.74075 0
M  V30 6997 H 673.044 4.59573 -0.889396 0
M  V30 6998 H 673.217 6.30912 -1.47833 0
M  V30 6999 N 666.623 0.143563 1.56945 0
M  V30 7000 C 667.57 -0.797433 2.16586 0
M  V30 7001 C 668.54 -1.24654 1.09775 0
M  V30 7002 O 669.725 -1.31968 1.37801 0
M  V30 7003 C 666.865 -2.03253 2.78895 0
M  V30 7004 C 665.978 -1.62954 4.00087 0
M  V30 7005 C 665.113 -2.81617 4.50406 0
M  V30 7006 C 664.152 -2.37675 5.64072 0
M  V30 7007 N 663.289 -3.49335 6.09023 0
M  V30 7008 H 668.129 -0.282023 2.96662 0
M  V30 7009 H 665.666 -0.127494 1.46546 0
M  V30 7010 H 667.624 -2.75653 3.13163 0
M  V30 7011 H 666.254 -2.52211 2.01469 0
M  V30 7012 H 665.306 -0.803322 3.71821 0
M  V30 7013 H 666.618 -1.26679 4.82446 0
M  V30 7014 H 665.772 -3.62212 4.86711 0
M  V30 7015 H 664.511 -3.21134 3.67048 0
M  V30 7016 H 663.516 -1.55519 5.27346 0
M  V30 7017 H 664.741 -1.99247 6.49213 0
M  V30 7018 H 662.687 -3.8848 5.28601 0
M  V30 7019 H 662.604 -3.17064 6.86299 0
M  V30 7020 H 663.872 -4.30297 6.49973 0
M  V30 7021 N 668.101 -1.57061 -0.130224 0
M  V30 7022 C 669.064 -1.98593 -1.14426 0
M  V30 7023 C 670.064 -0.874584 -1.34936 0
M  V30 7024 O 671.254 -1.14086 -1.31643 0
M  V30 7025 C 668.386 -2.31639 -2.50112 0
M  V30 7026 H 669.579 -2.89374 -0.787561 0
M  V30 7027 H 667.132 -1.51756 -0.374146 0
M  V30 7028 H 667.867 -1.43703 -2.90723 0
M  V30 7029 H 667.652 -3.12684 -2.36583 0
M  V30 7030 H 669.142 -2.64551 -3.23114 0
M  V30 7031 N 669.579 0.400081 -1.52437 0
M  V30 7032 C 670.809 1.16598 -1.70553 0
M  V30 7033 C 671.217 1.8451 -0.418665 0
M  V30 7034 O 670.56 1.73069 0.615855 0
M  V30 7035 C 670.622 2.26517 -2.7916 0
M  V30 7036 C 670.286 1.78666 -4.20628 0
M  V30 7037 C 671.283 1.26946 -5.04163 0
M  V30 7038 C 668.968 1.85225 -4.66902 0
M  V30 7039 C 670.962 0.824187 -6.32049 0
M  V30 7040 C 668.649 1.40309 -5.94774 0
M  V30 7041 C 669.647 0.889922 -6.77178 0
M  V30 7042 O 669.335 0.447281 -8.02655 0
M  V30 7043 H 669.067 0.356023 -0.574651 0
M  V30 7044 H 671.621 0.475598 -1.99818 0
M  V30 7045 H 669.851 2.98946 -2.45292 0
M  V30 7046 H 671.54 2.88237 -2.85787 0
M  V30 7047 H 672.306 1.21244 -4.69601 0
M  V30 7048 H 668.185 2.24111 -4.02859 0
M  V30 7049 H 671.729 0.422958 -6.96317 0
M  V30 7050 H 667.626 1.45693 -6.28843 0
M  V30 7051 H 668.394 0.569768 -8.16514 0
M  V30 7052 N 671.057 1.43213 0.657864 0
M  V30 7053 C 672.305 1.44298 1.41501 0
M  V30 7054 C 672.626 0.0666478 1.94886 0
M  V30 7055 O 671.896 -0.897345 1.74139 0
M  V30 7056 H 670.476 0.531257 0.525143 0
M  V30 7057 H 673.138 1.78777 0.776195 0
M  V30 7058 H 672.234 2.1528 2.25966 0
M  V30 7059 N 672.536 -0.895792 1.29666 0
M  V30 7060 C 673.947 -1.46195 1.1612 0
M  V30 7061 C 674.298 -1.94699 -0.242195 0
M  V30 7062 O 673.423 -1.8406 -1.13802 0
M  V30 7063 C 674.018 -2.65718 2.10189 0
M  V30 7064 C 672.577 -3.18458 2.00653 0
M  V30 7065 C 671.724 -1.91149 2.00891 0
M  V30 7066 H 674.675 -0.706756 1.42094 0
M  V30 7067 H 674.696 -3.4158 1.6764 0
M  V30 7068 H 674.208 -2.30386 3.12321 0
M  V30 7069 H 672.309 -3.58474 1.01623 0
M  V30 7070 H 672.422 -3.82491 2.88509 0
M  V30 7071 H 670.786 -2.09021 1.45542 0
M  V30 7072 H 671.569 -1.58089 3.04734 0
M  V30 7073 N 674.014 -1.12206 -1.10668 0
M  V30 7074 C 674.961 -0.787716 -2.16942 0
M  V30 7075 C 675.931 0.244442 -1.64291 0
M  V30 7076 O 677.116 0.119558 -1.90425 0
M  V30 7077 C 674.256 -0.24584 -3.44223 0
M  V30 7078 C 673.369 -1.33552 -4.10838 0
M  V30 7079 C 672.504 -0.753337 -5.25831 0
M  V30 7080 C 671.543 -1.82231 -5.84344 0
M  V30 7081 N 670.68 -1.25902 -6.90719 0
M  V30 7082 H 675.52 -1.69809 -2.44885 0
M  V30 7083 H 673.057 -0.847862 -1.20207 0
M  V30 7084 H 675.015 0.0863639 -4.17111 0
M  V30 7085 H 673.645 0.627702 -3.16638 0
M  V30 7086 H 672.697 -1.78454 -3.35944 0
M  V30 7087 H 674.009 -2.14396 -4.50373 0
M  V30 7088 H 673.163 -0.37166 -6.05561 0
M  V30 7089 H 671.902 0.0863297 -4.87624 0
M  V30 7090 H 670.907 -2.2132 -5.03287 0
M  V30 7091 H 672.132 -2.66515 -6.24617 0
M  V30 7092 H 670.078 -0.44114 -6.54515 0
M  V30 7093 H 669.995 -2.00408 -7.28953 0
M  V30 7094 H 671.263 -0.904498 -7.74235 0
M  V30 7095 N 675.492 1.28418 -0.913599 0
M  V30 7096 C 676.738 1.9527 -0.547484 0
M  V30 7097 C 677.071 1.71745 0.906486 0
M  V30 7098 O 676.346 1.03834 1.64465 0
M  V30 7099 C 676.629 3.49748 -0.857205 0
M  V30 7100 C 676.482 3.82675 -2.3639 0
M  V30 7101 C 677.801 4.3868 -0.353258 0
M  V30 7102 H 674.92 0.709236 -0.200381 0
M  V30 7103 H 677.562 1.51789 -1.14281 0
M  V30 7104 H 675.712 3.86915 -0.350548 0
M  V30 7105 H 677.384 3.55378 -2.94116 0
M  V30 7106 H 675.627 3.29724 -2.81894 0
M  V30 7107 H 676.298 4.90547 -2.53115 0
M  V30 7108 H 678.774 4.08584 -0.787288 0
M  V30 7109 H 677.65 5.45621 -0.599049 0
M  V30 7110 H 677.911 4.35753 0.746413 0
M  V30 7111 N 676.97 0.677563 1.42291 0
M  V30 7112 C 678.247 0.129803 1.95169 0
M  V30 7113 C 678.627 -1.35605 1.61786 0
M  V30 7114 O 677.975 -2.09361 0.915444 0
M  V30 7115 C 678.185 0.401889 3.46678 0
M  V30 7116 C 679.533 0.319889 4.23393 0
M  V30 7117 O 680.557 0.33579 3.54614 0
M  V30 7118 O 679.416 0.264459 5.4586 0
M  V30 7119 H 676.51 0.00447433 0.826988 0
M  V30 7120 H 679.056 0.752483 1.52105 0
M  V30 7121 H 677.828 1.43108 3.64192 0
M  V30 7122 H 677.451 -0.252662 3.96796 0
M  V30 7123 N 678.448 -1.51871 0.421078 0
M  V30 7124 C 679.697 -2.01125 -0.152206 0
M  V30 7125 C 680.01 -1.3106 -1.45199 0
M  V30 7126 O 681.216 -1.71195 -2.10724 0
M  V30 7127 C 679.672 -3.58458 -0.3218 0
M  V30 7128 C 679.28 -4.37448 0.96659 0
M  V30 7129 C 681.024 -4.15908 -0.84973 0
M  V30 7130 C 678.931 -5.86451 0.763529 0
M  V30 7131 H 677.861 -0.751556 -0.0606565 0
M  V30 7132 H 680.512 -1.75115 0.548354 0
M  V30 7133 H 678.894 -3.80847 -1.08498 0
M  V30 7134 H 680.068 -4.26814 1.73684 0
M  V30 7135 H 678.383 -3.91373 1.42183 0
M  V30 7136 H 680.98 -5.24922 -1.01788 0
M  V30 7137 H 681.323 -3.74031 -1.82774 0
M  V30 7138 H 681.856 -3.97535 -0.145297 0
M  V30 7139 H 678.595 -6.3271 1.71344 0
M  V30 7140 H 678.115 -5.99791 0.0327889 0
M  V30 7141 H 679.794 -6.45697 0.410354 0
M  V30 7142 N 679.926 -0.151884 -1.56866 0
M  V30 7143 C 681.172 0.492327 -1.97352 0
M  V30 7144 C 681.527 1.62156 -1.03553 0
M  V30 7145 O 680.82 1.91467 -0.0714872 0
M  V30 7146 C 681.014 1.04074 -3.41911 0
M  V30 7147 C 680.843 -0.0338306 -4.49687 0
M  V30 7148 C 679.613 -0.476914 -5.03044 0
M  V30 7149 C 681.811 -0.827105 -5.07606 0
M  V30 7150 N 679.793 -1.53382 -5.9443 0
M  V30 7151 C 681.164 -1.73439 -5.95247 0
M  V30 7152 C 683.219 -0.874351 -4.90163 0
M  V30 7153 C 681.922 -2.68488 -6.67313 0
M  V30 7154 C 683.948 -1.81269 -5.62935 0
M  V30 7155 C 683.31 -2.70749 -6.50288 0
M  V30 7156 H 679.409 0.148822 -0.767708 0
M  V30 7157 H 681.993 -0.247615 -1.93119 0
M  V30 7158 H 680.164 1.75027 -3.46728 0
M  V30 7159 H 681.896 1.65197 -3.69448 0
M  V30 7160 H 678.651 -0.0782493 -4.73535 0
M  V30 7161 H 679.075 -2.06217 -6.44828 0
M  V30 7162 H 683.717 -0.196628 -4.22343 0
M  V30 7163 H 681.435 -3.37257 -7.34359 0
M  V30 7164 H 685.021 -1.85511 -5.51432 0
M  V30 7165 H 683.901 -3.42175 -7.0561 0
M  V30 7166 N 681.404 1.57128 0.121893 0
M  V30 7167 C 682.629 1.89254 0.848385 0
M  V30 7168 C 683.054 0.743527 1.72781 0
M  V30 7169 O 682.412 -0.306056 1.78698 0
M  V30 7170 C 682.46 3.20113 1.66012 0
M  V30 7171 O 681.564 3.05815 2.76679 0
M  V30 7172 H 680.905 0.621103 0.234793 0
M  V30 7173 H 683.435 2.0433 0.10516 0
M  V30 7174 H 683.445 3.52761 2.04996 0
M  V30 7175 H 682.12 4.03336 1.01452 0
M  V30 7176 H 680.697 2.84627 2.40918 0
M  V30 7177 N 682.882 -0.391992 1.52647 0
M  V30 7178 C 683.812 -1.48517 1.8018 0
M  V30 7179 C 684.793 -1.57039 0.653667 0
M  V30 7180 O 685.978 -1.72036 0.900962 0
M  V30 7181 C 683.108 -2.86161 1.96797 0
M  V30 7182 C 682.062 -2.92481 3.12472 0
M  V30 7183 C 681.388 -4.32546 3.14338 0
M  V30 7184 C 682.688 -2.624 4.51601 0
M  V30 7185 H 684.382 -1.25726 2.71723 0
M  V30 7186 H 681.928 -0.603387 1.30749 0
M  V30 7187 H 683.881 -3.62639 2.14641 0
M  V30 7188 H 682.605 -3.10283 1.01941 0
M  V30 7189 H 681.264 -2.18451 2.94406 0
M  V30 7190 H 680.912 -4.53703 2.1717 0
M  V30 7191 H 680.612 -4.37695 3.92042 0
M  V30 7192 H 682.136 -5.10934 3.34333 0
M  V30 7193 H 683.55 -3.28596 4.69785 0
M  V30 7194 H 681.947 -2.78903 5.3135 0
M  V30 7195 H 683.017 -1.57754 4.58521 0
M  V30 7196 N 684.36 -1.4356 -0.65026 0
M  V30 7197 C 685.608 -1.45046 -1.40734 0
M  V30 7198 C 685.929 -0.0769822 -1.94848 0
M  V30 7199 O 685.199 0.888098 -1.74613 0
M  V30 7200 H 683.779 -0.534034 -0.522318 0
M  V30 7201 H 686.441 -1.79186 -0.766703 0
M  V30 7202 H 685.537 -2.16476 -2.24822 0
M  V30 7203 N 685.838 0.888903 -1.30139 0
M  V30 7204 C 687.087 1.63507 -1.18103 0
M  V30 7205 C 687.4 1.93808 0.264141 0
M  V30 7206 O 688.606 2.66744 0.505966 0
M  V30 7207 C 687.062 2.94673 -2.0663 0
M  V30 7208 C 686.67 2.71926 -3.56034 0
M  V30 7209 C 688.414 3.72626 -2.03346 0
M  V30 7210 C 686.321 3.98884 -4.3663 0
M  V30 7211 H 685.251 0.613426 -0.438435 0
M  V30 7212 H 687.902 0.984427 -1.54859 0
M  V30 7213 H 686.284 3.61009 -1.62754 0
M  V30 7214 H 687.458 2.14116 -4.08033 0
M  V30 7215 H 685.773 2.07353 -3.61101 0
M  V30 7216 H 688.37 4.66775 -2.60816 0
M  V30 7217 H 688.713 4.03712 -1.016 0
M  V30 7218 H 689.246 3.13147 -2.45324 0
M  V30 7219 H 685.985 3.72959 -5.39056 0
M  V30 7220 H 685.505 4.56214 -3.89396 0
M  V30 7221 H 687.184 4.66938 -4.47859 0
M  V30 7222 N 687.317 1.12792 1.10072 0
M  V30 7223 C 688.25 0.742921 2.15768 0
M  V30 7224 C 689.228 -0.267714 1.60381 0
M  V30 7225 O 690.412 -0.160782 1.87813 0
M  V30 7226 C 687.539 0.100244 3.38552 0
M  V30 7227 C 686.585 1.07831 4.12644 0
M  V30 7228 S 687.418 2.60765 4.6772 0
M  V30 7229 C 688.574 1.97838 5.9381 0
M  V30 7230 H 688.807 1.63822 2.48092 0
M  V30 7231 H 686.34 0.947385 1.21918 0
M  V30 7232 H 688.298 -0.264175 4.09649 0
M  V30 7233 H 686.959 -0.772223 3.04459 0
M  V30 7234 H 686.152 0.576325 5.00694 0
M  V30 7235 H 685.754 1.38586 3.47376 0
M  V30 7236 H 688.046 1.32341 6.64449 0
M  V30 7237 H 688.989 2.83943 6.48677 0
M  V30 7238 H 689.397 1.43267 5.46017 0
M  V30 7239 N 688.795 -1.27931 0.920396 0
M  V30 7240 C 689.758 -2.25345 0.41858 0
M  V30 7241 C 690.758 -1.54116 -0.458798 0
M  V30 7242 O 691.948 -1.72235 -0.260912 0
M  V30 7243 C 689.08 -3.38556 -0.399104 0
M  V30 7244 H 690.273 -2.71251 1.27918 0
M  V30 7245 H 687.826 -1.39728 0.700406 0
M  V30 7246 H 688.561 -2.98021 -1.27882 0
M  V30 7247 H 688.346 -3.91426 0.229863 0
M  V30 7248 H 689.836 -4.10976 -0.740817 0
M  V30 7249 N 690.273 -0.685099 -1.4193 0
M  V30 7250 C 691.522 -0.208816 -2.00616 0
M  V30 7251 C 691.835 1.19506 -1.54847 0
M  V30 7252 O 693.041 1.76826 -2.06021 0
M  V30 7253 C 691.497 -0.322446 -3.58453 0
M  V30 7254 C 691.105 -1.73102 -4.13206 0
M  V30 7255 C 692.849 0.0945979 -4.24395 0
M  V30 7256 C 690.756 -1.79687 -5.63442 0
M  V30 7257 H 689.686 -0.0743092 -0.750329 0
M  V30 7258 H 692.337 -0.851778 -1.62533 0
M  V30 7259 H 690.719 0.388588 -3.94089 0
M  V30 7260 H 691.893 -2.46997 -3.8901 0
M  V30 7261 H 690.208 -2.09682 -3.59753 0
M  V30 7262 H 692.805 0.0656937 -5.3466 0
M  V30 7263 H 693.148 1.1316 -4.00625 0
M  V30 7264 H 693.681 -0.56579 -3.93756 0
M  V30 7265 H 690.42 -2.81404 -5.92024 0
M  V30 7266 H 689.94 -1.10162 -5.89597 0
M  V30 7267 H 691.619 -1.55498 -6.28036 0
M  V30 7268 N 691.751 1.51645 -0.429126 0
M  V30 7269 C 692.661 2.31288 0.392809 0
M  V30 7270 C 693.677 1.39852 1.03525 0
M  V30 7271 O 694.853 1.72926 1.03241 0
M  V30 7272 C 691.918 3.13347 1.48372 0
M  V30 7273 C 690.979 4.20551 0.862268 0
M  V30 7274 C 690.212 4.98688 1.9012 0
M  V30 7275 O 690.435 4.77359 3.12225 0
M  V30 7276 O 689.369 5.83005 1.4963 0
M  V30 7277 H 693.195 3.02609 -0.257138 0
M  V30 7278 H 690.78 1.48163 -0.191851 0
M  V30 7279 H 692.662 3.64387 2.1166 0
M  V30 7280 H 691.337 2.44799 2.1179 0
M  V30 7281 H 690.244 3.73609 0.191568 0
M  V30 7282 H 691.577 4.91449 0.271704 0
M  V30 7283 N 693.229 0.160201 1.56784 0
M  V30 7284 C 694.162 -0.812797 2.13234 0
M  V30 7285 C 695.14 -1.2335 1.05942 0
M  V30 7286 O 696.324 -1.32725 1.33852 0
M  V30 7287 C 693.451 -2.09311 2.66283 0
M  V30 7288 C 692.497 -1.8173 3.85845 0
M  V30 7289 S 693.33 -0.996473 5.26147 0
M  V30 7290 C 694.486 -2.28769 5.82594 0
M  V30 7291 H 694.719 -0.332794 2.95432 0
M  V30 7292 H 692.252 -0.0542971 1.54304 0
M  V30 7293 H 694.21 -2.82854 2.97496 0
M  V30 7294 H 692.871 -2.54425 1.84192 0
M  V30 7295 H 692.064 -2.76699 4.21253 0
M  V30 7296 H 691.666 -1.16289 3.55462 0
M  V30 7297 H 693.958 -3.24319 5.9483 0
M  V30 7298 H 694.901 -1.97846 6.79899 0
M  V30 7299 H 695.309 -2.40021 5.10931 0
M  V30 7300 N 694.707 -1.5719 -0.113559 0
M  V30 7301 C 695.953 -1.85412 -0.821597 0
M  V30 7302 C 696.286 -0.746722 -1.7927 0
M  V30 7303 O 695.561 0.246971 -1.92926 0
M  V30 7304 C 695.844 -3.24233 -1.56669 0
M  V30 7305 C 695.697 -4.45578 -0.614823 0
M  V30 7306 C 697.016 -3.60697 -2.52161 0
M  V30 7307 H 694.135 -0.674406 -0.29723 0
M  V30 7308 H 696.777 -1.89807 -0.085694 0
M  V30 7309 H 694.927 -3.20617 -2.19401 0
M  V30 7310 H 696.599 -4.613 0.00407137 0
M  V30 7311 H 694.842 -4.33738 0.0732332 0
M  V30 7312 H 695.513 -5.39395 -1.17292 0
M  V30 7313 H 697.989 -3.65139 -1.99532 0
M  V30 7314 H 696.865 -4.58798 -3.01323 0
M  V30 7315 H 697.126 -2.88403 -3.35076 0
M  V30 7316 N 696.185 0.383891 -1.52853 0
M  V30 7317 C 697.095 1.49343 -1.80925 0
M  V30 7318 C 698.111 1.59458 -0.696348 0
M  V30 7319 O 699.287 1.75698 -0.984481 0
M  V30 7320 C 696.352 2.84819 -1.97684 0
M  V30 7321 C 695.413 2.84382 -3.21598 0
M  V30 7322 C 694.646 4.13397 -3.37548 0
M  V30 7323 O 694.869 5.08619 -2.58192 0
M  V30 7324 O 693.803 4.20325 -4.30826 0
M  V30 7325 H 697.629 1.2855 -2.75152 0
M  V30 7326 H 695.214 0.572229 -1.38007 0
M  V30 7327 H 697.096 3.65125 -2.10385 0
M  V30 7328 H 695.771 3.05627 -1.06647 0
M  V30 7329 H 694.678 2.0284 -3.14336 0
M  V30 7330 H 696.011 2.68526 -4.12498 0
M  V30 7331 N 697.663 1.43903 0.642637 0
M  V30 7332 C 698.911 1.45791 1.39962 0
M  V30 7333 C 699.232 0.0873144 1.94804 0
M  V30 7334 O 698.502 -0.878825 1.75081 0
M  V30 7335 H 697.082 0.536797 0.519479 0
M  V30 7336 H 699.744 1.7959 0.757189 0
M  V30 7337 H 698.84 2.17665 2.2367 0
M  V30 7338 N 699.141 -0.881989 1.30609 0
M  V30 7339 C 700.051 -2.02076 1.19174 0
M  V30 7340 C 701.067 -1.73645 0.11102 0
M  V30 7341 O 702.243 -1.98735 0.326528 0
M  V30 7342 C 699.308 -3.3515 0.887438 0
M  V30 7343 C 698.369 -3.76983 2.05383 0
M  V30 7344 C 697.602 -5.03707 1.76395 0
M  V30 7345 O 697.825 -5.66171 0.693302 0
M  V30 7346 O 696.759 -5.42019 2.61723 0
M  V30 7347 H 700.585 -2.14652 2.14845 0
M  V30 7348 H 698.17 -1.00843 1.10232 0
M  V30 7349 H 700.052 -4.14975 0.73306 0
M  V30 7350 H 698.727 -3.23676 -0.0393354 0
M  V30 7351 H 697.634 -2.97849 2.26355 0
M  V30 7352 H 698.967 -3.93066 2.96243 0
M  V30 7353 N 700.619 -1.13374 -1.09472 0
M  V30 7354 C 702.03 -0.90801 -1.63132 0
M  V30 7355 C 702.381 0.555576 -1.8817 0
M  V30 7356 O 701.506 1.42218 -1.63104 0
M  V30 7357 C 702.101 -1.64182 -2.96361 0
M  V30 7358 C 700.66 -1.46197 -3.46848 0
M  V30 7359 C 699.807 -1.67134 -2.21273 0
M  V30 7360 H 702.758 -1.2871 -0.928411 0
M  V30 7361 H 702.779 -1.09863 -3.64294 0
M  V30 7362 H 702.291 -2.707 -2.78106 0
M  V30 7363 H 700.392 -0.419788 -3.70228 0
M  V30 7364 H 700.505 -2.22472 -4.24315 0
M  V30 7365 H 698.869 -1.09616 -2.29905 0
M  V30 7366 H 699.652 -2.74971 -2.05538 0
M  V30 7367 N 702.098 1.27442 -0.927168 0
M  V30 7368 C 703.509 1.76385 -0.611979 0
M  V30 7369 C 703.86 1.75715 0.872853 0
M  V30 7370 O 702.985 1.3603 1.683 0
M  V30 7371 C 703.58 3.20303 -1.10414 0
M  V30 7372 C 702.139 3.66916 -0.839628 0
M  V30 7373 C 701.286 2.46859 -1.26317 0
M  V30 7374 H 704.237 1.13716 -1.107 0
M  V30 7375 H 704.258 3.77811 -0.451578 0
M  V30 7376 H 703.77 3.20759 -2.18484 0
M  V30 7377 H 701.871 3.71906 0.227292 0
M  V30 7378 H 701.984 4.56415 -1.45679 0
M  V30 7379 H 700.348 2.45407 -0.681723 0
M  V30 7380 H 701.131 2.50025 -2.3525 0
M  V30 7381 N 703.576 0.692616 1.41565 0
M  V30 7382 C 704.806 0.230943 2.05305 0
M  V30 7383 C 705.214 -1.12379 1.52209 0
M  V30 7384 O 704.557 -1.71281 0.663968 0
M  V30 7385 C 704.619 0.107894 3.59338 0
M  V30 7386 C 704.283 1.39419 4.35214 0
M  V30 7387 C 705.28 2.33143 4.64694 0
M  V30 7388 C 702.965 1.64674 4.74539 0
M  V30 7389 C 704.959 3.50385 5.32456 0
M  V30 7390 C 702.646 2.82202 5.42038 0
M  V30 7391 C 703.644 3.74881 5.70923 0
M  V30 7392 O 703.332 4.90351 6.37033 0
M  V30 7393 H 703.064 0.105708 0.667684 0
M  V30 7394 H 705.618 0.94488 1.82376 0
M  V30 7395 H 703.848 -0.661785 3.80995 0
M  V30 7396 H 705.537 -0.316213 4.04666 0
M  V30 7397 H 706.303 2.14887 4.34797 0
M  V30 7398 H 702.182 0.934007 4.51439 0
M  V30 7399 H 705.726 4.22743 5.54918 0
M  V30 7400 H 701.623 3.00376 5.71353 0
M  V30 7401 H 702.391 4.90128 6.55528 0
M  V30 7402 N 705.054 -1.51416 0.437162 0
M  V30 7403 C 705.984 -2.30631 -0.364922 0
M  V30 7404 C 706.965 -1.36037 -1.02118 0
M  V30 7405 O 708.15 -1.64956 -1.02485 0
M  V30 7406 C 705.28 -3.1482 -1.46648 0
M  V30 7407 C 704.234 -4.17691 -0.933717 0
M  V30 7408 C 703.56 -4.904 -2.13101 0
M  V30 7409 C 704.86 -5.2229 0.0317201 0
M  V30 7410 H 706.554 -2.97932 0.29614 0
M  V30 7411 H 704.1 -1.4328 0.143865 0
M  V30 7412 H 706.053 -3.69017 -2.03481 0
M  V30 7413 H 704.777 -2.4534 -2.15583 0
M  V30 7414 H 703.436 -3.64545 -0.387602 0
M  V30 7415 H 703.084 -4.17423 -2.80654 0
M  V30 7416 H 702.784 -5.59962 -1.78092 0
M  V30 7417 H 704.308 -5.4742 -2.70487 0
M  V30 7418 H 705.722 -5.7156 -0.446302 0
M  V30 7419 H 704.119 -5.99378 0.29437 0
M  V30 7420 H 705.189 -4.75131 0.968447 0
M  V30 7421 N 706.532 -0.168513 -1.56696 0
M  V30 7422 C 707.48 0.779791 -2.19139 0
M  V30 7423 C 708.474 1.23957 -1.1546 0
M  V30 7424 O 709.68 1.20555 -1.33666 0
M  V30 7425 H 706.055 0.269739 -0.701958 0
M  V30 7426 H 708.026 0.229156 -2.97519 0
M  V30 7427 C 706.775 2.00003 -2.84419 0
M  V30 7428 H 706.098 1.65527 -3.63924 0
M  V30 7429 H 707.538 2.64251 -3.31583 0
M  V30 7430 C 705.997 2.82187 -1.84044 0
M  V30 7431 O 706.527 3.79247 -1.32418 0
M  V30 7432 N 704.733 2.47145 -1.52864 0
M  V30 7433 H 704.28 1.68277 -1.9504 0
M  V30 7434 H 704.238 3.02422 -0.859569 0
M  V30 7435 N 708.01 1.57248 0.105221 0
M  V30 7436 C 708.92 2.04653 1.14693 0
M  V30 7437 C 709.936 0.969488 1.44489 0
M  V30 7438 O 711.112 1.28196 1.55331 0
M  V30 7439 C 708.177 2.45297 2.45011 0
M  V30 7440 C 707.238 3.67148 2.22489 0
M  V30 7441 C 706.471 4.05844 3.46592 0
M  V30 7442 O 706.694 3.44736 4.54437 0
M  V30 7443 O 705.628 4.98862 3.36779 0
M  V30 7444 H 709.454 2.93663 0.774336 0
M  V30 7445 H 707.039 1.45998 0.31701 0
M  V30 7446 H 708.921 2.72112 3.21766 0
M  V30 7447 H 707.596 1.59429 2.81717 0
M  V30 7448 H 706.503 3.45463 1.43547 0
M  V30 7449 H 707.836 4.53764 1.9068 0
M  V30 7450 N 709.488 -0.375779 1.53054 0
M  V30 7451 C 710.436 -1.48015 1.79428 0
M  V30 7452 C 711.43 -1.55893 0.662854 0
M  V30 7453 O 712.636 -1.58901 0.845599 0
M  V30 7454 H 709.011 -0.492887 0.56795 0
M  V30 7455 H 710.982 -1.22971 2.71884 0
M  V30 7456 C 709.731 -2.84984 1.99197 0
M  V30 7457 H 709.054 -2.79677 2.85693 0
M  V30 7458 H 710.494 -3.61462 2.21633 0
M  V30 7459 C 708.953 -3.28025 0.768183 0
M  V30 7460 O 709.483 -4.01671 -0.0480482 0
M  V30 7461 N 707.689 -2.84454 0.594521 0
M  V30 7462 H 707.236 -2.24688 1.25988 0
M  V30 7463 H 707.194 -3.13609 -0.222916 0
M  V30 7464 N 710.966 -1.44241 -0.634997 0
M  V30 7465 C 712.377 -1.41622 -1.21655 0
M  V30 7466 C 712.728 -0.129584 -1.95772 0
M  V30 7467 O 711.853 0.770225 -2.02229 0
M  V30 7468 C 712.448 -2.56557 -2.21278 0
M  V30 7469 C 711.007 -2.57145 -2.7487 0
M  V30 7470 C 710.154 -2.33354 -1.49804 0
M  V30 7471 H 713.105 -1.52878 -0.425905 0
M  V30 7472 H 713.126 -2.29089 -3.03807 0
M  V30 7473 H 712.638 -3.50186 -1.67306 0
M  V30 7474 H 710.739 -1.67447 -3.32855 0
M  V30 7475 H 710.852 -3.55507 -3.21172 0
M  V30 7476 H 709.216 -1.82372 -1.77799 0
M  V30 7477 H 709.999 -3.29092 -0.977402 0
M  V30 7478 N 712.444 0.87505 -1.31075 0
M  V30 7479 C 713.374 1.99775 -1.20881 0
M  V30 7480 C 714.355 1.69822 -0.0971612 0
M  V30 7481 O 715.54 1.92158 -0.280895 0
M  V30 7482 C 712.67 3.35163 -0.910118 0
M  V30 7483 C 711.624 3.79406 -1.98078 0
M  V30 7484 C 710.95 5.12197 -1.53488 0
M  V30 7485 C 712.25 3.97061 -3.39323 0
M  V30 7486 H 713.944 2.08562 -2.14808 0
M  V30 7487 H 711.49 1.00207 -1.03415 0
M  V30 7488 H 713.443 4.13237 -0.825423 0
M  V30 7489 H 712.167 3.26536 0.064822 0
M  V30 7490 H 710.826 3.03568 -2.05528 0
M  V30 7491 H 710.474 5.00007 -0.547941 0
M  V30 7492 H 710.174 5.4277 -2.2511 0
M  V30 7493 H 711.698 5.92785 -1.46417 0
M  V30 7494 H 713.112 4.65545 -3.34576 0
M  V30 7495 H 711.509 4.39025 -4.09118 0
M  V30 7496 H 712.579 3.00601 -3.80483 0
M  V30 7497 N 713.922 1.13953 1.08869 0
M  V30 7498 C 715.338 0.878924 1.33218 0
M  V30 7499 C 715.538 -0.482478 1.95638 0
M  V30 7500 O 714.594 -1.22778 2.2064 0
M  V30 7501 C 715.907 2.00798 2.23832 0
M  V30 7502 C 717.455 2.04073 2.37325 0
M  V30 7503 C 717.93 3.16258 3.31278 0
M  V30 7504 N 719.421 3.15805 3.38853 0
M  V30 7505 C 720.156 3.99249 4.11567 0
M  V30 7506 N 719.652 4.92721 4.87029 0
M  V30 7507 N 721.445 3.87327 4.0735 0
M  V30 7508 H 713.596 2.01645 0.66731 0
M  V30 7509 H 715.859 0.878395 0.356547 0
M  V30 7510 H 715.565 2.98986 1.85203 0
M  V30 7511 H 715.439 1.92704 3.24261 0
M  V30 7512 H 717.826 1.06495 2.75214 0
M  V30 7513 H 717.907 2.16239 1.36654 0
M  V30 7514 H 717.551 4.14079 2.9411 0
M  V30 7515 H 717.481 3.0133 4.31866 0
M  V30 7516 H 719.972 2.48102 2.8505 0
M  V30 7517 H 720.285 5.52867 5.39961 0
M  V30 7518 H 718.63 4.96723 4.86098 0
M  V30 7519 H 721.821 3.13627 3.475 0
M  V30 7520 H 721.994 4.52585 4.63757 0
M  V30 7521 N 715.4 -1.26948 0.933913 0
M  V30 7522 C 716.363 -2.24889 0.442457 0
M  V30 7523 C 717.363 -1.54594 -0.442426 0
M  V30 7524 O 718.553 -1.72502 -0.242629 0
M  V30 7525 C 715.685 -3.3896 -0.363173 0
M  V30 7526 H 716.878 -2.69879 1.30787 0
M  V30 7527 H 714.431 -1.38978 0.715187 0
M  V30 7528 H 715.166 -2.99361 -1.24714 0
M  V30 7529 H 714.951 -3.9116 0.271366 0
M  V30 7530 H 716.441 -4.11739 -0.697186 0
M  V30 7531 N 716.879 -0.700114 -1.41195 0
M  V30 7532 C 717.809 -0.0521132 -2.33442 0
M  V30 7533 C 718.79 0.76228 -1.52063 0
M  V30 7534 O 719.975 0.714336 -1.80585 0
M  V30 7535 C 717.105 0.881693 -3.35922 0
M  V30 7536 C 716.059 0.174062 -4.27646 0
M  V30 7537 C 715.385 1.22254 -5.20536 0
M  V30 7538 C 716.685 -0.962396 -5.13357 0
M  V30 7539 H 718.379 -0.822574 -2.87879 0
M  V30 7540 H 715.925 -0.397011 -1.38419 0
M  V30 7541 H 717.878 1.34429 -3.99383 0
M  V30 7542 H 716.602 1.68387 -2.79845 0
M  V30 7543 H 715.261 -0.268551 -3.65615 0
M  V30 7544 H 714.909 2.01736 -4.60773 0
M  V30 7545 H 714.609 0.754038 -5.82742 0
M  V30 7546 H 716.133 1.68555 -5.86874 0
M  V30 7547 H 717.547 -0.579875 -5.7036 0
M  V30 7548 H 715.944 -1.35828 -5.84526 0
M  V30 7549 H 717.014 -1.80003 -4.50252 0
M  V30 7550 N 718.357 1.51182 -0.445186 0
M  V30 7551 C 719.587 2.06269 0.116922 0
M  V30 7552 C 719.995 1.31188 1.36332 0
M  V30 7553 O 719.338 0.367067 1.79995 0
M  V30 7554 C 719.4 3.56051 0.496757 0
M  V30 7555 C 719.064 4.52441 -0.64394 0
M  V30 7556 C 720.061 4.97233 -1.5184 0
M  V30 7557 C 717.746 4.95447 -0.826905 0
M  V30 7558 C 719.74 5.83712 -2.56046 0
M  V30 7559 C 717.427 5.81714 -1.87222 0
M  V30 7560 C 718.425 6.25745 -2.73738 0
M  V30 7561 O 718.113 7.10298 -3.76474 0
M  V30 7562 H 717.845 0.675954 0.00785733 0
M  V30 7563 H 720.399 1.95648 -0.625371 0
M  V30 7564 H 718.629 3.64483 1.29187 0
M  V30 7565 H 720.318 3.93618 0.990928 0
M  V30 7566 H 721.084 4.64696 -1.38862 0
M  V30 7567 H 716.963 4.60712 -0.163052 0
M  V30 7568 H 720.507 6.18 -3.23607 0
M  V30 7569 H 716.404 6.13664 -2.00218 0
M  V30 7570 H 717.172 7.28493 -3.73149 0
M  V30 7571 N 719.835 0.176821 1.56605 0
M  V30 7572 C 720.765 -0.746841 2.21234 0
M  V30 7573 C 721.746 -1.23502 1.16967 0
M  V30 7574 O 722.931 -1.28718 1.45414 0
M  V30 7575 C 720.061 -1.97407 2.8574 0
M  V30 7576 C 719.015 -1.62153 3.96094 0
M  V30 7577 C 718.341 -2.92387 4.47676 0
M  V30 7578 C 719.641 -0.845353 5.15413 0
M  V30 7579 H 721.335 -0.208116 2.98676 0
M  V30 7580 H 718.881 -0.0986594 1.43662 0
M  V30 7581 H 720.834 -2.62531 3.2963 0
M  V30 7582 H 719.558 -2.53703 2.05676 0
M  V30 7583 H 718.217 -0.993964 3.52868 0
M  V30 7584 H 717.865 -3.46734 3.64396 0
M  V30 7585 H 717.565 -2.69551 5.22127 0
M  V30 7586 H 719.089 -3.5853 4.94255 0
M  V30 7587 H 720.503 -1.39929 5.55961 0
M  V30 7588 H 718.9 -0.715814 5.95815 0
M  V30 7589 H 719.97 0.157239 4.84645 0
M  V30 7590 N 721.313 -1.57302 -0.09688 0
M  V30 7591 C 722.562 -1.85183 -0.799388 0
M  V30 7592 C 722.875 -0.765818 -1.79985 0
M  V30 7593 O 724.081 -0.931696 -2.55013 0
M  V30 7594 C 722.537 -3.28399 -1.47249 0
M  V30 7595 C 722.145 -4.45066 -0.511888 0
M  V30 7596 C 723.889 -3.65506 -2.15883 0
M  V30 7597 C 721.796 -5.79315 -1.18948 0
M  V30 7598 H 720.726 -0.690752 -0.302287 0
M  V30 7599 H 723.377 -1.83425 -0.0523104 0
M  V30 7600 H 721.759 -3.24692 -2.26697 0
M  V30 7601 H 722.933 -4.60116 0.250962 0
M  V30 7602 H 721.248 -4.16343 0.0686576 0
M  V30 7603 H 723.845 -4.63087 -2.67309 0
M  V30 7604 H 724.188 -2.94041 -2.94696 0
M  V30 7605 H 724.721 -3.71094 -1.43298 0
M  V30 7606 H 721.46 -6.54007 -0.442198 0
M  V30 7607 H 720.98 -5.68111 -1.9238 0
M  V30 7608 H 722.659 -6.23816 -1.71646 0
M  V30 7609 N 722.791 0.367657 -1.53252 0
M  V30 7610 C 723.754 1.43308 -1.78873 0
M  V30 7611 C 724.754 1.46671 -0.659115 0
M  V30 7612 O 725.944 1.47468 -0.927306 0
M  V30 7613 C 723.076 2.82442 -1.90892 0
M  V30 7614 H 724.269 1.21864 -2.74024 0
M  V30 7615 H 721.822 0.600668 -1.44297 0
M  V30 7616 H 722.557 3.09202 -0.978 0
M  V30 7617 H 722.342 2.81399 -2.73051 0
M  V30 7618 H 723.832 3.59601 -2.12314 0
M  V30 7619 N 724.269 1.44576 0.627338 0
M  V30 7620 C 725.497 1.51048 1.41394 0
M  V30 7621 C 725.912 0.136568 1.88305 0
M  V30 7622 O 725.269 -0.858251 1.6106 0
M  V30 7623 C 725.32 2.47837 2.63172 0
M  V30 7624 O 725.041 3.79887 2.18215 0
M  V30 7625 C 726.542 2.63811 3.56257 0
M  V30 7626 H 723.762 0.512171 0.4335 0
M  V30 7627 H 726.306 1.89576 0.766878 0
M  V30 7628 H 724.461 2.12433 3.23961 0
M  V30 7629 H 724.875 4.32177 2.97192 0
M  V30 7630 H 726.349 3.35554 4.38301 0
M  V30 7631 H 726.826 1.69169 4.05313 0
M  V30 7632 H 727.432 3.0013 3.01333 0
M  V30 7633 N 725.747 -0.868086 1.31537 0
M  V30 7634 C 726.695 -1.99688 1.1928 0
M  V30 7635 C 727.689 -1.69101 0.100656 0
M  V30 7636 O 728.895 -1.78073 0.262677 0
M  V30 7637 H 725.27 -0.655032 0.369374 0
M  V30 7638 H 727.241 -2.07157 2.14776 0
M  V30 7639 C 725.99 -3.35338 0.918892 0
M  V30 7640 H 725.313 -3.59396 1.75142 0
M  V30 7641 H 726.753 -4.14909 0.873311 0
M  V30 7642 C 725.212 -3.34769 -0.378366 0
M  V30 7643 O 725.742 -3.76716 -1.39456 0
M  V30 7644 N 723.948 -2.87895 -0.39557 0
M  V30 7645 H 723.495 -2.53954 0.431889 0
M  V30 7646 H 723.453 -2.87897 -1.26344 0
M  V30 7647 N 727.225 -1.14528 -1.08264 0
M  V30 7648 C 728.473 -0.912599 -1.80322 0
M  V30 7649 C 728.794 0.562256 -1.86718 0
M  V30 7650 O 728.064 1.40869 -1.36135 0
M  V30 7651 H 726.644 -0.334645 -0.667849 0
M  V30 7652 H 729.306 -1.44415 -1.30883 0
M  V30 7653 H 728.402 -1.31384 -2.83098 0
M  V30 7654 N 728.703 1.26451 -0.940633 0
M  V30 7655 C 729.931 1.97868 -0.604642 0
M  V30 7656 C 730.346 1.70051 0.820251 0
M  V30 7657 O 729.703 0.96843 1.54686 0
M  V30 7658 C 729.754 3.51684 -0.836689 0
M  V30 7659 O 729.475 3.78533 -2.20554 0
M  V30 7660 C 730.976 4.40343 -0.511169 0
M  V30 7661 H 728.196 0.631105 -0.227919 0
M  V30 7662 H 730.74 1.60979 -1.26119 0
M  V30 7663 H 728.895 3.86736 -0.226759 0
M  V30 7664 H 729.309 4.73065 -2.26517 0
M  V30 7665 H 730.783 5.47229 -0.724157 0
M  V30 7666 H 731.26 4.35694 0.553815 0
M  V30 7667 H 731.866 4.10834 -1.0998 0
M  V30 7668 N 730.181 0.707592 1.40822 0
M  V30 7669 C 731.592 0.317011 1.83989 0
M  V30 7670 C 731.943 -1.14697 1.59182 0
M  V30 7671 O 731.068 -1.8818 1.06852 0
M  V30 7672 C 731.663 0.568593 3.33995 0
M  V30 7673 C 730.222 0.231804 3.75686 0
M  V30 7674 C 729.369 0.844933 2.64114 0
M  V30 7675 H 732.32 0.907349 1.30203 0
M  V30 7676 H 732.341 -0.168798 3.80125 0
M  V30 7677 H 731.853 1.63417 3.52018 0
M  V30 7678 H 729.954 -0.82903 3.6326 0
M  V30 7679 H 730.067 0.695219 4.74029 0
M  V30 7680 H 728.431 0.273588 2.53226 0
M  V30 7681 H 729.214 1.91462 2.84951 0
M  V30 7682 N 731.66 -1.50943 0.453197 0
M  V30 7683 C 732.57 -2.31884 -0.355963 0
M  V30 7684 C 733.586 -1.41481 -1.01287 0
M  V30 7685 O 734.762 -1.74546 -1.00477 0
M  V30 7686 C 731.827 -3.15668 -1.43369 0
M  V30 7687 C 730.888 -4.2187 -0.795253 0
M  V30 7688 C 730.121 -5.0165 -1.82162 0
M  V30 7689 O 730.344 -4.82266 -3.04592 0
M  V30 7690 O 729.278 -5.85311 -1.40336 0
M  V30 7691 H 733.104 -3.02162 0.305248 0
M  V30 7692 H 730.689 -1.47839 0.215398 0
M  V30 7693 H 732.571 -3.67709 -2.05836 0
M  V30 7694 H 731.246 -2.48137 -2.07869 0
M  V30 7695 H 730.153 -3.73867 -0.132106 0
M  V30 7696 H 731.486 -4.9182 -0.193484 0
M  V30 7697 N 733.138 -0.185124 -1.56509 0
M  V30 7698 C 734.068 0.735098 -2.21627 0
M  V30 7699 C 735.049 1.2288 -1.1762 0
M  V30 7700 O 736.234 1.27945 -1.46095 0
M  V30 7701 C 733.364 1.95889 -2.86783 0
M  V30 7702 C 732.318 1.6005 -3.96948 0
M  V30 7703 C 731.644 2.90009 -4.4922 0
M  V30 7704 C 732.944 0.818008 -5.15855 0
M  V30 7705 H 734.638 0.192274 -2.98782 0
M  V30 7706 H 732.184 0.0910393 -1.43712 0
M  V30 7707 H 734.137 2.60779 -3.31017 0
M  V30 7708 H 732.861 2.52608 -2.07018 0
M  V30 7709 H 731.52 0.975237 -3.5339 0
M  V30 7710 H 731.168 3.44797 -3.6623 0
M  V30 7711 H 730.868 2.66778 -5.23549 0
M  V30 7712 H 732.392 3.55904 -4.9615 0
M  V30 7713 H 733.806 1.36979 -5.56695 0
M  V30 7714 H 732.203 0.684207 -5.96187 0
M  V30 7715 H 733.273 -0.182939 -4.84555 0
M  V30 7716 N 734.616 1.57351 0.0885366 0
M  V30 7717 C 735.548 1.99221 1.13329 0
M  V30 7718 C 736.561 0.895705 1.35945 0
M  V30 7719 O 737.75 1.17376 1.34481 0
M  V30 7720 C 734.85 2.3016 2.48756 0
M  V30 7721 C 734.023 3.61444 2.46327 0
M  V30 7722 C 733.082 3.80244 3.63732 0
M  V30 7723 O 732.108 4.52024 3.45924 0
M  V30 7724 N 733.31 3.2132 4.8346 0
M  V30 7725 H 736.075 2.89456 0.776862 0
M  V30 7726 H 733.636 1.59505 0.277428 0
M  V30 7727 H 735.628 2.39925 3.25911 0
M  V30 7728 H 734.198 1.459 2.76464 0
M  V30 7729 H 733.418 3.62588 1.54673 0
M  V30 7730 H 734.706 4.47678 2.41789 0
M  V30 7731 H 734.104 2.63028 5.00832 0
M  V30 7732 H 732.661 3.3656 5.58185 0
M  V30 7733 N 736.094 -0.359525 1.53444 0
M  V30 7734 C 737.042 -1.46104 1.80987 0
M  V30 7735 C 738.036 -1.55181 0.679351 0
M  V30 7736 O 739.242 -1.57995 0.862405 0
M  V30 7737 H 735.617 -0.486835 0.573145 0
M  V30 7738 H 737.588 -1.2008 2.73173 0
M  V30 7739 C 736.337 -2.82855 2.02208 0
M  V30 7740 H 735.66 -2.76631 2.88644 0
M  V30 7741 H 737.1 -3.59091 2.25455 0
M  V30 7742 C 735.559 -3.27192 0.802931 0
M  V30 7743 O 736.089 -4.017 -0.00544286 0
M  V30 7744 N 734.295 -2.83807 0.624657 0
M  V30 7745 H 733.842 -2.23339 1.28364 0
M  V30 7746 H 733.8 -3.13828 -0.189641 0
M  V30 7747 N 737.572 -1.44907 -0.619662 0
M  V30 7748 C 738.983 -1.42905 -1.20146 0
M  V30 7749 C 739.334 -0.150341 -1.95623 0
M  V30 7750 O 738.459 0.748732 -2.03034 0
M  V30 7751 C 739.054 -2.58889 -2.18545 0
M  V30 7752 C 737.613 -2.60046 -2.72127 0
M  V30 7753 C 736.76 -2.3493 -1.4732 0
M  V30 7754 H 739.711 -1.53321 -0.409666 0
M  V30 7755 H 739.732 -2.32298 -3.0136 0
M  V30 7756 H 739.244 -3.51941 -1.63583 0
M  V30 7757 H 737.345 -1.70968 -3.3106 0
M  V30 7758 H 737.458 -3.58893 -3.17384 0
M  V30 7759 H 735.822 -1.84248 -1.75855 0
M  V30 7760 H 736.605 -3.3011 -0.942442 0
M  V30 7761 N 739.05 0.861098 -1.31996 0
M  V30 7762 C 739.96 2.00154 -1.22374 0
M  V30 7763 C 740.976 1.73447 -0.138631 0
M  V30 7764 O 742.152 1.98191 -0.358104 0
M  V30 7765 C 739.217 3.33696 -0.940645 0
M  V30 7766 C 738.278 3.73668 -2.11355 0
M  V30 7767 C 737.511 5.00837 -1.84386 0
M  V30 7768 O 737.734 5.64996 -0.783287 0
M  V30 7769 O 736.668 5.37787 -2.70313 0
M  V30 7770 H 740.494 2.11207 -2.18233 0
M  V30 7771 H 738.079 0.990768 -1.11822 0
M  V30 7772 H 739.961 4.13756 -0.798987 0
M  V30 7773 H 738.636 3.23698 -0.0121636 0
M  V30 7774 H 737.543 2.94211 -2.31065 0
M  V30 7775 H 738.876 3.88303 -3.02459 0
M  V30 7776 N 740.528 1.15101 1.07655 0
M  V30 7777 C 741.944 0.893004 1.32279 0
M  V30 7778 C 742.144 -0.461701 1.96139 0
M  V30 7779 O 741.2 -1.20431 2.21929 0
M  V30 7780 C 742.513 2.03161 2.21689 0
M  V30 7781 C 744.061 2.06579 2.35147 0
M  V30 7782 C 744.536 3.19754 3.27905 0
M  V30 7783 N 746.027 3.19382 3.35484 0
M  V30 7784 C 746.762 4.03592 4.07309 0
M  V30 7785 N 746.258 4.97859 4.81776 0
M  V30 7786 N 748.051 3.91626 4.03219 0
M  V30 7787 H 740.202 2.02341 0.645886 0
M  V30 7788 H 742.465 0.882127 0.347211 0
M  V30 7789 H 742.171 3.00934 1.82021 0
M  V30 7790 H 742.045 1.96132 3.22199 0
M  V30 7791 H 744.432 1.09408 2.74069 0
M  V30 7792 H 744.513 2.17676 1.34353 0
M  V30 7793 H 744.157 4.17175 2.89702 0
M  V30 7794 H 744.087 3.05893 4.28645 0
M  V30 7795 H 746.578 2.51112 2.82403 0
M  V30 7796 H 746.891 5.58563 5.34067 0
M  V30 7797 H 745.236 5.0185 4.80803 0
M  V30 7798 H 748.427 3.17295 3.44154 0
M  V30 7799 H 748.6 4.57479 4.5893 0
M  V30 7800 N 742.006 -1.2595 0.947325 0
M  V30 7801 C 742.936 -2.28521 0.479604 0
M  V30 7802 C 743.917 -1.63469 -0.470293 0
M  V30 7803 O 745.102 -1.90627 -0.370824 0
M  V30 7804 C 742.232 -3.46397 -0.250289 0
M  V30 7805 C 741.186 -4.23578 0.613643 0
M  V30 7806 C 740.512 -5.34131 -0.246568 0
M  V30 7807 C 741.812 -4.86979 1.88809 0
M  V30 7808 H 743.506 -2.67895 1.33688 0
M  V30 7809 H 741.052 -1.28783 0.644274 0
M  V30 7810 H 743.005 -4.17269 -0.588576 0
M  V30 7811 H 741.729 -3.05993 -1.14175 0
M  V30 7812 H 740.388 -3.54478 0.93491 0
M  V30 7813 H 740.036 -4.89968 -1.13756 0
M  V30 7814 H 739.736 -5.86683 0.328123 0
M  V30 7815 H 741.26 -6.07839 -0.579986 0
M  V30 7816 H 742.674 -5.50034 1.61666 0
M  V30 7817 H 741.071 -5.49675 2.40784 0
M  V30 7818 H 742.141 -4.09575 2.5957 0
M  V30 7819 N 743.484 -0.715051 -1.40445 0
M  V30 7820 C 744.709 -0.26254 -2.05732 0
M  V30 7821 C 745.134 1.08691 -1.53519 0
M  V30 7822 O 744.492 1.68453 -0.670328 0
M  V30 7823 C 744.54 -0.25195 -3.59719 0
M  V30 7824 O 743.644 0.766998 -4.05205 0
M  V30 7825 H 742.985 -0.123398 -0.652433 0
M  V30 7826 H 745.515 -0.975382 -1.79854 0
M  V30 7827 H 745.525 -0.0894537 -4.07902 0
M  V30 7828 H 744.2 -1.23672 -3.97087 0
M  V30 7829 H 742.777 0.572269 -3.68483 0
M  V30 7830 N 744.962 1.50701 -0.461195 0
M  V30 7831 C 745.925 2.2686 0.326679 0
M  V30 7832 C 746.925 1.31243 0.929085 0
M  V30 7833 O 748.115 1.54754 0.799807 0
M  V30 7834 C 745.247 3.07844 1.46441 0
M  V30 7835 H 746.44 2.97954 -0.341095 0
M  V30 7836 H 743.993 1.54814 -0.214984 0
M  V30 7837 H 744.728 2.41223 2.16753 0
M  V30 7838 H 744.513 3.78101 1.03836 0
M  V30 7839 H 746.003 3.65469 2.02044 0
M  V30 7840 N 746.441 0.193421 1.56409 0
M  V30 7841 C 747.687 -0.446449 1.97825 0
M  V30 7842 C 748.02 -1.61386 1.08019 0
M  V30 7843 O 747.295 -1.94053 0.131839 0
M  V30 7844 C 747.578 -0.908199 3.48459 0
M  V30 7845 C 747.431 0.260914 4.49043 0
M  V30 7846 C 748.75 -1.77428 4.0275 0
M  V30 7847 H 745.869 -0.160807 0.719243 0
M  V30 7848 H 748.511 0.284006 1.87865 0
M  V30 7849 H 746.661 -1.53062 3.57077 0
M  V30 7850 H 748.333 0.898548 4.52464 0
M  V30 7851 H 746.576 0.912949 4.24085 0
M  V30 7852 H 747.247 -0.104657 5.51901 0
M  V30 7853 H 749.723 -1.24936 3.96901 0
M  V30 7854 H 748.599 -2.06633 5.08521 0
M  V30 7855 H 748.86 -2.72788 3.47907 0
M  V30 7856 N 747.919 -1.57396 -0.0801906 0
M  V30 7857 C 749.166 -1.86836 -0.780927 0
M  V30 7858 C 749.494 -0.784012 -1.77999 0
M  V30 7859 O 748.749 0.220881 -1.94449 0
M  V30 7860 C 749.048 -3.22915 -1.53169 0
M  V30 7861 C 748.714 -4.45843 -0.67339 0
M  V30 7862 C 747.376 -4.79213 -0.436829 0
M  V30 7863 C 749.728 -5.21142 -0.0776786 0
M  V30 7864 C 747.056 -5.853 0.405062 0
M  V30 7865 C 749.408 -6.28119 0.751619 0
M  V30 7866 C 748.072 -6.59995 0.998131 0
M  V30 7867 H 747.342 -0.683682 -0.285761 0
M  V30 7868 H 749.989 -1.91454 -0.0419435 0
M  V30 7869 H 748.294 -3.14049 -2.34265 0
M  V30 7870 H 749.991 -3.42926 -2.07853 0
M  V30 7871 H 746.581 -4.19721 -0.867891 0
M  V30 7872 H 750.765 -4.95682 -0.247572 0
M  V30 7873 H 746.021 -6.084 0.60488 0
M  V30 7874 H 750.195 -6.8563 1.22 0
M  V30 7875 H 747.822 -7.42027 1.65227 0
M  V30 7876 N 749.397 0.351382 -1.53633 0
M  V30 7877 C 750.813 0.693987 -1.43722 0
M  V30 7878 C 751.013 1.9274 -0.587669 0
M  V30 7879 O 750.069 2.52387 -0.0756082 0
M  V30 7880 C 751.382 0.893937 -2.87105 0
M  V30 7881 C 752.93 0.993051 -2.96829 0
M  V30 7882 C 753.405 1.22537 -4.41303 0
M  V30 7883 N 754.896 1.29275 -4.44795 0
M  V30 7884 C 755.631 1.48988 -5.53706 0
M  V30 7885 N 755.127 1.65924 -6.72637 0
M  V30 7886 N 756.92 1.51472 -5.41306 0
M  V30 7887 H 749.071 -0.459688 -2.07366 0
M  V30 7888 H 751.334 -0.143684 -0.937048 0
M  V30 7889 H 751.04 0.0592517 -3.5165 0
M  V30 7890 H 750.914 1.79795 -3.31592 0
M  V30 7891 H 753.301 1.81827 -2.32429 0
M  V30 7892 H 753.382 0.0661119 -2.55715 0
M  V30 7893 H 753.026 0.405117 -5.06282 0
M  V30 7894 H 752.956 2.16575 -4.80003 0
M  V30 7895 H 755.447 1.17743 -3.59089 0
M  V30 7896 H 755.76 1.80578 -7.51406 0
M  V30 7897 H 754.105 1.63075 -6.75597 0
M  V30 7898 H 757.296 1.37818 -4.47352 0
M  V30 7899 H 757.469 1.66493 -6.26246 0
M  V30 7900 N 750.875 1.45233 0.611969 0
M  V30 7901 C 752.152 1.39495 1.37115 0
M  V30 7902 C 752.532 0.0633303 2.11005 0
M  V30 7903 O 751.88 -0.954617 2.07604 0
M  V30 7904 C 752.09 2.60579 2.32163 0
M  V30 7905 C 753.438 3.05477 2.94905 0
M  V30 7906 O 754.462 2.60921 2.42485 0
M  V30 7907 O 753.321 3.82787 3.90047 0
M  V30 7908 H 750.415 0.55335 0.614599 0
M  V30 7909 H 752.961 1.57355 0.635423 0
M  V30 7910 H 751.733 3.49085 1.76793 0
M  V30 7911 H 751.356 2.45031 3.13122 0
M  V30 7912 N 752.353 -0.854086 1.3245 0
M  V30 7913 C 753.6 -1.60831 1.23043 0
M  V30 7914 C 753.928 -1.93389 -0.2076 0
M  V30 7915 O 753.183 -1.5756 -1.16075 0
M  V30 7916 C 753.482 -2.93746 2.03587 0
M  V30 7917 C 753.148 -2.80615 3.52939 0
M  V30 7918 C 751.81 -2.76742 3.93659 0
M  V30 7919 C 754.162 -2.66507 4.4791 0
M  V30 7920 C 751.49 -2.56638 5.27592 0
M  V30 7921 C 753.842 -2.47939 5.81987 0
M  V30 7922 C 752.506 -2.42458 6.21909 0
M  V30 7923 H 751.776 -0.588523 0.450247 0
M  V30 7924 H 754.423 -0.990699 1.63882 0
M  V30 7925 H 752.728 -3.5963 1.55478 0
M  V30 7926 H 754.425 -3.51127 1.93677 0
M  V30 7927 H 751.015 -2.84456 3.20598 0
M  V30 7928 H 755.199 -2.68544 4.1737 0
M  V30 7929 H 750.455 -2.50831 5.57579 0
M  V30 7930 H 754.629 -2.36002 6.55192 0
M  V30 7931 H 752.256 -2.2664 7.2563 0
M  V30 7932 N 753.831 -1.1567 -1.07043 0
M  V30 7933 C 754.761 -0.879348 -2.16309 0
M  V30 7934 C 755.742 0.171311 -1.69235 0
M  V30 7935 O 756.927 0.0250175 -1.94184 0
M  V30 7936 C 754.057 -0.371307 -3.45309 0
M  V30 7937 C 753.011 -1.359 -4.05851 0
M  V30 7938 C 752.337 -0.709678 -5.29969 0
M  V30 7939 C 753.637 -2.72606 -4.45514 0
M  V30 7940 H 755.331 -1.79308 -2.39768 0
M  V30 7941 H 752.877 -0.863558 -1.15233 0
M  V30 7942 H 754.83 -0.164798 -4.21078 0
M  V30 7943 H 753.554 0.577906 -3.21446 0
M  V30 7944 H 752.213 -1.55193 -3.32131 0
M  V30 7945 H 751.861 0.245782 -5.02399 0
M  V30 7946 H 751.561 -1.36886 -5.71433 0
M  V30 7947 H 753.085 -0.513015 -6.08441 0
M  V30 7948 H 754.499 -2.57141 -5.12398 0
M  V30 7949 H 752.896 -3.34927 -4.97939 0
M  V30 7950 H 753.966 -3.28434 -3.56734 0
M  V30 7951 N 755.309 1.25446 -0.953992 0
M  V30 7952 C 756.257 2.27909 -0.46478 0
M  V30 7953 C 757.251 1.62904 0.464607 0
M  V30 7954 O 758.457 1.76733 0.341407 0
M  V30 7955 H 754.832 0.74036 -0.131798 0
M  V30 7956 H 756.803 2.66559 -1.34122 0
M  V30 7957 C 755.552 3.46853 0.242589 0
M  V30 7958 H 754.875 3.97105 -0.463418 0
M  V30 7959 H 756.315 4.20432 0.548919 0
M  V30 7960 C 754.774 3.03386 1.46487 0
M  V30 7961 O 755.304 3.09342 2.56262 0
M  V30 7962 N 753.51 2.58584 1.32599 0
M  V30 7963 H 753.057 2.53938 0.432834 0
M  V30 7964 H 753.015 2.29866 2.14497 0
M  V30 7965 N 756.787 0.722489 1.40064 0
M  V30 7966 C 758.203 0.396758 1.5459 0
M  V30 7967 C 758.403 -1.09375 1.69232 0
M  V30 7968 O 757.459 -1.87984 1.68578 0
M  V30 7969 C 758.772 1.16885 2.77053 0
M  V30 7970 C 760.32 1.15583 2.90877 0
M  V30 7971 C 760.795 1.91023 4.16262 0
M  V30 7972 N 762.286 1.88126 4.23276 0
M  V30 7973 C 763.021 2.43315 5.19216 0
M  V30 7974 N 762.517 3.07089 6.21022 0
M  V30 7975 N 764.31 2.33418 5.11344 0
M  V30 7976 H 756.461 1.68887 1.28806 0
M  V30 7977 H 758.724 0.714231 0.62336 0
M  V30 7978 H 758.43 2.22301 2.72534 0
M  V30 7979 H 758.304 0.765011 3.69361 0
M  V30 7980 H 760.691 0.10984 2.94896 0
M  V30 7981 H 760.772 1.59895 1.99668 0
M  V30 7982 H 760.416 2.95616 4.13006 0
M  V30 7983 H 760.346 1.44126 5.06493 0
M  V30 7984 H 762.837 1.41654 3.50346 0
M  V30 7985 H 763.15 3.467 6.90666 0
M  V30 7986 H 761.495 3.11175 6.21446 0
M  V30 7987 H 764.686 1.83248 4.30741 0
M  V30 7988 H 764.859 2.7673 5.85939 0
M  V30 7989 N 758.265 -1.50454 0.469181 0
M  V30 7990 C 759.505 -2.04222 -0.0852381 0
M  V30 7991 C 759.869 -1.34357 -1.37158 0
M  V30 7992 O 761.07 -1.78669 -2.00825 0
M  V30 7993 C 759.341 -3.56403 -0.266778 0
M  V30 7994 S 760.9 -4.31811 -0.780028 0
M  V30 7995 H 757.718 -0.7108 -0.0168589 0
M  V30 7996 H 760.32 -1.8487 0.635883 0
M  V30 7997 H 759.024 -4.04807 0.67525 0
M  V30 7998 H 758.555 -3.80106 -1.01407 0
M  V30 7999 H 760.57 -4.51706 -2.05368 0
M  V30 8000 N 759.743 -0.201713 -1.56304 0
M  V30 8001 C 760.673 0.71155 -2.22394 0
M  V30 8002 C 761.654 1.21625 -1.18917 0
M  V30 8003 O 762.839 1.26388 -1.47444 0
M  V30 8004 C 759.969 1.92837 -2.88845 0
M  V30 8005 C 758.923 1.55831 -3.98623 0
M  V30 8006 C 758.249 2.85228 -4.52271 0
M  V30 8007 C 759.549 0.763249 -5.16693 0
M  V30 8008 H 761.243 0.160573 -2.98969 0
M  V30 8009 H 758.789 0.0757916 -1.438 0
M  V30 8010 H 760.742 2.57253 -3.33764 0
M  V30 8011 H 759.466 2.50398 -2.09686 0
M  V30 8012 H 758.125 0.9377 -3.54405 0
M  V30 8013 H 757.773 3.40893 -3.69866 0
M  V30 8014 H 757.473 2.6121 -5.26349 0
M  V30 8015 H 758.997 3.50622 -4.99897 0
M  V30 8016 H 760.411 1.31066 -5.58117 0
M  V30 8017 H 758.808 0.620935 -5.96879 0
M  V30 8018 H 759.878 -0.234322 -4.84334 0
M  V30 8019 N 761.222 1.57436 0.0718424 0
M  V30 8020 C 762.132 2.07039 1.10326 0
M  V30 8021 C 763.148 0.999918 1.424 0
M  V30 8022 O 764.324 1.31462 1.52577 0
M  V30 8023 C 761.389 2.50439 2.39752 0
M  V30 8024 C 760.45 3.71784 2.14651 0
M  V30 8025 C 759.683 4.13104 3.37906 0
M  V30 8026 O 759.906 3.54298 4.47023 0
M  V30 8027 O 758.84 5.05894 3.26121 0
M  V30 8028 H 762.666 2.95239 0.711872 0
M  V30 8029 H 760.251 1.46638 0.28597 0
M  V30 8030 H 762.133 2.78876 3.15921 0
M  V30 8031 H 760.808 1.65368 2.78271 0
M  V30 8032 H 759.715 3.48431 1.36187 0
M  V30 8033 H 761.048 4.57707 1.81012 0
M  V30 8034 N 762.7 -0.34323 1.53817 0
M  V30 8035 C 763.633 -1.44472 1.76644 0
M  V30 8036 C 764.611 -1.50498 0.615556 0
M  V30 8037 O 765.795 -1.6821 0.850751 0
M  V30 8038 C 762.922 -2.82705 1.86536 0
M  V30 8039 C 761.968 -2.94302 3.08688 0
M  V30 8040 S 762.801 -2.60739 4.67735 0
M  V30 8041 C 763.957 -4.01079 4.80506 0
M  V30 8042 H 764.19 -1.24893 2.69794 0
M  V30 8043 H 761.723 -0.538915 1.4469 0
M  V30 8044 H 763.681 -3.62342 1.92921 0
M  V30 8045 H 762.342 -2.9958 0.943975 0
M  V30 8046 H 761.535 -3.95593 3.12286 0
M  V30 8047 H 761.137 -2.22614 3.00531 0
M  V30 8048 H 763.429 -4.95603 4.61935 0
M  V30 8049 H 764.372 -4.02475 5.82597 0
M  V30 8050 H 764.78 -3.89119 4.08958 0
M  V30 8051 N 764.178 -1.45556 -0.604258 0
M  V30 8052 C 765.455 -1.40221 -1.36373 0
M  V30 8053 C 765.835 -0.0745195 -2.10968 0
M  V30 8054 O 765.183 0.943594 -2.08107 0
M  V30 8055 C 765.393 -2.61807 -2.30777 0
M  V30 8056 C 766.741 -3.07037 -2.93281 0
M  V30 8057 O 767.765 -2.62203 -2.41097 0
M  V30 8058 O 766.624 -3.8485 -3.88011 0
M  V30 8059 H 763.718 -0.556602 -0.611656 0
M  V30 8060 H 766.264 -1.57689 -0.627069 0
M  V30 8061 H 765.036 -3.50017 -1.74939 0
M  V30 8062 H 764.659 -2.46688 -3.11818 0
M  V30 8063 N 765.656 0.84705 -1.32902 0
M  V30 8064 C 766.902 1.60414 -1.24078 0
M  V30 8065 C 767.235 1.93217 0.195105 0
M  V30 8066 O 766.51 1.58001 1.13428 0
M  V30 8067 C 766.793 2.91951 -2.108 0
M  V30 8068 C 766.646 2.6588 -3.62805 0
M  V30 8069 C 767.965 3.93299 -1.97494 0
M  V30 8070 H 765.084 0.58206 -0.452079 0
M  V30 8071 H 767.726 0.977562 -1.62922 0
M  V30 8072 H 765.876 3.45425 -1.77802 0
M  V30 8073 H 767.548 2.18902 -4.06054 0
M  V30 8074 H 765.791 1.99716 -3.85092 0
M  V30 8075 H 766.462 3.59574 -4.1882 0
M  V30 8076 H 768.938 3.49105 -2.26417 0
M  V30 8077 H 767.814 4.8318 -2.60438 0
M  V30 8078 H 768.075 4.31887 -0.944782 0
M  V30 8079 N 767.134 1.16236 1.06428 0
M  V30 8080 C 768.411 0.853294 1.76006 0
M  V30 8081 C 768.791 -0.649162 2.00871 0
M  V30 8082 O 768.139 -1.59653 1.63472 0
M  V30 8083 C 768.349 1.67448 3.06206 0
M  V30 8084 C 769.697 1.8866 3.80385 0
M  V30 8085 O 770.721 1.64303 3.16043 0
M  V30 8086 O 769.58 2.29518 4.95968 0
M  V30 8087 H 766.674 0.314737 0.764767 0
M  V30 8088 H 769.22 1.26865 1.12709 0
M  V30 8089 H 767.992 2.69411 2.83784 0
M  V30 8090 H 767.615 1.25608 3.77238 0
M  V30 8091 N 768.612 -1.24939 0.960631 0
M  V30 8092 C 770.028 -1.45039 0.666018 0
M  V30 8093 C 770.228 -1.86021 -0.774501 0
M  V30 8094 O 769.284 -1.99392 -1.54916 0
M  V30 8095 C 770.597 -2.51775 1.64408 0
M  V30 8096 C 772.145 -2.6561 1.65592 0
M  V30 8097 C 772.62 -3.75536 2.62177 0
M  V30 8098 N 774.111 -3.82954 2.60577 0
M  V30 8099 C 774.846 -4.67517 3.31987 0
M  V30 8100 N 774.342 -5.56321 4.1289 0
M  V30 8101 N 776.135 -4.61535 3.20845 0
M  V30 8102 H 768.286 -0.96632 1.89145 0
M  V30 8103 H 770.549 -0.486034 0.813926 0
M  V30 8104 H 770.255 -2.28534 2.67329 0
M  V30 8105 H 770.129 -3.49804 1.41128 0
M  V30 8106 H 772.516 -2.88212 0.633846 0
M  V30 8107 H 772.597 -1.67962 1.92931 0
M  V30 8108 H 772.241 -3.53684 3.64514 0
M  V30 8109 H 772.171 -4.72682 2.32119 0
M  V30 8110 H 774.662 -3.19478 2.01847 0
M  V30 8111 H 774.975 -6.17787 4.64283 0
M  V30 8112 H 773.32 -5.5601 4.16987 0
M  V30 8113 H 776.511 -3.91169 2.57108 0
M  V30 8114 H 776.684 -5.27214 3.76762 0
M  V30 8115 N 770.09 -0.729906 -1.39679 0
M  V30 8116 C 771.506 -0.404951 -1.54377 0
M  V30 8117 C 771.706 1.08476 -1.6981 0
M  V30 8118 O 770.762 1.87087 -1.69572 0
M  V30 8119 C 772.075 -1.18352 -2.76429 0
M  V30 8120 C 773.623 -1.17124 -2.9026 0
M  V30 8121 C 774.098 -1.93227 -4.15244 0
M  V30 8122 N 775.589 -1.90368 -4.22273 0
M  V30 8123 C 776.324 -2.46065 -5.17918 0
M  V30 8124 N 775.82 -3.10378 -6.19385 0
M  V30 8125 N 777.613 -2.36127 -5.10099 0
M  V30 8126 H 769.764 -1.69567 -1.27909 0
M  V30 8127 H 772.027 -0.717527 -0.619564 0
M  V30 8128 H 771.733 -2.23743 -2.71352 0
M  V30 8129 H 771.607 -0.784589 -3.6895 0
M  V30 8130 H 773.994 -0.125478 -2.94833 0
M  V30 8131 H 774.075 -1.60951 -1.98817 0
M  V30 8132 H 773.719 -2.97802 -4.11432 0
M  V30 8133 H 773.649 -1.4681 -5.05722 0
M  V30 8134 H 776.14 -1.4351 -3.4959 0
M  V30 8135 H 776.453 -3.50358 -6.88817 0
M  V30 8136 H 774.798 -3.14467 -6.19787 0
M  V30 8137 H 777.989 -1.85529 -4.29763 0
M  V30 8138 H 778.162 -2.79833 -5.84463 0
M  V30 8139 N 771.568 1.50203 -0.477153 0
M  V30 8140 C 772.816 2.01959 0.0755889 0
M  V30 8141 C 773.137 1.3608 1.39668 0
M  V30 8142 O 772.407 0.508136 1.89195 0
M  V30 8143 H 770.987 0.74636 0.0309248 0
M  V30 8144 H 773.649 1.84473 -0.628959 0
M  V30 8145 H 772.745 3.11305 0.222683 0
M  V30 8146 N 773.046 0.209999 1.56195 0
M  V30 8147 C 774.271 -0.433064 2.02828 0
M  V30 8148 C 774.696 -1.5337 1.08901 0
M  V30 8149 O 774.054 -1.81144 0.0751132 0
M  V30 8150 C 774.102 -0.952635 3.47789 0
M  V30 8151 O 773.206 -2.0647 3.56993 0
M  V30 8152 H 772.547 -0.0994594 0.656509 0
M  V30 8153 H 775.077 0.32525 2.01998 0
M  V30 8154 H 775.087 -1.26542 3.8788 0
M  V30 8155 H 773.762 -0.147007 4.1564 0
M  V30 8156 H 772.339 -1.75942 3.28784 0
M  V30 8157 N 774.524 -1.57472 -0.0634922 0
M  V30 8158 C 775.487 -2.03268 -1.059 0
M  V30 8159 C 776.487 -0.931028 -1.31105 0
M  V30 8160 O 777.677 -1.19567 -1.26686 0
M  V30 8161 C 774.809 -2.42039 -2.40062 0
M  V30 8162 H 776.002 -2.92454 -0.664119 0
M  V30 8163 H 773.555 -1.53206 -0.309444 0
M  V30 8164 H 774.29 -1.55904 -2.84367 0
M  V30 8165 H 774.075 -3.22437 -2.23108 0
M  V30 8166 H 775.565 -2.78017 -3.11603 0
M  V30 8167 N 776.003 0.335068 -1.53997 0
M  V30 8168 C 776.95 1.41187 -1.82579 0
M  V30 8169 C 777.92 1.51897 -0.672061 0
M  V30 8170 O 779.105 1.673 -0.917346 0
M  V30 8171 C 776.245 2.77717 -2.0486 0
M  V30 8172 C 775.358 2.7573 -3.32561 0
M  V30 8173 C 774.493 4.04032 -3.44864 0
M  V30 8174 C 773.532 3.96308 -4.66483 0
M  V30 8175 N 772.669 5.16317 -4.75774 0
M  V30 8176 H 777.509 1.16113 -2.74448 0
M  V30 8177 H 775.046 0.562305 -1.35928 0
M  V30 8178 H 777.004 3.57071 -2.15768 0
M  V30 8179 H 775.634 3.01124 -1.16294 0
M  V30 8180 H 774.686 1.88432 -3.3045 0
M  V30 8181 H 775.998 2.65902 -4.22016 0
M  V30 8182 H 775.152 4.91814 -3.55251 0
M  V30 8183 H 773.891 4.16652 -2.53481 0
M  V30 8184 H 772.896 3.06911 -4.56164 0
M  V30 8185 H 774.121 3.85263 -5.5924 0
M  V30 8186 H 772.067 5.29464 -3.87303 0
M  V30 8187 H 771.984 5.08779 -5.59178 0
M  V30 8188 H 773.252 6.05846 -4.9048 0
M  V30 8189 N 777.481 1.45874 0.596531 0
M  V30 8190 C 778.391 1.57947 1.73464 0
M  V30 8191 C 779.407 0.463461 1.67714 0
M  V30 8192 O 780.583 0.725685 1.87872 0
M  V30 8193 C 777.648 1.55348 3.09948 0
M  V30 8194 C 776.709 2.78074 3.27068 0
M  V30 8195 C 775.942 2.75589 4.57041 0
M  V30 8196 O 776.165 1.83545 5.40063 0
M  V30 8197 O 775.099 3.66945 4.77111 0
M  V30 8198 H 778.925 2.54169 1.66228 0
M  V30 8199 H 776.51 1.2851 0.76194 0
M  V30 8200 H 778.392 1.56545 3.91244 0
M  V30 8201 H 777.067 0.622811 3.17652 0
M  V30 8202 H 775.974 2.82435 2.45319 0
M  V30 8203 H 777.307 3.70303 3.24248 0
M  V30 8204 N 778.959 -0.83999 1.33349 0
M  V30 8205 C 779.889 -1.965 1.26135 0
M  V30 8206 C 780.87 -1.69505 0.142152 0
M  V30 8207 O 782.055 -1.91346 0.331743 0
M  V30 8208 C 779.185 -3.32632 0.99866 0
M  V30 8209 C 778.139 -3.74021 2.08068 0
M  V30 8210 C 777.465 -5.07947 1.67014 0
M  V30 8211 C 778.765 -3.87925 3.49731 0
M  V30 8212 H 780.459 -2.02793 2.20262 0
M  V30 8213 H 778.005 -0.974297 1.06035 0
M  V30 8214 H 779.958 -4.10903 0.934696 0
M  V30 8215 H 778.682 -3.26593 0.0217759 0
M  V30 8216 H 777.341 -2.98012 2.13505 0
M  V30 8217 H 776.989 -4.98378 0.680316 0
M  V30 8218 H 776.689 -5.36611 2.39422 0
M  V30 8219 H 778.213 -5.88695 1.62082 0
M  V30 8220 H 779.627 -4.5651 3.46802 0
M  V30 8221 H 778.024 -4.28023 4.20614 0
M  V30 8222 H 779.094 -2.90407 3.88319 0
M  V30 8223 N 780.437 -1.16799 -1.0581 0
M  V30 8224 C 781.367 -0.902241 -2.15364 0
M  V30 8225 C 782.348 0.153351 -1.69407 0
M  V30 8226 O 783.533 0.00442032 -1.94199 0
M  V30 8227 C 780.663 -0.407911 -3.44896 0
M  V30 8228 C 779.617 -1.40197 -4.04387 0
M  V30 8229 C 778.943 -0.765848 -5.29187 0
M  V30 8230 C 780.243 -2.77316 -4.42598 0
M  V30 8231 H 781.937 -1.81841 -2.37853 0
M  V30 8232 H 779.483 -0.875731 -1.14311 0
M  V30 8233 H 781.436 -0.20945 -4.20879 0
M  V30 8234 H 780.16 0.54378 -3.22041 0
M  V30 8235 H 778.819 -1.58707 -3.30466 0
M  V30 8236 H 778.467 0.192482 -5.02632 0
M  V30 8237 H 778.167 -1.42939 -5.69949 0
M  V30 8238 H 779.691 -0.577519 -6.07863 0
M  V30 8239 H 781.105 -2.62561 -5.09642 0
M  V30 8240 H 779.502 -3.4019 -4.94359 0
M  V30 8241 H 780.572 -3.32199 -3.53231 0
M  V30 8242 N 781.915 1.24427 -0.967243 0
M  V30 8243 C 782.847 2.24641 -0.454856 0
M  V30 8244 C 783.86 1.56849 0.436152 0
M  V30 8245 O 785.049 1.76846 0.242401 0
M  V30 8246 C 782.149 3.36954 0.362672 0
M  V30 8247 C 781.322 4.34318 -0.518324 0
M  V30 8248 C 780.381 5.25638 0.243122 0
M  V30 8249 O 779.407 5.68043 -0.362791 0
M  V30 8250 N 780.609 5.59897 1.53282 0
M  V30 8251 H 783.374 2.69238 -1.31648 0
M  V30 8252 H 780.935 1.38464 -0.839015 0
M  V30 8253 H 782.927 3.95014 0.880094 0
M  V30 8254 H 781.497 2.91646 1.12522 0
M  V30 8255 H 780.717 3.74953 -1.21672 0
M  V30 8256 H 782.005 4.96338 -1.11919 0
M  V30 8257 H 781.403 5.27373 2.04682 0
M  V30 8258 H 779.96 6.20488 1.99594 0
M  V30 8259 N 783.393 0.737304 1.3929 0
M  V30 8260 C 784.343 0.0748537 2.27877 0
M  V30 8261 C 785.327 -0.71022 1.44377 0
M  V30 8262 O 786.519 -0.578851 1.67267 0
M  V30 8263 C 783.648 -0.82991 3.33118 0
M  V30 8264 C 782.734 -0.0388619 4.24082 0
M  V30 8265 N 783.125 0.989182 4.96033 0
M  V30 8266 C 781.423 -0.268167 4.45193 0
M  V30 8267 C 782.124 1.46639 5.62914 0
M  V30 8268 N 781.1 0.784581 5.37908 0
M  V30 8269 H 784.902 0.862457 2.80961 0
M  V30 8270 H 782.416 0.571845 1.51999 0
M  V30 8271 H 784.413 -1.31999 3.95452 0
M  V30 8272 H 783.073 -1.61665 2.81593 0
M  V30 8273 H 784.084 1.3706 4.99435 0
M  V30 8274 H 780.761 -1.02953 4.04607 0
M  V30 8275 H 782.151 2.32182 6.30508 0
M  V30 8276 N 784.871 -1.49948 0.485112 0
M  V30 8277 C 786.282 -1.8667 0.0334041 0
M  V30 8278 C 786.633 -1.3988 -1.37579 0
M  V30 8279 O 785.758 -0.769788 -2.02245 0
M  V30 8280 C 786.353 -3.38757 0.0538426 0
M  V30 8281 C 784.912 -3.74839 -0.342453 0
M  V30 8282 C 784.059 -2.73894 0.433281 0
M  V30 8283 H 787.01 -1.42492 0.698699 0
M  V30 8284 H 787.031 -3.73132 -0.745146 0
M  V30 8285 H 786.543 -3.72782 1.07959 0
M  V30 8286 H 784.644 -3.46419 -1.37203 0
M  V30 8287 H 784.757 -4.79088 -0.0340503 0
M  V30 8288 H 783.121 -2.54441 -0.114849 0
M  V30 8289 H 783.904 -3.10763 1.45881 0
M  V30 8290 N 786.349 -0.21828 -1.56081 0
M  V30 8291 C 787.596 0.414307 -1.98216 0
M  V30 8292 C 787.924 1.60005 -1.10584 0
M  V30 8293 O 787.179 1.95124 -0.150043 0
M  V30 8294 C 787.478 0.894782 -3.46018 0
M  V30 8295 C 787.144 -0.180083 -4.5054 0
M  V30 8296 C 785.806 -0.475367 -4.78846 0
M  V30 8297 C 788.158 -0.907191 -5.13244 0
M  V30 8298 C 785.486 -1.50233 -5.67139 0
M  V30 8299 C 787.838 -1.92347 -6.02649 0
M  V30 8300 C 786.502 -2.22571 -6.293 0
M  V30 8301 H 785.772 0.151606 -0.725325 0
M  V30 8302 H 788.419 -0.320113 -1.88806 0
M  V30 8303 H 786.724 1.7079 -3.52616 0
M  V30 8304 H 788.421 1.39403 -3.75989 0
M  V30 8305 H 785.011 0.06022 -4.28558 0
M  V30 8306 H 789.195 -0.692303 -4.91448 0
M  V30 8307 H 784.451 -1.74215 -5.86054 0
M  V30 8308 H 788.625 -2.49197 -6.50288 0
M  V30 8309 H 786.252 -3.0229 -6.97513 0
M  V30 8310 N 787.827 1.57504 0.0551401 0
M  V30 8311 C 788.757 2.07864 1.06372 0
M  V30 8312 C 789.738 0.975565 1.39344 0
M  V30 8313 O 790.923 1.24929 1.48682 0
M  V30 8314 C 788.053 2.53643 2.3724 0
M  V30 8315 C 787.007 3.67978 2.18578 0
M  V30 8316 C 786.333 3.9987 3.54976 0
M  V30 8317 C 787.633 4.97405 1.59329 0
M  V30 8318 H 789.327 2.92379 0.644595 0
M  V30 8319 H 786.873 1.40654 0.308619 0
M  V30 8320 H 788.826 2.8749 3.08103 0
M  V30 8321 H 787.55 1.66177 2.81163 0
M  V30 8322 H 786.209 3.3444 1.50152 0
M  V30 8323 H 785.857 3.0951 3.965 0
M  V30 8324 H 785.557 4.76867 3.43324 0
M  V30 8325 H 787.081 4.36228 4.27244 0
M  V30 8326 H 788.495 5.29375 2.20078 0
M  V30 8327 H 786.892 5.78837 1.58327 0
M  V30 8328 H 787.962 4.81697 0.55638 0
M  V30 8329 N 789.305 -0.326896 1.54172 0
M  V30 8330 C 790.252 -1.40216 1.83325 0
M  V30 8331 C 791.222 -1.51538 0.680107 0
M  V30 8332 O 792.407 -1.66811 0.926206 0
M  V30 8333 C 789.547 -2.76626 2.0633 0
M  V30 8334 C 788.66 -2.73963 3.34019 0
M  V30 8335 C 787.795 -4.02198 3.47002 0
M  V30 8336 C 786.834 -3.93828 4.68578 0
M  V30 8337 N 785.971 -5.13787 4.78506 0
M  V30 8338 H 790.811 -1.14656 2.7506 0
M  V30 8339 H 788.348 -0.555089 1.36225 0
M  V30 8340 H 790.306 -3.55922 2.17659 0
M  V30 8341 H 788.936 -3.00503 1.1789 0
M  V30 8342 H 787.988 -1.86677 3.31445 0
M  V30 8343 H 789.3 -2.6366 4.2342 0
M  V30 8344 H 788.454 -4.89923 3.57855 0
M  V30 8345 H 787.193 -4.15302 2.55687 0
M  V30 8346 H 786.198 -3.04487 4.57786 0
M  V30 8347 H 787.423 -3.82292 5.61275 0
M  V30 8348 H 785.369 -5.27403 3.90105 0
M  V30 8349 H 785.286 -5.05807 5.61868 0
M  V30 8350 H 786.554 -6.03236 4.93686 0
M  V30 8351 N 790.784 -1.46188 -0.588786 0
M  V30 8352 C 791.714 -1.59148 -1.70863 0
M  V30 8353 C 792.695 -0.442083 -1.64255 0
M  V30 8354 O 793.88 -0.667575 -1.82365 0
M  V30 8355 C 791.01 -1.5757 -3.09498 0
M  V30 8356 C 789.964 -2.71418 -3.30932 0
M  V30 8357 C 789.29 -2.549 -4.70032 0
M  V30 8358 C 790.59 -4.1329 -3.19356 0
M  V30 8359 H 792.284 -2.52889 -1.60274 0
M  V30 8360 H 789.83 -1.21707 -0.769638 0
M  V30 8361 H 791.783 -1.65231 -3.87655 0
M  V30 8362 H 790.507 -0.603705 -3.20972 0
M  V30 8363 H 789.166 -2.63216 -2.55172 0
M  V30 8364 H 788.814 -1.55797 -4.78264 0
M  V30 8365 H 788.514 -3.31257 -4.85327 0
M  V30 8366 H 790.038 -2.64443 -5.50366 0
M  V30 8367 H 791.452 -4.22636 -3.87365 0
M  V30 8368 H 789.849 -4.90187 -3.46175 0
M  V30 8369 H 790.919 -4.33874 -2.16522 0
M  V30 8370 N 792.262 0.832906 -1.33792 0
M  V30 8371 C 793.225 1.92471 -1.24449 0
M  V30 8372 C 794.225 1.59981 -0.162085 0
M  V30 8373 O 795.415 1.69208 -0.414029 0
M  V30 8374 C 792.547 3.28278 -0.919044 0
M  V30 8375 H 793.74 2.0218 -2.21502 0
M  V30 8376 H 791.293 1.0257 -1.17936 0
M  V30 8377 H 792.028 3.24263 0.048738 0
M  V30 8378 H 791.813 3.53241 -1.70187 0
M  V30 8379 H 793.303 4.08253 -0.878576 0
M  V30 8380 N 793.74 1.17359 1.05189 0
M  V30 8381 C 794.687 0.890325 2.12936 0
M  V30 8382 C 795.657 -0.165779 1.65271 0
M  V30 8383 O 796.842 -0.0285672 1.90779 0
M  V30 8384 C 793.982 0.409793 3.42658 0
M  V30 8385 C 793.095 1.53002 4.03998 0
M  V30 8386 C 792.23 1.00336 5.21638 0
M  V30 8387 C 791.269 2.09903 5.74984 0
M  V30 8388 N 790.406 1.58714 6.83926 0
M  V30 8389 H 795.246 1.81299 2.36505 0
M  V30 8390 H 792.783 0.904249 1.16025 0
M  V30 8391 H 794.741 0.112743 4.17048 0
M  V30 8392 H 793.371 -0.475915 3.19272 0
M  V30 8393 H 792.423 1.9428 3.27047 0
M  V30 8394 H 793.735 2.3564 4.39631 0
M  V30 8395 H 792.889 0.660158 6.03098 0
M  V30 8396 H 791.628 0.14642 4.8748 0
M  V30 8397 H 790.633 2.45081 4.92154 0
M  V30 8398 H 791.858 2.96013 6.1119 0
M  V30 8399 H 789.804 0.752915 6.51665 0
M  V30 8400 H 789.721 2.34959 7.18561 0
M  V30 8401 H 790.989 1.27287 7.69037 0
M  V30 8402 N 795.218 -1.23913 0.973828 0
M  V30 8403 C 796.629 -1.73992 0.677021 0
M  V30 8404 C 796.98 -1.78833 -0.807036 0
M  V30 8405 O 796.105 -1.42183 -1.63135 0
M  V30 8406 C 796.7 -3.15985 1.22226 0
M  V30 8407 C 795.259 -3.63547 0.975228 0
M  V30 8408 C 794.406 -2.42001 1.35392 0
M  V30 8409 H 797.357 -1.09529 1.14844 0
M  V30 8410 H 797.378 -3.75875 0.591489 0
M  V30 8411 H 796.89 -3.12429 2.30238 0
M  V30 8412 H 794.991 -3.72493 -0.0891047 0
M  V30 8413 H 795.104 -4.50693 1.62518 0
M  V30 8414 H 793.468 -2.42708 0.772334 0
M  V30 8415 H 794.251 -2.41122 2.44367 0
M  V30 8416 N 796.696 -0.74468 -1.38897 0
M  V30 8417 C 797.626 -0.126355 -2.33158 0
M  V30 8418 C 798.607 0.713517 -1.54412 0
M  V30 8419 O 799.792 0.656523 -1.82766 0
M  V30 8420 C 796.922 0.774375 -3.38557 0
M  V30 8421 C 795.876 0.0379214 -4.27983 0
M  V30 8422 C 795.202 1.05631 -5.24162 0
M  V30 8423 C 796.502 -1.12523 -5.10035 0
M  V30 8424 H 798.196 -0.913744 -2.85116 0
M  V30 8425 H 795.742 -0.440847 -1.37086 0
M  V30 8426 H 797.695 1.21655 -4.03458 0
M  V30 8427 H 796.419 1.59399 -2.85061 0
M  V30 8428 H 795.078 -0.384733 -3.64576 0
M  V30 8429 H 794.726 1.86975 -4.66958 0
M  V30 8430 H 794.426 0.568261 -5.84846 0
M  V30 8431 H 795.95 1.49799 -5.9194 0
M  V30 8432 H 797.364 -0.761037 -5.68226 0
M  V30 8433 H 795.761 -1.54355 -5.79909 0
M  V30 8434 H 796.831 -1.94237 -4.44297 0
M  V30 8435 N 798.174 1.49689 -0.493057 0
M  V30 8436 C 799.399 2.07331 0.0535114 0
M  V30 8437 C 799.824 1.35196 1.30781 0
M  V30 8438 O 799.182 0.406246 1.7669 0
M  V30 8439 C 799.23 3.59364 0.29825 0
M  V30 8440 O 798.334 3.88819 1.37454 0
M  V30 8441 H 797.675 0.663612 -0.0227018 0
M  V30 8442 H 800.205 1.926 -0.690402 0
M  V30 8443 H 800.215 4.04515 0.532159 0
M  V30 8444 H 798.89 4.1128 -0.618207 0
M  V30 8445 H 797.467 3.55487 1.12621 0
M  V30 8446 N 799.652 0.226554 1.55963 0
M  V30 8447 C 800.877 -0.411527 2.03276 0
M  V30 8448 C 801.302 -1.52206 1.10521 0
M  V30 8449 O 800.66 -1.81054 0.0943217 0
M  V30 8450 C 800.708 -0.915694 3.4878 0
M  V30 8451 O 799.812 -2.02672 3.59163 0
M  V30 8452 H 799.153 -0.0924907 0.657527 0
M  V30 8453 H 801.683 0.346656 2.01642 0
M  V30 8454 H 801.693 -1.22421 3.892 0
M  V30 8455 H 800.368 -0.102915 4.15773 0
M  V30 8456 H 798.945 -1.72445 3.30632 0
M  V30 8457 N 801.13 -1.57531 -0.0467866 0
M  V30 8458 C 802.06 -2.08425 -1.05268 0
M  V30 8459 C 803.041 -0.982941 -1.38825 0
M  V30 8460 O 804.226 -1.25716 -1.48018 0
M  V30 8461 C 801.356 -2.54897 -2.35891 0
M  V30 8462 C 800.31 -3.69132 -2.16623 0
M  V30 8463 C 799.636 -4.01747 -3.52851 0
M  V30 8464 C 800.936 -4.98243 -1.56689 0
M  V30 8465 H 802.63 -2.92716 -0.62908 0
M  V30 8466 H 800.176 -1.40816 -0.301156 0
M  V30 8467 H 802.129 -2.8912 -3.06574 0
M  V30 8468 H 800.853 -1.67666 -2.80278 0
M  V30 8469 H 799.512 -3.35231 -1.48377 0
M  V30 8470 H 799.16 -3.11608 -3.94853 0
M  V30 8471 H 798.86 -4.78681 -3.4079 0
M  V30 8472 H 800.384 -4.38487 -4.24925 0
M  V30 8473 H 801.798 -5.30535 -2.17268 0
M  V30 8474 H 800.195 -5.79669 -1.55255 0
M  V30 8475 H 801.265 -4.81986 -0.530827 0
M  V30 8476 N 802.608 0.318715 -1.54344 0
M  V30 8477 C 803.836 1.0755 -1.7675 0
M  V30 8478 C 804.251 1.81543 -0.518422 0
M  V30 8479 O 803.608 1.75198 0.511078 0
M  V30 8480 C 803.659 2.06983 -2.96378 0
M  V30 8481 O 803.38 1.35995 -4.16458 0
M  V30 8482 C 804.881 2.94841 -3.31034 0
M  V30 8483 H 802.101 0.319711 -0.589937 0
M  V30 8484 H 804.645 0.363369 -2.01246 0
M  V30 8485 H 802.8 2.73724 -2.74142 0
M  V30 8486 H 803.214 2.02623 -4.83781 0
M  V30 8487 H 804.688 3.60496 -4.18027 0
M  V30 8488 H 805.165 3.62199 -2.48412 0
M  V30 8489 H 805.771 2.33656 -3.55366 0
M  V30 8490 N 804.086 1.46499 0.581025 0
M  V30 8491 C 805.497 1.4604 1.16315 0
M  V30 8492 C 805.848 0.202154 1.95156 0
M  V30 8493 O 804.973 -0.694638 2.04948 0
M  V30 8494 C 805.568 2.64593 2.11604 0
M  V30 8495 C 804.127 2.6717 2.65136 0
M  V30 8496 C 803.274 2.38753 1.4104 0
M  V30 8497 H 806.225 1.54354 0.368871 0
M  V30 8498 H 806.246 2.40207 2.95095 0
M  V30 8499 H 805.758 3.56154 1.54194 0
M  V30 8500 H 803.859 1.79685 3.26411 0
M  V30 8501 H 803.972 3.67182 3.07757 0
M  V30 8502 H 802.336 1.88845 1.70908 0
M  V30 8503 H 803.119 3.32493 0.854588 0
M  V30 8504 N 805.565 -0.825799 1.34232 0
M  V30 8505 C 806.495 -1.95151 1.28212 0
M  V30 8506 C 807.476 -1.69345 0.160123 0
M  V30 8507 O 808.661 -1.90983 0.352019 0
M  V30 8508 C 805.791 -3.31554 1.03388 0
M  V30 8509 C 804.745 -3.71793 2.12023 0
M  V30 8510 C 804.071 -5.06147 1.72392 0
M  V30 8511 C 805.371 -3.84193 3.53826 0
M  V30 8512 H 807.065 -2.00445 2.22401 0
M  V30 8513 H 804.611 -0.962996 1.07063 0
M  V30 8514 H 806.564 -4.09889 0.978225 0
M  V30 8515 H 805.288 -3.26551 0.0564142 0
M  V30 8516 H 803.947 -2.95731 2.16654 0
M  V30 8517 H 803.595 -4.97628 0.733137 0
M  V30 8518 H 803.295 -5.34041 2.451 0
M  V30 8519 H 804.819 -5.86943 1.68317 0
M  V30 8520 H 806.233 -4.52806 3.51624 0
M  V30 8521 H 804.63 -4.23538 4.2513 0
M  V30 8522 H 805.7 -2.86272 3.91377 0
M  V30 8523 N 807.043 -1.17915 -1.04565 0
M  V30 8524 C 808.292 -0.965816 -1.77073 0
M  V30 8525 C 808.605 0.506005 -1.88942 0
M  V30 8526 O 809.811 0.837717 -2.58253 0
M  V30 8527 C 808.267 -1.67894 -3.18339 0
M  V30 8528 C 807.875 -3.18972 -3.1458 0
M  V30 8529 C 809.619 -1.54823 -3.9526 0
M  V30 8530 C 807.526 -3.82946 -4.50674 0
M  V30 8531 H 806.456 -0.357729 -0.663736 0
M  V30 8532 H 809.107 -1.41235 -1.17153 0
M  V30 8533 H 807.489 -1.16016 -3.78624 0
M  V30 8534 H 808.663 -3.77835 -2.63776 0
M  V30 8535 H 806.978 -3.32127 -2.51159 0
M  V30 8536 H 809.575 -1.99984 -4.95894 0
M  V30 8537 H 809.918 -0.499727 -4.1329 0
M  V30 8538 H 810.451 -2.03953 -3.41538 0
M  V30 8539 H 807.19 -4.8782 -4.37849 0
M  V30 8540 H 806.71 -3.2887 -5.01602 0
M  V30 8541 H 808.389 -3.85518 -5.196 0
M  V30 8542 N 808.521 1.23394 -0.980386 0
M  V30 8543 C 809.77 1.91116 -0.644785 0
M  V30 8544 C 810.083 1.77333 0.825367 0
M  V30 8545 O 811.289 2.39858 1.27203 0
M  V30 8546 C 809.745 3.42592 -1.10266 0
M  V30 8547 C 809.353 3.65037 -2.59715 0
M  V30 8548 C 811.097 4.1609 -0.8408 0
M  V30 8549 C 809.004 5.10148 -2.9917 0
M  V30 8550 H 807.934 0.715632 -0.23746 0
M  V30 8551 H 810.585 1.39829 -1.18828 0
M  V30 8552 H 808.967 3.92989 -0.487372 0
M  V30 8553 H 810.141 3.25186 -3.26482 0
M  V30 8554 H 808.456 3.04849 -2.83647 0
M  V30 8555 H 811.053 5.23021 -1.11143 0
M  V30 8556 H 811.396 4.15702 0.223085 0
M  V30 8557 H 811.929 3.71681 -1.41767 0
M  V30 8558 H 808.668 5.15668 -4.04682 0
M  V30 8559 H 808.188 5.50949 -2.37097 0
M  V30 8560 H 809.867 5.7848 -2.89775 0
M  V30 8561 N 809.999 0.752036 1.385 0
M  V30 8562 C 810.962 0.131587 2.28822 0
M  V30 8563 C 811.962 -0.649149 1.47115 0
M  V30 8564 O 813.152 -0.475645 1.67581 0
M  V30 8565 C 810.284 -0.822101 3.30839 0
M  V30 8566 H 811.477 0.927551 2.85196 0
M  V30 8567 H 809.03 0.518945 1.47434 0
M  V30 8568 H 809.765 -1.6438 2.79553 0
M  V30 8569 H 809.55 -0.264689 3.91206 0
M  V30 8570 H 811.04 -1.25226 3.98382 0
M  V30 8571 N 811.477 -1.49425 0.500989 0
M  V30 8572 C 812.44 -2.27646 -0.266416 0
M  V30 8573 C 813.44 -1.3366 -0.893961 0
M  V30 8574 O 814.63 -1.5682 -0.758495 0
M  V30 8575 C 811.762 -3.11618 -1.38227 0
M  V30 8576 H 812.955 -2.96945 0.419973 0
M  V30 8577 H 810.508 -1.5419 0.255954 0
M  V30 8578 H 811.243 -2.46885 -2.10281 0
M  V30 8579 H 811.028 -3.80721 -0.937746 0
M  V30 8580 H 812.518 -3.70698 -1.92283 0
M  V30 8581 N 812.955 -0.234822 -1.55841 0
M  V30 8582 C 813.902 0.6698 -2.20867 0
M  V30 8583 C 814.872 1.18042 -1.16856 0
M  V30 8584 O 816.057 1.23709 -1.45261 0
M  V30 8585 C 813.197 1.86646 -2.90271 0
M  V30 8586 C 812.31 1.39351 -4.08908 0
M  V30 8587 C 811.445 2.54878 -4.66059 0
M  V30 8588 C 810.484 2.04384 -5.76969 0
M  V30 8589 N 809.621 3.13233 -6.28355 0
M  V30 8590 H 814.461 0.10858 -2.97802 0
M  V30 8591 H 811.998 0.041836 -1.4704 0
M  V30 8592 H 813.956 2.56926 -3.28702 0
M  V30 8593 H 812.586 2.40035 -2.15831 0
M  V30 8594 H 811.638 0.585173 -3.75872 0
M  V30 8595 H 812.95 0.983356 -4.89011 0
M  V30 8596 H 812.104 3.33219 -5.07001 0
M  V30 8597 H 810.843 2.99188 -3.85146 0
M  V30 8598 H 809.848 1.24509 -5.35516 0
M  V30 8599 H 811.073 1.61057 -6.59725 0
M  V30 8600 H 809.019 3.57 -5.50352 0
M  V30 8601 H 808.936 2.76511 -7.03618 0
M  V30 8602 H 810.204 3.91669 -6.73955 0
M  V30 8603 N 814.433 1.57553 0.0384317 0
M  V30 8604 C 815.343 2.09333 1.0591 0
M  V30 8605 C 816.359 1.0299 1.40247 0
M  V30 8606 O 817.535 1.34669 1.49754 0
M  V30 8607 C 814.6 2.55468 2.34386 0
M  V30 8608 C 813.661 3.76254 2.06716 0
M  V30 8609 C 812.894 4.20179 3.29067 0
M  V30 8610 O 813.117 3.637 4.39407 0
M  V30 8611 O 812.051 5.12697 3.15317 0
M  V30 8612 H 815.877 2.96683 0.649087 0
M  V30 8613 H 813.462 1.47211 0.254802 0
M  V30 8614 H 815.344 2.85514 3.09935 0
M  V30 8615 H 814.019 1.71234 2.74701 0
M  V30 8616 H 812.926 3.51241 1.28766 0
M  V30 8617 H 814.259 4.61443 1.71263 0
M  V30 8618 N 815.911 -0.310526 1.54511 0
M  V30 8619 C 816.874 -1.3657 1.84068 0
M  V30 8620 C 817.874 -1.44123 0.713097 0
M  V30 8621 O 819.064 -1.43924 0.981399 0
M  V30 8622 C 816.196 -2.75162 2.01243 0
M  V30 8623 H 817.389 -1.1161 2.78358 0
M  V30 8624 H 814.942 -0.546699 1.46427 0
M  V30 8625 H 815.677 -3.05359 1.09208 0
M  V30 8626 H 815.462 -2.71071 2.83307 0
M  V30 8627 H 816.952 -3.51473 2.25514 0
M  V30 8628 N 817.389 -1.46805 -0.573248 0
M  V30 8629 C 818.638 -1.51868 -1.32736 0
M  V30 8630 C 818.951 -0.178765 -1.94781 0
M  V30 8631 O 820.157 -0.107272 -2.71288 0
M  V30 8632 C 818.613 -2.67641 -2.40616 0
M  V30 8633 C 818.221 -4.08094 -1.84832 0
M  V30 8634 C 819.965 -2.81984 -3.17309 0
M  V30 8635 C 817.872 -5.15193 -2.90397 0
M  V30 8636 H 816.802 -0.56523 -0.49903 0
M  V30 8637 H 819.453 -1.7304 -0.610695 0
M  V30 8638 H 817.835 -2.39818 -3.15124 0
M  V30 8639 H 819.009 -4.45751 -1.16803 0
M  V30 8640 H 817.324 -3.985 -1.20775 0
M  V30 8641 H 819.921 -3.59166 -3.96111 0
M  V30 8642 H 820.264 -1.89842 -3.70494 0
M  V30 8643 H 820.797 -3.095 -2.4991 0
M  V30 8644 H 817.536 -6.09158 -2.42088 0
M  V30 8645 H 817.056 -4.82071 -3.56886 0
M  V30 8646 H 818.735 -5.41448 -3.54179 0
M  V30 8647 N 818.867 0.818669 -1.34668 0
M  V30 8648 C 819.814 1.92983 -1.26595 0
M  V30 8649 C 820.784 1.65506 -0.140315 0
M  V30 8650 O 821.969 1.88063 -0.322005 0
M  V30 8651 C 819.109 3.2932 -1.03163 0
M  V30 8652 C 818.222 3.69061 -2.24539 0
M  V30 8653 C 817.357 4.94368 -1.94355 0
M  V30 8654 C 816.396 5.26702 -3.11851 0
M  V30 8655 N 815.533 6.43187 -2.81522 0
M  V30 8656 H 820.373 1.99219 -2.2162 0
M  V30 8657 H 817.91 0.974612 -1.1018 0
M  V30 8658 H 819.868 4.07897 -0.87613 0
M  V30 8659 H 818.498 3.22584 -0.118045 0
M  V30 8660 H 817.55 2.85842 -2.50995 0
M  V30 8661 H 818.862 3.88924 -3.12313 0
M  V30 8662 H 818.016 5.80742 -1.75566 0
M  V30 8663 H 816.755 4.76515 -1.03848 0
M  V30 8664 H 815.76 4.38823 -3.31231 0
M  V30 8665 H 816.985 5.46492 -4.03142 0
M  V30 8666 H 814.931 6.26783 -1.93596 0
M  V30 8667 H 814.848 6.63243 -3.62829 0
M  V30 8668 H 816.116 7.32621 -2.66247 0
M  V30 8669 N 820.346 1.18468 1.03938 0
M  V30 8670 C 821.294 0.909286 2.14091 0
M  V30 8671 C 822.288 -0.130928 1.68893 0
M  V30 8672 O 823.494 0.0173403 1.79992 0
M  V30 8673 H 819.869 0.27658 0.699291 0
M  V30 8674 H 821.84 1.84514 2.34515 0
M  V30 8675 C 820.589 0.452922 3.44737 0
M  V30 8676 H 819.912 1.24485 3.79926 0
M  V30 8677 H 821.352 0.299238 4.22943 0
M  V30 8678 C 819.811 -0.831435 3.26479 0
M  V30 8679 O 820.341 -1.89535 3.54174 0
M  V30 8680 N 818.547 -0.784545 2.79809 0
M  V30 8681 H 818.094 0.0814746 2.57471 0
M  V30 8682 H 818.052 -1.64431 2.67973 0
M  V30 8683 N 821.824 -1.22873 0.986916 0
M  V30 8684 C 823.049 -1.96028 0.677341 0
M  V30 8685 C 823.474 -1.72487 -0.750319 0
M  V30 8686 O 822.832 -1.00036 -1.51203 0
M  V30 8687 C 822.88 -3.46983 0.981593 0
M  V30 8688 O 821.984 -4.12328 0.0770729 0
M  V30 8689 H 821.325 -0.613458 0.254096 0
M  V30 8690 H 823.855 -1.56132 1.32227 0
M  V30 8691 H 823.865 -3.9747 0.920969 0
M  V30 8692 H 822.54 -3.63442 2.02194 0
M  V30 8693 H 821.117 -3.72402 0.192666 0
M  V30 8694 N 823.302 -0.75937 -1.38099 0
M  V30 8695 C 824.527 -0.327859 -2.04792 0
M  V30 8696 C 824.952 1.03752 -1.56899 0
M  V30 8697 O 824.31 1.66235 -0.723581 0
M  V30 8698 C 824.358 -0.366264 -3.58735 0
M  V30 8699 O 823.462 0.637697 -4.0744 0
M  V30 8700 H 822.803 -0.144092 -0.648177 0
M  V30 8701 H 825.333 -1.03211 -1.7666 0
M  V30 8702 H 825.343 -0.219179 -4.07411 0
M  V30 8703 H 824.018 -1.36243 -3.92951 0
M  V30 8704 H 822.595 0.454749 -3.70117 0
M  V30 8705 N 824.78 1.49157 -0.508906 0
M  V30 8706 C 826.196 1.58741 -0.165372 0
M  V30 8707 C 826.396 1.5133 1.33047 0
M  V30 8708 O 825.452 1.39135 2.10707 0
M  V30 8709 C 826.765 2.91217 -0.749194 0
M  V30 8710 C 828.313 3.047 -0.716015 0
M  V30 8711 C 828.788 4.39807 -1.27804 0
M  V30 8712 N 830.279 4.46319 -1.23908 0
M  V30 8713 C 831.014 5.49325 -1.64406 0
M  V30 8714 N 830.51 6.59395 -2.12534 0
M  V30 8715 N 832.303 5.40084 -1.55773 0
M  V30 8716 H 824.454 1.52217 -1.48134 0
M  V30 8717 H 826.717 0.721514 -0.614915 0
M  V30 8718 H 826.423 3.02233 -1.79856 0
M  V30 8719 H 826.297 3.76592 -0.214144 0
M  V30 8720 H 828.684 2.9331 0.324535 0
M  V30 8721 H 828.765 2.2099 -1.2883 0
M  V30 8722 H 828.409 4.5195 -2.31741 0
M  V30 8723 H 828.339 5.2217 -0.681623 0
M  V30 8724 H 830.83 3.67354 -0.886537 0
M  V30 8725 H 831.143 7.34102 -2.41485 0
M  V30 8726 H 829.488 6.60414 -2.16513 0
M  V30 8727 H 832.679 4.52986 -1.17987 0
M  V30 8728 H 832.852 6.20233 -1.87657 0
M  V30 8729 O 826.297 0.384829 1.56848 0
M  V30 8730 H 826.988 -0.161361 1.93027 0
M  V30 END ATOM
M  V30 BEGIN BOND
M  V30 END BOND
M  V30 END CTAB
M  END
$$$$
