drugbank_target|O75908 Sterol O-acyltransferase 2 (DB01094)
 OpenBabel12092120563D

  0  0  0     0  0            999 V3000
M  V30 BEGIN CTAB
M  V30 COUNTS 8454 8584 0 0 0
M  V30 BEGIN ATOM
M  V30 1 H -0.908 1.98254 -0.117106 0
M  V30 2 N 0 1.576 0 0
M  V30 3 C 0.933 2.03868 1.02534 0
M  V30 4 C 1.911 0.928543 1.3348 0
M  V30 5 O 3.095 1.19667 1.45644 0
M  V30 6 C 0.222 2.43627 2.35294 0
M  V30 7 C -0.732 3.65373 2.2001 0
M  V30 8 S 0.101 5.13292 1.52614 0
M  V30 9 C 1.257 5.56322 2.86805 0
M  V30 10 H 1.49 2.90518 0.631377 0
M  V30 11 H -0.977 1.52953 0.210867 0
M  V30 12 H 0.981 2.67203 3.11629 0
M  V30 13 H -0.358 1.57376 2.7183 0
M  V30 14 H -1.165 3.90944 3.18086 0
M  V30 15 H -1.563 3.418 1.51819 0
M  V30 16 H 0.729 5.58782 3.83104 0
M  V30 17 H 1.672 6.56266 2.65933 0
M  V30 18 H 2.08 4.83886 2.90714 0
M  V30 19 N 1.4781 -0.272755 1.55222 0
M  V30 20 C 2.3881 -1.35918 1.91216 0
M  V30 21 C 3.4041 -1.54026 0.809436 0
M  V30 22 O 4.5801 -1.68148 1.10852 0
M  V30 23 C 1.6451 -2.69834 2.17693 0
M  V30 24 C 0.7061 -2.6047 3.41253 0
M  V30 25 C -0.0609 -3.88 3.66458 0
M  V30 26 O 0.1621 -4.88693 2.94169 0
M  V30 27 O -0.9039 -3.88189 4.59992 0
M  V30 28 H 2.9221 -1.0839 2.83699 0
M  V30 29 H 0.5071 -0.471301 1.41771 0
M  V30 30 H 2.3891 -3.49017 2.36147 0
M  V30 31 H 1.0641 -2.97148 1.28392 0
M  V30 32 H -0.0289 -1.79663 3.28134 0
M  V30 33 H 1.3041 -2.38106 4.30774 0
M  V30 34 N 2.9562 -1.48159 -0.537278 0
M  V30 35 C 4.3672 -1.49429 -1.11928 0
M  V30 36 C 4.7182 -0.26 -1.9447 0
M  V30 37 O 3.8432 0.633489 -2.0692 0
M  V30 38 C 4.4382 -2.70758 -2.03656 0
M  V30 39 C 2.9972 -2.74923 -2.57088 0
M  V30 40 C 2.1442 -2.42835 -1.3389 0
M  V30 41 H 5.0952 -1.55381 -0.322886 0
M  V30 42 H 5.1162 -2.48861 -2.87834 0
M  V30 43 H 4.6282 -3.60575 -1.43553 0
M  V30 44 H 2.7292 -1.89296 -3.20933 0
M  V30 45 H 2.8422 -3.76157 -2.9672 0
M  V30 46 H 1.2062 -1.93836 -1.65226 0
M  V30 47 H 1.9892 -3.34884 -0.755504 0
M  V30 48 N 4.4343 0.785586 -1.36625 0
M  V30 49 C 5.6823 1.54057 -1.30808 0
M  V30 50 C 6.0033 1.94683 0.111157 0
M  V30 51 O 5.2733 1.65241 1.05224 0
M  V30 52 H 3.8533 0.571354 -0.481211 0
M  V30 53 H 6.5153 0.935821 -1.70963 0
M  V30 54 H 5.6113 2.44637 -1.93801 0
M  V30 55 N 5.9124 1.20967 1.01018 0
M  V30 56 C 7.1604 1.02172 1.74371 0
M  V30 57 C 7.4814 -0.446414 1.89821 0
M  V30 58 O 6.7514 -1.32234 1.44537 0
M  V30 59 H 5.3314 0.375066 0.646014 0
M  V30 60 H 7.9934 1.52187 1.21758 0
M  V30 61 H 7.0894 1.48538 2.74487 0
M  V30 62 N 7.3905 -1.2043 1.01659 0
M  V30 63 C 8.3535 -2.21433 0.591616 0
M  V30 64 C 9.3535 -1.57203 -0.338226 0
M  V30 65 O 10.5435 -1.73737 -0.126918 0
M  V30 66 C 7.6755 -3.40628 -0.136058 0
M  V30 67 H 8.8685 -2.60545 1.48514 0
M  V30 68 H 6.4215 -1.33893 0.806379 0
M  V30 69 H 7.1565 -3.07019 -1.04449 0
M  V30 70 H 6.9415 -3.88475 0.531917 0
M  V30 71 H 8.4315 -4.15475 -0.420735 0
M  V30 72 N 8.8686 -0.792821 -1.36206 0
M  V30 73 C 10.2846 -0.474903 -1.52371 0
M  V30 74 C 10.4846 1.00622 -1.74578 0
M  V30 75 O 9.5406 1.79162 -1.77924 0
M  V30 76 C 10.8536 -1.3083 -2.70747 0
M  V30 77 C 12.4016 -1.30234 -2.84619 0
M  V30 78 C 12.8766 -2.11956 -4.06004 0
M  V30 79 N 14.3676 -2.09419 -4.13156 0
M  V30 80 C 15.1026 -2.69419 -5.06163 0
M  V30 81 N 14.5986 -3.3829 -6.04592 0
M  V30 82 N 16.3916 -2.59134 -4.98804 0
M  V30 83 H 8.5426 -1.75222 -1.20046 0
M  V30 84 H 10.8056 -0.745024 -0.586211 0
M  V30 85 H 10.5116 -2.35881 -2.6087 0
M  V30 86 H 10.3856 -0.95196 -3.6499 0
M  V30 87 H 12.7726 -0.259748 -2.93955 0
M  V30 88 H 12.8536 -1.69847 -1.91274 0
M  V30 89 H 12.4976 -3.16248 -3.97429 0
M  V30 90 H 12.4276 -1.69711 -4.98503 0
M  V30 91 H 14.9186 -1.59297 -3.42685 0
M  V30 92 H 15.2316 -3.81394 -6.7213 0
M  V30 93 H 13.5766 -3.42393 -6.04807 0
M  V30 94 H 16.7676 -2.04927 -4.20859 0
M  V30 95 H 16.9406 -3.06185 -5.711 0
M  V30 96 N 10.3467 1.47872 -0.545128 0
M  V30 97 C 11.2767 2.32661 0.197793 0
M  V30 98 C 12.2577 1.43041 0.920504 0
M  V30 99 O 13.4427 1.71912 0.90333 0
M  V30 100 C 10.5727 3.24569 1.23582 0
M  V30 101 C 9.5267 4.23333 0.630323 0
M  V30 102 C 8.8527 5.0448 1.77211 0
M  V30 103 C 10.1527 5.20704 -0.407974 0
M  V30 104 H 11.8467 2.95024 -0.510045 0
M  V30 105 H 9.3927 1.4187 -0.246731 0
M  V30 106 H 11.3457 3.8272 1.76362 0
M  V30 107 H 10.0697 2.60236 1.97344 0
M  V30 108 H 8.7287 3.6639 0.123922 0
M  V30 109 H 8.3767 4.36561 2.49847 0
M  V30 110 H 8.0767 5.71339 1.37281 0
M  V30 111 H 9.6007 5.65487 2.3034 0
M  V30 112 H 11.0147 5.7329 0.033305 0
M  V30 113 H 9.4117 5.95699 -0.725486 0
M  V30 114 H 10.4817 4.66917 -1.30828 0
M  V30 115 N 11.8248 0.280983 1.55075 0
M  V30 116 C 13.2408 -0.0729964 1.59433 0
M  V30 117 C 13.4408 -1.5411 1.29817 0
M  V30 118 O 12.4968 -2.29086 1.06187 0
M  V30 119 C 13.8098 0.306921 2.9913 0
M  V30 120 C 15.3578 0.254023 3.11968 0
M  V30 121 C 15.8328 0.608467 4.5394 0
M  V30 122 N 17.3238 0.560241 4.59799 0
M  V30 123 C 18.0588 0.80722 5.6769 0
M  V30 124 N 17.5548 1.11912 6.83701 0
M  V30 125 N 19.3478 0.735623 5.57266 0
M  V30 126 H 11.4988 1.238 1.7259 0
M  V30 127 H 13.7618 0.500547 0.805082 0
M  V30 128 H 13.4678 1.32816 3.25657 0
M  V30 129 H 13.3418 -0.349363 3.75579 0
M  V30 130 H 15.7288 -0.75794 2.852 0
M  V30 131 H 15.8098 0.944649 2.37718 0
M  V30 132 H 15.4538 1.61814 4.81434 0
M  V30 133 H 15.3838 -0.104013 5.26497 0
M  V30 134 H 17.8748 0.329288 3.76463 0
M  V30 135 H 18.1878 1.29409 7.61888 0
M  V30 136 H 16.5328 1.15695 6.85303 0
M  V30 137 H 19.7238 0.491752 4.6551 0
M  V30 138 H 19.8968 0.931482 6.4127 0
M  V30 139 N 13.3029 -1.57598 0.00835791 0
M  V30 140 C 14.2329 -2.1198 -0.979113 0
M  V30 141 C 15.2139 -1.03091 -1.35301 0
M  V30 142 O 16.3989 -1.30818 -1.43528 0
M  V30 143 C 13.5289 -2.62995 -2.26828 0
M  V30 144 C 12.4829 -3.76485 -2.03576 0
M  V30 145 C 11.8089 -4.13846 -3.38579 0
M  V30 146 C 13.1089 -5.0342 -1.39161 0
M  V30 147 H 14.8029 -2.94738 -0.526281 0
M  V30 148 H 12.3489 -1.41783 -0.251704 0
M  V30 149 H 14.3019 -2.99669 -2.96271 0
M  V30 150 H 13.0259 -1.7737 -2.7424 0
M  V30 151 H 11.6849 -3.40217 -1.36557 0
M  V30 152 H 11.3329 -3.25232 -3.83709 0
M  V30 153 H 11.0329 -4.90312 -3.23834 0
M  V30 154 H 12.5569 -4.53086 -4.09323 0
M  V30 155 H 13.9709 -5.37812 -1.98573 0
M  V30 156 H 12.3679 -5.84746 -1.34878 0
M  V30 157 H 13.4379 -4.83548 -0.361868 0
M  V30 158 N 14.781 0.264519 -1.55364 0
M  V30 159 C 15.713 1.34965 -1.85248 0
M  V30 160 C 16.726 1.45136 -0.737525 0
M  V30 161 O 17.915 1.46801 -1.01547 0
M  V30 162 C 15.015 2.73008 -2.00797 0
M  V30 163 C 14.188 2.85324 -3.31525 0
M  V30 164 C 13.247 4.04097 -3.37034 0
M  V30 165 O 12.273 3.94455 -4.10358 0
M  V30 166 N 13.475 5.16458 -2.65049 0
M  V30 167 H 16.24 1.09672 -2.78913 0
M  V30 168 H 13.801 0.454635 -1.55386 0
M  V30 169 H 15.793 3.50772 -2.01844 0
M  V30 170 H 14.363 2.91087 -1.1396 0
M  V30 171 H 13.583 1.94377 -3.42945 0
M  V30 172 H 14.871 2.9049 -4.17724 0
M  V30 173 H 14.269 5.27181 -2.05175 0
M  V30 174 H 12.826 5.92422 -2.71809 0
M  V30 175 N 16.2591 1.48442 0.529413 0
M  V30 176 C 17.6751 1.34575 0.858004 0
M  V30 177 C 17.8751 0.3572 1.98309 0
M  V30 178 O 16.9311 -0.221379 2.51528 0
M  V30 179 C 18.2441 2.74617 1.22499 0
M  V30 180 C 19.7921 2.83109 1.33484 0
M  V30 181 C 20.2671 4.23854 1.73526 0
M  V30 182 N 21.7581 4.2653 1.80628 0
M  V30 183 C 22.4931 5.32372 2.12997 0
M  V30 184 N 21.9891 6.48491 2.43786 0
M  V30 185 N 23.7821 5.19766 2.14008 0
M  V30 186 H 15.9331 2.1133 -0.212925 0
M  V30 187 H 18.1961 0.947439 -0.0326199 0
M  V30 188 H 17.9021 3.4852 0.471905 0
M  V30 189 H 17.7761 3.08177 2.17501 0
M  V30 190 H 20.1631 2.09462 2.0787 0
M  V30 191 H 20.2441 2.53168 0.366027 0
M  V30 192 H 19.8881 4.98018 0.997013 0
M  V30 193 H 19.8181 4.5124 2.71459 0
M  V30 194 H 22.3091 3.42772 1.59108 0
M  V30 195 H 22.6221 7.24993 2.67592 0
M  V30 196 H 20.9671 6.51765 2.41304 0
M  V30 197 H 24.1581 4.28066 1.89412 0
M  V30 198 H 24.3311 6.02354 2.38902 0
M  V30 199 N 17.7372 -0.778329 1.37039 0
M  V30 200 C 18.9652 -1.56734 1.35063 0
M  V30 201 C 19.3802 -1.88686 -0.0655597 0
M  V30 202 O 18.7372 -1.5096 -1.02554 0
M  V30 203 C 18.7882 -2.88163 2.18276 0
M  V30 204 O 18.5092 -2.57583 3.54376 0
M  V30 205 C 20.0102 -3.82422 2.24206 0
M  V30 206 H 17.2302 -0.485778 0.462883 0
M  V30 207 H 19.7742 -0.965185 1.8029 0
M  V30 208 H 17.9292 -3.44818 1.76576 0
M  V30 209 H 18.3432 -3.41699 3.97922 0
M  V30 210 H 19.8172 -4.71667 2.86765 0
M  V30 211 H 20.2942 -4.21078 1.24861 0
M  V30 212 H 20.9002 -3.31697 2.6619 0
M  V30 213 N 19.2153 -1.21501 -1.00376 0
M  V30 214 C 20.1253 -0.991447 -2.12621 0
M  V30 215 C 21.1413 0.0568446 -1.73907 0
M  V30 216 O 22.3173 -0.13348 -2.00957 0
M  V30 217 C 19.3823 -0.560312 -3.42142 0
M  V30 218 C 18.4433 -1.68096 -3.95022 0
M  V30 219 C 17.6763 -1.2703 -5.18362 0
M  V30 220 O 17.8993 -0.144438 -5.70217 0
M  V30 221 O 16.8333 -2.08269 -5.64719 0
M  V30 222 H 20.6593 -1.93158 -2.34358 0
M  V30 223 H 18.2443 -0.999999 -1.10997 0
M  V30 224 H 20.1263 -0.329724 -4.20108 0
M  V30 225 H 18.8013 0.351089 -3.2179 0
M  V30 226 H 17.7083 -1.96597 -3.18278 0
M  V30 227 H 19.0413 -2.56983 -4.19786 0
M  V30 228 N 20.6934 1.19889 -1.02296 0
M  V30 229 C 21.9414 1.89046 -0.714558 0
M  V30 230 C 22.2624 1.79636 0.758681 0
M  V30 231 O 21.5324 1.20292 1.54618 0
M  V30 232 H 20.1124 0.699802 -0.261317 0
M  V30 233 H 22.7744 1.45574 -1.29592 0
M  V30 234 H 21.8704 2.95524 -1.0036 0
M  V30 235 N 22.1715 0.800033 1.35784 0
M  V30 236 C 23.1015 0.220184 2.3246 0
M  V30 237 C 24.0825 -0.65073 1.57161 0
M  V30 238 O 25.2675 -0.582359 1.85263 0
M  V30 239 C 22.3975 -0.637353 3.41402 0
M  V30 240 C 21.3515 0.134531 4.27789 0
M  V30 241 C 20.6775 -0.844285 5.27992 0
M  V30 242 C 21.9775 1.32979 5.05088 0
M  V30 243 H 23.6715 1.02787 2.81203 0
M  V30 244 H 21.2175 0.495717 1.35199 0
M  V30 245 H 23.1705 -1.05302 4.08031 0
M  V30 246 H 21.8945 -1.47785 2.91251 0
M  V30 247 H 20.5535 0.531296 3.6273 0
M  V30 248 H 20.2015 -1.68011 4.74111 0
M  V30 249 H 19.9015 -0.332184 5.8666 0
M  V30 250 H 21.4255 -1.2583 5.97494 0
M  V30 251 H 22.8395 0.98934 5.64699 0
M  V30 252 H 21.2365 1.77593 5.7322 0
M  V30 253 H 22.3065 2.11978 4.36111 0
M  V30 254 N 23.6496 -1.47581 0.552962 0
M  V30 255 C 24.8976 -2.02082 0.0272703 0
M  V30 256 C 25.2186 -1.4301 -1.32563 0
M  V30 257 O 24.4886 -0.603745 -1.86365 0
M  V30 258 H 23.0686 -0.746966 0.00709182 0
M  V30 259 H 25.7306 -1.81033 0.722008 0
M  V30 260 H 24.8266 -3.12034 -0.0639951 0
M  V30 261 N 25.1277 -0.289203 -1.54924 0
M  V30 262 C 26.3757 0.322879 -1.99504 0
M  V30 263 C 26.6967 1.55313 -1.1791 0
M  V30 264 O 25.9667 1.94001 -0.272097 0
M  V30 265 H 24.5467 0.122291 -0.736922 0
M  V30 266 H 27.2087 -0.397802 -1.90797 0
M  V30 267 H 26.3047 0.603061 -3.06218 0
M  V30 268 N 26.6058 1.57591 -0.0167156 0
M  V30 269 C 27.5158 2.1291 0.98521 0
M  V30 270 C 28.5318 1.07834 1.36557 0
M  V30 271 O 29.7078 1.39826 1.44951 0
M  V30 272 C 26.7728 2.63512 2.25305 0
M  V30 273 C 25.8338 3.83256 1.93426 0
M  V30 274 C 25.0668 4.31435 3.14165 0
M  V30 275 O 25.2898 3.78851 4.26413 0
M  V30 276 O 24.2238 5.23416 2.97186 0
M  V30 277 H 28.0498 2.98772 0.544888 0
M  V30 278 H 25.6348 1.48012 0.203141 0
M  V30 279 H 27.5168 2.96183 2.99756 0
M  V30 280 H 26.1918 1.8074 2.68542 0
M  V30 281 H 25.0988 3.55531 1.16398 0
M  V30 282 H 26.4318 4.67153 1.55013 0
M  V30 283 N 28.0839 -0.256276 1.55502 0
M  V30 284 C 29.4999 -0.604325 1.47716 0
M  V30 285 C 29.6999 -1.88763 0.705039 0
M  V30 286 O 28.7559 -2.51445 0.230613 0
M  V30 287 C 30.0689 -0.715756 2.92057 0
M  V30 288 C 31.6169 -0.808706 3.02372 0
M  V30 289 C 32.0919 -0.951777 4.48001 0
M  V30 290 N 33.5829 -1.01688 4.519 0
M  V30 291 C 34.3179 -1.14668 5.61817 0
M  V30 292 N 33.8139 -1.24261 6.81565 0
M  V30 293 N 35.6069 -1.1791 5.49594 0
M  V30 294 H 27.7579 0.586291 2.04148 0
M  V30 295 H 30.0209 0.201015 0.926443 0
M  V30 296 H 29.7269 0.157027 3.51349 0
M  V30 297 H 29.6009 -1.59071 3.42018 0
M  V30 298 H 31.9879 -1.67195 2.43166 0
M  V30 299 H 32.0689 0.0912063 2.55637 0
M  V30 300 H 31.7129 -0.0931291 5.07815 0
M  V30 301 H 31.6429 -1.86659 4.92408 0
M  V30 302 H 34.1339 -0.954468 3.65648 0
M  V30 303 H 34.4469 -1.34046 7.61086 0
M  V30 304 H 32.7919 -1.21236 6.84344 0
M  V30 305 H 35.9829 -1.10057 4.54978 0
M  V30 306 H 36.1559 -1.27681 6.35296 0
M  V30 307 N 29.562 -1.4872 -0.521534 0
M  V30 308 C 30.472 -1.66569 -1.65203 0
M  V30 309 C 31.488 -0.548197 -1.65139 0
M  V30 310 O 32.664 -0.820339 -1.83936 0
M  V30 311 C 29.729 -1.70917 -3.01642 0
M  V30 312 C 28.79 -2.94356 -3.12495 0
M  V30 313 C 28.023 -2.98487 -4.42426 0
M  V30 314 O 28.246 -2.10786 -5.30024 0
M  V30 315 O 27.18 -3.90746 -4.57822 0
M  V30 316 H 31.006 -2.62298 -1.5308 0
M  V30 317 H 28.591 -1.3222 -0.695565 0
M  V30 318 H 30.473 -1.7625 -3.82771 0
M  V30 319 H 29.148 -0.783633 -3.14071 0
M  V30 320 H 28.055 -2.94552 -2.3063 0
M  V30 321 H 29.388 -3.86322 -3.04986 0
M  V30 322 N 31.0401 0.771051 -1.3745 0
M  V30 323 C 32.4561 1.07171 -1.18265 0
M  V30 324 C 32.6561 2.01491 -0.019287 0
M  V30 325 O 31.7121 2.44244 0.640408 0
M  V30 326 C 33.0251 1.66854 -2.50161 0
M  V30 327 C 34.5731 1.79109 -2.56689 0
M  V30 328 C 35.0481 2.42205 -3.88717 0
M  V30 329 N 36.5391 2.49655 -3.90162 0
M  V30 330 C 37.2741 2.9933 -4.8907 0
M  V30 331 N 36.7701 3.49172 -5.98374 0
M  V30 332 N 38.5631 2.9821 -4.76474 0
M  V30 333 H 30.7141 0.144796 -2.11906 0
M  V30 334 H 32.9771 0.126863 -0.939473 0
M  V30 335 H 32.6831 1.05017 -3.35655 0
M  V30 336 H 32.5571 2.6614 -2.673 0
M  V30 337 H 34.9441 2.40077 -1.71601 0
M  V30 338 H 35.0251 0.785757 -2.43433 0
M  V30 339 H 34.6691 1.81875 -4.74219 0
M  V30 340 H 34.5991 3.43345 -3.99276 0
M  V30 341 H 37.0901 2.14383 -3.11205 0
M  V30 342 H 37.4031 3.8548 -6.69795 0
M  V30 343 H 35.7481 3.47275 -6.02018 0
M  V30 344 H 38.9391 2.58572 -3.90203 0
M  V30 345 H 39.1121 3.36613 -5.53711 0
M  V30 346 N 32.5182 1.22032 0.997298 0
M  V30 347 C 33.4502 0.944263 2.08845 0
M  V30 348 C 34.4632 -0.0754663 1.62625 0
M  V30 349 O 35.6522 0.157994 1.77799 0
M  V30 350 C 32.7522 0.397723 3.36558 0
M  V30 351 C 31.9252 1.47362 4.11829 0
M  V30 352 C 30.9842 0.934951 5.17827 0
M  V30 353 O 30.0102 1.62016 5.45655 0
M  V30 354 N 31.2122 -0.245895 5.79979 0
M  V30 355 H 33.9772 1.88363 2.33109 0
M  V30 356 H 31.5382 1.12661 1.16272 0
M  V30 357 H 33.5302 0.0227771 4.04694 0
M  V30 358 H 32.1002 -0.446646 3.09393 0
M  V30 359 H 31.3202 2.02208 3.38386 0
M  V30 360 H 32.6082 2.19764 4.58891 0
M  V30 361 H 32.0062 -0.819475 5.59733 0
M  V30 362 H 30.5632 -0.562272 6.4937 0
M  V30 363 N 33.9963 -1.19345 1.0293 0
M  V30 364 C 35.4073 -1.70725 0.755633 0
M  V30 365 C 35.7583 -1.82326 -0.724676 0
M  V30 366 O 34.8833 -1.49471 -1.56484 0
M  V30 367 C 35.4783 -3.10084 1.36503 0
M  V30 368 C 34.0373 -3.58723 1.13994 0
M  V30 369 C 33.1843 -2.35577 1.46283 0
M  V30 370 H 36.1353 -1.0418 1.19718 0
M  V30 371 H 36.1563 -3.72787 0.762217 0
M  V30 372 H 35.6683 -3.01609 2.44241 0
M  V30 373 H 33.7693 -3.72512 0.0807901 0
M  V30 374 H 33.8823 -4.42816 1.82894 0
M  V30 375 H 32.2463 -2.38935 0.88217 0
M  V30 376 H 33.0293 -2.29731 2.55105 0
M  V30 377 N 35.4744 -0.807222 -1.35358 0
M  V30 378 C 36.7144 -0.393534 -2.00576 0
M  V30 379 C 37.0784 1.0203 -1.62647 0
M  V30 380 O 38.2794 1.53603 -2.20589 0
M  V30 381 C 36.5504 -0.572017 -3.52793 0
M  V30 382 S 38.1094 -0.248845 -4.38094 0
M  V30 383 H 34.9274 -0.149425 -0.695121 0
M  V30 384 H 37.5294 -1.04961 -1.64935 0
M  V30 385 H 36.2334 -1.60097 -3.77885 0
M  V30 386 H 35.7644 0.099359 -3.93275 0
M  V30 387 H 37.7794 0.943253 -4.87152 0
M  V30 388 N 36.9525 1.47285 -0.560781 0
M  V30 389 C 38.2005 2.02064 -0.0379868 0
M  V30 390 C 38.5215 1.43711 1.31803 0
M  V30 391 O 37.7915 0.61362 1.86042 0
M  V30 392 H 36.3715 0.746918 -0.0110531 0
M  V30 393 H 39.0335 1.80648 -0.731598 0
M  V30 394 H 38.1295 3.12064 0.0474463 0
M  V30 395 N 38.4306 0.297415 1.54768 0
M  V30 396 C 39.7076 -0.365847 1.92148 0
M  V30 397 C 40.0876 -1.71975 1.22424 0
M  V30 398 O 39.4356 -2.25666 0.358739 0
M  V30 399 C 39.6456 -0.484056 3.45627 0
M  V30 400 C 40.9936 -0.756594 4.17805 0
M  V30 401 O 42.0176 -0.568007 3.51642 0
M  V30 402 O 40.8766 -1.11863 5.34929 0
M  V30 403 H 37.9706 -0.203919 0.801465 0
M  V30 404 H 40.5166 0.34521 1.66152 0
M  V30 405 H 39.2886 0.467865 3.88493 0
M  V30 406 H 38.9116 -1.24372 3.77647 0
M  V30 407 N 39.9087 -1.5758 0.0250728 0
M  V30 408 C 41.1567 -1.91255 -0.653151 0
M  V30 409 C 41.4777 -0.901691 -1.729 0
M  V30 410 O 40.7477 0.0573785 -1.95816 0
M  V30 411 H 39.3277 -0.705942 -0.244243 0
M  V30 412 H 41.9897 -1.94767 0.0719209 0
M  V30 413 H 41.0857 -2.91752 -1.10847 0
M  V30 414 N 41.3868 0.248026 -1.55636 0
M  V30 415 C 42.3348 1.32683 -1.91045 0
M  V30 416 C 43.3288 1.49883 -0.789401 0
M  V30 417 O 44.5348 1.51371 -0.974007 0
M  V30 418 H 40.9098 0.444272 -0.606734 0
M  V30 419 H 42.8808 1.00085 -2.81115 0
M  V30 420 C 41.6298 2.6755 -2.22064 0
M  V30 421 H 40.9528 2.55114 -3.07826 0
M  V30 422 H 42.3928 3.41912 -2.50743 0
M  V30 423 C 40.8518 3.20556 -1.0366 0
M  V30 424 O 41.3818 4.00695 -0.284016 0
M  V30 425 N 39.5878 2.78568 -0.82753 0
M  V30 426 H 39.1348 2.1351 -1.44123 0
M  V30 427 H 39.0928 3.14378 -0.0369803 0
M  V30 428 N 42.8649 1.48995 0.513639 0
M  V30 429 C 44.0929 1.61531 1.29288 0
M  V30 430 C 44.5079 0.281801 1.86685 0
M  V30 431 O 43.8649 -0.731111 1.67215 0
M  V30 432 C 43.9159 2.67449 2.43215 0
M  V30 433 O 43.6369 3.95626 1.88179 0
M  V30 434 C 45.1379 2.90575 3.34785 0
M  V30 435 H 42.3579 0.544165 0.392588 0
M  V30 436 H 44.9019 1.9494 0.617956 0
M  V30 437 H 43.0569 2.36853 3.0656 0
M  V30 438 H 43.4709 4.53868 2.62876 0
M  V30 439 H 44.9449 3.68449 4.11035 0
M  V30 440 H 45.4219 2.00011 3.91015 0
M  V30 441 H 46.0279 3.22538 2.77218 0
M  V30 442 N 44.343 -0.763751 1.37857 0
M  V30 443 C 45.253 -1.90817 1.36478 0
M  V30 444 C 46.269 -1.71997 0.263248 0
M  V30 445 O 47.445 -1.95095 0.499979 0
M  V30 446 C 44.51 -3.2605 1.17864 0
M  V30 447 C 43.571 -3.57467 2.3773 0
M  V30 448 C 42.804 -4.86249 2.19995 0
M  V30 449 O 43.027 -5.57884 1.18836 0
M  V30 450 O 41.961 -5.16911 3.08361 0
M  V30 451 H 45.787 -1.94933 2.32884 0
M  V30 452 H 43.372 -0.907619 1.1867 0
M  V30 453 H 45.254 -4.06924 1.09504 0
M  V30 454 H 43.929 -3.22769 0.245372 0
M  V30 455 H 42.836 -2.76796 2.51664 0
M  V30 456 H 44.169 -3.655 3.29652 0
M  V30 457 N 45.8211 -1.22559 -0.990812 0
M  V30 458 C 47.0491 -1.07779 -1.76611 0
M  V30 459 C 47.4641 0.371513 -1.85109 0
M  V30 460 O 46.8211 1.25737 -1.32274 0
M  V30 461 C 46.8721 -1.68512 -3.19822 0
M  V30 462 O 46.5931 -3.07774 -3.1178 0
M  V30 463 C 48.0941 -1.59035 -4.13791 0
M  V30 464 H 45.3141 -0.377729 -0.554583 0
M  V30 465 H 47.8581 -1.62195 -1.24551 0
M  V30 466 H 46.0131 -1.18154 -3.68942 0
M  V30 467 H 46.4271 -3.37062 -4.01858 0
M  V30 468 H 47.9011 -2.0625 -5.1202 0
M  V30 469 H 48.3781 -0.547273 -4.35777 0
M  V30 470 H 48.9841 -2.08709 -3.70568 0
M  V30 471 N 47.2992 1.18797 -1.03562 0
M  V30 472 C 48.2492 2.20161 -0.592724 0
M  V30 473 C 49.2332 1.56772 0.362133 0
M  V30 474 O 50.4252 1.76062 0.182009 0
M  V30 475 C 47.5542 3.43266 0.0481024 0
M  V30 476 C 46.6402 4.13786 -0.9296 0
M  V30 477 N 47.0312 4.60388 -2.09467 0
M  V30 478 C 45.3292 4.39572 -0.754499 0
M  V30 479 C 46.0302 5.14619 -2.71187 0
M  V30 480 N 45.0062 5.05826 -1.991 0
M  V30 481 H 48.8082 2.53877 -1.48066 0
M  V30 482 H 46.3222 1.34946 -0.903514 0
M  V30 483 H 48.3192 4.15136 0.383058 0
M  V30 484 H 46.9792 3.11048 0.931636 0
M  V30 485 H 47.9902 4.54999 -2.47379 0
M  V30 486 H 44.6672 4.17425 0.0793713 0
M  V30 487 H 46.0572 5.60917 -3.69895 0
M  V30 488 N 48.7773 0.814389 1.34928 0
M  V30 489 C 50.1933 0.499084 1.51596 0
M  V30 490 C 50.3933 -0.978319 1.76157 0
M  V30 491 O 49.4493 -1.76309 1.80752 0
M  V30 492 C 50.7623 1.35121 2.68631 0
M  V30 493 C 52.3103 1.34746 2.82511 0
M  V30 494 C 52.7853 2.18388 4.0258 0
M  V30 495 N 54.2763 2.15966 4.09772 0
M  V30 496 C 55.0113 2.77437 5.01813 0
M  V30 497 N 54.5073 3.47866 5.99134 0
M  V30 498 N 56.3003 2.67037 4.94619 0
M  V30 499 H 48.4513 1.7711 1.17243 0
M  V30 500 H 50.7143 0.754256 0.574284 0
M  V30 501 H 50.4203 2.40001 2.57085 0
M  V30 502 H 50.2943 1.00991 3.63429 0
M  V30 503 H 52.6813 0.30648 2.93504 0
M  V30 504 H 52.7623 1.72869 1.88547 0
M  V30 505 H 52.4063 3.2253 3.92347 0
M  V30 506 H 52.3363 1.77621 4.9574 0
M  V30 507 H 54.8273 1.64729 3.40107 0
M  V30 508 H 55.1403 3.92038 6.65977 0
M  V30 509 H 53.4853 3.51972 5.99284 0
M  V30 510 H 56.6763 2.11597 4.17546 0
M  V30 511 H 56.8493 3.15232 5.66156 0
M  V30 512 N 50.2554 -1.46986 0.568584 0
M  V30 513 C 51.2184 -2.28624 -0.162366 0
M  V30 514 C 52.2184 -1.37596 -0.832103 0
M  V30 515 O 53.4084 -1.60115 -0.68622 0
M  V30 516 C 50.5404 -3.17596 -1.23878 0
M  V30 517 H 51.7334 -2.94722 0.554899 0
M  V30 518 H 49.2864 -1.52863 0.325976 0
M  V30 519 H 50.0214 -2.56214 -1.98808 0
M  V30 520 H 49.8064 -3.846 -0.763219 0
M  V30 521 H 51.2964 -3.79078 -1.75185 0
M  V30 522 N 51.7335 -0.305618 -1.54608 0
M  V30 523 C 53.1445 0.186098 -1.8577 0
M  V30 524 C 53.4955 1.53058 -1.22751 0
M  V30 525 O 52.6205 2.09888 -0.526893 0
M  V30 526 C 53.2155 0.344449 -3.37044 0
M  V30 527 C 51.7745 0.780384 -3.68221 0
M  V30 528 C 50.9215 -0.108554 -2.77087 0
M  V30 529 H 53.8725 -0.526485 -1.49712 0
M  V30 530 H 53.8935 1.17828 -3.61796 0
M  V30 531 H 53.4055 -0.634235 -3.82883 0
M  V30 532 H 51.5065 1.76945 -3.27904 0
M  V30 533 H 51.6195 0.596572 -4.75371 0
M  V30 534 H 49.9835 0.412931 -2.5133 0
M  V30 535 H 50.7665 -1.08368 -3.25747 0
M  V30 536 N 53.2116 1.57565 -0.0334293 0
M  V30 537 C 54.4886 1.83282 0.683163 0
M  V30 538 C 54.8686 0.91823 1.90084 0
M  V30 539 O 54.2166 -0.025113 2.28486 0
M  V30 540 C 54.4266 3.32599 1.0573 0
M  V30 541 C 55.7746 3.99179 1.44711 0
M  V30 542 O 56.7986 3.3712 1.15015 0
M  V30 543 O 55.6576 5.08565 2.0006 0
M  V30 544 H 52.7516 0.755869 0.335546 0
M  V30 545 H 55.2976 1.69589 -0.0614402 0
M  V30 546 H 54.0696 3.90834 0.190828 0
M  V30 547 H 53.6926 3.51415 1.85993 0
M  V30 548 N 54.6897 -0.239769 1.55765 0
M  V30 549 C 55.6197 -1.30052 1.9393 0
M  V30 550 C 56.6007 -1.49839 0.805132 0
M  V30 551 O 57.7857 -1.62328 1.06599 0
M  V30 552 C 54.9157 -2.65391 2.2402 0
M  V30 553 C 53.8697 -2.60289 3.39755 0
M  V30 554 C 53.1957 -3.99489 3.55405 0
M  V30 555 C 54.4957 -2.16654 4.75246 0
M  V30 556 H 56.1897 -0.983573 2.82783 0
M  V30 557 H 53.7357 -0.471701 1.36055 0
M  V30 558 H 55.6887 -3.3974 2.49308 0
M  V30 559 H 54.4127 -2.98736 1.32 0
M  V30 560 H 53.0717 -1.88398 3.14487 0
M  V30 561 H 52.7197 -4.30112 2.60793 0
M  V30 562 H 52.4197 -3.96962 4.33238 0
M  V30 563 H 53.9437 -4.75528 3.83022 0
M  V30 564 H 55.3577 -2.80737 4.99859 0
M  V30 565 H 53.7547 -2.25223 5.56232 0
M  V30 566 H 54.8247 -1.11835 4.71827 0
M  V30 567 N 56.1678 -1.49265 -0.50573 0
M  V30 568 C 57.4138 -1.58748 -1.26202 0
M  V30 569 C 57.7468 -0.271227 -1.92297 0
M  V30 570 O 57.0218 0.724831 -1.80489 0
M  V30 571 C 57.3048 -2.74332 -2.33268 0
M  V30 572 C 57.1578 -4.15737 -1.71705 0
M  V30 573 C 58.4768 -2.85576 -3.34865 0
M  V30 574 H 55.5958 -0.577826 -0.457478 0
M  V30 575 H 58.2378 -1.81532 -0.560897 0
M  V30 576 H 56.3878 -2.55036 -2.93068 0
M  V30 577 H 58.0598 -4.46537 -1.15769 0
M  V30 578 H 56.3028 -4.21605 -1.02135 0
M  V30 579 H 56.9738 -4.92477 -2.49341 0
M  V30 580 H 59.4498 -3.03127 -2.8505 0
M  V30 581 H 58.3258 -3.68135 -4.07146 0
M  V30 582 H 58.5868 -1.94732 -3.96903 0
M  V30 583 N 57.6459 0.756429 -1.3826 0
M  V30 584 C 58.5779 1.87971 -1.31147 0
M  V30 585 C 59.5909 1.61248 -0.224239 0
M  V30 586 O 60.7799 1.71881 -0.481581 0
M  V30 587 C 57.8799 3.23545 -1.00857 0
M  V30 588 C 57.0529 3.77794 -2.20432 0
M  V30 589 C 56.1119 4.91877 -1.86931 0
M  V30 590 O 55.1379 5.06659 -2.59395 0
M  V30 591 N 56.3399 5.74643 -0.822568 0
M  V30 592 H 59.1049 1.94585 -2.2794 0
M  V30 593 H 56.6659 0.936234 -1.32084 0
M  V30 594 H 58.6579 3.97403 -0.765021 0
M  V30 595 H 57.2279 3.12335 -0.128687 0
M  V30 596 H 56.4479 2.95534 -2.6087 0
M  V30 597 H 57.7359 4.10771 -3.00241 0
M  V30 598 H 57.1339 5.65266 -0.221575 0
M  V30 599 H 55.6909 6.48661 -0.638899 0
M  V30 600 N 59.124 1.23083 0.984299 0
M  V30 601 C 60.37 1.07221 1.72845 0
M  V30 602 C 60.725 -0.387453 1.88458 0
M  V30 603 O 60.018 -1.28309 1.42293 0
M  V30 604 C 60.212 1.72673 3.1292 0
M  V30 605 C 60.041 3.24853 3.10967 0
M  V30 606 C 58.811 3.93998 3.16376 0
M  V30 607 C 61.009 4.21674 2.94441 0
M  V30 608 N 58.991 5.33192 3.04268 0
M  V30 609 C 60.362 5.47756 2.90453 0
M  V30 610 C 62.417 4.12457 2.78897 0
M  V30 611 C 61.12 6.6568 2.72512 0
M  V30 612 C 63.146 5.3004 2.62319 0
M  V30 613 C 62.508 6.55046 2.59026 0
M  V30 614 H 58.607 0.44685 0.641755 0
M  V30 615 H 61.191 1.55753 1.16829 0
M  V30 616 H 59.362 1.26679 3.67161 0
M  V30 617 H 61.094 1.49824 3.75945 0
M  V30 618 H 57.849 3.45052 3.24401 0
M  V30 619 H 58.273 6.06157 3.015 0
M  V30 620 H 62.915 3.16588 2.80235 0
M  V30 621 H 60.633 7.61689 2.69919 0
M  V30 622 H 64.219 5.24747 2.5126 0
M  V30 623 H 63.099 7.44498 2.46357 0
M  V30 624 N 60.6021 -1.18246 1.0419 0
M  V30 625 C 61.8301 -1.92195 0.766072 0
M  V30 626 C 62.2451 -1.76247 -0.676933 0
M  V30 627 O 61.6021 -1.09293 -1.46155 0
M  V30 628 C 61.6531 -3.43568 1.12442 0
M  V30 629 O 61.3741 -3.59015 2.51078 0
M  V30 630 C 62.8751 -4.34613 0.873275 0
M  V30 631 H 60.0951 -0.610114 0.279288 0
M  V30 632 H 62.6391 -1.50007 1.38989 0
M  V30 633 H 60.7941 -3.8354 0.545542 0
M  V30 634 H 61.2081 -4.5273 2.64831 0
M  V30 635 H 62.6821 -5.39374 1.17385 0
M  V30 636 H 63.1591 -4.38781 -0.191909 0
M  V30 637 H 63.7651 -4.00341 1.43551 0
M  V30 638 N 62.0802 -0.821533 -1.34494 0
M  V30 639 C 63.4962 -0.507117 -1.51329 0
M  V30 640 C 63.6962 0.968964 -1.76673 0
M  V30 641 O 62.7522 1.75348 -1.81685 0
M  V30 642 C 64.0652 -1.36544 -2.67911 0
M  V30 643 C 65.6132 -1.36242 -2.81793 0
M  V30 644 C 66.0882 -2.2052 -4.01416 0
M  V30 645 N 67.5792 -2.18136 -4.08621 0
M  V30 646 C 68.3142 -2.80095 -5.00334 0
M  V30 647 N 67.8102 -3.51039 -5.9728 0
M  V30 648 N 69.6032 -2.69656 -4.93196 0
M  V30 649 H 61.7542 -1.77729 -1.16302 0
M  V30 650 H 64.0172 -0.757291 -0.570276 0
M  V30 651 H 63.7232 -2.41361 -2.55808 0
M  V30 652 H 63.5972 -1.02917 -3.62888 0
M  V30 653 H 65.9842 -0.322041 -2.93338 0
M  V30 654 H 66.0652 -1.73866 -1.87628 0
M  V30 655 H 65.7092 -3.24607 -3.90631 0
M  V30 656 H 65.6392 -1.80247 -4.94791 0
M  V30 657 H 68.1302 -1.6653 -3.39229 0
M  V30 658 H 68.4432 -3.95565 -6.63889 0
M  V30 659 H 66.7882 -3.55145 -5.97409 0
M  V30 660 H 69.9792 -2.13808 -4.16418 0
M  V30 661 H 70.1522 -3.1823 -5.64476 0
M  V30 662 N 63.5583 1.46682 -0.576371 0
M  V30 663 C 64.5083 2.27278 0.181288 0
M  V30 664 C 65.4923 1.35497 0.867721 0
M  V30 665 O 66.6843 1.59717 0.762863 0
M  V30 666 C 63.8133 3.21703 1.19841 0
M  V30 667 C 62.8993 4.20969 0.51442 0
M  V30 668 N 63.2903 5.03999 -0.426407 0
M  V30 669 C 61.5883 4.39373 0.765963 0
M  V30 670 C 62.2893 5.75812 -0.825565 0
M  V30 671 N 61.2653 5.43315 -0.176116 0
M  V30 672 H 65.0673 2.88863 -0.541785 0
M  V30 673 H 62.5813 1.57455 -0.397697 0
M  V30 674 H 64.5783 3.78145 1.75533 0
M  V30 675 H 63.2383 2.61677 1.92238 0
M  V30 676 H 64.2493 5.11659 -0.8016 0
M  V30 677 H 60.9263 3.90502 1.47698 0
M  V30 678 H 62.3163 6.52577 -1.59976 0
M  V30 679 N 65.0364 0.313813 1.54444 0
M  V30 680 C 65.9694 -0.598866 2.20202 0
M  V30 681 C 66.9474 -1.12318 1.17573 0
M  V30 682 O 68.1314 -1.18899 1.46271 0
M  V30 683 C 65.2584 -1.82071 2.85601 0
M  V30 684 C 64.3044 -1.42851 4.01865 0
M  V30 685 S 65.1374 -0.473512 5.33402 0
M  V30 686 C 66.2934 -1.70286 6.0229 0
M  V30 687 H 66.5264 -0.0402532 2.97273 0
M  V30 688 H 64.0594 0.0979165 1.54089 0
M  V30 689 H 66.0174 -2.52184 3.23904 0
M  V30 690 H 64.6784 -2.3505 2.08351 0
M  V30 691 H 63.8714 -2.33871 4.46453 0
M  V30 692 H 63.4734 -0.807198 3.65185 0
M  V30 693 H 65.7654 -2.64168 6.23876 0
M  V30 694 H 66.7084 -1.29932 6.96077 0
M  V30 695 H 67.1164 -1.88541 5.32083 0
M  V30 696 N 66.5145 -1.57545 0.0417849 0
M  V30 697 C 67.4245 -2.14451 -0.951213 0
M  V30 698 C 68.4405 -1.09992 -1.34825 0
M  V30 699 O 69.6165 -1.42114 -1.42708 0
M  V30 700 C 66.6815 -2.67063 -2.21084 0
M  V30 701 C 65.7425 -3.86284 -1.87304 0
M  V30 702 C 64.9755 -4.36378 -3.07261 0
M  V30 703 O 65.1985 -3.85587 -4.20332 0
M  V30 704 O 64.1325 -5.28077 -2.88822 0
M  V30 705 H 67.9585 -2.99601 -0.497287 0
M  V30 706 H 65.5435 -1.48317 -0.179567 0
M  V30 707 H 67.4255 -3.00914 -2.95006 0
M  V30 708 H 66.1005 -1.84989 -2.65633 0
M  V30 709 H 65.0075 -3.57338 -1.10727 0
M  V30 710 H 66.3405 -4.6956 -1.47562 0
M  V30 711 N 67.9926 0.231505 -1.5589 0
M  V30 712 C 68.9556 1.27028 -1.90779 0
M  V30 713 C 69.9556 1.40308 -0.785507 0
M  V30 714 O 71.1456 1.38744 -1.05336 0
M  V30 715 C 68.2776 2.64566 -2.14983 0
M  V30 716 H 69.4706 0.973017 -2.83677 0
M  V30 717 H 67.0236 0.471486 -1.49019 0
M  V30 718 H 67.7586 2.99406 -1.24604 0
M  V30 719 H 67.5436 2.56305 -2.96732 0
M  V30 720 H 69.0336 3.39543 -2.43105 0
M  V30 721 N 69.4707 1.49531 0.497807 0
M  V30 722 C 70.7167 1.59415 1.25358 0
M  V30 723 C 71.0497 0.281422 1.9215 0
M  V30 724 O 70.3247 -0.715249 1.80871 0
M  V30 725 C 70.6077 2.75566 2.3181 0
M  V30 726 C 70.4607 4.16642 1.69498 0
M  V30 727 C 71.7797 2.87347 3.33346 0
M  V30 728 H 68.8987 0.580244 0.454408 0
M  V30 729 H 71.5407 1.81827 0.551262 0
M  V30 730 H 69.6907 2.56587 2.91711 0
M  V30 731 H 71.3627 4.47145 1.13399 0
M  V30 732 H 69.6057 4.22141 0.998978 0
M  V30 733 H 70.2767 4.93792 2.46725 0
M  V30 734 H 72.7527 3.04634 2.83438 0
M  V30 735 H 71.6287 3.70289 4.05188 0
M  V30 736 H 71.8897 1.96834 3.95865 0
M  V30 737 N 70.9488 -0.749086 1.3866 0
M  V30 738 C 71.8958 -1.86291 1.36251 0
M  V30 739 C 72.8658 -1.64578 0.224347 0
M  V30 740 O 74.0508 -1.86181 0.417279 0
M  V30 741 C 71.1908 -3.23644 1.19786 0
M  V30 742 C 70.3038 -3.57158 2.43027 0
M  V30 743 C 69.4388 -4.83838 2.19258 0
M  V30 744 C 68.4778 -5.10152 3.38247 0
M  V30 745 N 67.6148 -6.28029 3.13884 0
M  V30 746 H 72.4548 -1.87685 2.3147 0
M  V30 747 H 69.9918 -0.917287 1.14997 0
M  V30 748 H 71.9498 -4.0291 1.08254 0
M  V30 749 H 70.5798 -3.21566 0.282031 0
M  V30 750 H 69.6318 -2.72701 2.65214 0
M  V30 751 H 70.9438 -3.7253 3.31697 0
M  V30 752 H 70.0978 -5.71057 2.04888 0
M  V30 753 H 68.8368 -4.70614 1.2796 0
M  V30 754 H 67.8418 -4.21401 3.53131 0
M  V30 755 H 69.0668 -5.25271 4.30427 0
M  V30 756 H 67.0128 -6.1612 2.25238 0
M  V30 757 H 66.9298 -6.43922 3.96106 0
M  V30 758 H 68.1978 -7.18124 3.03179 0
M  V30 759 N 72.4269 -1.23603 -0.977757 0
M  V30 760 C 73.3899 -1.02069 -2.05218 0
M  V30 761 C 74.3899 0.0184305 -1.60789 0
M  V30 762 O 75.5799 -0.221569 -1.72785 0
M  V30 763 C 72.7119 -0.544926 -3.36517 0
M  V30 764 H 73.9049 -1.9742 -2.25755 0
M  V30 765 H 71.4579 -1.05684 -1.15155 0
M  V30 766 H 72.1929 0.412241 -3.21669 0
M  V30 767 H 71.9779 -1.2948 -3.70105 0
M  V30 768 H 73.4679 -0.414985 -4.15533 0
M  V30 769 N 73.905 1.17692 -1.04816 0
M  V30 770 C 74.837 2.21103 -0.603822 0
M  V30 771 C 75.85 1.59411 0.33046 0
M  V30 772 O 77.039 1.7807 0.12379 0
M  V30 773 C 74.139 3.38623 0.136898 0
M  V30 774 C 73.312 4.29888 -0.807137 0
M  V30 775 C 72.371 5.26088 -0.10836 0
M  V30 776 O 71.397 5.64353 -0.741232 0
M  V30 777 N 72.599 5.68882 1.15558 0
M  V30 778 H 75.364 2.59848 -1.49329 0
M  V30 779 H 72.925 1.32553 -0.929587 0
M  V30 780 H 74.917 4.00009 0.614401 0
M  V30 781 H 73.487 2.98508 0.927993 0
M  V30 782 H 72.707 3.65993 -1.46434 0
M  V30 783 H 73.995 4.87759 -1.44807 0
M  V30 784 H 73.393 5.39861 1.69015 0
M  V30 785 H 71.95 6.32429 1.57722 0
M  V30 786 N 75.3831 0.828654 1.34056 0
M  V30 787 C 76.3131 0.269443 2.3194 0
M  V30 788 C 77.2941 -0.617247 1.58506 0
M  V30 789 O 78.4791 -0.542931 1.86456 0
M  V30 790 C 75.6091 -0.564793 3.42677 0
M  V30 791 C 74.5631 0.225241 4.27407 0
M  V30 792 C 73.8891 -0.7321 5.29664 0
M  V30 793 C 75.1891 1.43663 5.02154 0
M  V30 794 H 76.8831 1.08728 2.7896 0
M  V30 795 H 74.4291 0.524283 1.34117 0
M  V30 796 H 76.3821 -0.966233 4.10173 0
M  V30 797 H 75.1061 -1.41574 2.9432 0
M  V30 798 H 73.7651 0.608117 3.61521 0
M  V30 799 H 73.4131 -1.57916 4.77568 0
M  V30 800 H 73.1131 -0.20767 5.87233 0
M  V30 801 H 74.6371 -1.13128 6.00029 0
M  V30 802 H 76.0511 1.1089 5.62473 0
M  V30 803 H 74.4481 1.89711 5.69324 0
M  V30 804 H 75.5181 2.21181 4.31517 0
M  V30 805 N 76.8612 -1.46375 0.584142 0
M  V30 806 C 77.7912 -2.33103 -0.136037 0
M  V30 807 C 78.7722 -1.45431 -0.882255 0
M  V30 808 O 79.9572 -1.74246 -0.857434 0
M  V30 809 C 77.0872 -3.27731 -1.14933 0
M  V30 810 C 76.0412 -4.24855 -0.517862 0
M  V30 811 C 75.3672 -5.09001 -1.63773 0
M  V30 812 C 76.6672 -5.19439 0.545886 0
M  V30 813 H 78.3612 -2.93568 0.588086 0
M  V30 814 H 75.9072 -1.41166 0.284259 0
M  V30 815 H 77.8602 -3.87261 -1.66153 0
M  V30 816 H 76.5842 -2.65377 -1.90375 0
M  V30 817 H 75.2432 -3.6659 -0.0267361 0
M  V30 818 H 74.8912 -4.43031 -2.38185 0
M  V30 819 H 74.5912 -5.74777 -1.22085 0
M  V30 820 H 76.1152 -5.71396 -2.15266 0
M  V30 821 H 77.5292 -5.73177 0.118704 0
M  V30 822 H 75.9262 -5.93566 0.88317 0
M  V30 823 H 76.9962 -4.63285 1.43162 0
M  V30 824 N 78.3393 -0.321999 -1.54275 0
M  V30 825 C 79.2493 0.553631 -2.27974 0
M  V30 826 C 80.2653 1.13054 -1.32268 0
M  V30 827 O 81.4413 1.15084 -1.6528 0
M  V30 828 C 78.5063 1.69927 -3.02201 0
M  V30 829 C 77.5673 1.15433 -4.1349 0
M  V30 830 C 76.8003 2.24537 -4.84168 0
M  V30 831 O 77.0233 3.44852 -4.5435 0
M  V30 832 O 75.9573 1.90044 -5.7111 0
M  V30 833 H 79.7833 -0.0448345 -3.03667 0
M  V30 834 H 77.3683 -0.0877418 -1.49142 0
M  V30 835 H 79.2503 2.3663 -3.48689 0
M  V30 836 H 77.9253 2.28395 -2.29385 0
M  V30 837 H 76.8323 0.452436 -3.71354 0
M  V30 838 H 78.1653 0.614805 -4.88345 0
M  V30 839 N 79.8174 1.5752 -0.0501392 0
M  V30 840 C 80.7494 2.08413 0.95376 0
M  V30 841 C 81.7624 1.01175 1.27544 0
M  V30 842 O 82.9514 1.28744 1.23641 0
M  V30 843 C 80.0514 2.51138 2.27559 0
M  V30 844 C 79.2244 3.817 2.13598 0
M  V30 845 C 78.2834 4.10749 3.28895 0
M  V30 846 O 77.3094 4.80685 3.04845 0
M  V30 847 N 78.5114 3.62579 4.5334 0
M  V30 848 H 81.2764 2.95165 0.519383 0
M  V30 849 H 78.8374 1.61327 0.136127 0
M  V30 850 H 80.8294 2.67648 3.03557 0
M  V30 851 H 79.3994 1.6964 2.62567 0
M  V30 852 H 78.6194 3.74782 1.22197 0
M  V30 853 H 79.9074 4.67201 2.01496 0
M  V30 854 H 79.3054 3.06039 4.75769 0
M  V30 855 H 77.8624 3.84329 5.26436 0
M  V30 856 N 81.2955 -0.223234 1.56011 0
M  V30 857 C 82.2585 -1.26014 1.9145 0
M  V30 858 C 83.2585 -1.3989 0.792937 0
M  V30 859 O 84.4485 -1.38184 1.0607 0
M  V30 860 C 81.5805 -2.63422 2.16383 0
M  V30 861 H 82.7735 -0.95796 2.84189 0
M  V30 862 H 80.3265 -0.463576 1.49267 0
M  V30 863 H 81.0615 -2.98741 1.2619 0
M  V30 864 H 80.8465 -2.54728 2.98088 0
M  V30 865 H 82.3365 -3.38249 2.44903 0
M  V30 866 N 82.7736 -1.49793 -0.48987 0
M  V30 867 C 83.7056 -1.63413 -1.60713 0
M  V30 868 C 84.7186 -0.516329 -1.54395 0
M  V30 869 O 85.9076 -0.788812 -1.60125 0
M  V30 870 C 83.0076 -1.58516 -2.99543 0
M  V30 871 C 82.1806 -2.86016 -3.30928 0
M  V30 872 C 81.2396 -2.74018 -4.49222 0
M  V30 873 O 80.2656 -3.47964 -4.50455 0
M  V30 874 N 81.4676 -1.86309 -5.4979 0
M  V30 875 H 84.2326 -2.59777 -1.49452 0
M  V30 876 H 81.7936 -1.47022 -0.677955 0
M  V30 877 H 83.7856 -1.48128 -3.76617 0
M  V30 878 H 82.3556 -0.69965 -3.0467 0
M  V30 879 H 81.5756 -3.10672 -2.42645 0
M  V30 880 H 82.8636 -3.70521 -3.487 0
M  V30 881 H 82.2616 -1.2551 -5.51601 0
M  V30 882 H 80.8186 -1.81837 -6.25922 0
M  V30 883 N 84.2517 0.741722 -1.39055 0
M  V30 884 C 85.4997 1.49818 -1.35643 0
M  V30 885 C 85.8207 1.94938 0.0491642 0
M  V30 886 O 85.0907 1.68505 0.999141 0
M  V30 887 H 83.6707 0.555755 -0.499144 0
M  V30 888 H 86.3327 0.880957 -1.73854 0
M  V30 889 H 85.4287 2.38348 -2.01486 0
M  V30 890 N 85.7298 1.2412 0.971189 0
M  V30 891 C 86.6618 0.988349 2.06795 0
M  V30 892 C 87.6748 -0.0409541 1.62748 0
M  V30 893 O 88.8638 0.195673 1.77424 0
M  V30 894 C 85.9638 0.469023 3.35639 0
M  V30 895 C 85.1368 1.56065 4.08611 0
M  V30 896 C 84.1958 1.04458 5.15728 0
M  V30 897 O 83.2218 1.73553 5.42096 0
M  V30 898 N 84.4238 -0.122817 5.8037 0
M  V30 899 H 87.1888 1.93265 2.29061 0
M  V30 900 H 84.7498 1.15102 1.13856 0
M  V30 901 H 86.7418 0.108613 4.04554 0
M  V30 902 H 85.3118 -0.380919 3.1027 0
M  V30 903 H 84.5318 2.09341 3.34021 0
M  V30 904 H 85.8198 2.29449 4.54126 0
M  V30 905 H 85.2178 -0.700563 5.61345 0
M  V30 906 H 83.7748 -0.424404 6.50417 0
M  V30 907 N 87.2079 -1.17134 1.05439 0
M  V30 908 C 88.1379 -2.2342 0.678649 0
M  V30 909 C 89.1189 -1.66971 -0.32476 0
M  V30 910 O 90.3039 -1.93149 -0.201802 0
M  V30 911 C 87.4339 -3.47256 0.0552099 0
M  V30 912 C 86.3879 -4.16543 0.98365 0
M  V30 913 C 85.7139 -5.34231 0.223961 0
M  V30 914 C 87.0139 -4.68495 2.3089 0
M  V30 915 H 88.7079 -2.55105 1.56722 0
M  V30 916 H 86.2539 -1.2262 0.754998 0
M  V30 917 H 88.2069 -4.20828 -0.21946 0
M  V30 918 H 86.9309 -3.14846 -0.868319 0
M  V30 919 H 85.5899 -3.44887 1.24293 0
M  V30 920 H 85.2379 -4.98071 -0.702412 0
M  V30 921 H 84.9379 -5.81527 0.842627 0
M  V30 922 H 86.4619 -6.10585 -0.0433671 0
M  V30 923 H 87.8759 -5.33691 2.09396 0
M  V30 924 H 86.2729 -5.26379 2.88176 0
M  V30 925 H 87.3429 -3.85169 2.94572 0
M  V30 926 N 88.686 -0.835752 -1.33615 0
M  V30 927 C 90.102 -0.523139 -1.50783 0
M  V30 928 C 90.302 0.950171 -1.77691 0
M  V30 929 O 89.358 1.73411 -1.83534 0
M  V30 930 C 90.671 -1.39378 -2.66448 0
M  V30 931 C 92.219 -1.39223 -2.80332 0
M  V30 932 C 92.694 -2.24765 -3.99055 0
M  V30 933 N 94.185 -2.22458 -4.06284 0
M  V30 934 C 94.92 -2.85386 -4.97336 0
M  V30 935 N 94.416 -3.57354 -5.93523 0
M  V30 936 N 96.209 -2.74872 -4.90308 0
M  V30 937 H 88.36 -1.78952 -1.14411 0
M  V30 938 H 90.623 -0.763297 -0.562212 0
M  V30 939 H 90.329 -2.44061 -2.53234 0
M  V30 940 H 90.203 -1.0676 -3.61776 0
M  V30 941 H 92.59 -0.353136 -2.92979 0
M  V30 942 H 92.671 -1.75846 -1.85773 0
M  V30 943 H 92.315 -3.28732 -3.87167 0
M  V30 944 H 92.245 -1.85485 -4.92852 0
M  V30 945 H 94.736 -1.70119 -3.37443 0
M  V30 946 H 95.049 -4.02584 -6.59656 0
M  V30 947 H 93.394 -3.61461 -5.93608 0
M  V30 948 H 96.585 -2.18213 -4.14126 0
M  V30 949 H 96.758 -3.24199 -5.61069 0
M  V30 950 N 90.1641 1.46063 -0.591896 0
M  V30 951 C 91.0741 2.34192 0.13831 0
M  V30 952 C 92.0901 1.50305 0.876608 0
M  V30 953 O 93.2661 1.8315 0.837728 0
M  V30 954 C 90.3311 3.27656 1.13326 0
M  V30 955 C 89.3921 4.27445 0.39863 0
M  V30 956 C 88.6251 5.16443 1.34618 0
M  V30 957 O 88.8481 5.08553 2.58321 0
M  V30 958 O 87.7821 5.95843 0.851768 0
M  V30 959 H 91.6081 2.98002 -0.58552 0
M  V30 960 H 89.1931 1.45188 -0.352239 0
M  V30 961 H 91.0751 3.85291 1.70671 0
M  V30 962 H 89.7501 2.6643 1.83839 0
M  V30 963 H 88.6571 3.73471 -0.216895 0
M  V30 964 H 89.9901 4.91482 -0.265709 0
M  V30 965 N 91.6422 0.330177 1.54103 0
M  V30 966 C 92.5722 -0.525353 2.27513 0
M  V30 967 C 93.5532 -1.11383 1.2856 0
M  V30 968 O 94.7382 -1.13773 1.57383 0
M  V30 969 C 91.8682 -1.6831 3.03791 0
M  V30 970 C 90.8222 -1.2236 4.10137 0
M  V30 971 C 90.1482 -2.46882 4.74293 0
M  V30 972 C 91.4482 -0.333697 5.21233 0
M  V30 973 H 93.1422 0.087013 2.99274 0
M  V30 974 H 90.6882 0.0432893 1.43935 0
M  V30 975 H 92.6412 -2.28795 3.5388 0
M  V30 976 H 91.3652 -2.32216 2.29659 0
M  V30 977 H 90.0242 -0.64165 3.60941 0
M  V30 978 H 89.6722 -3.09165 3.96769 0
M  V30 979 H 89.3722 -2.16825 5.46133 0
M  V30 980 H 90.8962 -3.08117 5.27159 0
M  V30 981 H 92.3102 -0.845013 5.67038 0
M  V30 982 H 90.7072 -0.125612 5.99969 0
M  V30 983 H 91.7772 0.633724 4.80741 0
M  V30 984 N 93.1203 -1.57491 0.0584922 0
M  V30 985 C 94.0503 -2.14988 -0.911178 0
M  V30 986 C 95.0313 -1.07343 -1.31952 0
M  V30 987 O 96.2163 -1.35318 -1.39294 0
M  V30 988 C 93.3463 -2.70078 -2.18347 0
M  V30 989 C 92.3003 -3.82771 -1.91495 0
M  V30 990 C 91.6263 -4.24408 -3.25241 0
M  V30 991 C 92.9263 -5.07592 -1.23075 0
M  V30 992 H 94.6203 -2.96263 -0.432246 0
M  V30 993 H 92.1663 -1.42512 -0.206469 0
M  V30 994 H 94.1193 -3.08943 -2.86587 0
M  V30 995 H 92.8433 -1.86005 -2.68458 0
M  V30 996 H 91.5023 -3.44389 -1.25664 0
M  V30 997 H 91.1503 -3.37275 -3.73168 0
M  V30 998 H 90.8503 -5.00366 -3.08071 0
M  V30 999 H 92.3743 -4.65879 -3.94701 0
M  V30 1000 H 93.7883 -5.43857 -1.81362 0
M  V30 1001 H 92.1853 -5.88741 -1.16207 0
M  V30 1002 H 93.2553 -4.84454 -0.207847 0
M  V30 1003 N 94.5984 0.214957 -1.56127 0
M  V30 1004 C 95.8754 0.963093 -1.70247 0
M  V30 1005 C 96.2554 2.02166 -0.60764 0
M  V30 1006 O 95.6034 2.25244 0.384385 0
M  V30 1007 C 95.8134 1.56756 -3.11815 0
M  V30 1008 C 97.1614 2.0573 -3.7143 0
M  V30 1009 O 98.1854 1.66637 -3.14818 0
M  V30 1010 O 97.0444 2.77603 -4.70743 0
M  V30 1011 H 94.1384 0.450321 -0.693643 0
M  V30 1012 H 96.6844 0.206219 -1.68442 0
M  V30 1013 H 95.4564 0.803533 -3.82961 0
M  V30 1014 H 95.0794 2.3898 -3.17765 0
M  V30 1015 N 96.0765 1.50051 0.48192 0
M  V30 1016 C 97.4925 1.37237 0.814756 0
M  V30 1017 C 97.6925 0.420109 1.97072 0
M  V30 1018 O 96.7485 -0.141246 2.52105 0
M  V30 1019 C 98.0615 2.78375 1.13701 0
M  V30 1020 C 99.6095 2.87213 1.2441 0
M  V30 1021 C 100.084 4.29161 1.59954 0
M  V30 1022 N 101.575 4.32061 1.66967 0
M  V30 1023 C 102.31 5.38879 1.95952 0
M  V30 1024 N 101.806 6.55918 2.23031 0
M  V30 1025 N 103.599 5.26312 1.97363 0
M  V30 1026 H 95.7505 2.10546 -0.28005 0
M  V30 1027 H 98.0135 0.945921 -0.0627454 0
M  V30 1028 H 97.7195 3.49845 0.360787 0
M  V30 1029 H 97.5935 3.14941 2.07586 0
M  V30 1030 H 99.9805 2.15969 2.01101 0
M  V30 1031 H 100.061 2.54204 0.285299 0
M  V30 1032 H 99.7055 5.00938 0.838067 0
M  V30 1033 H 99.6355 4.59648 2.56966 0
M  V30 1034 H 102.126 3.47661 1.48123 0
M  V30 1035 H 102.439 7.33139 2.44391 0
M  V30 1036 H 100.784 6.59112 2.20447 0
M  V30 1037 H 103.975 4.33876 1.75697 0
M  V30 1038 H 104.148 6.09649 2.19618 0
M  V30 1039 N 97.5546 -0.734337 1.39446 0
M  V30 1040 C 98.5176 -1.83004 1.37994 0
M  V30 1041 C 99.5176 -1.58397 0.276938 0
M  V30 1042 O 100.708 -1.65785 0.534875 0
M  V30 1043 C 97.8396 -3.20802 1.1532 0
M  V30 1044 H 99.0326 -1.85694 2.35494 0
M  V30 1045 H 96.5856 -0.938059 1.25021 0
M  V30 1046 H 97.3206 -3.23772 0.185036 0
M  V30 1047 H 97.1056 -3.4006 1.95197 0
M  V30 1048 H 98.5956 -4.00862 1.17046 0
M  V30 1049 N 99.0327 -1.24633 -0.964593 0
M  V30 1050 C 99.9657 -0.984662 -2.05863 0
M  V30 1051 C 100.944 0.0826554 -1.6239 0
M  V30 1052 O 102.128 -0.0549296 -1.8842 0
M  V30 1053 C 99.2547 -0.486529 -3.35187 0
M  V30 1054 C 98.3007 -1.54286 -3.97615 0
M  V30 1055 S 99.1337 -3.12513 -4.34851 0
M  V30 1056 C 100.29 -2.6441 -5.67308 0
M  V30 1057 H 100.523 -1.91104 -2.27743 0
M  V30 1058 H 98.0557 -1.08052 -1.10291 0
M  V30 1059 H 100.014 -0.205757 -4.09984 0
M  V30 1060 H 98.6747 0.419186 -3.1129 0
M  V30 1061 H 97.8677 -1.14481 -4.90826 0
M  V30 1062 H 97.4697 -1.7738 -3.2926 0
M  V30 1063 H 99.7617 -2.07416 -6.44969 0
M  V30 1064 H 100.705 -3.56222 -6.11973 0
M  V30 1065 H 101.113 -2.04734 -5.26065 0
M  V30 1066 N 100.511 1.16574 -1.06058 0
M  V30 1067 C 101.927 1.3904 -0.783585 0
M  V30 1068 C 102.127 1.91784 0.618145 0
M  V30 1069 O 101.183 2.11511 1.37911 0
M  V30 1070 C 102.496 2.37329 -1.84649 0
M  V30 1071 C 104.044 2.51018 -1.86973 0
M  V30 1072 C 104.519 3.52588 -2.92311 0
M  V30 1073 N 106.01 3.60113 -2.91329 0
M  V30 1074 C 106.745 4.38486 -3.69482 0
M  V30 1075 N 106.241 5.20302 -4.57447 0
M  V30 1076 N 108.034 4.33446 -3.57885 0
M  V30 1077 H 100.185 0.806725 -1.96483 0
M  V30 1078 H 102.448 0.417117 -0.851303 0
M  V30 1079 H 102.154 2.05663 -2.85299 0
M  V30 1080 H 102.028 3.36946 -1.6955 0
M  V30 1081 H 104.415 2.81989 -0.869827 0
M  V30 1082 H 104.496 1.51445 -2.0615 0
M  V30 1083 H 104.14 3.22354 -3.92492 0
M  V30 1084 H 104.07 4.51886 -2.70383 0
M  V30 1085 H 106.561 3.01707 -2.27555 0
M  V30 1086 H 106.874 5.77311 -5.13743 0
M  V30 1087 H 105.219 5.19653 -4.61503 0
M  V30 1088 H 108.41 3.68586 -2.88551 0
M  V30 1089 H 108.583 4.94279 -4.19037 0
M  V30 1090 N 101.989 0.842826 1.3317 0
M  V30 1091 C 102.899 0.281444 2.32906 0
M  V30 1092 C 103.915 -0.594587 1.63526 0
M  V30 1093 O 105.091 -0.49777 1.95152 0
M  V30 1094 C 102.156 -0.530929 3.42611 0
M  V30 1095 C 101.217 0.369843 4.27704 0
M  V30 1096 C 100.45 -0.403853 5.3217 0
M  V30 1097 O 100.673 -1.63513 5.46461 0
M  V30 1098 O 99.6069 0.224199 6.01482 0
M  V30 1099 H 103.433 1.10744 2.82789 0
M  V30 1100 H 101.018 0.60545 1.36582 0
M  V30 1101 H 102.9 -0.992437 4.09547 0
M  V30 1102 H 101.575 -1.33392 2.94938 0
M  V30 1103 H 100.482 0.879275 3.6362 0
M  V30 1104 H 101.815 1.13771 4.78871 0
M  V30 1105 N 103.467 -1.45747 0.599634 0
M  V30 1106 C 104.43 -2.28917 -0.113835 0
M  V30 1107 C 105.43 -1.3933 -0.802729 0
M  V30 1108 O 106.62 -1.61534 -0.652103 0
M  V30 1109 C 103.752 -3.20152 -1.17114 0
M  V30 1110 H 104.945 -2.93478 0.617289 0
M  V30 1111 H 102.498 -1.52137 0.358327 0
M  V30 1112 H 103.233 -2.60374 -1.93329 0
M  V30 1113 H 103.018 -3.86133 -0.681468 0
M  V30 1114 H 104.508 -3.82708 -1.67105 0
M  V30 1115 N 104.945 -0.338344 -1.53925 0
M  V30 1116 C 106.194 0.260732 -2.00008 0
M  V30 1117 C 106.507 1.52073 -1.23017 0
M  V30 1118 O 107.713 2.19672 -1.5955 0
M  V30 1119 C 106.169 0.51515 -3.56194 0
M  V30 1120 C 105.777 -0.728645 -4.42035 0
M  V30 1121 C 107.521 1.07337 -4.10706 0
M  V30 1122 C 105.428 -0.445315 -5.89721 0
M  V30 1123 H 104.358 0.101205 -0.747177 0
M  V30 1124 H 107.009 -0.452866 -1.77824 0
M  V30 1125 H 105.391 1.28932 -3.74423 0
M  V30 1126 H 106.565 -1.50352 -4.35581 0
M  V30 1127 H 104.88 -1.20813 -3.98489 0
M  V30 1128 H 107.477 1.30022 -5.18651 0
M  V30 1129 H 107.82 2.0273 -3.63602 0
M  V30 1130 H 108.353 0.360034 -3.96167 0
M  V30 1131 H 105.092 -1.36883 -6.41049 0
M  V30 1132 H 104.612 0.291569 -5.99091 0
M  V30 1133 H 106.291 -0.0606218 -6.46972 0
M  V30 1134 N 106.423 1.57458 -0.0668435 0
M  V30 1135 C 107.355 2.09413 0.931601 0
M  V30 1136 C 108.368 1.02522 1.26464 0
M  V30 1137 O 109.557 1.30049 1.22269 0
M  V30 1138 C 106.657 2.53537 2.24882 0
M  V30 1139 C 105.83 3.83944 2.09537 0
M  V30 1140 C 104.889 4.14214 3.2452 0
M  V30 1141 O 103.915 4.83891 2.9973 0
M  V30 1142 N 105.117 3.67367 4.49469 0
M  V30 1143 H 107.882 2.95699 0.488048 0
M  V30 1144 H 105.443 1.61462 0.119009 0
M  V30 1145 H 107.435 2.70853 3.00701 0
M  V30 1146 H 106.005 1.72415 2.60753 0
M  V30 1147 H 105.225 3.76057 1.18215 0
M  V30 1148 H 106.513 4.69312 1.96529 0
M  V30 1149 H 105.911 3.11068 4.72497 0
M  V30 1150 H 104.468 3.89891 5.2233 0
M  V30 1151 N 107.901 -0.206675 1.56239 0
M  V30 1152 C 109.126 -0.949474 1.8439 0
M  V30 1153 C 109.551 -1.76549 0.649016 0
M  V30 1154 O 108.909 -1.76782 -0.402231 0
M  V30 1155 C 108.957 -1.83078 3.10668 0
M  V30 1156 O 108.061 -2.9281 2.90407 0
M  V30 1157 H 107.402 -0.268033 0.607499 0
M  V30 1158 H 109.932 -0.215488 2.03462 0
M  V30 1159 H 109.942 -2.2377 3.41161 0
M  V30 1160 H 108.617 -1.23112 3.97261 0
M  V30 1161 H 107.194 -2.55956 2.71184 0
M  V30 1162 N 109.379 -1.50304 -0.473955 0
M  V30 1163 C 110.609 -1.64663 -1.24778 0
M  V30 1164 C 111.017 -0.328174 -1.86332 0
M  V30 1165 O 110.36 0.699536 -1.69859 0
M  V30 1166 C 110.422 -2.6778 -2.39863 0
M  V30 1167 C 110.086 -4.11413 -1.98969 0
M  V30 1168 C 111.083 -4.97372 -1.51385 0
M  V30 1169 C 108.768 -4.57312 -2.07777 0
M  V30 1170 C 110.762 -6.27277 -1.13148 0
M  V30 1171 C 108.449 -5.87223 -1.69152 0
M  V30 1172 C 109.447 -6.72031 -1.21915 0
M  V30 1173 O 109.135 -7.99518 -0.838237 0
M  V30 1174 H 108.867 -0.556602 -0.383627 0
M  V30 1175 H 111.421 -1.9726 -0.572491 0
M  V30 1176 H 109.651 -2.30419 -3.10554 0
M  V30 1177 H 111.34 -2.71388 -3.01833 0
M  V30 1178 H 112.106 -4.63128 -1.44004 0
M  V30 1179 H 107.985 -3.91449 -2.43493 0
M  V30 1180 H 111.529 -6.93425 -0.762077 0
M  V30 1181 H 107.426 -6.20989 -1.76191 0
M  V30 1182 H 108.194 -8.12764 -0.967339 0
M  V30 1183 N 110.857 0.726932 -1.39834 0
M  V30 1184 C 112.268 1.30558 -1.3346 0
M  V30 1185 C 112.619 1.962 -0.00273003 0
M  V30 1186 O 111.744 1.96826 0.899371 0
M  V30 1187 C 112.339 2.37404 -2.41713 0
M  V30 1188 C 110.898 2.90921 -2.38835 0
M  V30 1189 C 110.045 1.64578 -2.2318 0
M  V30 1190 H 112.996 0.523862 -1.49804 0
M  V30 1191 H 113.017 3.17984 -2.08966 0
M  V30 1192 H 112.529 1.89599 -3.38635 0
M  V30 1193 H 110.63 3.42985 -1.45575 0
M  V30 1194 H 110.743 3.43487 -3.33997 0
M  V30 1195 H 109.107 1.89219 -1.70494 0
M  V30 1196 H 109.89 1.18814 -3.22084 0
M  V30 1197 N 112.336 1.25143 0.95797 0
M  V30 1198 C 113.561 1.12521 1.74223 0
M  V30 1199 C 113.986 -0.317402 1.85403 0
M  V30 1200 O 113.344 -1.2299 1.33204 0
M  V30 1201 C 113.392 1.78062 3.1357 0
M  V30 1202 O 112.496 1.058 3.98598 0
M  V30 1203 H 111.837 0.39304 0.535178 0
M  V30 1204 H 114.367 1.65641 1.201 0
M  V30 1205 H 114.377 1.84213 3.64046 0
M  V30 1206 H 113.052 2.83021 3.04749 0
M  V30 1207 H 111.629 1.07506 3.57067 0
M  V30 1208 N 113.814 -1.1601 1.06675 0
M  V30 1209 C 114.746 -2.20115 0.638921 0
M  V30 1210 C 115.759 -1.59916 -0.305057 0
M  V30 1211 O 116.948 -1.78245 -0.0954446 0
M  V30 1212 C 114.048 -3.38798 -0.0830083 0
M  V30 1213 C 113.221 -4.2855 0.875426 0
M  V30 1214 C 112.28 -5.25849 0.192042 0
M  V30 1215 O 111.306 -5.63102 0.830921 0
M  V30 1216 N 112.508 -5.70648 -1.06493 0
M  V30 1217 H 115.273 -2.57439 1.53444 0
M  V30 1218 H 112.834 -1.31057 0.950557 0
M  V30 1219 H 114.826 -4.00936 -0.550685 0
M  V30 1220 H 113.396 -2.99947 -0.880386 0
M  V30 1221 H 112.616 -3.63617 1.52238 0
M  V30 1222 H 113.904 -4.85393 1.52548 0
M  V30 1223 H 113.302 -5.42482 -1.60405 0
M  V30 1224 H 111.859 -6.34859 -1.47641 0
M  V30 1225 N 115.292 -0.849877 -1.32721 0
M  V30 1226 C 116.569 -0.372405 -1.92022 0
M  V30 1227 C 116.949 1.1435 -1.77447 0
M  V30 1228 O 116.297 1.96296 -1.16962 0
M  V30 1229 C 116.507 -0.831482 -3.3895 0
M  V30 1230 C 117.855 -0.845882 -4.16089 0
M  V30 1231 O 118.879 -0.775806 -3.47649 0
M  V30 1232 O 117.738 -0.943753 -5.38289 0
M  V30 1233 H 114.832 -0.107667 -0.819961 0
M  V30 1234 H 117.378 -0.93646 -1.41522 0
M  V30 1235 H 116.15 -1.87448 -3.4348 0
M  V30 1236 H 115.773 -0.24461 -3.96847 0
M  V30 1237 N 116.77 1.45427 -0.607355 0
M  V30 1238 C 117.717 2.3053 0.111625 0
M  V30 1239 C 118.687 1.4209 0.860216 0
M  V30 1240 O 119.872 1.71019 0.845998 0
M  V30 1241 C 117.012 3.26992 1.10319 0
M  V30 1242 C 116.125 4.30535 0.355493 0
M  V30 1243 C 115.26 5.14105 1.33676 0
M  V30 1244 C 114.299 6.09376 0.576862 0
M  V30 1245 N 113.436 6.85727 1.5074 0
M  V30 1246 H 118.276 2.91477 -0.620093 0
M  V30 1247 H 115.813 1.43631 -0.317594 0
M  V30 1248 H 117.771 3.81385 1.6912 0
M  V30 1249 H 116.401 2.67799 1.80232 0
M  V30 1250 H 115.453 3.78805 -0.348023 0
M  V30 1251 H 116.765 4.98235 -0.237423 0
M  V30 1252 H 115.919 5.72897 1.99684 0
M  V30 1253 H 114.658 4.46423 1.9636 0
M  V30 1254 H 113.663 5.49715 -0.0968519 0
M  V30 1255 H 114.888 6.79085 -0.0449341 0
M  V30 1256 H 112.834 6.20735 2.12189 0
M  V30 1257 H 112.751 7.49778 0.967913 0
M  V30 1258 H 114.019 7.4906 2.15706 0
M  V30 1259 N 118.248 0.346503 1.53744 0
M  V30 1260 C 119.659 -0.136779 1.86198 0
M  V30 1261 C 120.01 -1.49749 1.26766 0
M  V30 1262 O 119.135 -2.08417 0.582355 0
M  V30 1263 C 119.73 -0.254966 3.37839 0
M  V30 1264 C 118.289 -0.682482 3.70161 0
M  V30 1265 C 117.436 0.181981 2.76702 0
M  V30 1266 H 120.387 0.565994 1.48264 0
M  V30 1267 H 120.408 -1.08195 3.64793 0
M  V30 1268 H 119.92 0.735526 3.81066 0
M  V30 1269 H 118.021 -1.68189 3.3248 0
M  V30 1270 H 118.134 -0.470326 4.76786 0
M  V30 1271 H 116.498 -0.34615 2.52337 0
M  V30 1272 H 117.281 1.16966 3.2276 0
M  V30 1273 N 119.726 -1.57421 0.075193 0
M  V30 1274 C 120.656 -2.15942 -0.888324 0
M  V30 1275 C 121.637 -1.08737 -1.30806 0
M  V30 1276 O 122.822 -1.36787 -1.37851 0
M  V30 1277 C 119.952 -2.72379 -2.1547 0
M  V30 1278 C 118.906 -3.8478 -1.87425 0
M  V30 1279 C 118.232 -4.27834 -3.20721 0
M  V30 1280 C 119.532 -5.08869 -1.17684 0
M  V30 1281 H 121.226 -2.96705 -0.400799 0
M  V30 1282 H 118.772 -1.42723 -0.191342 0
M  V30 1283 H 120.725 -3.11965 -2.83295 0
M  V30 1284 H 119.449 -1.88841 -2.6647 0
M  V30 1285 H 118.108 -3.45703 -1.22004 0
M  V30 1286 H 117.756 -3.41214 -3.6957 0
M  V30 1287 H 117.456 -5.03605 -3.02746 0
M  V30 1288 H 118.98 -4.70039 -3.89738 0
M  V30 1289 H 120.394 -5.4575 -1.75584 0
M  V30 1290 H 118.791 -5.8994 -1.09956 0
M  V30 1291 H 119.861 -4.84648 -0.156453 0
M  V30 1292 N 121.204 0.198386 -1.56346 0
M  V30 1293 C 122.615 0.763358 -1.70381 0
M  V30 1294 C 122.966 1.83995 -0.681203 0
M  V30 1295 O 122.091 2.15785 0.16305 0
M  V30 1296 C 122.686 1.39143 -3.08909 0
M  V30 1297 C 121.245 1.90352 -3.2472 0
M  V30 1298 C 120.392 0.772233 -2.6633 0
M  V30 1299 H 123.343 -0.0266377 -1.58678 0
M  V30 1300 H 123.364 2.26076 -3.06055 0
M  V30 1301 H 122.876 0.607638 -3.83314 0
M  V30 1302 H 120.977 2.71461 -2.55225 0
M  V30 1303 H 121.09 2.06757 -4.3219 0
M  V30 1304 H 119.454 1.18566 -2.2542 0
M  V30 1305 H 120.237 0.00073556 -3.433 0
M  V30 1306 N 122.682 1.50554 0.465978 0
M  V30 1307 C 124.093 1.54599 1.04671 0
M  V30 1308 C 124.444 0.352488 1.93008 0
M  V30 1309 O 123.569 -0.534044 2.09707 0
M  V30 1310 C 124.164 2.80166 1.90505 0
M  V30 1311 C 122.723 2.86876 2.43678 0
M  V30 1312 C 121.87 2.48947 1.22151 0
M  V30 1313 H 124.821 1.56744 0.248384 0
M  V30 1314 H 124.842 2.62311 2.75633 0
M  V30 1315 H 124.354 3.67013 1.26186 0
M  V30 1316 H 122.455 2.04393 3.11536 0
M  V30 1317 H 122.568 3.89885 2.78436 0
M  V30 1318 H 120.932 2.01498 1.5579 0
M  V30 1319 H 121.715 3.38107 0.594866 0
M  V30 1320 N 124.16 -0.719506 1.40217 0
M  V30 1321 C 125.571 -1.29848 1.34151 0
M  V30 1322 C 125.922 -1.96196 0.0131349 0
M  V30 1323 O 125.047 -1.973 -0.88892 0
M  V30 1324 C 125.642 -2.36118 2.42968 0
M  V30 1325 C 124.201 -2.8965 2.40374 0
M  V30 1326 C 123.348 -1.63393 2.24049 0
M  V30 1327 H 126.299 -0.51591 1.5008 0
M  V30 1328 H 126.32 -3.16871 2.10649 0
M  V30 1329 H 125.832 -1.878 3.39636 0
M  V30 1330 H 123.933 -3.42208 1.47392 0
M  V30 1331 H 124.046 -3.4171 3.35814 0
M  V30 1332 H 122.41 -1.88312 1.71495 0
M  V30 1333 H 123.193 -1.17104 3.2271 0
M  V30 1334 N 125.638 -1.25649 -0.95132 0
M  V30 1335 C 127.049 -1.09654 -1.51106 0
M  V30 1336 C 127.4 0.326615 -1.93462 0
M  V30 1337 O 126.525 1.21697 -1.78938 0
M  V30 1338 C 127.12 -1.98437 -2.74605 0
M  V30 1339 C 125.679 -1.86618 -3.2688 0
M  V30 1340 C 124.826 -1.9239 -1.99703 0
M  V30 1341 H 127.777 -1.38887 -0.767865 0
M  V30 1342 H 127.798 -1.5263 -3.48546 0
M  V30 1343 H 127.31 -3.02009 -2.43746 0
M  V30 1344 H 125.411 -0.859421 -3.62553 0
M  V30 1345 H 125.524 -2.71607 -3.94673 0
M  V30 1346 H 123.888 -1.36317 -2.15151 0
M  V30 1347 H 124.671 -2.97573 -1.71188 0
M  V30 1348 N 127.117 1.15442 -1.07289 0
M  V30 1349 C 128.528 1.67803 -0.818475 0
M  V30 1350 C 128.879 1.8489 0.656507 0
M  V30 1351 O 128.004 1.55176 1.50829 0
M  V30 1352 C 128.599 3.04805 -1.47917 0
M  V30 1353 C 127.158 3.54245 -1.27229 0
M  V30 1354 C 126.305 2.29986 -1.54925 0
M  V30 1355 H 129.256 0.996646 -1.23502 0
M  V30 1356 H 129.277 3.69702 -0.90005 0
M  V30 1357 H 128.789 2.92336 -2.55267 0
M  V30 1358 H 126.89 3.71956 -0.21899 0
M  V30 1359 H 127.003 4.35723 -1.99203 0
M  V30 1360 H 125.367 2.35496 -0.970242 0
M  V30 1361 H 126.15 2.20105 -2.63455 0
M  V30 1362 N 128.595 0.856903 1.32268 0
M  V30 1363 C 129.843 0.460474 1.96784 0
M  V30 1364 C 130.164 -0.987701 1.68135 0
M  V30 1365 O 129.434 -1.69058 0.989765 0
M  V30 1366 H 128.014 0.167289 0.728027 0
M  V30 1367 H 130.676 1.09383 1.61312 0
M  V30 1368 H 129.772 0.60739 3.06133 0
M  V30 1369 N 130.073 -1.45103 0.615059 0
M  V30 1370 C 131.298 -2.07064 0.117988 0
M  V30 1371 C 131.723 -1.4554 -1.19163 0
M  V30 1372 O 131.081 -0.550855 -1.72729 0
M  V30 1373 C 131.129 -3.606 -0.000288387 0
M  V30 1374 O 130.233 -3.98847 -1.04856 0
M  V30 1375 H 129.574 -0.659467 0.0774581 0
M  V30 1376 H 132.104 -1.86236 0.847186 0
M  V30 1377 H 132.114 -4.07529 -0.196091 0
M  V30 1378 H 130.789 -4.04765 0.955932 0
M  V30 1379 H 129.366 -3.63577 -0.828619 0
M  V30 1380 N 131.551 -0.354651 -1.53558 0
M  V30 1381 C 132.481 0.489091 -2.2832 0
M  V30 1382 C 133.462 1.09324 -1.30316 0
M  V30 1383 O 134.647 1.11255 -1.59173 0
M  V30 1384 C 131.777 1.63456 -3.0643 0
M  V30 1385 C 130.731 1.1582 -4.12031 0
M  V30 1386 C 130.057 2.39305 -4.7816 0
M  V30 1387 C 131.357 0.250731 -5.21698 0
M  V30 1388 H 133.051 -0.134614 -2.99097 0
M  V30 1389 H 130.597 -0.0661826 -1.43848 0
M  V30 1390 H 132.55 2.23136 -3.57475 0
M  V30 1391 H 131.274 2.28533 -2.33325 0
M  V30 1392 H 129.933 0.584146 -3.61916 0
M  V30 1393 H 129.581 3.02814 -4.01637 0
M  V30 1394 H 129.281 2.08109 -5.49513 0
M  V30 1395 H 130.805 2.99691 -5.31994 0
M  V30 1396 H 132.219 0.754695 -5.68311 0
M  V30 1397 H 130.616 0.0301468 -6.00092 0
M  V30 1398 H 131.686 -0.710125 -4.79672 0
M  V30 1399 N 133.029 1.57378 -0.0835403 0
M  V30 1400 C 134.254 1.98682 0.594987 0
M  V30 1401 C 134.679 0.961969 1.61641 0
M  V30 1402 O 134.037 -0.0709989 1.81161 0
M  V30 1403 C 134.085 3.38988 1.2296 0
M  V30 1404 O 133.189 3.39208 2.34546 0
M  V30 1405 H 132.53 0.646368 0.152002 0
M  V30 1406 H 135.06 2.03961 -0.161533 0
M  V30 1407 H 135.07 3.76431 1.57366 0
M  V30 1408 H 133.745 4.13107 0.481228 0
M  V30 1409 H 132.322 3.13548 2.01846 0
M  V30 1410 N 134.507 -0.190092 1.56449 0
M  V30 1411 C 135.923 -0.54113 1.50146 0
M  V30 1412 C 136.123 -1.85603 0.784465 0
M  V30 1413 O 135.179 -2.5024 0.337051 0
M  V30 1414 C 136.492 -0.591241 2.9483 0
M  V30 1415 C 138.04 -0.679732 3.0553 0
M  V30 1416 C 138.515 -0.760908 4.51635 0
M  V30 1417 N 140.006 -0.824302 4.55806 0
M  V30 1418 C 140.741 -0.907365 5.66175 0
M  V30 1419 N 140.237 -0.952422 6.86222 0
M  V30 1420 N 142.03 -0.94494 5.541 0
M  V30 1421 H 134.181 0.67235 2.01478 0
M  V30 1422 H 136.444 0.240127 0.917084 0
M  V30 1423 H 136.15 0.305905 3.50367 0
M  V30 1424 H 136.024 -1.44422 3.48457 0
M  V30 1425 H 138.411 -1.56731 2.50039 0
M  V30 1426 H 138.492 0.199549 2.5502 0
M  V30 1427 H 138.136 0.122336 5.07753 0
M  V30 1428 H 138.066 -1.65606 4.99882 0
M  V30 1429 H 140.557 -0.798526 3.69367 0
M  V30 1430 H 140.87 -1.01645 7.66086 0
M  V30 1431 H 139.215 -0.921014 6.8887 0
M  V30 1432 H 142.406 -0.906612 4.59236 0
M  V30 1433 H 142.579 -1.00622 6.4014 0
M  V30 1434 N 135.985 -1.50799 -0.457987 0
M  V30 1435 C 137.213 -1.66218 -1.23203 0
M  V30 1436 C 137.628 -0.350894 -1.85511 0
M  V30 1437 O 136.985 0.668546 -1.69814 0
M  V30 1438 C 137.036 -2.76291 -2.33121 0
M  V30 1439 O 136.757 -4.02338 -1.73366 0
M  V30 1440 C 138.258 -3.028 -3.2377 0
M  V30 1441 H 135.478 -0.558361 -0.372121 0
M  V30 1442 H 138.022 -1.97099 -0.545179 0
M  V30 1443 H 136.177 -2.48068 -2.97558 0
M  V30 1444 H 136.591 -4.63312 -2.4585 0
M  V30 1445 H 138.065 -3.8345 -3.97077 0
M  V30 1446 H 138.542 -2.14385 -3.83322 0
M  V30 1447 H 139.148 -3.32604 -2.65056 0
M  V30 1448 N 137.463 0.71206 -1.40597 0
M  V30 1449 C 138.395 1.83704 -1.37061 0
M  V30 1450 C 139.408 1.60453 -0.275426 0
M  V30 1451 O 140.597 1.70262 -0.53602 0
M  V30 1452 C 137.697 3.20172 -1.11099 0
M  V30 1453 C 136.87 3.7059 -2.3234 0
M  V30 1454 C 135.929 4.85681 -2.02485 0
M  V30 1455 O 134.955 4.9815 -2.75382 0
M  V30 1456 N 136.157 5.71735 -1.00497 0
M  V30 1457 H 138.922 1.87235 -2.34016 0
M  V30 1458 H 136.483 0.893739 -1.34996 0
M  V30 1459 H 138.475 3.94768 -0.891064 0
M  V30 1460 H 137.045 3.11767 -0.227989 0
M  V30 1461 H 136.265 2.87085 -2.7014 0
M  V30 1462 H 137.553 4.01011 -3.13157 0
M  V30 1463 H 136.951 5.64275 -0.401298 0
M  V30 1464 H 135.508 6.463 -0.844942 0
M  V30 1465 N 138.941 1.26152 0.944643 0
M  V30 1466 C 139.851 1.09176 2.07648 0
M  V30 1467 C 140.867 0.0261935 1.7398 0
M  V30 1468 O 142.043 0.229208 2.00091 0
M  V30 1469 C 139.108 0.722915 3.39079 0
M  V30 1470 C 138.169 1.86752 3.86552 0
M  V30 1471 C 137.402 1.51617 5.11711 0
M  V30 1472 O 137.625 0.416331 5.68879 0
M  V30 1473 O 136.559 2.34975 5.54139 0
M  V30 1474 H 140.385 2.0412 2.24875 0
M  V30 1475 H 137.97 1.05182 1.061 0
M  V30 1476 H 139.852 0.529787 4.18056 0
M  V30 1477 H 138.527 -0.197159 3.23099 0
M  V30 1478 H 137.434 2.11558 3.08535 0
M  V30 1479 H 138.767 2.76719 4.07047 0
M  V30 1480 N 140.419 -1.14872 1.07899 0
M  V30 1481 C 141.83 -1.67367 0.827363 0
M  V30 1482 C 142.181 -1.85236 -0.646693 0
M  V30 1483 O 141.306 -1.55974 -1.50004 0
M  V30 1484 C 141.901 -3.04016 1.49532 0
M  V30 1485 C 140.46 -3.53566 1.29106 0
M  V30 1486 C 139.607 -2.29161 1.56143 0
M  V30 1487 H 142.558 -0.990083 1.24028 0
M  V30 1488 H 142.579 -3.69219 0.919643 0
M  V30 1489 H 142.091 -2.90978 2.56814 0
M  V30 1490 H 140.192 -3.71835 0.238713 0
M  V30 1491 H 140.305 -4.34661 2.01511 0
M  V30 1492 H 138.669 -2.34978 0.982717 0
M  V30 1493 H 139.452 -2.18705 2.64619 0
M  V30 1494 N 141.898 -0.863906 -1.31812 0
M  V30 1495 C 143.123 -0.48527 -2.01643 0
M  V30 1496 C 143.548 0.913058 -1.64453 0
M  V30 1497 O 142.906 1.6014 -0.849985 0
M  V30 1498 C 142.954 -0.642625 -3.54828 0
M  V30 1499 O 142.058 0.320659 -4.11151 0
M  V30 1500 H 141.399 -0.193793 -0.635091 0
M  V30 1501 H 143.929 -1.16565 -1.68148 0
M  V30 1502 H 143.939 -0.533628 -4.04495 0
M  V30 1503 H 142.614 -1.66227 -3.81237 0
M  V30 1504 H 141.191 0.167126 -3.72525 0
M  V30 1505 N 143.376 1.44774 -0.622745 0
M  V30 1506 C 144.306 2.33382 0.0741861 0
M  V30 1507 C 145.287 1.47719 0.843387 0
M  V30 1508 O 146.472 1.76458 0.810934 0
M  V30 1509 C 143.602 3.30663 1.06204 0
M  V30 1510 C 142.556 4.26079 0.405037 0
M  V30 1511 C 141.882 5.13165 1.5022 0
M  V30 1512 C 143.182 5.1781 -0.683414 0
M  V30 1513 H 144.876 2.91905 -0.665713 0
M  V30 1514 H 142.422 1.40363 -0.321587 0
M  V30 1515 H 144.375 3.9153 1.55827 0
M  V30 1516 H 143.099 2.70331 1.83272 0
M  V30 1517 H 141.758 3.66532 -0.0704683 0
M  V30 1518 H 141.406 4.49191 2.26355 0
M  V30 1519 H 141.106 5.77812 1.06803 0
M  V30 1520 H 142.63 5.76902 2.00041 0
M  V30 1521 H 144.044 5.72661 -0.270631 0
M  V30 1522 H 142.441 5.91015 -1.04023 0
M  V30 1523 H 143.511 4.59326 -1.55395 0
M  V30 1524 N 144.854 0.36279 1.53368 0
M  V30 1525 C 146.102 -0.227326 2.00817 0
M  V30 1526 C 146.423 -1.49511 1.25186 0
M  V30 1527 O 145.693 -1.92482 0.364348 0
M  V30 1528 H 144.273 -0.0869923 0.741917 0
M  V30 1529 H 146.935 0.488381 1.88682 0
M  V30 1530 H 146.031 -0.456273 3.08747 0
M  V30 1531 N 146.332 -1.57332 0.0918853 0
M  V30 1532 C 147.279 -2.13847 -0.868211 0
M  V30 1533 C 148.249 -1.05618 -1.28196 0
M  V30 1534 O 149.434 -1.33387 -1.36427 0
M  V30 1535 C 146.574 -2.72062 -2.12312 0
M  V30 1536 C 145.687 -3.94514 -1.7602 0
M  V30 1537 C 144.822 -4.40903 -2.96273 0
M  V30 1538 C 143.861 -5.55953 -2.56092 0
M  V30 1539 N 142.998 -5.97209 -3.69169 0
M  V30 1540 H 147.838 -2.95575 -0.379406 0
M  V30 1541 H 145.375 -1.46048 -0.175606 0
M  V30 1542 H 147.333 -3.03931 -2.858 0
M  V30 1543 H 145.963 -1.93068 -2.58698 0
M  V30 1544 H 145.015 -3.68979 -0.925135 0
M  V30 1545 H 146.327 -4.7802 -1.42472 0
M  V30 1546 H 145.481 -4.74539 -3.78018 0
M  V30 1547 H 144.22 -3.56291 -3.33029 0
M  V30 1548 H 143.225 -5.21948 -1.72773 0
M  V30 1549 H 144.45 -6.42311 -2.20484 0
M  V30 1550 H 142.396 -5.15543 -4.05649 0
M  V30 1551 H 142.313 -6.75504 -3.39456 0
M  V30 1552 H 143.581 -6.35475 -4.51434 0
M  V30 1553 N 147.81 0.181792 -1.56548 0
M  V30 1554 C 148.742 1.24956 -1.92142 0
M  V30 1555 C 149.755 1.41022 -0.813422 0
M  V30 1556 O 150.944 1.41212 -1.09186 0
M  V30 1557 C 148.044 2.61981 -2.14987 0
M  V30 1558 C 147.217 2.6735 -3.46183 0
M  V30 1559 C 146.276 3.85664 -3.5798 0
M  V30 1560 O 145.302 3.72148 -4.30691 0
M  V30 1561 N 146.504 5.01683 -2.92053 0
M  V30 1562 H 149.269 0.947329 -2.84334 0
M  V30 1563 H 146.83 0.371629 -1.57577 0
M  V30 1564 H 148.822 3.3958 -2.20154 0
M  V30 1565 H 147.392 2.84637 -1.2923 0
M  V30 1566 H 146.612 1.75925 -3.52766 0
M  V30 1567 H 147.9 2.67939 -4.32534 0
M  V30 1568 H 147.298 5.15564 -2.32832 0
M  V30 1569 H 145.855 5.77181 -3.0283 0
M  V30 1570 N 149.288 1.51039 0.449983 0
M  V30 1571 C 150.235 1.71439 1.54523 0
M  V30 1572 C 151.205 0.555871 1.56522 0
M  V30 1573 O 152.39 0.788871 1.73728 0
M  V30 1574 C 149.53 1.83384 2.92343 0
M  V30 1575 C 148.643 3.10873 2.9997 0
M  V30 1576 C 147.778 3.13488 4.28834 0
M  V30 1577 C 146.817 4.35343 4.30282 0
M  V30 1578 N 145.954 4.35579 5.5065 0
M  V30 1579 H 150.794 2.64934 1.36433 0
M  V30 1580 H 148.331 1.31312 0.662982 0
M  V30 1581 H 150.289 1.88291 3.72293 0
M  V30 1582 H 148.919 0.933086 3.0902 0
M  V30 1583 H 147.971 3.15336 2.12761 0
M  V30 1584 H 149.283 4.00814 2.96901 0
M  V30 1585 H 148.437 3.17241 5.17149 0
M  V30 1586 H 147.176 2.21414 4.34543 0
M  V30 1587 H 146.181 4.3178 3.40362 0
M  V30 1588 H 147.406 5.28668 4.26248 0
M  V30 1589 H 145.352 3.46369 5.57104 0
M  V30 1590 H 145.269 5.19313 5.49409 0
M  V30 1591 H 146.537 4.43507 6.41032 0
M  V30 1592 N 150.766 -0.704594 1.40972 0
M  V30 1593 C 152.012 -1.46675 1.40051 0
M  V30 1594 C 152.345 -1.94199 0.00641102 0
M  V30 1595 O 151.62 -1.68916 -0.964235 0
M  V30 1596 C 151.903 -2.68505 2.39952 0
M  V30 1597 C 151.756 -2.26805 3.88432 0
M  V30 1598 C 153.075 -3.70686 2.37233 0
M  V30 1599 H 150.194 -0.532015 0.510028 0
M  V30 1600 H 152.836 -0.803255 1.72185 0
M  V30 1601 H 150.986 -3.25114 2.1268 0
M  V30 1602 H 152.658 -1.75592 4.26574 0
M  V30 1603 H 150.901 -1.58685 4.03734 0
M  V30 1604 H 151.572 -3.14181 4.53866 0
M  V30 1605 H 154.048 -3.23731 2.61415 0
M  V30 1606 H 152.924 -4.53553 3.09162 0
M  V30 1607 H 153.185 -4.19754 1.38777 0
M  V30 1608 N 152.244 -1.26651 -0.937939 0
M  V30 1609 C 153.491 -1.12387 -1.6845 0
M  V30 1610 C 153.819 0.332208 -1.91642 0
M  V30 1611 O 153.074 1.2602 -1.49725 0
M  V30 1612 C 153.373 -1.84168 -3.06295 0
M  V30 1613 C 153.039 -3.34056 -3.02849 0
M  V30 1614 C 151.701 -3.74942 -3.01616 0
M  V30 1615 C 154.053 -4.29741 -2.9491 0
M  V30 1616 C 151.381 -5.09894 -2.90215 0
M  V30 1617 C 153.733 -5.64738 -2.8505 0
M  V30 1618 C 152.397 -6.0493 -2.82162 0
M  V30 1619 H 151.667 -0.411252 -0.616403 0
M  V30 1620 H 154.314 -1.57134 -1.09459 0
M  V30 1621 H 152.619 -1.319 -3.6893 0
M  V30 1622 H 154.316 -1.70569 -3.62915 0
M  V30 1623 H 150.906 -3.01534 -3.0459 0
M  V30 1624 H 155.09 -3.99133 -2.94969 0
M  V30 1625 H 150.346 -5.40194 -2.86358 0
M  V30 1626 H 154.52 -6.38561 -2.77872 0
M  V30 1627 H 152.147 -7.09457 -2.73084 0
M  V30 1628 N 153.722 1.14298 -1.08507 0
M  V30 1629 C 154.971 1.84708 -0.810305 0
M  V30 1630 C 155.284 1.83903 0.666271 0
M  V30 1631 O 156.49 2.50112 1.05624 0
M  V30 1632 C 154.946 3.31572 -1.39957 0
M  V30 1633 C 154.554 3.40791 -2.90801 0
M  V30 1634 C 156.298 4.07087 -1.20334 0
M  V30 1635 C 154.205 4.81872 -3.4286 0
M  V30 1636 H 153.135 0.691985 -0.299454 0
M  V30 1637 H 155.786 1.28841 -1.30661 0
M  V30 1638 H 154.168 3.87183 -0.830976 0
M  V30 1639 H 155.342 2.95225 -3.53806 0
M  V30 1640 H 153.657 2.78732 -3.0935 0
M  V30 1641 H 156.254 5.11225 -1.56693 0
M  V30 1642 H 156.597 4.16054 -0.143237 0
M  V30 1643 H 157.13 3.57779 -1.73893 0
M  V30 1644 H 153.869 4.78094 -4.48449 0
M  V30 1645 H 153.389 5.27972 -2.84615 0
M  V30 1646 H 155.068 5.50765 -3.39509 0
M  V30 1647 N 155.201 0.870884 1.31352 0
M  V30 1648 C 156.45 0.478408 1.95944 0
M  V30 1649 C 156.763 -0.974493 1.69597 0
M  V30 1650 O 157.969 -1.47316 2.28058 0
M  V30 1651 C 156.425 0.804609 3.50791 0
M  V30 1652 C 156.033 2.27433 3.85977 0
M  V30 1653 C 157.777 0.480648 4.2177 0
M  V30 1654 C 155.684 2.5429 5.33939 0
M  V30 1655 H 154.614 0.175175 0.733369 0
M  V30 1656 H 157.265 1.06391 1.4951 0
M  V30 1657 H 155.647 0.148347 3.95722 0
M  V30 1658 H 156.821 2.97373 3.52002 0
M  V30 1659 H 155.136 2.56442 3.28065 0
M  V30 1660 H 157.733 0.658519 5.30629 0
M  V30 1661 H 158.076 -0.578979 4.12254 0
M  V30 1662 H 158.609 1.09349 3.82476 0
M  V30 1663 H 155.348 3.58939 5.48491 0
M  V30 1664 H 154.868 1.88945 5.69263 0
M  V30 1665 H 156.547 2.39066 6.01212 0
M  V30 1666 N 156.679 -1.44442 0.630414 0
M  V30 1667 C 158.095 -1.56832 0.295973 0
M  V30 1668 C 158.295 -1.61806 -1.20088 0
M  V30 1669 O 157.351 -1.5607 -1.9849 0
M  V30 1670 C 158.664 -2.84031 0.987264 0
M  V30 1671 C 160.212 -2.97742 0.96534 0
M  V30 1672 C 160.687 -4.27743 1.63708 0
M  V30 1673 N 162.178 -4.34555 1.60364 0
M  V30 1674 C 162.913 -5.33862 2.09234 0
M  V30 1675 N 162.409 -6.39578 2.66292 0
M  V30 1676 N 164.202 -5.25366 1.99867 0
M  V30 1677 H 156.353 -1.39457 1.60205 0
M  V30 1678 H 158.616 -0.668237 0.672431 0
M  V30 1679 H 158.322 -2.86338 2.04215 0
M  V30 1680 H 158.196 -3.73534 0.524588 0
M  V30 1681 H 160.583 -2.94989 -0.0810639 0
M  V30 1682 H 160.664 -2.09589 1.4665 0
M  V30 1683 H 160.308 -4.31255 2.68293 0
M  V30 1684 H 160.238 -5.14752 1.11076 0
M  V30 1685 H 162.729 -3.58772 1.18705 0
M  V30 1686 H 163.042 -7.11637 3.01317 0
M  V30 1687 H 161.387 -6.40265 2.70343 0
M  V30 1688 H 164.578 -4.41688 1.55013 0
M  V30 1689 H 164.751 -6.02606 2.38265 0
M  V30 1690 N 158.157 -0.370918 -1.53173 0
M  V30 1691 C 159.104 0.473035 -2.259 0
M  V30 1692 C 160.074 1.07311 -1.26781 0
M  V30 1693 O 161.259 1.1046 -1.55574 0
M  V30 1694 C 158.399 1.60405 -3.05556 0
M  V30 1695 C 157.512 1.02863 -4.19575 0
M  V30 1696 C 156.647 2.12918 -4.86661 0
M  V30 1697 C 155.686 1.52869 -5.92704 0
M  V30 1698 N 154.823 2.56779 -6.53459 0
M  V30 1699 H 159.663 -0.153649 -2.97604 0
M  V30 1700 H 157.2 -0.0875946 -1.46839 0
M  V30 1701 H 159.158 2.27034 -3.50016 0
M  V30 1702 H 157.788 2.20131 -2.36097 0
M  V30 1703 H 156.84 0.252465 -3.79561 0
M  V30 1704 H 158.152 0.549642 -4.95762 0
M  V30 1705 H 157.306 2.87356 -5.34333 0
M  V30 1706 H 156.045 2.6417 -4.09958 0
M  V30 1707 H 155.05 0.769479 -5.44389 0
M  V30 1708 H 156.275 1.02435 -6.7133 0
M  V30 1709 H 154.221 3.07235 -5.79606 0
M  V30 1710 H 154.138 2.13583 -7.25202 0
M  V30 1711 H 155.406 3.30903 -7.05779 0
M  V30 1712 N 159.635 1.57281 -0.100228 0
M  V30 1713 C 160.86 1.99302 0.573881 0
M  V30 1714 C 161.285 0.979059 1.60611 0
M  V30 1715 O 160.643 -0.0517803 1.81226 0
M  V30 1716 C 160.691 3.40274 1.19358 0
M  V30 1717 O 159.795 3.41676 2.30935 0
M  V30 1718 H 159.136 0.647944 0.145138 0
M  V30 1719 H 161.666 2.03779 -0.183156 0
M  V30 1720 H 161.676 3.78078 1.53365 0
M  V30 1721 H 160.351 4.13594 0.437385 0
M  V30 1722 H 158.928 3.15672 1.98509 0
M  V30 1723 N 161.113 -0.173488 1.56642 0
M  V30 1724 C 162.043 -1.2171 1.99271 0
M  V30 1725 C 163.024 -1.46289 0.867959 0
M  V30 1726 O 164.209 -1.5766 1.13388 0
M  V30 1727 C 161.339 -2.55651 2.35074 0
M  V30 1728 C 160.293 -2.45645 3.50489 0
M  V30 1729 C 159.619 -3.84056 3.72028 0
M  V30 1730 C 160.919 -1.96302 4.84007 0
M  V30 1731 H 162.613 -0.86275 2.867 0
M  V30 1732 H 160.159 -0.413571 1.37933 0
M  V30 1733 H 162.112 -3.2886 2.63494 0
M  V30 1734 H 160.836 -2.92869 1.44552 0
M  V30 1735 H 159.495 -1.7489 3.22194 0
M  V30 1736 H 159.143 -4.18664 2.788 0
M  V30 1737 H 158.843 -3.7823 4.49684 0
M  V30 1738 H 160.367 -4.58854 4.02846 0
M  V30 1739 H 161.781 -2.59284 5.11317 0
M  V30 1740 H 160.178 -2.01429 5.65284 0
M  V30 1741 H 161.248 -0.917226 4.76146 0
M  V30 1742 N 162.591 -1.51276 -0.441967 0
M  V30 1743 C 163.521 -1.752 -1.54361 0
M  V30 1744 C 164.502 -0.601682 -1.59103 0
M  V30 1745 O 165.687 -0.843913 -1.74905 0
M  V30 1746 C 162.817 -1.87282 -2.92477 0
M  V30 1747 C 161.771 -3.02687 -3.02596 0
M  V30 1748 C 161.097 -2.99947 -4.42647 0
M  V30 1749 C 162.397 -4.4273 -2.77106 0
M  V30 1750 H 164.091 -2.67442 -1.34592 0
M  V30 1751 H 161.637 -1.28694 -0.646048 0
M  V30 1752 H 163.59 -2.02602 -3.695 0
M  V30 1753 H 162.314 -0.916844 -3.13467 0
M  V30 1754 H 160.973 -2.87065 -2.28012 0
M  V30 1755 H 160.621 -2.02136 -4.60597 0
M  V30 1756 H 160.321 -3.77439 -4.50348 0
M  V30 1757 H 161.845 -3.17354 -5.2165 0
M  V30 1758 H 163.259 -4.58727 -3.43864 0
M  V30 1759 H 161.656 -5.21893 -2.96222 0
M  V30 1760 H 162.726 -4.53087 -1.72744 0
M  V30 1761 N 164.069 0.697108 -1.41344 0
M  V30 1762 C 165.346 1.45154 -1.31109 0
M  V30 1763 C 165.726 2.11009 0.0620449 0
M  V30 1764 O 165.074 2.01571 1.07618 0
M  V30 1765 C 165.284 2.47223 -2.46337 0
M  V30 1766 C 166.632 3.1252 -2.87431 0
M  V30 1767 O 167.656 2.57547 -2.46065 0
M  V30 1768 O 166.515 4.12083 -3.58957 0
M  V30 1769 H 163.609 0.646365 -0.515889 0
M  V30 1770 H 166.155 0.727716 -1.53305 0
M  V30 1771 H 164.927 1.97204 -3.37974 0
M  V30 1772 H 164.55 3.27116 -2.2601 0
M  V30 1773 N 165.547 1.27147 0.931209 0
M  V30 1774 C 166.457 1.11372 2.06478 0
M  V30 1775 C 167.473 0.044645 1.73943 0
M  V30 1776 O 168.649 0.250417 1.99837 0
M  V30 1777 C 165.714 0.758838 3.38294 0
M  V30 1778 C 164.775 1.90841 3.84549 0
M  V30 1779 C 164.008 1.57036 5.10074 0
M  V30 1780 O 164.231 0.476645 5.68405 0
M  V30 1781 O 163.165 2.40839 5.51616 0
M  V30 1782 H 166.991 2.06493 2.22698 0
M  V30 1783 H 164.576 1.06301 1.04978 0
M  V30 1784 H 166.458 0.574098 4.17471 0
M  V30 1785 H 165.133 -0.162879 3.2329 0
M  V30 1786 H 164.04 2.14819 3.06274 0
M  V30 1787 H 165.373 2.81021 4.04089 0
M  V30 1788 N 167.025 -1.13721 1.09112 0
M  V30 1789 C 167.955 -2.21148 0.749385 0
M  V30 1790 C 168.936 -1.6792 -0.271475 0
M  V30 1791 O 170.121 -1.93693 -0.140251 0
M  V30 1792 C 167.251 -3.46905 0.165659 0
M  V30 1793 C 166.205 -4.13203 1.11567 0
M  V30 1794 C 165.531 -5.33248 0.393809 0
M  V30 1795 C 166.831 -4.60912 2.45678 0
M  V30 1796 H 168.525 -2.4999 1.64758 0
M  V30 1797 H 166.071 -1.20156 0.793626 0
M  V30 1798 H 168.024 -4.21313 -0.085466 0
M  V30 1799 H 166.748 -3.17449 -0.767714 0
M  V30 1800 H 165.407 -3.40758 1.35202 0
M  V30 1801 H 165.055 -5.00054 -0.543599 0
M  V30 1802 H 164.755 -5.78552 1.02721 0
M  V30 1803 H 166.279 -6.10413 0.150908 0
M  V30 1804 H 167.693 -5.26759 2.26269 0
M  V30 1805 H 166.09 -5.16944 3.04776 0
M  V30 1806 H 167.16 -3.75603 3.06677 0
M  V30 1807 N 168.503 -0.877838 -1.30888 0
M  V30 1808 C 169.436 -0.283995 -2.26426 0
M  V30 1809 C 170.414 0.591361 -1.51465 0
M  V30 1810 O 171.598 0.54304 -1.80509 0
M  V30 1811 C 168.725 0.597129 -3.33395 0
M  V30 1812 C 167.771 -0.207937 -4.25993 0
M  V30 1813 S 168.604 -1.59158 -5.11301 0
M  V30 1814 C 169.76 -0.716791 -6.21782 0
M  V30 1815 H 169.993 -1.09383 -2.76446 0
M  V30 1816 H 167.526 -0.676828 -1.38775 0
M  V30 1817 H 169.484 1.09978 -3.95493 0
M  V30 1818 H 168.145 1.38099 -2.82113 0
M  V30 1819 H 167.338 0.464163 -5.01858 0
M  V30 1820 H 166.94 -0.642963 -3.68432 0
M  V30 1821 H 169.232 0.0692833 -6.77465 0
M  V30 1822 H 170.175 -1.44682 -6.93161 0
M  V30 1823 H 170.583 -0.280855 -5.63801 0
M  V30 1824 N 169.982 1.44106 -0.638065 0
M  V30 1825 C 170.892 2.34513 0.0637334 0
M  V30 1826 C 171.908 1.53018 0.828346 0
M  V30 1827 O 173.084 1.85723 0.779036 0
M  V30 1828 C 170.149 3.31095 1.02844 0
M  V30 1829 C 169.21 4.28497 0.26244 0
M  V30 1830 C 168.443 5.20465 1.1812 0
M  V30 1831 O 168.666 5.16514 2.42011 0
M  V30 1832 O 167.6 5.98251 0.661774 0
M  V30 1833 H 171.426 2.95989 -0.68003 0
M  V30 1834 H 169.011 1.43994 -0.398252 0
M  V30 1835 H 170.893 3.90526 1.58327 0
M  V30 1836 H 169.568 2.72144 1.7527 0
M  V30 1837 H 168.475 3.72592 -0.335602 0
M  V30 1838 H 169.808 4.90388 -0.421936 0
M  V30 1839 N 171.46 0.379036 1.52974 0
M  V30 1840 C 172.706 -0.206727 2.01744 0
M  V30 1841 C 173.039 -1.47314 1.26539 0
M  V30 1842 O 172.314 -1.91084 0.362903 0
M  V30 1843 C 172.597 -0.485066 3.56818 0
M  V30 1844 C 172.45 0.795919 4.42702 0
M  V30 1845 C 173.769 -1.28003 4.21074 0
M  V30 1846 H 170.888 -0.0736607 0.73331 0
M  V30 1847 H 173.53 0.506581 1.83122 0
M  V30 1848 H 171.68 -1.09272 3.72816 0
M  V30 1849 H 173.352 1.43307 4.38476 0
M  V30 1850 H 171.595 1.41344 4.10127 0
M  V30 1851 H 172.266 0.555947 5.49193 0
M  V30 1852 H 174.742 -0.765867 4.08991 0
M  V30 1853 H 173.618 -1.44352 5.29579 0
M  V30 1854 H 173.879 -2.29236 3.78026 0
M  V30 1855 N 172.938 -1.57226 0.108567 0
M  V30 1856 C 173.87 -2.11809 -0.875752 0
M  V30 1857 C 174.883 -1.05839 -1.23701 0
M  V30 1858 O 176.072 -1.33245 -1.18778 0
M  V30 1859 C 173.172 -2.59411 -2.18081 0
M  V30 1860 C 172.345 -3.89364 -1.99284 0
M  V30 1861 C 171.404 -4.22672 -3.13424 0
M  V30 1862 O 170.43 -4.91668 -2.86795 0
M  V30 1863 N 171.632 -3.79154 -4.3957 0
M  V30 1864 H 174.397 -2.9689 -0.409477 0
M  V30 1865 H 171.958 -1.61721 -0.076158 0
M  V30 1866 H 173.95 -2.7873 -2.93414 0
M  V30 1867 H 172.52 -1.79268 -2.5609 0
M  V30 1868 H 171.74 -3.79059 -1.08203 0
M  V30 1869 H 173.028 -4.74358 -1.84017 0
M  V30 1870 H 172.426 -3.23486 -4.64083 0
M  V30 1871 H 170.983 -4.03602 -5.11809 0
M  V30 1872 N 174.416 0.165178 -1.56732 0
M  V30 1873 C 175.366 1.20917 -1.93295 0
M  V30 1874 C 176.35 1.39488 -0.801985 0
M  V30 1875 O 177.542 1.41356 -1.06525 0
M  V30 1876 C 174.671 2.54718 -2.3016 0
M  V30 1877 C 173.757 2.39815 -3.49785 0
M  V30 1878 N 174.148 1.94637 -4.66851 0
M  V30 1879 C 172.446 2.70623 -3.54513 0
M  V30 1880 C 173.147 1.92344 -5.4898 0
M  V30 1881 N 172.123 2.34978 -4.9019 0
M  V30 1882 H 175.925 0.851675 -2.81289 0
M  V30 1883 H 173.439 0.373399 -1.58049 0
M  V30 1884 H 175.436 3.30165 -2.54552 0
M  V30 1885 H 174.096 2.91265 -1.43508 0
M  V30 1886 H 175.107 1.6488 -4.90953 0
M  V30 1887 H 171.784 3.11167 -2.78354 0
M  V30 1888 H 173.174 1.5906 -6.52801 0
M  V30 1889 N 175.894 1.51508 0.433938 0
M  V30 1890 C 177.141 1.64345 1.18309 0
M  V30 1891 C 177.469 0.361315 1.91115 0
M  V30 1892 O 176.724 -0.654753 1.84422 0
M  V30 1893 C 177.023 2.79928 2.22205 0
M  V30 1894 C 176.689 4.19078 1.66387 0
M  V30 1895 C 175.351 4.56932 1.50887 0
M  V30 1896 C 177.703 5.05894 1.25381 0
M  V30 1897 C 175.031 5.79305 0.928608 0
M  V30 1898 C 177.383 6.2885 0.687823 0
M  V30 1899 C 176.047 6.65473 0.519755 0
M  V30 1900 H 175.317 0.601381 0.432923 0
M  V30 1901 H 177.964 1.85549 0.473676 0
M  V30 1902 H 176.269 2.52959 2.99197 0
M  V30 1903 H 177.966 2.87059 2.79997 0
M  V30 1904 H 174.556 3.89234 1.79428 0
M  V30 1905 H 178.74 4.77253 1.36175 0
M  V30 1906 H 173.996 6.06324 0.786186 0
M  V30 1907 H 178.17 6.95461 0.361581 0
M  V30 1908 H 175.797 7.6017 0.0679979 0
M  V30 1909 N 177.372 -0.689602 1.41712 0
M  V30 1910 C 178.788 -1.00093 1.24312 0
M  V30 1911 C 178.988 -2.01036 0.136729 0
M  V30 1912 O 178.044 -2.47562 -0.496918 0
M  V30 1913 C 179.357 -1.51985 2.59463 0
M  V30 1914 C 180.905 -1.63838 2.66695 0
M  V30 1915 C 181.38 -2.1913 4.02177 0
M  V30 1916 N 182.871 -2.26483 4.04054 0
M  V30 1917 C 183.606 -2.70306 5.0569 0
M  V30 1918 N 183.102 -3.13691 6.17713 0
M  V30 1919 N 184.895 -2.69923 4.9305 0
M  V30 1920 H 177.046 -0.0210029 2.1239 0
M  V30 1921 H 179.309 -0.0718733 0.945272 0
M  V30 1922 H 179.015 -0.85269 3.41207 0
M  V30 1923 H 178.889 -2.50103 2.82362 0
M  V30 1924 H 181.276 -2.29664 1.85306 0
M  V30 1925 H 181.357 -0.642492 2.476 0
M  V30 1926 H 181.001 -1.53918 4.84016 0
M  V30 1927 H 180.931 -3.19482 4.18615 0
M  V30 1928 H 183.422 -1.95874 3.23174 0
M  V30 1929 H 183.735 -3.45773 6.9113 0
M  V30 1930 H 182.08 -3.11585 6.21241 0
M  V30 1931 H 185.271 -2.35382 4.04614 0
M  V30 1932 H 185.444 -3.03758 5.72394 0
M  V30 1933 N 178.85 -1.27639 -0.924453 0
M  V30 1934 C 180.078 -1.16989 -1.70649 0
M  V30 1935 C 180.493 0.272869 -1.86818 0
M  V30 1936 O 179.85 1.18549 -1.38753 0
M  V30 1937 C 179.901 -1.85229 -3.10439 0
M  V30 1938 O 179.622 -3.23868 -2.95028 0
M  V30 1939 C 181.123 -1.80746 -4.04779 0
M  V30 1940 H 178.343 -0.406595 -0.53378 0
M  V30 1941 H 180.887 -1.68569 -1.15778 0
M  V30 1942 H 179.042 -1.37545 -3.6216 0
M  V30 1943 H 179.456 -3.57889 -3.83426 0
M  V30 1944 H 180.93 -2.33101 -5.00368 0
M  V30 1945 H 181.407 -0.777499 -4.32263 0
M  V30 1946 H 182.013 -2.28059 -3.58984 0
M  V30 1947 N 180.328 1.1314 -1.09713 0
M  V30 1948 C 181.577 1.83838 -0.829851 0
M  V30 1949 C 181.89 1.84599 0.646728 0
M  V30 1950 O 183.096 2.51218 1.02965 0
M  V30 1951 C 181.552 3.30069 -1.43466 0
M  V30 1952 C 181.16 3.37688 -2.94399 0
M  V30 1953 C 182.904 4.05788 -1.24645 0
M  V30 1954 C 180.811 4.78209 -3.47952 0
M  V30 1955 H 179.741 0.68877 -0.306777 0
M  V30 1956 H 182.392 1.27448 -1.3202 0
M  V30 1957 H 180.774 3.8628 -0.871996 0
M  V30 1958 H 181.948 2.91456 -3.56918 0
M  V30 1959 H 180.263 2.75436 -3.12289 0
M  V30 1960 H 182.86 5.09535 -1.62107 0
M  V30 1961 H 183.203 4.15878 -0.187357 0
M  V30 1962 H 183.736 3.55915 -1.77678 0
M  V30 1963 H 180.475 4.73311 -4.53495 0
M  V30 1964 H 179.995 5.24924 -2.90198 0
M  V30 1965 H 181.674 5.47133 -3.45332 0
M  V30 1966 N 181.806 0.884767 1.30421 0
M  V30 1967 C 183.036 0.517293 2.00019 0
M  V30 1968 C 183.444 -0.898632 1.66497 0
M  V30 1969 O 182.787 -1.60245 0.898181 0
M  V30 1970 C 182.849 0.612025 3.54252 0
M  V30 1971 C 182.513 1.99222 4.1129 0
M  V30 1972 C 183.51 2.9616 4.273 0
M  V30 1973 C 181.195 2.29755 4.46674 0
M  V30 1974 C 183.189 4.21764 4.77906 0
M  V30 1975 C 180.876 3.55606 4.96979 0
M  V30 1976 C 181.874 4.51425 5.12547 0
M  V30 1977 O 181.562 5.75043 5.61766 0
M  V30 1978 H 181.294 0.198529 0.64619 0
M  V30 1979 H 183.848 1.1919 1.67281 0
M  V30 1980 H 182.078 -0.119561 3.86515 0
M  V30 1981 H 183.767 0.255859 4.05093 0
M  V30 1982 H 184.533 2.73882 4.00267 0
M  V30 1983 H 180.412 1.55942 4.33824 0
M  V30 1984 H 183.956 4.96561 4.89972 0
M  V30 1985 H 179.853 3.7772 5.23448 0
M  V30 1986 H 180.621 5.77422 5.80109 0
M  V30 1987 N 183.284 -1.43765 0.645699 0
M  V30 1988 C 184.234 -2.27884 -0.0726442 0
M  V30 1989 C 185.218 -1.39483 -0.802086 0
M  V30 1990 O 186.41 -1.63174 -0.685791 0
M  V30 1991 C 183.539 -3.27055 -1.04356 0
M  V30 1992 C 182.625 -4.22944 -0.312985 0
M  V30 1993 N 183.016 -5.01391 0.666386 0
M  V30 1994 C 181.314 -4.42528 -0.55546 0
M  V30 1995 C 182.015 -5.71217 1.09935 0
M  V30 1996 N 180.991 -5.41856 0.435137 0
M  V30 1997 H 184.793 -2.85949 0.678988 0
M  V30 1998 H 182.307 -1.55378 0.472368 0
M  V30 1999 H 184.304 -3.86089 -1.57292 0
M  V30 2000 H 182.964 -2.70551 -1.79534 0
M  V30 2001 H 183.975 -5.07252 1.04481 0
M  V30 2002 H 180.652 -3.97104 -1.28899 0
M  V30 2003 H 182.042 -6.44202 1.90929 0
M  V30 2004 N 184.763 -0.387143 -1.52771 0
M  V30 2005 C 185.696 0.493123 -2.22808 0
M  V30 2006 C 186.674 1.0658 -1.22798 0
M  V30 2007 O 187.858 1.11785 -1.51777 0
M  V30 2008 C 184.985 1.68238 -2.93962 0
M  V30 2009 C 184.031 1.23515 -4.08223 0
M  V30 2010 S 184.864 0.21848 -5.35054 0
M  V30 2011 C 186.02 1.41357 -6.09729 0
M  V30 2012 H 186.253 -0.101625 -2.97126 0
M  V30 2013 H 183.786 -0.171323 -1.53447 0
M  V30 2014 H 185.744 2.36443 -3.35567 0
M  V30 2015 H 184.405 2.24842 -2.19328 0
M  V30 2016 H 183.598 2.12304 -4.57103 0
M  V30 2017 H 183.2 0.632044 -3.68621 0
M  V30 2018 H 185.492 2.34101 -6.3577 0
M  V30 2019 H 186.435 0.965736 -7.01484 0
M  V30 2020 H 186.843 1.6294 -5.40473 0
M  V30 2021 N 186.241 1.57166 -0.116904 0
M  V30 2022 C 187.488 1.95123 0.541603 0
M  V30 2023 C 187.816 1.00006 1.6682 0
M  V30 2024 O 187.071 0.0235658 1.95686 0
M  V30 2025 C 187.37 3.39508 1.11664 0
M  V30 2026 C 187.036 4.50762 0.111606 0
M  V30 2027 C 185.698 4.80918 -0.164758 0
M  V30 2028 C 188.05 5.18036 -0.573438 0
M  V30 2029 C 185.378 5.75666 -1.13249 0
M  V30 2030 C 187.73 6.13824 -1.52978 0
M  V30 2031 C 186.394 6.42374 -1.81415 0
M  V30 2032 H 185.664 0.714005 0.198187 0
M  V30 2033 H 188.311 1.9048 -0.197365 0
M  V30 2034 H 186.616 3.40835 1.93232 0
M  V30 2035 H 188.313 3.66189 1.63422 0
M  V30 2036 H 184.903 4.27272 0.337192 0
M  V30 2037 H 189.087 4.94896 -0.373092 0
M  V30 2038 H 184.343 5.96092 -1.35958 0
M  V30 2039 H 188.517 6.65039 -2.06629 0
M  V30 2040 H 186.144 7.15599 -2.56557 0
M  V30 2041 N 187.719 -0.156864 1.56817 0
M  V30 2042 C 188.968 -0.869504 1.81996 0
M  V30 2043 C 189.281 -1.82777 0.696545 0
M  V30 2044 O 190.487 -2.58384 0.833658 0
M  V30 2045 C 188.943 -1.59679 3.22538 0
M  V30 2046 C 188.551 -0.681431 4.42787 0
M  V30 2047 C 190.295 -2.2968 3.56997 0
M  V30 2048 C 188.202 -1.40978 5.74351 0
M  V30 2049 H 187.132 -0.328438 0.678708 0
M  V30 2050 H 189.783 -0.1223 1.83092 0
M  V30 2051 H 188.165 -2.38927 3.158 0
M  V30 2052 H 189.339 0.0751166 4.60739 0
M  V30 2053 H 187.654 -0.0903431 4.16302 0
M  V30 2054 H 190.251 -2.84794 4.52544 0
M  V30 2055 H 190.594 -3.05707 2.82576 0
M  V30 2056 H 191.127 -1.57361 3.65352 0
M  V30 2057 H 187.866 -0.691561 6.51842 0
M  V30 2058 H 187.386 -2.13929 5.60352 0
M  V30 2059 H 189.065 -1.95337 6.16808 0
M  V30 2060 N 189.197 -1.51736 -0.425897 0
M  V30 2061 C 190.16 -1.73271 -1.50032 0
M  V30 2062 C 191.16 -0.602639 -1.4908 0
M  V30 2063 O 192.35 -0.87033 -1.509 0
M  V30 2064 C 189.482 -1.79969 -2.89523 0
M  V30 2065 H 190.675 -2.69172 -1.32237 0
M  V30 2066 H 188.228 -1.41899 -0.65532 0
M  V30 2067 H 188.963 -0.859241 -3.1271 0
M  V30 2068 H 188.748 -2.62109 -2.91619 0
M  V30 2069 H 190.238 -1.9843 -3.67444 0
M  V30 2070 N 190.675 0.682077 -1.42076 0
M  V30 2071 C 191.923 1.4393 -1.41876 0
M  V30 2072 C 192.244 1.94971 -0.0335599 0
M  V30 2073 O 191.514 1.72591 0.926773 0
M  V30 2074 H 190.094 0.534085 -0.522267 0
M  V30 2075 H 192.756 0.806427 -1.77434 0
M  V30 2076 H 191.852 2.29588 -2.11414 0
M  V30 2077 N 192.153 1.28127 0.917671 0
M  V30 2078 C 193.083 1.14248 2.03641 0
M  V30 2079 C 194.064 0.0412748 1.7005 0
M  V30 2080 O 195.249 0.217566 1.92977 0
M  V30 2081 C 192.379 0.799431 3.37974 0
M  V30 2082 C 191.333 1.85497 3.85713 0
M  V30 2083 C 190.659 1.36565 5.16966 0
M  V30 2084 C 191.959 3.26085 4.08002 0
M  V30 2085 H 193.653 2.07835 2.15511 0
M  V30 2086 H 191.199 1.00064 1.03553 0
M  V30 2087 H 193.152 0.689114 4.15727 0
M  V30 2088 H 191.876 -0.172145 3.26146 0
M  V30 2089 H 190.535 1.95437 3.10161 0
M  V30 2090 H 190.183 0.383253 5.01538 0
M  V30 2091 H 189.883 2.07143 5.49878 0
M  V30 2092 H 191.407 1.26848 5.97279 0
M  V30 2093 H 192.821 3.19089 4.76293 0
M  V30 2094 H 191.218 3.94462 4.52238 0
M  V30 2095 H 192.288 3.70394 3.12948 0
M  V30 2096 N 193.631 -1.12557 1.10312 0
M  V30 2097 C 194.871 -1.8568 0.854543 0
M  V30 2098 C 195.235 -1.82091 -0.608843 0
M  V30 2099 O 196.436 -2.50544 -0.973717 0
M  V30 2100 C 194.707 -3.2942 1.38626 0
M  V30 2101 S 196.266 -4.19931 1.27293 0
M  V30 2102 H 193.084 -0.640427 0.308827 0
M  V30 2103 H 195.686 -1.35599 1.40831 0
M  V30 2104 H 194.39 -3.2959 2.44537 0
M  V30 2105 H 193.921 -3.84566 0.82902 0
M  V30 2106 H 195.936 -4.95668 0.229776 0
M  V30 2107 N 195.109 -0.891671 -1.2995 0
M  V30 2108 C 196.355 -0.514261 -1.96171 0
M  V30 2109 C 196.688 0.935506 -1.70182 0
M  V30 2110 O 195.963 1.66204 -1.01028 0
M  V30 2111 C 196.246 -0.797719 -3.51153 0
M  V30 2112 C 196.099 -2.2986 -3.86632 0
M  V30 2113 C 197.418 -0.278749 -4.39216 0
M  V30 2114 H 194.537 -0.188314 -0.712535 0
M  V30 2115 H 197.179 -1.11689 -1.53706 0
M  V30 2116 H 195.329 -0.284826 -3.87455 0
M  V30 2117 H 197.001 -2.88042 -3.60319 0
M  V30 2118 H 195.244 -2.76257 -3.34462 0
M  V30 2119 H 195.915 -2.44753 -4.94773 0
M  V30 2120 H 198.391 -0.717825 -4.09862 0
M  V30 2121 H 197.267 -0.506353 -5.46559 0
M  V30 2122 H 197.528 0.820266 -4.34424 0
M  V30 2123 N 196.587 1.43421 -0.653314 0
M  V30 2124 C 197.834 2.01812 -0.166745 0
M  V30 2125 C 198.162 1.51535 1.21931 0
M  V30 2126 O 197.417 0.698975 1.82792 0
M  V30 2127 C 197.716 3.57176 -0.126623 0
M  V30 2128 C 197.382 4.26798 -1.45444 0
M  V30 2129 C 196.044 4.45534 -1.81805 0
M  V30 2130 C 198.396 4.66225 -2.32989 0
M  V30 2131 C 195.724 5.00961 -3.05377 0
M  V30 2132 C 198.076 5.23021 -3.55853 0
M  V30 2133 C 196.74 5.39973 -3.9241 0
M  V30 2134 H 196.01 0.738484 -0.0610162 0
M  V30 2135 H 198.657 1.71896 -0.84404 0
M  V30 2136 H 196.962 3.86634 0.634123 0
M  V30 2137 H 198.659 4.00112 0.266723 0
M  V30 2138 H 195.249 4.12561 -1.16153 0
M  V30 2139 H 199.433 4.51443 -2.06187 0
M  V30 2140 H 194.689 5.12271 -3.3375 0
M  V30 2141 H 198.863 5.52518 -4.23907 0
M  V30 2142 H 196.49 5.82687 -4.88242 0
M  V30 2143 N 198.065 0.39524 1.52563 0
M  V30 2144 C 199.314 -0.186321 2.00838 0
M  V30 2145 C 199.627 -1.47402 1.28577 0
M  V30 2146 O 200.833 -2.13599 1.67593 0
M  V30 2147 C 199.289 -0.382595 3.57861 0
M  V30 2148 C 198.897 0.892202 4.39026 0
M  V30 2149 C 200.641 -0.9202 4.14406 0
M  V30 2150 C 198.548 0.66388 5.87662 0
M  V30 2151 H 197.478 -0.0734041 0.750418 0
M  V30 2152 H 200.129 0.518552 1.76021 0
M  V30 2153 H 198.511 -1.14946 3.7895 0
M  V30 2154 H 199.685 1.66414 4.29701 0
M  V30 2155 H 198 1.35519 3.9373 0
M  V30 2156 H 200.597 -1.10683 5.23119 0
M  V30 2157 H 200.94 -1.89096 3.70875 0
M  V30 2158 H 201.473 -0.212751 3.97231 0
M  V30 2159 H 198.212 1.6058 6.35527 0
M  V30 2160 H 197.732 -0.0690193 5.9976 0
M  V30 2161 H 199.411 0.300699 6.46301 0
M  V30 2162 N 199.544 -1.57102 0.125237 0
M  V30 2163 C 200.793 -1.94582 -0.531095 0
M  V30 2164 C 201.106 -1.01126 -1.6743 0
M  V30 2165 O 202.312 -1.28097 -2.39381 0
M  V30 2166 C 200.768 -3.45839 -0.996164 0
M  V30 2167 C 200.376 -4.47842 0.118926 0
M  V30 2168 C 202.12 -3.92227 -1.62352 0
M  V30 2169 C 200.027 -5.90284 -0.363192 0
M  V30 2170 H 198.957 -0.726391 -0.20217 0
M  V30 2171 H 201.608 -1.82339 0.206092 0
M  V30 2172 H 199.99 -3.53338 -1.78796 0
M  V30 2173 H 201.164 -4.52018 0.895358 0
M  V30 2174 H 199.479 -4.11243 0.653324 0
M  V30 2175 H 202.076 -4.96069 -1.99548 0
M  V30 2176 H 202.419 -3.32552 -2.50429 0
M  V30 2177 H 202.952 -3.87554 -0.897019 0
M  V30 2178 H 199.691 -6.53728 0.481679 0
M  V30 2179 H 199.211 -5.89515 -1.10597 0
M  V30 2180 H 200.89 -6.41752 -0.822377 0
M  V30 2181 N 201.022 0.148545 -1.56898 0
M  V30 2182 C 202.247 0.880385 -1.87787 0
M  V30 2183 C 202.672 1.74018 -0.714093 0
M  V30 2184 O 202.03 1.78153 0.336343 0
M  V30 2185 C 202.078 1.71422 -3.17249 0
M  V30 2186 O 201.182 2.8183 -3.01074 0
M  V30 2187 H 200.523 0.245301 -0.617028 0
M  V30 2188 H 203.053 0.139826 -2.04122 0
M  V30 2189 H 203.063 2.10954 -3.49231 0
M  V30 2190 H 201.738 1.08284 -4.01556 0
M  V30 2191 H 200.315 2.45715 -2.80497 0
M  V30 2192 N 202.5 1.5196 0.417844 0
M  V30 2193 C 203.728 1.69426 1.18753 0
M  V30 2194 C 204.143 0.399955 1.84515 0
M  V30 2195 O 203.5 -0.623288 1.71527 0
M  V30 2196 C 203.551 2.82375 2.25714 0
M  V30 2197 O 203.272 4.06793 1.62638 0
M  V30 2198 C 204.773 3.11277 3.15628 0
M  V30 2199 H 201.993 0.568031 0.357186 0
M  V30 2200 H 204.537 1.98475 0.49273 0
M  V30 2201 H 202.692 2.5587 2.90877 0
M  V30 2202 H 203.106 4.69667 2.3348 0
M  V30 2203 H 204.58 3.93843 3.86771 0
M  V30 2204 H 205.057 2.24473 3.77503 0
M  V30 2205 H 205.663 3.39515 2.56144 0
M  V30 2206 N 203.978 -0.674533 1.42435 0
M  V30 2207 C 204.908 -1.80009 1.48724 0
M  V30 2208 C 205.889 -1.6659 0.343793 0
M  V30 2209 O 207.074 -1.86007 0.558137 0
M  V30 2210 C 204.204 -3.18306 1.38919 0
M  V30 2211 C 203.158 -3.46461 2.51294 0
M  V30 2212 C 202.484 -4.84335 2.26547 0
M  V30 2213 C 203.784 -3.43328 3.93603 0
M  V30 2214 H 205.478 -1.75004 2.42928 0
M  V30 2215 H 203.024 -0.840533 1.16923 0
M  V30 2216 H 204.977 -3.9678 1.41927 0
M  V30 2217 H 203.701 -3.2399 0.412094 0
M  V30 2218 H 202.36 -2.70348 2.47604 0
M  V30 2219 H 202.008 -4.86669 1.2713 0
M  V30 2220 H 201.708 -5.04136 3.01861 0
M  V30 2221 H 203.232 -5.65094 2.31304 0
M  V30 2222 H 204.646 -4.11772 3.98894 0
M  V30 2223 H 203.043 -3.74664 4.68771 0
M  V30 2224 H 204.113 -2.41897 4.20255 0
M  V30 2225 N 205.456 -1.28612 -0.910864 0
M  V30 2226 C 206.419 -1.12803 -1.9952 0
M  V30 2227 C 207.419 -0.0668264 -1.60661 0
M  V30 2228 O 208.609 -0.312847 -1.71368 0
M  V30 2229 C 205.741 -0.72254 -3.33155 0
M  V30 2230 H 206.934 -2.09109 -2.14973 0
M  V30 2231 H 204.487 -1.11639 -1.09391 0
M  V30 2232 H 205.222 0.241152 -3.23402 0
M  V30 2233 H 205.007 -1.48916 -3.62721 0
M  V30 2234 H 206.497 -0.634666 -4.12749 0
M  V30 2235 N 206.934 1.1197 -1.10907 0
M  V30 2236 C 208.183 1.82947 -0.849302 0
M  V30 2237 C 208.496 1.85275 0.627112 0
M  V30 2238 O 209.702 2.52296 1.00295 0
M  V30 2239 C 208.158 3.28529 -1.46959 0
M  V30 2240 C 207.766 3.34546 -2.97965 0
M  V30 2241 C 209.51 4.04443 -1.28942 0
M  V30 2242 C 207.417 4.74491 -3.53004 0
M  V30 2243 H 206.347 0.685477 -0.314065 0
M  V30 2244 H 208.998 1.2604 -1.33365 0
M  V30 2245 H 207.38 3.85333 -0.912917 0
M  V30 2246 H 208.554 2.87654 -3.59989 0
M  V30 2247 H 206.869 2.72108 -3.15192 0
M  V30 2248 H 209.466 5.07787 -1.67502 0
M  V30 2249 H 209.809 4.15656 -0.231456 0
M  V30 2250 H 210.342 3.5401 -1.81443 0
M  V30 2251 H 207.081 4.68474 -4.58489 0
M  V30 2252 H 206.601 5.21816 -2.9575 0
M  V30 2253 H 208.28 5.4344 -3.51115 0
M  V30 2254 N 208.412 0.89855 1.29475 0
M  V30 2255 C 209.689 0.443416 1.90508 0
M  V30 2256 C 210.069 -1.07685 1.81569 0
M  V30 2257 O 209.417 -1.9182 1.24166 0
M  V30 2258 C 209.627 0.956708 3.35631 0
M  V30 2259 C 210.975 0.999728 4.12663 0
M  V30 2260 O 211.999 0.904299 3.4453 0
M  V30 2261 O 210.858 1.14289 5.34416 0
M  V30 2262 H 207.952 0.138025 0.815401 0
M  V30 2263 H 210.498 0.98834 1.37949 0
M  V30 2264 H 209.27 2.00067 3.36287 0
M  V30 2265 H 208.893 0.391728 3.95666 0
M  V30 2266 N 209.89 -1.43072 0.660911 0
M  V30 2267 C 211.137 -2.01721 0.177445 0
M  V30 2268 C 211.465 -1.5218 -1.21126 0
M  V30 2269 O 210.72 -0.708659 -1.82419 0
M  V30 2270 C 211.019 -3.57103 0.145563 0
M  V30 2271 C 210.685 -4.26021 1.47705 0
M  V30 2272 C 209.347 -4.44563 1.84165 0
M  V30 2273 C 211.699 -4.64983 2.35458 0
M  V30 2274 C 209.027 -4.99334 3.0803 0
M  V30 2275 C 211.379 -5.21127 3.58622 0
M  V30 2276 C 210.043 -5.37884 3.95268 0
M  V30 2277 H 209.313 -0.73815 0.0649317 0
M  V30 2278 H 211.96 -1.71446 0.853144 0
M  V30 2279 H 210.265 -3.86965 -0.61361 0
M  V30 2280 H 211.962 -4.00248 -0.2455 0
M  V30 2281 H 208.552 -4.11939 1.18339 0
M  V30 2282 H 212.736 -4.50343 2.08579 0
M  V30 2283 H 207.992 -5.10493 3.36462 0
M  V30 2284 H 212.166 -5.50262 4.26831 0
M  V30 2285 H 209.793 -5.80089 4.91325 0
M  V30 2286 N 211.368 -0.403325 -1.52352 0
M  V30 2287 C 212.617 0.175668 -2.00934 0
M  V30 2288 C 212.93 1.46718 -1.29356 0
M  V30 2289 O 214.136 2.12708 -1.68724 0
M  V30 2290 C 212.592 0.363612 -3.58058 0
M  V30 2291 C 212.2 -0.915472 -4.38547 0
M  V30 2292 C 213.944 0.89821 -4.14888 0
M  V30 2293 C 211.851 -0.695035 -5.87302 0
M  V30 2294 H 210.781 0.0694234 -0.750797 0
M  V30 2295 H 213.432 -0.527879 -1.75743 0
M  V30 2296 H 211.814 1.12935 -3.79555 0
M  V30 2297 H 212.988 -1.68691 -4.28812 0
M  V30 2298 H 211.303 -1.37606 -3.93006 0
M  V30 2299 H 213.9 1.07907 -5.23699 0
M  V30 2300 H 214.243 1.87126 -3.71873 0
M  V30 2301 H 214.776 0.191681 -3.97338 0
M  V30 2302 H 211.515 -1.63948 -6.34666 0
M  V30 2303 H 211.035 0.0372116 -5.99788 0
M  V30 2304 H 212.714 -0.33497 -6.46132 0
M  V30 2305 N 212.846 1.57033 -0.133567 0
M  V30 2306 C 214.123 1.87256 0.56522 0
M  V30 2307 C 214.503 1.03726 1.83859 0
M  V30 2308 O 213.851 0.120247 2.28183 0
M  V30 2309 C 214.061 3.3865 0.843636 0
M  V30 2310 C 215.409 4.07574 1.19032 0
M  V30 2311 O 216.433 3.43752 0.933429 0
M  V30 2312 O 215.292 5.20259 1.67312 0
M  V30 2313 H 212.386 0.775678 0.286796 0
M  V30 2314 H 214.932 1.68855 -0.169168 0
M  V30 2315 H 213.704 3.91257 -0.0581149 0
M  V30 2316 H 213.327 3.62532 1.63268 0
M  V30 2317 N 214.325 -0.140222 1.56975 0
M  V30 2318 C 215.235 -1.19223 2.02047 0
M  V30 2319 C 216.251 -1.46612 0.937062 0
M  V30 2320 O 217.427 -1.58148 1.24704 0
M  V30 2321 C 214.492 -2.50414 2.39778 0
M  V30 2322 C 213.553 -2.30612 3.621 0
M  V30 2323 C 212.786 -3.55547 3.98023 0
M  V30 2324 O 213.009 -4.62004 3.34528 0
M  V30 2325 O 211.943 -3.47808 4.91237 0
M  V30 2326 H 215.769 -0.839559 2.91865 0
M  V30 2327 H 213.354 -0.349453 1.45256 0
M  V30 2328 H 215.236 -3.27747 2.64877 0
M  V30 2329 H 213.911 -2.85198 1.53114 0
M  V30 2330 H 212.818 -1.51207 3.4218 0
M  V30 2331 H 214.151 -2.00741 4.49404 0
M  V30 2332 N 215.803 -1.52179 -0.40978 0
M  V30 2333 C 217.051 -1.65878 -1.15451 0
M  V30 2334 C 217.372 -0.390771 -1.91044 0
M  V30 2335 O 216.642 0.594323 -1.86667 0
M  V30 2336 H 215.222 -0.611405 -0.429177 0
M  V30 2337 H 217.884 -1.89219 -0.467134 0
M  V30 2338 H 216.98 -2.49954 -1.86894 0
M  V30 2339 N 217.281 0.66697 -1.42791 0
M  V30 2340 C 218.697 0.981027 -1.25889 0
M  V30 2341 C 218.897 2.00793 -0.168695 0
M  V30 2342 O 217.953 2.48321 0.45747 0
M  V30 2343 C 219.266 1.47838 -2.61848 0
M  V30 2344 C 220.814 1.59575 -2.69267 0
M  V30 2345 C 221.289 2.12704 -4.05612 0
M  V30 2346 N 222.78 2.20026 -4.07606 0
M  V30 2347 C 223.515 2.62227 -5.09926 0
M  V30 2348 N 223.011 3.03824 -6.22626 0
M  V30 2349 N 224.804 2.62045 -4.97281 0
M  V30 2350 H 216.955 -0.0127891 -2.12396 0
M  V30 2351 H 219.218 0.0568258 -0.946295 0
M  V30 2352 H 218.924 0.798299 -3.4252 0
M  V30 2353 H 218.798 2.45579 -2.86305 0
M  V30 2354 H 221.185 2.26687 -1.88936 0
M  V30 2355 H 221.266 0.60302 -2.48591 0
M  V30 2356 H 220.91 1.46198 -4.86404 0
M  V30 2357 H 220.84 3.12782 -4.23645 0
M  V30 2358 H 223.331 1.90708 -3.2625 0
M  V30 2359 H 223.644 3.34734 -6.96544 0
M  V30 2360 H 221.989 3.01662 -6.26119 0
M  V30 2361 H 225.18 2.28916 -4.08308 0
M  V30 2362 H 225.353 2.94613 -5.77154 0
M  V30 2363 N 218.759 1.29093 0.90403 0
M  V30 2364 C 219.689 1.16401 2.02418 0
M  V30 2365 C 220.67 0.0593085 1.69997 0
M  V30 2366 O 221.855 0.238021 1.92736 0
M  V30 2367 C 218.985 0.835233 3.37107 0
M  V30 2368 C 217.939 1.89578 3.83724 0
M  V30 2369 C 217.265 1.42041 5.15489 0
M  V30 2370 C 218.565 3.30394 4.04521 0
M  V30 2371 H 220.259 2.10109 2.13295 0
M  V30 2372 H 217.805 1.01157 1.02486 0
M  V30 2373 H 219.758 0.733169 4.14973 0
M  V30 2374 H 218.482 -0.137543 3.2631 0
M  V30 2375 H 217.141 1.98715 3.08071 0
M  V30 2376 H 216.789 0.436426 5.01103 0
M  V30 2377 H 216.489 2.12964 5.4765 0
M  V30 2378 H 218.013 1.33176 5.959 0
M  V30 2379 H 219.427 3.24123 4.72882 0
M  V30 2380 H 217.824 3.99237 4.48029 0
M  V30 2381 H 218.894 3.73692 3.09002 0
M  V30 2382 N 220.237 -1.11381 1.11499 0
M  V30 2383 C 221.167 -2.19509 0.796125 0
M  V30 2384 C 222.148 -1.68458 -0.235796 0
M  V30 2385 O 223.333 -1.93947 -0.0991344 0
M  V30 2386 C 220.463 -3.46475 0.239205 0
M  V30 2387 C 219.417 -4.10744 1.20307 0
M  V30 2388 C 218.743 -5.32293 0.50683 0
M  V30 2389 C 220.043 -4.55597 2.55399 0
M  V30 2390 H 221.737 -2.46439 1.70024 0
M  V30 2391 H 219.283 -1.18446 0.818935 0
M  V30 2392 H 221.236 -4.214 0.00392006 0
M  V30 2393 H 219.96 -3.19006 -0.700206 0
M  V30 2394 H 218.619 -3.37813 1.42399 0
M  V30 2395 H 218.267 -5.01095 -0.437408 0
M  V30 2396 H 217.967 -5.76243 1.1497 0
M  V30 2397 H 219.491 -6.09956 0.280351 0
M  V30 2398 H 220.905 -5.21841 2.37391 0
M  V30 2399 H 219.302 -5.10363 3.15673 0
M  V30 2400 H 220.372 -3.69013 3.14575 0
M  V30 2401 N 221.715 -0.905404 -1.28997 0
M  V30 2402 C 222.645 -0.404212 -2.29975 0
M  V30 2403 C 223.626 0.523784 -1.61835 0
M  V30 2404 O 224.811 0.433298 -1.89304 0
M  V30 2405 C 221.941 0.364042 -3.45387 0
M  V30 2406 C 220.895 -0.474048 -4.25367 0
M  V30 2407 C 220.221 0.422045 -5.33032 0
M  V30 2408 C 221.521 -1.72696 -4.92923 0
M  V30 2409 H 223.215 -1.24807 -2.72146 0
M  V30 2410 H 220.761 -0.601585 -1.30832 0
M  V30 2411 H 222.714 0.725447 -4.15109 0
M  V30 2412 H 221.438 1.24174 -3.02074 0
M  V30 2413 H 220.097 -0.81786 -3.57361 0
M  V30 2414 H 219.745 1.29804 -4.85963 0
M  V30 2415 H 219.445 -0.135057 -5.87445 0
M  V30 2416 H 220.969 0.779517 -6.05604 0
M  V30 2417 H 222.383 -1.43495 -5.55051 0
M  V30 2418 H 220.78 -2.22582 -5.57295 0
M  V30 2419 H 221.85 -2.45964 -4.17887 0
M  V30 2420 N 223.193 1.4272 -0.668489 0
M  V30 2421 C 224.103 2.34596 0.0139753 0
M  V30 2422 C 225.119 1.5474 0.795703 0
M  V30 2423 O 226.295 1.87334 0.739466 0
M  V30 2424 C 223.36 3.33202 0.957982 0
M  V30 2425 C 222.421 4.28957 0.17149 0
M  V30 2426 C 221.654 5.22853 1.07053 0
M  V30 2427 O 221.877 5.21531 2.31001 0
M  V30 2428 O 220.811 5.9952 0.534727 0
M  V30 2429 H 224.637 2.9448 -0.742661 0
M  V30 2430 H 222.222 1.43117 -0.428705 0
M  V30 2431 H 224.104 3.93796 1.50008 0
M  V30 2432 H 222.779 2.758 1.69458 0
M  V30 2433 H 221.686 3.71796 -0.414558 0
M  V30 2434 H 223.019 4.89383 -0.52586 0
M  V30 2435 N 224.671 0.411399 1.52136 0
M  V30 2436 C 225.918 -0.163645 2.01838 0
M  V30 2437 C 226.246 -1.4495 1.29691 0
M  V30 2438 O 225.501 -1.91725 0.392431 0
M  V30 2439 C 225.8 -0.455872 3.54481 0
M  V30 2440 C 225.466 0.741055 4.44769 0
M  V30 2441 C 224.128 1.06936 4.69167 0
M  V30 2442 C 226.48 1.54075 4.97906 0
M  V30 2443 C 223.808 2.19851 5.43951 0
M  V30 2444 C 226.16 2.66067 5.73926 0
M  V30 2445 C 224.824 2.99381 5.96596 0
M  V30 2446 H 224.094 -0.0598821 0.738576 0
M  V30 2447 H 226.741 0.553283 1.83333 0
M  V30 2448 H 225.046 -1.2544 3.71177 0
M  V30 2449 H 226.743 -0.913802 3.90449 0
M  V30 2450 H 223.333 0.475192 4.25958 0
M  V30 2451 H 227.517 1.30033 4.78963 0
M  V30 2452 H 222.773 2.46006 5.59724 0
M  V30 2453 H 226.947 3.28419 6.14096 0
M  V30 2454 H 224.574 3.86992 6.54325 0
M  V30 2455 N 226.149 -1.5696 0.141893 0
M  V30 2456 C 227.426 -1.87553 -0.555281 0
M  V30 2457 C 227.806 -1.04699 -1.83306 0
M  V30 2458 O 227.154 -0.132346 -2.28116 0
M  V30 2459 C 227.364 -3.39093 -0.825664 0
M  V30 2460 C 228.712 -4.08199 -1.16869 0
M  V30 2461 O 229.736 -3.44242 -0.915185 0
M  V30 2462 O 228.595 -5.21139 -1.6455 0
M  V30 2463 H 225.689 -0.777188 -0.282679 0
M  V30 2464 H 228.235 -1.68763 0.17812 0
M  V30 2465 H 227.007 -3.91221 0.0788633 0
M  V30 2466 H 226.63 -3.63393 -1.61343 0
M  V30 2467 N 227.627 0.131896 -1.57047 0
M  V30 2468 C 228.557 1.16384 -2.02428 0
M  V30 2469 C 229.538 1.43936 -0.90644 0
M  V30 2470 O 230.723 1.54599 -1.17528 0
M  V30 2471 C 227.853 2.49328 -2.4177 0
M  V30 2472 C 226.807 2.36266 -3.56879 0
M  V30 2473 C 226.133 3.74057 -3.8208 0
M  V30 2474 C 227.433 1.834 -4.89042 0
M  V30 2475 H 229.127 0.786433 -2.88887 0
M  V30 2476 H 226.673 0.376855 -1.38981 0
M  V30 2477 H 228.626 3.21759 -2.7212 0
M  V30 2478 H 227.35 2.88934 -1.52266 0
M  V30 2479 H 226.009 1.66286 -3.26718 0
M  V30 2480 H 225.657 4.11125 -2.89803 0
M  V30 2481 H 225.357 3.66174 -4.59554 0
M  V30 2482 H 226.881 4.48012 -4.1487 0
M  V30 2483 H 228.295 2.45636 -5.18011 0
M  V30 2484 H 226.692 1.8637 -5.70426 0
M  V30 2485 H 227.762 0.790662 -4.7841 0
M  V30 2486 N 229.106 1.52395 0.401703 0
M  V30 2487 C 230.036 1.79231 1.49661 0
M  V30 2488 C 231.017 0.643654 1.57452 0
M  V30 2489 O 232.202 0.889989 1.72606 0
M  V30 2490 C 229.332 1.94971 2.87409 0
M  V30 2491 C 228.286 3.10604 2.94465 0
M  V30 2492 C 227.612 3.11577 4.34538 0
M  V30 2493 C 228.912 4.49921 2.6527 0
M  V30 2494 H 230.606 2.70917 1.27454 0
M  V30 2495 H 228.152 1.30362 0.6117 0
M  V30 2496 H 230.105 2.12328 3.63999 0
M  V30 2497 H 228.829 0.999632 3.10926 0
M  V30 2498 H 227.488 2.93009 2.20321 0
M  V30 2499 H 227.136 2.14277 4.55076 0
M  V30 2500 H 226.836 3.89247 4.40183 0
M  V30 2501 H 228.36 3.31073 5.13053 0
M  V30 2502 H 229.774 4.67683 3.31581 0
M  V30 2503 H 228.171 5.29564 2.82281 0
M  V30 2504 H 229.241 4.57507 1.60671 0
M  V30 2505 N 230.584 -0.659388 1.43143 0
M  V30 2506 C 231.833 -1.41518 1.43721 0
M  V30 2507 C 232.146 -1.95499 0.0628176 0
M  V30 2508 O 233.352 -2.71446 -0.0539683 0
M  V30 2509 C 231.808 -2.5608 2.52885 0
M  V30 2510 C 231.416 -2.08733 3.96402 0
M  V30 2511 C 233.16 -3.3349 2.62649 0
M  V30 2512 C 231.067 -3.20469 4.97045 0
M  V30 2513 H 229.997 -0.531705 0.534608 0
M  V30 2514 H 232.648 -0.712343 1.69109 0
M  V30 2515 H 231.03 -3.28805 2.20688 0
M  V30 2516 H 232.204 -1.43059 4.3803 0
M  V30 2517 H 230.519 -1.44219 3.90627 0
M  V30 2518 H 233.116 -4.16734 3.35017 0
M  V30 2519 H 233.459 -3.8111 1.67513 0
M  V30 2520 H 233.992 -2.67842 2.94118 0
M  V30 2521 H 230.731 -2.77824 5.93712 0
M  V30 2522 H 230.251 -3.84874 4.60034 0
M  V30 2523 H 231.93 -3.85698 5.19467 0
M  V30 2524 N 232.062 -1.29571 -0.897171 0
M  V30 2525 C 233.309 -1.17689 -1.6479 0
M  V30 2526 C 233.637 0.27107 -1.92602 0
M  V30 2527 O 232.892 1.21193 -1.53658 0
M  V30 2528 C 233.191 -1.9382 -3.00281 0
M  V30 2529 C 232.857 -3.43522 -2.92068 0
M  V30 2530 C 231.519 -3.84348 -2.89535 0
M  V30 2531 C 233.871 -4.38906 -2.81089 0
M  V30 2532 C 231.199 -5.18869 -2.73846 0
M  V30 2533 C 233.551 -5.73521 -2.66939 0
M  V30 2534 C 232.215 -6.13601 -2.62774 0
M  V30 2535 H 231.485 -0.430654 -0.603008 0
M  V30 2536 H 234.132 -1.60536 -1.04404 0
M  V30 2537 H 232.437 -1.4357 -3.64547 0
M  V30 2538 H 234.134 -1.82028 -3.57305 0
M  V30 2539 H 230.724 -3.11072 -2.94842 0
M  V30 2540 H 234.908 -4.08315 -2.82121 0
M  V30 2541 H 230.164 -5.4903 -2.69027 0
M  V30 2542 H 234.338 -6.47078 -2.57416 0
M  V30 2543 H 231.965 -7.17786 -2.50375 0
M  V30 2544 N 233.54 1.10788 -1.12088 0
M  V30 2545 C 234.765 1.87002 -0.896949 0
M  V30 2546 C 235.19 1.79933 0.548261 0
M  V30 2547 O 234.548 1.16662 1.38779 0
M  V30 2548 C 234.596 3.3349 -1.37174 0
M  V30 2549 O 233.7 4.08745 -0.547831 0
M  V30 2550 H 233.041 0.580397 -0.322545 0
M  V30 2551 H 235.571 1.39996 -1.49206 0
M  V30 2552 H 235.581 3.84339 -1.36922 0
M  V30 2553 H 234.256 3.37951 -2.42408 0
M  V30 2554 H 232.833 3.6776 -0.617034 0
M  V30 2555 N 235.018 0.912232 1.28515 0
M  V30 2556 C 236.265 0.544599 1.95039 0
M  V30 2557 C 236.593 -0.911435 1.71823 0
M  V30 2558 O 235.848 -1.66317 1.03137 0
M  V30 2559 C 236.147 0.798392 3.48368 0
M  V30 2560 C 235.813 2.23374 3.91682 0
M  V30 2561 C 234.475 2.62617 4.03219 0
M  V30 2562 C 236.827 3.16786 4.13879 0
M  V30 2563 C 234.155 3.94429 4.3433 0
M  V30 2564 C 236.507 4.48161 4.46469 0
M  V30 2565 C 235.171 4.8726 4.56217 0
M  V30 2566 H 234.441 0.199283 0.7137 0
M  V30 2567 H 237.088 1.15327 1.52879 0
M  V30 2568 H 235.393 0.106908 3.91654 0
M  V30 2569 H 237.09 0.493141 3.97956 0
M  V30 2570 H 233.68 1.91922 3.83228 0
M  V30 2571 H 237.864 2.87677 4.0442 0
M  V30 2572 H 233.12 4.24426 4.40082 0
M  V30 2573 H 237.294 5.20559 4.62592 0
M  V30 2574 H 234.921 5.89431 4.80078 0
M  V30 2575 N 236.496 -1.42363 0.676048 0
M  V30 2576 C 237.744 -2.01123 0.198437 0
M  V30 2577 C 238.065 -1.53731 -1.19966 0
M  V30 2578 O 237.335 -0.759518 -1.80577 0
M  V30 2579 H 235.915 -0.743678 0.0703721 0
M  V30 2580 H 238.577 -1.74263 0.872837 0
M  V30 2581 H 237.673 -3.11454 0.200686 0
M  V30 2582 N 237.974 -0.419461 -1.51915 0
M  V30 2583 C 238.906 0.43646 -2.25006 0
M  V30 2584 C 239.919 1.00149 -1.28351 0
M  V30 2585 O 241.108 0.898674 -1.54227 0
M  V30 2586 C 238.208 1.6206 -2.9764 0
M  V30 2587 C 237.381 1.17763 -4.21249 0
M  V30 2588 C 236.44 2.22985 -4.76617 0
M  V30 2589 O 235.466 1.83151 -5.38929 0
M  V30 2590 N 236.668 3.55271 -4.59089 0
M  V30 2591 H 239.433 -0.18989 -2.99098 0
M  V30 2592 H 236.994 -0.247386 -1.59999 0
M  V30 2593 H 238.986 2.32038 -3.31573 0
M  V30 2594 H 237.556 2.15266 -2.2667 0
M  V30 2595 H 236.776 0.305582 -3.93014 0
M  V30 2596 H 238.064 0.858781 -5.015 0
M  V30 2597 H 237.462 3.90377 -4.09417 0
M  V30 2598 H 236.019 4.21195 -4.97432 0
M  V30 2599 N 239.452 1.56882 -0.150215 0
M  V30 2600 C 240.382 2.19935 0.784284 0
M  V30 2601 C 241.363 1.14854 1.25469 0
M  V30 2602 O 242.548 1.43209 1.31168 0
M  V30 2603 C 239.678 2.82349 2.02229 0
M  V30 2604 C 238.632 3.93285 1.68853 0
M  V30 2605 C 237.958 4.42649 2.99944 0
M  V30 2606 C 239.258 5.13904 0.932714 0
M  V30 2607 H 240.952 2.9828 0.258781 0
M  V30 2608 H 238.498 1.43473 0.123029 0
M  V30 2609 H 240.451 3.25126 2.68088 0
M  V30 2610 H 239.175 2.0134 2.57157 0
M  V30 2611 H 237.834 3.5113 1.05371 0
M  V30 2612 H 237.482 3.58458 3.52869 0
M  V30 2613 H 237.182 5.17476 2.78374 0
M  V30 2614 H 238.706 4.88099 3.66868 0
M  V30 2615 H 240.12 5.53506 1.49345 0
M  V30 2616 H 238.517 5.94515 0.81684 0
M  V30 2617 H 239.587 4.84842 -0.0749568 0
M  V30 2618 N 240.93 -0.123565 1.57115 0
M  V30 2619 C 242.341 -0.681198 1.73829 0
M  V30 2620 C 242.692 -1.80535 0.768214 0
M  V30 2621 O 241.817 -2.16317 -0.0599103 0
M  V30 2622 C 242.412 -1.24246 3.15196 0
M  V30 2623 C 240.971 -1.74643 3.33432 0
M  V30 2624 C 240.118 -0.644284 2.69711 0
M  V30 2625 H 243.069 0.102315 1.5837 0
M  V30 2626 H 243.09 -2.11216 3.16493 0
M  V30 2627 H 242.602 -0.424062 3.85776 0
M  V30 2628 H 240.703 -2.58974 2.67886 0
M  V30 2629 H 240.816 -1.85902 4.41562 0
M  V30 2630 H 239.18 -1.07676 2.3082 0
M  V30 2631 H 239.963 0.163058 3.42913 0
M  V30 2632 N 242.408 -1.52605 -0.393616 0
M  V30 2633 C 243.338 -1.80022 -1.48709 0
M  V30 2634 C 244.319 -0.651995 -1.57108 0
M  V30 2635 O 245.504 -0.89913 -1.72132 0
M  V30 2636 C 242.634 -1.96492 -2.86371 0
M  V30 2637 C 241.588 -3.12161 -2.92813 0
M  V30 2638 C 240.914 -3.13877 -4.3288 0
M  V30 2639 C 242.214 -4.51322 -2.6288 0
M  V30 2640 H 243.908 -2.71589 -1.26015 0
M  V30 2641 H 241.454 -1.30684 -0.604778 0
M  V30 2642 H 243.407 -2.14255 -3.62867 0
M  V30 2643 H 242.131 -1.01611 -3.10391 0
M  V30 2644 H 240.79 -2.94173 -2.18764 0
M  V30 2645 H 240.438 -2.16687 -4.53933 0
M  V30 2646 H 240.138 -3.91576 -4.38112 0
M  V30 2647 H 241.662 -3.33789 -5.1129 0
M  V30 2648 H 243.076 -4.69435 -3.29096 0
M  V30 2649 H 241.473 -5.31053 -2.79468 0
M  V30 2650 H 242.543 -4.58353 -1.58242 0
M  V30 2651 N 243.887 0.651787 -1.4349 0
M  V30 2652 C 244.85 1.74647 -1.48429 0
M  V30 2653 C 245.85 1.56513 -0.368817 0
M  V30 2654 O 247.04 1.62385 -0.630623 0
M  V30 2655 C 244.172 3.13533 -1.33827 0
M  V30 2656 H 245.365 1.71649 -2.4592 0
M  V30 2657 H 242.918 0.863573 -1.30277 0
M  V30 2658 H 243.653 3.22142 -0.37349 0
M  V30 2659 H 243.438 3.28101 -2.14691 0
M  V30 2660 H 244.928 3.93356 -1.40218 0
M  V30 2661 N 245.365 1.30045 0.890287 0
M  V30 2662 C 246.295 1.18541 2.01172 0
M  V30 2663 C 247.276 0.0773356 1.69924 0
M  V30 2664 O 248.461 0.25845 1.92473 0
M  V30 2665 C 245.591 0.870941 3.36202 0
M  V30 2666 C 244.545 1.93637 3.81692 0
M  V30 2667 C 243.871 1.475 5.13953 0
M  V30 2668 C 245.171 3.34666 4.00994 0
M  V30 2669 H 246.865 2.12359 2.11054 0
M  V30 2670 H 244.411 1.02238 1.01407 0
M  V30 2671 H 246.364 0.777141 4.14172 0
M  V30 2672 H 245.088 -0.102926 3.26438 0
M  V30 2673 H 243.747 2.01972 3.05946 0
M  V30 2674 H 243.395 0.489551 5.00612 0
M  V30 2675 H 243.095 2.1876 5.4536 0
M  V30 2676 H 244.619 1.39489 5.94454 0
M  V30 2677 H 246.033 3.2912 4.69417 0
M  V30 2678 H 244.43 4.03966 4.43769 0
M  V30 2679 H 245.5 3.76949 3.05021 0
M  V30 2680 N 246.843 -1.10192 1.12674 0
M  V30 2681 C 248.089 -1.82475 0.884915 0
M  V30 2682 C 248.422 -1.85093 -0.58773 0
M  V30 2683 O 247.697 -1.3134 -1.43457 0
M  V30 2684 C 247.98 -3.29018 1.46353 0
M  V30 2685 C 247.833 -3.34718 3.00473 0
M  V30 2686 C 249.152 -4.25473 1.12519 0
M  V30 2687 H 246.271 -0.662492 0.322915 0
M  V30 2688 H 248.913 -1.2913 1.39375 0
M  V30 2689 H 247.063 -3.74576 1.03077 0
M  V30 2690 H 248.735 -2.97622 3.52447 0
M  V30 2691 H 246.978 -2.74541 3.35872 0
M  V30 2692 H 247.649 -4.37918 3.36053 0
M  V30 2693 H 250.125 -3.88161 1.499 0
M  V30 2694 H 249.001 -5.26365 1.55663 0
M  V30 2695 H 249.262 -4.42084 0.0377407 0
M  V30 2696 N 248.321 -0.919034 -1.28029 0
M  V30 2697 C 249.549 -0.570971 -1.98866 0
M  V30 2698 C 249.964 0.848996 -1.68634 0
M  V30 2699 O 249.321 1.56307 -0.942036 0
M  V30 2700 C 249.372 -0.776876 -3.53054 0
M  V30 2701 O 249.093 -2.14097 -3.82222 0
M  V30 2702 C 250.594 -0.436356 -4.41147 0
M  V30 2703 H 247.814 -0.217175 -0.634883 0
M  V30 2704 H 250.358 -1.23368 -1.63097 0
M  V30 2705 H 248.513 -0.161085 -3.87065 0
M  V30 2706 H 248.927 -2.18455 -4.76841 0
M  V30 2707 H 250.401 -0.63117 -5.4838 0
M  V30 2708 H 250.878 0.627686 -4.34692 0
M  V30 2709 H 251.484 -1.02991 -4.12641 0
M  V30 2710 N 249.799 1.42003 -0.683588 0
M  V30 2711 C 251.045 2.02223 -0.218536 0
M  V30 2712 C 251.4 1.53126 1.16492 0
M  V30 2713 O 250.693 0.727459 1.77253 0
M  V30 2714 C 250.887 3.56827 -0.202357 0
M  V30 2715 C 250.716 4.20928 -1.5827 0
M  V30 2716 C 249.486 4.5573 -2.18262 0
M  V30 2717 C 251.684 4.47933 -2.52706 0
M  V30 2718 N 249.666 5.05056 -3.48986 0
M  V30 2719 C 251.037 4.98906 -3.68094 0
M  V30 2720 C 253.092 4.29931 -2.51125 0
M  V30 2721 C 251.795 5.33768 -4.82166 0
M  V30 2722 C 253.821 4.65875 -3.643 0
M  V30 2723 C 253.183 5.17008 -4.78417 0
M  V30 2724 H 249.282 0.771931 -0.125088 0
M  V30 2725 H 251.866 1.72729 -0.898479 0
M  V30 2726 H 250.037 3.85819 0.447029 0
M  V30 2727 H 251.769 4.03755 0.276399 0
M  V30 2728 H 248.524 4.41781 -1.70665 0
M  V30 2729 H 248.948 5.34139 -4.15962 0
M  V30 2730 H 253.59 3.89647 -1.6412 0
M  V30 2731 H 251.308 5.72981 -5.6984 0
M  V30 2732 H 254.894 4.53615 -3.64314 0
M  V30 2733 H 253.774 5.44301 -5.64541 0
M  V30 2734 N 251.277 0.427512 1.51691 0
M  V30 2735 C 252.523 -0.142439 2.02299 0
M  V30 2736 C 252.856 -1.43214 1.31162 0
M  V30 2737 O 252.131 -1.89833 0.423511 0
M  V30 2738 C 252.414 -0.371301 3.58181 0
M  V30 2739 C 252.267 0.936358 4.39946 0
M  V30 2740 C 253.586 -1.14542 4.24933 0
M  V30 2741 H 250.705 -0.0502937 0.735282 0
M  V30 2742 H 253.347 0.564584 1.81418 0
M  V30 2743 H 251.497 -0.973559 3.76104 0
M  V30 2744 H 253.169 1.57184 4.33694 0
M  V30 2745 H 251.412 1.5432 4.05423 0
M  V30 2746 H 252.083 0.730388 5.47147 0
M  V30 2747 H 254.559 -0.635362 4.11221 0
M  V30 2748 H 253.435 -1.27431 5.33903 0
M  V30 2749 H 253.696 -2.17093 3.85127 0
M  V30 2750 N 252.755 -1.56801 0.158532 0
M  V30 2751 C 254.166 -1.83189 -0.360366 0
M  V30 2752 C 254.517 -1.07778 -1.63946 0
M  V30 2753 O 253.642 -0.326718 -2.13919 0
M  V30 2754 C 254.237 -3.32297 -0.660595 0
M  V30 2755 C 252.796 -3.59227 -1.12398 0
M  V30 2756 C 251.943 -2.76877 -0.153097 0
M  V30 2757 H 254.894 -1.54008 0.383031 0
M  V30 2758 H 254.915 -3.4908 -1.51405 0
M  V30 2759 H 254.427 -3.87156 0.270527 0
M  V30 2760 H 252.528 -3.09766 -2.07064 0
M  V30 2761 H 252.641 -4.67632 -1.04197 0
M  V30 2762 H 251.005 -2.46319 -0.647983 0
M  V30 2763 H 251.788 -3.34511 0.77182 0
M  V30 2764 N 254.233 0.115231 -1.57178 0
M  V30 2765 C 255.166 1.17166 -1.95825 0
M  V30 2766 C 256.144 1.39912 -0.828463 0
M  V30 2767 O 257.328 1.54004 -1.08697 0
M  V30 2768 C 254.455 2.52478 -2.25771 0
M  V30 2769 C 253.501 2.46136 -3.48309 0
M  V30 2770 S 254.334 1.89736 -5.0076 0
M  V30 2771 C 255.49 3.26713 -5.33863 0
M  V30 2772 H 255.723 0.842103 -2.85124 0
M  V30 2773 H 253.256 0.322136 -1.51002 0
M  V30 2774 H 255.214 3.30332 -2.43702 0
M  V30 2775 H 253.875 2.82609 -1.37079 0
M  V30 2776 H 253.068 3.45819 -3.66641 0
M  V30 2777 H 252.67 1.76404 -3.29784 0
M  V30 2778 H 254.962 4.22935 -5.29275 0
M  V30 2779 H 255.905 3.13205 -6.35065 0
M  V30 2780 H 256.313 3.25316 -4.61335 0
M  V30 2781 N 255.711 1.52812 0.385517 0
M  V30 2782 C 256.958 1.68026 1.1302 0
M  V30 2783 C 257.286 0.421934 1.89868 0
M  V30 2784 O 256.541 -0.595749 1.86412 0
M  V30 2785 C 256.84 2.86856 2.13187 0
M  V30 2786 C 256.506 4.24159 1.5297 0
M  V30 2787 C 255.168 4.61501 1.36274 0
M  V30 2788 C 257.52 5.09627 1.09223 0
M  V30 2789 C 254.848 5.81966 0.743837 0
M  V30 2790 C 257.2 6.30719 0.487411 0
M  V30 2791 C 255.864 6.6679 0.307777 0
M  V30 2792 H 255.134 0.614849 0.413571 0
M  V30 2793 H 257.781 1.86962 0.414405 0
M  V30 2794 H 256.086 2.6235 2.90998 0
M  V30 2795 H 257.783 2.95821 2.70722 0
M  V30 2796 H 254.373 3.94746 1.66954 0
M  V30 2797 H 258.557 4.81343 1.20922 0
M  V30 2798 H 253.813 6.08519 0.592891 0
M  V30 2799 H 257.987 6.96259 0.140143 0
M  V30 2800 H 255.614 7.60001 -0.173879 0
M  V30 2801 N 257.189 -0.644168 1.43834 0
M  V30 2802 C 258.119 -1.76814 1.52509 0
M  V30 2803 C 259.1 -1.65823 0.379052 0
M  V30 2804 O 260.285 -1.84781 0.597466 0
M  V30 2805 C 257.415 -3.15288 1.4564 0
M  V30 2806 C 256.369 -3.41053 2.58586 0
M  V30 2807 C 255.695 -4.79421 2.36769 0
M  V30 2808 C 256.995 -3.34902 4.00797 0
M  V30 2809 H 258.689 -1.69812 2.46586 0
M  V30 2810 H 256.235 -0.815542 1.1868 0
M  V30 2811 H 258.188 -3.93681 1.50311 0
M  V30 2812 H 256.912 -3.23043 0.480725 0
M  V30 2813 H 255.571 -2.65035 2.53282 0
M  V30 2814 H 255.219 -4.83863 1.37424 0
M  V30 2815 H 254.919 -4.9762 3.12487 0
M  V30 2816 H 256.443 -5.6006 2.43238 0
M  V30 2817 H 257.857 -4.03218 4.07539 0
M  V30 2818 H 256.254 -3.64637 4.76613 0
M  V30 2819 H 257.324 -2.32928 4.25291 0
M  V30 2820 N 258.668 -1.30515 -0.883378 0
M  V30 2821 C 259.893 -1.22487 -1.67367 0
M  V30 2822 C 260.318 0.208767 -1.86938 0
M  V30 2823 O 259.676 1.15015 -1.40148 0
M  V30 2824 C 259.724 -1.96041 -3.02655 0
M  V30 2825 O 258.828 -1.28859 -3.91751 0
M  V30 2826 H 258.169 -0.423573 -0.511353 0
M  V30 2827 H 260.699 -1.72362 -1.10239 0
M  V30 2828 H 260.709 -2.05124 -3.52687 0
M  V30 2829 H 259.384 -3.00307 -2.8773 0
M  V30 2830 H 257.961 -1.28141 -3.50192 0
M  V30 2831 N 260.146 1.09593 -1.13257 0
M  V30 2832 C 261.374 1.855 -0.916378 0
M  V30 2833 C 261.789 1.81069 0.534738 0
M  V30 2834 O 261.146 1.20562 1.37007 0
M  V30 2835 C 261.197 3.33546 -1.39388 0
M  V30 2836 O 260.918 3.37927 -2.78813 0
M  V30 2837 C 262.419 4.26299 -1.21588 0
M  V30 2838 H 259.639 0.585991 -0.326887 0
M  V30 2839 H 262.183 1.38488 -1.5047 0
M  V30 2840 H 260.338 3.77992 -0.848597 0
M  V30 2841 H 260.752 4.30254 -2.9997 0
M  V30 2842 H 262.226 5.28341 -1.59876 0
M  V30 2843 H 262.703 4.38918 -0.157376 0
M  V30 2844 H 263.309 3.87668 -1.7491 0
M  V30 2845 N 261.624 0.925811 1.2754 0
M  V30 2846 C 262.554 0.440748 2.29303 0
M  V30 2847 C 263.535 -0.497971 1.62648 0
M  V30 2848 O 264.72 -0.403126 1.8997 0
M  V30 2849 C 261.85 -0.309048 3.45922 0
M  V30 2850 C 260.804 0.54166 4.24559 0
M  V30 2851 C 260.13 -0.337191 5.33636 0
M  V30 2852 C 261.43 1.80516 4.90114 0
M  V30 2853 H 263.124 1.29121 2.70126 0
M  V30 2854 H 260.67 0.622323 1.29858 0
M  V30 2855 H 262.623 -0.659315 4.1621 0
M  V30 2856 H 261.347 -1.19352 3.04011 0
M  V30 2857 H 260.006 0.874609 3.56014 0
M  V30 2858 H 259.654 -1.22056 4.87966 0
M  V30 2859 H 259.354 0.228497 5.87156 0
M  V30 2860 H 260.878 -0.683072 6.06767 0
M  V30 2861 H 262.292 1.52307 5.52698 0
M  V30 2862 H 260.689 2.3142 5.53683 0
M  V30 2863 H 261.759 2.52581 4.13921 0
M  V30 2864 N 263.102 -1.41638 0.69111 0
M  V30 2865 C 264.032 -2.3347 0.037248 0
M  V30 2866 C 265.013 -1.51575 -0.771947 0
M  V30 2867 O 266.198 -1.80126 -0.72582 0
M  V30 2868 C 263.328 -3.35354 -0.903064 0
M  V30 2869 C 262.282 -4.27526 -0.201288 0
M  V30 2870 C 261.608 -5.19747 -1.25565 0
M  V30 2871 C 262.908 -5.13959 0.929689 0
M  V30 2872 H 264.602 -2.88397 0.804227 0
M  V30 2873 H 262.148 -1.38669 0.388189 0
M  V30 2874 H 264.101 -3.98519 -1.36969 0
M  V30 2875 H 262.825 -2.78767 -1.70166 0
M  V30 2876 H 261.484 -3.65779 0.245265 0
M  V30 2877 H 261.132 -4.59479 -2.04666 0
M  V30 2878 H 260.832 -5.8225 -0.791128 0
M  V30 2879 H 262.356 -5.85789 -1.72288 0
M  V30 2880 H 263.77 -5.70718 0.543546 0
M  V30 2881 H 262.167 -5.85379 1.32103 0
M  V30 2882 H 263.237 -4.51389 1.77133 0
M  V30 2883 N 264.58 -0.43555 -1.51462 0
M  V30 2884 C 265.543 0.365137 -2.26273 0
M  V30 2885 C 266.543 0.951227 -1.29647 0
M  V30 2886 O 267.733 0.825958 -1.53374 0
M  V30 2887 C 264.865 1.51645 -3.05314 0
M  V30 2888 H 266.058 -0.290474 -2.9849 0
M  V30 2889 H 263.611 -0.188676 -1.55157 0
M  V30 2890 H 264.346 2.20816 -2.3751 0
M  V30 2891 H 264.131 1.10238 -3.76284 0
M  V30 2892 H 265.621 2.08218 -3.61987 0
M  V30 2893 N 266.058 1.56714 -0.166846 0
M  V30 2894 C 267.469 1.83378 0.350646 0
M  V30 2895 C 267.82 1.08646 1.63372 0
M  V30 2896 O 266.945 0.338058 2.13743 0
M  V30 2897 C 267.54 3.32643 0.642963 0
M  V30 2898 C 266.099 3.59818 1.10491 0
M  V30 2899 C 265.246 2.76954 0.138411 0
M  V30 2900 H 268.197 1.53803 -0.391193 0
M  V30 2901 H 268.218 3.49878 1.49551 0
M  V30 2902 H 267.73 3.87007 -0.291055 0
M  V30 2903 H 265.831 3.1086 2.05418 0
M  V30 2904 H 265.944 4.68178 1.01716 0
M  V30 2905 H 264.308 2.4666 0.634911 0
M  V30 2906 H 265.091 3.34097 -0.789549 0
M  V30 2907 N 267.536 -0.106894 1.57237 0
M  V30 2908 C 268.766 -0.825191 1.89405 0
M  V30 2909 C 269.174 -1.73374 0.757496 0
M  V30 2910 O 268.517 -1.81552 -0.280115 0
M  V30 2911 C 268.579 -1.70102 3.1671 0
M  V30 2912 C 268.243 -0.965523 4.46684 0
M  V30 2913 C 269.24 -0.300741 5.19029 0
M  V30 2914 C 266.925 -0.943105 4.93367 0
M  V30 2915 C 268.919 0.376622 6.36286 0
M  V30 2916 C 266.606 -0.261949 6.10538 0
M  V30 2917 C 267.604 0.396748 6.81847 0
M  V30 2918 O 267.292 1.06701 7.96787 0
M  V30 2919 H 267.024 -0.241852 0.631255 0
M  V30 2920 H 269.578 -0.0921491 2.05193 0
M  V30 2921 H 267.808 -2.47601 2.97036 0
M  V30 2922 H 269.497 -2.29483 3.34802 0
M  V30 2923 H 270.263 -0.309599 4.84011 0
M  V30 2924 H 266.142 -1.44524 4.3776 0
M  V30 2925 H 269.686 0.891334 6.91882 0
M  V30 2926 H 265.583 -0.250896 6.45012 0
M  V30 2927 H 266.351 0.972707 8.127 0
M  V30 2928 N 269.014 -1.53014 -0.377408 0
M  V30 2929 C 269.946 -1.74884 -1.48149 0
M  V30 2930 C 270.959 -0.629433 -1.5014 0
M  V30 2931 O 272.148 -0.905416 -1.53833 0
M  V30 2932 C 269.248 -1.80299 -2.86959 0
M  V30 2933 C 268.421 -3.09776 -3.08801 0
M  V30 2934 C 267.48 -3.06586 -4.27658 0
M  V30 2935 O 266.506 -3.80419 -4.23403 0
M  V30 2936 N 267.708 -2.26578 -5.34455 0
M  V30 2937 H 270.473 -2.70147 -1.29771 0
M  V30 2938 H 268.034 -1.51646 -0.56703 0
M  V30 2939 H 270.026 -1.75657 -3.64591 0
M  V30 2940 H 268.596 -0.92372 -2.98641 0
M  V30 2941 H 267.816 -3.27815 -2.18931 0
M  V30 2942 H 269.104 -3.95366 -3.20255 0
M  V30 2943 H 268.502 -1.66081 -5.40771 0
M  V30 2944 H 267.059 -2.27766 -6.10709 0
M  V30 2945 N 270.492 0.636531 -1.44174 0
M  V30 2946 C 271.455 1.73063 -1.50273 0
M  V30 2947 C 272.455 1.56113 -0.385397 0
M  V30 2948 O 273.645 1.61707 -0.64781 0
M  V30 2949 C 270.777 3.12096 -1.37145 0
M  V30 2950 H 271.97 1.69031 -2.47727 0
M  V30 2951 H 269.523 0.849706 -1.31186 0
M  V30 2952 H 270.258 3.21728 -0.407636 0
M  V30 2953 H 270.043 3.25805 -2.18159 0
M  V30 2954 H 271.533 3.91846 -1.44382 0
M  V30 2955 N 271.97 1.30982 0.876444 0
M  V30 2956 C 272.9 1.20668 1.99903 0
M  V30 2957 C 273.881 0.095354 1.69833 0
M  V30 2958 O 275.066 0.27885 1.92188 0
M  V30 2959 C 272.196 0.90655 3.3526 0
M  V30 2960 C 271.15 1.97675 3.79617 0
M  V30 2961 C 270.476 1.52943 5.1236 0
M  V30 2962 C 271.776 3.389 3.97422 0
M  V30 2963 H 273.47 2.14586 2.0879 0
M  V30 2964 H 271.016 1.03308 1.00317 0
M  V30 2965 H 272.969 0.821025 4.13324 0
M  V30 2966 H 271.693 -0.0682969 3.26529 0
M  V30 2967 H 270.352 2.05205 3.03787 0
M  V30 2968 H 270 0.54262 5.00065 0
M  V30 2969 H 269.7 2.24532 5.43009 0
M  V30 2970 H 271.224 1.45786 5.92941 0
M  V30 2971 H 272.638 3.34081 4.659 0
M  V30 2972 H 271.035 4.0865 4.3946 0
M  V30 2973 H 272.105 3.80163 3.01006 0
M  V30 2974 N 273.449 -1.08991 1.13837 0
M  V30 2975 C 274.865 -1.33312 0.877506 0
M  V30 2976 C 275.065 -1.95587 -0.48456 0
M  V30 2977 O 274.121 -2.20509 -1.23013 0
M  V30 2978 C 275.434 -2.24045 2.0056 0
M  V30 2979 C 276.982 -2.37542 2.03821 0
M  V30 2980 C 277.457 -3.31614 3.15905 0
M  V30 2981 N 278.948 -3.39189 3.15445 0
M  V30 2982 C 279.683 -4.11992 3.98811 0
M  V30 2983 N 279.179 -4.87553 4.92203 0
M  V30 2984 N 280.972 -4.07762 3.86894 0
M  V30 2985 H 273.123 -0.669456 2.01574 0
M  V30 2986 H 275.386 -0.357482 0.878015 0
M  V30 2987 H 275.092 -1.85521 2.98789 0
M  V30 2988 H 274.966 -3.24466 1.92359 0
M  V30 2989 H 277.353 -2.75327 1.06202 0
M  V30 2990 H 277.434 -1.36884 2.16093 0
M  V30 2991 H 277.078 -2.94551 4.13766 0
M  V30 2992 H 277.008 -4.32186 3.0087 0
M  V30 2993 H 279.499 -2.85314 2.47799 0
M  V30 2994 H 279.812 -5.40549 5.52292 0
M  V30 2995 H 278.157 -4.86627 4.96205 0
M  V30 2996 H 281.348 -3.47833 3.13257 0
M  V30 2997 H 281.521 -4.64238 4.52092 0
M  V30 2998 N 274.927 -0.932562 -1.27047 0
M  V30 2999 C 275.857 -0.452902 -2.29066 0
M  V30 3000 C 276.838 0.489338 -1.62909 0
M  V30 3001 O 278.023 0.393046 -1.90181 0
M  V30 3002 C 275.153 0.290698 -3.46081 0
M  V30 3003 C 274.107 -0.564168 -4.24265 0
M  V30 3004 C 273.433 0.308886 -5.33807 0
M  V30 3005 C 274.733 -1.83112 -4.89149 0
M  V30 3006 H 276.427 -1.30552 -2.69437 0
M  V30 3007 H 273.973 -0.629201 -1.29526 0
M  V30 3008 H 275.926 0.637233 -4.16554 0
M  V30 3009 H 274.65 1.17738 -3.0464 0
M  V30 3010 H 273.309 -0.893477 -3.55545 0
M  V30 3011 H 272.957 1.19467 -4.88607 0
M  V30 3012 H 272.657 -0.259633 -5.87026 0
M  V30 3013 H 274.181 0.650884 -6.07121 0
M  V30 3014 H 275.595 -1.55236 -5.51883 0
M  V30 3015 H 273.992 -2.34353 -5.52448 0
M  V30 3016 H 275.062 -2.54772 -4.12576 0
M  V30 3017 N 276.405 1.4127 -0.698611 0
M  V30 3018 C 277.651 2.01979 -0.239972 0
M  V30 3019 C 278.006 1.54353 1.14861 0
M  V30 3020 O 277.299 0.746218 1.76471 0
M  V30 3021 C 277.493 3.56592 -0.240192 0
M  V30 3022 C 277.322 4.19226 -1.62726 0
M  V30 3023 C 276.092 4.53389 -2.23084 0
M  V30 3024 C 278.29 4.45228 -2.57443 0
M  V30 3025 N 276.272 5.01327 -3.54323 0
M  V30 3026 C 277.643 4.94973 -3.73365 0
M  V30 3027 C 279.698 4.27243 -2.55671 0
M  V30 3028 C 278.401 5.28624 -4.878 0
M  V30 3029 C 280.427 4.61985 -3.69221 0
M  V30 3030 C 279.789 5.11904 -4.83873 0
M  V30 3031 H 275.888 0.770561 -0.133269 0
M  V30 3032 H 278.472 1.71767 -0.916748 0
M  V30 3033 H 276.643 3.86271 0.406082 0
M  V30 3034 H 278.375 4.04025 0.23356 0
M  V30 3035 H 275.13 4.39946 -1.75341 0
M  V30 3036 H 275.554 5.29697 -4.21604 0
M  V30 3037 H 280.196 3.87884 -1.68243 0
M  V30 3038 H 277.914 5.66905 -5.75885 0
M  V30 3039 H 281.5 4.49725 -3.69105 0
M  V30 3040 H 280.38 5.38282 -5.70282 0
M  V30 3041 N 277.883 0.443576 1.51229 0
M  V30 3042 C 278.846 -0.353132 2.26463 0
M  V30 3043 C 279.846 -0.944338 1.3015 0
M  V30 3044 O 281.036 -0.817813 1.5381 0
M  V30 3045 C 278.168 -1.50023 3.06114 0
M  V30 3046 H 279.361 0.3063 2.98332 0
M  V30 3047 H 276.914 0.196902 1.55055 0
M  V30 3048 H 277.649 -2.19553 2.38677 0
M  V30 3049 H 277.434 -1.08241 3.76864 0
M  V30 3050 H 278.924 -2.06296 3.63087 0
M  V30 3051 N 279.361 -1.56624 0.175154 0
M  V30 3052 C 280.777 -1.58571 -0.180966 0
M  V30 3053 C 280.977 -1.19065 -1.6256 0
M  V30 3054 O 280.033 -0.904044 -2.35761 0
M  V30 3055 C 281.346 -3.00522 0.103326 0
M  V30 3056 C 282.894 -3.12972 0.0418426 0
M  V30 3057 C 283.369 -4.57022 0.299175 0
M  V30 3058 N 284.86 -4.62541 0.247086 0
M  V30 3059 C 285.595 -5.71857 0.420318 0
M  V30 3060 N 285.091 -6.89717 0.652816 0
M  V30 3061 N 286.884 -5.60972 0.355957 0
M  V30 3062 H 279.035 -1.80589 1.11809 0
M  V30 3063 H 281.298 -0.837178 0.444788 0
M  V30 3064 H 281.004 -3.33916 1.10422 0
M  V30 3065 H 280.878 -3.72344 -0.603299 0
M  V30 3066 H 283.265 -2.79403 -0.949636 0
M  V30 3067 H 283.346 -2.43578 0.781238 0
M  V30 3068 H 282.99 -4.913 1.28788 0
M  V30 3069 H 282.92 -5.24579 -0.460876 0
M  V30 3070 H 285.411 -3.77829 0.0731895 0
M  V30 3071 H 285.724 -7.68911 0.774347 0
M  V30 3072 H 284.069 -6.91572 0.689476 0
M  V30 3073 H 287.26 -4.67773 0.174882 0
M  V30 3074 H 287.433 -6.46111 0.494388 0
M  V30 3075 N 280.839 0.0985539 -1.57292 0
M  V30 3076 C 282.087 0.801092 -1.85545 0
M  V30 3077 C 282.408 1.79438 -0.763353 0
M  V30 3078 O 281.678 1.94763 0.21073 0
M  V30 3079 H 280.258 0.29884 -0.684619 0
M  V30 3080 H 282.92 0.0810064 -1.94732 0
M  V30 3081 H 282.016 1.3338 -2.82163 0
M  V30 3082 N 282.317 1.53212 0.369288 0
M  V30 3083 C 283.545 1.73119 1.13303 0
M  V30 3084 C 283.96 0.458455 1.83149 0
M  V30 3085 O 283.317 -0.568403 1.73423 0
M  V30 3086 C 283.368 2.89413 2.16616 0
M  V30 3087 O 283.089 4.11761 1.49614 0
M  V30 3088 C 284.59 3.21161 3.05566 0
M  V30 3089 H 281.81 0.579107 0.338934 0
M  V30 3090 H 284.354 1.99942 0.429338 0
M  V30 3091 H 282.509 2.64994 2.82589 0
M  V30 3092 H 282.923 4.76858 2.18419 0
M  V30 3093 H 284.397 4.05949 3.74045 0
M  V30 3094 H 284.874 2.36369 3.70171 0
M  V30 3095 H 285.48 3.47492 2.45213 0
M  V30 3096 N 283.795 -0.628877 1.44509 0
M  V30 3097 C 285.041 -1.38863 1.48623 0
M  V30 3098 C 285.396 -1.92038 0.117933 0
M  V30 3099 O 284.689 -1.70853 -0.86716 0
M  V30 3100 C 284.883 -2.56995 2.48371 0
M  V30 3101 C 284.712 -2.15385 3.94765 0
M  V30 3102 C 283.482 -2.02558 4.62924 0
M  V30 3103 C 285.68 -1.74158 4.83915 0
M  V30 3104 N 283.662 -1.54534 5.94132 0
M  V30 3105 C 285.033 -1.37396 6.04584 0
M  V30 3106 C 287.088 -1.61559 4.7096 0
M  V30 3107 C 285.791 -0.892948 7.13736 0
M  V30 3108 C 287.817 -1.14862 5.80139 0
M  V30 3109 C 287.179 -0.790516 6.9995 0
M  V30 3110 H 283.278 -0.502858 0.59888 0
M  V30 3111 H 285.862 -0.72121 1.8085 0
M  V30 3112 H 284.033 -3.21362 2.1813 0
M  V30 3113 H 285.765 -3.23801 2.42766 0
M  V30 3114 H 282.52 -2.23082 4.1777 0
M  V30 3115 H 282.944 -1.32815 6.63844 0
M  V30 3116 H 287.586 -1.87876 3.78764 0
M  V30 3117 H 285.304 -0.617291 8.05739 0
M  V30 3118 H 288.89 -1.05569 5.72142 0
M  V30 3119 H 287.77 -0.434713 7.82994 0
M  V30 3120 N 285.273 -1.31445 -0.869486 0
M  V30 3121 C 286.501 -1.24122 -1.65534 0
M  V30 3122 C 286.916 0.193387 -1.87807 0
M  V30 3123 O 286.273 1.12557 -1.43656 0
M  V30 3124 C 286.324 -1.98229 -3.02304 0
M  V30 3125 O 286.045 -3.3609 -2.81026 0
M  V30 3126 C 287.546 -1.97751 -3.96749 0
M  V30 3127 H 284.766 -0.428868 -0.516055 0
M  V30 3128 H 287.31 -1.73328 -1.08525 0
M  V30 3129 H 285.465 -1.52782 -3.56001 0
M  V30 3130 H 285.879 -3.7383 -3.67902 0
M  V30 3131 H 287.353 -2.54114 -4.90031 0
M  V30 3132 H 287.83 -0.960137 -4.28577 0
M  V30 3133 H 288.436 -2.43079 -3.48988 0
M  V30 3134 N 286.751 1.08385 -1.14413 0
M  V30 3135 C 287.683 2.1519 -0.789036 0
M  V30 3136 C 288.696 1.61638 0.19417 0
M  V30 3137 O 289.885 1.78479 -0.0275711 0
M  V30 3138 C 286.985 3.38565 -0.15058 0
M  V30 3139 C 286.158 4.21501 -1.16857 0
M  V30 3140 C 285.217 5.23277 -0.553832 0
M  V30 3141 O 284.243 5.56041 -1.21686 0
M  V30 3142 N 285.445 5.76629 0.669296 0
M  V30 3143 H 288.21 2.46257 -1.70814 0
M  V30 3144 H 285.771 1.24198 -1.03858 0
M  V30 3145 H 287.763 4.03777 0.273181 0
M  V30 3146 H 286.333 3.05299 0.671667 0
M  V30 3147 H 285.553 3.52265 -1.76926 0
M  V30 3148 H 286.841 4.73731 -1.85624 0
M  V30 3149 H 286.239 5.52243 1.22654 0
M  V30 3150 H 284.796 6.43521 1.03556 0
M  V30 3151 N 288.23 0.939286 1.26551 0
M  V30 3152 C 289.193 0.451987 2.24699 0
M  V30 3153 C 290.193 -0.435869 1.5478 0
M  V30 3154 O 291.383 -0.235314 1.72603 0
M  V30 3155 C 288.515 -0.348801 3.39111 0
M  V30 3156 H 289.708 1.3193 2.69322 0
M  V30 3157 H 287.261 0.721072 1.38673 0
M  V30 3158 H 287.996 -1.23444 2.99887 0
M  V30 3159 H 287.781 0.287945 3.91041 0
M  V30 3160 H 289.271 -0.679726 4.12031 0
M  V30 3161 N 289.708 -1.40897 0.706093 0
M  V30 3162 C 290.936 -2.05373 0.250887 0
M  V30 3163 C 291.351 -1.53172 -1.10381 0
M  V30 3164 O 290.708 -0.684305 -1.69185 0
M  V30 3165 C 290.759 -3.6088 0.211571 0
M  V30 3166 O 290.48 -4.11153 1.51276 0
M  V30 3167 C 291.981 -4.42517 -0.263346 0
M  V30 3168 H 289.201 -0.66115 0.114552 0
M  V30 3169 H 291.745 -1.80479 0.961635 0
M  V30 3170 H 289.9 -3.84777 -0.450073 0
M  V30 3171 H 290.314 -5.05279 1.40689 0
M  V30 3172 H 291.788 -5.51479 -0.239718 0
M  V30 3173 H 292.265 -4.19396 -1.30397 0
M  V30 3174 H 292.871 -4.23708 0.367677 0
M  V30 3175 N 291.186 -0.45159 -1.50991 0
M  V30 3176 C 292.434 0.109857 -2.01801 0
M  V30 3177 C 292.755 1.41958 -1.3369 0
M  V30 3178 O 292.025 1.9003 -0.475951 0
M  V30 3179 H 290.605 0.0435884 -0.745727 0
M  V30 3180 H 293.267 -0.597557 -1.85514 0
M  V30 3181 H 292.363 0.275489 -3.10882 0
M  V30 3182 N 292.664 1.56529 -0.183458 0
M  V30 3183 C 293.594 2.21549 0.737456 0
M  V30 3184 C 294.575 1.17489 1.23005 0
M  V30 3185 O 295.76 1.45959 1.281 0
M  V30 3186 C 292.89 2.86575 1.96194 0
M  V30 3187 C 291.844 3.96778 1.60473 0
M  V30 3188 C 291.17 4.48911 2.90487 0
M  V30 3189 C 292.47 5.15767 0.823497 0
M  V30 3190 H 294.164 2.98761 0.195453 0
M  V30 3191 H 291.71 1.43702 0.0925686 0
M  V30 3192 H 293.663 3.30739 2.61131 0
M  V30 3193 H 292.387 2.06749 2.52828 0
M  V30 3194 H 291.046 3.53286 0.978997 0
M  V30 3195 H 290.694 3.65862 3.45186 0
M  V30 3196 H 290.394 5.23265 2.67335 0
M  V30 3197 H 291.918 4.95771 3.56432 0
M  V30 3198 H 293.332 5.56549 1.37571 0
M  V30 3199 H 291.729 5.96114 0.690551 0
M  V30 3200 H 292.799 4.84574 -0.177782 0
M  V30 3201 N 294.142 -0.090211 1.57342 0
M  V30 3202 C 295.39 -0.791241 1.85967 0
M  V30 3203 C 295.711 -1.7903 0.772859 0
M  V30 3204 O 294.981 -1.94872 -0.200398 0
M  V30 3205 H 293.561 -0.295205 0.686195 0
M  V30 3206 H 296.223 -0.0706782 1.94772 0
M  V30 3207 H 295.319 -1.31882 2.82867 0
M  V30 3208 N 295.62 -1.53406 -0.361157 0
M  V30 3209 C 296.86 -1.71507 -1.11197 0
M  V30 3210 C 297.224 -0.459337 -1.86425 0
M  V30 3211 O 298.425 -0.517102 -2.63779 0
M  V30 3212 C 296.696 -2.93307 -2.0422 0
M  V30 3213 S 298.255 -3.32135 -2.86761 0
M  V30 3214 H 295.073 -0.603448 -0.375995 0
M  V30 3215 H 297.675 -1.91516 -0.392642 0
M  V30 3216 H 296.379 -3.82891 -1.47724 0
M  V30 3217 H 295.91 -2.75712 -2.80618 0
M  V30 3218 H 297.925 -2.84493 -4.06544 0
M  V30 3219 N 297.098 0.621204 -1.44841 0
M  V30 3220 C 298.061 1.71459 -1.521 0
M  V30 3221 C 299.061 1.55696 -0.401933 0
M  V30 3222 O 300.251 1.61011 -0.664925 0
M  V30 3223 C 297.383 3.10624 -1.40447 0
M  V30 3224 H 298.576 1.66394 -2.49506 0
M  V30 3225 H 296.129 0.835745 -1.3208 0
M  V30 3226 H 296.864 3.21277 -0.441737 0
M  V30 3227 H 296.649 3.23473 -2.21602 0
M  V30 3228 H 298.139 3.90293 -1.4853 0
M  V30 3229 N 298.576 1.31904 0.862503 0
M  V30 3230 C 299.506 1.22782 1.98612 0
M  V30 3231 C 300.487 0.113362 1.69722 0
M  V30 3232 O 301.672 0.299218 1.91881 0
M  V30 3233 C 298.802 0.942058 3.34279 0
M  V30 3234 C 297.756 2.0169 3.77499 0
M  V30 3235 C 297.082 1.58369 5.10709 0
M  V30 3236 C 298.382 3.43096 3.93805 0
M  V30 3237 H 300.076 2.16788 2.06502 0
M  V30 3238 H 297.622 1.04366 0.992154 0
M  V30 3239 H 299.575 0.864818 4.1243 0
M  V30 3240 H 298.299 -0.0336603 3.26583 0
M  V30 3241 H 296.958 2.08416 3.01593 0
M  V30 3242 H 296.606 0.595628 4.99461 0
M  V30 3243 H 296.306 2.30279 5.40597 0
M  V30 3244 H 297.83 1.52067 5.91361 0
M  V30 3245 H 299.244 3.39003 4.62331 0
M  V30 3246 H 297.641 4.13288 4.35101 0
M  V30 3247 H 298.711 3.83334 2.96957 0
M  V30 3248 N 300.054 -1.07777 1.14986 0
M  V30 3249 C 300.984 -2.16865 0.865557 0
M  V30 3250 C 301.965 -1.69123 -0.182083 0
M  V30 3251 O 303.15 -1.94164 -0.0373815 0
M  V30 3252 C 300.28 -3.45539 0.349313 0
M  V30 3253 C 299.234 -4.06708 1.33313 0
M  V30 3254 C 298.56 -5.30411 0.675918 0
M  V30 3255 C 299.86 -4.47241 2.69764 0
M  V30 3256 H 301.554 -2.40905 1.77778 0
M  V30 3257 H 299.1 -1.15781 0.856203 0
M  V30 3258 H 301.053 -4.21174 0.137983 0
M  V30 3259 H 299.777 -3.21072 -0.598362 0
M  V30 3260 H 298.436 -3.33112 1.53075 0
M  V30 3261 H 298.084 -5.02232 -0.277767 0
M  V30 3262 H 297.784 -5.72293 1.33244 0
M  V30 3263 H 299.308 -6.08755 0.474262 0
M  V30 3264 H 300.722 -5.14025 2.53873 0
M  V30 3265 H 299.119 -5.00062 3.3175 0
M  V30 3266 H 300.189 -3.58818 3.26156 0
M  V30 3267 N 301.532 -0.945985 -1.26051 0
M  V30 3268 C 302.495 -0.463897 -2.24456 0
M  V30 3269 C 303.495 0.427655 -1.55009 0
M  V30 3270 O 304.685 0.226157 -1.72726 0
M  V30 3271 C 301.817 0.330812 -3.39291 0
M  V30 3272 H 303.01 -1.33357 -2.68619 0
M  V30 3273 H 300.563 -0.728416 -1.38289 0
M  V30 3274 H 301.298 1.21852 -3.00537 0
M  V30 3275 H 301.083 -0.308679 -3.90883 0
M  V30 3276 H 302.573 0.657865 -4.12386 0
M  V30 3277 N 303.011 1.40521 -0.713556 0
M  V30 3278 C 303.974 2.29098 -0.0684347 0
M  V30 3279 C 304.974 1.45268 0.689472 0
M  V30 3280 O 306.164 1.66205 0.521677 0
M  V30 3281 C 303.296 3.28446 0.913024 0
M  V30 3282 H 304.489 2.87645 -0.84855 0
M  V30 3283 H 302.042 1.48809 -0.47809 0
M  V30 3284 H 302.777 2.74913 1.72027 0
M  V30 3285 H 302.562 3.90327 0.372472 0
M  V30 3286 H 304.052 3.94777 1.36165 0
M  V30 3287 N 304.489 0.459591 1.5075 0
M  V30 3288 C 305.439 -0.358926 2.25157 0
M  V30 3289 C 306.423 -0.971285 1.28276 0
M  V30 3290 O 307.615 -0.885739 1.53244 0
M  V30 3291 C 304.744 -1.44695 3.11317 0
M  V30 3292 C 303.83 -0.842894 4.15639 0
M  V30 3293 N 304.221 0.0299373 5.05791 0
M  V30 3294 C 302.519 -1.10809 4.32015 0
M  V30 3295 C 303.22 0.371563 5.80512 0
M  V30 3296 N 302.196 -0.250409 5.43023 0
M  V30 3297 H 305.998 0.313636 2.92222 0
M  V30 3298 H 303.512 0.273021 1.60089 0
M  V30 3299 H 305.509 -2.04641 3.63218 0
M  V30 3300 H 304.169 -2.12162 2.45799 0
M  V30 3301 H 305.18 0.39797 5.16369 0
M  V30 3302 H 301.857 -1.7786 3.77719 0
M  V30 3303 H 303.247 1.08319 6.63111 0
M  V30 3304 N 305.967 -1.56429 0.191757 0
M  V30 3305 C 306.93 -2.17707 -0.716688 0
M  V30 3306 C 307.93 -1.13061 -1.14341 0
M  V30 3307 O 309.12 -1.38464 -1.05704 0
M  V30 3308 C 306.252 -2.77644 -1.97804 0
M  V30 3309 H 307.445 -2.99342 -0.1829 0
M  V30 3310 H 304.998 -1.56193 -0.0578566 0
M  V30 3311 H 305.733 -1.99799 -2.55443 0
M  V30 3312 H 305.518 -3.54246 -1.68083 0
M  V30 3313 H 307.008 -3.24708 -2.62592 0
M  V30 3314 N 307.445 0.0818655 -1.57387 0
M  V30 3315 C 308.691 0.784074 -1.8703 0
M  V30 3316 C 309.024 1.77729 -0.782689 0
M  V30 3317 O 308.299 1.93384 0.208051 0
M  V30 3318 C 308.582 1.50105 -3.27323 0
M  V30 3319 C 308.435 0.524925 -4.46727 0
M  V30 3320 C 309.754 2.44843 -3.65705 0
M  V30 3321 H 306.873 0.283582 -0.680257 0
M  V30 3322 H 309.515 0.0474352 -1.89941 0
M  V30 3323 H 307.665 2.12897 -3.24972 0
M  V30 3324 H 309.337 -0.0970111 -4.61198 0
M  V30 3325 H 307.58 -0.160606 -4.33503 0
M  V30 3326 H 308.251 1.064 -5.41648 0
M  V30 3327 H 310.727 1.92135 -3.69085 0
M  V30 3328 H 309.603 2.92018 -4.64776 0
M  V30 3329 H 309.864 3.29197 -2.95096 0
M  V30 3330 N 308.923 1.53595 0.353017 0
M  V30 3331 C 310.169 1.70638 1.09593 0
M  V30 3332 C 310.502 0.463286 1.88593 0
M  V30 3333 O 309.777 -0.539597 1.86865 0
M  V30 3334 C 310.06 2.96406 2.04489 0
M  V30 3335 C 309.913 4.30901 1.29014 0
M  V30 3336 C 311.232 3.17812 3.0444 0
M  V30 3337 H 308.351 0.620913 0.397034 0
M  V30 3338 H 310.993 1.86254 0.375446 0
M  V30 3339 H 309.143 2.83223 2.65927 0
M  V30 3340 H 310.815 4.55917 0.702638 0
M  V30 3341 H 309.058 4.29741 0.592071 0
M  V30 3342 H 309.729 5.1506 1.98537 0
M  V30 3343 H 312.205 3.30263 2.53112 0
M  V30 3344 H 311.081 4.07223 3.6805 0
M  V30 3345 H 311.342 2.33669 3.75301 0
M  V30 3346 N 310.401 -0.613514 1.45168 0
M  V30 3347 C 311.331 -1.7354 1.56225 0
M  V30 3348 C 312.312 -1.64981 0.41414 0
M  V30 3349 O 313.497 -1.83472 0.636526 0
M  V30 3350 C 310.627 -3.12128 1.52295 0
M  V30 3351 C 309.581 -3.35491 2.65762 0
M  V30 3352 C 308.907 -4.74291 2.46885 0
M  V30 3353 C 310.207 -3.26325 4.0781 0
M  V30 3354 H 311.901 -1.64543 2.50132 0
M  V30 3355 H 309.447 -0.790185 1.20383 0
M  V30 3356 H 311.4 -3.90404 1.58628 0
M  V30 3357 H 310.124 -3.2195 0.549139 0
M  V30 3358 H 308.783 -2.59603 2.58847 0
M  V30 3359 H 308.431 -4.80839 1.47657 0
M  V30 3360 H 308.131 -4.9088 3.22972 0
M  V30 3361 H 309.655 -5.54775 2.55063 0
M  V30 3362 H 311.069 -3.94483 4.16 0
M  V30 3363 H 309.466 -3.54445 4.8424 0
M  V30 3364 H 310.536 -2.23855 4.30136 0
M  V30 3365 N 311.879 -1.3236 -0.855495 0
M  V30 3366 C 313.119 -1.24187 -1.62348 0
M  V30 3367 C 313.483 0.193597 -1.91021 0
M  V30 3368 O 314.684 0.39904 -2.65822 0
M  V30 3369 C 312.955 -2.07661 -2.90881 0
M  V30 3370 S 314.514 -2.16505 -3.81669 0
M  V30 3371 H 311.332 -0.442076 -0.556857 0
M  V30 3372 H 313.934 -1.67198 -1.01317 0
M  V30 3373 H 312.638 -3.11018 -2.67761 0
M  V30 3374 H 312.169 -1.65425 -3.56929 0
M  V30 3375 H 314.184 -1.31394 -4.78487 0
M  V30 3376 N 313.357 1.07166 -1.15556 0
M  V30 3377 C 314.32 2.12589 -0.856644 0
M  V30 3378 C 315.32 1.6015 0.14444 0
M  V30 3379 O 316.51 1.7399 -0.0854163 0
M  V30 3380 C 313.642 3.39753 -0.279405 0
M  V30 3381 H 314.835 2.40539 -1.79112 0
M  V30 3382 H 312.388 1.23086 -0.963298 0
M  V30 3383 H 313.123 3.17447 0.663174 0
M  V30 3384 H 312.908 3.79117 -1.00063 0
M  V30 3385 H 314.398 4.17507 -0.0879113 0
M  V30 3386 N 314.835 0.952656 1.25548 0
M  V30 3387 C 315.765 0.489287 2.28316 0
M  V30 3388 C 316.746 -0.463359 1.63667 0
M  V30 3389 O 317.931 -0.36274 1.90782 0
M  V30 3390 C 315.061 -0.235603 3.465 0
M  V30 3391 C 314.015 0.631593 4.23314 0
M  V30 3392 C 313.341 -0.223923 5.34231 0
M  V30 3393 C 314.641 1.90871 4.86174 0
M  V30 3394 H 316.335 1.34822 2.67326 0
M  V30 3395 H 313.881 0.649728 1.28509 0
M  V30 3396 H 315.834 -0.570882 4.17515 0
M  V30 3397 H 314.558 -1.12877 3.06474 0
M  V30 3398 H 313.217 0.949929 3.54079 0
M  V30 3399 H 312.865 -1.11678 4.90446 0
M  V30 3400 H 312.565 0.35299 5.86539 0
M  V30 3401 H 314.089 -0.554214 6.0808 0
M  V30 3402 H 315.503 1.63997 5.49343 0
M  V30 3403 H 313.9 2.43112 5.4865 0
M  V30 3404 H 314.97 2.61304 4.08471 0
M  V30 3405 N 316.313 -1.40141 0.720998 0
M  V30 3406 C 317.724 -1.83678 0.334553 0
M  V30 3407 C 318.075 -1.6027 -1.13173 0
M  V30 3408 O 317.2 -1.08643 -1.87152 0
M  V30 3409 C 317.795 -3.33437 0.600437 0
M  V30 3410 C 316.354 -3.75447 0.267642 0
M  V30 3411 C 315.501 -2.63296 0.870097 0
M  V30 3412 H 318.452 -1.29331 0.919732 0
M  V30 3413 H 318.473 -3.80269 -0.132517 0
M  V30 3414 H 317.985 -3.50442 1.66768 0
M  V30 3415 H 316.086 -3.64035 -0.794329 0
M  V30 3416 H 316.199 -4.73344 0.74042 0
M  V30 3417 H 314.563 -2.52954 0.297739 0
M  V30 3418 H 315.346 -2.83112 1.94172 0
M  V30 3419 N 317.792 -0.46758 -1.50504 0
M  V30 3420 C 319.038 0.0887532 -2.02606 0
M  V30 3421 C 319.371 1.39686 -1.34913 0
M  V30 3422 O 318.646 1.88644 -0.473694 0
M  V30 3423 C 318.929 0.276206 -3.59039 0
M  V30 3424 C 318.782 -1.05267 -4.37309 0
M  V30 3425 C 320.101 1.03235 -4.27821 0
M  V30 3426 H 317.22 0.0307814 -0.736357 0
M  V30 3427 H 319.862 -0.612485 -1.79857 0
M  V30 3428 H 318.012 0.8735 -3.78553 0
M  V30 3429 H 319.684 -1.68628 -4.29374 0
M  V30 3430 H 317.927 -1.65015 -4.01189 0
M  V30 3431 H 318.598 -0.875197 -5.45018 0
M  V30 3432 H 321.074 0.526111 -4.12761 0
M  V30 3433 H 319.95 1.1323 -5.37094 0
M  V30 3434 H 320.211 2.06806 -3.90748 0
M  V30 3435 N 319.27 1.56325 -0.20005 0
M  V30 3436 C 320.22 2.15939 0.731743 0
M  V30 3437 C 321.204 1.10154 1.17281 0
M  V30 3438 O 322.396 1.36203 1.13038 0
M  V30 3439 C 319.525 2.82614 1.94895 0
M  V30 3440 C 318.611 3.95596 1.52855 0
M  V30 3441 N 319.002 4.99118 0.819418 0
M  V30 3442 C 317.3 4.07288 1.81748 0
M  V30 3443 C 318.001 5.78513 0.608053 0
M  V30 3444 N 316.977 5.31117 1.15828 0
M  V30 3445 H 320.779 2.9334 0.181285 0
M  V30 3446 H 318.293 1.624 -0.000452172 0
M  V30 3447 H 320.29 3.23718 2.62702 0
M  V30 3448 H 318.95 2.06702 2.50408 0
M  V30 3449 H 319.961 5.15723 0.47436 0
M  V30 3450 H 316.638 3.42509 2.38734 0
M  V30 3451 H 318.028 6.71885 0.0451619 0
M  V30 3452 N 320.748 -0.0735177 1.57428 0
M  V30 3453 C 321.994 -0.774145 1.87443 0
M  V30 3454 C 322.327 -1.77311 0.792103 0
M  V30 3455 O 321.602 -1.93492 -0.197793 0
M  V30 3456 C 321.885 -1.48367 3.28115 0
M  V30 3457 C 321.738 -0.501227 4.46999 0
M  V30 3458 C 323.057 -2.429 3.66998 0
M  V30 3459 H 320.176 -0.279971 0.681752 0
M  V30 3460 H 322.818 -0.0373616 1.89963 0
M  V30 3461 H 320.968 -2.11171 3.26097 0
M  V30 3462 H 322.64 0.121468 4.6114 0
M  V30 3463 H 320.883 0.183593 4.33411 0
M  V30 3464 H 321.554 -1.03526 5.42205 0
M  V30 3465 H 324.03 -1.90175 3.70098 0
M  V30 3466 H 322.906 -2.89549 4.66318 0
M  V30 3467 H 323.167 -3.27628 2.96837 0
M  V30 3468 N 322.226 -1.5378 -0.344866 0
M  V30 3469 C 323.189 -1.80981 -1.40637 0
M  V30 3470 C 324.189 -0.680816 -1.45676 0
M  V30 3471 O 325.379 -0.949095 -1.46075 0
M  V30 3472 C 322.511 -1.95063 -2.79577 0
M  V30 3473 H 323.704 -2.75803 -1.17783 0
M  V30 3474 H 321.257 -1.45173 -0.579181 0
M  V30 3475 H 321.992 -1.02379 -3.07716 0
M  V30 3476 H 321.777 -2.77198 -2.77315 0
M  V30 3477 H 323.267 -2.17629 -3.56409 0
M  V30 3478 N 323.704 0.605807 -1.45491 0
M  V30 3479 C 324.95 1.36679 -1.49823 0
M  V30 3480 C 325.283 1.93693 -0.140175 0
M  V30 3481 O 324.558 1.75158 0.845581 0
M  V30 3482 C 324.841 2.51337 -2.57879 0
M  V30 3483 C 324.694 1.99508 -4.03134 0
M  V30 3484 C 326.013 3.53463 -2.62205 0
M  V30 3485 H 323.132 0.495617 -0.545466 0
M  V30 3486 H 325.774 0.682732 -1.7731 0
M  V30 3487 H 323.924 3.09691 -2.34571 0
M  V30 3488 H 325.596 1.45789 -4.37656 0
M  V30 3489 H 323.839 1.30496 -4.13707 0
M  V30 3490 H 324.51 2.82169 -4.74431 0
M  V30 3491 H 326.986 3.04953 -2.83095 0
M  V30 3492 H 325.862 4.31178 -3.39672 0
M  V30 3493 H 326.123 4.09197 -1.67363 0
M  V30 3494 N 325.182 1.32811 0.848464 0
M  V30 3495 C 326.092 1.24278 1.98978 0
M  V30 3496 C 327.108 0.155176 1.73307 0
M  V30 3497 O 328.284 0.376999 1.9784 0
M  V30 3498 C 325.349 0.972444 3.32783 0
M  V30 3499 C 324.41 2.14911 3.71634 0
M  V30 3500 C 323.643 1.89157 4.99054 0
M  V30 3501 O 323.866 0.837165 5.64223 0
M  V30 3502 O 322.8 2.75433 5.35183 0
M  V30 3503 H 326.626 2.20238 2.09115 0
M  V30 3504 H 324.211 1.12762 0.980052 0
M  V30 3505 H 326.093 0.838432 4.12975 0
M  V30 3506 H 324.768 0.043051 3.23671 0
M  V30 3507 H 323.675 2.33862 2.91992 0
M  V30 3508 H 325.008 3.06151 3.85399 0
M  V30 3509 N 326.66 -1.06551 1.16123 0
M  V30 3510 C 327.61 -2.12209 0.833736 0
M  V30 3511 C 328.594 -1.59825 -0.185656 0
M  V30 3512 O 329.786 -1.76994 0.0147906 0
M  V30 3513 C 326.915 -3.41674 0.333697 0
M  V30 3514 C 326.001 -4.00892 1.38372 0
M  V30 3515 N 326.392 -4.34256 2.59337 0
M  V30 3516 C 324.69 -4.28463 1.23836 0
M  V30 3517 C 325.391 -4.81291 3.26701 0
M  V30 3518 N 324.367 -4.80565 2.54083 0
M  V30 3519 H 328.169 -2.35849 1.75364 0
M  V30 3520 H 325.683 -1.24068 1.04789 0
M  V30 3521 H 327.68 -4.16822 0.0806918 0
M  V30 3522 H 326.34 -3.19475 -0.58017 0
M  V30 3523 H 327.351 -4.24687 2.96415 0
M  V30 3524 H 324.028 -4.15721 0.38504 0
M  V30 3525 H 325.418 -5.16332 4.29943 0
M  V30 3526 N 328.138 -0.959301 -1.25041 0
M  V30 3527 C 329.07 -0.440543 -2.24926 0
M  V30 3528 C 330.083 0.446131 -1.56568 0
M  V30 3529 O 331.272 0.253657 -1.76689 0
M  V30 3530 C 328.372 0.38412 -3.36716 0
M  V30 3531 C 327.545 -0.490658 -4.34639 0
M  V30 3532 C 326.604 0.276587 -5.25473 0
M  V30 3533 O 325.63 -0.326614 -5.68262 0
M  V30 3534 N 326.832 1.56844 -5.5891 0
M  V30 3535 H 329.597 -1.29931 -2.70071 0
M  V30 3536 H 327.158 -0.830181 -1.38995 0
M  V30 3537 H 329.15 0.905228 -3.94446 0
M  V30 3538 H 327.72 1.14377 -2.90924 0
M  V30 3539 H 326.94 -1.19282 -3.7572 0
M  V30 3540 H 328.228 -1.08756 -4.97041 0
M  V30 3541 H 327.626 2.08036 -5.26059 0
M  V30 3542 H 326.183 2.03541 -6.19205 0
M  V30 3543 N 329.616 1.39756 -0.72842 0
M  V30 3544 C 330.546 2.33289 -0.0991354 0
M  V30 3545 C 331.527 1.53568 0.731489 0
M  V30 3546 O 332.712 1.81987 0.677807 0
M  V30 3547 C 329.842 3.3763 0.813834 0
M  V30 3548 C 328.796 4.2791 0.0878663 0
M  V30 3549 C 328.122 5.22894 1.11741 0
M  V30 3550 C 329.422 5.11314 -1.06563 0
M  V30 3551 H 331.116 2.86163 -0.880408 0
M  V30 3552 H 328.662 1.37591 -0.424819 0
M  V30 3553 H 330.615 4.0201 1.26355 0
M  V30 3554 H 329.339 2.83181 1.62715 0
M  V30 3555 H 327.998 3.65 -0.342159 0
M  V30 3556 H 327.646 4.64744 1.92412 0
M  V30 3557 H 327.346 5.84143 0.636477 0
M  V30 3558 H 328.87 5.90151 1.56697 0
M  V30 3559 H 330.284 5.69076 -0.694671 0
M  V30 3560 H 328.681 5.81671 -1.47577 0
M  V30 3561 H 329.751 4.46534 -1.89038 0
M  V30 3562 N 331.094 0.475555 1.50254 0
M  V30 3563 C 332.505 0.0215174 1.86688 0
M  V30 3564 C 332.856 -1.38467 1.39001 0
M  V30 3565 O 331.981 -2.02732 0.756894 0
M  V30 3566 C 332.576 0.0322715 3.38785 0
M  V30 3567 C 331.135 -0.366314 3.74613 0
M  V30 3568 C 330.282 0.415832 2.74164 0
M  V30 3569 H 333.233 0.689612 1.42934 0
M  V30 3570 H 333.254 -0.76889 3.7265 0
M  V30 3571 H 332.766 1.05584 3.73462 0
M  V30 3572 H 330.867 -1.39406 3.45538 0
M  V30 3573 H 330.98 -0.064555 4.79057 0
M  V30 3574 H 329.344 -0.131048 2.54363 0
M  V30 3575 H 330.127 1.43899 3.11686 0
M  V30 3576 N 332.573 -1.56217 0.208337 0
M  V30 3577 C 333.984 -1.84243 -0.301904 0
M  V30 3578 C 334.335 -1.12939 -1.60434 0
M  V30 3579 O 333.46 -0.39461 -2.12772 0
M  V30 3580 C 334.055 -3.34231 -0.554543 0
M  V30 3581 C 332.614 -3.62621 -1.00912 0
M  V30 3582 C 331.761 -2.77224 -0.064933 0
M  V30 3583 H 334.712 -1.52712 0.431833 0
M  V30 3584 H 334.733 -3.5372 -1.40223 0
M  V30 3585 H 334.245 -3.86099 0.393561 0
M  V30 3586 H 332.346 -3.16197 -1.97104 0
M  V30 3587 H 332.459 -4.7071 -0.892674 0
M  V30 3588 H 330.823 -2.48256 -0.56929 0
M  V30 3589 H 331.606 -3.31887 0.877851 0
M  V30 3590 N 334.051 0.0651679 -1.57465 0
M  V30 3591 C 335.014 1.06117 -2.03155 0
M  V30 3592 C 336.014 1.31204 -0.929632 0
M  V30 3593 O 337.204 1.26813 -1.19432 0
M  V30 3594 C 334.336 2.4032 -2.41783 0
M  V30 3595 H 335.529 0.667231 -2.92383 0
M  V30 3596 H 333.082 0.311075 -1.53173 0
M  V30 3597 H 333.817 2.84532 -1.55601 0
M  V30 3598 H 333.602 2.23451 -3.22199 0
M  V30 3599 H 335.092 3.11898 -2.77685 0
M  V30 3600 N 335.529 1.53961 0.336706 0
M  V30 3601 C 336.754 1.75797 1.10046 0
M  V30 3602 C 337.179 0.498985 1.81361 0
M  V30 3603 O 336.537 -0.548769 1.72795 0
M  V30 3604 C 336.585 2.94257 2.08436 0
M  V30 3605 O 335.689 2.64883 3.16087 0
M  V30 3606 H 335.03 0.582936 0.317934 0
M  V30 3607 H 337.56 2.00945 0.38501 0
M  V30 3608 H 337.57 3.21237 2.51537 0
M  V30 3609 H 336.245 3.85564 1.55927 0
M  V30 3610 H 334.822 2.48812 2.77753 0
M  V30 3611 N 337.007 -0.598083 1.45811 0
M  V30 3612 C 338.423 -0.919847 1.30426 0
M  V30 3613 C 338.623 -1.99759 0.264303 0
M  V30 3614 O 337.679 -2.50221 -0.338472 0
M  V30 3615 C 338.992 -1.35176 2.68603 0
M  V30 3616 C 340.54 -1.46546 2.76574 0
M  V30 3617 C 341.015 -1.9311 4.15298 0
M  V30 3618 N 342.506 -2.00328 4.1764 0
M  V30 3619 C 343.241 -2.37599 5.21856 0
M  V30 3620 N 342.737 -2.73771 6.36413 0
M  V30 3621 N 344.53 -2.38021 5.09218 0
M  V30 3622 H 336.681 0.114111 2.12093 0
M  V30 3623 H 338.944 -0.0116121 0.947929 0
M  V30 3624 H 338.65 -0.633969 3.45939 0
M  V30 3625 H 338.524 -2.3164 2.97696 0
M  V30 3626 H 340.911 -2.17415 1.99537 0
M  V30 3627 H 340.992 -0.483727 2.51185 0
M  V30 3628 H 340.636 -1.22824 4.92825 0
M  V30 3629 H 340.566 -2.92213 4.38086 0
M  V30 3630 H 343.057 -1.74925 3.34977 0
M  V30 3631 H 343.37 -3.0112 7.11721 0
M  V30 3632 H 341.715 -2.71445 6.39799 0
M  V30 3633 H 344.906 -2.09174 4.18765 0
M  V30 3634 H 345.079 -2.66741 5.90554 0
M  V30 3635 N 338.485 -1.33259 -0.841409 0
M  V30 3636 C 339.725 -1.25902 -1.61022 0
M  V30 3637 C 340.089 0.173325 -1.91216 0
M  V30 3638 O 341.29 0.370824 -2.6623 0
M  V30 3639 C 339.561 -2.10735 -2.88662 0
M  V30 3640 S 341.12 -2.20541 -3.79351 0
M  V30 3641 H 337.938 -0.447958 -0.552137 0
M  V30 3642 H 340.54 -1.68263 -0.995382 0
M  V30 3643 H 339.244 -3.1384 -2.64448 0
M  V30 3644 H 338.775 -1.69201 -3.55154 0
M  V30 3645 H 340.79 -1.36462 -4.77067 0
M  V30 3646 N 339.963 1.05934 -1.16686 0
M  V30 3647 C 341.209 1.79065 -0.95203 0
M  V30 3648 C 341.542 1.87147 0.518629 0
M  V30 3649 O 340.817 1.36574 1.38484 0
M  V30 3650 C 341.1 3.23359 -1.58464 0
M  V30 3651 C 340.953 3.23336 -3.12689 0
M  V30 3652 C 342.272 4.21004 -1.28232 0
M  V30 3653 H 339.391 0.65005 -0.34728 0
M  V30 3654 H 342.033 1.23868 -1.44072 0
M  V30 3655 H 340.183 3.70493 -1.16908 0
M  V30 3656 H 341.855 2.84336 -3.6325 0
M  V30 3657 H 340.098 2.61886 -3.4583 0
M  V30 3658 H 340.769 4.25144 -3.52075 0
M  V30 3659 H 343.245 3.8233 -1.64203 0
M  V30 3660 H 342.121 5.20225 -1.75092 0
M  V30 3661 H 342.382 4.41639 -0.201791 0
M  V30 3662 N 341.441 0.965919 1.2453 0
M  V30 3663 C 342.371 0.513476 2.27784 0
M  V30 3664 C 343.352 -0.445974 1.6415 0
M  V30 3665 O 344.537 -0.342485 1.91156 0
M  V30 3666 C 341.667 -0.198839 3.4673 0
M  V30 3667 C 340.621 0.676456 4.2262 0
M  V30 3668 C 339.947 -0.167248 5.34438 0
M  V30 3669 C 341.247 1.96017 4.84123 0
M  V30 3670 H 342.941 1.3765 2.65881 0
M  V30 3671 H 340.487 0.663321 1.27813 0
M  V30 3672 H 342.44 -0.526567 4.18097 0
M  V30 3673 H 341.164 -1.0962 3.07654 0
M  V30 3674 H 339.823 0.98743 3.53052 0
M  V30 3675 H 339.471 -1.0647 4.91603 0
M  V30 3676 H 339.171 0.415181 5.86131 0
M  V30 3677 H 340.695 -0.489688 6.08633 0
M  V30 3678 H 342.109 1.69814 5.47573 0
M  V30 3679 H 340.506 2.48918 5.4604 0
M  V30 3680 H 341.576 2.65622 4.05676 0
M  V30 3681 N 342.919 -1.39368 0.735821 0
M  V30 3682 C 344.165 -2.00794 0.284544 0
M  V30 3683 C 344.498 -1.58255 -1.12557 0
M  V30 3684 O 343.773 -0.811819 -1.76748 0
M  V30 3685 C 344.056 -3.58011 0.387337 0
M  V30 3686 C 343.909 -4.10566 1.83728 0
M  V30 3687 C 345.228 -4.395 -0.22975 0
M  V30 3688 H 342.347 -0.729501 0.104866 0
M  V30 3689 H 344.989 -1.65564 0.93213 0
M  V30 3690 H 343.139 -3.88154 -0.164006 0
M  V30 3691 H 344.811 -3.91139 2.44556 0
M  V30 3692 H 343.054 -3.64095 2.35833 0
M  V30 3693 H 343.725 -5.19702 1.86047 0
M  V30 3694 H 346.201 -4.15406 0.240257 0
M  V30 3695 H 345.077 -5.48752 -0.127485 0
M  V30 3696 H 345.338 -4.22062 -1.3159 0
M  V30 3697 N 344.397 -0.483516 -1.5 0
M  V30 3698 C 345.644 0.0671597 -2.02389 0
M  V30 3699 C 345.972 1.38597 -1.36459 0
M  V30 3700 O 345.227 1.89634 -0.483458 0
M  V30 3701 C 345.526 0.286226 -3.56252 0
M  V30 3702 C 345.192 -0.952416 -4.40726 0
M  V30 3703 C 343.854 -1.29199 -4.63531 0
M  V30 3704 C 346.206 -1.77655 -4.89988 0
M  V30 3705 C 343.534 -2.45553 -5.32842 0
M  V30 3706 C 345.886 -2.93147 -5.60578 0
M  V30 3707 C 344.55 -3.27505 -5.81633 0
M  V30 3708 H 343.82 0.0245755 -0.740592 0
M  V30 3709 H 346.467 -0.640124 -1.80485 0
M  V30 3710 H 344.772 1.07587 -3.76739 0
M  V30 3711 H 346.469 0.726473 -3.94365 0
M  V30 3712 H 343.059 -0.677881 -4.23205 0
M  V30 3713 H 347.243 -1.52737 -4.72213 0
M  V30 3714 H 342.499 -2.72431 -5.47349 0
M  V30 3715 H 346.673 -3.57344 -5.97727 0
M  V30 3716 H 344.3 -4.1777 -6.35116 0
M  V30 3717 N 345.875 1.56104 -0.216619 0
M  V30 3718 C 346.785 2.23694 0.706982 0
M  V30 3719 C 347.801 1.24295 1.21765 0
M  V30 3720 O 348.977 1.57094 1.2603 0
M  V30 3721 C 346.042 2.8998 1.90033 0
M  V30 3722 C 345.103 4.04708 1.43213 0
M  V30 3723 C 344.336 4.67824 2.56859 0
M  V30 3724 O 344.559 4.29913 3.74874 0
M  V30 3725 O 343.493 5.56905 2.28343 0
M  V30 3726 H 347.319 3.03272 0.161235 0
M  V30 3727 H 344.904 1.49394 0.0136177 0
M  V30 3728 H 346.786 3.31837 2.59735 0
M  V30 3729 H 345.461 2.13365 2.43428 0
M  V30 3730 H 344.368 3.6743 0.70327 0
M  V30 3731 H 345.701 4.83051 0.944615 0
M  V30 3732 N 347.353 -0.0568162 1.57498 0
M  V30 3733 C 348.285 -1.09292 2.01464 0
M  V30 3734 C 349.298 -1.34112 0.922913 0
M  V30 3735 O 350.487 -1.32089 1.20062 0
M  V30 3736 C 347.587 -2.44068 2.35125 0
M  V30 3737 C 346.76 -2.38995 3.66333 0
M  V30 3738 C 345.819 -3.55997 3.87495 0
M  V30 3739 O 344.845 -3.36746 4.58901 0
M  V30 3740 N 346.047 -4.76888 3.30996 0
M  V30 3741 H 348.812 -0.718386 2.90963 0
M  V30 3742 H 346.373 -0.245235 1.60032 0
M  V30 3743 H 348.365 -3.21011 2.46443 0
M  V30 3744 H 346.935 -2.73468 1.5144 0
M  V30 3745 H 346.155 -1.47336 3.65631 0
M  V30 3746 H 347.443 -2.3272 4.52458 0
M  V30 3747 H 346.841 -4.95431 2.73065 0
M  V30 3748 H 345.398 -5.51291 3.47738 0
M  V30 3749 N 348.832 -1.54138 -0.328536 0
M  V30 3750 C 350.078 -1.7236 -1.06865 0
M  V30 3751 C 350.411 -0.493231 -1.87832 0
M  V30 3752 O 349.686 0.5098 -1.877 0
M  V30 3753 C 349.969 -2.99621 -1.99747 0
M  V30 3754 C 349.822 -4.32899 -1.22143 0
M  V30 3755 C 351.141 -3.22615 -2.99345 0
M  V30 3756 H 348.26 -0.627151 -0.387105 0
M  V30 3757 H 350.902 -1.86827 -0.345767 0
M  V30 3758 H 349.052 -2.87418 -2.61387 0
M  V30 3759 H 350.724 -4.56978 -0.630017 0
M  V30 3760 H 348.967 -4.30628 -0.523628 0
M  V30 3761 H 349.638 -5.18154 -1.90318 0
M  V30 3762 H 352.114 -3.34248 -2.47826 0
M  V30 3763 H 350.99 -4.13027 -3.61524 0
M  V30 3764 H 351.251 -2.3961 -3.71536 0
M  V30 3765 N 350.31 0.590341 -1.46126 0
M  V30 3766 C 351.726 0.912917 -1.30912 0
M  V30 3767 C 351.926 1.99616 -0.274893 0
M  V30 3768 O 350.982 2.50397 0.325197 0
M  V30 3769 C 352.295 1.3375 -2.69317 0
M  V30 3770 C 353.843 1.45077 -2.77348 0
M  V30 3771 C 354.318 1.90904 -4.16317 0
M  V30 3772 N 355.809 1.9811 -4.18696 0
M  V30 3773 C 356.544 2.34828 -5.23109 0
M  V30 3774 N 356.04 2.70393 -6.37856 0
M  V30 3775 N 357.833 2.35317 -5.10473 0
M  V30 3776 H 349.984 -0.125358 -2.1203 0
M  V30 3777 H 352.247 0.00658481 -0.947977 0
M  V30 3778 H 351.953 0.615614 -3.4627 0
M  V30 3779 H 351.827 2.30058 -2.9892 0
M  V30 3780 H 354.214 2.16353 -2.00687 0
M  V30 3781 H 354.295 0.4704 -2.51438 0
M  V30 3782 H 353.939 1.20209 -4.9347 0
M  V30 3783 H 353.869 2.89886 -4.39629 0
M  V30 3784 H 356.36 1.73146 -3.359 0
M  V30 3785 H 356.673 2.97341 -7.13308 0
M  V30 3786 H 355.018 2.68048 -6.41229 0
M  V30 3787 H 358.209 2.0695 -4.19868 0
M  V30 3788 H 358.382 2.63605 -5.9196 0
M  V30 3789 N 351.788 1.33704 0.83433 0
M  V30 3790 C 353.035 1.25417 1.58987 0
M  V30 3791 C 353.363 -0.178869 1.93676 0
M  V30 3792 O 352.618 -1.13723 1.59265 0
M  V30 3793 C 352.917 2.07926 2.90692 0
M  V30 3794 C 352.583 3.57066 2.75345 0
M  V30 3795 C 351.245 3.97724 2.70867 0
M  V30 3796 C 353.597 4.51817 2.59828 0
M  V30 3797 C 350.925 5.31344 2.48778 0
M  V30 3798 C 353.277 5.85604 2.39272 0
M  V30 3799 C 351.941 6.25439 2.33199 0
M  V30 3800 H 351.211 0.458934 0.581774 0
M  V30 3801 H 353.858 1.65335 0.966261 0
M  V30 3802 H 352.163 1.608 3.57282 0
M  V30 3803 H 353.86 1.98868 3.48213 0
M  V30 3804 H 350.45 3.24785 2.79665 0
M  V30 3805 H 354.634 4.21311 2.62319 0
M  V30 3806 H 349.89 5.61241 2.42526 0
M  V30 3807 H 354.064 6.58623 2.2625 0
M  V30 3808 H 351.691 7.28914 2.15843 0
M  V30 3809 N 353.266 -1.05314 1.17247 0
M  V30 3810 C 354.196 -2.1498 0.911362 0
M  V30 3811 C 355.177 -1.69471 -0.146169 0
M  V30 3812 O 356.362 -1.942 0.003812 0
M  V30 3813 C 353.492 -3.4472 0.422528 0
M  V30 3814 C 352.446 -4.03789 1.4191 0
M  V30 3815 C 351.772 -5.28858 0.788274 0
M  V30 3816 C 353.072 -4.41418 2.7919 0
M  V30 3817 H 354.766 -2.3708 1.82848 0
M  V30 3818 H 352.312 -1.13938 0.880569 0
M  V30 3819 H 354.265 -4.20787 0.227289 0
M  V30 3820 H 352.989 -3.22269 -0.530123 0
M  V30 3821 H 351.648 -3.2979 1.60106 0
M  V30 3822 H 351.296 -5.02709 -0.171173 0
M  V30 3823 H 350.996 -5.69338 1.45353 0
M  V30 3824 H 352.52 -6.07612 0.603282 0
M  V30 3825 H 353.934 -5.08524 2.64719 0
M  V30 3826 H 352.331 -4.92913 3.42282 0
M  V30 3827 H 353.401 -3.51819 3.33693 0
M  V30 3828 N 354.744 -0.972509 -1.24016 0
M  V30 3829 C 355.677 -0.45117 -2.23696 0
M  V30 3830 C 356.655 0.477378 -1.55434 0
M  V30 3831 O 357.839 0.407647 -1.84039 0
M  V30 3832 C 354.966 0.34818 -3.36906 0
M  V30 3833 C 354.012 -0.523355 -4.23277 0
M  V30 3834 S 354.845 -1.96647 -4.98087 0
M  V30 3835 C 356.001 -1.17604 -6.14752 0
M  V30 3836 H 356.234 -1.29588 -2.67571 0
M  V30 3837 H 353.767 -0.777903 -1.33372 0
M  V30 3838 H 355.725 0.803387 -4.02562 0
M  V30 3839 H 354.386 1.16792 -2.91579 0
M  V30 3840 H 353.579 0.0906181 -5.03919 0
M  V30 3841 H 353.181 -0.914485 -3.62647 0
M  V30 3842 H 355.473 -0.433434 -6.76112 0
M  V30 3843 H 356.416 -1.95701 -6.8052 0
M  V30 3844 H 356.824 -0.698295 -5.60164 0
M  V30 3845 N 356.222 1.38976 -0.743202 0
M  V30 3846 C 357.169 2.30544 -0.10861 0
M  V30 3847 C 358.139 1.49642 0.720869 0
M  V30 3848 O 359.324 1.78304 0.679142 0
M  V30 3849 C 356.464 3.36018 0.786496 0
M  V30 3850 C 355.577 4.31963 -0.0564849 0
M  V30 3851 C 354.712 5.24506 0.840657 0
M  V30 3852 C 353.751 6.121 -0.00658363 0
M  V30 3853 N 352.888 6.96973 0.846943 0
M  V30 3854 H 357.728 2.8424 -0.895088 0
M  V30 3855 H 355.265 1.3995 -0.453048 0
M  V30 3856 H 357.223 3.95768 1.31999 0
M  V30 3857 H 355.853 2.83758 1.53887 0
M  V30 3858 H 354.905 3.73763 -0.707492 0
M  V30 3859 H 356.217 4.93703 -0.711229 0
M  V30 3860 H 355.371 5.89322 1.4417 0
M  V30 3861 H 354.11 4.63107 1.52916 0
M  V30 3862 H 353.115 5.46289 -0.620366 0
M  V30 3863 H 354.34 6.75565 -0.691992 0
M  V30 3864 H 352.286 6.38133 1.52059 0
M  V30 3865 H 352.203 7.5559 0.248864 0
M  V30 3866 H 353.471 7.6621 1.43328 0
M  V30 3867 N 357.7 0.491464 1.49741 0
M  V30 3868 C 358.925 -0.0557177 2.07325 0
M  V30 3869 C 359.35 -1.30925 1.35056 0
M  V30 3870 O 358.708 -1.76733 0.404365 0
M  V30 3871 C 358.756 -0.302074 3.59333 0
M  V30 3872 O 357.86 -1.37868 3.88672 0
M  V30 3873 H 357.201 0.0219956 0.663636 0
M  V30 3874 H 359.731 0.688352 1.92673 0
M  V30 3875 H 359.741 -0.536464 4.04458 0
M  V30 3876 H 358.416 0.61383 4.11345 0
M  V30 3877 H 356.993 -1.12999 3.55367 0
M  V30 3878 N 359.178 -1.55987 0.224894 0
M  V30 3879 C 360.408 -2.02489 -0.41007 0
M  V30 3880 C 360.816 -1.10391 -1.53657 0
M  V30 3881 O 360.159 -0.106458 -1.83391 0
M  V30 3882 C 360.221 -3.45319 -0.999757 0
M  V30 3883 C 359.885 -4.56999 -0.00827976 0
M  V30 3884 C 360.882 -5.13812 0.793314 0
M  V30 3885 C 358.567 -5.02176 0.111442 0
M  V30 3886 C 360.561 -6.14276 1.7013 0
M  V30 3887 C 358.248 -6.02477 1.02296 0
M  V30 3888 C 359.246 -6.58403 1.81643 0
M  V30 3889 O 358.934 -7.56751 2.71262 0
M  V30 3890 H 358.666 -0.667915 -0.104235 0
M  V30 3891 H 361.22 -2.0257 0.339782 0
M  V30 3892 H 359.45 -3.42318 -1.79876 0
M  V30 3893 H 361.139 -3.7545 -1.54248 0
M  V30 3894 H 361.905 -4.79756 0.711288 0
M  V30 3895 H 357.784 -4.58323 -0.49605 0
M  V30 3896 H 361.328 -6.57854 2.32107 0
M  V30 3897 H 357.225 -6.35954 1.10599 0
M  V30 3898 H 357.993 -7.74286 2.65375 0
M  V30 3899 N 360.656 0.0484629 -1.57525 0
M  V30 3900 C 361.881 0.759177 -1.93006 0
M  V30 3901 C 362.306 1.69125 -0.823317 0
M  V30 3902 O 361.664 1.79931 0.222364 0
M  V30 3903 C 361.712 1.50899 -3.27509 0
M  V30 3904 O 360.816 2.62112 -3.18388 0
M  V30 3905 H 360.157 0.205564 -0.631379 0
M  V30 3906 H 362.687 0.00972959 -2.04598 0
M  V30 3907 H 362.697 1.88317 -3.6194 0
M  V30 3908 H 361.372 0.825269 -4.0763 0
M  V30 3909 H 359.949 2.27379 -2.95556 0
M  V30 3910 N 362.134 1.5431 0.320358 0
M  V30 3911 C 363.381 1.72668 1.05792 0
M  V30 3912 C 363.709 0.502084 1.87908 0
M  V30 3913 O 362.964 -0.516149 1.88771 0
M  V30 3914 C 363.263 2.95639 2.00828 0
M  V30 3915 C 362.929 4.30265 1.34843 0
M  V30 3916 C 361.591 4.66865 1.16578 0
M  V30 3917 C 363.943 5.13801 0.875095 0
M  V30 3918 C 361.271 5.84597 0.496336 0
M  V30 3919 C 363.623 6.32219 0.219463 0
M  V30 3920 C 362.287 6.67495 0.0246915 0
M  V30 3921 H 361.557 0.631837 0.387121 0
M  V30 3922 H 364.204 1.88552 0.334735 0
M  V30 3923 H 362.509 2.74456 2.79609 0
M  V30 3924 H 364.206 3.07038 2.57932 0
M  V30 3925 H 360.796 4.01472 1.50061 0
M  V30 3926 H 364.98 4.86039 1.00398 0
M  V30 3927 H 360.236 6.10486 0.334264 0
M  V30 3928 H 364.41 6.96227 -0.155291 0
M  V30 3929 H 362.037 7.5858 -0.496065 0
M  V30 3930 N 363.613 -0.582584 1.46437 0
M  V30 3931 C 364.543 -1.70187 1.59871 0
M  V30 3932 C 365.524 -1.64066 0.449042 0
M  V30 3933 O 366.709 -1.82081 0.6753 0
M  V30 3934 C 363.839 -3.08827 1.58881 0
M  V30 3935 C 362.793 -3.29779 2.72819 0
M  V30 3936 C 362.119 -4.68947 2.5689 0
M  V30 3937 C 363.419 -3.17601 4.1464 0
M  V30 3938 H 365.113 -1.592 2.53566 0
M  V30 3939 H 362.659 -0.764472 1.22032 0
M  V30 3940 H 364.612 -3.86951 1.66873 0
M  V30 3941 H 363.336 -3.20713 0.617306 0
M  V30 3942 H 361.995 -2.54054 2.64296 0
M  V30 3943 H 361.643 -4.77599 1.57823 0
M  V30 3944 H 361.343 -4.83919 3.33312 0
M  V30 3945 H 362.867 -5.4924 2.66773 0
M  V30 3946 H 364.281 -3.8557 4.24274 0
M  V30 3947 H 362.678 -3.44094 4.9165 0
M  V30 3948 H 363.748 -2.14681 4.34788 0
M  V30 3949 N 365.091 -1.34144 -0.827227 0
M  V30 3950 C 366.507 -1.13732 -1.11969 0
M  V30 3951 C 366.707 0.0640463 -2.01398 0
M  V30 3952 O 365.763 0.740856 -2.41387 0
M  V30 3953 C 367.076 -2.43047 -1.77055 0
M  V30 3954 C 368.624 -2.49063 -1.89569 0
M  V30 3955 C 369.099 -3.78369 -2.58072 0
M  V30 3956 N 370.59 -3.79505 -2.65575 0
M  V30 3957 C 371.325 -4.76274 -3.19297 0
M  V30 3958 N 370.821 -5.83424 -3.73616 0
M  V30 3959 N 372.614 -4.63735 -3.17658 0
M  V30 3960 H 364.765 -2.11126 -0.232296 0
M  V30 3961 H 367.028 -0.933424 -0.165602 0
M  V30 3962 H 366.734 -3.31025 -1.18807 0
M  V30 3963 H 366.608 -2.56066 -2.76966 0
M  V30 3964 H 368.995 -1.61527 -2.46968 0
M  V30 3965 H 369.076 -2.39975 -0.885745 0
M  V30 3966 H 368.72 -4.66293 -2.01329 0
M  V30 3967 H 368.65 -3.84737 -3.59562 0
M  V30 3968 H 371.141 -3.02074 -2.27068 0
M  V30 3969 H 371.454 -6.53282 -4.12846 0
M  V30 3970 H 369.799 -5.87143 -3.71871 0
M  V30 3971 H 372.99 -3.79177 -2.74486 0
M  V30 3972 H 373.163 -5.39318 -3.59221 0
M  V30 3973 N 366.569 1.04691 -1.17803 0
M  V30 3974 C 367.479 2.16057 -0.914151 0
M  V30 3975 C 368.495 1.73589 0.119503 0
M  V30 3976 O 369.671 2.01308 -0.0609468 0
M  V30 3977 C 366.736 3.4394 -0.436603 0
M  V30 3978 C 365.797 4.00825 -1.53746 0
M  V30 3979 C 365.03 5.22604 -1.0826 0
M  V30 3980 O 365.253 5.70367 0.0612244 0
M  V30 3981 O 364.187 5.7186 -1.87775 0
M  V30 3982 H 368.013 2.41169 -1.84584 0
M  V30 3983 H 365.598 1.1453 -0.959334 0
M  V30 3984 H 367.48 4.21024 -0.178057 0
M  V30 3985 H 366.155 3.20316 0.466869 0
M  V30 3986 H 365.062 3.25158 -1.84995 0
M  V30 3987 H 366.395 4.28778 -2.41683 0
M  V30 3988 N 368.047 0.979072 1.23499 0
M  V30 3989 C 369.01 0.523244 2.23147 0
M  V30 3990 C 370.01 -0.386406 1.56088 0
M  V30 3991 O 371.2 -0.180283 1.73265 0
M  V30 3992 C 368.332 -0.240739 3.40049 0
M  V30 3993 H 369.525 1.40432 2.64989 0
M  V30 3994 H 367.078 0.764824 1.36309 0
M  V30 3995 H 367.813 -1.13841 3.03662 0
M  V30 3996 H 367.598 0.412207 3.89927 0
M  V30 3997 H 369.088 -0.548297 4.13985 0
M  V30 3998 N 369.525 -1.3858 0.750561 0
M  V30 3999 C 370.771 -2.00481 0.305825 0
M  V30 4000 C 371.104 -1.5944 -1.10872 0
M  V30 4001 O 370.379 -0.83052 -1.75877 0
M  V30 4002 C 370.662 -3.5758 0.425287 0
M  V30 4003 C 370.515 -4.08594 1.88072 0
M  V30 4004 C 371.834 -4.39719 -0.183122 0
M  V30 4005 H 368.953 -0.728348 0.112598 0
M  V30 4006 H 371.595 -1.64566 0.949638 0
M  V30 4007 H 369.745 -3.88306 -0.122828 0
M  V30 4008 H 371.417 -3.88523 2.48691 0
M  V30 4009 H 369.66 -3.61574 2.39681 0
M  V30 4010 H 370.331 -5.177 1.91548 0
M  V30 4011 H 372.807 -4.15128 0.284303 0
M  V30 4012 H 371.683 -5.48856 -0.0692757 0
M  V30 4013 H 371.944 -4.23434 -1.27106 0
M  V30 4014 N 371.003 -0.499398 -1.49478 0
M  V30 4015 C 372.414 -0.051215 -1.8663 0
M  V30 4016 C 372.765 1.36238 -1.41186 0
M  V30 4017 O 371.89 2.01502 -0.789051 0
M  V30 4018 C 372.485 -0.0861651 -3.3869 0
M  V30 4019 C 371.044 0.30667 -3.75149 0
M  V30 4020 C 370.191 -0.459397 -2.73468 0
M  V30 4021 H 373.142 -0.712264 -1.41818 0
M  V30 4022 H 373.163 0.709507 -3.73826 0
M  V30 4023 H 372.675 -1.11512 -3.71735 0
M  V30 4024 H 370.776 1.33892 -3.47712 0
M  V30 4025 H 370.889 -0.0116669 -4.79099 0
M  V30 4026 H 369.253 0.0905645 -2.54539 0
M  V30 4027 H 370.036 -1.4884 -3.09357 0
M  V30 4028 N 372.481 1.55866 -0.233164 0
M  V30 4029 C 373.729 1.9821 0.394593 0
M  V30 4030 C 374.05 1.12234 1.59463 0
M  V30 4031 O 373.32 0.201981 1.94856 0
M  V30 4032 H 371.9 0.732034 0.148778 0
M  V30 4033 H 374.562 1.92107 -0.32876 0
M  V30 4034 H 373.658 3.03845 0.713063 0
M  V30 4035 N 373.959 -0.0401083 1.57549 0
M  V30 4036 C 375.187 -0.745196 1.93014 0
M  V30 4037 C 375.602 -1.6948 0.831984 0
M  V30 4038 O 374.959 -1.81482 -0.192463 0
M  V30 4039 C 375.01 -1.51176 3.28372 0
M  V30 4040 O 374.731 -0.600284 4.33968 0
M  V30 4041 C 376.232 -2.315 3.78051 0
M  V30 4042 H 373.452 -0.210088 0.637263 0
M  V30 4043 H 375.996 -0.000924689 2.045 0
M  V30 4044 H 374.151 -2.20801 3.18317 0
M  V30 4045 H 374.565 -1.13669 5.12035 0
M  V30 4046 H 376.039 -2.80697 4.75303 0
M  V30 4047 H 376.516 -3.12436 3.08675 0
M  V30 4048 H 377.122 -1.66971 3.91153 0
M  V30 4049 N 375.437 -1.54477 -0.31217 0
M  V30 4050 C 376.367 -1.87652 -1.38957 0
M  V30 4051 C 377.348 -0.734358 -1.53431 0
M  V30 4052 O 378.533 -0.98911 -1.67123 0
M  V30 4053 C 375.663 -2.11396 -2.75552 0
M  V30 4054 C 374.617 -3.27243 -2.75855 0
M  V30 4055 C 373.943 -3.36382 -4.15633 0
M  V30 4056 C 375.243 -4.64622 -2.38587 0
M  V30 4057 H 376.937 -2.77887 -1.11442 0
M  V30 4058 H 374.483 -1.33707 -0.534655 0
M  V30 4059 H 376.436 -2.33189 -3.51 0
M  V30 4060 H 375.16 -1.17921 -3.04569 0
M  V30 4061 H 373.819 -3.05356 -2.02863 0
M  V30 4062 H 373.467 -2.40445 -4.41809 0
M  V30 4063 H 373.167 -4.14249 -4.1674 0
M  V30 4064 H 374.691 -3.60422 -4.92877 0
M  V30 4065 H 376.105 -4.86219 -3.03749 0
M  V30 4066 H 374.502 -5.45121 -2.50925 0
M  V30 4067 H 375.572 -4.66097 -1.33723 0
M  V30 4068 N 376.915 0.57481 -1.46744 0
M  V30 4069 C 378.331 0.898981 -1.31873 0
M  V30 4070 C 378.531 1.99313 -0.29605 0
M  V30 4071 O 377.587 2.50728 0.298621 0
M  V30 4072 C 378.9 1.30886 -2.7072 0
M  V30 4073 C 380.448 1.42127 -2.78871 0
M  V30 4074 C 380.923 1.86478 -4.18318 0
M  V30 4075 N 382.414 1.93658 -4.20774 0
M  V30 4076 C 383.149 2.29267 -5.2557 0
M  V30 4077 N 382.645 2.63612 -6.40688 0
M  V30 4078 N 384.438 2.29889 -5.1294 0
M  V30 4079 H 376.589 -0.147839 -2.11885 0
M  V30 4080 H 378.852 -0.00347013 -0.947994 0
M  V30 4081 H 378.558 0.578853 -3.46904 0
M  V30 4082 H 378.432 2.26874 -3.01343 0
M  V30 4083 H 380.819 2.14213 -2.0297 0
M  V30 4084 H 380.9 0.443705 -2.51922 0
M  V30 4085 H 380.544 1.14968 -4.94717 0
M  V30 4086 H 380.474 2.85207 -4.42679 0
M  V30 4087 H 382.965 1.69574 -3.37718 0
M  V30 4088 H 383.278 2.89759 -7.16421 0
M  V30 4089 H 381.623 2.61232 -6.44036 0
M  V30 4090 H 384.814 2.02485 -4.22039 0
M  V30 4091 H 384.987 2.57312 -5.94722 0
M  V30 4092 N 378.394 1.34581 0.820102 0
M  V30 4093 C 379.357 1.2628 1.91275 0
M  V30 4094 C 380.357 0.177344 1.59819 0
M  V30 4095 O 381.547 0.430156 1.68806 0
M  V30 4096 C 378.679 0.950327 3.27386 0
M  V30 4097 H 379.872 2.23421 2.00057 0
M  V30 4098 H 377.425 1.1891 1.0144 0
M  V30 4099 H 378.16 -0.0177938 3.24295 0
M  V30 4100 H 377.945 1.73549 3.51601 0
M  V30 4101 H 379.435 0.917492 4.07396 0
M  V30 4102 N 379.872 -1.04064 1.18357 0
M  V30 4103 C 381.288 -1.2947 0.933258 0
M  V30 4104 C 381.488 -1.97466 -0.401169 0
M  V30 4105 O 380.544 -2.25528 -1.13549 0
M  V30 4106 C 381.857 -2.15337 2.09882 0
M  V30 4107 C 383.405 -2.28683 2.13712 0
M  V30 4108 C 383.88 -3.17917 3.29686 0
M  V30 4109 N 385.371 -3.25504 3.29547 0
M  V30 4110 C 386.106 -3.94706 4.15926 0
M  V30 4111 N 385.602 -4.66239 5.12439 0
M  V30 4112 N 387.395 -3.90986 4.0384 0
M  V30 4113 H 379.546 -0.583359 2.04232 0
M  V30 4114 H 381.809 -0.319921 0.892387 0
M  V30 4115 H 381.515 -1.72682 3.06389 0
M  V30 4116 H 381.389 -3.16015 2.05947 0
M  V30 4117 H 383.776 -2.70575 1.17784 0
M  V30 4118 H 383.857 -1.27596 2.21705 0
M  V30 4119 H 383.501 -2.76736 4.25887 0
M  V30 4120 H 383.431 -4.19036 3.1893 0
M  V30 4121 H 385.922 -2.74547 2.59677 0
M  V30 4122 H 386.235 -5.16638 5.74722 0
M  V30 4123 H 384.58 -4.65143 5.16398 0
M  V30 4124 H 387.771 -3.34234 3.27727 0
M  V30 4125 H 387.944 -4.44646 4.71375 0
M  V30 4126 N 381.35 -0.985608 -1.22978 0
M  V30 4127 C 382.766 -0.695104 -1.43668 0
M  V30 4128 C 382.966 0.736866 -1.87543 0
M  V30 4129 O 382.022 1.50868 -2.02473 0
M  V30 4130 C 383.335 -1.69447 -2.48412 0
M  V30 4131 C 384.883 -1.70909 -2.62219 0
M  V30 4132 C 385.358 -2.6969 -3.70178 0
M  V30 4133 N 386.849 -2.6824 -3.77626 0
M  V30 4134 C 387.584 -3.41339 -4.60733 0
M  V30 4135 N 387.08 -4.24015 -5.4789 0
M  V30 4136 N 388.873 -3.30079 -4.54977 0
M  V30 4137 H 381.024 -1.91054 -0.928016 0
M  V30 4138 H 383.287 -0.823553 -0.469536 0
M  V30 4139 H 382.993 -2.7188 -2.23102 0
M  V30 4140 H 382.867 -1.48147 -3.46889 0
M  V30 4141 H 385.254 -0.691785 -2.86877 0
M  V30 4142 H 385.335 -1.96276 -1.6404 0
M  V30 4143 H 384.979 -3.71566 -3.46268 0
M  V30 4144 H 384.909 -2.41595 -4.67909 0
M  V30 4145 H 387.4 -2.08243 -3.15346 0
M  V30 4146 H 387.713 -4.76636 -6.08308 0
M  V30 4147 H 386.058 -4.28104 -5.47496 0
M  V30 4148 H 389.249 -2.64937 -3.85909 0
M  V30 4149 H 389.422 -3.87308 -5.19516 0
M  V30 4150 N 382.828 1.3818 -0.7579 0
M  V30 4151 C 384.076 1.99624 -0.315361 0
M  V30 4152 C 384.397 1.60464 1.10799 0
M  V30 4153 O 383.667 0.863507 1.75842 0
M  V30 4154 H 382.247 0.73831 -0.113611 0
M  V30 4155 H 384.909 1.68878 -0.972952 0
M  V30 4156 H 384.005 3.09754 -0.381931 0
M  V30 4157 N 384.306 0.507319 1.49211 0
M  V30 4158 C 385.216 -0.272136 2.33016 0
M  V30 4159 C 386.232 -0.961206 1.45041 0
M  V30 4160 O 387.408 -0.941191 1.78055 0
M  V30 4161 C 384.473 -1.31895 3.20631 0
M  V30 4162 C 383.534 -0.642648 4.24463 0
M  V30 4163 C 382.767 -1.63959 5.07891 0
M  V30 4164 O 382.99 -2.87007 4.92933 0
M  V30 4165 O 381.924 -1.19143 5.8999 0
M  V30 4166 H 385.75 0.413982 3.00865 0
M  V30 4167 H 383.335 0.268556 1.46966 0
M  V30 4168 H 385.217 -1.92446 3.7489 0
M  V30 4169 H 383.892 -1.98788 2.5547 0
M  V30 4170 H 382.799 0.00276252 3.741 0
M  V30 4171 H 384.132 -0.0160534 4.92197 0
M  V30 4172 N 385.784 -1.5574 0.241426 0
M  V30 4173 C 387.032 -1.98417 -0.384075 0
M  V30 4174 C 387.353 -1.13078 -1.58866 0
M  V30 4175 O 386.623 -0.212312 -1.94746 0
M  V30 4176 H 385.203 -0.732813 -0.144894 0
M  V30 4177 H 387.865 -1.9193 0.338943 0
M  V30 4178 H 386.961 -3.04219 -0.696939 0
M  V30 4179 N 387.262 0.0317525 -1.57568 0
M  V30 4180 C 388.511 0.722131 -1.8833 0
M  V30 4181 C 388.824 1.76664 -0.839587 0
M  V30 4182 O 390.03 2.50942 -1.03635 0
M  V30 4183 C 388.486 1.33544 -3.34207 0
M  V30 4184 C 388.094 0.327415 -4.46802 0
M  V30 4185 C 389.838 2.00585 -3.7412 0
M  V30 4186 C 387.745 0.948915 -5.83738 0
M  V30 4187 H 386.675 0.273466 -0.702661 0
M  V30 4188 H 389.326 -0.0235811 -1.83485 0
M  V30 4189 H 387.708 2.13077 -3.33788 0
M  V30 4190 H 388.882 -0.441006 -4.58685 0
M  V30 4191 H 387.197 -0.240758 -4.15703 0
M  V30 4192 H 389.794 2.47932 -4.73744 0
M  V30 4193 H 390.137 2.82285 -3.05975 0
M  V30 4194 H 390.67 1.27831 -3.76702 0
M  V30 4195 H 387.409 0.171387 -6.55276 0
M  V30 4196 H 386.929 1.68724 -5.7558 0
M  V30 4197 H 388.608 1.45705 -6.3038 0
M  V30 4198 N 388.74 1.54641 0.303973 0
M  V30 4199 C 389.672 1.81754 1.39636 0
M  V30 4200 C 390.685 0.70035 1.46966 0
M  V30 4201 O 391.874 0.97778 1.49338 0
M  V30 4202 C 388.974 1.93785 2.7803 0
M  V30 4203 C 388.147 3.24156 2.93669 0
M  V30 4204 C 387.206 3.26641 4.12544 0
M  V30 4205 O 386.232 4.00187 4.04771 0
M  V30 4206 N 387.434 2.5182 5.23036 0
M  V30 4207 H 390.199 2.76031 1.16734 0
M  V30 4208 H 387.76 1.54178 0.494033 0
M  V30 4209 H 389.752 1.92852 3.55795 0
M  V30 4210 H 388.322 1.06515 2.93893 0
M  V30 4211 H 387.542 3.37887 2.03042 0
M  V30 4212 H 388.83 4.10195 3.01027 0
M  V30 4213 H 388.228 1.91692 5.32232 0
M  V30 4214 H 386.785 2.56644 5.99147 0
M  V30 4215 N 390.218 -0.567019 1.47046 0
M  V30 4216 C 391.181 -1.65696 1.58359 0
M  V30 4217 C 392.181 -1.54097 0.459441 0
M  V30 4218 O 393.371 -1.58432 0.724225 0
M  V30 4219 C 390.503 -3.05197 1.51879 0
M  V30 4220 H 391.696 -1.57019 2.5551 0
M  V30 4221 H 389.249 -0.786148 1.3509 0
M  V30 4222 H 389.984 -3.19417 0.560673 0
M  V30 4223 H 389.769 -3.15025 2.33455 0
M  V30 4224 H 391.259 -3.84511 1.62913 0
M  V30 4225 N 391.696 -1.35014 -0.812953 0
M  V30 4226 C 393.107 -1.25035 -1.38648 0
M  V30 4227 C 393.458 0.119967 -1.95833 0
M  V30 4228 O 392.583 1.02069 -1.90816 0
M  V30 4229 C 393.178 -2.26394 -2.52054 0
M  V30 4230 C 391.737 -2.20175 -3.05287 0
M  V30 4231 C 390.884 -2.12451 -1.78213 0
M  V30 4232 H 393.835 -1.46235 -0.616516 0
M  V30 4233 H 393.856 -1.88672 -3.30429 0
M  V30 4234 H 393.368 -3.26116 -2.10404 0
M  V30 4235 H 391.469 -1.23841 -3.51417 0
M  V30 4236 H 391.582 -3.11863 -3.63701 0
M  V30 4237 H 389.946 -1.58328 -1.9951 0
M  V30 4238 H 390.729 -3.14024 -1.38723 0
M  V30 4239 N 393.175 1.03435 -1.18907 0
M  V30 4240 C 394.4 1.80919 -1.01406 0
M  V30 4241 C 394.825 1.83055 0.432721 0
M  V30 4242 O 394.183 1.25252 1.31079 0
M  V30 4243 C 394.231 3.24091 -1.58105 0
M  V30 4244 O 393.335 4.04434 -0.806669 0
M  V30 4245 H 392.676 0.558709 -0.358803 0
M  V30 4246 H 395.206 1.30223 -1.57807 0
M  V30 4247 H 395.216 3.74853 -1.61087 0
M  V30 4248 H 393.891 3.21851 -2.6341 0
M  V30 4249 H 392.468 3.63091 -0.849666 0
M  V30 4250 N 394.653 0.992116 1.22453 0
M  V30 4251 C 395.9 0.667534 1.91181 0
M  V30 4252 C 396.228 -0.800317 1.77271 0
M  V30 4253 O 395.483 -1.59421 1.13505 0
M  V30 4254 C 395.782 1.01832 3.42586 0
M  V30 4255 C 395.448 2.47831 3.76684 0
M  V30 4256 C 394.11 2.87729 3.85701 0
M  V30 4257 C 396.462 3.42466 3.92895 0
M  V30 4258 C 393.79 4.21252 4.08367 0
M  V30 4259 C 396.142 4.75648 4.17064 0
M  V30 4260 C 394.806 5.15288 4.24305 0
M  V30 4261 H 394.076 0.244268 0.699581 0
M  V30 4262 H 396.723 1.24816 1.45235 0
M  V30 4263 H 395.028 0.355769 3.90181 0
M  V30 4264 H 396.725 0.745228 3.94014 0
M  V30 4265 H 393.315 2.15905 3.70247 0
M  V30 4266 H 397.499 3.12814 3.85307 0
M  V30 4267 H 392.755 4.51554 4.122 0
M  V30 4268 H 396.929 5.48924 4.2855 0
M  V30 4269 H 394.556 6.18769 4.41621 0
M  V30 4270 N 396.131 -1.37776 0.765217 0
M  V30 4271 C 397.356 -2.04651 0.336537 0
M  V30 4272 C 397.781 -1.57337 -1.03086 0
M  V30 4273 O 397.139 -0.730621 -1.65927 0
M  V30 4274 C 397.187 -3.58577 0.381468 0
M  V30 4275 O 396.291 -4.07706 -0.62042 0
M  V30 4276 H 395.632 -0.64756 0.146838 0
M  V30 4277 H 398.162 -1.76221 1.03959 0
M  V30 4278 H 398.172 -4.07314 0.236448 0
M  V30 4279 H 396.847 -3.9237 1.37907 0
M  V30 4280 H 395.424 -3.70306 -0.439056 0
M  V30 4281 N 397.609 -0.515225 -1.4894 0
M  V30 4282 C 398.834 0.022727 -2.07388 0
M  V30 4283 C 399.259 1.2876 -1.37122 0
M  V30 4284 O 398.617 1.76067 -0.432431 0
M  V30 4285 C 398.665 0.244869 -3.59768 0
M  V30 4286 O 397.769 1.31667 -3.90817 0
M  V30 4287 H 397.11 -0.0325506 -0.663202 0
M  V30 4288 H 399.64 -0.718918 -1.91553 0
M  V30 4289 H 399.65 0.47205 -4.0526 0
M  V30 4290 H 398.325 -0.679194 -4.10317 0
M  V30 4291 H 396.902 1.07331 -3.5712 0
M  V30 4292 N 399.087 1.5561 -0.249682 0
M  V30 4293 C 400.317 2.03116 0.377803 0
M  V30 4294 C 400.725 1.12822 1.51881 0
M  V30 4295 O 400.068 0.13562 1.83199 0
M  V30 4296 C 400.13 3.46866 0.944693 0
M  V30 4297 C 399.794 4.56955 -0.0644259 0
M  V30 4298 C 400.791 5.12485 -0.874957 0
M  V30 4299 C 398.476 5.01936 -0.19132 0
M  V30 4300 C 400.47 6.11491 -1.79881 0
M  V30 4301 C 398.157 6.00773 -1.11868 0
M  V30 4302 C 399.155 6.5543 -1.92095 0
M  V30 4303 O 398.843 7.5234 -2.83267 0
M  V30 4304 H 398.575 0.669489 0.0935961 0
M  V30 4305 H 401.129 2.02004 -0.371966 0
M  V30 4306 H 399.359 3.45136 1.74407 0
M  V30 4307 H 401.048 3.77856 1.48255 0
M  V30 4308 H 401.814 4.78564 -0.787523 0
M  V30 4309 H 397.693 4.59055 0.423072 0
M  V30 4310 H 401.237 6.54078 -2.42543 0
M  V30 4311 H 397.134 6.34114 -1.20703 0
M  V30 4312 H 397.902 7.69966 -2.7766 0
M  V30 4313 N 400.565 -0.0233959 1.57583 0
M  V30 4314 C 401.495 -1.02162 2.09965 0
M  V30 4315 C 402.476 -1.3735 1.00344 0
M  V30 4316 O 403.661 -1.46135 1.27899 0
M  V30 4317 C 400.791 -2.32081 2.58371 0
M  V30 4318 C 399.745 -2.1112 3.72307 0
M  V30 4319 C 399.071 -3.46848 4.06941 0
M  V30 4320 C 400.371 -1.49276 5.00514 0
M  V30 4321 H 402.065 -0.585557 2.93618 0
M  V30 4322 H 399.611 -0.280218 1.41247 0
M  V30 4323 H 401.564 -3.02249 2.93639 0
M  V30 4324 H 400.288 -2.77758 1.71808 0
M  V30 4325 H 398.947 -1.43384 3.37397 0
M  V30 4326 H 398.595 -3.90184 3.17436 0
M  V30 4327 H 398.295 -3.33646 4.83688 0
M  V30 4328 H 399.819 -4.18369 4.44747 0
M  V30 4329 H 401.233 -2.09368 5.33702 0
M  V30 4330 H 399.63 -1.46632 5.8191 0
M  V30 4331 H 400.7 -0.459217 4.82721 0
M  V30 4332 N 402.043 -1.548 -0.295768 0
M  V30 4333 C 403.273 -1.78069 -1.04762 0
M  V30 4334 C 403.681 -0.542847 -1.81245 0
M  V30 4335 O 403.024 0.497051 -1.76848 0
M  V30 4336 C 403.086 -2.93881 -2.07061 0
M  V30 4337 C 402.75 -4.31777 -1.49725 0
M  V30 4338 C 403.747 -5.11613 -0.924581 0
M  V30 4339 C 401.432 -4.78389 -1.5313 0
M  V30 4340 C 403.426 -6.36184 -0.393594 0
M  V30 4341 C 401.113 -6.02921 -0.996447 0
M  V30 4342 C 402.111 -6.81654 -0.428569 0
M  V30 4343 O 401.799 -8.0384 0.0981593 0
M  V30 4344 H 401.531 -0.597475 -0.316226 0
M  V30 4345 H 404.085 -2.02584 -0.338973 0
M  V30 4346 H 402.315 -2.65003 -2.81621 0
M  V30 4347 H 404.004 -3.04679 -2.6819 0
M  V30 4348 H 404.77 -4.76743 -0.891136 0
M  V30 4349 H 400.649 -4.17132 -1.9627 0
M  V30 4350 H 404.193 -6.97582 0.0503014 0
M  V30 4351 H 400.09 -6.37277 -1.02706 0
M  V30 4352 H 400.858 -8.18499 -0.0146455 0
M  V30 4353 N 403.521 0.559213 -1.47345 0
M  V30 4354 C 404.768 1.31648 -1.53867 0
M  V30 4355 C 405.096 1.93468 -0.200104 0
M  V30 4356 O 404.351 1.78295 0.806799 0
M  V30 4357 C 404.65 2.44853 -2.6035 0
M  V30 4358 C 404.316 2.00876 -4.03683 0
M  V30 4359 C 402.978 1.88599 -4.42701 0
M  V30 4360 C 405.33 1.67279 -4.93626 0
M  V30 4361 C 402.658 1.41017 -5.69501 0
M  V30 4362 C 405.01 1.21169 -6.20887 0
M  V30 4363 C 403.674 1.07487 -6.58789 0
M  V30 4364 H 402.944 0.481734 -0.56304 0
M  V30 4365 H 405.591 0.627301 -1.80934 0
M  V30 4366 H 403.896 3.19318 -2.27032 0
M  V30 4367 H 405.593 3.03039 -2.62619 0
M  V30 4368 H 402.183 2.11374 -3.72853 0
M  V30 4369 H 406.367 1.75638 -4.64182 0
M  V30 4370 H 401.623 1.29086 -5.97618 0
M  V30 4371 H 405.797 0.942345 -6.89995 0
M  V30 4372 H 403.424 0.703946 -7.56934 0
M  V30 4373 N 404.999 1.35443 0.805782 0
M  V30 4374 C 405.929 1.31095 1.93226 0
M  V30 4375 C 406.91 0.185244 1.69088 0
M  V30 4376 O 408.095 0.380332 1.90439 0
M  V30 4377 C 405.225 1.08299 3.29983 0
M  V30 4378 C 404.179 2.17519 3.68605 0
M  V30 4379 C 403.505 1.79887 5.03532 0
M  V30 4380 C 404.805 3.5949 3.78898 0
M  V30 4381 H 406.499 2.25352 1.97122 0
M  V30 4382 H 404.045 1.0848 0.946996 0
M  V30 4383 H 405.998 1.03897 4.08391 0
M  V30 4384 H 404.722 0.104885 3.26432 0
M  V30 4385 H 403.381 2.2102 2.92482 0
M  V30 4386 H 403.029 0.80693 4.96485 0
M  V30 4387 H 402.729 2.53001 5.30344 0
M  V30 4388 H 404.253 1.77011 5.84379 0
M  V30 4389 H 405.667 3.58307 4.47536 0
M  V30 4390 H 404.064 4.31371 4.1718 0
M  V30 4391 H 405.134 3.95584 2.80431 0
M  V30 4392 N 406.477 -1.02803 1.19454 0
M  V30 4393 C 407.724 -1.76217 0.997693 0
M  V30 4394 C 408.052 -1.887 -0.47144 0
M  V30 4395 O 407.307 -1.4011 -1.3663 0
M  V30 4396 C 407.606 -3.18941 1.6128 0
M  V30 4397 C 407.272 -3.26463 3.11019 0
M  V30 4398 C 405.934 -3.28223 3.51885 0
M  V30 4399 C 408.286 -3.25542 4.07028 0
M  V30 4400 C 405.614 -3.26719 4.8731 0
M  V30 4401 C 407.966 -3.25579 5.42385 0
M  V30 4402 C 406.63 -3.25637 5.82681 0
M  V30 4403 H 405.9 -0.644823 0.365082 0
M  V30 4404 H 408.547 -1.20655 1.4871 0
M  V30 4405 H 406.852 -3.77587 1.04572 0
M  V30 4406 H 408.549 -3.74415 1.43577 0
M  V30 4407 H 405.139 -3.25822 2.78457 0
M  V30 4408 H 409.323 -3.23362 3.76498 0
M  V30 4409 H 404.579 -3.25089 5.1781 0
M  V30 4410 H 408.753 -3.23817 6.16535 0
M  V30 4411 H 406.38 -3.24226 6.87591 0
M  V30 4412 N 407.956 -0.998596 -1.21925 0
M  V30 4413 C 409.196 -0.685948 -1.92546 0
M  V30 4414 C 409.56 0.768441 -1.75952 0
M  V30 4415 O 410.761 1.19277 -2.40887 0
M  V30 4416 C 409.032 -1.08767 -3.40448 0
M  V30 4417 S 410.591 -0.894251 -4.29591 0
M  V30 4418 H 407.409 -0.250622 -0.665364 0
M  V30 4419 H 410.011 -1.28207 -1.47591 0
M  V30 4420 H 408.715 -2.14242 -3.50041 0
M  V30 4421 H 408.246 -0.48357 -3.90417 0
M  V30 4422 H 410.261 0.212149 -4.95746 0
M  V30 4423 N 409.434 1.37368 -0.772513 0
M  V30 4424 C 410.845 1.8231 -0.402493 0
M  V30 4425 C 411.196 1.6436 1.07146 0
M  V30 4426 O 410.321 1.15514 1.82991 0
M  V30 4427 C 410.916 3.30979 -0.723776 0
M  V30 4428 C 409.475 3.74195 -0.406802 0
M  V30 4429 C 408.622 2.59885 -0.967218 0
M  V30 4430 H 411.573 1.25829 -0.967099 0
M  V30 4431 H 411.594 3.80499 -0.00870832 0
M  V30 4432 H 411.106 3.44011 -1.7966 0
M  V30 4433 H 409.207 3.66732 0.658673 0
M  V30 4434 H 409.32 4.7027 -0.915588 0
M  V30 4435 H 407.684 2.51674 -0.391416 0
M  V30 4436 H 408.467 2.7571 -2.04546 0
M  V30 4437 N 410.912 0.523116 1.48665 0
M  V30 4438 C 412.14 -0.0096312 2.06898 0
M  V30 4439 C 412.555 -1.28784 1.38059 0
M  V30 4440 O 411.912 -1.76453 0.465893 0
M  V30 4441 C 411.963 -0.244386 3.60673 0
M  V30 4442 O 411.684 0.983172 4.26925 0
M  V30 4443 C 413.185 -0.818289 4.35682 0
M  V30 4444 H 410.405 0.0304161 0.67031 0
M  V30 4445 H 412.949 0.726799 1.91149 0
M  V30 4446 H 411.104 -0.930847 3.76051 0
M  V30 4447 H 411.518 0.759653 5.1897 0
M  V30 4448 H 412.992 -0.93201 5.44075 0
M  V30 4449 H 413.469 -1.82153 3.99646 0
M  V30 4450 H 414.075 -0.168609 4.24966 0
M  V30 4451 N 412.39 -1.55475 0.257931 0
M  V30 4452 C 413.32 -2.24815 -0.630912 0
M  V30 4453 C 414.301 -1.23224 -1.17259 0
M  V30 4454 O 415.486 -1.51904 -1.20991 0
M  V30 4455 C 412.616 -2.95609 -1.82298 0
M  V30 4456 C 411.57 -4.03982 -1.41359 0
M  V30 4457 C 410.896 -4.6226 -2.68738 0
M  V30 4458 C 412.196 -5.19109 -0.57648 0
M  V30 4459 H 413.89 -2.99354 -0.0526878 0
M  V30 4460 H 411.436 -1.4398 -0.023901 0
M  V30 4461 H 413.389 -3.42822 -2.45054 0
M  V30 4462 H 412.113 -2.18577 -2.42676 0
M  V30 4463 H 410.772 -3.57555 -0.809324 0
M  V30 4464 H 410.42 -3.81915 -3.27338 0
M  V30 4465 H 410.12 -5.35424 -2.42065 0
M  V30 4466 H 411.644 -5.12212 -3.32372 0
M  V30 4467 H 413.058 -5.62479 -1.10861 0
M  V30 4468 H 411.455 -5.98729 -0.405351 0
M  V30 4469 H 412.525 -4.83174 0.408776 0
M  V30 4470 N 413.868 0.0150385 -1.57593 0
M  V30 4471 C 415.117 0.702115 -1.89085 0
M  V30 4472 C 415.43 1.75764 -0.858277 0
M  V30 4473 O 416.636 2.49829 -1.0629 0
M  V30 4474 C 415.092 1.29992 -3.35604 0
M  V30 4475 C 414.7 0.280007 -4.47124 0
M  V30 4476 C 416.444 1.96606 -3.76227 0
M  V30 4477 C 414.351 0.886949 -5.84711 0
M  V30 4478 H 413.281 0.265997 -0.705522 0
M  V30 4479 H 415.932 -0.0430408 -1.8345 0
M  V30 4480 H 414.314 2.09525 -3.36029 0
M  V30 4481 H 415.488 -0.489631 -4.58191 0
M  V30 4482 H 413.803 -0.284835 -4.15425 0
M  V30 4483 H 416.4 2.42893 -4.76347 0
M  V30 4484 H 416.743 2.79024 -3.08952 0
M  V30 4485 H 417.276 1.23828 -3.78036 0
M  V30 4486 H 414.015 0.101876 -6.55421 0
M  V30 4487 H 413.535 1.6261 -5.77337 0
M  V30 4488 H 415.214 1.39011 -6.3189 0
M  V30 4489 N 415.346 1.54954 0.287554 0
M  V30 4490 C 416.576 1.78622 1.03816 0
M  V30 4491 C 416.984 0.552451 1.80955 0
M  V30 4492 O 416.327 -0.487665 1.77109 0
M  V30 4493 C 416.389 2.94975 2.055 0
M  V30 4494 C 416.053 4.32565 1.47433 0
M  V30 4495 C 417.05 5.12096 0.897436 0
M  V30 4496 C 414.735 4.79195 1.50591 0
M  V30 4497 C 416.729 6.36383 0.359851 0
M  V30 4498 C 414.416 6.03441 0.964459 0
M  V30 4499 C 415.414 6.81872 0.392413 0
M  V30 4500 O 415.102 8.03777 -0.140788 0
M  V30 4501 H 414.834 0.599144 0.313053 0
M  V30 4502 H 417.388 2.02761 0.328225 0
M  V30 4503 H 415.618 2.66493 2.80211 0
M  V30 4504 H 417.307 3.06097 2.6657 0
M  V30 4505 H 418.073 4.77209 0.865841 0
M  V30 4506 H 413.952 4.18167 1.94055 0
M  V30 4507 H 417.496 6.97545 -0.0872951 0
M  V30 4508 H 413.393 6.37813 0.993246 0
M  V30 4509 H 414.161 8.18495 -0.0287617 0
M  V30 4510 N 416.824 -0.551391 1.4764 0
M  V30 4511 C 418.24 -0.877887 1.33287 0
M  V30 4512 C 418.44 -1.98817 0.327721 0
M  V30 4513 O 417.496 -2.51171 -0.258695 0
M  V30 4514 C 418.809 -1.26563 2.72768 0
M  V30 4515 C 420.357 -1.37673 2.81097 0
M  V30 4516 C 420.832 -1.79799 4.21232 0
M  V30 4517 N 422.323 -1.8694 4.23802 0
M  V30 4518 C 423.058 -2.20876 5.29151 0
M  V30 4519 N 422.554 -2.53386 6.448 0
M  V30 4520 N 424.347 -2.217 5.16532 0
M  V30 4521 H 416.498 0.18153 2.11623 0
M  V30 4522 H 418.761 0.0185514 0.947818 0
M  V30 4523 H 418.467 -0.523591 3.47781 0
M  V30 4524 H 418.341 -2.22052 3.04915 0
M  V30 4525 H 420.728 -2.10956 2.06353 0
M  V30 4526 H 420.809 -0.40357 2.52596 0
M  V30 4527 H 420.453 -1.07083 4.96483 0
M  V30 4528 H 420.383 -2.78128 4.4716 0
M  V30 4529 H 422.874 -1.64179 3.40373 0
M  V30 4530 H 423.187 -2.78325 7.20941 0
M  V30 4531 H 421.532 -2.50953 6.48111 0
M  V30 4532 H 424.723 -1.95745 4.25207 0
M  V30 4533 H 424.896 -2.47818 5.98741 0
M  V30 4534 N 418.302 -1.35869 -0.798587 0
M  V30 4535 C 419.212 -1.31578 -1.94228 0
M  V30 4536 C 420.228 -0.21939 -1.72611 0
M  V30 4537 O 421.404 -0.450167 -1.96305 0
M  V30 4538 C 418.469 -1.09528 -3.28944 0
M  V30 4539 C 417.53 -2.28556 -3.63402 0
M  V30 4540 C 416.763 -2.07549 -4.9169 0
M  V30 4541 O 416.986 -1.046 -5.60727 0
M  V30 4542 O 415.92 -2.95106 -5.24591 0
M  V30 4543 H 419.746 -2.27847 -2.00796 0
M  V30 4544 H 417.331 -1.16322 -0.937526 0
M  V30 4545 H 419.213 -0.991127 -4.09579 0
M  V30 4546 H 417.888 -0.16315 -3.23289 0
M  V30 4547 H 416.795 -2.44538 -2.83112 0
M  V30 4548 H 418.128 -3.20244 -3.73771 0
M  V30 4549 N 419.78 1.02168 -1.19998 0
M  V30 4550 C 421.008 1.79296 -1.03249 0
M  V30 4551 C 421.423 1.84103 0.418502 0
M  V30 4552 O 420.78 1.29031 1.29063 0
M  V30 4553 C 420.831 3.24007 -1.60319 0
M  V30 4554 O 420.552 3.19512 -2.99739 0
M  V30 4555 C 422.053 4.17704 -1.48453 0
M  V30 4556 H 419.273 0.564016 -0.363493 0
M  V30 4557 H 421.817 1.28639 -1.58973 0
M  V30 4558 H 419.972 3.7183 -1.08727 0
M  V30 4559 H 420.386 4.10306 -3.26725 0
M  V30 4560 H 421.86 5.17104 -1.93153 0
M  V30 4561 H 422.337 4.37029 -0.436193 0
M  V30 4562 H 422.943 3.7576 -1.99211 0
M  V30 4563 N 421.258 1.00505 1.21394 0
M  V30 4564 C 422.488 0.705584 1.94178 0
M  V30 4565 C 422.896 -0.735846 1.74304 0
M  V30 4566 O 422.239 -1.50954 1.04683 0
M  V30 4567 C 422.301 0.94689 3.46806 0
M  V30 4568 C 421.965 2.37517 3.90429 0
M  V30 4569 C 422.962 3.35539 3.97127 0
M  V30 4570 C 420.647 2.71284 4.22742 0
M  V30 4571 C 422.641 4.65395 4.3553 0
M  V30 4572 C 420.328 4.01356 4.60822 0
M  V30 4573 C 421.326 4.98223 4.67186 0
M  V30 4574 O 421.014 6.25969 5.04399 0
M  V30 4575 H 420.746 0.259216 0.624326 0
M  V30 4576 H 423.3 1.34592 1.55159 0
M  V30 4577 H 421.53 0.249386 3.85895 0
M  V30 4578 H 423.219 0.640804 4.0081 0
M  V30 4579 H 423.985 3.10786 3.7234 0
M  V30 4580 H 419.864 1.96581 4.16985 0
M  V30 4581 H 423.408 5.41002 4.40412 0
M  V30 4582 H 419.305 4.25893 4.85063 0
M  V30 4583 H 420.073 6.30085 5.22431 0
M  V30 4584 N 422.737 -1.36956 0.779787 0
M  V30 4585 C 424.148 -1.82094 0.412156 0
M  V30 4586 C 424.499 -1.64926 -1.06273 0
M  V30 4587 O 423.624 -1.16483 -1.82375 0
M  V30 4588 C 424.219 -3.3059 0.741319 0
M  V30 4589 C 422.778 -3.73974 0.426641 0
M  V30 4590 C 421.925 -2.59368 0.980987 0
M  V30 4591 H 424.876 -1.25314 0.973758 0
M  V30 4592 H 424.897 -3.80489 0.028887 0
M  V30 4593 H 424.409 -3.43054 1.81482 0
M  V30 4594 H 422.51 -3.67076 -0.639215 0
M  V30 4595 H 422.623 -4.69778 0.940515 0
M  V30 4596 H 420.987 -2.51463 0.404757 0
M  V30 4597 H 421.77 -2.74621 2.06005 0
M  V30 4598 N 424.215 -0.530993 -1.48385 0
M  V30 4599 C 425.631 -0.188919 -1.58478 0
M  V30 4600 C 425.831 1.30786 -1.53288 0
M  V30 4601 O 424.887 2.08619 -1.42248 0
M  V30 4602 C 426.2 -0.792343 -2.90073 0
M  V30 4603 C 427.748 -0.76117 -3.03604 0
M  V30 4604 C 428.223 -1.34319 -4.37861 0
M  V30 4605 N 429.714 -1.3052 -4.44431 0
M  V30 4606 C 430.449 -1.72543 -5.46824 0
M  V30 4607 N 429.945 -2.22299 -6.56167 0
M  V30 4608 N 431.738 -1.63773 -5.37712 0
M  V30 4609 H 423.889 -1.50377 -1.50002 0
M  V30 4610 H 426.152 -0.625559 -0.712306 0
M  V30 4611 H 425.858 -1.84323 -2.99529 0
M  V30 4612 H 425.732 -0.270026 -3.76232 0
M  V30 4613 H 428.119 0.280957 -2.93759 0
M  V30 4614 H 428.2 -1.32097 -2.19053 0
M  V30 4615 H 427.844 -2.38425 -4.4846 0
M  V30 4616 H 427.774 -0.759064 -5.21101 0
M  V30 4617 H 430.265 -0.940973 -3.65997 0
M  V30 4618 H 430.578 -2.52356 -7.30436 0
M  V30 4619 H 428.923 -2.26293 -6.57127 0
M  V30 4620 H 432.114 -1.24698 -4.51185 0
M  V30 4621 H 432.287 -1.96844 -6.17379 0
M  V30 4622 N 425.693 1.55336 -0.266172 0
M  V30 4623 C 426.921 2.03801 0.356756 0
M  V30 4624 C 427.336 1.14485 1.50129 0
M  V30 4625 O 426.693 0.163121 1.8177 0
M  V30 4626 C 426.744 3.51455 0.846281 0
M  V30 4627 O 426.465 4.37371 -0.252663 0
M  V30 4628 C 427.966 4.15767 1.53794 0
M  V30 4629 H 425.186 0.665906 0.0825218 0
M  V30 4630 H 427.73 2.00636 -0.39566 0
M  V30 4631 H 425.885 3.55092 1.54881 0
M  V30 4632 H 426.299 5.24358 0.122173 0
M  V30 4633 H 427.773 5.20714 1.83198 0
M  V30 4634 H 428.25 3.63404 2.46646 0
M  V30 4635 H 428.856 4.16107 0.879488 0
M  V30 4636 N 427.171 -0.0066808 1.57599 0
M  V30 4637 C 428.582 -0.550379 1.78403 0
M  V30 4638 C 428.933 -1.74339 0.900014 0
M  V30 4639 O 428.058 -2.16166 0.100713 0
M  V30 4640 C 428.653 -1.00523 3.23544 0
M  V30 4641 C 427.212 -1.49428 3.45468 0
M  V30 4642 C 426.359 -0.442444 2.73748 0
M  V30 4643 H 429.31 0.219508 1.57175 0
M  V30 4644 H 429.331 -1.87157 3.31289 0
M  V30 4645 H 428.843 -0.136735 3.87859 0
M  V30 4646 H 426.944 -2.3839 2.86358 0
M  V30 4647 H 427.057 -1.52635 4.54136 0
M  V30 4648 H 425.421 -0.902578 2.38171 0
M  V30 4649 H 426.204 0.416973 3.40758 0
M  V30 4650 N 428.649 -1.55105 -0.279332 0
M  V30 4651 C 429.879 -1.7917 -1.02867 0
M  V30 4652 C 430.287 -0.56204 -1.80659 0
M  V30 4653 O 429.63 0.478266 -1.77365 0
M  V30 4654 C 429.692 -2.96061 -2.03932 0
M  V30 4655 C 429.356 -4.33341 -1.45137 0
M  V30 4656 C 430.353 -5.12565 -0.870266 0
M  V30 4657 C 428.038 -4.79987 -1.48048 0
M  V30 4658 C 430.032 -6.36565 -0.326097 0
M  V30 4659 C 427.719 -6.03944 -0.932443 0
M  V30 4660 C 428.717 -6.8207 -0.356247 0
M  V30 4661 O 428.405 -8.03691 0.183412 0
M  V30 4662 H 428.137 -0.600796 -0.309872 0
M  V30 4663 H 430.691 -2.02932 -0.317468 0
M  V30 4664 H 428.921 -2.67975 -2.78794 0
M  V30 4665 H 430.61 -3.07506 -2.64943 0
M  V30 4666 H 431.376 -4.77661 -0.840521 0
M  V30 4667 H 427.255 -4.1919 -1.91835 0
M  V30 4668 H 430.799 -6.97489 0.124286 0
M  V30 4669 H 426.696 -6.3833 -0.959407 0
M  V30 4670 H 427.464 -8.18468 0.0721681 0
M  V30 4671 N 430.127 0.543554 -1.4793 0
M  V30 4672 C 431.373 1.30201 -1.55485 0
M  V30 4673 C 431.706 1.92925 -0.222201 0
M  V30 4674 O 430.981 1.78586 0.77053 0
M  V30 4675 C 431.264 2.40174 -2.68307 0
M  V30 4676 C 431.117 1.8223 -4.11233 0
M  V30 4677 C 432.436 3.42024 -2.76961 0
M  V30 4678 H 429.555 0.472036 -0.565996 0
M  V30 4679 H 432.197 0.606914 -1.80046 0
M  V30 4680 H 430.347 2.99463 -2.47495 0
M  V30 4681 H 432.019 1.27096 -4.43446 0
M  V30 4682 H 430.262 1.12832 -4.18869 0
M  V30 4683 H 430.933 2.61793 -4.85972 0
M  V30 4684 H 433.409 2.92672 -2.95774 0
M  V30 4685 H 432.285 4.16383 -3.57654 0
M  V30 4686 H 432.546 4.0173 -1.84568 0
M  V30 4687 N 431.605 1.3629 0.791371 0
M  V30 4688 C 433.021 1.16661 1.08914 0
M  V30 4689 C 433.221 -0.0106266 2.01497 0
M  V30 4690 O 432.277 -0.676596 2.43266 0
M  V30 4691 C 433.59 2.47656 1.70549 0
M  V30 4692 C 435.138 2.54002 1.82899 0
M  V30 4693 C 435.613 3.85078 2.47949 0
M  V30 4694 N 437.104 3.86413 2.5542 0
M  V30 4695 C 437.839 4.84572 3.06557 0
M  V30 4696 N 437.335 5.93124 3.58016 0
M  V30 4697 N 439.128 4.71994 3.05251 0
M  V30 4698 H 431.279 2.11668 0.176238 0
M  V30 4699 H 433.542 0.937486 0.140796 0
M  V30 4700 H 433.248 3.34059 1.09989 0
M  V30 4701 H 433.122 2.63319 2.70079 0
M  V30 4702 H 435.509 1.68018 2.42598 0
M  V30 4703 H 435.59 2.42239 0.821808 0
M  V30 4704 H 435.234 4.71467 1.88895 0
M  V30 4705 H 435.164 3.94135 3.49235 0
M  V30 4706 H 437.655 3.07988 2.18979 0
M  V30 4707 H 437.968 6.63999 3.95381 0
M  V30 4708 H 436.313 5.96796 3.56173 0
M  V30 4709 H 439.504 3.86321 2.64336 0
M  V30 4710 H 439.677 5.48653 3.44796 0
M  V30 4711 N 433.083 -1.0153 1.20538 0
M  V30 4712 C 434.329 -1.75517 1.02787 0
M  V30 4713 C 434.684 -1.87411 -0.435289 0
M  V30 4714 O 433.977 -1.38982 -1.31889 0
M  V30 4715 C 434.171 -3.17213 1.64654 0
M  V30 4716 C 434 -3.19134 3.16834 0
M  V30 4717 C 432.77 -3.26301 3.85818 0
M  V30 4718 C 434.968 -3.05077 4.14044 0
M  V30 4719 N 432.95 -3.17739 5.25276 0
M  V30 4720 C 434.321 -3.04299 5.40187 0
M  V30 4721 C 436.376 -2.89303 4.05226 0
M  V30 4722 C 435.079 -2.89365 6.58529 0
M  V30 4723 C 437.105 -2.75723 5.23193 0
M  V30 4724 C 436.467 -2.75612 6.48242 0
M  V30 4725 H 432.566 -0.652919 0.430373 0
M  V30 4726 H 435.15 -1.20755 1.52729 0
M  V30 4727 H 433.321 -3.70266 1.17294 0
M  V30 4728 H 435.053 -3.79637 1.40208 0
M  V30 4729 H 431.808 -3.33078 3.36684 0
M  V30 4730 H 432.232 -3.16829 5.98288 0
M  V30 4731 H 436.874 -2.88201 3.09354 0
M  V30 4732 H 434.592 -2.89216 7.54573 0
M  V30 4733 H 438.178 -2.64533 5.18183 0
M  V30 4734 H 437.058 -2.65224 7.37988 0
M  V30 4735 N 434.561 -1.01147 -1.20859 0
M  V30 4736 C 435.509 -0.57059 -2.25493 0
M  V30 4737 C 436.503 0.388109 -1.64894 0
M  V30 4738 O 437.709 0.258592 -1.78133 0
M  V30 4739 H 434.084 -0.166191 -0.733406 0
M  V30 4740 H 436.055 -1.46411 -2.60012 0
M  V30 4741 C 434.804 0.0805241 -3.47607 0
M  V30 4742 H 434.127 -0.648156 -3.94511 0
M  V30 4743 H 435.567 0.352197 -4.22535 0
M  V30 4744 C 434.026 1.32175 -3.09889 0
M  V30 4745 O 434.556 2.41553 -3.20959 0
M  V30 4746 N 432.762 1.20392 -2.64488 0
M  V30 4747 H 432.309 0.313905 -2.5568 0
M  V30 4748 H 432.267 2.03541 -2.39621 0
M  V30 4749 N 436.039 1.36541 -0.78704 0
M  V30 4750 C 437.269 2.03266 -0.369662 0
M  V30 4751 C 437.677 1.59481 1.01796 0
M  V30 4752 O 437.02 0.778612 1.66383 0
M  V30 4753 C 437.082 3.57779 -0.351371 0
M  V30 4754 C 436.746 4.24756 -1.68617 0
M  V30 4755 C 437.743 4.47811 -2.64124 0
M  V30 4756 C 435.428 4.62277 -1.96481 0
M  V30 4757 C 437.422 5.07464 -3.85693 0
M  V30 4758 C 435.109 5.21649 -3.18317 0
M  V30 4759 C 436.107 5.44182 -4.12741 0
M  V30 4760 O 435.795 6.02307 -5.32429 0
M  V30 4761 H 435.527 0.658977 -0.150751 0
M  V30 4762 H 438.081 1.75548 -1.0664 0
M  V30 4763 H 436.311 3.84606 0.401847 0
M  V30 4764 H 438 4.05879 0.0410147 0
M  V30 4765 H 438.766 4.19221 -2.43883 0
M  V30 4766 H 434.645 4.44065 -1.23805 0
M  V30 4767 H 438.189 5.24968 -4.59407 0
M  V30 4768 H 434.086 5.49664 -3.38437 0
M  V30 4769 H 434.854 6.20775 -5.33461 0
M  V30 4770 N 437.518 0.538854 1.48102 0
M  V30 4771 C 438.764 0.00801365 2.02798 0
M  V30 4772 C 439.097 -1.3309 1.41424 0
M  V30 4773 O 438.372 -1.86169 0.563158 0
M  V30 4774 C 438.655 -0.104589 3.59948 0
M  V30 4775 C 438.508 1.26012 4.31788 0
M  V30 4776 C 439.827 -0.827055 4.32259 0
M  V30 4777 H 436.946 0.00438624 0.736987 0
M  V30 4778 H 439.588 0.6976 1.7673 0
M  V30 4779 H 437.738 -0.691893 3.82289 0
M  V30 4780 H 439.41 1.88922 4.2084 0
M  V30 4781 H 437.653 1.83968 3.92859 0
M  V30 4782 H 438.324 1.13424 5.40221 0
M  V30 4783 H 440.8 -0.328578 4.14801 0
M  V30 4784 H 439.676 -0.87476 5.41885 0
M  V30 4785 H 439.937 -1.87927 4.0017 0
M  V30 4786 N 438.996 -1.55193 0.274407 0
M  V30 4787 C 439.959 -2.212 -0.600279 0
M  V30 4788 C 440.959 -1.18963 -1.08187 0
M  V30 4789 O 442.149 -1.43873 -0.982158 0
M  V30 4790 C 439.281 -2.87739 -1.82809 0
M  V30 4791 H 440.474 -2.9989 -0.0239682 0
M  V30 4792 H 438.027 -1.5628 0.0250192 0
M  V30 4793 H 438.762 -2.13058 -2.44493 0
M  V30 4794 H 438.547 -3.62658 -1.49069 0
M  V30 4795 H 440.037 -3.38171 -2.45011 0
M  V30 4796 N 440.474 -0.00167713 -1.576 0
M  V30 4797 C 441.421 0.989195 -2.08527 0
M  V30 4798 C 442.391 1.34031 -0.981065 0
M  V30 4799 O 443.576 1.43839 -1.2536 0
M  V30 4800 C 440.716 2.27537 -2.59463 0
M  V30 4801 C 439.829 1.98314 -3.83791 0
M  V30 4802 C 438.964 3.21025 -4.23222 0
M  V30 4803 C 438.003 2.87495 -5.40382 0
M  V30 4804 N 437.14 4.02749 -5.75098 0
M  V30 4805 H 441.98 0.547973 -2.92919 0
M  V30 4806 H 439.517 0.258917 -1.44803 0
M  V30 4807 H 441.475 3.02729 -2.87073 0
M  V30 4808 H 440.105 2.69325 -1.77943 0
M  V30 4809 H 439.157 1.13482 -3.63078 0
M  V30 4810 H 440.469 1.69601 -4.69081 0
M  V30 4811 H 439.623 4.04561 -4.52123 0
M  V30 4812 H 438.362 3.52877 -3.36644 0
M  V30 4813 H 437.367 2.02367 -5.11202 0
M  V30 4814 H 438.592 2.56889 -6.28637 0
M  V30 4815 H 436.538 4.34494 -4.91478 0
M  V30 4816 H 436.455 3.77566 -6.54966 0
M  V30 4817 H 437.723 4.87068 -6.08592 0
M  V30 4818 N 441.952 1.55251 0.271103 0
M  V30 4819 C 442.9 1.89054 1.35504 0
M  V30 4820 C 443.894 0.767064 1.51038 0
M  V30 4821 O 445.1 0.951429 1.528 0
M  V30 4822 H 441.475 0.600072 0.45323 0
M  V30 4823 H 443.446 2.79598 1.04247 0
M  V30 4824 C 442.195 2.18068 2.70817 0
M  V30 4825 H 441.518 3.04005 2.59656 0
M  V30 4826 H 442.958 2.4564 3.45597 0
M  V30 4827 C 441.417 0.988901 3.2206 0
M  V30 4828 O 441.947 0.224501 4.01072 0
M  V30 4829 N 440.153 0.786085 2.79766 0
M  V30 4830 H 439.7 1.40937 2.15626 0
M  V30 4831 H 439.658 -0.00969349 3.14399 0
M  V30 4832 N 443.43 -0.535701 1.48216 0
M  V30 4833 C 444.677 -1.29183 1.55942 0
M  V30 4834 C 445.005 -1.93125 0.230857 0
M  V30 4835 O 444.26 -1.79556 -0.778331 0
M  V30 4836 C 444.559 -2.4068 2.64212 0
M  V30 4837 C 444.225 -1.94428 4.06827 0
M  V30 4838 C 442.887 -1.81532 4.45645 0
M  V30 4839 C 445.239 -1.59405 4.96225 0
M  V30 4840 C 442.567 -1.31939 5.71672 0
M  V30 4841 C 444.919 -1.11276 6.22736 0
M  V30 4842 C 443.583 -0.969924 6.60416 0
M  V30 4843 H 442.853 -0.472715 0.570632 0
M  V30 4844 H 445.5 -0.598437 1.81909 0
M  V30 4845 H 443.805 -3.15666 2.32083 0
M  V30 4846 H 445.502 -2.98822 2.67407 0
M  V30 4847 H 442.092 -2.05415 3.76168 0
M  V30 4848 H 446.276 -1.68231 4.66917 0
M  V30 4849 H 441.532 -1.19562 5.99596 0
M  V30 4850 H 445.706 -0.832453 6.91407 0
M  V30 4851 H 443.333 -0.583436 7.57958 0
M  V30 4852 N 444.908 -1.36708 -0.784132 0
M  V30 4853 C 445.871 -1.31307 -1.87859 0
M  V30 4854 C 446.871 -0.219654 -1.59293 0
M  V30 4855 O 448.061 -0.47476 -1.67606 0
M  V30 4856 C 445.193 -1.03679 -3.24751 0
M  V30 4857 H 446.386 -2.28647 -1.94064 0
M  V30 4858 H 443.939 -1.21558 -0.98252 0
M  V30 4859 H 444.674 -0.0681936 -3.24228 0
M  V30 4860 H 444.459 -1.82811 -3.46876 0
M  V30 4861 H 445.949 -1.02518 -4.04821 0
M  V30 4862 N 446.386 1.0089 -1.21074 0
M  V30 4863 C 447.318 2.09737 -0.924291 0
M  V30 4864 C 448.331 1.62546 0.0909809 0
M  V30 4865 O 449.52 1.77942 -0.141021 0
M  V30 4866 C 446.62 3.36922 -0.36559 0
M  V30 4867 C 445.793 4.13216 -1.43426 0
M  V30 4868 C 444.852 5.18696 -0.885496 0
M  V30 4869 O 443.878 5.47176 -1.56801 0
M  V30 4870 N 445.08 5.79718 0.301227 0
M  V30 4871 H 447.845 2.34895 -1.8613 0
M  V30 4872 H 445.406 1.17341 -1.11546 0
M  V30 4873 H 447.398 4.04697 0.0158407 0
M  V30 4874 H 445.968 3.08952 0.476149 0
M  V30 4875 H 445.188 3.40301 -1.9897 0
M  V30 4876 H 446.476 4.60967 -2.15376 0
M  V30 4877 H 445.874 5.58926 0.872849 0
M  V30 4878 H 444.431 6.48804 0.624211 0
M  V30 4879 N 447.864 1.01787 1.20321 0
M  V30 4880 C 448.827 0.593972 2.2137 0
M  V30 4881 C 449.827 -0.336553 1.57239 0
M  V30 4882 O 451.017 -0.125069 1.7375 0
M  V30 4883 C 448.149 -0.132433 3.40643 0
M  V30 4884 H 449.342 1.48791 2.60387 0
M  V30 4885 H 446.895 0.807803 1.33807 0
M  V30 4886 H 447.63 -1.04123 3.0713 0
M  V30 4887 H 447.415 0.53605 3.88418 0
M  V30 4888 H 448.905 -0.416314 4.1552 0
M  V30 4889 N 449.342 -1.36122 0.79427 0
M  V30 4890 C 450.272 -2.32551 0.210328 0
M  V30 4891 C 451.253 -1.56884 -0.657386 0
M  V30 4892 O 452.438 -1.85014 -0.590207 0
M  V30 4893 C 449.568 -3.41128 -0.651819 0
M  V30 4894 C 448.522 -4.27842 0.116395 0
M  V30 4895 C 447.848 -5.2763 -0.86666 0
M  V30 4896 C 449.148 -5.05647 1.30837 0
M  V30 4897 H 450.842 -2.81636 1.01594 0
M  V30 4898 H 448.388 -1.35407 0.489981 0
M  V30 4899 H 450.341 -4.07581 -1.07031 0
M  V30 4900 H 449.065 -2.90622 -1.49019 0
M  V30 4901 H 447.724 -3.62952 0.515915 0
M  V30 4902 H 447.372 -4.73395 -1.70019 0
M  V30 4903 H 447.072 -5.86514 -0.35705 0
M  V30 4904 H 448.596 -5.96955 -1.28361 0
M  V30 4905 H 450.01 -5.65113 0.965393 0
M  V30 4906 H 448.407 -5.73967 1.75161 0
M  V30 4907 H 449.477 -4.37006 2.10128 0
M  V30 4908 N 450.82 -0.546701 -1.47814 0
M  V30 4909 C 452.068 -0.0187037 -2.02091 0
M  V30 4910 C 452.389 1.33168 -1.42447 0
M  V30 4911 O 451.659 1.86619 -0.595839 0
M  V30 4912 H 450.239 -0.00392531 -0.74699 0
M  V30 4913 H 452.901 -0.714327 -1.81338 0
M  V30 4914 H 451.997 0.0772219 -3.12004 0
M  V30 4915 N 452.299 1.55045 -0.282633 0
M  V30 4916 C 453.539 2.01668 0.333088 0
M  V30 4917 C 453.903 1.1667 1.52486 0
M  V30 4918 O 455.104 1.52907 2.21072 0
M  V30 4919 C 453.375 3.50509 0.698442 0
M  V30 4920 S 454.934 4.19112 1.29963 0
M  V30 4921 H 451.752 0.703468 0.103219 0
M  V30 4922 H 454.354 1.91233 -0.406222 0
M  V30 4923 H 453.058 4.10015 -0.177693 0
M  V30 4924 H 452.589 3.64943 1.46902 0
M  V30 4925 H 454.604 4.23362 2.58803 0
M  V30 4926 N 453.777 0.010035 1.57597 0
M  V30 4927 C 455.023 -0.673697 1.91283 0
M  V30 4928 C 455.356 -1.72863 0.884979 0
M  V30 4929 O 454.631 -1.94268 -0.0949487 0
M  V30 4930 C 454.914 -1.30766 3.35518 0
M  V30 4931 C 454.767 -0.263578 4.49027 0
M  V30 4932 C 456.086 -2.23105 3.79358 0
M  V30 4933 H 453.205 -0.243439 0.695634 0
M  V30 4934 H 455.847 0.0633864 1.89894 0
M  V30 4935 H 453.997 -1.93588 3.36832 0
M  V30 4936 H 455.669 0.365738 4.59848 0
M  V30 4937 H 453.912 0.413077 4.31829 0
M  V30 4938 H 454.583 -0.746398 5.4693 0
M  V30 4939 H 457.059 -1.70289 3.79659 0
M  V30 4940 H 455.935 -2.64424 4.81011 0
M  V30 4941 H 456.196 -3.11433 3.13787 0
M  V30 4942 N 455.255 -1.55392 -0.262866 0
M  V30 4943 C 456.185 -1.91978 -1.32917 0
M  V30 4944 C 457.166 -0.7828 -1.51017 0
M  V30 4945 O 458.351 -1.04178 -1.63892 0
M  V30 4946 C 455.481 -2.20055 -2.68687 0
M  V30 4947 C 454.435 -3.35854 -2.65304 0
M  V30 4948 C 453.761 -3.49435 -4.04721 0
M  V30 4949 C 455.061 -4.71977 -2.23685 0
M  V30 4950 H 456.755 -2.81292 -1.02544 0
M  V30 4951 H 454.301 -1.3534 -0.491846 0
M  V30 4952 H 456.254 -2.44237 -3.43404 0
M  V30 4953 H 454.978 -1.27551 -3.00663 0
M  V30 4954 H 453.637 -3.11655 -1.93045 0
M  V30 4955 H 453.285 -2.54379 -4.33936 0
M  V30 4956 H 452.985 -4.27297 -4.0335 0
M  V30 4957 H 454.509 -3.7592 -4.81161 0
M  V30 4958 H 455.923 -4.95637 -2.88127 0
M  V30 4959 H 454.32 -5.52828 -2.33456 0
M  V30 4960 H 455.39 -4.70115 -1.18827 0
M  V30 4961 N 456.733 0.527833 -1.48498 0
M  V30 4962 C 457.963 1.30633 -1.60058 0
M  V30 4963 C 458.371 1.87394 -0.260786 0
M  V30 4964 O 457.714 1.67227 0.760317 0
M  V30 4965 C 457.776 2.49361 -2.58958 0
M  V30 4966 C 457.44 2.13671 -4.03972 0
M  V30 4967 C 458.437 1.69217 -4.91591 0
M  V30 4968 C 456.122 2.24129 -4.49524 0
M  V30 4969 C 458.116 1.35689 -6.2279 0
M  V30 4970 C 455.803 1.90212 -5.80743 0
M  V30 4971 C 456.801 1.46063 -6.67199 0
M  V30 4972 O 456.489 1.12593 -7.95976 0
M  V30 4973 H 456.221 0.403444 -0.54241 0
M  V30 4974 H 458.775 0.643233 -1.95068 0
M  V30 4975 H 457.005 3.18659 -2.19073 0
M  V30 4976 H 458.694 3.11421 -2.6033 0
M  V30 4977 H 459.46 1.60607 -4.57636 0
M  V30 4978 H 455.339 2.57447 -3.82416 0
M  V30 4979 H 458.883 1.01157 -6.90227 0
M  V30 4980 H 454.78 1.98464 -6.14233 0
M  V30 4981 H 455.548 1.25972 -8.08748 0
M  V30 4982 N 458.211 1.37122 0.776871 0
M  V30 4983 C 459.174 1.32301 1.8716 0
M  V30 4984 C 460.174 0.228099 1.59174 0
M  V30 4985 O 461.364 0.483642 1.67352 0
M  V30 4986 C 458.496 1.054 3.24197 0
M  V30 4987 H 459.689 2.29673 1.92848 0
M  V30 4988 H 457.242 1.22077 0.97606 0
M  V30 4989 H 457.977 0.0853872 3.24188 0
M  V30 4990 H 457.762 1.84648 3.45901 0
M  V30 4991 H 459.252 1.04664 4.04271 0
M  V30 4992 N 459.689 -1.00246 1.21608 0
M  V30 4993 C 460.929 -1.75589 1.04631 0
M  V30 4994 C 461.293 -1.87513 -0.412648 0
M  V30 4995 O 462.494 -2.59444 -0.703003 0
M  V30 4996 C 460.765 -3.12893 1.72722 0
M  V30 4997 S 462.324 -4.04095 1.71034 0
M  V30 4998 H 459.142 -0.604133 0.374892 0
M  V30 4999 H 461.744 -1.19927 1.54395 0
M  V30 5000 H 460.448 -3.0185 2.78055 0
M  V30 5001 H 459.979 -3.73628 1.23149 0
M  V30 5002 H 461.994 -4.9045 0.753231 0
M  V30 5003 N 461.167 -1.02423 -1.1978 0
M  V30 5004 C 462.414 -0.717988 -1.89344 0
M  V30 5005 C 462.742 0.753036 -1.79331 0
M  V30 5006 O 461.997 1.56355 -1.17692 0
M  V30 5007 C 462.296 -1.1088 -3.39765 0
M  V30 5008 C 461.962 -2.57731 -3.6998 0
M  V30 5009 C 460.624 -2.97854 -3.77937 0
M  V30 5010 C 462.976 -3.52763 -3.83677 0
M  V30 5011 C 460.304 -4.31931 -3.97054 0
M  V30 5012 C 462.656 -4.86538 -4.04306 0
M  V30 5013 C 461.32 -5.26356 -4.10494 0
M  V30 5014 H 460.59 -0.26273 -0.692859 0
M  V30 5015 H 463.237 -1.28623 -1.41875 0
M  V30 5016 H 461.542 -0.459094 -3.89101 0
M  V30 5017 H 463.239 -0.849432 -3.919 0
M  V30 5018 H 459.829 -2.25646 -3.64393 0
M  V30 5019 H 464.013 -3.2292 -3.76877 0
M  V30 5020 H 459.269 -4.62324 -4.00083 0
M  V30 5021 H 463.443 -5.60093 -4.13846 0
M  V30 5022 H 461.07 -6.3026 -4.2506 0
M  V30 5023 N 462.645 1.35699 -0.801477 0
M  V30 5024 C 463.894 1.98165 -0.375979 0
M  V30 5025 C 464.207 1.64306 1.06127 0
M  V30 5026 O 465.413 2.20097 1.58964 0
M  V30 5027 C 463.869 3.54497 -0.621305 0
M  V30 5028 C 463.477 3.9727 -2.07076 0
M  V30 5029 C 465.221 4.23697 -0.26091 0
M  V30 5030 C 463.128 5.46427 -2.26211 0
M  V30 5031 H 462.058 0.741478 -0.136844 0
M  V30 5032 H 464.709 1.54834 -0.984814 0
M  V30 5033 H 463.091 3.95958 0.0574112 0
M  V30 5034 H 464.265 3.66974 -2.78687 0
M  V30 5035 H 462.58 3.40943 -2.39054 0
M  V30 5036 H 465.177 5.33334 -0.381994 0
M  V30 5037 H 465.52 4.0869 0.792344 0
M  V30 5038 H 466.053 3.87639 -0.893339 0
M  V30 5039 H 462.792 5.66396 -3.29963 0
M  V30 5040 H 462.312 5.78309 -1.59119 0
M  V30 5041 H 463.991 6.12819 -2.07513 0
M  V30 5042 N 464.123 0.554532 1.47522 0
M  V30 5043 C 465.053 -0.182974 2.32782 0
M  V30 5044 C 466.034 -0.911377 1.43624 0
M  V30 5045 O 467.219 -0.892366 1.72483 0
M  V30 5046 C 464.349 -1.21513 3.25349 0
M  V30 5047 C 463.303 -0.603355 4.23726 0
M  V30 5048 C 462.629 -1.73995 5.05598 0
M  V30 5049 C 463.929 0.441121 5.20434 0
M  V30 5050 H 465.623 0.52882 2.94693 0
M  V30 5051 H 463.169 0.255759 1.41711 0
M  V30 5052 H 465.122 -1.73922 3.83835 0
M  V30 5053 H 463.846 -1.95683 2.61487 0
M  V30 5054 H 462.505 -0.10059 3.66462 0
M  V30 5055 H 462.153 -2.47063 4.38143 0
M  V30 5056 H 461.853 -1.3364 5.72201 0
M  V30 5057 H 463.377 -2.26735 5.66942 0
M  V30 5058 H 464.791 0.00319931 5.733 0
M  V30 5059 H 463.188 0.763402 5.95224 0
M  V30 5060 H 464.258 1.33799 4.66075 0
M  V30 5061 N 465.601 -1.54893 0.290851 0
M  V30 5062 C 466.849 -1.99538 -0.320756 0
M  V30 5063 C 467.17 -1.18075 -1.55188 0
M  V30 5064 O 466.44 -0.274162 -1.93972 0
M  V30 5065 H 465.02 -0.737052 -0.121507 0
M  V30 5066 H 467.682 -1.90755 0.399832 0
M  V30 5067 H 466.778 -3.06282 -0.599802 0
M  V30 5068 N 467.08 -0.0183926 -1.57589 0
M  V30 5069 C 468.496 0.337897 -1.55982 0
M  V30 5070 C 468.696 1.73604 -1.02294 0
M  V30 5071 O 467.752 2.43589 -0.664895 0
M  V30 5072 C 469.065 0.196305 -3.00059 0
M  V30 5073 C 470.613 0.269875 -3.11834 0
M  V30 5074 C 471.088 0.157197 -4.5773 0
M  V30 5075 N 472.579 0.214521 -4.62703 0
M  V30 5076 C 473.314 0.150955 -5.73201 0
M  V30 5077 N 472.81 0.0369212 -6.9279 0
M  V30 5078 N 474.603 0.204162 -5.61729 0
M  V30 5079 H 466.754 -0.93279 -1.90821 0
M  V30 5080 H 469.017 -0.359253 -0.877292 0
M  V30 5081 H 468.723 -0.766383 -3.43248 0
M  V30 5082 H 468.597 0.970908 -3.6449 0
M  V30 5083 H 470.984 1.22302 -2.68563 0
M  V30 5084 H 471.065 -0.534918 -2.50144 0
M  V30 5085 H 470.709 -0.792479 -5.01679 0
M  V30 5086 H 470.639 0.980717 -5.17387 0
M  V30 5087 H 473.13 0.303238 -3.76681 0
M  V30 5088 H 473.443 -0.00518321 -7.728 0
M  V30 5089 H 471.788 0.0022886 -6.95 0
M  V30 5090 H 474.979 0.291575 -4.67191 0
M  V30 5091 H 475.152 0.15116 -6.47824 0
M  V30 5092 N 468.558 1.5553 0.254621 0
M  V30 5093 C 469.488 1.9268 1.31897 0
M  V30 5094 C 470.469 0.790797 1.506 0
M  V30 5095 O 471.654 1.05045 1.63337 0
M  V30 5096 C 468.784 2.21477 2.67517 0
M  V30 5097 C 467.738 3.37256 2.63519 0
M  V30 5098 C 467.064 3.51576 4.02862 0
M  V30 5099 C 468.364 4.73157 2.21179 0
M  V30 5100 H 470.058 2.81832 1.01051 0
M  V30 5101 H 467.604 1.35599 0.484662 0
M  V30 5102 H 469.557 2.46055 3.42104 0
M  V30 5103 H 468.281 1.29144 2.99982 0
M  V30 5104 H 466.94 3.12675 1.9139 0
M  V30 5105 H 466.588 2.56676 4.32581 0
M  V30 5106 H 466.288 4.2943 4.01078 0
M  V30 5107 H 467.812 3.78467 4.79161 0
M  V30 5108 H 469.226 4.97158 2.85494 0
M  V30 5109 H 467.623 5.54058 2.30521 0
M  V30 5110 H 468.693 4.70739 1.16332 0
M  V30 5111 N 470.036 -0.519951 1.48776 0
M  V30 5112 C 471.276 -1.2856 1.58908 0
M  V30 5113 C 471.64 -1.90212 0.261418 0
M  V30 5114 O 472.841 -2.67746 0.237791 0
M  V30 5115 C 471.112 -2.33836 2.70288 0
M  V30 5116 S 472.671 -3.19992 3.0025 0
M  V30 5117 H 469.489 -0.43717 0.560717 0
M  V30 5118 H 472.091 -0.591205 1.86346 0
M  V30 5119 H 470.795 -1.87041 3.653 0
M  V30 5120 H 470.326 -3.07969 2.44783 0
M  V30 5121 H 472.341 -4.34122 2.40317 0
M  V30 5122 N 471.514 -1.37532 -0.769588 0
M  V30 5123 C 472.76 -1.33057 -1.53048 0
M  V30 5124 C 473.093 0.0841865 -1.94017 0
M  V30 5125 O 472.368 1.04198 -1.64235 0
M  V30 5126 C 472.651 -2.27166 -2.79406 0
M  V30 5127 C 472.504 -3.77429 -2.44677 0
M  V30 5128 C 473.823 -2.19683 -3.81349 0
M  V30 5129 H 470.942 -0.484655 -0.555228 0
M  V30 5130 H 473.584 -1.68251 -0.882702 0
M  V30 5131 H 471.734 -1.97283 -3.34682 0
M  V30 5132 H 473.406 -4.17918 -1.953 0
M  V30 5133 H 471.649 -3.95892 -1.77346 0
M  V30 5134 H 472.32 -4.38716 -3.35011 0
M  V30 5135 H 474.796 -2.46029 -3.35573 0
M  V30 5136 H 473.672 -2.87668 -4.67481 0
M  V30 5137 H 473.933 -1.19045 -4.25771 0
M  V30 5138 N 472.992 0.995999 -1.22138 0
M  V30 5139 C 474.403 1.54961 -1.04135 0
M  V30 5140 C 474.754 1.92159 0.396147 0
M  V30 5141 O 473.879 1.74435 1.28069 0
M  V30 5142 C 474.474 2.81581 -1.88408 0
M  V30 5143 C 473.033 3.33396 -1.74712 0
M  V30 5144 C 472.18 2.06509 -1.85066 0
M  V30 5145 H 475.131 0.817436 -1.36028 0
M  V30 5146 H 475.152 3.53822 -1.39966 0
M  V30 5147 H 474.664 2.54476 -2.93025 0
M  V30 5148 H 472.765 3.65416 -0.728159 0
M  V30 5149 H 472.878 4.04208 -2.57202 0
M  V30 5150 H 471.242 2.19925 -1.28472 0
M  V30 5151 H 472.025 1.81804 -2.91208 0
M  V30 5152 N 474.47 1.03057 1.19235 0
M  V30 5153 C 475.716 0.729098 1.89241 0
M  V30 5154 C 476.049 -0.740573 1.79525 0
M  V30 5155 O 475.324 -1.53946 1.18874 0
M  V30 5156 C 475.607 1.18304 3.40112 0
M  V30 5157 C 475.46 2.71406 3.5869 0
M  V30 5158 C 476.779 0.765161 4.33397 0
M  V30 5159 H 473.898 0.266338 0.687192 0
M  V30 5160 H 476.54 1.28079 1.40341 0
M  V30 5161 H 474.69 0.713672 3.81889 0
M  V30 5162 H 476.362 3.26303 3.26074 0
M  V30 5163 H 474.605 3.11717 3.01687 0
M  V30 5164 H 475.276 2.98225 4.64506 0
M  V30 5165 H 477.752 1.16889 3.99345 0
M  V30 5166 H 476.628 1.11065 5.37546 0
M  V30 5167 H 476.889 -0.332372 4.40849 0
M  V30 5168 N 475.948 -1.35272 0.808662 0
M  V30 5169 C 477.195 -1.98709 0.390003 0
M  V30 5170 C 477.523 -1.64148 -1.04335 0
M  V30 5171 O 476.778 -0.897797 -1.73891 0
M  V30 5172 C 477.077 -3.53556 0.522798 0
M  V30 5173 C 476.743 -4.0799 1.91977 0
M  V30 5174 C 475.405 -4.22568 2.30195 0
M  V30 5175 C 477.757 -4.37442 2.83361 0
M  V30 5176 C 475.085 -4.63918 3.59162 0
M  V30 5177 C 477.437 -4.80232 4.11776 0
M  V30 5178 C 476.101 -4.93016 4.49991 0
M  V30 5179 H 475.371 -0.727127 0.142712 0
M  V30 5180 H 478.018 -1.6145 1.02985 0
M  V30 5181 H 476.323 -3.91287 -0.200494 0
M  V30 5182 H 478.02 -4.00598 0.179608 0
M  V30 5183 H 474.61 -3.97096 1.61284 0
M  V30 5184 H 478.794 -4.25731 2.55083 0
M  V30 5185 H 474.05 -4.72005 3.88615 0
M  V30 5186 H 478.224 -5.01982 4.82687 0
M  V30 5187 H 475.851 -5.24814 5.49976 0
M  V30 5188 N 477.426 -0.562348 -1.47226 0
M  V30 5189 C 478.389 0.172056 -2.28553 0
M  V30 5190 C 479.389 0.837928 -1.37242 0
M  V30 5191 O 480.579 0.693001 -1.59822 0
M  V30 5192 C 477.711 1.25223 -3.17068 0
M  V30 5193 H 478.904 -0.542401 -2.94954 0
M  V30 5194 H 476.457 -0.319493 -1.53 0
M  V30 5195 H 477.192 1.99892 -2.55369 0
M  V30 5196 H 476.977 0.779515 -3.84273 0
M  V30 5197 H 478.467 1.76791 -3.78332 0
M  V30 5198 N 478.904 1.54736 -0.299062 0
M  V30 5199 C 479.852 2.24897 0.593658 0
M  V30 5200 C 480.846 1.25429 1.13859 0
M  V30 5201 O 482.052 1.43286 1.08945 0
M  V30 5202 H 478.427 0.72207 0.210046 0
M  V30 5203 H 480.398 2.98393 -0.0206421 0
M  V30 5204 C 479.147 3.00159 1.75499 0
M  V30 5205 H 478.47 3.76501 1.34489 0
M  V30 5206 H 479.91 3.52535 2.35574 0
M  V30 5207 C 478.369 2.07015 2.65794 0
M  V30 5208 O 478.899 1.63692 3.66835 0
M  V30 5209 N 477.105 1.73012 2.33485 0
M  V30 5210 H 476.652 2.08439 1.51364 0
M  V30 5211 H 476.61 1.10965 2.94167 0
M  V30 5212 N 480.382 0.0267497 1.57577 0
M  V30 5213 C 481.315 -0.99059 2.05579 0
M  V30 5214 C 482.293 -1.31884 0.951065 0
M  V30 5215 O 483.477 -1.43592 1.22121 0
M  V30 5216 C 480.604 -2.31125 2.47586 0
M  V30 5217 C 479.65 -2.13777 3.69055 0
M  V30 5218 S 480.483 -1.4388 5.15809 0
M  V30 5219 C 481.639 -2.77321 5.6111 0
M  V30 5220 H 481.872 -0.581976 2.91548 0
M  V30 5221 H 479.405 -0.184876 1.53289 0
M  V30 5222 H 481.363 -3.07049 2.72454 0
M  V30 5223 H 480.024 -2.6912 1.61967 0
M  V30 5224 H 479.217 -3.11405 3.96287 0
M  V30 5225 H 478.819 -1.45996 3.44327 0
M  V30 5226 H 481.111 -3.73565 5.65204 0
M  V30 5227 H 482.054 -2.54756 6.60685 0
M  V30 5228 H 482.462 -2.82459 4.88751 0
M  V30 5229 N 481.861 -1.55662 -0.24637 0
M  V30 5230 C 483.086 -1.81914 -0.996093 0
M  V30 5231 C 483.511 -0.603875 -1.78143 0
M  V30 5232 O 482.869 0.447091 -1.75701 0
M  V30 5233 C 482.917 -3.05908 -1.90925 0
M  V30 5234 O 482.021 -2.82861 -3.00105 0
M  V30 5235 H 481.362 -0.600481 -0.283406 0
M  V30 5236 H 483.892 -2.02848 -0.267199 0
M  V30 5237 H 483.902 -3.35356 -2.3238 0
M  V30 5238 H 482.577 -3.93999 -1.33183 0
M  V30 5239 H 481.154 -2.64583 -2.62775 0
M  V30 5240 N 483.339 0.512053 -1.4905 0
M  V30 5241 C 484.755 0.84224 -1.35567 0
M  V30 5242 C 484.955 1.97878 -0.380319 0
M  V30 5243 O 484.011 2.51769 0.19201 0
M  V30 5244 C 485.324 1.19286 -2.76028 0
M  V30 5245 C 486.872 1.30171 -2.84648 0
M  V30 5246 C 487.347 1.68568 -4.25851 0
M  V30 5247 N 488.838 1.75638 -4.28609 0
M  V30 5248 C 489.573 2.06769 -5.34821 0
M  V30 5249 N 489.069 2.36201 -6.51292 0
M  V30 5250 N 490.862 2.07927 -5.22229 0
M  V30 5251 H 483.013 -0.237574 -2.11067 0
M  V30 5252 H 485.276 -0.0436747 -0.946993 0
M  V30 5253 H 484.982 0.431199 -3.49047 0
M  V30 5254 H 484.856 2.13889 -3.10695 0
M  V30 5255 H 487.243 2.05411 -2.11873 0
M  V30 5256 H 487.324 0.336457 -2.53578 0
M  V30 5257 H 486.968 0.938824 -4.99148 0
M  V30 5258 H 486.898 2.66174 -4.54377 0
M  V30 5259 H 489.389 1.55097 -3.44606 0
M  V30 5260 H 489.702 2.59112 -7.28066 0
M  V30 5261 H 488.047 2.33681 -6.54536 0
M  V30 5262 H 491.238 1.84403 -4.30248 0
M  V30 5263 H 491.411 2.31856 -6.05101 0
M  V30 5264 N 484.817 1.37938 0.762283 0
M  V30 5265 C 485.727 1.36681 1.90671 0
M  V30 5266 C 486.743 0.265078 1.71969 0
M  V30 5267 O 487.919 0.502055 1.95042 0
M  V30 5268 C 484.984 1.18211 3.25925 0
M  V30 5269 C 484.045 2.3811 3.57214 0
M  V30 5270 C 483.278 2.20512 4.86014 0
M  V30 5271 O 483.501 1.19429 5.57757 0
M  V30 5272 O 482.435 3.08911 5.16583 0
M  V30 5273 H 486.261 2.33091 1.94685 0
M  V30 5274 H 483.846 1.18767 0.906356 0
M  V30 5275 H 485.728 1.09937 4.06807 0
M  V30 5276 H 484.403 0.248807 3.22742 0
M  V30 5277 H 483.31 2.51958 2.76529 0
M  V30 5278 H 484.643 3.30041 3.65149 0
M  V30 5279 N 486.295 -0.989507 1.22664 0
M  V30 5280 C 487.706 -1.54406 1.04955 0
M  V30 5281 C 488.057 -1.92366 -0.385951 0
M  V30 5282 O 487.182 -1.75111 -1.27142 0
M  V30 5283 C 487.777 -2.80578 1.89899 0
M  V30 5284 C 486.336 -3.32464 1.76478 0
M  V30 5285 C 485.483 -2.05524 1.86159 0
M  V30 5286 H 488.434 -0.810211 1.3646 0
M  V30 5287 H 488.455 -3.53075 1.4184 0
M  V30 5288 H 487.967 -2.52918 2.94371 0
M  V30 5289 H 486.068 -3.65024 0.747528 0
M  V30 5290 H 486.181 -4.02838 2.59342 0
M  V30 5291 H 484.545 -2.19241 1.29636 0
M  V30 5292 H 485.328 -1.80258 2.92168 0
M  V30 5293 N 487.773 -1.03688 -1.18687 0
M  V30 5294 C 489.02 -0.73803 -1.88572 0
M  V30 5295 C 489.348 0.733973 -1.8012 0
M  V30 5296 O 488.603 1.55098 -1.19344 0
M  V30 5297 C 488.902 -1.14477 -3.3857 0
M  V30 5298 C 488.568 -2.61641 -3.67226 0
M  V30 5299 C 487.23 -3.01846 -3.74757 0
M  V30 5300 C 489.582 -3.56812 -3.79914 0
M  V30 5301 C 486.91 -4.36118 -3.92451 0
M  V30 5302 C 489.262 -4.90799 -3.99123 0
M  V30 5303 C 487.926 -5.3068 -4.04888 0
M  V30 5304 H 487.196 -0.270064 -0.690034 0
M  V30 5305 H 489.843 -1.3012 -1.40503 0
M  V30 5306 H 488.148 -0.500337 -3.88592 0
M  V30 5307 H 489.845 -0.89095 -3.90977 0
M  V30 5308 H 486.435 -2.29498 -3.61979 0
M  V30 5309 H 490.619 -3.26899 -3.73431 0
M  V30 5310 H 485.875 -4.66542 -3.95157 0
M  V30 5311 H 490.049 -5.64451 -4.07882 0
M  V30 5312 H 487.676 -6.34733 -4.18351 0
M  V30 5313 N 489.251 1.34841 -0.815825 0
M  V30 5314 C 490.476 2.03261 -0.41226 0
M  V30 5315 C 490.901 1.61055 0.971751 0
M  V30 5316 O 490.259 0.7917 1.63101 0
M  V30 5317 C 490.307 3.56914 -0.514289 0
M  V30 5318 O 489.411 4.09728 0.468675 0
M  V30 5319 H 488.752 0.641664 -0.170771 0
M  V30 5320 H 491.282 1.72241 -1.10427 0
M  V30 5321 H 491.292 4.06156 -0.387457 0
M  V30 5322 H 489.967 3.86982 -1.52375 0
M  V30 5323 H 488.544 3.71681 0.301316 0
M  V30 5324 N 490.729 0.570148 1.46925 0
M  V30 5325 C 491.957 0.0561966 2.06824 0
M  V30 5326 C 492.372 -1.24326 1.42086 0
M  V30 5327 O 491.729 -1.74882 0.521794 0
M  V30 5328 C 491.78 -0.129517 3.61268 0
M  V30 5329 O 491.501 1.1185 4.23581 0
M  V30 5330 C 493.002 -0.679266 4.38065 0
M  V30 5331 H 490.222 0.0517261 0.669003 0
M  V30 5332 H 492.766 0.787243 1.8874 0
M  V30 5333 H 490.921 -0.810739 3.78822 0
M  V30 5334 H 491.335 0.924375 5.1629 0
M  V30 5335 H 492.809 -0.758445 5.46765 0
M  V30 5336 H 493.286 -1.69346 4.05239 0
M  V30 5337 H 493.892 -0.0333237 4.25287 0
M  V30 5338 N 492.207 -1.54576 0.307264 0
M  V30 5339 C 493.623 -1.59534 -0.0459251 0
M  V30 5340 C 493.823 -1.32414 -1.51884 0
M  V30 5341 O 492.879 -1.1006 -2.27251 0
M  V30 5342 C 494.192 -2.98566 0.357649 0
M  V30 5343 C 495.74 -3.11491 0.306937 0
M  V30 5344 C 496.215 -4.52842 0.685427 0
M  V30 5345 N 497.706 -4.58782 0.638203 0
M  V30 5346 C 498.441 -5.66238 0.903458 0
M  V30 5347 N 497.937 -6.81703 1.23501 0
M  V30 5348 N 499.73 -5.55937 0.830102 0
M  V30 5349 H 491.881 -1.70464 1.26712 0
M  V30 5350 H 494.144 -0.79647 0.514139 0
M  V30 5351 H 493.85 -3.23356 1.38325 0
M  V30 5352 H 493.724 -3.76117 -0.285565 0
M  V30 5353 H 496.111 -2.86446 -0.709424 0
M  V30 5354 H 496.192 -2.36081 0.984861 0
M  V30 5355 H 495.836 -4.78618 1.69963 0
M  V30 5356 H 495.766 -5.26598 -0.0146346 0
M  V30 5357 H 498.257 -3.75849 0.393138 0
M  V30 5358 H 498.57 -7.59582 1.42322 0
M  V30 5359 H 496.915 -6.8324 1.27311 0
M  V30 5360 H 500.106 -4.64608 0.570693 0
M  V30 5361 H 500.279 -6.39597 1.04019 0
M  V30 5362 N 493.685 -0.035106 -1.57561 0
M  V30 5363 C 494.648 0.929819 -2.09492 0
M  V30 5364 C 495.648 1.25026 -1.01119 0
M  V30 5365 O 496.838 1.18961 -1.27255 0
M  V30 5366 C 493.97 2.24457 -2.56577 0
M  V30 5367 H 495.163 0.479935 -2.96035 0
M  V30 5368 H 492.716 0.213033 -1.54841 0
M  V30 5369 H 493.451 2.74061 -1.73382 0
M  V30 5370 H 493.236 2.02508 -3.35757 0
M  V30 5371 H 494.726 2.93607 -2.96959 0
M  V30 5372 N 495.163 1.55791 0.238111 0
M  V30 5373 C 496.093 1.94068 1.29846 0
M  V30 5374 C 497.074 0.806726 1.49753 0
M  V30 5375 O 498.259 1.06772 1.62214 0
M  V30 5376 C 495.389 2.24302 2.65153 0
M  V30 5377 C 494.343 3.40032 2.59927 0
M  V30 5378 C 493.669 3.55829 3.99111 0
M  V30 5379 C 494.969 4.75476 2.16148 0
M  V30 5380 H 496.663 2.82887 0.980563 0
M  V30 5381 H 494.209 1.36105 0.470253 0
M  V30 5382 H 496.162 2.4967 3.39475 0
M  V30 5383 H 494.886 1.32318 2.98596 0
M  V30 5384 H 493.545 3.14687 1.88063 0
M  V30 5385 H 493.193 2.6125 4.29834 0
M  V30 5386 H 492.893 4.3366 3.96501 0
M  V30 5387 H 494.417 3.83528 4.7512 0
M  V30 5388 H 495.831 5.00158 2.80205 0
M  V30 5389 H 494.228 5.56472 2.24631 0
M  V30 5390 H 495.298 4.71946 1.11333 0
M  V30 5391 N 496.642 -0.504142 1.49319 0
M  V30 5392 C 497.888 -1.26033 1.58882 0
M  V30 5393 C 498.221 -1.92268 0.273274 0
M  V30 5394 O 497.496 -1.80567 -0.72291 0
M  V30 5395 C 497.779 -2.32976 2.7458 0
M  V30 5396 C 497.632 -1.71263 4.1592 0
M  V30 5397 C 498.951 -3.34561 2.85932 0
M  V30 5398 H 496.07 -0.456863 0.578312 0
M  V30 5399 H 498.712 -0.558965 1.81592 0
M  V30 5400 H 496.862 -2.92796 2.55348 0
M  V30 5401 H 498.534 -1.15294 4.4666 0
M  V30 5402 H 496.777 -1.01686 4.21714 0
M  V30 5403 H 497.448 -2.48816 4.92742 0
M  V30 5404 H 499.924 -2.84727 3.0343 0
M  V30 5405 H 498.8 -4.06754 3.68568 0
M  V30 5406 H 499.061 -3.96695 1.95154 0
M  V30 5407 N 498.12 -1.38341 -0.754957 0
M  V30 5408 C 499.05 -1.38176 -1.88227 0
M  V30 5409 C 500.031 -0.247873 -1.68284 0
M  V30 5410 O 501.216 -0.45075 -1.88896 0
M  V30 5411 C 498.346 -1.20471 -3.25736 0
M  V30 5412 C 497.3 -2.3105 -3.60278 0
M  V30 5413 C 496.626 -1.98452 -4.96509 0
M  V30 5414 C 497.926 -3.73305 -3.65295 0
M  V30 5415 H 499.62 -2.32512 -1.88622 0
M  V30 5416 H 497.166 -1.1192 -0.906082 0
M  V30 5417 H 499.119 -1.18982 -4.04254 0
M  V30 5418 H 497.843 -0.225965 -3.25817 0
M  V30 5419 H 496.502 -2.31723 -2.84078 0
M  V30 5420 H 496.15 -0.990641 -4.93148 0
M  V30 5421 H 495.85 -2.7251 -5.20588 0
M  V30 5422 H 497.374 -1.98578 -5.77407 0
M  V30 5423 H 498.788 -3.7467 -4.3393 0
M  V30 5424 H 497.185 -4.46557 -4.00883 0
M  V30 5425 H 498.255 -4.05719 -2.65556 0
M  V30 5426 N 499.598 0.982988 -1.23187 0
M  V30 5427 C 500.823 1.76455 -1.08988 0
M  V30 5428 C 501.248 1.84726 0.354691 0
M  V30 5429 O 500.606 1.30699 1.25649 0
M  V30 5430 C 500.654 3.17094 -1.71708 0
M  V30 5431 O 499.758 4.00648 -0.977477 0
M  V30 5432 H 499.099 0.542988 -0.382177 0
M  V30 5433 H 501.629 1.23413 -1.63188 0
M  V30 5434 H 501.639 3.67684 -1.76841 0
M  V30 5435 H 500.314 3.10389 -2.76823 0
M  V30 5436 H 498.891 3.59161 -1.0029 0
M  V30 5437 N 501.076 1.04316 1.18135 0
M  V30 5438 C 502.325 0.74319 1.87509 0
M  V30 5439 C 502.638 -0.732136 1.81381 0
M  V30 5440 O 503.844 -1.14572 2.46141 0
M  V30 5441 C 502.3 1.27913 3.36402 0
M  V30 5442 C 501.908 2.78326 3.51053 0
M  V30 5443 C 503.652 1.0558 4.11161 0
M  V30 5444 C 501.559 3.25266 4.93919 0
M  V30 5445 H 500.489 0.274313 0.702331 0
M  V30 5446 H 503.14 1.25931 1.33467 0
M  V30 5447 H 501.522 0.690853 3.89927 0
M  V30 5448 H 502.696 3.42933 3.07788 0
M  V30 5449 H 501.011 2.991 2.89704 0
M  V30 5450 H 503.608 1.38161 5.16542 0
M  V30 5451 H 503.951 -0.00684729 4.16299 0
M  V30 5452 H 504.484 1.60882 3.63816 0
M  V30 5453 H 501.223 4.30922 4.9395 0
M  V30 5454 H 500.743 2.65396 5.3789 0
M  V30 5455 H 502.422 3.19433 5.62647 0
M  V30 5456 N 502.554 -1.34406 0.822964 0
M  V30 5457 C 503.484 -2.32052 0.259608 0
M  V30 5458 C 504.465 -1.58243 -0.623961 0
M  V30 5459 O 505.65 -1.86224 -0.55083 0
M  V30 5460 C 502.78 -3.42434 -0.579314 0
M  V30 5461 C 501.734 -4.27499 0.20712 0
M  V30 5462 C 501.06 -5.29349 -0.754547 0
M  V30 5463 C 502.36 -5.02758 1.41533 0
M  V30 5464 H 504.054 -2.79418 1.07545 0
M  V30 5465 H 501.6 -1.34338 0.518593 0
M  V30 5466 H 503.553 -4.0976 -0.983612 0
M  V30 5467 H 502.277 -2.93717 -1.4282 0
M  V30 5468 H 500.936 -3.61776 0.592787 0
M  V30 5469 H 500.584 -4.76895 -1.59939 0
M  V30 5470 H 500.284 -5.8714 -0.232561 0
M  V30 5471 H 501.808 -5.99544 -1.1567 0
M  V30 5472 H 503.222 -5.62938 1.08504 0
M  V30 5473 H 501.619 -5.70123 1.87296 0
M  V30 5474 H 502.689 -4.32451 2.1935 0
M  V30 5475 N 504.032 -0.577932 -1.46621 0
M  V30 5476 C 504.982 0.178869 -2.27297 0
M  V30 5477 C 505.966 0.866279 -1.35589 0
M  V30 5478 O 507.158 0.761163 -1.59798 0
M  V30 5479 C 504.287 1.19499 -3.2183 0
M  V30 5480 C 503.373 0.50994 -4.21023 0
M  V30 5481 N 503.764 -0.43177 -5.03954 0
M  V30 5482 C 502.062 0.761287 -4.39455 0
M  V30 5483 C 502.763 -0.831693 -5.75724 0
M  V30 5484 N 501.739 -0.181897 -5.43296 0
M  V30 5485 H 505.541 -0.544859 -2.88805 0
M  V30 5486 H 503.055 -0.399373 -1.57413 0
M  V30 5487 H 505.052 1.75131 -3.78332 0
M  V30 5488 H 503.712 1.91959 -2.61881 0
M  V30 5489 H 504.723 -0.807045 -5.11573 0
M  V30 5490 H 501.4 1.47282 -3.90659 0
M  V30 5491 H 502.79 -1.6067 -6.52407 0
M  V30 5492 N 505.51 1.54411 -0.315457 0
M  V30 5493 C 506.473 2.22713 0.54142 0
M  V30 5494 C 507.473 1.2179 1.04995 0
M  V30 5495 O 508.663 1.46426 0.943667 0
M  V30 5496 C 505.795 2.92485 1.75116 0
M  V30 5497 H 506.988 2.99849 -0.0555508 0
M  V30 5498 H 504.541 1.56159 -0.0664453 0
M  V30 5499 H 505.276 2.19466 2.38758 0
M  V30 5500 H 505.061 3.66483 1.39401 0
M  V30 5501 H 506.551 3.44548 2.35959 0
M  V30 5502 N 506.988 0.0434614 1.5754 0
M  V30 5503 C 508.216 -0.641835 1.96693 0
M  V30 5504 C 508.631 -1.64832 0.920652 0
M  V30 5505 O 507.988 -1.82247 -0.095993 0
M  V30 5506 C 508.039 -1.33557 3.35924 0
M  V30 5507 O 507.76 -0.369403 4.3654 0
M  V30 5508 C 509.261 -2.11135 3.89791 0
M  V30 5509 H 506.481 -0.176013 0.647503 0
M  V30 5510 H 509.025 0.107478 2.04217 0
M  V30 5511 H 507.18 -2.03617 3.29574 0
M  V30 5512 H 507.594 -0.863674 5.1734 0
M  V30 5513 H 509.068 -2.55107 4.89514 0
M  V30 5514 H 509.545 -2.95634 3.24803 0
M  V30 5515 H 510.151 -1.46002 3.99454 0
M  V30 5516 N 508.466 -1.55915 -0.229846 0
M  V30 5517 C 509.396 -1.94754 -1.28815 0
M  V30 5518 C 510.377 -0.814657 -1.49323 0
M  V30 5519 O 511.562 -1.07631 -1.61645 0
M  V30 5520 C 508.692 -2.25705 -2.63959 0
M  V30 5521 C 507.646 -3.41406 -2.5812 0
M  V30 5522 C 506.972 -3.57941 -3.97218 0
M  V30 5523 C 508.272 -4.76616 -2.13623 0
M  V30 5524 H 509.966 -2.83404 -0.965547 0
M  V30 5525 H 507.512 -1.36353 -0.463028 0
M  V30 5526 H 509.465 -2.51467 -3.38146 0
M  V30 5527 H 508.189 -1.339 -2.9789 0
M  V30 5528 H 506.848 -3.1568 -1.86391 0
M  V30 5529 H 506.496 -2.63526 -4.28443 0
M  V30 5530 H 506.196 -4.35757 -3.94195 0
M  V30 5531 H 507.72 -3.86042 -4.73079 0
M  V30 5532 H 509.134 -5.01637 -2.77549 0
M  V30 5533 H 507.531 -5.57655 -2.21677 0
M  V30 5534 H 508.601 -4.7253 -1.08829 0
M  V30 5535 N 509.944 0.496216 -1.49584 0
M  V30 5536 C 511.355 1.07765 -1.52459 0
M  V30 5537 C 511.706 1.93679 -0.31353 0
M  V30 5538 O 510.831 2.08588 0.576186 0
M  V30 5539 C 511.426 1.96111 -2.76271 0
M  V30 5540 C 509.985 2.49409 -2.81908 0
M  V30 5541 C 509.132 1.27142 -2.46435 0
M  V30 5542 H 512.083 0.279914 -1.56212 0
M  V30 5543 H 512.104 2.80862 -2.56704 0
M  V30 5544 H 511.616 1.33555 -3.64396 0
M  V30 5545 H 509.717 3.1559 -1.98074 0
M  V30 5546 H 509.83 2.86234 -3.84196 0
M  V30 5547 H 508.194 1.59818 -1.98319 0
M  V30 5548 H 508.977 0.662866 -3.3684 0
M  V30 5549 N 511.423 1.38739 0.74761 0
M  V30 5550 C 512.671 1.35007 1.50391 0
M  V30 5551 C 512.992 -0.0574274 1.94915 0
M  V30 5552 O 512.262 -1.00628 1.6808 0
M  V30 5553 H 510.842 0.496784 0.557866 0
M  V30 5554 H 513.504 1.73479 0.888319 0
M  V30 5555 H 512.6 2.00474 2.392 0
M  V30 5556 N 512.901 -0.976442 1.23707 0
M  V30 5557 C 514.15 -1.71254 1.06559 0
M  V30 5558 C 514.463 -1.91528 -0.397024 0
M  V30 5559 O 515.669 -2.62625 -0.688518 0
M  V30 5560 C 514.125 -3.08207 1.8584 0
M  V30 5561 C 513.733 -2.95806 3.36456 0
M  V30 5562 C 515.477 -3.85749 1.77194 0
M  V30 5563 C 513.384 -4.28015 4.08114 0
M  V30 5564 H 512.314 -0.642171 0.395136 0
M  V30 5565 H 514.965 -1.08877 1.4771 0
M  V30 5566 H 513.347 -3.71363 1.37498 0
M  V30 5567 H 514.521 -2.41716 3.92314 0
M  V30 5568 H 512.836 -2.31736 3.45959 0
M  V30 5569 H 515.433 -4.83633 2.28041 0
M  V30 5570 H 515.776 -4.09752 0.735477 0
M  V30 5571 H 516.309 -3.29303 2.23169 0
M  V30 5572 H 513.048 -4.09208 5.12083 0
M  V30 5573 H 512.568 -4.81955 3.57043 0
M  V30 5574 H 514.247 -4.96681 4.14629 0
M  V30 5575 N 514.379 -1.04941 -1.1758 0
M  V30 5576 C 515.626 -0.757989 -1.87779 0
M  V30 5577 C 515.954 0.714827 -1.80888 0
M  V30 5578 O 515.209 1.53824 -1.20982 0
M  V30 5579 C 515.508 -1.18062 -3.37337 0
M  V30 5580 C 515.174 -2.65521 -3.6443 0
M  V30 5581 C 513.836 -3.05804 -3.71534 0
M  V30 5582 C 516.188 -3.60822 -3.76108 0
M  V30 5583 C 513.516 -4.40256 -3.87803 0
M  V30 5584 C 515.868 -4.95005 -3.93895 0
M  V30 5585 C 514.532 -5.34945 -3.99237 0
M  V30 5586 H 513.802 -0.277368 -0.68713 0
M  V30 5587 H 516.449 -1.31603 -1.39115 0
M  V30 5588 H 514.754 -0.541525 -3.8804 0
M  V30 5589 H 516.451 -0.932368 -3.9001 0
M  V30 5590 H 513.041 -2.33324 -3.59524 0
M  V30 5591 H 517.225 -3.30841 -3.69943 0
M  V30 5592 H 512.481 -4.70707 -3.90186 0
M  V30 5593 H 516.655 -5.68746 -4.01872 0
M  V30 5594 H 514.282 -6.39135 -4.11596 0
M  V30 5595 N 515.857 1.33968 -0.830081 0
M  V30 5596 C 516.79 2.27303 -0.202182 0
M  V30 5597 C 517.768 1.49235 0.645581 0
M  V30 5598 O 518.952 1.78433 0.607762 0
M  V30 5599 C 516.079 3.31025 0.716932 0
M  V30 5600 C 515.125 4.26466 -0.0542271 0
M  V30 5601 S 515.958 5.16707 -1.40622 0
M  V30 5602 C 517.114 6.23962 -0.492167 0
M  V30 5603 H 517.347 2.8021 -0.99346 0
M  V30 5604 H 514.88 1.41124 -0.626359 0
M  V30 5605 H 516.838 3.91271 1.24165 0
M  V30 5606 H 515.499 2.76951 1.4818 0
M  V30 5607 H 514.692 4.99858 0.644785 0
M  V30 5608 H 514.294 3.7051 -0.509722 0
M  V30 5609 H 516.586 6.76774 0.31347 0
M  V30 5610 H 517.529 6.97927 -1.19599 0
M  V30 5611 H 517.937 5.64447 -0.0774176 0
M  V30 5612 N 517.335 0.585699 1.46312 0
M  V30 5613 C 518.265 -0.133556 2.33118 0
M  V30 5614 C 519.246 -0.880707 1.45525 0
M  V30 5615 O 520.431 -0.855579 1.74337 0
M  V30 5616 C 517.561 -1.14585 3.27853 0
M  V30 5617 C 516.515 -0.513341 4.2491 0
M  V30 5618 C 515.841 -1.63231 5.09175 0
M  V30 5619 C 517.141 0.551413 5.19381 0
M  V30 5620 H 518.835 0.59121 2.93505 0
M  V30 5621 H 516.381 0.285761 1.41136 0
M  V30 5622 H 518.334 -1.65741 3.87438 0
M  V30 5623 H 517.058 -1.90093 2.65579 0
M  V30 5624 H 515.717 -0.0228349 3.66593 0
M  V30 5625 H 515.365 -2.37713 4.43285 0
M  V30 5626 H 515.065 -1.21473 5.74907 0
M  V30 5627 H 516.589 -2.14658 5.71624 0
M  V30 5628 H 518.003 0.124804 5.73164 0
M  V30 5629 H 516.4 0.889486 5.93471 0
M  V30 5630 H 517.47 1.43655 4.63132 0
M  V30 5631 N 518.813 -1.54241 0.323641 0
M  V30 5632 C 519.743 -2.27289 -0.534993 0
M  V30 5633 C 520.724 -1.28087 -1.11927 0
M  V30 5634 O 521.909 -1.56899 -1.14439 0
M  V30 5635 C 519.039 -3.03075 -1.69596 0
M  V30 5636 C 517.993 -4.09614 -1.24098 0
M  V30 5637 C 517.319 -4.73242 -2.4889 0
M  V30 5638 C 518.619 -5.21087 -0.355789 0
M  V30 5639 H 520.313 -2.99308 0.0743257 0
M  V30 5640 H 517.859 -1.43952 0.0371874 0
M  V30 5641 H 519.812 -3.52907 -2.30293 0
M  V30 5642 H 518.536 -2.28673 -2.33187 0
M  V30 5643 H 517.195 -3.60666 -0.656945 0
M  V30 5644 H 516.843 -3.95455 -3.10845 0
M  V30 5645 H 516.543 -5.45209 -2.19138 0
M  V30 5646 H 518.067 -5.25848 -3.10348 0
M  V30 5647 H 519.481 -5.66675 -0.869042 0
M  V30 5648 H 517.878 -5.9991 -0.151045 0
M  V30 5649 H 518.948 -4.81005 0.613339 0
M  V30 5650 N 520.291 -0.0518155 -1.57515 0
M  V30 5651 C 521.221 0.920283 -2.146 0
M  V30 5652 C 522.202 1.32406 -1.06783 0
M  V30 5653 O 523.387 1.39866 -1.34726 0
M  V30 5654 C 520.517 2.1949 -2.6915 0
M  V30 5655 C 519.471 1.93116 -3.81956 0
M  V30 5656 C 518.797 3.27037 -4.23026 0
M  V30 5657 C 520.097 1.25225 -5.07066 0
M  V30 5658 H 521.791 0.444801 -2.96077 0
M  V30 5659 H 519.337 0.212508 -1.42423 0
M  V30 5660 H 521.29 2.87894 -3.07725 0
M  V30 5661 H 520.014 2.69244 -1.84865 0
M  V30 5662 H 518.673 1.27123 -3.43854 0
M  V30 5663 H 518.321 3.74595 -3.3569 0
M  V30 5664 H 518.021 3.10189 -4.99056 0
M  V30 5665 H 519.545 3.96673 -4.64202 0
M  V30 5666 H 520.959 1.83666 -5.43083 0
M  V30 5667 H 519.356 1.18702 -5.88243 0
M  V30 5668 H 520.426 0.228382 -4.84362 0
M  V30 5669 N 521.769 1.56035 0.221574 0
M  V30 5670 C 523.018 1.78245 0.944016 0
M  V30 5671 C 523.331 0.620371 1.85501 0
M  V30 5672 O 524.537 0.726103 2.6161 0
M  V30 5673 C 522.993 3.15659 1.7288 0
M  V30 5674 C 522.601 4.39591 0.863942 0
M  V30 5675 C 524.345 3.47195 2.44246 0
M  V30 5676 C 522.252 5.6803 1.64607 0
M  V30 5677 H 521.182 0.664547 0.356222 0
M  V30 5678 H 523.833 1.8243 0.197904 0
M  V30 5679 H 522.215 3.0565 2.51781 0
M  V30 5680 H 523.389 4.60655 0.115464 0
M  V30 5681 H 521.704 4.15572 0.262407 0
M  V30 5682 H 524.301 4.40381 3.03263 0
M  V30 5683 H 524.644 2.69693 3.1713 0
M  V30 5684 H 525.177 3.58533 1.72334 0
M  V30 5685 H 521.916 6.48425 0.960507 0
M  V30 5686 H 521.436 5.51027 2.36917 0
M  V30 5687 H 523.115 6.08203 2.20675 0
M  V30 5688 N 523.247 -0.488276 1.49845 0
M  V30 5689 C 524.494 -1.24157 1.59973 0
M  V30 5690 C 524.822 -1.92293 0.292182 0
M  V30 5691 O 524.077 -1.81942 -0.720813 0
M  V30 5692 C 524.376 -2.32152 2.71735 0
M  V30 5693 C 524.042 -1.81387 4.12807 0
M  V30 5694 C 522.704 -1.67262 4.51195 0
M  V30 5695 C 525.056 -1.43537 5.01045 0
M  V30 5696 C 522.384 -1.13685 5.7558 0
M  V30 5697 C 524.736 -0.914081 6.25961 0
M  V30 5698 C 523.4 -0.759327 6.63167 0
M  V30 5699 H 522.67 -0.454322 0.585383 0
M  V30 5700 H 525.317 -0.540261 1.83721 0
M  V30 5701 H 523.622 -3.08122 2.42008 0
M  V30 5702 H 525.319 -2.90164 2.76778 0
M  V30 5703 H 521.909 -1.93344 3.82513 0
M  V30 5704 H 526.093 -1.53292 4.72033 0
M  V30 5705 H 521.349 -1.00426 6.03096 0
M  V30 5706 H 525.523 -0.612066 6.93705 0
M  V30 5707 H 523.15 -0.342002 7.5943 0
M  V30 5708 N 524.725 -1.39134 -0.740242 0
M  V30 5709 C 525.972 -1.36071 -1.49969 0
M  V30 5710 C 526.3 0.0450245 -1.94448 0
M  V30 5711 O 525.555 1.02482 -1.66721 0
M  V30 5712 C 525.854 -2.27457 -2.75678 0
M  V30 5713 C 525.52 -3.75185 -2.50094 0
M  V30 5714 C 524.182 -4.15439 -2.42825 0
M  V30 5715 C 526.534 -4.68643 -2.28086 0
M  V30 5716 C 523.862 -5.4722 -2.11584 0
M  V30 5717 C 526.214 -6.00695 -1.98363 0
M  V30 5718 C 524.878 -6.40018 -1.8956 0
M  V30 5719 H 524.148 -0.497921 -0.548777 0
M  V30 5720 H 526.795 -1.71599 -0.85007 0
M  V30 5721 H 525.1 -1.8503 -3.45356 0
M  V30 5722 H 526.797 -2.22384 -3.33686 0
M  V30 5723 H 523.387 -3.43279 -2.56627 0
M  V30 5724 H 527.571 -4.3838 -2.32672 0
M  V30 5725 H 522.827 -5.76615 -2.03287 0
M  V30 5726 H 527.001 -6.72644 -1.80341 0
M  V30 5727 H 524.628 -7.42051 -1.65117 0
M  V30 5728 N 526.204 0.969867 -1.24223 0
M  V30 5729 C 527.167 2.04564 -1.03373 0
M  V30 5730 C 528.167 1.60798 0.00819206 0
M  V30 5731 O 529.357 1.72641 -0.232567 0
M  V30 5732 C 526.489 3.36163 -0.566343 0
M  V30 5733 H 527.682 2.24494 -1.98853 0
M  V30 5734 H 525.235 1.1448 -1.06415 0
M  V30 5735 H 525.97 3.21925 0.391751 0
M  V30 5736 H 525.755 3.69273 -1.31834 0
M  V30 5737 H 527.245 4.1526 -0.441435 0
M  V30 5738 N 527.682 1.05563 1.17022 0
M  V30 5739 C 528.929 0.767937 1.87374 0
M  V30 5740 C 529.257 -0.705224 1.81265 0
M  V30 5741 O 528.512 -1.5318 1.21796 0
M  V30 5742 C 528.811 1.19849 3.36706 0
M  V30 5743 C 528.477 2.6745 3.63017 0
M  V30 5744 C 527.139 3.0777 3.69907 0
M  V30 5745 C 529.491 3.62811 3.74189 0
M  V30 5746 C 526.819 4.42307 3.85463 0
M  V30 5747 C 529.171 4.97087 3.91264 0
M  V30 5748 C 527.835 5.37055 3.96394 0
M  V30 5749 H 527.105 0.281008 0.68565 0
M  V30 5750 H 529.752 1.32339 1.38415 0
M  V30 5751 H 528.057 0.562096 3.87747 0
M  V30 5752 H 529.754 0.953038 3.8951 0
M  V30 5753 H 526.344 2.35228 3.58282 0
M  V30 5754 H 530.528 3.32798 3.68183 0
M  V30 5755 H 525.784 4.72769 3.87684 0
M  V30 5756 H 529.958 5.70869 3.9885 0
M  V30 5757 H 527.585 6.41308 4.082 0
M  V30 5758 N 529.16 -1.33526 0.837174 0
M  V30 5759 C 530.09 -2.31764 0.284206 0
M  V30 5760 C 531.071 -1.58896 -0.607142 0
M  V30 5761 O 532.256 -1.86798 -0.531047 0
M  V30 5762 C 529.386 -3.43029 -0.542962 0
M  V30 5763 C 528.34 -4.27255 0.252451 0
M  V30 5764 C 527.666 -5.3012 -0.69836 0
M  V30 5765 C 528.966 -5.01229 1.46858 0
M  V30 5766 H 530.66 -2.78262 1.10502 0
M  V30 5767 H 528.206 -1.3378 0.532812 0
M  V30 5768 H 530.159 -4.1078 -0.940096 0
M  V30 5769 H 528.883 -2.95216 -1.39697 0
M  V30 5770 H 527.542 -3.61127 0.631124 0
M  V30 5771 H 527.19 -4.78564 -1.54872 0
M  V30 5772 H 526.89 -5.87353 -0.170274 0
M  V30 5773 H 528.414 -6.00737 -1.09305 0
M  V30 5774 H 529.828 -5.61756 1.14469 0
M  V30 5775 H 528.225 -5.68104 1.93333 0
M  V30 5776 H 529.295 -4.301 2.23924 0
M  V30 5777 N 530.638 -0.59345 -1.46 0
M  V30 5778 C 531.588 0.154751 -2.27474 0
M  V30 5779 C 532.572 0.851849 -1.365 0
M  V30 5780 O 533.764 0.744171 -1.60596 0
M  V30 5781 C 530.893 1.16079 -3.2308 0
M  V30 5782 C 529.979 0.465256 -4.2154 0
M  V30 5783 N 530.37 -0.485197 -5.03467 0
M  V30 5784 C 528.668 0.714634 -4.40237 0
M  V30 5785 C 529.369 -0.892709 -5.74809 0
M  V30 5786 N 528.345 -0.239511 -5.43072 0
M  V30 5787 H 532.147 -0.57546 -2.88211 0
M  V30 5788 H 529.661 -0.416046 -1.5698 0
M  V30 5789 H 531.658 1.71108 -3.80168 0
M  V30 5790 H 530.318 1.89171 -2.63903 0
M  V30 5791 H 531.329 -0.861258 -5.10689 0
M  V30 5792 H 528.006 1.43131 -3.92199 0
M  V30 5793 H 529.396 -1.67581 -6.50666 0
M  V30 5794 N 532.116 1.54067 -0.331816 0
M  V30 5795 C 533.356 2.02625 0.26876 0
M  V30 5796 C 533.72 1.21462 1.48697 0
M  V30 5797 O 534.921 1.59863 2.16096 0
M  V30 5798 C 533.192 3.52554 0.586577 0
M  V30 5799 S 534.751 4.23035 1.16563 0
M  V30 5800 H 531.569 0.706395 0.0807862 0
M  V30 5801 H 534.171 1.89844 -0.466856 0
M  V30 5802 H 532.875 4.09242 -0.308046 0
M  V30 5803 H 532.406 3.69432 1.35217 0
M  V30 5804 H 534.421 4.31382 2.45203 0
M  V30 5805 N 533.594 0.0601682 1.57485 0
M  V30 5806 C 534.84 -0.606552 1.94146 0
M  V30 5807 C 535.195 -1.67918 0.939225 0
M  V30 5808 O 534.488 -1.91558 -0.0402649 0
M  V30 5809 C 534.682 -1.23831 3.35262 0
M  V30 5810 C 534.511 -0.228408 4.4912 0
M  V30 5811 C 533.281 0.182813 5.04969 0
M  V30 5812 C 535.479 0.52975 5.11564 0
M  V30 5813 N 533.461 1.18464 6.02362 0
M  V30 5814 C 534.832 1.38439 6.04346 0
M  V30 5815 C 536.887 0.587084 4.94427 0
M  V30 5816 C 535.59 2.29125 6.81832 0
M  V30 5817 C 537.616 1.4814 5.72546 0
M  V30 5818 C 536.978 2.32375 6.64967 0
M  V30 5819 H 533.077 -0.193328 0.757726 0
M  V30 5820 H 535.661 0.1346 1.94234 0
M  V30 5821 H 533.832 -1.94944 3.35933 0
M  V30 5822 H 535.564 -1.86456 3.59188 0
M  V30 5823 H 532.319 -0.197968 4.73186 0
M  V30 5824 H 532.743 1.68271 6.55754 0
M  V30 5825 H 537.385 -0.049944 4.22771 0
M  V30 5826 H 535.103 2.93868 7.52773 0
M  V30 5827 H 538.689 1.53045 5.6131 0
M  V30 5828 H 537.569 3.00454 7.2436 0
M  V30 5829 N 535.072 -1.5615 -0.213296 0
M  V30 5830 C 536.002 -1.96109 -1.26742 0
M  V30 5831 C 536.983 -0.830448 -1.48451 0
M  V30 5832 O 538.168 -1.09339 -1.60495 0
M  V30 5833 C 535.298 -2.28492 -2.61551 0
M  V30 5834 C 534.252 -3.44124 -2.54485 0
M  V30 5835 C 533.578 -3.62134 -3.93399 0
M  V30 5836 C 534.878 -4.78855 -2.08556 0
M  V30 5837 H 536.572 -2.84412 -0.935434 0
M  V30 5838 H 534.118 -1.36836 -0.44854 0
M  V30 5839 H 536.071 -2.55039 -3.3546 0
M  V30 5840 H 534.795 -1.37052 -2.96453 0
M  V30 5841 H 533.454 -3.17639 -1.83033 0
M  V30 5842 H 533.102 -2.68055 -4.25623 0
M  V30 5843 H 532.802 -4.39913 -3.89551 0
M  V30 5844 H 534.326 -3.91038 -4.68958 0
M  V30 5845 H 535.74 -5.04552 -2.72213 0
M  V30 5846 H 534.137 -5.59975 -2.1575 0
M  V30 5847 H 535.207 -4.73657 -1.03811 0
M  V30 5848 N 536.55 0.480323 -1.50102 0
M  V30 5849 C 537.498 1.60024 -1.68805 0
M  V30 5850 C 538.492 1.60089 -0.553888 0
M  V30 5851 O 539.698 1.64349 -0.734127 0
M  V30 5852 H 536.073 0.530841 -0.532646 0
M  V30 5853 H 538.044 1.41408 -2.62767 0
M  V30 5854 C 536.793 2.98029 -1.79092 0
M  V30 5855 H 536.116 2.98694 -2.65748 0
M  V30 5856 H 537.556 3.75871 -1.96206 0
M  V30 5857 C 536.015 3.32538 -0.540388 0
M  V30 5858 O 536.545 4.00386 0.324637 0
M  V30 5859 N 534.751 2.87873 -0.397154 0
M  V30 5860 H 534.298 2.32834 -1.1021 0
M  V30 5861 H 534.256 3.11328 0.438425 0
M  V30 5862 N 538.028 1.39524 0.732853 0
M  V30 5863 C 538.991 1.38189 1.82857 0
M  V30 5864 C 539.991 0.278624 1.58368 0
M  V30 5865 O 541.181 0.536639 1.65728 0
M  V30 5866 C 538.313 1.15661 3.2068 0
M  V30 5867 H 539.506 2.35692 1.85444 0
M  V30 5868 H 537.059 1.2512 0.936728 0
M  V30 5869 H 537.794 0.188482 3.23752 0
M  V30 5870 H 537.579 1.95559 3.39852 0
M  V30 5871 H 539.069 1.17472 4.00737 0
M  V30 5872 N 539.506 -0.963266 1.24736 0
M  V30 5873 C 540.753 -1.7068 1.0897 0
M  V30 5874 C 541.081 -1.90934 -0.370751 0
M  V30 5875 O 540.336 -1.47155 -1.29011 0
M  V30 5876 C 540.635 -3.09944 1.7796 0
M  V30 5877 C 540.301 -3.09518 3.27887 0
M  V30 5878 C 538.963 -3.09109 3.68789 0
M  V30 5879 C 541.315 -3.03509 4.23712 0
M  V30 5880 C 538.643 -3.00429 5.03944 0
M  V30 5881 C 540.995 -2.96371 5.5888 0
M  V30 5882 C 539.659 -2.94293 5.99123 0
M  V30 5883 H 538.929 -0.624564 0.398749 0
M  V30 5884 H 541.576 -1.12603 1.54896 0
M  V30 5885 H 539.881 -3.71513 1.2444 0
M  V30 5886 H 541.578 -3.66278 1.63222 0
M  V30 5887 H 538.168 -3.10603 2.95337 0
M  V30 5888 H 542.352 -3.0295 3.93109 0
M  V30 5889 H 537.608 -2.97183 5.34314 0
M  V30 5890 H 541.782 -2.90681 6.32833 0
M  V30 5891 H 539.409 -2.87322 7.03811 0
M  V30 5892 N 540.985 -1.06182 -1.16461 0
M  V30 5893 C 541.948 -0.675723 -2.19013 0
M  V30 5894 C 542.948 0.277963 -1.58379 0
M  V30 5895 O 544.138 0.0604962 -1.74095 0
M  V30 5896 C 541.27 0.00591459 -3.40899 0
M  V30 5897 H 542.463 -1.58353 -2.54685 0
M  V30 5898 H 540.016 -0.856908 -1.30716 0
M  V30 5899 H 540.751 0.92652 -3.10783 0
M  V30 5900 H 540.536 -0.67984 -3.86161 0
M  V30 5901 H 542.026 0.26181 -4.16778 0
M  V30 5902 N 542.463 1.3308 -0.844243 0
M  V30 5903 C 543.373 2.32876 -0.283922 0
M  V30 5904 C 544.389 1.63589 0.592846 0
M  V30 5905 O 545.565 1.95205 0.495693 0
M  V30 5906 C 542.63 3.42667 0.527283 0
M  V30 5907 C 541.691 4.27664 -0.374394 0
M  V30 5908 C 540.924 5.32212 0.39819 0
M  V30 5909 O 541.147 5.46635 1.62932 0
M  V30 5910 O 540.081 6.01458 -0.2306 0
M  V30 5911 H 543.907 2.82671 -1.11045 0
M  V30 5912 H 541.492 1.36518 -0.606903 0
M  V30 5913 H 543.374 4.09652 0.988078 0
M  V30 5914 H 542.049 2.95079 1.33078 0
M  V30 5915 H 540.956 3.63526 -0.883144 0
M  V30 5916 H 542.289 4.78749 -1.1428 0
M  V30 5917 N 543.941 0.601185 1.45683 0
M  V30 5918 C 544.874 -0.17013 2.27565 0
M  V30 5919 C 545.852 -0.879661 1.36751 0
M  V30 5920 O 547.036 -0.889827 1.66176 0
M  V30 5921 C 544.163 -1.24568 3.14961 0
M  V30 5922 C 543.209 -0.639978 4.21671 0
M  V30 5923 S 544.042 0.547275 5.32696 0
M  V30 5924 C 545.198 -0.529019 6.2366 0
M  V30 5925 H 545.431 0.524583 2.92635 0
M  V30 5926 H 542.964 0.388537 1.49431 0
M  V30 5927 H 544.922 -1.86138 3.65873 0
M  V30 5928 H 543.583 -1.91243 2.49169 0
M  V30 5929 H 542.776 -1.44903 4.8272 0
M  V30 5930 H 542.378 -0.0995558 3.73867 0
M  V30 5931 H 544.67 -1.40981 6.62669 0
M  V30 5932 H 545.613 0.0451599 7.08086 0
M  V30 5933 H 546.021 -0.84147 5.58193 0
M  V30 5934 N 545.419 -1.53889 0.339982 0
M  V30 5935 C 546.349 -2.27843 -0.510856 0
M  V30 5936 C 547.33 -1.29267 -1.10563 0
M  V30 5937 O 548.515 -1.58104 -1.12768 0
M  V30 5938 C 545.645 -3.04857 -1.66372 0
M  V30 5939 C 544.599 -4.10907 -1.19746 0
M  V30 5940 C 543.925 -4.75855 -2.43857 0
M  V30 5941 C 545.225 -5.21435 -0.300501 0
M  V30 5942 H 546.919 -2.99212 0.106067 0
M  V30 5943 H 544.465 -1.43904 0.0524533 0
M  V30 5944 H 546.418 -3.5533 -2.26537 0
M  V30 5945 H 545.142 -2.31133 -2.30749 0
M  V30 5946 H 543.801 -3.61342 -0.618654 0
M  V30 5947 H 543.449 -3.9873 -3.06633 0
M  V30 5948 H 543.149 -5.47502 -2.13343 0
M  V30 5949 H 544.673 -5.2911 -3.04754 0
M  V30 5950 H 546.087 -5.67565 -0.80889 0
M  V30 5951 H 544.484 -6.00036 -0.0874076 0
M  V30 5952 H 545.554 -4.80328 0.664321 0
M  V30 5953 N 546.897 -0.0685191 -1.57451 0
M  V30 5954 C 548.313 0.288101 -1.56978 0
M  V30 5955 C 548.513 1.70262 -1.07765 0
M  V30 5956 O 547.569 2.4135 -0.742054 0
M  V30 5957 C 548.882 0.100745 -3.00531 0
M  V30 5958 C 550.43 0.170531 -3.12535 0
M  V30 5959 C 550.905 0.0114944 -4.57999 0
M  V30 5960 N 552.396 0.0672065 -4.63151 0
M  V30 5961 C 553.131 -0.0314813 -5.73391 0
M  V30 5962 N 552.627 -0.183503 -6.92557 0
M  V30 5963 N 554.42 0.0253489 -5.62094 0
M  V30 5964 H 546.571 -0.993026 -1.87757 0
M  V30 5965 H 548.834 -0.386981 -0.865419 0
M  V30 5966 H 548.54 -0.875197 -3.40636 0
M  V30 5967 H 548.414 0.854457 -3.67395 0
M  V30 5968 H 550.801 1.13696 -2.72318 0
M  V30 5969 H 550.882 -0.614229 -2.48316 0
M  V30 5970 H 550.526 -0.951684 -4.98904 0
M  V30 5971 H 550.456 0.815617 -5.20245 0
M  V30 5972 H 552.947 0.183246 -3.77455 0
M  V30 5973 H 553.26 -0.251041 -7.72392 0
M  V30 5974 H 551.605 -0.218822 -6.94655 0
M  V30 5975 H 554.796 0.142794 -4.67882 0
M  V30 5976 H 554.969 -0.0550166 -6.47977 0
M  V30 5977 N 548.375 1.56261 0.205012 0
M  V30 5978 C 549.622 1.8004 0.926927 0
M  V30 5979 C 549.95 0.640086 1.83666 0
M  V30 5980 O 549.205 -0.374702 1.92079 0
M  V30 5981 C 549.504 3.09722 1.78345 0
M  V30 5982 C 549.17 4.39082 1.02555 0
M  V30 5983 C 547.832 4.74226 0.816256 0
M  V30 5984 C 550.184 5.18877 0.491559 0
M  V30 5985 C 547.512 5.86668 0.0613287 0
M  V30 5986 C 549.864 6.32105 -0.250107 0
M  V30 5987 C 548.528 6.6584 -0.470508 0
M  V30 5988 H 547.798 0.658812 0.339187 0
M  V30 5989 H 550.445 1.90515 0.19395 0
M  V30 5990 H 548.75 2.9444 2.5848 0
M  V30 5991 H 550.447 3.25324 2.34446 0
M  V30 5992 H 547.037 4.11497 1.19868 0
M  V30 5993 H 551.221 4.92147 0.640684 0
M  V30 5994 H 546.477 6.11283 -0.119501 0
M  V30 5995 H 550.651 6.93157 -0.671307 0
M  V30 5996 H 548.278 7.5281 -1.05739 0
M  V30 5997 N 549.853 -0.472356 1.50355 0
M  V30 5998 C 551.101 -1.22211 1.60962 0
M  V30 5999 C 551.422 -1.92497 0.311439 0
M  V30 6000 O 550.692 -1.8405 -0.671002 0
M  V30 6001 H 549.272 -0.454092 0.593135 0
M  V30 6002 H 551.934 -0.544977 1.87126 0
M  V30 6003 H 551.03 -1.9707 2.42012 0
M  V30 6004 N 551.331 -1.39911 -0.725443 0
M  V30 6005 C 552.608 -1.28158 -1.47766 0
M  V30 6006 C 552.988 0.104545 -2.10841 0
M  V30 6007 O 552.336 1.11657 -1.99361 0
M  V30 6008 C 552.546 -2.41306 -2.52135 0
M  V30 6009 C 553.894 -2.81076 -3.18247 0
M  V30 6010 O 554.918 -2.40827 -2.62452 0
M  V30 6011 O 553.777 -3.50581 -4.19231 0
M  V30 6012 H 550.871 -0.502761 -0.656628 0
M  V30 6013 H 553.417 -1.51808 -0.758456 0
M  V30 6014 H 552.189 -3.33932 -2.03974 0
M  V30 6015 H 551.812 -2.19374 -3.31603 0
M  V30 6016 N 552.809 0.956637 -1.25245 0
M  V30 6017 C 554.225 1.22733 -1.02023 0
M  V30 6018 C 554.425 1.99761 0.264186 0
M  V30 6019 O 553.481 2.32814 0.977436 0
M  V30 6020 C 554.794 2.00367 -2.24217 0
M  V30 6021 C 556.342 2.13418 -2.28958 0
M  V30 6022 C 556.817 2.9445 -3.50803 0
M  V30 6023 N 558.308 3.02029 -3.51187 0
M  V30 6024 C 559.043 3.65116 -4.42129 0
M  V30 6025 N 558.539 4.2983 -5.43339 0
M  V30 6026 N 560.332 3.62237 -4.29815 0
M  V30 6027 H 552.483 0.441282 -2.07765 0
M  V30 6028 H 554.746 0.257686 -0.912306 0
M  V30 6029 H 554.452 1.51165 -3.17556 0
M  V30 6030 H 554.326 3.01077 -2.27228 0
M  V30 6031 H 556.713 2.61819 -1.36143 0
M  V30 6032 H 556.794 1.1202 -2.29968 0
M  V30 6033 H 556.438 2.46741 -4.43939 0
M  V30 6034 H 556.368 3.9607 -3.47039 0
M  V30 6035 H 558.859 2.56007 -2.77973 0
M  V30 6036 H 559.172 4.75819 -6.08947 0
M  V30 6037 H 557.517 4.28465 -5.47214 0
M  V30 6038 H 560.708 3.10863 -3.49974 0
M  V30 6039 H 560.881 4.11117 -5.00886 0
M  V30 6040 N 554.287 1.06798 1.15896 0
M  V30 6041 C 555.22 0.627503 2.19403 0
M  V30 6042 C 556.198 -0.352352 1.58736 0
M  V30 6043 O 557.382 -0.260111 1.86697 0
M  V30 6044 C 554.509 -0.079356 3.38607 0
M  V30 6045 C 553.555 0.858057 4.17779 0
M  V30 6046 S 554.388 2.35605 4.80885 0
M  V30 6047 C 555.544 1.66083 6.03463 0
M  V30 6048 H 555.777 1.50441 2.56427 0
M  V30 6049 H 553.31 0.881427 1.26768 0
M  V30 6050 H 555.268 -0.48095 4.07673 0
M  V30 6051 H 553.929 -0.932524 2.99938 0
M  V30 6052 H 553.122 0.310108 5.03045 0
M  V30 6053 H 552.724 1.19977 3.54234 0
M  V30 6054 H 555.016 0.969337 6.7053 0
M  V30 6055 H 555.959 2.49159 6.62816 0
M  V30 6056 H 556.367 1.14122 5.52844 0
M  V30 6057 N 555.766 -1.3263 0.851289 0
M  V30 6058 C 557.013 -1.97368 0.453023 0
M  V30 6059 C 557.341 -1.67384 -0.990596 0
M  V30 6060 O 556.596 -0.952665 -1.70947 0
M  V30 6061 C 556.895 -3.51713 0.635015 0
M  V30 6062 C 556.561 -4.01676 2.04859 0
M  V30 6063 C 555.223 -4.15031 2.43522 0
M  V30 6064 C 557.575 -4.28206 2.97135 0
M  V30 6065 C 554.903 -4.52257 3.73739 0
M  V30 6066 C 557.255 -4.66889 4.26846 0
M  V30 6067 C 555.919 -4.7845 4.65448 0
M  V30 6068 H 555.189 -0.722219 0.165773 0
M  V30 6069 H 557.836 -1.58092 1.0807 0
M  V30 6070 H 556.141 -3.91726 -0.0759081 0
M  V30 6071 H 557.838 -3.99823 0.306964 0
M  V30 6072 H 554.428 -3.91764 1.73836 0
M  V30 6073 H 558.612 -4.174 2.68498 0
M  V30 6074 H 553.868 -4.59402 4.03435 0
M  V30 6075 H 558.042 -4.86372 4.98413 0
M  V30 6076 H 555.669 -5.07052 5.66395 0
M  V30 6077 N 557.244 -0.608902 -1.45362 0
M  V30 6078 C 558.474 -0.110852 -2.06302 0
M  V30 6079 C 558.882 1.21062 -1.45398 0
M  V30 6080 O 558.225 1.74861 -0.562976 0
M  V30 6081 C 558.287 0.101793 -3.59356 0
M  V30 6082 C 557.951 -1.13808 -4.42602 0
M  V30 6083 C 558.948 -2.05653 -4.77496 0
M  V30 6084 C 556.633 -1.36727 -4.83333 0
M  V30 6085 C 558.627 -3.18745 -5.51978 0
M  V30 6086 C 556.314 -2.5012 -5.57569 0
M  V30 6087 C 557.312 -3.40957 -5.91809 0
M  V30 6088 O 557 -4.52376 -6.64538 0
M  V30 6089 H 556.732 -0.0666001 -0.672711 0
M  V30 6090 H 559.286 -0.836942 -1.87575 0
M  V30 6091 H 557.516 0.88279 -3.76489 0
M  V30 6092 H 559.205 0.551607 -4.02134 0
M  V30 6093 H 559.971 -1.89172 -4.46586 0
M  V30 6094 H 555.85 -0.669216 -4.56117 0
M  V30 6095 H 559.394 -3.8967 -5.78622 0
M  V30 6096 H 555.291 -2.66553 -5.87894 0
M  V30 6097 H 556.059 -4.51075 -6.82989 0
M  V30 6098 N 558.722 1.53707 -0.348139 0
M  V30 6099 C 560.138 1.596 0.00361134 0
M  V30 6100 C 560.338 1.36394 1.4832 0
M  V30 6101 O 559.394 1.16046 2.24253 0
M  V30 6102 C 560.707 2.97512 -0.436682 0
M  V30 6103 C 562.255 3.10568 -0.389416 0
M  V30 6104 C 562.73 4.50866 -0.805249 0
M  V30 6105 N 564.221 4.56929 -0.759616 0
M  V30 6106 C 564.956 5.63643 -1.05327 0
M  V30 6107 N 564.452 6.78189 -1.41531 0
M  V30 6108 N 566.245 5.5354 -0.977207 0
M  V30 6109 H 558.396 1.67044 -1.31187 0
M  V30 6110 H 560.659 0.782559 -0.535075 0
M  V30 6111 H 560.365 3.19575 -1.46849 0
M  V30 6112 H 560.239 3.76742 0.185744 0
M  V30 6113 H 562.626 2.88226 0.633228 0
M  V30 6114 H 562.707 2.33387 -1.04711 0
M  V30 6115 H 562.351 4.73943 -1.82593 0
M  V30 6116 H 562.281 5.26452 -0.124989 0
M  V30 6117 H 564.772 3.74675 -0.49265 0
M  V30 6118 H 565.085 7.55541 -1.62411 0
M  V30 6119 H 563.43 6.79624 -1.45381 0
M  V30 6120 H 566.621 4.62932 -0.693675 0
M  V30 6121 H 566.794 6.36614 -1.2094 0
M  V30 6122 N 560.2 0.0768682 1.57412 0
M  V30 6123 C 561.477 -0.632359 1.85096 0
M  V30 6124 C 561.857 -1.87479 0.9703 0
M  V30 6125 O 561.205 -2.28469 0.0379062 0
M  V30 6126 C 561.415 -0.965174 3.35388 0
M  V30 6127 C 562.763 -1.33648 4.03018 0
M  V30 6128 O 563.787 -1.05675 3.40164 0
M  V30 6129 O 562.646 -1.85959 5.13889 0
M  V30 6130 H 559.74 -0.314574 0.764835 0
M  V30 6131 H 562.286 0.108184 1.69355 0
M  V30 6132 H 561.058 -0.0829745 3.91212 0
M  V30 6133 H 560.681 -1.76231 3.5641 0
M  V30 6134 N 561.678 -1.56367 -0.196722 0
M  V30 6135 C 562.924 -1.81698 -0.914182 0
M  V30 6136 C 563.279 -0.65367 -1.80956 0
M  V30 6137 O 562.572 0.351224 -1.88353 0
M  V30 6138 C 562.766 -3.10663 -1.767 0
M  V30 6139 C 562.595 -4.39428 -0.955689 0
M  V30 6140 C 561.365 -5.01221 -0.64076 0
M  V30 6141 C 563.563 -5.1337 -0.309165 0
M  V30 6142 N 561.545 -6.13608 0.189358 0
M  V30 6143 C 562.916 -6.18815 0.383225 0
M  V30 6144 C 564.971 -4.97393 -0.224726 0
M  V30 6145 C 563.674 -7.10015 1.15201 0
M  V30 6146 C 565.7 -5.89014 0.530658 0
M  V30 6147 C 565.062 -6.93903 1.2115 0
M  V30 6148 H 561.161 -0.716203 -0.31397 0
M  V30 6149 H 563.745 -1.93838 -0.18304 0
M  V30 6150 H 561.916 -2.99762 -2.46976 0
M  V30 6151 H 563.648 -3.24088 -2.42382 0
M  V30 6152 H 560.403 -4.63669 -0.96479 0
M  V30 6153 H 560.827 -6.74389 0.593979 0
M  V30 6154 H 565.469 -4.16331 -0.736754 0
M  V30 6155 H 563.187 -7.9054 1.67547 0
M  V30 6156 H 566.773 -5.78726 0.597326 0
M  V30 6157 H 565.653 -7.63576 1.78665 0
M  V30 6158 N 563.156 0.464375 -1.50603 0
M  V30 6159 C 564.402 1.21485 -1.63135 0
M  V30 6160 C 564.757 1.89538 -0.33063 0
M  V30 6161 O 564.05 1.79432 0.671903 0
M  V30 6162 C 564.244 2.278 -2.75394 0
M  V30 6163 C 564.073 1.70178 -4.16257 0
M  V30 6164 C 562.843 1.49854 -4.82568 0
M  V30 6165 C 565.041 1.19298 -5.00272 0
M  V30 6166 N 563.023 0.875458 -6.07626 0
M  V30 6167 C 564.394 0.693527 -6.16109 0
M  V30 6168 C 566.449 1.08216 -4.85998 0
M  V30 6169 C 565.152 0.0941808 -7.19238 0
M  V30 6170 C 567.178 0.496745 -5.8931 0
M  V30 6171 C 566.54 0.00770448 -7.044 0
M  V30 6172 H 562.639 0.433184 -0.651057 0
M  V30 6173 H 565.223 0.515748 -1.87745 0
M  V30 6174 H 563.394 2.95129 -2.52495 0
M  V30 6175 H 565.126 2.94814 -2.77249 0
M  V30 6176 H 561.881 1.75269 -4.39975 0
M  V30 6177 H 562.305 0.582135 -6.74493 0
M  V30 6178 H 566.947 1.44617 -3.97298 0
M  V30 6179 H 564.665 -0.28202 -8.07608 0
M  V30 6180 H 568.251 0.413275 -5.8033 0
M  V30 6181 H 567.131 -0.438188 -7.82975 0
M  V30 6182 N 564.634 1.40294 0.718013 0
M  V30 6183 C 565.582 1.40536 1.85344 0
M  V30 6184 C 566.576 0.286192 1.66965 0
M  V30 6185 O 567.782 0.457105 1.74099 0
M  V30 6186 H 564.157 0.439236 0.61039 0
M  V30 6187 H 566.128 2.36275 1.82255 0
M  V30 6188 C 564.877 1.28245 3.23185 0
M  V30 6189 H 564.2 2.1364 3.37932 0
M  V30 6190 H 565.64 1.32474 4.02774 0
M  V30 6191 C 564.099 -0.0075503 3.36899 0
M  V30 6192 O 564.629 -0.971391 3.89778 0
M  V30 6193 N 562.835 -0.0762479 2.905 0
M  V30 6194 H 562.382 0.708819 2.47656 0
M  V30 6195 H 562.34 -0.938846 3.00055 0
M  V30 6196 N 566.112 -0.949982 1.2575 0
M  V30 6197 C 567.337 -1.73503 1.13628 0
M  V30 6198 C 567.762 -1.85601 -0.30559 0
M  V30 6199 O 567.12 -1.33984 -1.22139 0
M  V30 6200 C 567.168 -3.1243 1.80055 0
M  V30 6201 O 566.272 -3.97916 1.08336 0
M  V30 6202 H 565.613 -0.532665 0.396439 0
M  V30 6203 H 568.143 -1.19043 1.66403 0
M  V30 6204 H 568.153 -3.62866 1.86527 0
M  V30 6205 H 566.828 -3.02941 2.84956 0
M  V30 6206 H 565.405 -3.56375 1.09777 0
M  V30 6207 N 567.59 -1.07411 -1.15328 0
M  V30 6208 C 568.818 -0.818782 -1.90009 0
M  V30 6209 C 569.233 0.628072 -1.78047 0
M  V30 6210 O 568.59 1.43085 -1.13282 0
M  V30 6211 C 568.641 -1.21874 -3.40337 0
M  V30 6212 O 568.362 -2.60883 -3.51954 0
M  V30 6213 C 569.863 -0.992796 -4.3204 0
M  V30 6214 H 567.083 -0.296007 -0.60218 0
M  V30 6215 H 569.627 -1.43073 -1.46117 0
M  V30 6216 H 567.782 -0.651103 -3.81889 0
M  V30 6217 H 568.196 -2.77216 -4.45255 0
M  V30 6218 H 569.67 -1.32215 -5.35932 0
M  V30 6219 H 570.147 0.0708331 -4.39143 0
M  V30 6220 H 570.753 -1.54537 -3.9623 0
M  V30 6221 N 569.068 1.32177 -0.85831 0
M  V30 6222 C 570.293 2.01847 -0.476718 0
M  V30 6223 C 570.718 1.64065 0.920021 0
M  V30 6224 O 570.076 0.843189 1.60499 0
M  V30 6225 C 570.124 3.55097 -0.627578 0
M  V30 6226 O 569.228 4.11012 0.338086 0
M  V30 6227 H 568.569 0.635907 -0.191099 0
M  V30 6228 H 571.099 1.68641 -1.15851 0
M  V30 6229 H 571.109 4.04718 -0.516476 0
M  V30 6230 H 569.784 3.81938 -1.64609 0
M  V30 6231 H 568.361 3.72451 0.182917 0
M  V30 6232 N 570.547 0.616602 1.45037 0
M  V30 6233 C 571.794 0.115331 2.02171 0
M  V30 6234 C 572.122 -1.25748 1.48383 0
M  V30 6235 O 571.377 -1.84511 0.652229 0
M  V30 6236 C 571.676 0.0356829 3.57382 0
M  V30 6237 C 571.342 1.34535 4.30362 0
M  V30 6238 C 570.004 1.70408 4.50016 0
M  V30 6239 C 572.356 2.21049 4.72003 0
M  V30 6240 C 569.684 2.92529 5.0857 0
M  V30 6241 C 572.036 3.42427 5.31908 0
M  V30 6242 C 570.7 3.78541 5.49784 0
M  V30 6243 H 569.97 0.0422024 0.739797 0
M  V30 6244 H 572.617 0.80002 1.73988 0
M  V30 6245 H 570.922 -0.732314 3.84895 0
M  V30 6246 H 572.619 -0.368463 3.99304 0
M  V30 6247 H 569.209 1.05615 4.15383 0
M  V30 6248 H 573.393 1.94632 4.56544 0
M  V30 6249 H 568.649 3.20605 5.20598 0
M  V30 6250 H 572.823 4.09709 5.63127 0
M  V30 6251 H 570.45 4.73255 5.94923 0
M  V30 6252 N 572.025 -1.5352 0.356285 0
M  V30 6253 C 573.25 -2.06007 -0.239961 0
M  V30 6254 C 573.675 -1.22872 -1.42422 0
M  V30 6255 O 573.033 -0.245516 -1.7963 0
M  V30 6256 C 573.081 -3.5522 -0.620587 0
M  V30 6257 O 572.185 -3.74864 -1.71902 0
M  V30 6258 H 571.526 -0.662961 -0.0371377 0
M  V30 6259 H 574.056 -1.98033 0.514194 0
M  V30 6260 H 574.066 -3.98081 -0.894197 0
M  V30 6261 H 572.741 -4.15175 0.245407 0
M  V30 6262 H 571.318 -3.43904 -1.44169 0
M  V30 6263 N 573.503 -0.0852151 -1.57369 0
M  V30 6264 C 574.451 0.894856 -2.14698 0
M  V30 6265 C 575.445 1.29903 -1.08727 0
M  V30 6266 O 576.651 1.27471 -1.27088 0
M  V30 6267 H 573.026 0.306569 -0.686673 0
M  V30 6268 H 574.997 0.386542 -2.95886 0
M  V30 6269 C 573.746 2.14798 -2.73417 0
M  V30 6270 H 573.069 1.84585 -3.54638 0
M  V30 6271 H 574.509 2.81456 -3.1711 0
M  V30 6272 C 572.968 2.91546 -1.68828 0
M  V30 6273 O 573.498 3.85733 -1.12129 0
M  V30 6274 N 571.704 2.54901 -1.39549 0
M  V30 6275 H 571.251 1.7838 -1.85845 0
M  V30 6276 H 571.209 3.06553 -0.698054 0
M  V30 6277 N 574.981 1.5647 0.188427 0
M  V30 6278 C 576.211 1.84863 0.922463 0
M  V30 6279 C 576.619 0.666413 1.77075 0
M  V30 6280 O 575.962 -0.374044 1.79852 0
M  V30 6281 C 576.024 3.07447 1.86324 0
M  V30 6282 C 575.688 4.41066 1.19625 0
M  V30 6283 C 576.685 5.16767 0.569946 0
M  V30 6284 C 574.37 4.87802 1.19811 0
M  V30 6285 C 576.364 6.37384 -0.045594 0
M  V30 6286 C 574.051 6.08353 0.57874 0
M  V30 6287 C 575.049 6.82987 -0.0420259 0
M  V30 6288 O 574.737 8.01254 -0.651675 0
M  V30 6289 H 574.469 0.61784 0.274316 0
M  V30 6290 H 577.023 2.04437 0.198613 0
M  V30 6291 H 575.253 2.83774 2.62696 0
M  V30 6292 H 576.942 3.2243 2.46564 0
M  V30 6293 H 577.708 4.81749 0.560601 0
M  V30 6294 H 573.587 4.29662 1.67069 0
M  V30 6295 H 577.131 6.95578 -0.530731 0
M  V30 6296 H 573.028 6.42838 0.58561 0
M  V30 6297 H 573.796 8.16655 -0.549236 0
M  V30 6298 N 576.459 -0.456382 1.50847 0
M  V30 6299 C 577.689 -1.22848 1.66108 0
M  V30 6300 C 578.097 -1.85936 0.349897 0
M  V30 6301 O 577.44 -1.70664 -0.679665 0
M  V30 6302 C 577.502 -2.36722 2.70561 0
M  V30 6303 C 577.166 -1.94154 4.13707 0
M  V30 6304 C 578.163 -1.4557 4.99105 0
M  V30 6305 C 575.848 -2.02426 4.59705 0
M  V30 6306 C 577.842 -1.0582 6.28555 0
M  V30 6307 C 575.529 -1.62287 5.89157 0
M  V30 6308 C 576.527 -1.14064 6.73408 0
M  V30 6309 O 576.215 -0.744873 8.00442 0
M  V30 6310 H 575.947 -0.377105 0.561042 0
M  V30 6311 H 578.501 -0.549431 1.97915 0
M  V30 6312 H 576.731 -3.07844 2.34027 0
M  V30 6313 H 578.42 -2.98646 2.74892 0
M  V30 6314 H 579.186 -1.38589 4.64777 0
M  V30 6315 H 575.065 -2.38908 3.94264 0
M  V30 6316 H 578.609 -0.6811 6.94267 0
M  V30 6317 H 574.506 -1.68932 6.23003 0
M  V30 6318 H 575.274 -0.87242 8.13837 0
M  V30 6319 N 577.937 -1.40673 -0.710563 0
M  V30 6320 C 579.353 -1.22813 -1.01928 0
M  V30 6321 C 579.553 -0.10687 -2.01216 0
M  V30 6322 O 578.609 0.533614 -2.46797 0
M  V30 6323 C 579.922 -2.57178 -1.5582 0
M  V30 6324 C 581.47 -2.64233 -1.67779 0
M  V30 6325 C 581.945 -3.98879 -2.25076 0
M  V30 6326 N 583.436 -4.00647 -2.32456 0
M  V30 6327 C 584.171 -5.01621 -2.77784 0
M  V30 6328 N 583.667 -6.12989 -3.22826 0
M  V30 6329 N 585.46 -4.88988 -2.77213 0
M  V30 6330 H 577.611 -2.12335 -0.05253 0
M  V30 6331 H 579.874 -0.9441 -0.085898 0
M  V30 6332 H 579.58 -3.39903 -0.903249 0
M  V30 6333 H 579.454 -2.78618 -2.54267 0
M  V30 6334 H 581.841 -1.81876 -2.3239 0
M  V30 6335 H 581.922 -2.46619 -0.679178 0
M  V30 6336 H 581.566 -4.81678 -1.61086 0
M  V30 6337 H 581.496 -4.13826 -3.25661 0
M  V30 6338 H 583.987 -3.20231 -2.0065 0
M  V30 6339 H 584.3 -6.85921 -3.55995 0
M  V30 6340 H 582.645 -6.16547 -3.20773 0
M  V30 6341 H 585.836 -4.01075 -2.41363 0
M  V30 6342 H 586.009 -5.67822 -3.12221 0
M  V30 6343 N 579.415 0.9433 -1.26252 0
M  V30 6344 C 580.643 1.72367 -1.14443 0
M  V30 6345 C 581.058 1.86392 0.300572 0
M  V30 6346 O 580.415 1.36978 1.20596 0
M  V30 6347 C 580.466 3.13155 -1.806 0
M  V30 6348 O 580.187 2.99803 -3.19452 0
M  V30 6349 C 581.688 4.07417 -1.74717 0
M  V30 6350 H 578.908 0.539758 -0.398626 0
M  V30 6351 H 581.452 1.18268 -1.66832 0
M  V30 6352 H 579.607 3.64162 -1.32154 0
M  V30 6353 H 580.021 3.88697 -3.52158 0
M  V30 6354 H 581.495 5.03773 -2.25647 0
M  V30 6355 H 581.972 4.3337 -0.713244 0
M  V30 6356 H 582.578 3.6233 -2.22704 0
M  V30 6357 N 580.893 1.08022 1.14757 0
M  V30 6358 C 582.139 0.818552 1.86202 0
M  V30 6359 C 582.494 -0.648563 1.81139 0
M  V30 6360 O 581.787 -1.4704 1.22841 0
M  V30 6361 C 581.981 1.26964 3.34088 0
M  V30 6362 C 581.81 2.77907 3.5355 0
M  V30 6363 C 580.58 3.45604 3.68627 0
M  V30 6364 C 582.778 3.7609 3.50801 0
M  V30 6365 N 580.76 4.85119 3.76209 0
M  V30 6366 C 582.131 5.0148 3.64579 0
M  V30 6367 C 584.186 3.6915 3.34115 0
M  V30 6368 C 582.889 6.20755 3.63395 0
M  V30 6369 C 584.915 4.87896 3.34233 0
M  V30 6370 C 584.277 6.12123 3.48547 0
M  V30 6371 H 580.376 0.352186 0.698204 0
M  V30 6372 H 582.96 1.37781 1.37567 0
M  V30 6373 H 581.131 0.738008 3.81324 0
M  V30 6374 H 582.863 0.954806 3.93275 0
M  V30 6375 H 579.618 2.96016 3.69691 0
M  V30 6376 H 580.042 5.57748 3.83726 0
M  V30 6377 H 584.684 2.74045 3.21961 0
M  V30 6378 H 582.402 7.16175 3.74326 0
M  V30 6379 H 585.988 4.8421 3.2254 0
M  V30 6380 H 584.868 7.02468 3.48581 0
M  V30 6381 N 582.371 -1.3172 0.865308 0
M  V30 6382 C 583.319 -2.30569 0.306674 0
M  V30 6383 C 584.313 -1.59317 -0.575724 0
M  V30 6384 O 585.519 -1.73961 -0.462343 0
M  V30 6385 H 581.894 -0.747681 0.0804834 0
M  V30 6386 H 583.865 -2.75165 1.15441 0
M  V30 6387 C 582.614 -3.44358 -0.480952 0
M  V30 6388 H 581.937 -3.99354 0.18876 0
M  V30 6389 H 583.377 -4.15652 -0.837241 0
M  V30 6390 C 581.836 -2.92574 -1.67039 0
M  V30 6391 O 582.366 -2.90954 -2.76964 0
M  V30 6392 N 580.572 -2.48835 -1.50097 0
M  V30 6393 H 580.119 -2.50353 -0.606738 0
M  V30 6394 H 580.077 -2.14543 -2.29823 0
M  V30 6395 N 583.85 -0.624285 -1.44708 0
M  V30 6396 C 585.096 -0.126237 -2.02407 0
M  V30 6397 C 585.428 1.24618 -1.48943 0
M  V30 6398 O 584.704 1.82569 -0.670742 0
M  V30 6399 C 584.986 -0.105449 -3.59946 0
M  V30 6400 C 584.84 -1.50972 -4.23707 0
M  V30 6401 C 586.159 0.573629 -4.36346 0
M  V30 6402 H 583.278 -0.0473472 -0.735478 0
M  V30 6403 H 585.92 -0.799452 -1.72362 0
M  V30 6404 H 584.07 0.46783 -3.85673 0
M  V30 6405 H 585.742 -2.13136 -4.0911 0
M  V30 6406 H 583.985 -2.0656 -3.81465 0
M  V30 6407 H 584.656 -1.44727 -5.32689 0
M  V30 6408 H 587.132 0.0861787 -4.16011 0
M  V30 6409 H 586.008 0.557338 -5.46063 0
M  V30 6410 H 586.269 1.64276 -4.10446 0
M  V30 6411 N 585.328 1.53329 -0.364422 0
M  V30 6412 C 586.574 2.01537 0.225969 0
M  V30 6413 C 586.907 1.25128 1.48515 0
M  V30 6414 O 586.182 0.344653 1.91422 0
M  V30 6415 C 586.465 3.56339 0.519092 0
M  V30 6416 C 586.318 4.43441 -0.753639 0
M  V30 6417 C 587.637 4.19833 1.32015 0
M  V30 6418 H 584.756 0.732573 0.0806548 0
M  V30 6419 H 587.398 1.83597 -0.489084 0
M  V30 6420 H 585.548 3.71756 1.12825 0
M  V30 6421 H 587.22 4.39823 -1.39116 0
M  V30 6422 H 585.463 4.11457 -1.37424 0
M  V30 6423 H 586.134 5.49699 -0.503517 0
M  V30 6424 H 588.61 4.08242 0.804859 0
M  V30 6425 H 587.486 5.28177 1.49399 0
M  V30 6426 H 587.747 3.75821 2.32832 0
M  V30 6427 N 586.806 0.0935595 1.57322 0
M  V30 6428 C 588.052 -0.571355 1.94585 0
M  V30 6429 C 588.385 -1.67929 0.975366 0
M  V30 6430 O 587.66 -1.94498 0.00816206 0
M  V30 6431 C 587.943 -1.12797 3.41978 0
M  V30 6432 C 587.796 -0.0251881 4.49793 0
M  V30 6433 C 589.115 -2.02682 3.90651 0
M  V30 6434 H 586.234 -0.206223 0.70756 0
M  V30 6435 H 588.876 0.163956 1.89291 0
M  V30 6436 H 587.026 -1.75461 3.4662 0
M  V30 6437 H 588.698 0.608979 4.57263 0
M  V30 6438 H 586.941 0.641399 4.29032 0
M  V30 6439 H 587.612 -0.455433 5.50118 0
M  V30 6440 H 590.088 -1.49925 3.88152 0
M  V30 6441 H 588.964 -2.38555 4.94351 0
M  V30 6442 H 589.225 -2.94362 3.29854 0
M  V30 6443 N 588.284 -1.56567 -0.180126 0
M  V30 6444 C 589.234 -1.92132 -1.22756 0
M  V30 6445 C 590.218 -0.788639 -1.40247 0
M  V30 6446 O 591.41 -1.05171 -1.42366 0
M  V30 6447 C 588.539 -2.27719 -2.56902 0
M  V30 6448 C 587.625 -3.47481 -2.43142 0
M  V30 6449 N 588.016 -4.64973 -1.99082 0
M  V30 6450 C 586.314 -3.51914 -2.73994 0
M  V30 6451 C 587.015 -5.47119 -1.97574 0
M  V30 6452 N 585.991 -4.87925 -2.39645 0
M  V30 6453 H 589.793 -2.80464 -0.878478 0
M  V30 6454 H 587.307 -1.57686 -0.388463 0
M  V30 6455 H 589.304 -2.51389 -3.32579 0
M  V30 6456 H 587.964 -1.40722 -2.92621 0
M  V30 6457 H 588.975 -4.89358 -1.69557 0
M  V30 6458 H 585.652 -2.75372 -3.13809 0
M  V30 6459 H 587.042 -6.51254 -1.65282 0
M  V30 6460 N 589.762 0.448376 -1.51087 0
M  V30 6461 C 591.039 1.20926 -1.53741 0
M  V30 6462 C 591.419 2.09025 -0.295222 0
M  V30 6463 O 590.767 2.16851 0.720283 0
M  V30 6464 C 590.977 2.02067 -2.84552 0
M  V30 6465 C 592.325 2.59486 -3.36084 0
M  V30 6466 O 593.349 2.12289 -2.86028 0
M  V30 6467 O 592.208 3.45539 -4.23397 0
M  V30 6468 H 589.302 0.549951 -0.617643 0
M  V30 6469 H 591.848 0.458344 -1.63393 0
M  V30 6470 H 590.62 1.37291 -3.66425 0
M  V30 6471 H 590.243 2.84246 -2.78011 0
M  V30 6472 N 591.24 1.41047 0.703093 0
M  V30 6473 C 592.486 1.41209 1.46396 0
M  V30 6474 C 592.841 0.0180188 1.92392 0
M  V30 6475 O 592.134 -0.954739 1.66118 0
M  V30 6476 C 592.328 2.34686 2.6955 0
M  V30 6477 C 592.157 3.83044 2.35601 0
M  V30 6478 C 590.927 4.51777 2.26331 0
M  V30 6479 C 593.125 4.74215 1.9906 0
M  V30 6480 N 591.107 5.85302 1.85188 0
M  V30 6481 C 592.478 5.96631 1.68616 0
M  V30 6482 C 594.533 4.61932 1.85805 0
M  V30 6483 C 593.236 7.08134 1.26249 0
M  V30 6484 C 595.262 5.73389 1.44842 0
M  V30 6485 C 594.624 6.94899 1.15304 0
M  V30 6486 H 590.723 0.571951 0.533288 0
M  V30 6487 H 593.307 1.76859 0.814179 0
M  V30 6488 H 591.478 2.01143 3.32259 0
M  V30 6489 H 593.21 2.25618 3.35974 0
M  V30 6490 H 589.965 4.05618 2.44482 0
M  V30 6491 H 590.389 6.56049 1.67119 0
M  V30 6492 H 595.031 3.68494 2.07298 0
M  V30 6493 H 592.749 8.01445 1.035 0
M  V30 6494 H 596.335 5.65886 1.35146 0
M  V30 6495 H 595.215 7.79679 0.840854 0
M  V30 6496 N 592.718 -0.936591 1.26751 0
M  V30 6497 C 593.648 -2.05315 1.11212 0
M  V30 6498 C 594.629 -1.70092 0.0160262 0
M  V30 6499 O 595.814 -1.93279 0.188894 0
M  V30 6500 C 592.944 -3.39123 0.749171 0
M  V30 6501 C 591.898 -3.88425 1.79751 0
M  V30 6502 C 591.224 -5.18936 1.28876 0
M  V30 6503 C 592.524 -4.12798 3.19992 0
M  V30 6504 H 594.218 -2.18573 2.04613 0
M  V30 6505 H 591.764 -1.05027 0.985159 0
M  V30 6506 H 593.717 -4.16704 0.627323 0
M  V30 6507 H 592.441 -3.25855 -0.220543 0
M  V30 6508 H 591.1 -3.13028 1.90811 0
M  V30 6509 H 590.748 -5.02051 0.308757 0
M  V30 6510 H 590.448 -5.52892 1.98958 0
M  V30 6511 H 591.972 -5.99096 1.17967 0
M  V30 6512 H 593.386 -4.80977 3.11983 0
M  V30 6513 H 591.783 -4.58044 3.87705 0
M  V30 6514 H 592.853 -3.18412 3.65707 0
M  V30 6515 N 594.196 -1.08629 -1.14182 0
M  V30 6516 C 595.426 -0.837673 -1.88856 0
M  V30 6517 C 595.834 0.614024 -1.78959 0
M  V30 6518 O 595.177 1.43384 -1.14833 0
M  V30 6519 C 595.239 -1.18355 -3.39459 0
M  V30 6520 C 594.903 -2.63848 -3.73139 0
M  V30 6521 C 595.9 -3.62099 -3.73069 0
M  V30 6522 C 593.585 -2.99761 -4.03049 0
M  V30 6523 C 595.579 -4.94292 -4.02435 0
M  V30 6524 C 593.266 -4.32147 -4.32078 0
M  V30 6525 C 594.264 -5.29223 -4.31755 0
M  V30 6526 O 593.952 -6.59229 -4.60079 0
M  V30 6527 H 593.684 -0.301609 -0.604986 0
M  V30 6528 H 596.238 -1.44961 -1.45518 0
M  V30 6529 H 594.468 -0.514628 -3.8326 0
M  V30 6530 H 596.157 -0.915391 -3.95443 0
M  V30 6531 H 596.923 -3.35698 -3.50046 0
M  V30 6532 H 592.802 -2.2484 -4.02453 0
M  V30 6533 H 596.346 -5.70055 -4.02098 0
M  V30 6534 H 592.243 -4.58296 -4.54571 0
M  V30 6535 H 593.011 -6.64578 -4.77785 0
M  V30 6536 N 595.674 1.31259 -0.872281 0
M  V30 6537 C 596.899 2.0133 -0.498099 0
M  V30 6538 C 597.324 1.65031 0.902568 0
M  V30 6539 O 596.682 0.860164 1.59596 0
M  V30 6540 C 596.73 3.54411 -0.665205 0
M  V30 6541 O 595.834 4.11347 0.294473 0
M  V30 6542 H 595.175 0.633844 -0.197832 0
M  V30 6543 H 597.705 1.67402 -1.17633 0
M  V30 6544 H 597.715 4.04147 -0.559373 0
M  V30 6545 H 596.39 3.80171 -1.68651 0
M  V30 6546 H 594.967 3.72624 0.143403 0
M  V30 6547 N 597.152 0.631951 1.44375 0
M  V30 6548 C 598.382 0.143658 2.061 0
M  V30 6549 C 598.79 -1.18733 1.47306 0
M  V30 6550 O 598.133 -1.73943 0.590724 0
M  V30 6551 C 598.195 -0.0446102 3.59472 0
M  V30 6552 C 597.859 1.20835 4.40736 0
M  V30 6553 C 598.856 2.13224 4.74164 0
M  V30 6554 C 596.541 1.44399 4.81097 0
M  V30 6555 C 598.535 3.27487 5.46838 0
M  V30 6556 C 596.222 2.58959 5.53519 0
M  V30 6557 C 597.22 3.50329 5.86309 0
M  V30 6558 O 596.908 4.62891 6.57257 0
M  V30 6559 H 596.64 0.0772939 0.671567 0
M  V30 6560 H 599.194 0.866677 1.8622 0
M  V30 6561 H 597.424 -0.822783 3.77845 0
M  V30 6562 H 599.113 -0.487561 4.02961 0
M  V30 6563 H 599.879 1.96253 4.4352 0
M  V30 6564 H 595.758 0.741696 4.54994 0
M  V30 6565 H 599.302 3.98826 5.72349 0
M  V30 6566 H 595.199 2.75873 5.83579 0
M  V30 6567 H 595.967 4.61883 6.75726 0
M  V30 6568 N 598.631 -1.53133 0.372548 0
M  V30 6569 C 599.877 -2.01654 -0.215277 0
M  V30 6570 C 600.21 -1.25914 -1.47849 0
M  V30 6571 O 599.485 -0.3548 -1.91237 0
M  V30 6572 C 599.768 -3.56609 -0.500187 0
M  V30 6573 C 599.621 -4.43036 0.777145 0
M  V30 6574 C 600.94 -4.20528 -1.29786 0
M  V30 6575 H 598.059 -0.732991 -0.0767686 0
M  V30 6576 H 600.701 -1.83335 0.498814 0
M  V30 6577 H 598.851 -3.7235 -1.10852 0
M  V30 6578 H 600.523 -4.39079 1.41447 0
M  V30 6579 H 598.766 -4.10723 1.39604 0
M  V30 6580 H 599.437 -5.49424 0.532662 0
M  V30 6581 H 601.913 -4.08663 -0.783198 0
M  V30 6582 H 600.789 -5.28962 -1.46596 0
M  V30 6583 H 601.05 -3.77051 -2.30836 0
M  V30 6584 N 600.109 -0.101901 -1.5727 0
M  V30 6585 C 601.339 0.567568 -1.98651 0
M  V30 6586 C 601.747 1.61839 -0.980037 0
M  V30 6587 O 601.09 1.83661 0.0376564 0
M  V30 6588 C 601.152 1.26742 -3.36417 0
M  V30 6589 C 600.816 0.366561 -4.55528 0
M  V30 6590 C 601.813 -0.388022 -5.1845 0
M  V30 6591 C 599.498 0.282629 -5.01504 0
M  V30 6592 C 601.492 -1.21445 -6.25724 0
M  V30 6593 C 599.179 -0.547443 -6.08643 0
M  V30 6594 C 600.177 -1.29462 -6.70618 0
M  V30 6595 O 599.865 -2.11095 -7.7569 0
M  V30 6596 H 599.597 0.156282 -0.657687 0
M  V30 6597 H 602.151 -0.179912 -2.04611 0
M  V30 6598 H 600.381 2.06162 -3.27161 0
M  V30 6599 H 602.07 1.8321 -3.622 0
M  V30 6600 H 602.836 -0.332949 -4.83856 0
M  V30 6601 H 598.715 0.853868 -4.53023 0
M  V30 6602 H 602.259 -1.79814 -6.74027 0
M  V30 6603 H 598.156 -0.603971 -6.42668 0
M  V30 6604 H 598.924 -2.03851 -7.92709 0
M  V30 6605 N 601.587 1.56661 0.17182 0
M  V30 6606 C 602.519 1.92934 1.2373 0
M  V30 6607 C 603.532 0.822385 1.40502 0
M  V30 6608 O 604.721 1.10083 1.40514 0
M  V30 6609 C 601.821 2.16651 2.60607 0
M  V30 6610 C 600.994 3.47878 2.6514 0
M  V30 6611 C 600.053 3.60429 3.83377 0
M  V30 6612 O 599.079 4.33051 3.69398 0
M  V30 6613 N 600.281 2.95241 4.99813 0
M  V30 6614 H 603.046 2.84931 0.929205 0
M  V30 6615 H 600.607 1.5781 0.361588 0
M  V30 6616 H 602.599 2.22312 3.38171 0
M  V30 6617 H 601.169 1.3104 2.83809 0
M  V30 6618 H 600.389 3.53879 1.73675 0
M  V30 6619 H 601.677 4.34232 2.6518 0
M  V30 6620 H 601.075 2.3611 5.14071 0
M  V30 6621 H 599.632 3.06499 5.75241 0
M  V30 6622 N 603.065 -0.440357 1.51323 0
M  V30 6623 C 604.342 -1.20109 1.5438 0
M  V30 6624 C 604.722 -2.08866 0.306303 0
M  V30 6625 O 604.07 -2.1723 -0.708773 0
M  V30 6626 C 604.28 -2.00555 2.8562 0
M  V30 6627 C 605.628 -2.577 3.37455 0
M  V30 6628 O 606.652 -2.10769 2.8715 0
M  V30 6629 O 605.511 -3.43289 4.25224 0
M  V30 6630 H 602.605 -0.546668 0.620551 0
M  V30 6631 H 605.151 -0.449672 1.63634 0
M  V30 6632 H 603.923 -1.35346 3.67147 0
M  V30 6633 H 603.546 -2.82768 2.79514 0
M  V30 6634 N 604.543 -1.41418 -0.695603 0
M  V30 6635 C 605.791 -1.40496 -1.45277 0
M  V30 6636 C 606.112 -0.0149538 -1.94994 0
M  V30 6637 O 605.382 0.9432 -1.71699 0
M  V30 6638 H 603.962 -0.517147 -0.539044 0
M  V30 6639 H 606.624 -1.76656 -0.823321 0
M  V30 6640 H 605.72 -2.09214 -2.31595 0
M  V30 6641 N 606.021 0.929856 -1.27246 0
M  V30 6642 C 606.951 2.04722 -1.12299 0
M  V30 6643 C 607.932 1.70082 -0.0250464 0
M  V30 6644 O 609.117 1.93176 -0.199141 0
M  V30 6645 C 606.247 3.38721 -0.767145 0
M  V30 6646 C 605.201 3.87466 -1.81808 0
M  V30 6647 C 604.527 5.18246 -1.31626 0
M  V30 6648 C 605.827 4.11095 -3.22177 0
M  V30 6649 H 607.521 2.17485 -2.05769 0
M  V30 6650 H 605.067 1.04503 -0.990715 0
M  V30 6651 H 607.02 4.16366 -0.649413 0
M  V30 6652 H 605.744 3.25967 0.203259 0
M  V30 6653 H 604.403 3.12012 -1.92468 0
M  V30 6654 H 604.051 5.01881 -0.335378 0
M  V30 6655 H 603.751 5.51829 -2.01887 0
M  V30 6656 H 605.275 5.98462 -1.21143 0
M  V30 6657 H 606.689 4.79316 -3.1453 0
M  V30 6658 H 605.086 4.55982 -3.90129 0
M  V30 6659 H 606.156 3.16468 -3.67391 0
M  V30 6660 N 607.499 1.09233 1.13605 0
M  V30 6661 C 608.915 0.82163 1.36826 0
M  V30 6662 C 609.115 -0.565021 1.93416 0
M  V30 6663 O 608.171 -1.32026 2.15234 0
M  V30 6664 C 609.484 1.91124 2.32147 0
M  V30 6665 C 611.032 1.93824 2.45767 0
M  V30 6666 C 611.507 3.01923 3.44393 0
M  V30 6667 N 612.998 3.01149 3.51942 0
M  V30 6668 C 613.733 3.81434 4.2813 0
M  V30 6669 N 613.229 4.71621 5.07489 0
M  V30 6670 N 615.022 3.69702 4.23411 0
M  V30 6671 H 607.173 1.98633 0.752234 0
M  V30 6672 H 609.436 0.862482 0.393482 0
M  V30 6673 H 609.142 2.90862 1.97717 0
M  V30 6674 H 609.016 1.78777 3.32142 0
M  V30 6675 H 611.403 0.94726 2.79483 0
M  V30 6676 H 611.484 2.10248 1.45703 0
M  V30 6677 H 611.128 4.01232 3.11408 0
M  V30 6678 H 611.058 2.82742 4.44257 0
M  V30 6679 H 613.549 2.35789 2.95317 0
M  V30 6680 H 613.862 5.29468 5.62924 0
M  V30 6681 H 612.207 4.75658 5.06729 0
M  V30 6682 H 615.398 2.98606 3.60489 0
M  V30 6683 H 615.571 4.32509 4.82535 0
M  V30 6684 N 608.977 -1.30795 0.87923 0
M  V30 6685 C 609.907 -2.30742 0.357796 0
M  V30 6686 C 610.888 -1.60747 -0.556283 0
M  V30 6687 O 612.073 -1.88393 -0.47135 0
M  V30 6688 C 609.203 -3.44583 -0.433555 0
M  V30 6689 C 608.157 -4.26235 0.388251 0
M  V30 6690 C 607.483 -5.32073 -0.529352 0
M  V30 6691 C 608.783 -4.96303 1.62729 0
M  V30 6692 H 610.477 -2.74605 1.19299 0
M  V30 6693 H 608.023 -1.32017 0.575104 0
M  V30 6694 H 609.976 -4.13563 -0.808934 0
M  V30 6695 H 608.7 -2.99511 -1.30234 0
M  V30 6696 H 607.359 -3.58936 0.745695 0
M  V30 6697 H 607.007 -4.83249 -1.39569 0
M  V30 6698 H 606.707 -5.87598 0.0166741 0
M  V30 6699 H 608.231 -6.0391 -0.901373 0
M  V30 6700 H 609.645 -5.5783 1.32283 0
M  V30 6701 H 608.042 -5.61666 2.11309 0
M  V30 6702 H 609.112 -4.22758 2.37494 0
M  V30 6703 N 610.455 -0.639598 -1.44038 0
M  V30 6704 C 611.385 0.0469443 -2.33453 0
M  V30 6705 C 612.366 0.82609 -1.48694 0
M  V30 6706 O 613.551 0.790285 -1.77393 0
M  V30 6707 C 610.681 1.02338 -3.3188 0
M  V30 6708 C 609.635 0.355284 -4.26523 0
M  V30 6709 C 608.961 1.44221 -5.14883 0
M  V30 6710 C 610.261 -0.743798 -5.16977 0
M  V30 6711 H 611.955 -0.699735 -2.91108 0
M  V30 6712 H 609.501 -0.337946 -1.39978 0
M  V30 6713 H 611.454 1.51247 -3.93322 0
M  V30 6714 H 610.178 1.80105 -2.72451 0
M  V30 6715 H 608.837 -0.113239 -3.66425 0
M  V30 6716 H 608.485 2.21097 -4.51802 0
M  V30 6717 H 608.185 1.00052 -5.79019 0
M  V30 6718 H 609.709 1.93295 -5.79197 0
M  V30 6719 H 611.123 -0.337444 -5.72306 0
M  V30 6720 H 609.52 -1.10914 -5.89761 0
M  V30 6721 H 610.59 -1.60745 -4.57481 0
M  V30 6722 N 611.933 1.52934 -0.380664 0
M  V30 6723 C 613.181 2.01069 0.203874 0
M  V30 6724 C 613.502 1.26922 1.4804 0
M  V30 6725 O 612.772 0.386787 1.92044 0
M  V30 6726 H 611.352 0.742882 0.0783279 0
M  V30 6727 H 614.014 1.88099 -0.510368 0
M  V30 6728 H 613.11 3.09258 0.42021 0
M  V30 6729 N 613.412 0.11024 1.57214 0
M  V30 6730 C 614.375 -0.828808 2.1369 0
M  V30 6731 C 615.375 -1.20059 1.06969 0
M  V30 6732 O 616.565 -1.12754 1.32786 0
M  V30 6733 C 613.697 -2.11959 2.66994 0
M  V30 6734 H 614.89 -0.338146 2.97988 0
M  V30 6735 H 612.443 -0.138913 1.55681 0
M  V30 6736 H 613.178 -2.65476 1.8626 0
M  V30 6737 H 612.963 -1.86258 3.45037 0
M  V30 6738 H 614.453 -2.79105 3.10629 0
M  V30 6739 N 614.89 -1.56749 -0.16351 0
M  V30 6740 C 616.306 -1.51043 -0.515567 0
M  V30 6741 C 616.506 -0.815855 -1.84245 0
M  V30 6742 O 615.562 -0.379477 -2.49632 0
M  V30 6743 C 616.875 -2.95791 -0.541114 0
M  V30 6744 C 618.423 -3.0664 -0.627776 0
M  V30 6745 C 618.898 -4.52861 -0.684141 0
M  V30 6746 N 620.389 -4.5714 -0.746818 0
M  V30 6747 C 621.124 -5.67634 -0.811137 0
M  V30 6748 N 620.62 -6.8774 -0.835811 0
M  V30 6749 N 622.413 -5.55624 -0.850756 0
M  V30 6750 H 614.564 -2.00307 0.70645 0
M  V30 6751 H 616.827 -0.912876 0.255659 0
M  V30 6752 H 616.533 -3.49797 0.365329 0
M  V30 6753 H 616.407 -3.50858 -1.38487 0
M  V30 6754 H 618.794 -2.52663 -1.52464 0
M  V30 6755 H 618.875 -2.54645 0.242805 0
M  V30 6756 H 618.519 -5.07472 0.2085 0
M  V30 6757 H 618.449 -5.02621 -1.57098 0
M  V30 6758 H 620.94 -3.70669 -0.735717 0
M  V30 6759 H 621.253 -7.67701 -0.886279 0
M  V30 6760 H 619.598 -6.90334 -0.803958 0
M  V30 6761 H 622.789 -4.60709 -0.828535 0
M  V30 6762 H 622.962 -6.41756 -0.897418 0
M  V30 6763 N 616.368 0.432326 -1.51554 0
M  V30 6764 C 617.331 1.50765 -1.72634 0
M  V30 6765 C 618.331 1.49334 -0.596314 0
M  V30 6766 O 619.521 1.51268 -0.863925 0
M  V30 6767 C 616.653 2.90284 -1.7874 0
M  V30 6768 H 617.846 1.33377 -2.68609 0
M  V30 6769 H 615.399 0.661329 -1.4162 0
M  V30 6770 H 616.134 3.13071 -0.845977 0
M  V30 6771 H 615.919 2.92727 -2.6087 0
M  V30 6772 H 617.409 3.68282 -1.96871 0
M  V30 6773 N 617.846 1.41785 0.688094 0
M  V30 6774 C 619.262 1.24419 0.999608 0
M  V30 6775 C 619.462 0.138868 2.01021 0
M  V30 6776 O 618.518 -0.494283 2.47615 0
M  V30 6777 C 619.831 2.59625 1.51709 0
M  V30 6778 C 621.379 2.66869 1.63554 0
M  V30 6779 C 621.854 4.0241 2.18702 0
M  V30 6780 N 623.345 4.04295 2.26053 0
M  V30 6781 C 624.08 5.05977 2.69768 0
M  V30 6782 N 623.576 6.18047 3.13033 0
M  V30 6783 N 625.369 4.93336 2.69398 0
M  V30 6784 H 617.52 2.12392 0.0187427 0
M  V30 6785 H 619.783 0.945347 0.0708673 0
M  V30 6786 H 619.489 3.41297 0.849059 0
M  V30 6787 H 619.363 2.82628 2.49803 0
M  V30 6788 H 621.75 1.8555 2.29467 0
M  V30 6789 H 621.831 2.47668 0.639857 0
M  V30 6790 H 621.475 4.8418 1.53402 0
M  V30 6791 H 621.405 4.18955 3.19037 0
M  V30 6792 H 623.896 3.23383 1.9553 0
M  V30 6793 H 624.209 6.91498 3.45038 0
M  V30 6794 H 622.554 6.21572 3.10923 0
M  V30 6795 H 625.745 4.04865 2.34952 0
M  V30 6796 H 625.918 5.72717 3.03148 0
M  V30 6797 N 619.324 -0.923095 1.27737 0
M  V30 6798 C 620.572 -1.66797 1.14119 0
M  V30 6799 C 620.893 -1.92479 -0.312541 0
M  V30 6800 O 620.163 -1.53432 -1.218 0
M  V30 6801 H 618.743 -0.618196 0.419336 0
M  V30 6802 H 621.405 -1.10815 1.60331 0
M  V30 6803 H 620.501 -2.63424 1.67374 0
M  V30 6804 N 620.802 -1.09834 -1.13024 0
M  V30 6805 C 622.048 -0.83819 -1.84668 0
M  V30 6806 C 622.381 0.634645 -1.83537 0
M  V30 6807 O 621.656 1.46753 -1.27647 0
M  V30 6808 C 621.939 -1.37933 -3.32636 0
M  V30 6809 C 621.792 -2.91857 -3.42257 0
M  V30 6810 C 623.111 -1.01654 -4.28199 0
M  V30 6811 H 620.23 -0.30595 -0.670495 0
M  V30 6812 H 622.872 -1.36044 -1.32635 0
M  V30 6813 H 621.022 -0.935111 -3.77078 0
M  V30 6814 H 622.694 -3.44759 -3.06495 0
M  V30 6815 H 620.937 -3.28776 -2.83 0
M  V30 6816 H 621.608 -3.24799 -4.46329 0
M  V30 6817 H 624.084 -1.39973 -3.9185 0
M  V30 6818 H 622.96 -1.42217 -5.30156 0
M  V30 6819 H 623.221 0.0747794 -4.42037 0
M  V30 6820 N 622.28 1.30327 -0.886154 0
M  V30 6821 C 623.243 2.26376 -0.358687 0
M  V30 6822 C 624.243 1.52845 0.499498 0
M  V30 6823 O 625.433 1.71483 0.306485 0
M  V30 6824 C 622.565 3.37379 0.488726 0
M  V30 6825 H 623.758 2.74547 -1.20681 0
M  V30 6826 H 621.311 1.41536 -0.663113 0
M  V30 6827 H 622.046 2.94526 1.35739 0
M  V30 6828 H 621.831 3.91897 -0.126003 0
M  V30 6829 H 623.321 4.08868 0.84952 0
M  V30 6830 N 623.758 0.647228 1.43697 0
M  V30 6831 C 624.691 -0.097646 2.27991 0
M  V30 6832 C 625.669 -0.83571 1.3948 0
M  V30 6833 O 626.853 -0.836509 1.68922 0
M  V30 6834 C 623.98 -1.14484 3.18765 0
M  V30 6835 C 623.026 -0.505503 4.23494 0
M  V30 6836 S 623.859 0.716471 5.30685 0
M  V30 6837 C 625.015 -0.330339 6.25028 0
M  V30 6838 H 625.248 0.617417 2.90818 0
M  V30 6839 H 622.781 0.435881 1.4812 0
M  V30 6840 H 624.739 -1.74403 3.7161 0
M  V30 6841 H 623.4 -1.83219 2.55127 0
M  V30 6842 H 622.593 -1.29473 4.87086 0
M  V30 6843 H 622.195 0.0194377 3.73995 0
M  V30 6844 H 624.487 -1.19828 6.66819 0
M  V30 6845 H 625.43 0.270409 7.07583 0
M  V30 6846 H 625.838 -0.663459 5.60588 0
M  V30 6847 N 625.236 -1.5273 0.388769 0
M  V30 6848 C 626.166 -2.29353 -0.438111 0
M  V30 6849 C 627.147 -1.32719 -1.06394 0
M  V30 6850 O 628.332 -1.61612 -1.07681 0
M  V30 6851 C 625.462 -3.09995 -1.56589 0
M  V30 6852 C 624.416 -4.14509 -1.06613 0
M  V30 6853 C 623.742 -4.83372 -2.28594 0
M  V30 6854 C 625.042 -5.22127 -0.134459 0
M  V30 6855 H 626.736 -2.98723 0.201206 0
M  V30 6856 H 624.282 -1.43665 0.0982089 0
M  V30 6857 H 626.235 -3.62357 -2.15118 0
M  V30 6858 H 624.959 -2.38357 -2.23279 0
M  V30 6859 H 623.618 -3.63128 -0.503383 0
M  V30 6860 H 623.266 -4.08283 -2.93792 0
M  V30 6861 H 622.966 -5.54012 -1.95817 0
M  V30 6862 H 624.49 -5.38538 -2.87766 0
M  V30 6863 H 625.904 -5.69851 -0.627914 0
M  V30 6864 H 624.301 -6.00011 0.103534 0
M  V30 6865 H 625.371 -4.77971 0.816798 0
M  V30 6866 N 626.714 -0.118576 -1.57153 0
M  V30 6867 C 627.962 0.538461 -1.94795 0
M  V30 6868 C 628.283 1.67243 -1.00274 0
M  V30 6869 O 627.553 1.95811 -0.0589692 0
M  V30 6870 H 626.133 0.201904 -0.719197 0
M  V30 6871 H 628.795 -0.187418 -1.93997 0
M  V30 6872 H 627.891 0.933315 -2.97818 0
M  V30 6873 N 628.193 1.56834 0.155195 0
M  V30 6874 C 629.439 1.83169 0.870467 0
M  V30 6875 C 629.772 0.698929 1.81187 0
M  V30 6876 O 629.047 -0.298035 1.92203 0
M  V30 6877 C 629.33 3.19965 1.65211 0
M  V30 6878 C 629.183 4.43792 0.732744 0
M  V30 6879 C 630.502 3.53885 2.61636 0
M  V30 6880 H 627.621 0.666288 0.315006 0
M  V30 6881 H 630.263 1.89513 0.135988 0
M  V30 6882 H 628.413 3.14687 2.27825 0
M  V30 6883 H 630.085 4.61148 0.118236 0
M  V30 6884 H 628.328 4.3378 0.0417906 0
M  V30 6885 H 628.999 5.36095 1.31552 0
M  V30 6886 H 631.475 3.5972 2.09143 0
M  V30 6887 H 630.351 4.50648 3.13381 0
M  V30 6888 H 630.612 2.79418 3.42605 0
M  V30 6889 N 629.671 -0.424282 1.51781 0
M  V30 6890 C 630.918 -1.1726 1.65095 0
M  V30 6891 C 631.246 -1.90881 0.373477 0
M  V30 6892 O 630.501 -1.84835 -0.642997 0
M  V30 6893 C 630.8 -2.20418 2.81337 0
M  V30 6894 C 630.466 -1.63715 4.20129 0
M  V30 6895 C 629.128 -1.47975 4.57883 0
M  V30 6896 C 631.48 -1.22157 5.06682 0
M  V30 6897 C 628.808 -0.891703 5.79884 0
M  V30 6898 C 631.16 -0.647767 6.29275 0
M  V30 6899 C 629.824 -0.477371 6.65791 0
M  V30 6900 H 629.094 -0.429085 0.604125 0
M  V30 6901 H 631.741 -0.461852 1.85847 0
M  V30 6902 H 630.046 -2.97581 2.54859 0
M  V30 6903 H 631.743 -2.78163 2.88836 0
M  V30 6904 H 628.333 -1.76946 3.90369 0
M  V30 6905 H 632.517 -1.33133 4.7811 0
M  V30 6906 H 627.773 -0.747563 6.06813 0
M  V30 6907 H 631.947 -0.317291 6.95677 0
M  V30 6908 H 629.574 -0.0195936 7.60197 0
M  V30 6909 N 631.149 -1.42148 -0.680565 0
M  V30 6910 C 632.079 -1.4796 -1.80638 0
M  V30 6911 C 633.06 -0.336728 -1.66734 0
M  V30 6912 O 634.245 -0.550247 -1.86242 0
M  V30 6913 C 631.375 -1.37569 -3.18892 0
M  V30 6914 C 630.329 -2.49823 -3.47524 0
M  V30 6915 C 629.655 -2.24491 -4.85291 0
M  V30 6916 C 630.955 -3.92144 -3.44994 0
M  V30 6917 H 632.649 -2.42184 -1.76032 0
M  V30 6918 H 630.195 -1.16566 -0.845481 0
M  V30 6919 H 632.148 -1.40243 -3.97379 0
M  V30 6920 H 630.872 -0.398357 -3.24162 0
M  V30 6921 H 629.531 -2.46455 -2.71395 0
M  V30 6922 H 629.179 -1.25066 -4.87204 0
M  V30 6923 H 628.879 -2.99722 -5.05411 0
M  V30 6924 H 630.403 -2.28906 -5.66069 0
M  V30 6925 H 631.817 -3.97145 -4.13459 0
M  V30 6926 H 630.214 -4.67179 -3.76648 0
M  V30 6927 H 631.284 -4.19225 -2.43676 0
M  V30 6928 N 632.627 0.916307 -1.28225 0
M  V30 6929 C 633.873 1.66765 -1.154 0
M  V30 6930 C 634.206 1.91912 0.297251 0
M  V30 6931 O 633.481 1.51766 1.21644 0
M  V30 6932 C 633.764 3.02715 -1.95028 0
M  V30 6933 C 633.617 2.84738 -3.48201 0
M  V30 6934 C 634.936 4.03215 -1.76369 0
M  V30 6935 H 632.055 0.605205 -0.42059 0
M  V30 6936 H 634.697 1.06255 -1.57512 0
M  V30 6937 H 632.847 3.54365 -1.59242 0
M  V30 6938 H 634.519 2.40118 -3.9388 0
M  V30 6939 H 632.762 2.19848 -3.73964 0
M  V30 6940 H 633.433 3.8127 -3.99171 0
M  V30 6941 H 635.909 3.60617 -2.07593 0
M  V30 6942 H 634.785 4.96306 -2.34459 0
M  V30 6943 H 635.046 4.36288 -0.71452 0
M  V30 6944 N 634.105 1.10431 1.1244 0
M  V30 6945 C 635.33 0.869089 1.88313 0
M  V30 6946 C 635.755 -0.574912 1.79099 0
M  V30 6947 O 635.113 -1.40496 1.14589 0
M  V30 6948 C 635.161 1.32208 3.3549 0
M  V30 6949 O 634.265 0.487092 4.09513 0
M  V30 6950 H 633.606 0.313894 0.585121 0
M  V30 6951 H 636.136 1.47111 1.42195 0
M  V30 6952 H 636.146 1.31201 3.86329 0
M  V30 6953 H 634.821 2.37364 3.41513 0
M  V30 6954 H 633.398 0.562372 3.68635 0
M  V30 6955 N 635.583 -1.29855 0.893053 0
M  V30 6956 C 636.546 -2.26183 0.370687 0
M  V30 6957 C 637.546 -1.53108 -0.491385 0
M  V30 6958 O 638.736 -1.71643 -0.297386 0
M  V30 6959 C 635.868 -3.37633 -0.470827 0
M  V30 6960 H 637.061 -2.73903 1.22135 0
M  V30 6961 H 634.614 -1.41183 0.67061 0
M  V30 6962 H 635.349 -2.95241 -1.34175 0
M  V30 6963 H 635.134 -3.91825 0.146784 0
M  V30 6964 H 636.624 -4.09313 -0.827825 0
M  V30 6965 N 637.061 -0.65484 -1.43351 0
M  V30 6966 C 638.307 -0.169142 -2.02093 0
M  V30 6967 C 638.64 1.21431 -1.51553 0
M  V30 6968 O 637.915 1.81105 -0.709317 0
M  V30 6969 C 638.198 -0.181775 -3.59641 0
M  V30 6970 C 638.051 -1.59926 -4.20409 0
M  V30 6971 C 639.37 0.480945 -4.37464 0
M  V30 6972 H 636.489 -0.0629371 -0.734308 0
M  V30 6973 H 639.131 -0.835833 -1.70628 0
M  V30 6974 H 637.281 0.385918 -3.86578 0
M  V30 6975 H 638.953 -2.21766 -4.04497 0
M  V30 6976 H 637.196 -2.14605 -3.76998 0
M  V30 6977 H 637.867 -1.55994 -5.295 0
M  V30 6978 H 640.343 -0.00208273 -4.161 0
M  V30 6979 H 639.219 0.441384 -5.47122 0
M  V30 6980 H 639.48 1.55533 -4.13838 0
M  V30 6981 N 638.539 1.52521 -0.396863 0
M  V30 6982 C 639.502 2.2527 0.422604 0
M  V30 6983 C 640.502 1.27184 0.983913 0
M  V30 6984 O 641.692 1.51222 0.864723 0
M  V30 6985 C 638.824 3.01356 1.59365 0
M  V30 6986 H 640.017 2.99133 -0.214416 0
M  V30 6987 H 637.57 1.55587 -0.149128 0
M  V30 6988 H 638.305 2.31813 2.26789 0
M  V30 6989 H 638.09 3.73357 1.19779 0
M  V30 6990 H 639.58 3.56571 2.17363 0
M  V30 6991 N 640.017 0.126909 1.57088 0
M  V30 6992 C 640.967 -0.831678 2.1229 0
M  V30 6993 C 641.951 -1.22292 1.04564 0
M  V30 6994 O 643.143 -1.19269 1.30782 0
M  V30 6995 C 640.272 -2.07866 2.73215 0
M  V30 6996 C 639.358 -1.71143 3.88035 0
M  V30 6997 N 639.749 -1.05136 4.94753 0
M  V30 6998 C 638.047 -2.00549 3.98367 0
M  V30 6999 C 638.748 -0.877257 5.75047 0
M  V30 7000 N 637.724 -1.40477 5.25135 0
M  V30 7001 H 641.526 -0.317926 2.92175 0
M  V30 7002 H 639.04 -0.0753052 1.62225 0
M  V30 7003 H 641.037 -2.77516 3.11111 0
M  V30 7004 H 639.697 -2.59778 1.94796 0
M  V30 7005 H 640.708 -0.71442 5.12949 0
M  V30 7006 H 637.385 -2.54452 3.30999 0
M  V30 7007 H 638.775 -0.358536 6.70943 0
M  V30 7008 N 641.495 -1.56914 -0.146875 0
M  V30 7009 C 642.405 -2.0154 -1.20079 0
M  V30 7010 C 643.421 -0.930838 -1.47008 0
M  V30 7011 O 644.597 -1.24032 -1.58676 0
M  V30 7012 C 641.662 -2.38715 -2.51428 0
M  V30 7013 C 640.723 -3.6112 -2.32145 0
M  V30 7014 C 639.956 -3.96512 -3.57231 0
M  V30 7015 O 640.179 -3.32566 -4.63418 0
M  V30 7016 O 639.113 -4.89758 -3.49887 0
M  V30 7017 H 642.939 -2.91506 -0.851924 0
M  V30 7018 H 640.524 -1.45106 -0.355607 0
M  V30 7019 H 642.406 -2.63485 -3.28867 0
M  V30 7020 H 641.081 -1.51903 -2.85845 0
M  V30 7021 H 639.988 -3.41536 -1.52656 0
M  V30 7022 H 641.321 -4.48549 -2.02644 0
M  V30 7023 N 642.974 0.416227 -1.52004 0
M  V30 7024 C 644.204 1.18401 -1.69307 0
M  V30 7025 C 644.612 1.84943 -0.399072 0
M  V30 7026 O 643.955 1.72406 0.634177 0
M  V30 7027 C 644.017 2.29465 -2.76742 0
M  V30 7028 C 643.681 1.83117 -4.18709 0
M  V30 7029 C 644.678 1.32286 -5.02789 0
M  V30 7030 C 642.363 1.90167 -4.64911 0
M  V30 7031 C 644.357 0.891178 -6.31139 0
M  V30 7032 C 642.044 1.4661 -5.93253 0
M  V30 7033 C 643.042 0.961696 -6.76196 0
M  V30 7034 O 642.73 0.532388 -8.02135 0
M  V30 7035 H 642.462 0.362098 -0.570843 0
M  V30 7036 H 645.016 0.496764 -1.99302 0
M  V30 7037 H 643.246 3.01531 -2.42107 0
M  V30 7038 H 644.935 2.91252 -2.82713 0
M  V30 7039 H 645.701 1.26218 -4.68288 0
M  V30 7040 H 641.58 2.28371 -4.00459 0
M  V30 7041 H 645.124 0.496788 -6.95829 0
M  V30 7042 H 641.021 1.52355 -6.27263 0
M  V30 7043 H 641.789 0.656339 -8.15864 0
M  V30 7044 N 644.452 1.42507 0.673017 0
M  V30 7045 C 645.701 1.42364 1.42883 0
M  V30 7046 C 646.014 0.0441598 1.9555 0
M  V30 7047 O 647.22 -0.0798679 2.71382 0
M  V30 7048 C 645.676 2.5043 2.58482 0
M  V30 7049 C 645.284 3.94392 2.12506 0
M  V30 7050 C 647.028 2.59455 3.35981 0
M  V30 7051 C 644.935 4.93964 3.25198 0
M  V30 7052 H 643.865 0.52951 0.536782 0
M  V30 7053 H 646.516 1.68422 0.728448 0
M  V30 7054 H 644.898 2.1754 3.30896 0
M  V30 7055 H 646.072 4.36645 1.47233 0
M  V30 7056 H 644.387 3.89233 1.4794 0
M  V30 7057 H 646.984 3.31025 4.19912 0
M  V30 7058 H 647.327 1.63869 3.82691 0
M  V30 7059 H 647.86 2.91549 2.70637 0
M  V30 7060 H 644.599 5.91034 2.83477 0
M  V30 7061 H 644.119 4.56341 3.89247 0
M  V30 7062 H 645.798 5.15763 3.90637 0
M  V30 7063 N 645.93 -0.909495 1.28709 0
M  V30 7064 C 647.177 -1.65905 1.16111 0
M  V30 7065 C 647.505 -1.92334 -0.289436 0
M  V30 7066 O 646.76 -1.52495 -1.22653 0
M  V30 7067 C 647.059 -3.02117 1.90945 0
M  V30 7068 C 646.725 -2.95332 3.40719 0
M  V30 7069 C 645.387 -2.93189 3.81567 0
M  V30 7070 C 647.739 -2.85264 4.36204 0
M  V30 7071 C 645.067 -2.78784 5.16233 0
M  V30 7072 C 647.419 -2.724 5.70948 0
M  V30 7073 C 646.083 -2.68617 6.11066 0
M  V30 7074 H 645.353 -0.60709 0.42488 0
M  V30 7075 H 648 -1.05932 1.59533 0
M  V30 7076 H 646.305 -3.65901 1.40085 0
M  V30 7077 H 648.002 -3.59026 1.7861 0
M  V30 7078 H 644.592 -2.97797 3.08245 0
M  V30 7079 H 648.776 -2.86005 4.05605 0
M  V30 7080 H 644.032 -2.74254 5.46438 0
M  V30 7081 H 648.206 -2.63579 6.44592 0
M  V30 7082 H 645.833 -2.57213 7.15364 0
M  V30 7083 N 647.408 -1.11026 -1.11852 0
M  V30 7084 C 648.648 -0.866348 -1.85132 0
M  V30 7085 C 649.012 0.597236 -1.82475 0
M  V30 7086 O 650.213 0.957744 -2.51159 0
M  V30 7087 C 648.484 -1.40721 -3.28531 0
M  V30 7088 S 650.043 -1.29964 -4.19112 0
M  V30 7089 H 646.861 -0.312899 -0.638447 0
M  V30 7090 H 649.463 -1.41691 -1.34699 0
M  V30 7091 H 648.167 -2.46631 -3.28027 0
M  V30 7092 H 647.698 -0.85349 -3.8403 0
M  V30 7093 H 649.713 -0.261333 -4.95511 0
M  V30 7094 N 648.886 1.2938 -0.899927 0
M  V30 7095 C 650.133 1.9555 -0.525963 0
M  V30 7096 C 650.461 1.70945 0.927789 0
M  V30 7097 O 649.716 1.01545 1.67293 0
M  V30 7098 C 650.015 3.49114 -0.765113 0
M  V30 7099 C 649.681 3.93796 -2.19626 0
M  V30 7100 C 648.343 4.05707 -2.58758 0
M  V30 7101 C 650.695 4.16883 -3.12823 0
M  V30 7102 C 648.023 4.38074 -3.90267 0
M  V30 7103 C 650.375 4.50725 -4.4388 0
M  V30 7104 C 649.039 4.60845 -4.82885 0
M  V30 7105 H 648.309 0.715569 -0.192463 0
M  V30 7106 H 650.956 1.53972 -1.13863 0
M  V30 7107 H 649.261 3.91738 -0.069531 0
M  V30 7108 H 650.958 3.98409 -0.455144 0
M  V30 7109 H 647.548 3.85042 -1.88256 0
M  V30 7110 H 651.732 4.07147 -2.83804 0
M  V30 7111 H 646.988 4.44112 -4.20207 0
M  V30 7112 H 651.162 4.67538 -5.16121 0
M  V30 7113 H 648.789 4.85681 -5.84823 0
M  V30 7114 N 650.364 0.662433 1.43002 0
M  V30 7115 C 651.61 0.179857 2.02001 0
M  V30 7116 C 651.943 -1.20625 1.52195 0
M  V30 7117 O 651.218 -1.80726 0.718911 0
M  V30 7118 C 651.501 0.200845 3.59539 0
M  V30 7119 C 651.354 1.62153 4.19555 0
M  V30 7120 C 652.673 -0.457738 4.37713 0
M  V30 7121 H 649.792 0.0668305 0.733964 0
M  V30 7122 H 652.434 0.84487 1.70182 0
M  V30 7123 H 650.584 -0.365411 3.86778 0
M  V30 7124 H 652.256 2.23908 4.03315 0
M  V30 7125 H 650.499 2.16601 3.75854 0
M  V30 7126 H 651.17 1.58799 5.28665 0
M  V30 7127 H 653.646 0.0241495 4.16093 0
M  V30 7128 H 652.522 -0.412363 5.47349 0
M  V30 7129 H 652.783 -1.53336 4.14657 0
M  V30 7130 N 651.842 -1.52309 0.404946 0
M  V30 7131 C 652.772 -2.29805 -0.41376 0
M  V30 7132 C 653.753 -1.3384 -1.0498 0
M  V30 7133 O 654.938 -1.62745 -1.05961 0
M  V30 7134 C 652.068 -3.11639 -1.53292 0
M  V30 7135 C 651.022 -4.15616 -1.02211 0
M  V30 7136 C 650.348 -4.8577 -2.23455 0
M  V30 7137 C 651.648 -5.2224 -0.0790725 0
M  V30 7138 H 653.342 -2.98493 0.232878 0
M  V30 7139 H 650.888 -1.43552 0.113441 0
M  V30 7140 H 652.841 -3.64618 -2.11262 0
M  V30 7141 H 651.565 -2.40712 -2.20738 0
M  V30 7142 H 650.224 -3.63641 -0.46484 0
M  V30 7143 H 649.872 -4.11376 -2.89445 0
M  V30 7144 H 649.572 -5.56058 -1.89929 0
M  V30 7145 H 651.096 -5.4156 -2.82038 0
M  V30 7146 H 652.51 -5.70485 -0.567438 0
M  V30 7147 H 650.907 -5.99867 0.167167 0
M  V30 7148 H 651.977 -4.77078 0.867447 0
M  V30 7149 N 653.32 -0.135238 -1.57019 0
M  V30 7150 C 654.568 0.51777 -1.95355 0
M  V30 7151 C 654.889 1.6617 -1.02042 0
M  V30 7152 O 654.159 1.95738 -0.0797343 0
M  V30 7153 H 652.739 0.194264 -0.721298 0
M  V30 7154 H 655.401 -0.207983 -1.93787 0
M  V30 7155 H 654.497 0.901675 -2.98791 0
M  V30 7156 N 654.798 1.5699 0.138552 0
M  V30 7157 C 656.045 1.83809 0.849732 0
M  V30 7158 C 656.373 0.717409 1.80786 0
M  V30 7159 O 655.628 -0.292897 1.93496 0
M  V30 7160 C 655.927 3.17007 1.65049 0
M  V30 7161 C 655.593 4.43037 0.838398 0
M  V30 7162 C 654.255 4.77262 0.614385 0
M  V30 7163 C 656.607 5.20495 0.271044 0
M  V30 7164 C 653.935 5.864 -0.187552 0
M  V30 7165 C 656.287 6.30476 -0.517979 0
M  V30 7166 C 654.951 6.63245 -0.75249 0
M  V30 7167 H 654.221 0.672605 0.310939 0
M  V30 7168 H 656.868 1.91166 0.112971 0
M  V30 7169 H 655.173 3.05138 2.4576 0
M  V30 7170 H 656.87 3.34975 2.20437 0
M  V30 7171 H 653.46 4.16211 1.02307 0
M  V30 7172 H 657.644 4.94422 0.431371 0
M  V30 7173 H 652.9 6.10226 -0.378659 0
M  V30 7174 H 657.074 6.89686 -0.964694 0
M  V30 7175 H 654.701 7.47648 -1.37573 0
M  V30 7176 N 656.276 -0.40816 1.52223 0
M  V30 7177 C 657.523 -1.15502 1.66329 0
M  V30 7178 C 657.851 -1.90474 0.393701 0
M  V30 7179 O 657.106 -1.85507 -0.623356 0
M  V30 7180 C 657.405 -2.17422 2.83659 0
M  V30 7181 C 657.071 -1.5925 4.21841 0
M  V30 7182 C 655.733 -1.4311 4.59427 0
M  V30 7183 C 658.085 -1.16776 5.0795 0
M  V30 7184 C 655.413 -0.830148 5.80797 0
M  V30 7185 C 657.765 -0.580988 6.29926 0
M  V30 7186 C 656.429 -0.406729 6.6626 0
M  V30 7187 H 655.699 -0.422653 0.608642 0
M  V30 7188 H 658.346 -0.442114 1.86327 0
M  V30 7189 H 656.651 -2.94861 2.58001 0
M  V30 7190 H 658.348 -2.75084 2.9177 0
M  V30 7191 H 654.938 -1.72796 3.92224 0
M  V30 7192 H 659.122 -1.28055 4.79495 0
M  V30 7193 H 654.378 -0.68316 6.07571 0
M  V30 7194 H 658.552 -0.243488 6.95974 0
M  V30 7195 H 656.179 0.0610366 7.60175 0
M  V30 7196 N 657.755 -1.42862 -0.66545 0
M  V30 7197 C 658.985 -1.47032 -1.45138 0
M  V30 7198 C 659.393 -0.0829977 -1.89018 0
M  V30 7199 O 658.736 0.914551 -1.59316 0
M  V30 7200 C 658.798 -2.34302 -2.72659 0
M  V30 7201 C 658.462 -3.82034 -2.50796 0
M  V30 7202 C 659.459 -4.73453 -2.14799 0
M  V30 7203 C 657.144 -4.26397 -2.655 0
M  V30 7204 C 659.138 -6.07228 -1.93785 0
M  V30 7205 C 656.825 -5.6023 -2.44103 0
M  V30 7206 C 657.823 -6.50462 -2.08299 0
M  V30 7207 O 657.511 -7.8182 -1.87116 0
M  V30 7208 H 657.243 -0.501969 -0.452772 0
M  V30 7209 H 659.797 -1.88137 -0.82423 0
M  V30 7210 H 658.027 -1.88063 -3.37889 0
M  V30 7211 H 659.716 -2.29818 -3.34572 0
M  V30 7212 H 660.482 -4.4046 -2.03026 0
M  V30 7213 H 656.361 -3.56448 -2.92345 0
M  V30 7214 H 659.905 -6.7762 -1.65763 0
M  V30 7215 H 655.802 -5.92793 -2.55475 0
M  V30 7216 H 656.57 -7.93274 -2.01639 0
M  V30 7217 N 659.233 0.902656 -1.29189 0
M  V30 7218 C 660.644 1.46809 -1.15343 0
M  V30 7219 C 660.995 1.94568 0.252517 0
M  V30 7220 O 660.12 1.83454 1.14777 0
M  V30 7221 C 660.715 2.66829 -2.08776 0
M  V30 7222 C 659.274 3.19518 -1.98961 0
M  V30 7223 C 658.421 1.92212 -1.99874 0
M  V30 7224 H 661.372 0.714282 -1.41717 0
M  V30 7225 H 661.393 3.42465 -1.65826 0
M  V30 7226 H 660.905 2.32039 -3.11094 0
M  V30 7227 H 659.006 3.59008 -0.99721 0
M  V30 7228 H 659.119 3.84016 -2.86477 0
M  V30 7229 H 657.483 2.0979 -1.44431 0
M  V30 7230 H 658.266 1.59702 -3.03891 0
M  V30 7231 N 660.711 1.11618 1.11262 0
M  V30 7232 C 661.957 0.867463 1.83311 0
M  V30 7233 C 662.29 -0.605366 1.84524 0
M  V30 7234 O 661.565 -1.44704 1.29965 0
M  V30 7235 C 661.848 1.43207 3.30399 0
M  V30 7236 C 661.701 2.97265 3.3757 0
M  V30 7237 C 663.02 1.08454 4.26528 0
M  V30 7238 H 660.139 0.316578 0.665543 0
M  V30 7239 H 662.781 1.38137 1.30454 0
M  V30 7240 H 660.931 0.994982 3.75543 0
M  V30 7241 H 662.603 3.49591 3.00971 0
M  V30 7242 H 660.846 3.33237 2.77733 0
M  V30 7243 H 661.517 3.31859 4.41105 0
M  V30 7244 H 663.993 1.4619 3.89574 0
M  V30 7245 H 662.869 1.50633 5.27826 0
M  V30 7246 H 663.13 -0.00444568 4.421 0
M  V30 7247 N 662.189 -1.289 0.906776 0
M  V30 7248 C 663.122 -2.25737 0.334362 0
M  V30 7249 C 664.1 -1.52745 -0.557474 0
M  V30 7250 O 665.284 -1.81673 -0.502697 0
M  V30 7251 C 662.411 -3.34642 -0.522716 0
M  V30 7252 C 661.457 -4.25424 0.302777 0
M  V30 7253 S 662.29 -5.07629 1.70508 0
M  V30 7254 C 663.446 -6.20031 0.855118 0
M  V30 7255 H 663.679 -2.73941 1.15514 0
M  V30 7256 H 661.212 -1.37233 0.707573 0
M  V30 7257 H 663.17 -3.97845 -1.01141 0
M  V30 7258 H 661.831 -2.85119 -1.31781 0
M  V30 7259 H 661.024 -5.02767 -0.352257 0
M  V30 7260 H 660.626 -3.66908 0.724873 0
M  V30 7261 H 662.918 -6.77451 0.0816418 0
M  V30 7262 H 663.861 -6.89767 1.60087 0
M  V30 7263 H 664.269 -5.63035 0.406375 0
M  V30 7264 N 663.667 -0.670007 -1.42649 0
M  V30 7265 C 664.597 -0.00258501 -2.335 0
M  V30 7266 C 665.578 0.794364 -1.50412 0
M  V30 7267 O 666.763 0.75248 -1.79029 0
M  V30 7268 C 663.893 0.952748 -3.33976 0
M  V30 7269 C 662.847 0.264733 -4.2718 0
M  V30 7270 C 662.173 1.33267 -5.17826 0
M  V30 7271 C 663.473 -0.853289 -5.15283 0
M  V30 7272 H 665.167 -0.761326 -2.89559 0
M  V30 7273 H 662.713 -0.367561 -1.3923 0
M  V30 7274 H 664.666 1.4287 -3.96442 0
M  V30 7275 H 663.39 1.74285 -2.7621 0
M  V30 7276 H 662.049 -0.190938 -3.66102 0
M  V30 7277 H 661.697 2.11464 -4.5639 0
M  V30 7278 H 661.397 0.877476 -5.81011 0
M  V30 7279 H 662.921 1.80965 -5.83167 0
M  V30 7280 H 664.335 -0.458763 -5.71462 0
M  V30 7281 H 662.732 -1.23398 -5.87276 0
M  V30 7282 H 663.802 -1.70412 -4.53969 0
M  V30 7283 N 665.145 1.52092 -0.413018 0
M  V30 7284 C 666.394 2.01041 0.16287 0
M  V30 7285 C 666.707 1.30288 1.45892 0
M  V30 7286 O 667.913 1.70075 2.11629 0
M  V30 7287 C 666.369 3.58283 0.340806 0
M  V30 7288 C 665.977 4.37955 -0.943377 0
M  V30 7289 C 667.721 4.15452 0.871774 0
M  V30 7290 C 665.628 5.86847 -0.732417 0
M  V30 7291 H 664.558 0.751224 0.0646414 0
M  V30 7292 H 667.209 1.75404 -0.539059 0
M  V30 7293 H 665.591 3.80266 1.10516 0
M  V30 7294 H 666.765 4.2773 -1.71418 0
M  V30 7295 H 665.08 3.92122 -1.40105 0
M  V30 7296 H 667.677 5.24375 1.0457 0
M  V30 7297 H 668.02 3.73057 1.84755 0
M  V30 7298 H 668.553 3.97452 0.166377 0
M  V30 7299 H 665.292 6.33609 -1.67986 0
M  V30 7300 H 664.812 5.998 -0.000980058 0
M  V30 7301 H 666.491 6.45906 -0.376105 0
M  V30 7302 N 666.623 0.143563 1.56945 0
M  V30 7303 C 667.553 -0.7936 2.196 0
M  V30 7304 C 668.534 -1.25955 1.14321 0
M  V30 7305 O 669.719 -1.31773 1.42651 0
M  V30 7306 C 666.849 -2.03424 2.81489 0
M  V30 7307 C 665.803 -1.70519 3.92565 0
M  V30 7308 C 665.129 -3.01817 4.41373 0
M  V30 7309 C 666.429 -0.95449 5.13504 0
M  V30 7310 H 668.123 -0.271423 2.98167 0
M  V30 7311 H 665.669 -0.12911 1.4342 0
M  V30 7312 H 667.622 -2.69463 3.23987 0
M  V30 7313 H 666.346 -2.58008 2.00248 0
M  V30 7314 H 665.005 -1.06859 3.5068 0
M  V30 7315 H 664.653 -3.54386 3.56959 0
M  V30 7316 H 664.353 -2.80565 5.16292 0
M  V30 7317 H 665.877 -3.68934 4.86539 0
M  V30 7318 H 667.291 -1.5169 5.52868 0
M  V30 7319 H 665.688 -0.842035 5.94163 0
M  V30 7320 H 666.758 0.0544033 4.84869 0
M  V30 7321 N 668.101 -1.57061 -0.130224 0
M  V30 7322 C 669.348 -1.84257 -0.839972 0
M  V30 7323 C 669.676 -0.726986 -1.80403 0
M  V30 7324 O 668.931 0.282632 -1.93648 0
M  V30 7325 C 669.23 -3.17878 -1.63365 0
M  V30 7326 C 668.896 -4.43475 -0.814891 0
M  V30 7327 C 667.558 -4.77581 -0.589066 0
M  V30 7328 C 669.91 -5.20631 -0.243437 0
M  V30 7329 C 667.238 -5.86292 0.218648 0
M  V30 7330 C 669.59 -6.30192 0.551408 0
M  V30 7331 C 668.254 -6.62837 0.787653 0
M  V30 7332 H 667.524 -0.674245 -0.307367 0
M  V30 7333 H 670.171 -1.91224 -0.102832 0
M  V30 7334 H 668.476 -3.06437 -2.44138 0
M  V30 7335 H 670.173 -3.3614 -2.18658 0
M  V30 7336 H 666.763 -4.16747 -1.00098 0
M  V30 7337 H 670.947 -4.94644 -0.405145 0
M  V30 7338 H 666.203 -6.10017 0.411016 0
M  V30 7339 H 670.377 -6.89165 1.00126 0
M  V30 7340 H 668.004 -7.46908 1.41537 0
M  V30 7341 N 669.579 0.400081 -1.52437 0
M  V30 7342 C 670.509 1.4947 -1.7939 0
M  V30 7343 C 671.49 1.57383 -0.645329 0
M  V30 7344 O 672.675 1.72511 -0.891826 0
M  V30 7345 C 669.805 2.87201 -1.95276 0
M  V30 7346 C 668.759 2.94134 -3.10917 0
M  V30 7347 C 668.085 4.34207 -3.1204 0
M  V30 7348 C 669.385 2.64791 -4.50203 0
M  V30 7349 H 671.079 1.27165 -2.71052 0
M  V30 7350 H 668.625 0.610312 -1.30427 0
M  V30 7351 H 670.578 3.63772 -2.12715 0
M  V30 7352 H 669.302 3.10819 -1.00294 0
M  V30 7353 H 667.961 2.20009 -2.93243 0
M  V30 7354 H 667.609 4.54848 -2.14761 0
M  V30 7355 H 667.309 4.39768 -3.89715 0
M  V30 7356 H 668.833 5.127 -3.31619 0
M  V30 7357 H 670.247 3.31083 -4.68035 0
M  V30 7358 H 668.644 2.81717 -5.29864 0
M  V30 7359 H 669.714 1.60184 -4.57678 0
M  V30 7360 N 671.057 1.43213 0.657864 0
M  V30 7361 C 672.303 1.44798 1.41991 0
M  V30 7362 C 672.636 0.070256 1.94073 0
M  V30 7363 O 671.911 -0.908177 1.71995 0
M  V30 7364 C 672.194 2.4865 2.60471 0
M  V30 7365 C 672.047 3.95679 2.13911 0
M  V30 7366 C 673.366 2.49292 3.62686 0
M  V30 7367 H 670.485 0.527244 0.514959 0
M  V30 7368 H 673.127 1.74733 0.74621 0
M  V30 7369 H 671.277 2.23254 3.17946 0
M  V30 7370 H 672.949 4.32116 1.61472 0
M  V30 7371 H 671.192 4.08733 1.45325 0
M  V30 7372 H 671.863 4.6395 2.99089 0
M  V30 7373 H 674.339 2.71917 3.14961 0
M  V30 7374 H 673.215 3.23907 4.43143 0
M  V30 7375 H 673.476 1.52502 4.14964 0
M  V30 7376 N 672.536 -0.895792 1.29666 0
M  V30 7377 C 673.785 -1.64131 1.17234 0
M  V30 7378 C 674.098 -1.93665 -0.274416 0
M  V30 7379 O 675.304 -2.66472 -0.520105 0
M  V30 7380 C 673.76 -2.95764 2.05065 0
M  V30 7381 C 673.368 -2.7381 3.54587 0
M  V30 7382 C 675.112 -3.737 2.01367 0
M  V30 7383 C 673.019 -4.01194 4.34508 0
M  V30 7384 H 671.949 -0.615742 0.435175 0
M  V30 7385 H 674.6 -0.992626 1.54335 0
M  V30 7386 H 672.982 -3.61867 1.60837 0
M  V30 7387 H 674.156 -2.16277 4.06892 0
M  V30 7388 H 672.471 -2.09265 3.59996 0
M  V30 7389 H 675.068 -4.68152 2.58337 0
M  V30 7390 H 675.411 -4.04245 0.994575 0
M  V30 7391 H 675.944 -3.14444 2.43659 0
M  V30 7392 H 672.683 -3.75813 5.37071 0
M  V30 7393 H 672.203 -4.58272 3.86971 0
M  V30 7394 H 673.882 -4.69307 4.45376 0
M  V30 7395 N 674.014 -1.12206 -1.10668 0
M  V30 7396 C 675.262 -0.874144 -1.82217 0
M  V30 7397 C 675.583 0.601736 -1.85484 0
M  V30 7398 O 674.853 1.43725 -1.33116 0
M  V30 7399 H 673.433 -0.320404 -0.674797 0
M  V30 7400 H 676.095 -1.41606 -1.33917 0
M  V30 7401 H 675.191 -1.25349 -2.85822 0
M  V30 7402 N 675.492 1.28418 -0.913599 0
M  V30 7403 C 676.74 1.94596 -0.545594 0
M  V30 7404 C 677.061 1.7227 0.913668 0
M  V30 7405 O 676.331 1.06233 1.64595 0
M  V30 7406 H 674.911 0.720065 -0.198783 0
M  V30 7407 H 677.573 1.56404 -1.16292 0
M  V30 7408 H 676.669 3.03202 -0.739911 0
M  V30 7409 N 676.97 0.677563 1.42291 0
M  V30 7410 C 677.903 -0.0492638 2.28147 0
M  V30 7411 C 678.881 -0.805936 1.41221 0
M  V30 7412 O 680.065 -0.80049 1.70659 0
M  V30 7413 C 677.192 -1.07697 3.21122 0
M  V30 7414 C 676.238 -0.41556 4.24471 0
M  V30 7415 S 677.071 0.828876 5.29046 0
M  V30 7416 C 678.227 -0.197687 6.25588 0
M  V30 7417 H 678.46 0.678965 2.89443 0
M  V30 7418 H 675.993 0.467201 1.47162 0
M  V30 7419 H 677.951 -1.66482 3.75225 0
M  V30 7420 H 676.612 -1.77766 2.58956 0
M  V30 7421 H 675.805 -1.19112 4.89723 0
M  V30 7422 H 675.407 0.0987632 3.7387 0
M  V30 7423 H 677.699 -1.05656 6.69211 0
M  V30 7424 H 678.642 0.420437 7.06851 0
M  V30 7425 H 679.05 -0.544401 5.61869 0
M  V30 7426 N 678.448 -1.51871 0.421078 0
M  V30 7427 C 679.378 -2.30231 -0.389363 0
M  V30 7428 C 680.359 -1.34946 -1.03555 0
M  V30 7429 O 681.544 -1.63859 -1.04229 0
M  V30 7430 C 678.674 -3.13247 -1.49979 0
M  V30 7431 C 677.628 -4.16677 -0.977966 0
M  V30 7432 C 676.954 -4.88112 -2.1829 0
M  V30 7433 C 678.254 -5.22295 -0.0236775 0
M  V30 7434 H 679.948 -2.98229 0.264524 0
M  V30 7435 H 677.494 -1.43424 0.12866 0
M  V30 7436 H 679.447 -3.66838 -2.07383 0
M  V30 7437 H 678.171 -2.4304 -2.18173 0
M  V30 7438 H 676.83 -3.64114 -0.426245 0
M  V30 7439 H 676.478 -4.14423 -2.85066 0
M  V30 7440 H 676.178 -5.58041 -1.84021 0
M  V30 7441 H 677.702 -5.44521 -2.76278 0
M  V30 7442 H 679.116 -5.71055 -0.506899 0
M  V30 7443 H 677.513 -5.99656 0.230782 0
M  V30 7444 H 678.583 -4.76131 0.917999 0
M  V30 7445 N 679.926 -0.151884 -1.56866 0
M  V30 7446 C 680.874 0.80299 -2.183 0
M  V30 7447 C 681.868 1.25174 -1.14139 0
M  V30 7448 O 683.074 1.21966 -1.3238 0
M  V30 7449 H 679.449 0.277169 -0.699057 0
M  V30 7450 H 681.42 0.260699 -2.97259 0
M  V30 7451 C 680.169 2.03009 -2.82281 0
M  V30 7452 H 679.492 1.69377 -3.62148 0
M  V30 7453 H 680.932 2.67753 -3.28762 0
M  V30 7454 C 679.391 2.84123 -1.81041 0
M  V30 7455 O 679.921 3.8063 -1.28388 0
M  V30 7456 N 678.127 2.48753 -1.50234 0
M  V30 7457 H 677.674 1.70337 -1.93244 0
M  V30 7458 H 677.632 3.03316 -0.827445 0
M  V30 7459 N 681.404 1.57128 0.121893 0
M  V30 7460 C 682.651 1.847 0.830188 0
M  V30 7461 C 682.979 0.736543 1.80015 0
M  V30 7462 O 682.234 -0.272358 1.93796 0
M  V30 7463 C 682.533 3.1874 1.61677 0
M  V30 7464 C 682.199 4.43901 0.791361 0
M  V30 7465 C 680.861 4.77887 0.563731 0
M  V30 7466 C 683.213 5.20753 0.215823 0
M  V30 7467 C 680.541 5.86168 -0.249737 0
M  V30 7468 C 682.893 6.29891 -0.584821 0
M  V30 7469 C 681.557 6.6241 -0.822794 0
M  V30 7470 H 680.827 0.675866 0.303787 0
M  V30 7471 H 683.474 1.91276 0.0926894 0
M  V30 7472 H 681.779 3.07728 2.42509 0
M  V30 7473 H 683.476 3.37295 2.16872 0
M  V30 7474 H 680.066 4.17272 0.978867 0
M  V30 7475 H 684.25 4.94851 0.378907 0
M  V30 7476 H 679.506 6.0979 -0.44336 0
M  V30 7477 H 683.68 6.88624 -1.03779 0
M  V30 7478 H 681.307 7.46147 -1.45496 0
M  V30 7479 N 682.882 -0.391992 1.52647 0
M  V30 7480 C 683.815 -1.50019 1.71958 0
M  V30 7481 C 684.793 -1.5238 0.567365 0
M  V30 7482 O 685.977 -1.70831 0.796806 0
M  V30 7483 C 683.104 -2.88496 1.77447 0
M  V30 7484 C 682.15 -3.03974 2.99169 0
M  V30 7485 S 682.983 -2.75487 4.59203 0
M  V30 7486 C 684.139 -4.16163 4.67503 0
M  V30 7487 H 684.372 -1.33413 2.65685 0
M  V30 7488 H 681.905 -0.584674 1.42902 0
M  V30 7489 H 683.863 -3.68296 1.81296 0
M  V30 7490 H 682.524 -3.02431 0.848188 0
M  V30 7491 H 681.717 -4.05328 2.99542 0
M  V30 7492 H 681.319 -2.32062 2.93297 0
M  V30 7493 H 683.611 -5.10048 4.45934 0
M  V30 7494 H 684.554 -4.20806 5.69498 0
M  V30 7495 H 684.962 -4.01933 3.96371 0
M  V30 7496 N 684.36 -1.4356 -0.65026 0
M  V30 7497 C 685.293 -1.434 -1.77515 0
M  V30 7498 C 686.271 -0.295082 -1.599 0
M  V30 7499 O 687.455 -0.489128 -1.82043 0
M  V30 7500 C 684.582 -1.2484 -3.14853 0
M  V30 7501 C 683.628 -2.42046 -3.51163 0
M  V30 7502 S 684.461 -4.04595 -3.50803 0
M  V30 7503 C 685.617 -3.88424 -4.90793 0
M  V30 7504 H 685.85 -2.38586 -1.77381 0
M  V30 7505 H 683.383 -1.30627 -0.823169 0
M  V30 7506 H 685.341 -1.14819 -3.94115 0
M  V30 7507 H 684.002 -0.311977 -3.12547 0
M  V30 7508 H 683.195 -2.24873 -4.51052 0
M  V30 7509 H 682.797 -2.48708 -2.79321 0
M  V30 7510 H 685.089 -3.50932 -5.79528 0
M  V30 7511 H 686.032 -4.88076 -5.13018 0
M  V30 7512 H 686.44 -3.20829 -4.64467 0
M  V30 7513 N 685.838 0.888903 -1.30139 0
M  V30 7514 C 686.788 1.9814 -1.12803 0
M  V30 7515 C 687.772 1.60839 -0.0443137 0
M  V30 7516 O 688.964 1.74971 -0.267208 0
M  V30 7517 C 686.093 3.33416 -0.817849 0
M  V30 7518 C 685.179 3.77043 -1.94163 0
M  V30 7519 N 685.57 3.92805 -3.18651 0
M  V30 7520 C 683.868 4.06407 -1.8371 0
M  V30 7521 C 684.569 4.29746 -3.92038 0
M  V30 7522 N 683.545 4.3939 -3.20059 0
M  V30 7523 H 687.347 2.08411 -2.07225 0
M  V30 7524 H 684.861 1.07845 -1.21421 0
M  V30 7525 H 686.858 4.11405 -0.674668 0
M  V30 7526 H 685.518 3.24484 0.118344 0
M  V30 7527 H 686.529 3.78042 -3.53984 0
M  V30 7528 H 683.206 4.05972 -0.974331 0
M  V30 7529 H 684.596 4.49695 -4.99223 0
M  V30 7530 N 687.317 1.12792 1.10072 0
M  V30 7531 C 688.594 0.796867 1.78632 0
M  V30 7532 C 688.974 -0.712739 1.98704 0
M  V30 7533 O 688.322 -1.64773 1.5831 0
M  V30 7534 C 688.532 1.57622 3.11378 0
M  V30 7535 C 689.88 1.76463 3.86194 0
M  V30 7536 O 690.904 1.54165 3.2111 0
M  V30 7537 O 689.763 2.13623 5.03018 0
M  V30 7538 H 686.857 0.290248 0.774394 0
M  V30 7539 H 689.403 1.23215 1.16688 0
M  V30 7540 H 688.175 2.60246 2.92212 0
M  V30 7541 H 687.798 1.13543 3.81043 0
M  V30 7542 N 688.795 -1.27931 0.920396 0
M  V30 7543 C 689.727 -2.26175 0.371169 0
M  V30 7544 C 690.74 -1.55122 -0.494065 0
M  V30 7545 O 691.929 -1.75825 -0.30787 0
M  V30 7546 C 689.029 -3.35376 -0.487481 0
M  V30 7547 C 688.202 -4.35943 0.356772 0
M  V30 7548 C 687.261 -5.24374 -0.438042 0
M  V30 7549 O 686.287 -5.68998 0.151715 0
M  V30 7550 N 687.489 -5.53823 -1.73956 0
M  V30 7551 H 690.254 -2.73938 1.21564 0
M  V30 7552 H 687.815 -1.41482 0.787047 0
M  V30 7553 H 689.807 -3.91476 -1.02609 0
M  V30 7554 H 688.377 -2.87269 -1.23269 0
M  V30 7555 H 687.597 -3.7921 1.07672 0
M  V30 7556 H 688.885 -5.0015 0.934206 0
M  V30 7557 H 688.283 -5.19413 -2.24114 0
M  V30 7558 H 686.84 -6.12653 -2.22486 0
M  V30 7559 N 690.273 -0.685099 -1.4193 0
M  V30 7560 C 691.689 -0.355632 -1.55587 0
M  V30 7561 C 691.889 1.13823 -1.66273 0
M  V30 7562 O 690.945 1.92387 -1.63534 0
M  V30 7563 C 692.258 -1.09498 -2.80055 0
M  V30 7564 C 693.806 -1.07831 -2.93839 0
M  V30 7565 C 694.281 -1.79919 -4.21181 0
M  V30 7566 N 695.772 -1.76837 -4.28115 0
M  V30 7567 C 696.507 -2.29463 -5.25485 0
M  V30 7568 N 696.003 -2.90516 -6.28945 0
M  V30 7569 N 697.796 -2.19779 -5.17353 0
M  V30 7570 H 689.947 -1.65412 -1.33239 0
M  V30 7571 H 692.21 -0.697453 -0.642078 0
M  V30 7572 H 691.916 -2.14997 -2.78333 0
M  V30 7573 H 691.79 -0.666813 -3.71259 0
M  V30 7574 H 694.177 -0.0316152 -2.95083 0
M  V30 7575 H 694.258 -1.54545 -2.03837 0
M  V30 7576 H 693.902 -2.84562 -4.20698 0
M  V30 7577 H 693.832 -1.30647 -5.10136 0
M  V30 7578 H 696.323 -1.32315 -3.53979 0
M  V30 7579 H 696.636 -3.28266 -6.99615 0
M  V30 7580 H 694.981 -2.94589 -6.29478 0
M  V30 7581 H 698.172 -1.71763 -4.35448 0
M  V30 7582 H 698.345 -2.61097 -5.9307 0
M  V30 7583 N 691.751 1.51645 -0.429126 0
M  V30 7584 C 692.979 2.06433 0.138994 0
M  V30 7585 C 693.394 1.29735 1.37165 0
M  V30 7586 O 692.751 0.354638 1.79021 0
M  V30 7587 C 692.802 3.58439 0.469452 0
M  V30 7588 O 692.523 4.32238 -0.714273 0
M  V30 7589 C 694.024 4.29712 1.08914 0
M  V30 7590 H 691.244 0.6709 0.0115608 0
M  V30 7591 H 693.788 1.9532 -0.605843 0
M  V30 7592 H 691.943 3.69494 1.16419 0
M  V30 7593 H 692.357 5.22704 -0.433633 0
M  V30 7594 H 693.831 5.37182 1.27042 0
M  V30 7595 H 694.308 3.87473 2.06788 0
M  V30 7596 H 694.914 4.2308 0.434028 0
M  V30 7597 N 693.229 0.160201 1.56784 0
M  V30 7598 C 694.477 -0.486625 1.96154 0
M  V30 7599 C 694.798 -1.64525 1.04673 0
M  V30 7600 O 694.068 -1.95586 0.110864 0
M  V30 7601 H 692.648 -0.182764 0.724297 0
M  V30 7602 H 695.31 0.238787 1.93432 0
M  V30 7603 H 694.406 -0.854025 3.00188 0
M  V30 7604 N 694.707 -1.5719 -0.113559 0
M  V30 7605 C 696.118 -1.74259 -0.670116 0
M  V30 7606 C 696.469 -0.779694 -1.80042 0
M  V30 7607 O 695.594 0.0461353 -2.16351 0
M  V30 7608 C 696.189 -3.15981 -1.22236 0
M  V30 7609 C 694.748 -3.34537 -1.72516 0
M  V30 7610 C 693.895 -2.70116 -0.627098 0
M  V30 7611 H 696.846 -1.58301 0.112396 0
M  V30 7612 H 696.867 -3.17832 -2.09197 0
M  V30 7613 H 696.379 -3.86038 -0.39949 0
M  V30 7614 H 694.48 -2.6953 -2.57263 0
M  V30 7615 H 694.593 -4.42737 -1.83086 0
M  V30 7616 H 692.957 -2.31501 -1.06204 0
M  V30 7617 H 693.74 -3.42802 0.184889 0
M  V30 7618 N 696.185 0.383891 -1.52853 0
M  V30 7619 C 697.148 1.45197 -1.77343 0
M  V30 7620 C 698.148 1.47362 -0.643522 0
M  V30 7621 O 699.338 1.48443 -0.911613 0
M  V30 7622 C 696.47 2.8445 -1.87885 0
M  V30 7623 H 697.663 1.24764 -2.72716 0
M  V30 7624 H 695.216 0.615939 -1.43652 0
M  V30 7625 H 695.951 3.10222 -0.94515 0
M  V30 7626 H 695.736 2.8428 -2.70051 0
M  V30 7627 H 697.226 3.61832 -2.08488 0
M  V30 7628 N 697.663 1.43903 0.642637 0
M  V30 7629 C 698.909 1.47291 1.40275 0
M  V30 7630 C 699.264 0.0996024 1.92142 0
M  V30 7631 O 698.557 -0.883423 1.70018 0
M  V30 7632 C 698.751 2.45907 2.59354 0
M  V30 7633 C 698.58 3.92691 2.19143 0
M  V30 7634 C 697.35 4.6097 2.06966 0
M  V30 7635 C 699.548 4.82231 1.78768 0
M  V30 7636 N 697.53 5.9263 1.60196 0
M  V30 7637 C 698.901 6.03246 1.43159 0
M  V30 7638 C 700.956 4.69397 1.66045 0
M  V30 7639 C 699.659 7.12851 0.961014 0
M  V30 7640 C 701.685 5.79016 1.20392 0
M  V30 7641 C 701.047 6.99164 0.857271 0
M  V30 7642 H 697.146 0.594055 0.50855 0
M  V30 7643 H 699.73 1.80153 0.738434 0
M  V30 7644 H 697.901 2.15054 3.23429 0
M  V30 7645 H 699.633 2.39665 3.26102 0
M  V30 7646 H 696.388 4.15622 2.27058 0
M  V30 7647 H 696.812 6.62547 1.39143 0
M  V30 7648 H 701.454 3.76954 1.91482 0
M  V30 7649 H 699.172 8.05113 0.694148 0
M  V30 7650 H 702.758 5.71109 1.11023 0
M  V30 7651 H 701.638 7.82544 0.509408 0
M  V30 7652 N 699.141 -0.881989 1.30609 0
M  V30 7653 C 700.089 -2.00942 1.17155 0
M  V30 7654 C 701.083 -1.69198 0.0827154 0
M  V30 7655 O 702.289 -1.78342 0.243775 0
M  V30 7656 H 698.664 -0.658913 0.362406 0
M  V30 7657 H 700.635 -2.09423 2.12567 0
M  V30 7658 C 699.384 -3.36294 0.883273 0
M  V30 7659 H 698.707 -3.61233 1.7132 0
M  V30 7660 H 700.147 -4.15812 0.829255 0
M  V30 7661 C 698.606 -3.34348 -0.413851 0
M  V30 7662 O 699.136 -3.75216 -1.43444 0
M  V30 7663 N 697.342 -2.87459 -0.426082 0
M  V30 7664 H 696.889 -2.54397 0.40493 0
M  V30 7665 H 696.847 -2.8654 -1.29391 0
M  V30 7666 N 700.619 -1.13374 -1.09472 0
M  V30 7667 C 701.865 -0.896516 -1.81908 0
M  V30 7668 C 702.198 0.575933 -1.85463 0
M  V30 7669 O 701.473 1.42618 -1.32251 0
M  V30 7670 C 701.756 -1.48445 -3.28079 0
M  V30 7671 C 701.609 -3.02598 -3.32798 0
M  V30 7672 C 702.928 -1.15226 -4.24748 0
M  V30 7673 H 700.047 -0.327127 -0.660422 0
M  V30 7674 H 702.689 -1.40195 -1.2824 0
M  V30 7675 H 700.839 -1.0546 -3.73912 0
M  V30 7676 H 702.511 -3.54335 -2.95372 0
M  V30 7677 H 700.754 -3.37613 -2.72397 0
M  V30 7678 H 701.425 -3.38835 -4.3577 0
M  V30 7679 H 703.901 -1.52369 -3.87199 0
M  V30 7680 H 702.777 -1.59012 -5.25363 0
M  V30 7681 H 703.038 -0.0658891 -4.42051 0
M  V30 7682 N 702.098 1.27442 -0.927168 0
M  V30 7683 C 703.028 2.29256 -0.443188 0
M  V30 7684 C 704.009 1.62701 0.49624 0
M  V30 7685 O 705.194 1.90013 0.401105 0
M  V30 7686 C 702.324 3.45955 0.305366 0
M  V30 7687 C 701.278 4.24501 -0.546178 0
M  V30 7688 C 700.604 5.33671 0.331512 0
M  V30 7689 C 701.904 4.89921 -1.81037 0
M  V30 7690 H 703.598 2.69988 -1.29409 0
M  V30 7691 H 701.144 1.29792 -0.623705 0
M  V30 7692 H 703.097 4.1628 0.654885 0
M  V30 7693 H 701.821 3.04138 1.19029 0
M  V30 7694 H 700.48 3.55921 -0.878398 0
M  V30 7695 H 700.128 4.88096 1.21537 0
M  V30 7696 H 699.828 5.87131 -0.234746 0
M  V30 7697 H 701.352 6.0684 0.676614 0
M  V30 7698 H 702.766 5.52536 -1.52895 0
M  V30 7699 H 701.163 5.53436 -2.32009 0
M  V30 7700 H 702.233 4.13652 -2.53021 0
M  V30 7701 N 703.576 0.692616 1.41565 0
M  V30 7702 C 704.509 -0.025063 2.28186 0
M  V30 7703 C 705.487 -0.790912 1.42068 0
M  V30 7704 O 706.671 -0.782344 1.71498 0
M  V30 7705 C 703.798 -1.04285 3.22246 0
M  V30 7706 C 702.844 -0.370515 4.24888 0
M  V30 7707 S 703.677 0.884942 5.28137 0
M  V30 7708 C 704.833 -0.131324 6.25762 0
M  V30 7709 H 705.066 0.709626 2.88707 0
M  V30 7710 H 702.599 0.482783 1.46658 0
M  V30 7711 H 704.557 -1.62493 3.7697 0
M  V30 7712 H 703.218 -1.7501 2.60827 0
M  V30 7713 H 702.411 -1.13911 4.90959 0
M  V30 7714 H 702.013 0.138411 3.73744 0
M  V30 7715 H 704.305 -0.985527 6.70294 0
M  V30 7716 H 705.248 0.495384 7.06365 0
M  V30 7717 H 705.656 -0.484777 5.62415 0
M  V30 7718 N 705.054 -1.51416 0.437162 0
M  V30 7719 C 706.3 -2.03035 -0.121818 0
M  V30 7720 C 706.655 -1.31551 -1.404 0
M  V30 7721 O 705.948 -0.421623 -1.86903 0
M  V30 7722 C 706.142 -3.55203 -0.39564 0
M  V30 7723 C 705.971 -4.4143 0.858452 0
M  V30 7724 C 704.741 -4.85751 1.39192 0
M  V30 7725 C 706.939 -4.83808 1.74454 0
M  V30 7726 N 704.921 -5.5619 2.59857 0
M  V30 7727 C 706.292 -5.53312 2.79724 0
M  V30 7728 C 708.347 -4.65795 1.75897 0
M  V30 7729 C 707.05 -6.06713 3.86383 0
M  V30 7730 C 709.076 -5.20112 2.81492 0
M  V30 7731 C 708.438 -5.89562 3.85482 0
M  V30 7732 H 704.537 -0.781981 -0.00541671 0
M  V30 7733 H 707.121 -1.85296 0.597792 0
M  V30 7734 H 705.292 -3.72958 -1.08429 0
M  V30 7735 H 707.024 -3.93489 -0.945963 0
M  V30 7736 H 703.779 -4.64058 0.945879 0
M  V30 7737 H 704.203 -5.96037 3.21044 0
M  V30 7738 H 708.845 -4.11562 0.968306 0
M  V30 7739 H 706.563 -6.6 4.66288 0
M  V30 7740 H 710.149 -5.08026 2.83551 0
M  V30 7741 H 709.029 -6.30838 4.65847 0
M  V30 7742 N 706.532 -0.168513 -1.56696 0
M  V30 7743 C 707.76 0.483503 -2.01171 0
M  V30 7744 C 708.175 1.56994 -1.04872 0
M  V30 7745 O 707.532 1.82434 -0.0491337 0
M  V30 7746 C 707.583 1.0644 -3.45475 0
M  V30 7747 O 707.304 0.0213375 -4.38095 0
M  V30 7748 C 708.805 1.79493 -4.05336 0
M  V30 7749 H 706.025 0.124002 -0.659443 0
M  V30 7750 H 708.569 -0.269419 -2.02717 0
M  V30 7751 H 706.724 1.76784 -3.44712 0
M  V30 7752 H 707.138 0.449837 -5.22567 0
M  V30 7753 H 708.612 2.15401 -5.08238 0
M  V30 7754 H 709.089 2.68889 -3.47269 0
M  V30 7755 H 709.695 1.13798 -4.09793 0
M  V30 7756 N 708.01 1.57248 0.105221 0
M  V30 7757 C 708.943 1.96567 1.15916 0
M  V30 7758 C 709.921 0.837355 1.39381 0
M  V30 7759 O 711.105 1.09676 1.53308 0
M  V30 7760 C 708.232 2.27375 2.51035 0
M  V30 7761 C 707.278 3.49869 2.43913 0
M  V30 7762 S 708.111 5.01958 1.86543 0
M  V30 7763 C 709.267 5.35932 3.23307 0
M  V30 7764 H 709.5 2.85655 0.823931 0
M  V30 7765 H 707.033 1.51204 0.312515 0
M  V30 7766 H 708.991 2.45801 3.28774 0
M  V30 7767 H 707.652 1.38876 2.81731 0
M  V30 7768 H 706.845 3.68835 3.43477 0
M  V30 7769 H 706.447 3.30901 1.743 0
M  V30 7770 H 708.739 5.31958 4.19556 0
M  V30 7771 H 709.682 6.37047 3.09155 0
M  V30 7772 H 710.09 4.63397 3.22372 0
M  V30 7773 N 709.488 -0.375779 1.53054 0
M  V30 7774 C 710.418 -1.46598 1.81745 0
M  V30 7775 C 711.399 -1.56337 0.670286 0
M  V30 7776 O 712.584 -1.71071 0.919158 0
M  V30 7777 C 709.714 -2.84058 1.99821 0
M  V30 7778 C 708.668 -2.8915 3.15557 0
M  V30 7779 C 707.994 -4.29187 3.18908 0
M  V30 7780 C 709.294 -2.57595 4.54359 0
M  V30 7781 H 710.988 -1.22837 2.73041 0
M  V30 7782 H 708.534 -0.589485 1.31381 0
M  V30 7783 H 710.487 -3.60342 2.18475 0
M  V30 7784 H 709.211 -3.09184 1.05226 0
M  V30 7785 H 707.87 -2.15316 2.96706 0
M  V30 7786 H 707.518 -4.51374 2.2197 0
M  V30 7787 H 707.218 -4.33512 3.96662 0
M  V30 7788 H 708.742 -5.07359 3.39734 0
M  V30 7789 H 710.156 -3.23595 4.73243 0
M  V30 7790 H 708.553 -2.73252 5.34279 0
M  V30 7791 H 709.623 -1.52882 4.60169 0
M  V30 7792 N 710.966 -1.44241 -0.634997 0
M  V30 7793 C 712.213 -1.46821 -1.39463 0
M  V30 7794 C 712.541 -0.0993362 -1.94246 0
M  V30 7795 O 711.796 0.898325 -1.73864 0
M  V30 7796 C 712.095 -2.47279 -2.58046 0
M  V30 7797 C 711.761 -3.92703 -2.21574 0
M  V30 7798 C 710.423 -4.32306 -2.1134 0
M  V30 7799 C 712.775 -4.84271 -1.92695 0
M  V30 7800 C 710.103 -5.61407 -1.70409 0
M  V30 7801 C 712.455 -6.13755 -1.53258 0
M  V30 7802 C 711.119 -6.52316 -1.41562 0
M  V30 7803 H 710.389 -0.537256 -0.51033 0
M  V30 7804 H 713.036 -1.77431 -0.720441 0
M  V30 7805 H 711.341 -2.10138 -3.3068 0
M  V30 7806 H 713.038 -2.46523 -3.16271 0
M  V30 7807 H 709.628 -3.61369 -2.30456 0
M  V30 7808 H 713.812 -4.54432 -1.99513 0
M  V30 7809 H 709.068 -5.90105 -1.59955 0
M  V30 7810 H 713.242 -6.84168 -1.29949 0
M  V30 7811 H 710.869 -7.52255 -1.09619 0
M  V30 7812 N 712.444 0.87505 -1.31075 0
M  V30 7813 C 713.374 1.99775 -1.20881 0
M  V30 7814 C 714.355 1.69822 -0.0971612 0
M  V30 7815 O 715.54 1.92158 -0.280895 0
M  V30 7816 C 712.67 3.35163 -0.910118 0
M  V30 7817 C 711.624 3.79406 -1.98078 0
M  V30 7818 C 710.95 5.12197 -1.53488 0
M  V30 7819 C 712.25 3.97061 -3.39323 0
M  V30 7820 H 713.944 2.08562 -2.14808 0
M  V30 7821 H 711.49 1.00207 -1.03415 0
M  V30 7822 H 713.443 4.13237 -0.825423 0
M  V30 7823 H 712.167 3.26536 0.064822 0
M  V30 7824 H 710.826 3.03568 -2.05528 0
M  V30 7825 H 710.474 5.00007 -0.547941 0
M  V30 7826 H 710.174 5.4277 -2.2511 0
M  V30 7827 H 711.698 5.92785 -1.46417 0
M  V30 7828 H 713.112 4.65545 -3.34576 0
M  V30 7829 H 711.509 4.39025 -4.09118 0
M  V30 7830 H 712.579 3.00601 -3.80483 0
M  V30 7831 N 713.922 1.13953 1.08869 0
M  V30 7832 C 715.17 0.903023 1.80803 0
M  V30 7833 C 715.491 -0.572151 1.86417 0
M  V30 7834 O 714.761 -1.41589 1.35386 0
M  V30 7835 H 713.341 0.331099 0.669614 0
M  V30 7836 H 716.003 1.43719 1.31647 0
M  V30 7837 H 715.099 1.29881 2.83791 0
M  V30 7838 N 715.4 -1.26948 0.933913 0
M  V30 7839 C 716.332 -2.25768 0.395137 0
M  V30 7840 C 717.345 -1.55637 -0.477585 0
M  V30 7841 O 718.534 -1.76142 -0.289204 0
M  V30 7842 C 715.634 -3.35874 -0.451882 0
M  V30 7843 C 714.807 -4.3554 0.40299 0
M  V30 7844 C 713.866 -5.24809 -0.3824 0
M  V30 7845 O 712.892 -5.68805 0.212057 0
M  V30 7846 N 714.094 -5.55636 -1.68072 0
M  V30 7847 H 716.859 -2.72634 1.24463 0
M  V30 7848 H 714.42 -1.40639 0.802008 0
M  V30 7849 H 716.412 -3.92542 -0.984516 0
M  V30 7850 H 714.982 -2.8856 -1.20215 0
M  V30 7851 H 714.202 -3.78047 1.11688 0
M  V30 7852 H 715.49 -4.99131 0.987201 0
M  V30 7853 H 714.888 -5.2176 -2.18592 0
M  V30 7854 H 713.445 -6.14978 -2.15975 0
M  V30 7855 N 716.879 -0.700114 -1.41195 0
M  V30 7856 C 718.127 -0.232546 -2.00758 0
M  V30 7857 C 718.448 1.1734 -1.55745 0
M  V30 7858 O 717.718 1.79262 -0.790058 0
M  V30 7859 H 716.298 -0.0829845 -0.742376 0
M  V30 7860 H 718.96 -0.902289 -1.72756 0
M  V30 7861 H 718.056 -0.253521 -3.11069 0
M  V30 7862 N 718.357 1.51182 -0.445186 0
M  V30 7863 C 719.606 2.01342 0.120189 0
M  V30 7864 C 719.919 1.33353 1.43095 0
M  V30 7865 O 721.125 1.74525 2.07974 0
M  V30 7866 C 719.581 3.58925 0.264732 0
M  V30 7867 C 719.189 4.35855 -1.03606 0
M  V30 7868 C 720.933 4.17208 0.783455 0
M  V30 7869 C 718.84 5.85162 -0.856731 0
M  V30 7870 H 717.77 0.752426 0.0486922 0
M  V30 7871 H 720.421 1.74221 -0.576143 0
M  V30 7872 H 718.803 3.82525 1.02425 0
M  V30 7873 H 719.977 4.23997 -1.80452 0
M  V30 7874 H 718.292 3.89062 -1.48391 0
M  V30 7875 H 720.889 5.26475 0.934239 0
M  V30 7876 H 721.232 3.76892 1.768 0
M  V30 7877 H 721.765 3.97715 0.0820346 0
M  V30 7878 H 718.504 6.29904 -1.81388 0
M  V30 7879 H 718.024 5.99663 -0.128206 0
M  V30 7880 H 719.703 6.44963 -0.513027 0
M  V30 7881 N 719.835 0.176821 1.56605 0
M  V30 7882 C 720.767 -0.782836 2.15417 0
M  V30 7883 C 721.78 -1.18982 1.11117 0
M  V30 7884 O 722.969 -1.12872 1.38283 0
M  V30 7885 C 720.069 -2.06596 2.68647 0
M  V30 7886 C 719.242 -1.82167 3.9766 0
M  V30 7887 C 718.301 -2.94751 4.35899 0
M  V30 7888 O 717.327 -2.65148 5.03672 0
M  V30 7889 N 718.529 -4.2267 3.97907 0
M  V30 7890 H 721.294 -0.280012 2.98389 0
M  V30 7891 H 718.855 -0.00577529 1.61899 0
M  V30 7892 H 720.847 -2.81018 2.91223 0
M  V30 7893 H 719.417 -2.48054 1.90232 0
M  V30 7894 H 718.637 -0.916208 3.83405 0
M  V30 7895 H 719.925 -1.6322 4.81909 0
M  V30 7896 H 719.323 -4.4958 3.43357 0
M  V30 7897 H 717.88 -4.93778 4.25472 0
M  V30 7898 N 721.313 -1.57302 -0.09688 0
M  V30 7899 C 722.559 -1.86273 -0.801885 0
M  V30 7900 C 722.892 -0.765694 -1.78468 0
M  V30 7901 O 722.167 0.226495 -1.93177 0
M  V30 7902 C 722.45 -3.25876 -1.53221 0
M  V30 7903 C 722.303 -4.46205 -0.567529 0
M  V30 7904 C 723.622 -3.63352 -2.48321 0
M  V30 7905 H 720.741 -0.67752 -0.29006 0
M  V30 7906 H 723.383 -1.89887 -0.0655577 0
M  V30 7907 H 721.533 -3.22926 -2.15988 0
M  V30 7908 H 723.205 -4.6127 0.0529982 0
M  V30 7909 H 721.448 -4.33636 0.119233 0
M  V30 7910 H 722.119 -5.40608 -1.11564 0
M  V30 7911 H 724.595 -3.67234 -1.95648 0
M  V30 7912 H 723.471 -4.61968 -2.9644 0
M  V30 7913 H 723.732 -2.91941 -3.31998 0
M  V30 7914 N 722.791 0.367657 -1.53252 0
M  V30 7915 C 724.016 1.13566 -1.73544 0
M  V30 7916 C 724.441 1.82329 -0.462344 0
M  V30 7917 O 723.799 1.71655 0.583472 0
M  V30 7918 C 723.847 2.14322 -2.89997 0
M  V30 7919 O 722.951 3.21359 -2.58461 0
M  V30 7920 H 722.292 0.329614 -0.576412 0
M  V30 7921 H 724.822 0.425417 -2.00128 0
M  V30 7922 H 724.832 2.57958 -3.16104 0
M  V30 7923 H 723.507 1.63664 -3.82344 0
M  V30 7924 H 722.084 2.8271 -2.43165 0
M  V30 7925 N 724.269 1.44576 0.627338 0
M  V30 7926 C 725.199 1.54562 1.75022 0
M  V30 7927 C 726.18 0.398378 1.65369 0
M  V30 7928 O 727.365 0.61899 1.84071 0
M  V30 7929 C 724.495 1.49309 3.13567 0
M  V30 7930 C 723.449 2.62549 3.38012 0
M  V30 7931 C 722.775 2.42348 4.76625 0
M  V30 7932 C 724.075 4.04678 3.30202 0
M  V30 7933 H 725.769 2.4855 1.66922 0
M  V30 7934 H 723.315 1.19624 0.801636 0
M  V30 7935 H 725.268 1.54895 3.919 0
M  V30 7936 H 723.992 0.518392 3.2246 0
M  V30 7937 H 722.651 2.56358 2.62061 0
M  V30 7938 H 722.299 1.43062 4.82226 0
M  V30 7939 H 721.999 3.18273 4.93939 0
M  V30 7940 H 723.523 2.49758 5.57183 0
M  V30 7941 H 724.937 4.12217 3.98435 0
M  V30 7942 H 723.334 4.80836 3.5905 0
M  V30 7943 H 724.404 4.2798 2.27949 0
M  V30 7944 N 725.747 -0.868086 1.31537 0
M  V30 7945 C 726.977 -1.65162 1.24118 0
M  V30 7946 C 727.385 -1.88187 -0.195558 0
M  V30 7947 O 726.728 -1.44154 -1.13866 0
M  V30 7948 C 726.79 -3.04119 1.91708 0
M  V30 7949 C 726.454 -3.04194 3.4105 0
M  V30 7950 C 727.451 -2.82016 4.36764 0
M  V30 7951 C 725.136 -3.25256 3.82772 0
M  V30 7952 C 727.13 -2.80881 5.72175 0
M  V30 7953 C 724.817 -3.23749 5.18295 0
M  V30 7954 C 725.815 -3.01589 6.12808 0
M  V30 7955 O 725.503 -2.9993 7.45853 0
M  V30 7956 H 725.235 -0.521597 0.430015 0
M  V30 7957 H 727.789 -1.09165 1.73989 0
M  V30 7958 H 726.019 -3.61849 1.36389 0
M  V30 7959 H 727.708 -3.64701 1.78179 0
M  V30 7960 H 728.474 -2.65525 4.05859 0
M  V30 7961 H 724.353 -3.41534 3.09638 0
M  V30 7962 H 727.897 -2.63503 6.45919 0
M  V30 7963 H 723.794 -3.39781 5.48834 0
M  V30 7964 H 724.562 -3.15979 7.55049 0
M  V30 7965 N 727.225 -1.14528 -1.08264 0
M  V30 7966 C 728.465 -0.924808 -1.82282 0
M  V30 7967 C 728.829 0.538881 -1.84283 0
M  V30 7968 O 730.03 0.877355 -2.54079 0
M  V30 7969 C 728.301 -1.51102 -3.23887 0
M  V30 7970 S 729.86 -1.43232 -4.14765 0
M  V30 7971 H 726.678 -0.333052 -0.62817 0
M  V30 7972 H 729.28 -1.45905 -1.30123 0
M  V30 7973 H 727.984 -2.56942 -3.20014 0
M  V30 7974 H 727.515 -0.975234 -3.8112 0
M  V30 7975 H 729.53 -0.418843 -4.94429 0
M  V30 7976 N 728.703 1.26451 -0.940633 0
M  V30 7977 C 729.635 2.25556 -0.407104 0
M  V30 7978 C 730.648 1.55888 0.469324 0
M  V30 7979 O 731.837 1.76292 0.279858 0
M  V30 7980 C 728.937 3.36109 0.434064 0
M  V30 7981 C 728.11 4.3532 -0.426082 0
M  V30 7982 C 727.169 5.25004 0.354563 0
M  V30 7983 O 726.195 5.68684 -0.242219 0
M  V30 7984 N 727.397 5.5652 1.65123 0
M  V30 7985 H 730.162 2.7197 -1.25907 0
M  V30 7986 H 727.723 1.40212 -0.809456 0
M  V30 7987 H 729.715 3.93059 0.963684 0
M  V30 7988 H 728.285 2.89194 1.18683 0
M  V30 7989 H 727.505 3.77449 -1.13692 0
M  V30 7990 H 728.793 4.986 -1.01366 0
M  V30 7991 H 728.191 5.22912 2.15822 0
M  V30 7992 H 726.748 6.16115 2.12711 0
M  V30 7993 N 730.181 0.707592 1.40822 0
M  V30 7994 C 731.091 0.0507246 2.34545 0
M  V30 7995 C 732.107 -0.752727 1.56876 0
M  V30 7996 O 733.283 -0.687524 1.89302 0
M  V30 7997 C 730.348 -0.865731 3.35717 0
M  V30 7998 C 729.409 -0.0531313 4.29267 0
M  V30 7999 C 728.642 -0.925939 5.25606 0
M  V30 8000 O 728.865 -2.16531 5.27703 0
M  V30 8001 O 727.799 -0.369194 6.00767 0
M  V30 8002 H 731.625 0.823587 2.9232 0
M  V30 8003 H 729.21 0.46801 1.4188 0
M  V30 8004 H 731.092 -1.39091 3.97783 0
M  V30 8005 H 729.767 -1.61788 2.80368 0
M  V30 8006 H 728.674 0.516931 3.70511 0
M  V30 8007 H 730.007 0.660617 4.87747 0
M  V30 8008 N 731.66 -1.50943 0.453197 0
M  V30 8009 C 732.906 -2.03153 -0.100277 0
M  V30 8010 C 733.261 -1.33032 -1.38997 0
M  V30 8011 O 732.554 -0.441423 -1.86446 0
M  V30 8012 C 732.748 -3.55603 -0.357944 0
M  V30 8013 C 732.577 -4.40495 0.905223 0
M  V30 8014 C 731.347 -4.84247 1.44337 0
M  V30 8015 C 733.545 -4.81931 1.79575 0
M  V30 8016 N 731.527 -5.53403 2.65742 0
M  V30 8017 C 732.898 -5.50314 2.85577 0
M  V30 8018 C 734.953 -4.63903 1.80828 0
M  V30 8019 C 733.656 -6.02581 3.92797 0
M  V30 8020 C 735.682 -5.17097 2.86993 0
M  V30 8021 C 735.044 -5.8544 3.91713 0
M  V30 8022 H 731.143 -0.781995 0.00287755 0
M  V30 8023 H 733.727 -1.84651 0.617411 0
M  V30 8024 H 731.898 -3.74087 -1.04467 0
M  V30 8025 H 733.63 -3.9447 -0.904175 0
M  V30 8026 H 730.385 -4.63029 0.995045 0
M  V30 8027 H 730.809 -5.92598 3.27348 0
M  V30 8028 H 735.451 -4.10512 1.0119 0
M  V30 8029 H 733.169 -6.55018 4.73262 0
M  V30 8030 H 736.755 -5.0499 2.88923 0
M  V30 8031 H 735.635 -6.25861 4.72512 0
M  V30 8032 N 733.138 -0.185124 -1.56509 0
M  V30 8033 C 734.368 0.461469 -2.0138 0
M  V30 8034 C 734.776 1.56417 -1.06445 0
M  V30 8035 O 734.119 1.83603 -0.0597515 0
M  V30 8036 C 734.181 1.08731 -3.42663 0
M  V30 8037 C 733.845 0.124581 -4.5683 0
M  V30 8038 C 734.842 -0.662295 -5.15664 0
M  V30 8039 C 732.527 0.0163947 -5.02297 0
M  V30 8040 C 734.521 -1.54442 -6.18406 0
M  V30 8041 C 732.208 -0.869301 -6.04885 0
M  V30 8042 C 733.206 -1.64828 -6.62813 0
M  V30 8043 O 732.894 -2.51915 -7.63409 0
M  V30 8044 H 732.626 0.1212 -0.665046 0
M  V30 8045 H 735.18 -0.288119 -2.03369 0
M  V30 8046 H 733.41 1.8853 -3.37629 0
M  V30 8047 H 735.099 1.63753 -3.71403 0
M  V30 8048 H 735.865 -0.588963 -4.81411 0
M  V30 8049 H 731.744 0.61253 -4.56913 0
M  V30 8050 H 735.288 -2.15289 -6.63548 0
M  V30 8051 H 731.185 -0.943786 -6.38563 0
M  V30 8052 H 731.953 -2.45584 -7.80789 0
M  V30 8053 N 734.616 1.57351 0.0885366 0
M  V30 8054 C 735.579 2.01557 1.09121 0
M  V30 8055 C 736.579 0.910052 1.3257 0
M  V30 8056 O 737.769 1.17537 1.28572 0
M  V30 8057 C 734.901 2.38189 2.43883 0
M  V30 8058 H 736.094 2.91361 0.710562 0
M  V30 8059 H 733.647 1.52694 0.333779 0
M  V30 8060 H 734.382 1.5136 2.86811 0
M  V30 8061 H 734.167 3.18846 2.28209 0
M  V30 8062 H 735.657 2.73025 3.15986 0
M  V30 8063 N 736.094 -0.359525 1.53444 0
M  V30 8064 C 737.51 -0.701599 1.43352 0
M  V30 8065 C 737.71 -1.93049 0.577439 0
M  V30 8066 O 736.766 -2.52423 0.0622224 0
M  V30 8067 C 738.079 -0.90915 2.86627 0
M  V30 8068 C 739.627 -1.00878 2.96298 0
M  V30 8069 C 740.102 -1.24876 4.40647 0
M  V30 8070 N 741.593 -1.31632 4.44103 0
M  V30 8071 C 742.328 -1.51922 5.52908 0
M  V30 8072 N 741.824 -1.69489 6.71748 0
M  V30 8073 N 743.617 -1.54341 5.40496 0
M  V30 8074 H 735.768 0.448685 2.07607 0
M  V30 8075 H 738.031 0.138713 0.937797 0
M  V30 8076 H 737.737 -0.0778997 3.51614 0
M  V30 8077 H 737.611 -1.81551 3.30634 0
M  V30 8078 H 739.998 -1.83057 2.31461 0
M  V30 8079 H 740.079 -0.0796721 2.55676 0
M  V30 8080 H 739.723 -0.431961 5.0606 0
M  V30 8081 H 739.653 -2.19118 4.78848 0
M  V30 8082 H 742.144 -1.19646 3.5846 0
M  V30 8083 H 742.457 -1.84561 7.50438 0
M  V30 8084 H 740.802 -1.66655 6.74723 0
M  V30 8085 H 743.993 -1.40188 4.46615 0
M  V30 8086 H 744.166 -1.69812 6.25354 0
M  V30 8087 N 737.572 -1.44907 -0.619662 0
M  V30 8088 C 738.988 -1.29046 -0.939107 0
M  V30 8089 C 739.188 -0.23462 -2.00129 0
M  V30 8090 O 738.244 0.37558 -2.49691 0
M  V30 8091 C 739.557 -2.66567 -1.39149 0
M  V30 8092 C 741.105 -2.74368 -1.50635 0
M  V30 8093 C 741.58 -4.12386 -1.99253 0
M  V30 8094 N 743.071 -4.1462 -2.06506 0
M  V30 8095 C 743.806 -5.18272 -2.4532 0
M  V30 8096 N 743.302 -6.32278 -2.83189 0
M  V30 8097 N 745.095 -5.05628 -2.45554 0
M  V30 8098 H 737.246 -2.12239 0.0826135 0
M  V30 8099 H 739.509 -0.947652 -0.0256829 0
M  V30 8100 H 739.215 -3.4496 -0.685254 0
M  V30 8101 H 739.089 -2.94224 -2.36034 0
M  V30 8102 H 741.476 -1.96287 -2.20353 0
M  V30 8103 H 741.557 -2.50439 -0.520963 0
M  V30 8104 H 741.201 -4.90947 -1.30127 0
M  V30 8105 H 741.131 -4.33699 -2.98684 0
M  V30 8106 H 743.622 -3.32343 -1.79878 0
M  V30 8107 H 743.935 -7.07172 -3.11652 0
M  V30 8108 H 742.28 -6.35699 -2.80913 0
M  V30 8109 H 745.471 -4.15613 -2.15367 0
M  V30 8110 H 745.644 -5.86529 -2.75478 0
M  V30 8111 N 739.05 0.861098 -1.31996 0
M  V30 8112 C 740 1.95703 -1.1698 0
M  V30 8113 C 740.984 1.60709 -0.0784201 0
M  V30 8114 O 742.176 1.74365 -0.304262 0
M  V30 8115 C 739.305 3.31606 -0.888388 0
M  V30 8116 C 738.391 3.7284 -2.02117 0
M  V30 8117 N 738.782 3.85957 -3.26911 0
M  V30 8118 C 737.08 4.02419 -1.92289 0
M  V30 8119 C 737.781 4.21333 -4.01065 0
M  V30 8120 N 736.757 4.32502 -3.29307 0
M  V30 8121 H 740.559 2.03968 -2.11599 0
M  V30 8122 H 738.073 1.05245 -1.23682 0
M  V30 8123 H 740.07 4.09881 -0.761782 0
M  V30 8124 H 738.73 3.24662 0.0494898 0
M  V30 8125 H 739.741 3.70449 -3.61923 0
M  V30 8126 H 736.418 4.03814 -1.06022 0
M  V30 8127 H 737.808 4.39005 -5.08649 0
M  V30 8128 N 740.528 1.15101 1.07655 0
M  V30 8129 C 741.768 0.934462 1.81789 0
M  V30 8130 C 742.132 -0.529101 1.84566 0
M  V30 8131 O 743.333 -0.863868 2.5454 0
M  V30 8132 C 741.604 1.52817 3.23082 0
M  V30 8133 S 743.163 1.45429 4.14 0
M  V30 8134 H 739.981 0.336379 0.626395 0
M  V30 8135 H 742.583 1.46593 1.29347 0
M  V30 8136 H 741.287 2.58635 3.18647 0
M  V30 8137 H 740.818 0.995432 3.80598 0
M  V30 8138 H 742.833 0.445058 4.942 0
M  V30 8139 N 742.006 -1.2595 0.947325 0
M  V30 8140 C 743.417 -1.75389 0.639963 0
M  V30 8141 C 743.768 -1.77081 -0.844788 0
M  V30 8142 O 742.893 -1.3869 -1.66114 0
M  V30 8143 C 743.488 -3.18506 1.15496 0
M  V30 8144 C 742.047 -3.65534 0.897894 0
M  V30 8145 C 741.194 -2.44818 1.30228 0
M  V30 8146 H 744.145 -1.1194 1.12495 0
M  V30 8147 H 744.166 -3.77045 0.511627 0
M  V30 8148 H 743.678 -3.17243 2.23559 0
M  V30 8149 H 741.779 -3.72221 -0.168096 0
M  V30 8150 H 741.892 -4.54039 1.52922 0
M  V30 8151 H 740.256 -2.44291 0.720678 0
M  V30 8152 H 741.039 -2.46251 2.39198 0
M  V30 8153 N 743.484 -0.715051 -1.40445 0
M  V30 8154 C 744.414 -0.0768699 -2.33373 0
M  V30 8155 C 745.395 0.746109 -1.52863 0
M  V30 8156 O 746.58 0.695142 -1.81332 0
M  V30 8157 C 743.71 0.846014 -3.36838 0
M  V30 8158 C 742.664 0.128694 -4.27806 0
M  V30 8159 C 741.99 1.16726 -5.21804 0
M  V30 8160 C 743.29 -1.01679 -5.12307 0
M  V30 8161 H 744.984 -0.853061 -2.8699 0
M  V30 8162 H 742.53 -0.41167 -1.3799 0
M  V30 8163 H 744.483 1.30185 -4.00786 0
M  V30 8164 H 743.207 1.6541 -2.81615 0
M  V30 8165 H 741.866 -0.307314 -3.6531 0
M  V30 8166 H 741.514 1.96838 -4.62887 0
M  V30 8167 H 741.214 0.692188 -5.83509 0
M  V30 8168 H 742.738 1.62321 -5.88629 0
M  V30 8169 H 744.152 -0.640337 -5.69713 0
M  V30 8170 H 742.549 -1.4202 -5.83053 0
M  V30 8171 H 743.619 -1.84769 -4.48317 0
M  V30 8172 N 744.962 1.50701 -0.461195 0
M  V30 8173 C 746.373 1.867 -0.00370227 0
M  V30 8174 C 746.724 1.37673 1.39787 0
M  V30 8175 O 745.849 0.737515 2.03445 0
M  V30 8176 C 746.444 3.388 5.75786e-05 0
M  V30 8177 C 745.003 3.74247 0.402044 0
M  V30 8178 C 744.15 2.74549 -0.389652 0
M  V30 8179 H 747.101 1.43585 -0.675942 0
M  V30 8180 H 747.122 3.719 0.804414 0
M  V30 8181 H 746.634 3.74452 -1.02015 0
M  V30 8182 H 744.735 3.44192 1.42697 0
M  V30 8183 H 744.848 4.78973 0.110265 0
M  V30 8184 H 743.212 2.54226 0.155314 0
M  V30 8185 H 743.995 3.13044 -1.40919 0
M  V30 8186 N 746.441 0.193421 1.56409 0
M  V30 8187 C 747.373 -0.759944 2.16235 0
M  V30 8188 C 748.386 -1.17797 1.12373 0
M  V30 8189 O 749.575 -1.11399 1.39472 0
M  V30 8190 C 746.675 -2.03735 2.70823 0
M  V30 8191 C 745.848 -1.77939 3.9957 0
M  V30 8192 C 744.907 -2.90111 4.39001 0
M  V30 8193 O 743.933 -2.59791 5.06456 0
M  V30 8194 N 745.135 -4.18426 4.02368 0
M  V30 8195 H 747.9 -0.248348 2.98669 0
M  V30 8196 H 745.461 0.0113966 1.61896 0
M  V30 8197 H 747.453 -2.77914 2.94187 0
M  V30 8198 H 746.023 -2.46022 1.92852 0
M  V30 8199 H 745.243 -0.875491 3.84355 0
M  V30 8200 H 746.531 -1.58099 4.83614 0
M  V30 8201 H 745.929 -4.45913 3.48106 0
M  V30 8202 H 744.486 -4.89237 4.30686 0
M  V30 8203 N 747.919 -1.57396 -0.0801906 0
M  V30 8204 C 748.882 -2.02133 -1.0805 0
M  V30 8205 C 749.882 -0.91707 -1.32085 0
M  V30 8206 O 751.072 -1.18217 -1.27947 0
M  V30 8207 C 748.204 -2.39479 -2.42616 0
M  V30 8208 H 749.397 -2.91733 -0.6951 0
M  V30 8209 H 746.95 -1.52869 -0.325677 0
M  V30 8210 H 747.685 -1.52879 -2.86004 0
M  V30 8211 H 747.47 -3.20052 -2.26515 0
M  V30 8212 H 748.96 -2.74697 -3.14534 0
M  V30 8213 N 749.397 0.351382 -1.53633 0
M  V30 8214 C 750.625 1.11275 -1.74429 0
M  V30 8215 C 751.04 1.82602 -0.479798 0
M  V30 8216 O 750.397 1.74074 0.548125 0
M  V30 8217 C 750.448 2.13223 -2.91921 0
M  V30 8218 O 750.169 1.44798 -4.13479 0
M  V30 8219 C 751.67 3.01797 -3.24706 0
M  V30 8220 H 748.89 0.332153 -0.583023 0
M  V30 8221 H 751.434 0.405974 -2.0043 0
M  V30 8222 H 749.589 2.79477 -2.68274 0
M  V30 8223 H 750.003 2.12839 -4.79374 0
M  V30 8224 H 751.477 3.69282 -4.10286 0
M  V30 8225 H 751.954 3.67387 -2.40673 0
M  V30 8226 H 752.56 2.41141 -3.5033 0
M  V30 8227 N 750.875 1.45233 0.611969 0
M  V30 8228 C 752.122 1.49021 1.37109 0
M  V30 8229 C 752.45 0.130227 1.94064 0
M  V30 8230 O 751.705 -0.870551 1.75271 0
M  V30 8231 C 752.004 2.51353 2.54079 0
M  V30 8232 C 751.67 3.96178 2.15299 0
M  V30 8233 C 750.332 4.35614 2.04436 0
M  V30 8234 C 752.684 4.87275 1.84966 0
M  V30 8235 C 750.012 5.64047 1.61456 0
M  V30 8236 C 752.364 6.16115 1.43474 0
M  V30 8237 C 751.028 6.54486 1.31167 0
M  V30 8238 H 750.298 0.545307 0.501719 0
M  V30 8239 H 752.945 1.78555 0.692122 0
M  V30 8240 H 751.25 2.15372 3.27295 0
M  V30 8241 H 752.947 2.51523 3.12309 0
M  V30 8242 H 749.537 3.6499 2.24678 0
M  V30 8243 H 753.721 4.57548 1.92258 0
M  V30 8244 H 748.977 5.92575 1.50547 0
M  V30 8245 H 753.151 6.86149 1.19048 0
M  V30 8246 H 750.778 7.53904 0.97637 0
M  V30 8247 N 752.353 -0.854086 1.3245 0
M  V30 8248 C 753.599 -1.6105 1.24235 0
M  V30 8249 C 753.954 -1.91421 -0.193877 0
M  V30 8250 O 753.247 -1.54599 -1.1318 0
M  V30 8251 C 753.441 -2.93746 2.03587 0
M  V30 8252 C 753.27 -2.76335 3.54781 0
M  V30 8253 C 752.04 -2.74687 4.24117 0
M  V30 8254 C 754.238 -2.50052 4.4942 0
M  V30 8255 N 752.22 -2.48493 5.6136 0
M  V30 8256 C 753.591 -2.33269 5.74444 0
M  V30 8257 C 755.646 -2.35525 4.38671 0
M  V30 8258 C 754.349 -2.03434 6.89933 0
M  V30 8259 C 756.375 -2.07081 5.5396 0
M  V30 8260 C 755.737 -1.91098 6.77983 0
M  V30 8261 H 751.836 -0.593008 0.50977 0
M  V30 8262 H 754.42 -1.00392 1.66822 0
M  V30 8263 H 752.591 -3.52382 1.63345 0
M  V30 8264 H 754.323 -3.58768 1.87263 0
M  V30 8265 H 751.078 -2.87647 3.7624 0
M  V30 8266 H 751.502 -2.38322 6.33665 0
M  V30 8267 H 756.144 -2.46602 3.43435 0
M  V30 8268 H 753.862 -1.91095 7.85181 0
M  V30 8269 H 757.448 -1.96618 5.4757 0
M  V30 8270 H 756.328 -1.69402 7.65684 0
M  V30 8271 N 753.831 -1.1567 -1.07043 0
M  V30 8272 C 755.079 -0.931673 -1.79344 0
M  V30 8273 C 755.4 0.542421 -1.87304 0
M  V30 8274 O 754.67 1.39418 -1.37621 0
M  V30 8275 H 753.25 -0.34171 -0.664262 0
M  V30 8276 H 755.912 -1.45795 -1.29344 0
M  V30 8277 H 755.008 -1.34379 -2.81689 0
M  V30 8278 N 755.309 1.25446 -0.953992 0
M  V30 8279 C 756.239 2.28264 -0.491717 0
M  V30 8280 C 757.22 1.63717 0.461617 0
M  V30 8281 O 758.405 1.90821 0.36071 0
M  V30 8282 C 755.535 3.46525 0.231915 0
M  V30 8283 C 754.489 4.23247 -0.636098 0
M  V30 8284 C 753.815 5.34254 0.218238 0
M  V30 8285 C 755.115 4.85971 -1.91389 0
M  V30 8286 H 756.809 2.67183 -1.35106 0
M  V30 8287 H 754.355 1.2844 -0.651095 0
M  V30 8288 H 756.308 4.17576 0.566439 0
M  V30 8289 H 755.032 3.06594 1.12551 0
M  V30 8290 H 753.691 3.53978 -0.953696 0
M  V30 8291 H 753.339 4.90564 1.11156 0
M  V30 8292 H 753.039 5.86501 -0.359232 0
M  V30 8293 H 754.563 6.08138 0.547743 0
M  V30 8294 H 755.977 5.49168 -1.64581 0
M  V30 8295 H 754.374 5.48391 -2.43696 0
M  V30 8296 H 755.444 4.08192 -2.61738 0
M  V30 8297 N 756.787 0.722489 1.40064 0
M  V30 8298 C 758.033 0.265371 2.01056 0
M  V30 8299 C 758.366 -1.14062 1.57174 0
M  V30 8300 O 757.641 -1.77514 0.794916 0
M  V30 8301 C 757.924 0.353157 3.58364 0
M  V30 8302 C 757.777 1.79802 4.123 0
M  V30 8303 C 759.096 -0.271677 4.39261 0
M  V30 8304 H 756.215 0.0979002 0.730469 0
M  V30 8305 H 758.857 0.916289 1.66446 0
M  V30 8306 H 757.007 -0.201037 3.87979 0
M  V30 8307 H 758.679 2.40813 3.93455 0
M  V30 8308 H 756.922 2.32348 3.66329 0
M  V30 8309 H 757.593 1.81079 5.21454 0
M  V30 8310 H 760.069 0.200607 4.15616 0
M  V30 8311 H 758.945 -0.179843 5.48605 0
M  V30 8312 H 759.206 -1.35611 4.20787 0
M  V30 8313 N 758.265 -1.50454 0.469181 0
M  V30 8314 C 759.493 -2.06729 -0.0842134 0
M  V30 8315 C 759.908 -1.33326 -1.33677 0
M  V30 8316 O 759.265 -0.401977 -1.78018 0
M  V30 8317 C 759.316 -3.59557 -0.374253 0
M  V30 8318 O 759.037 -4.30192 0.828622 0
M  V30 8319 C 760.538 -4.32449 -0.974824 0
M  V30 8320 H 757.758 -0.670971 0.006231 0
M  V30 8321 H 760.302 -1.93645 0.657415 0
M  V30 8322 H 758.457 -3.7245 -1.06581 0
M  V30 8323 H 758.871 -5.21371 0.572066 0
M  V30 8324 H 760.345 -5.40361 -1.12755 0
M  V30 8325 H 760.822 -3.92819 -1.96442 0
M  V30 8326 H 761.428 -4.24082 -0.321703 0
M  V30 8327 N 759.743 -0.201713 -1.56304 0
M  V30 8328 C 761.154 0.309711 -1.84113 0
M  V30 8329 C 761.505 1.60912 -1.12258 0
M  V30 8330 O 760.63 2.12937 -0.385587 0
M  V30 8331 C 761.225 0.568706 -3.33993 0
M  V30 8332 C 759.784 1.02448 -3.6219 0
M  V30 8333 C 758.931 0.0766842 -2.77194 0
M  V30 8334 H 761.882 -0.425356 -1.52893 0
M  V30 8335 H 761.903 1.41721 -3.53122 0
M  V30 8336 H 761.415 -0.37719 -3.86263 0
M  V30 8337 H 759.516 1.98443 -3.15359 0
M  V30 8338 H 759.629 0.912619 -4.70328 0
M  V30 8339 H 757.993 0.579809 -2.48013 0
M  V30 8340 H 758.776 -0.863774 -3.32256 0
M  V30 8341 N 761.222 1.57436 0.0718424 0
M  V30 8342 C 762.638 1.53792 0.426628 0
M  V30 8343 C 762.838 0.921887 1.79174 0
M  V30 8344 O 761.894 0.524374 2.46995 0
M  V30 8345 C 763.207 2.98443 0.367739 0
M  V30 8346 C 764.755 3.09778 0.447928 0
M  V30 8347 C 765.23 4.5608 0.418946 0
M  V30 8348 N 766.721 4.60716 0.479022 0
M  V30 8349 C 767.456 5.71397 0.47881 0
M  V30 8350 N 766.952 6.91443 0.433417 0
M  V30 8351 N 768.745 5.59639 0.525364 0
M  V30 8352 H 760.896 1.95848 -0.822033 0
M  V30 8353 H 763.159 0.896418 -0.308447 0
M  V30 8354 H 762.865 3.47072 -0.56865 0
M  V30 8355 H 762.739 3.58335 1.17795 0
M  V30 8356 H 765.126 2.61122 1.37474 0
M  V30 8357 H 765.207 2.52796 -0.390857 0
M  V30 8358 H 764.851 5.05393 -0.504016 0
M  V30 8359 H 764.781 5.10925 1.27526 0
M  V30 8360 H 767.272 3.74328 0.518355 0
M  V30 8361 H 767.585 7.71562 0.43718 0
M  V30 8362 H 765.93 6.93847 0.400106 0
M  V30 8363 H 769.121 4.64756 0.558519 0
M  V30 8364 H 769.294 6.45896 0.52173 0
M  V30 8365 N 762.7 -0.34323 1.53817 0
M  V30 8366 C 763.925 -1.1079 1.75329 0
M  V30 8367 C 764.35 -1.81571 0.491293 0
M  V30 8368 O 763.708 -1.72561 -0.556089 0
M  V30 8369 C 763.756 -2.09681 2.9337 0
M  V30 8370 O 762.86 -3.17207 2.63541 0
M  V30 8371 H 762.201 -0.320402 0.581583 0
M  V30 8372 H 764.731 -0.393525 2.0078 0
M  V30 8373 H 764.741 -2.52897 3.20168 0
M  V30 8374 H 763.416 -1.5756 3.84899 0
M  V30 8375 H 761.993 -2.78806 2.47632 0
M  V30 8376 N 764.178 -1.45556 -0.604258 0
M  V30 8377 C 765.424 -1.50958 -1.3632 0
M  V30 8378 C 765.779 -0.15051 -1.9181 0
M  V30 8379 O 765.072 0.838035 -1.72301 0
M  V30 8380 C 765.266 -2.52697 -2.52743 0
M  V30 8381 C 765.095 -3.98364 -2.08654 0
M  V30 8382 C 763.865 -4.66295 -1.94671 0
M  V30 8383 C 766.063 -4.86801 -1.6592 0
M  V30 8384 N 764.045 -5.96669 -1.44428 0
M  V30 8385 C 765.416 -6.06829 -1.27115 0
M  V30 8386 C 767.471 -4.73634 -1.53542 0
M  V30 8387 C 766.174 -7.15149 -0.771676 0
M  V30 8388 C 768.2 -5.82005 -1.04998 0
M  V30 8389 C 767.562 -7.01191 -0.671599 0
M  V30 8390 H 763.661 -0.607329 -0.492621 0
M  V30 8391 H 766.245 -1.82048 -0.69041 0
M  V30 8392 H 764.416 -2.23554 -3.17614 0
M  V30 8393 H 766.148 -2.48227 -3.19633 0
M  V30 8394 H 762.903 -4.21496 -2.15959 0
M  V30 8395 H 763.327 -6.66003 -1.21528 0
M  V30 8396 H 767.969 -3.81898 -1.81421 0
M  V30 8397 H 765.687 -8.06671 -0.480442 0
M  V30 8398 H 769.273 -5.73851 -0.958423 0
M  V30 8399 H 768.153 -7.83619 -0.301752 0
M  V30 8400 N 765.656 0.84705 -1.32902 0
M  V30 8401 C 766.881 1.63925 -1.27056 0
M  V30 8402 C 767.306 1.87443 0.157136 0
M  V30 8403 O 766.664 1.43266 1.11106 0
M  V30 8404 C 766.712 2.97134 -2.04313 0
M  V30 8405 O 765.816 3.88049 -1.39614 0
M  V30 8406 H 765.157 0.499477 -0.437514 0
M  V30 8407 H 767.687 1.05443 -1.75336 0
M  V30 8408 H 767.697 3.46896 -2.14772 0
M  V30 8409 H 766.372 2.79339 -3.08128 0
M  V30 8410 H 764.949 3.46525 -1.3775 0
M  V30 8411 N 767.134 1.16236 1.06428 0
M  V30 8412 C 768.374 0.95369 1.80787 0
M  V30 8413 C 768.738 -0.509495 1.85117 0
M  V30 8414 O 769.939 -0.836822 2.55442 0
M  V30 8415 C 768.21 1.56235 3.21443 0
M  V30 8416 S 769.769 1.49812 4.12434 0
M  V30 8417 H 766.587 0.343004 0.622792 0
M  V30 8418 H 769.189 1.47957 1.27785 0
M  V30 8419 H 767.893 2.62 3.15886 0
M  V30 8420 H 767.424 1.03574 3.79521 0
M  V30 8421 H 769.439 0.49745 4.937 0
M  V30 8422 N 768.612 -1.24939 0.960631 0
M  V30 8423 C 769.562 -2.23388 0.456266 0
M  V30 8424 C 770.546 -1.54249 -0.45782 0
M  V30 8425 O 771.738 -1.7461 -0.289894 0
M  V30 8426 C 768.867 -3.42321 -0.259024 0
M  V30 8427 C 767.953 -4.18718 0.673478 0
M  V30 8428 N 768.344 -4.72394 1.8077 0
M  V30 8429 C 766.642 -4.43378 0.482859 0
M  V30 8430 C 767.343 -5.30316 2.3904 0
M  V30 8431 N 766.319 -5.17109 1.67629 0
M  V30 8432 H 770.121 -2.62499 1.32179 0
M  V30 8433 H 767.635 -1.40245 0.818851 0
M  V30 8434 H 769.632 -4.11997 -0.637527 0
M  V30 8435 H 768.292 -3.04732 -1.12108 0
M  V30 8436 H 769.303 -4.69345 2.18942 0
M  V30 8437 H 765.98 -4.16147 -0.335821 0
M  V30 8438 H 767.37 -5.82594 3.34715 0
M  V30 8439 N 770.09 -0.729906 -1.39679 0
M  V30 8440 C 771.318 -0.285709 -2.04918 0
M  V30 8441 C 771.733 1.07765 -1.55023 0
M  V30 8442 O 771.09 1.67999 -0.712923 0
M  V30 8443 C 771.141 -0.272793 -3.60469 0
M  V30 8444 O 770.862 -1.58233 -4.08527 0
M  V30 8445 C 772.363 0.188199 -4.429 0
M  V30 8446 H 769.583 -0.125758 -0.65911 0
M  V30 8447 H 772.127 -0.992129 -1.78821 0
M  V30 8448 H 770.282 0.384699 -3.85485 0
M  V30 8449 H 770.696 -1.49245 -5.02818 0
M  V30 8450 H 772.17 0.14608 -5.51807 0
M  V30 8451 H 772.647 1.2326 -4.21549 0
M  V30 8452 H 773.253 -0.439541 -4.23023 0
M  V30 8453 O 771.607 1.49168 -0.618974 0
M  V30 8454 H 772.298 1.93235 -0.134184 0
M  V30 END ATOM
M  V30 BEGIN BOND
M  V30 END BOND
M  V30 END CTAB
M  END
$$$$
