drugbank_target|O76082 Solute carrier family 22 member 5 (DB00583)
 OpenBabel12092119243D

  0  0  0     0  0            999 V3000
M  V30 BEGIN CTAB
M  V30 COUNTS 8916 9033 0 0 0
M  V30 BEGIN ATOM
M  V30 1 H -0.908 1.98254 -0.117106 0
M  V30 2 N 0 1.576 0 0
M  V30 3 C 0.933 2.03868 1.02534 0
M  V30 4 C 1.911 0.928543 1.3348 0
M  V30 5 O 3.095 1.19667 1.45644 0
M  V30 6 C 0.222 2.43627 2.35294 0
M  V30 7 C -0.732 3.65373 2.2001 0
M  V30 8 S 0.101 5.13292 1.52614 0
M  V30 9 C 1.257 5.56322 2.86805 0
M  V30 10 H 1.49 2.90518 0.631377 0
M  V30 11 H -0.977 1.52953 0.210867 0
M  V30 12 H 0.981 2.67203 3.11629 0
M  V30 13 H -0.358 1.57376 2.7183 0
M  V30 14 H -1.165 3.90944 3.18086 0
M  V30 15 H -1.563 3.418 1.51819 0
M  V30 16 H 0.729 5.58782 3.83104 0
M  V30 17 H 1.672 6.56266 2.65933 0
M  V30 18 H 2.08 4.83886 2.90714 0
M  V30 19 N 1.4781 -0.272755 1.55222 0
M  V30 20 C 2.8941 -0.619959 1.47067 0
M  V30 21 C 3.0941 -1.895 0.684978 0
M  V30 22 O 2.1501 -2.51675 0.203931 0
M  V30 23 C 3.4631 -0.746693 2.91282 0
M  V30 24 C 5.0111 -0.840731 3.01497 0
M  V30 25 C 5.4861 -0.99924 4.46967 0
M  V30 26 N 6.9771 -1.06476 4.50796 0
M  V30 27 C 7.7121 -1.20621 5.6057 0
M  V30 28 N 7.2081 -1.31483 6.80209 0
M  V30 29 N 9.0011 -1.23733 5.48312 0
M  V30 30 H 1.1521 0.564606 2.04758 0
M  V30 31 H 3.4151 0.191177 0.928523 0
M  V30 32 H 3.1211 0.119753 3.51496 0
M  V30 33 H 2.9951 -1.6269 3.40311 0
M  V30 34 H 5.3821 -1.69764 2.41379 0
M  V30 35 H 5.4631 0.0640874 2.5572 0
M  V30 36 H 5.1071 -0.146984 5.07687 0
M  V30 37 H 5.0371 -1.91871 4.90401 0
M  V30 38 H 7.5281 -0.993196 3.64615 0
M  V30 39 H 7.8411 -1.42111 7.59621 0
M  V30 40 H 6.1861 -1.28487 6.8302 0
M  V30 41 H 9.3771 -1.14877 4.53785 0
M  V30 42 H 9.5501 -1.34412 6.33906 0
M  V30 43 N 2.9562 -1.48159 -0.537278 0
M  V30 44 C 4.2332 -1.46291 -1.29839 0
M  V30 45 C 4.6132 -0.170613 -2.10409 0
M  V30 46 O 3.9612 0.847746 -2.12192 0
M  V30 47 C 4.1712 -2.72055 -2.18603 0
M  V30 48 C 5.5192 -3.20087 -2.7898 0
M  V30 49 O 6.5432 -2.72921 -2.28894 0
M  V30 50 O 5.4022 -4.02138 -3.70064 0
M  V30 51 H 2.4962 -0.583906 -0.585647 0
M  V30 52 H 5.0422 -1.60384 -0.554534 0
M  V30 53 H 3.8142 -3.57628 -1.58801 0
M  V30 54 H 3.4372 -2.60646 -3.00249 0
M  V30 55 N 4.4343 0.785586 -1.36625 0
M  V30 56 C 5.6643 1.5722 -1.34036 0
M  V30 57 C 6.0723 1.89033 0.0795062 0
M  V30 58 O 5.4153 1.50881 1.04789 0
M  V30 59 C 5.4773 2.91759 -2.10041 0
M  V30 60 C 5.1413 2.82654 -3.59104 0
M  V30 61 C 6.1383 2.54634 -4.53274 0
M  V30 62 C 3.8233 3.01111 -4.02042 0
M  V30 63 C 5.8173 2.45177 -5.88359 0
M  V30 64 C 3.5043 2.91276 -5.37216 0
M  V30 65 C 4.5023 2.63348 -6.30188 0
M  V30 66 O 4.1903 2.53514 -7.6288 0
M  V30 67 H 3.9223 0.494177 -0.461265 0
M  V30 68 H 6.4763 0.982632 -1.8037 0
M  V30 69 H 4.7063 3.52781 -1.58375 0
M  V30 70 H 6.3953 3.53059 -2.00261 0
M  V30 71 H 7.1613 2.40073 -4.21414 0
M  V30 72 H 3.0403 3.21854 -3.30047 0
M  V30 73 H 6.5843 2.23299 -6.60896 0
M  V30 74 H 2.4813 3.054 -5.68684 0
M  V30 75 H 3.2493 2.68967 -7.73045 0
M  V30 76 N 5.9124 1.20967 1.01018 0
M  V30 77 C 7.1894 0.93264 1.71934 0
M  V30 78 C 7.5694 -0.55692 2.03621 0
M  V30 79 O 6.9174 -1.52035 1.7058 0
M  V30 80 C 7.1274 1.81233 2.98254 0
M  V30 81 C 8.4754 2.05804 3.71389 0
M  V30 82 O 9.4994 1.78539 3.08225 0
M  V30 83 O 8.3584 2.51888 4.84989 0
M  V30 84 H 5.4524 0.349272 0.749625 0
M  V30 85 H 7.9984 1.31871 1.06808 0
M  V30 86 H 6.7704 2.82067 2.71208 0
M  V30 87 H 6.3934 1.42674 3.7112 0
M  V30 88 N 7.3905 -1.2043 1.01659 0
M  V30 89 C 8.3005 -2.2689 0.596484 0
M  V30 90 C 9.3165 -1.70107 -0.36599 0
M  V30 91 O 10.4925 -2.00117 -0.226942 0
M  V30 92 C 7.5575 -3.4665 -0.0586659 0
M  V30 93 C 6.6185 -4.18662 0.949751 0
M  V30 94 C 5.8515 -5.32705 0.32577 0
M  V30 95 O 6.0745 -5.63656 -0.874509 0
M  V30 96 O 5.0085 -5.92803 1.04249 0
M  V30 97 H 8.8345 -2.65041 1.4828 0
M  V30 98 H 6.4195 -1.27048 0.786082 0
M  V30 99 H 8.3015 -4.19256 -0.424564 0
M  V30 100 H 6.9765 -3.10375 -0.91918 0
M  V30 101 H 5.8835 -3.48229 1.36702 0
M  V30 102 H 7.2165 -4.58878 1.78023 0
M  V30 103 N 8.8686 -0.792821 -1.36206 0
M  V30 104 C 10.1146 -0.36733 -1.99446 0
M  V30 105 C 10.4476 1.05917 -1.62774 0
M  V30 106 O 9.7226 1.7324 -0.88421 0
M  V30 107 C 10.0056 -0.535044 -3.56103 0
M  V30 108 C 9.8586 -2.00548 -4.02617 0
M  V30 109 C 11.1776 0.0478191 -4.40074 0
M  V30 110 H 8.2966 -0.134941 -0.724541 0
M  V30 111 H 10.9386 -0.999794 -1.61568 0
M  V30 112 H 9.0886 0.00336329 -3.885 0
M  V30 113 H 10.7606 -2.60521 -3.80692 0
M  V30 114 H 9.0036 -2.50686 -3.54032 0
M  V30 115 H 9.6746 -2.07377 -5.11565 0
M  V30 116 H 12.1506 -0.411822 -4.14057 0
M  V30 117 H 11.0266 -0.0995336 -5.4881 0
M  V30 118 H 11.2876 1.14025 -4.27142 0
M  V30 119 N 10.3467 1.47872 -0.545128 0
M  V30 120 C 11.5747 2.06889 -0.021084 0
M  V30 121 C 11.9897 1.39955 1.2672 0
M  V30 122 O 11.3467 0.492036 1.75742 0
M  V30 123 C 11.3977 3.60996 0.190817 0
M  V30 124 O 11.1187 4.25419 -1.04644 0
M  V30 125 C 12.6197 4.36849 0.753521 0
M  V30 126 H 9.8397 0.669785 -0.0403635 0
M  V30 127 H 12.3837 1.90049 -0.755095 0
M  V30 128 H 10.5387 3.77391 0.87492 0
M  V30 129 H 10.9527 5.17785 -0.836611 0
M  V30 130 H 12.4267 5.45399 0.851139 0
M  V30 131 H 12.9037 4.02306 1.762 0
M  V30 132 H 13.5097 4.25169 0.105503 0
M  V30 133 N 11.8248 0.280983 1.55075 0
M  V30 134 C 12.7878 -0.590896 2.21452 0
M  V30 135 C 13.7878 -1.07682 1.19421 0
M  V30 136 O 14.9778 -0.97605 1.44288 0
M  V30 137 C 12.1098 -1.81587 2.88511 0
M  V30 138 H 13.3028 -0.0112554 2.99898 0
M  V30 139 H 10.8558 0.0316438 1.56268 0
M  V30 140 H 11.5908 -2.43587 2.14093 0
M  V30 141 H 11.3758 -1.4753 3.63287 0
M  V30 142 H 12.8658 -2.43575 3.39206 0
M  V30 143 N 13.3029 -1.57598 0.00835791 0
M  V30 144 C 14.5499 -1.90928 -0.674732 0
M  V30 145 C 14.8779 -0.88277 -1.73313 0
M  V30 146 O 14.1329 0.111294 -1.95383 0
M  V30 147 C 14.4319 -3.3101 -1.34787 0
M  V30 148 C 14.0979 -4.48922 -0.421861 0
M  V30 149 C 12.7599 -4.8091 -0.166927 0
M  V30 150 C 15.1119 -5.20755 0.215211 0
M  V30 151 C 12.4399 -5.821 0.733232 0
M  V30 152 C 14.7919 -6.22905 1.1033 0
M  V30 153 C 13.4559 -6.53346 1.36733 0
M  V30 154 H 12.7259 -0.698656 -0.246902 0
M  V30 155 H 15.3729 -1.91387 0.0656779 0
M  V30 156 H 13.6779 -3.26714 -2.16253 0
M  V30 157 H 15.3749 -3.54061 -1.8826 0
M  V30 158 H 11.9649 -4.23934 -0.630729 0
M  V30 159 H 16.1489 -4.9629 0.0312829 0
M  V30 160 H 11.4049 -6.04042 0.945712 0
M  V30 161 H 15.5789 -6.77694 1.60325 0
M  V30 162 H 13.2059 -7.31573 2.06652 0
M  V30 163 N 14.781 0.264519 -1.55364 0
M  V30 164 C 15.711 1.33121 -1.91836 0
M  V30 165 C 16.692 1.51101 -0.781192 0
M  V30 166 O 17.877 1.64003 -1.04003 0
M  V30 167 C 15.007 2.68921 -2.19769 0
M  V30 168 C 13.961 2.65661 -3.35571 0
M  V30 169 C 13.287 4.05093 -3.49004 0
M  V30 170 C 14.587 2.24187 -4.71739 0
M  V30 171 H 16.281 1.02844 -2.81182 0
M  V30 172 H 13.827 0.493286 -1.35287 0
M  V30 173 H 15.78 3.43663 -2.43872 0
M  V30 174 H 14.504 3.00799 -1.27231 0
M  V30 175 H 13.163 1.93377 -3.1145 0
M  V30 176 H 12.811 4.34206 -2.53917 0
M  V30 177 H 12.511 4.03804 -4.26868 0
M  V30 178 H 14.035 4.81561 -3.75408 0
M  V30 179 H 15.449 2.88654 -4.9533 0
M  V30 180 H 13.846 2.34044 -5.52579 0
M  V30 181 H 14.916 1.19327 -4.69988 0
M  V30 182 N 16.2591 1.48442 0.529413 0
M  V30 183 C 17.5071 1.56179 1.28267 0
M  V30 184 C 17.8281 0.237721 1.93546 0
M  V30 185 O 17.0981 -0.740779 1.81354 0
M  V30 186 H 15.6781 0.575367 0.476405 0
M  V30 187 H 18.3401 1.84909 0.61602 0
M  V30 188 H 17.4361 2.34312 2.06165 0
M  V30 189 N 17.7372 -0.778329 1.37039 0
M  V30 190 C 18.6472 -1.92253 1.34446 0
M  V30 191 C 19.6632 -1.72267 0.244991 0
M  V30 192 O 20.8392 -1.95615 0.479258 0
M  V30 193 C 17.9042 -3.27282 1.144 0
M  V30 194 C 16.9652 -3.59969 2.33925 0
M  V30 195 C 16.1982 -4.88555 2.14825 0
M  V30 196 O 16.4212 -5.59113 1.12912 0
M  V30 197 O 15.3552 -5.20153 3.02861 0
M  V30 198 H 19.1812 -1.97392 2.30803 0
M  V30 199 H 16.7662 -0.920154 1.17701 0
M  V30 200 H 18.6482 -4.08062 1.05182 0
M  V30 201 H 17.3232 -3.23011 0.211124 0
M  V30 202 H 16.2302 -2.7945 2.48714 0
M  V30 203 H 17.5632 -3.68976 3.25757 0
M  V30 204 N 19.2153 -1.21501 -1.00376 0
M  V30 205 C 20.4613 -1.04457 -1.74529 0
M  V30 206 C 20.8163 0.417386 -1.87818 0
M  V30 207 O 20.1093 1.30556 -1.40234 0
M  V30 208 C 20.3033 -1.67673 -3.15627 0
M  V30 209 C 20.1323 -3.19865 -3.16096 0
M  V30 210 C 18.9023 -3.88915 -3.22604 0
M  V30 211 C 21.1003 -4.16936 -3.01112 0
M  V30 212 N 19.0823 -5.28284 -3.12712 0
M  V30 213 C 20.4533 -5.43066 -2.99131 0
M  V30 214 C 22.5083 -4.07968 -2.85423 0
M  V30 215 C 21.2113 -6.6126 -2.83068 0
M  V30 216 C 23.2373 -5.258 -2.70718 0
M  V30 217 C 22.5993 -6.50842 -2.69414 0
M  V30 218 H 18.6983 -0.436584 -0.648782 0
M  V30 219 H 21.2823 -1.53875 -1.19293 0
M  V30 220 H 19.4533 -1.20822 -3.6913 0
M  V30 221 H 21.1853 -1.43824 -3.78281 0
M  V30 222 H 17.9403 -3.39847 -3.2985 0
M  V30 223 H 18.3643 -6.01284 -3.11105 0
M  V30 224 H 23.0063 -3.1209 -2.85236 0
M  V30 225 H 20.7243 -7.57298 -2.82002 0
M  V30 226 H 24.3103 -5.20683 -2.59577 0
M  V30 227 H 23.1903 -7.40485 -2.5817 0
M  V30 228 N 20.6934 1.19889 -1.02296 0
M  V30 229 C 21.9414 1.89046 -0.714558 0
M  V30 230 C 22.2624 1.79636 0.758681 0
M  V30 231 O 21.5324 1.20292 1.54618 0
M  V30 232 H 20.1124 0.699802 -0.261317 0
M  V30 233 H 22.7744 1.45574 -1.29592 0
M  V30 234 H 21.8704 2.95524 -1.0036 0
M  V30 235 N 22.1715 0.800033 1.35784 0
M  V30 236 C 23.5825 0.439142 1.81462 0
M  V30 237 C 23.9335 -1.03813 1.66485 0
M  V30 238 O 23.0585 -1.80626 1.19177 0
M  V30 239 C 23.6535 0.790314 3.29453 0
M  V30 240 C 22.2125 0.482111 3.733 0
M  V30 241 C 21.3595 1.01938 2.57883 0
M  V30 242 H 24.3105 0.992254 1.23855 0
M  V30 243 H 24.3315 0.0853677 3.80404 0
M  V30 244 H 23.8435 1.86554 3.40322 0
M  V30 245 H 21.9445 -0.584652 3.67984 0
M  V30 246 H 22.0575 1.01015 4.6833 0
M  V30 247 H 20.4215 0.442043 2.50835 0
M  V30 248 H 21.2045 2.10059 2.71533 0
M  V30 249 N 23.6496 -1.47581 0.552962 0
M  V30 250 C 24.8966 -2.02482 0.0273243 0
M  V30 251 C 25.2246 -1.42776 -1.32081 0
M  V30 252 O 24.4796 -0.571393 -1.87173 0
M  V30 253 C 24.7786 -3.57199 -0.119728 0
M  V30 254 C 24.4446 -4.35804 1.15697 0
M  V30 255 C 23.1066 -4.57 1.50681 0
M  V30 256 C 25.4586 -4.81167 2.00319 0
M  V30 257 C 22.7866 -5.20807 2.70142 0
M  V30 258 C 25.1386 -5.46293 3.18978 0
M  V30 259 C 23.8026 -5.65722 3.54281 0
M  V30 260 H 23.0726 -0.740933 0.00999866 0
M  V30 261 H 25.7196 -1.77302 0.72362 0
M  V30 262 H 24.0246 -3.81348 -0.89896 0
M  V30 263 H 25.7216 -3.97324 -0.541718 0
M  V30 264 H 22.3116 -4.19582 0.874561 0
M  V30 265 H 26.4956 -4.64574 1.74599 0
M  V30 266 H 21.7516 -5.34045 2.97668 0
M  V30 267 H 25.9256 -5.80407 3.84838 0
M  V30 268 H 23.5526 -6.14936 4.46942 0
M  V30 269 N 25.1277 -0.289203 -1.54924 0
M  V30 270 C 26.0597 0.625583 -2.20497 0
M  V30 271 C 27.0727 1.10667 -1.19402 0
M  V30 272 O 28.2617 1.02615 -1.46056 0
M  V30 273 C 25.3617 1.86702 -2.82835 0
M  V30 274 C 24.5347 1.5304 -4.09753 0
M  V30 275 C 23.5937 2.62576 -4.56005 0
M  V30 276 O 22.6197 2.28167 -5.21468 0
M  V30 277 N 23.8217 3.92901 -4.27328 0
M  V30 278 H 26.5867 0.0642801 -2.99631 0
M  V30 279 H 24.1477 -0.110896 -1.6152 0
M  V30 280 H 26.1397 2.59304 -3.10715 0
M  V30 281 H 24.7097 2.33702 -2.07611 0
M  V30 282 H 23.9297 0.637564 -3.8901 0
M  V30 283 H 25.2177 1.28072 -4.92418 0
M  V30 284 H 24.6157 4.23671 -3.74859 0
M  V30 285 H 23.1727 4.61837 -4.59946 0
M  V30 286 N 26.6058 1.57591 -0.0167156 0
M  V30 287 C 28.0218 1.55946 0.339557 0
M  V30 288 C 28.2218 1.02109 1.73713 0
M  V30 289 O 27.2778 0.662303 2.43659 0
M  V30 290 C 28.5908 3.00037 0.199499 0
M  V30 291 C 30.1388 3.11805 0.273193 0
M  V30 292 C 30.6138 4.57713 0.162068 0
M  V30 293 N 32.1048 4.6268 0.219444 0
M  V30 294 C 32.8398 5.73185 0.157054 0
M  V30 295 N 32.3358 6.92786 0.0442936 0
M  V30 296 N 34.1288 5.61707 0.21014 0
M  V30 297 H 26.2798 1.90921 -0.930758 0
M  V30 298 H 28.5428 0.877674 -0.358319 0
M  V30 299 H 28.2488 3.4333 -0.76273 0
M  V30 300 H 28.1228 3.64387 0.974786 0
M  V30 301 H 30.5098 2.68433 1.22587 0
M  V30 302 H 30.5908 2.50201 -0.532256 0
M  V30 303 H 30.2348 5.01763 -0.78714 0
M  V30 304 H 30.1648 5.17283 0.986222 0
M  V30 305 H 32.6558 3.76649 0.307246 0
M  V30 306 H 32.9688 7.728 0.00304069 0
M  V30 307 H 31.3138 6.94999 0.00968457 0
M  V30 308 H 34.5048 4.6716 0.296546 0
M  V30 309 H 34.6778 6.47807 0.158054 0
M  V30 310 N 28.0839 -0.256276 1.55502 0
M  V30 311 C 29.0139 -1.32102 1.92539 0
M  V30 312 C 29.9949 -1.50684 0.789194 0
M  V30 313 O 31.1799 -1.63449 1.04872 0
M  V30 314 C 28.3099 -2.67752 2.21192 0
M  V30 315 C 27.2639 -2.63878 3.36975 0
M  V30 316 C 26.5899 -4.03236 3.51147 0
M  V30 317 C 27.8899 -2.21682 4.72921 0
M  V30 318 H 29.5839 -1.01351 2.81724 0
M  V30 319 H 27.1299 -0.486105 1.35547 0
M  V30 320 H 29.0829 -3.42365 2.45691 0
M  V30 321 H 27.8069 -3.0012 1.28824 0
M  V30 322 H 26.4659 -1.91722 3.12471 0
M  V30 323 H 26.1139 -4.32854 2.56216 0
M  V30 324 H 25.8139 -4.01535 4.29003 0
M  V30 325 H 27.3379 -4.79563 3.77957 0
M  V30 326 H 28.7519 -2.86023 4.96854 0
M  V30 327 H 27.1489 -2.3111 5.53812 0
M  V30 328 H 28.2189 -1.16833 4.70615 0
M  V30 329 N 29.562 -1.4872 -0.521534 0
M  V30 330 C 30.811 -1.56419 -1.27341 0
M  V30 331 C 31.124 -0.246805 -1.94037 0
M  V30 332 O 32.33 -0.202122 -2.70747 0
M  V30 333 C 30.786 -2.75896 -2.31105 0
M  V30 334 C 30.394 -4.14311 -1.70441 0
M  V30 335 C 32.138 -2.92913 -3.07249 0
M  V30 336 C 30.045 -5.25038 -2.72194 0
M  V30 337 H 28.975 -0.582344 -0.478949 0
M  V30 338 H 31.626 -1.75071 -0.549779 0
M  V30 339 H 30.008 -2.50697 -3.06541 0
M  V30 340 H 31.182 -4.49564 -1.01136 0
M  V30 341 H 29.497 -4.02482 -1.06759 0
M  V30 342 H 32.094 -3.72805 -3.83302 0
M  V30 343 H 32.437 -2.02689 -3.63625 0
M  V30 344 H 32.97 -3.18054 -2.38928 0
M  V30 345 H 29.709 -6.17255 -2.20627 0
M  V30 346 H 29.229 -4.94263 -3.39801 0
M  V30 347 H 30.908 -5.53508 -3.35019 0
M  V30 348 N 31.0401 0.771051 -1.3745 0
M  V30 349 C 32.2871 1.52963 -1.32697 0
M  V30 350 C 32.6151 1.94299 0.0883274 0
M  V30 351 O 31.8701 1.64397 1.0617 0
M  V30 352 C 32.1691 2.80676 -2.2126 0
M  V30 353 C 31.8351 2.58389 -3.69521 0
M  V30 354 C 30.4971 2.52019 -4.09927 0
M  V30 355 C 32.8491 2.38469 -4.63446 0
M  V30 356 C 30.1771 2.23721 -5.42371 0
M  V30 357 C 32.5291 2.11694 -5.96128 0
M  V30 358 C 31.1931 2.03769 -6.35637 0
M  V30 359 H 30.4631 0.559732 -0.485573 0
M  V30 360 H 33.1101 0.888083 -1.69662 0
M  V30 361 H 31.4151 3.49392 -1.77291 0
M  V30 362 H 33.1121 3.38557 -2.14895 0
M  V30 363 H 29.7021 2.6421 -3.37478 0
M  V30 364 H 33.8861 2.4238 -4.33089 0
M  V30 365 H 29.1421 2.16081 -5.71943 0
M  V30 366 H 33.3161 1.9528 -6.6846 0
M  V30 367 H 30.9431 1.81606 -7.38189 0
M  V30 368 N 32.5182 1.22032 0.997298 0
M  V30 369 C 33.7652 1.04222 1.73621 0
M  V30 370 C 34.0932 -0.423264 1.89839 0
M  V30 371 O 33.3482 -1.3302 1.43542 0
M  V30 372 C 33.6472 1.69345 3.14733 0
M  V30 373 C 33.3132 3.19226 3.18442 0
M  V30 374 C 31.9752 3.60124 3.19161 0
M  V30 375 C 34.3272 4.15181 3.15078 0
M  V30 376 C 31.6552 4.95467 3.14212 0
M  V30 377 C 34.0072 5.50495 3.1167 0
M  V30 378 C 32.6712 5.90779 3.10703 0
M  V30 379 H 31.9412 0.381374 0.635323 0
M  V30 380 H 34.5882 1.51732 1.16831 0
M  V30 381 H 32.8932 1.14147 3.74803 0
M  V30 382 H 34.5902 1.53059 3.7064 0
M  V30 383 H 31.1802 2.86659 3.18629 0
M  V30 384 H 35.3642 3.84605 3.13676 0
M  V30 385 H 30.6202 5.25916 3.11805 0
M  V30 386 H 34.7942 6.24576 3.08022 0
M  V30 387 H 32.4212 6.9562 3.06622 0
M  V30 388 N 33.9963 -1.19345 1.0293 0
M  V30 389 C 34.9263 -2.2481 0.631105 0
M  V30 390 C 35.9073 -1.66245 -0.360104 0
M  V30 391 O 37.0923 -1.92677 -0.242726 0
M  V30 392 C 34.2223 -3.47295 -0.0184607 0
M  V30 393 C 33.1763 -4.18536 0.895073 0
M  V30 394 C 32.5023 -5.34586 0.110592 0
M  V30 395 C 33.8023 -4.73287 2.209 0
M  V30 396 H 35.4963 -2.58372 1.51275 0
M  V30 397 H 33.0423 -1.24194 0.728818 0
M  V30 398 H 34.9953 -4.20268 -0.308675 0
M  V30 399 H 33.7193 -3.12933 -0.934907 0
M  V30 400 H 32.3783 -3.47446 1.16949 0
M  V30 401 H 32.0263 -4.96469 -0.807902 0
M  V30 402 H 31.7263 -5.83183 0.719087 0
M  V30 403 H 33.2503 -6.10355 -0.172871 0
M  V30 404 H 34.6643 -5.38013 1.98028 0
M  V30 405 H 33.0613 -5.32373 2.76946 0
M  V30 406 H 34.1313 -3.91331 2.86336 0
M  V30 407 N 35.4744 -0.807222 -1.35358 0
M  V30 408 C 36.4044 -0.232509 -2.3234 0
M  V30 409 C 37.3854 0.642386 -1.57504 0
M  V30 410 O 38.5704 0.572526 -1.85569 0
M  V30 411 C 35.7004 0.619238 -3.41735 0
M  V30 412 C 34.6544 -0.157215 -4.27711 0
M  V30 413 C 33.9804 0.816273 -5.28433 0
M  V30 414 C 35.2804 -1.35656 -5.04376 0
M  V30 415 H 36.9744 -1.04276 -2.80654 0
M  V30 416 H 34.5204 -0.50288 -1.34934 0
M  V30 417 H 36.4734 1.03137 -4.08584 0
M  V30 418 H 35.1974 1.46239 -2.92031 0
M  V30 419 H 33.8564 -0.550525 -3.62443 0
M  V30 420 H 33.5044 1.65494 -4.74996 0
M  V30 421 H 33.2044 0.301067 -5.86828 0
M  V30 422 H 34.7284 1.22659 -5.98153 0
M  V30 423 H 36.1424 -1.01927 -5.64166 0
M  V30 424 H 34.5394 -1.8063 -5.7227 0
M  V30 425 H 35.6094 -2.14288 -4.34981 0
M  V30 426 N 36.9525 1.47285 -0.560781 0
M  V30 427 C 38.1775 2.07359 -0.0410566 0
M  V30 428 C 38.6025 1.41017 1.24483 0
M  V30 429 O 37.9605 0.486368 1.74654 0
M  V30 430 C 38.0085 3.6035 0.134123 0
M  V30 431 O 37.1125 3.94681 1.19587 0
M  V30 432 H 36.4535 0.661887 -0.0529291 0
M  V30 433 H 38.9835 1.89252 -0.777482 0
M  V30 434 H 38.9935 4.0652 0.347207 0
M  V30 435 H 37.6685 4.08034 -0.805047 0
M  V30 436 H 36.2455 3.60251 0.962987 0
M  V30 437 N 38.4306 0.297415 1.54768 0
M  V30 438 C 39.3936 -0.567375 2.22066 0
M  V30 439 C 40.3936 -1.06409 1.20556 0
M  V30 440 O 41.5836 -0.960691 1.45315 0
M  V30 441 C 38.7156 -1.78517 2.90421 0
M  V30 442 H 39.9086 0.0205534 2.99893 0
M  V30 443 H 37.4616 0.0482163 1.56226 0
M  V30 444 H 38.1966 -2.41303 2.16664 0
M  V30 445 H 37.9816 -1.43669 3.64831 0
M  V30 446 H 39.4716 -2.39964 3.41771 0
M  V30 447 N 39.9087 -1.5758 0.0250728 0
M  V30 448 C 41.1337 -1.96337 -0.668317 0
M  V30 449 C 41.5587 -0.901314 -1.651 0
M  V30 450 O 40.9167 0.138187 -1.80773 0
M  V30 451 C 40.9647 -3.34191 -1.35457 0
M  V30 452 O 40.0687 -3.30269 -2.46974 0
M  V30 453 H 39.4097 -0.640281 -0.175887 0
M  V30 454 H 41.9397 -2.0442 0.0857224 0
M  V30 455 H 41.9497 -3.70331 -1.71228 0
M  V30 456 H 40.6247 -4.11036 -0.634218 0
M  V30 457 H 39.2017 -3.05841 -2.13344 0
M  V30 458 N 41.3868 0.248026 -1.55636 0
M  V30 459 C 42.6358 0.974134 -1.76617 0
M  V30 460 C 42.9488 1.86528 -0.588796 0
M  V30 461 O 44.1548 2.62805 -0.681594 0
M  V30 462 C 42.6108 1.78213 -3.12679 0
M  V30 463 C 42.2188 0.93843 -4.38061 0
M  V30 464 C 43.9628 2.50104 -3.42999 0
M  V30 465 C 41.8698 1.74225 -5.65155 0
M  V30 466 H 40.7998 0.36745 -0.658405 0
M  V30 467 H 43.4508 0.22884 -1.82067 0
M  V30 468 H 41.8328 2.56933 -3.01333 0
M  V30 469 H 43.0068 0.193635 -4.60393 0
M  V30 470 H 41.3218 0.332905 -4.15067 0
M  V30 471 H 43.9188 3.10694 -4.3517 0
M  V30 472 H 44.2618 3.21662 -2.64271 0
M  V30 473 H 44.7948 1.78395 -3.55556 0
M  V30 474 H 41.5338 1.07043 -6.46701 0
M  V30 475 H 41.0538 2.46235 -5.46926 0
M  V30 476 H 42.7328 2.30967 -6.0437 0
M  V30 477 N 42.8649 1.48995 0.513639 0
M  V30 478 C 44.1139 1.57093 1.2651 0
M  V30 479 C 44.4269 0.257091 1.93903 0
M  V30 480 O 45.6329 0.216478 2.70636 0
M  V30 481 C 44.0889 2.77118 2.29638 0
M  V30 482 C 43.6969 4.15209 1.68241 0
M  V30 483 C 45.4409 2.94538 3.05692 0
M  V30 484 C 43.3479 5.26474 2.69406 0
M  V30 485 H 42.2779 0.584876 0.475854 0
M  V30 486 H 44.9289 1.7536 0.540487 0
M  V30 487 H 43.3109 2.52319 3.05207 0
M  V30 488 H 44.4849 4.50094 0.987505 0
M  V30 489 H 42.7999 4.03042 1.04623 0
M  V30 490 H 45.3969 3.74832 3.8132 0
M  V30 491 H 45.7399 2.04614 3.62545 0
M  V30 492 H 46.2729 3.19316 2.37238 0
M  V30 493 H 43.0119 6.18417 2.17351 0
M  V30 494 H 42.5319 4.96058 3.37175 0
M  V30 495 H 44.2109 5.55277 3.32078 0
M  V30 496 N 44.343 -0.763751 1.37857 0
M  V30 497 C 45.754 -1.3405 1.29952 0
M  V30 498 C 46.105 -1.96138 -0.0492898 0
M  V30 499 O 45.23 -1.94372 -0.951239 0
M  V30 500 C 45.825 -2.43729 2.35333 0
M  V30 501 C 44.384 -2.97151 2.31037 0
M  V30 502 C 43.531 -1.70438 2.18738 0
M  V30 503 H 46.482 -0.563396 1.48363 0
M  V30 504 H 46.503 -3.23412 2.00462 0
M  V30 505 H 46.015 -1.9851 3.33489 0
M  V30 506 H 44.116 -3.46724 1.3643 0
M  V30 507 H 44.229 -3.52221 3.24772 0
M  V30 508 H 42.593 -1.93673 1.65418 0
M  V30 509 H 43.376 -1.27312 3.18821 0
M  V30 510 N 45.8211 -1.22559 -0.990812 0
M  V30 511 C 46.7691 -0.994798 -2.10253 0
M  V30 512 C 47.7631 0.0627798 -1.69284 0
M  V30 513 O 48.9691 -0.0898392 -1.79776 0
M  V30 514 H 45.3441 -0.304527 -0.687581 0
M  V30 515 H 47.3151 -1.93812 -2.26891 0
M  V30 516 C 46.0641 -0.591439 -3.42633 0
M  V30 517 H 45.3871 -1.3969 -3.74602 0
M  V30 518 H 46.8271 -0.469385 -4.21394 0
M  V30 519 C 45.2861 0.699232 -3.29564 0
M  V30 520 O 45.8161 1.75112 -3.61523 0
M  V30 521 N 44.0221 0.671182 -2.82743 0
M  V30 522 H 43.5691 -0.185136 -2.56934 0
M  V30 523 H 43.5271 1.53502 -2.7438 0
M  V30 524 N 47.2992 1.18797 -1.03562 0
M  V30 525 C 48.5472 1.88278 -0.734569 0
M  V30 526 C 48.8682 1.8043 0.739586 0
M  V30 527 O 48.1382 1.21925 1.53333 0
M  V30 528 H 46.7182 0.696991 -0.268725 0
M  V30 529 H 49.3802 1.44192 -1.31129 0
M  V30 530 H 48.4762 2.94443 -1.03489 0
M  V30 531 N 48.7773 0.814389 1.34928 0
M  V30 532 C 50.0243 0.398423 1.98542 0
M  V30 533 C 50.3523 -1.03638 1.64589 0
M  V30 534 O 49.6073 -1.73509 0.90516 0
M  V30 535 C 49.9063 0.537781 3.53331 0
M  V30 536 C 49.5723 1.93704 4.07172 0
M  V30 537 C 48.2343 2.31984 4.21589 0
M  V30 538 C 50.5863 2.85213 4.36237 0
M  V30 539 C 47.9143 3.61125 4.62391 0
M  V30 540 C 50.2663 4.13809 4.78482 0
M  V30 541 C 48.9303 4.52077 4.91104 0
M  V30 542 H 48.2003 0.145793 0.726516 0
M  V30 543 H 50.8473 1.03669 1.61012 0
M  V30 544 H 49.1523 -0.183906 3.91368 0
M  V30 545 H 50.8493 0.196588 4.00518 0
M  V30 546 H 47.4393 1.62966 3.96409 0
M  V30 547 H 51.6233 2.56885 4.24645 0
M  V30 548 H 46.8793 3.90612 4.70353 0
M  V30 549 H 51.0533 4.84811 4.99932 0
M  V30 550 H 48.6803 5.52196 5.22478 0
M  V30 551 N 50.2554 -1.46986 0.568584 0
M  V30 552 C 51.4834 -2.0683 0.0539956 0
M  V30 553 C 51.8984 -1.41953 -1.24478 0
M  V30 554 O 51.2554 -0.519933 -1.74937 0
M  V30 555 C 51.3064 -3.61254 -0.133362 0
M  V30 556 O 51.0274 -4.237 1.11399 0
M  V30 557 C 52.5284 -4.37992 -0.683927 0
M  V30 558 H 49.7484 -0.669058 0.0510141 0
M  V30 559 H 52.2924 -1.88824 0.785234 0
M  V30 560 H 50.4474 -3.78735 -0.81477 0
M  V30 561 H 50.8614 -5.16388 0.91888 0
M  V30 562 H 52.3354 -5.46684 -0.764263 0
M  V30 563 H 52.8124 -4.05058 -1.69778 0
M  V30 564 H 53.4184 -4.25283 -0.0378494 0
M  V30 565 N 51.7335 -0.305618 -1.54608 0
M  V30 566 C 52.9815 0.301701 -1.99835 0
M  V30 567 C 53.3025 1.54054 -1.19551 0
M  V30 568 O 52.5725 1.93702 -0.292658 0
M  V30 569 H 51.1525 0.114468 -0.738178 0
M  V30 570 H 53.8145 -0.418016 -1.90364 0
M  V30 571 H 52.9105 0.570548 -3.06841 0
M  V30 572 N 53.2116 1.57565 -0.0334293 0
M  V30 573 C 54.1416 2.13511 0.945265 0
M  V30 574 C 55.1226 1.05231 1.33643 0
M  V30 575 O 56.3076 1.33084 1.41429 0
M  V30 576 C 53.4376 2.6657 2.22616 0
M  V30 577 C 52.3916 3.79676 1.97561 0
M  V30 578 C 51.7176 4.1918 3.31952 0
M  V30 579 C 53.0176 5.0557 1.31135 0
M  V30 580 H 54.7116 2.95538 0.479325 0
M  V30 581 H 52.2576 1.42166 0.229115 0
M  V30 582 H 54.2106 3.04344 2.91466 0
M  V30 583 H 52.9346 1.8171 2.71384 0
M  V30 584 H 51.5936 3.42347 1.31127 0
M  V30 585 H 51.2416 3.31296 3.78487 0
M  V30 586 H 50.9416 4.95402 3.15992 0
M  V30 587 H 52.4656 4.59541 4.02063 0
M  V30 588 H 53.8796 5.40903 1.89992 0
M  V30 589 H 52.2766 5.86818 1.25559 0
M  V30 590 H 53.3466 4.84062 0.284894 0
M  V30 591 N 54.6897 -0.239769 1.55765 0
M  V30 592 C 55.9147 -0.988373 1.82335 0
M  V30 593 C 56.3397 -1.77886 0.611421 0
M  V30 594 O 55.6977 -1.75889 -0.439639 0
M  V30 595 C 55.7457 -1.89627 3.06715 0
M  V30 596 O 54.8497 -2.98904 2.84131 0
M  V30 597 H 54.1907 -0.280858 0.601677 0
M  V30 598 H 56.7207 -0.258597 2.02959 0
M  V30 599 H 56.7307 -2.30957 3.36338 0
M  V30 600 H 55.4057 -1.31511 3.9456 0
M  V30 601 H 53.9827 -2.61651 2.65694 0
M  V30 602 N 56.1678 -1.49265 -0.50573 0
M  V30 603 C 57.3928 -1.62478 -1.28902 0
M  V30 604 C 57.8178 -0.294332 -1.85783 0
M  V30 605 O 57.1758 0.737412 -1.65626 0
M  V30 606 C 57.2238 -2.69268 -2.39848 0
M  V30 607 O 56.3278 -2.28113 -3.43567 0
M  V30 608 H 55.6688 -0.54399 -0.380751 0
M  V30 609 H 58.1988 -1.95421 -0.605952 0
M  V30 610 H 58.2088 -2.91291 -2.85681 0
M  V30 611 H 56.8838 -3.65846 -1.97812 0
M  V30 612 H 55.4608 -2.16401 -3.03685 0
M  V30 613 N 57.6459 0.756429 -1.3826 0
M  V30 614 C 58.8919 1.51772 -1.34511 0
M  V30 615 C 59.2249 1.94089 0.0656691 0
M  V30 616 O 58.4999 1.65221 1.02626 0
M  V30 617 C 58.7829 2.77226 -2.29821 0
M  V30 618 C 58.6359 2.41065 -3.79747 0
M  V30 619 C 59.9549 3.79236 -2.23312 0
M  V30 620 H 57.0739 0.550578 -0.489931 0
M  V30 621 H 59.7159 0.866607 -1.69086 0
M  V30 622 H 57.8659 3.32784 -2.00467 0
M  V30 623 H 59.5379 1.91303 -4.19763 0
M  V30 624 H 57.7809 1.7356 -3.97567 0
M  V30 625 H 58.4519 3.3081 -4.41892 0
M  V30 626 H 60.9279 3.3321 -2.49219 0
M  V30 627 H 59.8039 4.64714 -2.92116 0
M  V30 628 H 60.0649 4.24615 -1.23102 0
M  V30 629 N 59.124 1.23083 0.984299 0
M  V30 630 C 60.371 1.06057 1.72505 0
M  V30 631 C 60.699 -0.403105 1.90277 0
M  V30 632 O 59.954 -1.3149 1.44944 0
M  V30 633 C 60.253 1.72673 3.1292 0
M  V30 634 C 59.919 3.22586 3.15038 0
M  V30 635 C 58.581 3.63489 3.15324 0
M  V30 636 C 60.933 4.185 3.10657 0
M  V30 637 C 58.261 4.98772 3.08939 0
M  V30 638 C 60.613 5.53769 3.05814 0
M  V30 639 C 59.277 5.94041 3.04419 0
M  V30 640 H 58.547 0.388091 0.631242 0
M  V30 641 H 61.194 1.52963 1.15215 0
M  V30 642 H 59.499 1.18116 3.73572 0
M  V30 643 H 61.196 1.56982 3.68996 0
M  V30 644 H 57.786 2.90022 3.15571 0
M  V30 645 H 61.97 3.87911 3.09579 0
M  V30 646 H 57.226 5.29193 3.0621 0
M  V30 647 H 61.4 6.27808 3.0138 0
M  V30 648 H 59.027 6.98833 2.99227 0
M  V30 649 N 60.6021 -1.18246 1.0419 0
M  V30 650 C 61.5321 -2.24127 0.654914 0
M  V30 651 C 62.5131 -1.66617 -0.342451 0
M  V30 652 O 63.6981 -1.92924 -0.222277 0
M  V30 653 C 60.8281 -3.47295 0.0183757 0
M  V30 654 C 59.7821 -4.17563 0.939414 0
M  V30 655 C 59.1081 -5.34438 0.167286 0
M  V30 656 C 60.4081 -4.70917 2.25908 0
M  V30 657 H 62.1021 -2.56753 1.54007 0
M  V30 658 H 59.6481 -1.23414 0.74195 0
M  V30 659 H 61.6011 -4.20572 -0.264082 0
M  V30 660 H 60.3251 -3.13907 -0.901664 0
M  V30 661 H 58.9841 -3.46186 1.20628 0
M  V30 662 H 58.6321 -4.97298 -0.7552 0
M  V30 663 H 58.3321 -5.82388 0.780901 0
M  V30 664 H 59.8561 -6.10504 -0.108125 0
M  V30 665 H 61.2701 -5.35882 2.03724 0
M  V30 666 H 59.6671 -5.29406 2.82577 0
M  V30 667 H 60.7371 -3.88272 2.9047 0
M  V30 668 N 62.0802 -0.821533 -1.34494 0
M  V30 669 C 63.3292 -0.405355 -1.97585 0
M  V30 670 C 63.6422 1.03677 -1.65863 0
M  V30 671 O 64.8482 1.55679 -2.22433 0
M  V30 672 C 63.3042 -0.673861 -3.53535 0
M  V30 673 C 62.9122 -2.12951 -3.94152 0
M  V30 674 C 64.6562 -0.32378 -4.23263 0
M  V30 675 C 62.5632 -2.34298 -5.43009 0
M  V30 676 H 61.4932 -0.147836 -0.739365 0
M  V30 677 H 64.1442 -1.00769 -1.53355 0
M  V30 678 H 62.5262 -0.00137554 -3.96 0
M  V30 679 H 63.7002 -2.84104 -3.62797 0
M  V30 680 H 62.0152 -2.44089 -3.37356 0
M  V30 681 H 64.6122 -0.461126 -5.32708 0
M  V30 682 H 64.9552 0.731586 -4.09821 0
M  V30 683 H 65.4882 -0.950786 -3.8627 0
M  V30 684 H 62.2272 -3.38335 -5.61435 0
M  V30 685 H 61.7472 -1.67687 -5.75883 0
M  V30 686 H 63.4262 -2.16588 -6.09671 0
M  V30 687 N 63.5583 1.46682 -0.576371 0
M  V30 688 C 64.5213 2.28707 0.150239 0
M  V30 689 C 65.5213 1.38035 0.824794 0
M  V30 690 O 66.7113 1.60476 0.677719 0
M  V30 691 C 63.8433 3.18248 1.22192 0
M  V30 692 H 65.0363 2.94423 -0.570521 0
M  V30 693 H 62.5893 1.52688 -0.334078 0
M  V30 694 H 63.3243 2.57265 1.97447 0
M  V30 695 H 63.1093 3.85 0.742812 0
M  V30 696 H 64.5993 3.80001 1.73172 0
M  V30 697 N 65.0364 0.313813 1.54444 0
M  V30 698 C 66.2644 -0.293918 2.04802 0
M  V30 699 C 66.6794 -1.46537 1.19047 0
M  V30 700 O 66.0364 -1.81182 0.218939 0
M  V30 701 C 66.0874 -0.737806 3.53891 0
M  V30 702 O 65.8084 0.387038 4.36387 0
M  V30 703 C 67.3094 -1.40936 4.203 0
M  V30 704 H 64.5294 -0.0620057 0.668129 0
M  V30 705 H 67.0734 0.457169 1.99324 0
M  V30 706 H 65.2284 -1.43889 3.59687 0
M  V30 707 H 65.6424 0.0391274 5.24485 0
M  V30 708 H 67.1164 -1.67099 5.26101 0
M  V30 709 H 67.5934 -2.35355 3.70816 0
M  V30 710 H 68.1994 -0.751117 4.18615 0
M  V30 711 N 66.5145 -1.57545 0.0417849 0
M  V30 712 C 67.9255 -1.80011 -0.495259 0
M  V30 713 C 68.2765 -0.953199 -1.71489 0
M  V30 714 O 67.4015 -0.167138 -2.15754 0
M  V30 715 C 67.9965 -3.26482 -0.905265 0
M  V30 716 C 66.5555 -3.499 -1.38734 0
M  V30 717 C 65.7025 -2.74979 -0.358056 0
M  V30 718 H 68.6535 -1.56425 0.267736 0
M  V30 719 H 68.6745 -3.36887 -1.76882 0
M  V30 720 H 68.1865 -3.88096 -0.017401 0
M  V30 721 H 66.2875 -2.93553 -2.29471 0
M  V30 722 H 66.4005 -4.58615 -1.38598 0
M  V30 723 H 64.7645 -2.40834 -0.828912 0
M  V30 724 H 65.5475 -3.39315 0.521561 0
M  V30 725 N 67.9926 0.231505 -1.5589 0
M  V30 726 C 68.9026 1.308 -1.94752 0
M  V30 727 C 69.9186 1.51826 -0.849989 0
M  V30 728 O 71.0946 1.6515 -1.15271 0
M  V30 729 C 68.1596 2.63968 -2.24771 0
M  V30 730 C 67.2206 2.51331 -3.48039 0
M  V30 731 C 66.4536 3.78148 -3.76616 0
M  V30 732 O 66.6766 4.80722 -3.07022 0
M  V30 733 O 65.6106 3.75857 -4.70123 0
M  V30 734 H 69.4366 1.0083 -2.86474 0
M  V30 735 H 67.0216 0.433547 -1.42971 0
M  V30 736 H 68.9036 3.42633 -2.45318 0
M  V30 737 H 67.5786 2.9364 -1.36225 0
M  V30 738 H 66.4856 1.709 -3.32782 0
M  V30 739 H 67.8186 2.26601 -4.36936 0
M  V30 740 N 69.4707 1.49531 0.497807 0
M  V30 741 C 70.4207 1.62829 1.59596 0
M  V30 742 C 71.4047 0.483824 1.53453 0
M  V30 743 O 72.5967 0.736937 1.60929 0
M  V30 744 C 69.7257 1.7011 2.98191 0
M  V30 745 C 68.8117 2.90144 3.09317 0
M  V30 746 N 69.2027 4.1418 2.90324 0
M  V30 747 C 67.5007 2.88148 3.40422 0
M  V30 748 C 68.2017 4.94886 3.05717 0
M  V30 749 N 67.1777 4.28314 3.34736 0
M  V30 750 H 70.9797 2.56446 1.4357 0
M  V30 751 H 68.4937 1.46347 0.704001 0
M  V30 752 H 70.4907 1.77735 3.77115 0
M  V30 753 H 69.1507 0.776315 3.15283 0
M  V30 754 H 70.1617 4.44109 2.66436 0
M  V30 755 H 66.8387 2.05061 3.63671 0
M  V30 756 H 68.2287 6.03432 2.95499 0
M  V30 757 N 70.9488 -0.749086 1.3866 0
M  V30 758 C 72.3648 -1.05276 1.19955 0
M  V30 759 C 72.5648 -2.01435 0.05134 0
M  V30 760 O 71.6208 -2.45232 -0.60147 0
M  V30 761 C 72.9338 -1.62853 2.52783 0
M  V30 762 C 74.4818 -1.75002 2.59506 0
M  V30 763 C 74.9568 -2.35991 3.92521 0
M  V30 764 N 76.4478 -2.43416 3.94085 0
M  V30 765 C 77.1828 -2.91511 4.9377 0
M  V30 766 N 76.6788 -3.39608 6.03853 0
M  V30 767 N 78.4718 -2.90592 4.81157 0
M  V30 768 H 70.6228 -0.111066 2.12109 0
M  V30 769 H 72.8858 -0.111901 0.941373 0
M  V30 770 H 72.5918 -0.99664 3.37283 0
M  V30 771 H 72.4658 -2.61854 2.715 0
M  V30 772 H 74.8528 -2.37317 1.75398 0
M  V30 773 H 74.9338 -0.74693 2.44652 0
M  V30 774 H 74.5778 -1.74308 4.77053 0
M  V30 775 H 74.5078 -3.3695 4.04688 0
M  V30 776 H 76.9988 -2.09405 3.14576 0
M  V30 777 H 77.3118 -3.74775 6.75843 0
M  V30 778 H 75.6568 -3.37653 6.07466 0
M  V30 779 H 78.8478 -2.52332 3.94267 0
M  V30 780 H 79.0208 -3.27762 5.58996 0
M  V30 781 N 72.4269 -1.23603 -0.977757 0
M  V30 782 C 73.6669 -1.08148 -1.73446 0
M  V30 783 C 74.0309 0.374785 -1.88307 0
M  V30 784 O 75.2319 0.650588 -2.60808 0
M  V30 785 C 73.5029 -1.78991 -3.0935 0
M  V30 786 S 75.0619 -1.79141 -4.00567 0
M  V30 787 H 71.8799 -0.386987 -0.596458 0
M  V30 788 H 74.4819 -1.5678 -1.16792 0
M  V30 789 H 73.1859 -2.8408 -2.96187 0
M  V30 790 H 72.7169 -1.30651 -3.71071 0
M  V30 791 H 74.7319 -0.851892 -4.88833 0
M  V30 792 N 73.905 1.17692 -1.04816 0
M  V30 793 C 75.321 1.39863 -0.768794 0
M  V30 794 C 75.521 1.91118 0.638451 0
M  V30 795 O 74.577 2.10036 1.40146 0
M  V30 796 C 75.89 2.39274 -1.82122 0
M  V30 797 C 77.438 2.52987 -1.843 0
M  V30 798 C 77.913 3.55669 -2.88555 0
M  V30 799 N 79.404 3.63183 -2.87493 0
M  V30 800 C 80.139 4.42381 -3.64811 0
M  V30 801 N 79.635 5.25125 -4.51903 0
M  V30 802 N 81.428 4.37217 -3.53267 0
M  V30 803 H 73.579 0.82752 -1.95617 0
M  V30 804 H 75.842 0.426123 -0.846831 0
M  V30 805 H 75.548 2.08678 -2.83102 0
M  V30 806 H 75.422 3.38725 -1.65967 0
M  V30 807 H 77.809 2.82896 -0.839869 0
M  V30 808 H 77.89 1.53623 -2.04532 0
M  V30 809 H 77.534 3.26499 -3.89051 0
M  V30 810 H 77.464 4.54728 -2.65575 0
M  V30 811 H 79.955 3.04103 -2.24343 0
M  V30 812 H 80.268 5.82728 -5.07591 0
M  V30 813 H 78.613 5.24519 -4.55966 0
M  V30 814 H 81.804 3.71626 -2.84625 0
M  V30 815 H 81.977 4.98696 -4.13771 0
M  V30 816 N 75.3831 0.828654 1.34056 0
M  V30 817 C 76.6291 0.42008 1.98402 0
M  V30 818 C 76.9621 -1.01564 1.65525 0
M  V30 819 O 76.2371 -1.70834 0.929831 0
M  V30 820 C 76.5201 0.62927 3.54559 0
M  V30 821 C 76.3731 2.11152 3.97159 0
M  V30 822 C 77.6921 0.0688756 4.40046 0
M  V30 823 H 74.8111 0.154104 0.720709 0
M  V30 824 H 77.4531 1.04228 1.5886 0
M  V30 825 H 75.6031 0.0996418 3.88372 0
M  V30 826 H 77.2751 2.70522 3.73651 0
M  V30 827 H 75.5181 2.59985 3.47261 0
M  V30 828 H 76.1891 2.20868 5.05887 0
M  V30 829 H 78.6651 0.521458 4.1282 0
M  V30 830 H 77.5411 0.245006 5.48353 0
M  V30 831 H 77.8021 -1.0266 4.30015 0
M  V30 832 N 76.8612 -1.46375 0.584142 0
M  V30 833 C 78.2722 -1.86031 0.157959 0
M  V30 834 C 78.6232 -1.48753 -1.27933 0
M  V30 835 O 77.7482 -0.903098 -1.96655 0
M  V30 836 C 78.3432 -3.37642 0.279892 0
M  V30 837 C 76.9022 -3.76289 -0.09143 0
M  V30 838 C 76.0492 -2.7039 0.615178 0
M  V30 839 H 79.0002 -1.37509 0.792274 0
M  V30 840 H 79.0212 -3.77275 -0.494364 0
M  V30 841 H 78.5332 -3.64742 1.32607 0
M  V30 842 H 76.6342 -3.54806 -1.13769 0
M  V30 843 H 76.7472 -4.78246 0.285886 0
M  V30 844 H 75.1112 -2.5464 0.0552833 0
M  V30 845 H 75.8942 -3.0033 1.66303 0
M  V30 846 N 78.3393 -0.321999 -1.54275 0
M  V30 847 C 79.6163 0.335232 -1.92706 0
M  V30 848 C 79.9963 1.70006 -1.25145 0
M  V30 849 O 79.3443 2.25067 -0.394596 0
M  V30 850 C 79.5543 0.429008 -3.46353 0
M  V30 851 C 80.9023 0.690029 -4.18956 0
M  V30 852 O 81.9263 0.511992 -3.52501 0
M  V30 853 O 80.7853 1.03338 -5.36641 0
M  V30 854 H 77.8793 0.191143 -0.804608 0
M  V30 855 H 80.4253 -0.3716 -1.65581 0
M  V30 856 H 79.1973 -0.529611 -3.87699 0
M  V30 857 H 78.8203 1.18348 -3.79578 0
M  V30 858 N 79.8174 1.5752 -0.0501392 0
M  V30 859 C 80.7804 2.1037 0.909786 0
M  V30 860 C 81.7804 1.02308 1.24056 0
M  V30 861 O 82.9704 1.28385 1.17741 0
M  V30 862 C 80.1024 2.58708 2.21998 0
M  V30 863 H 81.2954 2.96479 0.451665 0
M  V30 864 H 78.8484 1.55038 0.198248 0
M  V30 865 H 79.5834 1.75989 2.72394 0
M  V30 866 H 79.3684 3.37675 1.99295 0
M  V30 867 H 80.8584 2.99747 2.9076 0
M  V30 868 N 81.2955 -0.223234 1.56011 0
M  V30 869 C 82.2585 -1.26014 1.9145 0
M  V30 870 C 83.2585 -1.3989 0.792937 0
M  V30 871 O 84.4485 -1.38184 1.0607 0
M  V30 872 C 81.5805 -2.63422 2.16383 0
M  V30 873 H 82.7735 -0.95796 2.84189 0
M  V30 874 H 80.3265 -0.463576 1.49267 0
M  V30 875 H 81.0615 -2.98741 1.2619 0
M  V30 876 H 80.8465 -2.54728 2.98088 0
M  V30 877 H 82.3365 -3.38249 2.44903 0
M  V30 878 N 82.7736 -1.49793 -0.48987 0
M  V30 879 C 83.7216 -1.67783 -1.61095 0
M  V30 880 C 84.7156 -0.543683 -1.60438 0
M  V30 881 O 85.9216 -0.723647 -1.64813 0
M  V30 882 H 82.2966 -0.529255 -0.534222 0
M  V30 883 H 84.2676 -2.61861 -1.43078 0
M  V30 884 C 83.0166 -1.77191 -2.99164 0
M  V30 885 H 82.3396 -2.63841 -3.0038 0
M  V30 886 H 83.7796 -1.93809 -3.77113 0
M  V30 887 C 82.2386 -0.519203 -3.32875 0
M  V30 888 O 82.7686 0.350124 -4.00171 0
M  V30 889 N 80.9746 -0.378816 -2.8812 0
M  V30 890 H 80.5216 -1.08725 -2.33531 0
M  V30 891 H 80.4796 0.458239 -3.11043 0
M  V30 892 N 84.2517 0.741722 -1.39055 0
M  V30 893 C 85.1817 1.869 -1.39966 0
M  V30 894 C 86.1627 1.6804 -0.26392 0
M  V30 895 O 87.3477 1.88458 -0.468755 0
M  V30 896 C 84.4777 3.24572 -1.23574 0
M  V30 897 C 83.4317 3.58056 -2.34477 0
M  V30 898 C 82.7577 4.94593 -2.0318 0
M  V30 899 C 84.0577 3.61716 -3.76774 0
M  V30 900 H 85.7517 1.86395 -2.34302 0
M  V30 901 H 83.2977 0.895361 -1.1278 0
M  V30 902 H 85.2507 4.031 -1.22834 0
M  V30 903 H 83.9747 3.25587 -0.257045 0
M  V30 904 H 82.6337 2.81854 -2.34423 0
M  V30 905 H 82.2817 4.92181 -1.03765 0
M  V30 906 H 81.9817 5.17964 -2.77465 0
M  V30 907 H 83.5057 5.75486 -2.04079 0
M  V30 908 H 84.9197 4.30335 -3.78794 0
M  V30 909 H 83.3167 3.96603 -4.50362 0
M  V30 910 H 84.3867 2.61672 -4.08235 0
M  V30 911 N 85.7298 1.2412 0.971189 0
M  V30 912 C 86.9548 1.10667 1.75407 0
M  V30 913 C 87.3798 -0.337048 1.85056 0
M  V30 914 O 86.7378 -1.24396 1.31892 0
M  V30 915 C 86.7858 1.74726 3.15441 0
M  V30 916 O 85.8898 1.01566 3.99697 0
M  V30 917 H 85.2308 0.387341 0.539317 0
M  V30 918 H 87.7608 1.64358 1.2185 0
M  V30 919 H 87.7708 1.80341 3.6598 0
M  V30 920 H 86.4458 2.79773 3.07734 0
M  V30 921 H 85.0228 1.03713 3.58187 0
M  V30 922 N 87.2079 -1.17134 1.05439 0
M  V30 923 C 88.4329 -1.91913 0.786396 0
M  V30 924 C 88.8579 -1.7643 -0.652234 0
M  V30 925 O 88.2159 -1.08372 -1.45345 0
M  V30 926 C 88.2639 -3.40921 1.17497 0
M  V30 927 O 87.3679 -4.11244 0.308589 0
M  V30 928 H 86.7089 -0.598215 0.288158 0
M  V30 929 H 89.2389 -1.48457 1.4079 0
M  V30 930 H 89.2489 -3.91668 1.14281 0
M  V30 931 H 87.9239 -3.5151 2.22292 0
M  V30 932 H 86.5009 -3.70731 0.40157 0
M  V30 933 N 88.686 -0.835752 -1.33615 0
M  V30 934 C 89.649 -0.272 -2.2758 0
M  V30 935 C 90.649 0.557487 -1.50827 0
M  V30 936 O 91.839 0.37173 -1.70188 0
M  V30 937 C 88.971 0.617173 -3.35267 0
M  V30 938 H 90.164 -1.10111 -2.78954 0
M  V30 939 H 87.717 -0.608594 -1.43965 0
M  V30 940 H 88.452 1.46884 -2.89129 0
M  V30 941 H 88.237 0.0237066 -3.92093 0
M  V30 942 H 89.727 1.005 -4.05326 0
M  V30 943 N 90.1641 1.46063 -0.591896 0
M  V30 944 C 91.4101 2.03203 -0.0894879 0
M  V30 945 C 91.7651 1.45407 1.25994 0
M  V30 946 O 91.0581 0.61326 1.8152 0
M  V30 947 C 91.2521 3.57391 0.0249813 0
M  V30 948 C 91.0811 4.30142 -1.3118 0
M  V30 949 C 89.8511 4.68688 -1.88838 0
M  V30 950 C 92.0491 4.63098 -2.23708 0
M  V30 951 N 90.0311 5.26228 -3.1616 0
M  V30 952 C 91.4021 5.21305 -3.3562 0
M  V30 953 C 93.4571 4.45031 -2.23274 0
M  V30 954 C 92.1601 5.63351 -4.47245 0
M  V30 955 C 94.1861 4.881 -3.33935 0
M  V30 956 C 93.5481 5.46386 -4.44569 0
M  V30 957 H 89.6471 0.778323 -0.0757431 0
M  V30 958 H 92.2311 1.78094 -0.78681 0
M  V30 959 H 90.4021 3.82195 0.69149 0
M  V30 960 H 92.1341 4.0118 0.532613 0
M  V30 961 H 88.8891 4.5174 -1.42223 0
M  V30 962 H 89.3131 5.59512 -3.8115 0
M  V30 963 H 93.9551 3.99295 -1.39008 0
M  V30 964 H 91.6731 6.08061 -5.32247 0
M  V30 965 H 95.2591 4.75866 -3.34728 0
M  V30 966 H 94.1391 5.79102 -5.28782 0
M  V30 967 N 91.6422 0.330177 1.54103 0
M  V30 968 C 93.0582 -0.0222371 1.59585 0
M  V30 969 C 93.2582 -1.49902 1.34654 0
M  V30 970 O 92.3142 -2.25592 1.13421 0
M  V30 971 C 93.6272 0.401932 2.98002 0
M  V30 972 C 95.1752 0.353145 3.11001 0
M  V30 973 C 95.6502 0.752576 4.51775 0
M  V30 974 N 97.1412 0.706239 4.57784 0
M  V30 975 C 97.8762 0.987417 5.64834 0
M  V30 976 N 97.3722 1.33607 6.79795 0
M  V30 977 N 99.1652 0.91254 5.54643 0
M  V30 978 H 91.3162 1.29228 1.68564 0
M  V30 979 H 93.5792 0.525906 0.78875 0
M  V30 980 H 93.2852 1.4311 3.21267 0
M  V30 981 H 93.1592 -0.229699 3.765 0
M  V30 982 H 95.5462 -0.666822 2.87467 0
M  V30 983 H 95.6272 1.0198 2.34593 0
M  V30 984 H 95.2712 1.77049 4.76042 0
M  V30 985 H 95.2012 0.0635409 5.26562 0
M  V30 986 H 97.6922 0.44889 3.75224 0
M  V30 987 H 98.0052 1.53582 7.57385 0
M  V30 988 H 96.3502 1.37439 6.81275 0
M  V30 989 H 99.5412 0.639601 4.6371 0
M  V30 990 H 99.7142 1.13503 6.37982 0
M  V30 991 N 93.1203 -1.57491 0.0584922 0
M  V30 992 C 94.0683 -2.13148 -0.931168 0
M  V30 993 C 95.0623 -1.06507 -1.31729 0
M  V30 994 O 96.2683 -1.24906 -1.29609 0
M  V30 995 H 92.6433 -0.68137 -0.31818 0
M  V30 996 H 94.6143 -2.95187 -0.436707 0
M  V30 997 C 93.3633 -2.69732 -2.19408 0
M  V30 998 H 92.6863 -3.51454 -1.90578 0
M  V30 999 H 94.1263 -3.12287 -2.86798 0
M  V30 1000 C 92.5853 -1.63855 -2.94369 0
M  V30 1001 O 93.1153 -1.05565 -3.87581 0
M  V30 1002 N 91.3213 -1.35202 -2.57233 0
M  V30 1003 H 90.8683 -1.82791 -1.81508 0
M  V30 1004 H 90.8263 -0.645922 -3.07693 0
M  V30 1005 N 94.5984 0.214957 -1.56127 0
M  V30 1006 C 95.5484 1.27006 -1.8935 0
M  V30 1007 C 96.5324 1.41969 -0.757202 0
M  V30 1008 O 97.7244 1.44673 -1.01973 0
M  V30 1009 C 94.8534 2.61911 -2.2194 0
M  V30 1010 C 93.9394 2.50822 -3.41978 0
M  V30 1011 N 94.3304 2.09391 -4.60423 0
M  V30 1012 C 92.6284 2.81765 -3.45723 0
M  V30 1013 C 93.3294 2.09712 -5.42582 0
M  V30 1014 N 92.3054 2.50454 -4.82466 0
M  V30 1015 H 96.1074 0.940734 -2.78437 0
M  V30 1016 H 93.6214 0.423492 -1.56781 0
M  V30 1017 H 95.6184 3.38096 -2.43919 0
M  V30 1018 H 94.2784 2.95684 -1.34169 0
M  V30 1019 H 95.2894 1.80416 -4.85459 0
M  V30 1020 H 91.9664 3.19865 -2.68314 0
M  V30 1021 H 93.3564 1.79748 -6.4741 0
M  V30 1022 N 96.0765 1.50051 0.48192 0
M  V30 1023 C 97.3045 1.64237 1.25832 0
M  V30 1024 C 97.7195 0.321336 1.86045 0
M  V30 1025 O 97.0765 -0.695478 1.68729 0
M  V30 1026 C 97.1275 2.72548 2.37487 0
M  V30 1027 O 96.8485 3.99529 1.79745 0
M  V30 1028 C 98.3495 2.9761 3.28547 0
M  V30 1029 H 95.5695 0.55237 0.380957 0
M  V30 1030 H 98.1135 1.96207 0.576467 0
M  V30 1031 H 96.2685 2.43303 3.01467 0
M  V30 1032 H 96.6825 4.59342 2.5319 0
M  V30 1033 H 98.1565 3.77084 4.03127 0
M  V30 1034 H 98.6335 2.0826 3.86684 0
M  V30 1035 H 99.2395 3.28345 2.70314 0
M  V30 1036 N 97.5546 -0.734337 1.39446 0
M  V30 1037 C 98.8006 -1.49613 1.36908 0
M  V30 1038 C 99.1336 -1.94169 -0.0347829 0
M  V30 1039 O 98.4086 -1.66833 -0.999847 0
M  V30 1040 C 98.6916 -2.73534 2.34203 0
M  V30 1041 C 98.5446 -2.34993 3.83534 0
M  V30 1042 C 99.8636 -3.75635 2.29317 0
M  V30 1043 H 96.9826 -0.542714 0.498629 0
M  V30 1044 H 99.6246 -0.839597 1.70443 0
M  V30 1045 H 97.7746 -3.29553 2.05736 0
M  V30 1046 H 99.4466 -1.84601 4.22753 0
M  V30 1047 H 97.6896 -1.67213 4.00278 0
M  V30 1048 H 98.3606 -3.23738 4.47099 0
M  V30 1049 H 100.837 -3.29203 2.54489 0
M  V30 1050 H 99.7126 -4.60008 2.99472 0
M  V30 1051 H 99.9736 -4.22603 1.29842 0
M  V30 1052 N 99.0327 -1.24633 -0.964593 0
M  V30 1053 C 100.444 -1.08045 -1.5226 0
M  V30 1054 C 100.795 0.347116 -1.93105 0
M  V30 1055 O 99.9197 1.23588 -1.77637 0
M  V30 1056 C 100.515 -1.95514 -2.76695 0
M  V30 1057 C 99.0737 -1.8314 -3.28841 0
M  V30 1058 C 98.2207 -1.90262 -2.01732 0
M  V30 1059 H 101.172 -1.38064 -0.782553 0
M  V30 1060 H 101.193 -1.48925 -3.50145 0
M  V30 1061 H 100.705 -2.99407 -2.46936 0
M  V30 1062 H 98.8057 -0.82092 -3.63444 0
M  V30 1063 H 98.9187 -2.67406 -3.97531 0
M  V30 1064 H 97.2827 -1.34027 -2.16584 0
M  V30 1065 H 98.0657 -2.9574 -1.74334 0
M  V30 1066 N 100.511 1.16574 -1.06058 0
M  V30 1067 C 101.441 2.23057 -0.690488 0
M  V30 1068 C 102.422 1.67141 0.315901 0
M  V30 1069 O 103.607 1.93253 0.191556 0
M  V30 1070 C 100.737 3.47222 -0.073625 0
M  V30 1071 C 99.6908 4.16016 -1.00573 0
M  V30 1072 C 99.0168 5.34104 -0.252289 0
M  V30 1073 C 100.317 4.67264 -2.33371 0
M  V30 1074 H 102.011 2.54271 -1.58072 0
M  V30 1075 H 99.5568 1.22218 -0.76149 0
M  V30 1076 H 101.51 4.20939 0.19714 0
M  V30 1077 H 100.234 3.15302 0.85161 0
M  V30 1078 H 98.8928 3.44223 -1.2612 0
M  V30 1079 H 98.5408 4.98437 0.675988 0
M  V30 1080 H 98.2408 5.81072 -0.873455 0
M  V30 1081 H 99.7648 6.10599 0.0109857 0
M  V30 1082 H 101.179 5.32573 -2.12223 0
M  V30 1083 H 99.5758 5.24843 -2.90963 0
M  V30 1084 H 100.646 3.83602 -2.96611 0
M  V30 1085 N 101.989 0.842826 1.3317 0
M  V30 1086 C 103.405 0.531128 1.50503 0
M  V30 1087 C 103.605 -0.940734 1.78192 0
M  V30 1088 O 102.661 -1.72436 1.84451 0
M  V30 1089 C 103.974 1.40789 2.65705 0
M  V30 1090 C 105.522 1.40708 2.79589 0
M  V30 1091 C 105.997 2.26878 3.97857 0
M  V30 1092 N 107.488 2.24609 4.05099 0
M  V30 1093 C 108.223 2.88019 4.95815 0
M  V30 1094 N 107.719 3.60496 5.9162 0
M  V30 1095 N 109.512 2.77469 4.88843 0
M  V30 1096 H 101.663 1.79557 1.1346 0
M  V30 1097 H 103.926 0.766267 0.558156 0
M  V30 1098 H 103.632 2.454 2.51936 0
M  V30 1099 H 103.506 1.08677 3.61205 0
M  V30 1100 H 105.893 0.368668 2.92788 0
M  V30 1101 H 105.974 1.76829 1.84838 0
M  V30 1102 H 105.618 3.3078 3.85418 0
M  V30 1103 H 105.548 1.88096 4.91861 0
M  V30 1104 H 108.039 1.71906 3.36536 0
M  V30 1105 H 108.352 4.06076 6.57512 0
M  V30 1106 H 106.697 3.64604 5.91683 0
M  V30 1107 H 109.888 2.20406 4.12963 0
M  V30 1108 H 110.061 3.2717 5.59342 0
M  V30 1109 N 103.467 -1.45747 0.599634 0
M  V30 1110 C 104.397 -2.33235 -0.111306 0
M  V30 1111 C 105.378 -1.46359 -0.866781 0
M  V30 1112 O 106.563 -1.75146 -0.838904 0
M  V30 1113 C 103.693 -3.28932 -1.11451 0
M  V30 1114 C 102.647 -4.25381 -0.472772 0
M  V30 1115 C 101.973 -5.1071 -1.58365 0
M  V30 1116 C 103.273 -5.18831 0.600948 0
M  V30 1117 H 104.967 -2.92927 0.61919 0
M  V30 1118 H 102.513 -1.40857 0.299215 0
M  V30 1119 H 104.466 -3.89002 -1.62036 0
M  V30 1120 H 103.19 -2.67381 -1.8755 0
M  V30 1121 H 101.849 -3.66598 0.0121472 0
M  V30 1122 H 101.497 -4.45533 -2.33473 0
M  V30 1123 H 101.197 -5.7604 -1.15982 0
M  V30 1124 H 102.721 -5.73647 -2.09194 0
M  V30 1125 H 104.135 -5.73019 0.179491 0
M  V30 1126 H 102.532 -5.92595 0.946076 0
M  V30 1127 H 103.602 -4.6174 1.48068 0
M  V30 1128 N 104.945 -0.338344 -1.53925 0
M  V30 1129 C 106.361 0.0137736 -1.59594 0
M  V30 1130 C 106.561 1.49186 -1.35447 0
M  V30 1131 O 105.617 2.24987 -1.14616 0
M  V30 1132 C 106.93 -0.41773 -2.97784 0
M  V30 1133 C 108.478 -0.369633 -3.1081 0
M  V30 1134 C 108.953 -0.776524 -4.51369 0
M  V30 1135 N 110.444 -0.730506 -4.57403 0
M  V30 1136 C 111.179 -1.01736 -5.64303 0
M  V30 1137 N 110.675 -1.3721 -6.79077 0
M  V30 1138 N 112.468 -0.941942 -5.54151 0
M  V30 1139 H 104.619 -1.3012 -1.67876 0
M  V30 1140 H 106.882 -0.530082 -0.78595 0
M  V30 1141 H 106.588 -1.44811 -3.20504 0
M  V30 1142 H 106.462 0.209729 -3.76616 0
M  V30 1143 H 108.849 0.651568 -2.87817 0
M  V30 1144 H 108.93 -1.03223 -2.34049 0
M  V30 1145 H 108.574 -1.79571 -4.75096 0
M  V30 1146 H 108.504 -0.0914649 -5.26521 0
M  V30 1147 H 110.995 -0.468783 -3.74981 0
M  V30 1148 H 111.308 -1.57597 -7.5656 0
M  V30 1149 H 109.653 -1.4105 -6.80536 0
M  V30 1150 H 112.844 -0.664184 -4.63364 0
M  V30 1151 H 113.017 -1.16884 -6.37371 0
M  V30 1152 N 106.423 1.57458 -0.0668435 0
M  V30 1153 C 107.7 1.8469 0.644132 0
M  V30 1154 C 108.08 0.958343 1.88093 0
M  V30 1155 O 107.428 0.0233579 2.28488 0
M  V30 1156 C 107.638 3.34767 0.986509 0
M  V30 1157 C 108.986 4.02159 1.36212 0
M  V30 1158 O 110.01 3.39484 1.07839 0
M  V30 1159 O 108.869 5.12694 1.89227 0
M  V30 1160 H 105.963 0.762816 0.319437 0
M  V30 1161 H 108.509 1.6942 -0.0973986 0
M  V30 1162 H 107.281 3.91151 0.107883 0
M  V30 1163 H 106.904 3.55281 1.78497 0
M  V30 1164 N 107.901 -0.206675 1.56239 0
M  V30 1165 C 109.149 -0.927007 1.79586 0
M  V30 1166 C 109.47 -1.8427 0.637929 0
M  V30 1167 O 108.74 -1.92849 -0.344398 0
M  V30 1168 H 107.32 -0.345292 0.662407 0
M  V30 1169 H 109.982 -0.21496 1.93711 0
M  V30 1170 H 109.078 -1.52501 2.72305 0
M  V30 1171 N 109.379 -1.50304 -0.473955 0
M  V30 1172 C 110.795 -1.37667 -0.807466 0
M  V30 1173 C 110.995 -0.430555 -1.96846 0
M  V30 1174 O 110.051 0.127874 -2.52176 0
M  V30 1175 C 111.364 -2.78974 -1.12223 0
M  V30 1176 C 112.912 -2.87868 -1.22885 0
M  V30 1177 C 113.387 -4.30003 -1.57676 0
M  V30 1178 N 114.878 -4.3294 -1.64673 0
M  V30 1179 C 115.613 -5.3991 -1.93091 0
M  V30 1180 N 115.109 -6.57092 -2.1955 0
M  V30 1181 N 116.902 -5.27351 -1.94569 0
M  V30 1182 H 109.053 -2.10394 0.291212 0
M  V30 1183 H 111.316 -0.945575 0.0677609 0
M  V30 1184 H 111.022 -3.50031 -0.342229 0
M  V30 1185 H 110.896 -3.16038 -2.05913 0
M  V30 1186 H 113.283 -2.17032 -1.99953 0
M  V30 1187 H 113.364 -2.54352 -0.271814 0
M  V30 1188 H 113.008 -5.01375 -0.81149 0
M  V30 1189 H 112.938 -4.61004 -2.54525 0
M  V30 1190 H 115.429 -3.48441 -1.46277 0
M  V30 1191 H 115.742 -7.34425 -2.405 0
M  V30 1192 H 114.087 -6.60272 -2.16948 0
M  V30 1193 H 117.278 -4.34801 -1.73394 0
M  V30 1194 H 117.451 -6.10805 -2.16381 0
M  V30 1195 N 110.857 0.726932 -1.39834 0
M  V30 1196 C 111.767 1.87131 -1.41489 0
M  V30 1197 C 112.783 1.71239 -0.308757 0
M  V30 1198 O 113.959 1.93701 -0.551529 0
M  V30 1199 C 111.024 3.22811 -1.26468 0
M  V30 1200 C 110.085 3.51039 -2.47124 0
M  V30 1201 C 109.318 4.80245 -2.3281 0
M  V30 1202 O 109.541 5.54537 -1.33585 0
M  V30 1203 O 108.475 5.08554 -3.21957 0
M  V30 1204 H 112.301 1.8869 -2.3797 0
M  V30 1205 H 109.886 0.875837 -1.21035 0
M  V30 1206 H 111.768 4.03877 -1.20255 0
M  V30 1207 H 110.443 3.22005 -0.330862 0
M  V30 1208 H 109.35 2.70027 -2.58914 0
M  V30 1209 H 110.683 3.56632 -3.39227 0
M  V30 1210 N 112.336 1.25143 0.95797 0
M  V30 1211 C 113.582 1.09855 1.70469 0
M  V30 1212 C 113.915 -0.360187 1.90831 0
M  V30 1213 O 113.19 -1.26568 1.47685 0
M  V30 1214 C 113.473 1.8497 3.08963 0
M  V30 1215 C 113.326 3.38652 2.96032 0
M  V30 1216 C 114.645 1.63016 4.08795 0
M  V30 1217 H 111.764 0.400465 0.618706 0
M  V30 1218 H 114.406 1.53933 1.11376 0
M  V30 1219 H 112.556 1.47505 3.59409 0
M  V30 1220 H 114.228 3.85772 2.52938 0
M  V30 1221 H 112.471 3.66534 2.32025 0
M  V30 1222 H 113.142 3.8642 3.94187 0
M  V30 1223 H 115.618 1.95625 3.67247 0
M  V30 1224 H 114.494 2.18015 5.03747 0
M  V30 1225 H 114.755 0.570692 4.38401 0
M  V30 1226 N 113.814 -1.1601 1.06675 0
M  V30 1227 C 115.225 -1.68235 0.809565 0
M  V30 1228 C 115.576 -1.8454 -0.666303 0
M  V30 1229 O 114.701 -1.54374 -1.5165 0
M  V30 1230 C 115.296 -3.05585 1.46299 0
M  V30 1231 C 113.855 -3.54915 1.25349 0
M  V30 1232 C 113.002 -2.30804 1.53703 0
M  V30 1233 H 115.953 -1.00318 1.22971 0
M  V30 1234 H 115.974 -3.70174 0.880431 0
M  V30 1235 H 115.486 -2.93686 2.53713 0
M  V30 1236 H 113.587 -3.72067 0.199261 0
M  V30 1237 H 113.7 -4.36774 1.9689 0
M  V30 1238 H 112.064 -2.36007 0.957739 0
M  V30 1239 H 112.847 -2.21499 2.62284 0
M  V30 1240 N 115.292 -0.849877 -1.32721 0
M  V30 1241 C 116.242 -0.262892 -2.26479 0
M  V30 1242 C 117.226 0.588493 -1.49752 0
M  V30 1243 O 118.418 0.438659 -1.71478 0
M  V30 1244 C 115.547 0.551818 -3.38836 0
M  V30 1245 C 114.633 -0.311689 -4.22953 0
M  V30 1246 N 115.024 -1.39567 -4.86163 0
M  V30 1247 C 113.322 -0.100611 -4.45887 0
M  V30 1248 C 114.023 -1.92651 -5.48872 0
M  V30 1249 N 112.999 -1.22637 -5.29586 0
M  V30 1250 H 116.801 -1.09166 -2.72873 0
M  V30 1251 H 114.315 -0.695486 -1.46754 0
M  V30 1252 H 116.312 0.988713 -4.05006 0
M  V30 1253 H 114.972 1.37844 -2.93988 0
M  V30 1254 H 115.983 -1.77859 -4.86402 0
M  V30 1255 H 112.66 0.691681 -4.11731 0
M  V30 1256 H 114.05 -2.83487 -6.09167 0
M  V30 1257 N 116.77 1.45427 -0.607355 0
M  V30 1258 C 117.995 2.07124 -0.107006 0
M  V30 1259 C 118.42 1.44906 1.19933 0
M  V30 1260 O 117.778 0.541687 1.73019 0
M  V30 1261 C 117.826 3.60595 0.0194119 0
M  V30 1262 O 116.93 3.98285 1.0697 0
M  V30 1263 H 116.271 0.659868 -0.0739597 0
M  V30 1264 H 118.801 1.86683 -0.837297 0
M  V30 1265 H 118.811 4.07419 0.2177 0
M  V30 1266 H 117.486 4.05266 -0.934453 0
M  V30 1267 H 116.063 3.63133 0.847889 0
M  V30 1268 N 118.248 0.346503 1.53744 0
M  V30 1269 C 119.488 -0.249413 2.02873 0
M  V30 1270 C 119.852 -1.47532 1.22876 0
M  V30 1271 O 121.053 -2.1456 1.61918 0
M  V30 1272 C 119.324 -0.552909 3.53097 0
M  V30 1273 S 120.883 -1.12521 4.24128 0
M  V30 1274 H 117.701 -0.074042 0.707134 0
M  V30 1275 H 120.303 0.48495 1.8939 0
M  V30 1276 H 119.007 0.347083 4.0893 0
M  V30 1277 H 118.538 -1.31686 3.70705 0
M  V30 1278 H 120.553 -2.41075 4.33702 0
M  V30 1279 N 119.726 -1.57421 0.075193 0
M  V30 1280 C 121.142 -1.57099 -0.281444 0
M  V30 1281 C 121.342 -1.08486 -1.69803 0
M  V30 1282 O 120.398 -0.752279 -2.41033 0
M  V30 1283 C 121.711 -3.00571 -0.0880041 0
M  V30 1284 C 123.259 -3.12605 -0.157281 0
M  V30 1285 C 123.734 -4.57999 0.0079207 0
M  V30 1286 N 125.225 -4.63176 -0.0475725 0
M  V30 1287 C 125.96 -5.73373 0.0557876 0
M  V30 1288 N 125.456 -6.92473 0.21286 0
M  V30 1289 N 127.249 -5.621 -0.00152098 0
M  V30 1290 H 119.4 -1.87335 1.00098 0
M  V30 1291 H 121.663 -0.86377 0.390646 0
M  V30 1292 H 121.369 -3.40262 0.889629 0
M  V30 1293 H 121.243 -3.67754 -0.838875 0
M  V30 1294 H 123.63 -2.72798 -1.1254 0
M  V30 1295 H 123.711 -2.48053 0.62475 0
M  V30 1296 H 123.355 -4.98496 0.972824 0
M  V30 1297 H 123.285 -5.20586 -0.793556 0
M  V30 1298 H 125.776 -3.7753 -0.167244 0
M  V30 1299 H 126.089 -7.72279 0.283781 0
M  V30 1300 H 124.434 -6.94556 0.248267 0
M  V30 1301 H 127.625 -4.67938 -0.122958 0
M  V30 1302 H 127.798 -6.47948 0.0824844 0
M  V30 1303 N 121.204 0.198386 -1.56346 0
M  V30 1304 C 122.62 0.549085 -1.49857 0
M  V30 1305 C 122.82 1.86016 -0.774611 0
M  V30 1306 O 121.876 2.50416 -0.323776 0
M  V30 1307 C 123.189 0.606868 -2.94512 0
M  V30 1308 C 124.737 0.695925 -3.05165 0
M  V30 1309 C 125.212 0.784848 -4.51225 0
M  V30 1310 N 126.703 0.848463 -4.55363 0
M  V30 1311 C 127.438 0.937378 -5.65686 0
M  V30 1312 N 126.934 0.9888 -6.85707 0
M  V30 1313 N 128.727 0.974312 -5.53592 0
M  V30 1314 H 120.878 -0.661655 -2.01831 0
M  V30 1315 H 123.141 -0.235261 -0.918344 0
M  V30 1316 H 122.847 -0.28732 -3.50524 0
M  V30 1317 H 122.721 1.46268 -3.47686 0
M  V30 1318 H 125.108 1.58055 -2.49204 0
M  V30 1319 H 125.189 -0.186022 -2.55123 0
M  V30 1320 H 124.833 -0.0954072 -5.0781 0
M  V30 1321 H 124.763 1.68255 -4.98997 0
M  V30 1322 H 127.254 0.818103 -3.68938 0
M  V30 1323 H 127.567 1.05707 -7.65536 0
M  V30 1324 H 125.912 0.957534 -6.88372 0
M  V30 1325 H 129.103 0.930954 -4.58749 0
M  V30 1326 H 129.276 1.04015 -6.39597 0
M  V30 1327 N 122.682 1.50554 0.465978 0
M  V30 1328 C 123.912 1.65323 1.23903 0
M  V30 1329 C 124.32 0.338051 1.86155 0
M  V30 1330 O 123.663 -0.690518 1.70228 0
M  V30 1331 C 123.725 2.69048 2.3844 0
M  V30 1332 C 123.389 4.12462 1.96784 0
M  V30 1333 C 124.386 4.98168 1.48745 0
M  V30 1334 C 122.071 4.58407 2.05349 0
M  V30 1335 C 124.065 6.27868 1.0982 0
M  V30 1336 C 121.752 5.88112 1.66035 0
M  V30 1337 C 122.75 6.72668 1.18349 0
M  V30 1338 O 122.438 7.99951 0.795825 0
M  V30 1339 H 122.17 0.558629 0.38067 0
M  V30 1340 H 124.724 1.97561 0.562022 0
M  V30 1341 H 122.954 2.32062 3.09328 0
M  V30 1342 H 124.643 2.72985 3.0039 0
M  V30 1343 H 125.409 4.63885 1.41546 0
M  V30 1344 H 121.288 3.92735 2.41414 0
M  V30 1345 H 124.832 6.93819 0.725293 0
M  V30 1346 H 120.729 6.21914 1.72895 0
M  V30 1347 H 121.497 8.13265 0.924222 0
M  V30 1348 N 124.16 -0.719506 1.40217 0
M  V30 1349 C 125.576 -1.02707 1.22161 0
M  V30 1350 C 125.776 -2.0128 0.0940557 0
M  V30 1351 O 124.832 -2.46452 -0.549318 0
M  V30 1352 C 126.145 -1.57454 2.56181 0
M  V30 1353 C 127.693 -1.69458 2.63159 0
M  V30 1354 C 128.168 -2.27611 3.97438 0
M  V30 1355 N 129.659 -2.35002 3.99159 0
M  V30 1356 C 130.394 -2.80972 4.99842 0
M  V30 1357 N 129.89 -3.26723 6.10921 0
M  V30 1358 N 131.683 -2.80321 4.87213 0
M  V30 1359 H 123.834 -0.0660492 2.12297 0
M  V30 1360 H 126.097 -0.0919077 0.943534 0
M  V30 1361 H 125.803 -0.924873 3.39321 0
M  V30 1362 H 125.677 -2.56036 2.76993 0
M  V30 1363 H 128.064 -2.33543 1.80393 0
M  V30 1364 H 128.145 -0.694867 2.46181 0
M  V30 1365 H 127.789 -1.6415 4.80643 0
M  V30 1366 H 127.719 -3.2829 4.11744 0
M  V30 1367 H 130.21 -2.02685 3.18947 0
M  V30 1368 H 130.523 -3.60355 6.8364 0
M  V30 1369 H 128.868 -3.24692 6.14492 0
M  V30 1370 H 132.059 -2.43912 3.9953 0
M  V30 1371 H 132.232 -3.15831 5.65822 0
M  V30 1372 N 125.638 -1.25649 -0.95132 0
M  V30 1373 C 126.568 -1.08808 -2.06599 0
M  V30 1374 C 127.549 0.00382547 -1.701 0
M  V30 1375 O 128.734 -0.166325 -1.93486 0
M  V30 1376 C 125.864 -0.709542 -3.39975 0
M  V30 1377 C 124.818 -1.75206 -3.90496 0
M  V30 1378 C 124.144 -1.22811 -5.20405 0
M  V30 1379 C 125.444 -3.15153 -4.16504 0
M  V30 1380 H 127.138 -2.02048 -2.20946 0
M  V30 1381 H 124.684 -0.972835 -1.06169 0
M  V30 1382 H 126.637 -0.578649 -4.17408 0
M  V30 1383 H 125.361 0.258556 -3.25575 0
M  V30 1384 H 124.02 -1.87145 -3.15234 0
M  V30 1385 H 123.668 -0.250145 -5.02378 0
M  V30 1386 H 123.368 -1.92492 -5.55176 0
M  V30 1387 H 124.892 -1.10968 -6.00432 0
M  V30 1388 H 126.306 -3.06349 -4.84586 0
M  V30 1389 H 124.703 -3.82333 -4.62538 0
M  V30 1390 H 125.773 -3.61966 -3.22658 0
M  V30 1391 N 127.117 1.15442 -1.07289 0
M  V30 1392 C 128.08 2.18358 -0.696591 0
M  V30 1393 C 129.08 1.58637 0.262837 0
M  V30 1394 O 130.27 1.74145 0.0438809 0
M  V30 1395 C 127.402 3.4089 -0.0266151 0
M  V30 1396 H 128.595 2.53162 -1.60776 0
M  V30 1397 H 126.148 1.29893 -0.869342 0
M  V30 1398 H 126.883 3.11653 0.896822 0
M  V30 1399 H 126.668 3.85495 -0.716657 0
M  V30 1400 H 128.158 4.17009 0.222028 0
M  V30 1401 N 128.595 0.856903 1.32268 0
M  V30 1402 C 129.823 0.475439 2.01363 0
M  V30 1403 C 130.238 -0.928486 1.64392 0
M  V30 1404 O 129.595 -1.60624 0.866387 0
M  V30 1405 C 129.646 0.607545 3.56358 0
M  V30 1406 O 129.367 1.95617 3.92002 0
M  V30 1407 C 130.868 0.225382 4.42727 0
M  V30 1408 H 128.088 0.186636 0.644521 0
M  V30 1409 H 130.632 1.15446 1.68797 0
M  V30 1410 H 128.787 -0.0237719 3.87393 0
M  V30 1411 H 129.201 1.95455 4.86721 0
M  V30 1412 H 130.675 0.368813 5.50767 0
M  V30 1413 H 131.152 -0.834369 4.31202 0
M  V30 1414 H 131.758 0.831864 4.17085 0
M  V30 1415 N 130.073 -1.45103 0.615059 0
M  V30 1416 C 131.322 -2.01396 0.110718 0
M  V30 1417 C 131.635 -1.48834 -1.26916 0
M  V30 1418 O 132.841 -1.97152 -1.86664 0
M  V30 1419 C 131.297 -3.59599 0.14723 0
M  V30 1420 C 130.905 -4.21158 1.52743 0
M  V30 1421 C 132.649 -4.23428 -0.30148 0
M  V30 1422 C 130.556 -5.71535 1.51992 0
M  V30 1423 H 129.486 -0.753061 0.0376241 0
M  V30 1424 H 132.137 -1.66494 0.77149 0
M  V30 1425 H 130.519 -3.91724 -0.580339 0
M  V30 1426 H 131.693 -4.00594 2.2773 0
M  V30 1427 H 130.008 -3.69552 1.91886 0
M  V30 1428 H 132.605 -5.33703 -0.326392 0
M  V30 1429 H 132.948 -3.94629 -1.32565 0
M  V30 1430 H 133.481 -3.96047 0.373065 0
M  V30 1431 H 130.22 -6.05044 2.52193 0
M  V30 1432 H 129.74 -5.94268 0.81274 0
M  V30 1433 H 131.419 -6.34873 1.24681 0
M  V30 1434 N 131.551 -0.354651 -1.53558 0
M  V30 1435 C 132.514 0.484566 -2.24019 0
M  V30 1436 C 133.514 1.01861 -1.24422 0
M  V30 1437 O 134.704 0.906097 -1.4878 0
M  V30 1438 C 131.836 1.67615 -2.96847 0
M  V30 1439 H 133.029 -0.131843 -2.9961 0
M  V30 1440 H 130.582 -0.106165 -1.55939 0
M  V30 1441 H 131.317 2.33095 -2.25471 0
M  V30 1442 H 131.102 1.30029 -3.69912 0
M  V30 1443 H 132.592 2.27114 -3.50441 0
M  V30 1444 N 133.029 1.57378 -0.0835403 0
M  V30 1445 C 133.977 2.14602 0.89714 0
M  V30 1446 C 134.971 1.08589 1.30018 0
M  V30 1447 O 136.177 1.26952 1.27606 0
M  V30 1448 H 132.552 0.686346 0.3073 0
M  V30 1449 H 134.523 2.95845 0.38969 0
M  V30 1450 C 133.272 2.73188 2.15089 0
M  V30 1451 H 132.595 3.54442 1.84962 0
M  V30 1452 H 134.035 3.1681 2.81793 0
M  V30 1453 C 132.494 1.68517 2.91725 0
M  V30 1454 O 133.024 1.11718 3.85852 0
M  V30 1455 N 131.23 1.39277 2.55049 0
M  V30 1456 H 130.777 1.85655 1.78577 0
M  V30 1457 H 130.735 0.694791 3.06627 0
M  V30 1458 N 134.507 -0.190092 1.56449 0
M  V30 1459 C 135.754 -0.909705 1.80916 0
M  V30 1460 C 136.082 -1.83047 0.657583 0
M  V30 1461 O 135.337 -1.92428 -0.356356 0
M  V30 1462 C 135.636 -1.75382 3.1141 0
M  V30 1463 C 135.302 -0.983606 4.40041 0
M  V30 1464 C 133.964 -0.770967 4.74984 0
M  V30 1465 C 136.316 -0.442024 5.19322 0
M  V30 1466 C 133.644 -0.0053448 5.867 0
M  V30 1467 C 135.996 0.310412 6.31838 0
M  V30 1468 C 134.66 0.534023 6.6536 0
M  V30 1469 H 133.93 -0.332885 0.662019 0
M  V30 1470 H 136.577 -0.175762 1.90692 0
M  V30 1471 H 134.882 -2.55659 2.96893 0
M  V30 1472 H 136.579 -2.31331 3.27547 0
M  V30 1473 H 133.169 -1.15936 4.12622 0
M  V30 1474 H 137.353 -0.593693 4.92736 0
M  V30 1475 H 132.609 0.177825 6.11141 0
M  V30 1476 H 136.783 0.737419 6.92485 0
M  V30 1477 H 134.41 1.12918 7.51767 0
M  V30 1478 N 135.985 -1.50799 -0.457987 0
M  V30 1479 C 137.21 -1.66496 -1.23668 0
M  V30 1480 C 137.635 -0.353288 -1.84752 0
M  V30 1481 O 136.993 0.684346 -1.67888 0
M  V30 1482 C 137.041 -2.76763 -2.3116 0
M  V30 1483 O 136.145 -2.38928 -3.36136 0
M  V30 1484 H 135.486 -0.555828 -0.363252 0
M  V30 1485 H 138.016 -1.9725 -0.543474 0
M  V30 1486 H 138.026 -3.00232 -2.76269 0
M  V30 1487 H 136.701 -3.71954 -1.86073 0
M  V30 1488 H 135.278 -2.25953 -2.96647 0
M  V30 1489 N 137.463 0.71206 -1.40597 0
M  V30 1490 C 138.426 1.80785 -1.40888 0
M  V30 1491 C 139.426 1.57937 -0.302103 0
M  V30 1492 O 140.616 1.64913 -0.561182 0
M  V30 1493 C 137.748 3.18927 -1.20409 0
M  V30 1494 H 138.941 1.81924 -2.38419 0
M  V30 1495 H 136.494 0.91805 -1.26497 0
M  V30 1496 H 137.229 3.23436 -0.236522 0
M  V30 1497 H 137.014 3.36911 -2.00582 0
M  V30 1498 H 138.504 3.98949 -1.23408 0
M  V30 1499 N 138.941 1.26152 0.944643 0
M  V30 1500 C 139.871 1.09902 2.06019 0
M  V30 1501 C 140.852 0.00519538 1.70099 0
M  V30 1502 O 142.037 0.176583 1.93396 0
M  V30 1503 C 139.167 0.727562 3.39594 0
M  V30 1504 C 138.121 1.77274 3.89561 0
M  V30 1505 C 137.447 1.25569 5.19747 0
M  V30 1506 C 138.747 3.17357 4.14827 0
M  V30 1507 H 140.441 2.03217 2.19871 0
M  V30 1508 H 137.987 0.978452 1.05652 0
M  V30 1509 H 139.94 0.600777 4.17095 0
M  V30 1510 H 138.664 -0.241287 3.25707 0
M  V30 1511 H 137.323 1.88814 3.14237 0
M  V30 1512 H 136.971 0.276783 5.02238 0
M  V30 1513 H 136.671 1.95433 5.54148 0
M  V30 1514 H 138.195 1.1415 5.99835 0
M  V30 1515 H 139.609 3.08914 4.82954 0
M  V30 1516 H 138.006 3.84781 4.60504 0
M  V30 1517 H 139.076 3.63673 3.20734 0
M  V30 1518 N 140.419 -1.14872 1.07899 0
M  V30 1519 C 141.667 -1.85422 0.803941 0
M  V30 1520 C 141.988 -1.83051 -0.67211 0
M  V30 1521 O 141.258 -1.27532 -1.48703 0
M  V30 1522 H 139.838 -0.686537 0.294408 0
M  V30 1523 H 142.5 -1.39226 1.3639 0
M  V30 1524 H 141.596 -2.90399 1.14346 0
M  V30 1525 N 141.898 -0.863906 -1.31812 0
M  V30 1526 C 142.828 -0.330843 -2.31144 0
M  V30 1527 C 143.809 0.575005 -1.60087 0
M  V30 1528 O 144.994 0.493304 -1.8783 0
M  V30 1529 C 142.124 0.47374 -3.44054 0
M  V30 1530 C 141.078 -0.338481 -4.26659 0
M  V30 1531 C 140.404 0.591412 -5.31419 0
M  V30 1532 C 141.704 -1.56926 -4.98168 0
M  V30 1533 H 143.398 -1.16086 -2.75979 0
M  V30 1534 H 140.944 -0.559657 -1.32679 0
M  V30 1535 H 142.897 0.857143 -4.12591 0
M  V30 1536 H 141.621 1.33721 -2.9797 0
M  V30 1537 H 140.28 -0.703754 -3.59782 0
M  V30 1538 H 139.928 1.45199 -4.81587 0
M  V30 1539 H 139.628 0.0519022 -5.87577 0
M  V30 1540 H 141.152 0.97179 -6.02817 0
M  V30 1541 H 142.566 -1.25764 -5.59336 0
M  V30 1542 H 140.963 -2.04739 -5.64094 0
M  V30 1543 H 142.033 -2.32544 -4.25501 0
M  V30 1544 N 143.376 1.44774 -0.622745 0
M  V30 1545 C 144.286 2.34433 0.0886031 0
M  V30 1546 C 145.302 1.52131 0.844529 0
M  V30 1547 O 146.478 1.84886 0.798691 0
M  V30 1548 C 143.543 3.29986 1.0635 0
M  V30 1549 C 142.604 4.28195 0.307873 0
M  V30 1550 C 141.837 5.19183 1.23633 0
M  V30 1551 O 142.06 5.13918 2.47476 0
M  V30 1552 O 140.994 5.97515 0.725189 0
M  V30 1553 H 144.82 2.96693 -0.648599 0
M  V30 1554 H 142.405 1.44408 -0.382957 0
M  V30 1555 H 144.287 3.88825 1.6246 0
M  V30 1556 H 142.962 2.70269 1.78146 0
M  V30 1557 H 141.869 3.72927 -0.296064 0
M  V30 1558 H 143.202 4.90808 -0.3699 0
M  V30 1559 N 144.854 0.36279 1.53368 0
M  V30 1560 C 146.265 -0.117022 1.86333 0
M  V30 1561 C 146.616 -1.48397 1.28347 0
M  V30 1562 O 145.741 -2.07787 0.604428 0
M  V30 1563 C 146.336 -0.21912 3.38091 0
M  V30 1564 C 144.895 -0.643184 3.70864 0
M  V30 1565 C 144.042 0.211318 2.76494 0
M  V30 1566 H 146.993 0.581687 1.47655 0
M  V30 1567 H 147.014 -1.04319 3.6592 0
M  V30 1568 H 146.526 0.775902 3.80265 0
M  V30 1569 H 144.627 -1.64654 3.34245 0
M  V30 1570 H 144.74 -0.41973 4.77258 0
M  V30 1571 H 143.104 -0.319367 2.5269 0
M  V30 1572 H 143.887 1.20383 3.21501 0
M  V30 1573 N 146.332 -1.57332 0.0918853 0
M  V30 1574 C 147.58 -1.93853 -0.571446 0
M  V30 1575 C 147.901 -0.974212 -1.6892 0
M  V30 1576 O 147.171 -0.0257254 -1.95883 0
M  V30 1577 H 145.751 -0.715666 -0.214082 0
M  V30 1578 H 148.413 -1.94287 0.154464 0
M  V30 1579 H 147.509 -2.96191 -0.983729 0
M  V30 1580 N 147.81 0.181792 -1.56548 0
M  V30 1581 C 149.226 0.53316 -1.50431 0
M  V30 1582 C 149.426 1.85184 -0.794297 0
M  V30 1583 O 148.482 2.50058 -0.350318 0
M  V30 1584 C 149.795 0.575597 -2.9514 0
M  V30 1585 C 151.343 0.663519 -3.05886 0
M  V30 1586 C 151.818 0.736946 -4.52032 0
M  V30 1587 N 153.309 0.800118 -4.56237 0
M  V30 1588 C 154.044 0.877327 -5.66649 0
M  V30 1589 N 153.54 0.916016 -6.86718 0
M  V30 1590 N 155.333 0.915542 -5.54594 0
M  V30 1591 H 147.484 -0.683025 -2.01118 0
M  V30 1592 H 149.747 -0.244988 -0.915797 0
M  V30 1593 H 149.453 -0.324482 -3.502 0
M  V30 1594 H 149.327 1.42572 -3.49218 0
M  V30 1595 H 151.714 1.55403 -2.50867 0
M  V30 1596 H 151.795 -0.21307 -2.54911 0
M  V30 1597 H 151.439 -0.149262 -5.07681 0
M  V30 1598 H 151.369 1.62953 -5.00753 0
M  V30 1599 H 153.86 0.778926 -3.69785 0
M  V30 1600 H 154.173 0.975813 -7.66614 0
M  V30 1601 H 152.518 0.884469 -6.89349 0
M  V30 1602 H 155.709 0.882245 -4.59711 0
M  V30 1603 H 155.882 0.972253 -6.40665 0
M  V30 1604 N 149.288 1.51039 0.449983 0
M  V30 1605 C 150.565 1.53612 1.21089 0
M  V30 1606 C 150.945 0.292997 2.09057 0
M  V30 1607 O 150.293 -0.72259 2.16774 0
M  V30 1608 C 150.503 2.84337 2.0237 0
M  V30 1609 C 151.851 3.35807 2.59843 0
M  V30 1610 O 152.875 2.85802 2.12593 0
M  V30 1611 O 151.734 4.23029 3.45989 0
M  V30 1612 H 148.828 0.617057 0.550608 0
M  V30 1613 H 151.374 1.63344 0.460082 0
M  V30 1614 H 150.146 3.66278 1.37681 0
M  V30 1615 H 149.769 2.77708 2.84542 0
M  V30 1616 N 150.766 -0.704594 1.40972 0
M  V30 1617 C 152.012 -1.46675 1.40051 0
M  V30 1618 C 152.345 -1.94199 0.00641102 0
M  V30 1619 O 151.62 -1.68916 -0.964235 0
M  V30 1620 C 151.903 -2.68505 2.39952 0
M  V30 1621 C 151.756 -2.26805 3.88432 0
M  V30 1622 C 153.075 -3.70686 2.37233 0
M  V30 1623 H 150.194 -0.532015 0.510028 0
M  V30 1624 H 152.836 -0.803255 1.72185 0
M  V30 1625 H 150.986 -3.25114 2.1268 0
M  V30 1626 H 152.658 -1.75592 4.26574 0
M  V30 1627 H 150.901 -1.58685 4.03734 0
M  V30 1628 H 151.572 -3.14181 4.53866 0
M  V30 1629 H 154.048 -3.23731 2.61415 0
M  V30 1630 H 152.924 -4.53553 3.09162 0
M  V30 1631 H 153.185 -4.19754 1.38777 0
M  V30 1632 N 152.244 -1.26651 -0.937939 0
M  V30 1633 C 153.521 -1.0313 -1.66204 0
M  V30 1634 C 153.901 0.437256 -2.06522 0
M  V30 1635 O 153.249 1.41831 -1.79154 0
M  V30 1636 C 153.459 -1.98314 -2.87181 0
M  V30 1637 C 154.807 -2.27107 -3.58758 0
M  V30 1638 O 155.831 -1.96205 -2.97291 0
M  V30 1639 O 154.69 -2.79736 -4.69479 0
M  V30 1640 H 151.784 -0.392384 -0.727986 0
M  V30 1641 H 154.33 -1.37874 -0.989382 0
M  V30 1642 H 153.102 -2.97399 -2.54302 0
M  V30 1643 H 152.725 -1.64068 -3.6217 0
M  V30 1644 N 153.722 1.14298 -1.08507 0
M  V30 1645 C 154.652 2.21542 -0.737646 0
M  V30 1646 C 155.633 1.67773 0.280377 0
M  V30 1647 O 156.818 1.93616 0.150521 0
M  V30 1648 C 153.948 3.46988 -0.147259 0
M  V30 1649 C 152.902 4.13789 -1.09374 0
M  V30 1650 C 152.228 5.33449 -0.365524 0
M  V30 1651 C 153.528 4.62208 -2.4323 0
M  V30 1652 H 155.222 2.5086 -1.6343 0
M  V30 1653 H 152.768 1.20576 -0.787243 0
M  V30 1654 H 154.721 4.21262 0.107808 0
M  V30 1655 H 153.445 3.17037 0.784538 0
M  V30 1656 H 152.104 3.4147 -1.33393 0
M  V30 1657 H 151.752 4.99759 0.57011 0
M  V30 1658 H 151.452 5.79088 -0.996512 0
M  V30 1659 H 152.976 6.10485 -0.118534 0
M  V30 1660 H 154.39 5.27952 -2.23472 0
M  V30 1661 H 152.787 5.18553 -3.02031 0
M  V30 1662 H 153.857 3.77224 -3.04681 0
M  V30 1663 N 155.201 0.870884 1.31352 0
M  V30 1664 C 156.449 0.48132 1.96285 0
M  V30 1665 C 156.77 -0.969813 1.69173 0
M  V30 1666 O 156.04 -1.67998 1.00764 0
M  V30 1667 H 154.62 0.175002 0.726212 0
M  V30 1668 H 157.282 1.11087 1.60143 0
M  V30 1669 H 156.378 0.639825 3.05471 0
M  V30 1670 N 156.679 -1.44442 0.630414 0
M  V30 1671 C 157.611 -2.2892 -0.113347 0
M  V30 1672 C 158.624 -1.41243 -0.80959 0
M  V30 1673 O 159.813 -1.65402 -0.671156 0
M  V30 1674 C 156.913 -3.17594 -1.18266 0
M  V30 1675 C 156.086 -4.33682 -0.569073 0
M  V30 1676 C 155.145 -5.03397 -1.53226 0
M  V30 1677 O 154.171 -5.59438 -1.04967 0
M  V30 1678 N 155.373 -5.04783 -2.86661 0
M  V30 1679 H 158.138 -2.93392 0.611636 0
M  V30 1680 H 155.699 -1.54881 0.471523 0
M  V30 1681 H 157.691 -3.61097 -1.82732 0
M  V30 1682 H 156.261 -2.54876 -1.80988 0
M  V30 1683 H 155.481 -3.9338 0.254187 0
M  V30 1684 H 156.769 -5.08608 -0.139767 0
M  V30 1685 H 156.167 -4.60584 -3.28449 0
M  V30 1686 H 154.724 -5.52077 -3.46489 0
M  V30 1687 N 158.157 -0.370918 -1.53173 0
M  V30 1688 C 159.087 0.464847 -2.28826 0
M  V30 1689 C 160.068 1.07936 -1.31468 0
M  V30 1690 O 161.253 1.0956 -1.60344 0
M  V30 1691 C 158.383 1.60196 -3.08147 0
M  V30 1692 C 157.337 1.11443 -4.13237 0
M  V30 1693 C 156.663 2.3422 -4.80672 0
M  V30 1694 C 157.963 0.195384 -5.21934 0
M  V30 1695 H 159.657 -0.166329 -2.98938 0
M  V30 1696 H 157.203 -0.0814359 -1.4377 0
M  V30 1697 H 159.156 2.19332 -3.59822 0
M  V30 1698 H 157.88 2.26045 -2.35735 0
M  V30 1699 H 156.539 0.545727 -3.62515 0
M  V30 1700 H 156.187 2.98537 -4.04827 0
M  V30 1701 H 155.887 2.02269 -5.51689 0
M  V30 1702 H 157.411 2.94032 -5.35143 0
M  V30 1703 H 158.825 0.694375 -5.69079 0
M  V30 1704 H 157.222 -0.0335027 -6.00091 0
M  V30 1705 H 158.292 -0.760961 -4.78892 0
M  V30 1706 N 159.635 1.57281 -0.100228 0
M  V30 1707 C 160.545 2.17833 0.870965 0
M  V30 1708 C 161.561 1.14921 1.30649 0
M  V30 1709 O 162.737 1.47313 1.37335 0
M  V30 1710 C 159.802 2.75085 2.1102 0
M  V30 1711 C 158.863 3.9297 1.72838 0
M  V30 1712 C 158.096 4.47482 2.90854 0
M  V30 1713 O 158.319 4.00922 4.05731 0
M  V30 1714 O 157.253 5.38433 2.69023 0
M  V30 1715 H 161.079 3.0124 0.38575 0
M  V30 1716 H 158.664 1.48881 0.124397 0
M  V30 1717 H 160.546 3.11656 2.83634 0
M  V30 1718 H 159.221 1.94721 2.58584 0
M  V30 1719 H 158.128 3.61201 0.973883 0
M  V30 1720 H 159.461 4.74713 1.30033 0
M  V30 1721 N 161.113 -0.173488 1.56642 0
M  V30 1722 C 162.045 -1.23935 1.92802 0
M  V30 1723 C 163.058 -1.40589 0.820889 0
M  V30 1724 O 164.247 -1.40631 1.09933 0
M  V30 1725 C 161.347 -2.60837 2.16373 0
M  V30 1726 C 160.52 -2.6551 3.47596 0
M  V30 1727 C 159.579 -3.8376 3.60021 0
M  V30 1728 O 158.605 -3.69859 4.32658 0
M  V30 1729 N 159.807 -5.00127 2.94709 0
M  V30 1730 H 162.572 -0.932236 2.84832 0
M  V30 1731 H 160.133 -0.363268 1.57772 0
M  V30 1732 H 162.125 -3.38407 2.21952 0
M  V30 1733 H 160.695 -2.83948 1.30738 0
M  V30 1734 H 159.915 -1.74052 3.53694 0
M  V30 1735 H 161.203 -2.65641 4.33949 0
M  V30 1736 H 160.601 -5.14322 2.35563 0
M  V30 1737 H 159.158 -5.75567 3.05886 0
M  V30 1738 N 162.591 -1.51276 -0.441967 0
M  V30 1739 C 163.501 -1.75092 -1.56141 0
M  V30 1740 C 164.517 -0.634963 -1.62001 0
M  V30 1741 O 165.693 -0.916686 -1.79329 0
M  V30 1742 C 162.758 -1.86666 -2.92158 0
M  V30 1743 C 161.819 -3.10506 -2.96453 0
M  V30 1744 C 161.052 -3.21519 -4.25982 0
M  V30 1745 O 161.275 -2.38586 -5.18105 0
M  V30 1746 O 160.209 -4.14465 -4.36466 0
M  V30 1747 H 164.035 -2.70044 -1.38961 0
M  V30 1748 H 161.62 -1.35722 -0.624499 0
M  V30 1749 H 163.502 -1.96292 -3.72891 0
M  V30 1750 H 162.177 -0.949014 -3.09476 0
M  V30 1751 H 161.084 -3.06363 -2.14692 0
M  V30 1752 H 162.417 -4.01945 -2.84079 0
M  V30 1753 N 164.069 0.697108 -1.41344 0
M  V30 1754 C 165.294 1.49096 -1.44171 0
M  V30 1755 C 165.719 1.88038 -0.0481568 0
M  V30 1756 O 165.077 1.54525 0.948243 0
M  V30 1757 C 165.125 2.73088 -2.3549 0
M  V30 1758 O 164.229 3.70514 -1.81088 0
M  V30 1759 H 163.57 0.448801 -0.489361 0
M  V30 1760 H 166.1 0.856992 -1.85787 0
M  V30 1761 H 166.11 3.21413 -2.51312 0
M  V30 1762 H 164.785 2.44081 -3.36745 0
M  V30 1763 H 163.362 3.29441 -1.74708 0
M  V30 1764 N 165.547 1.27147 0.931209 0
M  V30 1765 C 166.787 1.14511 1.69312 0
M  V30 1766 C 167.151 -0.304638 1.89568 0
M  V30 1767 O 168.352 -0.553343 2.63043 0
M  V30 1768 C 166.623 1.90349 3.02493 0
M  V30 1769 S 168.182 1.93884 3.93642 0
M  V30 1770 H 165 0.408858 0.581684 0
M  V30 1771 H 167.602 1.61006 1.10893 0
M  V30 1772 H 166.306 2.94877 2.85439 0
M  V30 1773 H 165.837 1.44333 3.65966 0
M  V30 1774 H 167.852 1.03273 4.85334 0
M  V30 1775 N 167.025 -1.13721 1.09112 0
M  V30 1776 C 167.955 -2.21148 0.749385 0
M  V30 1777 C 168.936 -1.6792 -0.271475 0
M  V30 1778 O 170.121 -1.93693 -0.140251 0
M  V30 1779 C 167.251 -3.46905 0.165659 0
M  V30 1780 C 166.205 -4.13203 1.11567 0
M  V30 1781 C 165.531 -5.33248 0.393809 0
M  V30 1782 C 166.831 -4.60912 2.45678 0
M  V30 1783 H 168.525 -2.4999 1.64758 0
M  V30 1784 H 166.071 -1.20156 0.793626 0
M  V30 1785 H 168.024 -4.21313 -0.085466 0
M  V30 1786 H 166.748 -3.17449 -0.767714 0
M  V30 1787 H 165.407 -3.40758 1.35202 0
M  V30 1788 H 165.055 -5.00054 -0.543599 0
M  V30 1789 H 164.755 -5.78552 1.02721 0
M  V30 1790 H 166.279 -6.10413 0.150908 0
M  V30 1791 H 167.693 -5.26759 2.26269 0
M  V30 1792 H 166.09 -5.16944 3.04776 0
M  V30 1793 H 167.16 -3.75603 3.06677 0
M  V30 1794 N 168.503 -0.877838 -1.30888 0
M  V30 1795 C 169.78 -0.413052 -1.91189 0
M  V30 1796 C 170.16 1.1056 -1.79832 0
M  V30 1797 O 169.508 1.93771 -1.21099 0
M  V30 1798 C 169.718 -0.903191 -3.3711 0
M  V30 1799 C 171.066 -0.93395 -4.14201 0
M  V30 1800 O 172.09 -0.849373 -3.45925 0
M  V30 1801 O 170.949 -1.05772 -5.36167 0
M  V30 1802 H 168.043 -0.125035 -0.817493 0
M  V30 1803 H 170.589 -0.966269 -1.39504 0
M  V30 1804 H 169.361 -1.94692 -3.39427 0
M  V30 1805 H 168.984 -0.328732 -3.96239 0
M  V30 1806 N 169.982 1.44106 -0.638065 0
M  V30 1807 C 171.23 2.01579 -0.145043 0
M  V30 1808 C 171.551 1.50496 1.24 0
M  V30 1809 O 170.821 0.711374 1.82527 0
M  V30 1810 H 169.401 0.745282 -0.05063 0
M  V30 1811 H 172.063 1.76516 -0.826327 0
M  V30 1812 H 171.159 3.11877 -0.118039 0
M  V30 1813 N 171.46 0.379036 1.52974 0
M  V30 1814 C 172.706 -0.199244 2.02422 0
M  V30 1815 C 173.061 -1.4532 1.26095 0
M  V30 1816 O 172.354 -1.88377 0.34996 0
M  V30 1817 C 172.548 -0.53096 3.53434 0
M  V30 1818 C 172.377 0.689298 4.44386 0
M  V30 1819 C 171.147 1.20546 4.9071 0
M  V30 1820 C 173.345 1.55856 4.90116 0
M  V30 1821 N 171.327 2.38434 5.65705 0
M  V30 1822 C 172.698 2.58396 5.63588 0
M  V30 1823 C 174.753 1.57986 4.7217 0
M  V30 1824 C 173.456 3.62939 6.21022 0
M  V30 1825 C 175.482 2.6143 5.30479 0
M  V30 1826 C 174.844 3.62693 6.03849 0
M  V30 1827 H 170.943 -0.0352671 0.781204 0
M  V30 1828 H 173.527 0.526614 1.87443 0
M  V30 1829 H 171.698 -1.22588 3.68547 0
M  V30 1830 H 173.43 -1.0955 3.89591 0
M  V30 1831 H 170.185 0.768022 4.67331 0
M  V30 1832 H 170.609 2.98055 6.07859 0
M  V30 1833 H 175.251 0.810475 4.14959 0
M  V30 1834 H 172.969 4.40751 6.77321 0
M  V30 1835 H 176.555 2.63949 5.18481 0
M  V30 1836 H 175.435 4.41424 6.48163 0
M  V30 1837 N 172.938 -1.57226 0.108567 0
M  V30 1838 C 173.848 -2.18292 -0.859401 0
M  V30 1839 C 174.864 -1.15612 -1.30038 0
M  V30 1840 O 176.04 -1.48039 -1.36552 0
M  V30 1841 C 173.105 -2.762 -2.09558 0
M  V30 1842 C 172.166 -3.93881 -1.70752 0
M  V30 1843 C 171.399 -4.49018 -2.88477 0
M  V30 1844 O 171.622 -4.03068 -4.036 0
M  V30 1845 O 170.556 -5.39852 -2.66164 0
M  V30 1846 H 174.382 -3.01441 -0.369769 0
M  V30 1847 H 171.967 -1.48945 -0.1165 0
M  V30 1848 H 173.849 -3.13156 -2.81978 0
M  V30 1849 H 172.524 -1.96089 -2.57548 0
M  V30 1850 H 171.431 -3.61713 -0.954714 0
M  V30 1851 H 172.764 -4.75396 -1.27513 0
M  V30 1852 N 174.416 0.165178 -1.56732 0
M  V30 1853 C 175.663 0.880807 -1.8234 0
M  V30 1854 C 175.991 1.81977 -0.686621 0
M  V30 1855 O 175.246 1.92971 0.325697 0
M  V30 1856 C 175.545 1.70405 -3.1416 0
M  V30 1857 C 175.211 0.913475 -4.4155 0
M  V30 1858 C 173.873 0.695303 -4.7615 0
M  V30 1859 C 176.225 0.359349 -5.1996 0
M  V30 1860 C 173.553 -0.0879947 -5.86634 0
M  V30 1861 C 175.905 -0.410893 -6.31264 0
M  V30 1862 C 174.569 -0.639808 -6.64427 0
M  V30 1863 H 173.839 0.32231 -0.667231 0
M  V30 1864 H 176.486 0.145402 -1.90947 0
M  V30 1865 H 174.791 2.50903 -3.00923 0
M  V30 1866 H 176.488 2.26091 -3.31186 0
M  V30 1867 H 173.078 1.09357 -4.14414 0
M  V30 1868 H 177.262 0.515228 -4.93618 0
M  V30 1869 H 172.518 -0.27503 -6.10781 0
M  V30 1870 H 176.692 -0.847494 -6.91224 0
M  V30 1871 H 174.319 -1.24864 -7.49875 0
M  V30 1872 N 175.894 1.51508 0.433938 0
M  V30 1873 C 177.119 1.68443 1.21003 0
M  V30 1874 C 177.544 0.382636 1.84167 0
M  V30 1875 O 176.902 -0.65755 1.68956 0
M  V30 1876 C 176.95 2.80405 2.26727 0
M  V30 1877 O 176.054 2.44245 3.32292 0
M  V30 1878 H 175.395 0.561536 0.354363 0
M  V30 1879 H 177.925 1.9809 0.512024 0
M  V30 1880 H 177.935 3.0459 2.71457 0
M  V30 1881 H 176.61 3.74867 1.80132 0
M  V30 1882 H 175.187 2.30644 2.93015 0
M  V30 1883 N 177.372 -0.689602 1.41712 0
M  V30 1884 C 178.304 -1.815 1.39966 0
M  V30 1885 C 179.317 -1.59995 0.300917 0
M  V30 1886 O 180.506 -1.69387 0.563039 0
M  V30 1887 C 177.606 -3.18364 1.16179 0
M  V30 1888 C 176.779 -3.66847 2.38206 0
M  V30 1889 C 175.838 -4.82398 2.10186 0
M  V30 1890 O 174.864 -4.93706 2.83272 0
M  V30 1891 N 176.066 -5.70064 1.0958 0
M  V30 1892 H 178.831 -1.83488 2.36965 0
M  V30 1893 H 176.392 -0.872149 1.36401 0
M  V30 1894 H 178.384 -3.93301 0.953756 0
M  V30 1895 H 176.954 -3.11365 0.27756 0
M  V30 1896 H 176.174 -2.82751 2.74673 0
M  V30 1897 H 177.462 -3.95978 3.19498 0
M  V30 1898 H 176.86 -5.63565 0.491019 0
M  V30 1899 H 175.417 -6.44874 0.947656 0
M  V30 1900 N 178.85 -1.27639 -0.924453 0
M  V30 1901 C 180.127 -1.04887 -1.651 0
M  V30 1902 C 180.507 0.415327 -2.06974 0
M  V30 1903 O 179.855 1.39923 -1.80648 0
M  V30 1904 C 180.065 -2.01348 -2.85061 0
M  V30 1905 C 181.413 -2.30899 -3.56329 0
M  V30 1906 O 182.437 -1.99348 -2.95193 0
M  V30 1907 O 181.296 -2.84699 -4.66485 0
M  V30 1908 H 178.39 -0.400083 -0.723784 0
M  V30 1909 H 180.936 -1.38916 -0.974703 0
M  V30 1910 H 179.708 -3.0008 -2.51133 0
M  V30 1911 H 179.331 -1.679 -3.6041 0
M  V30 1912 N 180.328 1.1314 -1.09713 0
M  V30 1913 C 181.574 1.84757 -0.836224 0
M  V30 1914 C 181.907 1.8347 0.636598 0
M  V30 1915 O 181.182 1.27491 1.46889 0
M  V30 1916 C 181.465 3.32782 -1.37578 0
M  V30 1917 C 181.318 3.42567 -2.91493 0
M  V30 1918 C 182.637 4.28307 -1.01198 0
M  V30 1919 H 179.756 0.67082 -0.305236 0
M  V30 1920 H 182.398 1.3278 -1.35903 0
M  V30 1921 H 180.548 3.77177 -0.931097 0
M  V30 1922 H 182.22 3.06862 -3.44432 0
M  V30 1923 H 180.463 2.83349 -3.28475 0
M  V30 1924 H 181.134 4.46674 -3.24324 0
M  V30 1925 H 183.61 3.91999 -1.39556 0
M  V30 1926 H 182.486 5.30307 -1.41653 0
M  V30 1927 H 182.747 4.42029 0.0794833 0
M  V30 1928 N 181.806 0.884767 1.30421 0
M  V30 1929 C 183.036 0.517293 2.00019 0
M  V30 1930 C 183.444 -0.898632 1.66497 0
M  V30 1931 O 182.787 -1.60245 0.898181 0
M  V30 1932 C 182.849 0.612025 3.54252 0
M  V30 1933 C 182.513 1.99222 4.1129 0
M  V30 1934 C 183.51 2.9616 4.273 0
M  V30 1935 C 181.195 2.29755 4.46674 0
M  V30 1936 C 183.189 4.21764 4.77906 0
M  V30 1937 C 180.876 3.55606 4.96979 0
M  V30 1938 C 181.874 4.51425 5.12547 0
M  V30 1939 O 181.562 5.75043 5.61766 0
M  V30 1940 H 181.294 0.198529 0.64619 0
M  V30 1941 H 183.848 1.1919 1.67281 0
M  V30 1942 H 182.078 -0.119561 3.86515 0
M  V30 1943 H 183.767 0.255859 4.05093 0
M  V30 1944 H 184.533 2.73882 4.00267 0
M  V30 1945 H 180.412 1.55942 4.33824 0
M  V30 1946 H 183.956 4.96561 4.89972 0
M  V30 1947 H 179.853 3.7772 5.23448 0
M  V30 1948 H 180.621 5.77422 5.80109 0
M  V30 1949 N 183.284 -1.43765 0.645699 0
M  V30 1950 C 184.214 -2.33471 -0.0370477 0
M  V30 1951 C 185.195 -1.49042 -0.819779 0
M  V30 1952 O 186.38 -1.77726 -0.782758 0
M  V30 1953 C 183.51 -3.32311 -1.0093 0
M  V30 1954 C 182.464 -4.2667 -0.337201 0
M  V30 1955 C 181.79 -5.1549 -1.42037 0
M  V30 1956 C 183.09 -5.16657 0.765706 0
M  V30 1957 H 184.784 -2.90809 0.712069 0
M  V30 1958 H 182.33 -1.39834 0.343876 0
M  V30 1959 H 184.283 -3.9396 -1.49578 0
M  V30 1960 H 183.007 -2.73213 -1.78948 0
M  V30 1961 H 181.666 -3.66374 0.128771 0
M  V30 1962 H 181.314 -4.52735 -2.1918 0
M  V30 1963 H 181.014 -5.79438 -0.975966 0
M  V30 1964 H 182.538 -5.80012 -1.90838 0
M  V30 1965 H 183.952 -5.72158 0.361702 0
M  V30 1966 H 182.349 -5.89286 1.13413 0
M  V30 1967 H 183.419 -4.56796 1.62683 0
M  V30 1968 N 184.763 -0.387143 -1.52771 0
M  V30 1969 C 185.988 0.198407 -2.06449 0
M  V30 1970 C 186.413 1.39918 -1.25716 0
M  V30 1971 O 185.771 1.79099 -0.281657 0
M  V30 1972 C 185.819 0.548893 -3.56398 0
M  V30 1973 O 184.923 1.64315 -3.78252 0
M  V30 1974 H 184.264 0.0237731 -0.663574 0
M  V30 1975 H 186.794 -0.553989 -1.96957 0
M  V30 1976 H 186.804 0.813812 -3.99801 0
M  V30 1977 H 185.479 -0.329005 -4.14597 0
M  V30 1978 H 184.056 1.37211 -3.46738 0
M  V30 1979 N 186.241 1.57166 -0.116904 0
M  V30 1980 C 187.469 1.99473 0.549383 0
M  V30 1981 C 187.884 0.996541 1.60357 0
M  V30 1982 O 187.241 -0.0108731 1.82497 0
M  V30 1983 C 187.292 3.41788 1.17741 0
M  V30 1984 O 187.013 4.37788 0.165362 0
M  V30 1985 C 188.514 3.99216 1.92722 0
M  V30 1986 H 185.734 0.655009 0.145616 0
M  V30 1987 H 188.278 2.03494 -0.202625 0
M  V30 1988 H 186.433 3.38713 1.88021 0
M  V30 1989 H 186.847 5.20806 0.621403 0
M  V30 1990 H 188.321 5.00882 2.31995 0
M  V30 1991 H 188.798 3.3824 2.80161 0
M  V30 1992 H 189.404 4.0583 1.27209 0
M  V30 1993 N 187.719 -0.156864 1.56817 0
M  V30 1994 C 188.968 -0.869504 1.81996 0
M  V30 1995 C 189.281 -1.82777 0.696545 0
M  V30 1996 O 190.487 -2.58384 0.833658 0
M  V30 1997 C 188.943 -1.59679 3.22538 0
M  V30 1998 C 188.551 -0.681431 4.42787 0
M  V30 1999 C 190.295 -2.2968 3.56997 0
M  V30 2000 C 188.202 -1.40978 5.74351 0
M  V30 2001 H 187.132 -0.328438 0.678708 0
M  V30 2002 H 189.783 -0.1223 1.83092 0
M  V30 2003 H 188.165 -2.38927 3.158 0
M  V30 2004 H 189.339 0.0751166 4.60739 0
M  V30 2005 H 187.654 -0.0903431 4.16302 0
M  V30 2006 H 190.251 -2.84794 4.52544 0
M  V30 2007 H 190.594 -3.05707 2.82576 0
M  V30 2008 H 191.127 -1.57361 3.65352 0
M  V30 2009 H 187.866 -0.691561 6.51842 0
M  V30 2010 H 187.386 -2.13929 5.60352 0
M  V30 2011 H 189.065 -1.95337 6.16808 0
M  V30 2012 N 189.197 -1.51736 -0.425897 0
M  V30 2013 C 190.443 -1.65214 -1.1761 0
M  V30 2014 C 190.776 -0.372778 -1.90589 0
M  V30 2015 O 190.051 0.628139 -1.84078 0
M  V30 2016 C 190.334 -2.86312 -2.18398 0
M  V30 2017 C 190.187 -4.24254 -1.49426 0
M  V30 2018 C 191.506 -3.02925 -3.19256 0
M  V30 2019 H 188.625 -0.601263 -0.426206 0
M  V30 2020 H 191.267 -1.8425 -0.463882 0
M  V30 2021 H 189.417 -2.70213 -2.79137 0
M  V30 2022 H 191.089 -4.52046 -0.919362 0
M  V30 2023 H 189.332 -4.26426 -0.796432 0
M  V30 2024 H 190.003 -5.05001 -2.22885 0
M  V30 2025 H 192.479 -3.1781 -2.68581 0
M  V30 2026 H 191.355 -3.89199 -3.8706 0
M  V30 2027 H 191.616 -2.15497 -3.86023 0
M  V30 2028 N 190.675 0.682077 -1.42076 0
M  V30 2029 C 191.903 1.47057 -1.4554 0
M  V30 2030 C 192.318 1.8869 -0.0645779 0
M  V30 2031 O 191.675 1.57666 0.919115 0
M  V30 2032 C 191.726 2.72442 -2.37609 0
M  V30 2033 O 191.447 2.32559 -3.71279 0
M  V30 2034 C 192.948 3.66069 -2.50017 0
M  V30 2035 H 190.168 0.452737 -0.495248 0
M  V30 2036 H 192.712 0.838695 -1.8651 0
M  V30 2037 H 190.867 3.31835 -1.9991 0
M  V30 2038 H 191.281 3.13475 -4.20516 0
M  V30 2039 H 192.755 4.50792 -3.18576 0
M  V30 2040 H 193.232 4.11476 -1.53572 0
M  V30 2041 H 193.838 3.12572 -2.88407 0
M  V30 2042 N 192.153 1.28127 0.917671 0
M  V30 2043 C 193.063 1.13556 2.05286 0
M  V30 2044 C 194.079 0.0630914 1.73886 0
M  V30 2045 O 195.255 0.271598 1.9956 0
M  V30 2046 C 192.32 0.794676 3.3747 0
M  V30 2047 C 191.381 1.94909 3.82504 0
M  V30 2048 C 190.614 1.62437 5.0838 0
M  V30 2049 O 190.837 0.536905 5.67867 0
M  V30 2050 O 189.771 2.46677 5.4903 0
M  V30 2051 H 193.597 2.08844 2.20495 0
M  V30 2052 H 191.182 1.07409 1.03845 0
M  V30 2053 H 193.064 0.618344 4.16839 0
M  V30 2054 H 191.739 -0.128581 3.23445 0
M  V30 2055 H 190.646 2.18055 3.03978 0
M  V30 2056 H 191.979 2.85291 4.01086 0
M  V30 2057 N 193.631 -1.12557 1.10312 0
M  V30 2058 C 194.877 -1.84515 0.855901 0
M  V30 2059 C 195.232 -1.82409 -0.611936 0
M  V30 2060 O 194.525 -1.25778 -1.44535 0
M  V30 2061 C 194.719 -3.31462 1.33669 0
M  V30 2062 C 194.548 -3.47879 2.84974 0
M  V30 2063 C 193.318 -3.61589 3.52961 0
M  V30 2064 C 195.516 -3.43152 3.83081 0
M  V30 2065 N 193.498 -3.66359 4.926 0
M  V30 2066 C 194.869 -3.54401 5.08724 0
M  V30 2067 C 196.924 -3.2661 3.75807 0
M  V30 2068 C 195.627 -3.50815 6.2795 0
M  V30 2069 C 197.653 -3.24335 4.94531 0
M  V30 2070 C 197.015 -3.36144 6.19021 0
M  V30 2071 H 193.114 -0.690967 0.366182 0
M  V30 2072 H 195.698 -1.34763 1.40524 0
M  V30 2073 H 193.869 -3.7976 0.814686 0
M  V30 2074 H 195.601 -3.91272 1.03385 0
M  V30 2075 H 192.356 -3.63652 3.03404 0
M  V30 2076 H 192.78 -3.72411 5.65366 0
M  V30 2077 H 197.422 -3.16375 2.80476 0
M  V30 2078 H 195.14 -3.5982 7.23571 0
M  V30 2079 H 198.726 -3.12719 4.9061 0
M  V30 2080 H 197.606 -3.34357 7.09348 0
M  V30 2081 N 195.109 -0.891671 -1.2995 0
M  V30 2082 C 196.057 -0.353066 -2.29905 0
M  V30 2083 C 197.051 0.543509 -1.60444 0
M  V30 2084 O 198.257 0.4272 -1.74857 0
M  V30 2085 H 194.632 -0.095531 -0.745907 0
M  V30 2086 H 196.603 -1.20961 -2.72784 0
M  V30 2087 C 195.352 0.411475 -3.45257 0
M  V30 2088 H 194.675 -0.269182 -3.98893 0
M  V30 2089 H 196.115 0.753328 -4.17254 0
M  V30 2090 C 194.574 1.6111 -2.9588 0
M  V30 2091 O 195.104 2.71045 -2.96475 0
M  V30 2092 N 193.31 1.45054 -2.51809 0
M  V30 2093 H 192.857 0.556175 -2.51524 0
M  V30 2094 H 192.815 2.25453 -2.1913 0
M  V30 2095 N 196.587 1.43421 -0.653314 0
M  V30 2096 C 197.517 2.33487 0.0246656 0
M  V30 2097 C 198.498 1.49475 0.811863 0
M  V30 2098 O 199.683 1.78139 0.773322 0
M  V30 2099 C 196.813 3.32841 0.99166 0
M  V30 2100 C 195.767 4.26842 0.314568 0
M  V30 2101 C 195.093 5.16236 1.39302 0
M  V30 2102 C 196.393 5.16243 -0.793095 0
M  V30 2103 H 198.087 2.90427 -0.727481 0
M  V30 2104 H 195.633 1.39649 -0.351287 0
M  V30 2105 H 197.586 3.94747 1.47487 0
M  V30 2106 H 196.31 2.74158 1.77497 0
M  V30 2107 H 194.969 3.663 -0.148199 0
M  V30 2108 H 194.617 4.53891 2.16776 0
M  V30 2109 H 194.317 5.79948 0.945223 0
M  V30 2110 H 195.841 5.81015 1.87759 0
M  V30 2111 H 197.255 5.71958 -0.392039 0
M  V30 2112 H 195.652 5.88676 -1.16536 0
M  V30 2113 H 196.722 4.55927 -1.65103 0
M  V30 2114 N 198.065 0.39524 1.52563 0
M  V30 2115 C 199.311 -0.185318 2.01952 0
M  V30 2116 C 199.644 -1.45964 1.28095 0
M  V30 2117 O 198.919 -1.90689 0.38315 0
M  V30 2118 C 199.202 -0.447193 3.57312 0
M  V30 2119 C 199.055 0.842828 4.41833 0
M  V30 2120 C 200.374 -1.23529 4.22408 0
M  V30 2121 H 197.493 -0.0658788 0.73405 0
M  V30 2122 H 200.135 0.525975 1.82575 0
M  V30 2123 H 198.285 -1.05312 3.73954 0
M  V30 2124 H 199.957 1.4795 4.36931 0
M  V30 2125 H 198.2 1.45686 4.08605 0
M  V30 2126 H 198.871 0.614165 5.48573 0
M  V30 2127 H 201.347 -0.722445 4.0978 0
M  V30 2128 H 200.223 -1.38727 5.3108 0
M  V30 2129 H 200.484 -2.25213 3.80436 0
M  V30 2130 N 199.544 -1.57102 0.125237 0
M  V30 2131 C 200.784 -1.97294 -0.534259 0
M  V30 2132 C 201.148 -1.0074 -1.63449 0
M  V30 2133 O 202.349 -1.29893 -2.35332 0
M  V30 2134 C 200.62 -3.41705 -1.04748 0
M  V30 2135 S 202.179 -4.03913 -1.71463 0
M  V30 2136 H 198.997 -0.689517 -0.173458 0
M  V30 2137 H 201.599 -1.94349 0.211797 0
M  V30 2138 H 200.303 -4.09723 -0.235649 0
M  V30 2139 H 199.834 -3.48315 -1.82867 0
M  V30 2140 H 201.849 -3.95182 -3.00077 0
M  V30 2141 N 201.022 0.148545 -1.56898 0
M  V30 2142 C 201.932 1.20293 -2.01412 0
M  V30 2143 C 202.948 1.47107 -0.929273 0
M  V30 2144 O 204.124 1.58807 -1.23863 0
M  V30 2145 C 201.189 2.51682 -2.38447 0
M  V30 2146 C 200.25 2.32529 -3.60872 0
M  V30 2147 C 199.483 3.57653 -3.96132 0
M  V30 2148 O 199.706 4.63771 -3.32073 0
M  V30 2149 O 198.64 3.50408 -4.89385 0
M  V30 2150 H 202.466 0.855025 -2.91416 0
M  V30 2151 H 200.051 0.357151 -1.45068 0
M  V30 2152 H 201.933 3.29147 -2.63135 0
M  V30 2153 H 200.608 2.86006 -1.51599 0
M  V30 2154 H 199.515 1.53019 -3.41373 0
M  V30 2155 H 200.848 2.03121 -4.48333 0
M  V30 2156 N 202.5 1.5196 0.417844 0
M  V30 2157 C 203.777 1.56146 1.17803 0
M  V30 2158 C 204.157 0.337275 2.08388 0
M  V30 2159 O 203.505 -0.676447 2.18258 0
M  V30 2160 C 203.715 2.88566 1.96293 0
M  V30 2161 C 205.063 3.41244 2.52662 0
M  V30 2162 O 206.087 2.90247 2.06483 0
M  V30 2163 O 204.946 4.30273 3.36938 0
M  V30 2164 H 202.04 0.628598 0.537395 0
M  V30 2165 H 204.586 1.64283 0.425331 0
M  V30 2166 H 203.358 3.69116 1.2988 0
M  V30 2167 H 202.981 2.83681 2.78587 0
M  V30 2168 N 203.978 -0.674533 1.42435 0
M  V30 2169 C 205.255 -1.4305 1.33402 0
M  V30 2170 C 205.635 -2.11081 -0.0284674 0
M  V30 2171 O 204.983 -2.03257 -1.04397 0
M  V30 2172 C 205.193 -2.43272 2.50239 0
M  V30 2173 C 206.541 -3.07907 2.92367 0
M  V30 2174 O 207.565 -2.53599 2.50132 0
M  V30 2175 O 206.424 -4.0632 3.65467 0
M  V30 2176 H 203.518 -0.638076 0.526106 0
M  V30 2177 H 206.064 -0.703235 1.54443 0
M  V30 2178 H 204.836 -1.91803 3.41068 0
M  V30 2179 H 204.459 -3.23479 2.31186 0
M  V30 2180 N 205.456 -1.28612 -0.910864 0
M  V30 2181 C 206.702 -1.17116 -1.66299 0
M  V30 2182 C 207.057 0.276917 -1.90397 0
M  V30 2183 O 206.35 1.19795 -1.49532 0
M  V30 2184 C 206.544 -1.90624 -3.0232 0
M  V30 2185 C 206.373 -3.42431 -2.91498 0
M  V30 2186 C 205.143 -4.11773 -2.92867 0
M  V30 2187 C 207.341 -4.38124 -2.69355 0
M  V30 2188 N 205.323 -5.50025 -2.72664 0
M  V30 2189 C 206.694 -5.63759 -2.58023 0
M  V30 2190 C 208.749 -4.28016 -2.54375 0
M  V30 2191 C 207.452 -6.80436 -2.33238 0
M  V30 2192 C 209.478 -5.44433 -2.30969 0
M  V30 2193 C 208.84 -6.69034 -2.20394 0
M  V30 2194 H 204.939 -0.483506 -0.61461 0
M  V30 2195 H 207.523 -1.62299 -1.0755 0
M  V30 2196 H 205.694 -1.4787 -3.5915 0
M  V30 2197 H 207.426 -1.71488 -3.66571 0
M  V30 2198 H 204.181 -3.63378 -3.03732 0
M  V30 2199 H 204.605 -6.22705 -2.65646 0
M  V30 2200 H 209.247 -3.32388 -2.613 0
M  V30 2201 H 206.965 -7.7613 -2.25051 0
M  V30 2202 H 210.551 -5.38504 -2.20238 0
M  V30 2203 H 209.431 -7.57595 -2.02531 0
M  V30 2204 N 206.934 1.1197 -1.10907 0
M  V30 2205 C 207.881 2.17846 -0.762345 0
M  V30 2206 C 208.851 1.63995 0.263599 0
M  V30 2207 O 210.036 1.90273 0.141773 0
M  V30 2208 C 207.176 3.44487 -0.205651 0
M  V30 2209 C 206.289 4.12369 -1.28748 0
M  V30 2210 C 205.424 5.26674 -0.691919 0
M  V30 2211 C 204.463 5.86431 -1.75399 0
M  V30 2212 N 203.6 6.92142 -1.17833 0
M  V30 2213 H 208.44 2.46851 -1.6694 0
M  V30 2214 H 205.977 1.21188 -0.833776 0
M  V30 2215 H 207.935 4.16981 0.135037 0
M  V30 2216 H 206.565 3.15884 0.664613 0
M  V30 2217 H 205.617 3.38003 -1.74522 0
M  V30 2218 H 206.929 4.52844 -2.09125 0
M  V30 2219 H 206.083 6.05953 -0.300963 0
M  V30 2220 H 204.822 4.8749 0.143232 0
M  V30 2221 H 203.827 5.05835 -2.15432 0
M  V30 2222 H 205.052 6.27685 -2.59208 0
M  V30 2223 H 202.998 6.54985 -0.364725 0
M  V30 2224 H 202.915 7.31242 -1.91887 0
M  V30 2225 H 204.183 7.75237 -0.81408 0
M  V30 2226 N 208.412 0.89855 1.29475 0
M  V30 2227 C 209.375 0.380272 2.26023 0
M  V30 2228 C 210.375 -0.484891 1.53315 0
M  V30 2229 O 211.565 -0.290108 1.71767 0
M  V30 2230 C 208.697 -0.45651 3.3783 0
M  V30 2231 H 209.89 1.23295 2.73383 0
M  V30 2232 H 207.443 0.676589 1.40897 0
M  V30 2233 H 208.178 -1.32922 2.95808 0
M  V30 2234 H 207.963 0.163393 3.91759 0
M  V30 2235 H 209.453 -0.810466 4.0966 0
M  V30 2236 N 209.89 -1.43072 0.660911 0
M  V30 2237 C 211.301 -1.84932 0.256348 0
M  V30 2238 C 211.652 -1.55325 -1.19868 0
M  V30 2239 O 210.777 -1.00607 -1.91591 0
M  V30 2240 C 211.372 -3.35684 0.458475 0
M  V30 2241 C 209.931 -3.76245 0.108161 0
M  V30 2242 C 209.078 -2.66749 0.757641 0
M  V30 2243 H 212.029 -1.33116 0.864051 0
M  V30 2244 H 212.05 -3.79365 -0.293683 0
M  V30 2245 H 211.562 -3.572 1.51755 0
M  V30 2246 H 209.663 -3.60338 -0.948014 0
M  V30 2247 H 209.776 -4.76058 0.538992 0
M  V30 2248 H 208.14 -2.53989 0.190185 0
M  V30 2249 H 208.923 -2.91092 1.81989 0
M  V30 2250 N 211.368 -0.403325 -1.52352 0
M  V30 2251 C 212.298 0.416205 -2.29761 0
M  V30 2252 C 213.279 1.05123 -1.33728 0
M  V30 2253 O 214.464 1.06134 -1.62632 0
M  V30 2254 C 211.594 1.53624 -3.11475 0
M  V30 2255 C 210.548 1.02653 -4.15507 0
M  V30 2256 C 209.874 2.23971 -4.85532 0
M  V30 2257 C 211.174 0.08463 -5.22231 0
M  V30 2258 H 212.868 -0.229701 -2.98518 0
M  V30 2259 H 210.414 -0.111913 -1.43564 0
M  V30 2260 H 212.367 2.1165 -3.64393 0
M  V30 2261 H 211.091 2.20994 -2.40477 0
M  V30 2262 H 209.75 0.46871 -3.63591 0
M  V30 2263 H 209.398 2.89883 -4.11068 0
M  V30 2264 H 209.098 1.90521 -5.55856 0
M  V30 2265 H 210.622 2.82614 -5.41259 0
M  V30 2266 H 212.036 0.573509 -5.70424 0
M  V30 2267 H 210.433 -0.160783 -5.99885 0
M  V30 2268 H 211.503 -0.86237 -4.7717 0
M  V30 2269 N 212.846 1.57033 -0.133567 0
M  V30 2270 C 214.074 2.00044 0.528195 0
M  V30 2271 C 214.489 1.01349 1.59291 0
M  V30 2272 O 213.846 0.00848369 1.82498 0
M  V30 2273 C 213.897 3.43018 1.1411 0
M  V30 2274 O 213.618 4.37939 0.11892 0
M  V30 2275 C 215.119 4.01237 1.88477 0
M  V30 2276 H 212.339 0.656517 0.138661 0
M  V30 2277 H 214.883 2.03267 -0.224196 0
M  V30 2278 H 213.038 3.40688 1.84418 0
M  V30 2279 H 213.452 5.21436 0.56613 0
M  V30 2280 H 214.926 5.03314 2.26669 0
M  V30 2281 H 215.403 3.41193 2.76558 0
M  V30 2282 H 216.009 4.07156 1.22898 0
M  V30 2283 N 214.325 -0.140222 1.56975 0
M  V30 2284 C 215.574 -0.850152 1.82908 0
M  V30 2285 C 215.887 -1.82028 0.715892 0
M  V30 2286 O 217.093 -2.57485 0.861016 0
M  V30 2287 C 215.549 -1.5625 3.24213 0
M  V30 2288 C 215.157 -0.63443 4.43485 0
M  V30 2289 C 216.901 -2.25881 3.59413 0
M  V30 2290 C 214.808 -1.34879 5.75814 0
M  V30 2291 H 213.738 -0.321221 0.682153 0
M  V30 2292 H 216.389 -0.102874 1.83211 0
M  V30 2293 H 214.771 -2.35565 3.18316 0
M  V30 2294 H 215.945 0.12398 4.60633 0
M  V30 2295 H 214.26 -0.0461836 4.16374 0
M  V30 2296 H 216.857 -2.79978 4.5554 0
M  V30 2297 H 217.2 -3.02693 2.85802 0
M  V30 2298 H 217.733 -1.53477 3.67001 0
M  V30 2299 H 214.472 -0.622385 6.52539 0
M  V30 2300 H 213.992 -2.07974 5.6259 0
M  V30 2301 H 215.671 -1.88784 6.18845 0
M  V30 2302 N 215.803 -1.52179 -0.40978 0
M  V30 2303 C 217.028 -1.70347 -1.18308 0
M  V30 2304 C 217.453 -0.411887 -1.83535 0
M  V30 2305 O 216.811 0.630587 -1.6998 0
M  V30 2306 C 216.859 -2.83977 -2.22238 0
M  V30 2307 O 215.963 -2.495 -3.28365 0
M  V30 2308 H 215.304 -0.567103 -0.345384 0
M  V30 2309 H 217.834 -1.98879 -0.480445 0
M  V30 2310 H 217.844 -3.0887 -2.66577 0
M  V30 2311 H 216.519 -3.77685 -1.74146 0
M  V30 2312 H 215.096 -2.35277 -2.89308 0
M  V30 2313 N 217.281 0.66697 -1.42791 0
M  V30 2314 C 218.211 1.79218 -1.49677 0
M  V30 2315 C 219.192 1.66405 -0.352623 0
M  V30 2316 O 220.377 1.85708 -0.567993 0
M  V30 2317 C 217.507 3.17565 -1.40605 0
M  V30 2318 C 216.461 3.45124 -2.53127 0
M  V30 2319 C 215.787 4.83127 -2.29112 0
M  V30 2320 C 217.087 3.41236 -3.95418 0
M  V30 2321 H 218.781 1.73713 -2.43853 0
M  V30 2322 H 216.327 0.83432 -1.17367 0
M  V30 2323 H 218.28 3.96022 -1.44029 0
M  V30 2324 H 217.004 3.23767 -0.429271 0
M  V30 2325 H 215.663 2.69031 -2.49034 0
M  V30 2326 H 215.311 4.85988 -1.29709 0
M  V30 2327 H 215.011 5.02528 -3.04531 0
M  V30 2328 H 216.535 5.63859 -2.34297 0
M  V30 2329 H 217.949 4.09651 -4.01073 0
M  V30 2330 H 216.346 3.72173 -4.70752 0
M  V30 2331 H 217.416 2.39665 -4.21532 0
M  V30 2332 N 218.759 1.29093 0.90403 0
M  V30 2333 C 220.006 1.16813 1.65411 0
M  V30 2334 C 220.334 -0.28128 1.92455 0
M  V30 2335 O 219.589 -1.22006 1.53013 0
M  V30 2336 C 219.888 1.92224 3.01305 0
M  V30 2337 C 219.554 3.41968 2.93885 0
M  V30 2338 C 218.216 3.82807 2.91569 0
M  V30 2339 C 220.568 4.37409 2.83413 0
M  V30 2340 C 217.896 5.1741 2.76594 0
M  V30 2341 C 220.248 5.72097 2.69977 0
M  V30 2342 C 218.912 6.12199 2.66024 0
M  V30 2343 H 218.182 0.42745 0.605283 0
M  V30 2344 H 220.829 1.59981 1.05254 0
M  V30 2345 H 219.134 1.41635 3.65304 0
M  V30 2346 H 220.831 1.80131 3.58265 0
M  V30 2347 H 217.421 3.09504 2.96488 0
M  V30 2348 H 221.605 4.06813 2.84283 0
M  V30 2349 H 216.861 5.47596 2.71935 0
M  V30 2350 H 221.035 6.45704 2.60844 0
M  V30 2351 H 218.662 7.16448 2.54178 0
M  V30 2352 N 220.237 -1.11381 1.11499 0
M  V30 2353 C 221.484 -1.83132 0.864231 0
M  V30 2354 C 221.812 -1.84683 -0.610114 0
M  V30 2355 O 221.067 -1.29589 -1.46646 0
M  V30 2356 C 221.366 -3.30026 1.37177 0
M  V30 2357 C 221.032 -3.48634 2.85946 0
M  V30 2358 C 219.694 -3.53421 3.26569 0
M  V30 2359 C 222.046 -3.54837 3.81759 0
M  V30 2360 C 219.374 -3.61967 4.61733 0
M  V30 2361 C 221.726 -3.64915 5.1674 0
M  V30 2362 C 220.39 -3.67962 5.5692 0
M  V30 2363 H 219.66 -0.670127 0.316245 0
M  V30 2364 H 222.307 -1.31354 1.3935 0
M  V30 2365 H 220.612 -3.84304 0.762753 0
M  V30 2366 H 222.309 -3.84034 1.15408 0
M  V30 2367 H 218.899 -3.45579 2.53521 0
M  V30 2368 H 223.083 -3.50399 3.51474 0
M  V30 2369 H 218.339 -3.62603 4.92269 0
M  V30 2370 H 222.513 -3.68658 5.90816 0
M  V30 2371 H 220.14 -3.74336 6.61647 0
M  V30 2372 N 221.715 -0.905404 -1.28997 0
M  V30 2373 C 222.961 -0.535039 -1.95615 0
M  V30 2374 C 223.294 0.917404 -1.71165 0
M  V30 2375 O 222.569 1.65123 -1.02785 0
M  V30 2376 C 222.852 -0.834918 -3.50287 0
M  V30 2377 C 222.705 -2.33948 -3.84172 0
M  V30 2378 C 224.024 -0.325318 -4.38896 0
M  V30 2379 H 221.143 -0.195861 -0.710498 0
M  V30 2380 H 223.785 -1.13313 -1.52513 0
M  V30 2381 H 221.935 -0.325904 -3.87131 0
M  V30 2382 H 223.607 -2.91847 -3.57243 0
M  V30 2383 H 221.85 -2.79789 -3.31513 0
M  V30 2384 H 222.521 -2.49987 -4.92149 0
M  V30 2385 H 224.997 -0.761256 -4.09077 0
M  V30 2386 H 223.873 -0.564295 -5.45992 0
M  V30 2387 H 224.134 0.774144 -4.35269 0
M  V30 2388 N 223.193 1.4272 -0.668489 0
M  V30 2389 C 224.441 2.01226 -0.187769 0
M  V30 2390 C 224.762 1.53092 1.2078 0
M  V30 2391 O 224.032 0.74993 1.80977 0
M  V30 2392 H 222.612 0.744041 -0.0664272 0
M  V30 2393 H 225.274 1.74723 -0.863583 0
M  V30 2394 H 224.37 3.11556 -0.184166 0
M  V30 2395 N 224.671 0.411399 1.52136 0
M  V30 2396 C 225.917 -0.163888 2.02137 0
M  V30 2397 C 226.25 -1.44597 1.29636 0
M  V30 2398 O 225.525 -1.90272 0.403353 0
M  V30 2399 C 225.808 -0.40927 3.57767 0
M  V30 2400 C 225.661 0.889643 4.40914 0
M  V30 2401 C 226.98 -1.19042 4.23694 0
M  V30 2402 H 224.099 -0.0580896 0.734707 0
M  V30 2403 H 226.741 0.54531 1.82007 0
M  V30 2404 H 224.891 -1.0134 3.7505 0
M  V30 2405 H 226.563 1.52575 4.35337 0
M  V30 2406 H 224.806 1.50011 4.07037 0
M  V30 2407 H 225.477 0.672314 5.4789 0
M  V30 2408 H 227.953 -0.678942 4.10524 0
M  V30 2409 H 226.829 -1.33086 5.32522 0
M  V30 2410 H 227.09 -2.21166 3.82803 0
M  V30 2411 N 226.149 -1.5696 0.141893 0
M  V30 2412 C 227.079 -2.19516 -0.795936 0
M  V30 2413 C 228.06 -1.14187 -1.26077 0
M  V30 2414 O 229.245 -1.42511 -1.31925 0
M  V30 2415 C 226.375 -2.81272 -2.03723 0
M  V30 2416 C 225.329 -3.92384 -1.70936 0
M  V30 2417 C 224.655 -4.41052 -3.02287 0
M  V30 2418 C 225.955 -5.13403 -0.959954 0
M  V30 2419 H 227.649 -2.98138 -0.274596 0
M  V30 2420 H 225.195 -1.43406 -0.130636 0
M  V30 2421 H 227.148 -3.237 -2.69808 0
M  V30 2422 H 225.872 -1.99973 -2.58221 0
M  V30 2423 H 224.531 -3.50566 -1.07232 0
M  V30 2424 H 224.179 -3.56582 -3.54765 0
M  V30 2425 H 223.879 -5.15993 -2.81114 0
M  V30 2426 H 225.403 -4.86146 -3.69451 0
M  V30 2427 H 226.817 -5.52706 -1.52279 0
M  V30 2428 H 225.214 -5.94073 -0.848357 0
M  V30 2429 H 226.284 -4.84875 0.0492434 0
M  V30 2430 N 227.627 0.131896 -1.57047 0
M  V30 2431 C 228.557 1.16384 -2.02428 0
M  V30 2432 C 229.538 1.43936 -0.90644 0
M  V30 2433 O 230.723 1.54599 -1.17528 0
M  V30 2434 C 227.853 2.49328 -2.4177 0
M  V30 2435 C 226.807 2.36266 -3.56879 0
M  V30 2436 C 226.133 3.74057 -3.8208 0
M  V30 2437 C 227.433 1.834 -4.89042 0
M  V30 2438 H 229.127 0.786433 -2.88887 0
M  V30 2439 H 226.673 0.376855 -1.38981 0
M  V30 2440 H 228.626 3.21759 -2.7212 0
M  V30 2441 H 227.35 2.88934 -1.52266 0
M  V30 2442 H 226.009 1.66286 -3.26718 0
M  V30 2443 H 225.657 4.11125 -2.89803 0
M  V30 2444 H 225.357 3.66174 -4.59554 0
M  V30 2445 H 226.881 4.48012 -4.1487 0
M  V30 2446 H 228.295 2.45636 -5.18011 0
M  V30 2447 H 226.692 1.8637 -5.70426 0
M  V30 2448 H 227.762 0.790662 -4.7841 0
M  V30 2449 N 229.106 1.52395 0.401703 0
M  V30 2450 C 230.354 1.66488 1.14569 0
M  V30 2451 C 230.675 0.400897 1.90835 0
M  V30 2452 O 229.945 -0.584415 1.8698 0
M  V30 2453 H 228.525 0.613672 0.425929 0
M  V30 2454 H 231.187 1.89464 0.457093 0
M  V30 2455 H 230.283 2.50942 1.85566 0
M  V30 2456 N 230.584 -0.659388 1.43143 0
M  V30 2457 C 231.809 -1.45221 1.48073 0
M  V30 2458 C 232.234 -1.87845 0.097995 0
M  V30 2459 O 231.592 -1.56985 -0.90694 0
M  V30 2460 C 231.64 -2.66748 2.42647 0
M  V30 2461 O 230.744 -3.65583 1.90848 0
M  V30 2462 H 230.085 -0.435669 0.501088 0
M  V30 2463 H 232.615 -0.807432 1.87994 0
M  V30 2464 H 232.625 -3.14637 2.59745 0
M  V30 2465 H 231.3 -2.35067 3.43098 0
M  V30 2466 H 229.877 -3.24693 1.83381 0
M  V30 2467 N 232.062 -1.29571 -0.897171 0
M  V30 2468 C 233.309 -1.17689 -1.6479 0
M  V30 2469 C 233.637 0.27107 -1.92602 0
M  V30 2470 O 232.892 1.21193 -1.53658 0
M  V30 2471 C 233.191 -1.9382 -3.00281 0
M  V30 2472 C 232.857 -3.43522 -2.92068 0
M  V30 2473 C 231.519 -3.84348 -2.89535 0
M  V30 2474 C 233.871 -4.38906 -2.81089 0
M  V30 2475 C 231.199 -5.18869 -2.73846 0
M  V30 2476 C 233.551 -5.73521 -2.66939 0
M  V30 2477 C 232.215 -6.13601 -2.62774 0
M  V30 2478 H 231.485 -0.430654 -0.603008 0
M  V30 2479 H 234.132 -1.60536 -1.04404 0
M  V30 2480 H 232.437 -1.4357 -3.64547 0
M  V30 2481 H 234.134 -1.82028 -3.57305 0
M  V30 2482 H 230.724 -3.11072 -2.94842 0
M  V30 2483 H 234.908 -4.08315 -2.82121 0
M  V30 2484 H 230.164 -5.4903 -2.69027 0
M  V30 2485 H 234.338 -6.47078 -2.57416 0
M  V30 2486 H 231.965 -7.17786 -2.50375 0
M  V30 2487 N 233.54 1.10788 -1.12088 0
M  V30 2488 C 234.789 1.82036 -0.868659 0
M  V30 2489 C 235.102 1.85929 0.607426 0
M  V30 2490 O 236.308 2.53346 0.97613 0
M  V30 2491 C 234.764 3.26951 -1.50435 0
M  V30 2492 C 234.372 3.31367 -3.01496 0
M  V30 2493 C 236.116 4.03053 -1.33225 0
M  V30 2494 C 234.023 4.7072 -3.58017 0
M  V30 2495 H 232.953 0.682108 -0.321318 0
M  V30 2496 H 235.604 1.24618 -1.34694 0
M  V30 2497 H 233.986 3.84343 -0.953735 0
M  V30 2498 H 235.16 2.83819 -3.6302 0
M  V30 2499 H 233.475 2.6875 -3.18061 0
M  V30 2500 H 236.072 5.05981 -1.72878 0
M  V30 2501 H 236.415 4.15387 -0.275529 0
M  V30 2502 H 236.948 3.52066 -1.85188 0
M  V30 2503 H 233.687 4.63585 -4.63432 0
M  V30 2504 H 233.207 5.1865 -3.01268 0
M  V30 2505 H 234.886 5.39685 -3.56859 0
M  V30 2506 N 235.018 0.912232 1.28515 0
M  V30 2507 C 236.243 0.559774 1.99703 0
M  V30 2508 C 236.668 -0.851393 1.67729 0
M  V30 2509 O 236.026 -1.56875 0.908834 0
M  V30 2510 C 236.074 0.773874 3.52198 0
M  V30 2511 O 235.178 -0.167842 4.12058 0
M  V30 2512 H 234.519 0.21723 0.627461 0
M  V30 2513 H 237.049 1.22725 1.63706 0
M  V30 2514 H 237.059 0.683386 4.02236 0
M  V30 2515 H 235.734 1.80261 3.74805 0
M  V30 2516 H 234.311 -0.0287509 3.72889 0
M  V30 2517 N 236.496 -1.42363 0.676048 0
M  V30 2518 C 237.744 -2.01123 0.198437 0
M  V30 2519 C 238.065 -1.53731 -1.19966 0
M  V30 2520 O 237.335 -0.759518 -1.80577 0
M  V30 2521 H 235.915 -0.743678 0.0703721 0
M  V30 2522 H 238.577 -1.74263 0.872837 0
M  V30 2523 H 237.673 -3.11454 0.200686 0
M  V30 2524 N 237.974 -0.419461 -1.51915 0
M  V30 2525 C 238.906 0.43646 -2.25006 0
M  V30 2526 C 239.919 1.00149 -1.28351 0
M  V30 2527 O 241.108 0.898674 -1.54227 0
M  V30 2528 C 238.208 1.6206 -2.9764 0
M  V30 2529 C 237.381 1.17763 -4.21249 0
M  V30 2530 C 236.44 2.22985 -4.76617 0
M  V30 2531 O 235.466 1.83151 -5.38929 0
M  V30 2532 N 236.668 3.55271 -4.59089 0
M  V30 2533 H 239.433 -0.18989 -2.99098 0
M  V30 2534 H 236.994 -0.247386 -1.59999 0
M  V30 2535 H 238.986 2.32038 -3.31573 0
M  V30 2536 H 237.556 2.15266 -2.2667 0
M  V30 2537 H 236.776 0.305582 -3.93014 0
M  V30 2538 H 238.064 0.858781 -5.015 0
M  V30 2539 H 237.462 3.90377 -4.09417 0
M  V30 2540 H 236.019 4.21195 -4.97432 0
M  V30 2541 N 239.452 1.56882 -0.150215 0
M  V30 2542 C 240.382 2.19935 0.784284 0
M  V30 2543 C 241.363 1.14854 1.25469 0
M  V30 2544 O 242.548 1.43209 1.31168 0
M  V30 2545 C 239.678 2.82349 2.02229 0
M  V30 2546 C 238.632 3.93285 1.68853 0
M  V30 2547 C 237.958 4.42649 2.99944 0
M  V30 2548 C 239.258 5.13904 0.932714 0
M  V30 2549 H 240.952 2.9828 0.258781 0
M  V30 2550 H 238.498 1.43473 0.123029 0
M  V30 2551 H 240.451 3.25126 2.68088 0
M  V30 2552 H 239.175 2.0134 2.57157 0
M  V30 2553 H 237.834 3.5113 1.05371 0
M  V30 2554 H 237.482 3.58458 3.52869 0
M  V30 2555 H 237.182 5.17476 2.78374 0
M  V30 2556 H 238.706 4.88099 3.66868 0
M  V30 2557 H 240.12 5.53506 1.49345 0
M  V30 2558 H 238.517 5.94515 0.81684 0
M  V30 2559 H 239.587 4.84842 -0.0749568 0
M  V30 2560 N 240.93 -0.123565 1.57115 0
M  V30 2561 C 242.155 -0.850398 1.89164 0
M  V30 2562 C 242.58 -1.7286 0.741688 0
M  V30 2563 O 241.938 -1.78665 -0.307958 0
M  V30 2564 C 241.986 -1.66353 3.19936 0
M  V30 2565 O 241.09 -2.77004 3.0552 0
M  V30 2566 H 240.431 -0.235454 0.620852 0
M  V30 2567 H 242.961 -0.107335 2.04318 0
M  V30 2568 H 242.971 -2.05372 3.52543 0
M  V30 2569 H 241.646 -1.01881 4.03228 0
M  V30 2570 H 240.223 -2.41221 2.84371 0
M  V30 2571 N 242.408 -1.52605 -0.393616 0
M  V30 2572 C 243.685 -1.58001 -1.15304 0
M  V30 2573 C 244.065 -0.370385 -2.07825 0
M  V30 2574 O 243.413 0.641638 -2.19306 0
M  V30 2575 C 243.623 -2.91652 -1.91677 0
M  V30 2576 C 244.971 -3.4522 -2.47201 0
M  V30 2577 O 245.995 -2.93495 -2.01839 0
M  V30 2578 O 244.854 -4.35579 -3.3005 0
M  V30 2579 H 241.948 -0.637068 -0.527327 0
M  V30 2580 H 244.494 -1.64939 -0.399141 0
M  V30 2581 H 243.266 -3.71136 -1.23992 0
M  V30 2582 H 242.889 -2.88077 -2.74039 0
M  V30 2583 N 243.887 0.651787 -1.4349 0
M  V30 2584 C 245.303 0.96762 -1.26922 0
M  V30 2585 C 245.503 2.00602 -0.189982 0
M  V30 2586 O 244.559 2.48793 0.431107 0
M  V30 2587 C 245.872 1.45052 -2.63401 0
M  V30 2588 C 247.42 1.5671 -2.70945 0
M  V30 2589 C 247.895 2.0839 -4.07845 0
M  V30 2590 N 249.386 2.1569 -4.09917 0
M  V30 2591 C 250.121 2.56804 -5.12679 0
M  V30 2592 N 249.617 2.97203 -6.25813 0
M  V30 2593 N 251.41 2.56756 -5.00033 0
M  V30 2594 H 243.561 -0.0353158 -2.12371 0
M  V30 2595 H 245.824 0.0467858 -0.946845 0
M  V30 2596 H 245.53 0.761926 -3.43348 0
M  V30 2597 H 245.404 2.42529 -2.88894 0
M  V30 2598 H 247.791 2.2467 -1.9133 0
M  V30 2599 H 247.872 0.57662 -2.49216 0
M  V30 2600 H 247.516 1.41031 -4.87927 0
M  V30 2601 H 247.446 3.08271 -4.26938 0
M  V30 2602 H 249.937 1.87237 -3.28254 0
M  V30 2603 H 250.25 3.27328 -7.00055 0
M  V30 2604 H 248.595 2.95004 -6.29283 0
M  V30 2605 H 251.786 2.24572 -4.10713 0
M  V30 2606 H 251.959 2.88475 -5.80247 0
M  V30 2607 N 245.365 1.30045 0.890287 0
M  V30 2608 C 246.612 1.18561 1.64163 0
M  V30 2609 C 246.94 -0.260852 1.92743 0
M  V30 2610 O 246.195 -1.20376 1.54299 0
M  V30 2611 C 246.494 1.95409 2.99249 0
M  V30 2612 C 246.16 3.45066 2.90242 0
M  V30 2613 C 244.822 3.85878 2.87492 0
M  V30 2614 C 247.174 4.4039 2.78758 0
M  V30 2615 C 244.502 5.20314 2.7109 0
M  V30 2616 C 246.854 5.74928 2.63894 0
M  V30 2617 C 245.518 6.14986 2.59516 0
M  V30 2618 H 244.788 0.433846 0.600715 0
M  V30 2619 H 247.435 1.61088 1.03552 0
M  V30 2620 H 245.74 1.45501 3.63781 0
M  V30 2621 H 247.437 1.8392 3.56334 0
M  V30 2622 H 244.027 3.12631 2.93189 0
M  V30 2623 H 248.211 4.09806 2.79952 0
M  V30 2624 H 243.467 5.50449 2.66112 0
M  V30 2625 H 247.641 6.48434 2.53981 0
M  V30 2626 H 245.268 7.19104 2.46565 0
M  V30 2627 N 246.843 -1.10192 1.12674 0
M  V30 2628 C 248.091 -1.81845 0.881861 0
M  V30 2629 C 248.412 -1.85737 -0.593867 0
M  V30 2630 O 247.682 -1.33724 -1.4316 0
M  V30 2631 H 246.262 -0.673432 0.323261 0
M  V30 2632 H 248.924 -1.33316 1.42172 0
M  V30 2633 H 248.02 -2.85288 1.2656 0
M  V30 2634 N 248.321 -0.919034 -1.28029 0
M  V30 2635 C 249.737 -0.617972 -1.4715 0
M  V30 2636 C 249.937 0.835242 -1.83374 0
M  V30 2637 O 248.993 1.61388 -1.94191 0
M  V30 2638 C 250.306 -1.56041 -2.57044 0
M  V30 2639 C 251.854 -1.56769 -2.7091 0
M  V30 2640 C 252.329 -2.49688 -3.83953 0
M  V30 2641 N 253.82 -2.47845 -3.91314 0
M  V30 2642 C 254.555 -3.16437 -4.78179 0
M  V30 2643 N 254.051 -3.94376 -5.69596 0
M  V30 2644 N 255.844 -3.05498 -4.71834 0
M  V30 2645 H 247.995 -1.85866 -1.02798 0
M  V30 2646 H 250.258 -0.797506 -0.512531 0
M  V30 2647 H 249.964 -2.59671 -2.372 0
M  V30 2648 H 249.838 -1.29551 -3.54255 0
M  V30 2649 H 252.225 -0.538745 -2.90141 0
M  V30 2650 H 252.306 -1.87305 -1.74214 0
M  V30 2651 H 251.95 -3.52688 -3.65477 0
M  V30 2652 H 251.88 -2.16453 -4.80058 0
M  V30 2653 H 254.371 -1.91234 -3.25941 0
M  V30 2654 H 254.684 -4.43721 -6.32718 0
M  V30 2655 H 253.029 -3.98481 -5.69419 0
M  V30 2656 H 256.22 -2.44108 -3.99411 0
M  V30 2657 H 256.393 -3.59225 -5.39316 0
M  V30 2658 N 249.799 1.42003 -0.683588 0
M  V30 2659 C 250.746 2.30798 -0.0107309 0
M  V30 2660 C 251.716 1.4645 0.783688 0
M  V30 2661 O 252.901 1.75263 0.754156 0
M  V30 2662 C 250.041 3.3238 0.928306 0
M  V30 2663 C 249.154 4.31814 0.126776 0
M  V30 2664 C 248.289 5.20468 1.06236 0
M  V30 2665 C 247.328 6.11577 0.253035 0
M  V30 2666 N 246.465 6.92754 1.14179 0
M  V30 2667 H 251.305 2.8778 -0.773727 0
M  V30 2668 H 248.842 1.41745 -0.393283 0
M  V30 2669 H 250.8 3.89813 1.48666 0
M  V30 2670 H 249.43 2.76976 1.65783 0
M  V30 2671 H 248.482 3.76427 -0.54833 0
M  V30 2672 H 249.794 4.96276 -0.501192 0
M  V30 2673 H 248.948 5.82677 1.69035 0
M  V30 2674 H 247.687 4.56204 1.7242 0
M  V30 2675 H 246.692 5.48428 -0.388108 0
M  V30 2676 H 247.917 6.77892 -0.404839 0
M  V30 2677 H 245.863 6.3111 1.78987 0
M  V30 2678 H 245.78 7.53855 0.569111 0
M  V30 2679 H 247.048 7.59441 1.75697 0
M  V30 2680 N 251.277 0.427512 1.51691 0
M  V30 2681 C 252.225 -0.403359 2.29076 0
M  V30 2682 C 253.219 -1.02962 1.34518 0
M  V30 2683 O 254.425 -0.965715 1.51901 0
M  V30 2684 H 250.8 -0.148879 0.737115 0
M  V30 2685 H 252.771 0.270295 2.97173 0
M  V30 2686 C 251.52 -1.49763 3.13794 0
M  V30 2687 H 250.843 -1.02508 3.86435 0
M  V30 2688 H 252.283 -2.05244 3.71014 0
M  V30 2689 C 250.742 -2.47536 2.28533 0
M  V30 2690 O 251.272 -3.51848 1.93819 0
M  V30 2691 N 249.478 -2.18187 1.91945 0
M  V30 2692 H 249.025 -1.33389 2.20375 0
M  V30 2693 H 248.983 -2.83848 1.35195 0
M  V30 2694 N 252.755 -1.56801 0.158532 0
M  V30 2695 C 254.001 -1.96781 -0.490405 0
M  V30 2696 C 254.334 -1.04397 -1.63753 0
M  V30 2697 O 253.609 -0.0885805 -1.94298 0
M  V30 2698 C 253.892 -3.4635 -0.985594 0
M  V30 2699 C 253.745 -4.49512 0.160824 0
M  V30 2700 C 255.064 -3.98697 -1.86355 0
M  V30 2701 H 252.183 -0.715482 -0.176788 0
M  V30 2702 H 254.825 -1.88451 0.242088 0
M  V30 2703 H 252.975 -3.53579 -1.60978 0
M  V30 2704 H 254.647 -4.54353 0.797537 0
M  V30 2705 H 252.89 -4.26013 0.818256 0
M  V30 2706 H 253.561 -5.51531 -0.227569 0
M  V30 2707 H 256.037 -3.94019 -1.33746 0
M  V30 2708 H 254.913 -5.03792 -2.17909 0
M  V30 2709 H 255.174 -3.41744 -2.8047 0
M  V30 2710 N 254.233 0.115231 -1.57178 0
M  V30 2711 C 255.163 1.1423 -2.03651 0
M  V30 2712 C 256.144 1.42967 -0.921655 0
M  V30 2713 O 257.329 1.53343 -1.19162 0
M  V30 2714 C 254.459 2.4675 -2.44401 0
M  V30 2715 C 253.413 2.32467 -3.59365 0
M  V30 2716 C 252.739 3.69984 -3.86026 0
M  V30 2717 C 254.039 1.78203 -4.90959 0
M  V30 2718 H 255.733 0.755749 -2.89705 0
M  V30 2719 H 253.279 0.362093 -1.39373 0
M  V30 2720 H 255.232 3.18854 -2.75517 0
M  V30 2721 H 253.956 2.87302 -1.55322 0
M  V30 2722 H 252.615 1.62811 -3.28463 0
M  V30 2723 H 252.263 4.08028 -2.94147 0
M  V30 2724 H 251.963 3.61279 -4.63412 0
M  V30 2725 H 253.487 4.43587 -4.19599 0
M  V30 2726 H 254.901 2.40128 -5.20587 0
M  V30 2727 H 253.298 1.8031 -5.72371 0
M  V30 2728 H 254.368 0.739876 -4.79222 0
M  V30 2729 N 255.711 1.52812 0.385517 0
M  V30 2730 C 256.958 1.68026 1.1302 0
M  V30 2731 C 257.286 0.421934 1.89868 0
M  V30 2732 O 256.541 -0.595749 1.86412 0
M  V30 2733 C 256.84 2.86856 2.13187 0
M  V30 2734 C 256.506 4.24159 1.5297 0
M  V30 2735 C 255.168 4.61501 1.36274 0
M  V30 2736 C 257.52 5.09627 1.09223 0
M  V30 2737 C 254.848 5.81966 0.743837 0
M  V30 2738 C 257.2 6.30719 0.487411 0
M  V30 2739 C 255.864 6.6679 0.307777 0
M  V30 2740 H 255.134 0.614849 0.413571 0
M  V30 2741 H 257.781 1.86962 0.414405 0
M  V30 2742 H 256.086 2.6235 2.90998 0
M  V30 2743 H 257.783 2.95821 2.70722 0
M  V30 2744 H 254.373 3.94746 1.66954 0
M  V30 2745 H 258.557 4.81343 1.20922 0
M  V30 2746 H 253.813 6.08519 0.592891 0
M  V30 2747 H 257.987 6.96259 0.140143 0
M  V30 2748 H 255.614 7.60001 -0.173879 0
M  V30 2749 N 257.189 -0.644168 1.43834 0
M  V30 2750 C 258.435 -1.40603 1.46146 0
M  V30 2751 C 258.768 -1.93997 0.0887717 0
M  V30 2752 O 258.043 -1.72854 -0.891724 0
M  V30 2753 C 258.326 -2.58086 2.51124 0
M  V30 2754 C 258.179 -2.10126 3.97702 0
M  V30 2755 C 259.498 -3.60291 2.52742 0
M  V30 2756 H 256.617 -0.509905 0.532134 0
M  V30 2757 H 259.259 -0.729502 1.75437 0
M  V30 2758 H 257.409 -3.15801 2.26278 0
M  V30 2759 H 259.081 -1.57342 4.33637 0
M  V30 2760 H 257.324 -1.41419 4.10101 0
M  V30 2761 H 257.995 -2.94649 4.66783 0
M  V30 2762 H 260.471 -3.12352 2.7491 0
M  V30 2763 H 259.347 -4.40032 3.28121 0
M  V30 2764 H 259.608 -4.1349 1.56455 0
M  V30 2765 N 258.668 -1.30515 -0.883378 0
M  V30 2766 C 259.896 -1.22359 -1.66841 0
M  V30 2767 C 260.311 0.213296 -1.87591 0
M  V30 2768 O 259.668 1.14075 -1.42454 0
M  V30 2769 C 259.719 -1.95011 -3.04389 0
M  V30 2770 O 259.44 -3.3309 -2.84575 0
M  V30 2771 C 260.941 -1.93532 -3.98824 0
M  V30 2772 H 258.161 -0.423371 -0.520575 0
M  V30 2773 H 260.705 -1.72167 -1.10357 0
M  V30 2774 H 258.86 -1.48997 -3.57601 0
M  V30 2775 H 259.274 -3.69907 -3.71846 0
M  V30 2776 H 260.748 -2.48902 -4.92699 0
M  V30 2777 H 261.225 -0.914627 -4.29571 0
M  V30 2778 H 261.831 -2.39364 -3.51547 0
M  V30 2779 N 260.146 1.09593 -1.13257 0
M  V30 2780 C 261.079 2.15451 -0.752061 0
M  V30 2781 C 262.057 1.60493 0.260913 0
M  V30 2782 O 263.241 1.8788 0.152819 0
M  V30 2783 C 260.368 3.38506 -0.114594 0
M  V30 2784 C 259.414 4.12183 -1.09579 0
M  V30 2785 S 260.247 4.6661 -2.62745 0
M  V30 2786 C 261.403 5.92966 -2.00354 0
M  V30 2787 H 261.636 2.47395 -1.64872 0
M  V30 2788 H 259.169 1.21515 -0.952545 0
M  V30 2789 H 261.127 4.09757 0.246808 0
M  V30 2790 H 259.788 3.04784 0.759309 0
M  V30 2791 H 258.981 5.00445 -0.597545 0
M  V30 2792 H 258.583 3.46785 -1.40057 0
M  V30 2793 H 260.875 6.63882 -1.35156 0
M  V30 2794 H 261.818 6.47467 -2.86691 0
M  V30 2795 H 262.226 5.45405 -1.4558 0
M  V30 2796 N 261.624 0.925811 1.2754 0
M  V30 2797 C 262.872 0.564138 1.94067 0
M  V30 2798 C 263.193 -0.897188 1.73134 0
M  V30 2799 O 262.463 -1.63573 1.07799 0
M  V30 2800 H 261.043 0.205645 0.718136 0
M  V30 2801 H 263.705 1.1778 1.55287 0
M  V30 2802 H 262.801 0.76881 3.02483 0
M  V30 2803 N 263.102 -1.41638 0.69111 0
M  V30 2804 C 264.035 -2.28183 -0.0274913 0
M  V30 2805 C 265.013 -1.41984 -0.792424 0
M  V30 2806 O 266.197 -1.71415 -0.784169 0
M  V30 2807 C 263.324 -3.22135 -1.04628 0
M  V30 2808 C 262.37 -4.24848 -0.375037 0
M  V30 2809 S 263.203 -5.28231 0.879321 0
M  V30 2810 C 264.359 -6.25748 -0.137983 0
M  V30 2811 H 264.592 -2.88782 0.706553 0
M  V30 2812 H 262.125 -1.46709 0.481222 0
M  V30 2813 H 264.083 -3.76797 -1.62894 0
M  V30 2814 H 262.744 -2.6064 -1.75287 0
M  V30 2815 H 261.937 -4.90837 -1.14433 0
M  V30 2816 H 261.539 -3.73758 0.134434 0
M  V30 2817 H 263.831 -6.70188 -0.992659 0
M  V30 2818 H 264.774 -7.06417 0.487867 0
M  V30 2819 H 265.182 -5.62363 -0.490762 0
M  V30 2820 N 264.58 -0.43555 -1.51462 0
M  V30 2821 C 265.512 0.41257 -2.25456 0
M  V30 2822 C 266.525 0.987822 -1.29406 0
M  V30 2823 O 267.714 0.882266 -1.55172 0
M  V30 2824 C 264.814 1.58894 -2.99342 0
M  V30 2825 C 263.987 1.13288 -4.22474 0
M  V30 2826 C 263.046 2.17917 -4.78956 0
M  V30 2827 O 262.072 1.77425 -5.40841 0
M  V30 2828 N 263.274 3.50382 -4.62832 0
M  V30 2829 H 266.039 -0.221603 -2.9888 0
M  V30 2830 H 263.6 -0.264342 -1.59727 0
M  V30 2831 H 265.592 2.28508 -3.34015 0
M  V30 2832 H 264.162 2.12849 -2.28941 0
M  V30 2833 H 263.382 0.263881 -3.93316 0
M  V30 2834 H 264.67 0.805542 -5.02383 0
M  V30 2835 H 264.068 3.86013 -4.13534 0
M  V30 2836 H 262.625 4.15895 -5.01871 0
M  V30 2837 N 266.058 1.56714 -0.166846 0
M  V30 2838 C 267.286 2.0112 0.485644 0
M  V30 2839 C 267.701 1.04705 1.57106 0
M  V30 2840 O 267.058 0.0471923 1.82439 0
M  V30 2841 C 267.109 3.45361 1.06808 0
M  V30 2842 O 266.83 4.38092 0.0259995 0
M  V30 2843 C 268.331 4.05145 1.79924 0
M  V30 2844 H 265.551 0.65931 0.124704 0
M  V30 2845 H 268.095 2.02746 -0.267262 0
M  V30 2846 H 266.25 3.44524 1.7715 0
M  V30 2847 H 266.664 5.22519 0.455398 0
M  V30 2848 H 268.138 5.08009 2.15942 0
M  V30 2849 H 268.615 3.46982 2.69258 0
M  V30 2850 H 269.221 4.09672 1.14234 0
M  V30 2851 N 267.536 -0.106894 1.57237 0
M  V30 2852 C 268.784 -0.810921 1.85117 0
M  V30 2853 C 269.105 -1.7984 0.753827 0
M  V30 2854 O 268.375 -1.94649 -0.221056 0
M  V30 2855 H 266.955 -0.302466 0.683025 0
M  V30 2856 H 269.617 -0.0913324 1.94686 0
M  V30 2857 H 268.713 -1.34875 2.81452 0
M  V30 2858 N 269.014 -1.53014 -0.377408 0
M  V30 2859 C 270.261 -1.68623 -1.12128 0
M  V30 2860 C 270.589 -0.431997 -1.89642 0
M  V30 2861 O 269.844 0.585855 -1.86725 0
M  V30 2862 C 270.143 -2.87982 -2.11663 0
M  V30 2863 C 269.809 -4.24964 -1.50719 0
M  V30 2864 C 268.471 -4.62217 -1.33825 0
M  V30 2865 C 270.823 -5.10199 -1.06519 0
M  V30 2866 C 268.151 -5.82352 -0.712963 0
M  V30 2867 C 270.503 -6.30969 -0.453955 0
M  V30 2868 C 269.167 -6.66944 -0.272411 0
M  V30 2869 H 268.437 -0.617034 -0.410305 0
M  V30 2870 H 271.084 -1.8718 -0.404484 0
M  V30 2871 H 269.389 -2.63889 -2.89603 0
M  V30 2872 H 271.086 -2.97253 -2.6915 0
M  V30 2873 H 267.676 -3.95626 -1.64858 0
M  V30 2874 H 271.86 -4.81978 -1.18368 0
M  V30 2875 H 267.116 -6.08824 -0.560611 0
M  V30 2876 H 271.29 -6.96324 -0.103217 0
M  V30 2877 H 268.917 -7.59898 0.214181 0
M  V30 2878 N 270.492 0.636531 -1.44174 0
M  V30 2879 C 271.717 1.42847 -1.50364 0
M  V30 2880 C 272.142 1.87665 -0.127867 0
M  V30 2881 O 271.5 1.58408 0.88185 0
M  V30 2882 C 271.548 2.62854 -2.4686 0
M  V30 2883 O 270.652 3.62501 -1.9664 0
M  V30 2884 H 269.993 0.427642 -0.507955 0
M  V30 2885 H 272.523 0.777422 -1.89255 0
M  V30 2886 H 272.533 3.10465 -2.64718 0
M  V30 2887 H 271.208 2.29578 -3.46795 0
M  V30 2888 H 269.785 3.21735 -1.88523 0
M  V30 2889 N 271.97 1.30982 0.876444 0
M  V30 2890 C 273.217 1.20296 1.62896 0
M  V30 2891 C 273.545 -0.240395 1.93009 0
M  V30 2892 O 272.8 -1.18733 1.55567 0
M  V30 2893 C 273.099 1.98572 2.9716 0
M  V30 2894 C 272.765 3.48125 2.86566 0
M  V30 2895 C 271.427 3.88905 2.83383 0
M  V30 2896 C 273.779 4.43322 2.74071 0
M  V30 2897 C 271.107 5.2316 2.65556 0
M  V30 2898 C 273.459 5.77695 2.57781 0
M  V30 2899 C 272.123 6.17704 2.52979 0
M  V30 2900 H 271.393 0.440193 0.59608 0
M  V30 2901 H 274.04 1.62177 1.01837 0
M  V30 2902 H 272.345 1.49352 3.62217 0
M  V30 2903 H 274.042 1.8769 3.54364 0
M  V30 2904 H 270.632 3.15723 2.89856 0
M  V30 2905 H 274.816 4.12752 2.75589 0
M  V30 2906 H 270.072 5.53241 2.60259 0
M  V30 2907 H 274.246 6.51091 2.47089 0
M  V30 2908 H 271.873 7.21678 2.38924 0
M  V30 2909 N 273.449 -1.08991 1.13837 0
M  V30 2910 C 274.379 -2.17771 0.842507 0
M  V30 2911 C 275.36 -1.6892 -0.20001 0
M  V30 2912 O 276.545 -1.94113 -0.0579731 0
M  V30 2913 C 273.675 -3.4589 0.312644 0
M  V30 2914 C 272.629 -4.08099 1.28992 0
M  V30 2915 C 271.955 -5.31098 0.619623 0
M  V30 2916 C 273.255 -4.50077 2.65005 0
M  V30 2917 H 274.949 -2.42777 1.75213 0
M  V30 2918 H 272.495 -1.16682 0.843875 0
M  V30 2919 H 274.448 -4.21297 0.0933043 0
M  V30 2920 H 273.172 -3.20419 -0.632382 0
M  V30 2921 H 271.831 -3.34717 1.49533 0
M  V30 2922 H 271.479 -5.0191 -0.33102 0
M  V30 2923 H 271.179 -5.73674 1.27167 0
M  V30 2924 H 272.703 -6.09224 0.409669 0
M  V30 2925 H 274.117 -5.16688 2.48407 0
M  V30 2926 H 272.514 -5.03553 3.26427 0
M  V30 2927 H 273.584 -3.62257 3.22332 0
M  V30 2928 N 274.927 -0.932562 -1.27047 0
M  V30 2929 C 275.859 -0.392734 -2.2581 0
M  V30 2930 C 276.872 0.479241 -1.55586 0
M  V30 2931 O 278.061 0.291078 -1.76111 0
M  V30 2932 C 275.161 0.455456 -3.35826 0
M  V30 2933 C 274.334 -0.398355 -4.35582 0
M  V30 2934 C 273.393 0.387985 -5.24768 0
M  V30 2935 O 272.419 -0.206003 -5.68827 0
M  V30 2936 N 273.621 1.68664 -5.55457 0
M  V30 2937 H 276.386 -1.24173 -2.72766 0
M  V30 2938 H 273.947 -0.800511 -1.40725 0
M  V30 2939 H 275.939 0.988692 -3.92437 0
M  V30 2940 H 274.509 1.20522 -2.88432 0
M  V30 2941 H 273.729 -1.11286 -3.78165 0
M  V30 2942 H 275.017 -0.981889 -4.99236 0
M  V30 2943 H 274.415 2.19147 -5.21528 0
M  V30 2944 H 272.972 2.1663 -6.14748 0
M  V30 2945 N 276.405 1.4127 -0.698611 0
M  V30 2946 C 277.654 2.00408 -0.227949 0
M  V30 2947 C 277.967 1.55981 1.18023 0
M  V30 2948 O 279.173 2.07699 1.74852 0
M  V30 2949 C 277.629 3.58129 -0.356636 0
M  V30 2950 C 277.237 4.11536 -1.77037 0
M  V30 2951 C 278.981 4.24466 0.0540969 0
M  V30 2952 C 276.888 5.61701 -1.85055 0
M  V30 2953 H 275.818 0.749586 -0.0814657 0
M  V30 2954 H 278.469 1.61713 -0.867249 0
M  V30 2955 H 276.851 3.94442 0.350965 0
M  V30 2956 H 278.025 3.86636 -2.50698 0
M  V30 2957 H 276.34 3.57736 -2.13105 0
M  V30 2958 H 278.937 5.34698 0.0146723 0
M  V30 2959 H 279.28 4.01687 1.09332 0
M  V30 2960 H 279.813 3.93198 -0.603337 0
M  V30 2961 H 276.552 5.89312 -2.8704 0
M  V30 2962 H 276.072 5.88519 -1.15783 0
M  V30 2963 H 277.751 6.26524 -1.61484 0
M  V30 2964 N 277.883 0.443576 1.51229 0
M  V30 2965 C 279.13 -0.120796 2.02139 0
M  V30 2966 C 279.458 -1.42166 1.32736 0
M  V30 2967 O 278.713 -1.90849 0.43301 0
M  V30 2968 C 279.012 -0.380579 3.55368 0
M  V30 2969 C 278.678 0.83523 4.43097 0
M  V30 2970 C 277.34 1.16864 4.66794 0
M  V30 2971 C 279.692 1.64601 4.94526 0
M  V30 2972 C 277.02 2.31339 5.39165 0
M  V30 2973 C 279.372 2.78181 5.68153 0
M  V30 2974 C 278.036 3.11969 5.90112 0
M  V30 2975 H 277.306 -0.0442023 0.73968 0
M  V30 2976 H 279.953 0.592046 1.82118 0
M  V30 2977 H 278.258 -1.17538 3.73754 0
M  V30 2978 H 279.955 -0.830777 3.923 0
M  V30 2979 H 276.545 0.565437 4.24854 0
M  V30 2980 H 280.729 1.40163 4.76097 0
M  V30 2981 H 275.985 2.57823 5.5438 0
M  V30 2982 H 280.159 3.41371 6.06992 0
M  V30 2983 H 277.786 4.00784 6.45969 0
M  V30 2984 N 279.361 -1.56624 0.175154 0
M  V30 2985 C 280.586 -2.01813 -0.478137 0
M  V30 2986 C 281.011 -1.05457 -1.55757 0
M  V30 2987 O 280.369 -0.0347439 -1.81267 0
M  V30 2988 C 280.417 -3.45581 -1.02987 0
M  V30 2989 O 279.521 -3.52305 -2.14371 0
M  V30 2990 H 278.862 -0.65413 -0.114059 0
M  V30 2991 H 281.392 -2.02673 0.280173 0
M  V30 2992 H 281.402 -3.84965 -1.35151 0
M  V30 2993 H 280.077 -4.1521 -0.239556 0
M  V30 2994 H 278.654 -3.24783 -1.83222 0
M  V30 2995 N 280.839 0.0985539 -1.57292 0
M  V30 2996 C 281.786 1.11981 -2.01814 0
M  V30 2997 C 282.756 1.39999 -0.89384 0
M  V30 2998 O 283.941 1.5152 -1.15958 0
M  V30 2999 C 281.081 2.43577 -2.44467 0
M  V30 3000 C 280.194 2.2232 -3.70402 0
M  V30 3001 C 279.329 3.4729 -4.01949 0
M  V30 3002 C 278.368 3.2128 -5.21005 0
M  V30 3003 N 277.505 4.38507 -5.48321 0
M  V30 3004 H 282.345 0.733149 -2.88841 0
M  V30 3005 H 279.882 0.350482 -1.42864 0
M  V30 3006 H 281.84 3.20373 -2.6724 0
M  V30 3007 H 280.47 2.80097 -1.60455 0
M  V30 3008 H 279.522 1.36343 -3.55126 0
M  V30 3009 H 280.834 1.99089 -4.57345 0
M  V30 3010 H 279.988 4.32495 -4.25479 0
M  V30 3011 H 278.727 3.73572 -3.13521 0
M  V30 3012 H 277.732 2.34468 -4.97298 0
M  V30 3013 H 278.957 2.96348 -6.11028 0
M  V30 3014 H 276.903 4.64871 -4.62851 0
M  V30 3015 H 276.82 4.18455 -6.29628 0
M  V30 3016 H 278.088 5.24787 -5.76385 0
M  V30 3017 N 282.317 1.53212 0.369288 0
M  V30 3018 C 283.265 1.80054 1.47253 0
M  V30 3019 C 284.259 0.669456 1.55611 0
M  V30 3020 O 285.465 0.852328 1.58541 0
M  V30 3021 H 281.84 0.570034 0.490475 0
M  V30 3022 H 283.811 2.72403 1.21817 0
M  V30 3023 C 282.56 2.00403 2.84137 0
M  V30 3024 H 281.883 2.86876 2.78464 0
M  V30 3025 H 283.323 2.23164 3.60519 0
M  V30 3026 C 281.782 0.782081 3.27697 0
M  V30 3027 O 282.312 -0.0310205 4.01688 0
M  V30 3028 N 280.518 0.606573 2.84199 0
M  V30 3029 H 280.065 1.26939 2.24152 0
M  V30 3030 H 280.023 -0.20962 3.137 0
M  V30 3031 N 283.795 -0.628877 1.44509 0
M  V30 3032 C 285.042 -1.38839 1.47411 0
M  V30 3033 C 285.37 -1.94202 0.10757 0
M  V30 3034 O 284.625 -1.74243 -0.890947 0
M  V30 3035 C 284.924 -2.56995 2.48371 0
M  V30 3036 C 284.59 -2.19908 3.93639 0
M  V30 3037 C 283.252 -2.09506 4.33198 0
M  V30 3038 C 285.604 -1.9064 4.85083 0
M  V30 3039 C 282.932 -1.68028 5.62124 0
M  V30 3040 C 285.284 -1.50655 6.14399 0
M  V30 3041 C 283.948 -1.38796 6.5291 0
M  V30 3042 H 283.218 -0.508048 0.539414 0
M  V30 3043 H 285.865 -0.712913 1.77735 0
M  V30 3044 H 284.17 -3.29786 2.11538 0
M  V30 3045 H 285.867 -3.15223 2.47861 0
M  V30 3046 H 282.457 -2.28922 3.62343 0
M  V30 3047 H 286.641 -1.97585 4.55273 0
M  V30 3048 H 281.897 -1.57452 5.90778 0
M  V30 3049 H 286.071 -1.27048 6.84713 0
M  V30 3050 H 283.698 -1.06429 7.52713 0
M  V30 3051 N 285.273 -1.31445 -0.869486 0
M  V30 3052 C 286.183 -1.21097 -2.0093 0
M  V30 3053 C 287.199 -0.127584 -1.73532 0
M  V30 3054 O 288.375 -0.345477 -1.98415 0
M  V30 3055 C 285.44 -0.919378 -3.34288 0
M  V30 3056 C 284.501 -2.08971 -3.75006 0
M  V30 3057 C 283.734 -1.81194 -5.02001 0
M  V30 3058 O 283.957 -0.747296 -5.65484 0
M  V30 3059 O 282.891 -2.66883 -5.39497 0
M  V30 3060 H 286.717 -2.16883 -2.12592 0
M  V30 3061 H 284.302 -1.11189 -0.997868 0
M  V30 3062 H 286.184 -0.772625 -4.14257 0
M  V30 3063 H 284.859 0.00844772 -3.23699 0
M  V30 3064 H 283.766 -2.29187 -2.95676 0
M  V30 3065 H 285.099 -2.9998 -3.90221 0
M  V30 3066 N 286.751 1.08385 -1.14413 0
M  V30 3067 C 287.684 2.14642 -0.774871 0
M  V30 3068 C 288.662 1.60761 0.243876 0
M  V30 3069 O 289.846 1.88031 0.132883 0
M  V30 3070 C 286.973 3.38366 -0.150491 0
M  V30 3071 C 286.019 4.10997 -1.13945 0
M  V30 3072 S 286.852 4.63797 -2.67679 0
M  V30 3073 C 288.008 5.90808 -2.06631 0
M  V30 3074 H 288.241 2.45633 -1.67487 0
M  V30 3075 H 285.774 1.20498 -0.96538 0
M  V30 3076 H 287.732 4.09996 0.203334 0
M  V30 3077 H 286.393 3.05572 0.72694 0
M  V30 3078 H 285.586 4.99783 -0.65059 0
M  V30 3079 H 285.188 3.4528 -1.43727 0
M  V30 3080 H 287.48 6.62411 -1.4219 0
M  V30 3081 H 288.423 6.4439 -2.93542 0
M  V30 3082 H 288.831 5.4383 -1.51357 0
M  V30 3083 N 288.23 0.939286 1.26551 0
M  V30 3084 C 289.477 0.585847 1.9384 0
M  V30 3085 C 289.805 -0.874784 1.73718 0
M  V30 3086 O 289.06 -1.64092 1.06642 0
M  V30 3087 C 289.359 0.872106 3.46596 0
M  V30 3088 C 289.025 2.31632 3.86856 0
M  V30 3089 C 287.687 2.71111 3.97558 0
M  V30 3090 C 290.039 3.25494 4.07066 0
M  V30 3091 C 287.367 4.03553 4.25866 0
M  V30 3092 C 289.719 4.57531 4.36862 0
M  V30 3093 C 288.383 4.96828 4.45778 0
M  V30 3094 H 287.653 0.214377 0.709312 0
M  V30 3095 H 290.3 1.18544 1.50398 0
M  V30 3096 H 288.605 0.18996 3.91339 0
M  V30 3097 H 290.302 0.577442 3.96821 0
M  V30 3098 H 286.892 2.00008 3.79071 0
M  V30 3099 H 291.076 2.9619 3.98227 0
M  V30 3100 H 286.332 4.33665 4.30981 0
M  V30 3101 H 290.506 5.30254 4.51446 0
M  V30 3102 H 288.133 5.99482 4.67468 0
M  V30 3103 N 289.708 -1.40897 0.706093 0
M  V30 3104 C 290.954 -2.01352 0.241889 0
M  V30 3105 C 291.287 -1.55832 -1.15888 0
M  V30 3106 O 290.562 -0.774145 -1.7843 0
M  V30 3107 C 290.845 -3.58752 0.311311 0
M  V30 3108 C 290.698 -4.1437 1.74978 0
M  V30 3109 C 292.017 -4.38914 -0.322922 0
M  V30 3110 H 289.136 -0.731562 0.0893687 0
M  V30 3111 H 291.778 -1.67504 0.896802 0
M  V30 3112 H 289.928 -3.87718 -0.246302 0
M  V30 3113 H 291.6 -3.96239 2.36205 0
M  V30 3114 H 289.843 -3.69016 2.28057 0
M  V30 3115 H 290.514 -5.23532 1.74981 0
M  V30 3116 H 292.99 -4.15822 0.152089 0
M  V30 3117 H 291.866 -5.48358 -0.243855 0
M  V30 3118 H 292.127 -4.19176 -1.40513 0
M  V30 3119 N 291.186 -0.45159 -1.50991 0
M  V30 3120 C 292.432 0.110237 -2.025 0
M  V30 3121 C 292.765 1.41109 -1.33424 0
M  V30 3122 O 292.04 1.89135 -0.453659 0
M  V30 3123 C 292.323 0.314271 -3.58726 0
M  V30 3124 C 292.176 -1.00623 -4.38401 0
M  V30 3125 C 293.495 1.07767 -4.26702 0
M  V30 3126 H 290.614 0.0385897 -0.735989 0
M  V30 3127 H 293.256 -0.593374 -1.80497 0
M  V30 3128 H 291.406 0.913601 -3.77605 0
M  V30 3129 H 293.078 -1.64064 -4.31139 0
M  V30 3130 H 291.321 -1.6075 -4.02917 0
M  V30 3131 H 291.992 -0.817341 -5.45915 0
M  V30 3132 H 294.468 0.56986 -4.12179 0
M  V30 3133 H 293.344 1.18921 -5.35863 0
M  V30 3134 H 293.605 2.10939 -3.88532 0
M  V30 3135 N 292.664 1.56529 -0.183458 0
M  V30 3136 C 293.594 2.21549 0.737456 0
M  V30 3137 C 294.575 1.17489 1.23005 0
M  V30 3138 O 295.76 1.45959 1.281 0
M  V30 3139 C 292.89 2.86575 1.96194 0
M  V30 3140 C 291.844 3.96778 1.60473 0
M  V30 3141 C 291.17 4.48911 2.90487 0
M  V30 3142 C 292.47 5.15767 0.823497 0
M  V30 3143 H 294.164 2.98761 0.195453 0
M  V30 3144 H 291.71 1.43702 0.0925686 0
M  V30 3145 H 293.663 3.30739 2.61131 0
M  V30 3146 H 292.387 2.06749 2.52828 0
M  V30 3147 H 291.046 3.53286 0.978997 0
M  V30 3148 H 290.694 3.65862 3.45186 0
M  V30 3149 H 290.394 5.23265 2.67335 0
M  V30 3150 H 291.918 4.95771 3.56432 0
M  V30 3151 H 293.332 5.56549 1.37571 0
M  V30 3152 H 291.729 5.96114 0.690551 0
M  V30 3153 H 292.799 4.84574 -0.177782 0
M  V30 3154 N 294.142 -0.090211 1.57342 0
M  V30 3155 C 295.389 -0.792807 1.86335 0
M  V30 3156 C 295.717 -1.78494 0.772662 0
M  V30 3157 O 294.972 -1.94305 -0.233258 0
M  V30 3158 C 295.271 -1.55222 3.21933 0
M  V30 3159 C 294.937 -0.701765 4.45406 0
M  V30 3160 C 293.599 -0.467334 4.78925 0
M  V30 3161 C 295.951 -0.11086 5.21082 0
M  V30 3162 C 293.279 0.367785 5.85546 0
M  V30 3163 C 295.631 0.711609 6.28585 0
M  V30 3164 C 294.295 0.956086 6.60617 0
M  V30 3165 H 293.565 -0.290109 0.681849 0
M  V30 3166 H 296.212 -0.0541332 1.91423 0
M  V30 3167 H 294.517 -2.3626 3.12551 0
M  V30 3168 H 296.214 -2.10032 3.41595 0
M  V30 3169 H 292.804 -0.894598 4.1916 0
M  V30 3170 H 296.988 -0.279129 4.95514 0
M  V30 3171 H 292.244 0.566128 6.08773 0
M  V30 3172 H 296.418 1.17632 6.86393 0
M  V30 3173 H 294.045 1.60499 7.43064 0
M  V30 3174 N 295.62 -1.53406 -0.361157 0
M  V30 3175 C 296.866 -1.70054 -1.10496 0
M  V30 3176 C 297.199 -0.453278 -1.88836 0
M  V30 3177 O 296.474 0.5495 -1.86576 0
M  V30 3178 C 296.757 -2.95317 -2.06058 0
M  V30 3179 C 296.61 -4.3021 -1.31298 0
M  V30 3180 C 297.929 -3.16193 -3.06121 0
M  V30 3181 H 295.048 -0.618799 -0.400321 0
M  V30 3182 H 297.69 -1.86052 -0.385318 0
M  V30 3183 H 295.84 -2.81809 -2.67425 0
M  V30 3184 H 297.512 -4.55538 -0.726807 0
M  V30 3185 H 295.755 -4.29421 -0.614853 0
M  V30 3186 H 296.426 -5.14 -2.01265 0
M  V30 3187 H 298.902 -3.28916 -2.5486 0
M  V30 3188 H 297.778 -4.05266 -3.70204 0
M  V30 3189 H 298.039 -2.31676 -3.76535 0
M  V30 3190 N 297.098 0.621204 -1.44841 0
M  V30 3191 C 298.028 1.74366 -1.55303 0
M  V30 3192 C 299.009 1.65199 -0.405385 0
M  V30 3193 O 300.194 1.83807 -0.626787 0
M  V30 3194 C 297.324 3.12931 -1.50637 0
M  V30 3195 C 296.278 3.36896 -2.63979 0
M  V30 3196 C 295.604 4.75594 -2.44366 0
M  V30 3197 C 296.904 3.28483 -4.06074 0
M  V30 3198 H 298.598 1.65867 -2.49256 0
M  V30 3199 H 296.144 0.796558 -1.19962 0
M  V30 3200 H 298.097 3.9124 -1.56555 0
M  V30 3201 H 296.821 3.22237 -0.532057 0
M  V30 3202 H 295.48 2.60972 -2.57467 0
M  V30 3203 H 295.128 4.81616 -1.45105 0
M  V30 3204 H 294.828 4.92586 -3.20364 0
M  V30 3205 H 296.352 5.5612 -2.52117 0
M  V30 3206 H 297.766 3.96684 -4.13902 0
M  V30 3207 H 296.163 3.57008 -4.82354 0
M  V30 3208 H 297.233 2.26133 -4.28943 0
M  V30 3209 N 298.576 1.31904 0.862503 0
M  V30 3210 C 299.822 1.22197 1.61851 0
M  V30 3211 C 300.155 -0.217641 1.92977 0
M  V30 3212 O 299.43 -1.15264 1.56666 0
M  V30 3213 C 299.713 2.07378 2.94391 0
M  V30 3214 C 299.566 3.59678 2.70096 0
M  V30 3215 C 300.885 1.92891 3.95577 0
M  V30 3216 H 298.004 0.445255 0.587296 0
M  V30 3217 H 300.646 1.6177 0.99651 0
M  V30 3218 H 298.796 1.73758 3.47477 0
M  V30 3219 H 300.468 4.03472 2.23625 0
M  V30 3220 H 298.711 3.82735 2.04197 0
M  V30 3221 H 299.382 4.14595 3.64438 0
M  V30 3222 H 301.858 2.22327 3.51724 0
M  V30 3223 H 300.734 2.54781 4.86187 0
M  V30 3224 H 300.995 0.894315 4.3296 0
M  V30 3225 N 300.054 -1.07777 1.14986 0
M  V30 3226 C 301.302 -1.79934 0.920235 0
M  V30 3227 C 301.623 -1.86955 -0.554336 0
M  V30 3228 O 300.893 -1.36731 -1.40291 0
M  V30 3229 H 299.473 -0.666424 0.337473 0
M  V30 3230 H 302.135 -1.3027 1.44968 0
M  V30 3231 H 301.231 -2.82539 1.32583 0
M  V30 3232 N 301.532 -0.945985 -1.26051 0
M  V30 3233 C 302.465 -0.403619 -2.24602 0
M  V30 3234 C 303.443 0.510241 -1.54387 0
M  V30 3235 O 304.627 0.446593 -1.83133 0
M  V30 3236 C 301.754 0.419564 -3.36091 0
M  V30 3237 C 300.8 -0.433454 -4.24292 0
M  V30 3238 S 301.633 -1.86037 -5.02146 0
M  V30 3239 C 302.789 -1.04538 -6.17108 0
M  V30 3240 H 303.022 -1.23883 -2.7026 0
M  V30 3241 H 300.555 -0.749438 -1.34992 0
M  V30 3242 H 302.513 0.888595 -4.00767 0
M  V30 3243 H 301.174 1.22951 -2.89036 0
M  V30 3244 H 300.367 0.197486 -5.03613 0
M  V30 3245 H 299.969 -0.837357 -3.64506 0
M  V30 3246 H 302.261 -0.289923 -6.76879 0
M  V30 3247 H 303.204 -1.81222 -6.84518 0
M  V30 3248 H 303.612 -0.579319 -5.61519 0
M  V30 3249 N 303.011 1.40521 -0.713556 0
M  V30 3250 C 304.259 2.00527 -0.251692 0
M  V30 3251 C 304.58 1.56857 1.15848 0
M  V30 3252 O 303.85 0.807127 1.785 0
M  V30 3253 H 302.43 0.741551 -0.0900646 0
M  V30 3254 H 305.092 1.71887 -0.918733 0
M  V30 3255 H 304.188 3.10813 -0.283192 0
M  V30 3256 N 304.489 0.459591 1.5075 0
M  V30 3257 C 305.421 -0.37665 2.26084 0
M  V30 3258 C 306.434 -0.967109 1.30961 0
M  V30 3259 O 307.623 -0.857468 1.56556 0
M  V30 3260 C 304.723 -1.54112 3.01832 0
M  V30 3261 C 303.896 -1.06553 4.24223 0
M  V30 3262 C 302.955 -2.1027 4.82362 0
M  V30 3263 O 301.981 -1.68798 5.43595 0
M  V30 3264 N 303.183 -3.42974 4.68347 0
M  V30 3265 H 305.948 0.269124 2.98489 0
M  V30 3266 H 303.509 0.28972 1.59287 0
M  V30 3267 H 305.501 -2.23165 3.37608 0
M  V30 3268 H 304.071 -2.0918 2.32298 0
M  V30 3269 H 303.291 -0.201274 3.93686 0
M  V30 3270 H 304.579 -0.725516 5.03601 0
M  V30 3271 H 303.977 -3.79385 4.19623 0
M  V30 3272 H 302.534 -4.07858 5.08424 0
M  V30 3273 N 305.967 -1.56429 0.191757 0
M  V30 3274 C 307.216 -1.9666 -0.448088 0
M  V30 3275 C 307.529 -1.08136 -1.62991 0
M  V30 3276 O 308.735 -1.38135 -2.33733 0
M  V30 3277 C 307.191 -3.49753 -0.848585 0
M  V30 3278 C 306.799 -4.46935 0.308764 0
M  V30 3279 C 308.543 -3.9876 -1.4557 0
M  V30 3280 C 306.45 -5.91293 -0.112506 0
M  V30 3281 H 305.38 -0.734312 -0.171179 0
M  V30 3282 H 308.031 -1.81301 0.283242 0
M  V30 3283 H 306.413 -3.60604 -1.63649 0
M  V30 3284 H 307.587 -4.47813 1.08627 0
M  V30 3285 H 305.902 -4.08102 0.827158 0
M  V30 3286 H 308.499 -5.04086 -1.78328 0
M  V30 3287 H 308.842 -3.42875 -2.36099 0
M  V30 3288 H 309.375 -3.9101 -0.731836 0
M  V30 3289 H 306.114 -6.51097 0.758514 0
M  V30 3290 H 305.634 -5.93676 -0.854941 0
M  V30 3291 H 307.313 -6.44663 -0.549448 0
M  V30 3292 N 307.445 0.0818655 -1.57387 0
M  V30 3293 C 308.67 0.799946 -1.91352 0
M  V30 3294 C 309.095 1.70833 -0.787258 0
M  V30 3295 O 308.453 1.79419 0.26048 0
M  V30 3296 C 308.501 1.57812 -3.24234 0
M  V30 3297 O 307.605 2.68806 -3.12757 0
M  V30 3298 H 306.946 0.21891 -0.626877 0
M  V30 3299 H 309.476 0.0531256 -2.04531 0
M  V30 3300 H 309.486 1.95952 -3.57864 0
M  V30 3301 H 308.161 0.911548 -4.05788 0
M  V30 3302 H 306.738 2.33597 -2.90666 0
M  V30 3303 N 308.923 1.53595 0.353017 0
M  V30 3304 C 309.871 1.81605 1.45335 0
M  V30 3305 C 310.865 0.685923 1.54892 0
M  V30 3306 O 312.071 0.869095 1.57628 0
M  V30 3307 H 308.446 0.575204 0.484401 0
M  V30 3308 H 310.417 2.73679 1.18921 0
M  V30 3309 C 309.166 2.03406 2.81995 0
M  V30 3310 H 308.489 2.89814 2.75405 0
M  V30 3311 H 309.929 2.26975 3.58132 0
M  V30 3312 C 308.388 0.816794 3.26849 0
M  V30 3313 O 308.918 0.0115856 4.01698 0
M  V30 3314 N 307.124 0.636682 2.8354 0
M  V30 3315 H 306.671 1.2931 2.22793 0
M  V30 3316 H 306.629 -0.176336 3.13905 0
M  V30 3317 N 310.401 -0.613514 1.45168 0
M  V30 3318 C 311.631 -1.39743 1.52169 0
M  V30 3319 C 312.039 -1.88596 0.151086 0
M  V30 3320 O 311.382 -1.6251 -0.856521 0
M  V30 3321 C 311.444 -2.64035 2.43979 0
M  V30 3322 C 311.108 -2.36861 3.90827 0
M  V30 3323 C 312.105 -1.97591 4.80889 0
M  V30 3324 C 309.79 -2.49956 4.35692 0
M  V30 3325 C 311.784 -1.71768 6.1382 0
M  V30 3326 C 309.471 -2.23747 5.68665 0
M  V30 3327 C 310.469 -1.84714 6.57548 0
M  V30 3328 O 310.157 -1.58809 7.88058 0
M  V30 3329 H 309.889 -0.434382 0.517966 0
M  V30 3330 H 312.443 -0.75587 1.90986 0
M  V30 3331 H 310.673 -3.3089 2.00122 0
M  V30 3332 H 312.362 -3.26069 2.41731 0
M  V30 3333 H 313.128 -1.87015 4.47493 0
M  V30 3334 H 309.007 -2.79305 3.66756 0
M  V30 3335 H 312.551 -1.41227 6.83155 0
M  V30 3336 H 308.448 -2.33938 6.01617 0
M  V30 3337 H 309.216 -1.7291 8.00028 0
M  V30 3338 N 311.879 -1.3236 -0.855495 0
M  V30 3339 C 313.125 -1.23054 -1.612 0
M  V30 3340 C 313.458 0.207404 -1.93089 0
M  V30 3341 O 312.733 1.14432 -1.57275 0
M  V30 3342 C 313.016 -2.08937 -2.93287 0
M  V30 3343 C 312.869 -3.61105 -2.68185 0
M  V30 3344 C 314.188 -1.94986 -3.94549 0
M  V30 3345 H 311.307 -0.448364 -0.584926 0
M  V30 3346 H 313.949 -1.62297 -0.987917 0
M  V30 3347 H 312.099 -1.75599 -3.46551 0
M  V30 3348 H 313.771 -4.04652 -2.21483 0
M  V30 3349 H 312.014 -3.83813 -2.02164 0
M  V30 3350 H 312.685 -4.16522 -3.62234 0
M  V30 3351 H 315.161 -2.24189 -3.5054 0
M  V30 3352 H 314.037 -2.57356 -4.84829 0
M  V30 3353 H 314.298 -0.917263 -4.3248 0
M  V30 3354 N 313.357 1.07166 -1.15556 0
M  V30 3355 C 314.32 2.12589 -0.856644 0
M  V30 3356 C 315.32 1.6015 0.14444 0
M  V30 3357 O 316.51 1.7399 -0.0854163 0
M  V30 3358 C 313.642 3.39753 -0.279405 0
M  V30 3359 H 314.835 2.40539 -1.79112 0
M  V30 3360 H 312.388 1.23086 -0.963298 0
M  V30 3361 H 313.123 3.17447 0.663174 0
M  V30 3362 H 312.908 3.79117 -1.00063 0
M  V30 3363 H 314.398 4.17507 -0.0879113 0
M  V30 3364 N 314.835 0.952656 1.25548 0
M  V30 3365 C 315.798 0.475794 2.24207 0
M  V30 3366 C 316.798 -0.419428 1.55234 0
M  V30 3367 O 317.988 -0.216994 1.72843 0
M  V30 3368 C 315.12 -0.312814 3.39462 0
M  V30 3369 H 316.313 1.34779 2.67908 0
M  V30 3370 H 313.866 0.735739 1.37901 0
M  V30 3371 H 314.601 -1.20257 3.01179 0
M  V30 3372 H 314.386 0.329404 3.90714 0
M  V30 3373 H 315.876 -0.635986 4.12729 0
M  V30 3374 N 316.313 -1.40141 0.720998 0
M  V30 3375 C 317.56 -2.00787 0.262842 0
M  V30 3376 C 317.888 -1.5718 -1.14563 0
M  V30 3377 O 317.143 -0.785391 -1.79249 0
M  V30 3378 C 317.442 -3.56165 0.296892 0
M  V30 3379 C 317.108 -4.19373 1.65641 0
M  V30 3380 C 315.77 -4.36352 2.02855 0
M  V30 3381 C 318.122 -4.54578 2.54968 0
M  V30 3382 C 315.45 -4.8582 3.28931 0
M  V30 3383 C 317.802 -5.05447 3.80402 0
M  V30 3384 C 316.466 -5.20635 4.17726 0
M  V30 3385 H 315.736 -0.734731 0.0961807 0
M  V30 3386 H 318.383 -1.67673 0.925093 0
M  V30 3387 H 316.688 -3.8922 -0.448932 0
M  V30 3388 H 318.385 -4.00929 -0.0755208 0
M  V30 3389 H 314.975 -4.06549 1.35704 0
M  V30 3390 H 319.159 -4.41091 2.27491 0
M  V30 3391 H 314.415 -4.95764 3.57811 0
M  V30 3392 H 318.589 -5.31663 4.49786 0
M  V30 3393 H 316.216 -5.58728 5.15487 0
M  V30 3394 N 317.792 -0.46758 -1.50504 0
M  V30 3395 C 319.038 0.0887532 -2.02606 0
M  V30 3396 C 319.371 1.39686 -1.34913 0
M  V30 3397 O 318.646 1.88644 -0.473694 0
M  V30 3398 C 318.929 0.276206 -3.59039 0
M  V30 3399 C 318.782 -1.05267 -4.37309 0
M  V30 3400 C 320.101 1.03235 -4.27821 0
M  V30 3401 H 317.22 0.0307814 -0.736357 0
M  V30 3402 H 319.862 -0.612485 -1.79857 0
M  V30 3403 H 318.012 0.8735 -3.78553 0
M  V30 3404 H 319.684 -1.68628 -4.29374 0
M  V30 3405 H 317.927 -1.65015 -4.01189 0
M  V30 3406 H 318.598 -0.875197 -5.45018 0
M  V30 3407 H 321.074 0.526111 -4.12761 0
M  V30 3408 H 319.95 1.1323 -5.37094 0
M  V30 3409 H 320.211 2.06806 -3.90748 0
M  V30 3410 N 319.27 1.56325 -0.20005 0
M  V30 3411 C 320.2 2.22318 0.713916 0
M  V30 3412 C 321.181 1.18788 1.21752 0
M  V30 3413 O 322.366 1.47309 1.26545 0
M  V30 3414 C 319.496 2.88639 1.93144 0
M  V30 3415 C 318.45 3.98457 1.56255 0
M  V30 3416 C 317.776 4.51967 2.85709 0
M  V30 3417 C 319.076 5.16612 0.768747 0
M  V30 3418 H 320.77 2.98952 0.163755 0
M  V30 3419 H 318.316 1.43792 0.0773219 0
M  V30 3420 H 320.269 3.33491 2.57608 0
M  V30 3421 H 318.993 2.09419 2.50621 0
M  V30 3422 H 317.652 3.54305 0.941471 0
M  V30 3423 H 317.3 3.69503 3.41287 0
M  V30 3424 H 317 5.26071 2.6177 0
M  V30 3425 H 318.524 4.99523 3.51154 0
M  V30 3426 H 319.938 5.57977 1.3166 0
M  V30 3427 H 318.335 5.96812 0.627286 0
M  V30 3428 H 319.405 4.84358 -0.229168 0
M  V30 3429 N 320.748 -0.0735177 1.57428 0
M  V30 3430 C 321.996 -0.771472 1.86796 0
M  V30 3431 C 322.317 -1.78201 0.791804 0
M  V30 3432 O 321.587 -1.95074 -0.179718 0
M  V30 3433 H 320.167 -0.28791 0.689287 0
M  V30 3434 H 322.829 -0.0500161 1.94836 0
M  V30 3435 H 321.925 -1.28874 2.8425 0
M  V30 3436 N 322.226 -1.5378 -0.344866 0
M  V30 3437 C 323.454 -1.74899 -1.10534 0
M  V30 3438 C 323.869 -0.487534 -1.82397 0
M  V30 3439 O 323.226 0.540741 -1.74305 0
M  V30 3440 C 323.277 -2.92822 -2.11984 0
M  V30 3441 O 322.998 -4.14089 -1.43044 0
M  V30 3442 C 324.499 -3.25982 -3.00417 0
M  V30 3443 H 321.719 -0.584426 -0.329678 0
M  V30 3444 H 324.263 -2.006 -0.397474 0
M  V30 3445 H 322.418 -2.69457 -2.78338 0
M  V30 3446 H 322.832 -4.80272 -2.10805 0
M  V30 3447 H 324.306 -4.11848 -3.67539 0
M  V30 3448 H 324.783 -2.42228 -3.66363 0
M  V30 3449 H 325.389 -3.51349 -2.39654 0
M  V30 3450 N 323.704 0.605807 -1.45491 0
M  V30 3451 C 324.614 1.74466 -1.56839 0
M  V30 3452 C 325.63 1.68006 -0.452772 0
M  V30 3453 O 326.806 1.8833 -0.713708 0
M  V30 3454 C 323.871 3.10931 -1.53371 0
M  V30 3455 C 322.932 3.28832 -2.75986 0
M  V30 3456 C 322.165 4.58787 -2.72673 0
M  V30 3457 O 322.388 5.4122 -1.80102 0
M  V30 3458 O 321.322 4.79438 -3.63899 0
M  V30 3459 H 325.148 1.67843 -2.53106 0
M  V30 3460 H 322.733 0.770108 -1.28022 0
M  V30 3461 H 324.615 3.92233 -1.54051 0
M  V30 3462 H 323.29 3.18042 -0.602572 0
M  V30 3463 H 322.197 2.47112 -2.80867 0
M  V30 3464 H 323.53 3.26599 -3.68231 0
M  V30 3465 N 325.182 1.32811 0.848464 0
M  V30 3466 C 326.431 1.23075 1.59798 0
M  V30 3467 C 326.744 -0.204419 1.94529 0
M  V30 3468 O 327.95 -0.423701 2.68173 0
M  V30 3469 C 326.406 2.15594 2.88179 0
M  V30 3470 C 326.014 3.64228 2.60849 0
M  V30 3471 C 327.758 2.14709 3.66197 0
M  V30 3472 C 325.665 4.48689 3.85269 0
M  V30 3473 H 324.595 0.457091 0.599653 0
M  V30 3474 H 327.246 1.57813 0.936342 0
M  V30 3475 H 325.628 1.73778 3.55833 0
M  V30 3476 H 326.802 4.14424 2.01467 0
M  V30 3477 H 325.117 3.67306 1.96151 0
M  V30 3478 H 327.714 2.75046 4.58534 0
M  V30 3479 H 328.057 1.13966 4.00397 0
M  V30 3480 H 328.59 2.54837 3.05455 0
M  V30 3481 H 325.329 5.5027 3.56207 0
M  V30 3482 H 324.849 4.03241 4.44024 0
M  V30 3483 H 326.528 4.62006 4.52946 0
M  V30 3484 N 326.66 -1.06551 1.16123 0
M  V30 3485 C 327.59 -2.15935 0.88851 0
M  V30 3486 C 328.571 -1.69306 -0.164135 0
M  V30 3487 O 329.756 -1.94193 -0.0167857 0
M  V30 3488 C 326.886 -3.45149 0.385942 0
M  V30 3489 C 325.84 -4.05271 1.3762 0
M  V30 3490 C 325.166 -5.29664 0.732137 0
M  V30 3491 C 326.466 -4.44355 2.74493 0
M  V30 3492 H 328.16 -2.39006 1.80323 0
M  V30 3493 H 325.706 -1.14866 0.868435 0
M  V30 3494 H 327.659 -4.21004 0.182647 0
M  V30 3495 H 326.383 -3.21689 -0.564274 0
M  V30 3496 H 325.042 -3.3147 1.56599 0
M  V30 3497 H 324.69 -5.02499 -0.224483 0
M  V30 3498 H 324.39 -5.70848 1.39307 0
M  V30 3499 H 325.914 -6.08218 0.538802 0
M  V30 3500 H 327.328 -5.11303 2.59311 0
M  V30 3501 H 325.725 -4.96515 3.37035 0
M  V30 3502 H 326.795 -3.55339 3.29943 0
M  V30 3503 N 328.138 -0.959301 -1.25041 0
M  V30 3504 C 329.386 -0.615393 -1.92503 0
M  V30 3505 C 329.707 0.850969 -1.75452 0
M  V30 3506 O 328.977 1.60658 -1.12098 0
M  V30 3507 H 327.557 -0.224613 -0.712431 0
M  V30 3508 H 330.219 -1.21855 -1.5211 0
M  V30 3509 H 329.315 -0.848738 -3.00338 0
M  V30 3510 N 329.616 1.39756 -0.72842 0
M  V30 3511 C 330.563 2.30647 -0.0841519 0
M  V30 3512 C 331.533 1.48869 0.7367 0
M  V30 3513 O 332.718 1.77574 0.698015 0
M  V30 3514 C 329.858 3.35165 0.822091 0
M  V30 3515 C 328.971 4.31999 -0.0106663 0
M  V30 3516 C 328.106 5.23585 0.896241 0
M  V30 3517 C 327.145 6.12072 0.0583381 0
M  V30 3518 N 326.282 6.96035 0.920818 0
M  V30 3519 H 331.122 2.85173 -0.864891 0
M  V30 3520 H 328.659 1.40422 -0.438179 0
M  V30 3521 H 330.617 3.94345 1.36189 0
M  V30 3522 H 329.247 2.8211 1.56888 0
M  V30 3523 H 328.299 3.74492 -0.66781 0
M  V30 3524 H 329.611 4.9443 -0.658825 0
M  V30 3525 H 328.765 5.87759 1.50412 0
M  V30 3526 H 327.504 4.61459 1.57819 0
M  V30 3527 H 326.509 5.46916 -0.562389 0
M  V30 3528 H 327.734 6.76261 -0.6203 0
M  V30 3529 H 325.68 6.36485 1.58818 0
M  V30 3530 H 325.597 7.55284 0.32899 0
M  V30 3531 H 326.865 7.64646 1.51447 0
M  V30 3532 N 331.094 0.475555 1.50254 0
M  V30 3533 C 332.319 -0.0777042 2.07254 0
M  V30 3534 C 332.744 -1.3235 1.3366 0
M  V30 3535 O 332.102 -1.77152 0.385597 0
M  V30 3536 C 332.15 -0.340169 3.58992 0
M  V30 3537 O 331.254 -1.41982 3.87188 0
M  V30 3538 H 330.595 0.0149556 0.663832 0
M  V30 3539 H 333.125 0.667878 1.93392 0
M  V30 3540 H 333.135 -0.579332 4.03866 0
M  V30 3541 H 331.81 0.570167 4.11973 0
M  V30 3542 H 330.387 -1.16762 3.54148 0
M  V30 3543 N 332.573 -1.56217 0.208337 0
M  V30 3544 C 333.819 -1.98242 -0.427552 0
M  V30 3545 C 334.152 -1.09554 -1.60348 0
M  V30 3546 O 333.427 -0.15035 -1.93918 0
M  V30 3547 C 333.71 -3.4931 -0.874907 0
M  V30 3548 C 333.563 -4.48773 0.303751 0
M  V30 3549 C 334.882 -4.04424 -1.73577 0
M  V30 3550 H 332.001 -0.720744 -0.153936 0
M  V30 3551 H 334.643 -1.87586 0.30192 0
M  V30 3552 H 332.793 -3.58522 -1.49648 0
M  V30 3553 H 334.465 -4.51586 0.941682 0
M  V30 3554 H 332.708 -4.23194 0.953375 0
M  V30 3555 H 333.379 -5.51976 -0.0519883 0
M  V30 3556 H 335.855 -3.98075 -1.21143 0
M  V30 3557 H 334.731 -5.1047 -2.01771 0
M  V30 3558 H 334.992 -3.50494 -2.69456 0
M  V30 3559 N 334.051 0.0651679 -1.57465 0
M  V30 3560 C 335.467 0.420105 -1.53972 0
M  V30 3561 C 335.667 1.78782 -0.929474 0
M  V30 3562 O 334.723 2.46771 -0.534839 0
M  V30 3563 C 336.036 0.355084 -2.98596 0
M  V30 3564 C 337.584 0.434792 -3.09965 0
M  V30 3565 C 338.059 0.399609 -4.56253 0
M  V30 3566 N 339.55 0.459488 -4.60915 0
M  V30 3567 C 340.285 0.454584 -5.71595 0
M  V30 3568 N 339.781 0.404102 -6.9162 0
M  V30 3569 N 341.574 0.501635 -5.59857 0
M  V30 3570 H 333.725 -0.830328 -1.95498 0
M  V30 3571 H 335.988 -0.312244 -0.895102 0
M  V30 3572 H 335.694 -0.583357 -3.46828 0
M  V30 3573 H 335.568 1.16275 -3.58831 0
M  V30 3574 H 337.955 1.36366 -2.61703 0
M  V30 3575 H 338.036 -0.40157 -2.52628 0
M  V30 3576 H 337.68 -0.525436 -5.05175 0
M  V30 3577 H 337.61 1.25359 -5.11461 0
M  V30 3578 H 340.101 0.502482 -3.74544 0
M  V30 3579 H 340.414 0.404468 -7.71741 0
M  V30 3580 H 338.759 0.37069 -6.94011 0
M  V30 3581 H 341.95 0.538812 -4.64989 0
M  V30 3582 H 342.123 0.494345 -6.46112 0
M  V30 3583 N 335.529 1.53961 0.336706 0
M  V30 3584 C 336.778 1.70751 1.07363 0
M  V30 3585 C 337.091 0.481061 1.89592 0
M  V30 3586 O 338.297 0.530046 2.66276 0
M  V30 3587 C 336.753 3.01965 1.95818 0
M  V30 3588 C 336.361 4.31971 1.18764 0
M  V30 3589 C 338.105 3.28121 2.69327 0
M  V30 3590 C 336.012 5.54255 2.06289 0
M  V30 3591 H 334.942 0.636292 0.404535 0
M  V30 3592 H 337.593 1.80459 0.332681 0
M  V30 3593 H 335.975 2.86132 2.7376 0
M  V30 3594 H 337.149 4.5853 0.456849 0
M  V30 3595 H 335.464 4.12481 0.569946 0
M  V30 3596 H 338.061 4.16673 3.35094 0
M  V30 3597 H 338.404 2.45426 3.36261 0
M  V30 3598 H 338.937 3.44762 1.98454 0
M  V30 3599 H 335.676 6.39513 1.43885 0
M  V30 3600 H 335.196 5.31935 2.77138 0
M  V30 3601 H 336.875 5.90159 2.65182 0
M  V30 3602 N 337.007 -0.598083 1.45811 0
M  V30 3603 C 338.256 -1.35295 1.49594 0
M  V30 3604 C 338.569 -1.95057 0.145679 0
M  V30 3605 O 339.775 -2.71431 0.0612099 0
M  V30 3606 C 338.231 -2.45124 2.63519 0
M  V30 3607 C 337.839 -1.91732 4.04899 0
M  V30 3608 C 339.583 -3.2205 2.76558 0
M  V30 3609 C 337.49 -2.991 5.1019 0
M  V30 3610 H 336.42 -0.508552 0.556679 0
M  V30 3611 H 339.071 -0.639977 1.71978 0
M  V30 3612 H 337.453 -3.19149 2.34435 0
M  V30 3613 H 338.627 -1.24352 4.43704 0
M  V30 3614 H 336.942 -1.27522 3.96393 0
M  V30 3615 H 339.539 -4.0215 3.52391 0
M  V30 3616 H 339.882 -3.73663 1.83526 0
M  V30 3617 H 340.415 -2.55127 3.05213 0
M  V30 3618 H 337.154 -2.52393 6.04961 0
M  V30 3619 H 336.674 -3.65017 4.75944 0
M  V30 3620 H 338.353 -3.63318 5.35359 0
M  V30 3621 N 338.485 -1.33259 -0.841409 0
M  V30 3622 C 339.732 -1.24572 -1.5965 0
M  V30 3623 C 340.06 0.189137 -1.93578 0
M  V30 3624 O 339.315 1.14566 -1.5866 0
M  V30 3625 C 339.614 -2.06381 -2.9179 0
M  V30 3626 C 339.28 -3.556 -2.77235 0
M  V30 3627 C 337.942 -3.96282 -2.72973 0
M  V30 3628 C 340.294 -4.50433 -2.62221 0
M  V30 3629 C 337.622 -5.30017 -2.51592 0
M  V30 3630 C 339.974 -5.84327 -2.42374 0
M  V30 3631 C 338.638 -6.24194 -2.36512 0
M  V30 3632 H 337.908 -0.455842 -0.5842 0
M  V30 3633 H 340.555 -1.6482 -0.975016 0
M  V30 3634 H 338.86 -1.58903 -3.5813 0
M  V30 3635 H 340.557 -1.97019 -3.49263 0
M  V30 3636 H 337.147 -3.23298 -2.81384 0
M  V30 3637 H 341.331 -4.19914 -2.64549 0
M  V30 3638 H 336.587 -5.59947 -2.45499 0
M  V30 3639 H 340.761 -6.57414 -2.29739 0
M  V30 3640 H 338.388 -7.27759 -2.19706 0
M  V30 3641 N 339.963 1.05934 -1.16686 0
M  V30 3642 C 341.188 1.83029 -0.975455 0
M  V30 3643 C 341.613 1.82096 0.471452 0
M  V30 3644 O 340.971 1.22443 1.33706 0
M  V30 3645 C 341.019 3.27372 -1.51195 0
M  V30 3646 O 340.123 4.06054 -0.720701 0
M  V30 3647 H 339.464 0.566194 -0.346872 0
M  V30 3648 H 341.994 1.33541 -1.55009 0
M  V30 3649 H 342.004 3.78186 -1.53099 0
M  V30 3650 H 340.679 3.27366 -2.56523 0
M  V30 3651 H 339.256 3.64812 -0.772458 0
M  V30 3652 N 341.441 0.965919 1.2453 0
M  V30 3653 C 342.669 0.644385 1.96609 0
M  V30 3654 C 343.084 -0.785823 1.71669 0
M  V30 3655 O 342.441 -1.52703 0.999399 0
M  V30 3656 C 342.492 0.907375 3.49927 0
M  V30 3657 O 342.213 2.28136 3.74013 0
M  V30 3658 C 343.714 0.599784 4.39224 0
M  V30 3659 H 340.934 0.240588 0.626385 0
M  V30 3660 H 343.478 1.29337 1.58405 0
M  V30 3661 H 341.633 0.304631 3.862 0
M  V30 3662 H 342.047 2.36002 4.68405 0
M  V30 3663 H 343.521 0.834263 5.45659 0
M  V30 3664 H 343.998 -0.465921 4.36722 0
M  V30 3665 H 344.604 1.18235 4.08535 0
M  V30 3666 N 342.919 -1.39368 0.735821 0
M  V30 3667 C 343.849 -2.33234 0.111506 0
M  V30 3668 C 344.83 -1.53954 -0.723334 0
M  V30 3669 O 346.015 -1.82344 -0.668147 0
M  V30 3670 C 343.145 -3.38057 -0.795917 0
M  V30 3671 C 342.099 -4.2795 -0.065172 0
M  V30 3672 C 341.425 -5.23479 -1.08967 0
M  V30 3673 C 342.725 -5.10741 1.09273 0
M  V30 3674 H 344.419 -2.85692 0.895571 0
M  V30 3675 H 341.965 -1.37364 0.432109 0
M  V30 3676 H 343.918 -4.02675 -1.24221 0
M  V30 3677 H 342.642 -2.8404 -1.61211 0
M  V30 3678 H 341.301 -3.64813 0.361511 0
M  V30 3679 H 340.949 -4.65758 -1.89944 0
M  V30 3680 H 340.649 -5.84472 -0.605489 0
M  V30 3681 H 342.173 -5.90974 -1.53565 0
M  V30 3682 H 343.587 -5.68699 0.724841 0
M  V30 3683 H 341.984 -5.8088 1.50659 0
M  V30 3684 H 343.054 -4.45525 1.91404 0
M  V30 3685 N 344.397 -0.483516 -1.5 0
M  V30 3686 C 345.645 0.067027 -2.01989 0
M  V30 3687 C 345.966 1.3909 -1.36671 0
M  V30 3688 O 345.236 1.88978 -0.516152 0
M  V30 3689 H 343.816 0.0277606 -0.746484 0
M  V30 3690 H 346.478 -0.636773 -1.84204 0
M  V30 3691 H 345.574 0.209484 -3.11396 0
M  V30 3692 N 345.875 1.56104 -0.216619 0
M  V30 3693 C 347.121 1.98466 0.417033 0
M  V30 3694 C 347.454 1.10403 1.59765 0
M  V30 3695 O 346.729 0.160632 1.93836 0
M  V30 3696 C 347.012 3.49769 0.85637 0
M  V30 3697 C 346.865 4.48606 -0.327546 0
M  V30 3698 C 348.184 4.05339 1.7143 0
M  V30 3699 H 345.303 0.721551 0.150112 0
M  V30 3700 H 347.945 1.87423 -0.311864 0
M  V30 3701 H 346.095 3.5931 1.47745 0
M  V30 3702 H 347.767 4.5108 -0.965618 0
M  V30 3703 H 346.01 4.22682 -0.975805 0
M  V30 3704 H 346.681 5.51995 0.0227149 0
M  V30 3705 H 349.157 3.98712 1.19031 0
M  V30 3706 H 348.033 5.11533 1.99061 0
M  V30 3707 H 348.294 3.51918 2.67593 0
M  V30 3708 N 347.353 -0.0568162 1.57498 0
M  V30 3709 C 348.593 -0.758273 1.89815 0
M  V30 3710 C 348.957 -1.73978 0.812132 0
M  V30 3711 O 350.158 -2.48744 1.01881 0
M  V30 3712 C 348.429 -1.43465 3.27342 0
M  V30 3713 S 349.988 -2.1691 3.81439 0
M  V30 3714 H 346.806 -0.251836 0.664906 0
M  V30 3715 H 349.408 -0.0137997 1.95495 0
M  V30 3716 H 348.112 -0.706693 4.0427 0
M  V30 3717 H 347.643 -2.21825 3.24896 0
M  V30 3718 H 349.658 -3.43658 3.5793 0
M  V30 3719 N 348.832 -1.54138 -0.328536 0
M  V30 3720 C 350.081 -1.71318 -1.06456 0
M  V30 3721 C 350.394 -0.491109 -1.89334 0
M  V30 3722 O 351.6 -0.54416 -2.65991 0
M  V30 3723 C 350.056 -3.03 -1.94214 0
M  V30 3724 C 349.664 -4.32595 -1.16471 0
M  V30 3725 C 351.408 -3.29544 -2.67583 0
M  V30 3726 C 349.315 -5.55341 -2.03347 0
M  V30 3727 H 348.245 -0.638429 -0.401155 0
M  V30 3728 H 350.896 -1.80633 -0.323106 0
M  V30 3729 H 349.278 -2.87579 -2.72239 0
M  V30 3730 H 350.452 -4.58766 -0.432525 0
M  V30 3731 H 348.767 -4.12777 -0.548063 0
M  V30 3732 H 351.364 -4.18444 -3.3288 0
M  V30 3733 H 351.707 -2.47206 -3.34955 0
M  V30 3734 H 352.24 -3.45809 -1.96623 0
M  V30 3735 H 348.979 -6.40268 -1.40491 0
M  V30 3736 H 348.499 -5.33397 -2.74313 0
M  V30 3737 H 350.178 -5.91557 -2.62049 0
M  V30 3738 N 350.31 0.590341 -1.46126 0
M  V30 3739 C 351.557 1.34882 -1.5104 0
M  V30 3740 C 351.885 1.93849 -0.159021 0
M  V30 3741 O 351.14 1.76544 0.844436 0
M  V30 3742 C 351.439 2.5032 -2.55097 0
M  V30 3743 C 351.105 2.09394 -3.99331 0
M  V30 3744 C 349.767 1.97947 -4.38601 0
M  V30 3745 C 352.119 1.77712 -4.89967 0
M  V30 3746 C 349.447 1.53065 -5.66381 0
M  V30 3747 C 351.799 1.34312 -6.18177 0
M  V30 3748 C 350.463 1.21436 -6.56361 0
M  V30 3749 H 349.733 0.493568 -0.552695 0
M  V30 3750 H 352.38 0.665539 -1.79563 0
M  V30 3751 H 350.685 3.24062 -2.20207 0
M  V30 3752 H 352.382 3.08541 -2.56132 0
M  V30 3753 H 348.972 2.19235 -3.68285 0
M  V30 3754 H 353.156 1.85445 -4.60352 0
M  V30 3755 H 348.412 1.41733 -5.94745 0
M  V30 3756 H 352.586 1.08849 -6.87841 0
M  V30 3757 H 350.213 0.864345 -7.5527 0
M  V30 3758 N 351.788 1.33704 0.83433 0
M  V30 3759 C 353.018 1.28281 1.6195 0
M  V30 3760 C 353.426 -0.147603 1.88623 0
M  V30 3761 O 352.769 -1.1016 1.47005 0
M  V30 3762 C 352.831 1.99386 2.99141 0
M  V30 3763 C 352.495 3.48681 2.95416 0
M  V30 3764 C 353.492 4.438 2.70809 0
M  V30 3765 C 351.177 3.90925 3.15409 0
M  V30 3766 C 353.171 5.79138 2.66229 0
M  V30 3767 C 350.858 5.26366 3.10454 0
M  V30 3768 C 351.856 6.20284 2.85895 0
M  V30 3769 O 351.544 7.53245 2.80852 0
M  V30 3770 H 351.276 0.44315 0.510484 0
M  V30 3771 H 353.83 1.76711 1.04702 0
M  V30 3772 H 352.06 1.45554 3.58261 0
M  V30 3773 H 353.749 1.87403 3.60049 0
M  V30 3774 H 354.515 4.12485 2.5511 0
M  V30 3775 H 350.394 3.18229 3.33543 0
M  V30 3776 H 353.938 6.52416 2.4698 0
M  V30 3777 H 349.835 5.57304 3.25703 0
M  V30 3778 H 350.603 7.62846 2.96661 0
M  V30 3779 N 353.266 -1.05314 1.17247 0
M  V30 3780 C 354.229 -2.112 0.890357 0
M  V30 3781 C 355.229 -1.60359 -0.118943 0
M  V30 3782 O 356.419 -1.73833 0.113086 0
M  V30 3783 C 353.551 -3.39266 0.333422 0
M  V30 3784 H 354.744 -2.37659 1.82916 0
M  V30 3785 H 352.297 -1.21538 0.982758 0
M  V30 3786 H 353.032 -3.18462 -0.612587 0
M  V30 3787 H 352.817 -3.77477 1.06082 0
M  V30 3788 H 354.307 -4.17315 0.154322 0
M  V30 3789 N 354.744 -0.972509 -1.24016 0
M  V30 3790 C 355.991 -0.637034 -1.92219 0
M  V30 3791 C 356.319 0.828418 -1.75976 0
M  V30 3792 O 355.574 1.61206 -1.10955 0
M  V30 3793 C 355.873 -0.963694 -3.44162 0
M  V30 3794 C 355.539 -2.41807 -3.80579 0
M  V30 3795 C 354.201 -2.81556 -3.9023 0
M  V30 3796 C 356.553 -3.36172 -3.98293 0
M  V30 3797 C 353.881 -4.14702 -4.15017 0
M  V30 3798 C 356.233 -4.68952 -4.24578 0
M  V30 3799 C 354.897 -5.08472 -4.32449 0
M  V30 3800 H 354.167 -0.233107 -0.703379 0
M  V30 3801 H 356.814 -1.2249 -1.47202 0
M  V30 3802 H 355.119 -0.29365 -3.90698 0
M  V30 3803 H 356.816 -0.682449 -3.9515 0
M  V30 3804 H 353.406 -2.09988 -3.73635 0
M  V30 3805 H 357.59 -3.06644 -3.90234 0
M  V30 3806 H 352.846 -4.4494 -4.19331 0
M  V30 3807 H 357.02 -5.42037 -4.37229 0
M  V30 3808 H 354.647 -6.11665 -4.51409 0
M  V30 3809 N 356.222 1.38976 -0.743202 0
M  V30 3810 C 357.47 1.99948 -0.29417 0
M  V30 3811 C 357.791 1.59279 1.12495 0
M  V30 3812 O 357.061 0.844808 1.76748 0
M  V30 3813 H 355.641 0.739473 -0.105774 0
M  V30 3814 H 358.303 1.699 -0.954986 0
M  V30 3815 H 357.399 3.10142 -0.349056 0
M  V30 3816 N 357.7 0.491464 1.49741 0
M  V30 3817 C 358.93 -0.0534375 2.06531 0
M  V30 3818 C 359.338 -1.32233 1.35318 0
M  V30 3819 O 358.681 -1.78781 0.422243 0
M  V30 3820 C 358.743 -0.387034 3.57411 0
M  V30 3821 C 358.407 0.782764 4.50246 0
M  V30 3822 C 359.404 1.67059 4.92329 0
M  V30 3823 C 357.089 0.978866 4.9267 0
M  V30 3824 C 359.083 2.73874 5.75562 0
M  V30 3825 C 356.77 2.05022 5.75682 0
M  V30 3826 C 357.768 2.92851 6.17031 0
M  V30 3827 O 357.456 3.98138 6.98385 0
M  V30 3828 H 357.188 0.0129324 0.675876 0
M  V30 3829 H 359.742 0.685238 1.93633 0
M  V30 3830 H 357.972 -1.17918 3.68283 0
M  V30 3831 H 359.661 -0.869419 3.96479 0
M  V30 3832 H 360.427 1.53086 4.60206 0
M  V30 3833 H 356.306 0.304646 4.59992 0
M  V30 3834 H 359.85 3.42458 6.07757 0
M  V30 3835 H 355.747 2.18993 6.07217 0
M  V30 3836 H 356.515 3.95374 7.16674 0
M  V30 3837 N 359.178 -1.55987 0.224894 0
M  V30 3838 C 360.111 -2.16413 -0.723929 0
M  V30 3839 C 361.089 -1.10952 -1.18863 0
M  V30 3840 O 362.273 -1.39225 -1.27077 0
M  V30 3841 C 359.4 -2.74711 -1.98121 0
M  V30 3842 C 358.446 -3.9303 -1.6562 0
M  V30 3843 S 359.279 -5.29817 -0.778058 0
M  V30 3844 C 360.435 -5.91555 -2.04483 0
M  V30 3845 H 360.668 -2.96555 -0.210347 0
M  V30 3846 H 358.201 -1.54397 0.00955457 0
M  V30 3847 H 360.159 -3.08938 -2.70311 0
M  V30 3848 H 358.82 -1.94555 -2.46591 0
M  V30 3849 H 358.013 -4.32334 -2.59043 0
M  V30 3850 H 357.615 -3.59966 -1.01491 0
M  V30 3851 H 359.907 -6.07732 -2.99446 0
M  V30 3852 H 360.85 -6.87498 -1.69563 0
M  V30 3853 H 361.258 -5.20419 -2.18688 0
M  V30 3854 N 360.656 0.0484629 -1.57525 0
M  V30 3855 C 361.902 0.744226 -1.88651 0
M  V30 3856 C 362.235 1.76029 -0.820212 0
M  V30 3857 O 361.51 1.93782 0.166985 0
M  V30 3858 C 361.793 1.43128 -3.30434 0
M  V30 3859 C 361.646 0.43005 -4.47739 0
M  V30 3860 C 362.965 2.37031 -3.70816 0
M  V30 3861 H 360.084 0.269089 -0.68612 0
M  V30 3862 H 362.726 0.00713532 -1.89999 0
M  V30 3863 H 360.876 2.05956 -3.29415 0
M  V30 3864 H 362.548 -0.194816 -4.60888 0
M  V30 3865 H 360.791 -0.252522 -4.33064 0
M  V30 3866 H 361.462 0.948874 -5.43783 0
M  V30 3867 H 363.938 1.84263 -3.73077 0
M  V30 3868 H 362.814 2.82094 -4.70865 0
M  V30 3869 H 363.075 3.22864 -3.02012 0
M  V30 3870 N 362.134 1.5431 0.320358 0
M  V30 3871 C 363.064 1.86912 1.3995 0
M  V30 3872 C 364.045 0.726211 1.53819 0
M  V30 3873 O 365.23 0.980233 1.67646 0
M  V30 3874 C 362.36 2.09932 2.7667 0
M  V30 3875 C 361.314 3.25776 2.77586 0
M  V30 3876 C 360.64 3.34173 4.17412 0
M  V30 3877 C 361.94 4.6335 2.41048 0
M  V30 3878 H 363.634 2.77292 1.12914 0
M  V30 3879 H 361.18 1.33421 0.541738 0
M  V30 3880 H 363.133 2.31324 3.52232 0
M  V30 3881 H 361.857 1.16304 3.0519 0
M  V30 3882 H 360.516 3.04276 2.04479 0
M  V30 3883 H 360.164 2.38098 4.43078 0
M  V30 3884 H 359.864 4.12033 4.18931 0
M  V30 3885 H 361.388 3.57803 4.94782 0
M  V30 3886 H 362.802 4.84602 3.06324 0
M  V30 3887 H 361.199 5.43782 2.53813 0
M  V30 3888 H 362.269 4.65381 1.36193 0
M  V30 3889 N 363.613 -0.582584 1.46437 0
M  V30 3890 C 365.024 -1.1647 1.45916 0
M  V30 3891 C 365.375 -1.95177 0.200077 0
M  V30 3892 O 364.5 -2.04874 -0.696819 0
M  V30 3893 C 365.095 -2.11885 2.64367 0
M  V30 3894 C 363.654 -2.65421 2.66887 0
M  V30 3895 C 362.801 -1.41294 2.38603 0
M  V30 3896 H 365.752 -0.370514 1.54314 0
M  V30 3897 H 365.773 -2.9535 2.39892 0
M  V30 3898 H 365.285 -1.54573 3.5599 0
M  V30 3899 H 363.386 -3.26602 1.79338 0
M  V30 3900 H 363.499 -3.08147 3.66854 0
M  V30 3901 H 361.863 -1.71109 1.88663 0
M  V30 3902 H 362.646 -0.858125 3.32402 0
M  V30 3903 N 365.091 -1.34144 -0.827227 0
M  V30 3904 C 366.021 -1.28005 -1.95287 0
M  V30 3905 C 367.002 -0.158321 -1.69362 0
M  V30 3906 O 368.187 -0.349987 -1.9102 0
M  V30 3907 C 365.317 -1.03036 -3.31664 0
M  V30 3908 C 364.271 -2.11628 -3.72019 0
M  V30 3909 C 363.597 -1.71854 -5.0633 0
M  V30 3910 C 364.897 -3.53417 -3.8457 0
M  V30 3911 H 366.591 -2.22187 -2.00682 0
M  V30 3912 H 364.137 -1.0696 -0.964135 0
M  V30 3913 H 366.09 -0.973863 -4.09993 0
M  V30 3914 H 364.814 -0.0529391 -3.26557 0
M  V30 3915 H 363.473 -2.16339 -2.95961 0
M  V30 3916 H 363.121 -0.727841 -4.97706 0
M  V30 3917 H 362.821 -2.44531 -5.34302 0
M  V30 3918 H 364.345 -1.67692 -5.87122 0
M  V30 3919 H 365.759 -3.51142 -4.5318 0
M  V30 3920 H 364.156 -4.24679 -4.2399 0
M  V30 3921 H 365.226 -3.91072 -2.86689 0
M  V30 3922 N 366.569 1.04691 -1.17803 0
M  V30 3923 C 367.816 1.77782 -0.969532 0
M  V30 3924 C 368.144 1.87926 0.501401 0
M  V30 3925 O 367.399 1.37918 1.38842 0
M  V30 3926 C 367.698 3.21467 -1.56186 0
M  V30 3927 C 367.364 3.3137 -3.05786 0
M  V30 3928 C 366.026 3.3378 -3.46619 0
M  V30 3929 C 368.378 3.31976 -4.01797 0
M  V30 3930 C 365.706 3.34431 -4.82051 0
M  V30 3931 C 368.058 3.34167 -5.37136 0
M  V30 3932 C 366.722 3.34866 -5.77426 0
M  V30 3933 H 365.992 0.650549 -0.354777 0
M  V30 3934 H 368.639 1.23006 -1.46772 0
M  V30 3935 H 366.944 3.79203 -0.985515 0
M  V30 3936 H 368.641 3.76652 -1.37602 0
M  V30 3937 H 365.231 3.3021 -2.73238 0
M  V30 3938 H 369.415 3.29311 -3.71306 0
M  V30 3939 H 364.671 3.33285 -5.12573 0
M  V30 3940 H 368.845 3.33585 -6.11305 0
M  V30 3941 H 366.472 3.35124 -6.82346 0
M  V30 3942 N 368.047 0.979072 1.23499 0
M  V30 3943 C 369.01 0.523244 2.23147 0
M  V30 3944 C 370.01 -0.386406 1.56088 0
M  V30 3945 O 371.2 -0.180283 1.73265 0
M  V30 3946 C 368.332 -0.240739 3.40049 0
M  V30 3947 H 369.525 1.40432 2.64989 0
M  V30 3948 H 367.078 0.764824 1.36309 0
M  V30 3949 H 367.813 -1.13841 3.03662 0
M  V30 3950 H 367.598 0.412207 3.89927 0
M  V30 3951 H 369.088 -0.548297 4.13985 0
M  V30 3952 N 369.525 -1.3858 0.750561 0
M  V30 3953 C 370.755 -2.04175 0.31564 0
M  V30 3954 C 371.163 -1.56726 -1.05989 0
M  V30 3955 O 370.506 -0.734225 -1.68389 0
M  V30 3956 C 370.568 -3.58585 0.256389 0
M  V30 3957 C 370.232 -4.29077 1.57296 0
M  V30 3958 C 371.229 -4.54656 2.52159 0
M  V30 3959 C 368.914 -4.67324 1.84156 0
M  V30 3960 C 370.908 -5.17512 3.72103 0
M  V30 3961 C 368.595 -5.29905 3.04374 0
M  V30 3962 C 369.593 -5.54933 3.98168 0
M  V30 3963 O 369.281 -6.16212 5.16273 0
M  V30 3964 H 369.013 -0.662742 0.133226 0
M  V30 3965 H 371.567 -1.78313 1.01948 0
M  V30 3966 H 369.797 -3.83406 -0.503677 0
M  V30 3967 H 371.486 -4.05628 -0.148612 0
M  V30 3968 H 372.252 -4.25539 2.32683 0
M  V30 3969 H 368.131 -4.47191 1.11988 0
M  V30 3970 H 371.675 -5.36963 4.45327 0
M  V30 3971 H 367.572 -5.58444 3.23745 0
M  V30 3972 H 368.34 -6.34701 5.16815 0
M  V30 3973 N 371.003 -0.499398 -1.49478 0
M  V30 3974 C 372.25 0.0456899 -2.02448 0
M  V30 3975 C 372.578 1.37142 -1.37921 0
M  V30 3976 O 371.833 1.89111 -0.503544 0
M  V30 3977 C 372.132 0.248424 -3.56536 0
M  V30 3978 C 371.798 -0.999107 -4.39692 0
M  V30 3979 C 370.46 -1.34108 -4.62135 0
M  V30 3980 C 372.812 -1.82842 -4.88076 0
M  V30 3981 C 370.14 -2.51191 -5.30208 0
M  V30 3982 C 372.492 -2.99076 -5.57437 0
M  V30 3983 C 371.156 -3.33655 -5.78127 0
M  V30 3984 H 370.426 0.0167191 -0.740811 0
M  V30 3985 H 373.073 -0.65923 -1.79795 0
M  V30 3986 H 371.378 1.03586 -3.77859 0
M  V30 3987 H 373.075 0.684605 -3.95113 0
M  V30 3988 H 369.665 -0.722729 -4.22463 0
M  V30 3989 H 373.849 -1.57737 -4.70566 0
M  V30 3990 H 369.105 -2.78221 -5.44429 0
M  V30 3991 H 373.279 -3.63664 -5.93904 0
M  V30 3992 H 370.906 -4.24483 -6.30649 0
M  V30 3993 N 372.481 1.55866 -0.233164 0
M  V30 3994 C 373.73 1.97779 0.39579 0
M  V30 3995 C 374.043 1.12419 1.60066 0
M  V30 3996 O 375.249 1.44283 2.29988 0
M  V30 3997 C 373.705 3.5188 0.755556 0
M  V30 3998 C 373.313 4.45959 -0.427152 0
M  V30 3999 C 375.057 4.02479 1.34946 0
M  V30 4000 C 372.964 5.91383 -0.0443043 0
M  V30 4001 H 371.894 0.738592 0.15165 0
M  V30 4002 H 374.545 1.80486 -0.331212 0
M  V30 4003 H 372.927 3.64816 1.5403 0
M  V30 4004 H 374.101 4.44776 -1.20462 0
M  V30 4005 H 372.416 4.05765 -0.935068 0
M  V30 4006 H 375.013 5.08637 1.649 0
M  V30 4007 H 375.356 3.49014 2.26925 0
M  V30 4008 H 375.889 3.92813 0.62791 0
M  V30 4009 H 372.628 6.48857 -0.930874 0
M  V30 4010 H 372.148 5.95734 0.697238 0
M  V30 4011 H 373.827 6.45893 0.378334 0
M  V30 4012 N 373.959 -0.0401083 1.57549 0
M  V30 4013 C 375.375 -0.395556 1.54621 0
M  V30 4014 C 375.575 -1.77281 0.957799 0
M  V30 4015 O 374.631 -2.45888 0.574031 0
M  V30 4016 C 375.944 -0.307535 2.99123 0
M  V30 4017 C 377.492 -0.385425 3.10618 0
M  V30 4018 C 377.967 -0.326973 4.56831 0
M  V30 4019 N 379.458 -0.386102 4.61588 0
M  V30 4020 C 380.193 -0.363591 5.72246 0
M  V30 4021 N 379.689 -0.29402 6.92176 0
M  V30 4022 N 381.482 -0.412503 5.60584 0
M  V30 4023 H 373.633 0.861325 1.94152 0
M  V30 4024 H 375.896 0.326445 0.890021 0
M  V30 4025 H 375.602 0.638461 3.45856 0
M  V30 4026 H 375.476 -1.10552 3.60636 0
M  V30 4027 H 377.863 -1.32185 2.63839 0
M  V30 4028 H 377.944 0.44171 2.51957 0
M  V30 4029 H 377.588 0.605738 5.04275 0
M  V30 4030 H 377.518 -1.17207 5.13391 0
M  V30 4031 H 380.009 -0.442832 3.75296 0
M  V30 4032 H 380.322 -0.28164 7.72287 0
M  V30 4033 H 378.667 -0.260232 6.94513 0
M  V30 4034 H 381.858 -0.464769 4.65787 0
M  V30 4035 H 382.031 -0.391492 6.46816 0
M  V30 4036 N 375.437 -1.54477 -0.31217 0
M  V30 4037 C 376.714 -1.63891 -1.06767 0
M  V30 4038 C 377.094 -0.480028 -2.0557 0
M  V30 4039 O 376.442 0.524487 -2.22399 0
M  V30 4040 C 376.652 -3.01402 -1.75948 0
M  V30 4041 C 378 -3.57838 -2.28554 0
M  V30 4042 O 379.024 -3.03782 -1.85998 0
M  V30 4043 O 377.883 -4.52462 -3.06497 0
M  V30 4044 H 374.977 -0.664125 -0.492816 0
M  V30 4045 H 377.523 -1.66823 -0.311149 0
M  V30 4046 H 376.295 -3.77187 -1.04144 0
M  V30 4047 H 375.918 -3.02199 -2.58383 0
M  V30 4048 N 376.915 0.57481 -1.46744 0
M  V30 4049 C 378.161 1.33251 -1.53674 0
M  V30 4050 C 378.516 1.91468 -0.189125 0
M  V30 4051 O 377.809 1.73954 0.803151 0
M  V30 4052 C 378.003 2.476 -2.57738 0
M  V30 4053 C 377.832 2.00586 -4.02487 0
M  V30 4054 C 376.602 1.85237 -4.70123 0
M  V30 4055 C 378.8 1.56078 -4.90045 0
M  V30 4056 N 376.782 1.32377 -5.99458 0
M  V30 4057 C 378.153 1.14863 -6.09267 0
M  V30 4058 C 380.208 1.43968 -4.76632 0
M  V30 4059 C 378.911 0.627435 -7.16558 0
M  V30 4060 C 380.937 0.932512 -5.84002 0
M  V30 4061 C 380.299 0.53019 -7.02402 0
M  V30 4062 H 376.398 0.480284 -0.617131 0
M  V30 4063 H 378.982 0.653592 -1.83402 0
M  V30 4064 H 377.153 3.13045 -2.29907 0
M  V30 4065 H 378.885 3.14567 -2.54616 0
M  V30 4066 H 375.64 2.07423 -4.25761 0
M  V30 4067 H 376.064 1.08085 -6.68316 0
M  V30 4068 H 380.706 1.73689 -3.85476 0
M  V30 4069 H 378.424 0.317821 -8.07475 0
M  V30 4070 H 382.01 0.842611 -5.75666 0
M  V30 4071 H 380.89 0.14381 -7.84068 0
M  V30 4072 N 378.394 1.34581 0.820102 0
M  V30 4073 C 379.81 1.14325 1.11364 0
M  V30 4074 C 380.01 -0.0533648 2.01429 0
M  V30 4075 O 379.066 -0.728044 2.41776 0
M  V30 4076 C 380.379 2.43983 1.75764 0
M  V30 4077 C 381.927 2.50065 1.88246 0
M  V30 4078 C 382.402 3.79732 2.56061 0
M  V30 4079 N 383.893 3.80908 2.63558 0
M  V30 4080 C 384.628 4.77961 3.16766 0
M  V30 4081 N 384.124 5.85397 3.70517 0
M  V30 4082 N 385.917 4.65413 3.15194 0
M  V30 4083 H 378.068 2.11246 0.221096 0
M  V30 4084 H 380.331 0.934289 0.160649 0
M  V30 4085 H 380.037 3.31651 1.1705 0
M  V30 4086 H 379.911 2.57531 2.75604 0
M  V30 4087 H 382.298 1.62834 2.46108 0
M  V30 4088 H 382.379 2.40442 0.873006 0
M  V30 4089 H 382.023 4.67354 1.98853 0
M  V30 4090 H 381.953 3.86639 3.57516 0
M  V30 4091 H 384.444 3.03274 2.25463 0
M  V30 4092 H 384.757 6.55463 4.09376 0
M  V30 4093 H 383.102 5.89107 3.68752 0
M  V30 4094 H 386.293 3.80627 2.72471 0
M  V30 4095 H 386.466 5.41216 3.56356 0
M  V30 4096 N 379.872 -1.04064 1.18357 0
M  V30 4097 C 380.805 -2.11618 0.854 0
M  V30 4098 C 381.783 -1.61555 -0.184043 0
M  V30 4099 O 382.967 -1.88395 -0.0630048 0
M  V30 4100 C 380.094 -3.37574 0.27597 0
M  V30 4101 C 379.14 -4.06485 1.2912 0
M  V30 4102 S 379.973 -4.53543 2.84709 0
M  V30 4103 C 381.129 -5.82732 2.28417 0
M  V30 4104 H 381.362 -2.39247 1.76488 0
M  V30 4105 H 378.895 -1.16832 1.00944 0
M  V30 4106 H 380.853 -4.10468 -0.051026 0
M  V30 4107 H 379.514 -3.0806 -0.613028 0
M  V30 4108 H 378.707 -4.97024 0.835633 0
M  V30 4109 H 378.309 -3.39708 1.56443 0
M  V30 4110 H 380.601 -6.56677 1.66677 0
M  V30 4111 H 381.544 -6.33052 3.17256 0
M  V30 4112 H 381.952 -5.37838 1.71436 0
M  V30 4113 N 381.35 -0.985608 -1.22978 0
M  V30 4114 C 382.28 -0.549649 -2.26939 0
M  V30 4115 C 383.261 0.419803 -1.64838 0
M  V30 4116 O 384.446 0.31203 -1.91677 0
M  V30 4117 C 381.576 0.143652 -3.47003 0
M  V30 4118 C 380.53 -0.743606 -4.21491 0
M  V30 4119 C 379.856 0.0822027 -5.34637 0
M  V30 4120 C 381.156 -2.03694 -4.80943 0
M  V30 4121 H 382.85 -1.41862 -2.63658 0
M  V30 4122 H 380.396 -0.683571 -1.26741 0
M  V30 4123 H 382.349 0.459985 -4.18882 0
M  V30 4124 H 381.073 1.04711 -3.09359 0
M  V30 4125 H 379.732 -1.04347 -3.51436 0
M  V30 4126 H 379.38 0.986359 -4.93234 0
M  V30 4127 H 379.08 -0.508377 -5.85397 0
M  V30 4128 H 380.604 0.392797 -6.09335 0
M  V30 4129 H 382.018 -1.78504 -5.44802 0
M  V30 4130 H 380.415 -2.57573 -5.42011 0
M  V30 4131 H 381.485 -2.72042 -4.01399 0
M  V30 4132 N 382.828 1.3818 -0.7579 0
M  V30 4133 C 383.758 2.33027 -0.148597 0
M  V30 4134 C 384.739 1.55085 0.69875 0
M  V30 4135 O 385.924 1.83384 0.639053 0
M  V30 4136 C 383.054 3.3928 0.742034 0
M  V30 4137 C 382.008 4.28 -0.00291946 0
M  V30 4138 C 381.334 5.25146 1.00625 0
M  V30 4139 C 382.634 5.08938 -1.17385 0
M  V30 4140 H 384.328 2.84231 -0.940909 0
M  V30 4141 H 381.874 1.36659 -0.453908 0
M  V30 4142 H 383.827 4.046 1.17799 0
M  V30 4143 H 382.551 2.86569 1.56671 0
M  V30 4144 H 381.21 3.64192 -0.419504 0
M  V30 4145 H 380.858 4.68721 1.8251 0
M  V30 4146 H 380.558 5.85361 0.512428 0
M  V30 4147 H 382.082 5.93342 1.44143 0
M  V30 4148 H 383.496 5.67474 -0.815224 0
M  V30 4149 H 381.893 5.7841 -1.59882 0
M  V30 4150 H 382.963 4.42424 -1.98468 0
M  V30 4151 N 384.306 0.507319 1.49211 0
M  V30 4152 C 385.552 -0.0350047 2.0277 0
M  V30 4153 C 385.885 -1.3606 1.38569 0
M  V30 4154 O 385.16 -1.87321 0.523542 0
M  V30 4155 C 385.443 -0.180916 3.59645 0
M  V30 4156 C 385.296 1.16825 4.34364 0
M  V30 4157 C 386.615 -0.918558 4.30407 0
M  V30 4158 H 383.734 -0.0112473 0.736914 0
M  V30 4159 H 386.376 0.659956 1.7817 0
M  V30 4160 H 384.526 -0.772826 3.80736 0
M  V30 4161 H 386.198 1.79952 4.24753 0
M  V30 4162 H 384.441 1.75594 3.96673 0
M  V30 4163 H 385.112 1.01939 5.42506 0
M  V30 4164 H 387.588 -0.41649 4.1401 0
M  V30 4165 H 386.464 -0.989505 5.39907 0
M  V30 4166 H 386.725 -1.96373 3.96093 0
M  V30 4167 N 385.784 -1.5574 0.241426 0
M  V30 4168 C 386.747 -2.19877 -0.647063 0
M  V30 4169 C 387.747 -1.16642 -1.10686 0
M  V30 4170 O 388.937 -1.41757 -1.01245 0
M  V30 4171 C 386.069 -2.83797 -1.88871 0
M  V30 4172 H 387.262 -2.99772 -0.087574 0
M  V30 4173 H 384.815 -1.56298 -0.00813574 0
M  V30 4174 H 385.55 -2.07824 -2.48957 0
M  V30 4175 H 385.335 -3.59414 -1.56728 0
M  V30 4176 H 386.825 -3.32898 -2.52129 0
M  V30 4177 N 387.262 0.0317525 -1.57568 0
M  V30 4178 C 388.192 1.03274 -2.0942 0
M  V30 4179 C 389.173 1.3788 -0.996143 0
M  V30 4180 O 390.358 1.46811 -1.27122 0
M  V30 4181 C 387.488 2.33448 -2.57137 0
M  V30 4182 C 386.442 2.13091 -3.71182 0
M  V30 4183 C 385.768 3.49001 -4.05095 0
M  V30 4184 C 387.068 1.51928 -4.99715 0
M  V30 4185 H 388.762 0.60112 -2.93303 0
M  V30 4186 H 386.308 0.287705 -1.41097 0
M  V30 4187 H 388.261 3.03802 -2.92032 0
M  V30 4188 H 386.985 2.78665 -1.70333 0
M  V30 4189 H 385.644 1.45171 -3.36632 0
M  V30 4190 H 385.292 3.91862 -3.15362 0
M  V30 4191 H 384.992 3.36207 -4.81911 0
M  V30 4192 H 386.516 4.20721 -4.42522 0
M  V30 4193 H 387.93 2.12196 -5.32584 0
M  V30 4194 H 386.327 1.49716 -5.81124 0
M  V30 4195 H 387.397 0.484811 -4.8247 0
M  V30 4196 N 388.74 1.54641 0.303973 0
M  V30 4197 C 389.968 1.77768 1.05858 0
M  V30 4198 C 390.383 0.535722 1.8104 0
M  V30 4199 O 389.74 -0.494337 1.75677 0
M  V30 4200 C 389.791 2.9834 2.04146 0
M  V30 4201 O 389.512 4.17736 1.32015 0
M  V30 4202 C 391.013 3.33832 2.91669 0
M  V30 4203 H 388.233 0.592961 0.314067 0
M  V30 4204 H 390.777 2.01583 0.344149 0
M  V30 4205 H 388.932 2.76742 2.71096 0
M  V30 4206 H 389.346 4.85693 1.97998 0
M  V30 4207 H 390.82 4.21448 3.56491 0
M  V30 4208 H 391.297 2.51857 3.59812 0
M  V30 4209 H 391.903 3.57579 2.30254 0
M  V30 4210 N 390.218 -0.567019 1.47046 0
M  V30 4211 C 391.151 -1.69016 1.53326 0
M  V30 4212 C 392.129 -1.57949 0.386126 0
M  V30 4213 O 393.313 -1.78945 0.592529 0
M  V30 4214 C 390.44 -3.07191 1.42658 0
M  V30 4215 C 389.486 -3.36733 2.6175 0
M  V30 4216 S 390.319 -3.27069 4.24012 0
M  V30 4217 C 391.475 -4.67755 4.1588 0
M  V30 4218 H 391.708 -1.63434 2.48348 0
M  V30 4219 H 389.241 -0.747048 1.35124 0
M  V30 4220 H 391.199 -3.86897 1.37191 0
M  V30 4221 H 389.86 -3.10249 0.490369 0
M  V30 4222 H 389.053 -4.37441 2.50323 0
M  V30 4223 H 388.655 -2.64627 2.64289 0
M  V30 4224 H 390.947 -5.58491 3.83529 0
M  V30 4225 H 391.89 -4.84239 5.16641 0
M  V30 4226 H 392.298 -4.45341 3.46889 0
M  V30 4227 N 391.696 -1.35014 -0.812953 0
M  V30 4228 C 393.107 -1.25035 -1.38648 0
M  V30 4229 C 393.458 0.119967 -1.95833 0
M  V30 4230 O 392.583 1.02069 -1.90816 0
M  V30 4231 C 393.178 -2.26394 -2.52054 0
M  V30 4232 C 391.737 -2.20175 -3.05287 0
M  V30 4233 C 390.884 -2.12451 -1.78213 0
M  V30 4234 H 393.835 -1.46235 -0.616516 0
M  V30 4235 H 393.856 -1.88672 -3.30429 0
M  V30 4236 H 393.368 -3.26116 -2.10404 0
M  V30 4237 H 391.469 -1.23841 -3.51417 0
M  V30 4238 H 391.582 -3.11863 -3.63701 0
M  V30 4239 H 389.946 -1.58328 -1.9951 0
M  V30 4240 H 390.729 -3.14024 -1.38723 0
M  V30 4241 N 393.175 1.03435 -1.18907 0
M  V30 4242 C 394.423 1.76394 -0.986382 0
M  V30 4243 C 394.744 1.88883 0.484567 0
M  V30 4244 O 394.014 1.41843 1.3512 0
M  V30 4245 H 392.594 0.65344 -0.361975 0
M  V30 4246 H 395.256 1.248 -1.49703 0
M  V30 4247 H 394.352 2.77424 -1.42978 0
M  V30 4248 N 394.653 0.992116 1.22453 0
M  V30 4249 C 395.899 0.668523 1.91464 0
M  V30 4250 C 396.232 -0.797313 1.77078 0
M  V30 4251 O 395.507 -1.5765 1.13916 0
M  V30 4252 C 395.79 1.07424 3.43703 0
M  V30 4253 C 395.643 2.59857 3.67143 0
M  V30 4254 C 396.962 0.626891 4.35612 0
M  V30 4255 H 394.081 0.244341 0.695318 0
M  V30 4256 H 396.723 1.2355 1.44345 0
M  V30 4257 H 394.873 0.591816 3.83966 0
M  V30 4258 H 396.545 3.15764 3.3629 0
M  V30 4259 H 394.788 3.01961 3.11451 0
M  V30 4260 H 395.459 2.83296 4.73759 0
M  V30 4261 H 397.935 1.04125 4.02861 0
M  V30 4262 H 396.811 0.939076 5.40807 0
M  V30 4263 H 397.072 -0.472457 4.39568 0
M  V30 4264 N 396.131 -1.37776 0.765217 0
M  V30 4265 C 397.061 -2.32945 0.160953 0
M  V30 4266 C 398.042 -1.55454 -0.690516 0
M  V30 4267 O 399.227 -1.83721 -0.629318 0
M  V30 4268 C 396.357 -3.39669 -0.724031 0
M  V30 4269 C 395.311 -4.27992 0.0256173 0
M  V30 4270 C 394.637 -5.25673 -0.978383 0
M  V30 4271 C 395.937 -5.08309 1.20082 0
M  V30 4272 H 397.631 -2.83728 0.955969 0
M  V30 4273 H 395.177 -1.36416 0.461149 0
M  V30 4274 H 397.13 -4.05219 -1.15652 0
M  V30 4275 H 395.854 -2.87396 -1.5515 0
M  V30 4276 H 394.513 -3.63964 0.438812 0
M  V30 4277 H 394.161 -4.69682 -1.80022 0
M  V30 4278 H 393.861 -5.85625 -0.481378 0
M  V30 4279 H 395.385 -5.94098 -1.40995 0
M  V30 4280 H 396.799 -5.67034 0.845307 0
M  V30 4281 H 395.196 -5.77554 1.62947 0
M  V30 4282 H 396.266 -4.41365 2.00811 0
M  V30 4283 N 397.609 -0.515225 -1.4894 0
M  V30 4284 C 398.849 0.0223983 -2.04388 0
M  V30 4285 C 399.213 1.32961 -1.38511 0
M  V30 4286 O 400.414 1.95236 -1.8476 0
M  V30 4287 C 398.685 0.157056 -3.57055 0
M  V30 4288 S 400.244 0.646875 -4.34006 0
M  V30 4289 H 397.062 -0.00500662 -0.710982 0
M  V30 4290 H 399.664 -0.69243 -1.82827 0
M  V30 4291 H 398.368 -0.799412 -4.02539 0
M  V30 4292 H 397.899 0.896704 -3.83044 0
M  V30 4293 H 399.914 1.91381 -4.57808 0
M  V30 4294 N 399.087 1.5561 -0.249682 0
M  V30 4295 C 400.333 1.99306 0.374841 0
M  V30 4296 C 400.666 1.13767 1.57387 0
M  V30 4297 O 399.941 0.201711 1.93451 0
M  V30 4298 C 400.224 3.51507 0.781986 0
M  V30 4299 C 400.077 4.4781 -0.422629 0
M  V30 4300 C 401.396 4.08884 1.62793 0
M  V30 4301 H 398.515 0.724572 0.134773 0
M  V30 4302 H 401.157 1.86719 -0.351549 0
M  V30 4303 H 399.307 3.62363 1.4009 0
M  V30 4304 H 400.979 4.48931 -1.06108 0
M  V30 4305 H 399.222 4.20518 -1.06524 0
M  V30 4306 H 399.893 5.51919 -0.0943766 0
M  V30 4307 H 402.369 4.01147 1.10547 0
M  V30 4308 H 401.245 5.1564 1.88166 0
M  V30 4309 H 401.506 3.57515 2.60068 0
M  V30 4310 N 400.565 -0.0233959 1.57583 0
M  V30 4311 C 401.528 -1.00693 2.05897 0
M  V30 4312 C 402.528 -1.28693 0.964092 0
M  V30 4313 O 403.718 -1.23602 1.22753 0
M  V30 4314 C 400.85 -2.33825 2.4807 0
M  V30 4315 H 402.043 -0.589476 2.9405 0
M  V30 4316 H 399.596 -0.270354 1.53944 0
M  V30 4317 H 400.331 -2.80307 1.6309 0
M  V30 4318 H 400.116 -2.1483 3.2801 0
M  V30 4319 H 401.606 -3.04426 2.85857 0
M  V30 4320 N 402.043 -1.548 -0.295768 0
M  V30 4321 C 402.973 -1.89115 -1.36959 0
M  V30 4322 C 403.954 -0.75059 -1.52644 0
M  V30 4323 O 405.139 -1.00678 -1.66065 0
M  V30 4324 C 402.269 -2.14307 -2.73295 0
M  V30 4325 C 401.223 -3.30151 -2.72368 0
M  V30 4326 C 400.549 -3.40772 -4.12042 0
M  V30 4327 C 401.849 -4.67126 -2.33646 0
M  V30 4328 H 403.543 -2.79053 -1.08488 0
M  V30 4329 H 401.089 -1.34266 -0.520443 0
M  V30 4330 H 403.042 -2.36898 -3.48507 0
M  V30 4331 H 401.766 -1.21145 -3.03301 0
M  V30 4332 H 400.425 -3.0749 -1.99613 0
M  V30 4333 H 400.073 -2.45117 -4.39234 0
M  V30 4334 H 399.773 -4.18645 -4.12322 0
M  V30 4335 H 401.297 -3.6563 -4.89027 0
M  V30 4336 H 402.711 -4.89414 -2.98575 0
M  V30 4337 H 401.108 -5.47751 -2.45129 0
M  V30 4338 H 402.178 -4.67489 -1.28772 0
M  V30 4339 N 403.521 0.559213 -1.47345 0
M  V30 4340 C 404.767 1.31614 -1.55079 0
M  V30 4341 C 405.122 1.91257 -0.209422 0
M  V30 4342 O 404.415 1.74796 0.784656 0
M  V30 4343 C 404.609 2.44853 -2.6035 0
M  V30 4344 C 404.438 1.96305 -4.04591 0
M  V30 4345 C 403.208 1.8024 -4.72061 0
M  V30 4346 C 405.406 1.50872 -4.91673 0
M  V30 4347 N 403.388 1.26011 -6.00828 0
M  V30 4348 C 404.759 1.08395 -6.10451 0
M  V30 4349 C 406.814 1.38905 -4.78132 0
M  V30 4350 C 405.517 0.551399 -7.17183 0
M  V30 4351 C 407.543 0.870518 -5.84958 0
M  V30 4352 C 406.905 0.455661 -7.02925 0
M  V30 4353 H 403.004 0.473712 -0.62219 0
M  V30 4354 H 405.588 0.634103 -1.84085 0
M  V30 4355 H 403.759 3.10589 -2.33215 0
M  V30 4356 H 405.491 3.11849 -2.57938 0
M  V30 4357 H 402.246 2.02895 -4.27937 0
M  V30 4358 H 402.67 1.00991 -6.69425 0
M  V30 4359 H 407.312 1.69591 -3.87297 0
M  V30 4360 H 405.03 0.232159 -8.07766 0
M  V30 4361 H 408.616 0.781507 -5.76527 0
M  V30 4362 H 407.496 0.0606414 -7.84177 0
M  V30 4363 N 404.999 1.35443 0.805782 0
M  V30 4364 C 406.245 1.2996 1.56467 0
M  V30 4365 C 406.6 -0.124742 1.91995 0
M  V30 4366 O 405.893 -1.07533 1.58579 0
M  V30 4367 C 406.087 2.14045 2.86216 0
M  V30 4368 C 405.916 3.64512 2.63365 0
M  V30 4369 C 404.686 4.33744 2.59219 0
M  V30 4370 C 406.884 4.58142 2.33688 0
M  V30 4371 N 404.866 5.69953 2.28094 0
M  V30 4372 C 406.237 5.8248 2.12408 0
M  V30 4373 C 408.292 4.46877 2.19558 0
M  V30 4374 C 406.995 6.96818 1.78429 0
M  V30 4375 C 409.021 5.61065 1.86976 0
M  V30 4376 C 408.383 6.84431 1.66532 0
M  V30 4377 H 404.482 0.530817 0.574245 0
M  V30 4378 H 407.066 1.70333 0.943126 0
M  V30 4379 H 405.237 1.75942 3.46264 0
M  V30 4380 H 406.969 2.00075 3.51784 0
M  V30 4381 H 403.724 3.86365 2.73896 0
M  V30 4382 H 404.148 6.41845 2.15323 0
M  V30 4383 H 408.79 3.52102 2.34061 0
M  V30 4384 H 406.508 7.91559 1.62664 0
M  V30 4385 H 410.094 5.54302 1.7675 0
M  V30 4386 H 408.974 7.71294 1.41688 0
M  V30 4387 N 406.477 -1.02803 1.19454 0
M  V30 4388 C 407.724 -1.76217 0.997693 0
M  V30 4389 C 408.052 -1.887 -0.47144 0
M  V30 4390 O 407.307 -1.4011 -1.3663 0
M  V30 4391 C 407.606 -3.18941 1.6128 0
M  V30 4392 C 407.272 -3.26463 3.11019 0
M  V30 4393 C 405.934 -3.28223 3.51885 0
M  V30 4394 C 408.286 -3.25542 4.07028 0
M  V30 4395 C 405.614 -3.26719 4.8731 0
M  V30 4396 C 407.966 -3.25579 5.42385 0
M  V30 4397 C 406.63 -3.25637 5.82681 0
M  V30 4398 H 405.9 -0.644823 0.365082 0
M  V30 4399 H 408.547 -1.20655 1.4871 0
M  V30 4400 H 406.852 -3.77587 1.04572 0
M  V30 4401 H 408.549 -3.74415 1.43577 0
M  V30 4402 H 405.139 -3.25822 2.78457 0
M  V30 4403 H 409.323 -3.23362 3.76498 0
M  V30 4404 H 404.579 -3.25089 5.1781 0
M  V30 4405 H 408.753 -3.23817 6.16535 0
M  V30 4406 H 406.38 -3.24226 6.87591 0
M  V30 4407 N 407.956 -0.998596 -1.21925 0
M  V30 4408 C 409.205 -0.673085 -1.90138 0
M  V30 4409 C 409.518 0.79895 -1.78539 0
M  V30 4410 O 410.724 1.23628 -2.4172 0
M  V30 4411 C 409.18 -1.15339 -3.40918 0
M  V30 4412 C 408.788 -2.65106 -3.61141 0
M  V30 4413 C 410.532 -0.902476 -4.14796 0
M  V30 4414 C 408.439 -3.0671 -5.05651 0
M  V30 4415 H 407.369 -0.248057 -0.712028 0
M  V30 4416 H 410.02 -1.20891 -1.38049 0
M  V30 4417 H 408.402 -0.545658 -3.92223 0
M  V30 4418 H 409.576 -3.31274 -3.20304 0
M  V30 4419 H 407.891 -2.88142 -3.00605 0
M  V30 4420 H 410.488 -1.18895 -5.21314 0
M  V30 4421 H 410.831 0.161349 -4.15987 0
M  V30 4422 H 411.364 -1.47269 -3.69536 0
M  V30 4423 H 408.103 -4.12292 -5.09603 0
M  V30 4424 H 407.623 -2.45249 -5.47369 0
M  V30 4425 H 409.302 -2.9833 -5.74115 0
M  V30 4426 N 409.434 1.37368 -0.772513 0
M  V30 4427 C 410.845 1.8231 -0.402493 0
M  V30 4428 C 411.196 1.6436 1.07146 0
M  V30 4429 O 410.321 1.15514 1.82991 0
M  V30 4430 C 410.916 3.30979 -0.723776 0
M  V30 4431 C 409.475 3.74195 -0.406802 0
M  V30 4432 C 408.622 2.59885 -0.967218 0
M  V30 4433 H 411.573 1.25829 -0.967099 0
M  V30 4434 H 411.594 3.80499 -0.00870832 0
M  V30 4435 H 411.106 3.44011 -1.7966 0
M  V30 4436 H 409.207 3.66732 0.658673 0
M  V30 4437 H 409.32 4.7027 -0.915588 0
M  V30 4438 H 407.684 2.51674 -0.391416 0
M  V30 4439 H 408.467 2.7571 -2.04546 0
M  V30 4440 N 410.912 0.523116 1.48665 0
M  V30 4441 C 411.822 -0.247406 2.33292 0
M  V30 4442 C 412.838 -0.945769 1.46052 0
M  V30 4443 O 414.014 -0.922253 1.79043 0
M  V30 4444 C 411.079 -1.28487 3.22012 0
M  V30 4445 C 410.14 -0.597592 4.2512 0
M  V30 4446 C 409.373 -1.58563 5.09601 0
M  V30 4447 O 409.596 -2.81763 4.95949 0
M  V30 4448 O 408.53 -1.12879 5.91221 0
M  V30 4449 H 412.356 0.445869 3.00409 0
M  V30 4450 H 409.941 0.284128 1.46673 0
M  V30 4451 H 411.823 -1.88459 3.7691 0
M  V30 4452 H 410.498 -1.96068 2.57564 0
M  V30 4453 H 409.405 0.0424407 3.74076 0
M  V30 4454 H 410.738 0.0361517 4.92187 0
M  V30 4455 N 412.39 -1.55475 0.257931 0
M  V30 4456 C 413.615 -2.04064 -0.370488 0
M  V30 4457 C 414.04 -1.13565 -1.49948 0
M  V30 4458 O 413.398 -0.130781 -1.80828 0
M  V30 4459 C 413.446 -3.50554 -0.845237 0
M  V30 4460 O 412.55 -3.63173 -1.95394 0
M  V30 4461 H 411.891 -0.659257 -0.0792243 0
M  V30 4462 H 414.421 -2.00903 0.387212 0
M  V30 4463 H 414.431 -3.91588 -1.14555 0
M  V30 4464 H 413.106 -4.15896 -0.0191259 0
M  V30 4465 H 411.683 -3.34039 -1.65748 0
M  V30 4466 N 413.868 0.0150385 -1.57593 0
M  V30 4467 C 415.279 0.559832 -1.78109 0
M  V30 4468 C 415.63 1.74814 -0.890756 0
M  V30 4469 O 414.755 2.16216 -0.0892482 0
M  V30 4470 C 415.35 1.02238 -3.23006 0
M  V30 4471 C 413.909 1.51258 -3.44671 0
M  V30 4472 C 413.056 0.456955 -2.73509 0
M  V30 4473 H 416.007 -0.211169 -1.57289 0
M  V30 4474 H 416.028 1.88912 -3.30292 0
M  V30 4475 H 415.54 0.157302 -3.87781 0
M  V30 4476 H 413.641 2.39905 -2.8509 0
M  V30 4477 H 413.754 1.55042 -4.5332 0
M  V30 4478 H 412.118 0.915196 -2.37689 0
M  V30 4479 H 412.901 -0.398896 -3.40975 0
M  V30 4480 N 415.346 1.54954 0.287554 0
M  V30 4481 C 416.762 1.46469 0.633964 0
M  V30 4482 C 416.962 0.666865 1.90145 0
M  V30 4483 O 416.018 0.179906 2.51858 0
M  V30 4484 C 417.331 2.90556 0.774454 0
M  V30 4485 C 418.879 3.00681 0.869462 0
M  V30 4486 C 419.354 4.45993 1.04184 0
M  V30 4487 N 420.845 4.4976 1.10772 0
M  V30 4488 C 421.58 5.59393 1.25964 0
M  V30 4489 N 421.076 6.78923 1.37968 0
M  V30 4490 N 422.869 5.47107 1.28959 0
M  V30 4491 H 415.02 2.05288 -0.545041 0
M  V30 4492 H 417.283 0.930305 -0.182308 0
M  V30 4493 H 416.989 3.51594 -0.086207 0
M  V30 4494 H 416.863 3.38743 1.6593 0
M  V30 4495 H 419.25 2.39749 1.7206 0
M  V30 4496 H 419.331 2.55769 -0.0396831 0
M  V30 4497 H 418.975 5.07524 0.195422 0
M  V30 4498 H 418.905 4.88548 1.96542 0
M  V30 4499 H 421.396 3.63651 1.02794 0
M  V30 4500 H 421.709 7.58231 1.49353 0
M  V30 4501 H 420.054 6.81763 1.34999 0
M  V30 4502 H 423.245 4.52668 1.19202 0
M  V30 4503 H 423.418 6.32595 1.40455 0
M  V30 4504 N 416.824 -0.551391 1.4764 0
M  V30 4505 C 418.07 -1.30789 1.55774 0
M  V30 4506 C 418.425 -1.91143 0.219562 0
M  V30 4507 O 417.718 -1.7521 -0.775375 0
M  V30 4508 C 417.912 -2.43469 2.61644 0
M  V30 4509 C 417.741 -1.94157 4.05627 0
M  V30 4510 C 416.511 -1.77734 4.7301 0
M  V30 4511 C 418.709 -1.48262 4.92466 0
M  V30 4512 N 416.691 -1.22823 6.01488 0
M  V30 4513 C 418.062 -1.05156 6.11017 0
M  V30 4514 C 420.117 -1.36367 4.78862 0
M  V30 4515 C 418.82 -0.513357 7.17466 0
M  V30 4516 C 420.846 -0.839484 5.85411 0
M  V30 4517 C 420.208 -0.418377 7.03156 0
M  V30 4518 H 416.307 -0.470406 0.624694 0
M  V30 4519 H 418.891 -0.624331 1.84419 0
M  V30 4520 H 417.062 -3.09348 2.34859 0
M  V30 4521 H 418.794 -3.10477 2.59589 0
M  V30 4522 H 415.549 -2.00623 4.29007 0
M  V30 4523 H 415.973 -0.974393 6.69951 0
M  V30 4524 H 420.615 -1.67535 3.88191 0
M  V30 4525 H 418.333 -0.189318 8.07878 0
M  V30 4526 H 421.919 -0.750921 5.76934 0
M  V30 4527 H 420.799 -0.0190538 7.84198 0
M  V30 4528 N 418.302 -1.35869 -0.798587 0
M  V30 4529 C 419.232 -1.32118 -1.92528 0
M  V30 4530 C 420.213 -0.194209 -1.68988 0
M  V30 4531 O 421.398 -0.390426 -1.90235 0
M  V30 4532 C 418.528 -1.10047 -3.29404 0
M  V30 4533 C 417.482 -2.19471 -3.67446 0
M  V30 4534 C 416.808 -1.82555 -5.02571 0
M  V30 4535 C 418.108 -3.61495 -3.76987 0
M  V30 4536 H 419.802 -2.26394 -1.95924 0
M  V30 4537 H 417.348 -1.08981 -0.94123 0
M  V30 4538 H 419.301 -1.06061 -4.07835 0
M  V30 4539 H 418.025 -0.122195 -3.26371 0
M  V30 4540 H 416.684 -2.22568 -2.91306 0
M  V30 4541 H 416.332 -0.833249 -4.9605 0
M  V30 4542 H 416.032 -2.5581 -5.28995 0
M  V30 4543 H 417.556 -1.80108 -5.83432 0
M  V30 4544 H 418.97 -3.60676 -4.4563 0
M  V30 4545 H 417.367 -4.33577 -4.14887 0
M  V30 4546 H 418.437 -3.97065 -2.78329 0
M  V30 4547 N 419.78 1.02168 -1.19998 0
M  V30 4548 C 421.029 1.75091 -1.0013 0
M  V30 4549 C 421.342 1.89923 0.467835 0
M  V30 4550 O 422.548 2.59888 0.785515 0
M  V30 4551 C 421.004 3.14892 -1.74273 0
M  V30 4552 C 420.612 3.0809 -3.25245 0
M  V30 4553 C 422.356 3.9206 -1.62755 0
M  V30 4554 C 420.263 4.42867 -3.91948 0
M  V30 4555 H 419.193 0.656394 -0.37103 0
M  V30 4556 H 421.844 1.14284 -1.43567 0
M  V30 4557 H 420.226 3.7621 -1.2362 0
M  V30 4558 H 421.4 2.5611 -3.83072 0
M  V30 4559 H 419.715 2.44416 -3.3712 0
M  V30 4560 H 422.312 4.91764 -2.09934 0
M  V30 4561 H 422.655 4.12199 -0.582894 0
M  V30 4562 H 423.188 3.37359 -2.10793 0
M  V30 4563 H 419.927 4.27931 -4.96543 0
M  V30 4564 H 419.447 4.94874 -3.3891 0
M  V30 4565 H 421.126 5.11728 -3.95909 0
M  V30 4566 N 421.258 1.00505 1.21394 0
M  V30 4567 C 422.483 0.706367 1.95001 0
M  V30 4568 C 422.908 -0.72463 1.73582 0
M  V30 4569 O 422.266 -1.49702 1.0227 0
M  V30 4570 C 422.314 1.03299 3.45487 0
M  V30 4571 O 421.418 0.138275 4.12168 0
M  V30 4572 H 420.759 0.263175 0.609619 0
M  V30 4573 H 423.289 1.34531 1.54151 0
M  V30 4574 H 423.299 0.979872 3.96059 0
M  V30 4575 H 421.974 2.07567 3.60401 0
M  V30 4576 H 420.551 0.247928 3.72075 0
M  V30 4577 N 422.737 -1.36956 0.779787 0
M  V30 4578 C 423.669 -2.28833 0.129639 0
M  V30 4579 C 424.682 -1.4902 -0.655511 0
M  V30 4580 O 425.871 -1.71578 -0.492279 0
M  V30 4581 C 422.971 -3.2833 -0.839792 0
M  V30 4582 C 422.144 -4.3727 -0.10675 0
M  V30 4583 C 421.203 -5.16789 -0.990717 0
M  V30 4584 O 420.229 -5.67406 -0.451516 0
M  V30 4585 N 421.431 -5.32294 -2.3161 0
M  V30 4586 H 424.196 -2.85268 0.918803 0
M  V30 4587 H 421.757 -1.49019 0.632841 0
M  V30 4588 H 423.749 -3.78413 -1.43477 0
M  V30 4589 H 422.319 -2.72605 -1.52988 0
M  V30 4590 H 421.539 -3.88478 0.669216 0
M  V30 4591 H 422.827 -5.07229 0.399464 0
M  V30 4592 H 422.225 -4.92768 -2.77843 0
M  V30 4593 H 420.782 -5.85656 -2.86095 0
M  V30 4594 N 424.215 -0.530993 -1.48385 0
M  V30 4595 C 425.463 0.00273189 -2.021 0
M  V30 4596 C 425.784 1.34672 -1.41027 0
M  V30 4597 O 425.054 1.8724 -0.576012 0
M  V30 4598 H 423.634 0.00399774 -0.746989 0
M  V30 4599 H 426.296 -0.695054 -1.82085 0
M  V30 4600 H 425.392 0.11031 -3.11905 0
M  V30 4601 N 425.693 1.55336 -0.266172 0
M  V30 4602 C 427.109 1.59356 0.0882065 0
M  V30 4603 C 427.309 1.2834 1.55342 0
M  V30 4604 O 426.365 1.03996 2.30089 0
M  V30 4605 C 427.678 2.99409 -0.278364 0
M  V30 4606 C 429.226 3.12196 -0.224243 0
M  V30 4607 C 429.701 4.545 -0.565123 0
M  V30 4608 N 431.192 4.60313 -0.51634 0
M  V30 4609 C 431.927 5.68434 -0.753013 0
M  V30 4610 N 431.423 6.84738 -1.05383 0
M  V30 4611 N 433.216 5.57942 -0.682414 0
M  V30 4612 H 425.367 1.73764 -1.22147 0
M  V30 4613 H 427.63 0.809822 -0.492841 0
M  V30 4614 H 427.336 3.2691 -1.29703 0
M  V30 4615 H 427.21 3.75228 0.385186 0
M  V30 4616 H 429.597 2.84464 0.78512 0
M  V30 4617 H 429.678 2.38609 -0.921922 0
M  V30 4618 H 429.322 4.82956 -1.57213 0
M  V30 4619 H 429.252 5.26374 0.154248 0
M  V30 4620 H 431.743 3.7676 -0.29335 0
M  V30 4621 H 432.056 7.63088 -1.22133 0
M  V30 4622 H 430.401 6.86375 -1.09151 0
M  V30 4623 H 433.592 4.65958 -0.44731 0
M  V30 4624 H 433.765 6.4213 -0.870248 0
M  V30 4625 N 427.171 -0.0066808 1.57599 0
M  V30 4626 C 428.418 -0.69292 1.90276 0
M  V30 4627 C 428.746 -1.74148 0.866192 0
M  V30 4628 O 428.001 -1.95268 -0.129933 0
M  V30 4629 C 428.3 -1.37939 3.29708 0
M  V30 4630 C 427.966 -0.464679 4.48499 0
M  V30 4631 C 426.628 -0.212809 4.80729 0
M  V30 4632 C 428.98 0.16551 5.20937 0
M  V30 4633 C 426.308 0.677653 5.82773 0
M  V30 4634 C 428.66 1.04381 6.23929 0
M  V30 4635 C 427.324 1.30492 6.54621 0
M  V30 4636 H 426.594 -0.253558 0.696268 0
M  V30 4637 H 429.241 0.0474123 1.91441 0
M  V30 4638 H 427.546 -2.1936 3.24636 0
M  V30 4639 H 429.243 -1.9163 3.52249 0
M  V30 4640 H 425.833 -0.671153 4.23313 0
M  V30 4641 H 430.017 -0.0160756 4.96297 0
M  V30 4642 H 425.273 0.88803 6.04917 0
M  V30 4643 H 429.447 1.53851 6.79193 0
M  V30 4644 H 427.074 1.99662 7.33512 0
M  V30 4645 N 428.649 -1.55105 -0.279332 0
M  V30 4646 C 429.559 -1.90638 -1.36727 0
M  V30 4647 C 430.575 -0.802899 -1.54368 0
M  V30 4648 O 431.751 -1.10138 -1.68616 0
M  V30 4649 C 428.816 -2.16547 -2.70755 0
M  V30 4650 C 427.877 -3.40146 -2.61915 0
M  V30 4651 C 427.11 -3.6481 -3.8955 0
M  V30 4652 O 427.333 -2.92095 -4.89935 0
M  V30 4653 O 426.267 -4.58343 -3.90135 0
M  V30 4654 H 430.093 -2.83237 -1.09591 0
M  V30 4655 H 427.678 -1.4157 -0.477306 0
M  V30 4656 H 429.56 -2.34665 -3.50014 0
M  V30 4657 H 428.235 -1.27131 -2.9769 0
M  V30 4658 H 427.142 -3.2737 -1.81052 0
M  V30 4659 H 428.475 -4.29761 -2.3993 0
M  V30 4660 N 430.127 0.543554 -1.4793 0
M  V30 4661 C 431.037 1.67657 -1.64098 0
M  V30 4662 C 432.053 1.65934 -0.523622 0
M  V30 4663 O 433.229 1.85133 -0.792943 0
M  V30 4664 C 430.294 3.04146 -1.66421 0
M  V30 4665 C 429.355 3.16831 -2.89684 0
M  V30 4666 C 428.588 4.46809 -2.91886 0
M  V30 4667 O 428.811 5.33095 -2.02895 0
M  V30 4668 O 427.745 4.63573 -3.83906 0
M  V30 4669 H 431.571 1.56957 -2.59997 0
M  V30 4670 H 429.156 0.715116 -1.31173 0
M  V30 4671 H 431.038 3.85346 -1.70548 0
M  V30 4672 H 429.713 3.152 -0.736923 0
M  V30 4673 H 428.62 2.34977 -2.91095 0
M  V30 4674 H 429.953 3.10687 -3.81752 0
M  V30 4675 N 431.605 1.3629 0.791371 0
M  V30 4676 C 432.568 1.30309 1.88553 0
M  V30 4677 C 433.568 0.211204 1.59407 0
M  V30 4678 O 434.758 0.465865 1.67855 0
M  V30 4679 C 431.89 1.01956 3.25297 0
M  V30 4680 H 433.083 2.27614 1.95273 0
M  V30 4681 H 430.636 1.21035 0.988953 0
M  V30 4682 H 431.371 0.050998 3.2426 0
M  V30 4683 H 431.156 1.80968 3.4784 0
M  V30 4684 H 432.646 1.0037 4.05359 0
M  V30 4685 N 433.083 -1.0153 1.20538 0
M  V30 4686 C 433.993 -2.13557 0.971113 0
M  V30 4687 C 435.009 -1.73845 -0.0734366 0
M  V30 4688 O 436.185 -2.01075 0.114299 0
M  V30 4689 C 433.25 -3.42661 0.527639 0
M  V30 4690 C 432.311 -3.96608 1.64319 0
M  V30 4691 C 431.544 -5.1955 1.22078 0
M  V30 4692 O 431.767 -5.70329 0.0900198 0
M  V30 4693 O 430.701 -5.66681 2.02871 0
M  V30 4694 H 434.527 -2.3619 1.90913 0
M  V30 4695 H 432.112 -1.11946 0.989362 0
M  V30 4696 H 433.994 -4.20404 0.289621 0
M  V30 4697 H 432.669 -3.21441 -0.381779 0
M  V30 4698 H 431.576 -3.20139 1.93551 0
M  V30 4699 H 432.909 -4.22219 2.52966 0
M  V30 4700 N 434.561 -1.01147 -1.20859 0
M  V30 4701 C 435.807 -0.698899 -1.90377 0
M  V30 4702 C 436.14 0.76904 -1.78324 0
M  V30 4703 O 435.415 1.55817 -1.16409 0
M  V30 4704 C 435.698 -1.12878 -3.41951 0
M  V30 4705 C 435.551 -2.65665 -3.62963 0
M  V30 4706 C 436.87 -0.696114 -4.3456 0
M  V30 4707 H 433.989 -0.255372 -0.691342 0
M  V30 4708 H 436.631 -1.25831 -1.42361 0
M  V30 4709 H 434.781 -0.652827 -3.82976 0
M  V30 4710 H 436.453 -3.21074 -3.31224 0
M  V30 4711 H 434.696 -3.06878 -3.06608 0
M  V30 4712 H 435.367 -2.90797 -4.69192 0
M  V30 4713 H 437.843 -1.10521 -4.01154 0
M  V30 4714 H 436.719 -1.025 -5.39245 0
M  V30 4715 H 436.98 0.402465 -4.40264 0
M  V30 4716 N 436.039 1.36541 -0.78704 0
M  V30 4717 C 437.288 1.98552 -0.35494 0
M  V30 4718 C 437.601 1.63171 1.07864 0
M  V30 4719 O 438.807 2.18399 1.61289 0
M  V30 4720 C 437.263 3.55136 -0.583671 0
M  V30 4721 C 436.871 3.99444 -2.02851 0
M  V30 4722 C 438.615 4.2395 -0.215957 0
M  V30 4723 C 436.522 5.48796 -2.20403 0
M  V30 4724 H 435.452 0.742888 -0.128972 0
M  V30 4725 H 438.103 1.5587 -0.968337 0
M  V30 4726 H 436.485 3.95875 0.0994046 0
M  V30 4727 H 437.659 3.6991 -2.74779 0
M  V30 4728 H 435.974 3.43459 -2.35425 0
M  V30 4729 H 438.571 5.33709 -0.325405 0
M  V30 4730 H 438.914 4.07827 0.835646 0
M  V30 4731 H 439.447 3.88565 -0.852175 0
M  V30 4732 H 436.186 5.69864 -3.23937 0
M  V30 4733 H 435.706 5.79964 -1.52977 0
M  V30 4734 H 437.385 6.14986 -2.01002 0
M  V30 4735 N 437.518 0.538854 1.48102 0
M  V30 4736 C 438.767 0.0059532 2.01699 0
M  V30 4737 C 439.08 -1.34476 1.42041 0
M  V30 4738 O 440.286 -1.96653 1.87189 0
M  V30 4739 C 438.742 -0.0397627 3.59878 0
M  V30 4740 C 438.35 1.30659 4.28523 0
M  V30 4741 C 440.094 -0.521024 4.2129 0
M  V30 4742 C 438.001 1.22098 5.78659 0
M  V30 4743 H 436.931 -0.00154456 0.753998 0
M  V30 4744 H 439.582 0.683963 1.70277 0
M  V30 4745 H 437.964 -0.783037 3.88181 0
M  V30 4746 H 439.138 2.06613 4.11883 0
M  V30 4747 H 437.453 1.7243 3.79021 0
M  V30 4748 H 440.05 -0.603184 5.31287 0
M  V30 4749 H 440.393 -1.52885 3.8721 0
M  V30 4750 H 440.926 0.166834 3.9745 0
M  V30 4751 H 437.665 2.20424 6.17328 0
M  V30 4752 H 437.185 0.50295 5.97688 0
M  V30 4753 H 438.864 0.915345 6.40492 0
M  V30 4754 N 438.996 -1.55193 0.274407 0
M  V30 4755 C 440.412 -1.59401 -0.0797543 0
M  V30 4756 C 440.612 -1.29162 -1.54659 0
M  V30 4757 O 439.668 -1.05215 -2.29534 0
M  V30 4758 C 440.981 -2.99257 0.294238 0
M  V30 4759 C 442.529 -3.12072 0.240796 0
M  V30 4760 C 443.004 -4.54194 0.589218 0
M  V30 4761 N 444.495 -4.60033 0.540744 0
M  V30 4762 C 445.23 -5.68027 0.783147 0
M  V30 4763 N 444.726 -6.8417 1.09013 0
M  V30 4764 N 446.519 -5.57572 0.711993 0
M  V30 4765 H 438.67 -1.73113 1.23067 0
M  V30 4766 H 440.933 -0.807197 0.497129 0
M  V30 4767 H 440.639 -3.26217 1.31435 0
M  V30 4768 H 440.513 -3.75427 -0.365281 0
M  V30 4769 H 442.9 -2.84877 -0.770024 0
M  V30 4770 H 442.981 -2.38117 0.934563 0
M  V30 4771 H 442.625 -4.82115 1.59772 0
M  V30 4772 H 442.555 -5.26448 -0.126331 0
M  V30 4773 H 445.046 -3.76599 0.313327 0
M  V30 4774 H 445.359 -7.6243 1.26178 0
M  V30 4775 H 443.704 -6.85787 1.12789 0
M  V30 4776 H 446.895 -4.65714 0.472014 0
M  V30 4777 H 447.068 -6.41659 0.90429 0
M  V30 4778 N 440.474 -0.00167713 -1.576 0
M  V30 4779 C 441.421 0.989195 -2.08527 0
M  V30 4780 C 442.391 1.34031 -0.981065 0
M  V30 4781 O 443.576 1.43839 -1.2536 0
M  V30 4782 C 440.716 2.27537 -2.59463 0
M  V30 4783 C 439.829 1.98314 -3.83791 0
M  V30 4784 C 438.964 3.21025 -4.23222 0
M  V30 4785 C 438.003 2.87495 -5.40382 0
M  V30 4786 N 437.14 4.02749 -5.75098 0
M  V30 4787 H 441.98 0.547973 -2.92919 0
M  V30 4788 H 439.517 0.258917 -1.44803 0
M  V30 4789 H 441.475 3.02729 -2.87073 0
M  V30 4790 H 440.105 2.69325 -1.77943 0
M  V30 4791 H 439.157 1.13482 -3.63078 0
M  V30 4792 H 440.469 1.69601 -4.69081 0
M  V30 4793 H 439.623 4.04561 -4.52123 0
M  V30 4794 H 438.362 3.52877 -3.36644 0
M  V30 4795 H 437.367 2.02367 -5.11202 0
M  V30 4796 H 438.592 2.56889 -6.28637 0
M  V30 4797 H 436.538 4.34494 -4.91478 0
M  V30 4798 H 436.455 3.77566 -6.54966 0
M  V30 4799 H 437.723 4.87068 -6.08592 0
M  V30 4800 N 441.952 1.55251 0.271103 0
M  V30 4801 C 442.915 1.87484 1.31842 0
M  V30 4802 C 443.915 0.749545 1.42262 0
M  V30 4803 O 445.105 1.01771 1.4138 0
M  V30 4804 C 442.237 2.0818 2.69951 0
M  V30 4805 H 443.43 2.81108 1.0449 0
M  V30 4806 H 440.983 1.47771 0.509258 0
M  V30 4807 H 441.718 1.16944 3.02481 0
M  V30 4808 H 441.503 2.90114 2.63774 0
M  V30 4809 H 442.993 2.34385 3.4562 0
M  V30 4810 N 443.43 -0.535701 1.48216 0
M  V30 4811 C 444.393 -1.623 1.61838 0
M  V30 4812 C 445.393 -1.53087 0.492024 0
M  V30 4813 O 446.583 -1.5686 0.757668 0
M  V30 4814 C 443.715 -3.01907 1.58319 0
M  V30 4815 H 444.908 -1.51564 2.58783 0
M  V30 4816 H 442.461 -0.757317 1.36727 0
M  V30 4817 H 443.196 -3.18155 0.628299 0
M  V30 4818 H 442.981 -3.10003 2.40085 0
M  V30 4819 H 444.471 -3.80969 1.71033 0
M  V30 4820 N 444.908 -1.36708 -0.784132 0
M  V30 4821 C 445.855 -1.31466 -1.89698 0
M  V30 4822 C 446.825 -0.18239 -1.65096 0
M  V30 4823 O 448.01 -0.369762 -1.87183 0
M  V30 4824 C 445.15 -1.1151 -3.26588 0
M  V30 4825 C 444.263 -2.33859 -3.63227 0
M  V30 4826 C 443.398 -2.06873 -4.89262 0
M  V30 4827 C 442.437 -3.25154 -5.18595 0
M  V30 4828 N 441.574 -2.978 -6.35814 0
M  V30 4829 H 446.414 -2.26619 -1.93515 0
M  V30 4830 H 443.951 -1.12625 -0.946256 0
M  V30 4831 H 445.909 -0.979653 -4.05535 0
M  V30 4832 H 444.539 -0.200103 -3.22179 0
M  V30 4833 H 443.591 -2.58188 -2.79362 0
M  V30 4834 H 444.903 -3.22109 -3.8085 0
M  V30 4835 H 444.057 -1.90289 -5.76086 0
M  V30 4836 H 442.796 -1.15942 -4.73718 0
M  V30 4837 H 441.801 -3.42292 -4.30251 0
M  V30 4838 H 443.026 -4.1692 -5.36055 0
M  V30 4839 H 440.972 -2.09485 -6.21653 0
M  V30 4840 H 440.889 -3.7959 -6.53794 0
M  V30 4841 H 442.157 -2.84805 -7.25607 0
M  V30 4842 N 446.386 1.0089 -1.21074 0
M  V30 4843 C 447.349 2.0775 -0.968129 0
M  V30 4844 C 448.349 1.6069 0.0593445 0
M  V30 4845 O 449.539 1.73293 -0.177525 0
M  V30 4846 C 446.671 3.37794 -0.459108 0
M  V30 4847 H 447.864 2.30707 -1.9161 0
M  V30 4848 H 445.417 1.17807 -1.02719 0
M  V30 4849 H 446.152 3.20516 0.49397 0
M  V30 4850 H 445.937 3.7328 -1.20019 0
M  V30 4851 H 447.427 4.16454 -0.309099 0
M  V30 4852 N 447.864 1.01787 1.20321 0
M  V30 4853 C 448.812 0.58254 2.25187 0
M  V30 4854 C 449.806 -0.379359 1.65098 0
M  V30 4855 O 451.012 -0.249142 1.78267 0
M  V30 4856 H 447.387 0.170078 0.732514 0
M  V30 4857 H 449.358 1.47788 2.59232 0
M  V30 4858 C 448.107 -0.0620885 3.47645 0
M  V30 4859 H 447.43 0.669069 3.94162 0
M  V30 4860 H 448.87 -0.329784 4.22716 0
M  V30 4861 C 447.329 -1.3053 3.10586 0
M  V30 4862 O 447.859 -2.39848 3.22236 0
M  V30 4863 N 446.065 -1.18988 2.65123 0
M  V30 4864 H 445.612 -0.300341 2.55843 0
M  V30 4865 H 445.57 -2.02267 2.40698 0
M  V30 4866 N 449.342 -1.36122 0.79427 0
M  V30 4867 C 450.59 -1.98718 0.368177 0
M  V30 4868 C 450.911 -1.63345 -1.06506 0
M  V30 4869 O 450.181 -0.909825 -1.73491 0
M  V30 4870 H 448.761 -0.735038 0.133146 0
M  V30 4871 H 451.423 -1.66239 1.01739 0
M  V30 4872 H 450.519 -3.08633 0.463923 0
M  V30 4873 N 450.82 -0.546701 -1.47814 0
M  V30 4874 C 452.069 -0.0166497 -2.01693 0
M  V30 4875 C 452.382 1.33721 -1.42752 0
M  V30 4876 O 453.588 1.95658 -1.8823 0
M  V30 4877 C 452.044 0.0206769 -3.59894 0
M  V30 4878 C 451.652 -1.3293 -4.27824 0
M  V30 4879 C 453.396 0.498674 -4.21561 0
M  V30 4880 C 451.303 -1.25165 -5.78003 0
M  V30 4881 H 450.233 -0.0024541 -0.753996 0
M  V30 4882 H 452.884 -0.692984 -1.69912 0
M  V30 4883 H 451.266 0.76244 -3.88591 0
M  V30 4884 H 452.44 -2.08795 -4.10781 0
M  V30 4885 H 450.755 -1.74438 -3.78101 0
M  V30 4886 H 453.352 0.575 -5.31599 0
M  V30 4887 H 453.695 1.5083 -3.88016 0
M  V30 4888 H 454.228 -0.18791 -3.97356 0
M  V30 4889 H 450.967 -2.23695 -6.1615 0
M  V30 4890 H 450.487 -0.53464 -5.97412 0
M  V30 4891 H 452.166 -0.949299 -6.39998 0
M  V30 4892 N 452.299 1.55045 -0.282633 0
M  V30 4893 C 453.545 2.00056 0.332481 0
M  V30 4894 C 453.878 1.1708 1.54939 0
M  V30 4895 O 453.153 0.2427 1.9298 0
M  V30 4896 C 453.436 3.53086 0.70725 0
M  V30 4897 C 453.289 4.46813 -0.517521 0
M  V30 4898 C 454.608 4.12245 1.54084 0
M  V30 4899 H 451.727 0.727268 0.119373 0
M  V30 4900 H 454.369 1.85932 -0.391076 0
M  V30 4901 H 452.519 3.65253 1.32372 0
M  V30 4902 H 454.191 4.46579 -1.15607 0
M  V30 4903 H 452.434 4.18163 -1.1542 0
M  V30 4904 H 453.105 5.51595 -0.211426 0
M  V30 4905 H 455.581 4.03401 1.02013 0
M  V30 4906 H 454.457 5.19515 1.77186 0
M  V30 4907 H 454.718 3.62951 2.52427 0
M  V30 4908 N 453.777 0.010035 1.57597 0
M  V30 4909 C 455.023 -0.673697 1.91283 0
M  V30 4910 C 455.356 -1.72863 0.884979 0
M  V30 4911 O 454.631 -1.94268 -0.0949487 0
M  V30 4912 C 454.914 -1.30766 3.35518 0
M  V30 4913 C 454.767 -0.263578 4.49027 0
M  V30 4914 C 456.086 -2.23105 3.79358 0
M  V30 4915 H 453.205 -0.243439 0.695634 0
M  V30 4916 H 455.847 0.0633864 1.89894 0
M  V30 4917 H 453.997 -1.93588 3.36832 0
M  V30 4918 H 455.669 0.365738 4.59848 0
M  V30 4919 H 453.912 0.413077 4.31829 0
M  V30 4920 H 454.583 -0.746398 5.4693 0
M  V30 4921 H 457.059 -1.70289 3.79659 0
M  V30 4922 H 455.935 -2.64424 4.81011 0
M  V30 4923 H 456.196 -3.11433 3.13787 0
M  V30 4924 N 455.255 -1.55392 -0.262866 0
M  V30 4925 C 456.666 -1.67079 -0.833158 0
M  V30 4926 C 457.017 -0.604539 -1.86654 0
M  V30 4927 O 456.142 0.252138 -2.14926 0
M  V30 4928 C 456.737 -3.02891 -1.51797 0
M  V30 4929 C 455.296 -3.16571 -2.03617 0
M  V30 4930 C 454.443 -2.62909 -0.881701 0
M  V30 4931 H 457.394 -1.58652 -0.0389986 0
M  V30 4932 H 457.415 -2.96445 -2.38538 0
M  V30 4933 H 456.927 -3.80473 -0.765619 0
M  V30 4934 H 455.028 -2.43782 -2.81782 0
M  V30 4935 H 455.141 -4.23271 -2.24452 0
M  V30 4936 H 453.505 -2.20324 -1.27786 0
M  V30 4937 H 454.288 -3.43003 -0.14269 0
M  V30 4938 N 456.733 0.527833 -1.48498 0
M  V30 4939 C 457.958 1.313 -1.60546 0
M  V30 4940 C 458.383 1.86199 -0.26672 0
M  V30 4941 O 457.741 1.64513 0.761918 0
M  V30 4942 C 457.789 2.43818 -2.65678 0
M  V30 4943 O 456.893 3.46916 -2.22987 0
M  V30 4944 H 456.234 0.388784 -0.538277 0
M  V30 4945 H 458.764 0.634896 -1.945 0
M  V30 4946 H 458.774 2.89973 -2.87018 0
M  V30 4947 H 457.449 2.03222 -3.62869 0
M  V30 4948 H 456.026 3.06864 -2.11869 0
M  V30 4949 N 458.211 1.37122 0.776871 0
M  V30 4950 C 459.439 1.3523 1.5659 0
M  V30 4951 C 459.854 -0.0635518 1.88693 0
M  V30 4952 O 459.211 -1.02394 1.51069 0
M  V30 4953 C 459.262 2.18583 2.8793 0
M  V30 4954 O 458.983 3.5465 2.57206 0
M  V30 4955 C 460.484 2.24612 3.82183 0
M  V30 4956 H 457.704 0.4634 0.485285 0
M  V30 4957 H 460.248 1.80392 0.963266 0
M  V30 4958 H 458.403 1.76943 3.4463 0
M  V30 4959 H 458.817 3.98286 3.41275 0
M  V30 4960 H 460.291 2.87267 4.71361 0
M  V30 4961 H 460.768 1.25309 4.20944 0
M  V30 4962 H 461.374 2.66543 3.31414 0
M  V30 4963 N 459.689 -1.00246 1.21608 0
M  V30 4964 C 460.938 -1.73476 1.02902 0
M  V30 4965 C 461.251 -1.90643 -0.437561 0
M  V30 4966 O 462.457 -2.61105 -0.74407 0
M  V30 4967 C 460.913 -3.12079 1.79261 0
M  V30 4968 C 460.521 -3.02877 3.30106 0
M  V30 4969 C 462.265 -3.89421 1.68972 0
M  V30 4970 C 460.172 -4.36575 3.98944 0
M  V30 4971 H 459.102 -0.650408 0.381425 0
M  V30 4972 H 461.753 -1.11985 1.45367 0
M  V30 4973 H 460.135 -3.74196 1.2959 0
M  V30 4974 H 461.309 -2.49983 3.87098 0
M  V30 4975 H 459.624 -2.39022 3.40965 0
M  V30 4976 H 462.221 -4.88362 2.17731 0
M  V30 4977 H 462.564 -4.1122 0.648397 0
M  V30 4978 H 463.097 -3.33963 2.16133 0
M  V30 4979 H 459.836 -4.19978 5.03288 0
M  V30 4980 H 459.356 -4.8942 3.4674 0
M  V30 4981 H 461.035 -5.05364 4.04 0
M  V30 4982 N 461.167 -1.02423 -1.1978 0
M  V30 4983 C 462.414 -0.717988 -1.89344 0
M  V30 4984 C 462.742 0.753036 -1.79331 0
M  V30 4985 O 461.997 1.56355 -1.17692 0
M  V30 4986 C 462.296 -1.1088 -3.39765 0
M  V30 4987 C 461.962 -2.57731 -3.6998 0
M  V30 4988 C 460.624 -2.97854 -3.77937 0
M  V30 4989 C 462.976 -3.52763 -3.83677 0
M  V30 4990 C 460.304 -4.31931 -3.97054 0
M  V30 4991 C 462.656 -4.86538 -4.04306 0
M  V30 4992 C 461.32 -5.26356 -4.10494 0
M  V30 4993 H 460.59 -0.26273 -0.692859 0
M  V30 4994 H 463.237 -1.28623 -1.41875 0
M  V30 4995 H 461.542 -0.459094 -3.89101 0
M  V30 4996 H 463.239 -0.849432 -3.919 0
M  V30 4997 H 459.829 -2.25646 -3.64393 0
M  V30 4998 H 464.013 -3.2292 -3.76877 0
M  V30 4999 H 459.269 -4.62324 -4.00083 0
M  V30 5000 H 463.443 -5.60093 -4.13846 0
M  V30 5001 H 461.07 -6.3026 -4.2506 0
M  V30 5002 N 462.645 1.35699 -0.801477 0
M  V30 5003 C 463.922 1.9324 -0.302937 0
M  V30 5004 C 464.302 1.73209 1.20672 0
M  V30 5005 O 463.65 1.09809 2.00385 0
M  V30 5006 C 463.86 3.41728 -0.708747 0
M  V30 5007 C 465.208 4.18868 -0.695328 0
M  V30 5008 O 466.232 3.5022 -0.649971 0
M  V30 5009 O 465.091 5.41342 -0.749081 0
M  V30 5010 H 462.185 0.82331 -0.0780367 0
M  V30 5011 H 464.731 1.44806 -0.884832 0
M  V30 5012 H 463.503 3.50015 -1.74944 0
M  V30 5013 H 463.126 3.97471 -0.101384 0
M  V30 5014 N 464.123 0.554532 1.47522 0
M  V30 5015 C 465.534 0.120446 1.86311 0
M  V30 5016 C 465.885 -1.30904 1.46145 0
M  V30 5017 O 465.01 -1.98434 0.863294 0
M  V30 5018 C 465.605 0.211808 3.38137 0
M  V30 5019 C 464.164 -0.167224 3.76028 0
M  V30 5020 C 463.311 0.560576 2.71575 0
M  V30 5021 H 466.262 0.764408 1.39077 0
M  V30 5022 H 466.283 -0.570275 3.76202 0
M  V30 5023 H 465.795 1.25232 3.6734 0
M  V30 5024 H 463.896 -1.20894 3.52442 0
M  V30 5025 H 464.009 0.189473 4.78725 0
M  V30 5026 H 462.373 0.00396836 2.547 0
M  V30 5027 H 463.156 1.60219 3.0362 0
M  V30 5028 N 465.601 -1.54893 0.290851 0
M  V30 5029 C 466.826 -2.04804 -0.32712 0
M  V30 5030 C 467.251 -1.16721 -1.47506 0
M  V30 5031 O 466.609 -0.169107 -1.8051 0
M  V30 5032 C 466.657 -3.52268 -0.770689 0
M  V30 5033 O 465.761 -3.67236 -1.87647 0
M  V30 5034 H 465.102 -0.660789 -0.0652227 0
M  V30 5035 H 467.632 -2.00036 0.429739 0
M  V30 5036 H 467.642 -3.9393 -1.06223 0
M  V30 5037 H 466.317 -4.15843 0.069096 0
M  V30 5038 H 464.894 -3.37479 -1.58626 0
M  V30 5039 N 467.08 -0.0183926 -1.57589 0
M  V30 5040 C 467.99 0.982943 -2.13015 0
M  V30 5041 C 469.006 1.36443 -1.07979 0
M  V30 5042 O 470.182 1.44802 -1.3998 0
M  V30 5043 C 467.247 2.25024 -2.63752 0
M  V30 5044 C 466.308 1.93018 -3.83461 0
M  V30 5045 C 465.541 3.13706 -4.31769 0
M  V30 5046 O 465.764 4.2601 -3.79305 0
M  V30 5047 O 464.698 2.96629 -5.23732 0
M  V30 5048 H 468.524 0.541709 -2.9883 0
M  V30 5049 H 466.109 0.201565 -1.48034 0
M  V30 5050 H 467.991 2.99441 -2.96502 0
M  V30 5051 H 466.666 2.68349 -1.81026 0
M  V30 5052 H 465.573 1.16019 -3.55655 0
M  V30 5053 H 466.906 1.54516 -4.67317 0
M  V30 5054 N 468.558 1.5553 0.254621 0
M  V30 5055 C 469.488 1.9268 1.31897 0
M  V30 5056 C 470.469 0.790797 1.506 0
M  V30 5057 O 471.654 1.05045 1.63337 0
M  V30 5058 C 468.784 2.21477 2.67517 0
M  V30 5059 C 467.738 3.37256 2.63519 0
M  V30 5060 C 467.064 3.51576 4.02862 0
M  V30 5061 C 468.364 4.73157 2.21179 0
M  V30 5062 H 470.058 2.81832 1.01051 0
M  V30 5063 H 467.604 1.35599 0.484662 0
M  V30 5064 H 469.557 2.46055 3.42104 0
M  V30 5065 H 468.281 1.29144 2.99982 0
M  V30 5066 H 466.94 3.12675 1.9139 0
M  V30 5067 H 466.588 2.56676 4.32581 0
M  V30 5068 H 466.288 4.2943 4.01078 0
M  V30 5069 H 467.812 3.78467 4.79161 0
M  V30 5070 H 469.226 4.97158 2.85494 0
M  V30 5071 H 467.623 5.54058 2.30521 0
M  V30 5072 H 468.693 4.70739 1.16332 0
M  V30 5073 N 470.036 -0.519951 1.48776 0
M  V30 5074 C 470.968 -1.63973 1.60142 0
M  V30 5075 C 471.981 -1.55404 0.485117 0
M  V30 5076 O 473.17 -1.61682 0.756391 0
M  V30 5077 C 470.27 -3.02676 1.52449 0
M  V30 5078 C 469.443 -3.36624 2.79291 0
M  V30 5079 C 468.502 -4.54652 2.64912 0
M  V30 5080 O 467.528 -4.57374 3.38818 0
M  V30 5081 N 468.73 -5.53432 1.75195 0
M  V30 5082 H 471.495 -1.54656 2.56713 0
M  V30 5083 H 469.056 -0.707439 1.45626 0
M  V30 5084 H 471.048 -3.79525 1.4051 0
M  V30 5085 H 469.618 -3.06018 0.638125 0
M  V30 5086 H 468.838 -2.48855 3.0572 0
M  V30 5087 H 470.126 -3.56094 3.6342 0
M  V30 5088 H 469.524 -5.54018 1.14371 0
M  V30 5089 H 468.081 -6.29459 1.69189 0
M  V30 5090 N 471.514 -1.37532 -0.769588 0
M  V30 5091 C 472.791 -1.23392 -1.51768 0
M  V30 5092 C 473.171 0.17157 -2.10402 0
M  V30 5093 O 472.519 1.17943 -1.95708 0
M  V30 5094 C 472.729 -2.33163 -2.59685 0
M  V30 5095 C 474.077 -2.70809 -3.27028 0
M  V30 5096 O 475.101 -2.32355 -2.69981 0
M  V30 5097 O 473.96 -3.37066 -4.30173 0
M  V30 5098 H 471.054 -0.481617 -0.67229 0
M  V30 5099 H 473.6 -1.49318 -0.806368 0
M  V30 5100 H 472.372 -3.27273 -2.14494 0
M  V30 5101 H 471.995 -2.08713 -3.38415 0
M  V30 5102 N 472.992 0.995999 -1.22138 0
M  V30 5103 C 473.922 2.10387 -1.01289 0
M  V30 5104 C 474.903 1.69975 0.0651454 0
M  V30 5105 O 476.088 1.9396 -0.0964628 0
M  V30 5106 C 473.218 3.42312 -0.586517 0
M  V30 5107 C 472.172 3.96558 -1.61014 0
M  V30 5108 C 471.498 5.24494 -1.0397 0
M  V30 5109 C 472.798 4.27595 -2.99933 0
M  V30 5110 H 474.492 2.28086 -1.93951 0
M  V30 5111 H 472.038 1.09607 -0.933928 0
M  V30 5112 H 473.991 4.19223 -0.427793 0
M  V30 5113 H 472.715 3.24431 0.375761 0
M  V30 5114 H 471.374 3.21776 -1.75658 0
M  V30 5115 H 471.022 5.02953 -0.0688703 0
M  V30 5116 H 470.722 5.61755 -1.72352 0
M  V30 5117 H 472.246 6.04042 -0.892494 0
M  V30 5118 H 473.66 4.95315 -2.8868 0
M  V30 5119 H 472.057 4.76021 -3.6541 0
M  V30 5120 H 473.127 3.35498 -3.50099 0
M  V30 5121 N 474.47 1.03057 1.19235 0
M  V30 5122 C 475.695 0.74757 1.93458 0
M  V30 5123 C 476.12 -0.687648 1.7508 0
M  V30 5124 O 475.478 -1.47499 1.05422 0
M  V30 5125 C 475.526 1.10604 3.43219 0
M  V30 5126 O 474.63 0.225671 4.11782 0
M  V30 5127 H 473.971 0.276047 0.603899 0
M  V30 5128 H 476.501 1.3777 1.51263 0
M  V30 5129 H 476.511 1.06366 3.93891 0
M  V30 5130 H 475.186 2.15165 3.55917 0
M  V30 5131 H 473.763 0.326795 3.71465 0
M  V30 5132 N 475.948 -1.35272 0.808662 0
M  V30 5133 C 477.173 -2.03477 0.401475 0
M  V30 5134 C 477.598 -1.60537 -0.980279 0
M  V30 5135 O 476.956 -0.78304 -1.63518 0
M  V30 5136 C 477.004 -3.57181 0.495354 0
M  V30 5137 O 476.108 -4.09474 -0.490397 0
M  V30 5138 H 475.449 -0.642561 0.167366 0
M  V30 5139 H 477.979 -1.72824 1.09512 0
M  V30 5140 H 477.989 -4.06356 0.365912 0
M  V30 5141 H 476.664 -3.87784 1.5032 0
M  V30 5142 H 475.241 -3.71516 -0.321023 0
M  V30 5143 N 477.426 -0.562348 -1.47226 0
M  V30 5144 C 478.373 0.182461 -2.30078 0
M  V30 5145 C 479.343 0.903503 -1.39377 0
M  V30 5146 O 480.528 0.898188 -1.68337 0
M  V30 5147 C 477.668 1.20322 -3.23445 0
M  V30 5148 C 476.781 0.487717 -4.29238 0
M  V30 5149 C 475.916 1.49422 -5.09752 0
M  V30 5150 C 474.955 0.763976 -6.07314 0
M  V30 5151 N 474.092 1.71755 -6.80768 0
M  V30 5152 H 478.932 -0.530169 -2.93246 0
M  V30 5153 H 476.469 -0.273276 -1.44539 0
M  V30 5154 H 478.427 1.80768 -3.76004 0
M  V30 5155 H 477.057 1.88382 -2.6213 0
M  V30 5156 H 476.109 -0.231374 -3.79696 0
M  V30 5157 H 477.421 -0.0841003 -4.98729 0
M  V30 5158 H 476.575 2.17206 -5.66486 0
M  V30 5159 H 475.314 2.09995 -4.40174 0
M  V30 5160 H 474.319 0.0722344 -5.49753 0
M  V30 5161 H 475.544 0.16391 -6.78902 0
M  V30 5162 H 473.49 2.31177 -6.13916 0
M  V30 5163 H 473.407 1.19802 -7.46447 0
M  V30 5164 H 474.675 2.38638 -7.42073 0
M  V30 5165 N 478.904 1.54736 -0.299062 0
M  V30 5166 C 479.851 2.23448 0.577899 0
M  V30 5167 C 480.821 1.21637 1.13109 0
M  V30 5168 O 482.006 1.50252 1.17597 0
M  V30 5169 C 479.146 2.9774 1.74484 0
M  V30 5170 C 478.259 4.1432 1.22323 0
M  V30 5171 C 477.394 4.76199 2.35388 0
M  V30 5172 C 476.433 5.84927 1.80351 0
M  V30 5173 N 475.57 6.4077 2.86982 0
M  V30 5174 H 480.41 2.97996 -0.0146545 0
M  V30 5175 H 477.947 1.47088 -0.0190013 0
M  V30 5176 H 479.905 3.39045 2.43114 0
M  V30 5177 H 478.535 2.25572 2.30905 0
M  V30 5178 H 477.587 3.7797 0.429249 0
M  V30 5179 H 478.899 4.92659 0.780309 0
M  V30 5180 H 478.053 5.20346 3.11969 0
M  V30 5181 H 476.792 3.97188 2.83006 0
M  V30 5182 H 475.797 5.40207 1.02259 0
M  V30 5183 H 477.022 6.65821 1.3364 0
M  V30 5184 H 474.968 5.64643 3.33938 0
M  V30 5185 H 474.885 7.1445 2.4718 0
M  V30 5186 H 476.153 6.89574 3.63466 0
M  V30 5187 N 480.382 0.0267497 1.57577 0
M  V30 5188 C 481.314 -0.984594 2.06974 0
M  V30 5189 C 482.327 -1.29032 0.992705 0
M  V30 5190 O 483.516 -1.25539 1.26895 0
M  V30 5191 C 480.616 -2.31262 2.47732 0
M  V30 5192 C 479.789 -2.1924 3.78487 0
M  V30 5193 C 478.848 -3.34956 4.05821 0
M  V30 5194 O 477.874 -3.11948 4.76106 0
M  V30 5195 N 479.076 -4.58672 3.55809 0
M  V30 5196 H 481.841 -0.563143 2.94362 0
M  V30 5197 H 479.402 -0.160061 1.61107 0
M  V30 5198 H 481.394 -3.07496 2.63112 0
M  V30 5199 H 479.964 -2.65056 1.65723 0
M  V30 5200 H 479.184 -1.27747 3.72927 0
M  V30 5201 H 480.472 -2.08409 4.64158 0
M  V30 5202 H 479.87 -4.8026 2.98942 0
M  V30 5203 H 478.427 -5.32083 3.76472 0
M  V30 5204 N 481.861 -1.55662 -0.24637 0
M  V30 5205 C 482.793 -1.86811 -1.32794 0
M  V30 5206 C 483.806 -0.754413 -1.44265 0
M  V30 5207 O 484.995 -1.03253 -1.45606 0
M  V30 5208 C 482.095 -2.0397 -2.70646 0
M  V30 5209 C 481.268 -3.34832 -2.81436 0
M  V30 5210 C 480.327 -3.41727 -4.00136 0
M  V30 5211 O 479.353 -4.14934 -3.89639 0
M  V30 5212 N 480.555 -2.71058 -5.1333 0
M  V30 5213 H 483.32 -2.80174 -1.06409 0
M  V30 5214 H 480.881 -1.55906 -0.43647 0
M  V30 5215 H 482.873 -2.05924 -3.48393 0
M  V30 5216 H 481.443 -1.1735 -2.89738 0
M  V30 5217 H 480.663 -3.4519 -1.90361 0
M  V30 5218 H 481.951 -4.21085 -2.85595 0
M  V30 5219 H 481.349 -2.11314 -5.2475 0
M  V30 5220 H 479.906 -2.78704 -5.89209 0
M  V30 5221 N 483.339 0.512053 -1.4905 0
M  V30 5222 C 484.564 1.2959 -1.6193 0
M  V30 5223 C 484.989 1.85906 -0.286454 0
M  V30 5224 O 484.347 1.65312 0.744426 0
M  V30 5225 C 484.395 2.40987 -2.68249 0
M  V30 5226 O 483.499 3.44531 -2.26654 0
M  V30 5227 H 482.84 0.383053 -0.542371 0
M  V30 5228 H 485.37 0.614231 -1.95162 0
M  V30 5229 H 485.38 2.86913 -2.90078 0
M  V30 5230 H 484.055 1.99361 -3.65004 0
M  V30 5231 H 482.632 3.046 -2.15112 0
M  V30 5232 N 484.817 1.37938 0.762283 0
M  V30 5233 C 485.767 1.30976 1.86626 0
M  V30 5234 C 486.751 0.195714 1.59705 0
M  V30 5235 O 487.943 0.430937 1.71674 0
M  V30 5236 C 485.072 1.12847 3.24223 0
M  V30 5237 C 484.158 2.28836 3.57064 0
M  V30 5238 N 484.549 3.54256 3.61022 0
M  V30 5239 C 482.847 2.21198 3.87282 0
M  V30 5240 C 483.548 4.30798 3.90881 0
M  V30 5241 N 482.524 3.60049 4.07266 0
M  V30 5242 H 486.326 2.25946 1.87951 0
M  V30 5243 H 483.84 1.31046 0.959206 0
M  V30 5244 H 485.837 1.05943 4.03214 0
M  V30 5245 H 484.497 0.188024 3.24155 0
M  V30 5246 H 485.508 3.8804 3.42995 0
M  V30 5247 H 482.185 1.35264 3.94981 0
M  V30 5248 H 483.575 5.39386 4.00639 0
M  V30 5249 N 486.295 -0.989507 1.22664 0
M  V30 5250 C 487.243 -2.10148 0.997035 0
M  V30 5251 C 488.237 -1.6929 -0.0609783 0
M  V30 5252 O 489.443 -1.79766 0.0917523 0
M  V30 5253 H 485.818 -0.687256 0.305259 0
M  V30 5254 H 487.789 -2.26685 1.94053 0
M  V30 5255 C 486.538 -3.4257 0.595085 0
M  V30 5256 H 485.861 -3.74453 1.40089 0
M  V30 5257 H 487.301 -4.21344 0.473869 0
M  V30 5258 C 485.76 -3.29638 -0.695725 0
M  V30 5259 O 486.29 -3.61709 -1.74727 0
M  V30 5260 N 484.496 -2.82814 -0.668173 0
M  V30 5261 H 484.043 -2.56914 0.18787 0
M  V30 5262 H 484.001 -2.74544 -1.5321 0
M  V30 5263 N 487.773 -1.03688 -1.18687 0
M  V30 5264 C 489.022 -0.733235 -1.879 0
M  V30 5265 C 489.335 0.741745 -1.8099 0
M  V30 5266 O 490.541 1.15875 -2.4553 0
M  V30 5267 C 488.997 -1.26127 -3.37076 0
M  V30 5268 C 488.605 -2.76461 -3.52524 0
M  V30 5269 C 490.349 -1.03398 -4.11715 0
M  V30 5270 C 488.256 -3.22642 -4.95637 0
M  V30 5271 H 487.186 -0.270584 -0.703776 0
M  V30 5272 H 489.837 -1.25222 -1.34133 0
M  V30 5273 H 488.219 -0.670165 -3.90288 0
M  V30 5274 H 489.393 -3.41296 -3.09602 0
M  V30 5275 H 487.708 -2.97559 -2.91286 0
M  V30 5276 H 490.305 -1.3542 -5.17267 0
M  V30 5277 H 490.648 0.0289246 -4.1629 0
M  V30 5278 H 491.181 -1.5895 -3.64664 0
M  V30 5279 H 487.92 -4.28296 -4.96228 0
M  V30 5280 H 487.44 -2.62539 -5.39289 0
M  V30 5281 H 489.119 -3.16444 -5.64333 0
M  V30 5282 N 489.251 1.34841 -0.815825 0
M  V30 5283 C 490.181 2.32187 -0.247298 0
M  V30 5284 C 491.162 1.5791 0.632344 0
M  V30 5285 O 492.347 1.8593 0.560698 0
M  V30 5286 C 489.477 3.42122 0.597466 0
M  V30 5287 C 488.431 4.27602 -0.184446 0
M  V30 5288 C 487.757 5.28942 0.782609 0
M  V30 5289 C 489.057 5.03502 -1.38865 0
M  V30 5290 H 490.751 2.79985 -1.06061 0
M  V30 5291 H 488.297 1.34611 -0.511461 0
M  V30 5292 H 490.25 4.09232 1.00533 0
M  V30 5293 H 488.974 2.92956 1.44376 0
M  V30 5294 H 487.633 3.62085 -0.573592 0
M  V30 5295 H 487.281 4.7604 1.62466 0
M  V30 5296 H 486.981 5.87008 0.263695 0
M  V30 5297 H 488.505 5.98922 1.18848 0
M  V30 5298 H 489.919 5.63506 -1.05518 0
M  V30 5299 H 488.316 5.71108 -1.8427 0
M  V30 5300 H 489.386 4.33608 -2.17054 0
M  V30 5301 N 490.729 0.570148 1.46925 0
M  V30 5302 C 492.006 -0.0153259 1.95594 0
M  V30 5303 C 492.386 -1.47232 1.51281 0
M  V30 5304 O 491.734 -2.15574 0.757624 0
M  V30 5305 C 491.944 0.143624 3.48704 0
M  V30 5306 C 493.292 0.00494484 4.246 0
M  V30 5307 O 494.316 0.0718214 3.56128 0
M  V30 5308 O 493.175 -0.141175 5.46318 0
M  V30 5309 H 490.269 -0.0568819 0.825041 0
M  V30 5310 H 492.815 0.637583 1.57267 0
M  V30 5311 H 491.587 1.15699 3.73804 0
M  V30 5312 H 491.21 -0.5463 3.93829 0
M  V30 5313 N 492.207 -1.54576 0.307264 0
M  V30 5314 C 493.137 -2.26708 -0.55907 0
M  V30 5315 C 494.118 -1.26893 -1.1328 0
M  V30 5316 O 495.303 -1.55677 -1.16097 0
M  V30 5317 C 492.433 -3.01259 -1.72801 0
M  V30 5318 C 491.387 -4.08275 -1.28435 0
M  V30 5319 C 490.713 -4.70575 -2.53895 0
M  V30 5320 C 492.013 -5.2068 -0.411038 0
M  V30 5321 H 493.707 -2.9937 0.042576 0
M  V30 5322 H 491.253 -1.43983 0.0219173 0
M  V30 5323 H 493.206 -3.50444 -2.34023 0
M  V30 5324 H 491.93 -2.26187 -2.356 0
M  V30 5325 H 490.589 -3.59949 -0.695161 0
M  V30 5326 H 490.237 -3.92136 -3.15021 0
M  V30 5327 H 489.937 -5.42854 -2.24908 0
M  V30 5328 H 491.461 -5.22527 -3.15908 0
M  V30 5329 H 492.875 -5.65721 -0.929097 0
M  V30 5330 H 491.272 -5.99716 -0.214664 0
M  V30 5331 H 492.342 -4.81629 0.562287 0
M  V30 5332 N 493.685 -0.035106 -1.57561 0
M  V30 5333 C 494.615 0.942993 -2.13612 0
M  V30 5334 C 495.596 1.33531 -1.05373 0
M  V30 5335 O 496.781 1.41287 -1.33235 0
M  V30 5336 C 493.911 2.22332 -2.66807 0
M  V30 5337 C 492.865 1.97156 -3.79886 0
M  V30 5338 C 492.191 3.31506 -4.19533 0
M  V30 5339 C 493.491 1.30596 -5.05709 0
M  V30 5340 H 495.185 0.476179 -2.95589 0
M  V30 5341 H 492.731 0.227602 -1.4219 0
M  V30 5342 H 494.684 2.91142 -3.04654 0
M  V30 5343 H 493.408 2.7119 -1.81999 0
M  V30 5344 H 492.067 1.30763 -3.42486 0
M  V30 5345 H 491.715 3.78134 -3.31698 0
M  V30 5346 H 491.415 3.15465 -4.95738 0
M  V30 5347 H 492.939 4.01574 -4.59968 0
M  V30 5348 H 494.353 1.89416 -5.41105 0
M  V30 5349 H 492.75 1.24934 -5.86951 0
M  V30 5350 H 493.82 0.279742 -4.84092 0
M  V30 5351 N 495.163 1.55791 0.238111 0
M  V30 5352 C 496.579 1.48411 0.587045 0
M  V30 5353 C 496.779 0.72702 1.87927 0
M  V30 5354 O 495.835 0.259942 2.51158 0
M  V30 5355 C 497.148 2.92873 0.681623 0
M  V30 5356 C 498.696 3.03295 0.773363 0
M  V30 5357 C 499.171 4.49082 0.899428 0
M  V30 5358 N 500.662 4.53056 0.964075 0
M  V30 5359 C 501.397 5.63117 1.08104 0
M  V30 5360 N 500.893 6.82969 1.16299 0
M  V30 5361 N 502.686 5.50933 1.11488 0
M  V30 5362 H 494.837 2.0345 -0.610076 0
M  V30 5363 H 497.1 0.924034 -0.211813 0
M  V30 5364 H 496.806 3.51142 -0.19802 0
M  V30 5365 H 496.68 3.43851 1.55069 0
M  V30 5366 H 499.067 2.45101 1.64346 0
M  V30 5367 H 499.148 2.55513 -0.121034 0
M  V30 5368 H 498.792 5.07889 0.0338586 0
M  V30 5369 H 498.722 4.94553 1.809 0
M  V30 5370 H 501.213 3.66737 0.91173 0
M  V30 5371 H 501.526 7.62598 1.25155 0
M  V30 5372 H 499.871 6.85712 1.13241 0
M  V30 5373 H 503.062 4.56231 1.0474 0
M  V30 5374 H 503.235 6.36743 1.20259 0
M  V30 5375 N 496.642 -0.504142 1.49319 0
M  V30 5376 C 497.87 -1.28256 1.62351 0
M  V30 5377 C 498.285 -1.86502 0.293682 0
M  V30 5378 O 497.642 -1.67678 -0.720449 0
M  V30 5379 C 497.693 -2.41507 2.68992 0
M  V30 5380 O 497.414 -1.85656 3.96817 0
M  V30 5381 C 498.915 -3.32929 2.927 0
M  V30 5382 H 496.135 -0.389115 0.546654 0
M  V30 5383 H 498.679 -0.605531 1.95329 0
M  V30 5384 H 496.834 -3.05046 2.38801 0
M  V30 5385 H 497.248 -2.59981 4.55533 0
M  V30 5386 H 498.722 -4.0868 3.71058 0
M  V30 5387 H 499.199 -3.89733 2.02496 0
M  V30 5388 H 499.805 -2.75158 3.24296 0
M  V30 5389 N 498.12 -1.38341 -0.754957 0
M  V30 5390 C 499.366 -1.35678 -1.51536 0
M  V30 5391 C 499.721 0.0533985 -1.92326 0
M  V30 5392 O 499.014 1.01573 -1.6246 0
M  V30 5393 C 499.208 -2.2452 -2.78075 0
M  V30 5394 C 499.037 -3.74035 -2.49655 0
M  V30 5395 C 497.807 -4.43066 -2.42942 0
M  V30 5396 C 500.005 -4.665 -2.16523 0
M  V30 5397 N 497.987 -5.78026 -2.06783 0
M  V30 5398 C 499.358 -5.89962 -1.90644 0
M  V30 5399 C 501.413 -4.54718 -2.02821 0
M  V30 5400 C 500.116 -7.0296 -1.52444 0
M  V30 5401 C 502.142 -5.67618 -1.66023 0
M  V30 5402 C 501.504 -6.90141 -1.41015 0
M  V30 5403 H 497.603 -0.551764 -0.554148 0
M  V30 5404 H 500.187 -1.73716 -0.879258 0
M  V30 5405 H 498.358 -1.88673 -3.39496 0
M  V30 5406 H 500.09 -2.12993 -3.44116 0
M  V30 5407 H 496.845 -3.96264 -2.59367 0
M  V30 5408 H 497.269 -6.49394 -1.91353 0
M  V30 5409 H 501.911 -3.60546 -2.20831 0
M  V30 5410 H 499.629 -7.97051 -1.33174 0
M  V30 5411 H 503.215 -5.6048 -1.56055 0
M  V30 5412 H 502.095 -7.76021 -1.12965 0
M  V30 5413 N 499.598 0.982988 -1.23187 0
M  V30 5414 C 500.546 2.09616 -1.00817 0
M  V30 5415 C 501.54 1.6932 0.0519995 0
M  V30 5416 O 502.746 1.79715 -0.101284 0
M  V30 5417 H 499.121 0.685628 -0.308899 0
M  V30 5418 H 501.092 2.25652 -1.95253 0
M  V30 5419 C 499.841 3.42249 -0.613243 0
M  V30 5420 H 499.164 3.73705 -1.42073 0
M  V30 5421 H 500.604 4.21086 -0.496208 0
M  V30 5422 C 499.063 3.30002 0.678233 0
M  V30 5423 O 499.593 3.6263 1.72807 0
M  V30 5424 N 497.799 2.83164 0.653165 0
M  V30 5425 H 497.346 2.56811 -0.201492 0
M  V30 5426 H 497.304 2.75352 1.51752 0
M  V30 5427 N 501.076 1.04316 1.18135 0
M  V30 5428 C 502.325 0.74319 1.87509 0
M  V30 5429 C 502.638 -0.732136 1.81381 0
M  V30 5430 O 503.844 -1.14572 2.46141 0
M  V30 5431 C 502.3 1.27913 3.36402 0
M  V30 5432 C 501.908 2.78326 3.51053 0
M  V30 5433 C 503.652 1.0558 4.11161 0
M  V30 5434 C 501.559 3.25266 4.93919 0
M  V30 5435 H 500.489 0.274313 0.702331 0
M  V30 5436 H 503.14 1.25931 1.33467 0
M  V30 5437 H 501.522 0.690853 3.89927 0
M  V30 5438 H 502.696 3.42933 3.07788 0
M  V30 5439 H 501.011 2.991 2.89704 0
M  V30 5440 H 503.608 1.38161 5.16542 0
M  V30 5441 H 503.951 -0.00684729 4.16299 0
M  V30 5442 H 504.484 1.60882 3.63816 0
M  V30 5443 H 501.223 4.30922 4.9395 0
M  V30 5444 H 500.743 2.65396 5.3789 0
M  V30 5445 H 502.422 3.19433 5.62647 0
M  V30 5446 N 502.554 -1.34406 0.822964 0
M  V30 5447 C 503.97 -1.51275 0.508727 0
M  V30 5448 C 504.17 -1.76776 -0.967083 0
M  V30 5449 O 503.226 -1.81871 -1.75155 0
M  V30 5450 C 504.539 -2.67765 1.36829 0
M  V30 5451 C 506.087 -2.81647 1.36542 0
M  V30 5452 C 506.562 -4.01181 2.20947 0
M  V30 5453 N 508.053 -4.08388 2.18571 0
M  V30 5454 C 508.788 -5.00036 2.80627 0
M  V30 5455 N 508.284 -5.96906 3.51674 0
M  V30 5456 N 510.077 -4.92908 2.70181 0
M  V30 5457 H 502.228 -1.16113 1.77852 0
M  V30 5458 H 504.491 -0.56947 0.757897 0
M  V30 5459 H 504.197 -2.55551 2.41633 0
M  V30 5460 H 504.071 -3.62779 1.03303 0
M  V30 5461 H 506.458 -2.93303 0.325163 0
M  V30 5462 H 506.539 -1.87443 1.74066 0
M  V30 5463 H 506.183 -3.90286 3.25022 0
M  V30 5464 H 506.113 -4.94599 1.80774 0
M  V30 5465 H 508.604 -3.39051 1.66891 0
M  V30 5466 H 508.917 -6.63468 3.96271 0
M  V30 5467 H 507.262 -5.9703 3.5578 0
M  V30 5468 H 510.453 -4.1619 2.14251 0
M  V30 5469 H 510.626 -5.64137 3.18831 0
M  V30 5470 N 504.032 -0.577932 -1.46621 0
M  V30 5471 C 504.965 0.206312 -2.27265 0
M  V30 5472 C 505.943 0.901306 -1.35334 0
M  V30 5473 O 507.127 0.916151 -1.64739 0
M  V30 5474 C 504.254 1.29563 -3.1294 0
M  V30 5475 C 503.3 0.706981 -4.206 0
M  V30 5476 S 504.133 -0.462459 -5.33499 0
M  V30 5477 C 505.289 0.628171 -6.2274 0
M  V30 5478 H 505.522 -0.477961 -2.93433 0
M  V30 5479 H 503.055 -0.364715 -1.50031 0
M  V30 5480 H 505.013 1.91935 -3.62865 0
M  V30 5481 H 503.674 1.95183 -2.46095 0
M  V30 5482 H 502.867 1.52565 -4.80354 0
M  V30 5483 H 502.469 0.159022 -3.73662 0
M  V30 5484 H 504.761 1.51506 -6.60342 0
M  V30 5485 H 505.704 0.0674961 -7.08068 0
M  V30 5486 H 506.112 0.930167 -5.56784 0
M  V30 5487 N 505.51 1.54411 -0.315457 0
M  V30 5488 C 506.756 2.00716 0.289972 0
M  V30 5489 C 507.089 1.2034 1.5242 0
M  V30 5490 O 506.364 0.283579 1.92422 0
M  V30 5491 C 506.647 3.54507 0.632196 0
M  V30 5492 C 506.5 4.45615 -0.61218 0
M  V30 5493 C 507.819 4.15421 1.45305 0
M  V30 5494 H 504.938 0.729637 0.10392 0
M  V30 5495 H 507.58 1.8506 -0.430427 0
M  V30 5496 H 505.73 3.67979 1.24595 0
M  V30 5497 H 507.402 4.44026 -1.25053 0
M  V30 5498 H 505.645 4.15621 -1.24264 0
M  V30 5499 H 506.316 5.51022 -0.328379 0
M  V30 5500 H 508.792 4.05474 0.934331 0
M  V30 5501 H 507.668 5.23157 1.66127 0
M  V30 5502 H 507.929 3.68223 2.44671 0
M  V30 5503 N 506.988 0.0434614 1.5754 0
M  V30 5504 C 508.216 -0.641835 1.96693 0
M  V30 5505 C 508.631 -1.64832 0.920652 0
M  V30 5506 O 507.988 -1.82247 -0.095993 0
M  V30 5507 C 508.039 -1.33557 3.35924 0
M  V30 5508 O 507.76 -0.369403 4.3654 0
M  V30 5509 C 509.261 -2.11135 3.89791 0
M  V30 5510 H 506.481 -0.176013 0.647503 0
M  V30 5511 H 509.025 0.107478 2.04217 0
M  V30 5512 H 507.18 -2.03617 3.29574 0
M  V30 5513 H 507.594 -0.863674 5.1734 0
M  V30 5514 H 509.068 -2.55107 4.89514 0
M  V30 5515 H 509.545 -2.95634 3.24803 0
M  V30 5516 H 510.151 -1.46002 3.99454 0
M  V30 5517 N 508.466 -1.55915 -0.229846 0
M  V30 5518 C 509.715 -1.77742 -0.953455 0
M  V30 5519 C 510.028 -0.610524 -1.85828 0
M  V30 5520 O 511.234 -0.712219 -2.61992 0
M  V30 5521 C 509.69 -3.14738 -1.74551 0
M  V30 5522 C 509.298 -4.39126 -0.887242 0
M  V30 5523 C 511.042 -3.45895 -2.46084 0
M  V30 5524 C 508.949 -5.67149 -1.67617 0
M  V30 5525 H 507.879 -0.662648 -0.359741 0
M  V30 5526 H 510.53 -1.82322 -0.207576 0
M  V30 5527 H 508.912 -3.04311 -2.53399 0
M  V30 5528 H 510.086 -4.60588 -0.139892 0
M  V30 5529 H 508.401 -4.15427 -0.284443 0
M  V30 5530 H 510.998 -4.38767 -3.05594 0
M  V30 5531 H 511.341 -2.68007 -3.18556 0
M  V30 5532 H 511.874 -3.57614 -1.74233 0
M  V30 5533 H 508.613 -6.47906 -0.994881 0
M  V30 5534 H 508.133 -5.49763 -2.39836 0
M  V30 5535 H 509.812 -6.07025 -2.23898 0
M  V30 5536 N 509.944 0.496216 -1.49584 0
M  V30 5537 C 510.877 1.61508 -1.61215 0
M  V30 5538 C 511.855 1.55927 -0.461045 0
M  V30 5539 O 513.039 1.75914 -0.677231 0
M  V30 5540 C 510.166 3.00035 -1.57152 0
M  V30 5541 C 509.212 3.23861 -2.77518 0
M  V30 5542 S 510.045 3.06466 -4.39134 0
M  V30 5543 C 511.201 4.4738 -4.37724 0
M  V30 5544 H 511.434 1.51398 -2.55863 0
M  V30 5545 H 508.967 0.681727 -1.38535 0
M  V30 5546 H 510.925 3.7991 -1.55494 0
M  V30 5547 H 509.586 3.07556 -0.637834 0
M  V30 5548 H 508.779 4.25 -2.70908 0
M  V30 5549 H 508.381 2.51716 -2.76614 0
M  V30 5550 H 510.673 5.39556 -4.09738 0
M  V30 5551 H 511.616 4.59038 -5.39156 0
M  V30 5552 H 512.024 4.28283 -3.67742 0
M  V30 5553 N 511.423 1.38739 0.74761 0
M  V30 5554 C 512.648 1.38702 1.54197 0
M  V30 5555 C 513.073 -0.019664 1.8809 0
M  V30 5556 O 512.431 -1.00333 1.51006 0
M  V30 5557 C 512.479 2.25492 2.814 0
M  V30 5558 O 511.583 1.67613 3.76802 0
M  V30 5559 H 510.924 0.472863 0.466151 0
M  V30 5560 H 513.454 1.82577 0.923413 0
M  V30 5561 H 513.464 2.39561 3.30264 0
M  V30 5562 H 512.139 3.27727 2.56062 0
M  V30 5563 H 510.716 1.62718 3.35526 0
M  V30 5564 N 512.901 -0.976442 1.23707 0
M  V30 5565 C 514.15 -1.71254 1.06559 0
M  V30 5566 C 514.463 -1.91528 -0.397024 0
M  V30 5567 O 515.669 -2.62625 -0.688518 0
M  V30 5568 C 514.125 -3.08207 1.8584 0
M  V30 5569 C 513.733 -2.95806 3.36456 0
M  V30 5570 C 515.477 -3.85749 1.77194 0
M  V30 5571 C 513.384 -4.28015 4.08114 0
M  V30 5572 H 512.314 -0.642171 0.395136 0
M  V30 5573 H 514.965 -1.08877 1.4771 0
M  V30 5574 H 513.347 -3.71363 1.37498 0
M  V30 5575 H 514.521 -2.41716 3.92314 0
M  V30 5576 H 512.836 -2.31736 3.45959 0
M  V30 5577 H 515.433 -4.83633 2.28041 0
M  V30 5578 H 515.776 -4.09752 0.735477 0
M  V30 5579 H 516.309 -3.29303 2.23169 0
M  V30 5580 H 513.048 -4.09208 5.12083 0
M  V30 5581 H 512.568 -4.81955 3.57043 0
M  V30 5582 H 514.247 -4.96681 4.14629 0
M  V30 5583 N 514.379 -1.04941 -1.1758 0
M  V30 5584 C 515.312 -0.592518 -2.20373 0
M  V30 5585 C 516.29 0.377561 -1.58156 0
M  V30 5586 O 517.474 0.28978 -1.86259 0
M  V30 5587 C 514.601 0.133215 -3.38438 0
M  V30 5588 C 513.647 -0.791484 -4.19092 0
M  V30 5589 S 514.48 -2.27925 -4.84572 0
M  V30 5590 C 515.636 -1.56462 -6.06028 0
M  V30 5591 H 515.869 -1.46342 -2.58788 0
M  V30 5592 H 513.402 -0.861148 -1.28155 0
M  V30 5593 H 515.36 0.545746 -4.06856 0
M  V30 5594 H 514.021 0.980124 -2.98416 0
M  V30 5595 H 513.214 -0.230039 -5.03475 0
M  V30 5596 H 512.816 -1.14326 -3.56098 0
M  V30 5597 H 515.108 -0.862539 -6.71987 0
M  V30 5598 H 516.051 -2.38583 -6.66696 0
M  V30 5599 H 516.459 -1.05313 -5.5459 0
M  V30 5600 N 515.857 1.33968 -0.830081 0
M  V30 5601 C 516.787 2.31911 -0.271911 0
M  V30 5602 C 517.768 1.58571 0.61556 0
M  V30 5603 O 518.953 1.86514 0.540946 0
M  V30 5604 C 516.083 3.42737 0.561146 0
M  V30 5605 C 515.037 4.27383 -0.229789 0
M  V30 5606 C 514.363 5.29742 0.726463 0
M  V30 5607 C 515.663 5.02 -1.44197 0
M  V30 5608 H 517.357 2.78844 -1.09025 0
M  V30 5609 H 514.903 1.34061 -0.52571 0
M  V30 5610 H 516.856 4.10276 0.961867 0
M  V30 5611 H 515.58 2.94471 1.41261 0
M  V30 5612 H 514.239 3.61456 -0.611964 0
M  V30 5613 H 513.887 4.77736 1.57408 0
M  V30 5614 H 513.587 5.87255 0.20142 0
M  V30 5615 H 515.111 6.00149 1.12489 0
M  V30 5616 H 516.525 5.62355 -1.11488 0
M  V30 5617 H 514.922 5.69122 -1.90317 0
M  V30 5618 H 515.992 4.31281 -2.2164 0
M  V30 5619 N 517.335 0.585699 1.46312 0
M  V30 5620 C 518.581 0.0808731 2.03239 0
M  V30 5621 C 518.936 -1.26609 1.44872 0
M  V30 5622 O 518.229 -1.81779 0.60556 0
M  V30 5623 C 518.423 -0.0401312 3.57377 0
M  V30 5624 C 518.252 1.29356 4.30694 0
M  V30 5625 C 517.022 1.86849 4.69484 0
M  V30 5626 C 519.22 2.21742 4.64042 0
M  V30 5627 N 517.202 3.13926 5.27564 0
M  V30 5628 C 518.573 3.33408 5.22723 0
M  V30 5629 C 520.628 2.21386 4.45974 0
M  V30 5630 C 519.331 4.44852 5.65242 0
M  V30 5631 C 521.357 3.31862 4.89511 0
M  V30 5632 C 520.719 4.42248 5.48266 0
M  V30 5633 H 516.818 0.072443 0.778637 0
M  V30 5634 H 519.402 0.779254 1.78426 0
M  V30 5635 H 517.573 -0.707686 3.81898 0
M  V30 5636 H 519.305 -0.549615 4.00951 0
M  V30 5637 H 516.06 1.40307 4.52339 0
M  V30 5638 H 516.484 3.78775 5.61122 0
M  V30 5639 H 521.126 1.37314 3.99881 0
M  V30 5640 H 518.844 5.29665 6.10312 0
M  V30 5641 H 522.43 3.32708 4.7728 0
M  V30 5642 H 521.31 5.26323 5.81338 0
M  V30 5643 N 518.813 -1.54241 0.323641 0
M  V30 5644 C 519.746 -2.20579 -0.584833 0
M  V30 5645 C 520.724 -1.18286 -1.11567 0
M  V30 5646 O 521.908 -1.47025 -1.17966 0
M  V30 5647 C 519.035 -2.86754 -1.80249 0
M  V30 5648 C 518.081 -4.02767 -1.4029 0
M  V30 5649 S 518.914 -5.33693 -0.439539 0
M  V30 5650 C 520.07 -6.03362 -1.66448 0
M  V30 5651 H 520.303 -2.97292 -0.0213238 0
M  V30 5652 H 517.836 -1.54024 0.107726 0
M  V30 5653 H 519.794 -3.25503 -2.50116 0
M  V30 5654 H 518.455 -2.09844 -2.33719 0
M  V30 5655 H 517.648 -4.47933 -2.31024 0
M  V30 5656 H 517.25 -3.65692 -0.783928 0
M  V30 5657 H 519.542 -6.25546 -2.6019 0
M  V30 5658 H 520.485 -6.9689 -1.25498 0
M  V30 5659 H 520.893 -5.33273 -1.85149 0
M  V30 5660 N 520.291 -0.0518155 -1.57515 0
M  V30 5661 C 521.519 0.631395 -1.9703 0
M  V30 5662 C 521.934 1.64341 -0.92938 0
M  V30 5663 O 521.291 1.82296 0.0863266 0
M  V30 5664 C 521.342 1.31774 -3.36627 0
M  V30 5665 O 521.063 0.346247 -4.3673 0
M  V30 5666 C 522.564 2.09065 -3.90905 0
M  V30 5667 H 519.784 0.172576 -0.648428 0
M  V30 5668 H 522.328 -0.118306 -2.04158 0
M  V30 5669 H 520.483 2.01867 -3.30649 0
M  V30 5670 H 520.897 0.836226 -5.17791 0
M  V30 5671 H 522.371 2.52508 -4.9086 0
M  V30 5672 H 522.848 2.93908 -3.26366 0
M  V30 5673 H 523.454 1.43882 -4.00223 0
M  V30 5674 N 521.769 1.56035 0.221574 0
M  V30 5675 C 523.018 1.78245 0.944016 0
M  V30 5676 C 523.331 0.620371 1.85501 0
M  V30 5677 O 524.537 0.726103 2.6161 0
M  V30 5678 C 522.993 3.15659 1.7288 0
M  V30 5679 C 522.601 4.39591 0.863942 0
M  V30 5680 C 524.345 3.47195 2.44246 0
M  V30 5681 C 522.252 5.6803 1.64607 0
M  V30 5682 H 521.182 0.664547 0.356222 0
M  V30 5683 H 523.833 1.8243 0.197904 0
M  V30 5684 H 522.215 3.0565 2.51781 0
M  V30 5685 H 523.389 4.60655 0.115464 0
M  V30 5686 H 521.704 4.15572 0.262407 0
M  V30 5687 H 524.301 4.40381 3.03263 0
M  V30 5688 H 524.644 2.69693 3.1713 0
M  V30 5689 H 525.177 3.58533 1.72334 0
M  V30 5690 H 521.916 6.48425 0.960507 0
M  V30 5691 H 521.436 5.51027 2.36917 0
M  V30 5692 H 523.115 6.08203 2.20675 0
M  V30 5693 N 523.247 -0.488276 1.49845 0
M  V30 5694 C 524.472 -1.26997 1.63971 0
M  V30 5695 C 524.897 -1.85427 0.315994 0
M  V30 5696 O 524.255 -1.66475 -0.718032 0
M  V30 5697 C 524.303 -2.36689 2.72049 0
M  V30 5698 O 523.407 -3.40882 2.32107 0
M  V30 5699 H 522.748 -0.374376 0.548396 0
M  V30 5700 H 525.278 -0.583104 1.96115 0
M  V30 5701 H 525.288 -2.82262 2.94605 0
M  V30 5702 H 523.963 -1.93529 3.68129 0
M  V30 5703 H 522.54 -3.01139 2.19931 0
M  V30 5704 N 524.725 -1.39134 -0.740242 0
M  V30 5705 C 525.971 -1.36273 -1.50192 0
M  V30 5706 C 526.304 0.0430136 -1.94152 0
M  V30 5707 O 525.579 1.00691 -1.66408 0
M  V30 5708 C 525.862 -2.33041 -2.74525 0
M  V30 5709 C 525.715 -3.82535 -2.36617 0
M  V30 5710 C 527.034 -2.27723 -3.76604 0
M  V30 5711 H 524.153 -0.496323 -0.544823 0
M  V30 5712 H 526.795 -1.70085 -0.846815 0
M  V30 5713 H 524.945 -2.04337 -3.30422 0
M  V30 5714 H 526.617 -4.21967 -1.86391 0
M  V30 5715 H 524.86 -3.99565 -1.68909 0
M  V30 5716 H 525.531 -4.45723 -3.2563 0
M  V30 5717 H 528.007 -2.53091 -3.30279 0
M  V30 5718 H 526.883 -2.97519 -4.61274 0
M  V30 5719 H 527.144 -1.28049 -4.2315 0
M  V30 5720 N 526.204 0.969867 -1.24223 0
M  V30 5721 C 527.452 1.70918 -1.0785 0
M  V30 5722 C 527.773 1.91186 0.383763 0
M  V30 5723 O 527.043 1.48806 1.27411 0
M  V30 5724 H 525.623 0.633334 -0.396103 0
M  V30 5725 H 528.285 1.16689 -1.56108 0
M  V30 5726 H 527.381 2.69455 -1.57482 0
M  V30 5727 N 527.682 1.05563 1.17022 0
M  V30 5728 C 528.912 0.787307 1.91011 0
M  V30 5729 C 529.32 -0.661256 1.77268 0
M  V30 5730 O 528.663 -1.46379 1.10991 0
M  V30 5731 C 528.725 1.09313 3.42478 0
M  V30 5732 C 528.389 2.53863 3.80004 0
M  V30 5733 C 529.386 3.52081 3.82538 0
M  V30 5734 C 527.071 2.88969 4.10855 0
M  V30 5735 C 529.065 4.83449 4.15399 0
M  V30 5736 C 526.752 4.2054 4.43384 0
M  V30 5737 C 527.75 5.17589 4.45635 0
M  V30 5738 O 527.438 6.46799 4.77395 0
M  V30 5739 H 527.17 0.285463 0.61277 0
M  V30 5740 H 529.724 1.41051 1.49311 0
M  V30 5741 H 527.954 0.412833 3.8449 0
M  V30 5742 H 529.643 0.810224 3.97731 0
M  V30 5743 H 530.409 3.26299 3.58823 0
M  V30 5744 H 526.288 2.1409 4.08272 0
M  V30 5745 H 529.832 5.59194 4.1707 0
M  V30 5746 H 525.729 4.46083 4.66563 0
M  V30 5747 H 526.497 6.51677 4.95237 0
M  V30 5748 N 529.16 -1.33526 0.837174 0
M  V30 5749 C 530.407 -1.97837 0.432064 0
M  V30 5750 C 530.735 -1.66324 -1.00829 0
M  V30 5751 O 529.99 -0.93448 -1.71948 0
M  V30 5752 C 530.289 -3.52367 0.597675 0
M  V30 5753 C 529.955 -4.03826 2.00587 0
M  V30 5754 C 528.617 -4.1759 2.39106 0
M  V30 5755 C 530.969 -4.31333 2.92576 0
M  V30 5756 C 528.297 -4.56195 3.68921 0
M  V30 5757 C 530.649 -4.7139 4.2187 0
M  V30 5758 C 529.313 -4.8336 4.60347 0
M  V30 5759 H 528.583 -0.723937 0.158104 0
M  V30 5760 H 531.23 -1.5923 1.06387 0
M  V30 5761 H 529.535 -3.91624 -0.117452 0
M  V30 5762 H 531.232 -4.00126 0.26454 0
M  V30 5763 H 527.822 -3.93586 1.69671 0
M  V30 5764 H 532.006 -4.20224 2.64056 0
M  V30 5765 H 527.262 -4.63655 3.9854 0
M  V30 5766 H 531.436 -4.91631 4.93226 0
M  V30 5767 H 529.063 -5.1303 5.60985 0
M  V30 5768 N 530.638 -0.59345 -1.46 0
M  V30 5769 C 531.886 -0.082988 -2.0193 0
M  V30 5770 C 532.207 1.28569 -1.46612 0
M  V30 5771 O 531.477 1.84629 -0.654909 0
M  V30 5772 H 530.057 -0.0276882 -0.746487 0
M  V30 5773 H 532.719 -0.771657 -1.78973 0
M  V30 5774 H 531.815 -0.022079 -3.12092 0
M  V30 5775 N 532.116 1.54067 -0.331816 0
M  V30 5776 C 533.046 2.27569 0.522932 0
M  V30 5777 C 534.027 1.28679 1.11247 0
M  V30 5778 O 535.212 1.57504 1.13605 0
M  V30 5779 C 532.342 3.0397 1.67987 0
M  V30 5780 C 531.296 4.10267 1.21924 0
M  V30 5781 C 530.622 4.74555 2.46377 0
M  V30 5782 C 531.922 5.21268 0.32815 0
M  V30 5783 H 533.616 2.99264 -0.0901977 0
M  V30 5784 H 531.162 1.4393 -0.044821 0
M  V30 5785 H 533.115 3.54123 2.28418 0
M  V30 5786 H 531.839 2.29906 2.31971 0
M  V30 5787 H 530.498 3.61009 0.637809 0
M  V30 5788 H 530.146 3.97098 3.08743 0
M  V30 5789 H 529.846 5.46363 2.16243 0
M  V30 5790 H 531.37 5.27487 3.07555 0
M  V30 5791 H 532.784 5.67128 0.838978 0
M  V30 5792 H 531.181 5.99982 0.119228 0
M  V30 5793 H 532.251 4.80673 -0.638839 0
M  V30 5794 N 533.594 0.0601682 1.57485 0
M  V30 5795 C 534.819 -0.624416 1.97777 0
M  V30 5796 C 535.244 -1.63051 0.937867 0
M  V30 5797 O 534.602 -1.81036 -0.0978845 0
M  V30 5798 C 534.65 -1.27979 3.37126 0
M  V30 5799 O 533.754 -2.39556 3.35688 0
M  V30 5800 H 533.095 -0.161581 0.64404 0
M  V30 5801 H 535.625 0.131237 2.04179 0
M  V30 5802 H 535.635 -1.62937 3.74053 0
M  V30 5803 H 534.31 -0.542501 4.12347 0
M  V30 5804 H 532.887 -2.06478 3.10517 0
M  V30 5805 N 535.072 -1.5615 -0.213296 0
M  V30 5806 C 536.002 -1.96109 -1.26742 0
M  V30 5807 C 536.983 -0.830448 -1.48451 0
M  V30 5808 O 538.168 -1.09339 -1.60495 0
M  V30 5809 C 535.298 -2.28492 -2.61551 0
M  V30 5810 C 534.252 -3.44124 -2.54485 0
M  V30 5811 C 533.578 -3.62134 -3.93399 0
M  V30 5812 C 534.878 -4.78855 -2.08556 0
M  V30 5813 H 536.572 -2.84412 -0.935434 0
M  V30 5814 H 534.118 -1.36836 -0.44854 0
M  V30 5815 H 536.071 -2.55039 -3.3546 0
M  V30 5816 H 534.795 -1.37052 -2.96453 0
M  V30 5817 H 533.454 -3.17639 -1.83033 0
M  V30 5818 H 533.102 -2.68055 -4.25623 0
M  V30 5819 H 532.802 -4.39913 -3.89551 0
M  V30 5820 H 534.326 -3.91038 -4.68958 0
M  V30 5821 H 535.74 -5.04552 -2.72213 0
M  V30 5822 H 534.137 -5.59975 -2.1575 0
M  V30 5823 H 535.207 -4.73657 -1.03811 0
M  V30 5824 N 536.55 0.480323 -1.50102 0
M  V30 5825 C 537.827 1.24159 -1.51142 0
M  V30 5826 C 538.207 2.09605 -0.250818 0
M  V30 5827 O 537.555 2.15274 0.766118 0
M  V30 5828 C 537.765 2.08057 -2.80202 0
M  V30 5829 C 539.113 2.66556 -3.30504 0
M  V30 5830 O 540.137 2.18308 -2.81461 0
M  V30 5831 O 538.996 3.54442 -4.15973 0
M  V30 5832 H 536.09 0.562928 -0.605839 0
M  V30 5833 H 538.636 0.492899 -1.62384 0
M  V30 5834 H 537.408 1.45032 -3.6343 0
M  V30 5835 H 537.031 2.90079 -2.71919 0
M  V30 5836 N 538.028 1.39524 0.732853 0
M  V30 5837 C 539.256 1.40143 1.52209 0
M  V30 5838 C 539.671 -0.00348836 1.888 0
M  V30 5839 O 539.028 -0.975357 1.5425 0
M  V30 5840 C 539.079 2.27632 2.8083 0
M  V30 5841 O 538.8 3.62654 2.45792 0
M  V30 5842 C 540.301 2.36658 3.74844 0
M  V30 5843 H 537.521 0.478604 0.470297 0
M  V30 5844 H 540.065 1.83366 0.905388 0
M  V30 5845 H 538.22 1.87818 3.38826 0
M  V30 5846 H 538.634 4.08941 3.28431 0
M  V30 5847 H 540.108 3.02118 4.61984 0
M  V30 5848 H 540.585 1.38638 4.16745 0
M  V30 5849 H 541.191 2.76951 3.22766 0
M  V30 5850 N 539.506 -0.963266 1.24736 0
M  V30 5851 C 540.917 -1.52145 1.08207 0
M  V30 5852 C 541.268 -1.93142 -0.345061 0
M  V30 5853 O 540.393 -1.77769 -1.23399 0
M  V30 5854 C 540.988 -2.76486 1.95808 0
M  V30 5855 C 539.547 -3.28646 1.8349 0
M  V30 5856 C 538.694 -2.01529 1.90476 0
M  V30 5857 H 541.645 -0.781083 1.38148 0
M  V30 5858 H 541.666 -3.49986 1.49297 0
M  V30 5859 H 541.178 -2.46617 2.99669 0
M  V30 5860 H 539.279 -3.63357 0.824787 0
M  V30 5861 H 539.392 -3.97246 2.67829 0
M  V30 5862 H 537.756 -2.16442 1.34258 0
M  V30 5863 H 538.539 -1.7402 2.95926 0
M  V30 5864 N 540.985 -1.06182 -1.16461 0
M  V30 5865 C 541.933 -0.665716 -2.2287 0
M  V30 5866 C 542.927 0.317822 -1.66392 0
M  V30 5867 O 544.133 0.182807 -1.79069 0
M  V30 5868 H 540.508 -0.197148 -0.725697 0
M  V30 5869 H 542.479 -1.57307 -2.53569 0
M  V30 5870 C 541.228 -0.0669803 -3.47635 0
M  V30 5871 H 540.551 -0.814899 -3.91407 0
M  V30 5872 H 541.991 0.172669 -4.23648 0
M  V30 5873 C 540.45 1.18913 -3.15216 0
M  V30 5874 O 540.98 2.27723 -3.30916 0
M  V30 5875 N 539.186 1.09066 -2.69357 0
M  V30 5876 H 538.733 0.20518 -2.56782 0
M  V30 5877 H 538.691 1.93195 -2.48039 0
M  V30 5878 N 542.463 1.3308 -0.844243 0
M  V30 5879 C 543.393 2.3161 -0.296493 0
M  V30 5880 C 544.374 1.59215 0.598707 0
M  V30 5881 O 545.559 1.87077 0.521134 0
M  V30 5882 C 542.689 3.43313 0.524762 0
M  V30 5883 C 541.643 4.27115 -0.275106 0
M  V30 5884 C 540.969 5.30483 0.670236 0
M  V30 5885 C 542.269 5.00443 -1.49514 0
M  V30 5886 H 543.963 2.77672 -1.11976 0
M  V30 5887 H 541.509 1.33496 -0.539899 0
M  V30 5888 H 543.462 4.11273 0.918298 0
M  V30 5889 H 542.186 2.95952 1.3813 0
M  V30 5890 H 540.845 3.60787 -0.650267 0
M  V30 5891 H 540.493 4.79379 1.52332 0
M  V30 5892 H 540.193 5.87435 0.139123 0
M  V30 5893 H 541.717 6.01308 1.06117 0
M  V30 5894 H 543.131 5.61141 -1.17447 0
M  V30 5895 H 541.528 5.67071 -1.96343 0
M  V30 5896 H 542.598 4.28906 -2.26202 0
M  V30 5897 N 543.941 0.601185 1.45683 0
M  V30 5898 C 544.891 -0.142686 2.27553 0
M  V30 5899 C 545.875 -0.844598 1.3695 0
M  V30 5900 O 547.067 -0.735644 1.60988 0
M  V30 5901 C 544.196 -1.14364 3.23691 0
M  V30 5902 C 543.282 -0.442894 4.21781 0
M  V30 5903 N 543.673 0.51189 5.03203 0
M  V30 5904 C 541.971 -0.691277 4.4061 0
M  V30 5905 C 542.672 0.92318 5.74328 0
M  V30 5906 N 541.648 0.268308 5.42937 0
M  V30 5907 H 545.45 0.590736 2.87902 0
M  V30 5908 H 542.964 0.424365 1.56757 0
M  V30 5909 H 544.961 -1.6909 3.8107 0
M  V30 5910 H 543.621 -1.87768 2.64902 0
M  V30 5911 H 544.632 0.888329 5.10225 0
M  V30 5912 H 541.309 -1.41049 3.92952 0
M  V30 5913 H 542.699 1.71029 6.49768 0
M  V30 5914 N 545.419 -1.53889 0.339982 0
M  V30 5915 C 546.667 -2.00458 -0.257112 0
M  V30 5916 C 546.988 -1.22953 -1.51353 0
M  V30 5917 O 546.258 -0.335734 -1.93002 0
M  V30 5918 H 544.838 -0.740544 -0.0979965 0
M  V30 5919 H 547.5 -1.89386 0.460317 0
M  V30 5920 H 546.596 -3.08035 -0.502057 0
M  V30 5921 N 546.897 -0.0685191 -1.57451 0
M  V30 5922 C 548.174 0.642167 -1.84758 0
M  V30 5923 C 548.554 1.87991 -0.960344 0
M  V30 5924 O 547.902 2.28485 -0.0257894 0
M  V30 5925 C 548.112 0.982946 -3.34872 0
M  V30 5926 C 549.46 1.35784 -4.02303 0
M  V30 5927 O 550.484 1.07477 -3.39598 0
M  V30 5928 O 549.343 1.88681 -5.12895 0
M  V30 5929 H 546.437 0.318625 -0.763156 0
M  V30 5930 H 548.983 -0.0992015 -1.6941 0
M  V30 5931 H 547.755 0.10372 -3.91163 0
M  V30 5932 H 547.378 1.78119 -3.55471 0
M  V30 5933 N 548.375 1.56261 0.205012 0
M  V30 5934 C 549.624 1.79236 0.925058 0
M  V30 5935 C 549.937 0.640011 1.84833 0
M  V30 5936 O 551.143 0.753809 2.60826 0
M  V30 5937 C 549.599 3.17475 1.69522 0
M  V30 5938 C 549.207 4.40482 0.817269 0
M  V30 5939 C 550.951 3.49766 2.4055 0
M  V30 5940 C 548.858 5.69744 1.58573 0
M  V30 5941 H 547.788 0.668287 0.349153 0
M  V30 5942 H 550.439 1.82629 0.178544 0
M  V30 5943 H 548.821 3.08304 2.48526 0
M  V30 5944 H 549.995 4.60752 0.0665988 0
M  V30 5945 H 548.31 4.15827 0.218316 0
M  V30 5946 H 550.907 4.43573 2.98575 0
M  V30 5947 H 551.25 2.73041 3.14252 0
M  V30 5948 H 551.783 3.60341 1.68522 0
M  V30 5949 H 548.522 6.49407 0.891679 0
M  V30 5950 H 548.042 5.53509 2.31059 0
M  V30 5951 H 549.721 6.1051 2.14212 0
M  V30 5952 N 549.853 -0.472356 1.50355 0
M  V30 5953 C 551.1 -1.22453 1.61281 0
M  V30 5954 C 551.428 -1.91972 0.31256 0
M  V30 5955 O 550.683 -1.82696 -0.701475 0
M  V30 5956 C 550.982 -2.29257 2.74182 0
M  V30 5957 C 550.648 -1.76999 4.14708 0
M  V30 5958 C 549.31 -1.62467 4.52944 0
M  V30 5959 C 551.662 -1.38215 5.0254 0
M  V30 5960 C 548.99 -1.07574 5.76754 0
M  V30 5961 C 551.342 -0.847638 6.26895 0
M  V30 5962 C 550.006 -0.688946 6.63935 0
M  V30 5963 H 549.276 -0.448087 0.590168 0
M  V30 5964 H 551.923 -0.520744 1.84284 0
M  V30 5965 H 550.228 -3.05538 2.45263 0
M  V30 5966 H 551.925 -2.87212 2.7984 0
M  V30 5967 H 548.515 -1.89276 3.84542 0
M  V30 5968 H 552.699 -1.48276 4.73633 0
M  V30 5969 H 547.955 -0.940237 6.04127 0
M  V30 5970 H 552.129 -0.538455 6.94315 0
M  V30 5971 H 549.756 -0.261435 7.5975 0
M  V30 5972 N 551.331 -1.39911 -0.725443 0
M  V30 5973 C 552.577 -1.37858 -1.48738 0
M  V30 5974 C 552.91 0.0224187 -1.94187 0
M  V30 5975 O 552.185 0.989204 -1.67466 0
M  V30 5976 C 552.468 -2.3594 -2.72038 0
M  V30 5977 C 552.321 -3.85023 -2.32546 0
M  V30 5978 C 553.64 -2.31704 -3.74167 0
M  V30 5979 H 550.759 -0.502074 -0.539528 0
M  V30 5980 H 553.401 -1.70974 -0.828728 0
M  V30 5981 H 551.551 -2.0783 -3.28236 0
M  V30 5982 H 553.223 -4.2392 -1.81905 0
M  V30 5983 H 551.466 -4.01334 -1.64661 0
M  V30 5984 H 552.137 -4.49152 -3.20884 0
M  V30 5985 H 554.613 -2.5658 -3.27576 0
M  V30 5986 H 553.489 -3.02395 -4.58092 0
M  V30 5987 H 553.75 -1.3253 -4.21768 0
M  V30 5988 N 552.809 0.956637 -1.25245 0
M  V30 5989 C 553.757 2.0743 -1.0524 0
M  V30 5990 C 554.751 1.69392 0.0160725 0
M  V30 5991 O 555.957 1.7946 -0.139382 0
M  V30 5992 H 552.332 0.678921 -0.323373 0
M  V30 5993 H 554.303 2.2146 -1.99995 0
M  V30 5994 C 553.052 3.40872 -0.685702 0
M  V30 5995 H 552.375 3.70607 -1.49968 0
M  V30 5996 H 553.815 4.19939 -0.585415 0
M  V30 5997 C 552.274 3.31367 0.608082 0
M  V30 5998 O 552.804 3.66214 1.65076 0
M  V30 5999 N 551.01 2.84486 0.592955 0
M  V30 6000 H 550.557 2.56326 -0.25592 0
M  V30 6001 H 550.515 2.78509 1.45877 0
M  V30 6002 N 554.287 1.06798 1.15896 0
M  V30 6003 C 555.527 0.797041 1.8822 0
M  V30 6004 C 555.891 -0.664549 1.80133 0
M  V30 6005 O 557.092 -1.0503 2.47431 0
M  V30 6006 C 555.363 1.28431 3.33527 0
M  V30 6007 S 556.922 1.14319 4.23647 0
M  V30 6008 H 553.74 0.288988 0.649621 0
M  V30 6009 H 556.342 1.36594 1.39865 0
M  V30 6010 H 555.046 2.34286 3.36954 0
M  V30 6011 H 554.577 0.710371 3.86933 0
M  V30 6012 H 556.592 0.0772467 4.9614 0
M  V30 6013 N 555.766 -1.3263 0.851289 0
M  V30 6014 C 557.013 -1.97368 0.453023 0
M  V30 6015 C 557.341 -1.67384 -0.990596 0
M  V30 6016 O 556.596 -0.952665 -1.70947 0
M  V30 6017 C 556.895 -3.51713 0.635015 0
M  V30 6018 C 556.561 -4.01676 2.04859 0
M  V30 6019 C 555.223 -4.15031 2.43522 0
M  V30 6020 C 557.575 -4.28206 2.97135 0
M  V30 6021 C 554.903 -4.52257 3.73739 0
M  V30 6022 C 557.255 -4.66889 4.26846 0
M  V30 6023 C 555.919 -4.7845 4.65448 0
M  V30 6024 H 555.189 -0.722219 0.165773 0
M  V30 6025 H 557.836 -1.58092 1.0807 0
M  V30 6026 H 556.141 -3.91726 -0.0759081 0
M  V30 6027 H 557.838 -3.99823 0.306964 0
M  V30 6028 H 554.428 -3.91764 1.73836 0
M  V30 6029 H 558.612 -4.174 2.68498 0
M  V30 6030 H 553.868 -4.59402 4.03435 0
M  V30 6031 H 558.042 -4.86372 4.98413 0
M  V30 6032 H 555.669 -5.07052 5.66395 0
M  V30 6033 N 557.244 -0.608902 -1.45362 0
M  V30 6034 C 558.174 0.0964526 -2.33301 0
M  V30 6035 C 559.155 0.857444 -1.46908 0
M  V30 6036 O 560.34 0.827735 -1.75676 0
M  V30 6037 C 557.47 1.09354 -3.29635 0
M  V30 6038 C 556.424 0.445676 -4.25673 0
M  V30 6039 C 555.75 1.5511 -5.11708 0
M  V30 6040 C 557.05 -0.633972 -5.18438 0
M  V30 6041 H 558.744 -0.637829 -2.92527 0
M  V30 6042 H 556.29 -0.308178 -1.40664 0
M  V30 6043 H 558.243 1.59556 -3.90025 0
M  V30 6044 H 556.967 1.85843 -2.6857 0
M  V30 6045 H 555.626 -0.0354897 -3.66583 0
M  V30 6046 H 555.274 2.30631 -4.4701 0
M  V30 6047 H 554.974 1.12311 -5.76767 0
M  V30 6048 H 556.498 2.05537 -5.74967 0
M  V30 6049 H 557.912 -0.215974 -5.72893 0
M  V30 6050 H 556.309 -0.983789 -5.91981 0
M  V30 6051 H 557.379 -1.51005 -4.60788 0
M  V30 6052 N 558.722 1.53707 -0.348139 0
M  V30 6053 C 559.947 2.05877 0.250883 0
M  V30 6054 C 560.372 1.22115 1.43072 0
M  V30 6055 O 559.73 0.235986 1.79758 0
M  V30 6056 C 559.778 3.54886 0.639416 0
M  V30 6057 O 558.882 3.73948 1.73888 0
M  V30 6058 H 558.223 0.662754 0.040653 0
M  V30 6059 H 560.753 1.98303 -0.503685 0
M  V30 6060 H 560.763 3.97601 0.915295 0
M  V30 6061 H 559.438 4.153 -0.223386 0
M  V30 6062 H 558.015 3.43134 1.45991 0
M  V30 6063 N 560.2 0.0768682 1.57412 0
M  V30 6064 C 561.163 -0.873949 2.11884 0
M  V30 6065 C 562.163 -1.22301 1.04398 0
M  V30 6066 O 563.353 -1.15545 1.30365 0
M  V30 6067 C 560.485 -2.17575 2.62438 0
M  V30 6068 H 561.678 -0.401278 2.97203 0
M  V30 6069 H 559.231 -0.171904 1.55352 0
M  V30 6070 H 559.966 -2.69368 1.80587 0
M  V30 6071 H 559.751 -1.93534 3.41009 0
M  V30 6072 H 561.241 -2.85631 3.04639 0
M  V30 6073 N 561.678 -1.56367 -0.196722 0
M  V30 6074 C 562.611 -1.89475 -1.2718 0
M  V30 6075 C 563.589 -0.754667 -1.44026 0
M  V30 6076 O 564.773 -1.00551 -1.59442 0
M  V30 6077 C 561.9 -2.12352 -2.63864 0
M  V30 6078 C 560.946 -3.35053 -2.63897 0
M  V30 6079 S 561.779 -4.90228 -2.15492 0
M  V30 6080 C 562.935 -5.16171 -3.54004 0
M  V30 6081 H 563.168 -2.80365 -0.989075 0
M  V30 6082 H 560.701 -1.49125 -0.40014 0
M  V30 6083 H 562.659 -2.26214 -3.42545 0
M  V30 6084 H 561.32 -1.22214 -2.89349 0
M  V30 6085 H 560.513 -3.48182 -3.64397 0
M  V30 6086 H 560.115 -3.20176 -1.93296 0
M  V30 6087 H 562.407 -5.06591 -4.49857 0
M  V30 6088 H 563.35 -6.17938 -3.45771 0
M  V30 6089 H 563.758 -4.43814 -3.48841 0
M  V30 6090 N 563.156 0.464375 -1.50603 0
M  V30 6091 C 564.402 1.21776 -1.62168 0
M  V30 6092 C 564.735 1.91476 -0.324154 0
M  V30 6093 O 564.01 1.8242 0.674782 0
M  V30 6094 C 564.293 2.25614 -2.80661 0
M  V30 6095 C 564.146 1.60175 -4.20314 0
M  V30 6096 C 565.465 3.26862 -2.94702 0
M  V30 6097 H 562.584 0.44137 -0.590222 0
M  V30 6098 H 565.226 0.510623 -1.8301 0
M  V30 6099 H 563.376 2.85923 -2.63021 0
M  V30 6100 H 565.048 1.03411 -4.4956 0
M  V30 6101 H 563.291 0.904697 -4.24261 0
M  V30 6102 H 563.962 2.35665 -4.99165 0
M  V30 6103 H 566.438 2.76582 -3.10872 0
M  V30 6104 H 565.314 3.96839 -3.79223 0
M  V30 6105 H 565.575 3.91382 -2.05603 0
M  V30 6106 N 564.634 1.40294 0.718013 0
M  V30 6107 C 565.544 1.42678 1.86226 0
M  V30 6108 C 566.56 0.319655 1.71039 0
M  V30 6109 O 567.736 0.563852 1.93346 0
M  V30 6110 C 564.801 1.2852 3.21999 0
M  V30 6111 C 563.862 2.49354 3.49458 0
M  V30 6112 C 563.095 2.35863 4.78753 0
M  V30 6113 O 563.318 1.37114 5.53675 0
M  V30 6114 O 562.252 3.25189 5.06494 0
M  V30 6115 H 566.078 2.39167 1.87171 0
M  V30 6116 H 563.663 1.2159 0.868112 0
M  V30 6117 H 565.545 1.22824 4.03103 0
M  V30 6118 H 564.22 0.351359 3.21787 0
M  V30 6119 H 563.127 2.60628 2.68373 0
M  V30 6120 H 564.46 3.41491 3.54464 0
M  V30 6121 N 566.112 -0.949982 1.2575 0
M  V30 6122 C 567.358 -1.69766 1.10938 0
M  V30 6123 C 567.691 -1.91056 -0.348028 0
M  V30 6124 O 566.966 -1.48488 -1.25625 0
M  V30 6125 C 567.249 -3.07779 1.86933 0
M  V30 6126 C 567.102 -2.9387 3.4053 0
M  V30 6127 C 568.421 -4.07749 1.65616 0
M  V30 6128 H 565.54 -0.616144 0.404396 0
M  V30 6129 H 568.182 -1.10394 1.54639 0
M  V30 6130 H 566.332 -3.58462 1.4979 0
M  V30 6131 H 568.004 -2.50476 3.87375 0
M  V30 6132 H 566.247 -2.29686 3.68004 0
M  V30 6133 H 566.918 -3.91719 3.88922 0
M  V30 6134 H 569.394 -3.65994 1.97959 0
M  V30 6135 H 568.27 -5.02348 2.21218 0
M  V30 6136 H 568.531 -4.38029 0.598595 0
M  V30 6137 N 567.59 -1.07411 -1.15328 0
M  V30 6138 C 569.001 -0.820261 -1.67716 0
M  V30 6139 C 569.352 0.654539 -1.8496 0
M  V30 6140 O 568.477 1.50664 -1.55337 0
M  V30 6141 C 569.072 -1.48242 -3.04647 0
M  V30 6142 C 567.631 -1.27606 -3.5411 0
M  V30 6143 C 566.778 -1.5517 -2.29821 0
M  V30 6144 H 569.729 -1.23608 -0.995332 0
M  V30 6145 H 569.75 -0.903984 -3.69606 0
M  V30 6146 H 569.262 -2.55578 -2.92064 0
M  V30 6147 H 567.363 -0.222948 -3.71932 0
M  V30 6148 H 567.476 -1.99667 -4.35511 0
M  V30 6149 H 565.84 -0.972747 -2.35393 0
M  V30 6150 H 566.623 -2.63689 -2.19824 0
M  V30 6151 N 569.068 1.32177 -0.85831 0
M  V30 6152 C 570.031 2.27086 -0.310588 0
M  V30 6153 C 571.031 1.51751 0.531806 0
M  V30 6154 O 572.221 1.70794 0.34279 0
M  V30 6155 C 569.353 3.36266 0.560179 0
M  V30 6156 H 570.546 2.77045 -1.1483 0
M  V30 6157 H 568.099 1.42911 -0.632942 0
M  V30 6158 H 568.834 2.9158 1.41956 0
M  V30 6159 H 568.619 3.92077 -0.0428473 0
M  V30 6160 H 570.109 4.06974 0.936056 0
M  V30 6161 N 570.547 0.616602 1.45037 0
M  V30 6162 C 571.777 0.121791 2.06241 0
M  V30 6163 C 572.185 -1.20289 1.46038 0
M  V30 6164 O 571.528 -1.7456 0.572242 0
M  V30 6165 C 571.59 -0.0827345 3.59405 0
M  V30 6166 C 571.254 1.16153 4.41993 0
M  V30 6167 C 572.251 2.08183 4.76399 0
M  V30 6168 C 569.936 1.39288 4.82601 0
M  V30 6169 C 571.93 3.21668 5.5028 0
M  V30 6170 C 569.617 2.53073 5.56235 0
M  V30 6171 C 570.615 3.44091 5.89992 0
M  V30 6172 O 570.303 4.55894 6.6213 0
M  V30 6173 H 570.035 0.0701667 0.672349 0
M  V30 6174 H 572.589 0.846877 1.87129 0
M  V30 6175 H 570.819 -0.862812 3.76952 0
M  V30 6176 H 572.508 -0.530273 4.02421 0
M  V30 6177 H 573.274 1.91538 4.45576 0
M  V30 6178 H 569.153 0.693396 4.55755 0
M  V30 6179 H 572.697 3.92733 5.76547 0
M  V30 6180 H 568.594 2.69667 5.86472 0
M  V30 6181 H 569.362 4.5469 6.80587 0
M  V30 6182 N 572.025 -1.5352 0.356285 0
M  V30 6183 C 573.271 -2.01414 -0.236653 0
M  V30 6184 C 573.604 -1.24339 -1.49176 0
M  V30 6185 O 572.879 -0.334496 -1.91602 0
M  V30 6186 C 573.162 -3.56059 -0.537982 0
M  V30 6187 C 573.015 -4.43835 0.730112 0
M  V30 6188 C 574.334 -4.19127 -1.34239 0
M  V30 6189 H 571.453 -0.732135 -0.0845386 0
M  V30 6190 H 574.095 -1.83854 0.479341 0
M  V30 6191 H 572.245 -3.71153 -1.14795 0
M  V30 6192 H 573.917 -4.40555 1.36782 0
M  V30 6193 H 572.16 -4.1218 1.3524 0
M  V30 6194 H 572.831 -5.49958 0.474358 0
M  V30 6195 H 575.307 -4.07809 -0.826498 0
M  V30 6196 H 574.183 -5.27378 -1.52198 0
M  V30 6197 H 574.444 -3.74581 -2.34822 0
M  V30 6198 N 573.503 -0.0852151 -1.57369 0
M  V30 6199 C 574.433 0.874556 -2.16503 0
M  V30 6200 C 575.414 1.30111 -1.09568 0
M  V30 6201 O 576.599 1.36977 -1.37662 0
M  V30 6202 C 573.729 2.13731 -2.73745 0
M  V30 6203 C 572.683 1.84971 -3.85966 0
M  V30 6204 C 572.009 3.17991 -4.29867 0
M  V30 6205 C 573.309 1.14442 -5.09608 0
M  V30 6206 H 575.003 0.381899 -2.96954 0
M  V30 6207 H 572.549 0.18225 -1.42842 0
M  V30 6208 H 574.502 2.81302 -3.13763 0
M  V30 6209 H 573.226 2.65263 -1.90534 0
M  V30 6210 H 571.885 1.19801 -3.46473 0
M  V30 6211 H 571.533 3.6739 -3.4356 0
M  V30 6212 H 571.233 2.99534 -5.05523 0
M  V30 6213 H 572.757 3.86737 -4.72511 0
M  V30 6214 H 574.171 1.72105 -5.46857 0
M  V30 6215 H 572.568 1.06197 -5.90629 0
M  V30 6216 H 573.638 0.12559 -4.84737 0
M  V30 6217 N 574.981 1.5647 0.188427 0
M  V30 6218 C 575.944 1.9421 1.21718 0
M  V30 6219 C 576.944 0.823901 1.38089 0
M  V30 6220 O 578.134 1.09122 1.35787 0
M  V30 6221 C 575.266 2.22197 2.58537 0
M  V30 6222 H 576.459 2.86252 0.894418 0
M  V30 6223 H 574.012 1.50263 0.430211 0
M  V30 6224 H 574.747 1.32814 2.95856 0
M  V30 6225 H 574.532 3.03688 2.48025 0
M  V30 6226 H 576.022 2.52376 3.3271 0
M  V30 6227 N 576.459 -0.456382 1.50847 0
M  V30 6228 C 577.705 -1.20618 1.63777 0
M  V30 6229 C 578.06 -1.8936 0.340677 0
M  V30 6230 O 577.353 -1.79786 -0.662378 0
M  V30 6231 C 577.547 -2.26336 2.76599 0
M  V30 6232 C 577.376 -1.67968 4.17153 0
M  V30 6233 C 576.146 -1.47293 4.83356 0
M  V30 6234 C 578.344 -1.16643 5.00898 0
M  V30 6235 N 576.326 -0.843222 6.08081 0
M  V30 6236 C 577.697 -0.660843 6.16468 0
M  V30 6237 C 579.752 -1.05637 4.86565 0
M  V30 6238 C 578.455 -0.0560365 7.19278 0
M  V30 6239 C 580.481 -0.465485 5.89565 0
M  V30 6240 C 579.843 0.0296516 7.04394 0
M  V30 6241 H 575.942 -0.429725 0.653345 0
M  V30 6242 H 578.526 -0.505784 1.88016 0
M  V30 6243 H 576.697 -2.93785 2.54056 0
M  V30 6244 H 578.429 -2.9334 2.78808 0
M  V30 6245 H 575.184 -1.72934 4.40898 0
M  V30 6246 H 575.608 -0.546357 6.74792 0
M  V30 6247 H 580.25 -1.42508 3.98059 0
M  V30 6248 H 577.968 0.324845 8.07447 0
M  V30 6249 H 581.554 -0.382493 5.80541 0
M  V30 6250 H 580.434 0.479705 7.82731 0
M  V30 6251 N 577.937 -1.40673 -0.710563 0
M  V30 6252 C 578.867 -1.44095 -1.83736 0
M  V30 6253 C 579.848 -0.301286 -1.67411 0
M  V30 6254 O 581.033 -0.510618 -1.87367 0
M  V30 6255 C 578.163 -1.30773 -3.21738 0
M  V30 6256 C 577.117 -2.42395 -3.52745 0
M  V30 6257 C 576.443 -2.14147 -4.89944 0
M  V30 6258 C 577.743 -3.84738 -3.53234 0
M  V30 6259 H 579.437 -2.38396 -1.81129 0
M  V30 6260 H 576.983 -1.14746 -0.870017 0
M  V30 6261 H 578.936 -1.31783 -4.00264 0
M  V30 6262 H 577.66 -0.329507 -3.24934 0
M  V30 6263 H 576.319 -2.40643 -2.76562 0
M  V30 6264 H 575.967 -1.14703 -4.89747 0
M  V30 6265 H 575.667 -2.88934 -5.11655 0
M  V30 6266 H 577.191 -2.16848 -5.70797 0
M  V30 6267 H 578.605 -3.88286 -4.2179 0
M  V30 6268 H 577.002 -4.59085 -3.86473 0
M  V30 6269 H 578.072 -4.13962 -2.52514 0
M  V30 6270 N 579.415 0.9433 -1.26252 0
M  V30 6271 C 580.345 2.05902 -1.10122 0
M  V30 6272 C 581.326 1.70099 -0.00700552 0
M  V30 6273 O 582.511 1.93377 -0.178641 0
M  V30 6274 C 579.641 3.39516 -0.731175 0
M  V30 6275 C 578.595 3.89372 -1.77688 0
M  V30 6276 C 577.921 5.19613 -1.26122 0
M  V30 6277 C 579.221 4.14489 -3.17799 0
M  V30 6278 H 580.915 2.19655 -2.03451 0
M  V30 6279 H 578.461 1.05548 -0.979576 0
M  V30 6280 H 580.414 4.17031 -0.605215 0
M  V30 6281 H 579.138 3.25733 0.23782 0
M  V30 6282 H 577.797 3.14036 -1.89148 0
M  V30 6283 H 577.445 5.02208 -0.282128 0
M  V30 6284 H 577.145 5.53939 -1.96023 0
M  V30 6285 H 578.669 5.99713 -1.14789 0
M  V30 6286 H 580.083 4.82625 -3.09428 0
M  V30 6287 H 578.48 4.60094 -3.85271 0
M  V30 6288 H 579.55 3.20347 -3.64014 0
M  V30 6289 N 580.893 1.08022 1.14757 0
M  V30 6290 C 581.823 0.728248 2.21853 0
M  V30 6291 C 582.804 -0.287486 1.67653 0
M  V30 6292 O 583.989 -0.158727 1.9355 0
M  V30 6293 C 581.119 0.132549 3.47047 0
M  V30 6294 C 580.073 1.07619 4.14249 0
M  V30 6295 C 579.399 0.342907 5.33599 0
M  V30 6296 C 580.699 2.41268 4.63235 0
M  V30 6297 H 582.393 1.62365 2.51551 0
M  V30 6298 H 579.939 0.782125 1.20908 0
M  V30 6299 H 581.892 -0.125665 4.21213 0
M  V30 6300 H 580.616 -0.797971 3.16702 0
M  V30 6301 H 579.275 1.31944 3.42033 0
M  V30 6302 H 578.923 -0.59129 4.99513 0
M  V30 6303 H 578.623 0.971955 5.79506 0
M  V30 6304 H 580.147 0.0926538 6.1053 0
M  V30 6305 H 581.561 2.21232 5.28894 0
M  V30 6306 H 579.958 2.9983 5.19829 0
M  V30 6307 H 581.028 3.03079 3.78512 0
M  V30 6308 N 582.371 -1.3172 0.865308 0
M  V30 6309 C 583.303 -2.27545 0.274906 0
M  V30 6310 C 584.316 -1.52887 -0.559413 0
M  V30 6311 O 585.505 -1.74361 -0.382166 0
M  V30 6312 C 582.605 -3.33006 -0.629286 0
M  V30 6313 C 581.778 -4.37063 0.171553 0
M  V30 6314 C 580.837 -5.22044 -0.660052 0
M  V30 6315 O 579.863 -5.69129 -0.0897527 0
M  V30 6316 N 581.065 -5.45946 -1.97289 0
M  V30 6317 H 583.83 -2.78848 1.09836 0
M  V30 6318 H 581.391 -1.44693 0.726331 0
M  V30 6319 H 583.383 -3.86772 -1.19121 0
M  V30 6320 H 581.953 -2.81782 -1.35342 0
M  V30 6321 H 581.173 -3.83436 0.914919 0
M  V30 6322 H 582.461 -5.03662 0.721235 0
M  V30 6323 H 581.859 -5.0944 -2.45942 0
M  V30 6324 H 580.416 -6.02665 -2.4827 0
M  V30 6325 N 583.85 -0.624285 -1.44708 0
M  V30 6326 C 585.08 -0.132726 -2.06173 0
M  V30 6327 C 585.488 1.19513 -1.46674 0
M  V30 6328 O 584.831 1.74254 -0.581491 0
M  V30 6329 C 584.893 0.0636732 -3.59444 0
M  V30 6330 C 584.557 -1.18496 -4.4137 0
M  V30 6331 C 585.553 -2.10706 -4.75288 0
M  V30 6332 C 583.239 -1.41846 -4.81856 0
M  V30 6333 C 585.233 -3.24582 -5.48567 0
M  V30 6334 C 582.92 -2.5602 -5.54885 0
M  V30 6335 C 583.918 -3.47215 -5.88159 0
M  V30 6336 O 583.606 -4.59399 -6.59703 0
M  V30 6337 H 583.338 -0.0737313 -0.671967 0
M  V30 6338 H 585.892 -0.856789 -1.86677 0
M  V30 6339 H 584.122 0.842809 -3.77404 0
M  V30 6340 H 585.811 0.508924 -4.02697 0
M  V30 6341 H 586.577 -1.93898 -4.44554 0
M  V30 6342 H 582.456 -0.717556 -4.55381 0
M  V30 6343 H 586 -3.95785 -5.74456 0
M  V30 6344 H 581.897 -2.72774 -5.85034 0
M  V30 6345 H 582.665 -4.58293 -6.78166 0
M  V30 6346 N 585.328 1.53329 -0.364422 0
M  V30 6347 C 586.258 2.28627 0.474543 0
M  V30 6348 C 587.239 1.31009 1.08492 0
M  V30 6349 O 588.424 1.59878 1.10239 0
M  V30 6350 C 585.554 3.07465 1.61501 0
M  V30 6351 C 584.508 4.1276 1.13194 0
M  V30 6352 C 583.834 4.79674 2.36255 0
M  V30 6353 C 585.134 5.21847 0.217507 0
M  V30 6354 H 586.828 2.99005 -0.153656 0
M  V30 6355 H 584.374 1.43803 -0.0753406 0
M  V30 6356 H 586.327 3.58889 2.20855 0
M  V30 6357 H 585.051 2.34775 2.27042 0
M  V30 6358 H 583.71 3.62281 0.56109 0
M  V30 6359 H 583.358 4.03557 3.00251 0
M  V30 6360 H 583.058 5.50827 2.04606 0
M  V30 6361 H 584.582 5.33892 2.96297 0
M  V30 6362 H 585.996 5.6878 0.718493 0
M  V30 6363 H 584.393 6.00099 -0.00806408 0
M  V30 6364 H 585.463 4.7921 -0.740653 0
M  V30 6365 N 586.806 0.0935595 1.57322 0
M  V30 6366 C 588.217 -0.435807 1.81542 0
M  V30 6367 C 588.568 -1.68263 1.00907 0
M  V30 6368 O 587.693 -2.15087 0.237983 0
M  V30 6369 C 588.288 -0.797436 3.29282 0
M  V30 6370 C 586.847 -1.27155 3.54272 0
M  V30 6371 C 585.994 -0.267455 2.76007 0
M  V30 6372 H 588.945 0.31902 1.5546 0
M  V30 6373 H 588.966 -1.6571 3.42521 0
M  V30 6374 H 588.478 0.110206 3.87943 0
M  V30 6375 H 586.579 -2.19696 3.00939 0
M  V30 6376 H 586.692 -1.23445 4.62923 0
M  V30 6377 H 585.056 -0.749282 2.43429 0
M  V30 6378 H 585.839 0.632839 3.37417 0
M  V30 6379 N 588.284 -1.56567 -0.180126 0
M  V30 6380 C 589.7 -1.50488 -0.531559 0
M  V30 6381 C 589.9 -0.796267 -1.851 0
M  V30 6382 O 588.956 -0.352978 -2.50021 0
M  V30 6383 C 590.269 -2.95201 -0.572456 0
M  V30 6384 C 591.817 -3.05957 -0.660264 0
M  V30 6385 C 592.292 -4.5211 -0.732135 0
M  V30 6386 N 593.783 -4.56322 -0.795262 0
M  V30 6387 C 594.518 -5.66742 -0.871296 0
M  V30 6388 N 594.014 -6.86815 -0.908708 0
M  V30 6389 N 595.807 -5.54691 -0.909639 0
M  V30 6390 H 587.958 -2.01045 0.685165 0
M  V30 6391 H 590.221 -0.915536 0.245962 0
M  V30 6392 H 589.927 -3.50165 0.328208 0
M  V30 6393 H 589.801 -3.49369 -1.422 0
M  V30 6394 H 592.188 -2.51032 -1.55136 0
M  V30 6395 H 592.269 -2.54888 0.215783 0
M  V30 6396 H 591.913 -5.07664 0.154664 0
M  V30 6397 H 591.843 -5.00926 -1.6242 0
M  V30 6398 H 594.334 -3.69868 -0.77499 0
M  V30 6399 H 594.647 -7.66718 -0.967654 0
M  V30 6400 H 592.992 -6.89443 -0.877132 0
M  V30 6401 H 596.183 -4.59804 -0.877353 0
M  V30 6402 H 596.356 -6.40768 -0.965434 0
M  V30 6403 N 589.762 0.448376 -1.51087 0
M  V30 6404 C 591.178 0.783984 -1.39017 0
M  V30 6405 C 591.378 1.96087 -0.463904 0
M  V30 6406 O 590.434 2.52357 0.0850534 0
M  V30 6407 C 591.747 1.07471 -2.80839 0
M  V30 6408 C 593.295 1.17981 -2.89913 0
M  V30 6409 C 593.77 1.50354 -4.32617 0
M  V30 6410 N 595.261 1.57301 -4.35673 0
M  V30 6411 C 595.996 1.839 -5.4311 0
M  V30 6412 N 595.492 2.08365 -6.60724 0
M  V30 6413 N 597.285 1.8559 -5.30578 0
M  V30 6414 H 589.436 -0.326881 -2.0987 0
M  V30 6415 H 591.699 -0.0838006 -0.944289 0
M  V30 6416 H 591.405 0.282768 -3.50561 0
M  V30 6417 H 591.279 2.00519 -3.19487 0
M  V30 6418 H 593.666 1.9624 -2.20395 0
M  V30 6419 H 593.747 0.228603 -2.54776 0
M  V30 6420 H 593.391 0.726273 -5.0268 0
M  V30 6421 H 593.321 2.46663 -4.65258 0
M  V30 6422 H 595.812 1.40342 -3.50874 0
M  V30 6423 H 596.125 2.27999 -7.38401 0
M  V30 6424 H 594.47 2.0571 -6.63859 0
M  V30 6425 H 597.661 1.65989 -4.37682 0
M  V30 6426 H 597.834 2.05983 -6.1439 0
M  V30 6427 N 591.24 1.41047 0.703093 0
M  V30 6428 C 592.47 1.43133 1.48985 0
M  V30 6429 C 592.878 0.0328537 1.89171 0
M  V30 6430 O 592.221 -0.956469 1.56835 0
M  V30 6431 C 592.283 2.26991 2.78775 0
M  V30 6432 C 591.947 3.7525 2.60837 0
M  V30 6433 C 592.944 4.67591 2.27276 0
M  V30 6434 C 590.629 4.19208 2.76712 0
M  V30 6435 C 592.623 6.01877 2.09817 0
M  V30 6436 C 590.31 5.53561 2.5887 0
M  V30 6437 C 591.308 6.4471 2.25472 0
M  V30 6438 O 590.996 7.76584 2.07778 0
M  V30 6439 H 590.728 0.489788 0.465922 0
M  V30 6440 H 593.282 1.85886 0.873822 0
M  V30 6441 H 591.512 1.79038 3.42757 0
M  V30 6442 H 593.201 2.20867 3.40547 0
M  V30 6443 H 593.967 4.34923 2.14633 0
M  V30 6444 H 589.846 3.48572 3.01693 0
M  V30 6445 H 593.39 6.72986 1.83671 0
M  V30 6446 H 589.287 5.85811 2.71102 0
M  V30 6447 H 590.055 7.87649 2.22601 0
M  V30 6448 N 592.718 -0.936591 1.26751 0
M  V30 6449 C 593.943 -1.72288 1.15462 0
M  V30 6450 C 594.368 -1.85915 -0.285887 0
M  V30 6451 O 593.726 -1.35272 -1.20711 0
M  V30 6452 C 593.774 -3.10503 1.83359 0
M  V30 6453 O 592.878 -3.96745 1.1255 0
M  V30 6454 H 592.219 -0.52843 0.402067 0
M  V30 6455 H 594.749 -1.17271 1.67656 0
M  V30 6456 H 594.759 -3.60867 1.90365 0
M  V30 6457 H 593.434 -2.99901 2.88153 0
M  V30 6458 H 592.011 -3.55191 1.13551 0
M  V30 6459 N 594.196 -1.08629 -1.14182 0
M  V30 6460 C 595.129 -0.662329 -2.18377 0
M  V30 6461 C 596.107 0.327054 -1.59277 0
M  V30 6462 O 597.291 0.230376 -1.87087 0
M  V30 6463 C 594.418 0.0254765 -3.3869 0
M  V30 6464 C 593.464 -0.924414 -4.16361 0
M  V30 6465 S 594.297 -2.43226 -4.77076 0
M  V30 6466 C 595.453 -1.75663 -6.00744 0
M  V30 6467 H 595.686 -1.54501 -2.54001 0
M  V30 6468 H 593.219 -0.901484 -1.2535 0
M  V30 6469 H 595.177 0.416032 -4.08386 0
M  V30 6470 H 593.838 0.884689 -3.01384 0
M  V30 6471 H 593.031 -0.390099 -5.02488 0
M  V30 6472 H 592.633 -1.25598 -3.5228 0
M  V30 6473 H 594.925 -1.07589 -6.68903 0
M  V30 6474 H 595.868 -2.59673 -6.58768 0
M  V30 6475 H 596.276 -1.22903 -5.50958 0
M  V30 6476 N 595.674 1.31259 -0.872281 0
M  V30 6477 C 596.637 2.26744 -0.334656 0
M  V30 6478 C 597.637 1.52307 0.515681 0
M  V30 6479 O 598.827 1.71148 0.324656 0
M  V30 6480 C 595.959 3.36841 0.524482 0
M  V30 6481 H 597.152 2.75812 -1.17762 0
M  V30 6482 H 594.705 1.42232 -0.648064 0
M  V30 6483 H 595.44 2.93069 1.38855 0
M  V30 6484 H 595.225 3.92009 -0.0844299 0
M  V30 6485 H 596.715 4.07944 0.892838 0
M  V30 6486 N 597.152 0.631951 1.44375 0
M  V30 6487 C 598.38 0.143867 2.06399 0
M  V30 6488 C 598.795 -1.18188 1.47231 0
M  V30 6489 O 598.152 -1.72511 0.595498 0
M  V30 6490 C 598.203 0.0238253 3.61492 0
M  V30 6491 O 597.924 1.29715 4.18456 0
M  V30 6492 C 599.425 -0.492856 4.40552 0
M  V30 6493 H 596.645 0.0800542 0.666207 0
M  V30 6494 H 599.189 0.866586 1.85231 0
M  V30 6495 H 597.344 -0.649338 3.81919 0
M  V30 6496 H 597.758 1.14252 5.11905 0
M  V30 6497 H 599.232 -0.525861 5.49489 0
M  V30 6498 H 599.709 -1.52006 4.12057 0
M  V30 6499 H 600.315 0.147085 4.25046 0
M  V30 6500 N 598.631 -1.53133 0.372548 0
M  V30 6501 C 599.594 -2.24569 -0.458389 0
M  V30 6502 C 600.594 -1.25603 -1.00402 0
M  V30 6503 O 601.784 -1.49827 -0.888672 0
M  V30 6504 C 598.916 -2.98783 -1.6414 0
M  V30 6505 H 600.109 -2.99436 0.166799 0
M  V30 6506 H 597.662 -1.55805 0.124357 0
M  V30 6507 H 598.397 -2.28176 -2.30448 0
M  V30 6508 H 598.182 -3.71404 -1.25704 0
M  V30 6509 H 599.672 -3.53068 -2.23008 0
M  V30 6510 N 600.109 -0.101901 -1.5727 0
M  V30 6511 C 601.039 0.851544 -2.17419 0
M  V30 6512 C 602.02 1.28942 -1.10941 0
M  V30 6513 O 603.205 1.35509 -1.39107 0
M  V30 6514 C 600.335 2.10816 -2.75996 0
M  V30 6515 C 599.289 1.80867 -3.87906 0
M  V30 6516 C 598.615 3.13413 -4.33216 0
M  V30 6517 C 599.915 1.0903 -5.10793 0
M  V30 6518 H 601.609 0.350381 -2.97343 0
M  V30 6519 H 599.155 0.16709 -1.43027 0
M  V30 6520 H 601.108 2.77959 -3.16729 0
M  V30 6521 H 599.832 2.63227 -1.93337 0
M  V30 6522 H 598.491 1.16119 -3.47724 0
M  V30 6523 H 598.139 3.63725 -3.47438 0
M  V30 6524 H 597.839 2.94155 -5.08671 0
M  V30 6525 H 599.363 3.81704 -4.76586 0
M  V30 6526 H 600.777 1.66295 -5.48652 0
M  V30 6527 H 599.174 0.99927 -5.91722 0
M  V30 6528 H 600.244 0.0741704 -4.84843 0
M  V30 6529 N 601.587 1.56661 0.17182 0
M  V30 6530 C 602.834 1.81965 0.888529 0
M  V30 6531 C 603.162 0.6789 1.82267 0
M  V30 6532 O 602.417 -0.333875 1.92831 0
M  V30 6533 C 602.716 3.13435 1.71736 0
M  V30 6534 C 602.382 4.41159 0.932184 0
M  V30 6535 C 601.044 4.75851 0.715481 0
M  V30 6536 C 603.396 5.19803 0.381387 0
M  V30 6537 C 600.724 5.86666 -0.063126 0
M  V30 6538 C 603.076 6.31433 -0.384129 0
M  V30 6539 C 601.74 6.64692 -0.611637 0
M  V30 6540 H 601.01 0.665859 0.325136 0
M  V30 6541 H 603.657 1.90884 0.153495 0
M  V30 6542 H 601.962 2.99857 2.52177 0
M  V30 6543 H 603.659 3.30224 2.27493 0
M  V30 6544 H 600.249 4.13947 1.11112 0
M  V30 6545 H 604.433 4.93396 0.536148 0
M  V30 6546 H 599.689 6.10892 -0.249136 0
M  V30 6547 H 603.863 6.91577 -0.818185 0
M  V30 6548 H 601.49 7.50398 -1.21684 0
M  V30 6549 N 603.065 -0.440357 1.51323 0
M  V30 6550 C 603.995 -1.54174 1.75364 0
M  V30 6551 C 604.976 -1.59039 0.603375 0
M  V30 6552 O 606.161 -1.74815 0.845774 0
M  V30 6553 C 603.291 -2.92277 1.87593 0
M  V30 6554 C 602.245 -3.02274 3.03009 0
M  V30 6555 C 601.571 -4.42327 3.00418 0
M  V30 6556 C 602.871 -2.76634 4.43024 0
M  V30 6557 H 604.565 -1.34307 2.67585 0
M  V30 6558 H 602.111 -0.644678 1.28763 0
M  V30 6559 H 604.064 -3.69284 2.02995 0
M  V30 6560 H 602.788 -3.13369 0.920179 0
M  V30 6561 H 601.447 -2.27706 2.87307 0
M  V30 6562 H 601.095 -4.60382 2.02626 0
M  V30 6563 H 600.795 -4.49946 3.77918 0
M  V30 6564 H 602.319 -5.21312 3.17909 0
M  V30 6565 H 603.733 -3.43376 4.59093 0
M  V30 6566 H 602.13 -2.95666 5.22208 0
M  V30 6567 H 603.2 -1.72262 4.5327 0
M  V30 6568 N 604.543 -1.41418 -0.695603 0
M  V30 6569 C 605.791 -1.40496 -1.45277 0
M  V30 6570 C 606.112 -0.0149538 -1.94994 0
M  V30 6571 O 605.382 0.9432 -1.71699 0
M  V30 6572 H 603.962 -0.517147 -0.539044 0
M  V30 6573 H 606.624 -1.76656 -0.823321 0
M  V30 6574 H 605.72 -2.09214 -2.31595 0
M  V30 6575 N 606.021 0.929856 -1.27246 0
M  V30 6576 C 607.269 1.674 -1.13233 0
M  V30 6577 C 607.59 1.92311 0.322744 0
M  V30 6578 O 606.86 1.52784 1.22612 0
M  V30 6579 H 605.44 0.620411 -0.416052 0
M  V30 6580 H 608.102 1.11663 -1.59741 0
M  V30 6581 H 607.198 2.64308 -1.65975 0
M  V30 6582 N 607.499 1.09233 1.13605 0
M  V30 6583 C 608.724 0.849067 1.89224 0
M  V30 6584 C 609.149 -0.593875 1.78479 0
M  V30 6585 O 608.507 -1.41703 1.13092 0
M  V30 6586 C 608.555 1.28642 3.36873 0
M  V30 6587 O 607.659 0.44363 4.10007 0
M  V30 6588 H 607 0.30767 0.588417 0
M  V30 6589 H 609.53 1.45595 1.43748 0
M  V30 6590 H 609.54 1.27096 3.87699 0
M  V30 6591 H 608.215 2.33729 3.44011 0
M  V30 6592 H 606.792 0.523241 3.69211 0
M  V30 6593 N 608.977 -1.30795 0.87923 0
M  V30 6594 C 610.223 -1.96653 0.495519 0
M  V30 6595 C 610.556 -1.69282 -0.951703 0
M  V30 6596 O 609.831 -0.994374 -1.6716 0
M  V30 6597 C 610.114 -3.51898 0.764174 0
M  V30 6598 C 609.967 -3.88808 2.2616 0
M  V30 6599 C 611.286 -4.39462 0.236825 0
M  V30 6600 H 608.405 -0.7143 0.181507 0
M  V30 6601 H 611.047 -1.54765 1.10217 0
M  V30 6602 H 609.197 -3.87709 0.247841 0
M  V30 6603 H 610.869 -3.63051 2.8459 0
M  V30 6604 H 609.112 -3.37082 2.73053 0
M  V30 6605 H 609.783 -4.97086 2.4002 0
M  V30 6606 H 612.259 -4.10528 0.678683 0
M  V30 6607 H 611.135 -5.47018 0.454176 0
M  V30 6608 H 611.396 -4.33621 -0.861683 0
M  V30 6609 N 610.455 -0.639598 -1.44038 0
M  V30 6610 C 611.385 0.0469443 -2.33453 0
M  V30 6611 C 612.366 0.82609 -1.48694 0
M  V30 6612 O 613.551 0.790285 -1.77393 0
M  V30 6613 C 610.681 1.02338 -3.3188 0
M  V30 6614 C 609.635 0.355284 -4.26523 0
M  V30 6615 C 608.961 1.44221 -5.14883 0
M  V30 6616 C 610.261 -0.743798 -5.16977 0
M  V30 6617 H 611.955 -0.699735 -2.91108 0
M  V30 6618 H 609.501 -0.337946 -1.39978 0
M  V30 6619 H 611.454 1.51247 -3.93322 0
M  V30 6620 H 610.178 1.80105 -2.72451 0
M  V30 6621 H 608.837 -0.113239 -3.66425 0
M  V30 6622 H 608.485 2.21097 -4.51802 0
M  V30 6623 H 608.185 1.00052 -5.79019 0
M  V30 6624 H 609.709 1.93295 -5.79197 0
M  V30 6625 H 611.123 -0.337444 -5.72306 0
M  V30 6626 H 609.52 -1.10914 -5.89761 0
M  V30 6627 H 610.59 -1.60745 -4.57481 0
M  V30 6628 N 611.933 1.52934 -0.380664 0
M  V30 6629 C 612.863 2.29118 0.450268 0
M  V30 6630 C 613.844 1.32153 1.07096 0
M  V30 6631 O 615.029 1.61038 1.08537 0
M  V30 6632 C 612.159 3.09161 1.58231 0
M  V30 6633 C 611.113 4.13938 1.0881 0
M  V30 6634 C 610.439 4.82153 2.31155 0
M  V30 6635 C 611.739 5.22048 0.162146 0
M  V30 6636 H 613.433 2.98826 -0.185361 0
M  V30 6637 H 610.979 1.43715 -0.0905886 0
M  V30 6638 H 612.932 3.61211 2.17036 0
M  V30 6639 H 611.656 2.3717 2.2454 0
M  V30 6640 H 610.315 3.62855 0.522633 0
M  V30 6641 H 609.963 4.06719 2.95953 0
M  V30 6642 H 609.663 5.52966 1.98752 0
M  V30 6643 H 611.187 5.37004 2.90618 0
M  V30 6644 H 612.601 5.6951 0.658126 0
M  V30 6645 H 610.998 6.00057 -0.0717122 0
M  V30 6646 H 612.068 4.78398 -0.791438 0
M  V30 6647 N 613.412 0.11024 1.57214 0
M  V30 6648 C 614.659 -0.54987 1.94891 0
M  V30 6649 C 614.987 -1.67243 0.992984 0
M  V30 6650 O 614.242 -1.95694 0.0152703 0
M  V30 6651 C 614.541 -1.13102 3.39032 0
M  V30 6652 C 614.207 -0.130713 4.5071 0
M  V30 6653 C 612.869 0.14437 4.80983 0
M  V30 6654 C 615.221 0.551472 5.18274 0
M  V30 6655 C 612.549 1.10807 5.76141 0
M  V30 6656 C 614.901 1.50375 6.14467 0
M  V30 6657 C 613.565 1.78691 6.43138 0
M  V30 6658 H 612.835 -0.201212 0.713158 0
M  V30 6659 H 615.482 0.189288 1.90562 0
M  V30 6660 H 613.787 -1.94675 3.40013 0
M  V30 6661 H 615.484 -1.64973 3.65493 0
M  V30 6662 H 612.074 -0.355301 4.27125 0
M  V30 6663 H 616.258 0.35211 4.95049 0
M  V30 6664 H 611.514 1.3343 5.96663 0
M  V30 6665 H 615.688 2.03808 6.65909 0
M  V30 6666 H 613.315 2.53522 7.1668 0
M  V30 6667 N 614.89 -1.56749 -0.16351 0
M  V30 6668 C 615.823 -1.9213 -1.23132 0
M  V30 6669 C 616.801 -0.785047 -1.42393 0
M  V30 6670 O 617.985 -1.0391 -1.57273 0
M  V30 6671 C 615.112 -2.17901 -2.59301 0
M  V30 6672 C 614.158 -3.40576 -2.5673 0
M  V30 6673 S 614.991 -4.94689 -2.05045 0
M  V30 6674 C 616.147 -5.23564 -3.42975 0
M  V30 6675 H 616.38 -2.824 -0.929383 0
M  V30 6676 H 613.913 -1.4994 -0.368418 0
M  V30 6677 H 615.871 -2.33429 -3.3767 0
M  V30 6678 H 614.532 -1.28324 -2.86691 0
M  V30 6679 H 613.725 -3.55833 -3.5693 0
M  V30 6680 H 613.327 -3.24204 -1.86462 0
M  V30 6681 H 615.619 -5.16019 -4.3901 0
M  V30 6682 H 616.562 -6.25134 -3.32586 0
M  V30 6683 H 616.97 -4.51113 -3.39348 0
M  V30 6684 N 616.368 0.432326 -1.51554 0
M  V30 6685 C 617.3 1.54357 -1.6943 0
M  V30 6686 C 618.313 1.52311 -0.574897 0
M  V30 6687 O 619.502 1.56997 -0.849369 0
M  V30 6688 C 616.602 2.93273 -1.69836 0
M  V30 6689 C 615.775 3.19768 -2.98442 0
M  V30 6690 C 614.834 4.38433 -2.90969 0
M  V30 6691 O 613.86 4.36842 -3.64908 0
M  V30 6692 N 615.062 5.42276 -2.07163 0
M  V30 6693 H 617.827 1.39426 -2.65293 0
M  V30 6694 H 615.388 0.621331 -1.49503 0
M  V30 6695 H 617.38 3.70687 -1.62399 0
M  V30 6696 H 615.95 3.01777 -0.815456 0
M  V30 6697 H 615.17 2.30607 -3.19709 0
M  V30 6698 H 616.458 3.343 -3.83563 0
M  V30 6699 H 615.856 5.46407 -1.46477 0
M  V30 6700 H 614.413 6.18524 -2.05601 0
M  V30 6701 N 617.846 1.41785 0.688094 0
M  V30 6702 C 618.776 1.47 1.8142 0
M  V30 6703 C 619.757 0.327881 1.6691 0
M  V30 6704 O 620.942 0.540362 1.86531 0
M  V30 6705 C 618.072 1.35876 3.19617 0
M  V30 6706 C 617.026 2.47976 3.48844 0
M  V30 6707 C 616.352 2.21915 4.86475 0
M  V30 6708 C 617.652 3.90309 3.47068 0
M  V30 6709 H 619.346 2.41247 1.77314 0
M  V30 6710 H 616.892 1.16116 0.851651 0
M  V30 6711 H 618.845 1.38134 3.98117 0
M  V30 6712 H 617.569 0.38116 3.24368 0
M  V30 6713 H 616.228 2.45013 2.72698 0
M  V30 6714 H 615.876 1.2248 4.8786 0
M  V30 6715 H 615.576 2.97037 5.06994 0
M  V30 6716 H 617.1 2.25901 5.67275 0
M  V30 6717 H 618.514 3.94947 4.1556 0
M  V30 6718 H 616.911 4.65175 3.7912 0
M  V30 6719 H 617.981 4.17927 2.45896 0
M  V30 6720 N 619.324 -0.923095 1.27737 0
M  V30 6721 C 620.57 -1.67375 1.14514 0
M  V30 6722 C 620.903 -1.91751 -0.307424 0
M  V30 6723 O 620.178 -1.51119 -1.22447 0
M  V30 6724 C 620.461 -3.03745 1.9342 0
M  V30 6725 C 620.314 -2.86581 3.46686 0
M  V30 6726 C 621.633 -4.04144 1.74228 0
M  V30 6727 H 618.752 -0.607427 0.417374 0
M  V30 6728 H 621.394 -1.07089 1.56946 0
M  V30 6729 H 619.544 -3.55204 1.5736 0
M  V30 6730 H 621.216 -2.42203 3.92601 0
M  V30 6731 H 619.459 -2.21829 3.72793 0
M  V30 6732 H 620.13 -3.83381 3.97143 0
M  V30 6733 H 622.606 -3.61712 2.05678 0
M  V30 6734 H 621.482 -4.97543 2.31824 0
M  V30 6735 H 621.743 -4.36661 0.691373 0
M  V30 6736 N 620.802 -1.09834 -1.13024 0
M  V30 6737 C 622.213 -0.855651 -1.65938 0
M  V30 6738 C 622.564 0.615159 -1.86307 0
M  V30 6739 O 621.689 1.47335 -1.58497 0
M  V30 6740 C 622.284 -1.5467 -3.01434 0
M  V30 6741 C 620.843 -1.35088 -3.51323 0
M  V30 6742 C 619.99 -1.6001 -2.26478 0
M  V30 6743 H 622.941 -1.25691 -0.968889 0
M  V30 6744 H 622.962 -0.982179 -3.67605 0
M  V30 6745 H 622.474 -2.61715 -2.86578 0
M  V30 6746 H 620.575 -0.30179 -3.71376 0
M  V30 6747 H 620.688 -2.0886 -4.31178 0
M  V30 6748 H 619.052 -1.02246 -2.33276 0
M  V30 6749 H 619.835 -2.68293 -2.14182 0
M  V30 6750 N 622.28 1.30327 -0.886154 0
M  V30 6751 C 623.691 1.78243 -0.555554 0
M  V30 6752 C 624.042 1.72849 0.928314 0
M  V30 6753 O 623.167 1.30607 1.72542 0
M  V30 6754 C 623.762 3.23654 -1.00168 0
M  V30 6755 C 622.321 3.69401 -0.722471 0
M  V30 6756 C 621.468 2.50753 -1.18399 0
M  V30 6757 H 624.419 1.1718 -1.07026 0
M  V30 6758 H 624.44 3.79056 -0.331152 0
M  V30 6759 H 623.952 3.27548 -2.08169 0
M  V30 6760 H 622.053 3.70995 0.345496 0
M  V30 6761 H 622.166 4.60818 -1.31085 0
M  V30 6762 H 620.53 2.47452 -0.603303 0
M  V30 6763 H 621.313 2.57383 -2.27176 0
M  V30 6764 N 623.758 0.647228 1.43697 0
M  V30 6765 C 625.035 0.0883758 1.954 0
M  V30 6766 C 625.415 -1.39006 1.58873 0
M  V30 6767 O 624.763 -2.11255 0.87083 0
M  V30 6768 C 624.973 0.328263 3.47453 0
M  V30 6769 C 626.321 0.230009 4.23977 0
M  V30 6770 O 627.345 0.260496 3.55246 0
M  V30 6771 O 626.204 0.148615 5.46298 0
M  V30 6772 H 623.298 -0.0130683 0.826897 0
M  V30 6773 H 625.844 0.72005 1.53666 0
M  V30 6774 H 624.616 1.3535 3.67146 0
M  V30 6775 H 624.239 -0.336772 3.96171 0
M  V30 6776 N 625.236 -1.5273 0.388769 0
M  V30 6777 C 626.166 -2.29353 -0.438111 0
M  V30 6778 C 627.147 -1.32719 -1.06394 0
M  V30 6779 O 628.332 -1.61612 -1.07681 0
M  V30 6780 C 625.462 -3.09995 -1.56589 0
M  V30 6781 C 624.416 -4.14509 -1.06613 0
M  V30 6782 C 623.742 -4.83372 -2.28594 0
M  V30 6783 C 625.042 -5.22127 -0.134459 0
M  V30 6784 H 626.736 -2.98723 0.201206 0
M  V30 6785 H 624.282 -1.43665 0.0982089 0
M  V30 6786 H 626.235 -3.62357 -2.15118 0
M  V30 6787 H 624.959 -2.38357 -2.23279 0
M  V30 6788 H 623.618 -3.63128 -0.503383 0
M  V30 6789 H 623.266 -4.08283 -2.93792 0
M  V30 6790 H 622.966 -5.54012 -1.95817 0
M  V30 6791 H 624.49 -5.38538 -2.87766 0
M  V30 6792 H 625.904 -5.69851 -0.627914 0
M  V30 6793 H 624.301 -6.00011 0.103534 0
M  V30 6794 H 625.371 -4.77971 0.816798 0
M  V30 6795 N 626.714 -0.118576 -1.57153 0
M  V30 6796 C 627.944 0.546466 -1.99242 0
M  V30 6797 C 628.352 1.60791 -0.997148 0
M  V30 6798 O 627.695 1.83691 0.0181745 0
M  V30 6799 C 627.757 1.23167 -3.37743 0
M  V30 6800 C 627.421 0.318226 -4.55891 0
M  V30 6801 C 628.418 -0.442988 -5.18009 0
M  V30 6802 C 626.103 0.229421 -5.01776 0
M  V30 6803 C 628.097 -1.28074 -6.244 0
M  V30 6804 C 625.784 -0.611966 -6.08028 0
M  V30 6805 C 626.782 -1.36568 -6.69207 0
M  V30 6806 O 626.47 -2.1931 -7.73407 0
M  V30 6807 H 626.202 0.149297 -0.659307 0
M  V30 6808 H 628.756 -0.201603 -2.04408 0
M  V30 6809 H 626.986 2.0268 -3.29329 0
M  V30 6810 H 628.675 1.79358 -3.64123 0
M  V30 6811 H 629.441 -0.38425 -4.83475 0
M  V30 6812 H 625.32 0.805771 -4.53903 0
M  V30 6813 H 628.864 -1.86952 -6.72082 0
M  V30 6814 H 624.761 -0.6721 -6.41991 0
M  V30 6815 H 625.529 -2.12247 -7.90502 0
M  V30 6816 N 628.193 1.56834 0.155195 0
M  V30 6817 C 629.423 1.86778 0.883044 0
M  V30 6818 C 629.831 0.703824 1.75622 0
M  V30 6819 O 629.174 -0.33581 1.80605 0
M  V30 6820 C 629.236 3.1133 1.79761 0
M  V30 6821 C 628.9 4.43504 1.10242 0
M  V30 6822 C 629.897 5.17859 0.460204 0
M  V30 6823 C 627.582 4.90233 1.09437 0
M  V30 6824 C 629.576 6.37144 -0.180782 0
M  V30 6825 C 627.263 6.09444 0.449569 0
M  V30 6826 C 628.261 6.82744 -0.186888 0
M  V30 6827 O 627.949 7.99692 -0.821486 0
M  V30 6828 H 627.681 0.62352 0.261149 0
M  V30 6829 H 630.235 2.04813 0.155204 0
M  V30 6830 H 628.465 2.89282 2.56618 0
M  V30 6831 H 630.154 3.27587 2.39669 0
M  V30 6832 H 630.92 4.8283 0.458289 0
M  V30 6833 H 626.799 4.33109 1.57917 0
M  V30 6834 H 630.343 6.94296 -0.678154 0
M  V30 6835 H 626.24 6.43936 0.449123 0
M  V30 6836 H 627.008 8.15306 -0.722337 0
M  V30 6837 N 629.671 -0.424282 1.51781 0
M  V30 6838 C 630.601 -1.52305 1.7699 0
M  V30 6839 C 631.582 -1.5839 0.620209 0
M  V30 6840 O 632.767 -1.73908 0.864268 0
M  V30 6841 C 629.897 -2.90271 1.90683 0
M  V30 6842 C 628.851 -2.99043 3.06198 0
M  V30 6843 C 628.177 -4.39116 3.05092 0
M  V30 6844 C 629.477 -2.7192 4.45934 0
M  V30 6845 H 631.171 -1.31461 2.68995 0
M  V30 6846 H 628.717 -0.630985 1.29439 0
M  V30 6847 H 630.67 -3.6711 2.06901 0
M  V30 6848 H 629.394 -3.12376 0.953365 0
M  V30 6849 H 628.053 -2.24646 2.89706 0
M  V30 6850 H 627.701 -4.58207 2.07498 0
M  V30 6851 H 627.401 -4.45912 3.82669 0
M  V30 6852 H 628.925 -5.17911 3.2342 0
M  V30 6853 H 630.339 -3.38487 4.62709 0
M  V30 6854 H 628.736 -2.90111 5.25315 0
M  V30 6855 H 629.806 -1.67445 4.55072 0
M  V30 6856 N 631.149 -1.42148 -0.680565 0
M  V30 6857 C 632.112 -1.4488 -1.77602 0
M  V30 6858 C 633.112 -0.337209 -1.57224 0
M  V30 6859 O 634.302 -0.597778 -1.63622 0
M  V30 6860 C 631.434 -1.27483 -3.16166 0
M  V30 6861 H 632.627 -2.42412 -1.76568 0
M  V30 6862 H 630.18 -1.28511 -0.889645 0
M  V30 6863 H 630.915 -0.30851 -3.22829 0
M  V30 6864 H 630.7 -2.08037 -3.3236 0
M  V30 6865 H 632.19 -1.32265 -3.96101 0
M  V30 6866 N 632.627 0.916307 -1.28225 0
M  V30 6867 C 633.855 1.69901 -1.18073 0
M  V30 6868 C 634.27 1.86988 0.260968 0
M  V30 6869 O 633.627 1.39505 1.17663 0
M  V30 6870 C 633.678 3.09254 -1.87201 0
M  V30 6871 O 633.399 2.92959 -3.2574 0
M  V30 6872 C 634.9 4.0362 -1.83319 0
M  V30 6873 H 632.12 0.531181 -0.409985 0
M  V30 6874 H 634.664 1.14703 -1.69303 0
M  V30 6875 H 632.819 3.61277 -1.39848 0
M  V30 6876 H 633.233 3.81139 -3.60324 0
M  V30 6877 H 634.707 4.98873 -2.36282 0
M  V30 6878 H 635.184 4.3176 -0.805007 0
M  V30 6879 H 635.79 3.57524 -2.3034 0
M  V30 6880 N 634.105 1.10431 1.1244 0
M  V30 6881 C 635.351 0.847972 1.84221 0
M  V30 6882 C 635.684 -0.624903 1.83871 0
M  V30 6883 O 634.959 -1.46074 1.28423 0
M  V30 6884 C 635.242 1.39695 3.319 0
M  V30 6885 C 635.095 2.93668 3.40704 0
M  V30 6886 C 636.414 1.03924 4.27654 0
M  V30 6887 H 633.533 0.309502 0.668863 0
M  V30 6888 H 636.175 1.36745 1.31912 0
M  V30 6889 H 634.325 0.955095 3.76577 0
M  V30 6890 H 635.997 3.46379 3.04662 0
M  V30 6891 H 634.24 3.30272 2.81252 0
M  V30 6892 H 634.911 3.27162 4.446 0
M  V30 6893 H 637.387 1.42049 3.91102 0
M  V30 6894 H 636.263 1.45027 5.29394 0
M  V30 6895 H 636.524 -0.051336 4.4207 0
M  V30 6896 N 635.583 -1.29855 0.893053 0
M  V30 6897 C 636.513 -2.3035 0.382249 0
M  V30 6898 C 637.494 -1.61328 -0.539203 0
M  V30 6899 O 638.679 -1.88882 -0.451342 0
M  V30 6900 C 635.809 -3.45024 -0.396983 0
M  V30 6901 C 634.763 -4.258 0.433437 0
M  V30 6902 C 634.089 -5.32605 -0.472889 0
M  V30 6903 C 635.389 -4.94549 1.67984 0
M  V30 6904 H 637.083 -2.73325 1.22205 0
M  V30 6905 H 634.629 -1.314 0.589073 0
M  V30 6906 H 636.582 -4.14398 -0.765024 0
M  V30 6907 H 635.306 -3.00875 -1.2705 0
M  V30 6908 H 633.965 -3.58125 0.783723 0
M  V30 6909 H 633.613 -4.84702 -1.34435 0
M  V30 6910 H 633.313 -5.87547 0.0789958 0
M  V30 6911 H 634.837 -6.04832 -0.837269 0
M  V30 6912 H 636.251 -5.56395 1.38192 0
M  V30 6913 H 634.648 -5.59393 2.17254 0
M  V30 6914 H 635.718 -4.20215 2.41965 0
M  V30 6915 N 637.061 -0.65484 -1.43351 0
M  V30 6916 C 638.307 -0.169142 -2.02093 0
M  V30 6917 C 638.64 1.21431 -1.51553 0
M  V30 6918 O 637.915 1.81105 -0.709317 0
M  V30 6919 C 638.198 -0.181775 -3.59641 0
M  V30 6920 C 638.051 -1.59926 -4.20409 0
M  V30 6921 C 639.37 0.480945 -4.37464 0
M  V30 6922 H 636.489 -0.0629371 -0.734308 0
M  V30 6923 H 639.131 -0.835833 -1.70628 0
M  V30 6924 H 637.281 0.385918 -3.86578 0
M  V30 6925 H 638.953 -2.21766 -4.04497 0
M  V30 6926 H 637.196 -2.14605 -3.76998 0
M  V30 6927 H 637.867 -1.55994 -5.295 0
M  V30 6928 H 640.343 -0.00208273 -4.161 0
M  V30 6929 H 639.219 0.441384 -5.47122 0
M  V30 6930 H 639.48 1.55533 -4.13838 0
M  V30 6931 N 638.539 1.52521 -0.396863 0
M  V30 6932 C 639.472 2.23118 0.478926 0
M  V30 6933 C 640.45 1.23475 1.05796 0
M  V30 6934 O 641.634 1.52486 1.10817 0
M  V30 6935 C 638.761 2.95028 1.66362 0
M  V30 6936 C 637.807 4.09002 1.20913 0
M  V30 6937 S 638.64 5.35182 0.184407 0
M  V30 6938 C 639.796 6.10616 1.37471 0
M  V30 6939 H 640.029 2.97056 -0.120542 0
M  V30 6940 H 637.562 1.53334 -0.18109 0
M  V30 6941 H 639.52 3.37066 2.34301 0
M  V30 6942 H 638.181 2.20756 2.23441 0
M  V30 6943 H 637.374 4.58445 2.09389 0
M  V30 6944 H 636.976 3.69016 0.608559 0
M  V30 6945 H 639.268 6.37247 2.30048 0
M  V30 6946 H 640.211 7.02084 0.921051 0
M  V30 6947 H 640.619 5.41499 1.59495 0
M  V30 6948 N 640.017 0.126909 1.57088 0
M  V30 6949 C 641.263 -0.529952 1.95753 0
M  V30 6950 C 641.596 -1.65823 1.01077 0
M  V30 6951 O 640.871 -1.94437 0.0494162 0
M  V30 6952 C 641.154 -1.05517 3.44294 0
M  V30 6953 C 641.007 0.0702253 4.49745 0
M  V30 6954 C 642.326 -1.9435 3.94862 0
M  V30 6955 H 639.445 -0.191168 0.711775 0
M  V30 6956 H 642.087 0.204071 1.88901 0
M  V30 6957 H 640.237 -1.68069 3.50264 0
M  V30 6958 H 641.909 0.705834 4.55868 0
M  V30 6959 H 640.152 0.732259 4.27575 0
M  V30 6960 H 640.823 -0.338642 5.5096 0
M  V30 6961 H 643.299 -1.41658 3.91244 0
M  V30 6962 H 642.175 -2.28015 4.993 0
M  V30 6963 H 642.436 -2.87299 3.36024 0
M  V30 6964 N 641.495 -1.56914 -0.146875 0
M  V30 6965 C 642.743 -1.82994 -0.85777 0
M  V30 6966 C 643.064 -0.707814 -1.817 0
M  V30 6967 O 642.334 0.270521 -1.94023 0
M  V30 6968 H 640.914 -0.675106 -0.319751 0
M  V30 6969 H 643.576 -1.9439 -0.140849 0
M  V30 6970 H 642.672 -2.77928 -1.41994 0
M  V30 6971 N 642.974 0.416227 -1.52004 0
M  V30 6972 C 643.921 1.50666 -1.74838 0
M  V30 6973 C 644.891 1.55245 -0.590599 0
M  V30 6974 O 646.076 1.71928 -0.827374 0
M  V30 6975 C 643.216 2.88185 -1.89851 0
M  V30 6976 C 642.329 2.92971 -3.17478 0
M  V30 6977 C 641.464 4.21745 -3.22962 0
M  V30 6978 C 640.503 4.20478 -4.4482 0
M  V30 6979 N 639.64 5.40811 -4.47736 0
M  V30 6980 H 644.48 1.30498 -2.67907 0
M  V30 6981 H 642.017 0.633568 -1.32757 0
M  V30 6982 H 643.975 3.68007 -1.96537 0
M  V30 6983 H 642.605 3.06865 -1.00169 0
M  V30 6984 H 641.657 2.05684 -3.19997 0
M  V30 6985 H 642.969 2.87899 -4.07328 0
M  V30 6986 H 642.123 5.09954 -3.28682 0
M  V30 6987 H 640.862 4.29503 -2.31038 0
M  V30 6988 H 639.867 3.30659 -4.39254 0
M  V30 6989 H 641.092 4.14366 -5.38031 0
M  V30 6990 H 639.038 5.4925 -3.58692 0
M  V30 6991 H 638.955 5.37705 -5.31422 0
M  V30 6992 H 640.223 6.30993 -4.57676 0
M  V30 6993 N 644.452 1.42507 0.673017 0
M  V30 6994 C 645.699 1.43072 1.43306 0
M  V30 6995 C 646.027 0.0478004 1.94441 0
M  V30 6996 O 645.282 -0.944106 1.71421 0
M  V30 6997 C 645.581 2.40351 2.64511 0
M  V30 6998 C 645.247 3.8669 2.31908 0
M  V30 6999 C 643.909 4.26551 2.22728 0
M  V30 7000 C 646.261 4.78991 2.05467 0
M  V30 7001 C 643.589 5.56691 1.85234 0
M  V30 7002 C 645.941 6.09476 1.69477 0
M  V30 7003 C 644.605 6.48334 1.58808 0
M  V30 7004 H 643.875 0.523536 0.524395 0
M  V30 7005 H 646.522 1.75459 0.76723 0
M  V30 7006 H 644.827 2.01297 3.36135 0
M  V30 7007 H 646.524 2.38051 3.22696 0
M  V30 7008 H 643.114 3.55132 2.39956 0
M  V30 7009 H 647.298 4.48982 2.11492 0
M  V30 7010 H 642.554 5.85657 1.75545 0
M  V30 7011 H 646.728 6.80482 1.48043 0
M  V30 7012 H 644.355 7.49084 1.29525 0
M  V30 7013 N 645.93 -0.909495 1.28709 0
M  V30 7014 C 647.178 -1.65577 1.15882 0
M  V30 7015 C 647.499 -1.928 -0.292108 0
M  V30 7016 O 646.769 -1.54716 -1.20166 0
M  V30 7017 H 645.349 -0.613714 0.425869 0
M  V30 7018 H 648.011 -1.09108 1.61498 0
M  V30 7019 H 647.107 -2.61634 1.70159 0
M  V30 7020 N 647.408 -1.11026 -1.11852 0
M  V30 7021 C 648.654 -0.857729 -1.83768 0
M  V30 7022 C 648.987 0.615143 -1.842 0
M  V30 7023 O 648.262 1.45391 -1.29196 0
M  V30 7024 C 648.545 -1.41453 -3.31154 0
M  V30 7025 C 648.398 -2.95471 -3.39142 0
M  V30 7026 C 649.717 -1.0619 -4.27097 0
M  V30 7027 H 646.836 -0.313044 -0.667212 0
M  V30 7028 H 649.478 -1.37443 -1.31185 0
M  V30 7029 H 647.628 -0.975052 -3.76065 0
M  V30 7030 H 649.3 -3.4799 -3.02821 0
M  V30 7031 H 647.543 -3.31759 -2.79497 0
M  V30 7032 H 648.214 -3.29515 -4.42859 0
M  V30 7033 H 650.69 -1.44122 -3.90344 0
M  V30 7034 H 649.566 -1.47832 -5.28618 0
M  V30 7035 H 649.827 0.0278912 -4.42091 0
M  V30 7036 N 648.886 1.2938 -0.899927 0
M  V30 7037 C 650.114 1.99691 -0.541386 0
M  V30 7038 C 650.529 1.67355 0.873936 0
M  V30 7039 O 649.886 0.918728 1.57688 0
M  V30 7040 C 649.937 3.54168 -0.72438 0
M  V30 7041 O 649.658 3.85359 -2.08399 0
M  V30 7042 C 651.159 4.41746 -0.370819 0
M  V30 7043 H 648.379 0.638037 -0.207726 0
M  V30 7044 H 650.923 1.6491 -1.20934 0
M  V30 7045 H 649.078 3.87261 -0.103607 0
M  V30 7046 H 649.492 4.80032 -2.11352 0
M  V30 7047 H 650.966 5.49256 -0.549693 0
M  V30 7048 H 651.443 4.33712 0.692148 0
M  V30 7049 H 652.049 4.14125 -0.968543 0
M  V30 7050 N 650.364 0.662433 1.43002 0
M  V30 7051 C 651.327 -0.0142016 2.29196 0
M  V30 7052 C 652.327 -0.741394 1.42688 0
M  V30 7053 O 653.517 -0.581257 1.64216 0
M  V30 7054 C 650.649 -1.03084 3.24941 0
M  V30 7055 H 651.842 0.7443 2.90517 0
M  V30 7056 H 649.395 0.424133 1.50435 0
M  V30 7057 H 650.13 -1.81826 2.68533 0
M  V30 7058 H 649.915 -0.512946 3.8873 0
M  V30 7059 H 651.405 -1.50308 3.89612 0
M  V30 7060 N 651.842 -1.52309 0.404946 0
M  V30 7061 C 652.805 -2.25491 -0.410651 0
M  V30 7062 C 653.805 -1.27704 -0.977154 0
M  V30 7063 O 654.995 -1.51679 -0.856691 0
M  V30 7064 C 652.127 -3.02197 -1.57765 0
M  V30 7065 H 653.32 -2.99015 0.230277 0
M  V30 7066 H 650.873 -1.55506 0.157377 0
M  V30 7067 H 651.608 -2.33013 -2.25556 0
M  V30 7068 H 651.393 -3.73987 -1.17797 0
M  V30 7069 H 652.883 -3.57719 -2.15469 0
M  V30 7070 N 653.32 -0.135238 -1.57019 0
M  V30 7071 C 654.567 0.518794 -1.95742 0
M  V30 7072 C 654.895 1.65642 -1.01947 0
M  V30 7073 O 654.15 1.95645 -0.0464016 0
M  V30 7074 C 654.449 1.07694 -3.40788 0
M  V30 7075 C 654.115 0.058992 -4.50861 0
M  V30 7076 C 652.777 -0.220872 -4.80693 0
M  V30 7077 C 655.129 -0.633856 -5.17331 0
M  V30 7078 C 652.457 -1.19959 -5.74305 0
M  V30 7079 C 654.809 -1.60131 -6.11997 0
M  V30 7080 C 653.473 -1.889 -6.40213 0
M  V30 7081 H 652.743 0.18984 -0.716269 0
M  V30 7082 H 655.39 -0.219581 -1.90237 0
M  V30 7083 H 653.695 1.89241 -3.43067 0
M  V30 7084 H 655.392 1.59137 -3.68071 0
M  V30 7085 H 651.982 0.287304 -4.27636 0
M  V30 7086 H 656.166 -0.430823 -4.94427 0
M  V30 7087 H 651.422 -1.42905 -5.94465 0
M  V30 7088 H 655.596 -2.14376 -6.62583 0
M  V30 7089 H 653.223 -2.64891 -7.12556 0
M  V30 7090 N 654.798 1.5699 0.138552 0
M  V30 7091 C 656.023 1.88344 0.86841 0
M  V30 7092 C 656.448 0.725159 1.7356 0
M  V30 7093 O 655.806 -0.324992 1.78363 0
M  V30 7094 C 655.854 3.18334 1.69398 0
M  V30 7095 O 654.958 3.02863 2.79907 0
M  V30 7096 H 654.299 0.618577 0.241367 0
M  V30 7097 H 656.829 2.04207 0.126826 0
M  V30 7098 H 656.839 3.50567 2.08726 0
M  V30 7099 H 655.514 4.02238 1.05725 0
M  V30 7100 H 654.091 2.82056 2.43924 0
M  V30 7101 N 656.276 -0.40816 1.52223 0
M  V30 7102 C 657.209 -1.51834 1.70357 0
M  V30 7103 C 658.187 -1.52973 0.551171 0
M  V30 7104 O 659.371 -1.71667 0.778642 0
M  V30 7105 C 656.498 -2.90362 1.74378 0
M  V30 7106 C 655.544 -3.0713 2.95928 0
M  V30 7107 S 656.377 -2.80342 4.56255 0
M  V30 7108 C 657.533 -4.21098 4.63063 0
M  V30 7109 H 657.766 -1.36223 2.64255 0
M  V30 7110 H 655.299 -0.599798 1.42274 0
M  V30 7111 H 657.257 -3.70199 1.77379 0
M  V30 7112 H 655.918 -3.03314 0.816063 0
M  V30 7113 H 655.111 -4.08482 2.95226 0
M  V30 7114 H 654.713 -2.3516 2.90819 0
M  V30 7115 H 657.005 -5.14749 4.40499 0
M  V30 7116 H 657.948 -4.26823 5.65002 0
M  V30 7117 H 658.356 -4.06114 3.92086 0
M  V30 7118 N 657.755 -1.42862 -0.66545 0
M  V30 7119 C 659.001 -1.44043 -1.42757 0
M  V30 7120 C 659.334 -0.0599629 -1.94107 0
M  V30 7121 O 658.609 0.917286 -1.71511 0
M  V30 7122 C 658.892 -2.47266 -2.61786 0
M  V30 7123 C 658.745 -3.94539 -2.16007 0
M  V30 7124 C 660.064 -2.47365 -3.64003 0
M  V30 7125 H 657.183 -0.524506 -0.517748 0
M  V30 7126 H 659.825 -1.74335 -0.755466 0
M  V30 7127 H 657.975 -2.21565 -3.19126 0
M  V30 7128 H 659.647 -4.31254 -1.63762 0
M  V30 7129 H 657.89 -4.07957 -1.47491 0
M  V30 7130 H 658.561 -4.62357 -3.01546 0
M  V30 7131 H 661.037 -2.70243 -3.16399 0
M  V30 7132 H 659.913 -3.21552 -4.44854 0
M  V30 7133 H 660.174 -1.50299 -4.15767 0
M  V30 7134 N 659.233 0.902656 -1.29189 0
M  V30 7135 C 660.463 1.68394 -1.19695 0
M  V30 7136 C 660.871 1.87602 0.245384 0
M  V30 7137 O 660.214 1.41084 1.17648 0
M  V30 7138 C 660.276 3.09094 -1.83578 0
M  V30 7139 C 659.94 3.1313 -3.32864 0
M  V30 7140 C 660.937 2.93497 -4.29134 0
M  V30 7141 C 658.622 3.3529 -3.74013 0
M  V30 7142 C 660.616 2.95953 -5.64527 0
M  V30 7143 C 658.303 3.37377 -5.09529 0
M  V30 7144 C 659.301 3.1773 -6.04596 0
M  V30 7145 O 658.989 3.196 -7.37639 0
M  V30 7146 H 658.721 0.532815 -0.416034 0
M  V30 7147 H 661.275 1.1374 -1.71033 0
M  V30 7148 H 659.505 3.65338 -1.26747 0
M  V30 7149 H 661.194 3.69297 -1.68447 0
M  V30 7150 H 661.96 2.76192 -3.98677 0
M  V30 7151 H 657.839 3.49623 -3.00474 0
M  V30 7152 H 661.383 2.80536 -6.38706 0
M  V30 7153 H 657.28 3.54213 -5.39633 0
M  V30 7154 H 658.048 3.35887 -7.46406 0
M  V30 7155 N 660.711 1.11618 1.11262 0
M  V30 7156 C 661.957 0.867463 1.83311 0
M  V30 7157 C 662.29 -0.605366 1.84524 0
M  V30 7158 O 661.565 -1.44704 1.29965 0
M  V30 7159 C 661.848 1.43207 3.30399 0
M  V30 7160 C 661.701 2.97265 3.3757 0
M  V30 7161 C 663.02 1.08454 4.26528 0
M  V30 7162 H 660.139 0.316578 0.665543 0
M  V30 7163 H 662.781 1.38137 1.30454 0
M  V30 7164 H 660.931 0.994982 3.75543 0
M  V30 7165 H 662.603 3.49591 3.00971 0
M  V30 7166 H 660.846 3.33237 2.77733 0
M  V30 7167 H 661.517 3.31859 4.41105 0
M  V30 7168 H 663.993 1.4619 3.89574 0
M  V30 7169 H 662.869 1.50633 5.27826 0
M  V30 7170 H 663.13 -0.00444568 4.421 0
M  V30 7171 N 662.189 -1.289 0.906776 0
M  V30 7172 C 663.419 -1.99112 0.551168 0
M  V30 7173 C 663.827 -1.67998 -0.870243 0
M  V30 7174 O 663.17 -0.92525 -1.58697 0
M  V30 7175 C 663.232 -3.53162 0.672065 0
M  V30 7176 C 662.896 -4.07849 2.06174 0
M  V30 7177 C 663.893 -4.22212 3.0337 0
M  V30 7178 C 661.578 -4.4271 2.37304 0
M  V30 7179 C 663.572 -4.70678 4.29815 0
M  V30 7180 C 661.259 -4.90871 3.6399 0
M  V30 7181 C 662.257 -5.04811 4.6006 0
M  V30 7182 O 661.945 -5.51925 5.84495 0
M  V30 7183 H 661.677 -0.642728 0.209469 0
M  V30 7184 H 664.231 -1.65234 1.22012 0
M  V30 7185 H 662.461 -3.86662 -0.05394 0
M  V30 7186 H 664.15 -4.046 0.324579 0
M  V30 7187 H 664.916 -3.9556 2.80637 0
M  V30 7188 H 660.795 -4.31114 1.63283 0
M  V30 7189 H 664.339 -4.81474 5.04806 0
M  V30 7190 H 660.236 -5.16961 3.86551 0
M  V30 7191 H 661.004 -5.70225 5.87185 0
M  V30 7192 N 663.667 -0.670007 -1.42649 0
M  V30 7193 C 664.895 -0.19854 -2.05945 0
M  V30 7194 C 665.31 1.14243 -1.50313 0
M  V30 7195 O 664.667 1.70872 -0.641027 0
M  V30 7196 C 664.718 -0.11966 -3.61302 0
M  V30 7197 O 664.439 -1.40764 -4.1487 0
M  V30 7198 C 665.94 0.375878 -4.41704 0
M  V30 7199 H 663.16 -0.0976894 -0.663851 0
M  V30 7200 H 665.704 -0.915392 -1.82868 0
M  V30 7201 H 663.859 0.547851 -3.83507 0
M  V30 7202 H 664.273 -1.27784 -5.08696 0
M  V30 7203 H 665.747 0.379988 -5.50691 0
M  V30 7204 H 666.224 1.41028 -4.15942 0
M  V30 7205 H 666.83 -0.259727 -4.24506 0
M  V30 7206 N 665.145 1.52092 -0.413018 0
M  V30 7207 C 666.108 2.25706 0.398687 0
M  V30 7208 C 667.108 1.28221 0.970368 0
M  V30 7209 O 668.298 1.52131 0.848635 0
M  V30 7210 C 665.43 3.03029 1.5616 0
M  V30 7211 H 666.623 2.98888 -0.246131 0
M  V30 7212 H 664.176 1.5542 -0.165622 0
M  V30 7213 H 664.911 2.34205 2.24317 0
M  V30 7214 H 664.696 3.74606 1.15812 0
M  V30 7215 H 666.186 3.58857 2.13569 0
M  V30 7216 N 666.623 0.143563 1.56945 0
M  V30 7217 C 667.533 -0.810562 2.20152 0
M  V30 7218 C 668.549 -1.27431 1.1848 0
M  V30 7219 O 669.725 -1.33221 1.51044 0
M  V30 7220 C 666.79 -2.03353 2.80799 0
M  V30 7221 C 665.851 -1.61936 3.97587 0
M  V30 7222 C 665.084 -2.78403 4.55332 0
M  V30 7223 O 665.307 -3.94521 4.11958 0
M  V30 7224 O 664.241 -2.54073 5.45647 0
M  V30 7225 H 668.067 -0.30253 3.02189 0
M  V30 7226 H 665.652 -0.0832925 1.49168 0
M  V30 7227 H 667.534 -2.74932 3.19359 0
M  V30 7228 H 666.209 -2.53116 2.01777 0
M  V30 7229 H 665.116 -0.873904 3.6375 0
M  V30 7230 H 666.449 -1.16892 4.78118 0
M  V30 7231 N 668.101 -1.57061 -0.130224 0
M  V30 7232 C 669.031 -2.02552 -1.16168 0
M  V30 7233 C 670.012 -0.907971 -1.4384 0
M  V30 7234 O 671.197 -1.17693 -1.54473 0
M  V30 7235 C 668.327 -2.42035 -2.49071 0
M  V30 7236 C 667.281 -3.5713 -2.35886 0
M  V30 7237 C 666.607 -3.82478 -3.7365 0
M  V30 7238 C 667.907 -4.89236 -1.8288 0
M  V30 7239 H 669.601 -2.8897 -0.783359 0
M  V30 7240 H 667.147 -1.39021 -0.375376 0
M  V30 7241 H 669.1 -2.72462 -3.21469 0
M  V30 7242 H 667.824 -1.52573 -2.88771 0
M  V30 7243 H 666.483 -3.26895 -1.65938 0
M  V30 7244 H 666.131 -2.9024 -4.10816 0
M  V30 7245 H 665.831 -4.59944 -3.65685 0
M  V30 7246 H 667.355 -4.15347 -4.47571 0
M  V30 7247 H 668.769 -5.18272 -2.45085 0
M  V30 7248 H 667.166 -5.70624 -1.85763 0
M  V30 7249 H 668.236 -4.78494 -0.785571 0
M  V30 7250 N 669.579 0.400081 -1.52437 0
M  V30 7251 C 670.809 1.16598 -1.70553 0
M  V30 7252 C 671.217 1.8451 -0.418665 0
M  V30 7253 O 670.56 1.73069 0.615855 0
M  V30 7254 C 670.622 2.26517 -2.7916 0
M  V30 7255 C 670.286 1.78666 -4.20628 0
M  V30 7256 C 671.283 1.26946 -5.04163 0
M  V30 7257 C 668.968 1.85225 -4.66902 0
M  V30 7258 C 670.962 0.824187 -6.32049 0
M  V30 7259 C 668.649 1.40309 -5.94774 0
M  V30 7260 C 669.647 0.889922 -6.77178 0
M  V30 7261 O 669.335 0.447281 -8.02655 0
M  V30 7262 H 669.067 0.356023 -0.574651 0
M  V30 7263 H 671.621 0.475598 -1.99818 0
M  V30 7264 H 669.851 2.98946 -2.45292 0
M  V30 7265 H 671.54 2.88237 -2.85787 0
M  V30 7266 H 672.306 1.21244 -4.69601 0
M  V30 7267 H 668.185 2.24111 -4.02859 0
M  V30 7268 H 671.729 0.422958 -6.96317 0
M  V30 7269 H 667.626 1.45693 -6.28843 0
M  V30 7270 H 668.394 0.569768 -8.16514 0
M  V30 7271 N 671.057 1.43213 0.657864 0
M  V30 7272 C 672.468 1.39669 1.23893 0
M  V30 7273 C 672.819 0.0984217 1.95953 0
M  V30 7274 O 671.944 -0.8023 2.00978 0
M  V30 7275 C 672.539 2.53004 2.25332 0
M  V30 7276 C 671.098 2.5274 2.78926 0
M  V30 7277 C 670.245 2.30941 1.53497 0
M  V30 7278 H 673.196 1.52181 0.450172 0
M  V30 7279 H 673.217 2.24226 3.07413 0
M  V30 7280 H 672.729 3.4748 1.72856 0
M  V30 7281 H 670.83 1.6213 3.35477 0
M  V30 7282 H 670.943 3.50352 3.26787 0
M  V30 7283 H 669.307 1.7952 1.80678 0
M  V30 7284 H 670.09 3.27496 1.02963 0
M  V30 7285 N 672.536 -0.895792 1.29666 0
M  V30 7286 C 673.764 -1.68001 1.20761 0
M  V30 7287 C 674.179 -1.87379 -0.231187 0
M  V30 7288 O 673.536 -1.41359 -1.15429 0
M  V30 7289 C 673.587 -3.06236 1.92098 0
M  V30 7290 O 673.308 -2.8774 3.30359 0
M  V30 7291 C 674.809 -4.00652 1.89717 0
M  V30 7292 H 672.029 -0.524591 0.418384 0
M  V30 7293 H 674.573 -1.11995 1.71106 0
M  V30 7294 H 672.728 -3.59007 1.45578 0
M  V30 7295 H 673.142 -3.75359 3.66342 0
M  V30 7296 H 674.616 -4.95051 2.44189 0
M  V30 7297 H 675.093 -4.30424 0.873595 0
M  V30 7298 H 675.699 -3.53815 2.35998 0
M  V30 7299 N 674.014 -1.12206 -1.10668 0
M  V30 7300 C 675.26 -0.877172 -1.82848 0
M  V30 7301 C 675.593 0.595571 -1.84842 0
M  V30 7302 O 674.868 1.44013 -1.30731 0
M  V30 7303 C 675.151 -1.44957 -3.29635 0
M  V30 7304 C 675.004 -2.99051 -3.35989 0
M  V30 7305 C 676.323 -1.10714 -4.25946 0
M  V30 7306 H 673.442 -0.320103 -0.663854 0
M  V30 7307 H 676.084 -1.38827 -1.2972 0
M  V30 7308 H 674.234 -1.01488 -3.7501 0
M  V30 7309 H 675.906 -3.51182 -2.99113 0
M  V30 7310 H 674.149 -3.34705 -2.75962 0
M  V30 7311 H 674.82 -3.34194 -4.39339 0
M  V30 7312 H 677.296 -1.48254 -3.88793 0
M  V30 7313 H 676.172 -1.5343 -5.2702 0
M  V30 7314 H 676.433 -0.019 -4.42096 0
M  V30 7315 N 675.492 1.28418 -0.913599 0
M  V30 7316 C 676.738 1.9527 -0.547484 0
M  V30 7317 C 677.071 1.71745 0.906486 0
M  V30 7318 O 676.346 1.03834 1.64465 0
M  V30 7319 C 676.629 3.49748 -0.857205 0
M  V30 7320 C 676.482 3.82675 -2.3639 0
M  V30 7321 C 677.801 4.3868 -0.353258 0
M  V30 7322 H 674.92 0.709236 -0.200381 0
M  V30 7323 H 677.562 1.51789 -1.14281 0
M  V30 7324 H 675.712 3.86915 -0.350548 0
M  V30 7325 H 677.384 3.55378 -2.94116 0
M  V30 7326 H 675.627 3.29724 -2.81894 0
M  V30 7327 H 676.298 4.90547 -2.53115 0
M  V30 7328 H 678.774 4.08584 -0.787288 0
M  V30 7329 H 677.65 5.45621 -0.599049 0
M  V30 7330 H 677.911 4.35753 0.746413 0
M  V30 7331 N 676.97 0.677563 1.42291 0
M  V30 7332 C 678.386 0.347376 1.55774 0
M  V30 7333 C 678.586 -1.14703 1.65667 0
M  V30 7334 O 677.642 -1.93252 1.62512 0
M  V30 7335 C 678.955 1.08011 2.80631 0
M  V30 7336 C 680.503 1.06271 2.94407 0
M  V30 7337 C 680.978 1.77683 4.22129 0
M  V30 7338 N 682.469 1.74564 4.29047 0
M  V30 7339 C 683.204 2.26673 5.26694 0
M  V30 7340 N 682.7 2.87176 6.30477 0
M  V30 7341 N 684.493 2.17032 5.18511 0
M  V30 7342 H 676.644 1.64703 1.34114 0
M  V30 7343 H 678.907 0.694038 0.645768 0
M  V30 7344 H 678.613 2.13518 2.79469 0
M  V30 7345 H 678.487 0.647115 3.71608 0
M  V30 7346 H 680.874 0.0159658 2.95096 0
M  V30 7347 H 680.955 1.53461 2.04654 0
M  V30 7348 H 680.599 2.82327 4.22201 0
M  V30 7349 H 680.529 1.2794 5.10822 0
M  V30 7350 H 683.02 1.30436 3.54676 0
M  V30 7351 H 683.333 3.24551 7.01346 0
M  V30 7352 H 681.678 2.91247 6.31031 0
M  V30 7353 H 684.869 1.69451 4.36353 0
M  V30 7354 H 685.042 2.57948 5.94446 0
M  V30 7355 N 678.448 -1.51871 0.421078 0
M  V30 7356 C 679.396 -2.28903 -0.413066 0
M  V30 7357 C 680.39 -1.3408 -1.03532 0
M  V30 7358 O 681.596 -1.5149 -0.972146 0
M  V30 7359 H 677.971 -0.736478 -0.152003 0
M  V30 7360 H 679.942 -2.97285 0.257695 0
M  V30 7361 C 678.691 -3.13156 -1.51091 0
M  V30 7362 H 678.014 -3.85997 -1.04145 0
M  V30 7363 H 679.454 -3.7014 -2.06814 0
M  V30 7364 C 677.913 -2.27482 -2.48503 0
M  V30 7365 O 678.443 -1.92325 -3.52667 0
M  V30 7366 N 676.649 -1.91019 -2.18998 0
M  V30 7367 H 676.196 -2.19808 -1.34322 0
M  V30 7368 H 676.154 -1.3399 -2.84419 0
M  V30 7369 N 679.926 -0.151884 -1.56866 0
M  V30 7370 C 680.859 0.824094 -2.128 0
M  V30 7371 C 681.837 1.2391 -1.05286 0
M  V30 7372 O 683.021 1.33433 -1.33146 0
M  V30 7373 C 680.148 2.1072 -2.65169 0
M  V30 7374 C 679.194 1.83774 -3.84876 0
M  V30 7375 S 680.027 1.02436 -5.25611 0
M  V30 7376 C 681.183 2.31855 -5.81373 0
M  V30 7377 H 681.416 0.348456 -2.95251 0
M  V30 7378 H 678.949 0.0624794 -1.54274 0
M  V30 7379 H 680.907 2.84428 -2.95992 0
M  V30 7380 H 679.568 2.55398 -1.8284 0
M  V30 7381 H 678.761 2.78929 -4.19779 0
M  V30 7382 H 678.363 1.18172 -3.5484 0
M  V30 7383 H 680.655 3.27469 -5.93102 0
M  V30 7384 H 681.598 2.01449 -6.7884 0
M  V30 7385 H 682.006 2.42727 -5.09651 0
M  V30 7386 N 681.404 1.57128 0.121893 0
M  V30 7387 C 682.652 1.84335 0.828548 0
M  V30 7388 C 682.973 0.736632 1.80551 0
M  V30 7389 O 682.243 -0.23962 1.94429 0
M  V30 7390 H 680.823 0.680108 0.30897 0
M  V30 7391 H 683.485 1.9459 0.109906 0
M  V30 7392 H 682.581 2.80152 1.37554 0
M  V30 7393 N 682.882 -0.391992 1.52647 0
M  V30 7394 C 684.128 -1.139 1.67793 0
M  V30 7395 C 684.461 -1.89711 0.41514 0
M  V30 7396 O 683.736 -1.85431 -0.586979 0
M  V30 7397 C 684.019 -2.11966 2.91105 0
M  V30 7398 C 683.872 -1.39939 4.27478 0
M  V30 7399 C 685.191 -3.1243 3.09961 0
M  V30 7400 H 682.31 -0.412707 0.610608 0
M  V30 7401 H 684.952 -0.422725 1.85238 0
M  V30 7402 H 683.102 -2.73048 2.76364 0
M  V30 7403 H 684.774 -0.818439 4.53982 0
M  V30 7404 H 683.017 -0.701246 4.28095 0
M  V30 7405 H 683.688 -2.1158 5.09841 0
M  V30 7406 H 686.164 -2.61435 3.23714 0
M  V30 7407 H 685.04 -3.78294 3.97725 0
M  V30 7408 H 685.301 -3.81127 2.24042 0
M  V30 7409 N 684.36 -1.4356 -0.65026 0
M  V30 7410 C 685.608 -1.45046 -1.40734 0
M  V30 7411 C 685.929 -0.0769822 -1.94848 0
M  V30 7412 O 685.199 0.888098 -1.74613 0
M  V30 7413 H 683.779 -0.534034 -0.522318 0
M  V30 7414 H 686.441 -1.79186 -0.766703 0
M  V30 7415 H 685.537 -2.16476 -2.24822 0
M  V30 7416 N 685.838 0.888903 -1.30139 0
M  V30 7417 C 687.084 1.6428 -1.18912 0
M  V30 7418 C 687.417 1.92499 0.256477 0
M  V30 7419 O 686.692 1.54312 1.18397 0
M  V30 7420 C 686.975 2.9851 -2.01405 0
M  V30 7421 C 686.828 2.77288 -3.54163 0
M  V30 7422 C 688.147 3.99383 -1.84882 0
M  V30 7423 H 685.266 0.596148 -0.433333 0
M  V30 7424 H 687.908 1.0289 -1.5973 0
M  V30 7425 H 686.058 3.50907 -1.66722 0
M  V30 7426 H 687.73 2.31709 -3.98884 0
M  V30 7427 H 685.973 2.11867 -3.78543 0
M  V30 7428 H 686.644 3.72717 -4.07168 0
M  V30 7429 H 689.12 3.56132 -2.15196 0
M  V30 7430 H 687.996 4.91222 -2.44934 0
M  V30 7431 H 688.257 4.34674 -0.806902 0
M  V30 7432 N 687.317 1.12792 1.10072 0
M  V30 7433 C 688.542 0.908838 1.86427 0
M  V30 7434 C 688.967 -0.536793 1.80278 0
M  V30 7435 O 688.325 -1.38033 1.17543 0
M  V30 7436 C 688.373 1.39295 3.3261 0
M  V30 7437 O 687.477 0.573846 4.08388 0
M  V30 7438 H 686.818 0.326234 0.578331 0
M  V30 7439 H 689.348 1.50094 1.39043 0
M  V30 7440 H 689.358 1.39366 3.83459 0
M  V30 7441 H 688.033 2.44555 3.36401 0
M  V30 7442 H 686.61 0.640438 3.67359 0
M  V30 7443 N 688.795 -1.27931 0.920396 0
M  V30 7444 C 690.02 -1.99343 0.572478 0
M  V30 7445 C 690.445 -1.68267 -0.840696 0
M  V30 7446 O 689.803 -0.918805 -1.56294 0
M  V30 7447 C 689.851 -3.51698 0.796284 0
M  V30 7448 O 688.955 -4.12157 -0.141602 0
M  V30 7449 H 688.296 -0.626065 0.221221 0
M  V30 7450 H 690.826 -1.62921 1.23765 0
M  V30 7451 H 690.836 -4.01793 0.708984 0
M  V30 7452 H 689.511 -3.73649 1.82644 0
M  V30 7453 H 688.088 -3.729 -0.005007 0
M  V30 7454 N 690.273 -0.685099 -1.4193 0
M  V30 7455 C 691.501 -0.220372 -2.05723 0
M  V30 7456 C 691.916 1.12642 -1.51516 0
M  V30 7457 O 691.273 1.70182 -0.659114 0
M  V30 7458 C 691.324 -0.157974 -3.61155 0
M  V30 7459 O 691.045 -1.45156 -4.13354 0
M  V30 7460 C 692.546 0.329009 -4.42077 0
M  V30 7461 H 689.766 -0.104725 -0.662777 0
M  V30 7462 H 692.31 -0.934736 -1.81887 0
M  V30 7463 H 690.465 0.507144 -3.84066 0
M  V30 7464 H 690.879 -1.33172 -5.07312 0
M  V30 7465 H 692.353 0.321559 -5.51063 0
M  V30 7466 H 692.83 1.36608 -4.17414 0
M  V30 7467 H 693.436 -0.304737 -4.24207 0
M  V30 7468 N 691.751 1.51645 -0.429126 0
M  V30 7469 C 692.714 2.26116 0.374726 0
M  V30 7470 C 693.714 1.29242 0.956714 0
M  V30 7471 O 694.904 1.53022 0.832452 0
M  V30 7472 C 692.036 3.04669 1.52937 0
M  V30 7473 H 693.229 2.9861 -0.277818 0
M  V30 7474 H 690.782 1.55236 -0.182097 0
M  V30 7475 H 691.517 2.36571 2.21821 0
M  V30 7476 H 691.302 3.75814 1.11833 0
M  V30 7477 H 692.792 3.61102 2.09751 0
M  V30 7478 N 693.229 0.160201 1.56784 0
M  V30 7479 C 694.454 -0.497373 2.01348 0
M  V30 7480 C 694.879 -1.56757 1.03966 0
M  V30 7481 O 694.237 -1.81292 0.0174455 0
M  V30 7482 C 694.285 -1.0628 3.44582 0
M  V30 7483 O 693.389 -2.17723 3.50244 0
M  V30 7484 H 692.73 -0.120295 0.653012 0
M  V30 7485 H 695.26 0.260821 2.02931 0
M  V30 7486 H 695.27 -1.38819 3.83658 0
M  V30 7487 H 693.945 -0.279166 4.14962 0
M  V30 7488 H 692.522 -1.86313 3.2302 0
M  V30 7489 N 694.707 -1.5719 -0.113559 0
M  V30 7490 C 696.123 -1.52607 -0.467253 0
M  V30 7491 C 696.323 -0.874058 -1.81556 0
M  V30 7492 O 695.379 -0.458703 -2.48299 0
M  V30 7493 C 696.692 -2.97363 -0.446736 0
M  V30 7494 C 698.24 -3.08482 -0.529903 0
M  V30 7495 C 698.715 -4.54809 -0.539721 0
M  V30 7496 N 700.206 -4.59284 -0.601005 0
M  V30 7497 C 700.941 -5.69927 -0.630138 0
M  V30 7498 N 700.437 -6.90051 -0.616589 0
M  V30 7499 N 702.23 -5.5805 -0.673558 0
M  V30 7500 H 694.381 -1.97958 0.769819 0
M  V30 7501 H 696.644 -0.90428 0.284572 0
M  V30 7502 H 696.35 -3.48458 0.47643 0
M  V30 7503 H 696.224 -3.55086 -1.27254 0
M  V30 7504 H 698.611 -2.57386 -1.44349 0
M  V30 7505 H 698.692 -2.53744 0.323695 0
M  V30 7506 H 698.336 -5.06552 0.369843 0
M  V30 7507 H 698.266 -5.07364 -1.41028 0
M  V30 7508 H 700.757 -3.72822 -0.617419 0
M  V30 7509 H 701.07 -7.70132 -0.641592 0
M  V30 7510 H 699.415 -6.92543 -0.583927 0
M  V30 7511 H 702.606 -4.63112 -0.681544 0
M  V30 7512 H 702.779 -6.44286 -0.692794 0
M  V30 7513 N 696.185 0.383891 -1.52853 0
M  V30 7514 C 697.115 1.47559 -1.80965 0
M  V30 7515 C 698.096 1.5669 -0.661986 0
M  V30 7516 O 699.281 1.71556 -0.910072 0
M  V30 7517 C 696.411 2.85114 -1.98312 0
M  V30 7518 C 695.365 2.9082 -3.14019 0
M  V30 7519 C 694.691 4.30873 -3.16627 0
M  V30 7520 C 695.991 2.60001 -4.52986 0
M  V30 7521 H 697.685 1.24283 -2.72386 0
M  V30 7522 H 695.231 0.596445 -1.31067 0
M  V30 7523 H 697.184 3.61496 -2.16561 0
M  V30 7524 H 695.908 3.09738 -1.03585 0
M  V30 7525 H 694.567 2.16886 -2.9556 0
M  V30 7526 H 694.215 4.52545 -2.19573 0
M  V30 7527 H 693.915 4.3561 -3.94357 0
M  V30 7528 H 695.439 5.09154 -3.37038 0
M  V30 7529 H 696.853 3.261 -4.71521 0
M  V30 7530 H 695.25 2.76081 -5.32822 0
M  V30 7531 H 696.32 1.5532 -4.59351 0
M  V30 7532 N 697.663 1.43903 0.642637 0
M  V30 7533 C 698.911 1.45791 1.39962 0
M  V30 7534 C 699.232 0.0873144 1.94804 0
M  V30 7535 O 698.502 -0.878825 1.75081 0
M  V30 7536 H 697.082 0.536797 0.519479 0
M  V30 7537 H 699.744 1.7959 0.757189 0
M  V30 7538 H 698.84 2.17665 2.2367 0
M  V30 7539 N 699.141 -0.881989 1.30609 0
M  V30 7540 C 700.366 -1.67236 1.22665 0
M  V30 7541 C 700.791 -1.8696 -0.206777 0
M  V30 7542 O 700.149 -1.4027 -1.14865 0
M  V30 7543 C 700.197 -3.02446 1.96363 0
M  V30 7544 O 699.301 -3.91614 1.29276 0
M  V30 7545 H 698.642 -0.510902 0.424117 0
M  V30 7546 H 701.172 -1.10055 1.72479 0
M  V30 7547 H 701.182 -3.52468 2.055 0
M  V30 7548 H 699.857 -2.8741 3.00613 0
M  V30 7549 H 698.434 -3.50055 1.28514 0
M  V30 7550 N 700.619 -1.13374 -1.09472 0
M  V30 7551 C 701.868 -0.889844 -1.8101 0
M  V30 7552 C 702.181 0.585686 -1.86625 0
M  V30 7553 O 703.387 0.946497 -2.54467 0
M  V30 7554 C 701.843 -1.54241 -3.25174 0
M  V30 7555 C 701.451 -3.05343 -3.27826 0
M  V30 7556 C 703.195 -1.37919 -4.0147 0
M  V30 7557 C 701.102 -3.63486 -4.6651 0
M  V30 7558 H 700.032 -0.329256 -0.678311 0
M  V30 7559 H 702.683 -1.36139 -1.23038 0
M  V30 7560 H 701.065 -0.998525 -3.83204 0
M  V30 7561 H 702.239 -3.66307 -2.79563 0
M  V30 7562 H 700.554 -3.21175 -2.65019 0
M  V30 7563 H 703.151 -1.78771 -5.03929 0
M  V30 7564 H 703.494 -0.323987 -4.15037 0
M  V30 7565 H 704.027 -1.89284 -3.49881 0
M  V30 7566 H 700.766 -4.68811 -4.58145 0
M  V30 7567 H 700.286 -3.073 -5.15099 0
M  V30 7568 H 701.965 -3.63134 -5.35484 0
M  V30 7569 N 702.098 1.27442 -0.927168 0
M  V30 7570 C 703.028 2.29256 -0.443188 0
M  V30 7571 C 704.009 1.62701 0.49624 0
M  V30 7572 O 705.194 1.90013 0.401105 0
M  V30 7573 C 702.324 3.45955 0.305366 0
M  V30 7574 C 701.278 4.24501 -0.546178 0
M  V30 7575 C 700.604 5.33671 0.331512 0
M  V30 7576 C 701.904 4.89921 -1.81037 0
M  V30 7577 H 703.598 2.69988 -1.29409 0
M  V30 7578 H 701.144 1.29792 -0.623705 0
M  V30 7579 H 703.097 4.1628 0.654885 0
M  V30 7580 H 701.821 3.04138 1.19029 0
M  V30 7581 H 700.48 3.55921 -0.878398 0
M  V30 7582 H 700.128 4.88096 1.21537 0
M  V30 7583 H 699.828 5.87131 -0.234746 0
M  V30 7584 H 701.352 6.0684 0.676614 0
M  V30 7585 H 702.766 5.52536 -1.52895 0
M  V30 7586 H 701.163 5.53436 -2.32009 0
M  V30 7587 H 702.233 4.13652 -2.53021 0
M  V30 7588 N 703.576 0.692616 1.41565 0
M  V30 7589 C 704.801 0.229776 2.06123 0
M  V30 7590 C 705.226 -1.11119 1.5177 0
M  V30 7591 O 704.584 -1.69498 0.643444 0
M  V30 7592 C 704.632 0.19469 3.60074 0
M  V30 7593 O 703.736 -0.831366 4.03933 0
M  V30 7594 H 703.077 0.113002 0.654314 0
M  V30 7595 H 705.607 0.946645 1.81383 0
M  V30 7596 H 705.617 0.0245487 4.07993 0
M  V30 7597 H 704.292 1.17339 3.99004 0
M  V30 7598 H 702.869 -0.630819 3.67526 0
M  V30 7599 N 705.054 -1.51416 0.437162 0
M  V30 7600 C 706.465 -1.86682 -0.0260005 0
M  V30 7601 C 706.816 -1.35432 -1.4196 0
M  V30 7602 O 705.941 -0.705055 -2.04592 0
M  V30 7603 C 706.536 -3.38757 -0.0539577 0
M  V30 7604 C 705.095 -3.7356 -0.461532 0
M  V30 7605 C 704.242 -2.75134 0.345924 0
M  V30 7606 H 707.193 -1.44642 0.653013 0
M  V30 7607 H 707.214 -3.70573 -0.863478 0
M  V30 7608 H 706.726 -3.76028 0.96045 0
M  V30 7609 H 704.827 -3.41878 -1.48155 0
M  V30 7610 H 704.94 -4.78737 -0.186451 0
M  V30 7611 H 703.304 -2.53947 -0.195739 0
M  V30 7612 H 704.087 -3.15247 1.35921 0
M  V30 7613 N 706.532 -0.168513 -1.56696 0
M  V30 7614 C 707.762 0.482802 -2.0088 0
M  V30 7615 C 708.17 1.57537 -1.0478 0
M  V30 7616 O 707.513 1.83656 -0.0402746 0
M  V30 7617 C 707.575 1.1236 -3.4149 0
M  V30 7618 C 707.239 0.173027 -4.56672 0
M  V30 7619 C 708.236 -0.607565 -5.16338 0
M  V30 7620 C 705.921 0.0696691 -5.02252 0
M  V30 7621 C 707.915 -1.47874 -6.2001 0
M  V30 7622 C 705.602 -0.805096 -6.05773 0
M  V30 7623 C 706.6 -1.57789 -6.64524 0
M  V30 7624 O 706.288 -2.43804 -7.66038 0
M  V30 7625 H 706.02 0.128246 -0.663723 0
M  V30 7626 H 708.574 -0.266532 -2.03663 0
M  V30 7627 H 706.804 1.921 -3.35611 0
M  V30 7628 H 708.493 1.67683 -3.69645 0
M  V30 7629 H 709.259 -0.53787 -4.82008 0
M  V30 7630 H 705.138 0.660957 -4.56237 0
M  V30 7631 H 708.682 -2.0824 -6.65794 0
M  V30 7632 H 704.579 -0.876005 -6.39528 0
M  V30 7633 H 705.347 -2.37289 -7.83349 0
M  V30 7634 N 708.01 1.57248 0.105221 0
M  V30 7635 C 709.257 1.8557 0.810552 0
M  V30 7636 C 709.585 0.755595 1.79223 0
M  V30 7637 O 708.84 -0.251788 1.94073 0
M  V30 7638 C 709.139 3.20437 1.58287 0
M  V30 7639 C 708.805 4.44716 0.744235 0
M  V30 7640 C 707.467 4.78458 0.513013 0
M  V30 7641 C 709.819 5.20953 0.160578 0
M  V30 7642 C 707.147 5.8587 -0.311894 0
M  V30 7643 C 709.499 6.29235 -0.651596 0
M  V30 7644 C 708.163 6.615 -0.893005 0
M  V30 7645 H 707.433 0.67905 0.296602 0
M  V30 7646 H 710.08 1.91363 0.0723968 0
M  V30 7647 H 708.385 3.10283 2.39232 0
M  V30 7648 H 710.082 3.39576 2.13282 0
M  V30 7649 H 706.672 4.18287 0.934555 0
M  V30 7650 H 710.856 4.95226 0.3264 0
M  V30 7651 H 706.112 6.09286 -0.508012 0
M  V30 7652 H 710.286 6.87484 -1.11077 0
M  V30 7653 H 707.913 7.44562 -1.53401 0
M  V30 7654 N 709.488 -0.375779 1.53054 0
M  V30 7655 C 710.734 -1.12114 1.68992 0
M  V30 7656 C 711.067 -1.8926 0.435238 0
M  V30 7657 O 710.342 -1.86044 -0.567278 0
M  V30 7658 C 710.625 -2.08867 2.93337 0
M  V30 7659 C 710.478 -1.35397 4.28938 0
M  V30 7660 C 711.797 -3.09124 3.13257 0
M  V30 7661 H 708.916 -0.406207 0.614951 0
M  V30 7662 H 711.558 -0.403054 1.85676 0
M  V30 7663 H 709.708 -2.70102 2.79244 0
M  V30 7664 H 711.38 -0.770242 4.54824 0
M  V30 7665 H 709.623 -0.655801 4.28814 0
M  V30 7666 H 710.294 -2.06161 5.12056 0
M  V30 7667 H 712.77 -2.57987 3.26469 0
M  V30 7668 H 711.646 -3.74054 4.01715 0
M  V30 7669 H 711.907 -3.78729 2.28072 0
M  V30 7670 N 710.966 -1.44241 -0.634997 0
M  V30 7671 C 712.196 -1.50078 -1.41987 0
M  V30 7672 C 712.604 -0.123072 -1.88799 0
M  V30 7673 O 711.947 0.880552 -1.6122 0
M  V30 7674 C 712.009 -2.40033 -2.67628 0
M  V30 7675 C 711.673 -3.87268 -2.42637 0
M  V30 7676 C 712.67 -4.77902 -2.04708 0
M  V30 7677 C 710.355 -4.31933 -2.56396 0
M  V30 7678 C 712.349 -6.11202 -1.80862 0
M  V30 7679 C 710.036 -5.65281 -2.32164 0
M  V30 7680 C 711.034 -6.54734 -1.94455 0
M  V30 7681 O 710.722 -7.85613 -1.7049 0
M  V30 7682 H 710.454 -0.51146 -0.442023 0
M  V30 7683 H 713.008 -1.89843 -0.784138 0
M  V30 7684 H 711.238 -1.95188 -3.33824 0
M  V30 7685 H 712.927 -2.36863 -3.29622 0
M  V30 7686 H 713.693 -4.44668 -1.93638 0
M  V30 7687 H 709.572 -3.62569 -2.84719 0
M  V30 7688 H 713.116 -6.80983 -1.51353 0
M  V30 7689 H 709.013 -5.98078 -2.42843 0
M  V30 7690 H 709.781 -7.97373 -1.84767 0
M  V30 7691 N 712.444 0.87505 -1.31075 0
M  V30 7692 C 713.374 1.99775 -1.20881 0
M  V30 7693 C 714.355 1.69822 -0.0971612 0
M  V30 7694 O 715.54 1.92158 -0.280895 0
M  V30 7695 C 712.67 3.35163 -0.910118 0
M  V30 7696 C 711.624 3.79406 -1.98078 0
M  V30 7697 C 710.95 5.12197 -1.53488 0
M  V30 7698 C 712.25 3.97061 -3.39323 0
M  V30 7699 H 713.944 2.08562 -2.14808 0
M  V30 7700 H 711.49 1.00207 -1.03415 0
M  V30 7701 H 713.443 4.13237 -0.825423 0
M  V30 7702 H 712.167 3.26536 0.064822 0
M  V30 7703 H 710.826 3.03568 -2.05528 0
M  V30 7704 H 710.474 5.00007 -0.547941 0
M  V30 7705 H 710.174 5.4277 -2.2511 0
M  V30 7706 H 711.698 5.92785 -1.46417 0
M  V30 7707 H 713.112 4.65545 -3.34576 0
M  V30 7708 H 711.509 4.39025 -4.09118 0
M  V30 7709 H 712.579 3.00601 -3.80483 0
M  V30 7710 N 713.922 1.13953 1.08869 0
M  V30 7711 C 715.17 0.903023 1.80803 0
M  V30 7712 C 715.491 -0.572151 1.86417 0
M  V30 7713 O 714.761 -1.41589 1.35386 0
M  V30 7714 H 713.341 0.331099 0.669614 0
M  V30 7715 H 716.003 1.43719 1.31647 0
M  V30 7716 H 715.099 1.29881 2.83791 0
M  V30 7717 N 715.4 -1.26948 0.933913 0
M  V30 7718 C 716.363 -2.24889 0.442457 0
M  V30 7719 C 717.363 -1.54594 -0.442426 0
M  V30 7720 O 718.553 -1.72502 -0.242629 0
M  V30 7721 C 715.685 -3.3896 -0.363173 0
M  V30 7722 H 716.878 -2.69879 1.30787 0
M  V30 7723 H 714.431 -1.38978 0.715187 0
M  V30 7724 H 715.166 -2.99361 -1.24714 0
M  V30 7725 H 714.951 -3.9116 0.271366 0
M  V30 7726 H 716.441 -4.11739 -0.697186 0
M  V30 7727 N 716.879 -0.700114 -1.41195 0
M  V30 7728 C 718.109 -0.241828 -2.0518 0
M  V30 7729 C 718.517 1.1157 -1.52803 0
M  V30 7730 O 717.86 1.70926 -0.673042 0
M  V30 7731 C 717.922 -0.12695 -3.59276 0
M  V30 7732 C 717.586 -1.41725 -4.34469 0
M  V30 7733 C 718.583 -2.35604 -4.63451 0
M  V30 7734 C 716.268 -1.67189 -4.73659 0
M  V30 7735 C 718.262 -3.53204 -5.3059 0
M  V30 7736 C 715.949 -2.85073 -5.40534 0
M  V30 7737 C 716.947 -3.77904 -5.68927 0
M  V30 7738 O 716.635 -4.93723 -6.34424 0
M  V30 7739 H 716.367 -0.109247 -0.667114 0
M  V30 7740 H 718.921 -0.954538 -1.81873 0
M  V30 7741 H 717.151 0.641571 -3.81341 0
M  V30 7742 H 718.84 0.294748 -4.04828 0
M  V30 7743 H 719.606 -2.1719 -4.33651 0
M  V30 7744 H 715.485 -0.957935 -4.50937 0
M  V30 7745 H 719.029 -4.25679 -5.52669 0
M  V30 7746 H 714.926 -3.03402 -5.69752 0
M  V30 7747 H 715.694 -4.93597 -6.5292 0
M  V30 7748 N 718.357 1.51182 -0.445186 0
M  V30 7749 C 719.634 1.9478 0.178965 0
M  V30 7750 C 720.014 1.38428 1.59376 0
M  V30 7751 O 719.362 0.574552 2.21159 0
M  V30 7752 C 719.572 3.48683 0.148711 0
M  V30 7753 C 720.92 4.23152 0.35042 0
M  V30 7754 O 721.944 3.55479 0.226474 0
M  V30 7755 O 720.803 5.4322 0.597893 0
M  V30 7756 H 717.897 0.817387 0.12573 0
M  V30 7757 H 720.443 1.62051 -0.503729 0
M  V30 7758 H 719.215 3.82176 -0.84009 0
M  V30 7759 H 718.838 3.87875 0.873979 0
M  V30 7760 N 719.835 0.176821 1.56605 0
M  V30 7761 C 721.251 -0.179278 1.5859 0
M  V30 7762 C 721.451 -1.62433 1.19238 0
M  V30 7763 O 720.507 -2.35665 0.906552 0
M  V30 7764 C 721.82 0.106524 3.00511 0
M  V30 7765 C 723.368 0.0451731 3.12967 0
M  V30 7766 C 723.843 0.304038 4.5699 0
M  V30 7767 N 725.334 0.252008 4.62514 0
M  V30 7768 C 726.069 0.426404 5.71812 0
M  V30 7769 N 725.565 0.660155 6.89648 0
M  V30 7770 N 727.358 0.361926 5.60934 0
M  V30 7771 H 719.509 1.12001 1.8047 0
M  V30 7772 H 721.772 0.445679 0.836704 0
M  V30 7773 H 721.478 1.10778 3.33798 0
M  V30 7774 H 721.352 -0.599337 3.72408 0
M  V30 7775 H 723.739 -0.946662 2.79504 0
M  V30 7776 H 723.82 0.78383 2.43495 0
M  V30 7777 H 723.464 1.29311 4.91163 0
M  V30 7778 H 723.394 -0.455294 5.24628 0
M  V30 7779 H 725.885 0.0772102 3.77821 0
M  V30 7780 H 726.198 0.782529 7.68828 0
M  V30 7781 H 724.543 0.696835 6.91498 0
M  V30 7782 H 727.734 0.17986 4.67754 0
M  V30 7783 H 727.907 0.501263 6.46058 0
M  V30 7784 N 721.313 -1.57302 -0.09688 0
M  V30 7785 C 722.56 -1.85997 -0.800699 0
M  V30 7786 C 722.888 -0.765089 -1.7882 0
M  V30 7787 O 722.143 0.241492 -1.94204 0
M  V30 7788 C 722.442 -3.21272 -1.56586 0
M  V30 7789 C 722.108 -4.45104 -0.72064 0
M  V30 7790 C 720.77 -4.78723 -0.487632 0
M  V30 7791 C 723.122 -5.2103 -0.132948 0
M  V30 7792 C 720.45 -5.85697 0.34296 0
M  V30 7793 C 722.802 -6.28881 0.684957 0
M  V30 7794 C 721.466 -6.61017 0.928073 0
M  V30 7795 H 720.736 -0.680613 -0.292997 0
M  V30 7796 H 723.383 -1.91399 -0.0622474 0
M  V30 7797 H 721.688 -3.11547 -2.37583 0
M  V30 7798 H 723.385 -3.40702 -2.11478 0
M  V30 7799 H 719.975 -4.18777 -0.912359 0
M  V30 7800 H 724.159 -4.95392 -0.300132 0
M  V30 7801 H 719.415 -6.09008 0.540317 0
M  V30 7802 H 723.589 -6.86886 1.14721 0
M  V30 7803 H 721.216 -7.43738 1.57348 0
M  V30 7804 N 722.791 0.367657 -1.53252 0
M  V30 7805 C 723.721 1.45632 -1.8252 0
M  V30 7806 C 724.702 1.55979 -0.678568 0
M  V30 7807 O 725.887 1.70581 -0.928217 0
M  V30 7808 C 723.017 2.82994 -2.01325 0
M  V30 7809 C 721.971 2.87473 -3.17086 0
M  V30 7810 C 721.297 4.2749 -3.21179 0
M  V30 7811 C 722.597 2.55182 -4.55719 0
M  V30 7812 H 724.291 1.21387 -2.73689 0
M  V30 7813 H 721.837 0.58251 -1.31692 0
M  V30 7814 H 723.79 3.59179 -2.20383 0
M  V30 7815 H 722.514 3.08622 -1.06864 0
M  V30 7816 H 721.173 2.13739 -2.97844 0
M  V30 7817 H 720.821 4.5019 -2.24361 0
M  V30 7818 H 720.521 4.31403 -3.98955 0
M  V30 7819 H 722.045 5.0555 -3.42419 0
M  V30 7820 H 723.459 3.21081 -4.74953 0
M  V30 7821 H 721.856 2.70414 -5.3572 0
M  V30 7822 H 722.926 1.5044 -4.60973 0
M  V30 7823 N 724.269 1.44576 0.627338 0
M  V30 7824 C 725.68 1.42266 1.20902 0
M  V30 7825 C 726.031 0.139964 1.957 0
M  V30 7826 O 725.156 -0.759489 2.02634 0
M  V30 7827 C 725.751 2.57727 2.19914 0
M  V30 7828 C 724.31 2.58599 2.73502 0
M  V30 7829 C 723.457 2.34145 1.48564 0
M  V30 7830 H 726.408 1.53102 0.417791 0
M  V30 7831 H 726.429 2.30697 3.02588 0
M  V30 7832 H 725.941 3.51068 1.65447 0
M  V30 7833 H 724.042 1.6921 3.31962 0
M  V30 7834 H 724.155 3.57205 3.19282 0
M  V30 7835 H 722.519 1.83313 1.76829 0
M  V30 7836 H 723.302 3.29606 0.959935 0
M  V30 7837 N 725.747 -0.868086 1.31537 0
M  V30 7838 C 726.977 -1.65162 1.24118 0
M  V30 7839 C 727.385 -1.88187 -0.195558 0
M  V30 7840 O 726.728 -1.44154 -1.13866 0
M  V30 7841 C 726.79 -3.04119 1.91708 0
M  V30 7842 C 726.454 -3.04194 3.4105 0
M  V30 7843 C 727.451 -2.82016 4.36764 0
M  V30 7844 C 725.136 -3.25256 3.82772 0
M  V30 7845 C 727.13 -2.80881 5.72175 0
M  V30 7846 C 724.817 -3.23749 5.18295 0
M  V30 7847 C 725.815 -3.01589 6.12808 0
M  V30 7848 O 725.503 -2.9993 7.45853 0
M  V30 7849 H 725.235 -0.521597 0.430015 0
M  V30 7850 H 727.789 -1.09165 1.73989 0
M  V30 7851 H 726.019 -3.61849 1.36389 0
M  V30 7852 H 727.708 -3.64701 1.78179 0
M  V30 7853 H 728.474 -2.65525 4.05859 0
M  V30 7854 H 724.353 -3.41534 3.09638 0
M  V30 7855 H 727.897 -2.63503 6.45919 0
M  V30 7856 H 723.794 -3.39781 5.48834 0
M  V30 7857 H 724.562 -3.15979 7.55049 0
M  V30 7858 N 727.225 -1.14528 -1.08264 0
M  V30 7859 C 728.474 -0.908992 -1.80056 0
M  V30 7860 C 728.787 0.565859 -1.87236 0
M  V30 7861 O 729.993 0.919454 -2.55457 0
M  V30 7862 C 728.449 -1.57681 -3.23519 0
M  V30 7863 C 728.057 -3.08803 -3.24569 0
M  V30 7864 C 729.801 -1.4217 -3.99985 0
M  V30 7865 C 727.708 -3.68414 -4.62629 0
M  V30 7866 H 726.638 -0.336432 -0.674781 0
M  V30 7867 H 729.289 -1.37437 -1.21587 0
M  V30 7868 H 727.671 -1.03911 -3.82124 0
M  V30 7869 H 728.845 -3.69252 -2.75663 0
M  V30 7870 H 727.16 -3.23968 -2.61598 0
M  V30 7871 H 729.757 -1.84106 -5.02005 0
M  V30 7872 H 730.1 -0.367989 -4.1467 0
M  V30 7873 H 730.633 -1.92984 -3.47853 0
M  V30 7874 H 727.372 -4.73644 -4.53147 0
M  V30 7875 H 726.892 -3.12746 -5.11811 0
M  V30 7876 H 728.571 -3.68793 -5.31602 0
M  V30 7877 N 728.703 1.26451 -0.940633 0
M  V30 7878 C 729.633 2.28773 -0.467479 0
M  V30 7879 C 730.614 1.63218 0.478955 0
M  V30 7880 O 731.799 1.90427 0.380929 0
M  V30 7881 C 728.929 3.46259 0.268656 0
M  V30 7882 C 727.883 4.23898 -0.591171 0
M  V30 7883 C 727.209 5.33993 0.274891 0
M  V30 7884 C 728.509 4.87974 -1.86223 0
M  V30 7885 H 730.203 2.68601 -1.32265 0
M  V30 7886 H 727.749 1.29123 -0.637436 0
M  V30 7887 H 729.702 4.16951 0.610696 0
M  V30 7888 H 728.426 3.05383 1.15796 0
M  V30 7889 H 727.085 3.54969 -0.916098 0
M  V30 7890 H 726.733 4.89358 1.16353 0
M  V30 7891 H 726.433 5.86849 -0.297006 0
M  V30 7892 H 727.957 6.07523 0.612213 0
M  V30 7893 H 729.371 5.50883 -1.58747 0
M  V30 7894 H 727.768 5.50945 -2.37866 0
M  V30 7895 H 728.838 4.10945 -2.57394 0
M  V30 7896 N 730.181 0.707592 1.40822 0
M  V30 7897 C 731.114 -0.000859377 2.282 0
M  V30 7898 C 732.092 -0.7758 1.42899 0
M  V30 7899 O 733.276 -0.76411 1.72318 0
M  V30 7900 C 730.403 -1.00861 3.23334 0
M  V30 7901 C 729.449 -0.32543 4.25257 0
M  V30 7902 S 730.282 0.940908 5.27169 0
M  V30 7903 C 731.438 -0.0649459 6.25866 0
M  V30 7904 H 731.671 0.740207 2.87938 0
M  V30 7905 H 729.204 0.498311 1.46138 0
M  V30 7906 H 731.162 -1.58485 3.78672 0
M  V30 7907 H 729.823 -1.72233 2.62668 0
M  V30 7908 H 729.016 -1.08697 4.92139 0
M  V30 7909 H 728.618 0.178044 3.73576 0
M  V30 7910 H 730.91 -0.914377 6.71301 0
M  V30 7911 H 731.853 0.570276 7.058 0
M  V30 7912 H 732.261 -0.425098 5.62897 0
M  V30 7913 N 731.66 -1.50943 0.453197 0
M  V30 7914 C 732.908 -2.01813 -0.107709 0
M  V30 7915 C 733.229 -1.33841 -1.41816 0
M  V30 7916 O 732.499 -0.477973 -1.8998 0
M  V30 7917 H 731.079 -0.745773 -0.0427948 0
M  V30 7918 H 733.741 -1.8545 0.599531 0
M  V30 7919 H 732.837 -3.10911 -0.27218 0
M  V30 7920 N 733.138 -0.185124 -1.56509 0
M  V30 7921 C 734.363 0.465278 -2.02114 0
M  V30 7922 C 734.788 1.55083 -1.06447 0
M  V30 7923 O 734.146 1.81241 -0.0462852 0
M  V30 7924 C 734.194 1.00784 -3.46229 0
M  V30 7925 O 733.298 2.12123 -3.53663 0
M  V30 7926 H 732.639 0.109891 -0.654843 0
M  V30 7927 H 735.169 -0.293072 -2.0249 0
M  V30 7928 H 735.179 1.32697 -3.85818 0
M  V30 7929 H 733.854 0.213113 -4.15354 0
M  V30 7930 H 732.431 1.8115 -3.25943 0
M  V30 7931 N 734.616 1.57351 0.0885366 0
M  V30 7932 C 735.546 2.05561 1.10757 0
M  V30 7933 C 736.527 0.945789 1.41382 0
M  V30 7934 O 737.712 1.21747 1.51299 0
M  V30 7935 C 734.842 2.48554 2.42566 0
M  V30 7936 C 733.796 3.63259 2.26334 0
M  V30 7937 C 733.122 3.9225 3.63378 0
M  V30 7938 C 734.422 4.93913 1.69844 0
M  V30 7939 H 736.116 2.90946 0.706468 0
M  V30 7940 H 733.662 1.39968 0.338385 0
M  V30 7941 H 735.615 2.8089 3.14132 0
M  V30 7942 H 734.339 1.60176 2.84625 0
M  V30 7943 H 732.998 3.31179 1.57213 0
M  V30 7944 H 732.646 3.0103 4.02976 0
M  V30 7945 H 732.346 4.69478 3.53362 0
M  V30 7946 H 733.87 4.27067 4.36401 0
M  V30 7947 H 735.284 5.24588 2.31258 0
M  V30 7948 H 733.681 5.75349 1.70569 0
M  V30 7949 H 734.751 4.80409 0.65843 0
M  V30 7950 N 736.094 -0.359525 1.53444 0
M  V30 7951 C 737.322 -1.12198 1.73837 0
M  V30 7952 C 737.737 -1.82854 0.470107 0
M  V30 7953 O 737.094 -1.73781 -0.557349 0
M  V30 7954 C 737.145 -2.14769 2.90786 0
M  V30 7955 O 736.866 -1.46989 4.12706 0
M  V30 7956 C 738.367 -3.03514 3.231 0
M  V30 7957 H 735.587 -0.33524 0.581253 0
M  V30 7958 H 738.131 -0.416598 2.00212 0
M  V30 7959 H 736.286 -2.80896 2.66788 0
M  V30 7960 H 736.7 -2.15378 4.78239 0
M  V30 7961 H 738.174 -3.71453 4.08322 0
M  V30 7962 H 738.651 -3.68658 2.38721 0
M  V30 7963 H 739.257 -2.42996 3.49046 0
M  V30 7964 N 737.572 -1.44907 -0.619662 0
M  V30 7965 C 738.821 -1.47569 -1.37501 0
M  V30 7966 C 739.134 -0.116707 -1.95252 0
M  V30 7967 O 740.34 -0.020909 -2.71492 0
M  V30 7968 C 738.796 -2.59851 -2.49009 0
M  V30 7969 C 738.404 -4.02008 -1.97722 0
M  V30 7970 C 740.148 -2.71746 -3.2612 0
M  V30 7971 C 738.055 -5.05693 -3.0664 0
M  V30 7972 H 736.985 -0.549068 -0.51676 0
M  V30 7973 H 739.636 -1.71009 -0.665437 0
M  V30 7974 H 738.018 -2.29671 -3.22594 0
M  V30 7975 H 739.192 -4.41809 -1.30925 0
M  V30 7976 H 737.507 -3.94456 -1.33392 0
M  V30 7977 H 740.104 -3.46382 -4.07337 0
M  V30 7978 H 740.447 -1.77959 -3.76346 0
M  V30 7979 H 740.98 -3.01392 -2.5963 0
M  V30 7980 H 737.719 -6.01148 -2.61345 0
M  V30 7981 H 737.239 -4.70473 -3.72042 0
M  V30 7982 H 738.918 -5.29906 -3.71226 0
M  V30 7983 N 739.05 0.861098 -1.31996 0
M  V30 7984 C 739.98 1.98482 -1.22993 0
M  V30 7985 C 740.961 1.6971 -0.115168 0
M  V30 7986 O 742.146 1.91849 -0.30126 0
M  V30 7987 C 739.276 3.34179 -0.945615 0
M  V30 7988 C 738.23 3.77284 -2.02091 0
M  V30 7989 C 737.556 5.1054 -1.58912 0
M  V30 7990 C 738.856 3.93439 -3.43515 0
M  V30 7991 H 740.55 2.06271 -2.17008 0
M  V30 7992 H 738.096 0.991043 -1.04472 0
M  V30 7993 H 740.049 4.12338 -0.869206 0
M  V30 7994 H 738.773 3.26586 0.0301849 0
M  V30 7995 H 737.432 3.01371 -2.08737 0
M  V30 7996 H 737.08 4.99397 -0.600942 0
M  V30 7997 H 736.78 5.40352 -2.30854 0
M  V30 7998 H 738.304 5.91199 -1.52696 0
M  V30 7999 H 739.718 4.6197 -3.39495 0
M  V30 8000 H 738.115 4.34661 -4.13751 0
M  V30 8001 H 739.185 2.96548 -3.8365 0
M  V30 8002 N 740.528 1.15101 1.07655 0
M  V30 8003 C 741.756 0.947731 1.83918 0
M  V30 8004 C 742.171 -0.503927 1.81951 0
M  V30 8005 O 741.528 -1.34941 1.2287 0
M  V30 8006 C 741.579 1.4503 3.31132 0
M  V30 8007 O 741.3 2.84508 3.33146 0
M  V30 8008 C 742.801 1.28806 4.24174 0
M  V30 8009 H 740.021 0.336786 0.580358 0
M  V30 8010 H 742.565 1.52799 1.35914 0
M  V30 8011 H 740.72 0.912632 3.76497 0
M  V30 8012 H 741.134 3.0723 4.251 0
M  V30 8013 H 742.608 1.6882 5.25551 0
M  V30 8014 H 743.085 0.231851 4.38588 0
M  V30 8015 H 743.691 1.81465 3.84643 0
M  V30 8016 N 742.006 -1.2595 0.947325 0
M  V30 8017 C 742.969 -2.24407 0.466285 0
M  V30 8018 C 743.969 -1.55054 -0.426005 0
M  V30 8019 O 745.159 -1.7275 -0.224319 0
M  V30 8020 C 742.291 -3.39326 -0.327201 0
M  V30 8021 H 743.484 -2.68477 1.33642 0
M  V30 8022 H 741.037 -1.38211 0.729887 0
M  V30 8023 H 741.772 -3.00667 -1.21532 0
M  V30 8024 H 741.557 -3.9085 0.312839 0
M  V30 8025 H 743.047 -4.12455 -0.653477 0
M  V30 8026 N 743.484 -0.715051 -1.40445 0
M  V30 8027 C 744.733 -0.251322 -2.00128 0
M  V30 8028 C 745.046 1.16194 -1.57347 0
M  V30 8029 O 746.252 1.72416 -2.09726 0
M  V30 8030 C 744.708 -0.398407 -3.57688 0
M  V30 8031 C 744.316 -1.81828 -4.09442 0
M  V30 8032 C 746.06 0.00455625 -4.245 0
M  V30 8033 C 743.967 -1.91598 -5.59503 0
M  V30 8034 H 742.897 -0.0902081 -0.748584 0
M  V30 8035 H 745.548 -0.886062 -1.6069 0
M  V30 8036 H 743.93 0.304908 -3.94824 0
M  V30 8037 H 745.104 -2.55193 -3.83684 0
M  V30 8038 H 743.419 -2.17266 -3.55225 0
M  V30 8039 H 746.016 -0.0477303 -5.34679 0
M  V30 8040 H 746.359 1.04636 -4.02935 0
M  V30 8041 H 746.892 -0.649184 -3.92467 0
M  V30 8042 H 743.631 -2.93898 -5.85922 0
M  V30 8043 H 743.151 -1.22644 -5.87127 0
M  V30 8044 H 744.83 -1.68785 -6.24596 0
M  V30 8045 N 744.962 1.50701 -0.461195 0
M  V30 8046 C 745.892 2.31182 0.328184 0
M  V30 8047 C 746.873 1.37644 0.999408 0
M  V30 8048 O 748.058 1.66565 0.99848 0
M  V30 8049 C 745.188 3.17113 1.41621 0
M  V30 8050 C 744.142 4.19124 0.867148 0
M  V30 8051 C 743.468 4.93728 2.05272 0
M  V30 8052 C 744.768 5.22174 -0.114808 0
M  V30 8053 H 746.462 2.97423 -0.343501 0
M  V30 8054 H 744.008 1.43033 -0.166641 0
M  V30 8055 H 745.961 3.72208 1.97584 0
M  V30 8056 H 744.685 2.48739 2.11652 0
M  V30 8057 H 743.344 3.65116 0.329557 0
M  V30 8058 H 742.992 4.21835 2.73978 0
M  V30 8059 H 742.692 5.62724 1.69161 0
M  V30 8060 H 744.216 5.51654 2.61744 0
M  V30 8061 H 745.63 5.72198 0.355316 0
M  V30 8062 H 744.027 5.98833 -0.389689 0
M  V30 8063 H 745.097 4.7353 -1.04391 0
M  V30 8064 N 746.441 0.193421 1.56409 0
M  V30 8065 C 747.669 -0.451438 2.01915 0
M  V30 8066 C 748.084 -1.55306 1.07357 0
M  V30 8067 O 747.441 -1.82333 0.0781512 0
M  V30 8068 C 747.492 -1.00931 3.47124 0
M  V30 8069 O 747.213 0.0483623 4.38073 0
M  V30 8070 C 748.714 -1.73021 4.0814 0
M  V30 8071 H 745.934 -0.113495 0.661332 0
M  V30 8072 H 748.478 0.301636 2.02263 0
M  V30 8073 H 746.633 -1.71277 3.47481 0
M  V30 8074 H 747.047 -0.366644 5.23217 0
M  V30 8075 H 748.521 -2.07289 5.11601 0
M  V30 8076 H 748.998 -2.6333 3.51502 0
M  V30 8077 H 749.604 -1.07264 4.11551 0
M  V30 8078 N 747.919 -1.57396 -0.0801906 0
M  V30 8079 C 748.849 -2.06145 -1.09665 0
M  V30 8080 C 749.83 -0.953273 -1.40878 0
M  V30 8081 O 751.015 -1.22548 -1.50651 0
M  V30 8082 C 748.145 -2.49836 -2.41245 0
M  V30 8083 C 747.099 -3.64454 -2.24405 0
M  V30 8084 C 746.425 -3.94172 -3.61293 0
M  V30 8085 C 747.725 -4.94807 -1.67223 0
M  V30 8086 H 749.419 -2.91316 -0.691028 0
M  V30 8087 H 746.965 -1.40145 -0.330957 0
M  V30 8088 H 748.918 -2.82552 -3.12638 0
M  V30 8089 H 747.642 -1.61683 -2.83771 0
M  V30 8090 H 746.301 -3.32008 -1.55454 0
M  V30 8091 H 745.949 -3.03163 -4.01374 0
M  V30 8092 H 745.649 -4.71345 -3.50867 0
M  V30 8093 H 747.173 -4.29376 -4.3413 0
M  V30 8094 H 748.587 -5.25807 -2.28472 0
M  V30 8095 H 746.984 -5.76245 -1.67515 0
M  V30 8096 H 748.054 -4.80751 -0.632944 0
M  V30 8097 N 749.397 0.351382 -1.53633 0
M  V30 8098 C 750.644 1.0925 -1.70502 0
M  V30 8099 C 750.972 1.88881 -0.464123 0
M  V30 8100 O 750.227 1.87693 0.554077 0
M  V30 8101 C 750.526 2.06744 -2.91533 0
M  V30 8102 C 750.192 1.43484 -4.27461 0
M  V30 8103 C 748.854 1.2596 -4.64422 0
M  V30 8104 C 751.206 0.978436 -5.11934 0
M  V30 8105 C 748.534 0.614017 -5.83478 0
M  V30 8106 C 750.886 0.346795 -6.31649 0
M  V30 8107 C 749.55 0.15917 -6.6731 0
M  V30 8108 H 748.82 0.399773 -0.623909 0
M  V30 8109 H 751.467 0.372656 -1.87839 0
M  V30 8110 H 749.772 2.85082 -2.68767 0
M  V30 8111 H 751.469 2.64066 -3.01778 0
M  V30 8112 H 748.059 1.5812 -3.98367 0
M  V30 8113 H 752.243 1.1017 -4.83918 0
M  V30 8114 H 747.499 0.457194 -6.09688 0
M  V30 8115 H 751.673 -0.0149864 -6.96398 0
M  V30 8116 H 749.3 -0.343129 -7.59425 0
M  V30 8117 N 750.875 1.45233 0.611969 0
M  V30 8118 C 751.805 1.5641 1.73373 0
M  V30 8119 C 752.786 0.415896 1.64937 0
M  V30 8120 O 753.971 0.638478 1.83404 0
M  V30 8121 C 751.101 1.52627 3.11965 0
M  V30 8122 C 750.055 2.66119 3.35208 0
M  V30 8123 C 749.381 2.4739 4.74028 0
M  V30 8124 C 750.681 4.08157 3.25891 0
M  V30 8125 H 752.375 2.50307 1.64277 0
M  V30 8126 H 749.921 1.20467 0.788904 0
M  V30 8127 H 751.874 1.59043 3.90235 0
M  V30 8128 H 750.598 0.552564 3.21892 0
M  V30 8129 H 749.257 2.59123 2.59327 0
M  V30 8130 H 748.905 1.48168 4.80682 0
M  V30 8131 H 748.605 3.23494 4.90536 0
M  V30 8132 H 750.129 2.55653 5.54503 0
M  V30 8133 H 751.543 4.1642 3.9404 0
M  V30 8134 H 749.94 4.84617 3.5393 0
M  V30 8135 H 751.01 4.30374 2.23397 0
M  V30 8136 N 752.353 -0.854086 1.3245 0
M  V30 8137 C 753.764 -1.42427 1.20712 0
M  V30 8138 C 754.115 -1.95371 -0.18013 0
M  V30 8139 O 753.24 -1.87587 -1.07889 0
M  V30 8140 C 753.835 -2.58897 2.18536 0
M  V30 8141 C 752.394 -3.11913 2.10683 0
M  V30 8142 C 751.541 -1.84661 2.06871 0
M  V30 8143 H 754.492 -0.661192 1.4427 0
M  V30 8144 H 754.513 -3.36074 1.78422 0
M  V30 8145 H 754.025 -2.20333 3.19492 0
M  V30 8146 H 752.126 -3.55059 1.12977 0
M  V30 8147 H 752.239 -3.73119 3.00532 0
M  V30 8148 H 750.603 -2.04285 1.52118 0
M  V30 8149 H 751.386 -1.48314 3.09609 0
M  V30 8150 N 753.831 -1.1567 -1.07043 0
M  V30 8151 C 754.741 -0.870435 -2.17855 0
M  V30 8152 C 755.757 0.154452 -1.73313 0
M  V30 8153 O 756.933 -0.0203759 -2.0139 0
M  V30 8154 C 753.998 -0.367219 -3.4475 0
M  V30 8155 C 753.059 -1.45639 -4.03841 0
M  V30 8156 C 752.292 -0.977092 -5.2468 0
M  V30 8157 O 752.515 0.176127 -5.70128 0
M  V30 8158 O 751.449 -1.76215 -5.75527 0
M  V30 8159 H 755.275 -1.79687 -2.44839 0
M  V30 8160 H 752.86 -0.936064 -1.1644 0
M  V30 8161 H 754.742 -0.0931947 -4.21297 0
M  V30 8162 H 753.417 0.53131 -3.1931 0
M  V30 8163 H 752.324 -1.78406 -3.28819 0
M  V30 8164 H 753.657 -2.32995 -4.3356 0
M  V30 8165 N 755.309 1.25446 -0.953992 0
M  V30 8166 C 756.534 1.97755 -0.625129 0
M  V30 8167 C 756.959 1.70437 0.795787 0
M  V30 8168 O 756.317 0.95992 1.53803 0
M  V30 8169 C 756.365 3.49463 -0.889251 0
M  V30 8170 O 755.469 4.12387 0.0322757 0
M  V30 8171 H 754.81 0.61998 -0.237742 0
M  V30 8172 H 757.34 1.59582 -1.28041 0
M  V30 8173 H 757.35 3.99772 -0.815263 0
M  V30 8174 H 756.025 3.68676 -1.92487 0
M  V30 8175 H 754.602 3.72782 -0.0938625 0
M  V30 8176 N 756.787 0.722489 1.40064 0
M  V30 8177 C 758.034 0.264979 2.00759 0
M  V30 8178 C 758.362 -1.14395 1.57302 0
M  V30 8179 O 757.617 -1.79165 0.787298 0
M  V30 8180 C 757.916 0.300682 3.56133 0
M  V30 8181 C 757.582 1.66087 4.19197 0
M  V30 8182 C 756.244 2.03319 4.36136 0
M  V30 8183 C 758.596 2.55452 4.54306 0
M  V30 8184 C 755.924 3.29448 4.8547 0
M  V30 8185 C 758.276 3.8094 5.05042 0
M  V30 8186 C 756.94 4.1828 5.2019 0
M  V30 8187 H 756.21 0.0969625 0.734629 0
M  V30 8188 H 758.857 0.926877 1.67575 0
M  V30 8189 H 757.162 -0.44479 3.89267 0
M  V30 8190 H 758.859 -0.0712542 4.00937 0
M  V30 8191 H 755.449 1.36137 4.06405 0
M  V30 8192 H 759.633 2.27961 4.40849 0
M  V30 8193 H 754.889 3.58338 4.95382 0
M  V30 8194 H 759.063 4.50351 5.31184 0
M  V30 8195 H 756.69 5.16081 5.58179 0
M  V30 8196 N 758.265 -1.50454 0.469181 0
M  V30 8197 C 759.513 -2.01916 -0.0862982 0
M  V30 8198 C 759.834 -1.35337 -1.40388 0
M  V30 8199 O 759.104 -0.498096 -1.89462 0
M  V30 8200 H 757.684 -0.746185 -0.0348825 0
M  V30 8201 H 760.346 -1.84804 0.619167 0
M  V30 8202 H 759.442 -3.11182 -0.239189 0
M  V30 8203 N 759.743 -0.201713 -1.56304 0
M  V30 8204 C 760.971 0.440723 -2.02152 0
M  V30 8205 C 761.386 1.54735 -1.08179 0
M  V30 8206 O 760.743 1.82289 -0.0878196 0
M  V30 8207 C 760.794 0.990884 -3.47655 0
M  V30 8208 O 760.515 -0.0715937 -4.38041 0
M  V30 8209 C 762.016 1.70854 -4.09052 0
M  V30 8210 H 759.236 0.109987 -0.661924 0
M  V30 8211 H 761.78 -0.312358 -2.021 0
M  V30 8212 H 759.935 1.69432 -3.48384 0
M  V30 8213 H 760.349 0.338892 -5.23404 0
M  V30 8214 H 761.823 2.04572 -5.12693 0
M  V30 8215 H 762.3 2.61462 -3.52894 0
M  V30 8216 H 762.906 1.0508 -4.12114 0
M  V30 8217 N 761.222 1.57436 0.0718424 0
M  V30 8218 C 762.633 1.75975 0.623678 0
M  V30 8219 C 762.984 0.827155 1.77912 0
M  V30 8220 O 762.109 0.0112425 2.16397 0
M  V30 8221 C 762.704 3.1911 1.13816 0
M  V30 8222 C 761.263 3.38994 1.63586 0
M  V30 8223 C 760.41 2.71684 0.555261 0
M  V30 8224 H 763.361 1.57948 -0.154328 0
M  V30 8225 H 763.382 3.23267 2.00696 0
M  V30 8226 H 762.894 3.86962 0.296998 0
M  V30 8227 H 760.995 2.76256 2.50027 0
M  V30 8228 H 761.108 4.47436 1.71283 0
M  V30 8229 H 759.472 2.34236 1.00029 0
M  V30 8230 H 760.255 3.42191 -0.275712 0
M  V30 8231 N 762.7 -0.34323 1.53817 0
M  V30 8232 C 763.63 -1.42709 1.84814 0
M  V30 8233 C 764.611 -1.5488 0.703297 0
M  V30 8234 O 765.796 -1.69082 0.955237 0
M  V30 8235 C 762.926 -2.79756 2.05801 0
M  V30 8236 C 761.88 -2.82392 3.21619 0
M  V30 8237 C 761.206 -4.22326 3.2794 0
M  V30 8238 C 762.506 -2.479 4.59721 0
M  V30 8239 H 764.2 -1.17018 2.75585 0
M  V30 8240 H 761.746 -0.561485 1.32602 0
M  V30 8241 H 763.699 -3.55627 2.26069 0
M  V30 8242 H 762.423 -3.06883 1.11761 0
M  V30 8243 H 761.082 -2.08974 3.01207 0
M  V30 8244 H 760.73 -4.46564 2.31494 0
M  V30 8245 H 760.43 -4.25001 4.05768 0
M  V30 8246 H 761.954 -5.00039 3.50419 0
M  V30 8247 H 763.368 -3.13484 4.80001 0
M  V30 8248 H 761.765 -2.61857 5.39954 0
M  V30 8249 H 762.835 -1.43087 4.63308 0
M  V30 8250 N 764.178 -1.45556 -0.604258 0
M  V30 8251 C 765.589 -1.44171 -1.18624 0
M  V30 8252 C 765.94 -0.171081 -1.95453 0
M  V30 8253 O 765.065 0.727156 -2.03817 0
M  V30 8254 C 765.66 -2.61193 -2.15786 0
M  V30 8255 C 764.219 -2.62918 -2.69353 0
M  V30 8256 C 763.366 -2.36479 -1.4482 0
M  V30 8257 H 766.317 -1.53747 -0.393381 0
M  V30 8258 H 766.338 -2.35481 -2.98879 0
M  V30 8259 H 765.85 -3.53656 -1.59841 0
M  V30 8260 H 763.951 -1.7447 -3.29228 0
M  V30 8261 H 764.064 -3.6224 -3.13559 0
M  V30 8262 H 762.428 -1.86103 -1.73891 0
M  V30 8263 H 763.211 -3.31091 -0.907376 0
M  V30 8264 N 765.656 0.84705 -1.32902 0
M  V30 8265 C 766.933 1.58583 -1.14503 0
M  V30 8266 C 767.313 2.09075 0.291724 0
M  V30 8267 O 766.661 1.88636 1.28952 0
M  V30 8268 C 766.871 2.72605 -2.17916 0
M  V30 8269 C 768.219 3.41993 -2.51646 0
M  V30 8270 O 769.243 2.82838 -2.1652 0
M  V30 8271 O 768.102 4.48761 -3.1189 0
M  V30 8272 H 765.196 0.698756 -0.442345 0
M  V30 8273 H 767.742 0.890516 -1.44457 0
M  V30 8274 H 766.514 2.32876 -3.14459 0
M  V30 8275 H 766.137 3.49807 -1.89 0
M  V30 8276 N 767.134 1.16236 1.06428 0
M  V30 8277 C 768.362 0.967184 1.82902 0
M  V30 8278 C 768.777 -0.484601 1.82475 0
M  V30 8279 O 768.134 -1.33631 1.24294 0
M  V30 8280 C 768.185 1.48534 3.29576 0
M  V30 8281 O 767.906 2.88026 3.3011 0
M  V30 8282 C 769.407 1.33298 4.22784 0
M  V30 8283 H 766.627 0.342923 0.576754 0
M  V30 8284 H 769.171 1.54232 1.34286 0
M  V30 8285 H 767.326 0.952513 3.75508 0
M  V30 8286 H 767.74 3.11721 4.21818 0
M  V30 8287 H 769.214 1.74385 5.23731 0
M  V30 8288 H 769.691 0.278356 4.38317 0
M  V30 8289 H 770.297 1.85535 3.82697 0
M  V30 8290 N 768.612 -1.24939 0.960631 0
M  V30 8291 C 769.861 -1.92118 0.614298 0
M  V30 8292 C 770.174 -1.75998 -0.853474 0
M  V30 8293 O 771.38 -2.37804 -1.31003 0
M  V30 8294 C 769.836 -3.44303 1.04801 0
M  V30 8295 C 769.444 -3.69123 2.53875 0
M  V30 8296 C 771.188 -4.17375 0.774497 0
M  V30 8297 C 769.095 -5.14843 2.91016 0
M  V30 8298 H 768.025 -0.719319 0.226045 0
M  V30 8299 H 770.676 -1.41701 1.16589 0
M  V30 8300 H 769.058 -3.93715 0.42479 0
M  V30 8301 H 770.232 -3.30339 3.21267 0
M  V30 8302 H 768.547 -3.09323 2.78762 0
M  V30 8303 H 771.144 -5.24723 1.02808 0
M  V30 8304 H 771.487 -4.15294 -0.289192 0
M  V30 8305 H 772.02 -3.7389 1.35835 0
M  V30 8306 H 768.759 -5.2204 3.96427 0
M  V30 8307 H 768.279 -5.54652 2.28302 0
M  V30 8308 H 769.958 -5.83017 2.80535 0
M  V30 8309 N 770.09 -0.729906 -1.39679 0
M  V30 8310 C 771.367 -0.202149 -1.94553 0
M  V30 8311 C 771.747 1.29507 -1.66707 0
M  V30 8312 O 771.095 2.05819 -0.992517 0
M  V30 8313 C 771.305 -0.530279 -3.44948 0
M  V30 8314 C 772.653 -0.476808 -4.21914 0
M  V30 8315 O 773.677 -0.467171 -3.53123 0
M  V30 8316 O 772.536 -0.466869 -5.44502 0
M  V30 8317 H 769.63 -0.0351644 -0.826252 0
M  V30 8318 H 772.176 -0.808417 -1.49207 0
M  V30 8319 H 770.948 -1.56526 -3.5863 0
M  V30 8320 H 770.571 0.10522 -3.97461 0
M  V30 8321 N 771.568 1.50203 -0.477153 0
M  V30 8322 C 772.5 2.26508 0.350239 0
M  V30 8323 C 773.513 1.32081 0.95176 0
M  V30 8324 O 774.702 1.57546 0.839139 0
M  V30 8325 C 771.802 3.0361 1.50579 0
M  V30 8326 C 770.975 4.25438 1.01595 0
M  V30 8327 C 770.034 4.84783 2.04626 0
M  V30 8328 O 769.06 5.45528 1.62442 0
M  V30 8329 N 770.262 4.72318 3.37485 0
M  V30 8330 H 773.027 2.98155 -0.30394 0
M  V30 8331 H 770.588 1.58938 -0.308289 0
M  V30 8332 H 772.58 3.4019 2.1921 0
M  V30 8333 H 771.15 2.34724 2.06455 0
M  V30 8334 H 770.37 3.93894 0.155316 0
M  V30 8335 H 771.658 5.04413 0.666694 0
M  V30 8336 H 771.056 4.24022 3.74462 0
M  V30 8337 H 769.613 5.13149 4.01897 0
M  V30 8338 N 773.046 0.209999 1.56195 0
M  V30 8339 C 773.979 -0.744546 2.15712 0
M  V30 8340 C 774.957 -1.19917 1.09812 0
M  V30 8341 O 776.141 -1.284 1.38006 0
M  V30 8342 C 773.268 -2.00733 2.72807 0
M  V30 8343 C 772.314 -1.69363 3.91431 0
M  V30 8344 S 773.147 -0.828579 5.29051 0
M  V30 8345 C 774.303 -2.10118 5.89577 0
M  V30 8346 H 774.536 -0.238636 2.96341 0
M  V30 8347 H 772.069 -0.00517877 1.54399 0
M  V30 8348 H 774.027 -2.73246 3.06344 0
M  V30 8349 H 772.688 -2.48436 1.92193 0
M  V30 8350 H 771.881 -2.63157 4.29842 0
M  V30 8351 H 771.483 -1.04921 3.58981 0
M  V30 8352 H 773.775 -3.05231 6.04847 0
M  V30 8353 H 774.718 -1.76116 6.85849 0
M  V30 8354 H 775.126 -2.23644 5.18308 0
M  V30 8355 N 774.524 -1.57472 -0.0634922 0
M  V30 8356 C 775.454 -2.07297 -1.07473 0
M  V30 8357 C 776.435 -0.968162 -1.39859 0
M  V30 8358 O 777.62 -1.24139 -1.49343 0
M  V30 8359 C 774.75 -2.52381 -2.38581 0
M  V30 8360 C 773.704 -3.66813 -2.20526 0
M  V30 8361 C 773.03 -3.97982 -3.57092 0
M  V30 8362 C 774.33 -4.96553 -1.61965 0
M  V30 8363 H 776.024 -2.92033 -0.660092 0
M  V30 8364 H 773.57 -1.40488 -0.316074 0
M  V30 8365 H 775.523 -2.85852 -3.09624 0
M  V30 8366 H 774.247 -1.64684 -2.8204 0
M  V30 8367 H 772.906 -3.33639 -1.51924 0
M  V30 8368 H 772.554 -3.07403 -3.98136 0
M  V30 8369 H 772.254 -4.7504 -3.45848 0
M  V30 8370 H 773.778 -4.33956 -4.29552 0
M  V30 8371 H 775.192 -5.28201 -2.22883 0
M  V30 8372 H 773.589 -5.7799 -1.61394 0
M  V30 8373 H 774.659 -4.81396 -0.581918 0
M  V30 8374 N 776.003 0.335068 -1.53997 0
M  V30 8375 C 777.419 0.678704 -1.4445 0
M  V30 8376 C 777.619 1.92106 -0.608078 0
M  V30 8377 O 776.675 2.52292 -0.102373 0
M  V30 8378 C 777.988 0.863435 -2.88037 0
M  V30 8379 C 779.536 0.961513 -2.97866 0
M  V30 8380 C 780.011 1.1785 -4.42578 0
M  V30 8381 N 781.502 1.2455 -4.46141 0
M  V30 8382 C 782.237 1.43106 -5.55255 0
M  V30 8383 N 781.733 1.5878 -6.74359 0
M  V30 8384 N 783.526 1.45722 -5.42883 0
M  V30 8385 H 775.677 -0.481656 -2.06867 0
M  V30 8386 H 777.94 -0.153615 -0.935471 0
M  V30 8387 H 777.646 0.0219511 -3.51693 0
M  V30 8388 H 777.52 1.76268 -3.33481 0
M  V30 8389 H 779.907 1.79351 -2.34344 0
M  V30 8390 H 779.988 0.0389862 -2.5577 0
M  V30 8391 H 779.632 0.351397 -5.06683 0
M  V30 8392 H 779.562 2.11472 -4.82273 0
M  V30 8393 H 782.053 1.13928 -3.60318 0
M  V30 8394 H 782.366 1.72599 -7.53279 0
M  V30 8395 H 780.711 1.559 -6.77289 0
M  V30 8396 H 783.902 1.33065 -4.48789 0
M  V30 8397 H 784.075 1.59841 -6.27977 0
M  V30 8398 N 777.481 1.45874 0.596531 0
M  V30 8399 C 778.727 1.5069 1.35722 0
M  V30 8400 C 779.06 0.152506 1.936 0
M  V30 8401 O 778.335 -0.834411 1.75692 0
M  V30 8402 C 778.618 2.59474 2.4969 0
M  V30 8403 C 778.471 4.04396 1.96937 0
M  V30 8404 C 779.79 2.64451 3.51787 0
M  V30 8405 H 776.909 0.548611 0.492133 0
M  V30 8406 H 779.551 1.77741 0.671428 0
M  V30 8407 H 777.701 2.36539 3.08191 0
M  V30 8408 H 779.373 4.38576 1.43 0
M  V30 8409 H 777.616 4.14529 1.27859 0
M  V30 8410 H 778.287 4.76218 2.79143 0
M  V30 8411 H 780.763 2.85031 3.03145 0
M  V30 8412 H 779.639 3.42411 4.29006 0
M  V30 8413 H 779.9 1.69965 4.08123 0
M  V30 8414 N 778.959 -0.83999 1.33349 0
M  V30 8415 C 779.906 -1.94972 1.23509 0
M  V30 8416 C 780.876 -1.65709 0.113967 0
M  V30 8417 O 782.061 -1.88552 0.292045 0
M  V30 8418 C 779.201 -3.30919 0.979105 0
M  V30 8419 C 778.314 -3.72587 2.18639 0
M  V30 8420 C 777.449 -4.97397 1.86465 0
M  V30 8421 C 776.488 -5.31597 3.03432 0
M  V30 8422 N 775.625 -6.47584 2.71254 0
M  V30 8423 H 780.465 -2.0272 2.18423 0
M  V30 8424 H 778.002 -0.992017 1.08616 0
M  V30 8425 H 779.96 -4.09239 0.811126 0
M  V30 8426 H 778.59 -3.22731 0.0667099 0
M  V30 8427 H 777.642 -2.89799 2.46416 0
M  V30 8428 H 778.954 -3.93844 3.06086 0
M  V30 8429 H 778.108 -5.83462 1.66305 0
M  V30 8430 H 776.847 -4.78107 0.96254 0
M  V30 8431 H 775.852 -4.44037 3.24208 0
M  V30 8432 H 777.077 -5.52836 3.94397 0
M  V30 8433 H 775.023 -6.29783 1.836 0
M  V30 8434 H 774.94 -6.68931 3.52231 0
M  V30 8435 H 776.208 -7.36764 2.54558 0
M  V30 8436 N 780.437 -1.16799 -1.0581 0
M  V30 8437 C 781.685 -0.950642 -1.78346 0
M  V30 8438 C 782.006 0.522524 -1.87869 0
M  V30 8439 O 781.276 1.3795 -1.39092 0
M  V30 8440 H 779.856 -0.348736 -0.6606 0
M  V30 8441 H 782.518 -1.47158 -1.27791 0
M  V30 8442 H 781.614 -1.37359 -2.80248 0
M  V30 8443 N 781.915 1.24427 -0.967243 0
M  V30 8444 C 782.848 2.23885 -0.441683 0
M  V30 8445 C 783.826 1.55231 0.483963 0
M  V30 8446 O 785.01 1.83865 0.415445 0
M  V30 8447 C 782.137 3.36755 0.362458 0
M  V30 8448 C 781.183 4.23495 -0.505407 0
M  V30 8449 S 782.016 4.98916 -1.94534 0
M  V30 8450 C 783.172 6.15245 -1.14997 0
M  V30 8451 H 783.405 2.68118 -1.28453 0
M  V30 8452 H 780.938 1.337 -0.772243 0
M  V30 8453 H 782.896 4.02218 0.820445 0
M  V30 8454 H 781.557 2.91081 1.18027 0
M  V30 8455 H 780.75 5.03876 0.111979 0
M  V30 8456 H 780.352 3.63032 -0.899104 0
M  V30 8457 H 782.644 6.7629 -0.404769 0
M  V30 8458 H 783.587 6.81343 -1.92814 0
M  V30 8459 H 783.995 5.60455 -0.674543 0
M  V30 8460 N 783.393 0.737304 1.3929 0
M  V30 8461 C 784.34 0.0988364 2.30588 0
M  V30 8462 C 785.31 -0.727206 1.49335 0
M  V30 8463 O 786.495 -0.686694 1.78014 0
M  V30 8464 C 783.635 -0.800734 3.35682 0
M  V30 8465 C 782.748 0.0381731 4.31983 0
M  V30 8466 C 781.883 -0.862884 5.24145 0
M  V30 8467 C 780.922 -0.0193639 6.12097 0
M  V30 8468 N 780.059 -0.87648 6.96608 0
M  V30 8469 H 784.899 0.883031 2.84617 0
M  V30 8470 H 782.436 0.447111 1.4014 0
M  V30 8471 H 784.394 -1.33676 3.95205 0
M  V30 8472 H 783.024 -1.55088 2.83103 0
M  V30 8473 H 782.076 0.691641 3.74059 0
M  V30 8474 H 783.388 0.690294 4.94 0
M  V30 8475 H 782.542 -1.46667 5.88705 0
M  V30 8476 H 781.281 -1.54878 4.62454 0
M  V30 8477 H 780.286 0.597202 5.46547 0
M  V30 8478 H 781.511 0.663348 6.75852 0
M  V30 8479 H 779.457 -1.54762 6.37483 0
M  V30 8480 H 779.374 -0.280892 7.55478 0
M  V30 8481 H 780.642 -1.46575 7.65595 0
M  V30 8482 N 784.871 -1.49948 0.485112 0
M  V30 8483 C 785.821 -2.25734 -0.320658 0
M  V30 8484 C 786.805 -1.29907 -0.949373 0
M  V30 8485 O 787.997 -1.54725 -0.859601 0
M  V30 8486 C 785.126 -3.13728 -1.39391 0
M  V30 8487 C 784.212 -4.1701 -0.772225 0
M  V30 8488 N 784.603 -5.05667 0.115782 0
M  V30 8489 C 782.901 -4.33834 -1.03461 0
M  V30 8490 C 783.602 -5.79798 0.47004 0
M  V30 8491 N 782.578 -5.4337 -0.158204 0
M  V30 8492 H 786.38 -2.91647 0.36319 0
M  V30 8493 H 783.894 -1.59602 0.300154 0
M  V30 8494 H 785.891 -3.66639 -1.98447 0
M  V30 8495 H 784.551 -2.49365 -2.0796 0
M  V30 8496 H 785.562 -5.15619 0.485557 0
M  V30 8497 H 782.239 -3.80684 -1.71424 0
M  V30 8498 H 783.629 -6.61177 1.19558 0
M  V30 8499 N 786.349 -0.21828 -1.56081 0
M  V30 8500 C 787.765 0.137168 -1.59009 0
M  V30 8501 C 787.965 1.59215 -1.23503 0
M  V30 8502 O 787.021 2.33178 -0.968716 0
M  V30 8503 C 788.334 -0.186162 -3.00123 0
M  V30 8504 C 789.882 -0.128135 -3.12738 0
M  V30 8505 C 790.357 -0.425094 -4.56023 0
M  V30 8506 N 791.848 -0.374547 -4.61683 0
M  V30 8507 C 792.583 -0.57786 -5.70481 0
M  V30 8508 N 792.079 -0.842771 -6.87655 0
M  V30 8509 N 793.872 -0.510521 -5.59777 0
M  V30 8510 H 786.023 -1.16746 -1.77437 0
M  V30 8511 H 788.286 -0.467706 -0.824594 0
M  V30 8512 H 787.992 -1.19589 -3.30744 0
M  V30 8513 H 787.866 0.500388 -3.73866 0
M  V30 8514 H 790.253 0.872224 -2.81915 0
M  V30 8515 H 790.334 -0.848112 -2.41331 0
M  V30 8516 H 789.978 -1.42288 -4.87562 0
M  V30 8517 H 789.908 0.316038 -5.25651 0
M  V30 8518 H 792.399 -0.177356 -3.77484 0
M  V30 8519 H 792.712 -0.986095 -7.66483 0
M  V30 8520 H 791.057 -0.879929 -6.89407 0
M  V30 8521 H 794.248 -0.303813 -4.67113 0
M  V30 8522 H 794.421 -0.672378 -6.44502 0
M  V30 8523 N 787.827 1.57504 0.0551401 0
M  V30 8524 C 788.774 2.04825 1.06373 0
M  V30 8525 C 789.744 0.932108 1.37481 0
M  V30 8526 O 790.929 1.20093 1.48265 0
M  V30 8527 C 788.069 2.51091 2.36743 0
M  V30 8528 C 787.182 3.76392 2.12021 0
M  V30 8529 C 786.317 4.11373 3.36074 0
M  V30 8530 C 785.356 5.29666 3.0679 0
M  V30 8531 N 784.493 5.60205 4.2322 0
M  V30 8532 H 789.333 2.90753 0.653216 0
M  V30 8533 H 786.87 1.43776 0.310951 0
M  V30 8534 H 788.828 2.75973 3.12881 0
M  V30 8535 H 787.458 1.68118 2.75565 0
M  V30 8536 H 786.51 3.58751 1.26498 0
M  V30 8537 H 787.822 4.62662 1.86401 0
M  V30 8538 H 786.976 4.37245 4.20597 0
M  V30 8539 H 785.715 3.23704 3.64784 0
M  V30 8540 H 784.72 5.03574 2.20664 0
M  V30 8541 H 785.945 6.18968 2.79385 0
M  V30 8542 H 783.891 4.75495 4.5193 0
M  V30 8543 H 783.808 6.40928 4.00933 0
M  V30 8544 H 785.076 5.90637 5.08692 0
M  V30 8545 N 789.305 -0.326896 1.54172 0
M  V30 8546 C 790.533 -1.08486 1.76177 0
M  V30 8547 C 790.948 -1.81815 0.508788 0
M  V30 8548 O 790.305 -1.74924 -0.520362 0
M  V30 8549 C 790.356 -2.08552 2.95276 0
M  V30 8550 O 790.077 -1.38202 4.15731 0
M  V30 8551 C 791.578 -2.96593 3.29466 0
M  V30 8552 H 788.798 -0.322835 0.588233 0
M  V30 8553 H 791.342 -0.374036 2.0105 0
M  V30 8554 H 789.497 -2.75174 2.72687 0
M  V30 8555 H 789.911 -2.05186 4.827 0
M  V30 8556 H 791.385 -3.62708 4.16109 0
M  V30 8557 H 791.862 -3.63511 2.46487 0
M  V30 8558 H 792.468 -2.35537 3.54122 0
M  V30 8559 N 790.784 -1.46188 -0.588786 0
M  V30 8560 C 792.195 -1.45421 -1.17088 0
M  V30 8561 C 792.546 -0.191801 -1.9526 0
M  V30 8562 O 791.671 0.705497 -2.04577 0
M  V30 8563 C 792.266 -2.63467 -2.13004 0
M  V30 8564 C 790.825 -2.6576 -2.6655 0
M  V30 8565 C 789.972 -2.38002 -1.42304 0
M  V30 8566 H 792.923 -1.54156 -0.377052 0
M  V30 8567 H 792.944 -2.38638 -2.96365 0
M  V30 8568 H 792.456 -3.55331 -1.56081 0
M  V30 8569 H 790.557 -1.77952 -3.27359 0
M  V30 8570 H 790.67 -3.65545 -3.09699 0
M  V30 8571 H 789.034 -1.87936 -1.71907 0
M  V30 8572 H 789.817 -3.32035 -0.872209 0
M  V30 8573 N 792.262 0.832906 -1.33792 0
M  V30 8574 C 793.487 1.62568 -1.28788 0
M  V30 8575 C 793.912 1.87599 0.137246 0
M  V30 8576 O 793.27 1.44436 1.0958 0
M  V30 8577 C 793.318 2.9495 -2.07453 0
M  V30 8578 O 792.422 3.86546 -1.43722 0
M  V30 8579 H 791.763 0.494809 -0.442787 0
M  V30 8580 H 794.293 1.03578 -1.76445 0
M  V30 8581 H 794.303 3.44599 -2.1844 0
M  V30 8582 H 792.978 2.76055 -3.11073 0
M  V30 8583 H 791.555 3.45044 -1.41417 0
M  V30 8584 N 793.74 1.17359 1.05189 0
M  V30 8585 C 794.69 0.858445 2.11222 0
M  V30 8586 C 795.674 -0.166991 1.60031 0
M  V30 8587 O 796.866 0.0354456 1.76965 0
M  V30 8588 C 793.995 0.373549 3.41262 0
M  V30 8589 C 793.081 1.43041 3.99249 0
M  V30 8590 N 793.472 2.64387 4.312 0
M  V30 8591 C 791.77 1.28828 4.26989 0
M  V30 8592 C 792.471 3.32296 4.77446 0
M  V30 8593 N 791.447 2.59674 4.77567 0
M  V30 8594 H 795.249 1.78104 2.33786 0
M  V30 8595 H 792.763 1.0623 1.22837 0
M  V30 8596 H 794.76 0.129331 4.16699 0
M  V30 8597 H 793.42 -0.542847 3.2013 0
M  V30 8598 H 794.431 3.01351 4.21198 0
M  V30 8599 H 791.108 0.43353 4.15243 0
M  V30 8600 H 792.498 4.35939 5.11279 0
M  V30 8601 N 795.218 -1.23913 0.973828 0
M  V30 8602 C 796.446 -1.96195 0.656891 0
M  V30 8603 C 796.861 -1.72166 -0.774876 0
M  V30 8604 O 796.218 -1.0091 -1.52064 0
M  V30 8605 C 796.269 -3.49342 0.929638 0
M  V30 8606 O 795.99 -3.72553 2.30512 0
M  V30 8607 C 797.491 -4.38833 0.627739 0
M  V30 8608 H 794.711 -0.624841 0.244572 0
M  V30 8609 H 797.255 -1.57579 1.30343 0
M  V30 8610 H 795.41 -3.85999 0.329216 0
M  V30 8611 H 795.824 -4.66893 2.3898 0
M  V30 8612 H 797.298 -5.45117 0.868991 0
M  V30 8613 H 797.775 -4.37009 -0.438104 0
M  V30 8614 H 798.381 -4.07773 1.20834 0
M  V30 8615 N 796.696 -0.74468 -1.38897 0
M  V30 8616 C 798.112 -0.421302 -1.53939 0
M  V30 8617 C 798.312 1.06668 -1.70951 0
M  V30 8618 O 797.368 1.85278 -1.71547 0
M  V30 8619 C 798.681 -1.21278 -2.75159 0
M  V30 8620 C 800.229 -1.20196 -2.89001 0
M  V30 8621 C 800.704 -1.97621 -4.13171 0
M  V30 8622 N 802.195 -1.94836 -4.2023 0
M  V30 8623 C 802.93 -2.51545 -5.15279 0
M  V30 8624 N 802.426 -3.1693 -6.16058 0
M  V30 8625 N 804.219 -2.41524 -5.07565 0
M  V30 8626 H 796.37 -1.70914 -1.26103 0
M  V30 8627 H 798.633 -0.724058 -0.611919 0
M  V30 8628 H 798.339 -2.26609 -2.68963 0
M  V30 8629 H 798.213 -0.823677 -3.68097 0
M  V30 8630 H 800.6 -0.156742 -2.94683 0
M  V30 8631 H 800.681 -1.63051 -1.97099 0
M  V30 8632 H 800.325 -3.02149 -4.0825 0
M  V30 8633 H 800.255 -1.52166 -5.04136 0
M  V30 8634 H 802.746 -1.4721 -3.48048 0
M  V30 8635 H 803.059 -3.57644 -6.85062 0
M  V30 8636 H 801.404 -3.21023 -6.16417 0
M  V30 8637 H 804.595 -1.90077 -4.27771 0
M  V30 8638 H 804.768 -2.86016 -5.81462 0
M  V30 8639 N 798.174 1.49689 -0.493057 0
M  V30 8640 C 799.107 2.25712 0.336062 0
M  V30 8641 C 800.085 1.29953 0.977294 0
M  V30 8642 O 801.269 1.59225 1.00895 0
M  V30 8643 C 798.396 3.0501 1.47263 0
M  V30 8644 C 797.442 4.15863 0.946575 0
M  V30 8645 S 798.275 5.35272 -0.156323 0
M  V30 8646 C 799.431 6.18123 0.983601 0
M  V30 8647 H 799.664 2.95688 -0.309215 0
M  V30 8648 H 797.197 1.51872 -0.278238 0
M  V30 8649 H 799.155 3.51284 2.12391 0
M  V30 8650 H 797.816 2.34519 2.08949 0
M  V30 8651 H 797.009 4.70834 1.7981 0
M  V30 8652 H 796.611 3.72139 0.372647 0
M  V30 8653 H 798.903 6.50588 1.89056 0
M  V30 8654 H 799.846 7.06521 0.472687 0
M  V30 8655 H 800.254 5.50547 1.24735 0
M  V30 8656 N 799.652 0.226554 1.55963 0
M  V30 8657 C 800.582 -0.676079 2.23498 0
M  V30 8658 C 801.563 -1.19718 1.20837 0
M  V30 8659 O 802.748 -1.24027 1.49436 0
M  V30 8660 C 799.878 -1.88217 2.91876 0
M  V30 8661 C 798.832 -1.4947 4.01052 0
M  V30 8662 C 798.158 -2.77997 4.56751 0
M  V30 8663 C 799.458 -0.680951 5.17842 0
M  V30 8664 H 801.152 -0.112989 2.99187 0
M  V30 8665 H 798.698 -0.0529046 1.43903 0
M  V30 8666 H 800.651 -2.51911 3.37815 0
M  V30 8667 H 799.375 -2.47031 2.13643 0
M  V30 8668 H 798.034 -0.881199 3.55852 0
M  V30 8669 H 797.682 -3.34966 3.75243 0
M  V30 8670 H 797.382 -2.52803 5.30438 0
M  V30 8671 H 798.906 -3.42625 5.05411 0
M  V30 8672 H 800.32 -1.22171 5.60131 0
M  V30 8673 H 798.717 -0.525898 5.97791 0
M  V30 8674 H 799.787 0.311346 4.83899 0
M  V30 8675 N 801.13 -1.57531 -0.0467866 0
M  V30 8676 C 802.077 -2.05387 -1.05285 0
M  V30 8677 C 803.047 -0.939385 -1.36985 0
M  V30 8678 O 804.232 -1.20877 -1.47626 0
M  V30 8679 C 801.372 -2.52343 -2.35408 0
M  V30 8680 C 800.485 -3.77512 -2.10022 0
M  V30 8681 C 799.62 -4.1315 -3.33887 0
M  V30 8682 C 798.659 -5.31286 -3.03976 0
M  V30 8683 N 797.796 -5.62441 -4.20243 0
M  V30 8684 H 802.636 -2.91095 -0.637788 0
M  V30 8685 H 800.173 -1.43939 -0.303322 0
M  V30 8686 H 802.131 -2.77628 -3.11413 0
M  V30 8687 H 800.761 -1.69577 -2.7467 0
M  V30 8688 H 799.813 -3.59417 -1.24594 0
M  V30 8689 H 801.125 -4.63644 -1.83945 0
M  V30 8690 H 800.279 -4.39469 -4.18273 0
M  V30 8691 H 799.018 -3.25634 -3.63062 0
M  V30 8692 H 798.023 -5.04738 -2.17991 0
M  V30 8693 H 799.248 -6.20441 -2.76098 0
M  V30 8694 H 797.194 -4.77885 -4.49402 0
M  V30 8695 H 797.111 -6.43046 -3.97528 0
M  V30 8696 H 798.379 -5.93327 -5.05553 0
M  V30 8697 N 802.608 0.318715 -1.54344 0
M  V30 8698 C 803.885 1.07461 -1.63437 0
M  V30 8699 C 804.265 2.05771 -0.47131 0
M  V30 8700 O 803.613 2.22175 0.53391 0
M  V30 8701 C 803.823 1.77224 -3.00654 0
M  V30 8702 C 805.171 2.30069 -3.56866 0
M  V30 8703 O 806.195 1.87284 -3.0299 0
M  V30 8704 O 805.054 3.08412 -4.51159 0
M  V30 8705 H 802.148 0.495627 -0.66203 0
M  V30 8706 H 804.694 0.318218 -1.6669 0
M  V30 8707 H 803.466 1.05742 -3.76742 0
M  V30 8708 H 803.089 2.59662 -3.01101 0
M  V30 8709 N 804.086 1.46499 0.581025 0
M  V30 8710 C 805.334 1.51596 1.33653 0
M  V30 8711 C 805.655 0.169859 1.94259 0
M  V30 8712 O 804.925 -0.803776 1.78651 0
M  V30 8713 H 803.505 0.558346 0.496244 0
M  V30 8714 H 806.167 1.8264 0.680338 0
M  V30 8715 H 805.263 2.26956 2.14237 0
M  V30 8716 N 805.565 -0.825799 1.34232 0
M  V30 8717 C 806.497 -1.94401 1.21413 0
M  V30 8718 C 807.51 -1.6218 0.141902 0
M  V30 8719 O 808.699 -1.74109 0.3935 0
M  V30 8720 C 805.799 -3.28257 0.842635 0
M  V30 8721 C 804.972 -3.88521 2.00924 0
M  V30 8722 C 804.031 -5.00752 1.61661 0
M  V30 8723 O 803.057 -5.19201 2.33279 0
M  V30 8724 N 804.259 -5.78084 0.52911 0
M  V30 8725 H 807.024 -2.05931 2.17744 0
M  V30 8726 H 804.585 -1.00223 1.27149 0
M  V30 8727 H 806.577 -4.00781 0.561822 0
M  V30 8728 H 805.147 -3.12585 -0.0304029 0
M  V30 8729 H 804.367 -3.08425 2.45495 0
M  V30 8730 H 805.655 -4.25516 2.78951 0
M  V30 8731 H 805.053 -5.65661 -0.0663322 0
M  V30 8732 H 803.61 -6.51072 0.308017 0
M  V30 8733 N 807.043 -1.17915 -1.04565 0
M  V30 8734 C 807.953 -0.916449 -2.15959 0
M  V30 8735 C 808.969 0.117655 -1.73602 0
M  V30 8736 O 810.145 -0.063089 -2.01301 0
M  V30 8737 C 807.21 -0.440262 -3.43893 0
M  V30 8738 C 806.271 -1.54172 -4.00661 0
M  V30 8739 C 805.504 -1.08816 -5.22489 0
M  V30 8740 O 805.727 0.0551547 -5.70373 0
M  V30 8741 O 804.661 -1.88383 -5.7166 0
M  V30 8742 H 808.487 -1.8484 -2.40972 0
M  V30 8743 H 806.072 -0.960552 -1.14428 0
M  V30 8744 H 807.954 -0.182537 -4.21004 0
M  V30 8745 H 806.629 0.46346 -3.20365 0
M  V30 8746 H 805.536 -1.85341 -3.24961 0
M  V30 8747 H 806.869 -2.42139 -4.2852 0
M  V30 8748 N 808.521 1.23394 -0.980386 0
M  V30 8749 C 809.937 1.43961 -0.689008 0
M  V30 8750 C 810.137 1.87229 0.744809 0
M  V30 8751 O 809.193 2.01831 1.51725 0
M  V30 8752 C 810.506 2.49128 -1.68392 0
M  V30 8753 C 812.054 2.62941 -1.69796 0
M  V30 8754 C 812.529 3.71317 -2.68118 0
M  V30 8755 N 814.02 3.7876 -2.66636 0
M  V30 8756 C 814.755 4.62176 -3.39383 0
M  V30 8757 N 814.251 5.49682 -4.21688 0
M  V30 8758 N 816.044 4.56372 -3.28147 0
M  V30 8759 H 808.195 0.936106 -1.90659 0
M  V30 8760 H 810.458 0.473023 -0.821555 0
M  V30 8761 H 810.164 2.24252 -2.70931 0
M  V30 8762 H 810.038 3.47514 -1.46675 0
M  V30 8763 H 812.425 2.87168 -0.679617 0
M  V30 8764 H 812.506 1.64871 -1.95579 0
M  V30 8765 H 812.15 3.4784 -3.70095 0
M  V30 8766 H 812.08 4.68929 -2.3961 0
M  V30 8767 H 814.571 3.16226 -2.06904 0
M  V30 8768 H 814.884 6.10323 -4.74053 0
M  V30 8769 H 813.229 5.49306 -4.25779 0
M  V30 8770 H 816.42 3.87029 -2.63299 0
M  V30 8771 H 816.593 5.21153 -3.85102 0
M  V30 8772 N 809.999 0.752036 1.385 0
M  V30 8773 C 811.41 0.375385 1.82887 0
M  V30 8774 C 811.761 -1.09575 1.62751 0
M  V30 8775 O 810.886 -1.84685 1.12785 0
M  V30 8776 C 811.481 0.674563 3.32017 0
M  V30 8777 C 810.04 0.351208 3.74758 0
M  V30 8778 C 809.187 0.928531 2.61292 0
M  V30 8779 H 812.138 0.948313 1.27251 0
M  V30 8780 H 812.159 -0.0477781 3.8047 0
M  V30 8781 H 811.671 1.74533 3.46641 0
M  V30 8782 H 809.772 -0.713042 3.65714 0
M  V30 8783 H 809.885 0.845675 4.71577 0
M  V30 8784 H 808.249 0.354012 2.52228 0
M  V30 8785 H 809.032 2.0043 2.78716 0
M  V30 8786 N 811.477 -1.49425 0.500989 0
M  V30 8787 C 812.705 -2.06861 -0.0403443 0
M  V30 8788 C 813.12 -1.36132 -1.30819 0
M  V30 8789 O 812.477 -0.439647 -1.77125 0
M  V30 8790 C 812.528 -3.6027 -0.297902 0
M  V30 8791 O 812.249 -4.28338 0.919686 0
M  V30 8792 C 813.75 -4.34419 -0.882876 0
M  V30 8793 H 810.97 -0.670688 0.0204619 0
M  V30 8794 H 813.514 -1.92207 0.698342 0
M  V30 8795 H 811.669 -3.74627 -0.98657 0
M  V30 8796 H 812.083 -5.2004 0.682528 0
M  V30 8797 H 813.557 -5.42631 -1.01268 0
M  V30 8798 H 814.034 -3.96898 -1.88066 0
M  V30 8799 H 814.64 -4.24669 -0.231677 0
M  V30 8800 N 812.955 -0.234822 -1.55841 0
M  V30 8801 C 814.204 0.393685 -1.97821 0
M  V30 8802 C 814.517 1.59947 -1.1259 0
M  V30 8803 O 815.723 2.29835 -1.44528 0
M  V30 8804 C 814.179 0.751811 -3.5196 0
M  V30 8805 C 813.787 -0.431898 -4.45913 0
M  V30 8806 C 815.531 1.34518 -4.02623 0
M  V30 8807 C 813.438 -0.0505976 -5.91378 0
M  V30 8808 H 812.368 0.150864 -0.738753 0
M  V30 8809 H 815.019 -0.333132 -1.80451 0
M  V30 8810 H 813.401 1.53642 -3.6498 0
M  V30 8811 H 814.575 -1.20935 -4.44647 0
M  V30 8812 H 812.89 -0.939385 -4.05666 0
M  V30 8813 H 815.487 1.64359 -5.08813 0
M  V30 8814 H 815.83 2.26554 -3.49255 0
M  V30 8815 H 816.363 0.623729 -3.9288 0
M  V30 8816 H 813.102 -0.937779 -6.48757 0
M  V30 8817 H 812.622 0.690898 -5.95808 0
M  V30 8818 H 814.301 0.37146 -6.45933 0
M  V30 8819 N 814.433 1.57553 0.0384317 0
M  V30 8820 C 815.363 2.0898 1.04161 0
M  V30 8821 C 816.344 0.99029 1.38301 0
M  V30 8822 O 817.529 1.26499 1.47349 0
M  V30 8823 C 814.659 2.56145 2.34536 0
M  V30 8824 C 813.613 3.70275 2.14663 0
M  V30 8825 C 812.939 4.03612 3.50715 0
M  V30 8826 C 814.239 4.99067 1.54045 0
M  V30 8827 H 815.933 2.93046 0.613548 0
M  V30 8828 H 813.479 1.40973 0.293684 0
M  V30 8829 H 815.432 2.90741 3.05037 0
M  V30 8830 H 814.156 1.6915 2.79385 0
M  V30 8831 H 812.815 3.36013 1.46597 0
M  V30 8832 H 812.463 3.13698 3.93195 0
M  V30 8833 H 812.163 4.80482 3.38247 0
M  V30 8834 H 813.687 4.40735 4.22593 0
M  V30 8835 H 815.101 5.3168 2.14451 0
M  V30 8836 H 813.498 5.80484 1.52178 0
M  V30 8837 H 814.568 4.8226 0.505259 0
M  V30 8838 N 815.911 -0.310526 1.54511 0
M  V30 8839 C 816.858 -1.38264 1.84802 0
M  V30 8840 C 817.828 -1.50808 0.696141 0
M  V30 8841 O 819.013 -1.6582 0.943846 0
M  V30 8842 C 816.153 -2.74422 2.09252 0
M  V30 8843 C 815.266 -2.70405 3.36906 0
M  V30 8844 C 814.401 -3.98495 3.51248 0
M  V30 8845 C 813.44 -3.88836 4.72729 0
M  V30 8846 N 812.577 -5.08683 4.83928 0
M  V30 8847 H 817.417 -1.11732 2.76261 0
M  V30 8848 H 814.954 -0.540609 1.36806 0
M  V30 8849 H 816.912 -3.53593 2.21422 0
M  V30 8850 H 815.542 -2.99235 1.2107 0
M  V30 8851 H 814.594 -1.83151 3.33406 0
M  V30 8852 H 815.906 -2.59155 4.26193 0
M  V30 8853 H 815.06 -4.861 3.63031 0
M  V30 8854 H 813.799 -4.12567 2.60077 0
M  V30 8855 H 812.804 -2.99615 4.60989 0
M  V30 8856 H 814.029 -3.76318 5.65298 0
M  V30 8857 H 811.975 -5.23236 3.95677 0
M  V30 8858 H 811.892 -4.99819 5.67201 0
M  V30 8859 H 813.16 -5.97966 5.00057 0
M  V30 8860 N 817.389 -1.46805 -0.573248 0
M  V30 8861 C 818.614 -1.56433 -1.36175 0
M  V30 8862 C 819.039 -0.209336 -1.86932 0
M  V30 8863 O 818.397 0.812146 -1.62092 0
M  V30 8864 C 818.445 -2.58055 -2.51873 0
M  V30 8865 O 817.549 -2.12214 -3.53609 0
M  V30 8866 H 816.89 -0.526068 -0.405153 0
M  V30 8867 H 819.42 -1.92456 -0.694405 0
M  V30 8868 H 819.43 -2.77966 -2.98662 0
M  V30 8869 H 818.105 -3.56448 -2.14284 0
M  V30 8870 H 816.682 -2.02333 -3.13234 0
M  V30 8871 N 818.867 0.818669 -1.34668 0
M  V30 8872 C 820.095 1.60674 -1.30351 0
M  V30 8873 C 820.51 1.88408 0.121546 0
M  V30 8874 O 819.867 1.47849 1.06991 0
M  V30 8875 C 819.918 2.94516 -2.09625 0
M  V30 8876 O 819.639 2.6799 -3.46573 0
M  V30 8877 C 821.14 3.8891 -2.12754 0
M  V30 8878 H 818.36 0.499306 -0.448258 0
M  V30 8879 H 820.904 1.01828 -1.77345 0
M  V30 8880 H 819.059 3.49908 -1.66262 0
M  V30 8881 H 819.473 3.53361 -3.87603 0
M  V30 8882 H 820.947 4.79972 -2.72637 0
M  V30 8883 H 821.424 4.24599 -1.12306 0
M  V30 8884 H 822.03 3.39453 -2.56225 0
M  V30 8885 N 820.346 1.18468 1.03938 0
M  V30 8886 C 821.309 0.914944 2.10146 0
M  V30 8887 C 822.309 -0.10022 1.60487 0
M  V30 8888 O 823.499 0.133365 1.73689 0
M  V30 8889 C 820.631 0.372993 3.38853 0
M  V30 8890 H 821.824 1.85677 2.35508 0
M  V30 8891 H 819.377 0.996876 1.20383 0
M  V30 8892 H 820.112 -0.57538 3.19155 0
M  V30 8893 H 819.897 1.1048 3.76213 0
M  V30 8894 H 821.387 0.203014 4.17106 0
M  V30 8895 N 821.824 -1.22873 0.986916 0
M  V30 8896 C 823.071 -1.91462 0.659424 0
M  V30 8897 C 823.399 -1.76931 -0.807825 0
M  V30 8898 O 822.654 -1.12829 -1.59901 0
M  V30 8899 C 822.953 -3.43014 1.00379 0
M  V30 8900 C 822.619 -3.77731 2.46232 0
M  V30 8901 C 821.281 -3.86918 2.86091 0
M  V30 8902 C 823.633 -3.94343 3.40798 0
M  V30 8903 C 820.961 -4.10149 4.19518 0
M  V30 8904 C 823.313 -4.19076 4.73875 0
M  V30 8905 C 821.977 -4.26486 5.13484 0
M  V30 8906 H 821.247 -0.700611 0.2413 0
M  V30 8907 H 823.894 -1.45763 1.24199 0
M  V30 8908 H 822.199 -3.90329 0.339226 0
M  V30 8909 H 823.896 -3.94327 0.728518 0
M  V30 8910 H 820.486 -3.71159 2.14334 0
M  V30 8911 H 824.67 -3.86629 3.11178 0
M  V30 8912 H 819.926 -4.1411 4.49803 0
M  V30 8913 H 824.1 -4.30873 5.47102 0
M  V30 8914 H 821.727 -4.4424 6.16891 0
M  V30 8915 O 823.341 -0.896491 -1.34333 0
M  V30 8916 H 824.032 -0.506358 -1.86964 0
M  V30 END ATOM
M  V30 BEGIN BOND
M  V30 END BOND
M  V30 END CTAB
M  END
$$$$
