drugbank_target|O76054 SEC14-like protein 2 (DB00163; DB14001; DB14002)
 OpenBabel12092119283D

  0  0  0     0  0            999 V3000
M  V30 BEGIN CTAB
M  V30 COUNTS 6500 6577 0 0 0
M  V30 BEGIN ATOM
M  V30 1 H -0.908 1.98254 -0.117106 0
M  V30 2 N 0 1.576 0 0
M  V30 3 C 0.933 2.03868 1.02534 0
M  V30 4 C 1.911 0.928543 1.3348 0
M  V30 5 O 3.095 1.19667 1.45644 0
M  V30 6 C 0.222 2.43627 2.35294 0
M  V30 7 C -0.732 3.65373 2.2001 0
M  V30 8 S 0.101 5.13292 1.52614 0
M  V30 9 C 1.257 5.56322 2.86805 0
M  V30 10 H 1.49 2.90518 0.631377 0
M  V30 11 H -0.977 1.52953 0.210867 0
M  V30 12 H 0.981 2.67203 3.11629 0
M  V30 13 H -0.358 1.57376 2.7183 0
M  V30 14 H -1.165 3.90944 3.18086 0
M  V30 15 H -1.563 3.418 1.51819 0
M  V30 16 H 0.729 5.58782 3.83104 0
M  V30 17 H 1.672 6.56266 2.65933 0
M  V30 18 H 2.08 4.83886 2.90714 0
M  V30 19 N 1.4781 -0.272755 1.55222 0
M  V30 20 C 2.7031 -1.02683 1.80197 0
M  V30 21 C 3.1281 -1.79142 0.573551 0
M  V30 22 O 2.4861 -1.74917 -0.476849 0
M  V30 23 C 2.5341 -1.9609 3.02624 0
M  V30 24 O 1.6381 -3.04863 2.77727 0
M  V30 25 H 0.9791 -0.293557 0.595584 0
M  V30 26 H 3.5091 -0.30159 2.02365 0
M  V30 27 H 3.5191 -2.38039 3.31363 0
M  V30 28 H 2.1941 -1.39851 3.91682 0
M  V30 29 H 0.7711 -2.67228 2.60084 0
M  V30 30 N 2.9562 -1.48159 -0.537278 0
M  V30 31 C 4.2042 -1.55497 -1.29094 0
M  V30 32 C 4.5252 -0.227454 -1.93669 0
M  V30 33 O 3.7952 0.750386 -1.80959 0
M  V30 34 H 2.3752 -0.572832 -0.47945 0
M  V30 35 H 5.0372 -1.84579 -0.625818 0
M  V30 36 H 4.1332 -2.33216 -2.07405 0
M  V30 37 N 4.4343 0.785586 -1.36625 0
M  V30 38 C 5.8503 1.08419 -1.17122 0
M  V30 39 C 6.0503 2.015 0.00208491 0
M  V30 40 O 5.1063 2.43551 0.666278 0
M  V30 41 C 6.4193 1.69498 -2.48377 0
M  V30 42 C 7.9673 1.81821 -2.54775 0
M  V30 43 C 8.4423 2.46315 -3.86126 0
M  V30 44 N 9.9333 2.53779 -3.87492 0
M  V30 45 C 10.6683 3.045 -4.85868 0
M  V30 46 N 10.1643 3.55499 -5.94637 0
M  V30 47 N 11.9573 3.03247 -4.73284 0
M  V30 48 H 4.1083 0.167264 -2.1174 0
M  V30 49 H 6.3713 0.13682 -0.938075 0
M  V30 50 H 6.0773 1.08571 -3.34522 0
M  V30 51 H 5.9513 2.6896 -2.64462 0
M  V30 52 H 8.3383 2.41884 -1.69045 0
M  V30 53 H 8.4193 0.811532 -2.42586 0
M  V30 54 H 8.0633 1.86895 -4.72263 0
M  V30 55 H 7.9933 3.47561 -3.95612 0
M  V30 56 H 10.4843 2.17672 -3.08913 0
M  V30 57 H 10.7973 3.92562 -6.65669 0
M  V30 58 H 9.1423 3.5364 -5.98301 0
M  V30 59 H 12.3333 2.62696 -3.87438 0
M  V30 60 H 12.5063 3.42467 -5.50109 0
M  V30 61 N 5.9124 1.20967 1.01018 0
M  V30 62 C 7.1584 1.02526 1.74975 0
M  V30 63 C 7.4914 -0.4408 1.89131 0
M  V30 64 O 6.7664 -1.32718 1.42184 0
M  V30 65 C 7.0494 1.71699 3.1653 0
M  V30 66 C 6.9024 3.25791 3.10129 0
M  V30 67 C 8.2214 1.45531 4.15342 0
M  V30 68 H 5.3404 0.373863 0.635134 0
M  V30 69 H 7.9824 1.49071 1.17805 0
M  V30 70 H 6.1324 1.32128 3.65341 0
M  V30 71 H 7.8044 3.74697 2.69072 0
M  V30 72 H 6.0474 3.56363 2.47362 0
M  V30 73 H 6.7184 3.69353 4.10222 0
M  V30 74 H 9.1944 1.79872 3.75213 0
M  V30 75 H 8.0704 1.96453 5.1254 0
M  V30 76 H 8.3314 0.384237 4.40427 0
M  V30 77 N 7.3905 -1.2043 1.01659 0
M  V30 78 C 8.6385 -1.89423 0.704522 0
M  V30 79 C 8.9595 -1.79231 -0.768197 0
M  V30 80 O 8.2295 -1.1947 -1.55254 0
M  V30 81 H 6.8095 -0.701178 0.257602 0
M  V30 82 H 9.4715 -1.4626 1.28818 0
M  V30 83 H 8.5675 -2.96052 0.987916 0
M  V30 84 N 8.8686 -0.792821 -1.36206 0
M  V30 85 C 10.1456 -0.290627 -1.93429 0
M  V30 86 C 10.5256 1.21773 -1.72437 0
M  V30 87 O 9.8736 2.0108 -1.08531 0
M  V30 88 C 10.0836 -0.686973 -3.42172 0
M  V30 89 C 11.4316 -0.668643 -4.19302 0
M  V30 90 O 12.4556 -0.627658 -3.50626 0
M  V30 91 O 11.3146 -0.714597 -5.41808 0
M  V30 92 H 8.4086 -0.0727927 -0.82379 0
M  V30 93 H 10.9546 -0.875593 -1.45367 0
M  V30 94 H 9.7266 -1.72711 -3.51122 0
M  V30 95 H 9.3496 -0.0760733 -3.97527 0
M  V30 96 N 10.3467 1.47872 -0.545128 0
M  V30 97 C 11.2767 2.32661 0.197793 0
M  V30 98 C 12.2577 1.43041 0.920504 0
M  V30 99 O 13.4427 1.71912 0.90333 0
M  V30 100 C 10.5727 3.24569 1.23582 0
M  V30 101 C 9.5267 4.23333 0.630323 0
M  V30 102 C 8.8527 5.0448 1.77211 0
M  V30 103 C 10.1527 5.20704 -0.407974 0
M  V30 104 H 11.8467 2.95024 -0.510045 0
M  V30 105 H 9.3927 1.4187 -0.246731 0
M  V30 106 H 11.3457 3.8272 1.76362 0
M  V30 107 H 10.0697 2.60236 1.97344 0
M  V30 108 H 8.7287 3.6639 0.123922 0
M  V30 109 H 8.3767 4.36561 2.49847 0
M  V30 110 H 8.0767 5.71339 1.37281 0
M  V30 111 H 9.6007 5.65487 2.3034 0
M  V30 112 H 11.0147 5.7329 0.033305 0
M  V30 113 H 9.4117 5.95699 -0.725486 0
M  V30 114 H 10.4817 4.66917 -1.30828 0
M  V30 115 N 11.8248 0.280983 1.55075 0
M  V30 116 C 13.0498 -0.340154 2.04592 0
M  V30 117 C 13.4748 -1.48246 1.15779 0
M  V30 118 O 12.8328 -1.80614 0.15761 0
M  V30 119 C 12.8808 -0.793104 3.5177 0
M  V30 120 O 11.9848 -1.89981 3.66034 0
M  V30 121 H 11.3258 -0.0694289 0.66036 0
M  V30 122 H 13.8558 0.416993 2.00306 0
M  V30 123 H 13.8658 -1.08729 3.93245 0
M  V30 124 H 12.5408 0.0426163 4.15878 0
M  V30 125 H 11.1178 -1.60771 3.36463 0
M  V30 126 N 13.3029 -1.57598 0.00835791 0
M  V30 127 C 14.7139 -1.7892 -0.53333 0
M  V30 128 C 15.0649 -0.916609 -1.73473 0
M  V30 129 O 14.1899 -0.121336 -2.1606 0
M  V30 130 C 14.7849 -3.24488 -0.974313 0
M  V30 131 C 13.3439 -3.46878 -1.46125 0
M  V30 132 C 12.4909 -2.74157 -0.416302 0
M  V30 133 H 15.4419 -1.56958 0.234495 0
M  V30 134 H 15.4629 -3.3306 -1.83988 0
M  V30 135 H 14.9749 -3.87972 -0.099718 0
M  V30 136 H 13.0759 -2.8862 -2.35646 0
M  V30 137 H 13.1889 -4.55572 -1.48295 0
M  V30 138 H 11.5529 -2.39022 -0.87981 0
M  V30 139 H 12.3359 -3.40345 0.44947 0
M  V30 140 N 14.781 0.264519 -1.55364 0
M  V30 141 C 16.197 0.61215 -1.47394 0
M  V30 142 C 16.397 1.89134 -0.695018 0
M  V30 143 O 15.453 2.51563 -0.217275 0
M  V30 144 C 16.766 0.731235 -2.91674 0
M  V30 145 C 18.314 0.82473 -3.01939 0
M  V30 146 C 18.789 0.975522 -4.4749 0
M  V30 147 N 20.28 1.04083 -4.51354 0
M  V30 148 C 21.015 1.17646 -5.61201 0
M  V30 149 N 20.511 1.27874 -6.80896 0
M  V30 150 N 22.304 1.20823 -5.48961 0
M  V30 151 H 14.455 -0.575456 -2.04456 0
M  V30 152 H 16.718 -0.196099 -0.927496 0
M  V30 153 H 16.424 -0.138392 -3.51428 0
M  V30 154 H 16.298 1.60883 -3.41169 0
M  V30 155 H 18.685 1.68482 -2.42276 0
M  V30 156 H 18.766 -0.0776479 -2.55682 0
M  V30 157 H 18.41 0.120058 -5.07758 0
M  V30 158 H 18.34 1.89268 -4.91412 0
M  V30 159 H 20.831 0.973846 -3.65136 0
M  V30 160 H 21.144 1.38081 -7.60364 0
M  V30 161 H 19.489 1.24863 -6.83692 0
M  V30 162 H 22.68 1.12469 -4.54388 0
M  V30 163 H 22.853 1.31049 -6.3461 0
M  V30 164 N 16.2591 1.48442 0.529413 0
M  V30 165 C 17.1911 1.59095 1.64989 0
M  V30 166 C 18.2041 0.475212 1.5571 0
M  V30 167 O 19.3931 0.746081 1.6216 0
M  V30 168 C 16.4931 1.50518 3.0364 0
M  V30 169 C 15.6661 2.77142 3.38395 0
M  V30 170 C 14.7251 2.62012 4.56329 0
M  V30 171 O 13.7511 3.35898 4.59522 0
M  V30 172 N 14.9531 1.71667 5.54536 0
M  V30 173 H 17.7181 2.55723 1.56287 0
M  V30 174 H 15.2791 1.45173 0.716697 0
M  V30 175 H 17.2711 1.38091 3.80412 0
M  V30 176 H 15.8411 0.618627 3.06418 0
M  V30 177 H 15.0611 3.0413 2.50796 0
M  V30 178 H 16.3491 3.61146 3.58401 0
M  V30 179 H 15.7471 1.10841 5.54735 0
M  V30 180 H 14.3041 1.65178 6.30523 0
M  V30 181 N 17.7372 -0.778329 1.37039 0
M  V30 182 C 18.6842 -1.89139 1.32269 0
M  V30 183 C 19.6542 -1.65017 0.189387 0
M  V30 184 O 20.8392 -1.87024 0.377693 0
M  V30 185 C 17.9792 -3.26112 1.12894 0
M  V30 186 C 17.0922 -3.62233 2.35396 0
M  V30 187 C 16.2272 -4.8838 2.08946 0
M  V30 188 C 15.2662 -5.17212 3.2735 0
M  V30 189 N 14.4032 -6.34546 3.00492 0
M  V30 190 H 19.2432 -1.92552 2.27437 0
M  V30 191 H 16.7802 -0.941473 1.13025 0
M  V30 192 H 18.7382 -4.05116 0.996835 0
M  V30 193 H 17.3682 -3.22091 0.213758 0
M  V30 194 H 16.4202 -2.78265 2.5937 0
M  V30 195 H 17.7322 -3.79481 3.23721 0
M  V30 196 H 16.8862 -5.75274 1.92729 0
M  V30 197 H 15.6252 -4.73222 1.17949 0
M  V30 198 H 14.6302 -4.28796 3.44113 0
M  V30 199 H 15.8552 -5.34283 4.19188 0
M  V30 200 H 13.8012 -6.20759 2.12118 0
M  V30 201 H 13.7182 -6.52179 3.82358 0
M  V30 202 H 14.9862 -7.24394 2.87879 0
M  V30 203 N 19.2153 -1.21501 -1.00376 0
M  V30 204 C 20.1253 -0.991447 -2.12621 0
M  V30 205 C 21.1413 0.0568446 -1.73907 0
M  V30 206 O 22.3173 -0.13348 -2.00957 0
M  V30 207 C 19.3823 -0.560312 -3.42142 0
M  V30 208 C 18.4433 -1.68096 -3.95022 0
M  V30 209 C 17.6763 -1.2703 -5.18362 0
M  V30 210 O 17.8993 -0.144438 -5.70217 0
M  V30 211 O 16.8333 -2.08269 -5.64719 0
M  V30 212 H 20.6593 -1.93158 -2.34358 0
M  V30 213 H 18.2443 -0.999999 -1.10997 0
M  V30 214 H 20.1263 -0.329724 -4.20108 0
M  V30 215 H 18.8013 0.351089 -3.2179 0
M  V30 216 H 17.7083 -1.96597 -3.18278 0
M  V30 217 H 19.0413 -2.56983 -4.19786 0
M  V30 218 N 20.6934 1.19889 -1.02296 0
M  V30 219 C 21.6564 2.21116 -0.603351 0
M  V30 220 C 22.6564 1.5738 0.329884 0
M  V30 221 O 23.8464 1.73802 0.117702 0
M  V30 222 C 20.9784 3.40696 0.117992 0
M  V30 223 H 22.1714 2.59754 -1.49893 0
M  V30 224 H 19.7244 1.33463 -0.813468 0
M  V30 225 H 20.4594 3.07569 1.0282 0
M  V30 226 H 20.2444 3.88188 -0.552511 0
M  V30 227 H 21.7344 4.15692 0.398696 0
M  V30 228 N 22.1715 0.800033 1.35784 0
M  V30 229 C 23.1015 0.220184 2.3246 0
M  V30 230 C 24.0825 -0.65073 1.57161 0
M  V30 231 O 25.2675 -0.582359 1.85263 0
M  V30 232 C 22.3975 -0.637353 3.41402 0
M  V30 233 C 21.3515 0.134531 4.27789 0
M  V30 234 C 20.6775 -0.844285 5.27992 0
M  V30 235 C 21.9775 1.32979 5.05088 0
M  V30 236 H 23.6715 1.02787 2.81203 0
M  V30 237 H 21.2175 0.495717 1.35199 0
M  V30 238 H 23.1705 -1.05302 4.08031 0
M  V30 239 H 21.8945 -1.47785 2.91251 0
M  V30 240 H 20.5535 0.531296 3.6273 0
M  V30 241 H 20.2015 -1.68011 4.74111 0
M  V30 242 H 19.9015 -0.332184 5.8666 0
M  V30 243 H 21.4255 -1.2583 5.97494 0
M  V30 244 H 22.8395 0.98934 5.64699 0
M  V30 245 H 21.2365 1.77593 5.7322 0
M  V30 246 H 22.3065 2.11978 4.36111 0
M  V30 247 N 23.6496 -1.47581 0.552962 0
M  V30 248 C 24.6126 -2.28439 -0.186605 0
M  V30 249 C 25.6126 -1.36706 -0.84665 0
M  V30 250 O 26.8026 -1.59378 -0.703164 0
M  V30 251 C 23.9346 -3.16264 -1.2724 0
M  V30 252 H 25.1276 -2.95294 0.523609 0
M  V30 253 H 22.6806 -1.532 0.309745 0
M  V30 254 H 23.4156 -2.54091 -2.01514 0
M  V30 255 H 23.2006 -3.83769 -0.803968 0
M  V30 256 H 24.6906 -3.77198 -1.79196 0
M  V30 257 N 25.1277 -0.289203 -1.54924 0
M  V30 258 C 26.0747 0.592115 -2.23075 0
M  V30 259 C 27.0447 1.13881 -1.20915 0
M  V30 260 O 28.2297 1.18551 -1.495 0
M  V30 261 C 25.3697 1.76376 -2.96623 0
M  V30 262 C 24.4827 1.24959 -4.13533 0
M  V30 263 C 23.6177 2.38416 -4.74691 0
M  V30 264 C 22.6567 1.84072 -5.83767 0
M  V30 265 N 21.7937 2.91057 -6.38929 0
M  V30 266 H 26.6337 0.00432038 -2.98 0
M  V30 267 H 24.1707 -0.00963529 -1.47097 0
M  V30 268 H 26.1287 2.45268 -3.3749 0
M  V30 269 H 24.7587 2.32337 -2.24097 0
M  V30 270 H 23.8107 0.453307 -3.77689 0
M  V30 271 H 25.1227 0.811662 -4.92152 0
M  V30 272 H 24.2767 3.15276 -5.18349 0
M  V30 273 H 23.0157 2.8553 -3.95378 0
M  V30 274 H 22.0207 1.05697 -5.39545 0
M  V30 275 H 23.2457 1.37877 -6.64956 0
M  V30 276 H 21.1917 3.37526 -5.62505 0
M  V30 277 H 21.1087 2.51724 -7.12861 0
M  V30 278 H 22.3767 3.6785 -6.87246 0
M  V30 279 N 26.6058 1.57591 -0.0167156 0
M  V30 280 C 27.8528 1.91283 0.664597 0
M  V30 281 C 28.1808 0.891949 1.72842 0
M  V30 282 O 27.4358 -0.100931 1.9544 0
M  V30 283 C 27.7348 3.3172 1.33029 0
M  V30 284 C 27.4008 4.4914 0.398047 0
M  V30 285 C 26.0628 4.80992 0.141421 0
M  V30 286 C 28.4148 5.20634 -0.242825 0
M  V30 287 C 25.7428 5.81703 -0.764092 0
M  V30 288 C 28.0948 6.22311 -1.13632 0
M  V30 289 C 26.7588 6.52611 -1.40196 0
M  V30 290 H 26.0288 0.699956 0.243193 0
M  V30 291 H 28.6758 1.9135 -0.0758267 0
M  V30 292 H 26.9808 3.27856 2.14517 0
M  V30 293 H 28.6778 3.55055 1.86379 0
M  V30 294 H 25.2678 4.24262 0.608238 0
M  V30 295 H 29.4518 4.96267 -0.0576019 0
M  V30 296 H 24.7078 6.03532 -0.977732 0
M  V30 297 H 28.8818 6.76834 -1.63917 0
M  V30 298 H 26.5088 7.30467 -2.10529 0
M  V30 299 N 28.0839 -0.256276 1.55502 0
M  V30 300 C 29.4999 -0.604325 1.47716 0
M  V30 301 C 29.6999 -1.88763 0.705039 0
M  V30 302 O 28.7559 -2.51445 0.230613 0
M  V30 303 C 30.0689 -0.715756 2.92057 0
M  V30 304 C 31.6169 -0.808706 3.02372 0
M  V30 305 C 32.0919 -0.951777 4.48001 0
M  V30 306 N 33.5829 -1.01688 4.519 0
M  V30 307 C 34.3179 -1.14668 5.61817 0
M  V30 308 N 33.8139 -1.24261 6.81565 0
M  V30 309 N 35.6069 -1.1791 5.49594 0
M  V30 310 H 27.7579 0.586291 2.04148 0
M  V30 311 H 30.0209 0.201015 0.926443 0
M  V30 312 H 29.7269 0.157027 3.51349 0
M  V30 313 H 29.6009 -1.59071 3.42018 0
M  V30 314 H 31.9879 -1.67195 2.43166 0
M  V30 315 H 32.0689 0.0912063 2.55637 0
M  V30 316 H 31.7129 -0.0931291 5.07815 0
M  V30 317 H 31.6429 -1.86659 4.92408 0
M  V30 318 H 34.1339 -0.954468 3.65648 0
M  V30 319 H 34.4469 -1.34046 7.61086 0
M  V30 320 H 32.7919 -1.21236 6.84344 0
M  V30 321 H 35.9829 -1.10057 4.54978 0
M  V30 322 H 36.1559 -1.27681 6.35296 0
M  V30 323 N 29.562 -1.4872 -0.521534 0
M  V30 324 C 30.472 -1.66569 -1.65203 0
M  V30 325 C 31.488 -0.548197 -1.65139 0
M  V30 326 O 32.664 -0.820339 -1.83936 0
M  V30 327 C 29.729 -1.70917 -3.01642 0
M  V30 328 C 28.79 -2.94356 -3.12495 0
M  V30 329 C 28.023 -2.98487 -4.42426 0
M  V30 330 O 28.246 -2.10786 -5.30024 0
M  V30 331 O 27.18 -3.90746 -4.57822 0
M  V30 332 H 31.006 -2.62298 -1.5308 0
M  V30 333 H 28.591 -1.3222 -0.695565 0
M  V30 334 H 30.473 -1.7625 -3.82771 0
M  V30 335 H 29.148 -0.783633 -3.14071 0
M  V30 336 H 28.055 -2.94552 -2.3063 0
M  V30 337 H 29.388 -3.86322 -3.04986 0
M  V30 338 N 31.0401 0.771051 -1.3745 0
M  V30 339 C 31.9881 1.90574 -1.33358 0
M  V30 340 C 32.9821 1.67936 -0.22224 0
M  V30 341 O 34.1881 1.75717 -0.390304 0
M  V30 342 H 30.5631 0.626714 -0.415612 0
M  V30 343 H 32.5341 1.91142 -2.29144 0
M  V30 344 C 31.2831 3.27845 -1.15813 0
M  V30 345 H 30.6061 3.45842 -2.00583 0
M  V30 346 H 32.0461 4.07538 -1.17 0
M  V30 347 C 30.5051 3.36625 0.136165 0
M  V30 348 O 31.0351 3.85785 1.11949 0
M  V30 349 N 29.2411 2.89997 0.187099 0
M  V30 350 H 28.7881 2.50182 -0.613753 0
M  V30 351 H 28.7461 2.96252 1.05272 0
M  V30 352 N 32.5182 1.22032 0.997298 0
M  V30 353 C 33.7642 1.04376 1.73878 0
M  V30 354 C 34.0972 -0.420716 1.89588 0
M  V30 355 O 33.3722 -1.31202 1.43583 0
M  V30 356 C 33.6552 1.75047 3.14691 0
M  V30 357 C 33.5082 3.29062 3.06656 0
M  V30 358 C 34.8272 1.49928 4.13775 0
M  V30 359 H 31.9462 0.380578 0.631133 0
M  V30 360 H 34.5882 1.50312 1.16217 0
M  V30 361 H 32.7382 1.35996 3.63919 0
M  V30 362 H 34.4102 3.7753 2.65083 0
M  V30 363 H 32.6532 3.58967 2.43568 0
M  V30 364 H 33.3242 3.73683 4.06282 0
M  V30 365 H 35.8002 1.83842 3.73285 0
M  V30 366 H 34.6762 2.01878 5.10428 0
M  V30 367 H 34.9372 0.430929 4.39995 0
M  V30 368 N 33.9963 -1.19345 1.0293 0
M  V30 369 C 34.9283 -2.22036 0.56857 0
M  V30 370 C 35.9413 -1.58865 -0.355779 0
M  V30 371 O 37.1303 -1.77851 -0.152103 0
M  V30 372 C 34.2303 -3.38363 -0.190752 0
M  V30 373 C 33.4033 -4.31118 0.738643 0
M  V30 374 C 32.4623 -5.26194 0.0246497 0
M  V30 375 O 31.4883 -5.65461 0.651354 0
M  V30 376 N 32.6903 -5.66971 -1.24594 0
M  V30 377 H 35.4553 -2.6219 1.45177 0
M  V30 378 H 33.0163 -1.34015 0.908381 0
M  V30 379 H 35.0083 -3.98981 -0.677961 0
M  V30 380 H 33.5783 -2.96994 -0.975366 0
M  V30 381 H 32.7983 -3.68276 1.40593 0
M  V30 382 H 34.0863 -4.90001 1.37029 0
M  V30 383 H 33.4843 -5.37104 -1.77583 0
M  V30 384 H 32.0413 -6.2984 -1.67764 0
M  V30 385 N 35.4744 -0.807222 -1.35358 0
M  V30 386 C 36.7514 -0.311126 -1.9311 0
M  V30 387 C 37.1314 1.19937 -1.73719 0
M  V30 388 O 36.4794 1.99918 -1.10657 0
M  V30 389 C 36.6894 -0.723226 -3.41424 0
M  V30 390 C 38.0374 -0.713078 -4.18569 0
M  V30 391 O 39.0614 -0.664811 -3.49941 0
M  V30 392 O 37.9204 -0.772022 -5.41019 0
M  V30 393 H 35.0144 -0.081526 -0.822972 0
M  V30 394 H 37.5604 -0.890962 -1.4443 0
M  V30 395 H 36.3324 -1.76426 -3.4927 0
M  V30 396 H 35.9554 -0.118232 -3.97424 0
M  V30 397 N 36.9525 1.47285 -0.560781 0
M  V30 398 C 38.1985 2.02764 -0.0381184 0
M  V30 399 C 38.5315 1.43384 1.30976 0
M  V30 400 O 37.8065 0.590733 1.85312 0
M  V30 401 C 38.0895 3.60064 0.0511427 0
M  V30 402 C 37.9425 4.2987 -1.32408 0
M  V30 403 C 39.2615 4.33439 0.762795 0
M  V30 404 H 36.3805 0.736841 -0.0153264 0
M  V30 405 H 39.0225 1.75675 -0.723759 0
M  V30 406 H 37.1725 3.83274 0.635065 0
M  V30 407 H 38.8445 4.17989 -1.95148 0
M  V30 408 H 37.0875 3.90085 -1.8978 0
M  V30 409 H 37.7585 5.38478 -1.21431 0
M  V30 410 H 40.2345 4.15243 0.266965 0
M  V30 411 H 39.1105 5.43124 0.794221 0
M  V30 412 H 39.3715 4.02915 1.81966 0
M  V30 413 N 38.4306 0.297415 1.54768 0
M  V30 414 C 39.3606 -0.573494 2.26348 0
M  V30 415 C 40.3416 -1.14085 1.26169 0
M  V30 416 O 41.5266 -1.17086 1.54934 0
M  V30 417 C 38.6566 -1.74716 3.00153 0
M  V30 418 C 37.6106 -1.31032 4.07449 0
M  V30 419 C 36.9366 -2.56887 4.68949 0
M  V30 420 C 38.2366 -0.444183 5.20408 0
M  V30 421 H 39.9306 0.0235131 2.99391 0
M  V30 422 H 37.4766 0.0127488 1.43994 0
M  V30 423 H 39.4296 -2.3625 3.48947 0
M  V30 424 H 38.1536 -2.37035 2.24682 0
M  V30 425 H 36.8126 -0.718066 3.59499 0
M  V30 426 H 36.4606 -3.17512 3.90122 0
M  V30 427 H 36.1606 -2.2836 5.41411 0
M  V30 428 H 37.6846 -3.19229 5.20505 0
M  V30 429 H 39.0986 -0.9651 5.65118 0
M  V30 430 H 37.4956 -0.252846 5.99567 0
M  V30 431 H 38.5656 0.531609 4.81977 0
M  V30 432 N 39.9087 -1.5758 0.0250728 0
M  V30 433 C 41.3197 -1.79476 -0.514323 0
M  V30 434 C 41.6707 -0.934956 -1.72491 0
M  V30 435 O 40.7957 -0.144245 -2.15919 0
M  V30 436 C 41.3907 -3.25503 -0.939842 0
M  V30 437 C 39.9497 -3.48408 -1.42438 0
M  V30 438 C 39.0967 -2.74583 -0.387201 0
M  V30 439 H 42.0477 -1.567 0.25113 0
M  V30 440 H 42.0687 -3.34992 -1.80445 0
M  V30 441 H 41.5807 -3.88056 -0.0585628 0
M  V30 442 H 39.6817 -2.91103 -2.32572 0
M  V30 443 H 39.7947 -4.57119 -1.43455 0
M  V30 444 H 38.1587 -2.39942 -0.854409 0
M  V30 445 H 38.9417 -3.39849 0.485543 0
M  V30 446 N 41.3868 0.248026 -1.55636 0
M  V30 447 C 42.3498 1.29044 -1.89421 0
M  V30 448 C 43.3498 1.41134 -0.770581 0
M  V30 449 O 44.5398 1.39854 -1.03858 0
M  V30 450 C 41.6718 2.66831 -2.12165 0
M  V30 451 H 42.8648 1.00305 -2.82629 0
M  V30 452 H 40.4178 0.487265 -1.48511 0
M  V30 453 H 41.1528 3.00711 -1.21422 0
M  V30 454 H 40.9378 2.59438 -2.93997 0
M  V30 455 H 42.4278 3.42103 -2.3949 0
M  V30 456 N 42.8649 1.48995 0.513639 0
M  V30 457 C 43.7949 1.67636 1.62544 0
M  V30 458 C 44.7759 0.525087 1.61793 0
M  V30 459 O 45.9609 0.759502 1.78732 0
M  V30 460 C 43.0909 1.73114 3.01079 0
M  V30 461 C 42.0449 2.87905 3.16693 0
M  V30 462 C 41.3709 2.78486 4.56453 0
M  V30 463 C 42.6709 4.29005 2.97913 0
M  V30 464 H 44.3649 2.60716 1.47198 0
M  V30 465 H 41.9109 1.25465 0.706714 0
M  V30 466 H 43.8639 1.84742 3.78746 0
M  V30 467 H 42.5879 0.766241 3.17484 0
M  V30 468 H 41.2469 2.75859 2.41448 0
M  V30 469 H 40.8949 1.7993 4.69717 0
M  V30 470 H 40.5949 3.55523 4.67843 0
M  V30 471 H 42.1189 2.92104 5.36197 0
M  V30 472 H 43.5329 4.41798 3.65359 0
M  V30 473 H 41.9299 5.07166 3.20785 0
M  V30 474 H 42.9999 4.44329 1.94165 0
M  V30 475 N 44.343 -0.763751 1.37857 0
M  V30 476 C 45.754 -1.3405 1.29952 0
M  V30 477 C 46.105 -1.96138 -0.0492898 0
M  V30 478 O 45.23 -1.94372 -0.951239 0
M  V30 479 C 45.825 -2.43729 2.35333 0
M  V30 480 C 44.384 -2.97151 2.31037 0
M  V30 481 C 43.531 -1.70438 2.18738 0
M  V30 482 H 46.482 -0.563396 1.48363 0
M  V30 483 H 46.503 -3.23412 2.00462 0
M  V30 484 H 46.015 -1.9851 3.33489 0
M  V30 485 H 44.116 -3.46724 1.3643 0
M  V30 486 H 44.229 -3.52221 3.24772 0
M  V30 487 H 42.593 -1.93673 1.65418 0
M  V30 488 H 43.376 -1.27312 3.18821 0
M  V30 489 N 45.8211 -1.22559 -0.990812 0
M  V30 490 C 46.7691 -0.994798 -2.10253 0
M  V30 491 C 47.7631 0.0627798 -1.69284 0
M  V30 492 O 48.9691 -0.0898392 -1.79776 0
M  V30 493 H 45.3441 -0.304527 -0.687581 0
M  V30 494 H 47.3151 -1.93812 -2.26891 0
M  V30 495 C 46.0641 -0.591439 -3.42633 0
M  V30 496 H 45.3871 -1.3969 -3.74602 0
M  V30 497 H 46.8271 -0.469385 -4.21394 0
M  V30 498 C 45.2861 0.699232 -3.29564 0
M  V30 499 O 45.8161 1.75112 -3.61523 0
M  V30 500 N 44.0221 0.671182 -2.82743 0
M  V30 501 H 43.5691 -0.185136 -2.56934 0
M  V30 502 H 43.5271 1.53502 -2.7438 0
M  V30 503 N 47.2992 1.18797 -1.03562 0
M  V30 504 C 48.7102 1.70322 -0.764676 0
M  V30 505 C 49.0612 1.82708 0.714996 0
M  V30 506 O 48.1862 1.50299 1.55689 0
M  V30 507 C 48.7812 3.09356 -1.38145 0
M  V30 508 C 47.3402 3.58114 -1.15895 0
M  V30 509 C 46.4872 2.34798 -1.4753 0
M  V30 510 H 49.4382 1.03543 -1.20268 0
M  V30 511 H 49.4592 3.72378 -0.781977 0
M  V30 512 H 48.9712 3.00309 -2.45837 0
M  V30 513 H 47.0722 3.72464 -0.100544 0
M  V30 514 H 47.1852 4.4184 -1.8524 0
M  V30 515 H 45.5492 2.38464 -0.894829 0
M  V30 516 H 46.3322 2.28375 -2.56319 0
M  V30 517 N 48.7773 0.814389 1.34928 0
M  V30 518 C 50.0543 0.321363 1.92942 0
M  V30 519 C 50.4343 -1.19014 1.74353 0
M  V30 520 O 49.7823 -1.99328 1.11716 0
M  V30 521 C 49.9923 0.741323 3.41036 0
M  V30 522 C 51.3403 0.735266 4.18185 0
M  V30 523 O 52.3643 0.68336 3.49584 0
M  V30 524 O 51.2233 0.800703 5.40602 0
M  V30 525 H 48.3173 0.0858893 0.822528 0
M  V30 526 H 50.8633 0.898609 1.43955 0
M  V30 527 H 49.6353 1.78276 3.4833 0
M  V30 528 H 49.2583 0.139307 3.97356 0
M  V30 529 N 50.2554 -1.46986 0.568584 0
M  V30 530 C 51.5324 -1.95592 -0.0174074 0
M  V30 531 C 51.9124 -1.51124 -1.47393 0
M  V30 532 O 51.2604 -0.755329 -2.15655 0
M  V30 533 C 51.4704 -3.48719 0.139913 0
M  V30 534 C 52.8184 -4.246 0.000426376 0
M  V30 535 O 53.8424 -3.56135 0.0680316 0
M  V30 536 O 52.7014 -5.46302 -0.146988 0
M  V30 537 H 49.7954 -0.82498 -0.0577599 0
M  V30 538 H 52.3414 -1.57335 0.635909 0
M  V30 539 H 51.1134 -3.73927 1.15301 0
M  V30 540 H 50.7364 -3.93771 -0.550491 0
M  V30 541 N 51.7335 -0.305618 -1.54608 0
M  V30 542 C 52.9635 0.304333 -2.04346 0
M  V30 543 C 53.3715 1.47715 -1.18224 0
M  V30 544 O 52.7145 1.82591 -0.201577 0
M  V30 545 C 52.7765 0.819031 -3.50046 0
M  V30 546 C 52.4405 -0.22912 -4.56425 0
M  V30 547 C 53.4375 -1.05914 -5.08997 0
M  V30 548 C 51.1225 -0.372148 -5.0092 0
M  V30 549 C 53.1165 -2.01809 -6.04609 0
M  V30 550 C 50.8035 -1.33454 -5.9635 0
M  V30 551 C 51.8015 -2.15599 -6.48079 0
M  V30 552 O 51.4895 -3.10205 -7.41639 0
M  V30 553 H 51.2215 0.0693996 -0.672428 0
M  V30 554 H 53.7755 -0.444548 -2.00532 0
M  V30 555 H 52.0055 1.61852 -3.51199 0
M  V30 556 H 53.6945 1.34537 -3.82955 0
M  V30 557 H 54.4605 -0.959538 -4.75413 0
M  V30 558 H 50.3395 0.257304 -4.60281 0
M  V30 559 H 53.8835 -2.65966 -6.44909 0
M  V30 560 H 49.7805 -1.43485 -6.29351 0
M  V30 561 H 50.5485 -3.05237 -7.59455 0
M  V30 562 N 53.2116 1.57565 -0.0334293 0
M  V30 563 C 54.4586 1.91978 0.644272 0
M  V30 564 C 54.7866 0.910231 1.71887 0
M  V30 565 O 54.0416 -0.0801961 1.95536 0
M  V30 566 C 54.3406 3.33112 1.29504 0
M  V30 567 C 54.0066 4.49537 0.350388 0
M  V30 568 C 52.6686 4.81115 0.0903974 0
M  V30 569 C 55.0206 5.20347 -0.298032 0
M  V30 570 C 52.3486 5.8086 -0.825746 0
M  V30 571 C 54.7006 6.2107 -1.20226 0
M  V30 572 C 53.3646 6.51088 -1.4711 0
M  V30 573 H 52.6346 0.702496 0.235756 0
M  V30 574 H 55.2816 1.91259 -0.0961176 0
M  V30 575 H 53.5866 3.30113 2.11028 0
M  V30 576 H 55.2836 3.57011 1.82603 0
M  V30 577 H 51.8736 4.24883 0.563205 0
M  V30 578 H 56.0576 4.96178 -0.110234 0
M  V30 579 H 51.3136 6.02461 -1.04169 0
M  V30 580 H 55.4876 6.75057 -1.71086 0
M  V30 581 H 53.1146 7.28193 -2.18264 0
M  V30 582 N 54.6897 -0.239769 1.55765 0
M  V30 583 C 55.6197 -1.30052 1.9393 0
M  V30 584 C 56.6007 -1.49839 0.805132 0
M  V30 585 O 57.7857 -1.62328 1.06599 0
M  V30 586 C 54.9157 -2.65391 2.2402 0
M  V30 587 C 53.8697 -2.60289 3.39755 0
M  V30 588 C 53.1957 -3.99489 3.55405 0
M  V30 589 C 54.4957 -2.16654 4.75246 0
M  V30 590 H 56.1897 -0.983573 2.82783 0
M  V30 591 H 53.7357 -0.471701 1.36055 0
M  V30 592 H 55.6887 -3.3974 2.49308 0
M  V30 593 H 54.4127 -2.98736 1.32 0
M  V30 594 H 53.0717 -1.88398 3.14487 0
M  V30 595 H 52.7197 -4.30112 2.60793 0
M  V30 596 H 52.4197 -3.96962 4.33238 0
M  V30 597 H 53.9437 -4.75528 3.83022 0
M  V30 598 H 55.3577 -2.80737 4.99859 0
M  V30 599 H 53.7547 -2.25223 5.56232 0
M  V30 600 H 54.8247 -1.11835 4.71827 0
M  V30 601 N 56.1678 -1.49265 -0.50573 0
M  V30 602 C 57.0978 -1.68495 -1.61653 0
M  V30 603 C 58.0788 -0.53366 -1.61512 0
M  V30 604 O 59.2638 -0.76897 -1.78327 0
M  V30 605 C 56.3938 -1.74709 -3.00157 0
M  V30 606 C 55.3478 -2.89581 -3.15162 0
M  V30 607 C 54.6738 -2.80903 -4.5497 0
M  V30 608 C 55.9738 -4.30578 -2.95634 0
M  V30 609 H 57.6678 -2.61493 -1.45814 0
M  V30 610 H 55.2138 -1.25838 -0.70005 0
M  V30 611 H 57.1668 -1.86748 -3.77761 0
M  V30 612 H 55.8908 -0.783067 -3.17074 0
M  V30 613 H 54.5498 -2.77136 -2.39982 0
M  V30 614 H 54.1978 -1.82419 -4.68756 0
M  V30 615 H 53.8978 -3.57999 -4.65951 0
M  V30 616 H 55.4218 -2.94944 -5.34641 0
M  V30 617 H 56.8358 -4.4373 -3.63011 0
M  V30 618 H 55.2328 -5.0886 -3.18091 0
M  V30 619 H 56.3028 -4.45352 -1.91806 0
M  V30 620 N 57.6459 0.756429 -1.3826 0
M  V30 621 C 59.0619 1.0591 -1.19395 0
M  V30 622 C 59.2619 2.01459 -0.0406567 0
M  V30 623 O 58.3179 2.44909 0.614467 0
M  V30 624 C 59.6309 1.64191 -2.51916 0
M  V30 625 C 61.1789 1.76376 -2.58574 0
M  V30 626 C 61.6539 2.38069 -3.91264 0
M  V30 627 N 63.1449 2.45503 -3.92788 0
M  V30 628 C 63.8799 2.94126 -4.92217 0
M  V30 629 N 63.3759 3.42805 -6.02043 0
M  V30 630 N 65.1689 2.9314 -4.7961 0
M  V30 631 H 57.3199 0.122313 -2.12048 0
M  V30 632 H 59.5829 0.116892 -0.940766 0
M  V30 633 H 59.2889 1.01451 -3.3675 0
M  V30 634 H 59.1629 2.6329 -2.70108 0
M  V30 635 H 61.5499 2.38244 -1.74137 0
M  V30 636 H 61.6309 0.759894 -2.44252 0
M  V30 637 H 61.2749 1.76835 -4.76121 0
M  V30 638 H 61.2049 3.39091 -4.02895 0
M  V30 639 H 63.6959 2.1107 -3.13461 0
M  V30 640 H 64.0089 3.78354 -6.73846 0
M  V30 641 H 62.3539 3.4087 -6.05667 0
M  V30 642 H 65.5449 2.54419 -3.92923 0
M  V30 643 H 65.7179 3.30721 -5.5725 0
M  V30 644 N 59.124 1.23083 0.984299 0
M  V30 645 C 60.37 1.07221 1.72845 0
M  V30 646 C 60.725 -0.387453 1.88458 0
M  V30 647 O 60.018 -1.28309 1.42293 0
M  V30 648 C 60.212 1.72673 3.1292 0
M  V30 649 C 60.041 3.24853 3.10967 0
M  V30 650 C 58.811 3.93998 3.16376 0
M  V30 651 C 61.009 4.21674 2.94441 0
M  V30 652 N 58.991 5.33192 3.04268 0
M  V30 653 C 60.362 5.47756 2.90453 0
M  V30 654 C 62.417 4.12457 2.78897 0
M  V30 655 C 61.12 6.6568 2.72512 0
M  V30 656 C 63.146 5.3004 2.62319 0
M  V30 657 C 62.508 6.55046 2.59026 0
M  V30 658 H 58.607 0.44685 0.641755 0
M  V30 659 H 61.191 1.55753 1.16829 0
M  V30 660 H 59.362 1.26679 3.67161 0
M  V30 661 H 61.094 1.49824 3.75945 0
M  V30 662 H 57.849 3.45052 3.24401 0
M  V30 663 H 58.273 6.06157 3.015 0
M  V30 664 H 62.915 3.16588 2.80235 0
M  V30 665 H 60.633 7.61689 2.69919 0
M  V30 666 H 64.219 5.24747 2.5126 0
M  V30 667 H 63.099 7.44498 2.46357 0
M  V30 668 N 60.6021 -1.18246 1.0419 0
M  V30 669 C 61.5321 -2.24127 0.654914 0
M  V30 670 C 62.5131 -1.66617 -0.342451 0
M  V30 671 O 63.6981 -1.92924 -0.222277 0
M  V30 672 C 60.8281 -3.47295 0.0183757 0
M  V30 673 C 59.7821 -4.17563 0.939414 0
M  V30 674 C 59.1081 -5.34438 0.167286 0
M  V30 675 C 60.4081 -4.70917 2.25908 0
M  V30 676 H 62.1021 -2.56753 1.54007 0
M  V30 677 H 59.6481 -1.23414 0.74195 0
M  V30 678 H 61.6011 -4.20572 -0.264082 0
M  V30 679 H 60.3251 -3.13907 -0.901664 0
M  V30 680 H 58.9841 -3.46186 1.20628 0
M  V30 681 H 58.6321 -4.97298 -0.7552 0
M  V30 682 H 58.3321 -5.82388 0.780901 0
M  V30 683 H 59.8561 -6.10504 -0.108125 0
M  V30 684 H 61.2701 -5.35882 2.03724 0
M  V30 685 H 59.6671 -5.29406 2.82577 0
M  V30 686 H 60.7371 -3.88272 2.9047 0
M  V30 687 N 62.0802 -0.821533 -1.34494 0
M  V30 688 C 63.4962 -0.507117 -1.51329 0
M  V30 689 C 63.6962 0.968964 -1.76673 0
M  V30 690 O 62.7522 1.75348 -1.81685 0
M  V30 691 C 64.0652 -1.36544 -2.67911 0
M  V30 692 C 65.6132 -1.36242 -2.81793 0
M  V30 693 C 66.0882 -2.2052 -4.01416 0
M  V30 694 N 67.5792 -2.18136 -4.08621 0
M  V30 695 C 68.3142 -2.80095 -5.00334 0
M  V30 696 N 67.8102 -3.51039 -5.9728 0
M  V30 697 N 69.6032 -2.69656 -4.93196 0
M  V30 698 H 61.7542 -1.77729 -1.16302 0
M  V30 699 H 64.0172 -0.757291 -0.570276 0
M  V30 700 H 63.7232 -2.41361 -2.55808 0
M  V30 701 H 63.5972 -1.02917 -3.62888 0
M  V30 702 H 65.9842 -0.322041 -2.93338 0
M  V30 703 H 66.0652 -1.73866 -1.87628 0
M  V30 704 H 65.7092 -3.24607 -3.90631 0
M  V30 705 H 65.6392 -1.80247 -4.94791 0
M  V30 706 H 68.1302 -1.6653 -3.39229 0
M  V30 707 H 68.4432 -3.95565 -6.63889 0
M  V30 708 H 66.7882 -3.55145 -5.97409 0
M  V30 709 H 69.9792 -2.13808 -4.16418 0
M  V30 710 H 70.1522 -3.1823 -5.64476 0
M  V30 711 N 63.5583 1.46682 -0.576371 0
M  V30 712 C 64.5213 2.28707 0.150239 0
M  V30 713 C 65.5213 1.38035 0.824794 0
M  V30 714 O 66.7113 1.60476 0.677719 0
M  V30 715 C 63.8433 3.18248 1.22192 0
M  V30 716 H 65.0363 2.94423 -0.570521 0
M  V30 717 H 62.5893 1.52688 -0.334078 0
M  V30 718 H 63.3243 2.57265 1.97447 0
M  V30 719 H 63.1093 3.85 0.742812 0
M  V30 720 H 64.5993 3.80001 1.73172 0
M  V30 721 N 65.0364 0.313813 1.54444 0
M  V30 722 C 66.4524 -0.0391619 1.59552 0
M  V30 723 C 66.6524 -1.51322 1.33056 0
M  V30 724 O 65.7084 -2.26782 1.11022 0
M  V30 725 C 67.0214 0.370302 2.98411 0
M  V30 726 C 68.5694 0.320139 3.11358 0
M  V30 727 C 69.0444 0.704617 4.52547 0
M  V30 728 N 70.5354 0.657645 4.58508 0
M  V30 729 C 71.2704 0.927453 5.6585 0
M  V30 730 N 70.7664 1.26389 6.81174 0
M  V30 731 N 72.5594 0.853662 5.5558 0
M  V30 732 H 64.7104 1.27433 1.69925 0
M  V30 733 H 66.9734 0.517511 0.794284 0
M  V30 734 H 66.6794 1.39694 3.22767 0
M  V30 735 H 66.5534 -0.269619 3.76235 0
M  V30 736 H 68.9404 -0.697275 2.86744 0
M  V30 737 H 69.0214 0.99486 2.35661 0
M  V30 738 H 68.6654 1.7199 4.77893 0
M  V30 739 H 68.5954 0.00768843 5.26599 0
M  V30 740 H 71.0864 0.409067 3.75679 0
M  V30 741 H 71.3994 1.4554 7.58972 0
M  V30 742 H 69.7444 1.30206 6.82694 0
M  V30 743 H 72.9354 0.590383 4.64362 0
M  V30 744 H 73.1084 1.0673 6.3915 0
M  V30 745 N 66.5145 -1.57545 0.0417849 0
M  V30 746 C 67.7395 -1.97035 -0.647455 0
M  V30 747 C 68.1645 -0.918775 -1.64135 0
M  V30 748 O 67.5225 0.119006 -1.80909 0
M  V30 749 C 67.5705 -3.35609 -1.31905 0
M  V30 750 O 66.6745 -3.3287 -2.43457 0
M  V30 751 H 66.0155 -0.64211 -0.169086 0
M  V30 752 H 68.5455 -2.04318 0.107399 0
M  V30 753 H 68.5555 -3.72126 -1.67291 0
M  V30 754 H 67.2305 -4.11685 -0.590586 0
M  V30 755 H 65.8075 -3.08087 -2.10088 0
M  V30 756 N 67.9926 0.231505 -1.5589 0
M  V30 757 C 69.2396 0.957352 -1.78441 0
M  V30 758 C 69.5676 1.84726 -0.60882 0
M  V30 759 O 68.8226 1.91416 0.40725 0
M  V30 760 C 69.1216 1.83577 -3.0665 0
M  V30 761 C 68.7876 1.09993 -4.37278 0
M  V30 762 C 67.4496 0.896629 -4.72773 0
M  V30 763 C 69.8016 0.579558 -5.17968 0
M  V30 764 C 67.1296 0.160896 -5.86479 0
M  V30 765 C 69.4816 -0.142783 -6.32439 0
M  V30 766 C 68.1456 -0.357427 -6.66542 0
M  V30 767 H 67.4156 0.35032 -0.65296 0
M  V30 768 H 70.0626 0.226259 -1.90159 0
M  V30 769 H 68.3676 2.63441 -2.90011 0
M  V30 770 H 70.0646 2.39934 -3.21298 0
M  V30 771 H 66.6546 1.26835 -4.09403 0
M  V30 772 H 70.8386 0.724125 -4.90989 0
M  V30 773 H 66.0946 -0.0157293 -6.11398 0
M  V30 774 H 70.2686 -0.553559 -6.94196 0
M  V30 775 H 67.8956 -0.929466 -7.54497 0
M  V30 776 N 69.4707 1.49531 0.497807 0
M  V30 777 C 70.7477 1.49682 1.25915 0
M  V30 778 C 71.1277 0.226339 2.09883 0
M  V30 779 O 70.4757 -0.791189 2.14365 0
M  V30 780 C 70.6857 2.77755 2.11313 0
M  V30 781 C 72.0337 3.27371 2.70395 0
M  V30 782 O 73.0577 2.78894 2.21578 0
M  V30 783 O 71.9167 4.11808 3.59272 0
M  V30 784 H 69.0107 0.599228 0.56996 0
M  V30 785 H 71.5567 1.61798 0.511816 0
M  V30 786 H 70.3287 3.61713 1.49264 0
M  V30 787 H 69.9517 2.68515 2.93233 0
M  V30 788 N 70.9488 -0.749086 1.3866 0
M  V30 789 C 71.8788 -1.8764 1.38973 0
M  V30 790 C 72.8598 -1.68178 0.255004 0
M  V30 791 O 74.0448 -1.88704 0.458754 0
M  V30 792 C 71.1748 -3.25222 1.21851 0
M  V30 793 C 70.1288 -3.59295 2.32575 0
M  V30 794 C 69.4548 -4.95663 2.00555 0
M  V30 795 C 70.7548 -3.63709 3.7485 0
M  V30 796 H 72.4488 -1.87635 2.3331 0
M  V30 797 H 69.9948 -0.901329 1.12303 0
M  V30 798 H 71.9478 -4.03746 1.20695 0
M  V30 799 H 70.6718 -3.25719 0.239775 0
M  V30 800 H 69.3308 -2.83093 2.32925 0
M  V30 801 H 68.9788 -4.92724 1.01154 0
M  V30 802 H 68.6788 -5.19429 2.74714 0
M  V30 803 H 70.2028 -5.7656 2.01024 0
M  V30 804 H 71.6168 -4.32338 3.76506 0
M  V30 805 H 70.0138 -3.98986 4.48252 0
M  V30 806 H 71.0838 -2.63834 4.06841 0
M  V30 807 N 72.4269 -1.23603 -0.977757 0
M  V30 808 C 73.3589 -0.977369 -2.07317 0
M  V30 809 C 74.3719 0.0495845 -1.62724 0
M  V30 810 O 75.5609 -0.186261 -1.77526 0
M  V30 811 C 72.6609 -0.451216 -3.35883 0
M  V30 812 C 71.8339 -1.53896 -4.09432 0
M  V30 813 C 70.8929 -1.01721 -5.16274 0
M  V30 814 O 69.9189 -1.70676 -5.43009 0
M  V30 815 N 71.1209 0.153594 -5.80297 0
M  V30 816 H 73.8859 -1.92047 -2.30082 0
M  V30 817 H 71.4469 -1.14497 -1.14465 0
M  V30 818 H 73.4389 -0.0871574 -4.04606 0
M  V30 819 H 72.0089 0.397368 -3.10064 0
M  V30 820 H 71.2289 -2.07566 -3.35127 0
M  V30 821 H 72.5169 -2.27037 -4.55337 0
M  V30 822 H 71.9149 0.730323 -5.60966 0
M  V30 823 H 70.4719 0.458892 -6.50183 0
M  V30 824 N 73.905 1.17692 -1.04816 0
M  V30 825 C 74.852 2.21581 -0.645797 0
M  V30 826 C 75.822 1.62367 0.350159 0
M  V30 827 O 77.007 1.89254 0.242433 0
M  V30 828 C 74.147 3.45092 -0.0227568 0
M  V30 829 C 73.26 4.18613 -1.06709 0
M  V30 830 C 72.395 5.29602 -0.411767 0
M  V30 831 C 71.434 5.94904 -1.44067 0
M  V30 832 N 70.571 6.97414 -0.809781 0
M  V30 833 H 75.411 2.55353 -1.5362 0
M  V30 834 H 72.948 1.25438 -0.768364 0
M  V30 835 H 74.906 4.15679 0.35588 0
M  V30 836 H 73.536 3.11917 0.831122 0
M  V30 837 H 72.588 3.46779 -1.5636 0
M  V30 838 H 73.9 4.63293 -1.84827 0
M  V30 839 H 73.054 6.06696 0.0206623 0
M  V30 840 H 71.793 4.86045 0.401438 0
M  V30 841 H 70.798 5.16544 -1.88316 0
M  V30 842 H 72.023 6.40542 -2.25571 0
M  V30 843 H 69.969 6.55998 -0.0170186 0
M  V30 844 H 69.886 7.40386 -1.52856 0
M  V30 845 H 71.154 7.78463 -0.401999 0
M  V30 846 N 75.3831 0.828654 1.34056 0
M  V30 847 C 76.6081 0.431637 2.02859 0
M  V30 848 C 77.0331 -0.956339 1.61975 0
M  V30 849 O 76.3911 -1.62338 0.807228 0
M  V30 850 C 76.4391 0.548323 3.56407 0
M  V30 851 O 75.5431 -0.429556 4.10157 0
M  V30 852 H 74.8841 0.176886 0.640006 0
M  V30 853 H 77.4141 1.12066 1.71179 0
M  V30 854 H 77.4241 0.426196 4.05768 0
M  V30 855 H 76.0991 1.5606 3.8551 0
M  V30 856 H 74.6761 -0.265836 3.71951 0
M  V30 857 N 76.8612 -1.46375 0.584142 0
M  V30 858 C 77.7712 -2.34115 -0.150728 0
M  V30 859 C 78.7872 -1.49838 -0.884567 0
M  V30 860 O 79.9632 -1.82704 -0.847429 0
M  V30 861 C 77.0282 -3.2705 -1.15062 0
M  V30 862 C 76.0892 -4.27228 -0.421293 0
M  V30 863 C 75.3222 -5.15722 -1.37355 0
M  V30 864 O 75.5452 -5.07176 -2.61014 0
M  V30 865 O 74.4792 -5.95383 -0.883355 0
M  V30 866 H 78.3052 -2.98309 0.569708 0
M  V30 867 H 75.8902 -1.45373 0.344535 0
M  V30 868 H 77.7722 -3.84381 -1.72712 0
M  V30 869 H 76.4472 -2.65451 -1.8525 0
M  V30 870 H 75.3542 -3.7358 0.197085 0
M  V30 871 H 76.6872 -4.91616 0.239641 0
M  V30 872 N 78.3393 -0.321999 -1.54275 0
M  V30 873 C 79.3023 0.531975 -2.22941 0
M  V30 874 C 80.3023 1.04478 -1.22234 0
M  V30 875 O 81.4923 0.937452 -1.46825 0
M  V30 876 C 78.6243 1.73874 -2.93224 0
M  V30 877 H 79.8173 -0.0682612 -2.99822 0
M  V30 878 H 77.3703 -0.0730644 -1.56129 0
M  V30 879 H 78.1053 2.37825 -2.20476 0
M  V30 880 H 77.8903 1.37847 -3.6707 0
M  V30 881 H 79.3803 2.34496 -3.45545 0
M  V30 882 N 79.8174 1.5752 -0.0501392 0
M  V30 883 C 80.7504 2.07026 0.959962 0
M  V30 884 C 81.7284 0.970539 1.30458 0
M  V30 885 O 82.9124 1.2424 1.41763 0
M  V30 886 C 80.0394 2.5099 2.27424 0
M  V30 887 C 79.0854 3.72188 2.08275 0
M  V30 888 S 79.9184 5.17888 1.36207 0
M  V30 889 C 81.0744 5.65165 2.6896 0
M  V30 890 H 81.3074 2.9238 0.538631 0
M  V30 891 H 78.8404 1.53547 0.162099 0
M  V30 892 H 80.7984 2.76982 3.02971 0
M  V30 893 H 79.4594 1.65944 2.66686 0
M  V30 894 H 78.6524 4.00866 3.05487 0
M  V30 895 H 78.2544 3.46457 1.40868 0
M  V30 896 H 80.5464 5.70687 3.65133 0
M  V30 897 H 81.4894 6.64394 2.4492 0
M  V30 898 H 81.8974 4.9289 2.75172 0
M  V30 899 N 81.2955 -0.223234 1.56011 0
M  V30 900 C 82.2255 -1.27988 1.95298 0
M  V30 901 C 83.2065 -1.48976 0.820979 0
M  V30 902 O 84.3915 -1.61188 1.08315 0
M  V30 903 C 81.5215 -2.63 2.26822 0
M  V30 904 C 80.4755 -2.56671 3.42497 0
M  V30 905 C 79.8015 -3.95697 3.59622 0
M  V30 906 C 81.1015 -2.11601 4.77517 0
M  V30 907 H 82.7955 -0.953525 2.8381 0
M  V30 908 H 80.3415 -0.457244 1.36548 0
M  V30 909 H 82.2945 -3.37077 2.52898 0
M  V30 910 H 81.0185 -2.9732 1.35161 0
M  V30 911 H 79.6775 -1.85051 3.16467 0
M  V30 912 H 79.3255 -4.27322 2.6534 0
M  V30 913 H 79.0255 -3.92345 4.37424 0
M  V30 914 H 80.5495 -4.71438 3.88044 0
M  V30 915 H 81.9635 -2.7542 5.02809 0
M  V30 916 H 80.3605 -2.19311 5.5859 0
M  V30 917 H 81.4305 -1.06824 4.72987 0
M  V30 918 N 82.7736 -1.49793 -0.48987 0
M  V30 919 C 84.1896 -1.36803 -0.822022 0
M  V30 920 C 84.3896 -0.409652 -1.97292 0
M  V30 921 O 83.4456 0.154614 -2.52026 0
M  V30 922 C 84.7586 -2.77768 -1.15175 0
M  V30 923 C 86.3066 -2.86549 -1.25931 0
M  V30 924 C 86.7816 -4.28306 -1.62228 0
M  V30 925 N 88.2726 -4.31169 -1.69256 0
M  V30 926 C 89.0076 -5.37832 -1.98807 0
M  V30 927 N 88.5036 -6.54726 -2.26507 0
M  V30 928 N 90.2966 -5.25258 -2.00152 0
M  V30 929 H 82.4476 -2.10691 0.268881 0
M  V30 930 H 84.7106 -0.946241 0.057728 0
M  V30 931 H 84.4166 -3.49648 -0.379335 0
M  V30 932 H 84.2906 -3.13836 -2.09253 0
M  V30 933 H 86.6776 -2.14899 -2.02243 0
M  V30 934 H 86.7586 -2.54049 -0.298776 0
M  V30 935 H 86.4026 -5.00486 -0.864622 0
M  V30 936 H 86.3326 -4.58279 -2.594 0
M  V30 937 H 88.8236 -3.4687 -1.49965 0
M  V30 938 H 89.1366 -7.31833 -2.48276 0
M  V30 939 H 87.4816 -6.57933 -2.23939 0
M  V30 940 H 90.6726 -4.32938 -1.77996 0
M  V30 941 H 90.8456 -6.08476 -2.22848 0
M  V30 942 N 84.2517 0.741722 -1.39055 0
M  V30 943 C 85.1987 1.85566 -1.37237 0
M  V30 944 C 86.1687 1.64457 -0.233072 0
M  V30 945 O 87.3537 1.85957 -0.427147 0
M  V30 946 C 84.4937 3.23004 -1.215 0
M  V30 947 C 83.6067 3.55864 -2.44918 0
M  V30 948 C 82.7417 4.82669 -2.21821 0
M  V30 949 C 81.7807 5.08351 -3.40948 0
M  V30 950 N 80.9177 6.26356 -3.17211 0
M  V30 951 H 85.7577 1.86455 -2.32462 0
M  V30 952 H 83.2947 0.911176 -1.15482 0
M  V30 953 H 85.2527 4.02331 -1.10389 0
M  V30 954 H 83.8827 3.21411 -0.29908 0
M  V30 955 H 82.9347 2.7129 -2.66657 0
M  V30 956 H 84.2467 3.70765 -3.33668 0
M  V30 957 H 83.4007 5.69962 -2.07914 0
M  V30 958 H 82.1397 4.69929 -1.30454 0
M  V30 959 H 81.1447 4.19522 -3.55361 0
M  V30 960 H 82.3697 5.22981 -4.33207 0
M  V30 961 H 80.3157 6.14917 -2.28502 0
M  V30 962 H 80.2327 6.41813 -3.99515 0
M  V30 963 H 81.5007 7.16506 -3.06984 0
M  V30 964 N 85.7298 1.2412 0.971189 0
M  V30 965 C 86.6798 0.997551 2.05019 0
M  V30 966 C 87.6638 -0.0597747 1.60789 0
M  V30 967 O 88.8558 0.153516 1.76333 0
M  V30 968 C 85.9848 0.600557 3.38006 0
M  V30 969 C 85.0708 1.69377 3.88809 0
M  V30 970 N 85.4618 2.92586 4.12586 0
M  V30 971 C 83.7598 1.57048 4.17435 0
M  V30 972 C 84.4608 3.63431 4.54195 0
M  V30 973 N 83.4368 2.90979 4.59165 0
M  V30 974 H 87.2388 1.93316 2.21374 0
M  V30 975 H 84.7528 1.14194 1.1547 0
M  V30 976 H 86.7498 0.40725 4.14906 0
M  V30 977 H 85.4098 -0.327903 3.2304 0
M  V30 978 H 86.4208 3.288 4.00139 0
M  V30 979 H 83.0978 0.709798 4.11422 0
M  V30 980 H 84.4878 4.69102 4.81033 0
M  V30 981 N 87.2079 -1.17134 1.05439 0
M  V30 982 C 88.4539 -1.87733 0.767077 0
M  V30 983 C 88.7869 -1.8098 -0.704253 0
M  V30 984 O 88.0619 -1.21951 -1.5152 0
M  V30 985 C 88.3449 -3.37659 1.25133 0
M  V30 986 C 88.1979 -3.53149 2.78578 0
M  V30 987 C 89.5169 -4.31768 0.852324 0
M  V30 988 H 86.6359 -0.681687 0.280129 0
M  V30 989 H 89.2779 -1.37732 1.30881 0
M  V30 990 H 87.4279 -3.80373 0.790469 0
M  V30 991 H 89.0999 -3.19434 3.32806 0
M  V30 992 H 87.3429 -2.95345 3.17732 0
M  V30 993 H 88.0139 -4.58403 3.07523 0
M  V30 994 H 90.4899 -3.96909 1.24911 0
M  V30 995 H 89.3659 -5.35199 1.21873 0
M  V30 996 H 89.6269 -4.41429 -0.243485 0
M  V30 997 N 88.686 -0.835752 -1.33615 0
M  V30 998 C 89.596 -0.269088 -2.33052 0
M  V30 999 C 90.612 0.603251 -1.63208 0
M  V30 1000 O 91.788 0.508112 -1.94885 0
M  V30 1001 C 88.853 0.549091 -3.42324 0
M  V30 1002 C 87.914 -0.347156 -4.27894 0
M  V30 1003 C 87.147 0.43207 -5.31948 0
M  V30 1004 O 87.37 1.66409 -5.45586 0
M  V30 1005 O 86.304 -0.192298 -6.01593 0
M  V30 1006 H 90.13 -1.09243 -2.83372 0
M  V30 1007 H 87.715 -0.598198 -1.36901 0
M  V30 1008 H 89.597 1.01414 -4.09015 0
M  V30 1009 H 88.272 1.34955 -2.94226 0
M  V30 1010 H 87.179 -0.859979 -3.64081 0
M  V30 1011 H 88.512 -1.1123 -4.79467 0
M  V30 1012 N 90.1641 1.46063 -0.591896 0
M  V30 1013 C 91.4111 2.02338 -0.0809991 0
M  V30 1014 C 91.7391 1.46228 1.28249 0
M  V30 1015 O 90.9941 0.620818 1.85592 0
M  V30 1016 C 91.2931 3.57391 0.0249813 0
M  V30 1017 C 90.9591 4.32583 -1.27211 0
M  V30 1018 C 89.6211 4.52844 -1.62745 0
M  V30 1019 C 91.9731 4.75687 -2.13005 0
M  V30 1020 C 89.3011 5.13462 -2.83855 0
M  V30 1021 C 91.6531 5.37644 -3.3335 0
M  V30 1022 C 90.3171 5.5613 -3.69155 0
M  V30 1023 H 89.5871 0.740407 -0.0296397 0
M  V30 1024 H 92.2341 1.75321 -0.770374 0
M  V30 1025 H 90.5391 3.83597 0.797537 0
M  V30 1026 H 92.2361 3.98621 0.436184 0
M  V30 1027 H 88.8261 4.17116 -0.985499 0
M  V30 1028 H 93.0101 4.59782 -1.86855 0
M  V30 1029 H 88.2661 5.25965 -3.11722 0
M  V30 1030 H 92.4401 5.7 -4.00092 0
M  V30 1031 H 90.0671 6.0287 -4.63089 0
M  V30 1032 N 91.6422 0.330177 1.54103 0
M  V30 1033 C 93.0582 -0.0222371 1.59585 0
M  V30 1034 C 93.2582 -1.49902 1.34654 0
M  V30 1035 O 92.3142 -2.25592 1.13421 0
M  V30 1036 C 93.6272 0.401932 2.98002 0
M  V30 1037 C 95.1752 0.353145 3.11001 0
M  V30 1038 C 95.6502 0.752576 4.51775 0
M  V30 1039 N 97.1412 0.706239 4.57784 0
M  V30 1040 C 97.8762 0.987417 5.64834 0
M  V30 1041 N 97.3722 1.33607 6.79795 0
M  V30 1042 N 99.1652 0.91254 5.54643 0
M  V30 1043 H 91.3162 1.29228 1.68564 0
M  V30 1044 H 93.5792 0.525906 0.78875 0
M  V30 1045 H 93.2852 1.4311 3.21267 0
M  V30 1046 H 93.1592 -0.229699 3.765 0
M  V30 1047 H 95.5462 -0.666822 2.87467 0
M  V30 1048 H 95.6272 1.0198 2.34593 0
M  V30 1049 H 95.2712 1.77049 4.76042 0
M  V30 1050 H 95.2012 0.0635409 5.26562 0
M  V30 1051 H 97.6922 0.44889 3.75224 0
M  V30 1052 H 98.0052 1.53582 7.57385 0
M  V30 1053 H 96.3502 1.37439 6.81275 0
M  V30 1054 H 99.5412 0.639601 4.6371 0
M  V30 1055 H 99.7142 1.13503 6.37982 0
M  V30 1056 N 93.1203 -1.57491 0.0584922 0
M  V30 1057 C 94.0673 -2.11958 -0.913376 0
M  V30 1058 C 95.0373 -1.02875 -1.30407 0
M  V30 1059 O 96.2223 -1.30464 -1.39226 0
M  V30 1060 C 93.3623 -2.67497 -2.18035 0
M  V30 1061 C 92.4753 -3.90691 -1.84349 0
M  V30 1062 C 91.6103 -4.3452 -3.05559 0
M  V30 1063 C 90.6493 -5.50395 -2.67827 0
M  V30 1064 N 89.7863 -5.89244 -3.81754 0
M  V30 1065 H 94.6263 -2.94704 -0.442017 0
M  V30 1066 H 92.1633 -1.45643 -0.206545 0
M  V30 1067 H 94.1213 -2.978 -2.92183 0
M  V30 1068 H 92.7513 -1.87537 -2.62735 0
M  V30 1069 H 91.8033 -3.66934 -1.00319 0
M  V30 1070 H 93.1153 -4.7489 -1.5258 0
M  V30 1071 H 92.2693 -4.66414 -3.87998 0
M  V30 1072 H 91.0083 -3.49147 -3.40511 0
M  V30 1073 H 90.0133 -5.18165 -1.83806 0
M  V30 1074 H 91.2383 -6.3749 -2.34059 0
M  V30 1075 H 89.1843 -5.06823 -4.16493 0
M  V30 1076 H 89.1013 -6.68151 -3.53708 0
M  V30 1077 H 90.3693 -6.25756 -4.64811 0
M  V30 1078 N 94.5984 0.214957 -1.56127 0
M  V30 1079 C 95.5304 1.29004 -1.89448 0
M  V30 1080 C 96.5434 1.42716 -0.783326 0
M  V30 1081 O 97.7324 1.43496 -1.06166 0
M  V30 1082 C 94.8324 2.66482 -2.09381 0
M  V30 1083 C 94.0054 2.74633 -3.40434 0
M  V30 1084 C 93.0644 3.9317 -3.49719 0
M  V30 1085 O 92.0904 3.812 -4.227 0
M  V30 1086 N 93.2924 5.07765 -2.81346 0
M  V30 1087 H 96.0574 1.00743 -2.82261 0
M  V30 1088 H 93.6184 0.40497 -1.56753 0
M  V30 1089 H 95.6104 3.44173 -2.12901 0
M  V30 1090 H 94.1804 2.87314 -1.23163 0
M  V30 1091 H 93.4004 1.83368 -3.48955 0
M  V30 1092 H 94.6884 2.77054 -4.26754 0
M  V30 1093 H 94.0864 5.20386 -2.21843 0
M  V30 1094 H 92.6434 5.83474 -2.90519 0
M  V30 1095 N 96.0765 1.50051 0.48192 0
M  V30 1096 C 97.0235 1.68122 1.58125 0
M  V30 1097 C 97.9935 0.522545 1.57666 0
M  V30 1098 O 99.1785 0.751844 1.75362 0
M  V30 1099 C 96.3185 1.77142 2.96167 0
M  V30 1100 C 95.4315 3.0444 3.06497 0
M  V30 1101 C 94.5665 3.04321 4.35387 0
M  V30 1102 C 93.6055 4.26118 4.3942 0
M  V30 1103 N 92.7425 4.238 5.59766 0
M  V30 1104 H 97.5825 2.6198 1.42022 0
M  V30 1105 H 95.1195 1.29877 0.690687 0
M  V30 1106 H 97.0775 1.80352 3.76203 0
M  V30 1107 H 95.7075 0.867329 3.1093 0
M  V30 1108 H 94.7595 3.10752 2.19402 0
M  V30 1109 H 96.0715 3.94426 3.05336 0
M  V30 1110 H 95.2255 3.062 5.23762 0
M  V30 1111 H 93.9645 2.12147 4.39141 0
M  V30 1112 H 92.9695 4.24463 3.49444 0
M  V30 1113 H 94.1945 5.19507 4.37366 0
M  V30 1114 H 92.1405 3.34474 5.64326 0
M  V30 1115 H 92.0575 5.07542 5.60301 0
M  V30 1116 H 93.3255 4.2981 6.50295 0
M  V30 1117 N 97.5546 -0.734337 1.39446 0
M  V30 1118 C 98.8316 -1.48579 1.27215 0
M  V30 1119 C 99.2116 -2.1077 -0.117968 0
M  V30 1120 O 98.5596 -1.98646 -1.12924 0
M  V30 1121 C 98.7696 -2.53667 2.39696 0
M  V30 1122 C 100.118 -3.20031 2.79044 0
M  V30 1123 O 101.142 -2.6398 2.39151 0
M  V30 1124 O 100.001 -4.21455 3.47905 0
M  V30 1125 H 97.0946 -0.659816 0.49857 0
M  V30 1126 H 99.6406 -0.768106 1.51322 0
M  V30 1127 H 98.4126 -2.06096 3.32626 0
M  V30 1128 H 98.0356 -3.32994 2.17258 0
M  V30 1129 N 99.0327 -1.24633 -0.964593 0
M  V30 1130 C 100.282 -1.08188 -1.7023 0
M  V30 1131 C 100.595 0.37873 -1.91898 0
M  V30 1132 O 101.801 0.663427 -2.6327 0
M  V30 1133 C 100.257 -1.88773 -3.06419 0
M  V30 1134 C 99.8647 -3.39263 -2.92582 0
M  V30 1135 C 101.609 -1.80867 -3.84041 0
M  V30 1136 C 99.5157 -4.1218 -4.24101 0
M  V30 1137 H 98.4457 -0.401245 -0.638372 0
M  V30 1138 H 101.097 -1.48742 -1.07462 0
M  V30 1139 H 99.4787 -1.41035 -3.70034 0
M  V30 1140 H 100.653 -3.94603 -2.37961 0
M  V30 1141 H 98.9677 -3.48154 -2.28424 0
M  V30 1142 H 101.565 -2.32646 -4.81435 0
M  V30 1143 H 101.908 -0.774543 -4.09031 0
M  V30 1144 H 102.441 -2.26301 -3.27159 0
M  V30 1145 H 99.1797 -5.15965 -4.04303 0
M  V30 1146 H 98.6997 -3.61626 -4.78526 0
M  V30 1147 H 100.379 -4.19349 -4.92702 0
M  V30 1148 N 100.511 1.16574 -1.06058 0
M  V30 1149 C 101.788 1.83048 -0.689416 0
M  V30 1150 C 102.168 1.94122 0.829443 0
M  V30 1151 O 101.516 1.48249 1.7388 0
M  V30 1152 C 101.726 3.20186 -1.38859 0
M  V30 1153 C 103.074 3.95989 -1.53226 0
M  V30 1154 O 104.098 3.29696 -1.3483 0
M  V30 1155 O 102.957 5.14813 -1.83384 0
M  V30 1156 H 100.051 0.790258 -0.243764 0
M  V30 1157 H 102.597 1.23797 -1.16071 0
M  V30 1158 H 101.369 3.07146 -2.4244 0
M  V30 1159 H 100.992 3.87112 -0.907216 0
M  V30 1160 N 101.989 0.842826 1.3317 0
M  V30 1161 C 102.937 0.267495 2.31057 0
M  V30 1162 C 103.931 -0.602682 1.58316 0
M  V30 1163 O 105.137 -0.491803 1.73151 0
M  V30 1164 H 101.512 0.0677813 0.748939 0
M  V30 1165 H 103.483 1.10754 2.77085 0
M  V30 1166 C 102.232 -0.539331 3.43492 0
M  V30 1167 H 101.555 0.12095 3.99617 0
M  V30 1168 H 102.995 -0.90767 4.14171 0
M  V30 1169 C 101.454 -1.71981 2.89697 0
M  V30 1170 O 101.984 -2.81862 2.86211 0
M  V30 1171 N 100.19 -1.54299 2.46252 0
M  V30 1172 H 99.7369 -0.649143 2.49287 0
M  V30 1173 H 99.6949 -2.33431 2.10612 0
M  V30 1174 N 103.467 -1.45747 0.599634 0
M  V30 1175 C 104.716 -2.01502 0.0893511 0
M  V30 1176 C 105.029 -1.4748 -1.28488 0
M  V30 1177 O 106.235 -1.95161 -1.88745 0
M  V30 1178 C 104.691 -3.59735 0.109082 0
M  V30 1179 C 104.299 -4.22754 1.48267 0
M  V30 1180 C 106.043 -4.23085 -0.346374 0
M  V30 1181 C 103.95 -5.73115 1.45921 0
M  V30 1182 H 102.88 -0.753417 0.0296347 0
M  V30 1183 H 105.531 -1.67303 0.753788 0
M  V30 1184 H 103.913 -3.91087 -0.621854 0
M  V30 1185 H 105.087 -4.02987 2.23468 0
M  V30 1186 H 103.402 -3.71567 1.87955 0
M  V30 1187 H 105.999 -5.33327 -0.38298 0
M  V30 1188 H 106.342 -3.93201 -1.36743 0
M  V30 1189 H 106.875 -3.9642 0.331038 0
M  V30 1190 H 103.614 -6.07685 2.45762 0
M  V30 1191 H 103.134 -5.95097 0.749665 0
M  V30 1192 H 104.813 -6.3616 1.17941 0
M  V30 1193 N 104.945 -0.338344 -1.53925 0
M  V30 1194 C 106.194 0.260732 -2.00008 0
M  V30 1195 C 106.507 1.52073 -1.23017 0
M  V30 1196 O 107.713 2.19672 -1.5955 0
M  V30 1197 C 106.169 0.51515 -3.56194 0
M  V30 1198 C 105.777 -0.728645 -4.42035 0
M  V30 1199 C 107.521 1.07337 -4.10706 0
M  V30 1200 C 105.428 -0.445315 -5.89721 0
M  V30 1201 H 104.358 0.101205 -0.747177 0
M  V30 1202 H 107.009 -0.452866 -1.77824 0
M  V30 1203 H 105.391 1.28932 -3.74423 0
M  V30 1204 H 106.565 -1.50352 -4.35581 0
M  V30 1205 H 104.88 -1.20813 -3.98489 0
M  V30 1206 H 107.477 1.30022 -5.18651 0
M  V30 1207 H 107.82 2.0273 -3.63602 0
M  V30 1208 H 108.353 0.360034 -3.96167 0
M  V30 1209 H 105.092 -1.36883 -6.41049 0
M  V30 1210 H 104.612 0.291569 -5.99091 0
M  V30 1211 H 106.291 -0.0606218 -6.46972 0
M  V30 1212 N 106.423 1.57458 -0.0668435 0
M  V30 1213 C 107.648 1.9804 0.616027 0
M  V30 1214 C 108.073 0.944771 1.62652 0
M  V30 1215 O 107.431 -0.0902094 1.81075 0
M  V30 1216 C 107.479 3.37665 1.26549 0
M  V30 1217 O 106.583 3.36701 2.38131 0
M  V30 1218 H 105.924 0.644719 0.158849 0
M  V30 1219 H 108.454 2.04121 -0.139891 0
M  V30 1220 H 108.464 3.7474 1.6135 0
M  V30 1221 H 107.139 4.12573 0.525016 0
M  V30 1222 H 105.716 3.1139 2.0516 0
M  V30 1223 N 107.901 -0.206675 1.56239 0
M  V30 1224 C 109.147 -0.925733 1.81113 0
M  V30 1225 C 109.502 -1.81368 0.642135 0
M  V30 1226 O 108.795 -1.88126 -0.363211 0
M  V30 1227 C 108.989 -1.78675 3.09532 0
M  V30 1228 C 108.818 -0.98365 4.3881 0
M  V30 1229 C 107.588 -0.672661 5.00803 0
M  V30 1230 C 109.786 -0.341847 5.13163 0
M  V30 1231 N 107.768 0.150283 6.13716 0
M  V30 1232 C 109.139 0.343815 6.19046 0
M  V30 1233 C 111.194 -0.256392 4.97239 0
M  V30 1234 C 109.897 1.10678 7.10734 0
M  V30 1235 C 111.923 0.493142 5.8934 0
M  V30 1236 C 111.285 1.16729 6.94661 0
M  V30 1237 H 107.384 -0.318524 0.714189 0
M  V30 1238 H 109.968 -0.195378 1.93717 0
M  V30 1239 H 108.139 -2.4888 2.98183 0
M  V30 1240 H 109.871 -2.44441 3.22538 0
M  V30 1241 H 106.626 -0.994294 4.63045 0
M  V30 1242 H 107.05 0.551026 6.74754 0
M  V30 1243 H 111.692 -0.763249 4.15854 0
M  V30 1244 H 109.41 1.6251 7.91591 0
M  V30 1245 H 112.996 0.560465 5.79094 0
M  V30 1246 H 111.876 1.738 7.64698 0
M  V30 1247 N 109.379 -1.50304 -0.473955 0
M  V30 1248 C 110.311 -1.65109 -1.58971 0
M  V30 1249 C 111.324 -0.532676 -1.53839 0
M  V30 1250 O 112.513 -0.805751 -1.59279 0
M  V30 1251 C 109.613 -1.61684 -2.97845 0
M  V30 1252 C 108.786 -2.8951 -3.27876 0
M  V30 1253 C 107.845 -2.78768 -4.4629 0
M  V30 1254 O 106.871 -3.52722 -4.46739 0
M  V30 1255 N 108.073 -1.9213 -5.47783 0
M  V30 1256 H 110.838 -2.61347 -1.46689 0
M  V30 1257 H 108.399 -1.47732 -0.662324 0
M  V30 1258 H 110.391 -1.52114 -3.75024 0
M  V30 1259 H 108.961 -0.731925 -3.03911 0
M  V30 1260 H 108.181 -3.13228 -2.39336 0
M  V30 1261 H 109.469 -3.74199 -3.4475 0
M  V30 1262 H 108.867 -1.31353 -5.50239 0
M  V30 1263 H 107.424 -1.88466 -6.23958 0
M  V30 1264 N 110.857 0.726932 -1.39834 0
M  V30 1265 C 112.268 1.30558 -1.3346 0
M  V30 1266 C 112.619 1.962 -0.00273003 0
M  V30 1267 O 111.744 1.96826 0.899371 0
M  V30 1268 C 112.339 2.37404 -2.41713 0
M  V30 1269 C 110.898 2.90921 -2.38835 0
M  V30 1270 C 110.045 1.64578 -2.2318 0
M  V30 1271 H 112.996 0.523862 -1.49804 0
M  V30 1272 H 113.017 3.17984 -2.08966 0
M  V30 1273 H 112.529 1.89599 -3.38635 0
M  V30 1274 H 110.63 3.42985 -1.45575 0
M  V30 1275 H 110.743 3.43487 -3.33997 0
M  V30 1276 H 109.107 1.89219 -1.70494 0
M  V30 1277 H 109.89 1.18814 -3.22084 0
M  V30 1278 N 112.336 1.25143 0.95797 0
M  V30 1279 C 113.747 1.08851 1.51685 0
M  V30 1280 C 114.098 -0.33687 1.93286 0
M  V30 1281 O 113.223 -1.22644 1.7829 0
M  V30 1282 C 113.818 1.96978 2.75654 0
M  V30 1283 C 112.377 1.84881 3.27866 0
M  V30 1284 C 111.524 1.91329 2.0072 0
M  V30 1285 H 114.475 1.38478 0.77522 0
M  V30 1286 H 114.496 1.5078 3.4935 0
M  V30 1287 H 114.008 3.00712 2.45345 0
M  V30 1288 H 112.109 0.840182 3.63004 0
M  V30 1289 H 112.222 2.6951 3.96107 0
M  V30 1290 H 110.586 1.35174 2.15871 0
M  V30 1291 H 111.369 2.96661 1.72764 0
M  V30 1292 N 113.814 -1.1601 1.06675 0
M  V30 1293 C 114.724 -2.24156 0.692179 0
M  V30 1294 C 115.74 -1.71507 -0.293513 0
M  V30 1295 O 116.916 -2.009 -0.141861 0
M  V30 1296 C 113.981 -3.46587 0.0884131 0
M  V30 1297 C 113.042 -4.14257 1.12646 0
M  V30 1298 C 112.275 -5.30844 0.551416 0
M  V30 1299 O 112.498 -5.66858 -0.634656 0
M  V30 1300 O 111.432 -5.87848 1.29298 0
M  V30 1301 H 115.258 -2.58513 1.59388 0
M  V30 1302 H 112.843 -1.23599 0.83926 0
M  V30 1303 H 114.725 -4.20679 -0.246361 0
M  V30 1304 H 113.4 -3.13994 -0.786712 0
M  V30 1305 H 112.307 -3.42118 1.51348 0
M  V30 1306 H 113.64 -4.50914 1.97325 0
M  V30 1307 N 115.292 -0.849877 -1.32721 0
M  V30 1308 C 116.538 -0.451591 -1.97708 0
M  V30 1309 C 116.871 0.989175 -1.6712 0
M  V30 1310 O 116.146 1.69334 -0.956891 0
M  V30 1311 C 116.429 -0.685598 -3.53513 0
M  V30 1312 C 116.282 -2.17444 -3.93749 0
M  V30 1313 C 117.601 -0.138874 -4.39881 0
M  V30 1314 H 114.72 -0.16555 -0.718166 0
M  V30 1315 H 117.362 -1.06742 -1.57182 0
M  V30 1316 H 115.512 -0.161416 -3.88165 0
M  V30 1317 H 117.184 -2.76433 -3.693 0
M  V30 1318 H 115.427 -2.65476 -3.43081 0
M  V30 1319 H 116.098 -2.28888 -5.02309 0
M  V30 1320 H 118.574 -0.587068 -4.11938 0
M  V30 1321 H 117.45 -0.332213 -5.47894 0
M  V30 1322 H 117.711 0.95806 -4.31594 0
M  V30 1323 N 116.77 1.45427 -0.607355 0
M  V30 1324 C 118.019 2.01452 -0.100036 0
M  V30 1325 C 118.332 1.48159 1.27704 0
M  V30 1326 O 119.538 1.96159 1.87707 0
M  V30 1327 C 117.994 3.59672 -0.128158 0
M  V30 1328 C 117.602 4.21962 -1.50507 0
M  V30 1329 C 119.346 4.23262 0.323932 0
M  V30 1330 C 117.253 5.72333 -1.48959 0
M  V30 1331 H 116.183 0.75325 -0.0336299 0
M  V30 1332 H 118.834 1.66901 -0.76265 0
M  V30 1333 H 117.216 3.91411 0.601105 0
M  V30 1334 H 118.39 4.01796 -2.25602 0
M  V30 1335 H 116.705 3.70565 -1.89923 0
M  V30 1336 H 119.302 5.33522 0.354691 0
M  V30 1337 H 119.645 3.93921 1.34656 0
M  V30 1338 H 120.178 3.96239 -0.352056 0
M  V30 1339 H 116.917 6.06373 -2.48981 0
M  V30 1340 H 116.437 5.94691 -0.781214 0
M  V30 1341 H 118.116 6.35525 -1.21313 0
M  V30 1342 N 118.248 0.346503 1.53744 0
M  V30 1343 C 119.18 -0.543316 2.22667 0
M  V30 1344 C 120.193 -1.06159 1.23427 0
M  V30 1345 O 121.382 -0.971235 1.49764 0
M  V30 1346 C 118.482 -1.76076 2.89569 0
M  V30 1347 C 117.655 -1.37727 4.15151 0
M  V30 1348 C 116.714 -2.45471 4.65436 0
M  V30 1349 O 115.74 -2.08655 5.29577 0
M  V30 1350 N 116.942 -3.7677 4.41616 0
M  V30 1351 H 119.707 0.0469703 2.99663 0
M  V30 1352 H 117.268 0.170766 1.60997 0
M  V30 1353 H 119.26 -2.47593 3.20125 0
M  V30 1354 H 117.83 -2.25835 2.16142 0
M  V30 1355 H 117.05 -0.492746 3.91108 0
M  V30 1356 H 118.338 -1.09708 4.96832 0
M  V30 1357 H 117.736 -4.09467 3.90325 0
M  V30 1358 H 116.293 -4.44448 4.7677 0
M  V30 1359 N 119.726 -1.57421 0.075193 0
M  V30 1360 C 120.658 -2.09904 -0.920483 0
M  V30 1361 C 121.671 -1.03191 -1.25918 0
M  V30 1362 O 122.86 -1.30695 -1.21577 0
M  V30 1363 C 119.96 -2.54726 -2.23534 0
M  V30 1364 C 119.133 -3.8505 -2.07498 0
M  V30 1365 C 118.192 -4.15929 -3.22319 0
M  V30 1366 O 117.218 -4.85474 -2.9716 0
M  V30 1367 N 118.42 -3.69745 -4.47514 0
M  V30 1368 H 121.185 -2.95954 -0.472359 0
M  V30 1369 H 118.746 -1.61523 -0.110444 0
M  V30 1370 H 120.738 -2.72443 -2.9926 0
M  V30 1371 H 119.308 -1.73795 -2.59835 0
M  V30 1372 H 118.528 -3.76679 -1.16219 0
M  V30 1373 H 119.816 -4.70348 -1.94038 0
M  V30 1374 H 119.214 -3.13569 -4.7084 0
M  V30 1375 H 117.771 -3.92655 -5.20255 0
M  V30 1376 N 121.204 0.198386 -1.56346 0
M  V30 1377 C 122.434 0.934215 -1.84271 0
M  V30 1378 C 122.842 1.77496 -0.655125 0
M  V30 1379 O 122.185 1.7961 0.385488 0
M  V30 1380 C 122.247 1.88278 -3.06254 0
M  V30 1381 C 121.911 1.22431 -4.40295 0
M  V30 1382 C 122.908 0.602839 -5.16393 0
M  V30 1383 C 120.593 1.22915 -4.87029 0
M  V30 1384 C 122.587 -0.0050083 -6.374 0
M  V30 1385 C 120.274 0.617465 -6.07973 0
M  V30 1386 C 121.272 0.00146341 -6.83 0
M  V30 1387 O 120.96 -0.600642 -8.01653 0
M  V30 1388 H 120.692 0.278245 -0.616081 0
M  V30 1389 H 123.246 0.211626 -2.04307 0
M  V30 1390 H 121.476 2.64498 -2.82095 0
M  V30 1391 H 123.165 2.48612 -3.20853 0
M  V30 1392 H 123.931 0.591265 -4.81382 0
M  V30 1393 H 119.81 1.69801 -4.28589 0
M  V30 1394 H 123.354 -0.48643 -6.95902 0
M  V30 1395 H 119.251 0.62653 -6.42452 0
M  V30 1396 H 120.019 -0.497225 -8.16988 0
M  V30 1397 N 122.682 1.50554 0.465978 0
M  V30 1398 C 123.612 1.72722 1.57128 0
M  V30 1399 C 124.593 0.576294 1.6004 0
M  V30 1400 O 125.778 0.81598 1.76225 0
M  V30 1401 C 122.908 1.82605 2.95419 0
M  V30 1402 C 121.862 2.97835 3.07373 0
M  V30 1403 C 121.188 2.92867 4.47363 0
M  V30 1404 C 122.488 4.38265 2.84114 0
M  V30 1405 H 124.182 2.65267 1.38829 0
M  V30 1406 H 121.728 1.2765 0.666441 0
M  V30 1407 H 123.681 1.96698 3.72677 0
M  V30 1408 H 122.405 0.866858 3.14886 0
M  V30 1409 H 121.064 2.83401 2.3255 0
M  V30 1410 H 120.712 1.94783 4.63755 0
M  V30 1411 H 120.412 3.70227 4.56296 0
M  V30 1412 H 121.936 3.09015 5.26633 0
M  V30 1413 H 123.35 4.53198 3.51118 0
M  V30 1414 H 121.747 5.17115 3.04487 0
M  V30 1415 H 122.817 4.50281 1.7993 0
M  V30 1416 N 124.16 -0.719506 1.40217 0
M  V30 1417 C 125.385 -1.51371 1.4178 0
M  V30 1418 C 125.81 -1.88091 0.0182355 0
M  V30 1419 O 125.168 -1.52997 -0.972707 0
M  V30 1420 C 125.216 -2.768 2.31115 0
M  V30 1421 O 124.32 -3.73349 1.7517 0
M  V30 1422 H 123.661 -0.456529 0.482159 0
M  V30 1423 H 126.191 -0.88644 1.844 0
M  V30 1424 H 126.201 -3.25371 2.46167 0
M  V30 1425 H 124.876 -2.49407 3.3282 0
M  V30 1426 H 123.453 -3.32179 1.69444 0
M  V30 1427 N 125.638 -1.25649 -0.95132 0
M  V30 1428 C 126.886 -1.10375 -1.69298 0
M  V30 1429 C 127.207 0.355339 -1.91735 0
M  V30 1430 O 126.477 1.25188 -1.50681 0
M  V30 1431 H 125.057 -0.405461 -0.627384 0
M  V30 1432 H 127.719 -1.57823 -1.14358 0
M  V30 1433 H 126.815 -1.61465 -2.67087 0
M  V30 1434 N 127.117 1.15442 -1.07289 0
M  V30 1435 C 128.365 1.85845 -0.794096 0
M  V30 1436 C 128.686 1.82692 0.681809 0
M  V30 1437 O 127.956 1.26741 1.49377 0
M  V30 1438 H 126.536 0.688089 -0.290763 0
M  V30 1439 H 129.198 1.39947 -1.3565 0
M  V30 1440 H 128.294 2.91001 -1.12804 0
M  V30 1441 N 128.595 0.856903 1.32268 0
M  V30 1442 C 129.528 0.247937 2.26849 0
M  V30 1443 C 130.506 -0.615382 1.50505 0
M  V30 1444 O 131.69 -0.571689 1.79622 0
M  V30 1445 C 128.817 -0.650093 3.32403 0
M  V30 1446 C 127.863 0.140138 4.2627 0
M  V30 1447 S 128.696 1.51004 5.13769 0
M  V30 1448 C 129.852 0.61778 6.22844 0
M  V30 1449 H 130.085 1.04971 2.78152 0
M  V30 1450 H 127.618 0.654665 1.39834 0
M  V30 1451 H 129.576 -1.16256 3.93694 0
M  V30 1452 H 128.237 -1.4257 2.7988 0
M  V30 1453 H 127.43 -0.543945 5.01056 0
M  V30 1454 H 127.032 0.584267 3.69408 0
M  V30 1455 H 129.324 -0.177053 6.77269 0
M  V30 1456 H 130.267 1.33636 6.95375 0
M  V30 1457 H 130.675 0.191124 5.64176 0
M  V30 1458 N 130.073 -1.45103 0.615059 0
M  V30 1459 C 131.313 -2.04069 0.116282 0
M  V30 1460 C 131.677 -1.4721 -1.2326 0
M  V30 1461 O 132.878 -1.97577 -1.82255 0
M  V30 1462 C 131.149 -3.57298 0.085482 0
M  V30 1463 S 132.708 -4.37394 -0.351015 0
M  V30 1464 H 129.526 -0.709006 0.0532183 0
M  V30 1465 H 132.128 -1.77709 0.81484 0
M  V30 1466 H 130.832 -3.9619 1.0706 0
M  V30 1467 H 130.363 -3.88244 -0.634835 0
M  V30 1468 H 132.378 -4.69734 -1.59889 0
M  V30 1469 N 131.551 -0.354651 -1.53558 0
M  V30 1470 C 132.799 0.237972 -2.00694 0
M  V30 1471 C 133.12 1.50173 -1.24391 0
M  V30 1472 O 132.39 1.92673 -0.354135 0
M  V30 1473 H 130.97 0.0909256 -0.741446 0
M  V30 1474 H 133.632 -0.478368 -1.88938 0
M  V30 1475 H 132.728 0.47264 -3.085 0
M  V30 1476 N 133.029 1.57378 -0.0835403 0
M  V30 1477 C 134.259 1.97975 0.590713 0
M  V30 1478 C 134.667 0.961083 1.62972 0
M  V30 1479 O 134.01 -0.0590879 1.83605 0
M  V30 1480 C 134.072 3.34915 1.3066 0
M  V30 1481 C 133.736 4.55069 0.419698 0
M  V30 1482 C 134.733 5.18868 -0.32749 0
M  V30 1483 C 132.418 5.0114 0.341137 0
M  V30 1484 C 134.412 6.27098 -1.14134 0
M  V30 1485 C 132.099 6.0924 -0.476374 0
M  V30 1486 C 133.097 6.72083 -1.21627 0
M  V30 1487 O 132.785 7.781 -2.02028 0
M  V30 1488 H 132.517 0.655818 0.163947 0
M  V30 1489 H 135.071 2.04807 -0.156021 0
M  V30 1490 H 133.301 3.24733 2.09966 0
M  V30 1491 H 134.99 3.60037 1.87424 0
M  V30 1492 H 135.756 4.84211 -0.276459 0
M  V30 1493 H 131.635 4.51996 0.90668 0
M  V30 1494 H 135.179 6.7608 -1.71935 0
M  V30 1495 H 131.076 6.43329 -0.528927 0
M  V30 1496 H 131.844 7.95034 -1.94586 0
M  V30 1497 N 134.507 -0.190092 1.56449 0
M  V30 1498 C 135.784 -0.935886 1.71757 0
M  V30 1499 C 136.164 -2.01173 0.639726 0
M  V30 1500 O 135.512 -2.25827 -0.348502 0
M  V30 1501 C 135.722 -1.51775 3.1427 0
M  V30 1502 C 137.07 -1.99794 3.74656 0
M  V30 1503 O 138.094 -1.61607 3.1743 0
M  V30 1504 O 136.953 -2.70079 4.751 0
M  V30 1505 H 134.047 -0.439229 0.700719 0
M  V30 1506 H 136.593 -0.179395 1.68749 0
M  V30 1507 H 135.365 -0.742505 3.84191 0
M  V30 1508 H 134.988 -2.33894 3.21527 0
M  V30 1509 N 135.985 -1.50799 -0.457987 0
M  V30 1510 C 136.915 -1.73553 -1.5621 0
M  V30 1511 C 137.896 -0.584774 -1.59732 0
M  V30 1512 O 139.081 -0.825314 -1.7579 0
M  V30 1513 C 136.211 -1.84169 -2.94447 0
M  V30 1514 C 135.165 -2.99461 -3.0579 0
M  V30 1515 C 134.491 -2.95235 -4.45803 0
M  V30 1516 C 135.791 -4.39766 -2.81786 0
M  V30 1517 H 137.485 -2.66 -1.37421 0
M  V30 1518 H 135.031 -1.28002 -0.659662 0
M  V30 1519 H 136.984 -1.98672 -3.71628 0
M  V30 1520 H 135.708 -0.883545 -3.14422 0
M  V30 1521 H 134.367 -2.8463 -2.31044 0
M  V30 1522 H 134.015 -1.97239 -4.62715 0
M  V30 1523 H 133.715 -3.72642 -4.54326 0
M  V30 1524 H 135.239 -3.11803 -5.24987 0
M  V30 1525 H 136.653 -4.55054 -3.4871 0
M  V30 1526 H 135.05 -5.18722 -3.0174 0
M  V30 1527 H 136.12 -4.51229 -1.7754 0
M  V30 1528 N 137.463 0.71206 -1.40597 0
M  V30 1529 C 138.74 1.46536 -1.29563 0
M  V30 1530 C 139.12 2.10931 0.0844217 0
M  V30 1531 O 138.468 2.00418 1.0975 0
M  V30 1532 C 138.678 2.49821 -2.43701 0
M  V30 1533 C 140.026 3.15551 -2.841 0
M  V30 1534 O 141.05 2.60142 -2.4332 0
M  V30 1535 O 139.909 4.15867 -3.54566 0
M  V30 1536 H 137.003 0.651801 -0.509004 0
M  V30 1537 H 139.549 0.743935 -1.52524 0
M  V30 1538 H 138.321 2.00778 -3.35863 0
M  V30 1539 H 137.944 3.29495 -2.22528 0
M  V30 1540 N 138.941 1.26152 0.944643 0
M  V30 1541 C 140.189 1.11271 1.6871 0
M  V30 1542 C 140.51 -0.345166 1.91921 0
M  V30 1543 O 139.78 -1.24387 1.51343 0
M  V30 1544 H 138.36 0.408783 0.625224 0
M  V30 1545 H 141.022 1.58427 1.1352 0
M  V30 1546 H 140.118 1.62879 2.66227 0
M  V30 1547 N 140.419 -1.14872 1.07899 0
M  V30 1548 C 141.659 -1.8745 0.814965 0
M  V30 1549 C 142.023 -1.80758 -0.64733 0
M  V30 1550 O 143.224 -2.48422 -1.02664 0
M  V30 1551 C 141.495 -3.32286 1.31607 0
M  V30 1552 S 143.054 -4.22537 1.18357 0
M  V30 1553 H 139.872 -0.646833 0.295174 0
M  V30 1554 H 142.474 -1.38555 1.37923 0
M  V30 1555 H 141.178 -3.34703 2.37491 0
M  V30 1556 H 140.709 -3.86238 0.747261 0
M  V30 1557 H 142.724 -4.96044 0.124586 0
M  V30 1558 N 141.898 -0.863906 -1.31812 0
M  V30 1559 C 143.309 -0.52522 -1.7916 0
M  V30 1560 C 143.66 0.957518 -1.71248 0
M  V30 1561 O 142.785 1.74734 -1.27659 0
M  V30 1562 C 143.38 -0.9466 -3.25307 0
M  V30 1563 C 141.939 -0.659668 -3.70574 0
M  V30 1564 C 141.086 -1.14126 -2.52726 0
M  V30 1565 H 144.037 -1.05022 -1.1898 0
M  V30 1566 H 144.058 -0.266766 -3.79564 0
M  V30 1567 H 143.57 -2.02579 -3.31034 0
M  V30 1568 H 141.671 0.408416 -3.70355 0
M  V30 1569 H 141.784 -1.23245 -4.62977 0
M  V30 1570 H 140.148 -0.561216 -2.4844 0
M  V30 1571 H 140.931 -2.22775 -2.61201 0
M  V30 1572 N 143.376 1.44774 -0.622745 0
M  V30 1573 C 144.622 2.0242 -0.124083 0
M  V30 1574 C 144.955 1.4881 1.24777 0
M  V30 1575 O 144.23 0.668799 1.8264 0
M  V30 1576 C 144.513 3.59957 -0.101619 0
M  V30 1577 C 144.366 4.23867 -1.50521 0
M  V30 1578 C 145.685 4.36284 0.578272 0
M  V30 1579 H 142.804 0.735528 -0.0465645 0
M  V30 1580 H 145.446 1.72447 -0.797617 0
M  V30 1581 H 143.596 3.85623 0.471934 0
M  V30 1582 H 145.268 4.09336 -2.12701 0
M  V30 1583 H 143.511 3.81684 -2.06154 0
M  V30 1584 H 144.182 5.32843 -1.4416 0
M  V30 1585 H 146.658 4.16001 0.0906057 0
M  V30 1586 H 145.534 5.46004 0.563149 0
M  V30 1587 H 145.795 4.10271 1.64713 0
M  V30 1588 N 144.854 0.36279 1.53368 0
M  V30 1589 C 146.1 -0.220702 2.02199 0
M  V30 1590 C 146.455 -1.46649 1.24546 0
M  V30 1591 O 145.748 -1.88737 0.32996 0
M  V30 1592 C 145.942 -0.568417 3.52851 0
M  V30 1593 C 145.771 0.642126 4.45092 0
M  V30 1594 C 144.541 1.15335 4.91961 0
M  V30 1595 C 146.739 1.50649 4.91741 0
M  V30 1596 N 144.721 2.3242 5.68202 0
M  V30 1597 C 146.092 2.52404 5.66297 0
M  V30 1598 C 148.147 1.52969 4.73819 0
M  V30 1599 C 146.85 3.56331 6.24836 0
M  V30 1600 C 148.876 2.55789 5.33222 0
M  V30 1601 C 148.238 3.56268 6.07662 0
M  V30 1602 H 144.337 -0.0435508 0.780786 0
M  V30 1603 H 146.921 0.506704 1.87991 0
M  V30 1604 H 145.092 -1.2649 3.67226 0
M  V30 1605 H 146.824 -1.13676 3.88407 0
M  V30 1606 H 143.579 0.718412 4.68119 0
M  V30 1607 H 144.003 2.91591 6.10986 0
M  V30 1608 H 148.645 0.766418 4.15795 0
M  V30 1609 H 146.363 4.33543 6.81958 0
M  V30 1610 H 149.949 2.58435 5.21251 0
M  V30 1611 H 148.829 4.34524 6.52808 0
M  V30 1612 N 146.332 -1.57332 0.0918853 0
M  V30 1613 C 147.562 -1.98286 -0.580205 0
M  V30 1614 C 147.97 -0.969713 -1.6246 0
M  V30 1615 O 147.313 0.0493501 -1.83634 0
M  V30 1616 C 147.375 -3.35603 -1.28882 0
M  V30 1617 C 147.039 -4.55285 -0.395559 0
M  V30 1618 C 148.036 -5.18687 0.355002 0
M  V30 1619 C 145.721 -5.01314 -0.314556 0
M  V30 1620 C 147.715 -6.26484 1.17458 0
M  V30 1621 C 145.402 -6.08979 0.508677 0
M  V30 1622 C 146.4 -6.71429 1.2519 0
M  V30 1623 O 146.088 -7.77018 2.06151 0
M  V30 1624 H 145.82 -0.656678 -0.160466 0
M  V30 1625 H 148.374 -2.04721 0.16688 0
M  V30 1626 H 146.604 -3.25842 -2.08241 0
M  V30 1627 H 148.293 -3.61026 -1.85512 0
M  V30 1628 H 149.059 -4.84058 0.302134 0
M  V30 1629 H 144.938 -4.5247 -0.882697 0
M  V30 1630 H 148.482 -6.75159 1.75518 0
M  V30 1631 H 144.379 -6.4304 0.563037 0
M  V30 1632 H 145.147 -7.93991 1.98799 0
M  V30 1633 N 147.81 0.181792 -1.56548 0
M  V30 1634 C 149.087 0.926765 -1.72251 0
M  V30 1635 C 149.467 2.00831 -0.650386 0
M  V30 1636 O 148.815 2.26008 0.336521 0
M  V30 1637 C 149.025 1.50106 -3.1507 0
M  V30 1638 C 150.373 1.97805 -3.75711 0
M  V30 1639 O 151.397 1.59922 -3.18282 0
M  V30 1640 O 150.256 2.67555 -4.76525 0
M  V30 1641 H 147.35 0.435506 -0.703039 0
M  V30 1642 H 149.896 0.170443 -1.68842 0
M  V30 1643 H 148.668 0.72212 -3.84579 0
M  V30 1644 H 148.291 2.32186 -3.22763 0
M  V30 1645 N 149.288 1.51039 0.449983 0
M  V30 1646 C 150.537 1.62317 1.19733 0
M  V30 1647 C 150.85 0.339101 1.92638 0
M  V30 1648 O 152.056 0.331069 2.69474 0
M  V30 1649 C 150.512 2.86608 2.17678 0
M  V30 1650 C 150.12 4.21972 1.50479 0
M  V30 1651 C 151.864 3.07239 2.92924 0
M  V30 1652 C 149.771 5.37426 2.46834 0
M  V30 1653 H 148.701 0.604532 0.450619 0
M  V30 1654 H 151.352 1.77494 0.465625 0
M  V30 1655 H 149.734 2.65037 2.94231 0
M  V30 1656 H 150.908 4.53878 0.795716 0
M  V30 1657 H 149.223 4.07117 0.874344 0
M  V30 1658 H 151.82 3.90668 3.65079 0
M  V30 1659 H 152.163 2.19807 3.5354 0
M  V30 1660 H 152.696 3.29091 2.23481 0
M  V30 1661 H 149.435 6.27079 1.90926 0
M  V30 1662 H 148.955 5.09912 3.15832 0
M  V30 1663 H 150.634 5.68862 3.08228 0
M  V30 1664 N 150.766 -0.704594 1.40972 0
M  V30 1665 C 152.015 -1.46018 1.39146 0
M  V30 1666 C 152.328 -1.956 0.000589254 0
M  V30 1667 O 153.534 -2.71137 -0.1403 0
M  V30 1668 C 151.99 -2.63996 2.4461 0
M  V30 1669 C 151.598 -2.21238 3.89561 0
M  V30 1670 C 153.342 -3.41677 2.51907 0
M  V30 1671 C 151.249 -3.3612 4.86598 0
M  V30 1672 H 150.179 -0.548444 0.517422 0
M  V30 1673 H 152.83 -0.765784 1.66757 0
M  V30 1674 H 151.212 -3.3566 2.10115 0
M  V30 1675 H 152.386 -1.56923 4.33257 0
M  V30 1676 H 150.701 -1.56574 3.85841 0
M  V30 1677 H 153.298 -4.27182 3.2159 0
M  V30 1678 H 153.641 -3.86247 1.55303 0
M  V30 1679 H 154.174 -2.77064 2.85448 0
M  V30 1680 H 150.913 -2.96572 5.84573 0
M  V30 1681 H 150.433 -3.99315 4.47557 0
M  V30 1682 H 152.112 -4.02029 5.06934 0
M  V30 1683 N 152.244 -1.26651 -0.937939 0
M  V30 1684 C 153.492 -1.12165 -1.68118 0
M  V30 1685 C 153.813 0.334983 -1.92101 0
M  V30 1686 O 153.083 1.23583 -1.52 0
M  V30 1687 H 151.663 -0.412093 -0.623048 0
M  V30 1688 H 154.325 -1.59027 -1.12678 0
M  V30 1689 H 153.421 -1.64289 -2.6536 0
M  V30 1690 N 153.722 1.14298 -1.08507 0
M  V30 1691 C 155.133 1.66926 -0.836227 0
M  V30 1692 C 155.484 1.85576 0.63686 0
M  V30 1693 O 154.609 1.56767 1.49175 0
M  V30 1694 C 155.204 3.03219 -1.51142 0
M  V30 1695 C 153.763 3.52876 -1.30979 0
M  V30 1696 C 152.91 2.2833 -1.57356 0
M  V30 1697 H 155.861 0.983491 -1.24552 0
M  V30 1698 H 155.882 3.68726 -0.939211 0
M  V30 1699 H 155.394 2.89612 -2.58353 0
M  V30 1700 H 153.495 3.71703 -0.258429 0
M  V30 1701 H 153.608 4.33586 -2.03814 0
M  V30 1702 H 151.972 2.34454 -0.995164 0
M  V30 1703 H 152.755 2.17298 -2.65775 0
M  V30 1704 N 155.201 0.870884 1.31352 0
M  V30 1705 C 156.131 0.343096 2.30966 0
M  V30 1706 C 157.112 -0.566507 1.60389 0
M  V30 1707 O 158.297 -0.483336 1.88089 0
M  V30 1708 C 155.427 -0.455487 3.443 0
M  V30 1709 C 154.381 0.361103 4.26474 0
M  V30 1710 C 153.707 -0.563221 5.31725 0
M  V30 1711 C 155.007 1.59566 4.97329 0
M  V30 1712 H 156.701 1.17548 2.75359 0
M  V30 1713 H 154.247 0.566686 1.32381 0
M  V30 1714 H 156.2 -0.83525 4.13039 0
M  V30 1715 H 154.924 -1.32139 2.98675 0
M  V30 1716 H 153.583 0.722825 3.59403 0
M  V30 1717 H 153.231 -1.42643 4.82351 0
M  V30 1718 H 152.931 -0.0207409 5.87596 0
M  V30 1719 H 154.455 -0.939808 6.03324 0
M  V30 1720 H 155.869 1.28728 5.58661 0
M  V30 1721 H 154.266 2.07728 5.63 0
M  V30 1722 H 155.336 2.34798 4.24262 0
M  V30 1723 N 156.679 -1.44442 0.630414 0
M  V30 1724 C 157.956 -1.9549 0.0655657 0
M  V30 1725 C 158.336 -1.5724 -1.40851 0
M  V30 1726 O 157.684 -0.846116 -2.12257 0
M  V30 1727 C 157.894 -3.47812 0.287691 0
M  V30 1728 C 159.242 -4.24216 0.180513 0
M  V30 1729 O 160.266 -3.55526 0.219019 0
M  V30 1730 O 159.125 -5.46434 0.0848493 0
M  V30 1731 H 156.219 -0.826688 -0.0227177 0
M  V30 1732 H 158.765 -1.54496 0.702068 0
M  V30 1733 H 157.537 -3.687 1.31056 0
M  V30 1734 H 157.16 -3.95751 -0.382984 0
M  V30 1735 N 158.157 -0.370918 -1.53173 0
M  V30 1736 C 159.12 0.460778 -2.24521 0
M  V30 1737 C 160.12 1.00536 -1.25496 0
M  V30 1738 O 161.31 0.890266 -1.49733 0
M  V30 1739 C 158.442 1.64457 -2.98608 0
M  V30 1740 H 159.635 -0.163613 -2.99453 0
M  V30 1741 H 157.188 -0.122699 -1.55818 0
M  V30 1742 H 157.923 2.30691 -2.2793 0
M  V30 1743 H 157.708 1.26099 -3.7127 0
M  V30 1744 H 159.198 2.23384 -3.5283 0
M  V30 1745 N 159.635 1.57281 -0.100228 0
M  V30 1746 C 160.582 2.14305 0.856858 0
M  V30 1747 C 161.552 1.06296 1.27634 0
M  V30 1748 O 162.737 1.34109 1.35718 0
M  V30 1749 C 159.877 2.73184 2.10866 0
M  V30 1750 C 158.99 3.95442 1.73925 0
M  V30 1751 C 158.125 4.42468 2.93931 0
M  V30 1752 C 157.164 5.57303 2.5314 0
M  V30 1753 N 156.301 5.99158 3.65997 0
M  V30 1754 H 161.141 2.95772 0.363726 0
M  V30 1755 H 158.678 1.46139 0.167858 0
M  V30 1756 H 160.636 3.05442 2.84185 0
M  V30 1757 H 159.266 1.94437 2.57671 0
M  V30 1758 H 158.318 3.69464 0.905554 0
M  V30 1759 H 159.63 4.78769 1.39935 0
M  V30 1760 H 158.784 4.76537 3.75496 0
M  V30 1761 H 157.523 3.58052 3.31134 0
M  V30 1762 H 156.528 5.22857 1.70003 0
M  V30 1763 H 157.753 6.43471 2.17075 0
M  V30 1764 H 155.699 5.17687 4.02909 0
M  V30 1765 H 155.616 6.77295 3.35869 0
M  V30 1766 H 156.884 6.3786 4.48057 0
M  V30 1767 N 161.113 -0.173488 1.56642 0
M  V30 1768 C 162.361 -0.888706 1.81512 0
M  V30 1769 C 162.682 -1.82875 0.676872 0
M  V30 1770 O 161.952 -1.93536 -0.303414 0
M  V30 1771 H 160.532 -0.331164 0.669582 0
M  V30 1772 H 163.194 -0.173823 1.94123 0
M  V30 1773 H 162.29 -1.46691 2.75478 0
M  V30 1774 N 162.591 -1.51276 -0.441967 0
M  V30 1775 C 163.521 -1.752 -1.54361 0
M  V30 1776 C 164.502 -0.601682 -1.59103 0
M  V30 1777 O 165.687 -0.843913 -1.74905 0
M  V30 1778 C 162.817 -1.87282 -2.92477 0
M  V30 1779 C 161.771 -3.02687 -3.02596 0
M  V30 1780 C 161.097 -2.99947 -4.42647 0
M  V30 1781 C 162.397 -4.4273 -2.77106 0
M  V30 1782 H 164.091 -2.67442 -1.34592 0
M  V30 1783 H 161.637 -1.28694 -0.646048 0
M  V30 1784 H 163.59 -2.02602 -3.695 0
M  V30 1785 H 162.314 -0.916844 -3.13467 0
M  V30 1786 H 160.973 -2.87065 -2.28012 0
M  V30 1787 H 160.621 -2.02136 -4.60597 0
M  V30 1788 H 160.321 -3.77439 -4.50348 0
M  V30 1789 H 161.845 -3.17354 -5.2165 0
M  V30 1790 H 163.259 -4.58727 -3.43864 0
M  V30 1791 H 161.656 -5.21893 -2.96222 0
M  V30 1792 H 162.726 -4.53087 -1.72744 0
M  V30 1793 N 164.069 0.697108 -1.41344 0
M  V30 1794 C 164.999 1.82353 -1.45841 0
M  V30 1795 C 165.98 1.67115 -0.317247 0
M  V30 1796 O 167.165 1.86871 -0.528474 0
M  V30 1797 C 164.295 3.20476 -1.33838 0
M  V30 1798 C 163.249 3.50415 -2.4575 0
M  V30 1799 C 162.575 4.87878 -2.18813 0
M  V30 1800 C 163.875 3.49546 -3.88091 0
M  V30 1801 H 165.569 1.78846 -2.40113 0
M  V30 1802 H 163.115 0.859028 -1.15571 0
M  V30 1803 H 165.068 3.98988 -1.35596 0
M  V30 1804 H 163.792 3.24604 -0.360498 0
M  V30 1805 H 162.451 2.74253 -2.43271 0
M  V30 1806 H 162.099 4.8863 -1.19371 0
M  V30 1807 H 161.799 5.08875 -2.93803 0
M  V30 1808 H 163.323 5.68702 -2.22284 0
M  V30 1809 H 164.737 4.18066 -3.92293 0
M  V30 1810 H 163.134 3.82075 -4.62751 0
M  V30 1811 H 164.204 2.48552 -4.16353 0
M  V30 1812 N 165.547 1.27147 0.931209 0
M  V30 1813 C 166.794 1.13278 1.67852 0
M  V30 1814 C 167.122 -0.32204 1.91815 0
M  V30 1815 O 166.377 -1.25224 1.50391 0
M  V30 1816 C 166.676 1.8579 3.05314 0
M  V30 1817 C 166.342 3.35657 3.01073 0
M  V30 1818 C 165.004 3.76536 2.99623 0
M  V30 1819 C 167.356 4.31299 2.92627 0
M  V30 1820 C 164.684 5.11426 2.87506 0
M  V30 1821 C 167.036 5.66242 2.82051 0
M  V30 1822 C 165.7 6.06418 2.7895 0
M  V30 1823 H 164.97 0.414515 0.614214 0
M  V30 1824 H 167.617 1.57712 1.08624 0
M  V30 1825 H 165.922 1.33854 3.68226 0
M  V30 1826 H 167.619 1.72491 3.62005 0
M  V30 1827 H 164.209 3.03146 3.02986 0
M  V30 1828 H 168.393 4.00692 2.92848 0
M  V30 1829 H 163.649 5.41705 2.83489 0
M  V30 1830 H 167.823 6.40026 2.74481 0
M  V30 1831 H 165.45 7.10895 2.69318 0
M  V30 1832 N 167.025 -1.13721 1.09112 0
M  V30 1833 C 168.25 -1.89314 0.847053 0
M  V30 1834 C 168.675 -1.78416 -0.595774 0
M  V30 1835 O 168.033 -1.12942 -1.41823 0
M  V30 1836 C 168.081 -3.3701 1.28284 0
M  V30 1837 O 167.185 -4.10054 0.439267 0
M  V30 1838 H 166.526 -0.588745 0.307044 0
M  V30 1839 H 169.056 -1.43902 1.45442 0
M  V30 1840 H 169.066 -3.87834 1.26683 0
M  V30 1841 H 167.741 -3.4426 2.33363 0
M  V30 1842 H 166.318 -3.69266 0.519312 0
M  V30 1843 N 168.503 -0.877838 -1.30888 0
M  V30 1844 C 169.466 -0.344265 -2.266 0
M  V30 1845 C 170.466 0.50922 -1.52524 0
M  V30 1846 O 171.656 0.317398 -1.71284 0
M  V30 1847 C 168.788 0.510198 -3.37061 0
M  V30 1848 H 169.981 -1.1893 -2.7531 0
M  V30 1849 H 167.534 -0.654088 -1.41956 0
M  V30 1850 H 168.269 1.37612 -2.93655 0
M  V30 1851 H 168.054 -0.101047 -3.9197 0
M  V30 1852 H 169.544 0.875537 -4.08319 0
M  V30 1853 N 169.982 1.44106 -0.638065 0
M  V30 1854 C 171.207 2.0685 -0.150916 0
M  V30 1855 C 171.632 1.47417 1.16833 0
M  V30 1856 O 170.99 0.578264 1.71831 0
M  V30 1857 C 171.038 3.60555 -0.05708 0
M  V30 1858 O 170.142 4.00465 0.984972 0
M  V30 1859 H 169.483 0.658151 -0.0879399 0
M  V30 1860 H 172.013 1.84865 -0.876707 0
M  V30 1861 H 172.023 4.07789 0.131232 0
M  V30 1862 H 170.698 4.03193 -1.02021 0
M  V30 1863 H 169.275 3.64849 0.770672 0
M  V30 1864 N 171.46 0.379036 1.52974 0
M  V30 1865 C 172.407 -0.461048 2.26148 0
M  V30 1866 C 173.377 -1.06637 1.27349 0
M  V30 1867 O 174.562 -1.09633 1.56157 0
M  V30 1868 C 171.702 -1.58782 3.06402 0
M  V30 1869 C 170.815 -1.00636 4.20115 0
M  V30 1870 C 169.95 -2.10334 4.87784 0
M  V30 1871 C 168.989 -1.49724 5.93506 0
M  V30 1872 N 168.126 -2.5331 6.54812 0
M  V30 1873 H 172.966 0.169429 2.97518 0
M  V30 1874 H 170.503 0.0953806 1.4679 0
M  V30 1875 H 172.461 -2.25174 3.51215 0
M  V30 1876 H 171.091 -2.18876 2.37261 0
M  V30 1877 H 170.143 -0.232332 3.7969 0
M  V30 1878 H 171.455 -0.523343 4.96047 0
M  V30 1879 H 170.609 -2.84519 5.35849 0
M  V30 1880 H 169.348 -2.61992 4.11353 0
M  V30 1881 H 168.353 -0.740598 5.44789 0
M  V30 1882 H 169.578 -0.988732 6.71864 0
M  V30 1883 H 167.524 -3.04156 5.81227 0
M  V30 1884 H 167.441 -2.09734 7.26325 0
M  V30 1885 H 168.709 -3.27155 7.07524 0
M  V30 1886 N 172.938 -1.57226 0.108567 0
M  V30 1887 C 173.87 -2.11809 -0.875752 0
M  V30 1888 C 174.883 -1.05839 -1.23701 0
M  V30 1889 O 176.072 -1.33245 -1.18778 0
M  V30 1890 C 173.172 -2.59411 -2.18081 0
M  V30 1891 C 172.345 -3.89364 -1.99284 0
M  V30 1892 C 171.404 -4.22672 -3.13424 0
M  V30 1893 O 170.43 -4.91668 -2.86795 0
M  V30 1894 N 171.632 -3.79154 -4.3957 0
M  V30 1895 H 174.397 -2.9689 -0.409477 0
M  V30 1896 H 171.958 -1.61721 -0.076158 0
M  V30 1897 H 173.95 -2.7873 -2.93414 0
M  V30 1898 H 172.52 -1.79268 -2.5609 0
M  V30 1899 H 171.74 -3.79059 -1.08203 0
M  V30 1900 H 173.028 -4.74358 -1.84017 0
M  V30 1901 H 172.426 -3.23486 -4.64083 0
M  V30 1902 H 170.983 -4.03602 -5.11809 0
M  V30 1903 N 174.416 0.165178 -1.56732 0
M  V30 1904 C 175.693 0.908443 -1.73224 0
M  V30 1905 C 176.073 2.0013 -0.67165 0
M  V30 1906 O 175.421 2.26353 0.31253 0
M  V30 1907 C 175.631 1.46756 -3.16644 0
M  V30 1908 C 176.979 1.93809 -3.77787 0
M  V30 1909 O 178.003 1.56537 -3.1996 0
M  V30 1910 O 176.862 2.62486 -4.79336 0
M  V30 1911 H 173.956 0.428025 -0.707618 0
M  V30 1912 H 176.502 0.152526 -1.69013 0
M  V30 1913 H 175.274 0.68129 -3.85323 0
M  V30 1914 H 174.897 2.28749 -3.25207 0
M  V30 1915 N 175.894 1.51508 0.433938 0
M  V30 1916 C 176.824 1.76016 1.53429 0
M  V30 1917 C 177.805 0.610112 1.58782 0
M  V30 1918 O 178.99 0.853177 1.74455 0
M  V30 1919 C 176.12 1.88831 2.9148 0
M  V30 1920 C 175.074 3.04288 3.00987 0
M  V30 1921 C 174.4 3.0229 4.4105 0
M  V30 1922 C 175.7 4.44193 2.74754 0
M  V30 1923 H 177.394 2.68152 1.33171 0
M  V30 1924 H 174.94 1.29035 0.639214 0
M  V30 1925 H 176.893 2.04559 3.6842 0
M  V30 1926 H 175.617 0.933455 3.12976 0
M  V30 1927 H 174.276 2.8827 2.26486 0
M  V30 1928 H 173.924 2.04576 4.59519 0
M  V30 1929 H 173.624 3.79822 4.4834 0
M  V30 1930 H 175.148 3.20116 5.1996 0
M  V30 1931 H 176.562 4.60544 3.41426 0
M  V30 1932 H 174.959 5.23457 2.9345 0
M  V30 1933 H 176.029 4.53996 1.70339 0
M  V30 1934 N 177.372 -0.689602 1.41712 0
M  V30 1935 C 178.302 -1.81577 1.46806 0
M  V30 1936 C 179.283 -1.66945 0.326105 0
M  V30 1937 O 180.468 -1.86588 0.538377 0
M  V30 1938 C 177.598 -3.19762 1.35535 0
M  V30 1939 C 176.552 -3.49107 2.47605 0
M  V30 1940 C 175.878 -4.86711 2.21397 0
M  V30 1941 C 177.178 -3.47483 3.89939 0
M  V30 1942 H 178.872 -1.7757 2.41058 0
M  V30 1943 H 176.418 -0.852887 1.16025 0
M  V30 1944 H 178.371 -3.98263 1.3771 0
M  V30 1945 H 177.095 -3.24409 0.377708 0
M  V30 1946 H 175.754 -2.72959 2.44722 0
M  V30 1947 H 175.402 -4.8799 1.21961 0
M  V30 1948 H 175.102 -5.0731 2.96497 0
M  V30 1949 H 176.626 -5.67515 2.25297 0
M  V30 1950 H 178.04 -4.1598 3.94505 0
M  V30 1951 H 176.437 -3.79615 4.64771 0
M  V30 1952 H 177.507 -2.46341 4.17665 0
M  V30 1953 N 178.85 -1.27639 -0.924453 0
M  V30 1954 C 180.266 -1.05113 -1.20097 0
M  V30 1955 C 180.466 0.213262 -2.00368 0
M  V30 1956 O 179.522 0.91787 -2.35226 0
M  V30 1957 C 180.835 -2.29244 -1.94596 0
M  V30 1958 C 182.383 -2.34315 -2.07522 0
M  V30 1959 C 182.858 -3.58183 -2.85427 0
M  V30 1960 N 184.349 -3.5876 -2.92994 0
M  V30 1961 C 185.084 -4.51277 -3.53746 0
M  V30 1962 N 184.58 -5.54102 -4.15863 0
M  V30 1963 N 186.373 -4.38894 -3.51181 0
M  V30 1964 H 178.524 -2.08821 -0.388264 0
M  V30 1965 H 180.787 -0.918568 -0.234385 0
M  V30 1966 H 180.493 -3.21301 -1.43034 0
M  V30 1967 H 180.367 -2.34816 -2.95197 0
M  V30 1968 H 182.754 -1.42762 -2.58269 0
M  V30 1969 H 182.835 -2.32744 -1.06131 0
M  V30 1970 H 182.479 -4.50074 -2.35363 0
M  V30 1971 H 182.409 -3.57006 -3.8711 0
M  V30 1972 H 184.9 -2.84398 -2.4885 0
M  V30 1973 H 185.213 -6.20859 -4.60168 0
M  V30 1974 H 183.558 -5.57941 -4.144 0
M  V30 1975 H 186.749 -3.57772 -3.01856 0
M  V30 1976 H 186.922 -5.11186 -3.98237 0
M  V30 1977 N 180.328 1.1314 -1.09713 0
M  V30 1978 C 181.556 1.88321 -0.856898 0
M  V30 1979 C 181.971 1.79276 0.592073 0
M  V30 1980 O 181.328 1.16142 1.40774 0
M  V30 1981 C 181.379 3.37812 -1.28706 0
M  V30 1982 O 181.1 3.46627 -2.67921 0
M  V30 1983 C 182.601 4.29952 -1.07964 0
M  V30 1984 H 179.821 0.596094 -0.308079 0
M  V30 1985 H 182.365 1.43205 -1.45988 0
M  V30 1986 H 180.52 3.805 -0.727912 0
M  V30 1987 H 180.934 4.39579 -2.8613 0
M  V30 1988 H 182.408 5.33159 -1.42986 0
M  V30 1989 H 182.885 4.39196 -0.0176577 0
M  V30 1990 H 183.491 3.93036 -1.62489 0
M  V30 1991 N 181.806 0.884767 1.30421 0
M  V30 1992 C 182.753 0.349642 2.28136 0
M  V30 1993 C 183.723 -0.560061 1.56373 0
M  V30 1994 O 184.908 -0.488524 1.8444 0
M  V30 1995 C 182.048 -0.42999 3.42411 0
M  V30 1996 C 181.161 0.508907 4.28992 0
M  V30 1997 C 180.296 -0.286301 5.30428 0
M  V30 1998 C 179.335 0.648079 6.08659 0
M  V30 1999 N 178.472 -0.111792 7.02011 0
M  V30 2000 H 183.312 1.18807 2.73293 0
M  V30 2001 H 180.849 0.597231 1.3443 0
M  V30 2002 H 182.807 -0.897923 4.07423 0
M  V30 2003 H 181.437 -1.23299 2.98324 0
M  V30 2004 H 180.489 1.09533 3.64289 0
M  V30 2005 H 181.801 1.22475 4.8353 0
M  V30 2006 H 180.955 -0.816098 6.01186 0
M  V30 2007 H 179.694 -1.03536 4.76583 0
M  V30 2008 H 178.699 1.18951 5.36778 0
M  V30 2009 H 179.924 1.39623 6.64592 0
M  V30 2010 H 177.87 -0.843395 6.50556 0
M  V30 2011 H 177.787 0.544429 7.54037 0
M  V30 2012 H 179.055 -0.622339 7.77012 0
M  V30 2013 N 183.284 -1.43765 0.645699 0
M  V30 2014 C 184.217 -2.2798 -0.100072 0
M  V30 2015 C 185.195 -1.39391 -0.837194 0
M  V30 2016 O 186.379 -1.68833 -0.838306 0
M  V30 2017 C 183.506 -3.18643 -1.14823 0
M  V30 2018 C 182.552 -4.2344 -0.510009 0
M  V30 2019 S 183.385 -5.30761 0.710824 0
M  V30 2020 C 184.541 -6.24992 -0.33699 0
M  V30 2021 H 184.774 -2.90884 0.614322 0
M  V30 2022 H 182.307 -1.48166 0.434304 0
M  V30 2023 H 184.265 -3.71424 -1.74799 0
M  V30 2024 H 182.926 -2.54932 -1.8349 0
M  V30 2025 H 182.119 -4.86948 -1.29991 0
M  V30 2026 H 181.721 -3.73997 0.0154577 0
M  V30 2027 H 184.013 -6.66691 -1.20537 0
M  V30 2028 H 184.956 -7.07612 0.262879 0
M  V30 2029 H 185.364 -5.60517 -0.669425 0
M  V30 2030 N 184.763 -0.387143 -1.52771 0
M  V30 2031 C 186.179 -0.037007 -1.59557 0
M  V30 2032 C 186.379 1.44801 -1.40124 0
M  V30 2033 O 185.435 2.21227 -1.21716 0
M  V30 2034 C 186.748 -0.512256 -2.96305 0
M  V30 2035 C 188.296 -0.468328 -3.09476 0
M  V30 2036 C 188.771 -0.919731 -4.4867 0
M  V30 2037 N 190.262 -0.875656 -4.54848 0
M  V30 2038 C 190.997 -1.19637 -5.6078 0
M  V30 2039 N 190.493 -1.58745 -6.74368 0
M  V30 2040 N 192.286 -1.11776 -5.50874 0
M  V30 2041 H 184.437 -1.35395 -1.63652 0
M  V30 2042 H 186.7 -0.554818 -0.768688 0
M  V30 2043 H 186.406 -1.54935 -3.15734 0
M  V30 2044 H 186.28 0.089805 -3.77093 0
M  V30 2045 H 188.667 0.559671 -2.89744 0
M  V30 2046 H 188.748 -1.10616 -2.30646 0
M  V30 2047 H 188.392 -1.94595 -4.69143 0
M  V30 2048 H 188.322 -0.258927 -5.25963 0
M  V30 2049 H 190.813 -0.587843 -3.733 0
M  V30 2050 H 191.126 -1.81586 -7.51163 0
M  V30 2051 H 189.471 -1.6263 -6.75705 0
M  V30 2052 H 192.662 -0.811264 -4.61016 0
M  V30 2053 H 192.835 -1.37103 -6.3333 0
M  V30 2054 N 186.241 1.57166 -0.116904 0
M  V30 2055 C 187.151 2.18745 0.847812 0
M  V30 2056 C 188.167 1.163 1.29423 0
M  V30 2057 O 189.343 1.48761 1.35765 0
M  V30 2058 C 186.408 2.77307 2.0809 0
M  V30 2059 C 185.469 3.94781 1.68661 0
M  V30 2060 C 184.702 4.50541 2.86091 0
M  V30 2061 O 184.925 4.05202 4.01456 0
M  V30 2062 O 183.859 5.41256 2.63298 0
M  V30 2063 H 187.685 3.01632 0.353778 0
M  V30 2064 H 185.27 1.49005 0.108599 0
M  V30 2065 H 187.152 3.14647 2.80313 0
M  V30 2066 H 185.827 1.97452 2.56504 0
M  V30 2067 H 184.734 3.62214 0.935518 0
M  V30 2068 H 186.067 4.76065 1.24991 0
M  V30 2069 N 187.719 -0.156864 1.56817 0
M  V30 2070 C 188.959 -0.877453 1.84608 0
M  V30 2071 C 189.323 -1.78791 0.699845 0
M  V30 2072 O 190.524 -2.5472 0.858553 0
M  V30 2073 C 188.795 -1.63992 3.17555 0
M  V30 2074 S 190.354 -2.40729 3.66872 0
M  V30 2075 H 187.172 -0.293612 0.647544 0
M  V30 2076 H 189.774 -0.138099 1.95012 0
M  V30 2077 H 188.478 -0.962363 3.98957 0
M  V30 2078 H 188.009 -2.42038 3.10131 0
M  V30 2079 H 190.024 -3.65725 3.3535 0
M  V30 2080 N 189.197 -1.51736 -0.425897 0
M  V30 2081 C 190.107 -1.76738 -1.54275 0
M  V30 2082 C 191.123 -0.65211 -1.61318 0
M  V30 2083 O 192.299 -0.935654 -1.78346 0
M  V30 2084 C 189.364 -1.89755 -2.90162 0
M  V30 2085 C 188.425 -3.13633 -2.93143 0
M  V30 2086 C 187.658 -3.2602 -4.22548 0
M  V30 2087 O 187.881 -2.44067 -5.15546 0
M  V30 2088 O 186.815 -4.19071 -4.32046 0
M  V30 2089 H 190.641 -2.71502 -1.36089 0
M  V30 2090 H 188.226 -1.36376 -0.610069 0
M  V30 2091 H 190.108 -2.00236 -3.70788 0
M  V30 2092 H 188.783 -0.981785 -3.08452 0
M  V30 2093 H 187.69 -3.08622 -2.11431 0
M  V30 2094 H 189.023 -4.04936 -2.798 0
M  V30 2095 N 190.675 0.682077 -1.42076 0
M  V30 2096 C 191.605 1.80796 -1.47767 0
M  V30 2097 C 192.586 1.6677 -0.334954 0
M  V30 2098 O 193.771 1.863 -0.548264 0
M  V30 2099 C 190.901 3.19038 -1.37229 0
M  V30 2100 C 189.855 3.47789 -2.49453 0
M  V30 2101 C 189.181 4.8553 -2.23975 0
M  V30 2102 C 190.481 3.45411 -3.91776 0
M  V30 2103 H 192.175 1.7629 -2.41997 0
M  V30 2104 H 189.721 0.846721 -1.16476 0
M  V30 2105 H 191.674 3.97528 -1.39821 0
M  V30 2106 H 190.398 3.24204 -0.394907 0
M  V30 2107 H 189.057 2.71657 -2.46166 0
M  V30 2108 H 188.705 4.87337 -1.24547 0
M  V30 2109 H 188.405 5.0573 -2.99184 0
M  V30 2110 H 189.929 5.66312 -2.28304 0
M  V30 2111 H 191.343 4.13882 -3.96705 0
M  V30 2112 H 189.74 3.77145 -4.66778 0
M  V30 2113 H 190.81 2.44122 -4.18966 0
M  V30 2114 N 192.153 1.28127 0.917671 0
M  V30 2115 C 193.083 1.14248 2.03641 0
M  V30 2116 C 194.064 0.0412748 1.7005 0
M  V30 2117 O 195.249 0.217566 1.92977 0
M  V30 2118 C 192.379 0.799431 3.37974 0
M  V30 2119 C 191.333 1.85497 3.85713 0
M  V30 2120 C 190.659 1.36565 5.16966 0
M  V30 2121 C 191.959 3.26085 4.08002 0
M  V30 2122 H 193.653 2.07835 2.15511 0
M  V30 2123 H 191.199 1.00064 1.03553 0
M  V30 2124 H 193.152 0.689114 4.15727 0
M  V30 2125 H 191.876 -0.172145 3.26146 0
M  V30 2126 H 190.535 1.95437 3.10161 0
M  V30 2127 H 190.183 0.383253 5.01538 0
M  V30 2128 H 189.883 2.07143 5.49878 0
M  V30 2129 H 191.407 1.26848 5.97279 0
M  V30 2130 H 192.821 3.19089 4.76293 0
M  V30 2131 H 191.218 3.94462 4.52238 0
M  V30 2132 H 192.288 3.70394 3.12948 0
M  V30 2133 N 193.631 -1.12557 1.10312 0
M  V30 2134 C 194.561 -2.20341 0.772798 0
M  V30 2135 C 195.542 -1.68198 -0.25365 0
M  V30 2136 O 196.727 -1.93831 -0.119699 0
M  V30 2137 C 193.857 -3.46709 0.202443 0
M  V30 2138 C 192.811 -4.11996 1.15943 0
M  V30 2139 C 192.137 -5.328 0.450345 0
M  V30 2140 C 193.437 -4.5828 2.50552 0
M  V30 2141 H 195.131 -2.48229 1.674 0
M  V30 2142 H 192.677 -1.19308 0.806326 0
M  V30 2143 H 194.63 -4.2138 -0.0407752 0
M  V30 2144 H 193.354 -3.18245 -0.734001 0
M  V30 2145 H 192.013 -3.39305 1.38808 0
M  V30 2146 H 191.661 -5.00602 -0.490531 0
M  V30 2147 H 191.361 -5.7743 1.08851 0
M  V30 2148 H 192.885 -6.10219 0.215642 0
M  V30 2149 H 194.299 -5.2433 2.31843 0
M  V30 2150 H 192.696 -5.13683 3.10242 0
M  V30 2151 H 193.766 -3.72329 3.10643 0
M  V30 2152 N 195.109 -0.891671 -1.2995 0
M  V30 2153 C 196.041 -0.320695 -2.26945 0
M  V30 2154 C 197.054 0.528497 -1.53983 0
M  V30 2155 O 198.243 0.346959 -1.75096 0
M  V30 2156 C 195.343 0.562066 -3.34207 0
M  V30 2157 C 194.516 -0.259576 -4.36629 0
M  V30 2158 C 193.575 0.554739 -5.23268 0
M  V30 2159 O 192.601 -0.0249311 -5.69195 0
M  V30 2160 N 193.803 1.8625 -5.4981 0
M  V30 2161 H 196.568 -1.15432 -2.76578 0
M  V30 2162 H 194.129 -0.755336 -1.432 0
M  V30 2163 H 196.121 1.11304 -3.89093 0
M  V30 2164 H 194.691 1.29637 -2.84452 0
M  V30 2165 H 193.911 -0.991986 -3.81514 0
M  V30 2166 H 195.199 -0.822564 -5.02107 0
M  V30 2167 H 194.597 2.35628 -5.14292 0
M  V30 2168 H 193.154 2.36078 -6.07545 0
M  V30 2169 N 196.587 1.43421 -0.653314 0
M  V30 2170 C 197.497 2.34568 0.0388565 0
M  V30 2171 C 198.513 1.53888 0.81207 0
M  V30 2172 O 199.689 1.86539 0.759294 0
M  V30 2173 C 196.754 3.32167 0.993269 0
M  V30 2174 C 195.815 4.28751 0.216977 0
M  V30 2175 C 195.048 5.21688 1.12593 0
M  V30 2176 O 195.271 5.19052 2.36519 0
M  V30 2177 O 194.205 5.98919 0.598284 0
M  V30 2178 H 198.031 2.95251 -0.711386 0
M  V30 2179 H 195.616 1.43564 -0.413502 0
M  V30 2180 H 197.498 3.92183 1.54176 0
M  V30 2181 H 196.173 2.73987 1.72374 0
M  V30 2182 H 195.08 3.72215 -0.375101 0
M  V30 2183 H 196.413 4.89913 -0.473924 0
M  V30 2184 N 198.065 0.39524 1.52563 0
M  V30 2185 C 199.305 -0.184744 2.03563 0
M  V30 2186 C 199.669 -1.43548 1.27507 0
M  V30 2187 O 200.87 -2.093 1.68662 0
M  V30 2188 C 199.141 -0.440294 3.54678 0
M  V30 2189 S 200.7 -0.989712 4.27493 0
M  V30 2190 H 197.518 -0.0515075 0.709132 0
M  V30 2191 H 200.12 0.544957 1.87751 0
M  V30 2192 H 198.824 0.477005 4.07618 0
M  V30 2193 H 198.355 -1.19825 3.74707 0
M  V30 2194 H 200.37 -2.27155 4.41152 0
M  V30 2195 N 199.544 -1.57102 0.125237 0
M  V30 2196 C 200.507 -2.14471 -0.80838 0
M  V30 2197 C 201.507 -1.0811 -1.19033 0
M  V30 2198 O 202.697 -1.33856 -1.11482 0
M  V30 2199 C 199.829 -2.69005 -2.09402 0
M  V30 2200 H 201.022 -2.98297 -0.309696 0
M  V30 2201 H 198.575 -1.55807 -0.124051 0
M  V30 2202 H 199.31 -1.88785 -2.63687 0
M  V30 2203 H 199.095 -3.46799 -1.82957 0
M  V30 2204 H 200.585 -3.13278 -2.76128 0
M  V30 2205 N 201.022 0.148545 -1.56898 0
M  V30 2206 C 201.972 1.1886 -1.94567 0
M  V30 2207 C 202.956 1.3863 -0.816735 0
M  V30 2208 O 204.148 1.40218 -1.08018 0
M  V30 2209 C 201.277 2.52262 -2.32849 0
M  V30 2210 C 200.363 2.36092 -3.52309 0
M  V30 2211 N 200.754 1.89674 -4.6889 0
M  V30 2212 C 199.052 2.66848 -3.57363 0
M  V30 2213 C 199.753 1.86511 -5.50989 0
M  V30 2214 N 198.729 2.29766 -4.92655 0
M  V30 2215 H 202.531 0.821793 -2.82177 0
M  V30 2216 H 200.045 0.356615 -1.58436 0
M  V30 2217 H 202.042 3.27447 -2.58039 0
M  V30 2218 H 200.702 2.89727 -1.46589 0
M  V30 2219 H 201.713 1.59663 -4.92674 0
M  V30 2220 H 198.39 3.08198 -2.81639 0
M  V30 2221 H 199.78 1.52128 -6.54452 0
M  V30 2222 N 202.5 1.5196 0.417844 0
M  V30 2223 C 203.432 1.70895 1.52733 0
M  V30 2224 C 204.445 0.589405 1.51756 0
M  V30 2225 O 205.634 0.864312 1.56179 0
M  V30 2226 C 202.734 1.72627 2.91639 0
M  V30 2227 C 201.907 3.01479 3.16905 0
M  V30 2228 C 200.966 2.95139 4.35637 0
M  V30 2229 O 199.992 3.69059 4.3334 0
M  V30 2230 N 201.194 2.12328 5.40275 0
M  V30 2231 H 203.959 2.66612 1.36888 0
M  V30 2232 H 201.52 1.50089 0.607037 0
M  V30 2233 H 203.512 1.65928 3.6912 0
M  V30 2234 H 202.082 0.844216 3.00985 0
M  V30 2235 H 201.302 3.21895 2.27546 0
M  V30 2236 H 202.59 3.86736 3.30625 0
M  V30 2237 H 201.988 1.51685 5.44985 0
M  V30 2238 H 200.545 2.11494 6.16534 0
M  V30 2239 N 203.978 -0.674533 1.42435 0
M  V30 2240 C 205.206 -1.46283 1.46317 0
M  V30 2241 C 205.621 -1.88653 0.0745836 0
M  V30 2242 O 204.978 -1.58151 -0.91074 0
M  V30 2243 C 205.029 -2.71178 2.3905 0
M  V30 2244 O 204.75 -2.30586 3.72507 0
M  V30 2245 C 206.251 -3.64738 2.51955 0
M  V30 2246 H 203.471 -0.450104 0.497642 0
M  V30 2247 H 206.015 -0.828792 1.86953 0
M  V30 2248 H 204.17 -3.3077 2.01667 0
M  V30 2249 H 204.584 -3.11241 4.22172 0
M  V30 2250 H 206.058 -4.49096 3.20962 0
M  V30 2251 H 206.535 -4.10656 1.55752 0
M  V30 2252 H 207.141 -3.11038 2.90061 0
M  V30 2253 N 205.456 -1.28612 -0.910864 0
M  V30 2254 C 206.684 -1.18792 -1.69399 0
M  V30 2255 C 207.099 0.253039 -1.87097 0
M  V30 2256 O 206.456 1.17071 -1.40003 0
M  V30 2257 C 206.507 -1.88511 -3.08457 0
M  V30 2258 O 206.228 -3.26979 -2.91576 0
M  V30 2259 C 207.729 -1.85029 -4.02839 0
M  V30 2260 H 204.949 -0.412233 -0.529438 0
M  V30 2261 H 207.493 -1.69788 -1.13984 0
M  V30 2262 H 205.648 -1.41379 -3.60681 0
M  V30 2263 H 206.062 -3.61936 -3.79608 0
M  V30 2264 H 207.536 -2.38395 -4.97867 0
M  V30 2265 H 208.013 -0.823303 -4.31414 0
M  V30 2266 H 208.619 -2.31853 -3.56545 0
M  V30 2267 N 206.934 1.1197 -1.10907 0
M  V30 2268 C 207.881 2.17846 -0.762345 0
M  V30 2269 C 208.851 1.63995 0.263599 0
M  V30 2270 O 210.036 1.90273 0.141773 0
M  V30 2271 C 207.176 3.44487 -0.205651 0
M  V30 2272 C 206.289 4.12369 -1.28748 0
M  V30 2273 C 205.424 5.26674 -0.691919 0
M  V30 2274 C 204.463 5.86431 -1.75399 0
M  V30 2275 N 203.6 6.92142 -1.17833 0
M  V30 2276 H 208.44 2.46851 -1.6694 0
M  V30 2277 H 205.977 1.21188 -0.833776 0
M  V30 2278 H 207.935 4.16981 0.135037 0
M  V30 2279 H 206.565 3.15884 0.664613 0
M  V30 2280 H 205.617 3.38003 -1.74522 0
M  V30 2281 H 206.929 4.52844 -2.09125 0
M  V30 2282 H 206.083 6.05953 -0.300963 0
M  V30 2283 H 204.822 4.8749 0.143232 0
M  V30 2284 H 203.827 5.05835 -2.15432 0
M  V30 2285 H 205.052 6.27685 -2.59208 0
M  V30 2286 H 202.998 6.54985 -0.364725 0
M  V30 2287 H 202.915 7.31242 -1.91887 0
M  V30 2288 H 204.183 7.75237 -0.81408 0
M  V30 2289 N 208.412 0.89855 1.29475 0
M  V30 2290 C 209.342 0.39201 2.30186 0
M  V30 2291 C 210.323 -0.532359 1.61555 0
M  V30 2292 O 211.508 -0.443331 1.89072 0
M  V30 2293 C 208.638 -0.382353 3.45189 0
M  V30 2294 C 207.592 0.451483 4.25612 0
M  V30 2295 C 206.918 -0.450307 5.328 0
M  V30 2296 C 208.218 1.70079 4.93832 0
M  V30 2297 H 209.912 1.23362 2.72804 0
M  V30 2298 H 207.458 0.594638 1.31149 0
M  V30 2299 H 209.411 -0.747451 4.14718 0
M  V30 2300 H 208.135 -1.25774 3.01411 0
M  V30 2301 H 206.794 0.798897 3.57789 0
M  V30 2302 H 206.442 -1.32379 4.85268 0
M  V30 2303 H 206.142 0.103902 5.87508 0
M  V30 2304 H 207.666 -0.811623 6.05182 0
M  V30 2305 H 209.08 1.40549 5.55805 0
M  V30 2306 H 207.477 2.19623 5.58467 0
M  V30 2307 H 208.547 2.43744 4.19186 0
M  V30 2308 N 209.89 -1.43072 0.660911 0
M  V30 2309 C 211.138 -2.01323 0.177094 0
M  V30 2310 C 211.459 -1.5245 -1.2159 0
M  V30 2311 O 210.729 -0.740322 -1.81373 0
M  V30 2312 H 209.309 -0.744382 0.0624804 0
M  V30 2313 H 211.971 -1.75179 0.854305 0
M  V30 2314 H 211.067 -3.11649 0.167641 0
M  V30 2315 N 211.368 -0.403325 -1.52352 0
M  V30 2316 C 212.784 -0.0539281 -1.59509 0
M  V30 2317 C 212.984 1.43307 -1.41652 0
M  V30 2318 O 212.04 2.19924 -1.24056 0
M  V30 2319 C 213.353 -0.543654 -2.95745 0
M  V30 2320 C 214.901 -0.501125 -3.08962 0
M  V30 2321 C 215.376 -0.967267 -4.47669 0
M  V30 2322 N 216.867 -0.923849 -4.53893 0
M  V30 2323 C 217.602 -1.25578 -5.5948 0
M  V30 2324 N 217.098 -1.65889 -6.72646 0
M  V30 2325 N 218.891 -1.17613 -5.49658 0
M  V30 2326 H 211.042 -1.37123 -1.62206 0
M  V30 2327 H 213.305 -0.56294 -0.76276 0
M  V30 2328 H 213.011 -1.58275 -3.14073 0
M  V30 2329 H 212.885 0.0498042 -3.77167 0
M  V30 2330 H 215.272 0.528909 -2.90321 0
M  V30 2331 H 215.353 -1.13056 -2.2946 0
M  V30 2332 H 214.997 -1.9956 -4.67053 0
M  V30 2333 H 214.927 -0.314698 -5.25659 0
M  V30 2334 H 217.418 -0.627403 -3.72655 0
M  V30 2335 H 217.731 -1.89543 -7.49195 0
M  V30 2336 H 216.076 -1.69787 -6.73942 0
M  V30 2337 H 219.267 -0.860115 -4.6013 0
M  V30 2338 H 219.44 -1.43812 -6.3184 0
M  V30 2339 N 212.846 1.57033 -0.133567 0
M  V30 2340 C 213.793 2.16074 0.811208 0
M  V30 2341 C 214.763 1.08979 1.2535 0
M  V30 2342 O 215.948 1.36958 1.32843 0
M  V30 2343 C 213.088 2.77595 2.05024 0
M  V30 2344 C 212.201 3.99042 1.65498 0
M  V30 2345 C 211.336 4.48603 2.84479 0
M  V30 2346 C 210.375 5.62547 2.41262 0
M  V30 2347 N 209.512 6.06787 3.53206 0
M  V30 2348 H 214.352 2.96477 0.300906 0
M  V30 2349 H 211.889 1.46462 0.136822 0
M  V30 2350 H 213.847 3.11402 2.77642 0
M  V30 2351 H 212.477 1.99859 2.53488 0
M  V30 2352 H 211.529 3.71302 0.826981 0
M  V30 2353 H 212.841 4.81629 1.29748 0
M  V30 2354 H 211.995 4.84395 3.65303 0
M  V30 2355 H 210.734 3.64995 3.23465 0
M  V30 2356 H 209.739 5.26345 1.58874 0
M  V30 2357 H 210.964 6.47931 2.03377 0
M  V30 2358 H 208.91 5.26117 3.91838 0
M  V30 2359 H 208.827 6.84266 3.21427 0
M  V30 2360 H 210.095 6.4722 4.34427 0
M  V30 2361 N 214.325 -0.140222 1.56975 0
M  V30 2362 C 215.571 -0.852949 1.83991 0
M  V30 2363 C 215.904 -1.80512 0.716187 0
M  V30 2364 O 215.179 -1.92479 -0.279681 0
M  V30 2365 C 215.462 -1.6215 3.21527 0
M  V30 2366 C 215.315 -0.690363 4.4447 0
M  V30 2367 C 216.634 -2.58247 3.56366 0
M  V30 2368 H 213.753 -0.308634 0.669264 0
M  V30 2369 H 216.395 -0.117898 1.89634 0
M  V30 2370 H 214.545 -2.24812 3.16847 0
M  V30 2371 H 216.217 -0.0742264 4.6124 0
M  V30 2372 H 214.46 -0.000396433 4.338 0
M  V30 2373 H 215.131 -1.2643 5.37326 0
M  V30 2374 H 217.607 -2.05701 3.61699 0
M  V30 2375 H 216.483 -3.09067 4.53617 0
M  V30 2376 H 216.744 -3.39923 2.82674 0
M  V30 2377 N 215.803 -1.52179 -0.40978 0
M  V30 2378 C 216.713 -1.78364 -1.52392 0
M  V30 2379 C 217.729 -0.669183 -1.60617 0
M  V30 2380 O 218.905 -0.954518 -1.77344 0
M  V30 2381 C 215.97 -1.92822 -2.88133 0
M  V30 2382 C 215.031 -3.16725 -2.898 0
M  V30 2383 C 214.264 -3.30483 -4.19067 0
M  V30 2384 O 214.487 -2.49522 -5.12928 0
M  V30 2385 O 213.421 -4.2363 -4.27576 0
M  V30 2386 H 217.247 -2.72931 -1.33201 0
M  V30 2387 H 214.832 -1.37016 -0.59557 0
M  V30 2388 H 216.714 -2.04157 -3.68643 0
M  V30 2389 H 215.389 -1.01444 -3.07393 0
M  V30 2390 H 214.296 -3.10848 -2.08146 0
M  V30 2391 H 215.629 -4.07881 -2.75489 0
M  V30 2392 N 217.281 0.66697 -1.42791 0
M  V30 2393 C 218.509 1.45505 -1.47091 0
M  V30 2394 C 218.924 1.8861 -0.0845873 0
M  V30 2395 O 218.281 1.58632 0.90234 0
M  V30 2396 C 218.332 2.69906 -2.40485 0
M  V30 2397 O 218.053 2.28608 -3.73725 0
M  V30 2398 C 219.554 3.63396 -2.53886 0
M  V30 2399 H 216.774 0.447459 -0.500022 0
M  V30 2400 H 219.318 0.818866 -1.8739 0
M  V30 2401 H 217.473 3.29696 -2.03419 0
M  V30 2402 H 217.887 3.08997 -4.23817 0
M  V30 2403 H 219.361 4.47387 -3.2334 0
M  V30 2404 H 219.838 4.09824 -1.57927 0
M  V30 2405 H 220.444 3.09495 -2.91706 0
M  V30 2406 N 218.759 1.29093 0.90403 0
M  V30 2407 C 220.008 1.16187 1.64874 0
M  V30 2408 C 220.321 -0.286742 1.93487 0
M  V30 2409 O 221.527 -0.537062 2.66135 0
M  V30 2410 C 219.983 2.03177 2.97064 0
M  V30 2411 C 219.591 3.52836 2.76062 0
M  V30 2412 C 221.335 1.98984 3.74974 0
M  V30 2413 C 219.242 4.31945 4.03952 0
M  V30 2414 H 218.172 0.431246 0.618501 0
M  V30 2415 H 220.823 1.53699 1.00243 0
M  V30 2416 H 219.205 1.5853 3.62883 0
M  V30 2417 H 220.379 4.05507 2.18863 0
M  V30 2418 H 218.694 3.58656 2.11553 0
M  V30 2419 H 221.291 2.55351 4.69787 0
M  V30 2420 H 221.634 0.968815 4.0487 0
M  V30 2421 H 222.167 2.41652 3.15989 0
M  V30 2422 H 218.906 5.34667 3.79225 0
M  V30 2423 H 218.426 3.84045 4.60727 0
M  V30 2424 H 220.105 4.42379 4.72133 0
M  V30 2425 N 220.237 -1.11381 1.11499 0
M  V30 2426 C 221.465 -1.86934 0.88675 0
M  V30 2427 C 221.88 -1.80195 -0.563476 0
M  V30 2428 O 221.237 -1.18367 -1.38908 0
M  V30 2429 C 221.288 -3.35722 1.34064 0
M  V30 2430 O 221.009 -3.4232 2.73401 0
M  V30 2431 C 222.51 -4.2818 1.14791 0
M  V30 2432 H 219.73 -0.591117 0.317523 0
M  V30 2433 H 222.274 -1.40865 1.48248 0
M  V30 2434 H 220.429 -3.79294 0.788355 0
M  V30 2435 H 220.843 -4.34971 2.93087 0
M  V30 2436 H 222.317 -5.30817 1.5145 0
M  V30 2437 H 222.794 -4.39113 0.0875279 0
M  V30 2438 H 223.4 -3.90402 1.68721 0
M  V30 2439 N 221.715 -0.905404 -1.28997 0
M  V30 2440 C 222.964 -0.530191 -1.94607 0
M  V30 2441 C 223.277 0.929185 -1.72121 0
M  V30 2442 O 224.483 1.41218 -2.31883 0
M  V30 2443 C 222.939 -0.897333 -3.48534 0
M  V30 2444 C 222.547 -2.37587 -3.79811 0
M  V30 2445 C 224.291 -0.592304 -4.20347 0
M  V30 2446 C 222.198 -2.68357 -5.27009 0
M  V30 2447 H 221.128 -0.194558 -0.728466 0
M  V30 2448 H 223.779 -1.10318 -1.46636 0
M  V30 2449 H 222.161 -0.253214 -3.9519 0
M  V30 2450 H 223.335 -3.06602 -3.43994 0
M  V30 2451 H 221.65 -2.6505 -3.2115 0
M  V30 2452 H 224.247 -0.798975 -5.28697 0
M  V30 2453 H 224.59 0.469474 -4.13644 0
M  V30 2454 H 225.123 -1.19452 -3.79442 0
M  V30 2455 H 221.862 -3.73355 -5.38782 0
M  V30 2456 H 221.382 -2.03971 -5.64053 0
M  V30 2457 H 223.061 -2.54922 -5.94663 0
M  V30 2458 N 223.193 1.4272 -0.668489 0
M  V30 2459 C 224.442 2.00846 -0.185389 0
M  V30 2460 C 224.755 1.53442 1.21305 0
M  V30 2461 O 225.961 2.03944 1.79218 0
M  V30 2462 C 224.417 3.58805 -0.280591 0
M  V30 2463 C 224.025 4.15198 -1.68268 0
M  V30 2464 C 225.769 4.24255 0.14412 0
M  V30 2465 C 223.676 5.655 -1.73099 0
M  V30 2466 H 222.606 0.751145 -0.0655475 0
M  V30 2467 H 225.257 1.63516 -0.832752 0
M  V30 2468 H 223.639 3.93608 0.434553 0
M  V30 2469 H 224.813 3.91866 -2.42441 0
M  V30 2470 H 223.128 3.62176 -2.05469 0
M  V30 2471 H 225.725 5.34547 0.128086 0
M  V30 2472 H 226.068 3.99277 1.17827 0
M  V30 2473 H 226.601 3.94389 -0.519798 0
M  V30 2474 H 223.34 5.95268 -2.74475 0
M  V30 2475 H 222.86 5.90842 -1.03274 0
M  V30 2476 H 224.539 6.29808 -1.48158 0
M  V30 2477 N 224.671 0.411399 1.52136 0
M  V30 2478 C 225.901 -0.16284 2.05957 0
M  V30 2479 C 226.309 -1.3922 1.28119 0
M  V30 2480 O 225.652 -1.80768 0.326881 0
M  V30 2481 C 225.714 -0.575946 3.54856 0
M  V30 2482 C 225.378 0.542998 4.53763 0
M  V30 2483 C 226.375 1.40726 5.00492 0
M  V30 2484 C 224.06 0.716337 4.97166 0
M  V30 2485 C 226.054 2.4298 5.8927 0
M  V30 2486 C 223.741 1.74218 5.8574 0
M  V30 2487 C 224.739 2.59731 6.31687 0
M  V30 2488 O 224.427 3.60558 7.18507 0
M  V30 2489 H 224.159 -0.0229125 0.675612 0
M  V30 2490 H 226.713 0.581634 1.96993 0
M  V30 2491 H 224.943 -1.37274 3.61515 0
M  V30 2492 H 226.632 -1.07836 3.91313 0
M  V30 2493 H 227.398 1.28476 4.67674 0
M  V30 2494 H 223.277 0.0603857 4.6096 0
M  V30 2495 H 226.821 3.0976 6.25055 0
M  V30 2496 H 222.718 1.86498 6.17971 0
M  V30 2497 H 223.486 3.56829 7.36624 0
M  V30 2498 N 226.149 -1.5696 0.141893 0
M  V30 2499 C 227.426 -1.87553 -0.555281 0
M  V30 2500 C 227.806 -1.04699 -1.83306 0
M  V30 2501 O 227.154 -0.132346 -2.28116 0
M  V30 2502 C 227.364 -3.39093 -0.825664 0
M  V30 2503 C 228.712 -4.08199 -1.16869 0
M  V30 2504 O 229.736 -3.44242 -0.915185 0
M  V30 2505 O 228.595 -5.21139 -1.6455 0
M  V30 2506 H 225.689 -0.777188 -0.282679 0
M  V30 2507 H 228.235 -1.68763 0.17812 0
M  V30 2508 H 227.007 -3.91221 0.0788633 0
M  V30 2509 H 226.63 -3.63393 -1.61343 0
M  V30 2510 N 227.627 0.131896 -1.57047 0
M  V30 2511 C 228.867 0.847972 -1.85981 0
M  V30 2512 C 229.231 1.77655 -0.7282 0
M  V30 2513 O 230.432 2.53322 -0.898968 0
M  V30 2514 C 228.703 1.58919 -3.20124 0
M  V30 2515 S 230.262 2.34862 -3.70655 0
M  V30 2516 H 227.08 0.283273 -0.652133 0
M  V30 2517 H 229.682 0.107057 -1.95207 0
M  V30 2518 H 228.386 0.898771 -4.00438 0
M  V30 2519 H 227.917 2.37073 -3.13942 0
M  V30 2520 H 229.932 3.60344 -3.41126 0
M  V30 2521 N 229.106 1.52395 0.401703 0
M  V30 2522 C 230.016 1.7917 1.51444 0
M  V30 2523 C 231.032 0.677691 1.6026 0
M  V30 2524 O 232.208 0.963909 1.76835 0
M  V30 2525 C 229.273 1.94347 2.87107 0
M  V30 2526 C 228.334 3.18257 2.88116 0
M  V30 2527 C 227.567 3.32701 4.17308 0
M  V30 2528 O 227.79 2.52238 5.11598 0
M  V30 2529 O 226.724 4.25891 4.25324 0
M  V30 2530 H 230.55 2.73633 1.31752 0
M  V30 2531 H 228.135 1.3733 0.588296 0
M  V30 2532 H 230.017 2.06109 3.67555 0
M  V30 2533 H 228.692 1.03073 3.06851 0
M  V30 2534 H 227.599 3.11947 2.06494 0
M  V30 2535 H 228.932 4.09336 2.73322 0
M  V30 2536 N 230.584 -0.659388 1.43143 0
M  V30 2537 C 231.832 -1.41654 1.44147 0
M  V30 2538 C 232.153 -1.94893 0.0645739 0
M  V30 2539 O 231.423 -1.74044 -0.899198 0
M  V30 2540 H 230.003 -0.525708 0.530697 0
M  V30 2541 H 232.665 -0.778097 1.78694 0
M  V30 2542 H 231.761 -2.26195 2.1504 0
M  V30 2543 N 232.062 -1.29571 -0.897171 0
M  V30 2544 C 232.992 -1.17473 -2.01798 0
M  V30 2545 C 233.973 -0.068323 -1.69963 0
M  V30 2546 O 235.158 -0.248239 -1.92607 0
M  V30 2547 C 232.288 -0.853099 -3.36659 0
M  V30 2548 C 231.242 -1.9161 -3.82713 0
M  V30 2549 C 230.568 -1.44773 -5.14728 0
M  V30 2550 C 231.868 -3.32535 -4.02763 0
M  V30 2551 H 233.562 -2.11237 -2.12177 0
M  V30 2552 H 231.108 -1.01699 -1.01948 0
M  V30 2553 H 233.061 -0.755165 -4.14578 0
M  V30 2554 H 231.785 0.120236 -3.26379 0
M  V30 2555 H 230.444 -2.00346 -3.07013 0
M  V30 2556 H 230.092 -0.462995 -5.00865 0
M  V30 2557 H 229.792 -2.15865 -5.46513 0
M  V30 2558 H 231.316 -1.36334 -5.95185 0
M  V30 2559 H 232.73 -3.26626 -4.71156 0
M  V30 2560 H 231.127 -4.01607 -4.45905 0
M  V30 2561 H 232.197 -3.75326 -3.07016 0
M  V30 2562 N 233.54 1.10788 -1.12088 0
M  V30 2563 C 234.788 1.8231 -0.872205 0
M  V30 2564 C 235.109 1.85419 0.603709 0
M  V30 2565 O 234.379 1.32963 1.43867 0
M  V30 2566 H 232.959 0.675137 -0.319686 0
M  V30 2567 H 235.621 1.34068 -1.41463 0
M  V30 2568 H 234.717 2.85955 -1.25045 0
M  V30 2569 N 235.018 0.912232 1.28515 0
M  V30 2570 C 235.948 0.416403 2.29757 0
M  V30 2571 C 236.929 -0.515194 1.6211 0
M  V30 2572 O 238.114 -0.423253 1.89532 0
M  V30 2573 C 235.244 -0.34572 3.45575 0
M  V30 2574 C 234.198 0.496599 4.25109 0
M  V30 2575 C 233.524 -0.393771 5.33248 0
M  V30 2576 C 234.824 1.75307 4.92001 0
M  V30 2577 H 236.518 1.26249 2.7148 0
M  V30 2578 H 234.064 0.608515 1.30511 0
M  V30 2579 H 236.017 -0.703422 4.15488 0
M  V30 2580 H 234.741 -1.2257 3.02728 0
M  V30 2581 H 233.4 0.8368 3.56922 0
M  V30 2582 H 233.048 -1.27225 4.86644 0
M  V30 2583 H 232.748 0.166209 5.87365 0
M  V30 2584 H 234.272 -0.747389 6.06009 0
M  V30 2585 H 235.686 1.46437 5.54283 0
M  V30 2586 H 234.083 2.25534 5.56106 0
M  V30 2587 H 235.153 2.48176 4.16577 0
M  V30 2588 N 236.496 -1.42363 0.676048 0
M  V30 2589 C 237.443 -2.308 -0.00150904 0
M  V30 2590 C 238.413 -1.46032 -0.791444 0
M  V30 2591 O 239.598 -1.74861 -0.76344 0
M  V30 2592 C 236.738 -3.31883 -0.945919 0
M  V30 2593 C 235.851 -4.31741 -0.149675 0
M  V30 2594 C 234.986 -5.19898 -1.08995 0
M  V30 2595 C 234.025 -6.11434 -0.285465 0
M  V30 2596 N 233.162 -6.92138 -1.17851 0
M  V30 2597 H 238.002 -2.88187 0.758455 0
M  V30 2598 H 235.539 -1.41952 0.38576 0
M  V30 2599 H 237.497 -3.89019 -1.50731 0
M  V30 2600 H 236.127 -2.76093 -1.6725 0
M  V30 2601 H 235.179 -3.76713 0.528359 0
M  V30 2602 H 236.491 -4.96534 0.474866 0
M  V30 2603 H 235.645 -5.81772 -1.72123 0
M  V30 2604 H 234.384 -4.55284 -1.74837 0
M  V30 2605 H 233.389 -5.48627 0.359018 0
M  V30 2606 H 234.614 -6.78097 0.368883 0
M  V30 2607 H 232.56 -6.30152 -1.82332 0
M  V30 2608 H 232.477 -7.53542 -0.609082 0
M  V30 2609 H 233.745 -7.58499 -1.79722 0
M  V30 2610 N 237.974 -0.419461 -1.51915 0
M  V30 2611 C 238.924 0.418496 -2.24126 0
M  V30 2612 C 239.908 1.00495 -1.25656 0
M  V30 2613 O 241.1 0.926058 -1.50842 0
M  V30 2614 C 238.229 1.52899 -3.07371 0
M  V30 2615 C 237.315 0.952797 -4.13258 0
M  V30 2616 N 237.706 0.104175 -5.05693 0
M  V30 2617 C 236.004 1.22224 -4.28926 0
M  V30 2618 C 236.705 -0.21752 -5.81293 0
M  V30 2619 N 235.681 0.394293 -5.42168 0
M  V30 2620 H 239.483 -0.236048 -2.92951 0
M  V30 2621 H 236.997 -0.230481 -1.60756 0
M  V30 2622 H 238.994 2.14199 -3.57665 0
M  V30 2623 H 237.654 2.18605 -2.40088 0
M  V30 2624 H 238.665 -0.260924 -5.17242 0
M  V30 2625 H 235.342 1.87812 -3.72871 0
M  V30 2626 H 236.732 -0.906992 -6.6575 0
M  V30 2627 N 239.452 1.56882 -0.150215 0
M  V30 2628 C 240.382 2.19935 0.784284 0
M  V30 2629 C 241.363 1.14854 1.25469 0
M  V30 2630 O 242.548 1.43209 1.31168 0
M  V30 2631 C 239.678 2.82349 2.02229 0
M  V30 2632 C 238.632 3.93285 1.68853 0
M  V30 2633 C 237.958 4.42649 2.99944 0
M  V30 2634 C 239.258 5.13904 0.932714 0
M  V30 2635 H 240.952 2.9828 0.258781 0
M  V30 2636 H 238.498 1.43473 0.123029 0
M  V30 2637 H 240.451 3.25126 2.68088 0
M  V30 2638 H 239.175 2.0134 2.57157 0
M  V30 2639 H 237.834 3.5113 1.05371 0
M  V30 2640 H 237.482 3.58458 3.52869 0
M  V30 2641 H 237.182 5.17476 2.78374 0
M  V30 2642 H 238.706 4.88099 3.66868 0
M  V30 2643 H 240.12 5.53506 1.49345 0
M  V30 2644 H 238.517 5.94515 0.81684 0
M  V30 2645 H 239.587 4.84842 -0.0749568 0
M  V30 2646 N 240.93 -0.123565 1.57115 0
M  V30 2647 C 242.176 -0.828428 1.85765 0
M  V30 2648 C 242.531 -1.77709 0.737371 0
M  V30 2649 O 241.824 -1.89787 -0.262978 0
M  V30 2650 C 242.018 -1.62016 3.18568 0
M  V30 2651 C 241.847 -0.749663 4.43407 0
M  V30 2652 C 240.617 -0.406251 5.03664 0
M  V30 2653 C 242.815 -0.0693505 5.14253 0
M  V30 2654 N 240.797 0.475389 6.12057 0
M  V30 2655 C 242.168 0.671474 6.16353 0
M  V30 2656 C 244.223 0.00754393 4.97899 0
M  V30 2657 C 242.926 1.48197 7.03868 0
M  V30 2658 C 244.952 0.804845 5.85898 0
M  V30 2659 C 244.314 1.53388 6.87497 0
M  V30 2660 H 240.413 -0.280219 0.73007 0
M  V30 2661 H 242.997 -0.0924183 1.94481 0
M  V30 2662 H 241.168 -2.32724 3.10957 0
M  V30 2663 H 242.9 -2.27 3.35042 0
M  V30 2664 H 239.655 -0.747446 4.67665 0
M  V30 2665 H 240.079 0.907924 6.70884 0
M  V30 2666 H 244.721 -0.541741 4.19315 0
M  V30 2667 H 242.439 2.04242 7.81864 0
M  V30 2668 H 246.025 0.866642 5.75309 0
M  V30 2669 H 244.905 2.1409 7.5441 0
M  V30 2670 N 242.408 -1.52605 -0.393616 0
M  V30 2671 C 243.355 -1.77055 -1.48054 0
M  V30 2672 C 244.325 -0.61358 -1.54352 0
M  V30 2673 O 245.51 -0.852806 -1.70681 0
M  V30 2674 C 242.65 -1.94108 -2.85335 0
M  V30 2675 C 241.763 -3.21792 -2.88226 0
M  V30 2676 C 240.898 -3.29188 -4.16904 0
M  V30 2677 C 239.937 -4.51013 -4.13828 0
M  V30 2678 N 239.074 -4.55716 -5.34105 0
M  V30 2679 H 243.914 -2.69815 -1.26506 0
M  V30 2680 H 241.451 -1.33683 -0.61379 0
M  V30 2681 H 243.409 -2.01979 -3.65049 0
M  V30 2682 H 242.039 -1.04713 -3.05344 0
M  V30 2683 H 241.091 -3.23015 -2.00911 0
M  V30 2684 H 242.403 -4.11557 -2.8182 0
M  V30 2685 H 241.557 -3.36216 -5.05018 0
M  V30 2686 H 240.296 -2.37389 -4.26026 0
M  V30 2687 H 239.301 -4.44115 -3.24102 0
M  V30 2688 H 240.526 -5.44123 -4.06333 0
M  V30 2689 H 238.472 -3.66807 -5.43865 0
M  V30 2690 H 238.389 -5.39346 -5.29756 0
M  V30 2691 H 239.657 -4.66993 -6.2413 0
M  V30 2692 N 243.887 0.651787 -1.4349 0
M  V30 2693 C 245.298 1.233 -1.40193 0
M  V30 2694 C 245.649 1.9591 -0.106727 0
M  V30 2695 O 244.774 2.01316 0.793773 0
M  V30 2696 C 245.369 2.24257 -2.53957 0
M  V30 2697 C 243.928 2.77852 -2.5392 0
M  V30 2698 C 243.075 1.52517 -2.3159 0
M  V30 2699 H 246.026 0.443717 -1.52371 0
M  V30 2700 H 246.047 3.0646 -2.25528 0
M  V30 2701 H 245.559 1.71382 -3.4821 0
M  V30 2702 H 243.66 3.34786 -1.63551 0
M  V30 2703 H 243.773 3.25299 -3.51735 0
M  V30 2704 H 242.137 1.79915 -1.80285 0
M  V30 2705 H 242.92 1.01574 -3.27929 0
M  V30 2706 N 245.365 1.30045 0.890287 0
M  V30 2707 C 246.328 1.15963 1.977 0
M  V30 2708 C 247.328 0.0923777 1.60534 0
M  V30 2709 O 248.518 0.340071 1.70848 0
M  V30 2710 C 245.65 0.775451 3.31963 0
M  V30 2711 H 246.843 2.12502 2.11619 0
M  V30 2712 H 244.396 1.13366 1.07601 0
M  V30 2713 H 245.131 -0.189671 3.23745 0
M  V30 2714 H 244.916 1.54668 3.60306 0
M  V30 2715 H 246.406 0.700251 4.11687 0
M  V30 2716 N 246.843 -1.10192 1.12674 0
M  V30 2717 C 248.089 -1.82475 0.884915 0
M  V30 2718 C 248.422 -1.85093 -0.58773 0
M  V30 2719 O 247.697 -1.3134 -1.43457 0
M  V30 2720 C 247.98 -3.29018 1.46353 0
M  V30 2721 C 247.833 -3.34718 3.00473 0
M  V30 2722 C 249.152 -4.25473 1.12519 0
M  V30 2723 H 246.271 -0.662492 0.322915 0
M  V30 2724 H 248.913 -1.2913 1.39375 0
M  V30 2725 H 247.063 -3.74576 1.03077 0
M  V30 2726 H 248.735 -2.97622 3.52447 0
M  V30 2727 H 246.978 -2.74541 3.35872 0
M  V30 2728 H 247.649 -4.37918 3.36053 0
M  V30 2729 H 250.125 -3.88161 1.499 0
M  V30 2730 H 249.001 -5.26365 1.55663 0
M  V30 2731 H 249.262 -4.42084 0.0377407 0
M  V30 2732 N 248.321 -0.919034 -1.28029 0
M  V30 2733 C 249.231 -0.416756 -2.30869 0
M  V30 2734 C 250.247 0.498235 -1.66714 0
M  V30 2735 O 251.423 0.383144 -1.97722 0
M  V30 2736 C 248.488 0.330274 -3.45123 0
M  V30 2737 C 247.549 -0.618578 -4.2482 0
M  V30 2738 C 246.782 0.0928959 -5.33619 0
M  V30 2739 O 247.005 1.31375 -5.55065 0
M  V30 2740 O 245.939 -0.574499 -5.99152 0
M  V30 2741 H 249.765 -1.27043 -2.75851 0
M  V30 2742 H 247.35 -0.684052 -1.3282 0
M  V30 2743 H 249.232 0.751972 -4.14636 0
M  V30 2744 H 247.907 1.1597 -3.02213 0
M  V30 2745 H 246.814 -1.08978 -3.57875 0
M  V30 2746 H 248.147 -1.41497 -4.71423 0
M  V30 2747 N 249.799 1.42003 -0.683588 0
M  V30 2748 C 250.762 2.29191 -0.0198243 0
M  V30 2749 C 251.762 1.43773 0.72013 0
M  V30 2750 O 252.952 1.65061 0.556815 0
M  V30 2751 C 250.084 3.26435 0.982487 0
M  V30 2752 H 251.277 2.8938 -0.787345 0
M  V30 2753 H 248.83 1.49789 -0.446418 0
M  V30 2754 H 249.565 2.71203 1.77819 0
M  V30 2755 H 249.35 3.89449 0.455182 0
M  V30 2756 H 250.84 3.918 1.44508 0
M  V30 2757 N 251.277 0.427512 1.51691 0
M  V30 2758 C 252.507 -0.140986 2.06118 0
M  V30 2759 C 252.915 -1.37854 1.29588 0
M  V30 2760 O 252.258 -1.80411 0.346036 0
M  V30 2761 C 252.32 -0.538276 3.55447 0
M  V30 2762 C 251.984 0.591095 4.53161 0
M  V30 2763 C 252.981 1.46027 4.98971 0
M  V30 2764 C 250.666 0.769028 4.96378 0
M  V30 2765 C 252.66 2.49216 5.8666 0
M  V30 2766 C 250.347 1.80421 5.83859 0
M  V30 2767 C 251.345 2.66417 6.28897 0
M  V30 2768 O 251.033 3.68159 7.14643 0
M  V30 2769 H 250.765 -0.0157455 0.675817 0
M  V30 2770 H 253.319 0.602495 1.96365 0
M  V30 2771 H 251.549 -1.33432 3.6295 0
M  V30 2772 H 253.238 -1.0368 3.92435 0
M  V30 2773 H 254.004 1.33429 4.66285 0
M  V30 2774 H 249.883 0.109273 4.6087 0
M  V30 2775 H 253.427 3.16372 6.21735 0
M  V30 2776 H 249.324 1.93042 6.15959 0
M  V30 2777 H 250.092 3.64622 7.32798 0
M  V30 2778 N 252.755 -1.56801 0.158532 0
M  V30 2779 C 254.003 -1.96102 -0.488712 0
M  V30 2780 C 254.324 -1.04498 -1.64636 0
M  V30 2781 O 253.594 -0.108783 -1.95598 0
M  V30 2782 H 252.174 -0.724102 -0.183535 0
M  V30 2783 H 254.836 -1.93457 0.236728 0
M  V30 2784 H 253.932 -3.00097 -0.857219 0
M  V30 2785 N 254.233 0.115231 -1.57178 0
M  V30 2786 C 255.143 1.15994 -2.03918 0
M  V30 2787 C 256.159 1.45103 -0.960268 0
M  V30 2788 O 257.335 1.56144 -1.27204 0
M  V30 2789 C 254.4 2.46568 -2.43732 0
M  V30 2790 C 253.461 2.24822 -3.65723 0
M  V30 2791 C 252.694 3.4917 -4.03629 0
M  V30 2792 O 252.917 4.56623 -3.41835 0
M  V30 2793 O 251.851 3.39949 -4.96708 0
M  V30 2794 H 255.677 0.793019 -2.93164 0
M  V30 2795 H 253.262 0.3263 -1.45793 0
M  V30 2796 H 255.144 3.23492 -2.70057 0
M  V30 2797 H 253.819 2.82726 -1.57631 0
M  V30 2798 H 252.726 1.45744 -3.44542 0
M  V30 2799 H 254.059 1.93566 -4.52541 0
M  V30 2800 N 255.711 1.52812 0.385517 0
M  V30 2801 C 256.958 1.68026 1.1302 0
M  V30 2802 C 257.286 0.421934 1.89868 0
M  V30 2803 O 256.541 -0.595749 1.86412 0
M  V30 2804 C 256.84 2.86856 2.13187 0
M  V30 2805 C 256.506 4.24159 1.5297 0
M  V30 2806 C 255.168 4.61501 1.36274 0
M  V30 2807 C 257.52 5.09627 1.09223 0
M  V30 2808 C 254.848 5.81966 0.743837 0
M  V30 2809 C 257.2 6.30719 0.487411 0
M  V30 2810 C 255.864 6.6679 0.307777 0
M  V30 2811 H 255.134 0.614849 0.413571 0
M  V30 2812 H 257.781 1.86962 0.414405 0
M  V30 2813 H 256.086 2.6235 2.90998 0
M  V30 2814 H 257.783 2.95821 2.70722 0
M  V30 2815 H 254.373 3.94746 1.66954 0
M  V30 2816 H 258.557 4.81343 1.20922 0
M  V30 2817 H 253.813 6.08519 0.592891 0
M  V30 2818 H 257.987 6.96259 0.140143 0
M  V30 2819 H 255.614 7.60001 -0.173879 0
M  V30 2820 N 257.189 -0.644168 1.43834 0
M  V30 2821 C 258.119 -1.76814 1.52509 0
M  V30 2822 C 259.1 -1.65823 0.379052 0
M  V30 2823 O 260.285 -1.84781 0.597466 0
M  V30 2824 C 257.415 -3.15288 1.4564 0
M  V30 2825 C 256.369 -3.41053 2.58586 0
M  V30 2826 C 255.695 -4.79421 2.36769 0
M  V30 2827 C 256.995 -3.34902 4.00797 0
M  V30 2828 H 258.689 -1.69812 2.46586 0
M  V30 2829 H 256.235 -0.815542 1.1868 0
M  V30 2830 H 258.188 -3.93681 1.50311 0
M  V30 2831 H 256.912 -3.23043 0.480725 0
M  V30 2832 H 255.571 -2.65035 2.53282 0
M  V30 2833 H 255.219 -4.83863 1.37424 0
M  V30 2834 H 254.919 -4.9762 3.12487 0
M  V30 2835 H 256.443 -5.6006 2.43238 0
M  V30 2836 H 257.857 -4.03218 4.07539 0
M  V30 2837 H 256.254 -3.64637 4.76613 0
M  V30 2838 H 257.324 -2.32928 4.25291 0
M  V30 2839 N 258.668 -1.30515 -0.883378 0
M  V30 2840 C 259.908 -1.20716 -1.64946 0
M  V30 2841 C 260.272 0.234072 -1.90568 0
M  V30 2842 O 261.473 0.455335 -2.64915 0
M  V30 2843 C 259.744 -2.01444 -2.9522 0
M  V30 2844 S 261.303 -2.0836 -3.86175 0
M  V30 2845 H 258.121 -0.430165 -0.566109 0
M  V30 2846 H 260.723 -1.65011 -1.04841 0
M  V30 2847 H 259.427 -3.05268 -2.74298 0
M  V30 2848 H 258.958 -1.57817 -3.60357 0
M  V30 2849 H 260.973 -1.21215 -4.81167 0
M  V30 2850 N 260.146 1.09593 -1.13257 0
M  V30 2851 C 261.079 2.15451 -0.752061 0
M  V30 2852 C 262.057 1.60493 0.260913 0
M  V30 2853 O 263.241 1.8788 0.152819 0
M  V30 2854 C 260.368 3.38506 -0.114594 0
M  V30 2855 C 259.414 4.12183 -1.09579 0
M  V30 2856 S 260.247 4.6661 -2.62745 0
M  V30 2857 C 261.403 5.92966 -2.00354 0
M  V30 2858 H 261.636 2.47395 -1.64872 0
M  V30 2859 H 259.169 1.21515 -0.952545 0
M  V30 2860 H 261.127 4.09757 0.246808 0
M  V30 2861 H 259.788 3.04784 0.759309 0
M  V30 2862 H 258.981 5.00445 -0.597545 0
M  V30 2863 H 258.583 3.46785 -1.40057 0
M  V30 2864 H 260.875 6.63882 -1.35156 0
M  V30 2865 H 261.818 6.47467 -2.86691 0
M  V30 2866 H 262.226 5.45405 -1.4558 0
M  V30 2867 N 261.624 0.925811 1.2754 0
M  V30 2868 C 262.871 0.565255 1.94451 0
M  V30 2869 C 263.199 -0.89316 1.7278 0
M  V30 2870 O 262.454 -1.65213 1.04895 0
M  V30 2871 C 262.753 0.835296 3.47502 0
M  V30 2872 C 262.419 2.27515 3.89291 0
M  V30 2873 C 261.081 2.66879 4.00411 0
M  V30 2874 C 263.433 3.21158 4.10496 0
M  V30 2875 C 260.761 3.99014 4.30122 0
M  V30 2876 C 263.113 4.52871 4.4169 0
M  V30 2877 C 261.777 4.92072 4.51023 0
M  V30 2878 H 261.047 0.206841 0.711546 0
M  V30 2879 H 263.694 1.16942 1.51647 0
M  V30 2880 H 261.999 0.148442 3.91519 0
M  V30 2881 H 263.696 0.535322 3.97411 0
M  V30 2882 H 260.286 1.95976 3.81171 0
M  V30 2883 H 264.47 2.9195 4.01346 0
M  V30 2884 H 259.726 4.2907 4.35556 0
M  V30 2885 H 263.9 5.25436 4.57045 0
M  V30 2886 H 261.527 5.9449 4.738 0
M  V30 2887 N 263.102 -1.41638 0.69111 0
M  V30 2888 C 264.012 -2.34588 0.0233487 0
M  V30 2889 C 265.028 -1.55987 -0.770984 0
M  V30 2890 O 266.204 -1.88486 -0.709569 0
M  V30 2891 C 263.269 -3.34684 -0.904851 0
M  V30 2892 C 262.33 -4.29176 -0.103225 0
M  V30 2893 C 261.563 -5.2449 -0.987216 0
M  V30 2894 O 261.786 -5.2514 -2.22674 0
M  V30 2895 O 260.72 -6.00295 -0.439281 0
M  V30 2896 H 264.546 -2.93261 0.789416 0
M  V30 2897 H 262.131 -1.42417 0.45142 0
M  V30 2898 H 264.013 -3.96133 -1.43724 0
M  V30 2899 H 262.688 -2.78461 -1.65049 0
M  V30 2900 H 261.595 -3.71089 0.473655 0
M  V30 2901 H 262.928 -4.88484 0.60365 0
M  V30 2902 N 264.58 -0.43555 -1.51462 0
M  V30 2903 C 265.49 0.383001 -2.31453 0
M  V30 2904 C 266.506 1.02931 -1.4029 0
M  V30 2905 O 267.682 1.02507 -1.73362 0
M  V30 2906 C 264.747 1.47043 -3.13973 0
M  V30 2907 C 263.808 0.844433 -4.20913 0
M  V30 2908 C 263.041 1.88004 -4.9949 0
M  V30 2909 O 263.264 3.10199 -4.78678 0
M  V30 2910 O 262.198 1.47157 -5.83634 0
M  V30 2911 H 266.024 -0.269964 -3.02498 0
M  V30 2912 H 263.609 -0.19813 -1.4808 0
M  V30 2913 H 265.491 2.10113 -3.65281 0
M  V30 2914 H 264.166 2.10751 -2.45695 0
M  V30 2915 H 263.073 0.175729 -3.73687 0
M  V30 2916 H 264.406 0.250869 -4.9156 0
M  V30 2917 N 266.058 1.56714 -0.166846 0
M  V30 2918 C 267.006 2.19056 0.782123 0
M  V30 2919 C 268 1.15328 1.24079 0
M  V30 2920 O 269.206 1.33537 1.20697 0
M  V30 2921 H 265.581 0.70167 0.270486 0
M  V30 2922 H 267.552 2.97494 0.232322 0
M  V30 2923 C 266.301 2.84206 2.00306 0
M  V30 2924 H 265.624 3.63748 1.65914 0
M  V30 2925 H 267.064 3.31302 2.64604 0
M  V30 2926 C 265.523 1.83744 2.82382 0
M  V30 2927 O 266.053 1.32014 3.79388 0
M  V30 2928 N 264.259 1.52601 2.47308 0
M  V30 2929 H 263.806 1.9486 1.68485 0
M  V30 2930 H 263.764 0.856351 3.02513 0
M  V30 2931 N 267.536 -0.106894 1.57237 0
M  V30 2932 C 268.766 -0.825191 1.89405 0
M  V30 2933 C 269.174 -1.73374 0.757496 0
M  V30 2934 O 268.517 -1.81552 -0.280115 0
M  V30 2935 C 268.579 -1.70102 3.1671 0
M  V30 2936 C 268.243 -0.965523 4.46684 0
M  V30 2937 C 269.24 -0.300741 5.19029 0
M  V30 2938 C 266.925 -0.943105 4.93367 0
M  V30 2939 C 268.919 0.376622 6.36286 0
M  V30 2940 C 266.606 -0.261949 6.10538 0
M  V30 2941 C 267.604 0.396748 6.81847 0
M  V30 2942 O 267.292 1.06701 7.96787 0
M  V30 2943 H 267.024 -0.241852 0.631255 0
M  V30 2944 H 269.578 -0.0921491 2.05193 0
M  V30 2945 H 267.808 -2.47601 2.97036 0
M  V30 2946 H 269.497 -2.29483 3.34802 0
M  V30 2947 H 270.263 -0.309599 4.84011 0
M  V30 2948 H 266.142 -1.44524 4.3776 0
M  V30 2949 H 269.686 0.891334 6.91882 0
M  V30 2950 H 265.583 -0.250896 6.45012 0
M  V30 2951 H 266.351 0.972707 8.127 0
M  V30 2952 N 269.014 -1.53014 -0.377408 0
M  V30 2953 C 270.425 -1.60438 -0.954798 0
M  V30 2954 C 270.776 -0.464418 -1.90624 0
M  V30 2955 O 269.901 0.41087 -2.12464 0
M  V30 2956 C 270.496 -2.90797 -1.73847 0
M  V30 2957 C 269.055 -3.00595 -2.26538 0
M  V30 2958 C 268.202 -2.55645 -1.07429 0
M  V30 2959 H 271.153 -1.57926 -0.156575 0
M  V30 2960 H 271.174 -2.77935 -2.5987 0
M  V30 2961 H 270.686 -3.73746 -1.04574 0
M  V30 2962 H 268.787 -2.22208 -2.99089 0
M  V30 2963 H 268.9 -4.05456 -2.5523 0
M  V30 2964 H 267.264 -2.10239 -1.43777 0
M  V30 2965 H 268.047 -3.41 -0.396728 0
M  V30 2966 N 270.492 0.636531 -1.44174 0
M  V30 2967 C 271.402 1.77754 -1.53103 0
M  V30 2968 C 272.418 1.68928 -0.417034 0
M  V30 2969 O 273.594 1.89801 -0.6736 0
M  V30 2970 C 270.659 3.14115 -1.46741 0
M  V30 2971 C 269.72 3.34612 -2.68948 0
M  V30 2972 C 268.953 4.64467 -2.6288 0
M  V30 2973 O 269.176 5.44919 -1.68581 0
M  V30 2974 O 268.11 4.87049 -3.53648 0
M  V30 2975 H 271.936 1.73174 -2.49489 0
M  V30 2976 H 269.521 0.79709 -1.2636 0
M  V30 2977 H 271.403 3.95412 -1.45696 0
M  V30 2978 H 270.078 3.19249 -0.534975 0
M  V30 2979 H 268.985 2.53014 -2.75562 0
M  V30 2980 H 270.318 3.34336 -3.61221 0
M  V30 2981 N 271.97 1.30982 0.876444 0
M  V30 2982 C 273.198 1.23242 1.6619 0
M  V30 2983 C 273.613 -0.203345 1.87702 0
M  V30 2984 O 272.97 -1.13317 1.43057 0
M  V30 2985 C 273.021 1.96623 3.03351 0
M  V30 2986 O 272.742 3.34594 2.82804 0
M  V30 2987 C 274.243 1.95644 3.97792 0
M  V30 2988 H 271.463 0.426126 0.518322 0
M  V30 2989 H 274.007 1.7275 1.09442 0
M  V30 2990 H 272.162 1.50892 3.56806 0
M  V30 2991 H 272.576 3.71873 3.69879 0
M  V30 2992 H 274.05 2.51511 4.91372 0
M  V30 2993 H 274.527 0.937395 4.2908 0
M  V30 2994 H 275.133 2.41225 3.50272 0
M  V30 2995 N 273.449 -1.08991 1.13837 0
M  V30 2996 C 274.379 -2.17771 0.842507 0
M  V30 2997 C 275.36 -1.6892 -0.20001 0
M  V30 2998 O 276.545 -1.94113 -0.0579731 0
M  V30 2999 C 273.675 -3.4589 0.312644 0
M  V30 3000 C 272.629 -4.08099 1.28992 0
M  V30 3001 C 271.955 -5.31098 0.619623 0
M  V30 3002 C 273.255 -4.50077 2.65005 0
M  V30 3003 H 274.949 -2.42777 1.75213 0
M  V30 3004 H 272.495 -1.16682 0.843875 0
M  V30 3005 H 274.448 -4.21297 0.0933043 0
M  V30 3006 H 273.172 -3.20419 -0.632382 0
M  V30 3007 H 271.831 -3.34717 1.49533 0
M  V30 3008 H 271.479 -5.0191 -0.33102 0
M  V30 3009 H 271.179 -5.73674 1.27167 0
M  V30 3010 H 272.703 -6.09224 0.409669 0
M  V30 3011 H 274.117 -5.16688 2.48407 0
M  V30 3012 H 272.514 -5.03553 3.26427 0
M  V30 3013 H 273.584 -3.62257 3.22332 0
M  V30 3014 N 274.927 -0.932562 -1.27047 0
M  V30 3015 C 275.874 -0.434072 -2.26681 0
M  V30 3016 C 276.844 0.501639 -1.58344 0
M  V30 3017 O 278.029 0.419734 -1.86126 0
M  V30 3018 C 275.169 0.30261 -3.43771 0
M  V30 3019 C 274.282 -0.667774 -4.26808 0
M  V30 3020 C 273.417 0.0892393 -5.31125 0
M  V30 3021 C 272.456 -0.873532 -6.05835 0
M  V30 3022 N 271.593 -0.148832 -7.01942 0
M  V30 3023 H 276.433 -1.28868 -2.68695 0
M  V30 3024 H 273.97 -0.646713 -1.32121 0
M  V30 3025 H 275.928 0.746092 -4.10474 0
M  V30 3026 H 274.558 1.12142 -3.02695 0
M  V30 3027 H 273.61 -1.22978 -3.59973 0
M  V30 3028 H 274.922 -1.40337 -4.78651 0
M  V30 3029 H 274.076 0.592409 -6.03801 0
M  V30 3030 H 272.815 0.85777 -4.80097 0
M  V30 3031 H 271.82 -1.38791 -5.31994 0
M  V30 3032 H 273.045 -1.64193 -6.58952 0
M  V30 3033 H 270.991 0.601365 -6.53238 0
M  V30 3034 H 270.908 -0.82391 -7.51497 0
M  V30 3035 H 272.176 0.333527 -7.78786 0
M  V30 3036 N 276.405 1.4127 -0.698611 0
M  V30 3037 C 277.821 1.55241 -0.370462 0
M  V30 3038 C 278.021 1.67351 1.12231 0
M  V30 3039 O 277.077 1.65363 1.90818 0
M  V30 3040 C 278.39 2.78997 -1.12165 0
M  V30 3041 C 279.938 2.92797 -1.1063 0
M  V30 3042 C 280.413 4.19445 -1.8393 0
M  V30 3043 N 281.904 4.26409 -1.80914 0
M  V30 3044 C 282.639 5.23271 -2.34467 0
M  V30 3045 N 282.135 6.26145 -2.96504 0
M  V30 3046 N 283.928 5.15232 -2.24706 0
M  V30 3047 H 276.079 1.31654 -1.66676 0
M  V30 3048 H 278.342 0.635393 -0.703548 0
M  V30 3049 H 278.048 2.76268 -2.17644 0
M  V30 3050 H 277.922 3.70606 -0.702209 0
M  V30 3051 H 280.309 2.95039 -0.0597713 0
M  V30 3052 H 280.39 2.02353 -1.56483 0
M  V30 3053 H 280.034 4.17964 -2.88563 0
M  V30 3054 H 279.964 5.08866 -1.35509 0
M  V30 3055 H 282.455 3.527 -1.35687 0
M  V30 3056 H 282.768 6.96451 -3.34927 0
M  V30 3057 H 281.113 6.26638 -3.00583 0
M  V30 3058 H 284.304 4.33789 -1.7591 0
M  V30 3059 H 284.477 5.90552 -2.66745 0
M  V30 3060 N 277.883 0.443576 1.51229 0
M  V30 3061 C 278.813 -0.355142 2.30783 0
M  V30 3062 C 279.794 -1.0154 1.36468 0
M  V30 3063 O 280.979 -1.01785 1.65389 0
M  V30 3064 C 278.109 -1.45312 3.15439 0
M  V30 3065 C 277.063 -0.916002 4.18083 0
M  V30 3066 C 276.389 -2.1102 4.91299 0
M  V30 3067 C 277.689 0.0538602 5.22272 0
M  V30 3068 H 279.383 0.308767 2.97804 0
M  V30 3069 H 276.929 0.149937 1.43217 0
M  V30 3070 H 278.882 -2.01914 3.69876 0
M  V30 3071 H 277.606 -2.14541 2.46252 0
M  V30 3072 H 276.265 -0.372145 3.64706 0
M  V30 3073 H 275.913 -2.78882 4.18609 0
M  V30 3074 H 275.613 -1.75717 5.60712 0
M  V30 3075 H 277.137 -2.68164 5.48562 0
M  V30 3076 H 278.551 -0.422069 5.71744 0
M  V30 3077 H 276.948 0.319776 5.99247 0
M  V30 3078 H 278.018 0.98858 4.74716 0
M  V30 3079 N 279.361 -1.56624 0.175154 0
M  V30 3080 C 280.608 -1.96999 -0.468811 0
M  V30 3081 C 280.936 -1.06129 -1.62994 0
M  V30 3082 O 280.191 -0.0961771 -1.95464 0
M  V30 3083 C 280.49 -3.43419 -0.989864 0
M  V30 3084 C 280.156 -4.50866 0.0557687 0
M  V30 3085 C 278.818 -4.79975 0.343134 0
M  V30 3086 C 281.17 -5.15551 0.765308 0
M  V30 3087 C 278.498 -5.71066 1.34536 0
M  V30 3088 C 280.85 -6.07724 1.75654 0
M  V30 3089 C 279.514 -6.35199 2.05132 0
M  V30 3090 H 278.784 -0.720869 -0.17155 0
M  V30 3091 H 281.431 -1.89616 0.267924 0
M  V30 3092 H 279.736 -3.47772 -1.80449 0
M  V30 3093 H 281.433 -3.72002 -1.49719 0
M  V30 3094 H 278.023 -4.28229 -0.178381 0
M  V30 3095 H 282.207 -4.9317 0.556513 0
M  V30 3096 H 277.463 -5.90635 1.57988 0
M  V30 3097 H 281.637 -6.56912 2.31169 0
M  V30 3098 H 279.264 -7.05584 2.8294 0
M  V30 3099 N 280.839 0.0985539 -1.57292 0
M  V30 3100 C 282.085 0.803867 -1.86188 0
M  V30 3101 C 282.418 1.78549 -0.763794 0
M  V30 3102 O 281.693 1.93153 0.22855 0
M  V30 3103 C 281.976 1.53568 -3.25713 0
M  V30 3104 C 281.829 0.572277 -4.46145 0
M  V30 3105 C 283.148 2.48708 -3.63087 0
M  V30 3106 H 280.267 0.290781 -0.677211 0
M  V30 3107 H 282.909 0.0675783 -1.8988 0
M  V30 3108 H 281.059 2.16332 -3.22696 0
M  V30 3109 H 282.731 -0.0480894 -4.61275 0
M  V30 3110 H 280.974 -0.114618 -4.33649 0
M  V30 3111 H 281.645 1.12139 -5.40489 0
M  V30 3112 H 284.121 1.96039 -3.67026 0
M  V30 3113 H 282.997 2.96932 -4.61652 0
M  V30 3114 H 283.258 3.32309 -2.91588 0
M  V30 3115 N 282.317 1.53212 0.369288 0
M  V30 3116 C 283.563 1.69466 1.11397 0
M  V30 3117 C 283.896 0.443257 1.89074 0
M  V30 3118 O 283.171 -0.559386 1.86282 0
M  V30 3119 C 283.454 2.9422 2.07621 0
M  V30 3120 C 283.307 4.29508 1.33577 0
M  V30 3121 C 284.626 3.14565 3.07794 0
M  V30 3122 H 281.745 0.616667 0.403597 0
M  V30 3123 H 284.387 1.85845 0.395179 0
M  V30 3124 H 282.537 2.80387 2.68916 0
M  V30 3125 H 284.209 4.55147 0.750955 0
M  V30 3126 H 282.452 4.29088 0.637618 0
M  V30 3127 H 283.123 5.12926 2.03989 0
M  V30 3128 H 285.599 3.2756 2.56601 0
M  V30 3129 H 284.475 4.03297 3.72348 0
M  V30 3130 H 284.736 2.29675 3.77759 0
M  V30 3131 N 283.795 -0.628877 1.44509 0
M  V30 3132 C 284.742 -1.74074 1.51549 0
M  V30 3133 C 285.712 -1.62084 0.363021 0
M  V30 3134 O 286.897 -1.81975 0.573567 0
M  V30 3135 C 284.037 -3.12328 1.46784 0
M  V30 3136 C 283.15 -3.35277 2.72422 0
M  V30 3137 C 282.285 -4.63515 2.59475 0
M  V30 3138 C 281.324 -4.7965 3.80266 0
M  V30 3139 N 280.461 -5.99168 3.65981 0
M  V30 3140 H 285.301 -1.67392 2.46544 0
M  V30 3141 H 282.838 -0.816527 1.22357 0
M  V30 3142 H 284.796 -3.92286 1.42012 0
M  V30 3143 H 283.426 -3.18018 0.553544 0
M  V30 3144 H 282.478 -2.49242 2.87372 0
M  V30 3145 H 283.79 -3.43078 3.62076 0
M  V30 3146 H 282.944 -5.51638 2.52548 0
M  V30 3147 H 281.683 -4.58076 1.67384 0
M  V30 3148 H 280.688 -3.89957 3.87574 0
M  V30 3149 H 281.913 -4.86902 4.73395 0
M  V30 3150 H 279.859 -5.94814 2.76644 0
M  V30 3151 H 279.776 -6.08035 4.49254 0
M  V30 3152 H 281.044 -6.89846 3.6295 0
M  V30 3153 N 285.273 -1.31445 -0.869486 0
M  V30 3154 C 286.236 -1.19094 -1.9583 0
M  V30 3155 C 287.236 -0.117906 -1.60367 0
M  V30 3156 O 288.426 -0.367208 -1.70286 0
M  V30 3157 C 285.558 -0.828165 -3.30688 0
M  V30 3158 H 286.751 -2.15842 -2.08212 0
M  V30 3159 H 284.304 -1.15063 -1.05784 0
M  V30 3160 H 285.039 0.138142 -3.24006 0
M  V30 3161 H 284.824 -1.6038 -3.578 0
M  V30 3162 H 286.314 -0.765658 -4.10521 0
M  V30 3163 N 286.751 1.08385 -1.14413 0
M  V30 3164 C 288.162 1.62258 -0.923535 0
M  V30 3165 C 288.513 1.88691 0.537595 0
M  V30 3166 O 287.638 1.64454 1.40655 0
M  V30 3167 C 288.233 2.94781 -1.67002 0
M  V30 3168 C 286.792 3.45437 -1.495 0
M  V30 3169 C 285.939 2.19668 -1.69238 0
M  V30 3170 H 288.89 0.916086 -1.2959 0
M  V30 3171 H 288.911 3.63229 -1.13334 0
M  V30 3172 H 288.423 2.7551 -2.73342 0
M  V30 3173 H 286.524 3.6981 -0.455097 0
M  V30 3174 H 286.637 4.22173 -2.2651 0
M  V30 3175 H 285.001 2.28849 -1.11804 0
M  V30 3176 H 285.784 2.02905 -2.7692 0
M  V30 3177 N 288.23 0.939286 1.26551 0
M  V30 3178 C 289.177 0.446088 2.26448 0
M  V30 3179 C 290.147 -0.493234 1.58608 0
M  V30 3180 O 291.332 -0.409857 1.86346 0
M  V30 3181 C 288.472 -0.284375 3.43926 0
M  V30 3182 C 287.585 0.690399 4.26448 0
M  V30 3183 C 286.72 -0.0610712 5.31165 0
M  V30 3184 C 285.759 0.905649 6.05363 0
M  V30 3185 N 284.896 0.186055 7.01853 0
M  V30 3186 H 289.736 1.30291 2.68008 0
M  V30 3187 H 287.273 0.65371 1.31776 0
M  V30 3188 H 289.231 -0.724313 4.10864 0
M  V30 3189 H 287.861 -1.10535 3.03285 0
M  V30 3190 H 286.913 1.24885 3.59316 0
M  V30 3191 H 288.225 1.42873 4.779 0
M  V30 3192 H 287.379 -0.56038 6.04106 0
M  V30 3193 H 286.118 -0.832297 4.80546 0
M  V30 3194 H 285.123 1.4161 5.3125 0
M  V30 3195 H 286.348 1.67685 6.58072 0
M  V30 3196 H 284.294 -0.566714 6.53548 0
M  V30 3197 H 284.211 0.863752 7.51049 0
M  V30 3198 H 285.479 -0.292221 7.78952 0
M  V30 3199 N 289.708 -1.40897 0.706093 0
M  V30 3200 C 290.638 -2.33418 0.0620085 0
M  V30 3201 C 291.619 -1.52385 -0.755827 0
M  V30 3202 O 292.804 -1.80886 -0.706674 0
M  V30 3203 C 289.934 -3.36293 -0.867445 0
M  V30 3204 C 288.888 -4.27716 -0.155932 0
M  V30 3205 C 288.214 -5.2105 -1.20046 0
M  V30 3206 C 289.514 -5.12944 0.984149 0
M  V30 3207 H 291.208 -2.87527 0.83477 0
M  V30 3208 H 288.754 -1.38249 0.402875 0
M  V30 3209 H 290.707 -3.99949 -1.32735 0
M  V30 3210 H 289.431 -2.80556 -1.67199 0
M  V30 3211 H 288.09 -3.65498 0.284047 0
M  V30 3212 H 287.738 -4.61624 -1.99781 0
M  V30 3213 H 287.438 -5.83056 -0.729328 0
M  V30 3214 H 288.962 -5.87584 -1.66066 0
M  V30 3215 H 290.376 -5.70109 0.604048 0
M  V30 3216 H 288.773 -5.83945 1.38304 0
M  V30 3217 H 289.843 -4.49485 1.81911 0
M  V30 3218 N 291.186 -0.45159 -1.50991 0
M  V30 3219 C 292.433 0.110074 -2.02201 0
M  V30 3220 C 292.761 1.4146 -1.33489 0
M  V30 3221 O 292.016 1.90617 -0.443125 0
M  V30 3222 C 292.315 0.361728 -3.55565 0
M  V30 3223 C 291.981 -0.858717 -4.42648 0
M  V30 3224 C 290.643 -1.19338 -4.66167 0
M  V30 3225 C 292.995 -1.67221 -4.93646 0
M  V30 3226 C 290.323 -2.34195 -5.37931 0
M  V30 3227 C 292.675 -2.8119 -5.6667 0
M  V30 3228 C 291.339 -3.15094 -5.88449 0
M  V30 3229 H 290.609 0.040279 -0.739904 0
M  V30 3230 H 293.256 -0.601696 -1.81802 0
M  V30 3231 H 291.561 1.15554 -3.74372 0
M  V30 3232 H 293.258 0.80996 -3.92735 0
M  V30 3233 H 289.848 -0.58796 -4.24548 0
M  V30 3234 H 294.032 -1.42686 -4.75347 0
M  V30 3235 H 289.288 -2.6076 -5.53005 0
M  V30 3236 H 293.462 -3.44585 -6.05173 0
M  V30 3237 H 291.089 -4.04204 -6.43835 0
M  V30 3238 N 292.664 1.56529 -0.183458 0
M  V30 3239 C 294.075 1.83739 0.331177 0
M  V30 3240 C 294.426 1.10373 1.62211 0
M  V30 3241 O 293.551 0.36071 2.13373 0
M  V30 3242 C 294.146 3.33306 0.607646 0
M  V30 3243 C 292.705 3.60969 1.06668 0
M  V30 3244 C 291.852 2.77086 0.109029 0
M  V30 3245 H 294.803 1.53379 -0.407484 0
M  V30 3246 H 294.824 3.51444 1.45832 0
M  V30 3247 H 294.336 3.86677 -0.332086 0
M  V30 3248 H 292.437 3.13021 2.0211 0
M  V30 3249 H 292.55 4.69231 0.967447 0
M  V30 3250 H 290.914 2.47319 0.608714 0
M  V30 3251 H 291.697 3.33241 -0.82494 0
M  V30 3252 N 294.142 -0.090211 1.57342 0
M  V30 3253 C 295.388 -0.793982 1.86611 0
M  V30 3254 C 295.721 -1.78142 0.773252 0
M  V30 3255 O 294.996 -1.93271 -0.218304 0
M  V30 3256 C 295.279 -1.51839 3.26523 0
M  V30 3257 C 295.132 -0.548609 4.46442 0
M  V30 3258 C 296.451 -2.46779 3.64401 0
M  V30 3259 H 293.57 -0.287186 0.678744 0
M  V30 3260 H 296.212 -0.0575076 1.89913 0
M  V30 3261 H 294.362 -2.14617 3.23839 0
M  V30 3262 H 296.034 0.0725513 4.61243 0
M  V30 3263 H 294.277 0.137614 4.33582 0
M  V30 3264 H 294.948 -1.09271 5.41076 0
M  V30 3265 H 297.424 -1.94089 3.68061 0
M  V30 3266 H 296.3 -2.94479 4.63221 0
M  V30 3267 H 296.561 -3.30758 2.93346 0
M  V30 3268 N 295.62 -1.53406 -0.361157 0
M  V30 3269 C 296.583 -1.79479 -1.42548 0
M  V30 3270 C 297.583 -0.665327 -1.4639 0
M  V30 3271 O 298.773 -0.933549 -1.47073 0
M  V30 3272 C 295.905 -1.92087 -2.8163 0
M  V30 3273 H 297.098 -2.74538 -1.20701 0
M  V30 3274 H 294.651 -1.4455 -0.594546 0
M  V30 3275 H 295.386 -0.991099 -3.08784 0
M  V30 3276 H 295.171 -2.74241 -2.80239 0
M  V30 3277 H 296.661 -2.13836 -3.58697 0
M  V30 3278 N 297.098 0.621204 -1.44841 0
M  V30 3279 C 298.328 1.40548 -1.51426 0
M  V30 3280 C 298.736 1.88673 -0.141083 0
M  V30 3281 O 298.079 1.62053 0.865128 0
M  V30 3282 C 298.141 2.65325 -2.42576 0
M  V30 3283 C 297.805 2.3893 -3.89566 0
M  V30 3284 C 298.802 2.00138 -4.79834 0
M  V30 3285 C 296.487 2.52263 -4.3436 0
M  V30 3286 C 298.481 1.75021 -6.129 0
M  V30 3287 C 296.168 2.2676 -5.67471 0
M  V30 3288 C 297.166 1.88199 -6.56559 0
M  V30 3289 O 296.854 1.62986 -7.87204 0
M  V30 3290 H 296.586 0.437122 -0.515655 0
M  V30 3291 H 299.14 0.765987 -1.90583 0
M  V30 3292 H 297.37 3.31947 -1.98364 0
M  V30 3293 H 299.059 3.27347 -2.39998 0
M  V30 3294 H 299.825 1.89386 -4.46495 0
M  V30 3295 H 295.704 2.81246 -3.65269 0
M  V30 3296 H 299.248 1.44848 -6.82396 0
M  V30 3297 H 295.145 2.37125 -6.00368 0
M  V30 3298 H 295.913 1.7715 -7.991 0
M  V30 3299 N 298.576 1.31904 0.862503 0
M  V30 3300 C 299.524 1.20125 1.9918 0
M  V30 3301 C 300.518 0.107824 1.69056 0
M  V30 3302 O 301.724 0.270223 1.7796 0
M  V30 3303 H 298.099 0.372148 0.65346 0
M  V30 3304 H 300.07 2.15652 2.06244 0
M  V30 3305 C 298.819 0.933099 3.34946 0
M  V30 3306 H 298.142 1.76664 3.5865 0
M  V30 3307 H 299.582 0.890892 4.14535 0
M  V30 3308 C 298.041 -0.364172 3.34926 0
M  V30 3309 O 298.571 -1.37858 3.77304 0
M  V30 3310 N 296.777 -0.383362 2.8806 0
M  V30 3311 H 296.324 0.442651 2.53768 0
M  V30 3312 H 296.282 -1.25123 2.8843 0
M  V30 3313 N 300.054 -1.07777 1.14986 0
M  V30 3314 C 300.984 -2.16865 0.865557 0
M  V30 3315 C 301.965 -1.69123 -0.182083 0
M  V30 3316 O 303.15 -1.94164 -0.0373815 0
M  V30 3317 C 300.28 -3.45539 0.349313 0
M  V30 3318 C 299.234 -4.06708 1.33313 0
M  V30 3319 C 298.56 -5.30411 0.675918 0
M  V30 3320 C 299.86 -4.47241 2.69764 0
M  V30 3321 H 301.554 -2.40905 1.77778 0
M  V30 3322 H 299.1 -1.15781 0.856203 0
M  V30 3323 H 301.053 -4.21174 0.137983 0
M  V30 3324 H 299.777 -3.21072 -0.598362 0
M  V30 3325 H 298.436 -3.33112 1.53075 0
M  V30 3326 H 298.084 -5.02232 -0.277767 0
M  V30 3327 H 297.784 -5.72293 1.33244 0
M  V30 3328 H 299.308 -6.08755 0.474262 0
M  V30 3329 H 300.722 -5.14025 2.53873 0
M  V30 3330 H 299.119 -5.00062 3.3175 0
M  V30 3331 H 300.189 -3.58818 3.26156 0
M  V30 3332 N 301.532 -0.945985 -1.26051 0
M  V30 3333 C 302.781 -0.591836 -1.92822 0
M  V30 3334 C 303.094 0.873956 -1.7499 0
M  V30 3335 O 304.3 1.33769 -2.36259 0
M  V30 3336 C 302.756 -1.00776 -3.45503 0
M  V30 3337 C 302.364 -2.4955 -3.7206 0
M  V30 3338 C 304.108 -0.725735 -4.1825 0
M  V30 3339 C 302.015 -2.84988 -5.18205 0
M  V30 3340 H 300.945 -0.217635 -0.721908 0
M  V30 3341 H 303.596 -1.14927 -1.43052 0
M  V30 3342 H 301.978 -0.378812 -3.94184 0
M  V30 3343 H 303.152 -3.1739 -3.34066 0
M  V30 3344 H 301.467 -2.75133 -3.12555 0
M  V30 3345 H 304.064 -0.966771 -5.25887 0
M  V30 3346 H 304.407 0.337639 -4.14929 0
M  V30 3347 H 304.94 -1.31463 -3.7545 0
M  V30 3348 H 301.679 -3.90307 -5.26631 0
M  V30 3349 H 301.199 -2.21813 -5.57278 0
M  V30 3350 H 302.878 -2.73712 -5.86252 0
M  V30 3351 N 303.011 1.40521 -0.713556 0
M  V30 3352 C 303.958 2.30723 -0.059684 0
M  V30 3353 C 304.928 1.48079 0.752448 0
M  V30 3354 O 306.113 1.76823 0.71681 0
M  V30 3355 C 303.253 3.34274 0.857594 0
M  V30 3356 C 302.366 4.31986 0.0351536 0
M  V30 3357 C 301.501 5.22605 0.951724 0
M  V30 3358 C 300.54 6.11976 0.123253 0
M  V30 3359 N 299.677 6.9502 0.99459 0
M  V30 3360 H 304.517 2.86074 -0.834596 0
M  V30 3361 H 302.054 1.40879 -0.42326 0
M  V30 3362 H 304.012 3.92879 1.40364 0
M  V30 3363 H 302.642 2.8043 1.59871 0
M  V30 3364 H 301.694 3.7518 -0.628052 0
M  V30 3365 H 303.006 4.95101 -0.606347 0
M  V30 3366 H 302.16 5.86131 1.56638 0
M  V30 3367 H 300.899 4.59759 1.62705 0
M  V30 3368 H 299.904 5.47482 -0.50435 0
M  V30 3369 H 301.129 6.76881 -0.548539 0
M  V30 3370 H 299.075 6.34764 1.6556 0
M  V30 3371 H 298.992 7.54892 0.40908 0
M  V30 3372 H 300.26 7.62997 1.59549 0
M  V30 3373 N 304.489 0.459591 1.5075 0
M  V30 3374 C 305.9 0.00171547 1.867 0
M  V30 3375 C 306.251 -1.39934 1.37525 0
M  V30 3376 O 305.376 -2.03523 0.735349 0
M  V30 3377 C 305.971 -0.00366298 3.388 0
M  V30 3378 C 304.53 -0.406026 3.74204 0
M  V30 3379 C 303.677 0.38673 2.7459 0
M  V30 3380 H 306.628 0.674413 1.43657 0
M  V30 3381 H 306.649 -0.808371 3.71814 0
M  V30 3382 H 306.161 1.01617 3.74561 0
M  V30 3383 H 304.262 -1.43063 3.4404 0
M  V30 3384 H 304.375 -0.115362 4.78961 0
M  V30 3385 H 302.739 -0.158019 2.54209 0
M  V30 3386 H 303.522 1.40585 3.13194 0
M  V30 3387 N 305.967 -1.56429 0.191757 0
M  V30 3388 C 307.214 -1.97485 -0.447891 0
M  V30 3389 C 307.542 -1.07852 -1.61859 0
M  V30 3390 O 306.797 -0.116903 -1.95351 0
M  V30 3391 C 307.096 -3.44449 -0.953384 0
M  V30 3392 C 306.762 -4.50781 0.103586 0
M  V30 3393 C 305.424 -4.79584 0.394023 0
M  V30 3394 C 307.776 -5.1471 0.819946 0
M  V30 3395 C 305.104 -5.69607 1.40585 0
M  V30 3396 C 307.456 -6.05827 1.8209 0
M  V30 3397 C 306.12 -6.32987 2.11857 0
M  V30 3398 H 305.39 -0.722648 -0.163895 0
M  V30 3399 H 308.037 -1.89322 0.28802 0
M  V30 3400 H 306.342 -3.49666 -1.76751 0
M  V30 3401 H 308.039 -3.73569 -1.45765 0
M  V30 3402 H 304.629 -4.28394 -0.132951 0
M  V30 3403 H 308.813 -4.92552 0.608789 0
M  V30 3404 H 304.069 -5.88926 1.64243 0
M  V30 3405 H 308.243 -6.54424 2.38123 0
M  V30 3406 H 305.87 -7.02544 2.90407 0
M  V30 3407 N 307.445 0.0818655 -1.57387 0
M  V30 3408 C 308.375 1.09885 -2.06028 0
M  V30 3409 C 309.356 1.4098 -0.951774 0
M  V30 3410 O 310.541 1.50781 -1.22387 0
M  V30 3411 C 307.671 2.4151 -2.4958 0
M  V30 3412 C 306.625 2.24792 -3.64215 0
M  V30 3413 C 305.951 3.61712 -3.93787 0
M  V30 3414 C 307.251 1.67749 -4.94629 0
M  V30 3415 H 308.945 0.694128 -2.91243 0
M  V30 3416 H 306.491 0.332448 -1.4011 0
M  V30 3417 H 308.444 3.12939 -2.82219 0
M  V30 3418 H 307.168 2.83943 -1.61381 0
M  V30 3419 H 305.827 1.55807 -3.31843 0
M  V30 3420 H 305.475 4.01697 -3.02735 0
M  V30 3421 H 305.175 3.51368 -4.70971 0
M  V30 3422 H 306.699 4.34587 -4.28913 0
M  V30 3423 H 308.113 2.29032 -5.25564 0
M  V30 3424 H 306.51 1.68128 -5.76067 0
M  V30 3425 H 307.58 0.638059 -4.80684 0
M  V30 3426 N 308.923 1.53595 0.353017 0
M  V30 3427 C 310.148 1.7462 1.11904 0
M  V30 3428 C 310.573 0.479721 1.8188 0
M  V30 3429 O 309.931 -0.567066 1.72204 0
M  V30 3430 C 309.979 2.92029 2.11545 0
M  V30 3431 O 309.083 2.61516 3.18878 0
M  V30 3432 H 308.424 0.579531 0.324099 0
M  V30 3433 H 310.954 2.00525 0.406301 0
M  V30 3434 H 310.964 3.18551 2.5493 0
M  V30 3435 H 309.639 3.83888 1.60008 0
M  V30 3436 H 308.216 2.45852 2.80377 0
M  V30 3437 N 310.401 -0.613514 1.45168 0
M  V30 3438 C 311.311 -1.75296 1.55912 0
M  V30 3439 C 312.327 -1.68244 0.443856 0
M  V30 3440 O 313.503 -1.88706 0.70371 0
M  V30 3441 C 310.568 -3.1174 1.5172 0
M  V30 3442 C 309.629 -3.30291 2.74238 0
M  V30 3443 C 308.862 -4.60226 2.70236 0
M  V30 3444 O 309.085 -5.42168 1.77229 0
M  V30 3445 O 308.019 -4.81361 3.61352 0
M  V30 3446 H 311.845 -1.69183 2.52212 0
M  V30 3447 H 309.43 -0.776886 1.27612 0
M  V30 3448 H 311.312 -3.93044 1.51968 0
M  V30 3449 H 309.987 -3.18357 0.585697 0
M  V30 3450 H 308.894 -2.48598 2.79553 0
M  V30 3451 H 310.227 -3.28547 3.66494 0
M  V30 3452 N 311.879 -1.3236 -0.855495 0
M  V30 3453 C 313.156 -1.13491 -1.59309 0
M  V30 3454 C 313.536 0.30503 -2.08885 0
M  V30 3455 O 312.884 1.30151 -1.87811 0
M  V30 3456 C 313.094 -2.16176 -2.73987 0
M  V30 3457 C 314.442 -2.49463 -3.43589 0
M  V30 3458 O 315.466 -2.14715 -2.84211 0
M  V30 3459 O 314.325 -3.09027 -4.50738 0
M  V30 3460 H 311.419 -0.437887 -0.701559 0
M  V30 3461 H 313.965 -1.43887 -0.899696 0
M  V30 3462 H 312.737 -3.1297 -2.34873 0
M  V30 3463 H 312.36 -1.86769 -3.51003 0
M  V30 3464 N 313.357 1.07166 -1.15556 0
M  V30 3465 C 314.585 1.83514 -0.955519 0
M  V30 3466 C 315 1.82163 0.49621 0
M  V30 3467 O 314.357 1.23441 1.34419 0
M  V30 3468 C 314.408 3.30515 -1.46432 0
M  V30 3469 O 314.129 3.31937 -2.85918 0
M  V30 3470 C 315.63 4.23625 -1.30603 0
M  V30 3471 H 312.85 0.578926 -0.339244 0
M  V30 3472 H 315.394 1.35265 -1.53374 0
M  V30 3473 H 313.549 3.76106 -0.928584 0
M  V30 3474 H 313.963 4.23794 -3.09029 0
M  V30 3475 H 315.437 5.24831 -1.71047 0
M  V30 3476 H 315.914 4.38485 -0.250441 0
M  V30 3477 H 316.52 3.83871 -1.83094 0
M  V30 3478 N 314.835 0.952656 1.25548 0
M  V30 3479 C 316.251 0.656769 1.4546 0
M  V30 3480 C 316.451 -0.78633 1.85524 0
M  V30 3481 O 315.507 -1.56183 1.98402 0
M  V30 3482 C 316.82 1.62801 2.52817 0
M  V30 3483 C 318.368 1.63897 2.66659 0
M  V30 3484 C 318.843 2.5978 3.77198 0
M  V30 3485 N 320.334 2.58133 3.84606 0
M  V30 3486 C 321.069 3.29003 4.69621 0
M  V30 3487 N 320.565 4.09339 5.58939 0
M  V30 3488 N 322.358 3.179 4.63569 0
M  V30 3489 H 314.509 1.88526 0.978344 0
M  V30 3490 H 316.772 0.810815 0.491206 0
M  V30 3491 H 316.478 2.65869 2.30232 0
M  V30 3492 H 316.352 1.38898 3.50695 0
M  V30 3493 H 318.739 0.615481 2.8861 0
M  V30 3494 H 318.82 1.91858 1.69187 0
M  V30 3495 H 318.464 3.62254 3.55997 0
M  V30 3496 H 318.394 2.29105 4.7415 0
M  V30 3497 H 320.885 1.99809 3.20757 0
M  V30 3498 H 321.198 4.6034 6.20731 0
M  V30 3499 H 319.543 4.13438 5.58654 0
M  V30 3500 H 322.734 2.54612 3.92798 0
M  V30 3501 H 322.907 3.73398 5.29602 0
M  V30 3502 N 316.313 -1.40141 0.720998 0
M  V30 3503 C 317.26 -2.30688 0.071919 0
M  V30 3504 C 318.23 -1.48476 -0.744584 0
M  V30 3505 O 319.415 -1.77201 -0.707423 0
M  V30 3506 C 316.555 -3.34724 -0.839855 0
M  V30 3507 C 315.668 -4.31998 -0.0122438 0
M  V30 3508 C 314.803 -5.23102 -0.923995 0
M  V30 3509 C 313.842 -6.12033 -0.0907969 0
M  V30 3510 N 312.979 -6.95537 -0.957718 0
M  V30 3511 H 317.819 -2.85628 0.849755 0
M  V30 3512 H 315.356 -1.40653 0.430726 0
M  V30 3513 H 317.314 -3.93618 -1.38279 0
M  V30 3514 H 315.944 -2.81274 -1.58381 0
M  V30 3515 H 314.996 -3.74841 0.64794 0
M  V30 3516 H 316.308 -4.94772 0.632595 0
M  V30 3517 H 315.462 -5.86953 -1.53527 0
M  V30 3518 H 314.201 -4.60615 -1.60264 0
M  V30 3519 H 313.206 -5.47207 0.533377 0
M  V30 3520 H 314.431 -6.76581 0.584428 0
M  V30 3521 H 312.377 -6.35633 -1.62192 0
M  V30 3522 H 312.294 -7.55099 -0.36904 0
M  V30 3523 H 313.562 -7.63832 -1.555 0
M  V30 3524 N 317.792 -0.46758 -1.50504 0
M  V30 3525 C 318.739 0.328413 -2.28452 0
M  V30 3526 C 319.709 0.990313 -1.33349 0
M  V30 3527 O 320.894 1.00343 -1.62284 0
M  V30 3528 C 318.034 1.40648 -3.15138 0
M  V30 3529 C 317.147 0.759709 -4.25267 0
M  V30 3530 C 316.282 1.81537 -4.99217 0
M  V30 3531 C 315.321 1.14866 -6.01226 0
M  V30 3532 N 314.458 2.14702 -6.68467 0
M  V30 3533 H 319.298 -0.342603 -2.96024 0
M  V30 3534 H 316.835 -0.180801 -1.45985 0
M  V30 3535 H 318.793 2.04315 -3.63746 0
M  V30 3536 H 317.423 2.04671 -2.49619 0
M  V30 3537 H 316.475 0.0105671 -3.80399 0
M  V30 3538 H 317.787 0.233243 -4.98254 0
M  V30 3539 H 316.941 2.52793 -5.51526 0
M  V30 3540 H 315.68 2.37564 -4.25928 0
M  V30 3541 H 314.685 0.42171 -5.4818 0
M  V30 3542 H 315.91 0.595334 -6.76485 0
M  V30 3543 H 313.856 2.69752 -5.97972 0
M  V30 3544 H 313.773 1.6703 -7.37317 0
M  V30 3545 H 315.041 2.85348 -7.25394 0
M  V30 3546 N 319.27 1.56325 -0.20005 0
M  V30 3547 C 320.519 1.96895 0.437652 0
M  V30 3548 C 320.832 1.08999 1.62415 0
M  V30 3549 O 322.038 1.39372 2.32997 0
M  V30 3550 C 320.494 3.50198 0.830025 0
M  V30 3551 C 320.102 4.46765 -0.332461 0
M  V30 3552 C 321.846 3.99526 1.43453 0
M  V30 3553 C 319.753 5.91344 0.0811468 0
M  V30 3554 H 318.683 0.735209 0.167282 0
M  V30 3555 H 321.334 1.81148 -0.292853 0
M  V30 3556 H 319.716 3.61467 1.61734 0
M  V30 3557 H 320.89 4.47231 -1.11 0
M  V30 3558 H 319.205 4.07657 -0.848789 0
M  V30 3559 H 321.802 5.05025 1.75652 0
M  V30 3560 H 322.145 3.44122 2.34277 0
M  V30 3561 H 322.678 3.91393 0.71109 0
M  V30 3562 H 319.417 6.50685 -0.793033 0
M  V30 3563 H 318.937 5.94121 0.823445 0
M  V30 3564 H 320.616 6.44945 0.515252 0
M  V30 3565 N 320.748 -0.0735177 1.57428 0
M  V30 3566 C 321.681 -1.11932 1.98863 0
M  V30 3567 C 322.659 -1.37666 0.865266 0
M  V30 3568 O 323.843 -1.51068 1.12742 0
M  V30 3569 C 320.97 -2.46403 2.32386 0
M  V30 3570 C 320.016 -2.36815 3.54713 0
M  V30 3571 S 320.849 -1.76392 5.05614 0
M  V30 3572 C 322.005 -3.12444 5.42337 0
M  V30 3573 H 322.238 -0.766212 2.87257 0
M  V30 3574 H 319.771 -0.281987 1.51803 0
M  V30 3575 H 321.729 -3.23755 2.52375 0
M  V30 3576 H 320.39 -2.78876 1.44524 0
M  V30 3577 H 319.583 -3.35977 3.7568 0
M  V30 3578 H 319.185 -1.67598 3.34345 0
M  V30 3579 H 321.477 -4.08753 5.40303 0
M  V30 3580 H 322.42 -2.96258 6.43146 0
M  V30 3581 H 322.828 -3.1297 4.69798 0
M  V30 3582 N 322.226 -1.5378 -0.344866 0
M  V30 3583 C 323.472 -1.71216 -1.08687 0
M  V30 3584 C 323.805 -0.473281 -1.88345 0
M  V30 3585 O 323.08 0.52968 -1.87149 0
M  V30 3586 C 323.363 -2.97486 -2.02914 0
M  V30 3587 C 323.216 -4.31579 -1.26727 0
M  V30 3588 C 324.535 -3.19422 -3.0275 0
M  V30 3589 H 321.654 -0.62301 -0.393735 0
M  V30 3590 H 324.296 -1.8645 -0.365563 0
M  V30 3591 H 322.446 -2.84629 -2.64421 0
M  V30 3592 H 324.118 -4.56284 -0.67845 0
M  V30 3593 H 322.361 -4.30049 -0.569273 0
M  V30 3594 H 323.032 -5.16106 -1.95803 0
M  V30 3595 H 325.508 -3.316 -2.51357 0
M  V30 3596 H 324.384 -4.09169 -3.65885 0
M  V30 3597 H 324.645 -2.35656 -3.74057 0
M  V30 3598 N 323.704 0.605807 -1.45491 0
M  V30 3599 C 324.634 1.72709 -1.57143 0
M  V30 3600 C 325.615 1.6476 -0.422884 0
M  V30 3601 O 326.8 1.83132 -0.646247 0
M  V30 3602 C 323.93 3.11316 -1.53948 0
M  V30 3603 C 322.884 3.34077 -2.67537 0
M  V30 3604 C 322.21 4.72975 -2.49397 0
M  V30 3605 C 323.51 3.24158 -4.09535 0
M  V30 3606 H 325.204 1.63214 -2.51001 0
M  V30 3607 H 322.75 0.78379 -1.208 0
M  V30 3608 H 324.703 3.89557 -1.60696 0
M  V30 3609 H 323.427 3.21655 -0.566205 0
M  V30 3610 H 322.086 2.58227 -2.6022 0
M  V30 3611 H 321.734 4.8005 -1.50205 0
M  V30 3612 H 321.434 4.8916 -3.25571 0
M  V30 3613 H 322.958 5.53414 -2.58002 0
M  V30 3614 H 324.372 3.92271 -4.18086 0
M  V30 3615 H 322.769 3.51872 -4.86113 0
M  V30 3616 H 323.839 2.2157 -4.31317 0
M  V30 3617 N 325.182 1.32811 0.848464 0
M  V30 3618 C 326.43 1.23479 1.59991 0
M  V30 3619 C 326.751 -0.201853 1.93952 0
M  V30 3620 O 326.021 -1.12818 1.60153 0
M  V30 3621 H 324.601 0.454034 0.593179 0
M  V30 3622 H 327.263 1.66412 1.01455 0
M  V30 3623 H 326.359 1.82178 2.53412 0
M  V30 3624 N 326.66 -1.06551 1.16123 0
M  V30 3625 C 327.623 -2.12132 0.867906 0
M  V30 3626 C 328.623 -1.60224 -0.135944 0
M  V30 3627 O 329.813 -1.73943 0.0946422 0
M  V30 3628 C 326.945 -3.396 0.297419 0
M  V30 3629 H 328.138 -2.39586 1.80385 0
M  V30 3630 H 325.691 -1.22574 0.969812 0
M  V30 3631 H 326.426 -3.17794 -0.64633 0
M  V30 3632 H 326.211 -3.78581 1.02073 0
M  V30 3633 H 327.701 -4.17455 0.110052 0
M  V30 3634 N 328.138 -0.959301 -1.25041 0
M  V30 3635 C 329.086 -0.474437 -2.2771 0
M  V30 3636 C 330.08 0.457697 -1.631 0
M  V30 3637 O 331.286 0.333912 -1.76876 0
M  V30 3638 H 327.661 -0.134936 -0.739795 0
M  V30 3639 H 329.632 -1.35251 -2.65988 0
M  V30 3640 C 328.381 0.227884 -3.46952 0
M  V30 3641 H 327.704 -0.480248 -3.96905 0
M  V30 3642 H 329.144 0.531091 -4.20661 0
M  V30 3643 C 327.603 1.452 -3.04004 0
M  V30 3644 O 328.133 2.54949 -3.10426 0
M  V30 3645 N 326.339 1.31502 -2.59144 0
M  V30 3646 H 325.886 0.422065 -2.54119 0
M  V30 3647 H 325.844 2.13521 -2.30773 0
M  V30 3648 N 329.616 1.39756 -0.72842 0
M  V30 3649 C 330.862 2.01425 -0.282761 0
M  V30 3650 C 331.217 1.56754 1.11561 0
M  V30 3651 O 330.51 0.783482 1.74849 0
M  V30 3652 C 330.704 3.56002 -0.315776 0
M  V30 3653 C 330.533 4.1568 -1.71582 0
M  V30 3654 C 329.303 4.48555 -2.32651 0
M  V30 3655 C 331.501 4.39667 -2.66829 0
M  V30 3656 N 329.483 4.93698 -3.64877 0
M  V30 3657 C 330.854 4.86942 -3.8378 0
M  V30 3658 C 332.909 4.21724 -2.64675 0
M  V30 3659 C 331.612 5.18158 -4.98904 0
M  V30 3660 C 333.638 4.54049 -3.78937 0
M  V30 3661 C 333 5.01525 -4.94623 0
M  V30 3662 H 329.099 0.76756 -0.149583 0
M  V30 3663 H 331.683 1.69784 -0.952976 0
M  V30 3664 H 329.854 3.87046 0.324057 0
M  V30 3665 H 331.586 4.0443 0.147808 0
M  V30 3666 H 328.341 4.36128 -1.84633 0
M  V30 3667 H 328.765 5.20635 -4.32744 0
M  V30 3668 H 333.407 3.84228 -1.76433 0
M  V30 3669 H 331.125 5.54562 -5.87781 0
M  V30 3670 H 334.711 4.41795 -3.78561 0
M  V30 3671 H 333.591 5.26065 -5.81572 0
M  V30 3672 N 331.094 0.475555 1.50254 0
M  V30 3673 C 332.041 -0.316293 2.28622 0
M  V30 3674 C 333.011 -0.983227 1.33873 0
M  V30 3675 O 334.196 -0.994805 1.62814 0
M  V30 3676 C 331.336 -1.38975 3.1588 0
M  V30 3677 C 330.449 -0.737146 4.25664 0
M  V30 3678 C 329.584 -1.78887 5.00173 0
M  V30 3679 C 328.623 -1.11676 6.01826 0
M  V30 3680 N 327.76 -2.11154 6.69596 0
M  V30 3681 H 332.6 0.358297 2.95838 0
M  V30 3682 H 330.137 0.188541 1.45887 0
M  V30 3683 H 332.095 -2.02383 3.64825 0
M  V30 3684 H 330.725 -2.03344 2.50701 0
M  V30 3685 H 329.777 0.0096065 3.80399 0
M  V30 3686 H 331.089 -0.206816 4.98371 0
M  V30 3687 H 330.243 -2.49865 5.52859 0
M  V30 3688 H 328.982 -2.35302 4.27182 0
M  V30 3689 H 327.987 -0.392633 5.48396 0
M  V30 3690 H 329.212 -0.55945 6.76792 0
M  V30 3691 H 327.158 -2.66577 5.99394 0
M  V30 3692 H 327.075 -1.63118 7.38193 0
M  V30 3693 H 328.343 -2.81497 7.26897 0
M  V30 3694 N 332.573 -1.56217 0.208337 0
M  V30 3695 C 333.483 -2.23316 -0.718836 0
M  V30 3696 C 334.499 -1.23648 -1.22422 0
M  V30 3697 O 335.675 -1.56423 -1.26861 0
M  V30 3698 C 332.74 -2.88968 -1.91568 0
M  V30 3699 C 331.801 -4.03943 -1.45357 0
M  V30 3700 C 331.034 -4.66455 -2.59337 0
M  V30 3701 O 331.257 -4.27919 -3.77149 0
M  V30 3702 O 330.191 -5.55686 -2.31293 0
M  V30 3703 H 334.017 -3.03182 -0.177315 0
M  V30 3704 H 331.602 -1.49384 -0.0215402 0
M  V30 3705 H 333.484 -3.30455 -2.61491 0
M  V30 3706 H 332.159 -2.12071 -2.44556 0
M  V30 3707 H 331.066 -3.67052 -0.722746 0
M  V30 3708 H 332.399 -4.82543 -0.970219 0
M  V30 3709 N 334.051 0.0651679 -1.57465 0
M  V30 3710 C 335.297 0.764193 -1.87851 0
M  V30 3711 C 335.63 1.76889 -0.801495 0
M  V30 3712 O 334.905 1.93594 0.187528 0
M  V30 3713 C 335.188 1.46625 -3.28897 0
M  V30 3714 C 335.041 0.477515 -4.47258 0
M  V30 3715 C 336.36 2.4095 -3.68281 0
M  V30 3716 H 333.479 0.276351 -0.683227 0
M  V30 3717 H 336.121 0.0272868 -1.8998 0
M  V30 3718 H 334.271 2.09438 -3.27212 0
M  V30 3719 H 335.943 -0.145922 -4.61069 0
M  V30 3720 H 334.186 -0.206576 -4.33308 0
M  V30 3721 H 334.857 1.0065 -5.42746 0
M  V30 3722 H 337.333 1.88209 -3.71102 0
M  V30 3723 H 336.209 2.87072 -4.67847 0
M  V30 3724 H 336.47 3.26049 -2.98571 0
M  V30 3725 N 335.529 1.53961 0.336706 0
M  V30 3726 C 336.459 1.85417 1.41925 0
M  V30 3727 C 337.44 0.709856 1.5458 0
M  V30 3728 O 338.625 0.962396 1.68676 0
M  V30 3729 C 335.755 2.06985 2.78881 0
M  V30 3730 C 334.709 3.22813 2.81026 0
M  V30 3731 C 334.035 3.29727 4.20932 0
M  V30 3732 C 335.335 4.60767 2.45949 0
M  V30 3733 H 337.029 2.76079 1.15848 0
M  V30 3734 H 334.575 1.32839 0.555859 0
M  V30 3735 H 336.528 2.27575 3.54665 0
M  V30 3736 H 335.252 1.13061 3.06406 0
M  V30 3737 H 333.911 3.0209 2.07695 0
M  V30 3738 H 333.559 2.33385 4.45579 0
M  V30 3739 H 333.259 4.07566 4.23277 0
M  V30 3740 H 334.783 3.52536 4.98549 0
M  V30 3741 H 336.197 4.81325 3.11446 0
M  V30 3742 H 334.594 5.4106 2.59566 0
M  V30 3743 H 335.664 4.6391 1.41122 0
M  V30 3744 N 337.007 -0.598083 1.45811 0
M  V30 3745 C 337.937 -1.71873 1.58057 0
M  V30 3746 C 338.918 -1.64533 0.431615 0
M  V30 3747 O 340.103 -1.82787 0.65595 0
M  V30 3748 C 337.233 -3.10495 1.55597 0
M  V30 3749 C 336.187 -3.32654 2.69305 0
M  V30 3750 C 335.513 -4.71646 2.51902 0
M  V30 3751 C 336.813 -3.21981 4.11248 0
M  V30 3752 H 338.507 -1.61881 2.51863 0
M  V30 3753 H 336.053 -0.777372 1.21214 0
M  V30 3754 H 338.006 -3.88699 1.6276 0
M  V30 3755 H 336.73 -3.2135 0.583255 0
M  V30 3756 H 335.389 -2.56843 2.61586 0
M  V30 3757 H 335.037 -4.79246 1.52748 0
M  V30 3758 H 334.737 -4.87426 3.2816 0
M  V30 3759 H 336.261 -5.52038 2.60933 0
M  V30 3760 H 337.675 -3.90049 4.20161 0
M  V30 3761 H 336.072 -3.49289 4.87972 0
M  V30 3762 H 337.142 -2.1928 4.32486 0
M  V30 3763 N 338.485 -1.33259 -0.841409 0
M  V30 3764 C 339.432 -1.23302 -1.95103 0
M  V30 3765 C 340.402 -0.112204 -1.65721 0
M  V30 3766 O 341.587 -0.290038 -1.88583 0
M  V30 3767 C 338.727 -0.975583 -3.31023 0
M  V30 3768 C 337.84 -2.18243 -3.72819 0
M  V30 3769 C 336.975 -1.85936 -4.97595 0
M  V30 3770 C 336.014 -3.02866 -5.3192 0
M  V30 3771 N 335.151 -2.70565 -6.47873 0
M  V30 3772 H 339.991 -2.18207 -2.02952 0
M  V30 3773 H 337.528 -1.0851 -0.993173 0
M  V30 3774 H 339.486 -0.80677 -4.09325 0
M  V30 3775 H 338.116 -0.0632755 -3.22738 0
M  V30 3776 H 337.168 -2.46107 -2.90061 0
M  V30 3777 H 338.48 -3.05666 -3.94169 0
M  V30 3778 H 337.634 -1.65684 -5.83638 0
M  V30 3779 H 336.373 -0.957452 -4.78209 0
M  V30 3780 H 335.378 -3.23736 -4.44382 0
M  V30 3781 H 336.603 -3.93809 -5.53255 0
M  V30 3782 H 334.549 -1.8293 -6.29978 0
M  V30 3783 H 334.466 -3.51519 -6.69306 0
M  V30 3784 H 335.734 -2.53774 -7.37034 0
M  V30 3785 N 339.963 1.05934 -1.16686 0
M  V30 3786 C 340.913 2.11764 -0.844978 0
M  V30 3787 C 341.897 1.59922 0.177178 0
M  V30 3788 O 343.089 1.76983 -0.0241768 0
M  V30 3789 C 340.218 3.41493 -0.351812 0
M  V30 3790 C 339.304 4.00152 -1.40496 0
M  V30 3791 N 339.695 4.32874 -2.61636 0
M  V30 3792 C 337.993 4.278 -1.26106 0
M  V30 3793 C 338.694 4.79552 -3.29249 0
M  V30 3794 N 337.67 4.79211 -2.56628 0
M  V30 3795 H 341.472 2.34916 -1.76612 0
M  V30 3796 H 338.986 1.23511 -1.05446 0
M  V30 3797 H 340.983 4.16773 -0.102796 0
M  V30 3798 H 339.643 3.19778 0.56322 0
M  V30 3799 H 340.654 4.23109 -2.98663 0
M  V30 3800 H 337.331 4.15511 -0.407081 0
M  V30 3801 H 338.721 5.14045 -4.32675 0
M  V30 3802 N 341.441 0.965919 1.2453 0
M  V30 3803 C 342.69 0.622437 1.91856 0
M  V30 3804 C 343.003 -0.846006 1.76358 0
M  V30 3805 O 344.209 -1.29993 2.38357 0
M  V30 3806 C 342.665 1.0626 3.43856 0
M  V30 3807 C 342.273 2.55437 3.68043 0
M  V30 3808 C 344.017 0.792183 4.17043 0
M  V30 3809 C 341.924 2.93196 5.13605 0
M  V30 3810 H 340.854 0.229092 0.718354 0
M  V30 3811 H 343.505 1.17189 1.41206 0
M  V30 3812 H 341.887 0.441476 3.93531 0
M  V30 3813 H 343.061 3.22665 3.28974 0
M  V30 3814 H 341.376 2.8007 3.08139 0
M  V30 3815 H 343.973 1.05031 5.24283 0
M  V30 3816 H 344.316 -0.271584 4.15413 0
M  V30 3817 H 344.849 1.37419 3.73311 0
M  V30 3818 H 341.588 3.98636 5.20355 0
M  V30 3819 H 341.108 2.30651 5.53679 0
M  V30 3820 H 342.787 2.83004 5.81823 0
M  V30 3821 N 342.919 -1.39368 0.735821 0
M  V30 3822 C 344.144 -2.05319 0.293052 0
M  V30 3823 C 344.569 -1.55115 -1.064 0
M  V30 3824 O 343.927 -0.695261 -1.67439 0
M  V30 3825 C 343.975 -3.59305 0.305323 0
M  V30 3826 O 343.079 -4.06299 -0.706761 0
M  V30 3827 H 342.42 -0.650529 0.13307 0
M  V30 3828 H 344.95 -1.78386 1.00197 0
M  V30 3829 H 344.96 -4.07724 0.149997 0
M  V30 3830 H 343.635 -3.95207 1.29553 0
M  V30 3831 H 342.212 -3.69292 -0.517504 0
M  V30 3832 N 344.397 -0.483516 -1.5 0
M  V30 3833 C 345.808 -0.0314176 -1.86674 0
M  V30 3834 C 346.159 1.37728 -1.39733 0
M  V30 3835 O 345.284 2.02327 -0.767635 0
M  V30 3836 C 345.879 -0.0502376 -3.38763 0
M  V30 3837 C 344.438 0.346442 -3.74802 0
M  V30 3838 C 343.585 -0.430366 -2.7394 0
M  V30 3839 H 346.536 -0.697182 -1.42566 0
M  V30 3840 H 346.557 0.749116 -3.73053 0
M  V30 3841 H 346.069 -1.07563 -3.72897 0
M  V30 3842 H 344.17 1.37572 -3.46273 0
M  V30 3843 H 344.283 0.0391486 -4.79084 0
M  V30 3844 H 342.647 0.117557 -2.54429 0
M  V30 3845 H 343.43 -1.4555 -3.10918 0
M  V30 3846 N 345.875 1.56104 -0.216619 0
M  V30 3847 C 347.152 1.89988 0.465165 0
M  V30 3848 C 347.532 1.13326 1.78102 0
M  V30 3849 O 346.88 0.241033 2.27225 0
M  V30 3850 C 347.09 3.42646 0.662939 0
M  V30 3851 C 348.438 4.13311 0.972602 0
M  V30 3852 O 349.462 3.48217 0.749901 0
M  V30 3853 O 348.321 5.28396 1.39499 0
M  V30 3854 H 345.415 0.78979 0.245276 0
M  V30 3855 H 347.961 1.67721 -0.258436 0
M  V30 3856 H 346.733 3.90399 -0.26543 0
M  V30 3857 H 346.356 3.70677 1.43821 0
M  V30 3858 N 347.353 -0.0568162 1.57498 0
M  V30 3859 C 348.285 -1.09292 2.01464 0
M  V30 3860 C 349.298 -1.34112 0.922913 0
M  V30 3861 O 350.487 -1.32089 1.20062 0
M  V30 3862 C 347.587 -2.44068 2.35125 0
M  V30 3863 C 346.76 -2.38995 3.66333 0
M  V30 3864 C 345.819 -3.55997 3.87495 0
M  V30 3865 O 344.845 -3.36746 4.58901 0
M  V30 3866 N 346.047 -4.76888 3.30996 0
M  V30 3867 H 348.812 -0.718386 2.90963 0
M  V30 3868 H 346.373 -0.245235 1.60032 0
M  V30 3869 H 348.365 -3.21011 2.46443 0
M  V30 3870 H 346.935 -2.73468 1.5144 0
M  V30 3871 H 346.155 -1.47336 3.65631 0
M  V30 3872 H 347.443 -2.3272 4.52458 0
M  V30 3873 H 346.841 -4.95431 2.73065 0
M  V30 3874 H 345.398 -5.51291 3.47738 0
M  V30 3875 N 348.832 -1.54138 -0.328536 0
M  V30 3876 C 350.078 -1.7236 -1.06865 0
M  V30 3877 C 350.411 -0.493231 -1.87832 0
M  V30 3878 O 349.686 0.5098 -1.877 0
M  V30 3879 C 349.969 -2.99621 -1.99747 0
M  V30 3880 C 349.822 -4.32899 -1.22143 0
M  V30 3881 C 351.141 -3.22615 -2.99345 0
M  V30 3882 H 348.26 -0.627151 -0.387105 0
M  V30 3883 H 350.902 -1.86827 -0.345767 0
M  V30 3884 H 349.052 -2.87418 -2.61387 0
M  V30 3885 H 350.724 -4.56978 -0.630017 0
M  V30 3886 H 348.967 -4.30628 -0.523628 0
M  V30 3887 H 349.638 -5.18154 -1.90318 0
M  V30 3888 H 352.114 -3.34248 -2.47826 0
M  V30 3889 H 350.99 -4.13027 -3.61524 0
M  V30 3890 H 351.251 -2.3961 -3.71536 0
M  V30 3891 N 350.31 0.590341 -1.46126 0
M  V30 3892 C 351.721 1.17243 -1.45296 0
M  V30 3893 C 352.072 1.95281 -0.189723 0
M  V30 3894 O 351.197 2.04502 0.707674 0
M  V30 3895 C 351.792 2.13284 -2.6324 0
M  V30 3896 C 350.351 2.66832 -2.65476 0
M  V30 3897 C 349.498 1.42557 -2.3785 0
M  V30 3898 H 352.449 0.378692 -1.54116 0
M  V30 3899 H 352.47 2.96619 -2.38323 0
M  V30 3900 H 351.982 1.56459 -3.55165 0
M  V30 3901 H 350.083 3.27548 -1.77603 0
M  V30 3902 H 350.196 3.10088 -3.65215 0
M  V30 3903 H 348.56 1.72107 -1.87753 0
M  V30 3904 H 349.343 0.875741 -3.31942 0
M  V30 3905 N 351.788 1.33704 0.83433 0
M  V30 3906 C 353.034 1.25603 1.59222 0
M  V30 3907 C 353.367 -0.176659 1.93395 0
M  V30 3908 O 352.642 -1.11915 1.59076 0
M  V30 3909 C 352.925 2.13576 2.89926 0
M  V30 3910 C 352.778 3.65326 2.62406 0
M  V30 3911 C 354.097 2.01238 3.91397 0
M  V30 3912 H 351.216 0.457613 0.577719 0
M  V30 3913 H 353.858 1.63848 0.961972 0
M  V30 3914 H 352.008 1.8109 3.43713 0
M  V30 3915 H 353.68 4.08124 2.15017 0
M  V30 3916 H 351.923 3.8698 1.96033 0
M  V30 3917 H 352.594 4.22232 3.55562 0
M  V30 3918 H 355.07 2.29738 3.46929 0
M  V30 3919 H 353.946 2.65036 4.80673 0
M  V30 3920 H 354.207 0.985951 4.30966 0
M  V30 3921 N 353.266 -1.05314 1.17247 0
M  V30 3922 C 354.176 -2.16538 0.90268 0
M  V30 3923 C 355.192 -1.73523 -0.128707 0
M  V30 3924 O 356.368 -2.01337 0.0502701 0
M  V30 3925 C 353.433 -3.44167 0.418356 0
M  V30 3926 C 352.494 -4.01635 1.51618 0
M  V30 3927 C 351.727 -5.23171 1.05487 0
M  V30 3928 O 351.95 -5.70327 -0.0914715 0
M  V30 3929 O 350.884 -5.72848 1.8474 0
M  V30 3930 H 354.71 -2.42145 1.83302 0
M  V30 3931 H 352.295 -1.15037 0.953246 0
M  V30 3932 H 354.177 -4.21112 0.155726 0
M  V30 3933 H 352.852 -3.20063 -0.48385 0
M  V30 3934 H 351.759 -3.26135 1.83268 0
M  V30 3935 H 353.092 -4.30053 2.39405 0
M  V30 3936 N 354.744 -0.972509 -1.24016 0
M  V30 3937 C 355.974 -0.653853 -1.9598 0
M  V30 3938 C 356.382 0.781801 -1.72292 0
M  V30 3939 O 355.725 1.53677 -1.00644 0
M  V30 3940 C 355.787 -0.854608 -3.49194 0
M  V30 3941 C 355.451 -2.27082 -3.96589 0
M  V30 3942 C 356.448 -3.24892 -4.05883 0
M  V30 3943 C 354.133 -2.5998 -4.29786 0
M  V30 3944 C 356.127 -4.53684 -4.47716 0
M  V30 3945 C 353.814 -3.88997 -4.71301 0
M  V30 3946 C 354.812 -4.85661 -4.80232 0
M  V30 3947 O 354.5 -6.12376 -5.20818 0
M  V30 3948 H 354.232 -0.242572 -0.630979 0
M  V30 3949 H 356.786 -1.30431 -1.58673 0
M  V30 3950 H 355.016 -0.146985 -3.86421 0
M  V30 3951 H 356.705 -0.534311 -4.02368 0
M  V30 3952 H 357.471 -3.00805 -3.80449 0
M  V30 3953 H 353.35 -1.85457 -4.22051 0
M  V30 3954 H 356.894 -5.29135 -4.54601 0
M  V30 3955 H 352.791 -4.12882 -4.96184 0
M  V30 3956 H 353.559 -6.16013 -5.38953 0
M  V30 3957 N 356.222 1.38976 -0.743202 0
M  V30 3958 C 357.47 1.99948 -0.29417 0
M  V30 3959 C 357.791 1.59279 1.12495 0
M  V30 3960 O 357.061 0.844808 1.76748 0
M  V30 3961 H 355.641 0.739473 -0.105774 0
M  V30 3962 H 358.303 1.699 -0.954986 0
M  V30 3963 H 357.399 3.10142 -0.349056 0
M  V30 3964 N 357.7 0.491464 1.49741 0
M  V30 3965 C 358.948 -0.0563141 2.02022 0
M  V30 3966 C 359.269 -1.38363 1.37407 0
M  V30 3967 O 358.539 -1.88702 0.526166 0
M  V30 3968 H 357.119 -0.0238014 0.746621 0
M  V30 3969 H 359.781 0.646533 1.83864 0
M  V30 3970 H 358.877 -0.192967 3.11503 0
M  V30 3971 N 359.178 -1.55987 0.224894 0
M  V30 3972 C 360.406 -2.02784 -0.410665 0
M  V30 3973 C 360.821 -1.10464 -1.53112 0
M  V30 3974 O 360.178 -0.114871 -1.82138 0
M  V30 3975 C 360.229 -3.49087 -0.939165 0
M  V30 3976 O 359.95 -4.37887 0.136614 0
M  V30 3977 C 361.451 -4.11543 -1.64763 0
M  V30 3978 H 358.671 -0.663484 -0.100148 0
M  V30 3979 H 361.215 -2.01614 0.342326 0
M  V30 3980 H 359.37 -3.50861 -1.64242 0
M  V30 3981 H 359.784 -5.23849 -0.261155 0
M  V30 3982 H 361.258 -5.15673 -1.96939 0
M  V30 3983 H 361.735 -3.56736 -2.56195 0
M  V30 3984 H 362.341 -4.13629 -0.989503 0
M  V30 3985 N 360.656 0.0484629 -1.57525 0
M  V30 3986 C 361.589 1.08755 -2.00618 0
M  V30 3987 C 362.567 1.36272 -0.887058 0
M  V30 3988 O 363.751 1.49255 -1.15131 0
M  V30 3989 C 360.878 2.42675 -2.36277 0
M  V30 3990 C 359.924 2.31142 -3.58435 0
M  V30 3991 S 360.757 1.68326 -5.08357 0
M  V30 3992 C 361.913 3.03776 -5.47239 0
M  V30 3993 H 362.146 0.720415 -2.88439 0
M  V30 3994 H 359.679 0.257801 -1.52233 0
M  V30 3995 H 361.637 3.19699 -2.57494 0
M  V30 3996 H 360.298 2.76541 -1.48942 0
M  V30 3997 H 359.491 3.29957 -3.80978 0
M  V30 3998 H 359.093 1.62258 -3.36969 0
M  V30 3999 H 361.385 4.00106 -5.46737 0
M  V30 4000 H 362.328 2.85988 -6.47778 0
M  V30 4001 H 362.736 3.05456 -4.74718 0
M  V30 4002 N 362.134 1.5431 0.320358 0
M  V30 4003 C 363.362 1.76636 1.07738 0
M  V30 4004 C 363.777 0.51649 1.81598 0
M  V30 4005 O 363.134 -0.512942 1.75143 0
M  V30 4006 C 363.185 2.96158 2.07299 0
M  V30 4007 O 362.906 4.16313 1.36438 0
M  V30 4008 C 364.407 3.3072 2.95193 0
M  V30 4009 H 361.627 0.589597 0.320339 0
M  V30 4010 H 364.171 2.01207 0.36551 0
M  V30 4011 H 362.326 2.73851 2.74016 0
M  V30 4012 H 362.74 4.83565 2.03138 0
M  V30 4013 H 364.214 4.17643 3.60941 0
M  V30 4014 H 364.691 2.48026 3.62463 0
M  V30 4015 H 365.297 3.55117 2.34034 0
M  V30 4016 N 363.613 -0.582584 1.46437 0
M  V30 4017 C 364.89 -1.34276 1.4223 0
M  V30 4018 C 365.27 -2.10835 0.10583 0
M  V30 4019 O 364.618 -2.09485 -0.912596 0
M  V30 4020 C 364.828 -2.26865 2.65204 0
M  V30 4021 C 366.176 -2.88691 3.11356 0
M  V30 4022 O 367.2 -2.37178 2.65753 0
M  V30 4023 O 366.059 -3.82255 3.90568 0
M  V30 4024 H 363.153 -0.603326 0.565621 0
M  V30 4025 H 365.699 -0.603591 1.58603 0
M  V30 4026 H 364.471 -1.69724 3.52576 0
M  V30 4027 H 364.094 -3.08122 2.5129 0
M  V30 4028 N 365.091 -1.34144 -0.827227 0
M  V30 4029 C 366.502 -1.23557 -1.39966 0
M  V30 4030 C 366.853 0.140731 -1.95695 0
M  V30 4031 O 365.978 1.04087 -1.89723 0
M  V30 4032 C 366.573 -2.23708 -2.54441 0
M  V30 4033 C 365.132 -2.16924 -3.07605 0
M  V30 4034 C 364.279 -2.10549 -1.80456 0
M  V30 4035 H 367.23 -1.45573 -0.631991 0
M  V30 4036 H 367.251 -1.85157 -3.32411 0
M  V30 4037 H 366.763 -3.23866 -2.13851 0
M  V30 4038 H 364.864 -1.20107 -3.52711 0
M  V30 4039 H 364.977 -3.07988 -3.66988 0
M  V30 4040 H 363.341 -1.56203 -2.01178 0
M  V30 4041 H 364.124 -3.12535 -1.42046 0
M  V30 4042 N 366.569 1.04691 -1.17803 0
M  V30 4043 C 367.846 1.7472 -0.879328 0
M  V30 4044 C 368.226 2.01812 0.619271 0
M  V30 4045 O 367.574 1.65824 1.57209 0
M  V30 4046 C 367.784 3.03686 -1.71976 0
M  V30 4047 C 369.132 3.77542 -1.94286 0
M  V30 4048 O 370.156 3.13569 -1.68976 0
M  V30 4049 O 369.015 4.92506 -2.36855 0
M  V30 4050 H 366.109 0.760011 -0.326056 0
M  V30 4051 H 368.655 1.10813 -1.28525 0
M  V30 4052 H 367.427 2.79754 -2.73594 0
M  V30 4053 H 367.05 3.75332 -1.31194 0
M  V30 4054 N 368.047 0.979072 1.23499 0
M  V30 4055 C 369.295 0.645941 1.91499 0
M  V30 4056 C 369.616 -0.822948 1.76784 0
M  V30 4057 O 368.886 -1.58854 1.14639 0
M  V30 4058 H 367.466 0.235919 0.708767 0
M  V30 4059 H 370.128 1.2426 1.50152 0
M  V30 4060 H 369.224 0.896411 2.9895 0
M  V30 4061 N 369.525 -1.3858 0.750561 0
M  V30 4062 C 370.473 -2.32339 0.110162 0
M  V30 4063 C 371.467 -1.53864 -0.708674 0
M  V30 4064 O 372.673 -1.69417 -0.608112 0
M  V30 4065 H 369.048 -0.751812 0.0168275 0
M  V30 4066 H 371.019 -2.83959 0.917053 0
M  V30 4067 C 369.768 -3.39043 -0.771067 0
M  V30 4068 H 369.091 -3.99517 -0.150374 0
M  V30 4069 H 370.531 -4.07061 -1.1865 0
M  V30 4070 C 368.99 -2.77365 -1.91234 0
M  V30 4071 O 369.52 -2.66434 -3.00626 0
M  V30 4072 N 367.726 -2.35219 -1.70646 0
M  V30 4073 H 367.273 -2.4431 -0.81673 0
M  V30 4074 H 367.231 -1.94294 -2.47178 0
M  V30 4075 N 371.003 -0.499398 -1.49478 0
M  V30 4076 C 372.414 -0.051215 -1.8663 0
M  V30 4077 C 372.765 1.36238 -1.41186 0
M  V30 4078 O 371.89 2.01502 -0.789051 0
M  V30 4079 C 372.485 -0.0861651 -3.3869 0
M  V30 4080 C 371.044 0.30667 -3.75149 0
M  V30 4081 C 370.191 -0.459397 -2.73468 0
M  V30 4082 H 373.142 -0.712264 -1.41818 0
M  V30 4083 H 373.163 0.709507 -3.73826 0
M  V30 4084 H 372.675 -1.11512 -3.71735 0
M  V30 4085 H 370.776 1.33892 -3.47712 0
M  V30 4086 H 370.889 -0.0116669 -4.79099 0
M  V30 4087 H 369.253 0.0905645 -2.54539 0
M  V30 4088 H 370.036 -1.4884 -3.09357 0
M  V30 4089 N 372.481 1.55866 -0.233164 0
M  V30 4090 C 373.428 2.20796 0.67215 0
M  V30 4091 C 374.398 1.16731 1.18166 0
M  V30 4092 O 375.583 1.45129 1.23864 0
M  V30 4093 C 372.723 2.90072 1.86955 0
M  V30 4094 C 371.836 4.08759 1.39786 0
M  V30 4095 C 370.971 4.65787 2.55374 0
M  V30 4096 C 370.01 5.76752 2.04998 0
M  V30 4097 N 369.147 6.28021 3.13901 0
M  V30 4098 H 373.987 2.9779 0.111749 0
M  V30 4099 H 371.524 1.47036 0.0434007 0
M  V30 4100 H 373.482 3.28428 2.57276 0
M  V30 4101 H 372.112 2.15575 2.40265 0
M  V30 4102 H 371.164 3.7581 0.589173 0
M  V30 4103 H 372.476 4.88906 0.98856 0
M  V30 4104 H 371.63 5.06646 3.33758 0
M  V30 4105 H 370.369 3.84828 2.99598 0
M  V30 4106 H 369.374 5.35383 1.25079 0
M  V30 4107 H 370.599 6.59553 1.61759 0
M  V30 4108 H 368.545 5.49971 3.57586 0
M  V30 4109 H 368.462 7.03323 2.7726 0
M  V30 4110 H 369.73 6.73538 3.92386 0
M  V30 4111 N 373.959 -0.0401083 1.57549 0
M  V30 4112 C 375.199 -0.738098 1.90608 0
M  V30 4113 C 375.563 -1.73107 0.830539 0
M  V30 4114 O 376.764 -2.4765 1.04513 0
M  V30 4115 C 375.035 -1.39985 3.28845 0
M  V30 4116 S 376.594 -2.12852 3.83718 0
M  V30 4117 H 373.412 -0.24477 0.667539 0
M  V30 4118 H 376.014 0.00693599 1.95499 0
M  V30 4119 H 374.718 -0.663775 4.04997 0
M  V30 4120 H 374.249 -2.18366 3.2723 0
M  V30 4121 H 376.264 -3.39842 3.61555 0
M  V30 4122 N 375.437 -1.54477 -0.31217 0
M  V30 4123 C 376.384 -1.84655 -1.38461 0
M  V30 4124 C 377.354 -0.694536 -1.50882 0
M  V30 4125 O 378.539 -0.942081 -1.6592 0
M  V30 4126 C 375.679 -2.0896 -2.74645 0
M  V30 4127 C 374.792 -3.36618 -2.70763 0
M  V30 4128 C 373.927 -3.50824 -3.98868 0
M  V30 4129 C 372.966 -4.72315 -3.89339 0
M  V30 4130 N 372.103 -4.83387 -5.09197 0
M  V30 4131 H 376.943 -2.76142 -1.12026 0
M  V30 4132 H 374.48 -1.36748 -0.542065 0
M  V30 4133 H 376.438 -2.21045 -3.53829 0
M  V30 4134 H 375.068 -1.20752 -2.99364 0
M  V30 4135 H 374.12 -3.33211 -1.83506 0
M  V30 4136 H 375.432 -4.25917 -2.59608 0
M  V30 4137 H 374.586 -3.62513 -4.86486 0
M  V30 4138 H 373.325 -2.59638 -4.12843 0
M  V30 4139 H 372.33 -4.6067 -3.00105 0
M  V30 4140 H 373.555 -5.64897 -3.76919 0
M  V30 4141 H 371.501 -3.9512 -5.23657 0
M  V30 4142 H 371.418 -5.66669 -5.00422 0
M  V30 4143 H 372.686 -4.9942 -5.98498 0
M  V30 4144 N 376.915 0.57481 -1.46744 0
M  V30 4145 C 378.14 1.36341 -1.56288 0
M  V30 4146 C 378.565 1.86954 -0.207347 0
M  V30 4147 O 377.923 1.62006 0.813871 0
M  V30 4148 C 377.971 2.52147 -2.57787 0
M  V30 4149 O 377.075 3.53834 -2.11838 0
M  V30 4150 H 376.416 0.405713 -0.525636 0
M  V30 4151 H 378.946 0.696453 -1.92382 0
M  V30 4152 H 378.956 2.98958 -2.77648 0
M  V30 4153 H 377.631 2.14663 -3.5622 0
M  V30 4154 H 376.208 3.1345 -2.01999 0
M  V30 4155 N 378.394 1.34581 0.820102 0
M  V30 4156 C 379.341 1.2639 1.93117 0
M  V30 4157 C 380.311 0.138554 1.65521 0
M  V30 4158 O 381.496 0.320004 1.88097 0
M  V30 4159 C 378.636 1.02812 3.29429 0
M  V30 4160 C 377.749 2.24146 3.693 0
M  V30 4161 C 376.884 1.93829 4.94574 0
M  V30 4162 C 375.923 3.1129 5.27034 0
M  V30 4163 N 375.06 2.80838 6.43486 0
M  V30 4164 H 379.9 2.21408 1.99455 0
M  V30 4165 H 377.437 1.10077 0.975784 0
M  V30 4166 H 379.395 0.871788 4.0799 0
M  V30 4167 H 378.025 0.114612 3.22596 0
M  V30 4168 H 377.077 2.50691 2.86109 0
M  V30 4169 H 378.389 3.11899 3.89257 0
M  V30 4170 H 377.543 1.74948 5.80929 0
M  V30 4171 H 376.282 1.03341 4.76626 0
M  V30 4172 H 375.287 3.30764 4.39175 0
M  V30 4173 H 376.512 4.02561 5.4692 0
M  V30 4174 H 374.458 1.92929 6.26988 0
M  V30 4175 H 374.375 3.62123 6.63629 0
M  V30 4176 H 375.643 2.65467 7.32903 0
M  V30 4177 N 379.872 -1.04064 1.18357 0
M  V30 4178 C 381.121 -1.76662 0.973313 0
M  V30 4179 C 381.434 -1.89154 -0.497991 0
M  V30 4180 O 382.64 -2.58606 -0.826762 0
M  V30 4181 C 381.096 -3.17624 1.69242 0
M  V30 4182 C 380.704 -3.13225 3.20303 0
M  V30 4183 C 382.448 -3.946 1.56497 0
M  V30 4184 C 380.355 -4.49046 3.84853 0
M  V30 4185 H 379.285 -0.662214 0.36054 0
M  V30 4186 H 381.936 -1.16553 1.41731 0
M  V30 4187 H 380.318 -3.78129 1.1762 0
M  V30 4188 H 381.492 -2.62172 3.78949 0
M  V30 4189 H 379.807 -2.49749 3.33189 0
M  V30 4190 H 382.404 -4.95042 2.02084 0
M  V30 4191 H 382.747 -4.13074 0.517243 0
M  V30 4192 H 383.28 -3.4067 2.05399 0
M  V30 4193 H 380.019 -4.35777 4.89672 0
M  V30 4194 H 379.539 -5.00203 3.30994 0
M  V30 4195 H 381.218 -5.17961 3.87718 0
M  V30 4196 N 381.35 -0.985608 -1.22978 0
M  V30 4197 C 382.298 -0.522631 -2.26652 0
M  V30 4198 C 383.292 0.422998 -1.64034 0
M  V30 4199 O 384.498 0.296319 -1.77544 0
M  V30 4200 H 380.873 -0.150597 -0.736766 0
M  V30 4201 H 382.844 -1.40863 -2.63059 0
M  V30 4202 C 381.593 0.154238 -3.47358 0
M  V30 4203 H 380.916 -0.564329 -3.95797 0
M  V30 4204 H 382.356 0.441744 -4.21693 0
M  V30 4205 C 380.815 1.38719 -3.07016 0
M  V30 4206 O 381.345 2.48307 -3.15764 0
M  V30 4207 N 379.551 1.25975 -2.61875 0
M  V30 4208 H 379.098 0.368068 -2.54957 0
M  V30 4209 H 379.056 2.08578 -2.3525 0
M  V30 4210 N 382.828 1.3818 -0.7579 0
M  V30 4211 C 384.058 2.04004 -0.326463 0
M  V30 4212 C 384.466 1.57286 1.05156 0
M  V30 4213 O 383.809 0.743144 1.67997 0
M  V30 4214 C 383.871 3.58444 -0.275402 0
M  V30 4215 C 383.535 4.28237 -1.59569 0
M  V30 4216 C 384.532 4.53312 -2.54566 0
M  V30 4217 C 382.217 4.66341 -1.86631 0
M  V30 4218 C 384.211 5.15531 -3.74842 0
M  V30 4219 C 381.898 5.28283 -3.0718 0
M  V30 4220 C 382.896 5.52814 -4.01106 0
M  V30 4221 O 382.584 6.13465 -5.19534 0
M  V30 4222 H 382.316 0.662026 -0.136739 0
M  V30 4223 H 384.87 1.7777 -1.02893 0
M  V30 4224 H 383.1 3.83667 0.483337 0
M  V30 4225 H 384.789 4.05701 0.127099 0
M  V30 4226 H 385.555 4.24299 -2.34936 0
M  V30 4227 H 381.434 4.46591 -1.14358 0
M  V30 4228 H 384.978 5.34594 -4.48168 0
M  V30 4229 H 380.875 5.56719 -3.26702 0
M  V30 4230 H 381.643 6.31951 -5.20173 0
M  V30 4231 N 384.306 0.507319 1.49211 0
M  V30 4232 C 385.554 -0.0348839 2.0207 0
M  V30 4233 C 385.875 -1.36898 1.38866 0
M  V30 4234 O 385.145 -1.88133 0.546151 0
M  V30 4235 H 383.725 -0.0158812 0.746831 0
M  V30 4236 H 386.387 0.665998 1.83168 0
M  V30 4237 H 385.483 -0.159917 3.1169 0
M  V30 4238 N 385.784 -1.5574 0.241426 0
M  V30 4239 C 387.032 -1.98417 -0.384075 0
M  V30 4240 C 387.353 -1.13078 -1.58866 0
M  V30 4241 O 386.623 -0.212312 -1.94746 0
M  V30 4242 H 385.203 -0.732813 -0.144894 0
M  V30 4243 H 387.865 -1.9193 0.338943 0
M  V30 4244 H 386.961 -3.04219 -0.696939 0
M  V30 4245 N 387.262 0.0317525 -1.57568 0
M  V30 4246 C 388.539 0.758366 -1.803 0
M  V30 4247 C 388.919 1.93718 -0.838845 0
M  V30 4248 O 388.267 2.28187 0.119571 0
M  V30 4249 C 388.477 1.19392 -3.27943 0
M  V30 4250 C 389.825 1.61094 -3.92854 0
M  V30 4251 O 390.849 1.28857 -3.32076 0
M  V30 4252 O 389.708 2.20918 -4.99858 0
M  V30 4253 H 386.802 0.366514 -0.741348 0
M  V30 4254 H 389.348 0.00873765 -1.69698 0
M  V30 4255 H 388.12 0.352275 -3.89711 0
M  V30 4256 H 387.743 2.00365 -3.43424 0
M  V30 4257 N 388.74 1.54641 0.303973 0
M  V30 4258 C 389.989 1.7299 1.03717 0
M  V30 4259 C 390.302 0.521168 1.88529 0
M  V30 4260 O 391.508 0.586408 2.65092 0
M  V30 4261 C 389.964 3.06051 1.89369 0
M  V30 4262 C 389.572 4.34393 1.09574 0
M  V30 4263 C 391.316 3.3376 2.62306 0
M  V30 4264 C 389.223 5.58506 1.94486 0
M  V30 4265 H 388.153 0.64473 0.390947 0
M  V30 4266 H 390.804 1.81124 0.294328 0
M  V30 4267 H 389.186 2.91874 2.67629 0
M  V30 4268 H 390.36 4.59396 0.359485 0
M  V30 4269 H 388.675 4.13597 0.482324 0
M  V30 4270 H 391.272 4.23687 3.26181 0
M  V30 4271 H 391.615 2.52503 3.3098 0
M  V30 4272 H 392.148 3.48894 1.91097 0
M  V30 4273 H 388.887 6.42422 1.30287 0
M  V30 4274 H 388.407 5.37694 2.65792 0
M  V30 4275 H 390.086 5.95651 2.52605 0
M  V30 4276 N 390.218 -0.567019 1.47046 0
M  V30 4277 C 391.629 -1.14916 1.47143 0
M  V30 4278 C 391.98 -1.94954 0.220767 0
M  V30 4279 O 391.105 -2.05602 -0.67505 0
M  V30 4280 C 391.7 -2.09069 2.666 0
M  V30 4281 C 390.259 -2.62575 2.69687 0
M  V30 4282 C 389.406 -1.38755 2.40088 0
M  V30 4283 H 392.357 -0.354126 1.54699 0
M  V30 4284 H 392.378 -2.92789 2.43011 0
M  V30 4285 H 391.89 -1.50789 3.57609 0
M  V30 4286 H 389.991 -3.24681 1.82792 0
M  V30 4287 H 390.104 -3.04239 3.70102 0
M  V30 4288 H 388.468 -1.69098 1.90468 0
M  V30 4289 H 389.251 -0.822822 3.33293 0
M  V30 4290 N 391.696 -1.35014 -0.812953 0
M  V30 4291 C 393.112 -1.14914 -1.10757 0
M  V30 4292 C 393.312 0.0426818 -2.01455 0
M  V30 4293 O 392.368 0.715212 -2.42159 0
M  V30 4294 C 393.681 -2.44911 -1.74468 0
M  V30 4295 C 395.229 -2.5106 -1.86917 0
M  V30 4296 C 395.704 -3.81085 -2.54044 0
M  V30 4297 N 397.195 -3.82301 -2.61535 0
M  V30 4298 C 397.93 -4.79634 -3.14227 0
M  V30 4299 N 397.426 -5.87353 -3.67407 0
M  V30 4300 N 399.219 -4.67078 -3.12721 0
M  V30 4301 H 391.37 -2.1136 -0.20989 0
M  V30 4302 H 393.633 -0.935128 -0.155692 0
M  V30 4303 H 393.339 -3.32267 -1.15289 0
M  V30 4304 H 393.213 -2.58989 -2.74234 0
M  V30 4305 H 395.6 -1.64137 -2.45241 0
M  V30 4306 H 395.681 -2.40901 -0.860242 0
M  V30 4307 H 395.325 -4.68402 -1.96372 0
M  V30 4308 H 395.255 -3.88529 -3.55461 0
M  V30 4309 H 397.746 -3.04465 -2.23851 0
M  V30 4310 H 398.059 -6.57624 -4.05894 0
M  V30 4311 H 396.404 -5.91054 -3.65623 0
M  V30 4312 H 399.595 -3.82067 -2.70449 0
M  V30 4313 H 399.768 -5.43098 -3.53481 0
M  V30 4314 N 393.175 1.03435 -1.18907 0
M  V30 4315 C 394.122 2.11591 -0.921837 0
M  V30 4316 C 395.092 1.65499 0.141226 0
M  V30 4317 O 396.277 1.908 0.000242829 0
M  V30 4318 C 393.417 3.42012 -0.460616 0
M  V30 4319 C 392.53 4.01682 -1.58982 0
M  V30 4320 C 391.665 5.20091 -1.08069 0
M  V30 4321 C 390.704 5.71805 -2.18416 0
M  V30 4322 N 389.841 6.81494 -1.68849 0
M  V30 4323 H 394.681 2.33787 -1.8479 0
M  V30 4324 H 392.218 1.1467 -0.921373 0
M  V30 4325 H 394.176 4.16834 -0.174642 0
M  V30 4326 H 392.806 3.19944 0.428467 0
M  V30 4327 H 391.858 3.24127 -1.99113 0
M  V30 4328 H 393.17 4.36084 -2.4214 0
M  V30 4329 H 392.324 6.02051 -0.749615 0
M  V30 4330 H 391.063 4.87209 -0.218771 0
M  V30 4331 H 390.068 4.88461 -2.5236 0
M  V30 4332 H 391.293 6.06728 -3.05054 0
M  V30 4333 H 389.239 6.50475 -0.849572 0
M  V30 4334 H 389.156 7.14994 -2.45601 0
M  V30 4335 H 390.424 7.67063 -1.38689 0
M  V30 4336 N 394.653 0.992116 1.22453 0
M  V30 4337 C 395.883 0.684949 1.94915 0
M  V30 4338 C 396.291 -0.754292 1.73514 0
M  V30 4339 O 395.634 -1.52056 1.03076 0
M  V30 4340 C 395.696 0.910054 3.47791 0
M  V30 4341 C 395.36 2.33363 3.92926 0
M  V30 4342 C 396.357 3.31308 4.00663 0
M  V30 4343 C 394.042 2.66785 4.25595 0
M  V30 4344 C 396.036 4.6075 4.40441 0
M  V30 4345 C 393.723 3.96446 4.65053 0
M  V30 4346 C 394.721 4.9324 4.72444 0
M  V30 4347 O 394.409 6.20584 5.1101 0
M  V30 4348 H 394.141 0.25258 0.62704 0
M  V30 4349 H 396.695 1.32939 1.56577 0
M  V30 4350 H 394.925 0.208443 3.86138 0
M  V30 4351 H 396.614 0.598257 4.01467 0
M  V30 4352 H 397.38 3.0682 3.75615 0
M  V30 4353 H 393.259 1.92148 4.19047 0
M  V30 4354 H 396.803 5.363 4.46126 0
M  V30 4355 H 392.7 4.20724 4.89552 0
M  V30 4356 H 393.468 6.24509 5.29085 0
M  V30 4357 N 396.131 -1.37776 0.765217 0
M  V30 4358 C 397.361 -2.03828 0.337277 0
M  V30 4359 C 397.769 -1.57841 -1.04321 0
M  V30 4360 O 397.112 -0.752043 -1.67601 0
M  V30 4361 C 397.174 -3.58292 0.294407 0
M  V30 4362 C 396.838 -4.27384 1.61838 0
M  V30 4363 C 397.835 -4.51956 2.56967 0
M  V30 4364 C 395.52 -4.65345 1.89102 0
M  V30 4365 C 397.514 -5.13536 3.77571 0
M  V30 4366 C 395.201 -5.26647 3.09978 0
M  V30 4367 C 396.199 -5.50679 4.04032 0
M  V30 4368 O 395.887 -6.10702 5.2278 0
M  V30 4369 H 395.619 -0.661292 0.140248 0
M  V30 4370 H 398.173 -1.77222 1.03834 0
M  V30 4371 H 396.403 -3.83918 -0.462983 0
M  V30 4372 H 398.092 -4.05763 -0.105581 0
M  V30 4373 H 398.858 -4.23048 2.37183 0
M  V30 4374 H 394.737 -4.45978 1.16725 0
M  V30 4375 H 398.281 -5.3221 4.50997 0
M  V30 4376 H 394.178 -5.54979 3.29649 0
M  V30 4377 H 394.946 -6.29183 5.23517 0
M  V30 4378 N 397.609 -0.515225 -1.4894 0
M  V30 4379 C 398.855 0.0242508 -2.02785 0
M  V30 4380 C 399.188 1.35323 -1.39289 0
M  V30 4381 O 398.463 1.87041 -0.533469 0
M  V30 4382 C 398.746 0.16184 -3.59736 0
M  V30 4383 C 398.599 -1.19127 -4.33738 0
M  V30 4384 C 399.918 0.895719 -4.30888 0
M  V30 4385 H 397.037 0.00733914 -0.736963 0
M  V30 4386 H 399.679 -0.669395 -1.77818 0
M  V30 4387 H 397.829 0.752624 -3.8114 0
M  V30 4388 H 399.501 -1.82202 -4.23792 0
M  V30 4389 H 397.744 -1.77695 -3.95736 0
M  V30 4390 H 398.415 -1.04815 -5.41957 0
M  V30 4391 H 400.891 0.394528 -4.14225 0
M  V30 4392 H 399.767 0.960859 -5.40425 0
M  V30 4393 H 400.028 1.9427 -3.97129 0
M  V30 4394 N 399.087 1.5561 -0.249682 0
M  V30 4395 C 400.503 1.59254 0.105103 0
M  V30 4396 C 400.703 1.26685 1.56694 0
M  V30 4397 O 399.759 1.0155 2.31179 0
M  V30 4398 C 401.072 2.99687 -0.246592 0
M  V30 4399 C 402.62 3.12416 -0.191118 0
M  V30 4400 C 403.095 4.55074 -0.516885 0
M  V30 4401 N 404.586 4.60835 -0.467489 0
M  V30 4402 C 405.321 5.69201 -0.69268 0
M  V30 4403 N 404.817 6.85817 -0.981146 0
M  V30 4404 N 406.61 5.58635 -0.623198 0
M  V30 4405 H 398.761 1.75049 -1.20298 0
M  V30 4406 H 401.024 0.815003 -0.484225 0
M  V30 4407 H 400.73 3.28267 -1.26228 0
M  V30 4408 H 400.604 3.74798 0.424962 0
M  V30 4409 H 402.991 2.83615 0.815247 0
M  V30 4410 H 403.072 2.39573 -0.896563 0
M  V30 4411 H 402.716 4.84596 -1.52082 0
M  V30 4412 H 402.646 5.26181 0.210068 0
M  V30 4413 H 405.137 3.7705 -0.253373 0
M  V30 4414 H 405.45 7.64341 -1.14032 0
M  V30 4415 H 403.795 6.87494 -1.01865 0
M  V30 4416 H 406.986 4.66406 -0.397863 0
M  V30 4417 H 407.159 6.43017 -0.802093 0
M  V30 4418 N 400.565 -0.0233959 1.57583 0
M  V30 4419 C 401.842 -0.748794 1.807 0
M  V30 4420 C 402.222 -1.9327 0.849106 0
M  V30 4421 O 401.57 -2.28247 -0.107468 0
M  V30 4422 C 401.78 -1.17651 3.28571 0
M  V30 4423 C 403.128 -1.59008 3.93702 0
M  V30 4424 O 404.152 -1.27094 3.32755 0
M  V30 4425 O 403.011 -2.18264 5.01022 0
M  V30 4426 H 400.105 -0.362578 0.743281 0
M  V30 4427 H 402.651 0.000261958 1.697 0
M  V30 4428 H 401.423 -0.331603 3.89892 0
M  V30 4429 H 401.046 -1.98541 3.44481 0
M  V30 4430 N 402.043 -1.548 -0.295768 0
M  V30 4431 C 402.975 -1.82492 -1.3867 0
M  V30 4432 C 403.988 -0.708134 -1.46592 0
M  V30 4433 O 405.177 -0.985686 -1.48817 0
M  V30 4434 C 402.277 -1.95256 -2.76999 0
M  V30 4435 C 401.45 -3.25709 -2.91946 0
M  V30 4436 C 400.509 -3.28824 -4.10806 0
M  V30 4437 O 399.535 -4.02328 -4.02643 0
M  V30 4438 N 400.737 -2.5459 -5.21694 0
M  V30 4439 H 403.502 -2.76646 -1.15269 0
M  V30 4440 H 401.063 -1.54438 -0.485849 0
M  V30 4441 H 403.055 -1.94736 -3.54768 0
M  V30 4442 H 401.625 -1.08072 -2.93324 0
M  V30 4443 H 400.845 -3.38959 -2.01247 0
M  V30 4444 H 402.133 -4.11786 -2.98847 0
M  V30 4445 H 401.531 -1.94512 -5.31208 0
M  V30 4446 H 400.088 -2.59818 -5.97778 0
M  V30 4447 N 403.521 0.559213 -1.47345 0
M  V30 4448 C 404.767 1.31843 -1.54095 0
M  V30 4449 C 405.1 1.93149 -0.201726 0
M  V30 4450 O 404.375 1.77759 0.789428 0
M  V30 4451 C 404.658 2.43006 -2.65744 0
M  V30 4452 C 404.511 1.86581 -4.09277 0
M  V30 4453 C 405.83 3.44943 -2.73318 0
M  V30 4454 H 402.949 0.478012 -0.560957 0
M  V30 4455 H 405.591 0.625977 -1.79392 0
M  V30 4456 H 403.741 3.02072 -2.44305 0
M  V30 4457 H 405.413 1.31792 -4.42073 0
M  V30 4458 H 403.656 1.17268 -4.17649 0
M  V30 4459 H 404.327 2.66933 -4.83168 0
M  V30 4460 H 406.803 2.95793 -2.92653 0
M  V30 4461 H 405.679 4.20153 -3.53218 0
M  V30 4462 H 405.94 4.03665 -1.80296 0
M  V30 4463 N 404.999 1.35443 0.805782 0
M  V30 4464 C 405.946 1.28431 1.91766 0
M  V30 4465 C 406.916 0.156102 1.65365 0
M  V30 4466 O 408.101 0.339936 1.87747 0
M  V30 4467 C 405.241 1.06301 3.2832 0
M  V30 4468 C 404.354 2.2805 3.66902 0
M  V30 4469 C 403.489 1.99064 4.92491 0
M  V30 4470 C 402.528 3.16863 5.23703 0
M  V30 4471 N 401.665 2.87647 6.40471 0
M  V30 4472 H 406.505 2.23511 1.97096 0
M  V30 4473 H 404.042 1.11105 0.964054 0
M  V30 4474 H 406 0.915012 4.07042 0
M  V30 4475 H 404.63 0.148822 3.22457 0
M  V30 4476 H 403.682 2.53711 2.83434 0
M  V30 4477 H 404.994 3.1601 3.85927 0
M  V30 4478 H 404.148 1.81099 5.7904 0
M  V30 4479 H 402.887 1.0839 4.75503 0
M  V30 4480 H 401.892 3.35404 4.35642 0
M  V30 4481 H 403.117 4.08339 5.4262 0
M  V30 4482 H 401.063 1.99568 6.24907 0
M  V30 4483 H 400.98 3.69141 6.59751 0
M  V30 4484 H 402.248 2.73226 7.30047 0
M  V30 4485 N 406.477 -1.02803 1.19454 0
M  V30 4486 C 407.409 -2.11181 0.890807 0
M  V30 4487 C 408.422 -1.6238 -0.116829 0
M  V30 4488 O 409.611 -1.78144 0.112694 0
M  V30 4489 C 406.711 -3.37461 0.311942 0
M  V30 4490 C 405.884 -4.15446 1.36834 0
M  V30 4491 C 404.943 -5.20039 0.802864 0
M  V30 4492 O 403.969 -5.49602 1.48077 0
M  V30 4493 N 405.171 -5.79165 -0.393417 0
M  V30 4494 H 407.936 -2.37827 1.82369 0
M  V30 4495 H 405.497 -1.19101 1.09666 0
M  V30 4496 H 407.489 -4.0462 -0.0802225 0
M  V30 4497 H 406.059 -3.08156 -0.52524 0
M  V30 4498 H 405.279 -3.43423 1.93531 0
M  V30 4499 H 406.567 -4.64335 2.08015 0
M  V30 4500 H 405.965 -5.57466 -0.961658 0
M  V30 4501 H 404.522 -6.47729 -0.727351 0
M  V30 4502 N 407.956 -0.998596 -1.21925 0
M  V30 4503 C 408.888 -0.511879 -2.23411 0
M  V30 4504 C 409.901 0.396094 -1.57908 0
M  V30 4505 O 411.09 0.197316 -1.77406 0
M  V30 4506 C 408.19 0.276802 -3.37768 0
M  V30 4507 C 407.363 -0.628687 -4.32858 0
M  V30 4508 C 406.422 0.109272 -5.26087 0
M  V30 4509 O 405.448 -0.507237 -5.66935 0
M  V30 4510 N 406.65 1.38983 -5.63617 0
M  V30 4511 H 409.415 -1.38457 -2.658 0
M  V30 4512 H 406.976 -0.873981 -1.36283 0
M  V30 4513 H 408.968 0.77928 -3.97126 0
M  V30 4514 H 407.538 1.05063 -2.94415 0
M  V30 4515 H 406.758 -1.31175 -3.71735 0
M  V30 4516 H 408.046 -1.24514 -4.93329 0
M  V30 4517 H 407.444 1.91194 -5.32411 0
M  V30 4518 H 406.001 1.83739 -6.25367 0
M  V30 4519 N 409.434 1.37368 -0.772513 0
M  V30 4520 C 410.664 2.03647 -0.348082 0
M  V30 4521 C 411.072 1.58392 1.03482 0
M  V30 4522 O 410.415 0.760921 1.672 0
M  V30 4523 C 410.477 3.58131 -0.313404 0
M  V30 4524 C 410.141 4.2652 -1.64102 0
M  V30 4525 C 411.138 4.50587 -2.5936 0
M  V30 4526 C 408.823 4.64335 -1.91567 0
M  V30 4527 C 410.817 5.11526 -3.80289 0
M  V30 4528 C 408.504 5.24996 -3.12766 0
M  V30 4529 C 409.502 5.48529 -4.06946 0
M  V30 4530 O 409.19 6.07921 -5.26011 0
M  V30 4531 H 408.922 0.660538 -0.143753 0
M  V30 4532 H 411.476 1.76669 -1.04772 0
M  V30 4533 H 409.706 3.84159 0.442617 0
M  V30 4534 H 411.395 4.05813 0.0840613 0
M  V30 4535 H 412.161 4.21784 -2.39423 0
M  V30 4536 H 408.04 4.45353 -1.19088 0
M  V30 4537 H 411.584 5.29811 -4.53813 0
M  V30 4538 H 407.481 5.53223 -3.32588 0
M  V30 4539 H 408.249 6.26398 -5.26847 0
M  V30 4540 N 410.912 0.523116 1.48665 0
M  V30 4541 C 411.822 -0.247406 2.33292 0
M  V30 4542 C 412.838 -0.945769 1.46052 0
M  V30 4543 O 414.014 -0.922253 1.79043 0
M  V30 4544 C 411.079 -1.28487 3.22012 0
M  V30 4545 C 410.14 -0.597592 4.2512 0
M  V30 4546 C 409.373 -1.58563 5.09601 0
M  V30 4547 O 409.596 -2.81763 4.95949 0
M  V30 4548 O 408.53 -1.12879 5.91221 0
M  V30 4549 H 412.356 0.445869 3.00409 0
M  V30 4550 H 409.941 0.284128 1.46673 0
M  V30 4551 H 411.823 -1.88459 3.7691 0
M  V30 4552 H 410.498 -1.96068 2.57564 0
M  V30 4553 H 409.405 0.0424407 3.74076 0
M  V30 4554 H 410.738 0.0361517 4.92187 0
M  V30 4555 N 412.39 -1.55475 0.257931 0
M  V30 4556 C 413.34 -2.18506 -0.651094 0
M  V30 4557 C 414.324 -1.14431 -1.13112 0
M  V30 4558 O 415.516 -1.40305 -1.07905 0
M  V30 4559 C 412.645 -2.89653 -1.84272 0
M  V30 4560 C 411.731 -4.00996 -1.38068 0
M  V30 4561 N 412.122 -5.01816 -0.633609 0
M  V30 4562 C 410.42 -4.13753 -1.66506 0
M  V30 4563 C 411.121 -5.80371 -0.392922 0
M  V30 4564 N 410.097 -5.3505 -0.960359 0
M  V30 4565 H 413.899 -2.93811 -0.0722883 0
M  V30 4566 H 411.413 -1.62286 0.0607256 0
M  V30 4567 H 413.41 -3.33245 -2.50506 0
M  V30 4568 H 412.07 -2.15854 -2.42564 0
M  V30 4569 H 413.081 -5.17128 -0.282626 0
M  V30 4570 H 409.758 -3.51133 -2.25858 0
M  V30 4571 H 411.148 -6.7159 0.204235 0
M  V30 4572 N 413.868 0.0150385 -1.57593 0
M  V30 4573 C 415.093 0.718067 -1.94573 0
M  V30 4574 C 415.518 1.6734 -0.859005 0
M  V30 4575 O 414.876 1.80362 0.184147 0
M  V30 4576 C 414.924 1.43918 -3.30636 0
M  V30 4577 O 414.028 2.55299 -3.23876 0
M  V30 4578 H 413.369 0.192125 -0.635597 0
M  V30 4579 H 415.899 -0.0336708 -2.04572 0
M  V30 4580 H 415.909 1.80598 -3.65853 0
M  V30 4581 H 414.584 0.738619 -4.09289 0
M  V30 4582 H 413.161 2.21058 -3.00312 0
M  V30 4583 N 415.346 1.54954 0.287554 0
M  V30 4584 C 416.592 1.75132 1.02257 0
M  V30 4585 C 416.925 0.542858 1.86458 0
M  V30 4586 O 416.2 -0.459856 1.88986 0
M  V30 4587 C 416.483 3.04812 1.91733 0
M  V30 4588 C 416.336 4.35985 1.10622 0
M  V30 4589 C 417.655 3.30438 2.90687 0
M  V30 4590 H 414.774 0.637194 0.370341 0
M  V30 4591 H 417.416 1.87678 0.296111 0
M  V30 4592 H 415.566 2.94247 2.53675 0
M  V30 4593 H 417.238 4.58487 0.508636 0
M  V30 4594 H 415.481 4.31865 0.409271 0
M  V30 4595 H 416.152 5.23017 1.76513 0
M  V30 4596 H 418.628 3.40701 2.38877 0
M  V30 4597 H 417.504 4.22467 3.50447 0
M  V30 4598 H 417.765 2.49377 3.65053 0
M  V30 4599 N 416.824 -0.551391 1.4764 0
M  V30 4600 C 417.756 -1.67333 1.56628 0
M  V30 4601 C 418.769 -1.56398 0.452045 0
M  V30 4602 O 419.958 -1.6325 0.721926 0
M  V30 4603 C 417.058 -3.05841 1.45994 0
M  V30 4604 C 416.231 -3.42472 2.72088 0
M  V30 4605 C 415.29 -4.60168 2.55209 0
M  V30 4606 O 414.316 -4.64458 3.2904 0
M  V30 4607 N 415.518 -5.57024 1.63416 0
M  V30 4608 H 418.283 -1.60066 2.53375 0
M  V30 4609 H 415.844 -0.738169 1.44093 0
M  V30 4610 H 417.836 -3.8242 1.32428 0
M  V30 4611 H 416.406 -3.07302 0.573071 0
M  V30 4612 H 415.626 -2.55284 3.00373 0
M  V30 4613 H 416.914 -3.63723 3.55785 0
M  V30 4614 H 416.312 -5.56319 1.02594 0
M  V30 4615 H 414.869 -6.32906 1.558 0
M  V30 4616 N 418.302 -1.35869 -0.798587 0
M  V30 4617 C 419.551 -1.28921 -1.5512 0
M  V30 4618 C 419.864 0.13208 -1.95154 0
M  V30 4619 O 421.07 0.323879 -2.69561 0
M  V30 4620 C 419.526 -2.26141 -2.79979 0
M  V30 4621 C 419.134 -3.73658 -2.47151 0
M  V30 4622 C 420.878 -2.28152 -3.57976 0
M  V30 4623 C 418.785 -4.62679 -3.6835 0
M  V30 4624 H 417.715 -0.479031 -0.582276 0
M  V30 4625 H 420.366 -1.61179 -0.877125 0
M  V30 4626 H 418.748 -1.86865 -3.49138 0
M  V30 4627 H 419.922 -4.21616 -1.85947 0
M  V30 4628 H 418.237 -3.74333 -1.82383 0
M  V30 4629 H 420.834 -2.91875 -4.4801 0
M  V30 4630 H 421.177 -1.28748 -3.95891 0
M  V30 4631 H 421.71 -2.65998 -2.95787 0
M  V30 4632 H 418.449 -5.63111 -3.35538 0
M  V30 4633 H 417.969 -4.19442 -4.28752 0
M  V30 4634 H 419.648 -4.78498 -4.35487 0
M  V30 4635 N 419.78 1.02168 -1.19998 0
M  V30 4636 C 421.005 1.79833 -1.03319 0
M  V30 4637 C 421.43 1.83504 0.413281 0
M  V30 4638 O 420.788 1.26635 1.29743 0
M  V30 4639 C 420.836 3.22396 -1.61533 0
M  V30 4640 O 419.94 4.03555 -0.849519 0
M  V30 4641 H 419.281 0.554872 -0.364709 0
M  V30 4642 H 421.811 1.28542 -1.59179 0
M  V30 4643 H 421.821 3.73124 -1.65054 0
M  V30 4644 H 420.496 3.19039 -2.66809 0
M  V30 4645 H 419.073 3.62169 -0.888129 0
M  V30 4646 N 421.258 1.00505 1.21394 0
M  V30 4647 C 422.674 0.717873 1.42544 0
M  V30 4648 C 422.874 -0.706936 1.88692 0
M  V30 4649 O 421.93 -1.47627 2.04847 0
M  V30 4650 C 423.243 1.73377 2.45684 0
M  V30 4651 C 424.791 1.75059 2.59467 0
M  V30 4652 C 425.266 2.75545 3.6584 0
M  V30 4653 N 426.757 2.74213 3.73311 0
M  V30 4654 C 427.492 3.48626 4.55245 0
M  V30 4655 N 426.988 4.32678 5.41075 0
M  V30 4656 N 428.781 3.37276 4.49668 0
M  V30 4657 H 420.932 1.92506 0.897503 0
M  V30 4658 H 423.195 0.830919 0.456375 0
M  V30 4659 H 422.901 2.75395 2.18748 0
M  V30 4660 H 422.775 1.53647 3.44489 0
M  V30 4661 H 425.162 0.737337 2.8574 0
M  V30 4662 H 425.243 1.98861 1.60897 0
M  V30 4663 H 424.887 3.77028 3.40313 0
M  V30 4664 H 424.817 2.49009 4.64007 0
M  V30 4665 H 427.308 2.13234 3.11993 0
M  V30 4666 H 427.621 4.86253 6.00648 0
M  V30 4667 H 425.966 4.3676 5.40616 0
M  V30 4668 H 429.157 2.71043 3.81646 0
M  V30 4669 H 429.33 3.95524 5.13288 0
M  V30 4670 N 422.737 -1.36956 0.779787 0
M  V30 4671 C 423.985 -1.99097 0.347079 0
M  V30 4672 C 424.306 -1.62206 -1.08232 0
M  V30 4673 O 423.576 -0.891373 -1.74446 0
M  V30 4674 H 422.156 -0.736409 0.125342 0
M  V30 4675 H 424.818 -1.67308 0.999696 0
M  V30 4676 H 423.914 -3.09107 0.431162 0
M  V30 4677 N 424.215 -0.530993 -1.48385 0
M  V30 4678 C 425.44 0.000729535 -2.074 0
M  V30 4679 C 425.865 1.27298 -1.3848 0
M  V30 4680 O 425.223 1.75599 -0.451081 0
M  V30 4681 C 425.271 0.206697 -3.60007 0
M  V30 4682 O 424.375 1.27514 -3.92191 0
M  V30 4683 H 423.716 -0.039583 -0.662819 0
M  V30 4684 H 426.246 -0.739194 -1.9078 0
M  V30 4685 H 426.256 0.42904 -4.05738 0
M  V30 4686 H 424.931 -0.722675 -4.09573 0
M  V30 4687 H 423.508 1.03537 -3.58238 0
M  V30 4688 N 425.693 1.55336 -0.266172 0
M  V30 4689 C 426.918 2.04258 0.359661 0
M  V30 4690 C 427.343 1.14359 1.49344 0
M  V30 4691 O 426.701 0.140369 1.80756 0
M  V30 4692 C 426.749 3.50997 0.826635 0
M  V30 4693 O 425.853 3.64204 1.93466 0
M  V30 4694 H 425.194 0.659668 0.075727 0
M  V30 4695 H 427.724 2.00694 -0.39786 0
M  V30 4696 H 427.734 3.9219 1.12477 0
M  V30 4697 H 426.409 4.159 -0.00293032 0
M  V30 4698 H 424.986 3.34913 1.63974 0
M  V30 4699 N 427.171 -0.0066808 1.57599 0
M  V30 4700 C 428.121 -1.0086 2.04478 0
M  V30 4701 C 429.105 -1.30714 0.938231 0
M  V30 4702 O 430.297 -1.29924 1.20203 0
M  V30 4703 C 427.426 -2.30273 2.54615 0
M  V30 4704 C 426.512 -2.03413 3.72134 0
M  V30 4705 N 426.903 -1.46688 4.84062 0
M  V30 4706 C 425.201 -2.33589 3.79937 0
M  V30 4707 C 425.902 -1.36146 5.65543 0
M  V30 4708 N 424.878 -1.84477 5.1134 0
M  V30 4709 H 428.68 -0.564402 2.8843 0
M  V30 4710 H 426.194 -0.212521 1.61003 0
M  V30 4711 H 428.191 -3.02885 2.86472 0
M  V30 4712 H 426.851 -2.75352 1.72079 0
M  V30 4713 H 427.862 -1.14658 5.05049 0
M  V30 4714 H 424.539 -2.81589 3.08243 0
M  V30 4715 H 425.929 -0.925873 6.6549 0
M  V30 4716 N 428.649 -1.55105 -0.279332 0
M  V30 4717 C 429.581 -1.83952 -1.36727 0
M  V30 4718 C 430.594 -0.723642 -1.45833 0
M  V30 4719 O 431.783 -1.00141 -1.47763 0
M  V30 4720 C 428.883 -1.98183 -2.74912 0
M  V30 4721 C 428.056 -3.28787 -2.88475 0
M  V30 4722 C 427.115 -3.33162 -4.07295 0
M  V30 4723 O 426.141 -4.06576 -3.98353 0
M  V30 4724 N 427.343 -2.60109 -5.18964 0
M  V30 4725 H 430.108 -2.77853 -1.12328 0
M  V30 4726 H 427.669 -1.54945 -0.469442 0
M  V30 4727 H 429.661 -1.98488 -3.52682 0
M  V30 4728 H 428.231 -1.11177 -2.92162 0
M  V30 4729 H 427.451 -3.41075 -1.97641 0
M  V30 4730 H 428.739 -4.14933 -2.94463 0
M  V30 4731 H 428.137 -2.00136 -5.29115 0
M  V30 4732 H 426.694 -2.66143 -5.94988 0
M  V30 4733 N 430.127 0.543554 -1.4793 0
M  V30 4734 C 431.373 1.30201 -1.55485 0
M  V30 4735 C 431.706 1.92925 -0.222201 0
M  V30 4736 O 430.981 1.78586 0.77053 0
M  V30 4737 C 431.264 2.40174 -2.68307 0
M  V30 4738 C 431.117 1.8223 -4.11233 0
M  V30 4739 C 432.436 3.42024 -2.76961 0
M  V30 4740 H 429.555 0.472036 -0.565996 0
M  V30 4741 H 432.197 0.606914 -1.80046 0
M  V30 4742 H 430.347 2.99463 -2.47495 0
M  V30 4743 H 432.019 1.27096 -4.43446 0
M  V30 4744 H 430.262 1.12832 -4.18869 0
M  V30 4745 H 430.933 2.61793 -4.85972 0
M  V30 4746 H 433.409 2.92672 -2.95774 0
M  V30 4747 H 432.285 4.16383 -3.57654 0
M  V30 4748 H 432.546 4.0173 -1.84568 0
M  V30 4749 N 431.605 1.3629 0.791371 0
M  V30 4750 C 432.515 1.32606 1.93527 0
M  V30 4751 C 433.531 0.228541 1.72493 0
M  V30 4752 O 434.707 0.460571 1.96063 0
M  V30 4753 C 431.772 1.11271 3.28359 0
M  V30 4754 C 430.833 2.3048 3.62185 0
M  V30 4755 C 430.066 2.10154 4.90583 0
M  V30 4756 O 430.289 1.07572 5.60165 0
M  V30 4757 O 429.223 2.97884 5.23019 0
M  V30 4758 H 433.049 2.28909 1.99585 0
M  V30 4759 H 430.634 1.16818 0.931344 0
M  V30 4760 H 432.516 1.01283 4.09047 0
M  V30 4761 H 431.191 0.180292 3.23198 0
M  V30 4762 H 430.098 2.46036 2.81811 0
M  V30 4763 H 431.431 3.22221 3.72068 0
M  V30 4764 N 433.083 -1.0153 1.20538 0
M  V30 4765 C 434.313 -1.78487 1.04048 0
M  V30 4766 C 434.721 -1.84631 -0.413292 0
M  V30 4767 O 434.064 -1.29919 -1.29872 0
M  V30 4768 C 434.126 -3.24367 1.55003 0
M  V30 4769 C 433.79 -3.41827 3.0332 0
M  V30 4770 C 434.787 -3.30941 4.00966 0
M  V30 4771 C 432.472 -3.67602 3.42307 0
M  V30 4772 C 434.466 -3.45577 5.35589 0
M  V30 4773 C 432.153 -3.81881 4.77085 0
M  V30 4774 C 433.151 -3.70874 5.73534 0
M  V30 4775 O 432.839 -3.84714 7.05868 0
M  V30 4776 H 432.571 -0.568108 0.366373 0
M  V30 4777 H 435.125 -1.28677 1.60098 0
M  V30 4778 H 433.355 -3.75266 0.933397 0
M  V30 4779 H 435.044 -3.82963 1.34514 0
M  V30 4780 H 435.81 -3.10964 3.72191 0
M  V30 4781 H 431.689 -3.75256 2.67776 0
M  V30 4782 H 435.233 -3.36902 6.10854 0
M  V30 4783 H 431.13 -4.01359 5.0555 0
M  V30 4784 H 431.898 -4.01724 7.13134 0
M  V30 4785 N 434.561 -1.01147 -1.20859 0
M  V30 4786 C 435.471 -0.58686 -2.27141 0
M  V30 4787 C 436.487 0.373198 -1.69951 0
M  V30 4788 O 437.663 0.235423 -2.00019 0
M  V30 4789 C 434.728 0.0733602 -3.46622 0
M  V30 4790 C 433.789 -0.931995 -4.19061 0
M  V30 4791 C 433.022 -0.303186 -5.32838 0
M  V30 4792 O 433.245 0.898395 -5.63281 0
M  V30 4793 O 432.179 -1.01735 -5.9324 0
M  V30 4794 H 436.005 -1.47155 -2.65667 0
M  V30 4795 H 433.59 -0.780689 -1.2738 0
M  V30 4796 H 435.472 0.442333 -4.19072 0
M  V30 4797 H 434.147 0.932329 -3.09983 0
M  V30 4798 H 433.054 -1.35224 -3.48805 0
M  V30 4799 H 434.387 -1.76076 -4.59628 0
M  V30 4800 N 436.039 1.36541 -0.78704 0
M  V30 4801 C 437.288 1.98552 -0.35494 0
M  V30 4802 C 437.601 1.63171 1.07864 0
M  V30 4803 O 438.807 2.18399 1.61289 0
M  V30 4804 C 437.263 3.55136 -0.583671 0
M  V30 4805 C 436.871 3.99444 -2.02851 0
M  V30 4806 C 438.615 4.2395 -0.215957 0
M  V30 4807 C 436.522 5.48796 -2.20403 0
M  V30 4808 H 435.452 0.742888 -0.128972 0
M  V30 4809 H 438.103 1.5587 -0.968337 0
M  V30 4810 H 436.485 3.95875 0.0994046 0
M  V30 4811 H 437.659 3.6991 -2.74779 0
M  V30 4812 H 435.974 3.43459 -2.35425 0
M  V30 4813 H 438.571 5.33709 -0.325405 0
M  V30 4814 H 438.914 4.07827 0.835646 0
M  V30 4815 H 439.447 3.88565 -0.852175 0
M  V30 4816 H 436.186 5.69864 -3.23937 0
M  V30 4817 H 435.706 5.79964 -1.52977 0
M  V30 4818 H 437.385 6.14986 -2.01002 0
M  V30 4819 N 437.518 0.538854 1.48102 0
M  V30 4820 C 438.448 -0.207654 2.32575 0
M  V30 4821 C 439.429 -0.926559 1.4265 0
M  V30 4822 O 440.614 -0.91061 1.71527 0
M  V30 4823 C 437.744 -1.24957 3.24042 0
M  V30 4824 C 436.698 -0.648263 4.23062 0
M  V30 4825 C 436.024 -1.79348 5.03725 0
M  V30 4826 C 437.324 0.385897 5.20872 0
M  V30 4827 H 439.018 0.497534 2.95237 0
M  V30 4828 H 436.564 0.240715 1.41974 0
M  V30 4829 H 438.517 -1.77983 3.81969 0
M  V30 4830 H 437.241 -1.98446 2.59397 0
M  V30 4831 H 435.9 -0.139452 3.66335 0
M  V30 4832 H 435.548 -2.51696 4.35498 0
M  V30 4833 H 435.248 -1.39702 5.70751 0
M  V30 4834 H 436.772 -2.32735 5.64506 0
M  V30 4835 H 438.186 -0.057607 5.73271 0
M  V30 4836 H 436.583 0.700227 5.96001 0
M  V30 4837 H 437.653 1.28848 4.67468 0
M  V30 4838 N 438.996 -1.55193 0.274407 0
M  V30 4839 C 440.243 -1.99581 -0.342579 0
M  V30 4840 C 440.571 -1.1628 -1.55914 0
M  V30 4841 O 439.826 -0.22029 -1.94456 0
M  V30 4842 C 440.125 -3.49019 -0.769458 0
M  V30 4843 C 439.791 -4.49598 0.342389 0
M  V30 4844 C 438.453 -4.76821 0.647686 0
M  V30 4845 C 440.805 -5.0964 1.09163 0
M  V30 4846 C 438.133 -5.61354 1.70581 0
M  V30 4847 C 440.485 -5.95323 2.13948 0
M  V30 4848 C 439.149 -6.20867 2.45113 0
M  V30 4849 H 438.419 -0.730319 -0.125358 0
M  V30 4850 H 441.066 -1.87529 0.387971 0
M  V30 4851 H 439.371 -3.58544 -1.57967 0
M  V30 4852 H 441.068 -3.8077 -1.25757 0
M  V30 4853 H 437.658 -4.28496 0.094318 0
M  V30 4854 H 441.842 -4.88632 0.869024 0
M  V30 4855 H 437.098 -5.79392 1.9523 0
M  V30 4856 H 441.272 -6.40881 2.72478 0
M  V30 4857 H 438.899 -6.86162 3.27239 0
M  V30 4858 N 440.474 -0.00167713 -1.576 0
M  V30 4859 C 441.885 0.54091 -1.78693 0
M  V30 4860 C 442.236 1.7386 -0.909247 0
M  V30 4861 O 441.361 2.16109 -0.112176 0
M  V30 4862 C 441.956 0.98806 -3.24072 0
M  V30 4863 C 440.515 1.47594 -3.46256 0
M  V30 4864 C 439.662 0.42792 -2.73978 0
M  V30 4865 H 442.613 -0.22784 -1.57056 0
M  V30 4866 H 442.634 1.85398 -3.32277 0
M  V30 4867 H 442.146 0.116164 -3.87926 0
M  V30 4868 H 440.247 2.36868 -2.87618 0
M  V30 4869 H 440.36 1.50225 -4.54939 0
M  V30 4870 H 438.724 0.889934 -2.38647 0
M  V30 4871 H 439.507 -0.435038 -3.40532 0
M  V30 4872 N 441.952 1.55251 0.271103 0
M  V30 4873 C 443.2 1.75599 1.00047 0
M  V30 4874 C 443.521 0.561188 1.8675 0
M  V30 4875 O 442.791 -0.423846 1.9126 0
M  V30 4876 H 441.371 0.647562 0.372387 0
M  V30 4877 H 444.033 1.92656 0.294876 0
M  V30 4878 H 443.129 2.65766 1.6363 0
M  V30 4879 N 443.43 -0.535701 1.48216 0
M  V30 4880 C 444.67 -1.30238 1.57536 0
M  V30 4881 C 445.034 -1.90479 0.241229 0
M  V30 4882 O 446.235 -2.67983 0.20938 0
M  V30 4883 C 444.506 -2.3669 2.67792 0
M  V30 4884 S 446.065 -3.23159 2.9684 0
M  V30 4885 H 442.883 -0.443093 0.556048 0
M  V30 4886 H 445.485 -0.610937 1.85709 0
M  V30 4887 H 444.189 -1.90905 3.63296 0
M  V30 4888 H 443.72 -3.10548 2.41502 0
M  V30 4889 H 445.735 -4.36647 2.35699 0
M  V30 4890 N 444.908 -1.36708 -0.784132 0
M  V30 4891 C 446.154 -1.31426 -1.54451 0
M  V30 4892 C 446.487 0.10476 -1.93917 0
M  V30 4893 O 445.762 1.05934 -1.6312 0
M  V30 4894 C 446.045 -2.24189 -2.818 0
M  V30 4895 C 445.898 -3.74813 -2.48667 0
M  V30 4896 C 447.217 -2.15626 -3.83658 0
M  V30 4897 H 444.336 -0.478739 -0.560337 0
M  V30 4898 H 446.978 -1.67305 -0.900498 0
M  V30 4899 H 445.128 -1.93722 -3.36755 0
M  V30 4900 H 446.8 -4.15823 -1.99722 0
M  V30 4901 H 445.043 -3.93989 -1.81535 0
M  V30 4902 H 445.714 -4.35138 -3.39646 0
M  V30 4903 H 448.19 -2.42456 -3.38163 0
M  V30 4904 H 447.066 -2.82694 -4.70506 0
M  V30 4905 H 447.327 -1.14522 -4.27009 0
M  V30 4906 N 446.386 1.0089 -1.21074 0
M  V30 4907 C 447.316 2.1145 -0.990523 0
M  V30 4908 C 448.297 1.69897 0.0831699 0
M  V30 4909 O 449.482 1.94052 -0.0758853 0
M  V30 4910 C 446.612 3.42914 -0.550177 0
M  V30 4911 C 445.566 3.98244 -1.56799 0
M  V30 4912 C 444.892 5.25568 -0.984013 0
M  V30 4913 C 446.192 4.30752 -2.95381 0
M  V30 4914 H 447.886 2.3013 -1.91521 0
M  V30 4915 H 445.432 1.10592 -0.92225 0
M  V30 4916 H 447.385 4.19653 -0.383305 0
M  V30 4917 H 446.109 3.24014 0.41015 0
M  V30 4918 H 444.768 3.23621 -1.72236 0
M  V30 4919 H 444.416 5.02998 -0.0155216 0
M  V30 4920 H 444.116 5.63551 -1.66384 0
M  V30 4921 H 445.64 6.04955 -0.828378 0
M  V30 4922 H 447.054 4.98349 -2.8341 0
M  V30 4923 H 445.451 4.79869 -3.60341 0
M  V30 4924 H 446.521 3.39192 -3.46521 0
M  V30 4925 N 447.864 1.01787 1.20321 0
M  V30 4926 C 449.28 0.732951 1.41774 0
M  V30 4927 C 449.48 -0.686883 1.89431 0
M  V30 4928 O 448.536 -1.45446 2.06402 0
M  V30 4929 C 449.849 1.75973 2.43832 0
M  V30 4930 C 451.397 1.77802 2.57596 0
M  V30 4931 C 451.872 2.7941 3.62897 0
M  V30 4932 N 453.363 2.78157 3.70382 0
M  V30 4933 C 454.098 3.53434 4.51521 0
M  V30 4934 N 453.594 4.38392 5.36455 0
M  V30 4935 N 455.387 3.42026 4.46066 0
M  V30 4936 H 447.538 1.93447 0.877035 0
M  V30 4937 H 449.801 0.835712 0.447536 0
M  V30 4938 H 449.507 2.77699 2.15815 0
M  V30 4939 H 449.381 1.57292 3.4284 0
M  V30 4940 H 451.768 0.767602 2.84942 0
M  V30 4941 H 451.849 2.00557 1.58779 0
M  V30 4942 H 451.493 3.80616 3.36295 0
M  V30 4943 H 451.423 2.53916 4.61339 0
M  V30 4944 H 453.914 2.16531 3.09714 0
M  V30 4945 H 454.227 4.92596 5.95457 0
M  V30 4946 H 452.572 4.4247 5.35953 0
M  V30 4947 H 455.763 2.75075 3.78749 0
M  V30 4948 H 455.936 4.00946 5.09064 0
M  V30 4949 N 449.342 -1.36122 0.79427 0
M  V30 4950 C 450.588 -1.99846 0.378542 0
M  V30 4951 C 450.943 -1.61898 -1.03955 0
M  V30 4952 O 450.236 -0.866013 -1.70912 0
M  V30 4953 C 450.43 -3.5409 0.48527 0
M  V30 4954 C 450.259 -4.0702 1.91219 0
M  V30 4955 C 449.029 -4.36944 2.53787 0
M  V30 4956 C 451.227 -4.26435 2.87502 0
M  V30 4957 N 449.209 -4.75727 3.88017 0
M  V30 4958 C 450.58 -4.68077 4.06576 0
M  V30 4959 C 452.635 -4.08616 2.84495 0
M  V30 4960 C 451.338 -4.93765 5.23057 0
M  V30 4961 C 453.364 -4.35453 4.00169 0
M  V30 4962 C 452.726 -4.77355 5.17988 0
M  V30 4963 H 448.825 -0.759549 0.186034 0
M  V30 4964 H 451.409 -1.65043 1.0329 0
M  V30 4965 H 449.58 -3.88151 -0.139023 0
M  V30 4966 H 451.312 -4.04675 0.0453192 0
M  V30 4967 H 448.067 -4.26822 2.05231 0
M  V30 4968 H 448.491 -4.99396 4.57092 0
M  V30 4969 H 453.133 -3.75373 1.94564 0
M  V30 4970 H 450.851 -5.25887 6.1357 0
M  V30 4971 H 454.437 -4.2323 3.99208 0
M  V30 4972 H 453.317 -4.97718 6.06008 0
M  V30 4973 N 450.82 -0.546701 -1.47814 0
M  V30 4974 C 451.752 0.244196 -2.27895 0
M  V30 4975 C 452.765 0.88911 -1.36377 0
M  V30 4976 O 453.954 0.764733 -1.61289 0
M  V30 4977 C 451.054 1.36252 -3.10304 0
M  V30 4978 C 450.227 0.816382 -4.29714 0
M  V30 4979 C 449.286 1.81789 -4.93801 0
M  V30 4980 O 448.312 1.36818 -5.52512 0
M  V30 4981 N 449.514 3.15085 -4.87547 0
M  V30 4982 H 452.279 -0.442694 -2.96412 0
M  V30 4983 H 449.84 -0.382095 -1.57327 0
M  V30 4984 H 451.832 2.03102 -3.50045 0
M  V30 4985 H 450.402 1.95281 -2.44099 0
M  V30 4986 H 449.622 -0.0285981 -3.9419 0
M  V30 4987 H 450.91 0.430668 -5.06974 0
M  V30 4988 H 450.308 3.54275 -4.41028 0
M  V30 4989 H 448.865 3.77522 -5.31339 0
M  V30 4990 N 452.299 1.55045 -0.282633 0
M  V30 4991 C 453.546 1.9976 0.33199 0
M  V30 4992 C 453.874 1.17105 1.55295 0
M  V30 4993 O 453.129 0.230599 1.94337 0
M  V30 4994 C 453.428 3.49422 0.750938 0
M  V30 4995 C 453.094 4.4941 -0.366228 0
M  V30 4996 C 451.756 4.76471 -0.672964 0
M  V30 4997 C 454.108 5.09054 -1.11864 0
M  V30 4998 C 451.436 5.60442 -1.73556 0
M  V30 4999 C 453.788 5.9418 -2.17102 0
M  V30 5000 C 452.452 6.19558 -2.48402 0
M  V30 5001 H 451.722 0.730974 0.121484 0
M  V30 5002 H 454.369 1.8732 -0.39791 0
M  V30 5003 H 452.674 3.59377 1.56063 0
M  V30 5004 H 454.371 3.81432 1.23736 0
M  V30 5005 H 450.961 4.2844 -0.117041 0
M  V30 5006 H 455.145 4.88165 -0.894925 0
M  V30 5007 H 450.401 5.78349 -1.983 0
M  V30 5008 H 454.575 6.39427 -2.75873 0
M  V30 5009 H 452.202 6.84417 -3.30874 0
M  V30 5010 N 453.777 0.010035 1.57597 0
M  V30 5011 C 454.71 -1.01234 2.04516 0
M  V30 5012 C 455.688 -1.32886 0.937024 0
M  V30 5013 O 456.872 -1.44879 1.20592 0
M  V30 5014 C 453.999 -2.33738 2.45121 0
M  V30 5015 C 453.045 -2.17679 3.66767 0
M  V30 5016 S 453.878 -1.49343 5.14254 0
M  V30 5017 C 455.034 -2.83256 5.58137 0
M  V30 5018 H 455.267 -0.612866 2.90914 0
M  V30 5019 H 452.8 -0.201124 1.53084 0
M  V30 5020 H 454.758 -3.09922 2.69182 0
M  V30 5021 H 453.419 -2.70823 1.59103 0
M  V30 5022 H 452.612 -3.1559 3.92962 0
M  V30 5023 H 452.214 -1.4964 3.42759 0
M  V30 5024 H 454.506 -3.79538 5.6121 0
M  V30 5025 H 455.449 -2.61749 6.57946 0
M  V30 5026 H 455.857 -2.87627 4.85727 0
M  V30 5027 N 455.255 -1.55392 -0.262866 0
M  V30 5028 C 456.48 -1.80847 -1.01533 0
M  V30 5029 C 456.905 -0.584946 -1.78774 0
M  V30 5030 O 456.263 0.465701 -1.75217 0
M  V30 5031 C 456.311 -3.03866 -1.94159 0
M  V30 5032 O 455.415 -2.79662 -3.03089 0
M  V30 5033 H 454.756 -0.597441 -0.289759 0
M  V30 5034 H 457.286 -2.02553 -0.288698 0
M  V30 5035 H 457.296 -3.32872 -2.35924 0
M  V30 5036 H 455.971 -3.92564 -1.37354 0
M  V30 5037 H 454.548 -2.61781 -2.65566 0
M  V30 5038 N 456.733 0.527833 -1.48498 0
M  V30 5039 C 458.01 1.28905 -1.47115 0
M  V30 5040 C 458.39 2.10297 -0.184007 0
M  V30 5041 O 457.738 2.12728 0.834218 0
M  V30 5042 C 457.948 2.16866 -2.73441 0
M  V30 5043 C 459.296 2.76936 -3.21857 0
M  V30 5044 O 460.32 2.27152 -2.74373 0
M  V30 5045 O 459.179 3.67496 -4.04486 0
M  V30 5046 H 456.273 0.581918 -0.587623 0
M  V30 5047 H 458.819 0.544311 -1.60734 0
M  V30 5048 H 457.591 1.56521 -3.58632 0
M  V30 5049 H 457.214 2.98583 -2.62553 0
M  V30 5050 N 458.211 1.37122 0.776871 0
M  V30 5051 C 459.459 1.31787 1.53221 0
M  V30 5052 C 459.78 -0.0987589 1.9475 0
M  V30 5053 O 459.05 -1.0417 1.65908 0
M  V30 5054 H 457.63 0.484839 0.568278 0
M  V30 5055 H 460.292 1.71556 0.924917 0
M  V30 5056 H 459.388 1.95355 2.43398 0
M  V30 5057 N 459.689 -1.00246 1.21608 0
M  V30 5058 C 460.652 -2.07233 0.979133 0
M  V30 5059 C 461.652 -1.6072 -0.0508219 0
M  V30 5060 O 462.842 -1.73196 0.186712 0
M  V30 5061 C 459.974 -3.37546 0.477016 0
M  V30 5062 H 461.167 -2.29687 1.92831 0
M  V30 5063 H 458.72 -1.17261 1.03342 0
M  V30 5064 H 459.455 -3.20773 -0.476966 0
M  V30 5065 H 459.24 -3.72638 1.21997 0
M  V30 5066 H 460.73 -4.16285 0.331181 0
M  V30 5067 N 461.167 -1.02423 -1.1978 0
M  V30 5068 C 462.444 -0.632802 -1.85081 0
M  V30 5069 C 462.824 0.888745 -1.9148 0
M  V30 5070 O 462.172 1.78357 -1.42832 0
M  V30 5071 C 462.382 -1.28947 -3.24305 0
M  V30 5072 C 463.73 -1.40976 -4.00513 0
M  V30 5073 O 464.754 -1.24628 -3.33686 0
M  V30 5074 O 463.613 -1.67467 -5.20209 0
M  V30 5075 H 460.707 -0.219348 -0.79738 0
M  V30 5076 H 463.253 -1.12209 -1.27307 0
M  V30 5077 H 462.025 -2.3288 -3.14456 0
M  V30 5078 H 461.648 -0.787748 -3.89718 0
M  V30 5079 N 462.645 1.35699 -0.801477 0
M  V30 5080 C 463.891 1.99208 -0.380022 0
M  V30 5081 C 464.224 1.63445 1.04878 0
M  V30 5082 O 463.499 0.895223 1.72673 0
M  V30 5083 C 463.782 3.55755 -0.557708 0
M  V30 5084 C 463.635 4.01332 -2.03107 0
M  V30 5085 C 464.954 4.40096 0.0197968 0
M  V30 5086 H 462.073 0.723667 -0.139552 0
M  V30 5087 H 464.715 1.60928 -1.01006 0
M  V30 5088 H 462.865 3.88494 -0.0213741 0
M  V30 5089 H 464.537 3.79026 -2.62939 0
M  V30 5090 H 462.78 3.52429 -2.52936 0
M  V30 5091 H 463.451 5.10234 -2.1063 0
M  V30 5092 H 465.927 4.13786 -0.438179 0
M  V30 5093 H 464.803 5.48735 -0.134477 0
M  V30 5094 H 465.064 4.2786 1.11303 0
M  V30 5095 N 464.123 0.554532 1.47522 0
M  V30 5096 C 465.371 0.0294208 2.02079 0
M  V30 5097 C 465.692 -1.32411 1.43151 0
M  V30 5098 O 464.962 -1.863 0.605728 0
M  V30 5099 H 463.542 0.00788672 0.746958 0
M  V30 5100 H 466.204 0.723934 1.80956 0
M  V30 5101 H 465.3 -0.0606745 3.12041 0
M  V30 5102 N 465.601 -1.54893 0.290851 0
M  V30 5103 C 466.848 -1.99933 -0.321391 0
M  V30 5104 C 467.176 -1.17927 -1.54672 0
M  V30 5105 O 466.431 -0.240902 -1.94212 0
M  V30 5106 C 466.73 -3.49815 -0.732397 0
M  V30 5107 C 466.396 -4.4921 0.390056 0
M  V30 5108 C 465.058 -4.76107 0.698223 0
M  V30 5109 C 467.41 -5.08453 1.14562 0
M  V30 5110 C 464.738 -5.59514 1.76526 0
M  V30 5111 C 467.09 -5.9302 2.2025 0
M  V30 5112 C 465.754 -6.18232 2.51684 0
M  V30 5113 H 465.024 -0.731608 -0.117605 0
M  V30 5114 H 467.671 -1.87107 0.407839 0
M  V30 5115 H 465.976 -3.60199 -1.54155 0
M  V30 5116 H 467.673 -3.82083 -1.21712 0
M  V30 5117 H 464.263 -4.28372 0.13976 0
M  V30 5118 H 468.447 -4.87683 0.920801 0
M  V30 5119 H 463.703 -5.77289 2.01364 0
M  V30 5120 H 467.877 -6.37955 2.7926 0
M  V30 5121 H 465.504 -6.82653 3.34499 0
M  V30 5122 N 467.08 -0.0183926 -1.57589 0
M  V30 5123 C 468.328 0.661253 -1.90976 0
M  V30 5124 C 468.649 1.73281 -0.894353 0
M  V30 5125 O 467.919 1.9579 0.0656788 0
M  V30 5126 H 466.499 0.247233 -0.704901 0
M  V30 5127 H 469.161 -0.0636639 -1.94796 0
M  V30 5128 H 468.257 1.12083 -2.9128 0
M  V30 5129 N 468.558 1.5553 0.254621 0
M  V30 5130 C 469.807 1.76202 0.981612 0
M  V30 5131 C 470.12 0.580883 1.86776 0
M  V30 5132 O 471.326 0.670448 2.63092 0
M  V30 5133 C 469.782 3.11921 1.79537 0
M  V30 5134 C 469.39 4.37659 0.956991 0
M  V30 5135 C 471.134 3.41936 2.51555 0
M  V30 5136 C 469.041 5.64411 1.76619 0
M  V30 5137 H 467.971 0.656841 0.370237 0
M  V30 5138 H 470.622 1.81969 0.236556 0
M  V30 5139 H 469.004 3.00241 2.58208 0
M  V30 5140 H 470.178 4.60307 0.21315 0
M  V30 5141 H 468.493 4.14922 0.350497 0
M  V30 5142 H 471.09 4.33849 3.12536 0
M  V30 5143 H 471.433 2.62905 3.22779 0
M  V30 5144 H 471.966 3.54797 1.799 0
M  V30 5145 H 468.705 6.46241 1.09783 0
M  V30 5146 H 468.225 5.45877 2.48551 0
M  V30 5147 H 469.904 6.03386 2.33527 0
M  V30 5148 N 470.036 -0.519951 1.48776 0
M  V30 5149 C 471.283 -1.27522 1.57303 0
M  V30 5150 C 471.611 -1.92869 0.251328 0
M  V30 5151 O 470.866 -1.80372 -0.759243 0
M  V30 5152 C 471.165 -2.37864 2.6675 0
M  V30 5153 C 470.831 -1.90103 4.08867 0
M  V30 5154 C 469.493 -1.76795 4.47546 0
M  V30 5155 C 471.845 -1.54133 4.97888 0
M  V30 5156 C 469.173 -1.25868 5.73039 0
M  V30 5157 C 471.525 -1.04665 6.23881 0
M  V30 5158 C 470.189 -0.899823 6.61407 0
M  V30 5159 H 469.459 -0.466636 0.575614 0
M  V30 5160 H 472.106 -0.579109 1.82534 0
M  V30 5161 H 470.411 -3.13186 2.35418 0
M  V30 5162 H 472.108 -2.95969 2.70561 0
M  V30 5163 H 468.698 -2.01414 3.78326 0
M  V30 5164 H 472.882 -1.6327 4.68675 0
M  V30 5165 H 468.138 -1.13196 6.0083 0
M  V30 5166 H 472.312 -0.759074 6.92251 0
M  V30 5167 H 469.939 -0.503011 7.58534 0
M  V30 5168 N 471.514 -1.37532 -0.769588 0
M  V30 5169 C 472.444 -1.36172 -1.89682 0
M  V30 5170 C 473.425 -0.23001 -1.68538 0
M  V30 5171 O 474.61 -0.43069 -1.89364 0
M  V30 5172 C 471.74 -1.1701 -3.26995 0
M  V30 5173 C 470.694 -2.27216 -3.62708 0
M  V30 5174 C 470.02 -1.93174 -4.98586 0
M  V30 5175 C 471.32 -3.6941 -3.69234 0
M  V30 5176 H 473.014 -2.30499 -1.91078 0
M  V30 5177 H 470.56 -1.10953 -0.917902 0
M  V30 5178 H 472.513 -1.14688 -4.05493 0
M  V30 5179 H 471.237 -0.191395 -3.26039 0
M  V30 5180 H 469.896 -2.28697 -2.86519 0
M  V30 5181 H 469.544 -0.938281 -4.94171 0
M  V30 5182 H 469.244 -2.66973 -5.23449 0
M  V30 5183 H 470.768 -1.92443 -5.79481 0
M  V30 5184 H 472.182 -3.70047 -4.37879 0
M  V30 5185 H 470.579 -4.4228 -4.05597 0
M  V30 5186 H 471.649 -4.0288 -2.69844 0
M  V30 5187 N 472.992 0.995999 -1.22138 0
M  V30 5188 C 473.939 2.08551 -0.988687 0
M  V30 5189 C 474.909 1.65864 0.0885021 0
M  V30 5190 O 476.094 1.90704 -0.0604589 0
M  V30 5191 C 473.234 3.40374 -0.569191 0
M  V30 5192 C 472.347 3.96421 -1.71681 0
M  V30 5193 C 471.482 5.1639 -1.2456 0
M  V30 5194 C 470.521 5.64567 -2.36497 0
M  V30 5195 N 469.658 6.75777 -1.90445 0
M  V30 5196 H 474.498 2.2779 -1.92135 0
M  V30 5197 H 472.035 1.1168 -0.957388 0
M  V30 5198 H 473.993 4.16068 -0.307166 0
M  V30 5199 H 472.623 3.21145 0.326462 0
M  V30 5200 H 471.675 3.17628 -2.09324 0
M  V30 5201 H 472.987 4.2816 -2.55891 0
M  V30 5202 H 472.141 5.99362 -0.940774 0
M  V30 5203 H 470.88 4.86266 -0.373662 0
M  V30 5204 H 469.885 4.80185 -2.67772 0
M  V30 5205 H 471.11 5.96716 -3.24202 0
M  V30 5206 H 469.056 6.47443 -1.05609 0
M  V30 5207 H 468.973 7.06818 -2.68223 0
M  V30 5208 H 470.241 7.62262 -1.63022 0
M  V30 5209 N 474.47 1.03057 1.19235 0
M  V30 5210 C 475.698 0.747697 1.92917 0
M  V30 5211 C 476.113 -0.69372 1.75593 0
M  V30 5212 O 475.47 -1.47191 1.07894 0
M  V30 5213 C 475.521 1.09159 3.44625 0
M  V30 5214 O 475.242 2.47641 3.61394 0
M  V30 5215 C 476.743 0.831763 4.35427 0
M  V30 5216 H 473.963 0.273453 0.612751 0
M  V30 5217 H 476.507 1.37552 1.51327 0
M  V30 5218 H 474.662 0.508919 3.84043 0
M  V30 5219 H 475.076 2.60499 4.55237 0
M  V30 5220 H 476.55 1.12233 5.4047 0
M  V30 5221 H 477.027 -0.233769 4.38577 0
M  V30 5222 H 477.633 1.39725 4.01693 0
M  V30 5223 N 475.948 -1.35272 0.808662 0
M  V30 5224 C 476.895 -2.29764 0.218482 0
M  V30 5225 C 477.865 -1.52911 -0.648652 0
M  V30 5226 O 479.05 -1.81341 -0.593297 0
M  V30 5227 C 476.19 -3.39388 -0.625282 0
M  V30 5228 C 475.303 -4.31202 0.262516 0
M  V30 5229 C 474.438 -5.27919 -0.589451 0
M  V30 5230 C 473.477 -6.11371 0.298617 0
M  V30 5231 N 472.614 -7.0022 -0.513443 0
M  V30 5232 H 477.454 -2.79645 1.02968 0
M  V30 5233 H 474.991 -1.37629 0.519303 0
M  V30 5234 H 476.949 -4.01615 -1.12966 0
M  V30 5235 H 475.579 -2.90777 -1.40173 0
M  V30 5236 H 474.631 -3.69962 0.885013 0
M  V30 5237 H 475.943 -4.89748 0.945971 0
M  V30 5238 H 475.097 -5.95529 -1.15888 0
M  V30 5239 H 473.836 -4.69875 -1.30647 0
M  V30 5240 H 472.841 -5.42707 0.880301 0
M  V30 5241 H 474.066 -6.71494 1.01352 0
M  V30 5242 H 472.012 -6.44662 -1.21439 0
M  V30 5243 H 471.929 -7.55917 0.111922 0
M  V30 5244 H 473.197 -7.72175 -1.06608 0
M  V30 5245 N 477.426 -0.562348 -1.47226 0
M  V30 5246 C 478.359 0.230405 -2.27034 0
M  V30 5247 C 479.337 0.915609 -1.3437 0
M  V30 5248 O 480.521 0.933573 -1.63758 0
M  V30 5249 C 477.648 1.32874 -3.11548 0
M  V30 5250 C 476.694 0.751552 -4.19826 0
M  V30 5251 S 477.527 -0.405848 -5.3396 0
M  V30 5252 C 478.683 0.694186 -6.22038 0
M  V30 5253 H 478.916 -0.446811 -2.93923 0
M  V30 5254 H 476.449 -0.348781 -1.50409 0
M  V30 5255 H 478.407 1.95773 -3.60809 0
M  V30 5256 H 477.068 1.97782 -2.44011 0
M  V30 5257 H 476.261 1.57651 -4.78709 0
M  V30 5258 H 475.863 0.198645 -3.73472 0
M  V30 5259 H 478.155 1.58501 -6.58698 0
M  V30 5260 H 479.098 0.142592 -7.07956 0
M  V30 5261 H 479.506 0.989169 -5.55766 0
M  V30 5262 N 478.904 1.54736 -0.299062 0
M  V30 5263 C 480.152 1.99706 0.31017 0
M  V30 5264 C 480.473 1.18896 1.54559 0
M  V30 5265 O 479.743 0.284445 1.93824 0
M  V30 5266 H 478.323 0.737686 0.117596 0
M  V30 5267 H 480.985 1.9054 -0.409943 0
M  V30 5268 H 480.081 3.06596 0.58355 0
M  V30 5269 N 480.382 0.0267497 1.57577 0
M  V30 5270 C 481.292 -0.971633 2.13533 0
M  V30 5271 C 482.308 -1.35868 1.08701 0
M  V30 5272 O 483.484 -1.44058 1.40746 0
M  V30 5273 C 480.549 -2.23622 2.64941 0
M  V30 5274 C 479.61 -1.90982 3.8448 0
M  V30 5275 C 478.843 -3.11411 4.33427 0
M  V30 5276 O 479.066 -4.23992 3.81558 0
M  V30 5277 O 478 -2.93848 5.25297 0
M  V30 5278 H 481.826 -0.525853 2.99113 0
M  V30 5279 H 479.411 -0.193712 1.48139 0
M  V30 5280 H 481.293 -2.97864 2.98086 0
M  V30 5281 H 479.968 -2.67386 1.82446 0
M  V30 5282 H 478.875 -1.14132 3.56265 0
M  V30 5283 H 480.208 -1.52036 4.6813 0
M  V30 5284 N 481.861 -1.55662 -0.24637 0
M  V30 5285 C 483.277 -1.48098 -0.594907 0
M  V30 5286 C 483.477 -0.717044 -1.8831 0
M  V30 5287 O 482.533 -0.246618 -2.51293 0
M  V30 5288 C 483.846 -2.92507 -0.697146 0
M  V30 5289 C 485.394 -3.02881 -0.789436 0
M  V30 5290 C 485.869 -4.48598 -0.923232 0
M  V30 5291 N 487.36 -4.52538 -0.988088 0
M  V30 5292 C 488.095 -5.62536 -1.11089 0
M  V30 5293 N 487.591 -6.82342 -1.19919 0
M  V30 5294 N 489.384 -5.50334 -1.14408 0
M  V30 5295 H 481.535 -2.0377 0.599278 0
M  V30 5296 H 483.798 -0.925145 0.20691 0
M  V30 5297 H 483.504 -3.51242 0.179396 0
M  V30 5298 H 483.378 -3.43024 -1.5689 0
M  V30 5299 H 485.765 -2.44226 -1.65643 0
M  V30 5300 H 485.846 -2.55574 0.107482 0
M  V30 5301 H 485.49 -5.07864 -0.0607927 0
M  V30 5302 H 485.42 -4.93587 -1.8352 0
M  V30 5303 H 487.911 -3.66248 -0.931167 0
M  V30 5304 H 488.224 -7.61924 -1.29197 0
M  V30 5305 H 486.569 -6.85102 -1.16876 0
M  V30 5306 H 489.76 -4.5567 -1.07158 0
M  V30 5307 H 489.933 -6.36096 -1.23634 0
M  V30 5308 N 483.339 0.512053 -1.4905 0
M  V30 5309 C 484.271 1.63121 -1.6101 0
M  V30 5310 C 485.284 1.55145 -0.493352 0
M  V30 5311 O 486.473 1.61278 -0.764955 0
M  V30 5312 C 483.573 3.01863 -1.54052 0
M  V30 5313 C 482.746 3.35138 -2.81072 0
M  V30 5314 C 481.805 4.5324 -2.67319 0
M  V30 5315 O 480.831 4.55571 -3.41238 0
M  V30 5316 N 482.033 5.52495 -1.78127 0
M  V30 5317 H 484.798 1.53292 -2.5753 0
M  V30 5318 H 482.359 0.699706 -1.45999 0
M  V30 5319 H 484.351 3.78774 -1.42521 0
M  V30 5320 H 482.921 3.05675 -0.654345 0
M  V30 5321 H 482.141 2.4723 -3.07036 0
M  V30 5322 H 483.429 3.54162 -3.65304 0
M  V30 5323 H 482.827 5.53403 -1.17308 0
M  V30 5324 H 481.384 6.28553 -1.72525 0
M  V30 5325 N 484.817 1.37938 0.762283 0
M  V30 5326 C 486.233 1.18945 1.06415 0
M  V30 5327 C 486.433 0.0321163 2.01474 0
M  V30 5328 O 485.489 -0.624844 2.44647 0
M  V30 5329 C 486.802 2.51218 1.65258 0
M  V30 5330 C 488.35 2.57824 1.7747 0
M  V30 5331 C 488.825 3.90251 2.39725 0
M  V30 5332 N 490.316 3.91744 2.47166 0
M  V30 5333 C 491.051 4.90966 2.96209 0
M  V30 5334 N 490.547 6.00585 3.45354 0
M  V30 5335 N 492.34 4.78363 2.9517 0
M  V30 5336 H 484.491 2.11994 0.131301 0
M  V30 5337 H 486.754 0.940262 0.120879 0
M  V30 5338 H 486.46 3.36317 1.02878 0
M  V30 5339 H 486.334 2.68989 2.64433 0
M  V30 5340 H 488.721 1.73126 2.3898 0
M  V30 5341 H 488.802 2.43928 0.770241 0
M  V30 5342 H 488.446 4.75368 1.78852 0
M  V30 5343 H 488.376 4.01454 3.40796 0
M  V30 5344 H 490.867 3.12563 2.12397 0
M  V30 5345 H 491.18 6.72236 3.81207 0
M  V30 5346 H 489.525 6.04217 3.43434 0
M  V30 5347 H 492.716 3.91841 2.56082 0
M  V30 5348 H 492.889 5.55843 3.33081 0
M  V30 5349 N 486.295 -0.989507 1.22664 0
M  V30 5350 C 487.258 -2.06183 1.00106 0
M  V30 5351 C 488.258 -1.60765 -0.0337726 0
M  V30 5352 O 489.448 -1.72989 0.205072 0
M  V30 5353 C 486.58 -3.37021 0.51279 0
M  V30 5354 H 487.773 -2.27629 1.95256 0
M  V30 5355 H 485.326 -1.16158 1.0458 0
M  V30 5356 H 486.061 -3.21261 -0.442917 0
M  V30 5357 H 485.846 -3.71323 1.25942 0
M  V30 5358 H 487.336 -4.1591 0.375315 0
M  V30 5359 N 487.773 -1.03688 -1.18687 0
M  V30 5360 C 489.021 -0.736572 -1.88199 0
M  V30 5361 C 489.342 0.737665 -1.80509 0
M  V30 5362 O 488.612 1.53204 -1.22088 0
M  V30 5363 H 487.192 -0.269466 -0.696704 0
M  V30 5364 H 489.854 -1.31282 -1.44052 0
M  V30 5365 H 488.95 -1.03802 -2.94332 0
M  V30 5366 N 489.251 1.34841 -0.815825 0
M  V30 5367 C 490.161 2.33425 -0.234462 0
M  V30 5368 C 491.177 1.62295 0.627413 0
M  V30 5369 O 492.353 1.94109 0.536987 0
M  V30 5370 C 489.418 3.41471 0.599849 0
M  V30 5371 C 488.479 4.28362 -0.283596 0
M  V30 5372 C 487.712 5.31248 0.51099 0
M  V30 5373 O 487.935 5.43056 1.7449 0
M  V30 5374 O 486.869 6.01812 -0.10297 0
M  V30 5375 H 490.695 2.84962 -1.05024 0
M  V30 5376 H 488.28 1.37774 -0.577809 0
M  V30 5377 H 490.162 4.07464 1.07475 0
M  V30 5378 H 488.837 2.9219 1.39308 0
M  V30 5379 H 487.744 3.65318 -0.805836 0
M  V30 5380 H 489.077 4.81066 -1.041 0
M  V30 5381 N 490.729 0.570148 1.46925 0
M  V30 5382 C 491.662 -0.218362 2.27153 0
M  V30 5383 C 492.64 -0.90847 1.34854 0
M  V30 5384 O 493.824 -0.924875 1.64251 0
M  V30 5385 C 490.951 -1.3122 3.12248 0
M  V30 5386 C 489.997 -0.729277 4.20219 0
M  V30 5387 S 490.83 0.434159 5.33737 0
M  V30 5388 C 491.986 -0.661188 6.22398 0
M  V30 5389 H 492.219 0.462393 2.93682 0
M  V30 5390 H 489.752 0.356753 1.50222 0
M  V30 5391 H 491.71 -1.93856 3.61842 0
M  V30 5392 H 490.371 -1.96485 2.45056 0
M  V30 5393 H 489.564 -1.5511 4.79538 0
M  V30 5394 H 489.166 -0.178836 3.73572 0
M  V30 5395 H 491.458 -1.55006 6.5953 0
M  V30 5396 H 492.401 -0.105046 7.08022 0
M  V30 5397 H 492.809 -0.959682 5.56283 0
M  V30 5398 N 492.207 -1.54576 0.307264 0
M  V30 5399 C 493.435 -2.04675 -0.302597 0
M  V30 5400 C 493.85 -1.18425 -1.47041 0
M  V30 5401 O 493.207 -0.211257 -1.81273 0
M  V30 5402 C 493.258 -3.53575 -0.752801 0
M  V30 5403 O 492.979 -4.36547 0.368536 0
M  V30 5404 C 494.48 -4.19699 -1.42717 0
M  V30 5405 H 491.7 -0.66786 -0.0648374 0
M  V30 5406 H 494.244 -1.99516 0.448716 0
M  V30 5407 H 492.399 -3.59074 -1.45412 0
M  V30 5408 H 492.813 -5.24497 0.0168937 0
M  V30 5409 H 494.287 -5.25388 -1.69327 0
M  V30 5410 H 494.764 -3.69815 -2.36925 0
M  V30 5411 H 495.37 -4.18293 -0.768856 0
M  V30 5412 N 493.685 -0.035106 -1.57561 0
M  V30 5413 C 494.595 0.960295 -2.14046 0
M  V30 5414 C 495.611 1.3529 -1.0942 0
M  V30 5415 O 496.787 1.43309 -1.41508 0
M  V30 5416 C 493.852 2.22214 -2.66124 0
M  V30 5417 C 492.913 1.8894 -3.85487 0
M  V30 5418 C 492.146 3.09109 -4.35072 0
M  V30 5419 O 492.369 4.21963 -3.83802 0
M  V30 5420 O 491.303 2.91058 -5.26848 0
M  V30 5421 H 495.129 0.509983 -2.99387 0
M  V30 5422 H 492.714 0.185853 -1.48239 0
M  V30 5423 H 494.596 2.96279 -2.99661 0
M  V30 5424 H 493.271 2.66414 -1.83862 0
M  V30 5425 H 492.178 1.12241 -3.56865 0
M  V30 5426 H 493.511 1.49551 -4.6893 0
M  V30 5427 N 495.163 1.55791 0.238111 0
M  V30 5428 C 496.409 1.78297 0.966337 0
M  V30 5429 C 496.742 0.601903 1.84637 0
M  V30 5430 O 496.017 -0.399499 1.90353 0
M  V30 5431 C 496.3 3.10758 1.81939 0
M  V30 5432 C 496.153 4.39283 0.966958 0
M  V30 5433 C 497.472 3.39519 2.80027 0
M  V30 5434 H 494.591 0.648654 0.349882 0
M  V30 5435 H 497.233 1.88525 0.236253 0
M  V30 5436 H 495.383 3.02168 2.44185 0
M  V30 5437 H 497.055 4.59873 0.362514 0
M  V30 5438 H 495.298 4.32948 0.271669 0
M  V30 5439 H 495.969 5.28368 1.59784 0
M  V30 5440 H 498.445 3.48128 2.27917 0
M  V30 5441 H 497.321 4.33402 3.36829 0
M  V30 5442 H 497.582 2.60864 3.56934 0
M  V30 5443 N 496.642 -0.504142 1.49319 0
M  V30 5444 C 497.572 -1.61473 1.68667 0
M  V30 5445 C 498.553 -1.61455 0.535378 0
M  V30 5446 O 499.738 -1.78245 0.770868 0
M  V30 5447 C 496.868 -2.99971 1.75028 0
M  V30 5448 C 495.822 -3.14854 2.89916 0
M  V30 5449 C 495.148 -4.54671 2.81387 0
M  V30 5450 C 496.448 -2.95176 4.30893 0
M  V30 5451 H 498.142 -1.45535 2.61648 0
M  V30 5452 H 495.688 -0.698711 1.25913 0
M  V30 5453 H 497.641 -3.77562 1.8715 0
M  V30 5454 H 496.365 -3.1699 0.786441 0
M  V30 5455 H 495.024 -2.39687 2.77391 0
M  V30 5456 H 494.672 -4.68562 1.82917 0
M  V30 5457 H 494.372 -4.6557 3.58494 0
M  V30 5458 H 495.896 -5.34327 2.95512 0
M  V30 5459 H 497.31 -3.62538 4.44116 0
M  V30 5460 H 495.707 -3.17549 5.09198 0
M  V30 5461 H 496.777 -1.91332 4.45556 0
M  V30 5462 N 498.12 -1.38341 -0.754957 0
M  V30 5463 C 499.531 -1.30803 -1.3322 0
M  V30 5464 C 499.882 0.0368 -1.96165 0
M  V30 5465 O 499.007 0.938844 -1.94974 0
M  V30 5466 C 499.602 -2.3688 -2.42225 0
M  V30 5467 C 498.161 -2.32925 -2.95674 0
M  V30 5468 C 497.308 -2.19819 -1.69042 0
M  V30 5469 H 500.259 -1.48719 -0.553937 0
M  V30 5470 H 500.28 -2.02517 -3.22129 0
M  V30 5471 H 499.792 -3.34747 -1.96383 0
M  V30 5472 H 497.893 -1.38635 -3.45848 0
M  V30 5473 H 498.006 -3.27008 -3.50146 0
M  V30 5474 H 496.37 -1.66648 -1.92615 0
M  V30 5475 H 497.153 -3.19625 -1.25279 0
M  V30 5476 N 499.598 0.982988 -1.23187 0
M  V30 5477 C 500.546 2.09616 -1.00817 0
M  V30 5478 C 501.54 1.6932 0.0519995 0
M  V30 5479 O 502.746 1.79715 -0.101284 0
M  V30 5480 H 499.121 0.685628 -0.308899 0
M  V30 5481 H 501.092 2.25652 -1.95253 0
M  V30 5482 C 499.841 3.42249 -0.613243 0
M  V30 5483 H 499.164 3.73705 -1.42073 0
M  V30 5484 H 500.604 4.21086 -0.496208 0
M  V30 5485 C 499.063 3.30002 0.678233 0
M  V30 5486 O 499.593 3.6263 1.72807 0
M  V30 5487 N 497.799 2.83164 0.653165 0
M  V30 5488 H 497.346 2.56811 -0.201492 0
M  V30 5489 H 497.304 2.75352 1.51752 0
M  V30 5490 N 501.076 1.04316 1.18135 0
M  V30 5491 C 502.008 0.594444 2.21357 0
M  V30 5492 C 503.021 -0.337215 1.59269 0
M  V30 5493 O 504.21 -0.131337 1.78016 0
M  V30 5494 C 501.31 -0.151251 3.38562 0
M  V30 5495 C 500.483 0.788907 4.30227 0
M  V30 5496 C 499.542 0.0860572 5.2613 0
M  V30 5497 O 498.568 0.717302 5.64662 0
M  V30 5498 N 499.77 -1.17969 5.68387 0
M  V30 5499 H 502.535 1.48227 2.60478 0
M  V30 5500 H 500.096 0.92396 1.32946 0
M  V30 5501 H 502.088 -0.631352 3.99745 0
M  V30 5502 H 500.658 -0.940639 2.98112 0
M  V30 5503 H 499.878 1.44882 3.6661 0
M  V30 5504 H 501.166 1.42738 4.88368 0
M  V30 5505 H 500.564 -1.71302 5.3914 0
M  V30 5506 H 499.121 -1.60402 6.31755 0
M  V30 5507 N 502.554 -1.34406 0.822964 0
M  V30 5508 C 503.97 -1.51275 0.508727 0
M  V30 5509 C 504.17 -1.76776 -0.967083 0
M  V30 5510 O 503.226 -1.81871 -1.75155 0
M  V30 5511 C 504.539 -2.67765 1.36829 0
M  V30 5512 C 506.087 -2.81647 1.36542 0
M  V30 5513 C 506.562 -4.01181 2.20947 0
M  V30 5514 N 508.053 -4.08388 2.18571 0
M  V30 5515 C 508.788 -5.00036 2.80627 0
M  V30 5516 N 508.284 -5.96906 3.51674 0
M  V30 5517 N 510.077 -4.92908 2.70181 0
M  V30 5518 H 502.228 -1.16113 1.77852 0
M  V30 5519 H 504.491 -0.56947 0.757897 0
M  V30 5520 H 504.197 -2.55551 2.41633 0
M  V30 5521 H 504.071 -3.62779 1.03303 0
M  V30 5522 H 506.458 -2.93303 0.325163 0
M  V30 5523 H 506.539 -1.87443 1.74066 0
M  V30 5524 H 506.183 -3.90286 3.25022 0
M  V30 5525 H 506.113 -4.94599 1.80774 0
M  V30 5526 H 508.604 -3.39051 1.66891 0
M  V30 5527 H 508.917 -6.63468 3.96271 0
M  V30 5528 H 507.262 -5.9703 3.5578 0
M  V30 5529 H 510.453 -4.1619 2.14251 0
M  V30 5530 H 510.626 -5.64137 3.18831 0
M  V30 5531 N 504.032 -0.577932 -1.46621 0
M  V30 5532 C 505.262 -0.0670668 -2.06491 0
M  V30 5533 C 505.67 1.24119 -1.42798 0
M  V30 5534 O 505.013 1.76016 -0.525759 0
M  V30 5535 C 505.075 0.177995 -3.59059 0
M  V30 5536 C 504.739 -1.04394 -4.44917 0
M  V30 5537 C 505.736 -1.95479 -4.81751 0
M  V30 5538 C 503.421 -1.26444 -4.86125 0
M  V30 5539 C 505.415 -3.06965 -5.58615 0
M  V30 5540 C 503.102 -2.38237 -5.62749 0
M  V30 5541 C 504.1 -3.28327 -5.98908 0
M  V30 5542 O 503.788 -4.38179 -6.73984 0
M  V30 5543 H 503.52 -0.0523159 -0.673973 0
M  V30 5544 H 506.074 -0.796966 -1.89308 0
M  V30 5545 H 504.304 0.962451 -3.74531 0
M  V30 5546 H 505.993 0.636782 -4.00874 0
M  V30 5547 H 506.759 -1.79657 -4.50498 0
M  V30 5548 H 502.638 -0.572316 -4.57434 0
M  V30 5549 H 506.182 -3.77309 -5.86757 0
M  V30 5550 H 502.079 -2.54023 -5.93416 0
M  V30 5551 H 502.847 -4.36486 -6.92403 0
M  V30 5552 N 505.51 1.54411 -0.315457 0
M  V30 5553 C 506.458 2.25514 0.569771 0
M  V30 5554 C 507.452 1.2663 1.12522 0
M  V30 5555 O 508.658 1.44434 1.07419 0
M  V30 5556 H 505.033 0.724257 0.202376 0
M  V30 5557 H 507.004 2.98354 -0.0522895 0
M  V30 5558 C 505.753 3.02004 1.72305 0
M  V30 5559 H 505.076 3.77906 1.30488 0
M  V30 5560 H 506.516 3.55014 2.31821 0
M  V30 5561 C 504.975 2.09822 2.63583 0
M  V30 5562 O 505.505 1.67574 3.65078 0
M  V30 5563 N 503.711 1.75478 2.31637 0
M  V30 5564 H 503.258 2.10032 1.49145 0
M  V30 5565 H 503.216 1.14079 2.92973 0
M  V30 5566 N 506.988 0.0434614 1.5754 0
M  V30 5567 C 508.213 -0.645358 1.97104 0
M  V30 5568 C 508.638 -1.64037 0.920521 0
M  V30 5569 O 507.996 -1.80922 -0.11708 0
M  V30 5570 C 508.044 -1.31547 3.35749 0
M  V30 5571 O 507.148 -2.43103 3.33129 0
M  V30 5572 H 506.489 -0.168403 0.64229 0
M  V30 5573 H 509.019 0.109573 2.04306 0
M  V30 5574 H 509.029 -1.66895 3.72304 0
M  V30 5575 H 507.704 -0.586205 4.11748 0
M  V30 5576 H 506.281 -2.0976 3.0831 0
M  V30 5577 N 508.466 -1.55915 -0.229846 0
M  V30 5578 C 509.416 -1.8813 -1.28807 0
M  V30 5579 C 510.4 -0.743621 -1.42685 0
M  V30 5580 O 511.592 -1.00588 -1.4564 0
M  V30 5581 C 508.721 -2.19431 -2.64017 0
M  V30 5582 C 507.807 -3.39569 -2.54074 0
M  V30 5583 N 508.198 -4.58404 -2.13774 0
M  V30 5584 C 506.496 -3.43019 -2.85051 0
M  V30 5585 C 507.197 -5.40557 -2.1488 0
M  V30 5586 N 506.173 -4.80054 -2.55047 0
M  V30 5587 H 509.975 -2.77527 -0.967261 0
M  V30 5588 H 507.489 -1.5637 -0.438433 0
M  V30 5589 H 509.486 -2.40681 -3.40409 0
M  V30 5590 H 508.146 -1.31341 -2.9695 0
M  V30 5591 H 509.157 -4.83716 -1.8504 0
M  V30 5592 H 505.834 -2.65249 -3.22411 0
M  V30 5593 H 507.224 -6.45666 -1.85918 0
M  V30 5594 N 509.944 0.496216 -1.49584 0
M  V30 5595 C 510.874 1.60576 -1.69521 0
M  V30 5596 C 511.855 1.61169 -0.543933 0
M  V30 5597 O 513.04 1.77834 -0.78031 0
M  V30 5598 C 510.17 2.99038 -1.76616 0
M  V30 5599 C 509.124 3.13312 -2.91581 0
M  V30 5600 C 508.45 4.53172 -2.83794 0
M  V30 5601 C 509.75 2.92886 -4.32452 0
M  V30 5602 H 511.444 1.44146 -2.62416 0
M  V30 5603 H 508.99 0.692024 -1.26282 0
M  V30 5604 H 510.943 3.76564 -1.8915 0
M  V30 5605 H 509.667 3.16568 -0.80324 0
M  V30 5606 H 508.326 2.38213 -2.78658 0
M  V30 5607 H 507.974 4.67585 -1.854 0
M  V30 5608 H 507.674 4.63662 -3.60958 0
M  V30 5609 H 509.198 5.32752 -2.98342 0
M  V30 5610 H 510.612 3.60178 -4.46032 0
M  V30 5611 H 509.009 3.14844 -5.10875 0
M  V30 5612 H 510.079 1.88966 -4.46565 0
M  V30 5613 N 511.423 1.38739 0.74761 0
M  V30 5614 C 512.669 1.35475 1.50912 0
M  V30 5615 C 513.002 -0.0533093 1.94127 0
M  V30 5616 O 512.277 -1.01572 1.65871 0
M  V30 5617 C 512.56 2.31582 2.75757 0
M  V30 5618 C 512.413 3.81274 2.38642 0
M  V30 5619 C 513.732 2.25722 3.77806 0
M  V30 5620 H 510.851 0.493427 0.547447 0
M  V30 5621 H 513.493 1.69634 0.855823 0
M  V30 5622 H 511.643 2.02582 3.31501 0
M  V30 5623 H 513.315 4.20972 1.88626 0
M  V30 5624 H 511.558 3.98664 1.71025 0
M  V30 5625 H 512.229 4.4399 3.27989 0
M  V30 5626 H 514.705 2.51336 3.31616 0
M  V30 5627 H 513.581 2.95069 4.62845 0
M  V30 5628 H 513.842 1.25803 4.23823 0
M  V30 5629 N 512.901 -0.976442 1.23707 0
M  V30 5630 C 514.312 -1.53284 1.06587 0
M  V30 5631 C 514.663 -1.92765 -0.365526 0
M  V30 5632 O 513.788 -1.7645 -1.25277 0
M  V30 5633 C 514.383 -2.78548 1.92864 0
M  V30 5634 C 512.942 -3.30574 1.79994 0
M  V30 5635 C 512.089 -2.03538 1.88328 0
M  V30 5636 H 515.04 -0.795692 1.37311 0
M  V30 5637 H 515.061 -3.5155 1.45577 0
M  V30 5638 H 514.573 -2.49782 2.97037 0
M  V30 5639 H 512.674 -3.64211 0.786202 0
M  V30 5640 H 512.787 -4.00065 2.636 0
M  V30 5641 H 511.151 -2.17853 1.31954 0
M  V30 5642 H 511.934 -1.77149 2.94063 0
M  V30 5643 N 514.379 -1.04941 -1.1758 0
M  V30 5644 C 515.289 -0.658826 -2.25159 0
M  V30 5645 C 516.305 0.318941 -1.71052 0
M  V30 5646 O 517.481 0.171669 -2.00667 0
M  V30 5647 C 514.546 -0.0369522 -3.4668 0
M  V30 5648 C 513.607 -1.06484 -4.15884 0
M  V30 5649 C 512.84 -0.472551 -5.31604 0
M  V30 5650 O 513.063 0.718736 -5.65854 0
M  V30 5651 O 511.997 -1.20557 -5.89703 0
M  V30 5652 H 515.823 -1.55533 -2.60851 0
M  V30 5653 H 513.408 -0.820819 -1.24832 0
M  V30 5654 H 515.29 0.308784 -4.20267 0
M  V30 5655 H 513.965 0.833238 -3.12792 0
M  V30 5656 H 512.872 -1.46253 -3.44327 0
M  V30 5657 H 514.205 -1.9061 -4.53794 0
M  V30 5658 N 515.857 1.33968 -0.830081 0
M  V30 5659 C 517.134 1.92554 -0.343858 0
M  V30 5660 C 517.514 1.7573 1.16971 0
M  V30 5661 O 516.862 1.14035 1.98011 0
M  V30 5662 C 517.072 3.40147 -0.781073 0
M  V30 5663 C 518.42 4.17299 -0.78402 0
M  V30 5664 O 519.444 3.48762 -0.724112 0
M  V30 5665 O 518.303 5.39631 -0.863739 0
M  V30 5666 H 515.397 0.821469 -0.0954827 0
M  V30 5667 H 517.943 1.42897 -0.915348 0
M  V30 5668 H 516.715 3.46225 -1.82329 0
M  V30 5669 H 516.338 3.97166 -0.18567 0
M  V30 5670 N 517.335 0.585699 1.46312 0
M  V30 5671 C 518.583 0.072278 2.01971 0
M  V30 5672 C 518.904 -1.29345 1.45928 0
M  V30 5673 O 518.174 -1.84973 0.645109 0
M  V30 5674 H 516.754 0.023729 0.746623 0
M  V30 5675 H 519.416 0.762155 1.7938 0
M  V30 5676 H 518.512 0.00552767 3.121 0
M  V30 5677 N 518.813 -1.54241 0.323641 0
M  V30 5678 C 520.041 -2.04985 -0.280871 0
M  V30 5679 C 520.456 -1.19978 -1.45777 0
M  V30 5680 O 519.813 -0.230471 -1.81039 0
M  V30 5681 C 519.864 -3.54353 -0.715258 0
M  V30 5682 O 519.585 -4.36132 0.414817 0
M  V30 5683 C 521.086 -4.21189 -1.38257 0
M  V30 5684 H 518.306 -0.66851 -0.0577502 0
M  V30 5685 H 520.85 -1.99029 0.469852 0
M  V30 5686 H 519.005 -3.60596 -1.41596 0
M  V30 5687 H 519.419 -5.2445 0.0725227 0
M  V30 5688 H 520.893 -5.27154 -1.63745 0
M  V30 5689 H 521.37 -3.72307 -2.32989 0
M  V30 5690 H 521.976 -4.19085 -0.724447 0
M  V30 5691 N 520.291 -0.0518155 -1.57515 0
M  V30 5692 C 521.221 0.920283 -2.146 0
M  V30 5693 C 522.202 1.32406 -1.06783 0
M  V30 5694 O 523.387 1.39866 -1.34726 0
M  V30 5695 C 520.517 2.1949 -2.6915 0
M  V30 5696 C 519.471 1.93116 -3.81956 0
M  V30 5697 C 518.797 3.27037 -4.23026 0
M  V30 5698 C 520.097 1.25225 -5.07066 0
M  V30 5699 H 521.791 0.444801 -2.96077 0
M  V30 5700 H 519.337 0.212508 -1.42423 0
M  V30 5701 H 521.29 2.87894 -3.07725 0
M  V30 5702 H 520.014 2.69244 -1.84865 0
M  V30 5703 H 518.673 1.27123 -3.43854 0
M  V30 5704 H 518.321 3.74595 -3.3569 0
M  V30 5705 H 518.021 3.10189 -4.99056 0
M  V30 5706 H 519.545 3.96673 -4.64202 0
M  V30 5707 H 520.959 1.83666 -5.43083 0
M  V30 5708 H 519.356 1.18702 -5.88243 0
M  V30 5709 H 520.426 0.228382 -4.84362 0
M  V30 5710 N 521.769 1.56035 0.221574 0
M  V30 5711 C 522.997 1.8313 0.962864 0
M  V30 5712 C 523.412 0.630934 1.77946 0
M  V30 5713 O 522.769 -0.400519 1.78051 0
M  V30 5714 C 522.82 3.08742 1.88045 0
M  V30 5715 O 522.541 4.24147 1.09686 0
M  V30 5716 C 524.042 3.48824 2.73563 0
M  V30 5717 H 521.262 0.608775 0.282194 0
M  V30 5718 H 523.806 2.03124 0.23681 0
M  V30 5719 H 521.961 2.90723 2.56045 0
M  V30 5720 H 522.375 4.95505 1.71974 0
M  V30 5721 H 523.849 4.39752 3.3365 0
M  V30 5722 H 524.326 2.70575 3.45956 0
M  V30 5723 H 524.932 3.69282 2.10976 0
M  V30 5724 N 523.247 -0.488276 1.49845 0
M  V30 5725 C 524.487 -1.2516 1.61599 0
M  V30 5726 C 524.851 -1.89615 0.301706 0
M  V30 5727 O 526.052 -2.67182 0.29453 0
M  V30 5728 C 524.323 -2.2805 2.75187 0
M  V30 5729 S 525.882 -3.13552 3.0697 0
M  V30 5730 H 522.7 -0.425178 0.569864 0
M  V30 5731 H 525.302 -0.551545 1.87559 0
M  V30 5732 H 524.006 -1.7925 3.69185 0
M  V30 5733 H 523.537 -3.02708 2.5126 0
M  V30 5734 H 525.552 -4.28927 2.49471 0
M  V30 5735 N 524.725 -1.39134 -0.740242 0
M  V30 5736 C 525.95 -1.39518 -1.53459 0
M  V30 5737 C 526.375 0.00968883 -1.88098 0
M  V30 5738 O 525.733 0.995312 -1.51536 0
M  V30 5739 C 525.781 -2.26981 -2.802 0
M  V30 5740 O 524.885 -1.69609 -3.75908 0
M  V30 5741 H 524.226 -0.475328 -0.463637 0
M  V30 5742 H 526.756 -1.83064 -0.913717 0
M  V30 5743 H 526.766 -2.41309 -3.28989 0
M  V30 5744 H 525.441 -3.29081 -2.5432 0
M  V30 5745 H 524.018 -1.64495 -3.34658 0
M  V30 5746 N 526.204 0.969867 -1.24223 0
M  V30 5747 C 527.481 1.68774 -0.988664 0
M  V30 5748 C 527.861 2.05342 0.489673 0
M  V30 5749 O 527.209 1.75486 1.46345 0
M  V30 5750 C 527.419 2.92135 -1.90941 0
M  V30 5751 C 528.767 3.64422 -2.17903 0
M  V30 5752 O 529.791 3.02188 -1.88576 0
M  V30 5753 O 528.65 4.76446 -2.67697 0
M  V30 5754 H 525.744 0.737736 -0.37373 0
M  V30 5755 H 528.29 1.02415 -1.35312 0
M  V30 5756 H 527.062 2.61788 -2.90831 0
M  V30 5757 H 526.685 3.66228 -1.54798 0
M  V30 5758 N 527.682 1.05563 1.17022 0
M  V30 5759 C 529.093 0.793475 1.69 0
M  V30 5760 C 529.444 -0.683882 1.83895 0
M  V30 5761 O 528.569 -1.53116 1.5292 0
M  V30 5762 C 529.164 1.43376 3.06967 0
M  V30 5763 C 527.723 1.21956 3.56095 0
M  V30 5764 C 526.87 1.51494 2.3226 0
M  V30 5765 H 529.821 1.22008 1.01487 0
M  V30 5766 H 529.842 0.845068 3.70997 0
M  V30 5767 H 529.354 2.50899 2.96093 0
M  V30 5768 H 527.455 0.163749 3.7224 0
M  V30 5769 H 527.568 1.92713 4.38633 0
M  V30 5770 H 525.932 0.935175 2.3691 0
M  V30 5771 H 526.715 2.60159 2.23992 0
M  V30 5772 N 529.16 -1.33526 0.837174 0
M  V30 5773 C 530.408 -1.97446 0.431211 0
M  V30 5774 C 530.729 -1.6665 -1.01255 0
M  V30 5775 O 529.999 -0.964559 -1.70508 0
M  V30 5776 H 528.579 -0.73043 0.156463 0
M  V30 5777 H 531.241 -1.62918 1.06976 0
M  V30 5778 H 530.337 -3.07001 0.561877 0
M  V30 5779 N 530.638 -0.59345 -1.46 0
M  V30 5780 C 531.887 -0.0808084 -2.01538 0
M  V30 5781 C 532.2 1.29112 -1.46934 0
M  V30 5782 O 533.406 1.8957 -1.94359 0
M  V30 5783 C 531.862 -0.0938311 -3.59778 0
M  V30 5784 C 531.47 -1.46474 -4.23379 0
M  V30 5785 C 533.214 0.364306 -4.22934 0
M  V30 5786 C 531.121 -1.4349 -5.73729 0
M  V30 5787 H 530.051 -0.0264407 -0.753536 0
M  V30 5788 H 532.702 -0.746689 -1.67621 0
M  V30 5789 H 531.084 0.638427 -3.9082 0
M  V30 5790 H 532.258 -2.21758 -4.03931 0
M  V30 5791 H 530.573 -1.86379 -3.7236 0
M  V30 5792 H 533.17 0.405584 -5.3316 0
M  V30 5793 H 533.513 1.38409 -3.92618 0
M  V30 5794 H 534.046 -0.31423 -3.96557 0
M  V30 5795 H 530.785 -2.43184 -6.08722 0
M  V30 5796 H 530.305 -0.724431 -5.95409 0
M  V30 5797 H 531.984 -1.15243 -6.36654 0
M  V30 5798 N 532.116 1.54067 -0.331816 0
M  V30 5799 C 533.346 2.04833 0.269605 0
M  V30 5800 C 533.754 1.20714 1.45687 0
M  V30 5801 O 533.097 0.232539 1.82222 0
M  V30 5802 C 533.159 3.51386 0.759499 0
M  V30 5803 C 532.823 4.55971 -0.306557 0
M  V30 5804 C 533.82 5.07126 -1.14538 0
M  V30 5805 C 531.505 5.00216 -0.457116 0
M  V30 5806 C 533.499 6.01096 -2.12042 0
M  V30 5807 C 531.186 5.93999 -1.43556 0
M  V30 5808 C 532.184 6.44326 -2.26568 0
M  V30 5809 O 531.872 7.36267 -3.22749 0
M  V30 5810 H 531.604 0.673509 0.0579763 0
M  V30 5811 H 534.158 1.99748 -0.478521 0
M  V30 5812 H 532.388 3.53896 1.55867 0
M  V30 5813 H 534.077 3.85184 1.28017 0
M  V30 5814 H 534.843 4.73716 -1.04009 0
M  V30 5815 H 530.722 4.60652 0.179142 0
M  V30 5816 H 534.266 6.40302 -2.76873 0
M  V30 5817 H 530.163 6.26825 -1.54146 0
M  V30 5818 H 530.931 7.54165 -3.18083 0
M  V30 5819 N 533.594 0.0601682 1.57485 0
M  V30 5820 C 534.84 -0.612501 1.93329 0
M  V30 5821 C 535.173 -1.6996 0.939526 0
M  V30 5822 O 534.448 -1.94472 -0.0330957 0
M  V30 5823 C 534.731 -1.20025 3.39508 0
M  V30 5824 C 534.584 -0.12059 4.49638 0
M  V30 5825 C 535.903 -2.10923 3.86264 0
M  V30 5826 H 533.022 -0.221185 0.703027 0
M  V30 5827 H 535.664 0.123768 1.89596 0
M  V30 5828 H 533.814 -1.82774 3.42821 0
M  V30 5829 H 535.486 0.51185 4.58452 0
M  V30 5830 H 533.729 0.550251 4.30296 0
M  V30 5831 H 534.4 -0.572019 5.49028 0
M  V30 5832 H 536.876 -1.58124 3.84884 0
M  V30 5833 H 535.752 -2.48987 4.8918 0
M  V30 5834 H 536.013 -3.01292 3.23536 0
M  V30 5835 N 535.072 -1.5615 -0.213296 0
M  V30 5836 C 536.002 -1.96109 -1.26742 0
M  V30 5837 C 536.983 -0.830448 -1.48451 0
M  V30 5838 O 538.168 -1.09339 -1.60495 0
M  V30 5839 C 535.298 -2.28492 -2.61551 0
M  V30 5840 C 534.252 -3.44124 -2.54485 0
M  V30 5841 C 533.578 -3.62134 -3.93399 0
M  V30 5842 C 534.878 -4.78855 -2.08556 0
M  V30 5843 H 536.572 -2.84412 -0.935434 0
M  V30 5844 H 534.118 -1.36836 -0.44854 0
M  V30 5845 H 536.071 -2.55039 -3.3546 0
M  V30 5846 H 534.795 -1.37052 -2.96453 0
M  V30 5847 H 533.454 -3.17639 -1.83033 0
M  V30 5848 H 533.102 -2.68055 -4.25623 0
M  V30 5849 H 532.802 -4.39913 -3.89551 0
M  V30 5850 H 534.326 -3.91038 -4.68958 0
M  V30 5851 H 535.74 -5.04552 -2.72213 0
M  V30 5852 H 534.137 -5.59975 -2.1575 0
M  V30 5853 H 535.207 -4.73657 -1.03811 0
M  V30 5854 N 536.55 0.480323 -1.50102 0
M  V30 5855 C 537.966 0.813295 -1.37323 0
M  V30 5856 C 538.166 1.97027 -0.422206 0
M  V30 5857 O 537.222 2.5212 0.138563 0
M  V30 5858 C 538.535 1.13404 -2.78496 0
M  V30 5859 C 540.083 1.24104 -2.87345 0
M  V30 5860 C 540.558 1.59497 -4.29331 0
M  V30 5861 N 542.049 1.66507 -4.32238 0
M  V30 5862 C 542.784 1.95378 -5.39087 0
M  V30 5863 N 542.28 2.22333 -6.56155 0
M  V30 5864 N 544.073 1.96803 -5.26522 0
M  V30 5865 H 536.224 -0.282291 -2.10516 0
M  V30 5866 H 538.487 -0.063752 -0.945854 0
M  V30 5867 H 538.193 0.357064 -3.49883 0
M  V30 5868 H 538.067 2.07251 -3.15162 0
M  V30 5869 H 540.454 2.00871 -2.16183 0
M  V30 5870 H 540.535 0.282593 -2.54234 0
M  V30 5871 H 540.179 0.832736 -5.01027 0
M  V30 5872 H 540.109 2.56477 -4.59921 0
M  V30 5873 H 542.6 1.47753 -3.47818 0
M  V30 5874 H 542.913 2.43611 -7.33399 0
M  V30 5875 H 541.258 2.19745 -6.59346 0
M  V30 5876 H 544.449 1.75235 -4.34062 0
M  V30 5877 H 544.622 2.18969 -6.09883 0
M  V30 5878 N 538.028 1.39524 0.732853 0
M  V30 5879 C 539.275 1.36865 1.49246 0
M  V30 5880 C 539.603 -0.0347118 1.94469 0
M  V30 5881 O 538.858 -1.01596 1.67262 0
M  V30 5882 C 539.157 2.28916 2.74468 0
M  V30 5883 C 538.823 3.76506 2.481 0
M  V30 5884 C 537.485 4.16721 2.40619 0
M  V30 5885 C 539.837 4.69846 2.25598 0
M  V30 5886 C 537.165 5.48334 2.08679 0
M  V30 5887 C 539.517 6.01739 1.95174 0
M  V30 5888 C 538.181 6.41015 1.86163 0
M  V30 5889 H 537.451 0.500824 0.546129 0
M  V30 5890 H 540.098 1.72047 0.840958 0
M  V30 5891 H 538.403 1.86859 3.4437 0
M  V30 5892 H 540.1 2.2415 3.32502 0
M  V30 5893 H 536.69 3.44635 2.54803 0
M  V30 5894 H 540.874 4.39608 2.30344 0
M  V30 5895 H 536.13 5.77685 2.00226 0
M  V30 5896 H 540.304 6.73591 1.76771 0
M  V30 5897 H 537.931 7.42917 1.61179 0
M  V30 5898 N 539.506 -0.963266 1.24736 0
M  V30 5899 C 540.783 -1.68248 0.9976 0
M  V30 5900 C 541.163 -2.05599 -0.478776 0
M  V30 5901 O 540.511 -1.7626 -1.45412 0
M  V30 5902 C 540.721 -2.91118 1.92487 0
M  V30 5903 C 542.069 -3.63261 2.19833 0
M  V30 5904 O 543.093 -3.01184 1.90176 0
M  V30 5905 O 541.952 -4.75019 2.7022 0
M  V30 5906 H 539.046 -0.735744 0.377637 0
M  V30 5907 H 541.592 -1.01696 1.35853 0
M  V30 5908 H 540.364 -2.60242 2.92215 0
M  V30 5909 H 539.987 -3.65402 1.56738 0
M  V30 5910 N 540.985 -1.06182 -1.16461 0
M  V30 5911 C 541.933 -0.665716 -2.2287 0
M  V30 5912 C 542.927 0.317822 -1.66392 0
M  V30 5913 O 544.133 0.182807 -1.79069 0
M  V30 5914 H 540.508 -0.197148 -0.725697 0
M  V30 5915 H 542.479 -1.57307 -2.53569 0
M  V30 5916 C 541.228 -0.0669803 -3.47635 0
M  V30 5917 H 540.551 -0.814899 -3.91407 0
M  V30 5918 H 541.991 0.172669 -4.23648 0
M  V30 5919 C 540.45 1.18913 -3.15216 0
M  V30 5920 O 540.98 2.27723 -3.30916 0
M  V30 5921 N 539.186 1.09066 -2.69357 0
M  V30 5922 H 538.733 0.20518 -2.56782 0
M  V30 5923 H 538.691 1.93195 -2.48039 0
M  V30 5924 N 542.463 1.3308 -0.844243 0
M  V30 5925 C 543.691 2.01808 -0.456203 0
M  V30 5926 C 544.106 1.63498 0.944131 0
M  V30 5927 O 543.463 0.85102 1.61443 0
M  V30 5928 C 543.514 3.56922 -0.573513 0
M  V30 5929 O 543.235 3.93851 -1.91868 0
M  V30 5930 C 544.736 4.42922 -0.183125 0
M  V30 5931 H 541.956 0.646273 -0.180477 0
M  V30 5932 H 544.5 1.69891 -1.1383 0
M  V30 5933 H 542.655 3.87352 0.0607367 0
M  V30 5934 H 543.069 4.88564 -1.90802 0
M  V30 5935 H 544.543 5.51093 -0.316241 0
M  V30 5936 H 545.02 4.30386 0.875477 0
M  V30 5937 H 545.626 4.1786 -0.792027 0
M  V30 5938 N 543.941 0.601185 1.45683 0
M  V30 5939 C 545.171 0.0999093 2.06358 0
M  V30 5940 C 545.579 -1.21831 1.44754 0
M  V30 5941 O 544.922 -1.75157 0.553695 0
M  V30 5942 C 544.984 -0.12085 3.59297 0
M  V30 5943 C 544.648 1.11459 4.432 0
M  V30 5944 C 545.645 2.03118 4.7858 0
M  V30 5945 C 543.33 1.34162 4.84051 0
M  V30 5946 C 545.324 3.15814 5.53661 0
M  V30 5947 C 543.011 2.4716 5.58888 0
M  V30 5948 C 544.009 3.37814 5.93608 0
M  V30 5949 O 543.697 4.48846 6.66928 0
M  V30 5950 H 543.429 0.0630316 0.673055 0
M  V30 5951 H 545.983 0.826982 1.88016 0
M  V30 5952 H 544.213 -0.902744 3.76015 0
M  V30 5953 H 545.902 -0.572925 4.01836 0
M  V30 5954 H 546.668 1.86801 4.47583 0
M  V30 5955 H 542.547 0.645018 4.56465 0
M  V30 5956 H 546.091 3.86596 5.8068 0
M  V30 5957 H 541.988 2.63432 5.89299 0
M  V30 5958 H 542.756 4.47446 6.85371 0
M  V30 5959 N 545.419 -1.53889 0.339982 0
M  V30 5960 C 546.644 -2.05741 -0.261798 0
M  V30 5961 C 547.069 -1.21354 -1.43718 0
M  V30 5962 O 546.427 -0.22645 -1.7988 0
M  V30 5963 C 546.475 -3.54542 -0.658228 0
M  V30 5964 O 545.579 -3.7302 -1.75869 0
M  V30 5965 H 544.92 -0.662529 -0.0441672 0
M  V30 5966 H 547.45 -1.98568 0.493161 0
M  V30 5967 H 547.46 -3.9711 -0.936368 0
M  V30 5968 H 546.135 -4.15412 0.201358 0
M  V30 5969 H 544.712 -3.42355 -1.47809 0
M  V30 5970 N 546.897 -0.0685191 -1.57451 0
M  V30 5971 C 548.144 0.601348 -1.93365 0
M  V30 5972 C 548.472 1.69816 -0.948294 0
M  V30 5973 O 547.727 1.95666 0.0366199 0
M  V30 5974 C 548.026 1.22051 -3.35914 0
M  V30 5975 C 547.692 0.250165 -4.50205 0
M  V30 5976 C 546.354 -0.0167954 -4.81197 0
M  V30 5977 C 548.706 -0.413867 -5.19554 0
M  V30 5978 C 546.034 -0.95493 -5.78876 0
M  V30 5979 C 548.386 -1.3403 -6.18238 0
M  V30 5980 C 547.05 -1.61576 -6.47649 0
M  V30 5981 H 546.32 0.220049 -0.707573 0
M  V30 5982 H 548.967 -0.138697 -1.90997 0
M  V30 5983 H 547.272 2.03622 -3.34732 0
M  V30 5984 H 548.969 1.74605 -3.6099 0
M  V30 5985 H 545.559 0.468421 -4.26033 0
M  V30 5986 H 549.743 -0.220733 -4.95809 0
M  V30 5987 H 544.999 -1.17563 -5.99991 0
M  V30 5988 H 549.173 -1.86081 -6.71079 0
M  V30 5989 H 546.8 -2.34431 -7.2315 0
M  V30 5990 N 548.375 1.56261 0.205012 0
M  V30 5991 C 549.624 1.79236 0.925058 0
M  V30 5992 C 549.937 0.640011 1.84833 0
M  V30 5993 O 551.143 0.753809 2.60826 0
M  V30 5994 C 549.599 3.17475 1.69522 0
M  V30 5995 C 549.207 4.40482 0.817269 0
M  V30 5996 C 550.951 3.49766 2.4055 0
M  V30 5997 C 548.858 5.69744 1.58573 0
M  V30 5998 H 547.788 0.668287 0.349153 0
M  V30 5999 H 550.439 1.82629 0.178544 0
M  V30 6000 H 548.821 3.08304 2.48526 0
M  V30 6001 H 549.995 4.60752 0.0665988 0
M  V30 6002 H 548.31 4.15827 0.218316 0
M  V30 6003 H 550.907 4.43573 2.98575 0
M  V30 6004 H 551.25 2.73041 3.14252 0
M  V30 6005 H 551.783 3.60341 1.68522 0
M  V30 6006 H 548.522 6.49407 0.891679 0
M  V30 6007 H 548.042 5.53509 2.31059 0
M  V30 6008 H 549.721 6.1051 2.14212 0
M  V30 6009 N 549.853 -0.472356 1.50355 0
M  V30 6010 C 550.803 -1.56809 1.65514 0
M  V30 6011 C 551.787 -1.5261 0.509801 0
M  V30 6012 O 552.979 -1.59655 0.764145 0
M  V30 6013 C 550.108 -2.9526 1.75146 0
M  V30 6014 C 549.194 -3.04348 2.95353 0
M  V30 6015 N 549.585 -2.83253 4.19048 0
M  V30 6016 C 547.883 -3.35482 2.93884 0
M  V30 6017 C 548.584 -2.97273 5.00003 0
M  V30 6018 N 547.56 -3.27418 4.33934 0
M  V30 6019 H 551.362 -1.39197 2.58846 0
M  V30 6020 H 548.876 -0.67906 1.47521 0
M  V30 6021 H 550.873 -3.74044 1.8411 0
M  V30 6022 H 549.533 -3.1392 0.829717 0
M  V30 6023 H 550.544 -2.5886 4.48567 0
M  V30 6024 H 547.221 -3.60138 2.11204 0
M  V30 6025 H 548.611 -2.85214 6.08361 0
M  V30 6026 N 551.331 -1.39911 -0.725443 0
M  V30 6027 C 552.294 -1.39156 -1.82121 0
M  V30 6028 C 553.294 -0.287018 -1.58218 0
M  V30 6029 O 554.484 -0.545421 -1.65441 0
M  V30 6030 C 551.616 -1.1736 -3.20062 0
M  V30 6031 H 552.809 -2.36672 -1.84191 0
M  V30 6032 H 550.362 -1.25615 -0.930079 0
M  V30 6033 H 551.097 -0.205648 -3.23647 0
M  V30 6034 H 550.882 -1.97358 -3.3881 0
M  V30 6035 H 552.372 -1.19596 -4.00108 0
M  V30 6036 N 552.809 0.956637 -1.25245 0
M  V30 6037 C 553.756 2.053 -1.05454 0
M  V30 6038 C 554.726 1.66062 0.0356889 0
M  V30 6039 O 555.911 1.90415 -0.121099 0
M  V30 6040 C 553.051 3.38391 -0.677191 0
M  V30 6041 C 552.164 3.90758 -1.84206 0
M  V30 6042 C 551.299 5.12165 -1.40926 0
M  V30 6043 C 550.338 5.56757 -2.54338 0
M  V30 6044 N 549.475 6.69376 -2.11848 0
M  V30 6045 H 554.315 2.21562 -1.99284 0
M  V30 6046 H 551.852 1.08578 -0.992434 0
M  V30 6047 H 553.81 4.1488 -0.43938 0
M  V30 6048 H 552.44 3.22021 0.224127 0
M  V30 6049 H 551.492 3.10808 -2.19323 0
M  V30 6050 H 552.804 4.19802 -2.69383 0
M  V30 6051 H 551.958 5.96065 -1.13098 0
M  V30 6052 H 550.697 4.84832 -0.528175 0
M  V30 6053 H 549.702 4.71423 -2.82913 0
M  V30 6054 H 550.927 5.861 -3.43022 0
M  V30 6055 H 548.873 6.43756 -1.26153 0
M  V30 6056 H 548.79 6.97927 -2.90574 0
M  V30 6057 H 550.058 7.5669 -1.87191 0
M  V30 6058 N 554.287 1.06798 1.15896 0
M  V30 6059 C 555.234 0.683314 2.20453 0
M  V30 6060 C 556.204 -0.32255 1.62938 0
M  V30 6061 O 557.389 -0.210276 1.89638 0
M  V30 6062 C 554.529 0.0813266 3.45004 0
M  V30 6063 C 553.642 1.13799 4.16742 0
M  V30 6064 C 552.777 0.501598 5.28826 0
M  V30 6065 C 551.816 1.54144 5.92373 0
M  V30 6066 N 550.953 0.928038 6.9594 0
M  V30 6067 H 555.793 1.57932 2.52708 0
M  V30 6068 H 553.33 0.789544 1.24115 0
M  V30 6069 H 555.288 -0.285274 4.16224 0
M  V30 6070 H 553.918 -0.77806 3.13283 0
M  V30 6071 H 552.97 1.62223 3.44075 0
M  V30 6072 H 554.282 1.92664 4.60089 0
M  V30 6073 H 553.436 0.0823162 6.06644 0
M  V30 6074 H 552.175 -0.318883 4.86656 0
M  V30 6075 H 551.18 1.97056 5.13273 0
M  V30 6076 H 552.405 2.3641 6.36621 0
M  V30 6077 H 550.351 0.12836 6.55874 0
M  V30 6078 H 550.268 1.65401 7.37685 0
M  V30 6079 H 551.536 0.534071 7.77668 0
M  V30 6080 N 555.766 -1.3263 0.851289 0
M  V30 6081 C 557.012 -1.9766 0.453694 0
M  V30 6082 C 557.345 -1.67225 -0.987396 0
M  V30 6083 O 556.62 -0.958693 -1.69232 0
M  V30 6084 C 556.903 -3.5344 0.68936 0
M  V30 6085 C 556.756 -3.93517 2.17862 0
M  V30 6086 C 558.075 -4.39866 0.143555 0
M  V30 6087 H 555.194 -0.717989 0.166314 0
M  V30 6088 H 557.836 -1.57068 1.06909 0
M  V30 6089 H 555.986 -3.88147 0.165546 0
M  V30 6090 H 557.658 -3.69006 2.76826 0
M  V30 6091 H 555.901 -3.42798 2.65841 0
M  V30 6092 H 556.572 -5.02065 2.29422 0
M  V30 6093 H 559.048 -4.11875 0.591451 0
M  V30 6094 H 557.924 -5.47858 0.338043 0
M  V30 6095 H 558.185 -4.31696 -0.953466 0
M  V30 6096 N 557.244 -0.608902 -1.45362 0
M  V30 6097 C 558.192 0.121639 -2.32282 0
M  V30 6098 C 559.186 0.858301 -1.46046 0
M  V30 6099 O 560.392 0.773718 -1.62523 0
M  V30 6100 H 556.767 0.058086 -0.749753 0
M  V30 6101 H 558.738 -0.629866 -2.91677 0
M  V30 6102 C 557.487 1.1047 -3.29684 0
M  V30 6103 H 556.81 0.547278 -3.96036 0
M  V30 6104 H 558.25 1.58576 -3.9323 0
M  V30 6105 C 556.709 2.17891 -2.56954 0
M  V30 6106 O 557.239 3.25652 -2.35189 0
M  V30 6107 N 555.445 1.93211 -2.17066 0
M  V30 6108 H 554.992 1.05584 -2.34967 0
M  V30 6109 H 554.95 2.6529 -1.68727 0
M  V30 6110 N 558.722 1.53707 -0.348139 0
M  V30 6111 C 559.969 2.00988 0.246966 0
M  V30 6112 C 560.297 1.23586 1.50189 0
M  V30 6113 O 559.552 0.312817 1.93184 0
M  V30 6114 C 559.851 3.52292 0.602061 0
M  V30 6115 C 559.517 4.47453 -0.556509 0
M  V30 6116 C 558.179 4.73188 -0.874446 0
M  V30 6117 C 560.531 5.03851 -1.33354 0
M  V30 6118 C 557.859 5.52577 -1.9717 0
M  V30 6119 C 560.211 5.84437 -2.42108 0
M  V30 6120 C 558.875 6.08465 -2.74456 0
M  V30 6121 H 558.145 0.735469 0.0903712 0
M  V30 6122 H 560.792 1.85464 -0.477001 0
M  V30 6123 H 559.097 3.65672 1.40681 0
M  V30 6124 H 560.794 3.86337 1.07447 0
M  V30 6125 H 557.384 4.27558 -0.298652 0
M  V30 6126 H 561.568 4.8393 -1.10117 0
M  V30 6127 H 556.824 5.69418 -2.22651 0
M  V30 6128 H 560.998 6.27151 -3.02745 0
M  V30 6129 H 558.625 6.69768 -3.59604 0
M  V30 6130 N 560.2 0.0768682 1.57412 0
M  V30 6131 C 561.428 -0.59997 1.9801 0
M  V30 6132 C 561.843 -1.62842 0.955408 0
M  V30 6133 O 561.2 -1.8241 -0.057314 0
M  V30 6134 C 561.251 -1.26401 3.38681 0
M  V30 6135 O 560.972 -0.276723 4.37225 0
M  V30 6136 C 562.473 -2.0282 3.94182 0
M  V30 6137 H 559.693 -0.162239 0.651091 0
M  V30 6138 H 562.237 0.150771 2.03943 0
M  V30 6139 H 560.392 -1.96581 3.33819 0
M  V30 6140 H 560.806 -0.753744 5.19056 0
M  V30 6141 H 562.28 -2.44667 4.94815 0
M  V30 6142 H 562.757 -2.88678 3.31001 0
M  V30 6143 H 563.363 -1.37496 4.02461 0
M  V30 6144 N 561.678 -1.56367 -0.196722 0
M  V30 6145 C 562.924 -1.80796 -0.918725 0
M  V30 6146 C 563.257 -0.650645 -1.82976 0
M  V30 6147 O 562.532 0.348889 -1.91345 0
M  V30 6148 C 562.815 -3.15472 -1.73636 0
M  V30 6149 C 562.668 -4.41693 -0.85015 0
M  V30 6150 C 563.987 -3.46824 -2.70927 0
M  V30 6151 H 561.106 -0.657702 -0.332561 0
M  V30 6152 H 563.748 -1.89086 -0.186186 0
M  V30 6153 H 561.898 -3.08536 -2.36088 0
M  V30 6154 H 563.57 -4.60673 -0.240459 0
M  V30 6155 H 561.813 -4.33517 -0.156785 0
M  V30 6156 H 562.484 -5.32419 -1.45719 0
M  V30 6157 H 564.96 -3.54049 -2.18607 0
M  V30 6158 H 563.836 -4.4218 -3.25219 0
M  V30 6159 H 564.097 -2.70236 -3.49893 0
M  V30 6160 N 563.156 0.464375 -1.50603 0
M  V30 6161 C 564.066 1.58723 -1.72754 0
M  V30 6162 C 565.082 1.62925 -0.610844 0
M  V30 6163 O 566.258 1.8067 -0.889963 0
M  V30 6164 C 563.323 2.94897 -1.82309 0
M  V30 6165 C 562.384 3.0103 -3.06071 0
M  V30 6166 C 561.617 4.30708 -3.1516 0
M  V30 6167 O 561.84 5.2159 -2.30868 0
M  V30 6168 O 560.774 4.42571 -4.0794 0
M  V30 6169 H 564.6 1.42954 -2.67951 0
M  V30 6170 H 562.185 0.644579 -1.3478 0
M  V30 6171 H 564.067 3.75764 -1.90735 0
M  V30 6172 H 562.742 3.10851 -0.902967 0
M  V30 6173 H 561.649 2.19217 -3.03142 0
M  V30 6174 H 562.982 2.90014 -3.97684 0
M  V30 6175 N 564.634 1.40294 0.718013 0
M  V30 6176 C 565.88 1.38645 1.48005 0
M  V30 6177 C 566.213 -0.0121202 1.94196 0
M  V30 6178 O 565.488 -0.980309 1.67989 0
M  V30 6179 C 565.771 2.37379 2.70782 0
M  V30 6180 C 565.624 3.8625 2.30501 0
M  V30 6181 C 566.943 2.33685 3.72933 0
M  V30 6182 H 564.062 0.504928 0.536858 0
M  V30 6183 H 566.704 1.71411 0.819649 0
M  V30 6184 H 564.854 2.09568 3.27129 0
M  V30 6185 H 566.526 4.24879 1.79655 0
M  V30 6186 H 564.769 4.02202 1.6253 0
M  V30 6187 H 565.44 4.50847 3.18498 0
M  V30 6188 H 567.916 2.58314 3.2621 0
M  V30 6189 H 566.792 3.0482 4.56482 0
M  V30 6190 H 567.053 1.34765 4.21059 0
M  V30 6191 N 566.112 -0.949982 1.2575 0
M  V30 6192 C 567.042 -2.06483 1.09028 0
M  V30 6193 C 568.023 -1.701 -0.00201532 0
M  V30 6194 O 569.208 -1.93469 0.168383 0
M  V30 6195 C 566.338 -3.39899 0.71316 0
M  V30 6196 C 565.292 -3.90309 1.75621 0
M  V30 6197 C 564.618 -5.20274 1.23365 0
M  V30 6198 C 565.918 -4.16169 3.15596 0
M  V30 6199 H 567.612 -2.20731 2.02283 0
M  V30 6200 H 565.158 -1.06066 0.973964 0
M  V30 6201 H 567.111 -4.17346 0.58309 0
M  V30 6202 H 565.835 -3.25602 -0.255091 0
M  V30 6203 H 564.494 -3.15035 1.8748 0
M  V30 6204 H 564.142 -5.02351 0.255491 0
M  V30 6205 H 563.842 -5.54971 1.93082 0
M  V30 6206 H 565.366 -6.00314 1.11607 0
M  V30 6207 H 566.78 -4.84259 3.06864 0
M  V30 6208 H 565.177 -4.62131 3.82825 0
M  V30 6209 H 566.247 -3.22273 3.6231 0
M  V30 6210 N 567.59 -1.07411 -1.15328 0
M  V30 6211 C 568.52 -0.716472 -2.22236 0
M  V30 6212 C 569.501 0.296373 -1.67498 0
M  V30 6213 O 570.686 0.168989 -1.93463 0
M  V30 6214 C 567.816 -0.114142 -3.47112 0
M  V30 6215 C 566.77 -1.05421 -4.14814 0
M  V30 6216 C 566.096 -0.314604 -5.33774 0
M  V30 6217 C 567.396 -2.38808 -4.64508 0
M  V30 6218 H 569.09 -1.61029 -2.52408 0
M  V30 6219 H 566.636 -0.775702 -1.21321 0
M  V30 6220 H 568.589 0.148001 -4.2114 0
M  V30 6221 H 567.313 0.814755 -3.16274 0
M  V30 6222 H 565.972 -1.30128 -3.42728 0
M  V30 6223 H 565.62 0.617772 -4.99192 0
M  V30 6224 H 565.32 -0.941209 -5.80013 0
M  V30 6225 H 566.844 -0.0602747 -6.1057 0
M  V30 6226 H 568.258 -2.18424 -5.3006 0
M  V30 6227 H 566.655 -2.97069 -5.21412 0
M  V30 6228 H 567.725 -3.01067 -3.80114 0
M  V30 6229 N 569.068 1.32177 -0.85831 0
M  V30 6230 C 570.479 1.79381 -0.517621 0
M  V30 6231 C 570.83 1.70841 0.964769 0
M  V30 6232 O 569.955 1.26917 1.75274 0
M  V30 6233 C 570.55 3.25706 -0.932801 0
M  V30 6234 C 569.109 3.70851 -0.643953 0
M  V30 6235 C 568.256 2.53208 -1.13054 0
M  V30 6236 H 571.207 1.19424 -1.04516 0
M  V30 6237 H 571.228 3.79673 -0.250674 0
M  V30 6238 H 570.74 3.31889 -2.01174 0
M  V30 6239 H 568.841 3.70178 0.424112 0
M  V30 6240 H 568.954 4.63495 -1.21281 0
M  V30 6241 H 567.318 2.48676 -0.550679 0
M  V30 6242 H 568.101 2.62143 -2.21666 0
M  V30 6243 N 570.547 0.616602 1.45037 0
M  V30 6244 C 571.824 0.0469086 1.95544 0
M  V30 6245 C 572.204 -1.42345 1.55888 0
M  V30 6246 O 571.552 -2.13055 0.825824 0
M  V30 6247 C 571.762 0.254489 3.48071 0
M  V30 6248 C 573.11 0.140025 4.24369 0
M  V30 6249 O 574.134 0.185084 3.55719 0
M  V30 6250 O 572.993 0.0327034 5.4649 0
M  V30 6251 H 570.087 -0.0306051 0.826433 0
M  V30 6252 H 572.633 0.687293 1.55159 0
M  V30 6253 H 571.405 1.27532 3.69934 0
M  V30 6254 H 571.028 -0.42073 3.95368 0
M  V30 6255 N 572.025 -1.5352 0.356285 0
M  V30 6256 C 572.972 -2.25439 -0.494569 0
M  V30 6257 C 573.942 -1.25752 -1.08516 0
M  V30 6258 O 575.127 -1.54513 -1.1194 0
M  V30 6259 C 572.267 -3.04011 -1.63313 0
M  V30 6260 C 571.38 -4.18574 -1.06862 0
M  V30 6261 C 570.515 -4.84607 -2.17552 0
M  V30 6262 C 569.554 -5.91218 -1.58518 0
M  V30 6263 N 568.691 -6.50979 -2.63003 0
M  V30 6264 H 573.531 -2.97737 0.125244 0
M  V30 6265 H 571.068 -1.46916 0.0735789 0
M  V30 6266 H 573.026 -3.47834 -2.30363 0
M  V30 6267 H 571.656 -2.33986 -2.22374 0
M  V30 6268 H 570.708 -3.79303 -0.288672 0
M  V30 6269 H 572.02 -4.95215 -0.596924 0
M  V30 6270 H 571.174 -5.31566 -2.92442 0
M  V30 6271 H 569.913 -4.07418 -2.6807 0
M  V30 6272 H 568.918 -5.4363 -0.821391 0
M  V30 6273 H 570.143 -6.70322 -1.08836 0
M  V30 6274 H 568.089 -5.76648 -3.12751 0
M  V30 6275 H 568.006 -7.23131 -2.20493 0
M  V30 6276 H 569.274 -7.02589 -3.37623 0
M  V30 6277 N 573.503 -0.0852151 -1.57369 0
M  V30 6278 C 574.466 0.8627 -2.12344 0
M  V30 6279 C 575.466 1.21746 -1.05046 0
M  V30 6280 O 576.656 1.14852 -1.30976 0
M  V30 6281 C 573.788 2.1618 -2.63589 0
M  V30 6282 H 574.981 0.385511 -2.97412 0
M  V30 6283 H 572.534 0.163663 -1.55441 0
M  V30 6284 H 573.269 2.68406 -1.82013 0
M  V30 6285 H 573.054 1.91723 -3.4203 0
M  V30 6286 H 574.544 2.84011 -3.06149 0
M  V30 6287 N 574.981 1.5647 0.188427 0
M  V30 6288 C 576.206 1.85486 0.927891 0
M  V30 6289 C 576.631 0.669575 1.75779 0
M  V30 6290 O 575.989 -0.381573 1.77239 0
M  V30 6291 C 576.037 3.12784 1.7944 0
M  V30 6292 O 575.141 2.93805 2.894 0
M  V30 6293 H 574.482 0.610585 0.260925 0
M  V30 6294 H 577.012 2.037 0.191729 0
M  V30 6295 H 577.022 3.43749 2.19774 0
M  V30 6296 H 575.697 3.98671 1.18468 0
M  V30 6297 H 574.274 2.74153 2.52774 0
M  V30 6298 N 576.459 -0.456382 1.50847 0
M  V30 6299 C 577.369 -1.57805 1.73594 0
M  V30 6300 C 578.385 -1.62599 0.619476 0
M  V30 6301 O 579.561 -1.80195 0.899532 0
M  V30 6302 C 576.626 -2.93926 1.8387 0
M  V30 6303 C 575.687 -2.99402 3.07663 0
M  V30 6304 C 574.92 -4.29031 3.1744 0
M  V30 6305 O 575.143 -5.20358 2.33631 0
M  V30 6306 O 574.077 -4.40401 4.10281 0
M  V30 6307 H 577.903 -1.41531 2.68705 0
M  V30 6308 H 575.488 -0.637422 1.3512 0
M  V30 6309 H 577.37 -3.74747 1.92725 0
M  V30 6310 H 576.045 -3.10368 0.91944 0
M  V30 6311 H 574.952 -2.17606 3.043 0
M  V30 6312 H 576.285 -2.87901 3.99216 0
M  V30 6313 N 577.937 -1.40673 -0.710563 0
M  V30 6314 C 578.847 -1.43663 -1.85467 0
M  V30 6315 C 579.863 -0.328721 -1.70867 0
M  V30 6316 O 581.039 -0.574098 -1.93044 0
M  V30 6317 C 578.104 -1.30226 -3.21313 0
M  V30 6318 C 577.165 -2.51204 -3.48131 0
M  V30 6319 C 576.398 -2.38398 -4.77495 0
M  V30 6320 O 576.621 -1.40048 -5.5294 0
M  V30 6321 O 575.555 -3.2787 -5.04762 0
M  V30 6322 H 579.381 -2.40156 -1.859 0
M  V30 6323 H 576.966 -1.22049 -0.861652 0
M  V30 6324 H 578.848 -1.2496 -4.02446 0
M  V30 6325 H 577.523 -0.368419 -3.21597 0
M  V30 6326 H 576.43 -2.62048 -2.66987 0
M  V30 6327 H 577.763 -3.43366 -3.52648 0
M  V30 6328 N 579.415 0.9433 -1.26252 0
M  V30 6329 C 580.362 2.0417 -1.07625 0
M  V30 6330 C 581.332 1.6609 0.0180738 0
M  V30 6331 O 582.517 1.90276 -0.141289 0
M  V30 6332 C 579.657 3.37653 -0.713043 0
M  V30 6333 C 578.77 3.88783 -1.8834 0
M  V30 6334 C 577.905 5.10642 -1.4635 0
M  V30 6335 C 576.944 5.54028 -2.60229 0
M  V30 6336 N 576.081 6.67092 -2.18936 0
M  V30 6337 H 580.921 2.19436 -2.01623 0
M  V30 6338 H 578.458 1.07519 -1.00389 0
M  V30 6339 H 580.416 4.14391 -0.483358 0
M  V30 6340 H 579.046 3.22241 0.18996 0
M  V30 6341 H 578.098 3.08464 -2.22608 0
M  V30 6342 H 579.41 4.16922 -2.73821 0
M  V30 6343 H 578.564 5.94832 -1.19414 0
M  V30 6344 H 577.303 4.84244 -0.579568 0
M  V30 6345 H 576.308 4.68396 -2.87898 0
M  V30 6346 H 577.533 5.82429 -3.49219 0
M  V30 6347 H 575.479 6.42381 -1.32974 0
M  V30 6348 H 575.396 6.94806 -2.97961 0
M  V30 6349 H 576.664 7.54662 -1.95206 0
M  V30 6350 N 580.893 1.08022 1.14757 0
M  V30 6351 C 581.826 0.650738 2.18725 0
M  V30 6352 C 582.804 -0.335496 1.59101 0
M  V30 6353 O 583.988 -0.240295 1.86962 0
M  V30 6354 C 581.115 -0.0434377 3.38672 0
M  V30 6355 C 580.161 0.90232 4.16846 0
M  V30 6356 S 580.994 2.40693 4.78359 0
M  V30 6357 C 582.15 1.72475 6.01667 0
M  V30 6358 H 582.383 1.53152 2.54817 0
M  V30 6359 H 579.916 0.894823 1.25826 0
M  V30 6360 H 581.874 -0.437684 4.0816 0
M  V30 6361 H 580.535 -0.900659 3.0091 0
M  V30 6362 H 579.728 0.363445 5.02688 0
M  V30 6363 H 579.33 1.23728 3.52941 0
M  V30 6364 H 581.622 1.0404 6.69464 0
M  V30 6365 H 582.565 2.56175 6.60136 0
M  V30 6366 H 582.973 1.19979 5.51602 0
M  V30 6367 N 582.371 -1.3172 0.865308 0
M  V30 6368 C 583.318 -2.2863 0.315736 0
M  V30 6369 C 584.288 -1.55524 -0.583213 0
M  V30 6370 O 585.473 -1.83694 -0.51585 0
M  V30 6371 C 582.613 -3.41735 -0.480773 0
M  V30 6372 C 581.726 -4.297 0.445167 0
M  V30 6373 C 580.861 -5.29944 -0.365012 0
M  V30 6374 C 579.9 -6.09554 0.557651 0
M  V30 6375 N 579.037 -7.01768 -0.215994 0
M  V30 6376 H 583.877 -2.75026 1.14736 0
M  V30 6377 H 581.414 -1.35302 0.577209 0
M  V30 6378 H 583.372 -4.06045 -0.958306 0
M  V30 6379 H 582.002 -2.96461 -1.27714 0
M  V30 6380 H 581.054 -3.65875 1.04113 0
M  V30 6381 H 582.366 -4.85295 1.15284 0
M  V30 6382 H 581.52 -5.99908 -0.905255 0
M  V30 6383 H 580.259 -4.74994 -1.106 0
M  V30 6384 H 579.264 -5.38485 1.10969 0
M  V30 6385 H 580.489 -6.66591 1.29742 0
M  V30 6386 H 578.435 -6.49232 -0.939878 0
M  V30 6387 H 578.352 -7.54762 0.432431 0
M  V30 6388 H 579.62 -7.76002 -0.737618 0
M  V30 6389 N 583.85 -0.624285 -1.44708 0
M  V30 6390 C 584.782 0.12305 -2.28869 0
M  V30 6391 C 585.795 0.81557 -1.40898 0
M  V30 6392 O 586.984 0.678162 -1.65116 0
M  V30 6393 C 584.084 1.19612 -3.1709 0
M  V30 6394 C 583.257 0.587452 -4.33437 0
M  V30 6395 C 582.316 1.55358 -5.02743 0
M  V30 6396 O 581.341 1.07338 -5.58988 0
M  V30 6397 N 582.543 2.88798 -5.03563 0
M  V30 6398 H 585.308 -0.599193 -2.93649 0
M  V30 6399 H 582.87 -0.464954 -1.5508 0
M  V30 6400 H 584.861 1.84261 -3.60319 0
M  V30 6401 H 583.432 1.82067 -2.54107 0
M  V30 6402 H 582.652 -0.237509 -3.93484 0
M  V30 6403 H 583.94 0.161326 -5.08544 0
M  V30 6404 H 583.338 3.30399 -4.59188 0
M  V30 6405 H 581.894 3.48826 -5.50603 0
M  V30 6406 N 585.328 1.53329 -0.364422 0
M  V30 6407 C 586.258 2.28627 0.474543 0
M  V30 6408 C 587.239 1.31009 1.08492 0
M  V30 6409 O 588.424 1.59878 1.10239 0
M  V30 6410 C 585.554 3.07465 1.61501 0
M  V30 6411 C 584.508 4.1276 1.13194 0
M  V30 6412 C 583.834 4.79674 2.36255 0
M  V30 6413 C 585.134 5.21847 0.217507 0
M  V30 6414 H 586.828 2.99005 -0.153656 0
M  V30 6415 H 584.374 1.43803 -0.0753406 0
M  V30 6416 H 586.327 3.58889 2.20855 0
M  V30 6417 H 585.051 2.34775 2.27042 0
M  V30 6418 H 583.71 3.62281 0.56109 0
M  V30 6419 H 583.358 4.03557 3.00251 0
M  V30 6420 H 583.058 5.50827 2.04606 0
M  V30 6421 H 584.582 5.33892 2.96297 0
M  V30 6422 H 585.996 5.6878 0.718493 0
M  V30 6423 H 584.393 6.00099 -0.00806408 0
M  V30 6424 H 585.463 4.7921 -0.740653 0
M  V30 6425 N 586.806 0.0935595 1.57322 0
M  V30 6426 C 588.054 -0.569383 1.93913 0
M  V30 6427 C 588.375 -1.68817 0.976009 0
M  V30 6428 O 587.645 -1.9588 0.0278099 0
M  V30 6429 H 586.225 -0.21332 0.715894 0
M  V30 6430 H 588.887 0.156531 1.9427 0
M  V30 6431 H 587.983 -0.980577 2.96296 0
M  V30 6432 N 588.284 -1.56567 -0.180126 0
M  V30 6433 C 589.247 -1.94852 -1.20686 0
M  V30 6434 C 590.247 -0.831212 -1.3765 0
M  V30 6435 O 591.437 -1.09841 -1.35206 0
M  V30 6436 C 588.569 -2.23565 -2.57355 0
M  V30 6437 H 589.762 -2.86722 -0.879225 0
M  V30 6438 H 587.315 -1.50489 -0.422237 0
M  V30 6439 H 588.05 -1.34381 -2.95148 0
M  V30 6440 H 587.835 -3.04999 -2.46411 0
M  V30 6441 H 589.325 -2.54137 -3.31367 0
M  V30 6442 N 589.762 0.448376 -1.51087 0
M  V30 6443 C 591.01 1.19635 -1.62886 0
M  V30 6444 C 591.331 1.91977 -0.342024 0
M  V30 6445 O 590.601 1.85094 0.641636 0
M  V30 6446 H 589.181 0.444598 -0.600285 0
M  V30 6447 H 591.843 0.515138 -1.87969 0
M  V30 6448 H 590.939 1.93194 -2.45117 0
M  V30 6449 N 591.24 1.41047 0.703093 0
M  V30 6450 C 592.468 1.4334 1.49202 0
M  V30 6451 C 592.883 0.0365596 1.88765 0
M  V30 6452 O 592.24 -0.942419 1.56284 0
M  V30 6453 C 592.291 2.33538 2.75939 0
M  V30 6454 O 592.012 3.67786 2.38045 0
M  V30 6455 C 593.513 2.44555 3.6974 0
M  V30 6456 H 590.733 0.488472 0.460039 0
M  V30 6457 H 593.277 1.85245 0.86629 0
M  V30 6458 H 591.432 1.94962 3.34766 0
M  V30 6459 H 591.846 4.15816 3.19683 0
M  V30 6460 H 593.32 3.11849 4.55471 0
M  V30 6461 H 593.797 1.47447 4.1371 0
M  V30 6462 H 594.403 2.83735 3.16819 0
M  V30 6463 N 592.718 -0.936591 1.26751 0
M  V30 6464 C 594.129 -1.49816 1.1141 0
M  V30 6465 C 594.48 -1.9383 -0.304015 0
M  V30 6466 O 593.605 -1.80346 -1.196 0
M  V30 6467 C 594.2 -2.72271 2.01629 0
M  V30 6468 C 592.759 -3.2468 1.9042 0
M  V30 6469 C 591.906 -1.97444 1.94708 0
M  V30 6470 H 594.857 -0.751604 1.39773 0
M  V30 6471 H 594.878 -3.46741 1.56688 0
M  V30 6472 H 594.39 -2.40205 3.04833 0
M  V30 6473 H 592.491 -3.61525 0.901674 0
M  V30 6474 H 592.604 -3.91476 2.76195 0
M  V30 6475 H 590.968 -2.13545 1.38818 0
M  V30 6476 H 591.751 -1.67703 2.9955 0
M  V30 6477 N 594.196 -1.08629 -1.14182 0
M  V30 6478 C 595.143 -0.718299 -2.19338 0
M  V30 6479 C 596.113 0.296587 -1.63431 0
M  V30 6480 O 597.298 0.180079 -1.89948 0
M  V30 6481 C 594.438 -0.136203 -3.44831 0
M  V30 6482 C 593.551 -1.20414 -4.14879 0
M  V30 6483 C 592.686 -0.585666 -5.27962 0
M  V30 6484 C 591.725 -1.63548 -5.89846 0
M  V30 6485 N 590.862 -1.03864 -6.94375 0
M  V30 6486 H 595.702 -1.61932 -2.50164 0
M  V30 6487 H 593.239 -0.80919 -1.22844 0
M  V30 6488 H 595.197 0.219021 -4.16625 0
M  V30 6489 H 593.827 0.728121 -3.14481 0
M  V30 6490 H 592.879 -1.67676 -3.41451 0
M  V30 6491 H 594.191 -1.99959 -4.56966 0
M  V30 6492 H 593.345 -0.178818 -6.06436 0
M  V30 6493 H 592.084 0.24142 -4.87102 0
M  V30 6494 H 591.089 -2.05197 -5.10073 0
M  V30 6495 H 592.314 -2.46509 -6.3278 0
M  V30 6496 H 590.26 -0.232687 -6.55587 0
M  V30 6497 H 590.177 -1.77116 -7.3496 0
M  V30 6498 H 591.445 -0.657724 -7.7672 0
M  V30 6499 O 595.713 1.26359 -1.00577 0
M  V30 6500 H 596.404 1.82071 -0.661052 0
M  V30 END ATOM
M  V30 BEGIN BOND
M  V30 END BOND
M  V30 END CTAB
M  END
$$$$
