drugbank_target|O77361 Parasite-infected erythrocyte surface protein (DB11638)
 OpenBabel12092121113D

  0  0  0     0  0            999 V3000
M  V30 BEGIN CTAB
M  V30 COUNTS 21209 21419 0 0 0
M  V30 BEGIN ATOM
M  V30 1 H -0.908 1.98254 -0.117106 0
M  V30 2 N 0 1.576 0 0
M  V30 3 C 0.933 2.03868 1.02534 0
M  V30 4 C 1.911 0.928543 1.3348 0
M  V30 5 O 3.095 1.19667 1.45644 0
M  V30 6 C 0.222 2.43627 2.35294 0
M  V30 7 C -0.732 3.65373 2.2001 0
M  V30 8 S 0.101 5.13292 1.52614 0
M  V30 9 C 1.257 5.56322 2.86805 0
M  V30 10 H 1.49 2.90518 0.631377 0
M  V30 11 H -0.977 1.52953 0.210867 0
M  V30 12 H 0.981 2.67203 3.11629 0
M  V30 13 H -0.358 1.57376 2.7183 0
M  V30 14 H -1.165 3.90944 3.18086 0
M  V30 15 H -1.563 3.418 1.51819 0
M  V30 16 H 0.729 5.58782 3.83104 0
M  V30 17 H 1.672 6.56266 2.65933 0
M  V30 18 H 2.08 4.83886 2.90714 0
M  V30 19 N 1.4781 -0.272755 1.55222 0
M  V30 20 C 2.4251 -1.33716 1.88119 0
M  V30 21 C 3.3951 -1.49066 0.73271 0
M  V30 22 O 4.5801 -1.63469 0.984002 0
M  V30 23 C 1.7201 -2.69238 2.15882 0
M  V30 24 C 0.8331 -2.62108 3.43399 0
M  V30 25 C -0.0319 -3.89811 3.60861 0
M  V30 26 C -0.9929 -3.77193 4.8207 0
M  V30 27 N -1.8559 -4.9673 4.96189 0
M  V30 28 H 2.9841 -1.04962 2.78903 0
M  V30 29 H 0.5211 -0.507088 1.38083 0
M  V30 30 H 2.4791 -3.48089 2.29978 0
M  V30 31 H 1.1091 -2.96194 1.28331 0
M  V30 32 H 0.1611 -1.74967 3.37773 0
M  V30 33 H 1.4731 -2.48685 4.32386 0
M  V30 34 H 0.6271 -4.77103 3.74777 0
M  V30 35 H -0.6339 -4.06102 2.7006 0
M  V30 36 H -1.6289 -2.88284 4.68159 0
M  V30 37 H -0.4039 -3.62421 5.74307 0
M  V30 38 H -2.4579 -5.13431 4.08319 0
M  V30 39 H -2.5409 -4.85839 5.79221 0
M  V30 40 H -1.2729 -5.85594 5.1449 0
M  V30 41 N 2.9562 -1.48159 -0.537278 0
M  V30 42 C 4.2022 -1.56035 -1.29541 0
M  V30 43 C 4.5352 -0.230377 -1.92829 0
M  V30 44 O 3.8102 0.762952 -1.78911 0
M  V30 45 C 4.0932 -2.69323 -2.39034 0
M  V30 46 C 3.9462 -4.12002 -1.80485 0
M  V30 47 C 5.2652 -2.78408 -3.40847 0
M  V30 48 H 2.3842 -0.567992 -0.469632 0
M  V30 49 H 5.0262 -1.80302 -0.599277 0
M  V30 50 H 3.1762 -2.48763 -2.98412 0
M  V30 51 H 4.8482 -4.43981 -1.25215 0
M  V30 52 H 3.0912 -4.19344 -1.11055 0
M  V30 53 H 3.7622 -4.87077 -2.59731 0
M  V30 54 H 6.2382 -2.97012 -2.91416 0
M  V30 55 H 5.1142 -3.59416 -4.14863 0
M  V30 56 H 5.3752 -1.86269 -4.00944 0
M  V30 57 N 4.4343 0.785586 -1.36625 0
M  V30 58 C 5.6823 1.54057 -1.30808 0
M  V30 59 C 6.0033 1.94683 0.111157 0
M  V30 60 O 5.2733 1.65241 1.05224 0
M  V30 61 H 3.8533 0.571354 -0.481211 0
M  V30 62 H 6.5153 0.935821 -1.70963 0
M  V30 63 H 5.6113 2.44637 -1.93801 0
M  V30 64 N 5.9124 1.20967 1.01018 0
M  V30 65 C 7.1614 1.01796 1.74128 0
M  V30 66 C 7.4744 -0.449691 1.90361 0
M  V30 67 O 8.6804 -0.76068 2.60626 0
M  V30 68 C 7.1364 1.7727 3.13215 0
M  V30 69 C 6.7444 3.28171 3.04972 0
M  V30 70 C 8.4884 1.66489 3.90489 0
M  V30 71 C 6.3954 3.96156 4.39107 0
M  V30 72 H 5.3254 0.377276 0.652824 0
M  V30 73 H 7.9764 1.44651 1.12909 0
M  V30 74 H 6.3584 1.27205 3.75013 0
M  V30 75 H 7.5324 3.85499 2.52443 0
M  V30 76 H 5.8474 3.39437 2.41188 0
M  V30 77 H 8.4444 2.14617 4.89738 0
M  V30 78 H 8.7874 0.6222 4.11624 0
M  V30 79 H 9.3204 2.14003 3.35332 0
M  V30 80 H 6.0594 5.00604 4.23174 0
M  V30 81 H 5.5794 3.43617 4.91617 0
M  V30 82 H 7.2584 4.00774 5.07926 0
M  V30 83 N 7.3905 -1.2043 1.01659 0
M  V30 84 C 8.6395 -1.89118 0.701237 0
M  V30 85 C 8.9525 -1.79705 -0.772358 0
M  V30 86 O 10.1585 -2.43528 -1.20026 0
M  V30 87 C 8.6145 -3.39168 1.20388 0
M  V30 88 C 8.2225 -3.57166 2.70438 0
M  V30 89 C 9.9665 -4.1341 0.963953 0
M  V30 90 C 7.8735 -5.01042 3.14183 0
M  V30 91 H 6.8035 -0.708267 0.2586 0
M  V30 92 H 9.4545 -1.36239 1.22927 0
M  V30 93 H 7.8365 -3.91369 0.603824 0
M  V30 94 H 9.0105 -3.15351 3.35992 0
M  V30 95 H 7.3255 -2.96294 2.92572 0
M  V30 96 H 9.9225 -5.19491 1.26621 0
M  V30 97 H 10.2655 -4.16181 -0.099578 0
M  V30 98 H 10.7985 -3.67309 1.52738 0
M  V30 99 H 7.5375 -5.03426 4.19812 0
M  V30 100 H 7.0575 -5.43668 2.53348 0
M  V30 101 H 8.7365 -5.69623 3.0682 0
M  V30 102 N 8.8686 -0.792821 -1.36206 0
M  V30 103 C 10.1156 -0.366786 -1.99151 0
M  V30 104 C 10.4436 1.06243 -1.62919 0
M  V30 105 O 9.6986 1.74927 -0.877442 0
M  V30 106 C 9.9976 -0.481501 -3.54142 0
M  V30 107 C 9.6636 -1.87202 -4.10203 0
M  V30 108 C 8.3256 -2.25248 -4.25226 0
M  V30 109 C 10.6776 -2.78237 -4.40719 0
M  V30 110 C 8.0056 -3.53723 -4.68078 0
M  V30 111 C 10.3576 -4.06144 -4.85005 0
M  V30 112 C 9.0216 -4.44207 -4.98234 0
M  V30 113 H 8.2916 -0.134217 -0.728743 0
M  V30 114 H 10.9386 -1.01094 -1.62641 0
M  V30 115 H 9.2436 0.246146 -3.91026 0
M  V30 116 H 10.9406 -0.132844 -4.0078 0
M  V30 117 H 7.5306 -1.56639 -3.98951 0
M  V30 118 H 11.7146 -2.50097 -4.28679 0
M  V30 119 H 6.9706 -3.8308 -4.76508 0
M  V30 120 H 11.1446 -4.76796 -5.07581 0
M  V30 121 H 8.7716 -5.43814 -5.31197 0
M  V30 122 N 10.3467 1.47872 -0.545128 0
M  V30 123 C 11.5937 2.02493 -0.0165858 0
M  V30 124 C 11.9217 1.42073 1.32836 0
M  V30 125 O 11.1767 0.561459 1.87473 0
M  V30 126 C 11.4757 3.57131 0.13867 0
M  V30 127 C 11.1417 4.36411 -1.13384 0
M  V30 128 C 9.8037 4.57792 -1.48256 0
M  V30 129 C 12.1557 4.82223 -1.97764 0
M  V30 130 C 9.4837 5.22233 -2.67376 0
M  V30 131 C 11.8357 5.47977 -3.16076 0
M  V30 132 C 10.4997 5.67593 -3.51275 0
M  V30 133 H 9.7697 0.740975 -0.00606918 0
M  V30 134 H 12.4167 1.77683 -0.714207 0
M  V30 135 H 10.7217 3.80865 0.919172 0
M  V30 136 H 12.4187 3.97031 0.562782 0
M  V30 137 H 9.0087 4.2004 -0.852297 0
M  V30 138 H 13.1927 4.65493 -1.72132 0
M  V30 139 H 8.4487 5.35616 -2.94831 0
M  V30 140 H 12.6227 5.8244 -3.81755 0
M  V30 141 H 10.2497 6.17298 -4.43675 0
M  V30 142 N 11.8248 0.280983 1.55075 0
M  V30 143 C 13.0648 -0.335234 2.01632 0
M  V30 144 C 13.4288 -1.5261 1.16508 0
M  V30 145 O 14.6298 -2.21235 1.52672 0
M  V30 146 C 12.9008 -0.702172 3.50434 0
M  V30 147 S 14.4598 -1.30409 4.18974 0
M  V30 148 H 11.2778 -0.103967 0.703358 0
M  V30 149 H 13.8798 0.404187 1.91276 0
M  V30 150 H 12.5838 0.17333 4.10034 0
M  V30 151 H 12.1148 -1.4729 3.64786 0
M  V30 152 H 14.1298 -2.59253 4.23087 0
M  V30 153 N 13.3029 -1.57598 0.00835791 0
M  V30 154 C 14.2329 -2.1198 -0.979113 0
M  V30 155 C 15.2139 -1.03091 -1.35301 0
M  V30 156 O 16.3989 -1.30818 -1.43528 0
M  V30 157 C 13.5289 -2.62995 -2.26828 0
M  V30 158 C 12.4829 -3.76485 -2.03576 0
M  V30 159 C 11.8089 -4.13846 -3.38579 0
M  V30 160 C 13.1089 -5.0342 -1.39161 0
M  V30 161 H 14.8029 -2.94738 -0.526281 0
M  V30 162 H 12.3489 -1.41783 -0.251704 0
M  V30 163 H 14.3019 -2.99669 -2.96271 0
M  V30 164 H 13.0259 -1.7737 -2.7424 0
M  V30 165 H 11.6849 -3.40217 -1.36557 0
M  V30 166 H 11.3329 -3.25232 -3.83709 0
M  V30 167 H 11.0329 -4.90312 -3.23834 0
M  V30 168 H 12.5569 -4.53086 -4.09323 0
M  V30 169 H 13.9709 -5.37812 -1.98573 0
M  V30 170 H 12.3679 -5.84746 -1.34878 0
M  V30 171 H 13.4379 -4.83548 -0.361868 0
M  V30 172 N 14.781 0.264519 -1.55364 0
M  V30 173 C 16.028 0.994986 -1.7637 0
M  V30 174 C 16.356 1.85976 -0.5695 0
M  V30 175 O 15.611 1.90509 0.44776 0
M  V30 176 C 15.91 1.9004 -3.02687 0
M  V30 177 C 15.576 1.19243 -4.34847 0
M  V30 178 C 14.238 0.996709 -4.70764 0
M  V30 179 C 16.59 0.689296 -5.16622 0
M  V30 180 C 13.918 0.285261 -5.86006 0
M  V30 181 C 16.27 -0.00860079 -6.32599 0
M  V30 182 C 14.934 -0.215963 -6.67151 0
M  V30 183 H 14.204 0.364091 -0.645383 0
M  V30 184 H 16.851 0.266543 -1.89636 0
M  V30 185 H 15.156 2.69533 -2.84357 0
M  V30 186 H 16.853 2.46695 -3.16137 0
M  V30 187 H 13.443 1.3549 -4.06621 0
M  V30 188 H 17.627 0.828108 -4.89342 0
M  V30 189 H 12.883 0.113961 -6.11294 0
M  V30 190 H 17.057 -0.406186 -6.95214 0
M  V30 191 H 14.684 -0.769217 -7.56298 0
M  V30 192 N 16.2591 1.48442 0.529413 0
M  V30 193 C 17.5061 1.56488 1.28521 0
M  V30 194 C 17.8341 0.239042 1.93025 0
M  V30 195 O 17.0891 -0.770713 1.79885 0
M  V30 196 C 17.3881 2.6523 2.39558 0
M  V30 197 C 17.0541 4.07648 1.92702 0
M  V30 198 C 15.7161 4.46411 1.79641 0
M  V30 199 C 18.0681 4.96896 1.573 0
M  V30 200 C 15.3961 5.72226 1.29514 0
M  V30 201 C 17.7481 6.23202 1.08636 0
M  V30 202 C 16.4121 6.60821 0.941919 0
M  V30 203 H 15.6821 0.572631 0.470292 0
M  V30 204 H 18.3291 1.82161 0.59072 0
M  V30 205 H 16.6341 2.33419 3.14679 0
M  V30 206 H 18.3311 2.68671 2.97686 0
M  V30 207 H 14.9211 3.77036 2.03819 0
M  V30 208 H 19.1051 4.67626 1.66251 0
M  V30 209 H 14.3611 6.00097 1.17019 0
M  V30 210 H 18.5351 6.91753 0.803136 0
M  V30 211 H 16.1621 7.58198 0.5513 0
M  V30 212 N 17.7372 -0.778329 1.37039 0
M  V30 213 C 18.9842 -1.53665 1.31884 0
M  V30 214 C 19.3122 -1.9425 -0.0986303 0
M  V30 215 O 18.5672 -1.63832 -1.07041 0
M  V30 216 C 18.8662 -2.81845 2.19768 0
M  V30 217 C 18.5322 -2.60345 3.68146 0
M  V30 218 C 17.1942 -2.5419 4.08584 0
M  V30 219 C 19.5462 -2.40923 4.62175 0
M  V30 220 C 16.8742 -2.26594 5.41177 0
M  V30 221 C 19.2262 -2.14852 5.94997 0
M  V30 222 C 17.8902 -2.07137 6.34547 0
M  V30 223 H 17.1602 -0.562299 0.482598 0
M  V30 224 H 19.8072 -0.897069 1.69189 0
M  V30 225 H 18.1122 -3.50328 1.75436 0
M  V30 226 H 19.8092 -3.39692 2.13097 0
M  V30 227 H 16.3992 -2.65996 3.36072 0
M  V30 228 H 20.5832 -2.44673 4.31797 0
M  V30 229 H 15.8392 -2.19111 5.70789 0
M  V30 230 H 20.0132 -1.98822 6.67415 0
M  V30 231 H 17.6402 -1.85518 7.37216 0
M  V30 232 N 19.2153 -1.21501 -1.00376 0
M  V30 233 C 20.4613 -1.03452 -1.74429 0
M  V30 234 C 20.7943 0.430764 -1.89362 0
M  V30 235 O 20.0693 1.31962 -1.42886 0
M  V30 236 C 20.3523 -1.73375 -3.15615 0
M  V30 237 C 20.2053 -3.27431 -3.08397 0
M  V30 238 C 21.5243 -1.47732 -4.14564 0
M  V30 239 H 18.6433 -0.377226 -0.633143 0
M  V30 240 H 21.2853 -1.49693 -1.17013 0
M  V30 241 H 19.4353 -1.34064 -3.64636 0
M  V30 242 H 21.1073 -3.76119 -2.67081 0
M  V30 243 H 19.3503 -3.5767 -2.45468 0
M  V30 244 H 20.0213 -3.71524 -4.08258 0
M  V30 245 H 22.4973 -1.8186 -3.74254 0
M  V30 246 H 21.3733 -1.99169 -5.11491 0
M  V30 247 H 21.6343 -0.407589 -4.40217 0
M  V30 248 N 20.6934 1.19889 -1.02296 0
M  V30 249 C 21.9394 1.89701 -0.717033 0
M  V30 250 C 22.2724 1.7905 0.751989 0
M  V30 251 O 21.5474 1.17891 1.547 0
M  V30 252 C 21.8304 3.40858 -1.16136 0
M  V30 253 C 21.6834 3.60411 -2.69117 0
M  V30 254 C 23.0024 4.33876 -0.737549 0
M  V30 255 H 20.1214 0.688874 -0.261957 0
M  V30 256 H 22.7634 1.41154 -1.27183 0
M  V30 257 H 20.9134 3.82335 -0.689342 0
M  V30 258 H 22.5854 3.28145 -3.2422 0
M  V30 259 H 20.8284 3.03665 -3.0979 0
M  V30 260 H 21.4994 4.66396 -2.95261 0
M  V30 261 H 23.9754 4.00081 -1.14344 0
M  V30 262 H 22.8514 5.38242 -1.0764 0
M  V30 263 H 23.1124 4.40628 0.360436 0
M  V30 264 N 22.1715 0.800033 1.35784 0
M  V30 265 C 23.1015 0.220184 2.3246 0
M  V30 266 C 24.0825 -0.65073 1.57161 0
M  V30 267 O 25.2675 -0.582359 1.85263 0
M  V30 268 C 22.3975 -0.637353 3.41402 0
M  V30 269 C 21.3515 0.134531 4.27789 0
M  V30 270 C 20.6775 -0.844285 5.27992 0
M  V30 271 C 21.9775 1.32979 5.05088 0
M  V30 272 H 23.6715 1.02787 2.81203 0
M  V30 273 H 21.2175 0.495717 1.35199 0
M  V30 274 H 23.1705 -1.05302 4.08031 0
M  V30 275 H 21.8945 -1.47785 2.91251 0
M  V30 276 H 20.5535 0.531296 3.6273 0
M  V30 277 H 20.2015 -1.68011 4.74111 0
M  V30 278 H 19.9015 -0.332184 5.8666 0
M  V30 279 H 21.4255 -1.2583 5.97494 0
M  V30 280 H 22.8395 0.98934 5.64699 0
M  V30 281 H 21.2365 1.77593 5.7322 0
M  V30 282 H 22.3065 2.11978 4.36111 0
M  V30 283 N 23.6496 -1.47581 0.552962 0
M  V30 284 C 24.8976 -2.02082 0.0272703 0
M  V30 285 C 25.2186 -1.4301 -1.32563 0
M  V30 286 O 24.4886 -0.603745 -1.86365 0
M  V30 287 H 23.0686 -0.746966 0.00709182 0
M  V30 288 H 25.7306 -1.81033 0.722008 0
M  V30 289 H 24.8266 -3.12034 -0.0639951 0
M  V30 290 N 25.1277 -0.289203 -1.54924 0
M  V30 291 C 26.0907 0.579144 -2.21762 0
M  V30 292 C 27.0907 1.07047 -1.1999 0
M  V30 293 O 28.2807 0.968384 -1.44803 0
M  V30 294 C 25.4127 1.80055 -2.8947 0
M  V30 295 H 26.6057 -0.00464908 -2.999 0
M  V30 296 H 24.1587 -0.0399306 -1.56249 0
M  V30 297 H 24.8937 2.42449 -2.15381 0
M  V30 298 H 24.6787 1.45602 -3.64064 0
M  V30 299 H 26.1687 2.41773 -3.40493 0
M  V30 300 N 26.6058 1.57591 -0.0167156 0
M  V30 301 C 27.8458 1.93145 0.668902 0
M  V30 302 C 28.2098 0.892406 1.7 0
M  V30 303 O 29.4108 1.13373 2.43721 0
M  V30 304 C 27.6818 3.33678 1.28039 0
M  V30 305 S 29.2408 3.91142 1.9888 0
M  V30 306 H 26.0588 0.67593 0.220545 0
M  V30 307 H 28.6608 1.95347 -0.0774105 0
M  V30 308 H 27.3648 4.07126 0.517339 0
M  V30 309 H 26.8958 3.3489 2.06427 0
M  V30 310 H 28.9108 3.73571 3.26587 0
M  V30 311 N 28.0839 -0.256276 1.55502 0
M  V30 312 C 29.0319 -1.33694 1.90338 0
M  V30 313 C 30.0259 -1.50299 0.781441 0
M  V30 314 O 31.2319 -1.51885 0.965966 0
M  V30 315 H 27.6069 -0.447483 0.60437 0
M  V30 316 H 29.5779 -1.01574 2.8058 0
M  V30 317 C 28.3269 -2.68724 2.20642 0
M  V30 318 H 27.6499 -2.56743 3.06469 0
M  V30 319 H 29.0899 -3.43237 2.48926 0
M  V30 320 C 27.5489 -3.21101 1.01959 0
M  V30 321 O 28.0789 -4.0084 0.262762 0
M  V30 322 N 26.2849 -2.79003 0.812746 0
M  V30 323 H 25.8319 -2.14271 1.42989 0
M  V30 324 H 25.7899 -3.14393 0.0203076 0
M  V30 325 N 29.562 -1.4872 -0.521534 0
M  V30 326 C 30.51 -1.64328 -1.64618 0
M  V30 327 C 31.504 -0.50953 -1.61555 0
M  V30 328 O 32.71 -0.688525 -1.66311 0
M  V30 329 H 29.085 -0.517805 -0.545328 0
M  V30 330 H 31.056 -2.58767 -1.48601 0
M  V30 331 C 29.805 -1.70805 -3.02855 0
M  V30 332 H 29.128 -2.5741 -3.05909 0
M  V30 333 H 30.568 -1.85766 -3.81139 0
M  V30 334 C 29.027 -0.448479 -3.33902 0
M  V30 335 O 29.557 0.434928 -3.99339 0
M  V30 336 N 27.763 -0.317616 -2.88859 0
M  V30 337 H 27.31 -1.03748 -2.35784 0
M  V30 338 H 27.268 0.524113 -3.10001 0
M  V30 339 N 31.0401 0.771051 -1.3745 0
M  V30 340 C 32.2861 1.5319 -1.32894 0
M  V30 341 C 32.6191 1.94008 0.0862511 0
M  V30 342 O 31.8941 1.64124 1.04373 0
M  V30 343 C 32.1771 2.79648 -2.26868 0
M  V30 344 C 32.0301 2.45079 -3.77169 0
M  V30 345 C 33.3491 3.81583 -2.19277 0
M  V30 346 H 30.4681 0.555744 -0.484064 0
M  V30 347 H 33.1101 0.884492 -1.68157 0
M  V30 348 H 31.2601 3.34891 -1.96926 0
M  V30 349 H 32.9321 1.95745 -4.1771 0
M  V30 350 H 31.1751 1.77767 -3.95704 0
M  V30 351 H 31.8461 3.35478 -4.38359 0
M  V30 352 H 34.3221 3.35835 -2.45671 0
M  V30 353 H 33.1981 4.67787 -2.87171 0
M  V30 354 H 33.4591 4.25897 -1.18592 0
M  V30 355 N 32.5182 1.22032 0.997298 0
M  V30 356 C 33.4652 0.986467 2.08656 0
M  V30 357 C 34.4352 -0.0902671 1.65855 0
M  V30 358 O 35.6202 0.0584294 1.90711 0
M  V30 359 C 32.7602 0.565569 3.40434 0
M  V30 360 C 31.8732 1.71259 3.96604 0
M  V30 361 C 31.0082 1.24011 5.16522 0
M  V30 362 C 30.0472 2.35896 5.64818 0
M  V30 363 N 29.1842 1.89726 6.7598 0
M  V30 364 H 34.0242 1.91892 2.27994 0
M  V30 365 H 31.5612 0.956199 1.11782 0
M  V30 366 H 33.5192 0.302738 4.161 0
M  V30 367 H 32.1492 -0.329879 3.2111 0
M  V30 368 H 31.2012 2.08986 3.17851 0
M  V30 369 H 32.5132 2.55436 4.28432 0
M  V30 370 H 31.6672 0.934395 5.99461 0
M  V30 371 H 30.4062 0.368487 4.86306 0
M  V30 372 H 29.4112 2.67261 4.8047 0
M  V30 373 H 30.6362 3.23567 5.97061 0
M  V30 374 H 28.5822 1.0492 6.47555 0
M  V30 375 H 28.4992 2.67471 7.07103 0
M  V30 376 H 29.7672 1.62211 7.62435 0
M  V30 377 N 33.9963 -1.19345 1.0293 0
M  V30 378 C 34.9063 -2.26245 0.620515 0
M  V30 379 C 35.9223 -1.70486 -0.347928 0
M  V30 380 O 37.0983 -2.00347 -0.205704 0
M  V30 381 C 34.1633 -3.46693 -0.0218957 0
M  V30 382 C 33.2243 -4.17632 0.994102 0
M  V30 383 C 32.4573 -5.32329 0.382253 0
M  V30 384 O 32.6803 -5.64552 -0.814676 0
M  V30 385 O 31.6143 -5.91664 1.10531 0
M  V30 386 H 35.4403 -2.63453 1.51083 0
M  V30 387 H 33.0253 -1.26207 0.799513 0
M  V30 388 H 34.9073 -4.19683 -0.380072 0
M  V30 389 H 33.5823 -3.11333 -0.886209 0
M  V30 390 H 32.4893 -3.4676 1.40387 0
M  V30 391 H 33.8223 -4.56964 1.8288 0
M  V30 392 N 35.4744 -0.807222 -1.35358 0
M  V30 393 C 36.8904 -0.491038 -1.51858 0
M  V30 394 C 37.0904 0.987648 -1.75635 0
M  V30 395 O 36.1464 1.77265 -1.79815 0
M  V30 396 C 37.4594 -1.33695 -2.69344 0
M  V30 397 C 39.0074 -1.33246 -2.83222 0
M  V30 398 C 39.4824 -2.1625 -4.03733 0
M  V30 399 N 40.9734 -2.1379 -4.10911 0
M  V30 400 C 41.7084 -2.74772 -5.03277 0
M  V30 401 N 41.2044 -3.44684 -6.0097 0
M  V30 402 N 42.9974 -2.6441 -4.96028 0
M  V30 403 H 35.1484 -1.76485 -1.18181 0
M  V30 404 H 37.4114 -0.751199 -0.578276 0
M  V30 405 H 37.1174 -2.38634 -2.58354 0
M  V30 406 H 36.9914 -0.990618 -3.6396 0
M  V30 407 H 39.3784 -0.290911 -2.93663 0
M  V30 408 H 39.4594 -1.71866 -1.89461 0
M  V30 409 H 39.1034 -3.20445 -3.94052 0
M  V30 410 H 39.0334 -1.74989 -4.96675 0
M  V30 411 H 41.5244 -1.62923 -3.40976 0
M  V30 412 H 41.8374 -3.88501 -6.68047 0
M  V30 413 H 40.1824 -3.48788 -6.01142 0
M  V30 414 H 43.3734 -2.0938 -4.18662 0
M  V30 415 H 43.5464 -3.12225 -5.6782 0
M  V30 416 N 36.9525 1.47285 -0.560781 0
M  V30 417 C 38.2015 2.01668 -0.035895 0
M  V30 418 C 38.5145 1.44021 1.32353 0
M  V30 419 O 39.7205 1.90088 1.93853 0
M  V30 420 C 38.1765 3.59897 -0.0136659 0
M  V30 421 C 37.7845 4.26536 -1.37006 0
M  V30 422 C 39.5285 4.22017 0.458425 0
M  V30 423 C 37.4355 5.76782 -1.30675 0
M  V30 424 H 36.3655 0.753938 -0.00964879 0
M  V30 425 H 39.0165 1.69243 -0.709166 0
M  V30 426 H 37.3985 3.89301 0.725325 0
M  V30 427 H 38.5725 4.0877 -2.12705 0
M  V30 428 H 36.8875 3.76419 -1.78038 0
M  V30 429 H 39.4845 5.32124 0.524247 0
M  V30 430 H 39.8275 3.89437 1.4712 0
M  V30 431 H 40.3605 3.97159 -0.225818 0
M  V30 432 H 37.0995 6.13988 -2.29564 0
M  V30 433 H 36.6195 5.96875 -0.591622 0
M  V30 434 H 38.2985 6.39063 -1.01033 0
M  V30 435 N 38.4306 0.297415 1.54768 0
M  V30 436 C 39.6776 -0.312913 2.00068 0
M  V30 437 C 40.0056 -1.54171 1.18582 0
M  V30 438 O 39.2606 -1.94108 0.249133 0
M  V30 439 C 39.5596 -0.717561 3.50123 0
M  V30 440 C 39.2256 0.409095 4.4904 0
M  V30 441 C 37.8876 0.718399 4.75807 0
M  V30 442 C 40.2396 1.16717 5.07963 0
M  V30 443 C 37.5676 1.78896 5.5876 0
M  V30 444 C 39.9196 2.22762 5.92081 0
M  V30 445 C 38.5836 2.54303 6.1716 0
M  V30 446 H 37.8536 -0.114503 0.7321 0
M  V30 447 H 40.5006 0.415767 1.86932 0
M  V30 448 H 38.8056 -1.52627 3.60849 0
M  V30 449 H 40.5026 -1.20091 3.82595 0
M  V30 450 H 37.0926 0.157918 4.28309 0
M  V30 451 H 41.2766 0.941466 4.87289 0
M  V30 452 H 36.5326 2.0381 5.7643 0
M  V30 453 H 40.7066 2.81962 6.36765 0
M  V30 454 H 38.3336 3.3739 6.81229 0
M  V30 455 N 39.9087 -1.5758 0.0250728 0
M  V30 456 C 40.8557 -2.09973 -0.958129 0
M  V30 457 C 41.8257 -1.00085 -1.3256 0
M  V30 458 O 43.0107 -1.27481 -1.41962 0
M  V30 459 C 40.1507 -2.62812 -2.2366 0
M  V30 460 C 39.2637 -3.86693 -1.92594 0
M  V30 461 C 38.3987 -4.27941 -3.14707 0
M  V30 462 C 37.4377 -5.44591 -2.79442 0
M  V30 463 N 36.5747 -5.81014 -3.94167 0
M  V30 464 H 41.4147 -2.937 -0.504428 0
M  V30 465 H 38.9517 -1.45172 -0.237392 0
M  V30 466 H 40.9097 -2.91536 -2.98434 0
M  V30 467 H 39.5397 -1.81922 -2.66654 0
M  V30 468 H 38.5917 -3.64723 -1.0808 0
M  V30 469 H 39.9037 -4.71547 -1.62619 0
M  V30 470 H 39.0577 -4.58079 -3.97804 0
M  V30 471 H 37.7967 -3.41845 -3.4784 0
M  V30 472 H 36.8017 -5.1415 -1.94755 0
M  V30 473 H 38.0267 -6.32382 -2.47528 0
M  V30 474 H 35.9727 -4.97874 -4.2715 0
M  V30 475 H 35.8897 -6.60498 -3.67801 0
M  V30 476 H 37.1577 -6.15756 -4.7798 0
M  V30 477 N 41.3868 0.248026 -1.55636 0
M  V30 478 C 42.3348 1.32683 -1.91045 0
M  V30 479 C 43.3288 1.49883 -0.789401 0
M  V30 480 O 44.5348 1.51371 -0.974007 0
M  V30 481 H 40.9098 0.444272 -0.606734 0
M  V30 482 H 42.8808 1.00085 -2.81115 0
M  V30 483 C 41.6298 2.6755 -2.22064 0
M  V30 484 H 40.9528 2.55114 -3.07826 0
M  V30 485 H 42.3928 3.41912 -2.50743 0
M  V30 486 C 40.8518 3.20556 -1.0366 0
M  V30 487 O 41.3818 4.00695 -0.284016 0
M  V30 488 N 39.5878 2.78568 -0.82753 0
M  V30 489 H 39.1348 2.1351 -1.44123 0
M  V30 490 H 39.0928 3.14378 -0.0369803 0
M  V30 491 N 42.8649 1.48995 0.513639 0
M  V30 492 C 44.1139 1.57093 1.2651 0
M  V30 493 C 44.4269 0.257091 1.93903 0
M  V30 494 O 45.6329 0.216478 2.70636 0
M  V30 495 C 44.0889 2.77118 2.29638 0
M  V30 496 C 43.6969 4.15209 1.68241 0
M  V30 497 C 45.4409 2.94538 3.05692 0
M  V30 498 C 43.3479 5.26474 2.69406 0
M  V30 499 H 42.2779 0.584876 0.475854 0
M  V30 500 H 44.9289 1.7536 0.540487 0
M  V30 501 H 43.3109 2.52319 3.05207 0
M  V30 502 H 44.4849 4.50094 0.987505 0
M  V30 503 H 42.7999 4.03042 1.04623 0
M  V30 504 H 45.3969 3.74832 3.8132 0
M  V30 505 H 45.7399 2.04614 3.62545 0
M  V30 506 H 46.2729 3.19316 2.37238 0
M  V30 507 H 43.0119 6.18417 2.17351 0
M  V30 508 H 42.5319 4.96058 3.37175 0
M  V30 509 H 44.2109 5.55277 3.32078 0
M  V30 510 N 44.343 -0.763751 1.37857 0
M  V30 511 C 45.29 -1.87726 1.34267 0
M  V30 512 C 46.26 -1.64807 0.206879 0
M  V30 513 O 47.445 -1.86613 0.397508 0
M  V30 514 C 44.585 -3.24896 1.16346 0
M  V30 515 C 43.698 -3.59716 2.39225 0
M  V30 516 C 42.833 -4.86137 2.14114 0
M  V30 517 C 41.872 -5.13711 3.32817 0
M  V30 518 N 41.009 -6.31323 3.07206 0
M  V30 519 H 45.849 -1.90129 2.29466 0
M  V30 520 H 43.386 -0.929433 1.14017 0
M  V30 521 H 45.344 -4.04036 1.03975 0
M  V30 522 H 43.974 -3.21847 0.247909 0
M  V30 523 H 43.026 -2.75498 2.62307 0
M  V30 524 H 44.338 -3.76027 3.27728 0
M  V30 525 H 43.492 -5.73198 1.9882 0
M  V30 526 H 42.231 -4.71945 1.22961 0
M  V30 527 H 41.236 -4.25123 3.48641 0
M  V30 528 H 42.461 -5.29807 4.24832 0
M  V30 529 H 40.407 -6.18474 2.1869 0
M  V30 530 H 40.324 -6.48087 3.89254 0
M  V30 531 H 41.592 -7.213 2.95546 0
M  V30 532 N 45.8211 -1.22559 -0.990812 0
M  V30 533 C 46.7681 -0.997519 -2.0813 0
M  V30 534 C 47.7381 0.0814702 -1.659 0
M  V30 535 O 48.9231 -0.0685424 -1.90677 0
M  V30 536 C 46.0631 -0.583615 -3.40129 0
M  V30 537 C 45.1761 -1.7336 -3.9569 0
M  V30 538 C 44.3111 -1.26748 -5.15857 0
M  V30 539 C 43.3501 -2.38888 -5.63559 0
M  V30 540 N 42.4871 -1.93308 -6.74964 0
M  V30 541 H 47.3271 -1.93099 -2.26973 0
M  V30 542 H 44.8641 -0.962114 -1.11273 0
M  V30 543 H 46.8221 -0.324801 -4.15934 0
M  V30 544 H 45.4521 0.312845 -3.2128 0
M  V30 545 H 44.5041 -2.10669 -3.16738 0
M  V30 546 H 45.8161 -2.57704 -4.27071 0
M  V30 547 H 44.9701 -0.966173 -5.98957 0
M  V30 548 H 43.7091 -0.394272 -4.86104 0
M  V30 549 H 42.7141 -2.69805 -4.79046 0
M  V30 550 H 43.9391 -3.26728 -5.95336 0
M  V30 551 H 41.8851 -1.08352 -6.4699 0
M  V30 552 H 41.8021 -2.71217 -7.05675 0
M  V30 553 H 43.0701 -1.66252 -7.61564 0
M  V30 554 N 47.2992 1.18797 -1.03562 0
M  V30 555 C 48.7152 1.40671 -0.753917 0
M  V30 556 C 48.9152 1.9043 0.658686 0
M  V30 557 O 47.9712 2.08538 1.42366 0
M  V30 558 C 49.2842 2.41192 -1.79574 0
M  V30 559 C 50.8322 2.54928 -1.81606 0
M  V30 560 C 51.3072 3.58709 -2.84766 0
M  V30 561 N 52.7982 3.66212 -2.83625 0
M  V30 562 C 53.5332 4.46225 -3.60098 0
M  V30 563 N 53.0292 5.29888 -4.46308 0
M  V30 564 N 54.8222 4.40939 -3.4861 0
M  V30 565 H 46.9732 0.848221 -1.94728 0
M  V30 566 H 49.2362 0.435081 -0.842264 0
M  V30 567 H 48.9422 2.11669 -2.80872 0
M  V30 568 H 48.8162 3.40467 -1.62365 0
M  V30 569 H 51.2032 2.83771 -0.809817 0
M  V30 570 H 51.2842 1.55784 -2.02891 0
M  V30 571 H 50.9282 3.30607 -3.85566 0
M  V30 572 H 50.8582 4.57519 -2.60737 0
M  V30 573 H 53.3492 3.06466 -2.21105 0
M  V30 574 H 53.6622 5.88078 -5.01382 0
M  V30 575 H 52.0072 5.29326 -4.50377 0
M  V30 576 H 55.1982 3.74624 -2.80668 0
M  V30 577 H 55.3712 5.03056 -4.08459 0
M  V30 578 N 48.7773 0.814389 1.34928 0
M  V30 579 C 50.0053 0.411136 2.02774 0
M  V30 580 C 50.4203 -0.980316 1.61354 0
M  V30 581 O 49.7773 -1.63299 0.814847 0
M  V30 582 C 49.8283 0.493865 3.58111 0
M  V30 583 O 49.5493 1.83047 3.98027 0
M  V30 584 C 51.0503 0.0844174 4.4322 0
M  V30 585 H 48.2703 0.166037 0.650133 0
M  V30 586 H 50.8143 1.10018 1.72384 0
M  V30 587 H 48.9693 -0.147006 3.87121 0
M  V30 588 H 49.3833 1.79872 4.92693 0
M  V30 589 H 50.8573 0.193404 5.51661 0
M  V30 590 H 51.3343 -0.97113 4.28329 0
M  V30 591 H 51.9403 0.69875 4.19521 0
M  V30 592 N 50.2554 -1.46986 0.568584 0
M  V30 593 C 51.2024 -2.30153 -0.172707 0
M  V30 594 C 52.1724 -1.39759 -0.897586 0
M  V30 595 O 53.3574 -1.68716 -0.891044 0
M  V30 596 C 50.4974 -3.23952 -1.1895 0
M  V30 597 C 49.6104 -4.29441 -0.469517 0
M  V30 598 C 48.7454 -5.1038 -1.47259 0
M  V30 599 C 47.7844 -6.07632 -0.738225 0
M  V30 600 N 46.9214 -6.8149 -1.68868 0
M  V30 601 H 51.7614 -2.93019 0.542596 0
M  V30 602 H 49.2984 -1.44422 0.279401 0
M  V30 603 H 51.2564 -3.76767 -1.79173 0
M  V30 604 H 49.8864 -2.62926 -1.87269 0
M  V30 605 H 48.9384 -3.79594 0.247467 0
M  V30 606 H 50.2504 -4.98689 0.105241 0
M  V30 607 H 49.4044 -5.67402 -2.14803 0
M  V30 608 H 48.1434 -4.4106 -2.08128 0
M  V30 609 H 47.1484 -5.49778 -0.0489293 0
M  V30 610 H 48.3734 -6.78966 -0.135129 0
M  V30 611 H 46.3194 -6.14891 -2.28573 0
M  V30 612 H 46.2364 -7.46948 -1.16636 0
M  V30 613 H 47.5044 -7.43078 -2.3549 0
M  V30 614 N 51.7335 -0.305618 -1.54608 0
M  V30 615 C 52.9805 0.302298 -2.00231 0
M  V30 616 C 53.3085 1.5354 -1.19398 0
M  V30 617 O 52.5635 1.93973 -0.259423 0
M  V30 618 C 52.8625 0.698983 -3.50498 0
M  V30 619 C 52.5285 -0.432903 -4.48817 0
M  V30 620 C 51.1905 -0.743622 -4.75419 0
M  V30 621 C 53.5425 -1.19409 -5.07337 0
M  V30 622 C 50.8705 -1.81857 -5.57804 0
M  V30 623 C 53.2225 -2.25899 -5.90891 0
M  V30 624 C 51.8865 -2.57572 -6.15803 0
M  V30 625 H 51.1565 0.110619 -0.732697 0
M  V30 626 H 53.8035 -0.425674 -1.86709 0
M  V30 627 H 52.1085 1.50711 -3.61654 0
M  V30 628 H 53.8055 1.1806 -3.83227 0
M  V30 629 H 50.3955 -0.18063 -4.28219 0
M  V30 630 H 54.5795 -0.967295 -4.86782 0
M  V30 631 H 49.8355 -2.06864 -5.75341 0
M  V30 632 H 54.0095 -2.85335 -6.35261 0
M  V30 633 H 51.6365 -3.40998 -6.7943 0
M  V30 634 N 53.2116 1.57565 -0.0334293 0
M  V30 635 C 54.4606 1.91155 0.643639 0
M  V30 636 C 54.7736 0.91192 1.73042 0
M  V30 637 O 55.9796 1.13923 2.46442 0
M  V30 638 C 54.4356 3.39443 1.1961 0
M  V30 639 C 54.0436 4.47774 0.142381 0
M  V30 640 C 55.7876 3.82094 1.84944 0
M  V30 641 C 53.6946 5.87162 0.706727 0
M  V30 642 H 52.6246 0.713368 0.244176 0
M  V30 643 H 55.2756 1.8323 -0.0994323 0
M  V30 644 H 53.6576 3.42313 1.99092 0
M  V30 645 H 54.8316 4.56469 -0.630296 0
M  V30 646 H 53.1466 4.14352 -0.412446 0
M  V30 647 H 55.7436 4.83591 2.2813 0
M  V30 648 H 56.0866 3.17386 2.69392 0
M  V30 649 H 56.6196 3.81665 1.12145 0
M  V30 650 H 53.3586 6.55424 -0.0997178 0
M  V30 651 H 52.8786 5.82064 1.44779 0
M  V30 652 H 54.5576 6.35866 1.19514 0
M  V30 653 N 54.6897 -0.239769 1.55765 0
M  V30 654 C 55.9387 -0.964754 1.77131 0
M  V30 655 C 56.2517 -1.86213 0.59868 0
M  V30 656 O 57.4577 -2.6244 0.695522 0
M  V30 657 C 55.9137 -1.76552 3.1362 0
M  V30 658 C 55.5217 -0.915185 4.38553 0
M  V30 659 C 57.2657 -2.48281 3.44321 0
M  V30 660 C 55.1727 -1.71225 5.66071 0
M  V30 661 H 54.1027 -0.363953 0.660344 0
M  V30 662 H 56.7537 -0.219181 1.82186 0
M  V30 663 H 55.1357 -2.55331 3.02691 0
M  V30 664 H 56.3097 -0.169217 4.60489 0
M  V30 665 H 54.6247 -0.310889 4.15238 0
M  V30 666 H 57.2217 -3.08382 4.36812 0
M  V30 667 H 57.5647 -3.20256 2.65973 0
M  V30 668 H 58.0977 -1.76507 3.56497 0
M  V30 669 H 54.8367 -1.03612 6.4726 0
M  V30 670 H 54.3567 -2.43331 5.48224 0
M  V30 671 H 56.0357 -2.27758 6.05587 0
M  V30 672 N 56.1678 -1.49265 -0.50573 0
M  V30 673 C 57.0978 -1.68495 -1.61653 0
M  V30 674 C 58.0788 -0.53366 -1.61512 0
M  V30 675 O 59.2638 -0.76897 -1.78327 0
M  V30 676 C 56.3938 -1.74709 -3.00157 0
M  V30 677 C 55.3478 -2.89581 -3.15162 0
M  V30 678 C 54.6738 -2.80903 -4.5497 0
M  V30 679 C 55.9738 -4.30578 -2.95634 0
M  V30 680 H 57.6678 -2.61493 -1.45814 0
M  V30 681 H 55.2138 -1.25838 -0.70005 0
M  V30 682 H 57.1668 -1.86748 -3.77761 0
M  V30 683 H 55.8908 -0.783067 -3.17074 0
M  V30 684 H 54.5498 -2.77136 -2.39982 0
M  V30 685 H 54.1978 -1.82419 -4.68756 0
M  V30 686 H 53.8978 -3.57999 -4.65951 0
M  V30 687 H 55.4218 -2.94944 -5.34641 0
M  V30 688 H 56.8358 -4.4373 -3.63011 0
M  V30 689 H 55.2328 -5.0886 -3.18091 0
M  V30 690 H 56.3028 -4.45352 -1.91806 0
M  V30 691 N 57.6459 0.756429 -1.3826 0
M  V30 692 C 58.5939 1.89149 -1.35372 0
M  V30 693 C 59.5879 1.67691 -0.24004 0
M  V30 694 O 60.7939 1.75294 -0.408919 0
M  V30 695 H 57.1689 0.622271 -0.422236 0
M  V30 696 H 59.1399 1.88701 -2.31159 0
M  V30 697 C 57.8889 3.26599 -1.19284 0
M  V30 698 H 57.2119 3.43695 -2.0424 0
M  V30 699 H 58.6519 4.06274 -1.21316 0
M  V30 700 C 57.1109 3.3675 0.100454 0
M  V30 701 O 57.6409 3.86951 1.07851 0
M  V30 702 N 55.8469 2.90179 0.15633 0
M  V30 703 H 55.3939 2.49517 -0.640253 0
M  V30 704 H 55.3519 2.97352 1.02123 0
M  V30 705 N 59.124 1.23083 0.984299 0
M  V30 706 C 60.034 1.02515 2.11016 0
M  V30 707 C 61.05 -0.0291702 1.73976 0
M  V30 708 O 62.226 0.165434 2.00719 0
M  V30 709 C 59.291 0.614673 3.41208 0
M  V30 710 C 58.352 1.74359 3.92297 0
M  V30 711 C 57.585 1.35261 5.16275 0
M  V30 712 O 57.808 0.235136 5.69915 0
M  V30 713 O 56.742 2.17227 5.61334 0
M  V30 714 H 60.568 1.96862 2.31255 0
M  V30 715 H 58.153 1.01753 1.09392 0
M  V30 716 H 60.035 0.396518 4.1953 0
M  V30 717 H 58.71 -0.299851 3.22308 0
M  V30 718 H 57.617 2.01635 3.1511 0
M  V30 719 H 58.95 2.63629 4.15645 0
M  V30 720 N 60.6021 -1.18246 1.0419 0
M  V30 721 C 62.0131 -1.69914 0.773698 0
M  V30 722 C 62.3641 -1.83085 -0.705297 0
M  V30 723 O 61.4891 -1.51123 -1.5489 0
M  V30 724 C 62.0841 -3.08619 1.39784 0
M  V30 725 C 60.6431 -3.57494 1.17792 0
M  V30 726 C 59.7901 -2.34013 1.48773 0
M  V30 727 H 62.7411 -1.02904 1.20816 0
M  V30 728 H 62.7621 -3.71958 0.801714 0
M  V30 729 H 62.2741 -2.99001 2.47426 0
M  V30 730 H 60.3751 -3.72406 0.120295 0
M  V30 731 H 60.4881 -4.40852 1.87581 0
M  V30 732 H 58.8521 -2.37986 0.907463 0
M  V30 733 H 59.6351 -2.27013 2.57527 0
M  V30 734 N 62.0802 -0.821533 -1.34494 0
M  V30 735 C 63.3292 -0.405355 -1.97585 0
M  V30 736 C 63.6422 1.03677 -1.65863 0
M  V30 737 O 64.8482 1.55679 -2.22433 0
M  V30 738 C 63.3042 -0.673861 -3.53535 0
M  V30 739 C 62.9122 -2.12951 -3.94152 0
M  V30 740 C 64.6562 -0.32378 -4.23263 0
M  V30 741 C 62.5632 -2.34298 -5.43009 0
M  V30 742 H 61.4932 -0.147836 -0.739365 0
M  V30 743 H 64.1442 -1.00769 -1.53355 0
M  V30 744 H 62.5262 -0.00137554 -3.96 0
M  V30 745 H 63.7002 -2.84104 -3.62797 0
M  V30 746 H 62.0152 -2.44089 -3.37356 0
M  V30 747 H 64.6122 -0.461126 -5.32708 0
M  V30 748 H 64.9552 0.731586 -4.09821 0
M  V30 749 H 65.4882 -0.950786 -3.8627 0
M  V30 750 H 62.2272 -3.38335 -5.61435 0
M  V30 751 H 61.7472 -1.67687 -5.75883 0
M  V30 752 H 63.4262 -2.16588 -6.09671 0
M  V30 753 N 63.5583 1.46682 -0.576371 0
M  V30 754 C 64.8043 2.02712 -0.0596221 0
M  V30 755 C 65.1373 1.44765 1.29448 0
M  V30 756 O 64.4123 0.610355 1.84675 0
M  V30 757 C 64.6953 3.60098 0.0129503 0
M  V30 758 C 64.5483 4.28441 -1.3696 0
M  V30 759 C 65.8673 4.34224 0.71678 0
M  V30 760 H 62.9863 0.736637 -0.0231407 0
M  V30 761 H 65.6283 1.74898 -0.742351 0
M  V30 762 H 63.7783 3.83926 0.594378 0
M  V30 763 H 65.4503 4.15896 -1.9957 0
M  V30 764 H 63.6933 3.8805 -1.93907 0
M  V30 765 H 64.3643 5.3716 -1.27135 0
M  V30 766 H 66.8403 4.15503 0.222908 0
M  V30 767 H 65.7163 5.43936 0.73657 0
M  V30 768 H 65.9773 4.04823 1.77682 0
M  V30 769 N 65.0364 0.313813 1.54444 0
M  V30 770 C 66.3134 -0.345447 1.92525 0
M  V30 771 C 66.6934 -1.70667 1.24242 0
M  V30 772 O 66.0414 -2.25273 0.382654 0
M  V30 773 C 66.2514 -0.44737 3.46121 0
M  V30 774 C 67.5994 -0.712238 4.18584 0
M  V30 775 O 68.6234 -0.530678 3.52225 0
M  V30 776 O 67.4824 -1.06183 5.36085 0
M  V30 777 H 64.5764 -0.195407 0.803583 0
M  V30 778 H 67.1224 0.362813 1.65776 0
M  V30 779 H 65.8944 0.509043 3.87975 0
M  V30 780 H 65.5174 -1.20359 3.78945 0
M  V30 781 N 66.5145 -1.57545 0.0417849 0
M  V30 782 C 67.4445 -2.14009 -0.933929 0
M  V30 783 C 68.4255 -1.05938 -1.33083 0
M  V30 784 O 69.6105 -1.33833 -1.40721 0
M  V30 785 C 66.7405 -2.67747 -2.21199 0
M  V30 786 C 65.6945 -3.80718 -1.95544 0
M  V30 787 C 65.0205 -4.20935 -3.29724 0
M  V30 788 C 66.3205 -5.06258 -1.28452 0
M  V30 789 H 68.0145 -2.95788 -0.463645 0
M  V30 790 H 65.5605 -1.42285 -0.221573 0
M  V30 791 H 67.5135 -3.05886 -2.89848 0
M  V30 792 H 66.2375 -1.83147 -2.70416 0
M  V30 793 H 64.8965 -3.43037 -1.2931 0
M  V30 794 H 64.5445 -3.33298 -3.76724 0
M  V30 795 H 64.2445 -4.9707 -3.13361 0
M  V30 796 H 65.7685 -4.61666 -3.9962 0
M  V30 797 H 67.1825 -5.41903 -1.8712 0
M  V30 798 H 65.5795 -5.87475 -1.22445 0
M  V30 799 H 66.6495 -4.84207 -0.259219 0
M  V30 800 N 67.9926 0.231505 -1.5589 0
M  V30 801 C 69.2176 0.978689 -1.82856 0
M  V30 802 C 69.6426 1.77559 -0.620846 0
M  V30 803 O 69.0006 1.76119 0.430305 0
M  V30 804 C 69.0486 1.87997 -3.07716 0
M  V30 805 O 68.1526 2.97393 -2.85712 0
M  V30 806 H 67.4936 0.277663 -0.603158 0
M  V30 807 H 70.0236 0.24783 -2.03093 0
M  V30 808 H 70.0336 2.2917 -3.37558 0
M  V30 809 H 68.7086 1.29417 -3.95252 0
M  V30 810 H 67.2856 2.60238 -2.67078 0
M  V30 811 N 69.4707 1.49531 0.497807 0
M  V30 812 C 70.7177 1.59179 1.25173 0
M  V30 813 C 71.0457 0.279932 1.92475 0
M  V30 814 O 70.3007 -0.732383 1.81479 0
M  V30 815 C 70.5997 2.70252 2.33878 0
M  V30 816 C 70.2657 4.11644 1.84012 0
M  V30 817 C 68.9277 4.50121 1.70132 0
M  V30 818 C 71.2797 5.00121 1.46725 0
M  V30 819 C 68.6077 5.74845 1.17348 0
M  V30 820 C 70.9597 6.25366 0.95392 0
M  V30 821 C 69.6237 6.6267 0.801538 0
M  V30 822 H 68.8937 0.582478 0.45804 0
M  V30 823 H 71.5407 1.83373 0.551948 0
M  V30 824 H 69.8457 2.40041 3.09657 0
M  V30 825 H 71.5427 2.74925 2.9192 0
M  V30 826 H 68.1327 3.81274 1.95775 0
M  V30 827 H 72.3167 4.71048 1.56294 0
M  V30 828 H 67.5727 6.02444 1.04264 0
M  V30 829 H 71.7467 6.93301 0.656225 0
M  V30 830 H 69.3737 7.59197 0.390351 0
M  V30 831 N 70.9488 -0.749086 1.3866 0
M  V30 832 C 72.1738 -1.54344 1.38538 0
M  V30 833 C 72.5988 -1.88088 -0.0216655 0
M  V30 834 O 71.9568 -1.50899 -1.00494 0
M  V30 835 C 72.0048 -2.8164 2.25192 0
M  V30 836 O 71.1088 -3.7698 1.67212 0
M  V30 837 H 70.4498 -0.466654 0.472367 0
M  V30 838 H 72.9798 -0.925355 1.82478 0
M  V30 839 H 72.9898 -3.30519 2.3921 0
M  V30 840 H 71.6648 -2.56411 3.27454 0
M  V30 841 H 70.2418 -3.35699 1.6236 0
M  V30 842 N 72.4269 -1.23603 -0.977757 0
M  V30 843 C 73.3369 -1.03632 -2.1047 0
M  V30 844 C 74.3529 0.0199435 -1.73989 0
M  V30 845 O 75.5289 -0.176076 -2.00629 0
M  V30 846 C 72.5939 -0.63276 -3.40877 0
M  V30 847 C 71.6549 -1.76437 -3.91367 0
M  V30 848 C 70.8879 -1.37997 -5.15551 0
M  V30 849 O 71.1109 -0.265357 -5.69782 0
M  V30 850 O 70.0449 -2.20201 -5.60174 0
M  V30 851 H 73.8709 -1.98086 -2.30208 0
M  V30 852 H 71.4559 -1.02332 -1.08851 0
M  V30 853 H 73.3379 -0.418761 -4.19314 0
M  V30 854 H 72.0129 0.282754 -3.22463 0
M  V30 855 H 70.9199 -2.03304 -3.14036 0
M  V30 856 H 72.2529 -2.6583 -4.14241 0
M  V30 857 N 73.905 1.17692 -1.04816 0
M  V30 858 C 74.853 2.23632 -0.63966 0
M  V30 859 C 75.847 1.6601 0.337219 0
M  V30 860 O 77.053 1.78844 0.203693 0
M  V30 861 H 73.428 0.727949 -0.188665 0
M  V30 862 H 75.399 2.55387 -1.54337 0
M  V30 863 C 74.148 3.4769 -0.0264051 0
M  V30 864 H 73.471 3.92331 -0.769164 0
M  V30 865 H 74.911 4.23418 0.222098 0
M  V30 866 C 73.37 3.13807 1.22584 0
M  V30 867 O 73.9 3.28236 2.31569 0
M  V30 868 N 72.106 2.68065 1.12202 0
M  V30 869 H 71.653 2.56525 0.235133 0
M  V30 870 H 71.611 2.45767 1.96076 0
M  V30 871 N 75.3831 0.828654 1.34056 0
M  V30 872 C 76.3131 0.269443 2.3194 0
M  V30 873 C 77.2941 -0.617247 1.58506 0
M  V30 874 O 78.4791 -0.542931 1.86456 0
M  V30 875 C 75.6091 -0.564793 3.42677 0
M  V30 876 C 74.5631 0.225241 4.27407 0
M  V30 877 C 73.8891 -0.7321 5.29664 0
M  V30 878 C 75.1891 1.43663 5.02154 0
M  V30 879 H 76.8831 1.08728 2.7896 0
M  V30 880 H 74.4291 0.524283 1.34117 0
M  V30 881 H 76.3821 -0.966233 4.10173 0
M  V30 882 H 75.1061 -1.41574 2.9432 0
M  V30 883 H 73.7651 0.608117 3.61521 0
M  V30 884 H 73.4131 -1.57916 4.77568 0
M  V30 885 H 73.1131 -0.20767 5.87233 0
M  V30 886 H 74.6371 -1.13128 6.00029 0
M  V30 887 H 76.0511 1.1089 5.62473 0
M  V30 888 H 74.4481 1.89711 5.69324 0
M  V30 889 H 75.5181 2.21181 4.31517 0
M  V30 890 N 76.8612 -1.46375 0.584142 0
M  V30 891 C 78.1082 -2.02378 0.0702675 0
M  V30 892 C 78.4362 -1.45545 -1.29023 0
M  V30 893 O 77.6912 -0.610967 -1.85918 0
M  V30 894 C 77.9902 -3.57373 -0.0439342 0
M  V30 895 C 77.6562 -4.33252 1.24915 0
M  V30 896 C 76.3182 -4.53701 1.60341 0
M  V30 897 C 78.6702 -4.7681 2.1048 0
M  V30 898 C 75.9982 -5.1496 2.81128 0
M  V30 899 C 78.3502 -5.39404 3.30494 0
M  V30 900 C 77.0142 -5.5808 3.66201 0
M  V30 901 H 76.2842 -0.740554 0.0257127 0
M  V30 902 H 78.9312 -1.75727 0.761065 0
M  V30 903 H 77.2362 -3.83169 -0.817869 0
M  V30 904 H 78.9332 -3.98384 -0.457318 0
M  V30 905 H 75.5232 -4.17633 0.963364 0
M  V30 906 H 79.7072 -4.60766 1.84414 0
M  V30 907 H 74.9632 -5.27611 3.08928 0
M  V30 908 H 79.1372 -5.72114 3.97063 0
M  V30 909 H 76.7642 -6.05318 4.59885 0
M  V30 910 N 78.3393 -0.321999 -1.54275 0
M  V30 911 C 79.2893 0.560185 -2.21011 0
M  V30 912 C 80.2733 1.08283 -1.19011 0
M  V30 913 O 81.4653 1.02011 -1.44647 0
M  V30 914 C 78.5943 1.72137 -2.97025 0
M  V30 915 C 77.6803 1.21369 -4.06363 0
M  V30 916 N 78.0713 0.425566 -5.04007 0
M  V30 917 C 76.3693 1.49255 -4.20284 0
M  V30 918 C 77.0703 0.152601 -5.815 0
M  V30 919 N 76.0463 0.738294 -5.38563 0
M  V30 920 H 79.8483 -0.049265 -2.93859 0
M  V30 921 H 77.3623 -0.127779 -1.61897 0
M  V30 922 H 79.3593 2.36512 -3.43319 0
M  V30 923 H 78.0193 2.33431 -2.25699 0
M  V30 924 H 79.0303 0.068551 -5.17855 0
M  V30 925 H 75.7073 2.11145 -3.60172 0
M  V30 926 H 77.0973 -0.481764 -6.70171 0
M  V30 927 N 79.8174 1.5752 -0.0501392 0
M  V30 928 C 81.0454 1.96963 0.633492 0
M  V30 929 C 81.4604 0.927631 1.6444 0
M  V30 930 O 80.8174 -0.0882665 1.82286 0
M  V30 931 C 80.8684 3.36487 1.32132 0
M  V30 932 O 80.5894 4.36693 0.350894 0
M  V30 933 C 82.0904 3.90682 2.09481 0
M  V30 934 H 79.3104 0.648244 0.173266 0
M  V30 935 H 81.8544 2.0417 -0.116134 0
M  V30 936 H 80.0094 3.30434 2.02218 0
M  V30 937 H 80.4234 5.17702 0.841735 0
M  V30 938 H 81.8974 4.90591 2.5303 0
M  V30 939 H 82.3744 3.26053 2.94255 0
M  V30 940 H 82.9804 4.00069 1.44307 0
M  V30 941 N 81.2955 -0.223234 1.56011 0
M  V30 942 C 82.2255 -1.27988 1.95298 0
M  V30 943 C 83.2065 -1.48976 0.820979 0
M  V30 944 O 84.3915 -1.61188 1.08315 0
M  V30 945 C 81.5215 -2.63 2.26822 0
M  V30 946 C 80.4755 -2.56671 3.42497 0
M  V30 947 C 79.8015 -3.95697 3.59622 0
M  V30 948 C 81.1015 -2.11601 4.77517 0
M  V30 949 H 82.7955 -0.953525 2.8381 0
M  V30 950 H 80.3415 -0.457244 1.36548 0
M  V30 951 H 82.2945 -3.37077 2.52898 0
M  V30 952 H 81.0185 -2.9732 1.35161 0
M  V30 953 H 79.6775 -1.85051 3.16467 0
M  V30 954 H 79.3255 -4.27322 2.6534 0
M  V30 955 H 79.0255 -3.92345 4.37424 0
M  V30 956 H 80.5495 -4.71438 3.88044 0
M  V30 957 H 81.9635 -2.7542 5.02809 0
M  V30 958 H 80.3605 -2.19311 5.5859 0
M  V30 959 H 81.4305 -1.06824 4.72987 0
M  V30 960 N 82.7736 -1.49793 -0.48987 0
M  V30 961 C 83.7036 -1.70201 -1.59856 0
M  V30 962 C 84.6846 -0.55076 -1.60937 0
M  V30 963 O 85.8696 -0.787841 -1.77501 0
M  V30 964 C 82.9996 -1.77882 -2.98287 0
M  V30 965 C 81.9536 -2.92907 -3.12073 0
M  V30 966 C 81.2796 -2.85712 -4.51965 0
M  V30 967 C 82.5796 -4.3369 -2.91051 0
M  V30 968 H 84.2736 -2.63025 -1.43032 0
M  V30 969 H 81.8196 -1.26574 -0.686664 0
M  V30 970 H 83.7726 -1.90744 -3.75759 0
M  V30 971 H 82.4966 -0.816653 -3.16225 0
M  V30 972 H 81.1556 -2.79665 -2.37029 0
M  V30 973 H 80.8036 -1.8738 -4.66795 0
M  V30 974 H 80.5036 -3.62921 -4.62128 0
M  V30 975 H 82.0276 -3.00598 -5.31482 0
M  V30 976 H 83.4416 -4.47555 -3.58284 0
M  V30 977 H 81.8386 -5.12205 -3.12675 0
M  V30 978 H 82.9086 -4.47362 -1.87071 0
M  V30 979 N 84.2517 0.741722 -1.39055 0
M  V30 980 C 85.4987 1.50114 -1.35912 0
M  V30 981 C 85.8267 1.94443 0.0470937 0
M  V30 982 O 85.0817 1.66612 1.02659 0
M  V30 983 C 85.3807 2.7592 -2.27163 0
M  V30 984 C 85.0467 2.50493 -3.74919 0
M  V30 985 C 83.7087 2.43267 -4.1518 0
M  V30 986 C 86.0607 2.28585 -4.684 0
M  V30 987 C 83.3887 2.12166 -5.46994 0
M  V30 988 C 85.7407 1.99002 -6.00484 0
M  V30 989 C 84.4047 1.90241 -6.39816 0
M  V30 990 H 83.6747 0.549306 -0.497336 0
M  V30 991 H 86.3217 0.851896 -1.71508 0
M  V30 992 H 84.6267 3.45553 -1.84663 0
M  V30 993 H 86.3237 3.33923 -2.22028 0
M  V30 994 H 82.9137 2.56992 -3.43006 0
M  V30 995 H 87.0977 2.33139 -4.38132 0
M  V30 996 H 82.3537 2.03901 -5.76398 0
M  V30 997 H 86.5277 1.81057 -6.72452 0
M  V30 998 H 84.1547 1.65907 -7.41875 0
M  V30 999 N 85.7298 1.2412 0.971189 0
M  V30 1000 C 87.0068 0.986867 1.6888 0
M  V30 1001 C 87.3868 -0.491857 2.0529 0
M  V30 1002 O 86.7348 -1.46531 1.75331 0
M  V30 1003 C 86.9448 1.9063 2.92338 0
M  V30 1004 C 88.2928 2.17515 3.64654 0
M  V30 1005 O 89.3168 1.88254 3.02388 0
M  V30 1006 O 88.1758 2.6719 4.7673 0
M  V30 1007 H 85.2698 0.372944 0.738134 0
M  V30 1008 H 87.8158 1.35203 1.02559 0
M  V30 1009 H 86.5878 2.90552 2.62097 0
M  V30 1010 H 86.2108 1.54408 3.66393 0
M  V30 1011 N 87.2079 -1.17134 1.05439 0
M  V30 1012 C 88.1379 -2.2342 0.678649 0
M  V30 1013 C 89.1189 -1.66971 -0.32476 0
M  V30 1014 O 90.3039 -1.93149 -0.201802 0
M  V30 1015 C 87.4339 -3.47256 0.0552099 0
M  V30 1016 C 86.3879 -4.16543 0.98365 0
M  V30 1017 C 85.7139 -5.34231 0.223961 0
M  V30 1018 C 87.0139 -4.68495 2.3089 0
M  V30 1019 H 88.7079 -2.55105 1.56722 0
M  V30 1020 H 86.2539 -1.2262 0.754998 0
M  V30 1021 H 88.2069 -4.20828 -0.21946 0
M  V30 1022 H 86.9309 -3.14846 -0.868319 0
M  V30 1023 H 85.5899 -3.44887 1.24293 0
M  V30 1024 H 85.2379 -4.98071 -0.702412 0
M  V30 1025 H 84.9379 -5.81527 0.842627 0
M  V30 1026 H 86.4619 -6.10585 -0.0433671 0
M  V30 1027 H 87.8759 -5.33691 2.09396 0
M  V30 1028 H 86.2729 -5.26379 2.88176 0
M  V30 1029 H 87.3429 -3.85169 2.94572 0
M  V30 1030 N 88.686 -0.835752 -1.33615 0
M  V30 1031 C 89.963 -0.352017 -1.92406 0
M  V30 1032 C 90.343 1.16225 -1.76224 0
M  V30 1033 O 89.691 1.97526 -1.14873 0
M  V30 1034 C 89.901 -0.795485 -3.39813 0
M  V30 1035 C 91.249 -0.801703 -4.16963 0
M  V30 1036 O 92.273 -0.738889 -3.48452 0
M  V30 1037 O 91.132 -0.886607 -5.3926 0
M  V30 1038 H 88.226 -0.0989641 -0.821057 0
M  V30 1039 H 90.772 -0.921397 -1.42507 0
M  V30 1040 H 89.544 -1.83795 -3.45449 0
M  V30 1041 H 89.167 -0.202505 -3.97084 0
M  V30 1042 N 90.1641 1.46063 -0.591896 0
M  V30 1043 C 91.4101 2.02638 -0.0811191 0
M  V30 1044 C 91.7431 1.4613 1.27905 0
M  V30 1045 O 91.0181 0.629908 1.84017 0
M  V30 1046 C 91.3011 3.60091 -0.0252436 0
M  V30 1047 C 91.1541 4.26965 -1.41496 0
M  V30 1048 C 92.4731 4.3496 0.670685 0
M  V30 1049 H 89.5921 0.73635 -0.0309524 0
M  V30 1050 H 92.2341 1.741 -0.760859 0
M  V30 1051 H 90.3841 3.84535 0.553624 0
M  V30 1052 H 92.0561 4.13756 -2.0397 0
M  V30 1053 H 90.2991 3.85971 -1.98011 0
M  V30 1054 H 90.9701 5.35781 -1.32825 0
M  V30 1055 H 93.4461 4.15716 0.178825 0
M  V30 1056 H 92.3221 5.44686 0.678837 0
M  V30 1057 H 92.5831 4.06685 1.73379 0
M  V30 1058 N 91.6422 0.330177 1.54103 0
M  V30 1059 C 92.9192 -0.325007 1.92881 0
M  V30 1060 C 93.2992 -1.6934 1.26045 0
M  V30 1061 O 92.6472 -2.24855 0.406526 0
M  V30 1062 C 92.8572 -0.410634 3.46576 0
M  V30 1063 C 94.2052 -0.667801 4.19316 0
M  V30 1064 O 95.2292 -0.49329 3.52768 0
M  V30 1065 O 94.0882 -1.00491 5.37181 0
M  V30 1066 H 91.1822 -0.186873 0.80561 0
M  V30 1067 H 93.7282 0.380376 1.65382 0
M  V30 1068 H 92.5002 0.550164 3.87413 0
M  V30 1069 H 92.1232 -1.16333 3.802 0
M  V30 1070 N 93.1203 -1.57491 0.0584922 0
M  V30 1071 C 94.0673 -2.11958 -0.913376 0
M  V30 1072 C 95.0373 -1.02875 -1.30407 0
M  V30 1073 O 96.2223 -1.30464 -1.39226 0
M  V30 1074 C 93.3623 -2.67497 -2.18035 0
M  V30 1075 C 92.4753 -3.90691 -1.84349 0
M  V30 1076 C 91.6103 -4.3452 -3.05559 0
M  V30 1077 C 90.6493 -5.50395 -2.67827 0
M  V30 1078 N 89.7863 -5.89244 -3.81754 0
M  V30 1079 H 94.6263 -2.94704 -0.442017 0
M  V30 1080 H 92.1633 -1.45643 -0.206545 0
M  V30 1081 H 94.1213 -2.978 -2.92183 0
M  V30 1082 H 92.7513 -1.87537 -2.62735 0
M  V30 1083 H 91.8033 -3.66934 -1.00319 0
M  V30 1084 H 93.1153 -4.7489 -1.5258 0
M  V30 1085 H 92.2693 -4.66414 -3.87998 0
M  V30 1086 H 91.0083 -3.49147 -3.40511 0
M  V30 1087 H 90.0133 -5.18165 -1.83806 0
M  V30 1088 H 91.2383 -6.3749 -2.34059 0
M  V30 1089 H 89.1843 -5.06823 -4.16493 0
M  V30 1090 H 89.1013 -6.68151 -3.53708 0
M  V30 1091 H 90.3693 -6.25756 -4.64811 0
M  V30 1092 N 94.5984 0.214957 -1.56127 0
M  V30 1093 C 95.5464 1.28601 -1.93816 0
M  V30 1094 C 96.5404 1.48175 -0.821016 0
M  V30 1095 O 97.7464 1.49271 -1.0059 0
M  V30 1096 H 94.1214 0.431302 -0.616022 0
M  V30 1097 H 96.0924 0.940991 -2.83175 0
M  V30 1098 C 94.8414 2.62779 -2.27689 0
M  V30 1099 H 94.1644 2.48527 -3.13168 0
M  V30 1100 H 95.6044 3.36517 -2.57939 0
M  V30 1101 C 94.0634 3.18285 -1.10436 0
M  V30 1102 O 94.5934 4.00002 -0.368945 0
M  V30 1103 N 92.7994 2.7675 -0.886433 0
M  V30 1104 H 92.3464 2.10404 -1.48619 0
M  V30 1105 H 92.3044 3.14229 -0.103656 0
M  V30 1106 N 96.0765 1.50051 0.48192 0
M  V30 1107 C 97.0065 1.71046 1.58951 0
M  V30 1108 C 97.9875 0.559288 1.60642 0
M  V30 1109 O 99.1725 0.797243 1.77081 0
M  V30 1110 C 96.3025 1.79462 2.97339 0
M  V30 1111 C 95.2565 2.94558 3.10515 0
M  V30 1112 C 94.5825 2.88105 4.50444 0
M  V30 1113 C 95.8825 4.35227 2.88747 0
M  V30 1114 H 97.5765 2.6378 1.41635 0
M  V30 1115 H 95.1225 1.26936 0.679942 0
M  V30 1116 H 97.0755 1.92734 3.74742 0
M  V30 1117 H 95.7995 0.833412 3.15788 0
M  V30 1118 H 94.4585 2.80918 2.35543 0
M  V30 1119 H 94.1065 1.89853 4.65795 0
M  V30 1120 H 93.8065 3.65366 4.60197 0
M  V30 1121 H 95.3305 3.03412 5.29881 0
M  V30 1122 H 96.7445 4.49449 3.55905 0
M  V30 1123 H 95.1415 5.13856 3.09955 0
M  V30 1124 H 96.2115 4.48347 1.84696 0
M  V30 1125 N 97.5546 -0.734337 1.39446 0
M  V30 1126 C 98.7846 -1.52137 1.39778 0
M  V30 1127 C 99.1926 -1.89198 -0.00929312 0
M  V30 1128 O 98.5356 -1.54666 -0.991168 0
M  V30 1129 C 98.5976 -2.83762 2.20724 0
M  V30 1130 C 98.2616 -2.69131 3.69347 0
M  V30 1131 C 99.2586 -2.37635 4.62413 0
M  V30 1132 C 96.9436 -2.85982 4.1294 0
M  V30 1133 C 98.9376 -2.23172 5.97054 0
M  V30 1134 C 96.6246 -2.71137 5.47657 0
M  V30 1135 C 97.6226 -2.39777 6.39528 0
M  V30 1136 O 97.3106 -2.25026 7.71763 0
M  V30 1137 H 97.0426 -0.476717 0.479288 0
M  V30 1138 H 99.5966 -0.915012 1.83893 0
M  V30 1139 H 97.8266 -3.4666 1.71359 0
M  V30 1140 H 99.5156 -3.45383 2.13226 0
M  V30 1141 H 100.282 -2.24267 4.30034 0
M  V30 1142 H 96.1606 -3.09383 3.41765 0
M  V30 1143 H 99.7046 -1.98617 6.68728 0
M  V30 1144 H 95.6016 -2.84083 5.79626 0
M  V30 1145 H 96.3696 -2.40091 7.82495 0
M  V30 1146 N 99.0327 -1.24633 -0.964593 0
M  V30 1147 C 100.261 -1.11501 -1.74285 0
M  V30 1148 C 100.676 0.332165 -1.85855 0
M  V30 1149 O 100.033 1.22903 -1.34911 0
M  V30 1150 C 100.084 -1.75258 -3.16175 0
M  V30 1151 O 99.8047 -3.14318 -3.05182 0
M  V30 1152 C 101.306 -1.67776 -4.10324 0
M  V30 1153 H 98.5257 -0.389407 -0.546446 0
M  V30 1154 H 101.07 -1.64801 -1.21083 0
M  V30 1155 H 99.2247 -1.25954 -3.66353 0
M  V30 1156 H 99.6387 -3.4551 -3.94618 0
M  V30 1157 H 101.113 -2.17064 -5.0753 0
M  V30 1158 H 101.59 -0.639584 -4.34518 0
M  V30 1159 H 102.196 -2.16522 -3.66058 0
M  V30 1160 N 100.511 1.16574 -1.06058 0
M  V30 1161 C 101.441 2.23057 -0.690488 0
M  V30 1162 C 102.422 1.67141 0.315901 0
M  V30 1163 O 103.607 1.93253 0.191556 0
M  V30 1164 C 100.737 3.47222 -0.073625 0
M  V30 1165 C 99.6908 4.16016 -1.00573 0
M  V30 1166 C 99.0168 5.34104 -0.252289 0
M  V30 1167 C 100.317 4.67264 -2.33371 0
M  V30 1168 H 102.011 2.54271 -1.58072 0
M  V30 1169 H 99.5568 1.22218 -0.76149 0
M  V30 1170 H 101.51 4.20939 0.19714 0
M  V30 1171 H 100.234 3.15302 0.85161 0
M  V30 1172 H 98.8928 3.44223 -1.2612 0
M  V30 1173 H 98.5408 4.98437 0.675988 0
M  V30 1174 H 98.2408 5.81072 -0.873455 0
M  V30 1175 H 99.7648 6.10599 0.0109857 0
M  V30 1176 H 101.179 5.32573 -2.12223 0
M  V30 1177 H 99.5758 5.24843 -2.90963 0
M  V30 1178 H 100.646 3.83602 -2.96611 0
M  V30 1179 N 101.989 0.842826 1.3317 0
M  V30 1180 C 103.266 0.362216 1.92217 0
M  V30 1181 C 103.646 -1.15289 1.76838 0
M  V30 1182 O 102.994 -1.96914 1.15919 0
M  V30 1183 C 103.204 0.813495 3.39387 0
M  V30 1184 C 104.552 0.823804 4.16532 0
M  V30 1185 O 105.576 0.757358 3.48055 0
M  V30 1186 O 104.435 0.915193 5.38782 0
M  V30 1187 H 101.529 0.103317 0.820521 0
M  V30 1188 H 104.075 0.928942 1.42017 0
M  V30 1189 H 102.847 1.85624 3.4447 0
M  V30 1190 H 102.47 0.223561 3.96971 0
M  V30 1191 N 103.467 -1.45747 0.599634 0
M  V30 1192 C 104.377 -2.34262 -0.125888 0
M  V30 1193 C 105.393 -1.50768 -0.868625 0
M  V30 1194 O 106.569 -1.83592 -0.828003 0
M  V30 1195 C 103.634 -3.28252 -1.11587 0
M  V30 1196 C 102.695 -4.27651 -0.375956 0
M  V30 1197 C 101.928 -5.1715 -1.31877 0
M  V30 1198 O 102.151 -5.09916 -2.55621 0
M  V30 1199 O 101.085 -5.96286 -0.820157 0
M  V30 1200 H 104.911 -2.97688 0.601315 0
M  V30 1201 H 102.496 -1.44999 0.359934 0
M  V30 1202 H 104.378 -3.86191 -1.68626 0
M  V30 1203 H 103.053 -2.67401 -1.82424 0
M  V30 1204 H 101.96 -3.7335 0.236698 0
M  V30 1205 H 103.293 -4.91334 0.29177 0
M  V30 1206 N 104.945 -0.338344 -1.53925 0
M  V30 1207 C 106.17 0.263987 -2.05713 0
M  V30 1208 C 106.595 1.43847 -1.21201 0
M  V30 1209 O 105.953 1.79904 -0.224535 0
M  V30 1210 C 106.001 0.662 -3.54471 0
M  V30 1211 O 105.105 1.76265 -3.72833 0
M  V30 1212 H 104.446 0.0448722 -0.662482 0
M  V30 1213 H 106.976 -0.491048 -1.9862 0
M  V30 1214 H 106.986 0.940594 -3.9701 0
M  V30 1215 H 105.661 -0.196937 -4.15433 0
M  V30 1216 H 104.238 1.48173 -3.42198 0
M  V30 1217 N 106.423 1.57458 -0.0668435 0
M  V30 1218 C 107.353 2.15468 0.899764 0
M  V30 1219 C 108.334 1.08042 1.31381 0
M  V30 1220 O 109.519 1.36054 1.38574 0
M  V30 1221 C 106.649 2.71232 2.16911 0
M  V30 1222 C 105.603 3.83781 1.89463 0
M  V30 1223 C 104.929 4.26127 3.22986 0
M  V30 1224 C 106.229 5.08238 1.20381 0
M  V30 1225 H 107.923 2.96488 0.416529 0
M  V30 1226 H 105.469 1.4262 0.198908 0
M  V30 1227 H 107.422 3.10458 2.84945 0
M  V30 1228 H 106.146 1.87426 2.67468 0
M  V30 1229 H 104.805 3.45051 1.23836 0
M  V30 1230 H 104.453 3.39249 3.71374 0
M  V30 1231 H 104.153 5.01993 3.05413 0
M  V30 1232 H 105.677 4.67966 3.92225 0
M  V30 1233 H 107.091 5.44811 1.78475 0
M  V30 1234 H 105.488 5.89349 1.13083 0
M  V30 1235 H 106.558 4.84558 0.182153 0
M  V30 1236 N 107.901 -0.206675 1.56239 0
M  V30 1237 C 108.831 -1.25909 1.96645 0
M  V30 1238 C 109.812 -1.48097 0.836734 0
M  V30 1239 O 110.997 -1.6003 1.10019 0
M  V30 1240 C 108.127 -2.6058 2.29599 0
M  V30 1241 C 107.081 -2.53024 3.452 0
M  V30 1242 C 106.407 -3.91861 3.63798 0
M  V30 1243 C 107.707 -2.06524 4.79734 0
M  V30 1244 H 109.401 -0.923369 2.84806 0
M  V30 1245 H 106.947 -0.442735 1.37025 0
M  V30 1246 H 108.9 -3.34375 2.56459 0
M  V30 1247 H 107.624 -2.95869 1.38307 0
M  V30 1248 H 106.283 -1.81684 3.18412 0
M  V30 1249 H 105.931 -4.24483 2.69857 0
M  V30 1250 H 105.631 -3.87683 4.4156 0
M  V30 1251 H 107.155 -4.67296 3.93022 0
M  V30 1252 H 108.569 -2.70072 5.05702 0
M  V30 1253 H 106.966 -2.13374 5.60885 0
M  V30 1254 H 108.036 -1.01802 4.74093 0
M  V30 1255 N 109.379 -1.50304 -0.473955 0
M  V30 1256 C 110.327 -1.69482 -1.59307 0
M  V30 1257 C 111.321 -0.560669 -1.59853 0
M  V30 1258 O 112.527 -0.741087 -1.64036 0
M  V30 1259 H 108.902 -0.534892 -0.528578 0
M  V30 1260 H 110.873 -2.63364 -1.40293 0
M  V30 1261 C 109.622 -1.80354 -2.97267 0
M  V30 1262 H 108.945 -2.67012 -2.97564 0
M  V30 1263 H 110.385 -1.97798 -3.75036 0
M  V30 1264 C 108.844 -0.55448 -3.32306 0
M  V30 1265 O 109.374 0.307661 -4.0052 0
M  V30 1266 N 107.58 -0.409354 -2.87702 0
M  V30 1267 H 107.127 -1.11196 -2.32364 0
M  V30 1268 H 107.085 0.425223 -3.11511 0
M  V30 1269 N 110.857 0.726932 -1.39834 0
M  V30 1270 C 111.787 1.85405 -1.41941 0
M  V30 1271 C 112.768 1.67751 -0.281728 0
M  V30 1272 O 113.953 1.8795 -0.488717 0
M  V30 1273 C 111.083 3.23243 -1.2701 0
M  V30 1274 C 110.037 3.55549 -2.38262 0
M  V30 1275 C 109.363 4.9241 -2.08415 0
M  V30 1276 C 110.663 3.577 -3.80589 0
M  V30 1277 H 112.357 1.83899 -2.36266 0
M  V30 1278 H 109.903 0.883349 -1.13723 0
M  V30 1279 H 111.856 4.01775 -1.27103 0
M  V30 1280 H 110.58 3.25296 -0.291564 0
M  V30 1281 H 109.239 2.79351 -2.37399 0
M  V30 1282 H 108.887 4.91052 -1.0898 0
M  V30 1283 H 108.587 5.14992 -2.82943 0
M  V30 1284 H 110.111 5.73289 -2.10171 0
M  V30 1285 H 111.525 4.26293 -3.83337 0
M  V30 1286 H 109.922 3.91804 -4.54543 0
M  V30 1287 H 110.992 2.57328 -4.10987 0
M  V30 1288 N 112.336 1.25143 0.95797 0
M  V30 1289 C 113.246 1.06968 2.08794 0
M  V30 1290 C 114.262 0.00773911 1.73998 0
M  V30 1291 O 115.438 0.207972 2.00323 0
M  V30 1292 C 112.503 0.68691 3.39827 0
M  V30 1293 C 111.564 1.82641 3.88511 0
M  V30 1294 C 110.797 1.46181 5.1329 0
M  V30 1295 O 111.02 0.355971 5.69288 0
M  V30 1296 O 109.954 2.29085 5.566 0
M  V30 1297 H 113.78 2.01723 2.27027 0
M  V30 1298 H 111.365 1.04051 1.07209 0
M  V30 1299 H 113.247 0.485417 4.18595 0
M  V30 1300 H 111.922 -0.231417 3.22872 0
M  V30 1301 H 110.829 2.08274 3.10762 0
M  V30 1302 H 112.162 2.72386 4.09959 0
M  V30 1303 N 113.814 -1.1601 1.06675 0
M  V30 1304 C 114.762 -2.22586 0.675157 0
M  V30 1305 C 115.756 -1.66525 -0.310766 0
M  V30 1306 O 116.962 -1.79145 -0.175215 0
M  V30 1307 H 113.337 -0.724855 0.200223 0
M  V30 1308 H 115.308 -2.52899 1.58381 0
M  V30 1309 C 114.057 -3.47604 0.0817162 0
M  V30 1310 H 113.38 -3.91058 0.831484 0
M  V30 1311 H 114.82 -4.23718 -0.154708 0
M  V30 1312 C 113.279 -3.15718 -1.17576 0
M  V30 1313 O 113.809 -3.31878 -2.26318 0
M  V30 1314 N 112.015 -2.69816 -1.07923 0
M  V30 1315 H 111.562 -2.56866 -0.194293 0
M  V30 1316 H 111.52 -2.48855 -1.92141 0
M  V30 1317 N 115.292 -0.849877 -1.32721 0
M  V30 1318 C 116.222 -0.306308 -2.31482 0
M  V30 1319 C 117.203 0.591952 -1.59468 0
M  V30 1320 O 118.388 0.513199 -1.87296 0
M  V30 1321 C 115.518 0.510204 -3.43532 0
M  V30 1322 C 114.472 -0.293209 -4.26994 0
M  V30 1323 C 113.798 0.647743 -5.30762 0
M  V30 1324 C 115.098 -1.51634 -4.99804 0
M  V30 1325 H 116.792 -1.13153 -2.77195 0
M  V30 1326 H 114.338 -0.545553 -1.33266 0
M  V30 1327 H 116.291 0.900856 -4.11658 0
M  V30 1328 H 115.015 1.36874 -2.96535 0
M  V30 1329 H 113.674 -0.665555 -3.60508 0
M  V30 1330 H 113.322 1.50299 -4.8002 0
M  V30 1331 H 113.022 0.11422 -5.87489 0
M  V30 1332 H 114.546 1.03567 -6.01753 0
M  V30 1333 H 115.96 -1.19824 -5.60638 0
M  V30 1334 H 114.357 -1.98745 -5.66234 0
M  V30 1335 H 115.427 -2.28018 -4.27943 0
M  V30 1336 N 116.77 1.45427 -0.607355 0
M  V30 1337 C 117.718 2.32269 0.12411 0
M  V30 1338 C 118.712 1.45955 0.859854 0
M  V30 1339 O 119.918 1.6244 0.775447 0
M  V30 1340 H 116.293 0.749691 0.0588839 0
M  V30 1341 H 118.264 2.91743 -0.626762 0
M  V30 1342 C 117.013 3.29567 1.1082 0
M  V30 1343 H 116.336 3.95978 0.551492 0
M  V30 1344 H 117.776 3.93061 1.58995 0
M  V30 1345 C 116.235 2.56722 2.18164 0
M  V30 1346 O 116.765 2.34842 3.25902 0
M  V30 1347 N 114.971 2.16861 1.93442 0
M  V30 1348 H 114.518 2.34855 1.05834 0
M  V30 1349 H 114.476 1.68444 2.65469 0
M  V30 1350 N 118.248 0.346503 1.53744 0
M  V30 1351 C 119.478 -0.250047 2.05081 0
M  V30 1352 C 119.886 -1.44529 1.22098 0
M  V30 1353 O 119.229 -1.81992 0.249917 0
M  V30 1354 C 119.291 -0.725934 3.52094 0
M  V30 1355 C 118.955 0.350053 4.55657 0
M  V30 1356 C 119.952 1.19372 5.0601 0
M  V30 1357 C 117.637 0.504827 4.99757 0
M  V30 1358 C 119.631 2.17768 5.99046 0
M  V30 1359 C 117.318 1.49218 5.92602 0
M  V30 1360 C 118.316 2.32706 6.42135 0
M  V30 1361 O 118.004 3.2976 7.33153 0
M  V30 1362 H 117.736 -0.0515469 0.674032 0
M  V30 1363 H 120.29 0.497559 1.99282 0
M  V30 1364 H 118.52 -1.52483 3.55367 0
M  V30 1365 H 120.209 -1.24336 3.86388 0
M  V30 1366 H 120.975 1.08525 4.72702 0
M  V30 1367 H 116.854 -0.135178 4.60802 0
M  V30 1368 H 120.398 2.82971 6.37631 0
M  V30 1369 H 116.295 1.6012 6.25325 0
M  V30 1370 H 117.063 3.25265 7.51096 0
M  V30 1371 N 119.726 -1.57421 0.075193 0
M  V30 1372 C 120.951 -1.98364 -0.605515 0
M  V30 1373 C 121.376 -0.953383 -1.62149 0
M  V30 1374 O 120.734 0.0806053 -1.81121 0
M  V30 1375 C 120.782 -3.38332 -1.24756 0
M  V30 1376 O 119.886 -3.37959 -2.36342 0
M  V30 1377 H 119.227 -0.645553 -0.155428 0
M  V30 1378 H 121.757 -2.04044 0.150714 0
M  V30 1379 H 121.767 -3.75591 -1.5936 0
M  V30 1380 H 120.442 -4.12846 -0.503129 0
M  V30 1381 H 119.019 -3.12474 -2.03506 0
M  V30 1382 N 121.204 0.198386 -1.56346 0
M  V30 1383 C 122.429 0.939682 -1.84891 0
M  V30 1384 C 122.854 1.76202 -0.658369 0
M  V30 1385 O 122.212 1.76993 0.392851 0
M  V30 1386 C 122.26 1.81428 -3.11635 0
M  V30 1387 O 121.364 2.91265 -2.91956 0
M  V30 1388 H 120.705 0.264807 -0.608912 0
M  V30 1389 H 123.235 0.204695 -2.03573 0
M  V30 1390 H 123.245 2.21958 -3.42343 0
M  V30 1391 H 121.92 1.21004 -3.97908 0
M  V30 1392 H 120.497 2.54514 -2.72538 0
M  V30 1393 N 122.682 1.50554 0.465978 0
M  V30 1394 C 123.931 1.61038 1.21448 0
M  V30 1395 C 124.244 0.31865 1.92987 0
M  V30 1396 O 125.45 0.302469 2.6981 0
M  V30 1397 C 123.906 2.84283 2.20706 0
M  V30 1398 C 123.514 4.20352 1.54946 0
M  V30 1399 C 125.258 3.04115 2.96166 0
M  V30 1400 C 123.165 5.34778 2.5252 0
M  V30 1401 H 122.095 0.599718 0.457005 0
M  V30 1402 H 124.746 1.7699 0.484424 0
M  V30 1403 H 123.128 2.61901 2.97025 0
M  V30 1404 H 124.302 4.53008 0.843811 0
M  V30 1405 H 122.617 4.06167 0.917475 0
M  V30 1406 H 125.214 3.86774 3.69202 0
M  V30 1407 H 125.557 2.16045 3.55852 0
M  V30 1408 H 126.09 3.26702 2.26959 0
M  V30 1409 H 122.829 6.25018 1.97566 0
M  V30 1410 H 122.349 5.06534 3.21222 0
M  V30 1411 H 124.028 5.65561 3.14245 0
M  V30 1412 N 124.16 -0.719506 1.40217 0
M  V30 1413 C 125.407 -1.47933 1.38283 0
M  V30 1414 C 125.735 -1.94493 -0.0161536 0
M  V30 1415 O 124.99 -1.68224 -0.999956 0
M  V30 1416 C 125.289 -2.72271 2.31524 0
M  V30 1417 C 124.955 -2.44496 3.78857 0
M  V30 1418 C 123.617 -2.36631 4.18998 0
M  V30 1419 C 125.969 -2.21104 4.71977 0
M  V30 1420 C 123.297 -2.03437 5.503 0
M  V30 1421 C 125.649 -1.89423 6.03574 0
M  V30 1422 C 124.313 -1.80038 6.42762 0
M  V30 1423 H 123.583 -0.541325 0.506012 0
M  V30 1424 H 126.23 -0.824502 1.72842 0
M  V30 1425 H 124.535 -3.42572 1.90137 0
M  V30 1426 H 126.232 -3.30348 2.27313 0
M  V30 1427 H 122.822 -2.51503 3.47051 0
M  V30 1428 H 127.006 -2.26139 4.41786 0
M  V30 1429 H 122.262 -1.94705 5.79569 0
M  V30 1430 H 126.436 -1.70336 6.75247 0
M  V30 1431 H 124.063 -1.54083 7.44421 0
M  V30 1432 N 125.638 -1.25649 -0.95132 0
M  V30 1433 C 127.054 -1.02542 -1.223 0
M  V30 1434 C 127.254 0.255715 -1.99871 0
M  V30 1435 O 126.31 0.967558 -2.33226 0
M  V30 1436 C 127.623 -2.25065 -1.99415 0
M  V30 1437 C 129.171 -2.29861 -2.12446 0
M  V30 1438 C 129.646 -3.52048 -2.92961 0
M  V30 1439 N 131.137 -3.52465 -3.00538 0
M  V30 1440 C 131.872 -4.43672 -3.63239 0
M  V30 1441 N 131.368 -5.45157 -4.27523 0
M  V30 1442 N 133.161 -4.31346 -3.60412 0
M  V30 1443 H 125.312 -2.07951 -0.432471 0
M  V30 1444 H 127.575 -0.91339 -0.253816 0
M  V30 1445 H 127.281 -3.18194 -1.49817 0
M  V30 1446 H 127.155 -2.28502 -3.00111 0
M  V30 1447 H 129.542 -1.37252 -2.61239 0
M  V30 1448 H 129.623 -2.3044 -1.11044 0
M  V30 1449 H 129.267 -4.44981 -2.44856 0
M  V30 1450 H 129.197 -3.48715 -3.94596 0
M  V30 1451 H 131.688 -2.79056 -2.54826 0
M  V30 1452 H 132.001 -6.10958 -4.73234 0
M  V30 1453 H 130.346 -5.49025 -4.26141 0
M  V30 1454 H 133.537 -3.51288 -3.09377 0
M  V30 1455 H 133.71 -5.02624 -4.0899 0
M  V30 1456 N 127.117 1.15442 -1.07289 0
M  V30 1457 C 128.047 2.22312 -0.714107 0
M  V30 1458 C 129.028 1.67467 0.298155 0
M  V30 1459 O 130.213 1.93445 0.171048 0
M  V30 1460 C 127.343 3.47124 -0.110448 0
M  V30 1461 C 126.297 4.14926 -1.04979 0
M  V30 1462 C 125.623 5.33807 -0.308924 0
M  V30 1463 C 126.923 4.64762 -2.38314 0
M  V30 1464 H 128.617 2.5258 -1.6076 0
M  V30 1465 H 126.163 1.21404 -0.77441 0
M  V30 1466 H 128.116 4.21124 0.152482 0
M  V30 1467 H 126.84 3.16187 0.81812 0
M  V30 1468 H 125.499 3.42866 -1.29764 0
M  V30 1469 H 125.147 4.99126 0.623084 0
M  V30 1470 H 124.847 5.80113 -0.935036 0
M  V30 1471 H 126.371 6.10576 -0.0537771 0
M  V30 1472 H 127.785 5.30292 -2.1786 0
M  V30 1473 H 126.182 5.21728 -2.96514 0
M  V30 1474 H 127.252 3.80434 -3.00663 0
M  V30 1475 N 128.595 0.856903 1.32268 0
M  V30 1476 C 129.525 0.31858 2.31316 0
M  V30 1477 C 130.506 -0.583487 1.59779 0
M  V30 1478 O 131.691 -0.503259 1.87566 0
M  V30 1479 C 128.821 -0.491979 3.43798 0
M  V30 1480 C 127.775 0.315849 4.26833 0
M  V30 1481 C 127.101 -0.619586 5.31098 0
M  V30 1482 C 128.401 1.54282 4.98993 0
M  V30 1483 H 130.095 1.14621 2.76591 0
M  V30 1484 H 127.641 0.552613 1.32974 0
M  V30 1485 H 129.594 -0.879012 4.1213 0
M  V30 1486 H 128.318 -1.35299 2.97257 0
M  V30 1487 H 126.977 0.684664 3.6015 0
M  V30 1488 H 126.625 -1.47751 4.8081 0
M  V30 1489 H 126.325 -0.0830621 5.87541 0
M  V30 1490 H 127.849 -1.00375 6.02293 0
M  V30 1491 H 129.263 1.22796 5.59995 0
M  V30 1492 H 127.66 2.01745 5.65172 0
M  V30 1493 H 128.73 2.30285 4.26728 0
M  V30 1494 N 130.073 -1.45103 0.615059 0
M  V30 1495 C 131.319 -2.02483 0.113347 0
M  V30 1496 C 131.652 -1.48146 -1.25564 0
M  V30 1497 O 130.927 -0.659104 -1.82992 0
M  V30 1498 C 131.21 -3.60005 0.0825278 0
M  V30 1499 C 131.063 -4.2466 1.48271 0
M  V30 1500 C 132.382 -4.35972 -0.601401 0
M  V30 1501 H 129.501 -0.735764 0.0426632 0
M  V30 1502 H 132.143 -1.72868 0.788461 0
M  V30 1503 H 130.293 -3.85367 -0.492378 0
M  V30 1504 H 131.965 -4.10458 2.10527 0
M  V30 1505 H 130.208 -3.82772 2.04127 0
M  V30 1506 H 130.879 -5.336 1.41332 0
M  V30 1507 H 133.355 -4.15947 -0.112666 0
M  V30 1508 H 132.231 -5.45697 -0.592097 0
M  V30 1509 H 132.492 -4.09391 -1.66887 0
M  V30 1510 N 131.551 -0.354651 -1.53558 0
M  V30 1511 C 132.828 0.294281 -1.93374 0
M  V30 1512 C 133.208 1.67313 -1.28723 0
M  V30 1513 O 132.556 2.24179 -0.442247 0
M  V30 1514 C 132.766 0.355445 -3.47185 0
M  V30 1515 C 134.114 0.601007 -4.20325 0
M  V30 1516 O 135.138 0.437106 -3.53508 0
M  V30 1517 O 133.997 0.919322 -5.38712 0
M  V30 1518 H 131.091 0.174033 -0.808481 0
M  V30 1519 H 133.637 -0.406638 -1.64756 0
M  V30 1520 H 132.409 -0.611729 -3.86489 0
M  V30 1521 H 132.032 1.1027 -3.82003 0
M  V30 1522 N 133.029 1.57378 -0.0835403 0
M  V30 1523 C 134.257 1.98263 0.59157 0
M  V30 1524 C 134.672 0.962302 1.62435 0
M  V30 1525 O 134.029 -0.049581 1.82433 0
M  V30 1526 C 134.08 3.39214 1.24965 0
M  V30 1527 O 133.801 4.37339 0.258186 0
M  V30 1528 C 135.302 3.95038 2.01147 0
M  V30 1529 H 132.522 0.651773 0.159477 0
M  V30 1530 H 135.066 2.03878 -0.159415 0
M  V30 1531 H 133.221 3.34649 1.95164 0
M  V30 1532 H 133.635 5.19371 0.731734 0
M  V30 1533 H 135.109 4.95848 2.42567 0
M  V30 1534 H 135.586 3.32222 2.87272 0
M  V30 1535 H 136.192 4.0304 1.35789 0
M  V30 1536 N 134.507 -0.190092 1.56449 0
M  V30 1537 C 135.737 -0.92443 1.84764 0
M  V30 1538 C 136.145 -1.77146 0.664529 0
M  V30 1539 O 135.488 -1.79812 -0.375957 0
M  V30 1540 C 135.55 -1.86651 3.07248 0
M  V30 1541 C 135.214 -1.20094 4.40938 0
M  V30 1542 C 136.211 -0.575445 5.16706 0
M  V30 1543 C 133.896 -1.2033 4.87674 0
M  V30 1544 C 135.89 0.0388111 6.37388 0
M  V30 1545 C 133.577 -0.585214 6.08291 0
M  V30 1546 C 134.575 0.0347578 6.82991 0
M  V30 1547 O 134.263 0.643147 8.01323 0
M  V30 1548 H 133.995 -0.274974 0.617548 0
M  V30 1549 H 136.549 -0.200788 2.04416 0
M  V30 1550 H 134.779 -2.62998 2.83494 0
M  V30 1551 H 136.468 -2.46907 3.22167 0
M  V30 1552 H 137.234 -0.565728 4.81689 0
M  V30 1553 H 133.113 -1.67526 4.29484 0
M  V30 1554 H 136.657 0.523329 6.95634 0
M  V30 1555 H 132.554 -0.592451 6.42775 0
M  V30 1556 H 133.322 0.540545 8.16713 0
M  V30 1557 N 135.985 -1.50799 -0.457987 0
M  V30 1558 C 136.932 -1.70617 -1.5543 0
M  V30 1559 C 137.902 -0.547562 -1.56815 0
M  V30 1560 O 139.087 -0.779647 -1.74144 0
M  V30 1561 C 136.227 -1.81831 -2.93311 0
M  V30 1562 C 135.34 -3.09278 -3.01615 0
M  V30 1563 C 134.475 -3.11209 -4.30491 0
M  V30 1564 C 133.514 -4.33055 -4.32585 0
M  V30 1565 N 132.651 -4.32652 -5.52952 0
M  V30 1566 H 137.491 -2.64207 -1.37836 0
M  V30 1567 H 135.028 -1.30959 -0.669937 0
M  V30 1568 H 136.986 -1.86314 -3.73287 0
M  V30 1569 H 135.616 -0.916685 -3.0951 0
M  V30 1570 H 134.668 -3.14203 -2.1443 0
M  V30 1571 H 135.98 -3.99233 -2.99022 0
M  V30 1572 H 135.134 -3.14494 -5.18824 0
M  V30 1573 H 133.873 -2.19106 -4.35711 0
M  V30 1574 H 132.878 -4.29969 -3.42647 0
M  V30 1575 H 134.103 -5.264 -4.29046 0
M  V30 1576 H 132.049 -3.43409 -5.58933 0
M  V30 1577 H 131.966 -5.16392 -5.52155 0
M  V30 1578 H 133.234 -4.40101 -6.43375 0
M  V30 1579 N 137.463 0.71206 -1.40597 0
M  V30 1580 C 138.411 1.84746 -1.41321 0
M  V30 1581 C 139.405 1.66842 -0.293268 0
M  V30 1582 O 140.611 1.73904 -0.464481 0
M  V30 1583 H 136.986 0.608522 -0.441819 0
M  V30 1584 H 138.957 1.81252 -2.37045 0
M  V30 1585 C 137.706 3.22638 -1.29614 0
M  V30 1586 H 137.029 3.37023 -2.15071 0
M  V30 1587 H 138.469 4.02209 -1.3418 0
M  V30 1588 C 136.928 3.36899 -0.00673121 0
M  V30 1589 O 137.458 3.90186 0.954859 0
M  V30 1590 N 135.664 2.9053 0.0639327 0
M  V30 1591 H 135.211 2.47353 -0.719311 0
M  V30 1592 H 135.169 3.0045 0.926118 0
M  V30 1593 N 138.941 1.26152 0.944643 0
M  V30 1594 C 140.19 1.10883 1.68487 0
M  V30 1595 C 140.503 -0.348153 1.92477 0
M  V30 1596 O 141.709 -0.621459 2.64292 0
M  V30 1597 C 140.165 1.93624 3.03377 0
M  V30 1598 C 139.773 3.43875 2.87148 0
M  V30 1599 C 141.517 1.86954 3.81115 0
M  V30 1600 C 139.424 4.18875 4.1749 0
M  V30 1601 H 138.354 0.41135 0.631907 0
M  V30 1602 H 141.005 1.50433 1.05082 0
M  V30 1603 H 139.387 1.46904 3.67743 0
M  V30 1604 H 140.561 3.98338 2.31653 0
M  V30 1605 H 138.876 3.51744 2.22856 0
M  V30 1606 H 141.473 2.40275 4.77673 0
M  V30 1607 H 141.816 0.839518 4.07747 0
M  V30 1608 H 142.349 2.31477 3.23517 0
M  V30 1609 H 139.088 5.22332 3.96043 0
M  V30 1610 H 138.608 3.69193 4.72712 0
M  V30 1611 H 140.287 4.27134 4.85968 0
M  V30 1612 N 140.419 -1.14872 1.07899 0
M  V30 1613 C 141.366 -2.19791 0.704319 0
M  V30 1614 C 142.336 -1.63238 -0.306987 0
M  V30 1615 O 143.521 -1.8983 -0.192171 0
M  V30 1616 C 140.661 -3.44911 0.114244 0
M  V30 1617 C 139.774 -4.15637 1.1777 0
M  V30 1618 C 138.909 -5.28324 0.552037 0
M  V30 1619 C 137.948 -5.90875 1.59789 0
M  V30 1620 N 137.085 -6.95022 0.994404 0
M  V30 1621 H 141.925 -2.5119 1.60336 0
M  V30 1622 H 139.462 -1.23356 0.801352 0
M  V30 1623 H 141.42 -4.16477 -0.245544 0
M  V30 1624 H 140.05 -3.14011 -0.74813 0
M  V30 1625 H 139.102 -3.42512 1.65499 0
M  V30 1626 H 140.414 -4.5823 1.97046 0
M  V30 1627 H 139.568 -6.06538 0.1402 0
M  V30 1628 H 138.307 -4.86939 -0.272431 0
M  V30 1629 H 137.312 -5.11369 2.01945 0
M  V30 1630 H 138.537 -6.34337 2.42474 0
M  V30 1631 H 136.483 -6.55722 0.190939 0
M  V30 1632 H 136.4 -7.36073 1.72432 0
M  V30 1633 H 137.668 -7.77123 0.608253 0
M  V30 1634 N 141.898 -0.863906 -1.31812 0
M  V30 1635 C 142.808 -0.318461 -2.32428 0
M  V30 1636 C 143.824 0.568496 -1.64451 0
M  V30 1637 O 145 0.46666 -1.95919 0
M  V30 1638 C 142.065 0.476355 -3.43412 0
M  V30 1639 C 141.126 -0.43784 -4.27061 0
M  V30 1640 C 140.359 0.319138 -5.32745 0
M  V30 1641 O 140.582 1.54799 -5.48993 0
M  V30 1642 O 139.516 -0.319861 -6.01049 0
M  V30 1643 H 143.342 -1.15229 -2.80991 0
M  V30 1644 H 140.927 -0.627103 -1.35602 0
M  V30 1645 H 142.809 0.927156 -4.11074 0
M  V30 1646 H 141.484 1.28683 -2.97022 0
M  V30 1647 H 140.391 -0.937013 -3.62175 0
M  V30 1648 H 141.724 -1.21375 -4.77 0
M  V30 1649 N 143.376 1.44774 -0.622745 0
M  V30 1650 C 144.324 2.32387 0.0994683 0
M  V30 1651 C 145.318 1.46859 0.844326 0
M  V30 1652 O 146.524 1.63254 0.758174 0
M  V30 1653 H 142.899 0.750273 0.0509291 0
M  V30 1654 H 144.87 2.91062 -0.65767 0
M  V30 1655 C 143.619 3.30723 1.07319 0
M  V30 1656 H 142.942 3.96541 0.509462 0
M  V30 1657 H 144.382 3.94725 1.54817 0
M  V30 1658 C 142.841 2.59021 2.15429 0
M  V30 1659 O 143.371 2.38286 3.23393 0
M  V30 1660 N 141.577 2.189 1.91131 0
M  V30 1661 H 141.124 2.35964 1.03337 0
M  V30 1662 H 141.082 1.71251 2.63668 0
M  V30 1663 N 144.854 0.36279 1.53368 0
M  V30 1664 C 145.764 -0.492994 2.29362 0
M  V30 1665 C 146.78 -1.09507 1.35219 0
M  V30 1666 O 147.956 -1.10662 1.68273 0
M  V30 1667 C 145.021 -1.61855 3.066 0
M  V30 1668 C 144.082 -1.04429 4.16405 0
M  V30 1669 C 143.315 -2.11621 4.89951 0
M  V30 1670 O 143.538 -3.32684 4.63333 0
M  V30 1671 O 142.472 -1.74835 5.75948 0
M  V30 1672 H 146.298 0.125331 3.03441 0
M  V30 1673 H 143.883 0.127253 1.48857 0
M  V30 1674 H 145.765 -2.27302 3.54841 0
M  V30 1675 H 144.44 -2.22233 2.3536 0
M  V30 1676 H 143.347 -0.353819 3.72423 0
M  V30 1677 H 144.68 -0.485113 4.89804 0
M  V30 1678 N 146.332 -1.57332 0.0918853 0
M  V30 1679 C 147.609 -1.85691 -0.614668 0
M  V30 1680 C 147.989 -0.988146 -1.86545 0
M  V30 1681 O 147.337 -0.0597055 -2.28422 0
M  V30 1682 C 147.547 -3.36294 -0.933126 0
M  V30 1683 C 148.895 -4.04275 -1.29796 0
M  V30 1684 O 149.919 -3.41157 -1.02424 0
M  V30 1685 O 148.778 -5.1564 -1.81047 0
M  V30 1686 H 145.872 -0.767802 -0.307261 0
M  V30 1687 H 148.418 -1.69244 0.12434 0
M  V30 1688 H 147.19 -3.91273 -0.0456404 0
M  V30 1689 H 146.813 -3.58076 -1.72822 0
M  V30 1690 N 147.81 0.181792 -1.56548 0
M  V30 1691 C 149.087 0.926765 -1.72251 0
M  V30 1692 C 149.467 2.00831 -0.650386 0
M  V30 1693 O 148.815 2.26008 0.336521 0
M  V30 1694 C 149.025 1.50106 -3.1507 0
M  V30 1695 C 150.373 1.97805 -3.75711 0
M  V30 1696 O 151.397 1.59922 -3.18282 0
M  V30 1697 O 150.256 2.67555 -4.76525 0
M  V30 1698 H 147.35 0.435506 -0.703039 0
M  V30 1699 H 149.896 0.170443 -1.68842 0
M  V30 1700 H 148.668 0.72212 -3.84579 0
M  V30 1701 H 148.291 2.32186 -3.22763 0
M  V30 1702 N 149.288 1.51039 0.449983 0
M  V30 1703 C 150.236 1.71995 1.5659 0
M  V30 1704 C 151.23 0.586029 1.5894 0
M  V30 1705 O 152.436 0.76709 1.62837 0
M  V30 1706 H 148.811 0.543233 0.520001 0
M  V30 1707 H 150.782 2.65562 1.36085 0
M  V30 1708 C 149.531 1.8506 2.9436 0
M  V30 1709 H 148.854 2.71712 2.93279 0
M  V30 1710 H 150.294 2.0374 3.71842 0
M  V30 1711 C 148.753 0.607277 3.31382 0
M  V30 1712 O 149.283 -0.243903 4.00959 0
M  V30 1713 N 147.489 0.455073 2.87015 0
M  V30 1714 H 147.036 1.14879 2.30566 0
M  V30 1715 H 146.994 -0.375611 3.12148 0
M  V30 1716 N 150.766 -0.704594 1.40972 0
M  V30 1717 C 151.713 -1.81862 1.42109 0
M  V30 1718 C 152.683 -1.63781 0.276593 0
M  V30 1719 O 153.868 -1.84759 0.4763 0
M  V30 1720 C 151.008 -3.19669 1.30022 0
M  V30 1721 C 150.121 -3.49246 2.54267 0
M  V30 1722 C 149.256 -4.76618 2.3454 0
M  V30 1723 C 148.295 -4.99133 3.54306 0
M  V30 1724 N 147.432 -6.17726 3.33706 0
M  V30 1725 H 152.272 -1.80226 2.37324 0
M  V30 1726 H 149.809 -0.880238 1.17857 0
M  V30 1727 H 151.767 -3.99263 1.21018 0
M  V30 1728 H 150.397 -3.20506 0.384192 0
M  V30 1729 H 149.449 -2.64125 2.73756 0
M  V30 1730 H 150.761 -3.61788 3.43381 0
M  V30 1731 H 149.915 -5.64249 2.22952 0
M  V30 1732 H 148.654 -4.66305 1.42867 0
M  V30 1733 H 147.659 -4.09953 3.66359 0
M  V30 1734 H 148.884 -5.11311 4.4692 0
M  V30 1735 H 146.83 -6.08642 2.44725 0
M  V30 1736 H 146.747 -6.30995 4.16391 0
M  V30 1737 H 148.015 -7.08115 3.25873 0
M  V30 1738 N 152.244 -1.26651 -0.937939 0
M  V30 1739 C 153.192 -1.08308 -2.05845 0
M  V30 1740 C 154.186 -0.0090757 -1.69398 0
M  V30 1741 O 155.392 -0.166007 -1.79233 0
M  V30 1742 H 151.767 -0.333416 -0.674046 0
M  V30 1743 H 153.738 -2.03261 -2.18467 0
M  V30 1744 C 152.487 -0.736229 -3.39816 0
M  V30 1745 H 151.81 -1.55453 -3.6834 0
M  V30 1746 H 153.25 -0.64769 -4.19024 0
M  V30 1747 C 151.709 0.558824 -3.32233 0
M  V30 1748 O 152.239 1.59621 -3.68624 0
M  V30 1749 N 150.445 0.550657 -2.85335 0
M  V30 1750 H 149.992 -0.293943 -2.55917 0
M  V30 1751 H 149.95 1.41726 -2.80644 0
M  V30 1752 N 153.722 1.14298 -1.08507 0
M  V30 1753 C 154.971 1.84708 -0.810305 0
M  V30 1754 C 155.284 1.83903 0.666271 0
M  V30 1755 O 156.49 2.50112 1.05624 0
M  V30 1756 C 154.946 3.31572 -1.39957 0
M  V30 1757 C 154.554 3.40791 -2.90801 0
M  V30 1758 C 156.298 4.07087 -1.20334 0
M  V30 1759 C 154.205 4.81872 -3.4286 0
M  V30 1760 H 153.135 0.691985 -0.299454 0
M  V30 1761 H 155.786 1.28841 -1.30661 0
M  V30 1762 H 154.168 3.87183 -0.830976 0
M  V30 1763 H 155.342 2.95225 -3.53806 0
M  V30 1764 H 153.657 2.78732 -3.0935 0
M  V30 1765 H 156.254 5.11225 -1.56693 0
M  V30 1766 H 156.597 4.16054 -0.143237 0
M  V30 1767 H 157.13 3.57779 -1.73893 0
M  V30 1768 H 153.869 4.78094 -4.48449 0
M  V30 1769 H 153.389 5.27972 -2.84615 0
M  V30 1770 H 155.068 5.50765 -3.39509 0
M  V30 1771 N 155.201 0.870884 1.31352 0
M  V30 1772 C 156.617 0.562932 1.49343 0
M  V30 1773 C 156.817 -0.902725 1.80148 0
M  V30 1774 O 155.873 -1.68484 1.88067 0
M  V30 1775 C 157.186 1.46393 2.62659 0
M  V30 1776 C 158.734 1.46607 2.76542 0
M  V30 1777 C 159.209 2.35266 3.92955 0
M  V30 1778 N 160.7 2.33151 4.00243 0
M  V30 1779 C 161.435 2.98471 4.89594 0
M  V30 1780 N 160.931 3.72964 5.8384 0
M  V30 1781 N 162.724 2.87775 4.82848 0
M  V30 1782 H 154.875 1.81923 1.09626 0
M  V30 1783 H 157.138 0.777934 0.541777 0
M  V30 1784 H 156.844 2.50689 2.46674 0
M  V30 1785 H 156.718 1.16314 3.58819 0
M  V30 1786 H 159.105 0.43069 2.9194 0
M  V30 1787 H 159.186 1.8071 1.81046 0
M  V30 1788 H 158.83 3.38881 3.78315 0
M  V30 1789 H 158.76 1.98487 4.87761 0
M  V30 1790 H 161.251 1.79006 3.32814 0
M  V30 1791 H 161.564 4.19932 6.4875 0
M  V30 1792 H 159.909 3.77073 5.83816 0
M  V30 1793 H 163.1 2.29116 4.08195 0
M  V30 1794 H 163.273 3.38961 5.52277 0
M  V30 1795 N 156.679 -1.44442 0.630414 0
M  V30 1796 C 157.909 -2.06115 0.141465 0
M  V30 1797 C 158.317 -1.47179 -1.1889 0
M  V30 1798 O 157.66 -0.588873 -1.74006 0
M  V30 1799 C 157.722 -3.59467 -0.0484355 0
M  V30 1800 C 157.386 -4.40864 1.20366 0
M  V30 1801 C 158.383 -4.74391 2.12719 0
M  V30 1802 C 156.068 -4.8125 1.43887 0
M  V30 1803 C 158.062 -5.47186 3.26904 0
M  V30 1804 C 155.749 -5.53795 2.5837 0
M  V30 1805 C 156.747 -5.86682 3.49705 0
M  V30 1806 O 156.435 -6.57749 4.62191 0
M  V30 1807 H 156.167 -0.671648 0.0765792 0
M  V30 1808 H 158.721 -1.86312 0.864695 0
M  V30 1809 H 156.951 -3.77758 -0.826803 0
M  V30 1810 H 158.64 -4.02909 -0.491849 0
M  V30 1811 H 159.406 -4.43728 1.95781 0
M  V30 1812 H 155.285 -4.55073 0.736853 0
M  V30 1813 H 158.829 -5.72773 3.98217 0
M  V30 1814 H 154.726 -5.83872 2.75251 0
M  V30 1815 H 155.494 -6.76217 4.61164 0
M  V30 1816 N 158.157 -0.370918 -1.53173 0
M  V30 1817 C 159.406 0.218249 -2.00516 0
M  V30 1818 C 159.719 1.49429 -1.26215 0
M  V30 1819 O 160.925 2.16239 -1.64174 0
M  V30 1820 C 159.381 0.43948 -3.57207 0
M  V30 1821 C 158.989 -0.822244 -4.4039 0
M  V30 1822 C 160.733 0.986012 -4.1289 0
M  V30 1823 C 158.64 -0.570304 -5.88644 0
M  V30 1824 H 157.57 0.0853333 -0.749156 0
M  V30 1825 H 160.221 -0.490483 -1.76823 0
M  V30 1826 H 158.603 1.20961 -3.77074 0
M  V30 1827 H 159.777 -1.59557 -4.32294 0
M  V30 1828 H 158.092 -1.29238 -3.95836 0
M  V30 1829 H 160.689 1.18991 -5.21292 0
M  V30 1830 H 161.032 1.94972 -3.6782 0
M  V30 1831 H 161.565 0.27592 -3.96842 0
M  V30 1832 H 158.304 -1.50449 -6.38001 0
M  V30 1833 H 157.824 0.164427 -5.99575 0
M  V30 1834 H 159.503 -0.19784 -6.46697 0
M  V30 1835 N 159.635 1.57281 -0.100228 0
M  V30 1836 C 160.882 1.94537 0.562268 0
M  V30 1837 C 161.21 0.982315 1.67871 0
M  V30 1838 O 160.465 0.00280936 1.957 0
M  V30 1839 C 160.764 3.38305 1.15259 0
M  V30 1840 C 160.43 4.50618 0.159409 0
M  V30 1841 C 159.092 4.81066 -0.113741 0
M  V30 1842 C 161.444 5.18615 -0.518461 0
M  V30 1843 C 158.772 5.76835 -1.07137 0
M  V30 1844 C 161.124 6.15412 -1.46459 0
M  V30 1845 C 159.788 6.44262 -1.74592 0
M  V30 1846 H 159.058 0.711863 0.205748 0
M  V30 1847 H 161.705 1.90679 -0.17715 0
M  V30 1848 H 160.01 3.38766 1.96836 0
M  V30 1849 H 161.707 3.64435 1.67297 0
M  V30 1850 H 158.297 4.2689 0.382491 0
M  V30 1851 H 162.481 4.95264 -0.320581 0
M  V30 1852 H 157.737 5.975 -1.29628 0
M  V30 1853 H 161.911 6.67194 -1.99564 0
M  V30 1854 H 159.538 7.1828 -2.48953 0
M  V30 1855 N 161.113 -0.173488 1.56642 0
M  V30 1856 C 162.043 -1.2171 1.99271 0
M  V30 1857 C 163.024 -1.46289 0.867959 0
M  V30 1858 O 164.209 -1.5766 1.13388 0
M  V30 1859 C 161.339 -2.55651 2.35074 0
M  V30 1860 C 160.293 -2.45645 3.50489 0
M  V30 1861 C 159.619 -3.84056 3.72028 0
M  V30 1862 C 160.919 -1.96302 4.84007 0
M  V30 1863 H 162.613 -0.86275 2.867 0
M  V30 1864 H 160.159 -0.413571 1.37933 0
M  V30 1865 H 162.112 -3.2886 2.63494 0
M  V30 1866 H 160.836 -2.92869 1.44552 0
M  V30 1867 H 159.495 -1.7489 3.22194 0
M  V30 1868 H 159.143 -4.18664 2.788 0
M  V30 1869 H 158.843 -3.7823 4.49684 0
M  V30 1870 H 160.367 -4.58854 4.02846 0
M  V30 1871 H 161.781 -2.59284 5.11317 0
M  V30 1872 H 160.178 -2.01429 5.65284 0
M  V30 1873 H 161.248 -0.917226 4.76146 0
M  V30 1874 N 162.591 -1.51276 -0.441967 0
M  V30 1875 C 163.839 -1.63392 -1.18943 0
M  V30 1876 C 164.16 -0.350159 -1.9183 0
M  V30 1877 O 163.43 0.633784 -1.85364 0
M  V30 1878 H 162.01 -0.602164 -0.442049 0
M  V30 1879 H 164.672 -1.88186 -0.507165 0
M  V30 1880 H 163.768 -2.45934 -1.92154 0
M  V30 1881 N 164.069 0.697108 -1.41344 0
M  V30 1882 C 165.297 1.48593 -1.43972 0
M  V30 1883 C 165.712 1.88747 -0.0445612 0
M  V30 1884 O 165.069 1.56682 0.935785 0
M  V30 1885 C 165.12 2.74946 -2.34706 0
M  V30 1886 O 164.841 2.36484 -3.68791 0
M  V30 1887 C 166.342 3.687 -2.46121 0
M  V30 1888 H 163.562 0.457964 -0.490418 0
M  V30 1889 H 166.106 0.858429 -1.8561 0
M  V30 1890 H 164.261 3.33937 -1.9638 0
M  V30 1891 H 164.675 3.17918 -4.17167 0
M  V30 1892 H 166.149 4.54145 -3.13777 0
M  V30 1893 H 166.626 4.13081 -1.49199 0
M  V30 1894 H 167.232 3.15613 -2.85076 0
M  V30 1895 N 165.547 1.27147 0.931209 0
M  V30 1896 C 166.772 1.16191 1.71797 0
M  V30 1897 C 167.197 -0.278004 1.86034 0
M  V30 1898 O 166.555 -1.20137 1.35782 0
M  V30 1899 C 166.603 1.84673 3.09723 0
M  V30 1900 O 165.707 1.14231 3.96264 0
M  V30 1901 H 165.048 0.404303 0.526721 0
M  V30 1902 H 167.578 1.68152 1.1656 0
M  V30 1903 H 167.588 1.91893 3.60057 0
M  V30 1904 H 166.263 2.89421 2.98677 0
M  V30 1905 H 164.84 1.15056 3.54706 0
M  V30 1906 N 167.025 -1.13721 1.09112 0
M  V30 1907 C 168.272 -1.84924 0.825192 0
M  V30 1908 C 168.6 -1.83347 -0.649151 0
M  V30 1909 O 167.855 -1.26449 -1.49362 0
M  V30 1910 C 168.154 -3.32861 1.30146 0
M  V30 1911 C 167.82 -3.54621 2.78486 0
M  V30 1912 C 166.482 -3.60268 3.18999 0
M  V30 1913 C 168.834 -3.62855 3.74146 0
M  V30 1914 C 166.162 -3.71679 4.53951 0
M  V30 1915 C 168.514 -3.75793 5.08883 0
M  V30 1916 C 167.178 -3.79692 5.4899 0
M  V30 1917 H 166.448 -0.676684 0.301959 0
M  V30 1918 H 169.095 -1.3428 1.36533 0
M  V30 1919 H 167.4 -3.85835 0.681064 0
M  V30 1920 H 169.097 -3.86395 1.07236 0
M  V30 1921 H 165.687 -3.50879 2.46134 0
M  V30 1922 H 169.871 -3.57775 3.43963 0
M  V30 1923 H 165.127 -3.72963 4.84467 0
M  V30 1924 H 169.301 -3.81107 5.82864 0
M  V30 1925 H 166.928 -3.88287 6.53558 0
M  V30 1926 N 168.503 -0.877838 -1.30888 0
M  V30 1927 C 169.728 -0.506629 -2.01117 0
M  V30 1928 C 170.153 0.895564 -1.65412 0
M  V30 1929 O 169.511 1.5923 -0.866922 0
M  V30 1930 C 169.559 -0.680223 -3.54126 0
M  V30 1931 O 168.663 0.277033 -4.11468 0
M  V30 1932 H 168.004 -0.200518 -0.633 0
M  V30 1933 H 170.534 -1.18342 -1.66902 0
M  V30 1934 H 170.544 -0.5765 -4.03907 0
M  V30 1935 H 169.219 -1.70261 -3.79452 0
M  V30 1936 H 167.796 0.127606 -3.72682 0
M  V30 1937 N 169.982 1.44106 -0.638065 0
M  V30 1938 C 171.398 1.56672 -0.304286 0
M  V30 1939 C 171.598 1.6244 1.19228 0
M  V30 1940 O 170.654 1.57121 1.9766 0
M  V30 1941 C 171.967 2.83503 -1.00231 0
M  V30 1942 C 173.515 2.97226 -0.981116 0
M  V30 1943 C 173.99 4.26868 -1.65974 0
M  V30 1944 N 175.481 4.33698 -1.62666 0
M  V30 1945 C 176.216 5.32745 -2.12063 0
M  V30 1946 N 175.712 6.38157 -2.6968 0
M  V30 1947 N 177.505 5.24299 -2.02651 0
M  V30 1948 H 169.656 1.38605 -1.60942 0
M  V30 1949 H 171.919 0.664661 -0.675965 0
M  V30 1950 H 171.625 2.85251 -2.0573 0
M  V30 1951 H 171.499 3.73251 -0.54439 0
M  V30 1952 H 173.886 2.95027 0.0654188 0
M  V30 1953 H 173.967 2.08808 -1.47759 0
M  V30 1954 H 173.611 4.29826 -2.70576 0
M  V30 1955 H 173.541 5.14156 -1.13804 0
M  V30 1956 H 176.032 3.58138 -1.20606 0
M  V30 1957 H 176.345 7.10029 -3.05087 0
M  V30 1958 H 174.69 6.38823 -2.73734 0
M  V30 1959 H 177.881 4.4086 -1.57353 0
M  V30 1960 H 178.054 6.01334 -2.41457 0
M  V30 1961 N 171.46 0.379036 1.52974 0
M  V30 1962 C 172.709 -0.207612 2.00629 0
M  V30 1963 C 173.022 -1.48758 1.27006 0
M  V30 1964 O 174.228 -2.15365 1.65318 0
M  V30 1965 C 172.684 -0.42053 3.57435 0
M  V30 1966 C 172.292 0.845587 4.39948 0
M  V30 1967 C 174.036 -0.964102 4.13407 0
M  V30 1968 C 171.943 0.601513 5.88333 0
M  V30 1969 H 170.873 -0.0813591 0.749598 0
M  V30 1970 H 173.524 0.499853 1.76561 0
M  V30 1971 H 171.906 -1.18959 3.7771 0
M  V30 1972 H 173.08 1.61848 4.31442 0
M  V30 1973 H 171.395 1.31336 3.95145 0
M  V30 1974 H 173.992 -1.16225 5.21916 0
M  V30 1975 H 174.335 -1.93019 3.68849 0
M  V30 1976 H 174.868 -0.25487 3.96983 0
M  V30 1977 H 171.607 1.53831 6.37194 0
M  V30 1978 H 171.127 -0.132628 5.99653 0
M  V30 1979 H 172.806 0.232134 6.46583 0
M  V30 1980 N 172.938 -1.57226 0.108567 0
M  V30 1981 C 173.888 -2.11305 -0.856396 0
M  V30 1982 C 174.872 -1.03129 -1.23504 0
M  V30 1983 O 176.064 -1.29381 -1.20787 0
M  V30 1984 C 173.193 -2.70771 -2.11041 0
M  V30 1985 C 172.279 -3.86011 -1.7566 0
M  V30 1986 N 172.67 -4.93492 -1.10902 0
M  V30 1987 C 170.968 -3.95999 -2.05185 0
M  V30 1988 C 171.669 -5.73984 -0.944308 0
M  V30 1989 N 170.645 -5.2346 -1.46596 0
M  V30 1990 H 174.447 -2.91784 -0.352002 0
M  V30 1991 H 171.961 -1.62126 -0.0942324 0
M  V30 1992 H 173.958 -3.07851 -2.81128 0
M  V30 1993 H 172.618 -1.91751 -2.62034 0
M  V30 1994 H 173.629 -5.1208 -0.774235 0
M  V30 1995 H 170.306 -3.28007 -2.58298 0
M  V30 1996 H 171.696 -6.70479 -0.436813 0
M  V30 1997 N 174.416 0.165178 -1.56732 0
M  V30 1998 C 175.827 0.727046 -1.71962 0
M  V30 1999 C 176.178 1.82508 -0.720078 0
M  V30 2000 O 175.303 2.16082 0.117242 0
M  V30 2001 C 175.898 1.32559 -3.11791 0
M  V30 2002 C 174.457 1.83422 -3.28684 0
M  V30 2003 C 173.604 0.715567 -2.67908 0
M  V30 2004 H 176.555 -0.0602896 -1.58585 0
M  V30 2005 H 176.576 2.19533 -3.10782 0
M  V30 2006 H 176.088 0.526195 -3.84516 0
M  V30 2007 H 174.189 2.65986 -2.60926 0
M  V30 2008 H 174.302 1.97543 -4.36478 0
M  V30 2009 H 172.666 1.13758 -2.27884 0
M  V30 2010 H 173.449 -0.0720836 -3.43224 0
M  V30 2011 N 175.894 1.51508 0.433938 0
M  V30 2012 C 176.824 1.76016 1.53429 0
M  V30 2013 C 177.805 0.610112 1.58782 0
M  V30 2014 O 178.99 0.853177 1.74455 0
M  V30 2015 C 176.12 1.88831 2.9148 0
M  V30 2016 C 175.074 3.04288 3.00987 0
M  V30 2017 C 174.4 3.0229 4.4105 0
M  V30 2018 C 175.7 4.44193 2.74754 0
M  V30 2019 H 177.394 2.68152 1.33171 0
M  V30 2020 H 174.94 1.29035 0.639214 0
M  V30 2021 H 176.893 2.04559 3.6842 0
M  V30 2022 H 175.617 0.933455 3.12976 0
M  V30 2023 H 174.276 2.8827 2.26486 0
M  V30 2024 H 173.924 2.04576 4.59519 0
M  V30 2025 H 173.624 3.79822 4.4834 0
M  V30 2026 H 175.148 3.20116 5.1996 0
M  V30 2027 H 176.562 4.60544 3.41426 0
M  V30 2028 H 174.959 5.23457 2.9345 0
M  V30 2029 H 176.029 4.53996 1.70339 0
M  V30 2030 N 177.372 -0.689602 1.41712 0
M  V30 2031 C 178.32 -1.82475 1.44242 0
M  V30 2032 C 179.314 -1.66354 0.319774 0
M  V30 2033 O 180.52 -1.73143 0.492089 0
M  V30 2034 H 176.895 -0.601416 0.451445 0
M  V30 2035 H 178.866 -1.77458 2.39899 0
M  V30 2036 C 177.615 -3.20535 1.3473 0
M  V30 2037 H 176.938 -3.33559 2.20405 0
M  V30 2038 H 178.378 -4.00023 1.40562 0
M  V30 2039 C 176.837 -3.36846 0.0603281 0
M  V30 2040 O 177.367 -3.91656 -0.892663 0
M  V30 2041 N 175.573 -2.90595 -0.0177039 0
M  V30 2042 H 175.12 -2.46178 0.758572 0
M  V30 2043 H 175.078 -3.01886 -0.878201 0
M  V30 2044 N 178.85 -1.27639 -0.924453 0
M  V30 2045 C 180.097 -1.14167 -1.67249 0
M  V30 2046 C 180.425 0.311863 -1.91984 0
M  V30 2047 O 179.68 1.24425 -1.51053 0
M  V30 2048 C 179.979 -1.87407 -3.04325 0
M  V30 2049 C 179.645 -3.37249 -2.99289 0
M  V30 2050 C 178.307 -3.7812 -2.97622 0
M  V30 2051 C 180.659 -4.32845 -2.90336 0
M  V30 2052 C 177.987 -5.12944 -2.8479 0
M  V30 2053 C 180.339 -5.6773 -2.79045 0
M  V30 2054 C 179.003 -6.07889 -2.7573 0
M  V30 2055 H 178.273 -0.417766 -0.612007 0
M  V30 2056 H 180.92 -1.58286 -1.07786 0
M  V30 2057 H 179.225 -1.35805 -3.67511 0
M  V30 2058 H 180.922 -1.74408 -3.61086 0
M  V30 2059 H 177.512 -3.04748 -3.01374 0
M  V30 2060 H 181.696 -4.02239 -2.90719 0
M  V30 2061 H 176.952 -5.432 -2.80612 0
M  V30 2062 H 181.126 -6.41472 -2.71083 0
M  V30 2063 H 178.753 -7.12314 -2.65544 0
M  V30 2064 N 180.328 1.1314 -1.09713 0
M  V30 2065 C 181.238 2.22242 -0.751367 0
M  V30 2066 C 182.254 1.72224 0.247938 0
M  V30 2067 O 183.43 2.01205 0.0885463 0
M  V30 2068 C 180.495 3.46231 -0.180274 0
M  V30 2069 C 179.556 4.11125 -1.2359 0
M  V30 2070 C 178.789 5.29195 -0.691966 0
M  V30 2071 O 179.012 5.68342 0.48414 0
M  V30 2072 O 177.946 5.84214 -1.44838 0
M  V30 2073 H 181.772 2.54197 -1.66186 0
M  V30 2074 H 179.357 1.21331 -0.871735 0
M  V30 2075 H 181.239 4.21185 0.134739 0
M  V30 2076 H 179.914 3.1597 0.703185 0
M  V30 2077 H 178.821 3.37985 -1.60366 0
M  V30 2078 H 180.154 4.45524 -2.09211 0
M  V30 2079 N 181.806 0.884767 1.30421 0
M  V30 2080 C 183.036 0.517293 2.00019 0
M  V30 2081 C 183.444 -0.898632 1.66497 0
M  V30 2082 O 182.787 -1.60245 0.898181 0
M  V30 2083 C 182.849 0.612025 3.54252 0
M  V30 2084 C 182.513 1.99222 4.1129 0
M  V30 2085 C 183.51 2.9616 4.273 0
M  V30 2086 C 181.195 2.29755 4.46674 0
M  V30 2087 C 183.189 4.21764 4.77906 0
M  V30 2088 C 180.876 3.55606 4.96979 0
M  V30 2089 C 181.874 4.51425 5.12547 0
M  V30 2090 O 181.562 5.75043 5.61766 0
M  V30 2091 H 181.294 0.198529 0.64619 0
M  V30 2092 H 183.848 1.1919 1.67281 0
M  V30 2093 H 182.078 -0.119561 3.86515 0
M  V30 2094 H 183.767 0.255859 4.05093 0
M  V30 2095 H 184.533 2.73882 4.00267 0
M  V30 2096 H 180.412 1.55942 4.33824 0
M  V30 2097 H 183.956 4.96561 4.89972 0
M  V30 2098 H 179.853 3.7772 5.23448 0
M  V30 2099 H 180.621 5.77422 5.80109 0
M  V30 2100 N 183.284 -1.43765 0.645699 0
M  V30 2101 C 184.531 -2.01898 0.15604 0
M  V30 2102 C 184.859 -1.50887 -1.22733 0
M  V30 2103 O 184.114 -0.689271 -1.8316 0
M  V30 2104 C 184.413 -3.57238 0.107679 0
M  V30 2105 C 184.079 -4.27564 1.43178 0
M  V30 2106 C 182.741 -4.46492 1.7944 0
M  V30 2107 C 185.093 -4.67454 2.30513 0
M  V30 2108 C 182.421 -5.02573 3.02716 0
M  V30 2109 C 184.773 -5.24901 3.53074 0
M  V30 2110 C 183.437 -5.42046 3.89541 0
M  V30 2111 H 182.707 -0.738797 0.057099 0
M  V30 2112 H 185.354 -1.72341 0.834912 0
M  V30 2113 H 183.659 -3.86293 -0.654618 0
M  V30 2114 H 185.356 -3.99965 -0.287938 0
M  V30 2115 H 181.946 -4.13171 1.13963 0
M  V30 2116 H 186.13 -4.5253 2.0379 0
M  V30 2117 H 181.386 -5.14033 3.31028 0
M  V30 2118 H 185.56 -5.54758 4.20971 0
M  V30 2119 H 183.187 -5.85268 4.85145 0
M  V30 2120 N 184.763 -0.387143 -1.52771 0
M  V30 2121 C 185.693 0.440551 -2.29306 0
M  V30 2122 C 186.674 1.06535 -1.32606 0
M  V30 2123 O 187.859 1.07853 -1.61497 0
M  V30 2124 C 184.989 1.56919 -3.09829 0
M  V30 2125 C 183.943 1.07054 -4.14395 0
M  V30 2126 C 183.269 2.29109 -4.83129 0
M  V30 2127 C 184.569 0.140015 -5.22112 0
M  V30 2128 H 186.263 -0.198026 -2.98744 0
M  V30 2129 H 183.809 -0.09668 -1.43675 0
M  V30 2130 H 185.762 2.15503 -3.62128 0
M  V30 2131 H 184.486 2.23532 -2.3812 0
M  V30 2132 H 183.145 0.507247 -3.63074 0
M  V30 2133 H 182.793 2.94227 -4.0797 0
M  V30 2134 H 182.493 1.96406 -5.53804 0
M  V30 2135 H 184.017 2.88339 -5.38231 0
M  V30 2136 H 185.431 0.633978 -5.69784 0
M  V30 2137 H 183.828 -0.0971485 -6.00021 0
M  V30 2138 H 184.898 -0.811711 -4.78058 0
M  V30 2139 N 186.241 1.57166 -0.116904 0
M  V30 2140 C 187.657 1.5779 0.239693 0
M  V30 2141 C 187.857 1.1295 1.66867 0
M  V30 2142 O 186.913 0.81592 2.38954 0
M  V30 2143 C 188.226 3.00699 0.00828202 0
M  V30 2144 C 189.774 3.12912 0.0743438 0
M  V30 2145 C 190.249 4.57817 -0.129348 0
M  V30 2146 N 191.74 4.63139 -0.075247 0
M  V30 2147 C 192.475 5.73023 -0.207788 0
M  V30 2148 N 191.971 6.91665 -0.396382 0
M  V30 2149 N 193.764 5.61906 -0.14751 0
M  V30 2150 H 185.915 1.84615 -1.05029 0
M  V30 2151 H 188.178 0.85311 -0.41341 0
M  V30 2152 H 187.884 3.37784 -0.979531 0
M  V30 2153 H 187.758 3.69848 0.741077 0
M  V30 2154 H 190.145 2.75686 1.05268 0
M  V30 2155 H 190.226 2.4631 -0.690297 0
M  V30 2156 H 189.87 4.95742 -1.10465 0
M  V30 2157 H 189.8 5.22507 0.655253 0
M  V30 2158 H 192.291 3.7784 0.0670898 0
M  V30 2159 H 192.604 7.71255 -0.488437 0
M  V30 2160 H 190.949 6.93654 -0.432329 0
M  V30 2161 H 194.14 4.681 -0.00115036 0
M  V30 2162 H 194.313 6.47501 -0.254247 0
M  V30 2163 N 187.719 -0.156864 1.56817 0
M  V30 2164 C 188.666 -1.19394 1.97519 0
M  V30 2165 C 189.636 -1.4322 0.841265 0
M  V30 2166 O 190.821 -1.55719 1.10255 0
M  V30 2167 C 187.961 -2.52483 2.35258 0
M  V30 2168 C 187.074 -2.35914 3.61896 0
M  V30 2169 C 186.209 -3.61969 3.88782 0
M  V30 2170 C 185.248 -3.40395 5.08722 0
M  V30 2171 N 184.385 -4.58556 5.31668 0
M  V30 2172 H 189.225 -0.839845 2.85921 0
M  V30 2173 H 186.762 -0.403264 1.41464 0
M  V30 2174 H 188.72 -3.30071 2.55165 0
M  V30 2175 H 187.35 -2.85859 1.49949 0
M  V30 2176 H 186.402 -1.49429 3.49821 0
M  V30 2177 H 187.714 -2.15926 4.49641 0
M  V30 2178 H 186.868 -4.47989 4.09135 0
M  V30 2179 H 185.607 -3.84951 2.9944 0
M  V30 2180 H 184.612 -2.52763 4.88253 0
M  V30 2181 H 185.837 -3.18822 5.99608 0
M  V30 2182 H 183.783 -4.81729 4.45279 0
M  V30 2183 H 183.7 -4.41535 6.13664 0
M  V30 2184 H 184.968 -5.45817 5.5651 0
M  V30 2185 N 189.197 -1.51736 -0.425897 0
M  V30 2186 C 190.127 -1.76827 -1.52494 0
M  V30 2187 C 191.108 -0.618524 -1.58456 0
M  V30 2188 O 192.293 -0.862416 -1.74 0
M  V30 2189 C 189.423 -1.90374 -2.90474 0
M  V30 2190 C 188.377 -3.0588 -2.99369 0
M  V30 2191 C 187.703 -3.04625 -4.3944 0
M  V30 2192 C 189.003 -4.45644 -2.72394 0
M  V30 2193 H 190.697 -2.68855 -1.31748 0
M  V30 2194 H 188.243 -1.29372 -0.632362 0
M  V30 2195 H 190.196 -2.0651 -3.6733 0
M  V30 2196 H 188.92 -0.95004 -3.12477 0
M  V30 2197 H 187.579 -2.89467 -2.24954 0
M  V30 2198 H 187.227 -2.0701 -4.58428 0
M  V30 2199 H 186.927 -3.82195 -4.46319 0
M  V30 2200 H 188.451 -3.22869 -5.18255 0
M  V30 2201 H 189.865 -4.62348 -3.38979 0
M  V30 2202 H 188.262 -5.25006 -2.9067 0
M  V30 2203 H 189.332 -4.54893 -1.67929 0
M  V30 2204 N 190.675 0.682077 -1.42076 0
M  V30 2205 C 191.623 1.81707 -1.45208 0
M  V30 2206 C 192.617 1.66183 -0.328591 0
M  V30 2207 O 193.823 1.7288 -0.501264 0
M  V30 2208 H 190.198 0.599014 -0.454628 0
M  V30 2209 H 192.169 1.76183 -2.40836 0
M  V30 2210 C 190.918 3.19816 -1.36428 0
M  V30 2211 H 190.241 3.32385 -2.22171 0
M  V30 2212 H 191.681 3.99272 -1.42681 0
M  V30 2213 C 190.14 3.36809 -0.078191 0
M  V30 2214 O 190.67 3.92124 0.87188 0
M  V30 2215 N 188.876 2.906 0.00229266 0
M  V30 2216 H 188.423 2.45772 -0.771616 0
M  V30 2217 H 188.381 3.02347 0.862179 0
M  V30 2218 N 192.153 1.28127 0.917671 0
M  V30 2219 C 193.1 1.11717 2.0196 0
M  V30 2220 C 194.07 0.0153929 1.66093 0
M  V30 2221 O 195.255 0.179596 1.89953 0
M  V30 2222 C 192.395 0.780927 3.36148 0
M  V30 2223 C 191.508 1.96135 3.84909 0
M  V30 2224 C 190.643 1.56609 5.0759 0
M  V30 2225 C 189.682 2.71339 5.48673 0
M  V30 2226 N 188.819 2.32332 6.62545 0
M  V30 2227 H 193.659 2.06003 2.15329 0
M  V30 2228 H 191.196 1.02535 1.05475 0
M  V30 2229 H 193.154 0.56675 4.13333 0
M  V30 2230 H 191.784 -0.124998 3.22558 0
M  V30 2231 H 190.836 2.28777 3.03916 0
M  V30 2232 H 192.148 2.82165 4.1132 0
M  V30 2233 H 191.302 1.31374 5.92305 0
M  V30 2234 H 190.041 0.677014 4.82978 0
M  V30 2235 H 189.046 2.97276 4.62501 0
M  V30 2236 H 190.271 3.60882 5.75274 0
M  V30 2237 H 188.217 1.45889 6.39572 0
M  V30 2238 H 188.134 3.11899 6.88662 0
M  V30 2239 H 189.402 2.10371 7.50576 0
M  V30 2240 N 193.631 -1.12557 1.10312 0
M  V30 2241 C 194.861 -1.87592 0.865617 0
M  V30 2242 C 195.269 -1.79851 -0.587389 0
M  V30 2243 O 194.612 -1.16949 -1.41664 0
M  V30 2244 C 194.674 -3.37665 1.23381 0
M  V30 2245 C 194.338 -3.69181 2.69359 0
M  V30 2246 C 195.335 -3.67652 3.67597 0
M  V30 2247 C 193.02 -3.98555 3.05711 0
M  V30 2248 C 195.014 -3.95053 5.00212 0
M  V30 2249 C 192.701 -4.25616 4.38514 0
M  V30 2250 C 193.699 -4.23851 5.35574 0
M  V30 2251 O 193.387 -4.50242 6.65986 0
M  V30 2252 H 193.119 -0.600442 0.310557 0
M  V30 2253 H 195.673 -1.4335 1.47105 0
M  V30 2254 H 193.903 -3.82454 0.571467 0
M  V30 2255 H 195.592 -3.94041 0.973994 0
M  V30 2256 H 196.358 -3.45024 3.40857 0
M  V30 2257 H 192.237 -3.99071 2.30789 0
M  V30 2258 H 195.781 -3.93591 5.75962 0
M  V30 2259 H 191.678 -4.47718 4.64994 0
M  V30 2260 H 192.446 -4.67867 6.71597 0
M  V30 2261 N 195.109 -0.891671 -1.2995 0
M  V30 2262 C 196.358 -0.509521 -1.95158 0
M  V30 2263 C 196.671 0.947388 -1.71125 0
M  V30 2264 O 197.877 1.43669 -2.30372 0
M  V30 2265 C 196.333 -0.860315 -3.49466 0
M  V30 2266 C 195.941 -2.33545 -3.8231 0
M  V30 2267 C 197.685 -0.547687 -4.20952 0
M  V30 2268 C 195.592 -2.62752 -5.29826 0
M  V30 2269 H 194.522 -0.18682 -0.730489 0
M  V30 2270 H 197.173 -1.08756 -1.47798 0
M  V30 2271 H 195.555 -0.211285 -3.95436 0
M  V30 2272 H 196.729 -3.02936 -3.47227 0
M  V30 2273 H 195.044 -2.61629 -3.23944 0
M  V30 2274 H 197.641 -0.742854 -5.29515 0
M  V30 2275 H 197.984 0.51332 -4.13123 0
M  V30 2276 H 198.517 -1.1542 -3.80688 0
M  V30 2277 H 195.256 -3.6762 -5.42712 0
M  V30 2278 H 194.776 -1.97977 -5.66185 0
M  V30 2279 H 196.455 -2.48601 -5.97333 0
M  V30 2280 N 196.587 1.43421 -0.653314 0
M  V30 2281 C 197.817 2.05864 -0.174238 0
M  V30 2282 C 198.225 1.49052 1.16534 0
M  V30 2283 O 197.568 0.616481 1.73047 0
M  V30 2284 C 197.63 3.59499 -0.00875873 0
M  V30 2285 C 197.294 4.38893 -1.27364 0
M  V30 2286 C 198.291 4.70947 -2.20239 0
M  V30 2287 C 195.976 4.789 -1.51525 0
M  V30 2288 C 197.97 5.41916 -3.35568 0
M  V30 2289 C 195.657 5.49614 -2.67147 0
M  V30 2290 C 196.655 5.81044 -3.58994 0
M  V30 2291 O 196.343 6.50313 -4.72597 0
M  V30 2292 H 196.075 0.670345 -0.0872549 0
M  V30 2293 H 198.629 1.84913 -0.894226 0
M  V30 2294 H 196.859 3.79025 0.7666 0
M  V30 2295 H 198.548 4.0364 0.427687 0
M  V30 2296 H 199.314 4.40558 -2.02815 0
M  V30 2297 H 195.193 4.53843 -0.809158 0
M  V30 2298 H 198.737 5.66365 -4.07279 0
M  V30 2299 H 194.634 5.79419 -2.84505 0
M  V30 2300 H 195.402 6.68795 -4.71864 0
M  V30 2301 N 198.065 0.39524 1.52563 0
M  V30 2302 C 199.013 -0.451859 2.28169 0
M  V30 2303 C 200.007 -1.05792 1.32304 0
M  V30 2304 O 201.213 -0.997718 1.49818 0
M  V30 2305 H 197.588 -0.164481 0.733792 0
M  V30 2306 H 199.559 0.207199 2.9768 0
M  V30 2307 C 198.308 -1.56385 3.10546 0
M  V30 2308 H 197.631 -1.10682 3.84174 0
M  V30 2309 H 199.071 -2.13067 3.66577 0
M  V30 2310 C 197.53 -2.52328 2.23231 0
M  V30 2311 O 198.06 -3.5588 1.86312 0
M  V30 2312 N 196.266 -2.22209 1.87274 0
M  V30 2313 H 195.813 -1.38033 2.17496 0
M  V30 2314 H 195.771 -2.86652 1.29143 0
M  V30 2315 N 199.544 -1.57102 0.125237 0
M  V30 2316 C 200.792 -1.95021 -0.530198 0
M  V30 2317 C 201.113 -1.00982 -1.66816 0
M  V30 2318 O 200.383 -0.0672693 -1.95784 0
M  V30 2319 H 198.963 -0.720046 -0.198853 0
M  V30 2320 H 201.625 -1.93916 0.19564 0
M  V30 2321 H 200.721 -2.98211 -0.920681 0
M  V30 2322 N 201.022 0.148545 -1.56898 0
M  V30 2323 C 201.97 1.20265 -1.99096 0
M  V30 2324 C 202.964 1.44559 -0.883123 0
M  V30 2325 O 204.17 1.4487 -1.0683 0
M  V30 2326 H 200.545 0.404786 -0.63376 0
M  V30 2327 H 202.516 0.82004 -2.86911 0
M  V30 2328 C 201.265 2.52886 -2.3863 0
M  V30 2329 H 200.588 2.35021 -3.23427 0
M  V30 2330 H 202.028 3.25274 -2.7198 0
M  V30 2331 C 200.487 3.13315 -1.23837 0
M  V30 2332 O 201.017 3.98077 -0.538268 0
M  V30 2333 N 199.223 2.72742 -1.00301 0
M  V30 2334 H 198.77 2.03912 -1.5741 0
M  V30 2335 H 198.728 3.13507 -0.236838 0
M  V30 2336 N 202.5 1.5196 0.417844 0
M  V30 2337 C 203.749 1.6482 1.16264 0
M  V30 2338 C 204.062 0.379886 1.91876 0
M  V30 2339 O 205.268 0.388154 2.68711 0
M  V30 2340 C 203.724 2.91161 2.1155 0
M  V30 2341 C 203.332 4.25068 1.41495 0
M  V30 2342 C 205.076 3.13383 2.86341 0
M  V30 2343 C 202.983 5.42541 2.35379 0
M  V30 2344 H 201.913 0.613954 0.437694 0
M  V30 2345 H 204.564 1.78442 0.427871 0
M  V30 2346 H 202.946 2.71218 2.88543 0
M  V30 2347 H 204.12 4.55463 0.699263 0
M  V30 2348 H 202.435 4.0888 0.787792 0
M  V30 2349 H 205.032 3.98324 3.5671 0
M  V30 2350 H 205.375 2.27256 3.48798 0
M  V30 2351 H 205.908 3.33757 2.1645 0
M  V30 2352 H 202.647 6.30987 1.77582 0
M  V30 2353 H 202.167 5.16497 3.04945 0
M  V30 2354 H 203.846 5.75272 2.96093 0
M  V30 2355 N 203.978 -0.674533 1.42435 0
M  V30 2356 C 205.208 -1.46071 1.46105 0
M  V30 2357 C 205.616 -1.89067 0.0709605 0
M  V30 2358 O 204.959 -1.58731 -0.924677 0
M  V30 2359 C 205.021 -2.74145 2.32561 0
M  V30 2360 C 204.685 -2.53224 3.8043 0
M  V30 2361 C 205.682 -2.17809 4.72075 0
M  V30 2362 C 203.367 -2.6821 4.24698 0
M  V30 2363 C 205.361 -1.97648 6.05982 0
M  V30 2364 C 203.048 -2.47665 5.58664 0
M  V30 2365 C 204.046 -2.12437 6.49122 0
M  V30 2366 O 203.734 -1.9209 7.80613 0
M  V30 2367 H 203.466 -0.455959 0.499076 0
M  V30 2368 H 206.02 -0.836193 1.87609 0
M  V30 2369 H 204.25 -3.3908 1.85908 0
M  V30 2370 H 205.939 -3.36028 2.27683 0
M  V30 2371 H 206.705 -2.05826 4.39159 0
M  V30 2372 H 202.584 -2.94609 3.54579 0
M  V30 2373 H 206.128 -1.70075 6.7655 0
M  V30 2374 H 202.025 -2.59244 5.91154 0
M  V30 2375 H 202.793 -2.06686 7.91974 0
M  V30 2376 N 205.456 -1.28612 -0.910864 0
M  V30 2377 C 206.366 -1.14643 -2.0468 0
M  V30 2378 C 207.382 -0.0723121 -1.7385 0
M  V30 2379 O 208.558 -0.282178 -1.99413 0
M  V30 2380 C 205.623 -0.812561 -3.37044 0
M  V30 2381 C 204.684 -1.96935 -3.81465 0
M  V30 2382 C 203.917 -1.65131 -5.07511 0
M  V30 2383 O 204.14 -0.567013 -5.67575 0
M  V30 2384 O 203.074 -2.49585 -5.47714 0
M  V30 2385 H 206.9 -2.1001 -2.19384 0
M  V30 2386 H 204.485 -1.07958 -1.03274 0
M  V30 2387 H 206.367 -0.640441 -4.16505 0
M  V30 2388 H 205.042 0.111426 -3.23508 0
M  V30 2389 H 203.949 -2.19664 -3.02818 0
M  V30 2390 H 205.282 -2.87414 -3.99567 0
M  V30 2391 N 206.934 1.1197 -1.10907 0
M  V30 2392 C 207.881 2.17846 -0.762345 0
M  V30 2393 C 208.851 1.63995 0.263599 0
M  V30 2394 O 210.036 1.90273 0.141773 0
M  V30 2395 C 207.176 3.44487 -0.205651 0
M  V30 2396 C 206.289 4.12369 -1.28748 0
M  V30 2397 C 205.424 5.26674 -0.691919 0
M  V30 2398 C 204.463 5.86431 -1.75399 0
M  V30 2399 N 203.6 6.92142 -1.17833 0
M  V30 2400 H 208.44 2.46851 -1.6694 0
M  V30 2401 H 205.977 1.21188 -0.833776 0
M  V30 2402 H 207.935 4.16981 0.135037 0
M  V30 2403 H 206.565 3.15884 0.664613 0
M  V30 2404 H 205.617 3.38003 -1.74522 0
M  V30 2405 H 206.929 4.52844 -2.09125 0
M  V30 2406 H 206.083 6.05953 -0.300963 0
M  V30 2407 H 204.822 4.8749 0.143232 0
M  V30 2408 H 203.827 5.05835 -2.15432 0
M  V30 2409 H 205.052 6.27685 -2.59208 0
M  V30 2410 H 202.998 6.54985 -0.364725 0
M  V30 2411 H 202.915 7.31242 -1.91887 0
M  V30 2412 H 204.183 7.75237 -0.81408 0
M  V30 2413 N 208.412 0.89855 1.29475 0
M  V30 2414 C 209.66 0.522847 1.9522 0
M  V30 2415 C 209.981 -0.93371 1.71192 0
M  V30 2416 O 209.251 -1.65823 1.04305 0
M  V30 2417 H 207.831 0.190366 0.722336 0
M  V30 2418 H 210.493 1.14459 1.5775 0
M  V30 2419 H 209.589 0.704476 3.04045 0
M  V30 2420 N 209.89 -1.43072 0.660911 0
M  V30 2421 C 210.838 -2.32569 -0.0378199 0
M  V30 2422 C 211.832 -1.49046 -0.805092 0
M  V30 2423 O 213.038 -1.65206 -0.714624 0
M  V30 2424 H 209.413 -0.75136 -0.031019 0
M  V30 2425 H 211.384 -2.89216 0.734609 0
M  V30 2426 C 210.133 -3.33453 -0.985124 0
M  V30 2427 H 209.456 -3.97752 -0.404147 0
M  V30 2428 H 210.896 -3.98691 -1.44297 0
M  V30 2429 C 209.355 -2.64642 -2.08486 0
M  V30 2430 O 209.885 -2.46776 -3.16961 0
M  V30 2431 N 208.091 -2.23891 -1.8526 0
M  V30 2432 H 207.638 -2.38621 -0.970449 0
M  V30 2433 H 207.596 -1.78181 -2.59034 0
M  V30 2434 N 211.368 -0.403325 -1.52352 0
M  V30 2435 C 212.614 0.174605 -2.02047 0
M  V30 2436 C 212.947 1.45282 -1.28867 0
M  V30 2437 O 212.222 1.90483 -0.393257 0
M  V30 2438 C 212.505 0.428238 -3.57545 0
M  V30 2439 C 212.358 -0.866248 -4.4138 0
M  V30 2440 C 213.677 1.21287 -4.23057 0
M  V30 2441 H 210.796 0.0619851 -0.734389 0
M  V30 2442 H 213.438 -0.53565 -1.82293 0
M  V30 2443 H 211.588 1.03327 -3.74507 0
M  V30 2444 H 213.26 -1.50265 -4.3614 0
M  V30 2445 H 211.503 -1.47851 -4.07827 0
M  V30 2446 H 212.174 -0.643249 -5.48239 0
M  V30 2447 H 214.65 0.700703 -4.10158 0
M  V30 2448 H 213.526 1.35909 -5.31808 0
M  V30 2449 H 213.787 2.23193 -3.81625 0
M  V30 2450 N 212.846 1.57033 -0.133567 0
M  V30 2451 C 214.123 1.87256 0.56522 0
M  V30 2452 C 214.503 1.03726 1.83859 0
M  V30 2453 O 213.851 0.120247 2.28183 0
M  V30 2454 C 214.061 3.3865 0.843636 0
M  V30 2455 C 215.409 4.07574 1.19032 0
M  V30 2456 O 216.433 3.43752 0.933429 0
M  V30 2457 O 215.292 5.20259 1.67312 0
M  V30 2458 H 212.386 0.775678 0.286796 0
M  V30 2459 H 214.932 1.68855 -0.169168 0
M  V30 2460 H 213.704 3.91257 -0.0581149 0
M  V30 2461 H 213.327 3.62532 1.63268 0
M  V30 2462 N 214.325 -0.140222 1.56975 0
M  V30 2463 C 215.574 -0.850152 1.82908 0
M  V30 2464 C 215.887 -1.82028 0.715892 0
M  V30 2465 O 217.093 -2.57485 0.861016 0
M  V30 2466 C 215.549 -1.5625 3.24213 0
M  V30 2467 C 215.157 -0.63443 4.43485 0
M  V30 2468 C 216.901 -2.25881 3.59413 0
M  V30 2469 C 214.808 -1.34879 5.75814 0
M  V30 2470 H 213.738 -0.321221 0.682153 0
M  V30 2471 H 216.389 -0.102874 1.83211 0
M  V30 2472 H 214.771 -2.35565 3.18316 0
M  V30 2473 H 215.945 0.12398 4.60633 0
M  V30 2474 H 214.26 -0.0461836 4.16374 0
M  V30 2475 H 216.857 -2.79978 4.5554 0
M  V30 2476 H 217.2 -3.02693 2.85802 0
M  V30 2477 H 217.733 -1.53477 3.67001 0
M  V30 2478 H 214.472 -0.622385 6.52539 0
M  V30 2479 H 213.992 -2.07974 5.6259 0
M  V30 2480 H 215.671 -1.88784 6.18845 0
M  V30 2481 N 215.803 -1.52179 -0.40978 0
M  V30 2482 C 217.219 -1.40968 -0.74835 0
M  V30 2483 C 217.419 -0.513657 -1.94843 0
M  V30 2484 O 216.475 0.0208026 -2.52491 0
M  V30 2485 C 217.788 -2.83483 -1.0029 0
M  V30 2486 C 219.336 -2.92821 -1.10565 0
M  V30 2487 C 219.811 -4.36303 -1.39296 0
M  V30 2488 N 221.302 -4.39535 -1.46162 0
M  V30 2489 C 222.037 -5.47614 -1.70018 0
M  V30 2490 N 221.533 -6.65812 -1.91483 0
M  V30 2491 N 223.326 -5.35129 -1.72027 0
M  V30 2492 H 215.477 -2.0897 0.380186 0
M  V30 2493 H 217.74 -0.94185 0.107805 0
M  V30 2494 H 217.446 -3.51168 -0.193461 0
M  V30 2495 H 217.32 -3.24487 -1.92323 0
M  V30 2496 H 219.707 -2.25318 -1.90568 0
M  V30 2497 H 219.788 -2.55276 -0.16369 0
M  V30 2498 H 219.432 -5.04366 -0.598109 0
M  V30 2499 H 219.362 -4.71385 -2.34743 0
M  V30 2500 H 221.853 -3.54332 -1.31367 0
M  V30 2501 H 222.166 -7.43964 -2.09134 0
M  V30 2502 H 220.511 -6.68879 -1.88749 0
M  V30 2503 H 223.702 -4.41764 -1.54796 0
M  V30 2504 H 223.875 -6.19433 -1.9028 0
M  V30 2505 N 217.281 0.66697 -1.42791 0
M  V30 2506 C 218.529 1.42417 -1.43394 0
M  V30 2507 C 218.85 1.94925 -0.0542373 0
M  V30 2508 O 218.12 1.73564 0.908415 0
M  V30 2509 H 216.7 0.528515 -0.527902 0
M  V30 2510 H 219.362 0.787562 -1.78279 0
M  V30 2511 H 218.458 2.27333 -2.13837 0
M  V30 2512 N 218.759 1.29093 0.90403 0
M  V30 2513 C 220.008 1.16187 1.64874 0
M  V30 2514 C 220.321 -0.286742 1.93487 0
M  V30 2515 O 221.527 -0.537062 2.66135 0
M  V30 2516 C 219.983 2.03177 2.97064 0
M  V30 2517 C 219.591 3.52836 2.76062 0
M  V30 2518 C 221.335 1.98984 3.74974 0
M  V30 2519 C 219.242 4.31945 4.03952 0
M  V30 2520 H 218.172 0.431246 0.618501 0
M  V30 2521 H 220.823 1.53699 1.00243 0
M  V30 2522 H 219.205 1.5853 3.62883 0
M  V30 2523 H 220.379 4.05507 2.18863 0
M  V30 2524 H 218.694 3.58656 2.11553 0
M  V30 2525 H 221.291 2.55351 4.69787 0
M  V30 2526 H 221.634 0.968815 4.0487 0
M  V30 2527 H 222.167 2.41652 3.15989 0
M  V30 2528 H 218.906 5.34667 3.79225 0
M  V30 2529 H 218.426 3.84045 4.60727 0
M  V30 2530 H 220.105 4.42379 4.72133 0
M  V30 2531 N 220.237 -1.11381 1.11499 0
M  V30 2532 C 221.167 -2.19509 0.796125 0
M  V30 2533 C 222.148 -1.68458 -0.235796 0
M  V30 2534 O 223.333 -1.93947 -0.0991344 0
M  V30 2535 C 220.463 -3.46475 0.239205 0
M  V30 2536 C 219.417 -4.10744 1.20307 0
M  V30 2537 C 218.743 -5.32293 0.50683 0
M  V30 2538 C 220.043 -4.55597 2.55399 0
M  V30 2539 H 221.737 -2.46439 1.70024 0
M  V30 2540 H 219.283 -1.18446 0.818935 0
M  V30 2541 H 221.236 -4.214 0.00392006 0
M  V30 2542 H 219.96 -3.19006 -0.700206 0
M  V30 2543 H 218.619 -3.37813 1.42399 0
M  V30 2544 H 218.267 -5.01095 -0.437408 0
M  V30 2545 H 217.967 -5.76243 1.1497 0
M  V30 2546 H 219.491 -6.09956 0.280351 0
M  V30 2547 H 220.905 -5.21841 2.37391 0
M  V30 2548 H 219.302 -5.10363 3.15673 0
M  V30 2549 H 220.372 -3.69013 3.14575 0
M  V30 2550 N 221.715 -0.905404 -1.28997 0
M  V30 2551 C 222.625 -0.392246 -2.31298 0
M  V30 2552 C 223.641 0.515889 -1.66176 0
M  V30 2553 O 224.817 0.404093 -1.97304 0
M  V30 2554 C 221.882 0.36686 -3.44754 0
M  V30 2555 C 220.943 -0.573485 -4.25452 0
M  V30 2556 C 220.176 0.149488 -5.33491 0
M  V30 2557 O 220.399 1.37255 -5.5364 0
M  V30 2558 O 219.333 -0.510919 -5.99728 0
M  V30 2559 H 223.159 -1.2411 -2.77183 0
M  V30 2560 H 220.744 -0.669926 -1.33538 0
M  V30 2561 H 222.626 0.795907 -4.13816 0
M  V30 2562 H 221.301 1.19169 -3.00966 0
M  V30 2563 H 220.208 -1.05176 -3.59011 0
M  V30 2564 H 221.541 -1.36489 -4.72897 0
M  V30 2565 N 223.193 1.4272 -0.668489 0
M  V30 2566 C 224.103 2.34596 0.0139753 0
M  V30 2567 C 225.119 1.5474 0.795703 0
M  V30 2568 O 226.295 1.87334 0.739466 0
M  V30 2569 C 223.36 3.33202 0.957982 0
M  V30 2570 C 222.421 4.28957 0.17149 0
M  V30 2571 C 221.654 5.22853 1.07053 0
M  V30 2572 O 221.877 5.21531 2.31001 0
M  V30 2573 O 220.811 5.9952 0.534727 0
M  V30 2574 H 224.637 2.9448 -0.742661 0
M  V30 2575 H 222.222 1.43117 -0.428705 0
M  V30 2576 H 224.104 3.93796 1.50008 0
M  V30 2577 H 222.779 2.758 1.69458 0
M  V30 2578 H 221.686 3.71796 -0.414558 0
M  V30 2579 H 223.019 4.89383 -0.52586 0
M  V30 2580 N 224.671 0.411399 1.52136 0
M  V30 2581 C 225.901 -0.16284 2.05957 0
M  V30 2582 C 226.309 -1.3922 1.28119 0
M  V30 2583 O 225.652 -1.80768 0.326881 0
M  V30 2584 C 225.714 -0.575946 3.54856 0
M  V30 2585 C 225.378 0.542998 4.53763 0
M  V30 2586 C 226.375 1.40726 5.00492 0
M  V30 2587 C 224.06 0.716337 4.97166 0
M  V30 2588 C 226.054 2.4298 5.8927 0
M  V30 2589 C 223.741 1.74218 5.8574 0
M  V30 2590 C 224.739 2.59731 6.31687 0
M  V30 2591 O 224.427 3.60558 7.18507 0
M  V30 2592 H 224.159 -0.0229125 0.675612 0
M  V30 2593 H 226.713 0.581634 1.96993 0
M  V30 2594 H 224.943 -1.37274 3.61515 0
M  V30 2595 H 226.632 -1.07836 3.91313 0
M  V30 2596 H 227.398 1.28476 4.67674 0
M  V30 2597 H 223.277 0.0603857 4.6096 0
M  V30 2598 H 226.821 3.0976 6.25055 0
M  V30 2599 H 222.718 1.86498 6.17971 0
M  V30 2600 H 223.486 3.56829 7.36624 0
M  V30 2601 N 226.149 -1.5696 0.141893 0
M  V30 2602 C 227.097 -2.17784 -0.816874 0
M  V30 2603 C 228.091 -1.1334 -1.25899 0
M  V30 2604 O 229.297 -1.316 -1.22806 0
M  V30 2605 H 225.672 -0.697278 -0.281615 0
M  V30 2606 H 227.643 -2.97087 -0.279621 0
M  V30 2607 C 226.392 -2.80983 -2.04802 0
M  V30 2608 H 225.715 -3.61062 -1.7168 0
M  V30 2609 H 227.155 -3.2705 -2.69841 0
M  V30 2610 C 225.614 -1.79228 -2.8527 0
M  V30 2611 O 226.144 -1.25962 -3.8144 0
M  V30 2612 N 224.35 -1.48647 -2.49704 0
M  V30 2613 H 223.897 -1.92155 -1.71564 0
M  V30 2614 H 223.855 -0.808115 -3.03837 0
M  V30 2615 N 227.627 0.131896 -1.57047 0
M  V30 2616 C 228.574 1.16236 -1.99393 0
M  V30 2617 C 229.544 1.41863 -0.863943 0
M  V30 2618 O 230.729 1.53946 -1.12718 0
M  V30 2619 C 227.869 2.48708 -2.39245 0
M  V30 2620 C 226.982 2.30127 -3.65603 0
M  V30 2621 C 226.117 3.55738 -3.94492 0
M  V30 2622 C 225.156 3.32259 -5.14073 0
M  V30 2623 N 224.293 4.50039 -5.38896 0
M  V30 2624 H 229.133 0.794251 -2.87221 0
M  V30 2625 H 226.67 0.380707 -1.42088 0
M  V30 2626 H 228.628 3.25969 -2.60384 0
M  V30 2627 H 227.258 2.83437 -1.54478 0
M  V30 2628 H 226.31 1.43845 -3.52154 0
M  V30 2629 H 227.622 2.08746 -4.5302 0
M  V30 2630 H 226.776 4.41423 -4.1621 0
M  V30 2631 H 225.515 3.80138 -3.05526 0
M  V30 2632 H 224.52 2.44963 -4.92212 0
M  V30 2633 H 225.745 3.09242 -6.04604 0
M  V30 2634 H 223.691 4.74584 -4.52886 0
M  V30 2635 H 223.608 4.31716 -6.2061 0
M  V30 2636 H 224.876 5.36895 -5.65123 0
M  V30 2637 N 229.106 1.52395 0.401703 0
M  V30 2638 C 230.016 1.7917 1.51444 0
M  V30 2639 C 231.032 0.677691 1.6026 0
M  V30 2640 O 232.208 0.963909 1.76835 0
M  V30 2641 C 229.273 1.94347 2.87107 0
M  V30 2642 C 228.334 3.18257 2.88116 0
M  V30 2643 C 227.567 3.32701 4.17308 0
M  V30 2644 O 227.79 2.52238 5.11598 0
M  V30 2645 O 226.724 4.25891 4.25324 0
M  V30 2646 H 230.55 2.73633 1.31752 0
M  V30 2647 H 228.135 1.3733 0.588296 0
M  V30 2648 H 230.017 2.06109 3.67555 0
M  V30 2649 H 228.692 1.03073 3.06851 0
M  V30 2650 H 227.599 3.11947 2.06494 0
M  V30 2651 H 228.932 4.09336 2.73322 0
M  V30 2652 N 230.584 -0.659388 1.43143 0
M  V30 2653 C 231.833 -1.41518 1.43721 0
M  V30 2654 C 232.146 -1.95499 0.0628176 0
M  V30 2655 O 233.352 -2.71446 -0.0539683 0
M  V30 2656 C 231.808 -2.5608 2.52885 0
M  V30 2657 C 231.416 -2.08733 3.96402 0
M  V30 2658 C 233.16 -3.3349 2.62649 0
M  V30 2659 C 231.067 -3.20469 4.97045 0
M  V30 2660 H 229.997 -0.531705 0.534608 0
M  V30 2661 H 232.648 -0.712343 1.69109 0
M  V30 2662 H 231.03 -3.28805 2.20688 0
M  V30 2663 H 232.204 -1.43059 4.3803 0
M  V30 2664 H 230.519 -1.44219 3.90627 0
M  V30 2665 H 233.116 -4.16734 3.35017 0
M  V30 2666 H 233.459 -3.8111 1.67513 0
M  V30 2667 H 233.992 -2.67842 2.94118 0
M  V30 2668 H 230.731 -2.77824 5.93712 0
M  V30 2669 H 230.251 -3.84874 4.60034 0
M  V30 2670 H 231.93 -3.85698 5.19467 0
M  V30 2671 N 232.062 -1.29571 -0.897171 0
M  V30 2672 C 232.972 -1.16808 -2.03453 0
M  V30 2673 C 233.988 -0.0907471 -1.73763 0
M  V30 2674 O 235.164 -0.303312 -1.99103 0
M  V30 2675 C 232.229 -0.848264 -3.36163 0
M  V30 2676 C 231.29 -2.0097 -3.79354 0
M  V30 2677 C 230.523 -1.70505 -5.05731 0
M  V30 2678 O 230.746 -0.62718 -5.66941 0
M  V30 2679 O 229.68 -2.5538 -5.45036 0
M  V30 2680 H 233.506 -2.12325 -2.17144 0
M  V30 2681 H 231.091 -1.09047 -1.02123 0
M  V30 2682 H 232.973 -0.684581 -4.15802 0
M  V30 2683 H 231.648 0.0771071 -3.23608 0
M  V30 2684 H 230.555 -2.22863 -3.00471 0
M  V30 2685 H 231.888 -2.91636 -3.96496 0
M  V30 2686 N 233.54 1.10788 -1.12088 0
M  V30 2687 C 234.45 2.20599 -0.798338 0
M  V30 2688 C 235.466 1.72712 0.21135 0
M  V30 2689 O 236.642 2.01348 0.0458477 0
M  V30 2690 C 233.707 3.45771 -0.253674 0
M  V30 2691 C 232.768 4.08411 -1.32283 0
M  V30 2692 C 232.001 5.27608 -0.80406 0
M  V30 2693 O 232.224 5.69241 0.363478 0
M  V30 2694 O 231.158 5.8101 -1.57198 0
M  V30 2695 H 234.984 2.50614 -1.7154 0
M  V30 2696 H 232.569 1.19454 -0.897275 0
M  V30 2697 H 234.451 4.21376 0.0453691 0
M  V30 2698 H 233.126 3.1739 0.636005 0
M  V30 2699 H 232.033 3.34507 -1.67499 0
M  V30 2700 H 233.366 4.40986 -2.18614 0
M  V30 2701 N 235.018 0.912232 1.28515 0
M  V30 2702 C 235.965 0.397954 2.27343 0
M  V30 2703 C 236.935 -0.526766 1.57526 0
M  V30 2704 O 238.12 -0.449292 1.85435 0
M  V30 2705 C 235.26 -0.357263 3.43246 0
M  V30 2706 C 234.373 0.599788 4.27816 0
M  V30 2707 C 233.508 -0.173725 5.30916 0
M  V30 2708 C 232.547 0.777039 6.07148 0
M  V30 2709 N 231.684 0.0371398 7.0209 0
M  V30 2710 H 236.524 1.24577 2.70711 0
M  V30 2711 H 234.061 0.625612 1.33133 0
M  V30 2712 H 236.019 -0.8113 4.09236 0
M  V30 2713 H 234.649 -1.16943 3.00872 0
M  V30 2714 H 233.701 1.17235 3.61884 0
M  V30 2715 H 235.013 1.32704 4.80823 0
M  V30 2716 H 234.167 -0.688394 6.02782 0
M  V30 2717 H 232.906 -0.934041 4.78672 0
M  V30 2718 H 231.911 1.3031 5.34134 0
M  V30 2719 H 233.136 1.53689 6.61481 0
M  V30 2720 H 231.082 -0.705213 6.52198 0
M  V30 2721 H 230.999 0.704249 7.52713 0
M  V30 2722 H 232.267 -0.457383 7.78157 0
M  V30 2723 N 236.496 -1.42363 0.676048 0
M  V30 2724 C 237.443 -2.308 -0.00150904 0
M  V30 2725 C 238.413 -1.46032 -0.791444 0
M  V30 2726 O 239.598 -1.74861 -0.76344 0
M  V30 2727 C 236.738 -3.31883 -0.945919 0
M  V30 2728 C 235.851 -4.31741 -0.149675 0
M  V30 2729 C 234.986 -5.19898 -1.08995 0
M  V30 2730 C 234.025 -6.11434 -0.285465 0
M  V30 2731 N 233.162 -6.92138 -1.17851 0
M  V30 2732 H 238.002 -2.88187 0.758455 0
M  V30 2733 H 235.539 -1.41952 0.38576 0
M  V30 2734 H 237.497 -3.89019 -1.50731 0
M  V30 2735 H 236.127 -2.76093 -1.6725 0
M  V30 2736 H 235.179 -3.76713 0.528359 0
M  V30 2737 H 236.491 -4.96534 0.474866 0
M  V30 2738 H 235.645 -5.81772 -1.72123 0
M  V30 2739 H 234.384 -4.55284 -1.74837 0
M  V30 2740 H 233.389 -5.48627 0.359018 0
M  V30 2741 H 234.614 -6.78097 0.368883 0
M  V30 2742 H 232.56 -6.30152 -1.82332 0
M  V30 2743 H 232.477 -7.53542 -0.609082 0
M  V30 2744 H 233.745 -7.58499 -1.79722 0
M  V30 2745 N 237.974 -0.419461 -1.51915 0
M  V30 2746 C 238.904 0.391813 -2.30189 0
M  V30 2747 C 239.885 1.03699 -1.34836 0
M  V30 2748 O 241.07 1.04403 -1.63748 0
M  V30 2749 C 238.2 1.50312 -3.13087 0
M  V30 2750 C 237.154 0.9824 -4.16573 0
M  V30 2751 C 236.48 2.18809 -4.8788 0
M  V30 2752 C 237.78 0.0292356 -5.22292 0
M  V30 2753 H 239.474 -0.26135 -2.98257 0
M  V30 2754 H 237.02 -0.127134 -1.43438 0
M  V30 2755 H 238.973 2.07773 -3.66617 0
M  V30 2756 H 237.697 2.18431 -2.42807 0
M  V30 2757 H 236.356 0.430119 -3.64068 0
M  V30 2758 H 236.004 2.85507 -4.14119 0
M  V30 2759 H 235.704 1.84615 -5.57845 0
M  V30 2760 H 237.228 2.76858 -5.44226 0
M  V30 2761 H 238.642 0.512976 -5.71 0
M  V30 2762 H 237.039 -0.2244 -5.9968 0
M  V30 2763 H 238.109 -0.912931 -4.76228 0
M  V30 2764 N 239.452 1.56882 -0.150215 0
M  V30 2765 C 240.362 2.20494 0.801222 0
M  V30 2766 C 241.378 1.19019 1.26927 0
M  V30 2767 O 242.554 1.51607 1.32579 0
M  V30 2768 C 239.619 2.81659 2.02161 0
M  V30 2769 C 238.68 3.9827 1.60249 0
M  V30 2770 C 237.913 4.56508 2.7647 0
M  V30 2771 O 238.136 4.13627 3.92771 0
M  V30 2772 O 237.07 5.46719 2.51757 0
M  V30 2773 H 240.896 3.02315 0.289717 0
M  V30 2774 H 238.481 1.49202 0.0769684 0
M  V30 2775 H 240.363 3.20522 2.73576 0
M  V30 2776 H 239.038 2.02849 2.52258 0
M  V30 2777 H 237.945 3.64117 0.858477 0
M  V30 2778 H 239.278 4.78609 1.14864 0
M  V30 2779 N 240.93 -0.123565 1.57115 0
M  V30 2780 C 241.877 -1.15177 2.00007 0
M  V30 2781 C 242.847 -1.41403 0.871454 0
M  V30 2782 O 244.032 -1.53346 1.13533 0
M  V30 2783 C 241.172 -2.47436 2.40561 0
M  V30 2784 C 240.285 -2.28184 3.66819 0
M  V30 2785 C 239.42 -3.53641 3.96373 0
M  V30 2786 C 238.459 -3.29528 5.15827 0
M  V30 2787 N 237.596 -4.47175 5.41275 0
M  V30 2788 H 242.436 -0.779008 2.87638 0
M  V30 2789 H 239.973 -0.373166 1.42288 0
M  V30 2790 H 241.931 -3.24584 2.62109 0
M  V30 2791 H 240.561 -2.82614 1.55978 0
M  V30 2792 H 239.613 -1.41976 3.52912 0
M  V30 2793 H 240.925 -2.0634 4.5412 0
M  V30 2794 H 240.079 -4.39209 4.18545 0
M  V30 2795 H 238.818 -3.78512 3.07538 0
M  V30 2796 H 237.823 -2.42349 4.93505 0
M  V30 2797 H 239.048 -3.06031 6.06236 0
M  V30 2798 H 236.994 -4.72175 4.55397 0
M  V30 2799 H 236.911 -4.28419 6.22891 0
M  V30 2800 H 238.179 -5.3389 5.67963 0
M  V30 2801 N 242.408 -1.52605 -0.393616 0
M  V30 2802 C 243.34 -1.73303 -1.49995 0
M  V30 2803 C 244.353 -0.613473 -1.50799 0
M  V30 2804 O 245.542 -0.889049 -1.54784 0
M  V30 2805 C 242.642 -1.77245 -2.88855 0
M  V30 2806 C 241.815 -3.06483 -3.12069 0
M  V30 2807 C 240.874 -3.02033 -4.30886 0
M  V30 2808 O 239.9 -3.75907 -4.27414 0
M  V30 2809 N 241.102 -2.20897 -5.36828 0
M  V30 2810 H 243.867 -2.68756 -1.32629 0
M  V30 2811 H 241.428 -1.51036 -0.583083 0
M  V30 2812 H 243.42 -1.7178 -3.66434 0
M  V30 2813 H 241.99 -0.891993 -2.99603 0
M  V30 2814 H 241.21 -3.25474 -2.22396 0
M  V30 2815 H 242.498 -3.91947 -3.2443 0
M  V30 2816 H 241.896 -1.60336 -5.42502 0
M  V30 2817 H 240.453 -2.21275 -6.13091 0
M  V30 2818 N 243.887 0.651787 -1.4349 0
M  V30 2819 C 244.834 1.76462 -1.4876 0
M  V30 2820 C 245.804 1.62641 -0.337189 0
M  V30 2821 O 246.989 1.82864 -0.544544 0
M  V30 2822 C 244.129 3.14623 -1.41796 0
M  V30 2823 C 243.242 3.39568 -2.67053 0
M  V30 2824 C 242.377 4.67585 -2.52068 0
M  V30 2825 C 241.416 4.85639 -3.72587 0
M  V30 2826 N 240.553 6.04915 -3.56402 0
M  V30 2827 H 245.393 1.71293 -2.43849 0
M  V30 2828 H 242.93 0.835889 -1.21043 0
M  V30 2829 H 244.888 3.94496 -1.35753 0
M  V30 2830 H 243.518 3.18859 -0.50288 0
M  V30 2831 H 242.57 2.53783 -2.8337 0
M  V30 2832 H 243.882 3.48795 -3.56572 0
M  V30 2833 H 243.036 5.55586 -2.4374 0
M  V30 2834 H 241.775 4.60681 -1.60075 0
M  V30 2835 H 240.78 3.96073 -3.81321 0
M  V30 2836 H 242.005 4.94372 -4.65589 0
M  V30 2837 H 239.951 5.9914 -2.67146 0
M  V30 2838 H 239.868 6.15106 -4.39524 0
M  V30 2839 H 241.136 6.95533 -3.51929 0
M  V30 2840 N 245.365 1.30045 0.890287 0
M  V30 2841 C 246.295 1.18541 2.01172 0
M  V30 2842 C 247.276 0.0773356 1.69924 0
M  V30 2843 O 248.461 0.25845 1.92473 0
M  V30 2844 C 245.591 0.870941 3.36202 0
M  V30 2845 C 244.545 1.93637 3.81692 0
M  V30 2846 C 243.871 1.475 5.13953 0
M  V30 2847 C 245.171 3.34666 4.00994 0
M  V30 2848 H 246.865 2.12359 2.11054 0
M  V30 2849 H 244.411 1.02238 1.01407 0
M  V30 2850 H 246.364 0.777141 4.14172 0
M  V30 2851 H 245.088 -0.102926 3.26438 0
M  V30 2852 H 243.747 2.01972 3.05946 0
M  V30 2853 H 243.395 0.489551 5.00612 0
M  V30 2854 H 243.095 2.1876 5.4536 0
M  V30 2855 H 244.619 1.39489 5.94454 0
M  V30 2856 H 246.033 3.2912 4.69417 0
M  V30 2857 H 244.43 4.03966 4.43769 0
M  V30 2858 H 245.5 3.76949 3.05021 0
M  V30 2859 N 246.843 -1.10192 1.12674 0
M  V30 2860 C 247.791 -2.18694 0.792196 0
M  V30 2861 C 248.785 -1.67938 -0.222058 0
M  V30 2862 O 249.991 -1.79822 -0.0800074 0
M  V30 2863 H 246.366 -0.713223 0.238364 0
M  V30 2864 H 248.337 -2.44149 1.71564 0
M  V30 2865 C 247.086 -3.46682 0.265859 0
M  V30 2866 H 246.409 -3.86101 1.03761 0
M  V30 2867 H 247.849 -4.23942 0.0701128 0
M  V30 2868 C 246.308 -3.21506 -1.00675 0
M  V30 2869 O 246.838 -3.43408 -2.08408 0
M  V30 2870 N 245.044 -2.75158 -0.934692 0
M  V30 2871 H 244.591 -2.57535 -0.0578604 0
M  V30 2872 H 244.549 -2.58691 -1.7868 0
M  V30 2873 N 248.321 -0.919034 -1.28029 0
M  V30 2874 C 249.268 -0.410005 -2.27129 0
M  V30 2875 C 250.238 0.518405 -1.57803 0
M  V30 2876 O 251.423 0.439451 -1.8567 0
M  V30 2877 C 248.563 0.339054 -3.4343 0
M  V30 2878 C 247.676 -0.622468 -4.27492 0
M  V30 2879 C 246.811 0.145567 -5.31001 0
M  V30 2880 C 245.85 -0.809226 -6.06727 0
M  V30 2881 N 244.987 -0.0743728 -7.02061 0
M  V30 2882 H 249.827 -1.26011 -2.70047 0
M  V30 2883 H 247.364 -0.632663 -1.328 0
M  V30 2884 H 249.322 0.789586 -4.0966 0
M  V30 2885 H 247.952 1.15346 -3.01488 0
M  V30 2886 H 247.004 -1.19153 -3.61257 0
M  V30 2887 H 248.316 -1.35252 -4.80113 0
M  V30 2888 H 247.47 0.656417 -6.03139 0
M  V30 2889 H 246.209 0.908643 -4.79161 0
M  V30 2890 H 245.214 -1.3314 -5.33436 0
M  V30 2891 H 246.439 -1.57194 -6.60656 0
M  V30 2892 H 244.385 0.670616 -6.52563 0
M  V30 2893 H 244.302 -0.744157 -7.52329 0
M  V30 2894 H 245.57 0.416109 -7.78389 0
M  V30 2895 N 249.799 1.42003 -0.683588 0
M  V30 2896 C 251.048 2.00638 -0.206681 0
M  V30 2897 C 251.361 1.5472 1.19671 0
M  V30 2898 O 252.567 2.05833 1.77045 0
M  V30 2899 C 251.023 3.58487 -0.318632 0
M  V30 2900 C 250.631 4.1339 -1.72663 0
M  V30 2901 C 252.375 4.24384 0.0991141 0
M  V30 2902 C 250.282 5.63633 -1.79087 0
M  V30 2903 H 249.212 0.750408 -0.0735107 0
M  V30 2904 H 251.863 1.62624 -0.850048 0
M  V30 2905 H 250.245 3.94047 0.392781 0
M  V30 2906 H 251.419 3.89273 -2.46583 0
M  V30 2907 H 249.734 3.59976 -2.09299 0
M  V30 2908 H 252.331 5.34652 0.0713833 0
M  V30 2909 H 252.674 4.00505 1.13586 0
M  V30 2910 H 253.207 3.93816 -0.561599 0
M  V30 2911 H 249.946 5.92323 -2.80774 0
M  V30 2912 H 249.466 5.89714 -1.09535 0
M  V30 2913 H 251.145 6.28201 -1.5483 0
M  V30 2914 N 251.277 0.427512 1.51691 0
M  V30 2915 C 252.224 -0.388867 2.275 0
M  V30 2916 C 253.194 -1.02532 1.30677 0
M  V30 2917 O 254.379 -1.0461 1.59566 0
M  V30 2918 C 251.519 -1.48954 3.11298 0
M  V30 2919 C 250.632 -0.872194 4.23104 0
M  V30 2920 C 249.767 -1.94709 4.94228 0
M  V30 2921 C 248.806 -1.30766 5.97969 0
M  V30 2922 N 247.943 -2.32349 6.62539 0
M  V30 2923 H 252.783 0.263997 2.96828 0
M  V30 2924 H 250.32 0.142033 1.46413 0
M  V30 2925 H 252.278 -2.13887 3.58201 0
M  V30 2926 H 250.908 -2.11217 2.44105 0
M  V30 2927 H 249.96 -0.111419 3.80237 0
M  V30 2928 H 251.272 -0.365264 4.97461 0
M  V30 2929 H 250.426 -2.67327 5.44629 0
M  V30 2930 H 249.165 -2.48773 4.1948 0
M  V30 2931 H 248.17 -0.566902 5.4687 0
M  V30 2932 H 249.395 -0.774483 6.74669 0
M  V30 2933 H 247.341 -2.85511 5.90609 0
M  V30 2934 H 247.258 -1.8652 7.3263 0
M  V30 2935 H 248.526 -3.04481 7.17574 0
M  V30 2936 N 252.755 -1.56801 0.158532 0
M  V30 2937 C 254.032 -1.88131 -0.535357 0
M  V30 2938 C 254.412 -1.06638 -1.82186 0
M  V30 2939 O 253.76 -0.156533 -2.27963 0
M  V30 2940 C 253.97 -3.39949 -0.789653 0
M  V30 2941 C 255.318 -4.09416 -1.12533 0
M  V30 2942 O 256.342 -3.45194 -0.878622 0
M  V30 2943 O 255.201 -5.22855 -1.59014 0
M  V30 2944 H 252.295 -0.780143 -0.27442 0
M  V30 2945 H 254.841 -1.68564 0.19601 0
M  V30 2946 H 253.613 -3.91115 0.120353 0
M  V30 2947 H 253.236 -3.65084 -1.57479 0
M  V30 2948 N 254.233 0.115231 -1.57178 0
M  V30 2949 C 255.18 1.14115 -2.00615 0
M  V30 2950 C 256.15 1.40939 -0.878941 0
M  V30 2951 O 257.335 1.52741 -1.14345 0
M  V30 2952 C 254.475 2.46156 -2.4187 0
M  V30 2953 C 253.588 2.26236 -3.68024 0
M  V30 2954 C 252.723 3.51534 -3.98243 0
M  V30 2955 C 251.762 3.26787 -5.17568 0
M  V30 2956 N 250.899 4.44298 -5.43639 0
M  V30 2957 H 255.739 0.763743 -2.88047 0
M  V30 2958 H 253.276 0.365615 -1.42484 0
M  V30 2959 H 255.234 3.23189 -2.63827 0
M  V30 2960 H 253.864 2.81783 -1.57475 0
M  V30 2961 H 252.916 1.40102 -3.5366 0
M  V30 2962 H 254.228 2.03929 -4.55208 0
M  V30 2963 H 253.382 4.36984 -4.20868 0
M  V30 2964 H 252.121 3.76876 -3.09541 0
M  V30 2965 H 251.126 2.39729 -4.94783 0
M  V30 2966 H 252.351 3.02812 -6.0785 0
M  V30 2967 H 250.297 4.69754 -4.57895 0
M  V30 2968 H 250.214 4.25109 -6.25154 0
M  V30 2969 H 251.482 5.3087 -5.70786 0
M  V30 2970 N 255.711 1.52812 0.385517 0
M  V30 2971 C 256.659 1.78482 1.49155 0
M  V30 2972 C 257.653 0.652914 1.56312 0
M  V30 2973 O 258.859 0.835464 1.59436 0
M  V30 2974 H 255.234 0.5648 0.496493 0
M  V30 2975 H 257.205 2.71095 1.24699 0
M  V30 2976 C 255.954 1.97378 2.86247 0
M  V30 2977 H 255.277 2.83907 2.81491 0
M  V30 2978 H 256.717 2.19327 3.62866 0
M  V30 2979 C 255.176 0.74728 3.28508 0
M  V30 2980 O 255.706 -0.0736232 4.01633 0
M  V30 2981 N 253.912 0.576396 2.84826 0
M  V30 2982 H 253.459 1.24555 2.25486 0
M  V30 2983 H 253.417 -0.24288 3.1346 0
M  V30 2984 N 257.189 -0.644168 1.43834 0
M  V30 2985 C 258.137 -1.77793 1.49974 0
M  V30 2986 C 259.131 -1.65253 0.372536 0
M  V30 2987 O 260.337 -1.7149 0.546924 0
M  V30 2988 H 256.712 -0.58675 0.47035 0
M  V30 2989 H 258.683 -1.69736 2.45423 0
M  V30 2990 C 257.432 -3.16087 1.4486 0
M  V30 2991 H 256.755 -3.26378 2.30905 0
M  V30 2992 H 258.195 -3.95349 1.53217 0
M  V30 2993 C 256.654 -3.36484 0.167463 0
M  V30 2994 O 257.184 -3.94298 -0.767609 0
M  V30 2995 N 255.39 -2.90504 0.0747556 0
M  V30 2996 H 254.937 -2.4364 0.836507 0
M  V30 2997 H 254.895 -3.04527 -0.781714 0
M  V30 2998 N 258.668 -1.30515 -0.883378 0
M  V30 2999 C 259.616 -1.16941 -2.01066 0
M  V30 3000 C 260.61 -0.0809148 -1.69207 0
M  V30 3001 O 261.816 -0.241877 -1.78367 0
M  V30 3002 H 258.191 -0.361705 -0.659298 0
M  V30 3003 H 260.162 -2.12344 -2.09649 0
M  V30 3004 C 258.911 -0.879694 -3.36388 0
M  V30 3005 H 258.234 -1.70936 -3.61415 0
M  V30 3006 H 259.674 -0.82483 -4.159 0
M  V30 3007 C 258.133 0.417409 -3.34304 0
M  V30 3008 O 258.663 1.43843 -3.75063 0
M  V30 3009 N 256.869 0.429141 -2.87414 0
M  V30 3010 H 256.416 -0.402222 -2.5444 0
M  V30 3011 H 256.374 1.29696 -2.86403 0
M  V30 3012 N 260.146 1.09593 -1.13257 0
M  V30 3013 C 261.094 2.18271 -0.803783 0
M  V30 3014 C 262.088 1.68054 0.213148 0
M  V30 3015 O 263.294 1.79862 0.0704699 0
M  V30 3016 H 259.669 0.711949 -0.242143 0
M  V30 3017 H 261.64 2.43235 -1.72856 0
M  V30 3018 C 260.389 3.46536 -0.28424 0
M  V30 3019 H 259.712 3.85545 -1.05807 0
M  V30 3020 H 261.152 4.23899 -0.0925945 0
M  V30 3021 C 259.611 3.22036 0.989684 0
M  V30 3022 O 260.141 3.44509 2.06584 0
M  V30 3023 N 258.347 2.7565 0.920086 0
M  V30 3024 H 257.894 2.57562 0.0442019 0
M  V30 3025 H 257.852 2.59635 1.77306 0
M  V30 3026 N 261.624 0.925811 1.2754 0
M  V30 3027 C 262.572 0.413897 2.28888 0
M  V30 3028 C 263.566 -0.500779 1.61829 0
M  V30 3029 O 264.772 -0.38069 1.75928 0
M  V30 3030 H 261.147 0.115274 0.743112 0
M  V30 3031 H 263.118 1.28151 2.69481 0
M  V30 3032 C 261.867 -0.319792 3.46226 0
M  V30 3033 H 261.19 0.374846 3.98039 0
M  V30 3034 H 262.63 -0.642435 4.19105 0
M  V30 3035 C 261.089 -1.53209 3.00048 0
M  V30 3036 O 261.619 -2.6309 3.03557 0
M  V30 3037 N 259.825 -1.38326 2.55566 0
M  V30 3038 H 259.372 -0.489292 2.5291 0
M  V30 3039 H 259.33 -2.19564 2.25031 0
M  V30 3040 N 263.102 -1.41638 0.69111 0
M  V30 3041 C 264.05 -2.32597 0.0115199 0
M  V30 3042 C 265.044 -1.5072 -0.773296 0
M  V30 3043 O 266.25 -1.66685 -0.67942 0
M  V30 3044 H 262.625 -0.751849 -0.0150746 0
M  V30 3045 H 264.596 -2.87593 0.795791 0
M  V30 3046 C 263.345 -3.35467 -0.914172 0
M  V30 3047 H 262.668 -3.9852 -0.319687 0
M  V30 3048 H 264.108 -4.01662 -1.35808 0
M  V30 3049 C 262.567 -2.69004 -2.02826 0
M  V30 3050 O 263.097 -2.53444 -3.11655 0
M  V30 3051 N 261.303 -2.2777 -1.80469 0
M  V30 3052 H 260.85 -2.40626 -0.919615 0
M  V30 3053 H 260.808 -1.83635 -2.55197 0
M  V30 3054 N 264.58 -0.43555 -1.51462 0
M  V30 3055 C 265.528 0.391205 -2.29287 0
M  V30 3056 C 266.522 1.02247 -1.35062 0
M  V30 3057 O 267.728 0.957646 -1.52411 0
M  V30 3058 H 264.103 0.144968 -0.737895 0
M  V30 3059 H 266.074 -0.286051 -2.97026 0
M  V30 3060 C 264.823 1.48096 -3.14583 0
M  V30 3061 H 264.146 1.00457 -3.86973 0
M  V30 3062 H 265.586 2.03273 -3.72097 0
M  V30 3063 C 264.045 2.46321 -2.29843 0
M  V30 3064 O 264.575 3.50815 -1.95682 0
M  V30 3065 N 262.781 2.17166 -1.931 0
M  V30 3066 H 262.328 1.32218 -2.21079 0
M  V30 3067 H 262.286 2.83127 -1.36698 0
M  V30 3068 N 266.058 1.56714 -0.166846 0
M  V30 3069 C 267.006 2.19056 0.782123 0
M  V30 3070 C 268 1.15328 1.24079 0
M  V30 3071 O 269.206 1.33537 1.20697 0
M  V30 3072 H 265.581 0.70167 0.270486 0
M  V30 3073 H 267.552 2.97494 0.232322 0
M  V30 3074 C 266.301 2.84206 2.00306 0
M  V30 3075 H 265.624 3.63748 1.65914 0
M  V30 3076 H 267.064 3.31302 2.64604 0
M  V30 3077 C 265.523 1.83744 2.82382 0
M  V30 3078 O 266.053 1.32014 3.79388 0
M  V30 3079 N 264.259 1.52601 2.47308 0
M  V30 3080 H 263.806 1.9486 1.68485 0
M  V30 3081 H 263.764 0.856351 3.02513 0
M  V30 3082 N 267.536 -0.106894 1.57237 0
M  V30 3083 C 268.484 -1.14944 2.02215 0
M  V30 3084 C 269.478 -1.42167 0.92114 0
M  V30 3085 O 270.684 -1.41987 1.10634 0
M  V30 3086 H 267.059 -0.387841 0.64427 0
M  V30 3087 H 269.03 -0.743683 2.88984 0
M  V30 3088 C 267.779 -2.4647 2.4525 0
M  V30 3089 H 267.102 -2.26363 3.29545 0
M  V30 3090 H 268.542 -3.17948 2.80508 0
M  V30 3091 C 267.001 -3.09921 1.321 0
M  V30 3092 O 267.531 -3.9651 0.643622 0
M  V30 3093 N 265.737 -2.69986 1.07497 0
M  V30 3094 H 265.284 -1.99667 1.62761 0
M  V30 3095 H 265.242 -3.12769 0.319876 0
M  V30 3096 N 269.014 -1.53014 -0.377408 0
M  V30 3097 C 270.239 -1.72818 -1.14668 0
M  V30 3098 C 270.664 -0.450725 -1.8262 0
M  V30 3099 O 270.022 0.59439 -1.7128 0
M  V30 3100 C 270.07 -2.88627 -2.16164 0
M  V30 3101 O 269.174 -2.56409 -3.22998 0
M  V30 3102 H 268.515 -0.574301 -0.333278 0
M  V30 3103 H 271.045 -1.99853 -0.438152 0
M  V30 3104 H 271.055 -3.14455 -2.59966 0
M  V30 3105 H 269.73 -3.81294 -1.66095 0
M  V30 3106 H 268.307 -2.4136 -2.84253 0
M  V30 3107 N 270.492 0.636531 -1.44174 0
M  V30 3108 C 271.439 1.74875 -1.50624 0
M  V30 3109 C 272.409 1.62275 -0.35442 0
M  V30 3110 O 273.594 1.82276 -0.563908 0
M  V30 3111 C 270.734 3.13102 -1.45125 0
M  V30 3112 C 269.847 3.36717 -2.7064 0
M  V30 3113 C 268.982 4.64885 -2.57013 0
M  V30 3114 C 268.021 4.8166 -3.77717 0
M  V30 3115 N 267.158 6.01101 -3.62798 0
M  V30 3116 H 271.998 1.68697 -2.45653 0
M  V30 3117 H 269.535 0.823004 -1.21922 0
M  V30 3118 H 271.493 3.93034 -1.39929 0
M  V30 3119 H 270.123 3.18308 -0.536671 0
M  V30 3120 H 269.175 2.50763 -2.86046 0
M  V30 3121 H 270.487 3.44993 -3.60252 0
M  V30 3122 H 269.641 5.52969 -2.49619 0
M  V30 3123 H 268.38 4.58957 -1.64953 0
M  V30 3124 H 267.385 3.92007 -3.85501 0
M  V30 3125 H 268.61 4.89406 -4.70807 0
M  V30 3126 H 266.556 5.96273 -2.73486 0
M  V30 3127 H 266.473 6.10409 -4.46023 0
M  V30 3128 H 267.741 6.91761 -3.59286 0
M  V30 3129 N 271.97 1.30982 0.876444 0
M  V30 3130 C 273.217 1.20296 1.62896 0
M  V30 3131 C 273.545 -0.240395 1.93009 0
M  V30 3132 O 272.8 -1.18733 1.55567 0
M  V30 3133 C 273.099 1.98572 2.9716 0
M  V30 3134 C 272.765 3.48125 2.86566 0
M  V30 3135 C 271.427 3.88905 2.83383 0
M  V30 3136 C 273.779 4.43322 2.74071 0
M  V30 3137 C 271.107 5.2316 2.65556 0
M  V30 3138 C 273.459 5.77695 2.57781 0
M  V30 3139 C 272.123 6.17704 2.52979 0
M  V30 3140 H 271.393 0.440193 0.59608 0
M  V30 3141 H 274.04 1.62177 1.01837 0
M  V30 3142 H 272.345 1.49352 3.62217 0
M  V30 3143 H 274.042 1.8769 3.54364 0
M  V30 3144 H 270.632 3.15723 2.89856 0
M  V30 3145 H 274.816 4.12752 2.75589 0
M  V30 3146 H 270.072 5.53241 2.60259 0
M  V30 3147 H 274.246 6.51091 2.47089 0
M  V30 3148 H 271.873 7.21678 2.38924 0
M  V30 3149 N 273.449 -1.08991 1.13837 0
M  V30 3150 C 274.674 -1.85551 0.926585 0
M  V30 3151 C 275.099 -1.80782 -0.519566 0
M  V30 3152 O 274.457 -1.18855 -1.36906 0
M  V30 3153 C 274.505 -3.31266 1.42462 0
M  V30 3154 O 273.609 -4.07822 0.612789 0
M  V30 3155 H 272.95 -0.575192 0.331738 0
M  V30 3156 H 275.48 -1.37604 1.51414 0
M  V30 3157 H 275.49 -3.82112 1.43019 0
M  V30 3158 H 274.165 -3.34052 2.47754 0
M  V30 3159 H 272.742 -3.66731 0.675463 0
M  V30 3160 N 274.927 -0.932562 -1.27047 0
M  V30 3161 C 275.874 -0.434072 -2.26681 0
M  V30 3162 C 276.844 0.501639 -1.58344 0
M  V30 3163 O 278.029 0.419734 -1.86126 0
M  V30 3164 C 275.169 0.30261 -3.43771 0
M  V30 3165 C 274.282 -0.667774 -4.26808 0
M  V30 3166 C 273.417 0.0892393 -5.31125 0
M  V30 3167 C 272.456 -0.873532 -6.05835 0
M  V30 3168 N 271.593 -0.148832 -7.01942 0
M  V30 3169 H 276.433 -1.28868 -2.68695 0
M  V30 3170 H 273.97 -0.646713 -1.32121 0
M  V30 3171 H 275.928 0.746092 -4.10474 0
M  V30 3172 H 274.558 1.12142 -3.02695 0
M  V30 3173 H 273.61 -1.22978 -3.59973 0
M  V30 3174 H 274.922 -1.40337 -4.78651 0
M  V30 3175 H 274.076 0.592409 -6.03801 0
M  V30 3176 H 272.815 0.85777 -4.80097 0
M  V30 3177 H 271.82 -1.38791 -5.31994 0
M  V30 3178 H 273.045 -1.64193 -6.58952 0
M  V30 3179 H 270.991 0.601365 -6.53238 0
M  V30 3180 H 270.908 -0.82391 -7.51497 0
M  V30 3181 H 272.176 0.333527 -7.78786 0
M  V30 3182 N 276.405 1.4127 -0.698611 0
M  V30 3183 C 277.682 1.94955 -0.158762 0
M  V30 3184 C 278.062 1.63781 1.33188 0
M  V30 3185 O 277.41 0.946423 2.07979 0
M  V30 3186 C 277.62 3.46044 -0.453309 0
M  V30 3187 C 278.968 4.22872 -0.382707 0
M  V30 3188 O 279.992 3.54076 -0.388396 0
M  V30 3189 O 278.851 5.45407 -0.345463 0
M  V30 3190 H 275.945 0.82683 -0.0167505 0
M  V30 3191 H 278.491 1.50971 -0.77498 0
M  V30 3192 H 277.263 3.62028 -1.48498 0
M  V30 3193 H 276.886 3.97128 0.19373 0
M  V30 3194 N 277.883 0.443576 1.51229 0
M  V30 3195 C 279.131 -0.120557 2.0174 0
M  V30 3196 C 279.452 -1.42665 1.32935 0
M  V30 3197 O 278.722 -1.9028 0.465866 0
M  V30 3198 H 277.302 -0.0475426 0.745486 0
M  V30 3199 H 279.964 0.587711 1.85828 0
M  V30 3200 H 279.06 -0.291972 3.10731 0
M  V30 3201 N 279.361 -1.56624 0.175154 0
M  V30 3202 C 280.638 -1.88688 -0.515373 0
M  V30 3203 C 281.018 -1.08564 -1.81044 0
M  V30 3204 O 280.366 -0.180703 -2.27784 0
M  V30 3205 C 280.576 -3.40768 -0.753552 0
M  V30 3206 C 281.924 -4.10587 -1.08184 0
M  V30 3207 O 282.948 -3.46106 -0.841961 0
M  V30 3208 O 281.807 -5.24512 -1.53459 0
M  V30 3209 H 278.901 -0.78301 -0.26613 0
M  V30 3210 H 281.447 -1.68347 0.213877 0
M  V30 3211 H 280.219 -3.90965 0.161829 0
M  V30 3212 H 279.842 -3.66733 -1.53598 0
M  V30 3213 N 280.839 0.0985539 -1.57292 0
M  V30 3214 C 281.787 1.1387 -2.02821 0
M  V30 3215 C 282.781 1.41676 -0.928666 0
M  V30 3216 O 283.987 1.41398 -1.11385 0
M  V30 3217 H 280.362 0.384419 -0.646317 0
M  V30 3218 H 282.333 0.728347 -2.89375 0
M  V30 3219 C 281.082 2.45166 -2.46554 0
M  V30 3220 H 280.405 2.24613 -3.3074 0
M  V30 3221 H 281.845 3.16456 -2.8219 0
M  V30 3222 C 280.304 3.09216 -1.33742 0
M  V30 3223 O 280.834 3.96163 -0.66464 0
M  V30 3224 N 279.04 2.69413 -1.08928 0
M  V30 3225 H 278.587 1.98801 -1.63817 0
M  V30 3226 H 278.545 3.12594 -0.336458 0
M  V30 3227 N 282.317 1.53212 0.369288 0
M  V30 3228 C 283.227 1.82342 1.47609 0
M  V30 3229 C 284.243 0.711532 1.58787 0
M  V30 3230 O 285.419 1.0012 1.74751 0
M  V30 3231 C 282.484 2.00393 2.8292 0
M  V30 3232 C 281.545 3.24297 2.81301 0
M  V30 3233 C 280.778 3.41478 4.10157 0
M  V30 3234 O 281.001 2.63033 5.06132 0
M  V30 3235 O 279.935 4.34817 4.16194 0
M  V30 3236 H 283.761 2.76366 1.25918 0
M  V30 3237 H 281.346 1.38547 0.559034 0
M  V30 3238 H 283.228 2.13859 3.63101 0
M  V30 3239 H 281.903 1.09559 3.04596 0
M  V30 3240 H 280.81 3.16257 1.99831 0
M  V30 3241 H 282.143 4.15041 2.64578 0
M  V30 3242 N 283.795 -0.628877 1.44509 0
M  V30 3243 C 285.072 -1.38733 1.37886 0
M  V30 3244 C 285.452 -2.11065 0.0387008 0
M  V30 3245 O 284.8 -2.06476 -0.97878 0
M  V30 3246 C 285.01 -2.35188 2.57852 0
M  V30 3247 C 286.358 -2.9845 3.02014 0
M  V30 3248 O 287.382 -2.45513 2.58073 0
M  V30 3249 O 286.241 -3.94487 3.78209 0
M  V30 3250 H 283.335 -0.621015 0.54614 0
M  V30 3251 H 285.881 -0.653744 1.56602 0
M  V30 3252 H 284.653 -1.80855 3.46998 0
M  V30 3253 H 284.276 -3.1596 2.4136 0
M  V30 3254 N 285.273 -1.31445 -0.869486 0
M  V30 3255 C 286.52 -1.21158 -1.62256 0
M  V30 3256 C 286.848 0.230155 -1.93133 0
M  V30 3257 O 286.103 1.17906 -1.56194 0
M  V30 3258 C 286.402 -2.00145 -2.96102 0
M  V30 3259 C 286.068 -3.4964 -2.84715 0
M  V30 3260 C 284.73 -3.90403 -2.81317 0
M  V30 3261 C 287.082 -4.44769 -2.71716 0
M  V30 3262 C 284.41 -5.24561 -2.62778 0
M  V30 3263 C 286.762 -5.79054 -2.54714 0
M  V30 3264 C 285.426 -6.19037 -2.49699 0
M  V30 3265 H 284.696 -0.443348 -0.593737 0
M  V30 3266 H 287.343 -1.62715 -1.00976 0
M  V30 3267 H 285.648 -1.5127 -3.6142 0
M  V30 3268 H 287.345 -1.89566 -3.53363 0
M  V30 3269 H 283.935 -3.17256 -2.88178 0
M  V30 3270 H 288.119 -4.14208 -2.73397 0
M  V30 3271 H 283.375 -5.54613 -2.57321 0
M  V30 3272 H 287.549 -6.52393 -2.43632 0
M  V30 3273 H 285.176 -7.22935 -2.35093 0
M  V30 3274 N 286.751 1.08385 -1.14413 0
M  V30 3275 C 287.699 2.17406 -0.826888 0
M  V30 3276 C 288.693 1.6827 0.195312 0
M  V30 3277 O 289.899 1.79927 0.0513892 0
M  V30 3278 H 286.274 0.70934 -0.249681 0
M  V30 3279 H 288.245 2.41388 -1.75426 0
M  V30 3280 C 286.994 3.46215 -0.320979 0
M  V30 3281 H 286.317 3.84401 -1.0989 0
M  V30 3282 H 287.757 4.23777 -0.137549 0
M  V30 3283 C 286.216 3.23067 0.955472 0
M  V30 3284 O 286.746 3.4668 2.02918 0
M  V30 3285 N 284.952 2.7661 0.890798 0
M  V30 3286 H 284.499 2.57594 0.0168815 0
M  V30 3287 H 284.457 2.61501 1.74542 0
M  V30 3288 N 288.23 0.939286 1.26551 0
M  V30 3289 C 289.178 0.43815 2.28436 0
M  V30 3290 C 290.172 -0.483587 1.62351 0
M  V30 3291 O 291.378 -0.362009 1.76322 0
M  V30 3292 H 287.753 0.123149 0.741848 0
M  V30 3293 H 289.724 1.31002 2.68106 0
M  V30 3294 C 288.473 -0.283052 3.46546 0
M  V30 3295 H 287.796 0.417043 3.97619 0
M  V30 3296 H 289.236 -0.597948 4.19763 0
M  V30 3297 C 287.695 -1.50018 3.01656 0
M  V30 3298 O 288.225 -2.59855 3.0633 0
M  V30 3299 N 286.431 -1.35608 2.57019 0
M  V30 3300 H 285.978 -0.46244 2.53415 0
M  V30 3301 H 285.936 -2.17165 2.27347 0
M  V30 3302 N 289.708 -1.40897 0.706093 0
M  V30 3303 C 290.655 -2.30751 0.0474474 0
M  V30 3304 C 291.625 -1.47678 -0.76029 0
M  V30 3305 O 292.81 -1.76441 -0.726177 0
M  V30 3306 C 289.95 -3.33815 -0.875309 0
M  V30 3307 C 289.063 -4.31961 -0.0580623 0
M  V30 3308 C 288.198 -5.22093 -0.979425 0
M  V30 3309 C 287.237 -6.11902 -0.155706 0
M  V30 3310 N 286.374 -6.94482 -1.03144 0
M  V30 3311 H 291.214 -2.86513 0.819413 0
M  V30 3312 H 288.751 -1.41102 0.415783 0
M  V30 3313 H 290.709 -3.92129 -1.42446 0
M  V30 3314 H 289.339 -2.79579 -1.61356 0
M  V30 3315 H 288.391 -3.75507 0.608147 0
M  V30 3316 H 289.703 -4.95415 0.580082 0
M  V30 3317 H 288.857 -5.85292 -1.59744 0
M  V30 3318 H 287.596 -4.5889 -1.65141 0
M  V30 3319 H 286.601 -5.47742 0.475309 0
M  V30 3320 H 287.826 -6.77162 0.512635 0
M  V30 3321 H 285.772 -6.33877 -1.68924 0
M  V30 3322 H 285.689 -7.54665 -0.449108 0
M  V30 3323 H 286.957 -7.6214 -1.63593 0
M  V30 3324 N 291.186 -0.45159 -1.50991 0
M  V30 3325 C 292.134 0.366864 -2.29689 0
M  V30 3326 C 293.128 1.00809 -1.36139 0
M  V30 3327 O 294.334 0.941427 -1.53418 0
M  V30 3328 H 290.709 0.137133 -0.739391 0
M  V30 3329 H 292.68 -0.317538 -2.96706 0
M  V30 3330 C 291.429 1.44751 -3.16137 0
M  V30 3331 H 290.752 0.963473 -3.88017 0
M  V30 3332 H 292.192 1.99315 -3.74232 0
M  V30 3333 C 290.651 2.43869 -2.32442 0
M  V30 3334 O 291.181 3.4872 -1.99392 0
M  V30 3335 N 289.387 2.15105 -1.95392 0
M  V30 3336 H 288.934 1.29866 -2.22469 0
M  V30 3337 H 288.892 2.81661 -1.39693 0
M  V30 3338 N 292.664 1.56529 -0.183458 0
M  V30 3339 C 293.941 1.88959 0.50536 0
M  V30 3340 C 294.321 1.09523 1.80466 0
M  V30 3341 O 293.669 0.19278 2.27685 0
M  V30 3342 C 293.879 3.41162 0.73547 0
M  V30 3343 C 295.227 4.11155 1.06005 0
M  V30 3344 O 296.251 3.46548 0.823594 0
M  V30 3345 O 295.11 5.25318 1.50675 0
M  V30 3346 H 292.204 0.78441 0.261973 0
M  V30 3347 H 294.75 1.68231 -0.222802 0
M  V30 3348 H 293.522 3.90874 -0.182561 0
M  V30 3349 H 293.145 3.67543 1.51651 0
M  V30 3350 N 294.142 -0.090211 1.57342 0
M  V30 3351 C 295.072 -1.10976 2.05443 0
M  V30 3352 C 296.053 -1.41482 0.944284 0
M  V30 3353 O 297.238 -1.51428 1.21586 0
M  V30 3354 C 294.368 -2.42831 2.48295 0
M  V30 3355 C 293.322 -2.26721 3.63018 0
M  V30 3356 C 292.648 -3.63796 3.91863 0
M  V30 3357 C 293.948 -1.7037 4.93732 0
M  V30 3358 H 295.642 -0.709564 2.9087 0
M  V30 3359 H 293.188 -0.339874 1.39932 0
M  V30 3360 H 295.141 -3.14431 2.80555 0
M  V30 3361 H 293.865 -2.84795 1.59873 0
M  V30 3362 H 292.524 -1.57565 3.31012 0
M  V30 3363 H 292.172 -4.03297 3.00601 0
M  V30 3364 H 291.872 -3.53861 4.69101 0
M  V30 3365 H 293.396 -4.36855 4.26603 0
M  V30 3366 H 294.81 -2.31816 5.24342 0
M  V30 3367 H 293.207 -1.71181 5.75167 0
M  V30 3368 H 294.277 -0.663542 4.80339 0
M  V30 3369 N 295.62 -1.53406 -0.361157 0
M  V30 3370 C 296.85 -1.73465 -1.1222 0
M  V30 3371 C 297.258 -0.465486 -1.83384 0
M  V30 3372 O 296.601 0.571611 -1.7458 0
M  V30 3373 C 296.663 -2.84834 -2.19339 0
M  V30 3374 C 296.327 -4.25038 -1.67903 0
M  V30 3375 C 297.324 -5.07231 -1.14074 0
M  V30 3376 C 295.009 -4.71464 -1.73282 0
M  V30 3377 C 297.003 -6.33942 -0.663068 0
M  V30 3378 C 294.69 -5.98153 -1.25127 0
M  V30 3379 C 295.688 -6.79223 -0.717296 0
M  V30 3380 O 295.376 -8.03533 -0.242865 0
M  V30 3381 H 295.108 -0.583526 -0.341283 0
M  V30 3382 H 297.662 -2.00964 -0.424591 0
M  V30 3383 H 295.892 -2.5282 -2.92607 0
M  V30 3384 H 297.581 -2.9303 -2.80871 0
M  V30 3385 H 298.347 -4.72534 -1.09254 0
M  V30 3386 H 294.226 -4.08432 -2.13786 0
M  V30 3387 H 297.77 -6.97167 -0.245612 0
M  V30 3388 H 293.667 -6.32347 -1.29642 0
M  V30 3389 H 294.435 -8.177 -0.361786 0
M  V30 3390 N 297.098 0.621204 -1.44841 0
M  V30 3391 C 298.046 1.75385 -1.52784 0
M  V30 3392 C 299.04 1.64639 -0.398779 0
M  V30 3393 O 300.246 1.70598 -0.574137 0
M  V30 3394 H 296.621 0.579193 -0.479625 0
M  V30 3395 H 298.592 1.6581 -2.48092 0
M  V30 3396 C 297.341 3.13742 -1.4987 0
M  V30 3397 H 296.664 3.22663 -2.36069 0
M  V30 3398 H 298.104 3.92861 -1.59487 0
M  V30 3399 C 296.563 3.36175 -0.220973 0
M  V30 3400 O 297.093 3.95469 0.704782 0
M  V30 3401 N 295.299 2.90348 -0.120963 0
M  V30 3402 H 294.846 2.42278 -0.875162 0
M  V30 3403 H 294.804 3.05732 0.733168 0
M  V30 3404 N 298.576 1.31904 0.862503 0
M  V30 3405 C 299.987 1.19803 1.43193 0
M  V30 3406 C 300.338 -0.192567 1.95253 0
M  V30 3407 O 299.463 -1.09081 1.86896 0
M  V30 3408 C 300.058 2.16883 2.60283 0
M  V30 3409 C 298.617 2.08692 3.13248 0
M  V30 3410 C 297.764 2.05691 1.85975 0
M  V30 3411 H 300.715 1.43846 0.670365 0
M  V30 3412 H 300.736 1.76278 3.37204 0
M  V30 3413 H 300.248 3.18083 2.22363 0
M  V30 3414 H 298.349 1.10713 3.55771 0
M  V30 3415 H 298.462 2.9815 3.75025 0
M  V30 3416 H 296.826 1.50814 2.05249 0
M  V30 3417 H 297.609 3.08659 1.50282 0
M  V30 3418 N 300.054 -1.07777 1.14986 0
M  V30 3419 C 301.279 -1.84558 0.946213 0
M  V30 3420 C 301.704 -1.81323 -0.500362 0
M  V30 3421 O 301.062 -1.20301 -1.35637 0
M  V30 3422 C 301.11 -3.29736 1.45968 0
M  V30 3423 O 300.214 -4.07149 0.65601 0
M  V30 3424 H 299.555 -0.571641 0.33782 0
M  V30 3425 H 302.085 -1.35991 1.52865 0
M  V30 3426 H 302.095 -3.80574 1.47063 0
M  V30 3427 H 300.77 -3.31406 2.51283 0
M  V30 3428 H 299.347 -3.65994 0.714322 0
M  V30 3429 N 301.532 -0.945985 -1.26051 0
M  V30 3430 C 302.809 -0.513816 -1.88731 0
M  V30 3431 C 303.189 1.00872 -1.8544 0
M  V30 3432 O 302.537 1.8708 -1.312 0
M  V30 3433 C 302.747 -1.08062 -3.31849 0
M  V30 3434 C 304.095 -1.1522 -4.08668 0
M  V30 3435 O 305.119 -1.03155 -3.40936 0
M  V30 3436 O 303.978 -1.34044 -5.29806 0
M  V30 3437 H 301.072 -0.168193 -0.809716 0
M  V30 3438 H 303.618 -1.03886 -1.34186 0
M  V30 3439 H 302.39 -2.1241 -3.2863 0
M  V30 3440 H 302.013 -0.538307 -3.93939 0
M  V30 3441 N 303.011 1.40521 -0.713556 0
M  V30 3442 C 303.958 2.30723 -0.059684 0
M  V30 3443 C 304.928 1.48079 0.752448 0
M  V30 3444 O 306.113 1.76823 0.71681 0
M  V30 3445 C 303.253 3.34274 0.857594 0
M  V30 3446 C 302.366 4.31986 0.0351536 0
M  V30 3447 C 301.501 5.22605 0.951724 0
M  V30 3448 C 300.54 6.11976 0.123253 0
M  V30 3449 N 299.677 6.9502 0.99459 0
M  V30 3450 H 304.517 2.86074 -0.834596 0
M  V30 3451 H 302.054 1.40879 -0.42326 0
M  V30 3452 H 304.012 3.92879 1.40364 0
M  V30 3453 H 302.642 2.8043 1.59871 0
M  V30 3454 H 301.694 3.7518 -0.628052 0
M  V30 3455 H 303.006 4.95101 -0.606347 0
M  V30 3456 H 302.16 5.86131 1.56638 0
M  V30 3457 H 300.899 4.59759 1.62705 0
M  V30 3458 H 299.904 5.47482 -0.50435 0
M  V30 3459 H 301.129 6.76881 -0.548539 0
M  V30 3460 H 299.075 6.34764 1.6556 0
M  V30 3461 H 298.992 7.54892 0.40908 0
M  V30 3462 H 300.26 7.62997 1.59549 0
M  V30 3463 N 304.489 0.459591 1.5075 0
M  V30 3464 C 305.419 -0.330644 2.31147 0
M  V30 3465 C 306.4 -1.00087 1.37538 0
M  V30 3466 O 307.585 -1.00025 1.66459 0
M  V30 3467 C 304.715 -1.41958 3.16962 0
M  V30 3468 C 303.669 -0.871608 4.19031 0
M  V30 3469 C 302.995 -2.05797 4.9351 0
M  V30 3470 C 304.295 0.109251 5.22186 0
M  V30 3471 H 305.989 0.340336 2.97459 0
M  V30 3472 H 303.535 0.165119 1.4305 0
M  V30 3473 H 305.488 -1.9798 3.71997 0
M  V30 3474 H 304.212 -2.11917 2.48513 0
M  V30 3475 H 302.871 -0.333442 3.6508 0
M  V30 3476 H 302.519 -2.74427 4.21544 0
M  V30 3477 H 302.219 -1.6976 5.62544 0
M  V30 3478 H 303.743 -2.62331 5.51375 0
M  V30 3479 H 305.157 -0.361405 5.7216 0
M  V30 3480 H 303.554 0.383316 5.98875 0
M  V30 3481 H 304.624 1.03887 4.73641 0
M  V30 3482 N 305.967 -1.56429 0.191757 0
M  V30 3483 C 307.197 -2.01574 -0.452928 0
M  V30 3484 C 307.605 -1.07107 -1.55964 0
M  V30 3485 O 306.948 -0.067534 -1.83576 0
M  V30 3486 C 307.01 -3.43121 -1.07278 0
M  V30 3487 C 306.674 -4.56879 -0.105214 0
M  V30 3488 C 307.671 -5.15379 0.684149 0
M  V30 3489 C 305.356 -5.023 0.00489824 0
M  V30 3490 C 307.35 -6.17746 1.57062 0
M  V30 3491 C 305.037 -6.04511 0.894935 0
M  V30 3492 C 306.035 -6.62108 1.67637 0
M  V30 3493 O 305.723 -7.62335 2.55149 0
M  V30 3494 H 305.455 -0.665554 -0.118379 0
M  V30 3495 H 308.009 -2.03245 0.296737 0
M  V30 3496 H 306.239 -3.38425 -1.87097 0
M  V30 3497 H 307.928 -3.72093 -1.62177 0
M  V30 3498 H 308.694 -4.81157 0.609365 0
M  V30 3499 H 304.573 -4.57168 -0.593156 0
M  V30 3500 H 308.117 -6.6263 2.181 0
M  V30 3501 H 304.014 -6.38157 0.970847 0
M  V30 3502 H 304.782 -7.79741 2.48892 0
M  V30 3503 N 307.445 0.0818655 -1.57387 0
M  V30 3504 C 308.393 1.11712 -2.04018 0
M  V30 3505 C 309.387 1.40683 -0.94364 0
M  V30 3506 O 310.593 1.40209 -1.12878 0
M  V30 3507 H 306.968 0.377542 -0.650358 0
M  V30 3508 H 308.939 0.697614 -2.90131 0
M  V30 3509 C 307.688 2.42537 -2.49141 0
M  V30 3510 H 307.011 2.21092 -3.33104 0
M  V30 3511 H 308.451 3.13446 -2.85531 0
M  V30 3512 C 306.91 3.0778 -1.37014 0
M  V30 3513 O 307.44 3.95436 -0.706621 0
M  V30 3514 N 305.646 2.68242 -1.11779 0
M  V30 3515 H 305.193 1.97052 -1.65917 0
M  V30 3516 H 305.151 3.1222 -0.369594 0
M  V30 3517 N 308.923 1.53595 0.353017 0
M  V30 3518 C 309.871 1.81605 1.45335 0
M  V30 3519 C 310.865 0.685923 1.54892 0
M  V30 3520 O 312.071 0.869095 1.57628 0
M  V30 3521 H 308.446 0.575204 0.484401 0
M  V30 3522 H 310.417 2.73679 1.18921 0
M  V30 3523 C 309.166 2.03406 2.81995 0
M  V30 3524 H 308.489 2.89814 2.75405 0
M  V30 3525 H 309.929 2.26975 3.58132 0
M  V30 3526 C 308.388 0.816794 3.26849 0
M  V30 3527 O 308.918 0.0115856 4.01698 0
M  V30 3528 N 307.124 0.636682 2.8354 0
M  V30 3529 H 306.671 1.2931 2.22793 0
M  V30 3530 H 306.629 -0.176336 3.13905 0
M  V30 3531 N 310.401 -0.613514 1.45168 0
M  V30 3532 C 311.349 -1.74572 1.53712 0
M  V30 3533 C 312.343 -1.64426 0.407505 0
M  V30 3534 O 313.549 -1.70291 0.583176 0
M  V30 3535 H 309.924 -0.576641 0.48269 0
M  V30 3536 H 311.895 -1.64492 2.48968 0
M  V30 3537 C 310.644 -3.12943 1.51532 0
M  V30 3538 H 309.967 -3.21407 2.37776 0
M  V30 3539 H 311.407 -3.9201 1.61569 0
M  V30 3540 C 309.866 -3.36053 0.238798 0
M  V30 3541 O 310.396 -3.95837 -0.6838 0
M  V30 3542 N 308.602 -2.9028 0.136359 0
M  V30 3543 H 308.149 -2.41811 0.887999 0
M  V30 3544 H 308.107 -3.06116 -0.716944 0
M  V30 3545 N 311.879 -1.3236 -0.855495 0
M  V30 3546 C 313.156 -1.13491 -1.59309 0
M  V30 3547 C 313.536 0.30503 -2.08885 0
M  V30 3548 O 312.884 1.30151 -1.87811 0
M  V30 3549 C 313.094 -2.16176 -2.73987 0
M  V30 3550 C 314.442 -2.49463 -3.43589 0
M  V30 3551 O 315.466 -2.14715 -2.84211 0
M  V30 3552 O 314.325 -3.09027 -4.50738 0
M  V30 3553 H 311.419 -0.437887 -0.701559 0
M  V30 3554 H 313.965 -1.43887 -0.899696 0
M  V30 3555 H 312.737 -3.1297 -2.34873 0
M  V30 3556 H 312.36 -1.86769 -3.51003 0
M  V30 3557 N 313.357 1.07166 -1.15556 0
M  V30 3558 C 314.634 1.76546 -0.842069 0
M  V30 3559 C 315.014 2.00453 0.661939 0
M  V30 3560 O 314.362 1.62452 1.60691 0
M  V30 3561 C 314.572 3.07266 -1.65495 0
M  V30 3562 C 315.92 3.81578 -1.86234 0
M  V30 3563 O 316.944 3.17083 -1.62287 0
M  V30 3564 O 315.803 4.97419 -2.26355 0
M  V30 3565 H 312.897 0.766756 -0.309862 0
M  V30 3566 H 315.443 1.13514 -1.26145 0
M  V30 3567 H 314.215 2.85494 -2.67598 0
M  V30 3568 H 313.838 3.7803 -1.23203 0
M  V30 3569 N 314.835 0.952656 1.25548 0
M  V30 3570 C 316.084 0.602053 1.92505 0
M  V30 3571 C 316.397 -0.864663 1.75451 0
M  V30 3572 O 317.603 -1.32514 2.36965 0
M  V30 3573 C 316.059 1.02607 3.44963 0
M  V30 3574 C 315.667 2.51519 3.70732 0
M  V30 3575 C 317.411 0.747905 4.1786 0
M  V30 3576 C 315.318 2.87732 5.16686 0
M  V30 3577 H 314.248 0.22146 0.720744 0
M  V30 3578 H 316.899 1.15684 1.42441 0
M  V30 3579 H 315.281 0.399712 3.93978 0
M  V30 3580 H 316.455 3.19157 3.32378 0
M  V30 3581 H 314.77 2.76786 3.11092 0
M  V30 3582 H 317.367 0.994647 5.25367 0
M  V30 3583 H 317.71 -0.315629 4.15102 0
M  V30 3584 H 318.243 1.33452 3.74747 0
M  V30 3585 H 314.982 3.93095 5.24554 0
M  V30 3586 H 314.502 2.24765 5.56094 0
M  V30 3587 H 316.181 2.76817 5.84792 0
M  V30 3588 N 316.313 -1.40141 0.720998 0
M  V30 3589 C 317.59 -1.94677 0.189757 0
M  V30 3590 C 317.97 -1.65879 -1.30566 0
M  V30 3591 O 317.318 -0.979391 -2.06447 0
M  V30 3592 C 317.528 -3.45279 0.508304 0
M  V30 3593 C 318.876 -4.22209 0.449934 0
M  V30 3594 O 319.9 -3.53413 0.444677 0
M  V30 3595 O 318.759 -5.44788 0.432189 0
M  V30 3596 H 315.853 -0.826459 0.0299026 0
M  V30 3597 H 318.399 -1.49719 0.7989 0
M  V30 3598 H 317.171 -3.59619 1.54239 0
M  V30 3599 H 316.794 -3.97386 -0.130525 0
M  V30 3600 N 317.792 -0.46758 -1.50504 0
M  V30 3601 C 319.038 0.0887532 -2.02606 0
M  V30 3602 C 319.371 1.39686 -1.34913 0
M  V30 3603 O 318.646 1.88644 -0.473694 0
M  V30 3604 C 318.929 0.276206 -3.59039 0
M  V30 3605 C 318.782 -1.05267 -4.37309 0
M  V30 3606 C 320.101 1.03235 -4.27821 0
M  V30 3607 H 317.22 0.0307814 -0.736357 0
M  V30 3608 H 319.862 -0.612485 -1.79857 0
M  V30 3609 H 318.012 0.8735 -3.78553 0
M  V30 3610 H 319.684 -1.68628 -4.29374 0
M  V30 3611 H 317.927 -1.65015 -4.01189 0
M  V30 3612 H 318.598 -0.875197 -5.45018 0
M  V30 3613 H 321.074 0.526111 -4.12761 0
M  V30 3614 H 319.95 1.1323 -5.37094 0
M  V30 3615 H 320.211 2.06806 -3.90748 0
M  V30 3616 N 319.27 1.56325 -0.20005 0
M  V30 3617 C 320.22 2.15939 0.731743 0
M  V30 3618 C 321.204 1.10154 1.17281 0
M  V30 3619 O 322.396 1.36203 1.13038 0
M  V30 3620 C 319.525 2.82614 1.94895 0
M  V30 3621 C 318.611 3.95596 1.52855 0
M  V30 3622 N 319.002 4.99118 0.819418 0
M  V30 3623 C 317.3 4.07288 1.81748 0
M  V30 3624 C 318.001 5.78513 0.608053 0
M  V30 3625 N 316.977 5.31117 1.15828 0
M  V30 3626 H 320.779 2.9334 0.181285 0
M  V30 3627 H 318.293 1.624 -0.000452172 0
M  V30 3628 H 320.29 3.23718 2.62702 0
M  V30 3629 H 318.95 2.06702 2.50408 0
M  V30 3630 H 319.961 5.15723 0.47436 0
M  V30 3631 H 316.638 3.42509 2.38734 0
M  V30 3632 H 318.028 6.71885 0.0451619 0
M  V30 3633 N 320.748 -0.0735177 1.57428 0
M  V30 3634 C 321.658 -1.10547 2.06922 0
M  V30 3635 C 322.674 -1.42506 0.998402 0
M  V30 3636 O 323.85 -1.52717 1.31299 0
M  V30 3637 C 320.915 -2.40019 2.50184 0
M  V30 3638 C 319.976 -2.15046 3.71556 0
M  V30 3639 C 319.209 -3.38345 4.12745 0
M  V30 3640 O 319.432 -4.47399 3.53822 0
M  V30 3641 O 318.366 -3.2666 5.05546 0
M  V30 3642 H 322.192 -0.715013 2.95163 0
M  V30 3643 H 319.777 -0.287531 1.46607 0
M  V30 3644 H 321.659 -3.16218 2.78539 0
M  V30 3645 H 320.334 -2.78447 1.65072 0
M  V30 3646 H 319.241 -1.36558 3.48285 0
M  V30 3647 H 320.574 -1.81499 4.57514 0
M  V30 3648 N 322.226 -1.5378 -0.344866 0
M  V30 3649 C 323.156 -1.84662 -1.42906 0
M  V30 3650 C 324.137 -0.701648 -1.54955 0
M  V30 3651 O 325.322 -0.953438 -1.69184 0
M  V30 3652 C 322.452 -2.05503 -2.79974 0
M  V30 3653 C 321.406 -3.21318 -2.82734 0
M  V30 3654 C 320.732 -3.2749 -4.22675 0
M  V30 3655 C 322.032 -4.59456 -2.48389 0
M  V30 3656 H 323.726 -2.75461 -1.17311 0
M  V30 3657 H 321.272 -1.32542 -0.562896 0
M  V30 3658 H 323.225 -2.25691 -3.55867 0
M  V30 3659 H 321.949 -1.11434 -3.07002 0
M  V30 3660 H 320.608 -3.00984 -2.09294 0
M  V30 3661 H 320.256 -2.31019 -4.4681 0
M  V30 3662 H 319.956 -4.05316 -4.25433 0
M  V30 3663 H 321.48 -3.49887 -5.00412 0
M  V30 3664 H 322.894 -4.79667 -3.13995 0
M  V30 3665 H 321.291 -5.39675 -2.62432 0
M  V30 3666 H 322.361 -4.63155 -1.4358 0
M  V30 3667 N 323.704 0.605807 -1.45491 0
M  V30 3668 C 324.634 1.72709 -1.57143 0
M  V30 3669 C 325.615 1.6476 -0.422884 0
M  V30 3670 O 326.8 1.83132 -0.646247 0
M  V30 3671 C 323.93 3.11316 -1.53948 0
M  V30 3672 C 322.884 3.34077 -2.67537 0
M  V30 3673 C 322.21 4.72975 -2.49397 0
M  V30 3674 C 323.51 3.24158 -4.09535 0
M  V30 3675 H 325.204 1.63214 -2.51001 0
M  V30 3676 H 322.75 0.78379 -1.208 0
M  V30 3677 H 324.703 3.89557 -1.60696 0
M  V30 3678 H 323.427 3.21655 -0.566205 0
M  V30 3679 H 322.086 2.58227 -2.6022 0
M  V30 3680 H 321.734 4.8005 -1.50205 0
M  V30 3681 H 321.434 4.8916 -3.25571 0
M  V30 3682 H 322.958 5.53414 -2.58002 0
M  V30 3683 H 324.372 3.92271 -4.18086 0
M  V30 3684 H 322.769 3.51872 -4.86113 0
M  V30 3685 H 323.839 2.2157 -4.31317 0
M  V30 3686 N 325.182 1.32811 0.848464 0
M  V30 3687 C 326.092 1.24278 1.98978 0
M  V30 3688 C 327.108 0.155176 1.73307 0
M  V30 3689 O 328.284 0.376999 1.9784 0
M  V30 3690 C 325.349 0.972444 3.32783 0
M  V30 3691 C 324.41 2.14911 3.71634 0
M  V30 3692 C 323.643 1.89157 4.99054 0
M  V30 3693 O 323.866 0.837165 5.64223 0
M  V30 3694 O 322.8 2.75433 5.35183 0
M  V30 3695 H 326.626 2.20238 2.09115 0
M  V30 3696 H 324.211 1.12762 0.980052 0
M  V30 3697 H 326.093 0.838432 4.12975 0
M  V30 3698 H 324.768 0.043051 3.23671 0
M  V30 3699 H 323.675 2.33862 2.91992 0
M  V30 3700 H 325.008 3.06151 3.85399 0
M  V30 3701 N 326.66 -1.06551 1.16123 0
M  V30 3702 C 327.57 -2.17484 0.879662 0
M  V30 3703 C 328.586 -1.73377 -0.147104 0
M  V30 3704 O 329.762 -2.01379 0.0289128 0
M  V30 3705 C 326.827 -3.44591 0.381829 0
M  V30 3706 C 325.888 -4.0322 1.4735 0
M  V30 3707 C 325.121 -5.24261 0.999324 0
M  V30 3708 O 325.344 -5.70198 -0.151957 0
M  V30 3709 O 324.278 -5.74775 1.78653 0
M  V30 3710 H 328.104 -2.44075 1.80724 0
M  V30 3711 H 325.689 -1.16042 0.940992 0
M  V30 3712 H 327.571 -4.21254 0.111053 0
M  V30 3713 H 326.246 -3.19532 -0.51777 0
M  V30 3714 H 325.153 -3.2806 1.79798 0
M  V30 3715 H 326.486 -4.32568 2.34831 0
M  V30 3716 N 328.138 -0.959301 -1.25041 0
M  V30 3717 C 329.387 -0.612254 -1.92183 0
M  V30 3718 C 329.7 0.855347 -1.75907 0
M  V30 3719 O 330.906 1.31256 -2.37664 0
M  V30 3720 C 329.362 -1.04435 -3.44414 0
M  V30 3721 C 328.97 -2.53482 -3.69393 0
M  V30 3722 C 330.714 -0.770055 -4.17457 0
M  V30 3723 C 328.621 -2.90468 -5.15153 0
M  V30 3724 H 327.551 -0.225279 -0.719559 0
M  V30 3725 H 330.202 -1.16438 -1.41825 0
M  V30 3726 H 328.584 -0.4206 -3.9376 0
M  V30 3727 H 329.758 -3.20916 -3.30681 0
M  V30 3728 H 328.073 -2.78432 -3.0962 0
M  V30 3729 H 330.67 -1.02249 -5.24832 0
M  V30 3730 H 331.013 0.293611 -4.15263 0
M  V30 3731 H 331.546 -1.35437 -3.74034 0
M  V30 3732 H 328.285 -3.95871 -5.22462 0
M  V30 3733 H 327.805 -2.27711 -5.54894 0
M  V30 3734 H 329.484 -2.79914 -5.83315 0
M  V30 3735 N 329.616 1.39756 -0.72842 0
M  V30 3736 C 330.865 1.99879 -0.270407 0
M  V30 3737 C 331.178 1.58449 1.14688 0
M  V30 3738 O 332.384 2.11362 1.70407 0
M  V30 3739 C 330.84 3.57292 -0.43252 0
M  V30 3740 C 330.448 4.07688 -1.85727 0
M  V30 3741 C 332.192 4.24485 -0.0359507 0
M  V30 3742 C 330.099 5.5765 -1.96928 0
M  V30 3743 H 329.029 0.747689 -0.0973472 0
M  V30 3744 H 331.68 1.59837 -0.901355 0
M  V30 3745 H 330.062 3.95097 0.267219 0
M  V30 3746 H 331.236 3.81231 -2.58843 0
M  V30 3747 H 329.551 3.53135 -2.20646 0
M  V30 3748 H 332.148 5.34609 -0.0987484 0
M  V30 3749 H 332.491 4.03915 1.00787 0
M  V30 3750 H 333.024 3.9183 -0.686604 0
M  V30 3751 H 329.763 5.8309 -2.99476 0
M  V30 3752 H 329.283 5.8593 -1.28241 0
M  V30 3753 H 330.962 6.22957 -1.74737 0
M  V30 3754 N 331.094 0.475555 1.50254 0
M  V30 3755 C 332.322 -0.0754493 2.06762 0
M  V30 3756 C 332.737 -1.33111 1.33891 0
M  V30 3757 O 332.094 -1.77846 0.40952 0
M  V30 3758 C 332.145 -0.359008 3.59713 0
M  V30 3759 O 331.866 0.846851 4.29837 0
M  V30 3760 C 333.367 -0.956484 4.32858 0
M  V30 3761 H 330.587 0.00907525 0.670939 0
M  V30 3762 H 333.131 0.665618 1.93364 0
M  V30 3763 H 331.286 -1.05001 3.72899 0
M  V30 3764 H 331.7 0.594162 5.21124 0
M  V30 3765 H 333.174 -1.10463 5.40834 0
M  V30 3766 H 333.651 -1.94775 3.93649 0
M  V30 3767 H 334.257 -0.303723 4.24214 0
M  V30 3768 N 332.573 -1.56217 0.208337 0
M  V30 3769 C 333.52 -2.19699 -0.707192 0
M  V30 3770 C 334.49 -1.14836 -1.20008 0
M  V30 3771 O 335.675 -1.4314 -1.26157 0
M  V30 3772 C 332.815 -2.87061 -1.91546 0
M  V30 3773 C 331.928 -4.06483 -1.46271 0
M  V30 3774 C 331.063 -4.61665 -2.62752 0
M  V30 3775 C 330.102 -5.73417 -2.14147 0
M  V30 3776 N 329.239 -6.22948 -3.23853 0
M  V30 3777 H 334.079 -2.97575 -0.159111 0
M  V30 3778 H 331.616 -1.46948 -0.0667874 0
M  V30 3779 H 333.574 -3.24294 -2.62468 0
M  V30 3780 H 332.204 -2.11725 -2.43664 0
M  V30 3781 H 331.256 -3.74825 -0.648886 0
M  V30 3782 H 332.568 -4.87271 -1.06622 0
M  V30 3783 H 331.722 -5.01272 -3.41776 0
M  V30 3784 H 330.461 -3.80013 -3.05682 0
M  V30 3785 H 329.466 -5.33326 -1.33581 0
M  V30 3786 H 330.691 -6.56897 -1.72232 0
M  V30 3787 H 328.637 -5.44213 -3.6629 0
M  V30 3788 H 328.554 -6.98823 -2.88414 0
M  V30 3789 H 329.822 -6.6721 -4.03052 0
M  V30 3790 N 334.051 0.0651679 -1.57465 0
M  V30 3791 C 334.961 1.09448 -2.07505 0
M  V30 3792 C 335.977 1.41974 -1.00595 0
M  V30 3793 O 337.153 1.52018 -1.32107 0
M  V30 3794 C 334.218 2.38689 -2.51453 0
M  V30 3795 C 333.279 2.13073 -3.72691 0
M  V30 3796 C 332.512 3.36152 -4.14533 0
M  V30 3797 O 332.735 4.45517 -3.56189 0
M  V30 3798 O 331.669 3.23974 -5.07272 0
M  V30 3799 H 335.495 0.69935 -2.95538 0
M  V30 3800 H 333.08 0.279752 -1.46757 0
M  V30 3801 H 334.962 3.14736 -2.80212 0
M  V30 3802 H 333.637 2.77568 -1.66546 0
M  V30 3803 H 332.544 1.34709 -3.49005 0
M  V30 3804 H 333.877 1.79071 -4.5847 0
M  V30 3805 N 335.529 1.53961 0.336706 0
M  V30 3806 C 336.476 1.82428 1.41381 0
M  V30 3807 C 337.446 0.670444 1.51968 0
M  V30 3808 O 338.631 0.915565 1.67398 0
M  V30 3809 C 335.771 2.04564 2.77934 0
M  V30 3810 C 334.884 3.32267 2.76084 0
M  V30 3811 C 334.019 3.44434 4.04399 0
M  V30 3812 C 333.058 4.66061 3.96804 0
M  V30 3813 N 332.195 4.75224 5.16823 0
M  V30 3814 H 337.035 2.74324 1.16405 0
M  V30 3815 H 334.572 1.35869 0.563752 0
M  V30 3816 H 336.53 2.15388 3.57301 0
M  V30 3817 H 335.16 1.15974 3.01247 0
M  V30 3818 H 334.212 3.3025 1.88784 0
M  V30 3819 H 335.524 4.21733 2.66351 0
M  V30 3820 H 334.678 3.54728 4.92192 0
M  V30 3821 H 333.417 2.53037 4.16921 0
M  V30 3822 H 332.422 4.55838 3.07396 0
M  V30 3823 H 333.647 5.58829 3.85858 0
M  V30 3824 H 331.593 3.86739 5.29876 0
M  V30 3825 H 331.51 5.58636 5.09374 0
M  V30 3826 H 332.778 4.89835 6.06367 0
M  V30 3827 N 337.007 -0.598083 1.45811 0
M  V30 3828 C 338.423 -0.919847 1.30426 0
M  V30 3829 C 338.623 -1.99759 0.264303 0
M  V30 3830 O 337.679 -2.50221 -0.338472 0
M  V30 3831 C 338.992 -1.35176 2.68603 0
M  V30 3832 C 340.54 -1.46546 2.76574 0
M  V30 3833 C 341.015 -1.9311 4.15298 0
M  V30 3834 N 342.506 -2.00328 4.1764 0
M  V30 3835 C 343.241 -2.37599 5.21856 0
M  V30 3836 N 342.737 -2.73771 6.36413 0
M  V30 3837 N 344.53 -2.38021 5.09218 0
M  V30 3838 H 336.681 0.114111 2.12093 0
M  V30 3839 H 338.944 -0.0116121 0.947929 0
M  V30 3840 H 338.65 -0.633969 3.45939 0
M  V30 3841 H 338.524 -2.3164 2.97696 0
M  V30 3842 H 340.911 -2.17415 1.99537 0
M  V30 3843 H 340.992 -0.483727 2.51185 0
M  V30 3844 H 340.636 -1.22824 4.92825 0
M  V30 3845 H 340.566 -2.92213 4.38086 0
M  V30 3846 H 343.057 -1.74925 3.34977 0
M  V30 3847 H 343.37 -3.0112 7.11721 0
M  V30 3848 H 341.715 -2.71445 6.39799 0
M  V30 3849 H 344.906 -2.09174 4.18765 0
M  V30 3850 H 345.079 -2.66741 5.90554 0
M  V30 3851 N 338.485 -1.33259 -0.841409 0
M  V30 3852 C 339.732 -1.24572 -1.5965 0
M  V30 3853 C 340.06 0.189137 -1.93578 0
M  V30 3854 O 339.315 1.14566 -1.5866 0
M  V30 3855 C 339.614 -2.06381 -2.9179 0
M  V30 3856 C 339.28 -3.556 -2.77235 0
M  V30 3857 C 337.942 -3.96282 -2.72973 0
M  V30 3858 C 340.294 -4.50433 -2.62221 0
M  V30 3859 C 337.622 -5.30017 -2.51592 0
M  V30 3860 C 339.974 -5.84327 -2.42374 0
M  V30 3861 C 338.638 -6.24194 -2.36512 0
M  V30 3862 H 337.908 -0.455842 -0.5842 0
M  V30 3863 H 340.555 -1.6482 -0.975016 0
M  V30 3864 H 338.86 -1.58903 -3.5813 0
M  V30 3865 H 340.557 -1.97019 -3.49263 0
M  V30 3866 H 337.147 -3.23298 -2.81384 0
M  V30 3867 H 341.331 -4.19914 -2.64549 0
M  V30 3868 H 336.587 -5.59947 -2.45499 0
M  V30 3869 H 340.761 -6.57414 -2.29739 0
M  V30 3870 H 338.388 -7.27759 -2.19706 0
M  V30 3871 N 339.963 1.05934 -1.16686 0
M  V30 3872 C 341.21 1.788 -0.950622 0
M  V30 3873 C 341.538 1.87384 0.521305 0
M  V30 3874 O 340.793 1.36438 1.40297 0
M  V30 3875 C 341.092 3.23105 -1.52767 0
M  V30 3876 C 340.758 3.34594 -3.02254 0
M  V30 3877 C 339.42 3.37437 -3.43059 0
M  V30 3878 C 341.772 3.36219 -3.98254 0
M  V30 3879 C 339.1 3.39525 -4.78477 0
M  V30 3880 C 341.452 3.39845 -5.33562 0
M  V30 3881 C 340.116 3.40971 -5.73842 0
M  V30 3882 H 339.386 0.654275 -0.347857 0
M  V30 3883 H 342.033 1.24555 -1.45459 0
M  V30 3884 H 340.338 3.80227 -0.94524 0
M  V30 3885 H 342.035 3.7809 -1.336 0
M  V30 3886 H 338.625 3.3309 -2.6972 0
M  V30 3887 H 342.809 3.33231 -3.67792 0
M  V30 3888 H 338.065 3.38703 -5.09009 0
M  V30 3889 H 342.239 3.4005 -6.07733 0
M  V30 3890 H 339.866 3.42342 -6.78753 0
M  V30 3891 N 341.441 0.965919 1.2453 0
M  V30 3892 C 342.371 0.513476 2.27784 0
M  V30 3893 C 343.352 -0.445974 1.6415 0
M  V30 3894 O 344.537 -0.342485 1.91156 0
M  V30 3895 C 341.667 -0.198839 3.4673 0
M  V30 3896 C 340.621 0.676456 4.2262 0
M  V30 3897 C 339.947 -0.167248 5.34438 0
M  V30 3898 C 341.247 1.96017 4.84123 0
M  V30 3899 H 342.941 1.3765 2.65881 0
M  V30 3900 H 340.487 0.663321 1.27813 0
M  V30 3901 H 342.44 -0.526567 4.18097 0
M  V30 3902 H 341.164 -1.0962 3.07654 0
M  V30 3903 H 339.823 0.98743 3.53052 0
M  V30 3904 H 339.471 -1.0647 4.91603 0
M  V30 3905 H 339.171 0.415181 5.86131 0
M  V30 3906 H 340.695 -0.489688 6.08633 0
M  V30 3907 H 342.109 1.69814 5.47573 0
M  V30 3908 H 340.506 2.48918 5.4604 0
M  V30 3909 H 341.576 2.65622 4.05676 0
M  V30 3910 N 342.919 -1.39368 0.735821 0
M  V30 3911 C 343.867 -2.32443 0.0855131 0
M  V30 3912 C 344.861 -1.53104 -0.724954 0
M  V30 3913 O 346.067 -1.68762 -0.626047 0
M  V30 3914 H 342.442 -0.751948 0.00885257 0
M  V30 3915 H 344.413 -2.84916 0.886883 0
M  V30 3916 C 343.162 -3.38206 -0.806983 0
M  V30 3917 H 342.485 -3.99335 -0.19274 0
M  V30 3918 H 343.925 -4.05779 -1.2296 0
M  V30 3919 C 342.384 -2.75321 -1.94165 0
M  V30 3920 O 342.914 -2.63231 -3.03435 0
M  V30 3921 N 341.12 -2.33396 -1.73132 0
M  V30 3922 H 340.667 -2.4343 -0.842596 0
M  V30 3923 H 340.625 -1.91661 -2.49225 0
M  V30 3924 N 344.397 -0.483516 -1.5 0
M  V30 3925 C 345.674 0.129337 -1.95172 0
M  V30 3926 C 346.054 1.55802 -1.4244 0
M  V30 3927 O 345.402 2.19625 -0.630649 0
M  V30 3928 C 345.612 0.0599251 -3.48949 0
M  V30 3929 C 346.96 0.242617 -4.23906 0
M  V30 3930 O 347.984 0.135933 -3.55941 0
M  V30 3931 O 346.843 0.459454 -5.44565 0
M  V30 3932 H 343.937 0.104887 -0.820322 0
M  V30 3933 H 346.483 -0.544807 -1.60717 0
M  V30 3934 H 345.255 -0.937079 -3.79914 0
M  V30 3935 H 344.878 0.774984 -3.89974 0
M  V30 3936 N 345.875 1.56104 -0.216619 0
M  V30 3937 C 347.152 1.89988 0.465165 0
M  V30 3938 C 347.532 1.13326 1.78102 0
M  V30 3939 O 346.88 0.241033 2.27225 0
M  V30 3940 C 347.09 3.42646 0.662939 0
M  V30 3941 C 348.438 4.13311 0.972602 0
M  V30 3942 O 349.462 3.48217 0.749901 0
M  V30 3943 O 348.321 5.28396 1.39499 0
M  V30 3944 H 345.415 0.78979 0.245276 0
M  V30 3945 H 347.961 1.67721 -0.258436 0
M  V30 3946 H 346.733 3.90399 -0.26543 0
M  V30 3947 H 346.356 3.70677 1.43821 0
M  V30 3948 N 347.353 -0.0568162 1.57498 0
M  V30 3949 C 348.63 -0.786954 1.79071 0
M  V30 3950 C 349.01 -1.95028 0.80792 0
M  V30 3951 O 348.358 -2.27968 -0.155858 0
M  V30 3952 C 348.568 -1.24594 3.26002 0
M  V30 3953 C 349.916 -1.67323 3.90241 0
M  V30 3954 O 350.94 -1.34124 3.29984 0
M  V30 3955 O 349.799 -2.28842 4.9628 0
M  V30 3956 H 346.893 -0.378262 0.735423 0
M  V30 3957 H 349.439 -0.035734 1.69662 0
M  V30 3958 H 348.211 -0.41423 3.89101 0
M  V30 3959 H 347.834 -2.05803 3.40192 0
M  V30 3960 N 348.832 -1.54138 -0.328536 0
M  V30 3961 C 350.109 -1.62749 -1.08499 0
M  V30 3962 C 350.489 -0.458198 -2.06067 0
M  V30 3963 O 349.837 0.548046 -2.2183 0
M  V30 3964 C 350.047 -2.99519 -1.79135 0
M  V30 3965 C 351.395 -3.55394 -2.32337 0
M  V30 3966 O 352.419 -3.01792 -1.89209 0
M  V30 3967 O 351.278 -4.49186 -3.11279 0
M  V30 3968 H 348.372 -0.65886 -0.499832 0
M  V30 3969 H 350.918 -1.66484 -0.328826 0
M  V30 3970 H 349.69 -3.76061 -1.08139 0
M  V30 3971 H 349.313 -2.99441 -2.61574 0
M  V30 3972 N 350.31 0.590341 -1.46126 0
M  V30 3973 C 351.258 1.72105 -1.5647 0
M  V30 3974 C 352.252 1.63756 -0.433612 0
M  V30 3975 O 353.458 1.69342 -0.610194 0
M  V30 3976 H 349.833 0.568889 -0.491802 0
M  V30 3977 H 351.804 1.6051 -2.51553 0
M  V30 3978 C 350.553 3.10493 -1.56491 0
M  V30 3979 H 349.876 3.17583 -2.4286 0
M  V30 3980 H 351.316 3.8939 -1.67785 0
M  V30 3981 C 349.775 3.3563 -0.292231 0
M  V30 3982 O 350.305 3.96875 0.620739 0
M  V30 3983 N 348.511 2.90026 -0.182523 0
M  V30 3984 H 348.058 2.40367 -0.926356 0
M  V30 3985 H 348.016 3.07218 0.668152 0
M  V30 3986 N 351.788 1.33704 0.83433 0
M  V30 3987 C 353.065 1.16011 1.57483 0
M  V30 3988 C 353.445 -0.27176 2.09343 0
M  V30 3989 O 352.793 -1.27146 1.89858 0
M  V30 3990 C 353.003 2.20507 2.70514 0
M  V30 3991 C 354.351 2.54898 3.39577 0
M  V30 3992 O 355.375 2.19209 2.80759 0
M  V30 3993 O 354.234 3.16158 4.45765 0
M  V30 3994 H 351.328 0.448992 0.694503 0
M  V30 3995 H 353.874 1.453 0.876691 0
M  V30 3996 H 352.646 3.16667 2.29865 0
M  V30 3997 H 352.269 1.92329 3.47987 0
M  V30 3998 N 353.266 -1.05314 1.17247 0
M  V30 3999 C 354.491 -1.82509 0.985148 0
M  V30 4000 C 354.916 -1.82343 -0.461788 0
M  V30 4001 O 354.274 -1.23151 -1.33055 0
M  V30 4002 C 354.322 -3.26566 1.52929 0
M  V30 4003 O 353.426 -4.05666 0.742225 0
M  V30 4004 H 352.767 -0.564347 0.349869 0
M  V30 4005 H 355.297 -1.32718 1.55715 0
M  V30 4006 H 355.307 -3.77369 1.55103 0
M  V30 4007 H 353.982 -3.26001 2.58256 0
M  V30 4008 H 352.559 -3.64397 0.791794 0
M  V30 4009 N 354.744 -0.972509 -1.24016 0
M  V30 4010 C 355.692 -0.498562 -2.27194 0
M  V30 4011 C 356.686 0.440372 -1.63576 0
M  V30 4012 O 357.892 0.315133 -1.7722 0
M  V30 4013 H 354.267 -0.142775 -0.738322 0
M  V30 4014 H 356.238 -1.38065 -2.64539 0
M  V30 4015 C 354.987 0.191072 -3.47175 0
M  V30 4016 H 354.31 -0.522318 -3.96373 0
M  V30 4017 H 355.75 0.486445 -4.212 0
M  V30 4018 C 354.209 1.41967 -3.05527 0
M  V30 4019 O 354.739 2.51642 -3.13112 0
M  V30 4020 N 352.945 1.28746 -2.60524 0
M  V30 4021 H 352.492 0.395089 -2.54552 0
M  V30 4022 H 352.45 2.11061 -2.33025 0
M  V30 4023 N 356.222 1.38976 -0.743202 0
M  V30 4024 C 357.499 1.94351 -0.220705 0
M  V30 4025 C 357.879 1.67935 1.2791 0
M  V30 4026 O 357.227 1.01211 2.04862 0
M  V30 4027 C 357.437 3.44426 -0.563171 0
M  V30 4028 C 358.785 4.2144 -0.517046 0
M  V30 4029 O 359.809 3.52661 -0.500846 0
M  V30 4030 O 358.668 5.44032 -0.518806 0
M  V30 4031 H 355.762 0.825879 -0.043047 0
M  V30 4032 H 358.308 1.48429 -0.822618 0
M  V30 4033 H 357.08 3.5712 -1.59941 0
M  V30 4034 H 356.703 3.97543 0.0672883 0
M  V30 4035 N 357.7 0.491464 1.49741 0
M  V30 4036 C 358.647 -0.292027 2.28945 0
M  V30 4037 C 359.617 -0.968973 1.34908 0
M  V30 4038 O 360.802 -0.97748 1.6386 0
M  V30 4039 C 357.942 -1.35617 3.17336 0
M  V30 4040 C 357.055 -0.691957 4.26422 0
M  V30 4041 C 356.19 -1.73572 5.02042 0
M  V30 4042 C 355.229 -1.05286 6.02977 0
M  V30 4043 N 354.366 -2.0404 6.71798 0
M  V30 4044 H 359.206 0.389654 2.95442 0
M  V30 4045 H 356.743 0.204003 1.45679 0
M  V30 4046 H 358.701 -1.98502 3.66951 0
M  V30 4047 H 357.331 -2.00674 2.52844 0
M  V30 4048 H 356.383 0.0499523 3.80367 0
M  V30 4049 H 357.695 -0.153946 4.98562 0
M  V30 4050 H 356.849 -2.43987 5.55478 0
M  V30 4051 H 355.588 -2.30757 4.29654 0
M  V30 4052 H 354.593 -0.334446 5.48782 0
M  V30 4053 H 355.818 -0.487636 6.77347 0
M  V30 4054 H 353.764 -2.60205 6.02187 0
M  V30 4055 H 353.681 -1.55279 7.39881 0
M  V30 4056 H 354.949 -2.73772 7.29842 0
M  V30 4057 N 359.178 -1.55987 0.224894 0
M  V30 4058 C 360.408 -2.02489 -0.41007 0
M  V30 4059 C 360.816 -1.10391 -1.53657 0
M  V30 4060 O 360.159 -0.106458 -1.83391 0
M  V30 4061 C 360.221 -3.45319 -0.999757 0
M  V30 4062 C 359.885 -4.56999 -0.00827976 0
M  V30 4063 C 360.882 -5.13812 0.793314 0
M  V30 4064 C 358.567 -5.02176 0.111442 0
M  V30 4065 C 360.561 -6.14276 1.7013 0
M  V30 4066 C 358.248 -6.02477 1.02296 0
M  V30 4067 C 359.246 -6.58403 1.81643 0
M  V30 4068 O 358.934 -7.56751 2.71262 0
M  V30 4069 H 358.666 -0.667915 -0.104235 0
M  V30 4070 H 361.22 -2.0257 0.339782 0
M  V30 4071 H 359.45 -3.42318 -1.79876 0
M  V30 4072 H 361.139 -3.7545 -1.54248 0
M  V30 4073 H 361.905 -4.79756 0.711288 0
M  V30 4074 H 357.784 -4.58323 -0.49605 0
M  V30 4075 H 361.328 -6.57854 2.32107 0
M  V30 4076 H 357.225 -6.35954 1.10599 0
M  V30 4077 H 357.993 -7.74286 2.65375 0
M  V30 4078 N 360.656 0.0484629 -1.57525 0
M  V30 4079 C 361.905 0.742065 -1.87553 0
M  V30 4080 C 362.218 1.77545 -0.820802 0
M  V30 4081 O 363.424 2.52027 -1.00967 0
M  V30 4082 C 361.88 1.37081 -3.32771 0
M  V30 4083 C 361.488 0.374786 -4.4643 0
M  V30 4084 C 363.232 2.04542 -3.71972 0
M  V30 4085 C 361.139 1.01077 -5.82698 0
M  V30 4086 H 360.069 0.280903 -0.699721 0
M  V30 4087 H 362.72 -0.00411877 -1.835 0
M  V30 4088 H 361.102 2.16605 -3.31509 0
M  V30 4089 H 362.276 -0.392331 -4.59127 0
M  V30 4090 H 360.591 -0.196653 -4.15935 0
M  V30 4091 H 363.188 2.52943 -4.71088 0
M  V30 4092 H 363.531 2.85515 -3.02964 0
M  V30 4093 H 364.064 1.31819 -3.75325 0
M  V30 4094 H 360.803 0.240878 -6.55057 0
M  V30 4095 H 360.323 1.74819 -5.73758 0
M  V30 4096 H 362.002 1.52383 -6.28799 0
M  V30 4097 N 362.134 1.5431 0.320358 0
M  V30 4098 C 363.064 1.86912 1.3995 0
M  V30 4099 C 364.045 0.726211 1.53819 0
M  V30 4100 O 365.23 0.980233 1.67646 0
M  V30 4101 C 362.36 2.09932 2.7667 0
M  V30 4102 C 361.314 3.25776 2.77586 0
M  V30 4103 C 360.64 3.34173 4.17412 0
M  V30 4104 C 361.94 4.6335 2.41048 0
M  V30 4105 H 363.634 2.77292 1.12914 0
M  V30 4106 H 361.18 1.33421 0.541738 0
M  V30 4107 H 363.133 2.31324 3.52232 0
M  V30 4108 H 361.857 1.16304 3.0519 0
M  V30 4109 H 360.516 3.04276 2.04479 0
M  V30 4110 H 360.164 2.38098 4.43078 0
M  V30 4111 H 359.864 4.12033 4.18931 0
M  V30 4112 H 361.388 3.57803 4.94782 0
M  V30 4113 H 362.802 4.84602 3.06324 0
M  V30 4114 H 361.199 5.43782 2.53813 0
M  V30 4115 H 362.269 4.65381 1.36193 0
M  V30 4116 N 363.613 -0.582584 1.46437 0
M  V30 4117 C 364.56 -1.69164 1.5701 0
M  V30 4118 C 365.53 -1.60847 0.414403 0
M  V30 4119 O 366.715 -1.80058 0.631171 0
M  V30 4120 C 363.855 -3.075 1.56646 0
M  V30 4121 C 362.968 -3.2644 2.82951 0
M  V30 4122 C 362.103 -4.55026 2.7409 0
M  V30 4123 C 361.142 -4.6731 3.95333 0
M  V30 4124 N 360.279 -5.87221 3.84858 0
M  V30 4125 H 365.119 -1.59464 2.51744 0
M  V30 4126 H 362.656 -0.777186 1.24893 0
M  V30 4127 H 364.614 -3.8757 1.5442 0
M  V30 4128 H 363.244 -3.16096 0.654439 0
M  V30 4129 H 362.296 -2.39974 2.95155 0
M  V30 4130 H 363.608 -3.31385 3.72808 0
M  V30 4131 H 362.762 -5.43324 2.6997 0
M  V30 4132 H 361.501 -4.52519 1.81873 0
M  V30 4133 H 360.506 -3.77429 3.99784 0
M  V30 4134 H 361.731 -4.71595 4.88646 0
M  V30 4135 H 359.677 -5.85712 2.95427 0
M  V30 4136 H 359.594 -5.93435 4.6837 0
M  V30 4137 H 360.862 -6.7795 3.84713 0
M  V30 4138 N 365.091 -1.34144 -0.827227 0
M  V30 4139 C 366.319 -1.29325 -1.61501 0
M  V30 4140 C 366.734 0.13354 -1.88327 0
M  V30 4141 O 366.091 1.0793 -1.47164 0
M  V30 4142 C 366.142 -2.07746 -2.95844 0
M  V30 4143 O 365.863 -3.4486 -2.70191 0
M  V30 4144 C 367.364 -2.10273 -3.90256 0
M  V30 4145 H 364.584 -0.445069 -0.50215 0
M  V30 4146 H 367.128 -1.76693 -1.02955 0
M  V30 4147 H 365.283 -1.6403 -3.5096 0
M  V30 4148 H 365.697 -3.85345 -3.55822 0
M  V30 4149 H 367.171 -2.69575 -4.81698 0
M  V30 4150 H 367.648 -1.096 -4.25305 0
M  V30 4151 H 368.254 -2.54059 -3.41078 0
M  V30 4152 N 366.569 1.04691 -1.17803 0
M  V30 4153 C 367.846 1.7472 -0.879328 0
M  V30 4154 C 368.226 2.01812 0.619271 0
M  V30 4155 O 367.574 1.65824 1.57209 0
M  V30 4156 C 367.784 3.03686 -1.71976 0
M  V30 4157 C 369.132 3.77542 -1.94286 0
M  V30 4158 O 370.156 3.13569 -1.68976 0
M  V30 4159 O 369.015 4.92506 -2.36855 0
M  V30 4160 H 366.109 0.760011 -0.326056 0
M  V30 4161 H 368.655 1.10813 -1.28525 0
M  V30 4162 H 367.427 2.79754 -2.73594 0
M  V30 4163 H 367.05 3.75332 -1.31194 0
M  V30 4164 N 368.047 0.979072 1.23499 0
M  V30 4165 C 368.957 0.526431 2.28617 0
M  V30 4166 C 369.973 -0.418126 1.68901 0
M  V30 4167 O 371.149 -0.288372 1.99325 0
M  V30 4168 C 368.214 -0.165235 3.46306 0
M  V30 4169 C 367.275 0.82056 4.21385 0
M  V30 4170 C 366.508 0.161807 5.33455 0
M  V30 4171 O 366.731 -1.04742 5.60701 0
M  V30 4172 O 365.665 0.859708 5.95729 0
M  V30 4173 H 369.491 1.4006 2.69475 0
M  V30 4174 H 367.076 0.746643 1.29405 0
M  V30 4175 H 368.958 -0.553287 4.17752 0
M  V30 4176 H 367.633 -1.01419 3.07402 0
M  V30 4177 H 366.54 1.25929 3.52268 0
M  V30 4178 H 367.873 1.63828 4.64135 0
M  V30 4179 N 369.525 -1.3858 0.750561 0
M  V30 4180 C 370.771 -2.00481 0.305825 0
M  V30 4181 C 371.104 -1.5944 -1.10872 0
M  V30 4182 O 370.379 -0.83052 -1.75877 0
M  V30 4183 C 370.662 -3.5758 0.425287 0
M  V30 4184 C 370.515 -4.08594 1.88072 0
M  V30 4185 C 371.834 -4.39719 -0.183122 0
M  V30 4186 H 368.953 -0.728348 0.112598 0
M  V30 4187 H 371.595 -1.64566 0.949638 0
M  V30 4188 H 369.745 -3.88306 -0.122828 0
M  V30 4189 H 371.417 -3.88523 2.48691 0
M  V30 4190 H 369.66 -3.61574 2.39681 0
M  V30 4191 H 370.331 -5.177 1.91548 0
M  V30 4192 H 372.807 -4.15128 0.284303 0
M  V30 4193 H 371.683 -5.48856 -0.0692757 0
M  V30 4194 H 371.944 -4.23434 -1.27106 0
M  V30 4195 N 371.003 -0.499398 -1.49478 0
M  V30 4196 C 371.951 0.293604 -2.3074 0
M  V30 4197 C 372.945 0.96427 -1.39277 0
M  V30 4198 O 374.151 0.892141 -1.56336 0
M  V30 4199 H 370.526 0.113541 -0.743379 0
M  V30 4200 H 372.497 -0.411772 -2.95545 0
M  V30 4201 C 371.246 1.3462 -3.20582 0
M  V30 4202 H 370.569 0.83954 -3.90886 0
M  V30 4203 H 372.009 1.87308 -3.80384 0
M  V30 4204 C 370.468 2.36351 -2.40083 0
M  V30 4205 O 370.998 3.422 -2.10385 0
M  V30 4206 N 369.204 2.0878 -2.02137 0
M  V30 4207 H 368.751 1.22723 -2.26488 0
M  V30 4208 H 368.709 2.77075 -1.48583 0
M  V30 4209 N 372.481 1.55866 -0.233164 0
M  V30 4210 C 373.428 2.20796 0.67215 0
M  V30 4211 C 374.398 1.16731 1.18166 0
M  V30 4212 O 375.583 1.45129 1.23864 0
M  V30 4213 C 372.723 2.90072 1.86955 0
M  V30 4214 C 371.836 4.08759 1.39786 0
M  V30 4215 C 370.971 4.65787 2.55374 0
M  V30 4216 C 370.01 5.76752 2.04998 0
M  V30 4217 N 369.147 6.28021 3.13901 0
M  V30 4218 H 373.987 2.9779 0.111749 0
M  V30 4219 H 371.524 1.47036 0.0434007 0
M  V30 4220 H 373.482 3.28428 2.57276 0
M  V30 4221 H 372.112 2.15575 2.40265 0
M  V30 4222 H 371.164 3.7581 0.589173 0
M  V30 4223 H 372.476 4.88906 0.98856 0
M  V30 4224 H 371.63 5.06646 3.33758 0
M  V30 4225 H 370.369 3.84828 2.99598 0
M  V30 4226 H 369.374 5.35383 1.25079 0
M  V30 4227 H 370.599 6.59553 1.61759 0
M  V30 4228 H 368.545 5.49971 3.57586 0
M  V30 4229 H 368.462 7.03323 2.7726 0
M  V30 4230 H 369.73 6.73538 3.92386 0
M  V30 4231 N 373.959 -0.0401083 1.57549 0
M  V30 4232 C 375.189 -0.744115 1.92734 0
M  V30 4233 C 375.597 -1.70005 0.830348 0
M  V30 4234 O 374.94 -1.82576 -0.20286 0
M  V30 4235 C 375.002 -1.56516 3.2364 0
M  V30 4236 C 374.666 -0.7752 4.50377 0
M  V30 4237 C 375.663 -0.0803326 5.19838 0
M  V30 4238 C 373.348 -0.733002 4.96923 0
M  V30 4239 C 375.342 0.646154 6.34116 0
M  V30 4240 C 373.029 -0.00276321 6.111 0
M  V30 4241 C 374.027 0.685585 6.7955 0
M  V30 4242 O 373.715 1.40399 7.91545 0
M  V30 4243 H 373.447 -0.214861 0.640945 0
M  V30 4244 H 376.001 -0.00503675 2.05399 0
M  V30 4245 H 374.231 -2.3478 3.07271 0
M  V30 4246 H 375.92 -2.15076 3.44234 0
M  V30 4247 H 376.686 -0.104035 4.84888 0
M  V30 4248 H 372.565 -1.25827 4.43496 0
M  V30 4249 H 376.109 1.18398 6.87479 0
M  V30 4250 H 372.006 0.0229012 6.45496 0
M  V30 4251 H 372.774 1.31653 8.07843 0
M  V30 4252 N 375.437 -1.54477 -0.31217 0
M  V30 4253 C 376.384 -1.84655 -1.38461 0
M  V30 4254 C 377.354 -0.694536 -1.50882 0
M  V30 4255 O 378.539 -0.942081 -1.6592 0
M  V30 4256 C 375.679 -2.0896 -2.74645 0
M  V30 4257 C 374.792 -3.36618 -2.70763 0
M  V30 4258 C 373.927 -3.50824 -3.98868 0
M  V30 4259 C 372.966 -4.72315 -3.89339 0
M  V30 4260 N 372.103 -4.83387 -5.09197 0
M  V30 4261 H 376.943 -2.76142 -1.12026 0
M  V30 4262 H 374.48 -1.36748 -0.542065 0
M  V30 4263 H 376.438 -2.21045 -3.53829 0
M  V30 4264 H 375.068 -1.20752 -2.99364 0
M  V30 4265 H 374.12 -3.33211 -1.83506 0
M  V30 4266 H 375.432 -4.25917 -2.59608 0
M  V30 4267 H 374.586 -3.62513 -4.86486 0
M  V30 4268 H 373.325 -2.59638 -4.12843 0
M  V30 4269 H 372.33 -4.6067 -3.00105 0
M  V30 4270 H 373.555 -5.64897 -3.76919 0
M  V30 4271 H 371.501 -3.9512 -5.23657 0
M  V30 4272 H 371.418 -5.66669 -5.00422 0
M  V30 4273 H 372.686 -4.9942 -5.98498 0
M  V30 4274 N 376.915 0.57481 -1.46744 0
M  V30 4275 C 378.163 1.33009 -1.52161 0
M  V30 4276 C 378.484 1.94185 -0.178092 0
M  V30 4277 O 377.754 1.7899 0.796196 0
M  V30 4278 H 376.334 0.493873 -0.560445 0
M  V30 4279 H 378.996 0.672589 -1.82927 0
M  V30 4280 H 378.092 2.13273 -2.27862 0
M  V30 4281 N 378.394 1.34581 0.820102 0
M  V30 4282 C 379.641 1.27096 1.57648 0
M  V30 4283 C 379.969 -0.158317 1.93855 0
M  V30 4284 O 379.224 -1.12028 1.60463 0
M  V30 4285 C 379.523 2.10997 2.8847 0
M  V30 4286 C 379.189 3.59966 2.71543 0
M  V30 4287 C 377.851 4.00575 2.66634 0
M  V30 4288 C 380.203 4.54548 2.55021 0
M  V30 4289 C 377.531 5.33953 2.43128 0
M  V30 4290 C 379.883 5.88109 2.33047 0
M  V30 4291 C 378.547 6.27878 2.26552 0
M  V30 4292 H 377.817 0.465078 0.576874 0
M  V30 4293 H 380.464 1.6635 0.948671 0
M  V30 4294 H 378.769 1.6458 3.55557 0
M  V30 4295 H 380.466 2.0255 3.46084 0
M  V30 4296 H 377.056 3.27733 2.76205 0
M  V30 4297 H 381.24 4.24069 2.57835 0
M  V30 4298 H 376.496 5.63781 2.3656 0
M  V30 4299 H 380.67 6.60985 2.19251 0
M  V30 4300 H 378.297 7.31162 2.081 0
M  V30 4301 N 379.872 -1.04064 1.18357 0
M  V30 4302 C 381.119 -1.77265 0.978947 0
M  V30 4303 C 381.447 -1.88189 -0.491428 0
M  V30 4304 O 380.702 -1.38653 -1.38108 0
M  V30 4305 C 381.001 -3.20634 1.57888 0
M  V30 4306 C 380.667 -3.29743 3.07539 0
M  V30 4307 C 379.329 -3.31937 3.48384 0
M  V30 4308 C 381.681 -3.29841 4.03552 0
M  V30 4309 C 379.009 -3.3187 4.83818 0
M  V30 4310 C 381.361 -3.31313 5.38901 0
M  V30 4311 C 380.025 -3.31799 5.79194 0
M  V30 4312 H 379.295 -0.648659 0.358222 0
M  V30 4313 H 381.942 -1.22225 1.47422 0
M  V30 4314 H 380.247 -3.78675 1.00561 0
M  V30 4315 H 381.944 -3.75917 1.39598 0
M  V30 4316 H 378.534 -3.28757 2.74986 0
M  V30 4317 H 382.718 -3.27337 3.73047 0
M  V30 4318 H 377.974 -3.30562 5.14333 0
M  V30 4319 H 382.148 -3.30338 6.13066 0
M  V30 4320 H 379.775 -3.315 6.84114 0
M  V30 4321 N 381.35 -0.985608 -1.22978 0
M  V30 4322 C 382.599 -0.652881 -1.90841 0
M  V30 4323 C 382.912 0.817842 -1.77681 0
M  V30 4324 O 384.118 1.26185 -2.40395 0
M  V30 4325 C 382.574 -1.11717 -3.42122 0
M  V30 4326 C 382.182 -2.6126 -3.63933 0
M  V30 4327 C 383.926 -0.85843 -4.1573 0
M  V30 4328 C 381.833 -3.0133 -5.08876 0
M  V30 4329 H 380.763 -0.240491 -0.714619 0
M  V30 4330 H 383.414 -1.1942 -1.39324 0
M  V30 4331 H 381.796 -0.504027 -3.92779 0
M  V30 4332 H 382.97 -3.27858 -3.23799 0
M  V30 4333 H 381.285 -2.84937 -3.03644 0
M  V30 4334 H 383.882 -1.13359 -5.22546 0
M  V30 4335 H 384.225 0.205461 -4.15793 0
M  V30 4336 H 384.758 -1.43341 -3.71077 0
M  V30 4337 H 381.497 -4.06864 -5.13947 0
M  V30 4338 H 381.017 -2.3943 -5.49939 0
M  V30 4339 H 382.696 -2.92224 -5.77247 0
M  V30 4340 N 382.828 1.3818 -0.7579 0
M  V30 4341 C 384.076 1.99624 -0.315361 0
M  V30 4342 C 384.397 1.60464 1.10799 0
M  V30 4343 O 383.667 0.863507 1.75842 0
M  V30 4344 H 382.247 0.73831 -0.113611 0
M  V30 4345 H 384.909 1.68878 -0.972952 0
M  V30 4346 H 384.005 3.09754 -0.381931 0
M  V30 4347 N 384.306 0.507319 1.49211 0
M  V30 4348 C 385.536 -0.0315292 2.06576 0
M  V30 4349 C 385.944 -1.30791 1.36713 0
M  V30 4350 O 385.287 -1.78324 0.441181 0
M  V30 4351 C 385.349 -0.349104 3.57801 0
M  V30 4352 C 385.013 0.830475 4.49391 0
M  V30 4353 C 386.01 1.72271 4.90529 0
M  V30 4354 C 383.695 1.03107 4.91604 0
M  V30 4355 C 385.689 2.79964 5.72625 0
M  V30 4356 C 383.376 2.11116 5.73475 0
M  V30 4357 C 384.374 2.99379 6.1389 0
M  V30 4358 O 384.062 4.05523 6.94123 0
M  V30 4359 H 383.794 0.0201002 0.675701 0
M  V30 4360 H 386.348 0.705737 1.92895 0
M  V30 4361 H 384.578 -1.14005 3.69513 0
M  V30 4362 H 386.267 -0.827319 3.97379 0
M  V30 4363 H 387.033 1.57958 4.58557 0
M  V30 4364 H 382.912 0.353417 4.59643 0
M  V30 4365 H 386.456 3.48884 6.04091 0
M  V30 4366 H 382.353 2.25421 6.0486 0
M  V30 4367 H 383.121 4.02953 7.1244 0
M  V30 4368 N 385.784 -1.5574 0.241426 0
M  V30 4369 C 387.032 -1.98417 -0.384075 0
M  V30 4370 C 387.353 -1.13078 -1.58866 0
M  V30 4371 O 386.623 -0.212312 -1.94746 0
M  V30 4372 H 385.203 -0.732813 -0.144894 0
M  V30 4373 H 387.865 -1.9193 0.338943 0
M  V30 4374 H 386.961 -3.04219 -0.696939 0
M  V30 4375 N 387.262 0.0317525 -1.57568 0
M  V30 4376 C 388.509 0.723104 -1.89149 0
M  V30 4377 C 388.837 1.75504 -0.838377 0
M  V30 4378 O 388.092 1.95037 0.160982 0
M  V30 4379 C 388.391 1.43167 -3.27472 0
M  V30 4380 C 388.057 0.535972 -4.47703 0
M  V30 4381 C 386.719 0.289262 -4.8033 0
M  V30 4382 C 389.071 -0.0826125 -5.21135 0
M  V30 4383 C 386.399 -0.584853 -5.83778 0
M  V30 4384 C 388.751 -0.944414 -6.25511 0
M  V30 4385 C 387.415 -1.20061 -6.56614 0
M  V30 4386 H 386.685 0.264602 -0.692146 0
M  V30 4387 H 389.332 -0.0169496 -1.91492 0
M  V30 4388 H 387.637 2.24497 -3.21105 0
M  V30 4389 H 389.334 1.97209 -3.49155 0
M  V30 4390 H 385.924 0.738414 -4.22191 0
M  V30 4391 H 390.108 0.0950302 -4.96209 0
M  V30 4392 H 385.364 -0.79168 -6.06253 0
M  V30 4393 H 389.538 -1.43026 -6.81554 0
M  V30 4394 H 387.165 -1.87967 -7.36595 0
M  V30 4395 N 388.74 1.54641 0.303973 0
M  V30 4396 C 389.688 1.86137 1.39484 0
M  V30 4397 C 390.682 0.734854 1.52631 0
M  V30 4398 O 391.888 0.918803 1.54784 0
M  V30 4399 H 388.263 0.590324 0.465856 0
M  V30 4400 H 390.234 2.77324 1.10154 0
M  V30 4401 C 388.983 2.12274 2.75382 0
M  V30 4402 H 388.306 2.98429 2.66046 0
M  V30 4403 H 389.746 2.38254 3.5073 0
M  V30 4404 C 388.205 0.920365 3.24085 0
M  V30 4405 O 388.735 0.139377 4.01458 0
M  V30 4406 N 386.941 0.726566 2.81371 0
M  V30 4407 H 386.488 1.36332 2.18567 0
M  V30 4408 H 386.446 -0.0763799 3.14307 0
M  V30 4409 N 390.218 -0.567019 1.47046 0
M  V30 4410 C 391.495 -1.3276 1.43646 0
M  V30 4411 C 391.875 -2.1071 0.128186 0
M  V30 4412 O 391.223 -2.10441 -0.890326 0
M  V30 4413 C 391.433 -2.2404 2.67595 0
M  V30 4414 C 392.781 -2.85372 3.14401 0
M  V30 4415 O 393.805 -2.34346 2.68254 0
M  V30 4416 O 392.664 -3.78091 3.946 0
M  V30 4417 H 389.758 -0.597293 0.571988 0
M  V30 4418 H 392.304 -0.586735 1.59234 0
M  V30 4419 H 391.076 -1.65975 3.54356 0
M  V30 4420 H 390.699 -3.05439 2.54544 0
M  V30 4421 N 391.696 -1.35014 -0.812953 0
M  V30 4422 C 392.973 -1.18502 -1.55617 0
M  V30 4423 C 393.353 0.238421 -2.09749 0
M  V30 4424 O 392.701 1.2411 -1.91857 0
M  V30 4425 C 392.911 -2.24783 -2.66971 0
M  V30 4426 C 394.259 -2.60268 -3.35478 0
M  V30 4427 O 395.283 -2.23648 -2.77236 0
M  V30 4428 O 394.142 -3.2321 -4.40678 0
M  V30 4429 H 391.236 -0.459984 -0.687272 0
M  V30 4430 H 393.782 -1.46677 -0.853464 0
M  V30 4431 H 392.554 -3.20284 -2.24798 0
M  V30 4432 H 392.177 -1.97841 -3.44884 0
M  V30 4433 N 393.175 1.03435 -1.18907 0
M  V30 4434 C 394.424 1.76143 -0.982669 0
M  V30 4435 C 394.737 1.89416 0.487953 0
M  V30 4436 O 395.943 2.59041 0.813036 0
M  V30 4437 C 394.399 3.16722 -1.70924 0
M  V30 4438 C 394.007 3.11522 -3.21959 0
M  V30 4439 C 395.751 3.93764 -1.58588 0
M  V30 4440 C 393.658 4.46999 -3.87228 0
M  V30 4441 H 392.588 0.660292 -0.364047 0
M  V30 4442 H 395.239 1.158 -1.42347 0
M  V30 4443 H 393.621 3.775 -1.19623 0
M  V30 4444 H 394.795 2.60158 -3.80335 0
M  V30 4445 H 393.11 2.47978 -3.34508 0
M  V30 4446 H 395.707 4.93963 -2.04707 0
M  V30 4447 H 396.05 4.12794 -0.539142 0
M  V30 4448 H 396.583 3.39576 -2.07203 0
M  V30 4449 H 393.322 4.33174 -4.91976 0
M  V30 4450 H 392.842 4.98441 -3.33642 0
M  V30 4451 H 394.521 5.15898 -3.90459 0
M  V30 4452 N 394.653 0.992116 1.22453 0
M  V30 4453 C 396.064 0.702776 1.72968 0
M  V30 4454 C 396.415 -0.780399 1.80012 0
M  V30 4455 O 395.54 -1.61007 1.44589 0
M  V30 4456 C 396.135 1.26903 3.14135 0
M  V30 4457 C 394.694 1.02909 3.62059 0
M  V30 4458 C 393.841 1.38969 2.39964 0
M  V30 4459 H 396.792 1.16457 1.07812 0
M  V30 4460 H 396.813 0.647223 3.74955 0
M  V30 4461 H 396.325 2.34851 3.08977 0
M  V30 4462 H 394.426 -0.0337979 3.72585 0
M  V30 4463 H 394.539 1.69191 4.48231 0
M  V30 4464 H 392.903 0.808279 2.41535 0
M  V30 4465 H 393.686 2.4792 2.37467 0
M  V30 4466 N 396.131 -1.37776 0.765217 0
M  V30 4467 C 397.356 -2.04651 0.336537 0
M  V30 4468 C 397.781 -1.57337 -1.03086 0
M  V30 4469 O 397.139 -0.730621 -1.65927 0
M  V30 4470 C 397.187 -3.58577 0.381468 0
M  V30 4471 O 396.291 -4.07706 -0.62042 0
M  V30 4472 H 395.632 -0.64756 0.146838 0
M  V30 4473 H 398.162 -1.76221 1.03959 0
M  V30 4474 H 398.172 -4.07314 0.236448 0
M  V30 4475 H 396.847 -3.9237 1.37907 0
M  V30 4476 H 395.424 -3.70306 -0.439056 0
M  V30 4477 N 397.609 -0.515225 -1.4894 0
M  V30 4478 C 398.855 0.0242508 -2.02785 0
M  V30 4479 C 399.188 1.35323 -1.39289 0
M  V30 4480 O 398.463 1.87041 -0.533469 0
M  V30 4481 C 398.746 0.16184 -3.59736 0
M  V30 4482 C 398.599 -1.19127 -4.33738 0
M  V30 4483 C 399.918 0.895719 -4.30888 0
M  V30 4484 H 397.037 0.00733914 -0.736963 0
M  V30 4485 H 399.679 -0.669395 -1.77818 0
M  V30 4486 H 397.829 0.752624 -3.8114 0
M  V30 4487 H 399.501 -1.82202 -4.23792 0
M  V30 4488 H 397.744 -1.77695 -3.95736 0
M  V30 4489 H 398.415 -1.04815 -5.41957 0
M  V30 4490 H 400.891 0.394528 -4.14225 0
M  V30 4491 H 399.767 0.960859 -5.40425 0
M  V30 4492 H 400.028 1.9427 -3.97129 0
M  V30 4493 N 399.087 1.5561 -0.249682 0
M  V30 4494 C 400.336 1.98187 0.37479 0
M  V30 4495 C 400.649 1.14111 1.58865 0
M  V30 4496 O 401.855 1.46714 2.28445 0
M  V30 4497 C 400.311 3.52661 0.718192 0
M  V30 4498 C 399.919 4.45481 -0.474428 0
M  V30 4499 C 401.663 4.03888 1.3067 0
M  V30 4500 C 399.57 5.91303 -0.107026 0
M  V30 4501 H 398.5 0.740159 0.143808 0
M  V30 4502 H 401.151 1.80125 -0.350336 0
M  V30 4503 H 399.533 3.66429 1.50152 0
M  V30 4504 H 400.707 4.43473 -1.25172 0
M  V30 4505 H 399.022 4.04751 -0.978052 0
M  V30 4506 H 401.619 5.10358 1.59496 0
M  V30 4507 H 401.962 3.51401 2.23211 0
M  V30 4508 H 402.495 3.93457 0.586211 0
M  V30 4509 H 399.234 6.47833 -0.999642 0
M  V30 4510 H 398.754 5.9644 0.634013 0
M  V30 4511 H 400.433 6.46258 0.309807 0
M  V30 4512 N 400.565 -0.0233959 1.57583 0
M  V30 4513 C 401.515 -1.03023 2.03397 0
M  V30 4514 C 402.499 -1.31701 0.924315 0
M  V30 4515 O 403.691 -1.31191 1.18819 0
M  V30 4516 C 400.82 -2.32961 2.52159 0
M  V30 4517 C 399.906 -2.07349 3.69956 0
M  V30 4518 N 400.297 -1.51814 4.82479 0
M  V30 4519 C 398.595 -2.37606 3.77438 0
M  V30 4520 C 399.296 -1.42136 5.64068 0
M  V30 4521 N 398.272 -1.89891 5.09355 0
M  V30 4522 H 402.074 -0.594962 2.87815 0
M  V30 4523 H 399.588 -0.229586 1.60769 0
M  V30 4524 H 401.585 -3.05906 2.83244 0
M  V30 4525 H 400.245 -2.77162 1.69149 0
M  V30 4526 H 401.256 -1.20008 5.03804 0
M  V30 4527 H 397.933 -2.84842 3.05239 0
M  V30 4528 H 399.323 -0.996405 6.64471 0
M  V30 4529 N 402.043 -1.548 -0.295768 0
M  V30 4530 C 402.993 -1.82497 -1.3667 0
M  V30 4531 C 403.977 -0.682434 -1.45711 0
M  V30 4532 O 405.169 -0.943207 -1.49775 0
M  V30 4533 C 402.298 -2.08036 -2.73086 0
M  V30 4534 C 401.384 -3.28488 -2.68247 0
M  V30 4535 N 401.775 -4.48924 -2.33025 0
M  V30 4536 C 400.073 -3.3062 -2.99343 0
M  V30 4537 C 400.774 -5.30956 -2.37613 0
M  V30 4538 N 399.75 -4.68805 -2.75178 0
M  V30 4539 H 403.552 -2.73175 -1.0841 0
M  V30 4540 H 401.066 -1.5437 -0.504361 0
M  V30 4541 H 403.063 -2.26027 -3.5031 0
M  V30 4542 H 401.723 -1.18629 -3.02254 0
M  V30 4543 H 402.734 -4.75432 -2.05389 0
M  V30 4544 H 399.411 -2.51336 -3.33371 0
M  V30 4545 H 400.801 -6.37199 -2.13135 0
M  V30 4546 N 403.521 0.559213 -1.47345 0
M  V30 4547 C 404.751 1.33999 -1.57251 0
M  V30 4548 C 405.159 1.87905 -0.220978 0
M  V30 4549 O 404.502 1.65577 0.795617 0
M  V30 4550 C 404.564 2.54798 -2.53611 0
M  V30 4551 C 404.228 2.22192 -3.99349 0
M  V30 4552 C 405.225 1.79607 -4.87891 0
M  V30 4553 C 402.91 2.33613 -4.44669 0
M  V30 4554 C 404.904 1.48868 -6.19772 0
M  V30 4555 C 402.591 2.02487 -5.76578 0
M  V30 4556 C 403.589 1.60183 -6.63951 0
M  V30 4557 O 403.277 1.29451 -7.93409 0
M  V30 4558 H 403.009 0.414858 -0.533731 0
M  V30 4559 H 405.563 0.684465 -1.9366 0
M  V30 4560 H 403.793 3.23235 -2.12265 0
M  V30 4561 H 405.482 3.16873 -2.53666 0
M  V30 4562 H 406.248 1.70278 -4.54126 0
M  V30 4563 H 402.127 2.65501 -3.76869 0
M  V30 4564 H 405.671 1.15775 -6.87926 0
M  V30 4565 H 401.568 2.11448 -6.09885 0
M  V30 4566 H 402.336 1.43098 -8.05894 0
M  V30 4567 N 404.999 1.35443 0.805782 0
M  V30 4568 C 405.947 1.28465 1.93906 0
M  V30 4569 C 406.941 0.17943 1.68447 0
M  V30 4570 O 408.147 0.345459 1.76654 0
M  V30 4571 H 404.522 0.399528 0.637088 0
M  V30 4572 H 406.493 2.24206 1.96912 0
M  V30 4573 C 405.242 1.07432 3.30687 0
M  V30 4574 H 404.565 1.91716 3.50835 0
M  V30 4575 H 406.005 1.06591 4.10383 0
M  V30 4576 C 404.464 -0.22179 3.36169 0
M  V30 4577 O 404.994 -1.21731 3.82811 0
M  V30 4578 N 403.2 -0.260841 2.89427 0
M  V30 4579 H 402.747 0.549884 2.51663 0
M  V30 4580 H 402.705 -1.12777 2.93477 0
M  V30 4581 N 406.477 -1.02803 1.19454 0
M  V30 4582 C 407.724 -1.76217 0.997693 0
M  V30 4583 C 408.052 -1.887 -0.47144 0
M  V30 4584 O 407.307 -1.4011 -1.3663 0
M  V30 4585 C 407.606 -3.18941 1.6128 0
M  V30 4586 C 407.272 -3.26463 3.11019 0
M  V30 4587 C 405.934 -3.28223 3.51885 0
M  V30 4588 C 408.286 -3.25542 4.07028 0
M  V30 4589 C 405.614 -3.26719 4.8731 0
M  V30 4590 C 407.966 -3.25579 5.42385 0
M  V30 4591 C 406.63 -3.25637 5.82681 0
M  V30 4592 H 405.9 -0.644823 0.365082 0
M  V30 4593 H 408.547 -1.20655 1.4871 0
M  V30 4594 H 406.852 -3.77587 1.04572 0
M  V30 4595 H 408.549 -3.74415 1.43577 0
M  V30 4596 H 405.139 -3.25822 2.78457 0
M  V30 4597 H 409.323 -3.23362 3.76498 0
M  V30 4598 H 404.579 -3.25089 5.1781 0
M  V30 4599 H 408.753 -3.23817 6.16535 0
M  V30 4600 H 406.38 -3.24226 6.87591 0
M  V30 4601 N 407.956 -0.998596 -1.21925 0
M  V30 4602 C 409.233 -0.593401 -1.86382 0
M  V30 4603 C 409.613 0.92916 -1.89552 0
M  V30 4604 O 408.961 1.81347 -1.39017 0
M  V30 4605 C 409.171 -1.22039 -3.26967 0
M  V30 4606 C 410.519 -1.32449 -4.03413 0
M  V30 4607 O 411.543 -1.17522 -3.36254 0
M  V30 4608 O 410.402 -1.56395 -5.23644 0
M  V30 4609 H 407.496 -0.202385 -0.801854 0
M  V30 4610 H 410.042 -1.09484 -1.29659 0
M  V30 4611 H 408.814 -2.26158 -3.19325 0
M  V30 4612 H 408.437 -0.704906 -3.91301 0
M  V30 4613 N 409.434 1.37368 -0.772513 0
M  V30 4614 C 410.381 2.30262 -0.157488 0
M  V30 4615 C 411.351 1.51137 0.688965 0
M  V30 4616 O 412.536 1.79704 0.641168 0
M  V30 4617 C 409.676 3.37611 0.715045 0
M  V30 4618 C 408.789 4.31746 -0.148098 0
M  V30 4619 C 407.924 5.26171 0.729213 0
M  V30 4620 C 406.963 6.11948 -0.136418 0
M  V30 4621 N 406.1 6.98613 0.698914 0
M  V30 4622 H 410.94 2.82277 -0.955179 0
M  V30 4623 H 408.477 1.38957 -0.482631 0
M  V30 4624 H 410.435 3.98479 1.23575 0
M  V30 4625 H 409.065 2.86959 1.47833 0
M  V30 4626 H 408.117 3.72178 -0.786613 0
M  V30 4627 H 409.429 4.92084 -0.81579 0
M  V30 4628 H 408.583 5.92247 1.31637 0
M  V30 4629 H 407.322 4.66246 1.43059 0
M  V30 4630 H 406.327 5.4485 -0.736102 0
M  V30 4631 H 407.552 6.73945 -0.835134 0
M  V30 4632 H 405.498 6.41215 1.38489 0
M  V30 4633 H 405.415 7.55948 0.0885358 0
M  V30 4634 H 406.683 7.69077 1.27044 0
M  V30 4635 N 410.912 0.523116 1.48665 0
M  V30 4636 C 411.86 -0.256859 2.31177 0
M  V30 4637 C 412.854 -0.94199 1.40794 0
M  V30 4638 O 414.06 -0.867157 1.57735 0
M  V30 4639 H 410.435 -0.1017 0.745091 0
M  V30 4640 H 412.406 0.458739 2.94853 0
M  V30 4641 C 411.155 -1.29503 3.22683 0
M  V30 4642 H 410.478 -0.777248 3.92172 0
M  V30 4643 H 411.918 -1.81233 3.83315 0
M  V30 4644 C 410.377 -2.32501 2.43813 0
M  V30 4645 O 410.907 -3.3881 2.15803 0
M  V30 4646 N 409.113 -2.05538 2.05432 0
M  V30 4647 H 408.66 -1.19104 2.28412 0
M  V30 4648 H 408.618 -2.74676 1.52973 0
M  V30 4649 N 412.39 -1.55475 0.257931 0
M  V30 4650 C 413.637 -1.99207 -0.363728 0
M  V30 4651 C 413.965 -1.1462 -1.57139 0
M  V30 4652 O 413.22 -0.199653 -1.94679 0
M  V30 4653 C 413.519 -3.48183 -0.806433 0
M  V30 4654 C 413.185 -4.49936 0.294684 0
M  V30 4655 C 411.847 -4.77481 0.597076 0
M  V30 4656 C 414.199 -5.10769 1.03751 0
M  V30 4657 C 411.527 -5.63132 1.64618 0
M  V30 4658 C 413.879 -5.97558 2.07622 0
M  V30 4659 C 412.543 -6.23432 2.38514 0
M  V30 4660 H 411.813 -0.728949 -0.133097 0
M  V30 4661 H 414.46 -1.8793 0.368059 0
M  V30 4662 H 412.765 -3.56848 -1.61761 0
M  V30 4663 H 414.462 -3.79415 -1.29789 0
M  V30 4664 H 411.052 -4.28572 0.0488649 0
M  V30 4665 H 415.236 -4.89527 0.817149 0
M  V30 4666 H 410.492 -5.8143 1.89074 0
M  V30 4667 H 414.666 -6.43735 2.65666 0
M  V30 4668 H 412.293 -6.89594 3.19943 0
M  V30 4669 N 413.868 0.0150385 -1.57593 0
M  V30 4670 C 414.798 1.01047 -2.10503 0
M  V30 4671 C 415.779 1.36816 -1.01071 0
M  V30 4672 O 416.964 1.45455 -1.28672 0
M  V30 4673 C 414.094 2.30708 -2.59598 0
M  V30 4674 C 413.048 2.09142 -3.73421 0
M  V30 4675 C 412.374 3.44685 -4.08774 0
M  V30 4676 C 413.674 1.46619 -5.01298 0
M  V30 4677 H 415.368 0.569978 -2.93925 0
M  V30 4678 H 412.914 0.272724 -1.41394 0
M  V30 4679 H 414.867 3.00687 -2.95238 0
M  V30 4680 H 413.591 2.76843 -1.73279 0
M  V30 4681 H 412.25 1.41592 -3.38153 0
M  V30 4682 H 411.898 3.88495 -3.195 0
M  V30 4683 H 411.598 3.31077 -4.8545 0
M  V30 4684 H 413.122 4.16004 -4.4696 0
M  V30 4685 H 414.536 2.06535 -5.34805 0
M  V30 4686 H 412.933 1.43544 -5.82679 0
M  V30 4687 H 414.003 0.433611 -4.82957 0
M  V30 4688 N 415.346 1.54954 0.287554 0
M  V30 4689 C 416.593 1.74873 1.02106 0
M  V30 4690 C 416.921 0.541829 1.86801 0
M  V30 4691 O 416.176 -0.475992 1.89823 0
M  V30 4692 C 416.475 2.99833 1.94512 0
M  V30 4693 C 416.141 4.33029 1.25686 0
M  V30 4694 C 414.803 4.69233 1.06649 0
M  V30 4695 C 417.155 5.15542 0.765913 0
M  V30 4696 C 414.483 5.85518 0.372222 0
M  V30 4697 C 416.835 6.32542 0.0853101 0
M  V30 4698 C 415.499 6.67398 -0.1169 0
M  V30 4699 H 414.769 0.639906 0.373632 0
M  V30 4700 H 417.416 1.89219 0.294665 0
M  V30 4701 H 415.721 2.80325 2.73725 0
M  V30 4702 H 417.418 3.1244 2.51361 0
M  V30 4703 H 414.008 4.04564 1.41512 0
M  V30 4704 H 418.192 4.88059 0.90066 0
M  V30 4705 H 413.448 6.11057 0.204695 0
M  V30 4706 H 417.622 6.95741 -0.302936 0
M  V30 4707 H 415.249 7.57357 -0.656859 0
M  V30 4708 N 416.824 -0.551391 1.4764 0
M  V30 4709 C 418.235 -1.13349 1.48354 0
M  V30 4710 C 418.586 -1.94709 0.241432 0
M  V30 4711 O 417.711 -2.06306 -0.653205 0
M  V30 4712 C 418.306 -2.0623 2.68802 0
M  V30 4713 C 416.865 -2.597 2.72457 0
M  V30 4714 C 416.012 -1.36201 2.41546 0
M  V30 4715 H 418.963 -0.337698 1.55065 0
M  V30 4716 H 418.984 -2.90196 2.46103 0
M  V30 4717 H 418.496 -1.46987 3.59188 0
M  V30 4718 H 416.597 -3.22724 1.86225 0
M  V30 4719 H 416.71 -3.00296 3.73308 0
M  V30 4720 H 415.074 -1.67068 1.9225 0
M  V30 4721 H 415.857 -0.787425 3.34147 0
M  V30 4722 N 418.302 -1.35869 -0.798587 0
M  V30 4723 C 419.527 -1.32883 -1.59238 0
M  V30 4724 C 419.952 0.0894587 -1.87887 0
M  V30 4725 O 419.31 1.05869 -1.47178 0
M  V30 4726 C 419.358 -2.14892 -2.89575 0
M  V30 4727 O 418.462 -1.53512 -3.82763 0
M  V30 4728 H 417.803 -0.455236 -0.48338 0
M  V30 4729 H 420.333 -1.79024 -0.990539 0
M  V30 4730 H 420.343 -2.27139 -3.38928 0
M  V30 4731 H 419.018 -3.17998 -2.68049 0
M  V30 4732 H 417.595 -1.50153 -3.41334 0
M  V30 4733 N 419.78 1.02168 -1.19998 0
M  V30 4734 C 420.71 2.12488 -0.96804 0
M  V30 4735 C 421.691 1.69799 0.101185 0
M  V30 4736 O 422.876 1.94121 -0.0552993 0
M  V30 4737 C 420.006 3.43479 -0.513776 0
M  V30 4738 C 418.96 3.99884 -1.52566 0
M  V30 4739 C 418.286 5.26582 -0.928214 0
M  V30 4740 C 419.586 4.33861 -2.90795 0
M  V30 4741 H 421.28 2.32149 -1.89069 0
M  V30 4742 H 418.826 1.11564 -0.910468 0
M  V30 4743 H 420.779 4.20036 -0.338774 0
M  V30 4744 H 419.503 3.23561 0.444493 0
M  V30 4745 H 418.162 3.25429 -1.68794 0
M  V30 4746 H 417.81 5.02986 0.0378289 0
M  V30 4747 H 417.51 5.65284 -1.60397 0
M  V30 4748 H 419.034 6.05799 -0.764167 0
M  V30 4749 H 420.448 5.01327 -2.78109 0
M  V30 4750 H 418.845 4.83664 -3.55231 0
M  V30 4751 H 419.915 3.42848 -3.42904 0
M  V30 4752 N 421.258 1.00505 1.21394 0
M  V30 4753 C 422.206 0.558623 2.25792 0
M  V30 4754 C 423.2 -0.396848 1.64686 0
M  V30 4755 O 424.406 -0.268035 1.77993 0
M  V30 4756 H 420.781 0.1623 0.734277 0
M  V30 4757 H 422.752 1.4503 2.60785 0
M  V30 4758 C 421.501 -0.0989574 3.47559 0
M  V30 4759 H 420.824 0.627225 3.94849 0
M  V30 4760 H 422.264 -0.3746 4.22342 0
M  V30 4761 C 420.723 -1.33817 3.09184 0
M  V30 4762 O 421.253 -2.43252 3.19674 0
M  V30 4763 N 419.459 -1.21793 2.63846 0
M  V30 4764 H 419.006 -0.32746 2.5551 0
M  V30 4765 H 418.964 -2.04809 2.38539 0
M  V30 4766 N 422.737 -1.36956 0.779787 0
M  V30 4767 C 423.962 -2.04283 0.358224 0
M  V30 4768 C 424.387 -1.58422 -1.01411 0
M  V30 4769 O 423.745 -0.748179 -1.65142 0
M  V30 4770 C 423.793 -3.58152 0.419479 0
M  V30 4771 O 422.897 -4.08342 -0.577142 0
M  V30 4772 H 422.238 -0.645967 0.153698 0
M  V30 4773 H 424.768 -1.75108 1.05822 0
M  V30 4774 H 424.778 -4.07041 0.279636 0
M  V30 4775 H 423.453 -3.90886 1.42061 0
M  V30 4776 H 422.03 -3.70751 -0.399755 0
M  V30 4777 N 424.215 -0.530993 -1.48385 0
M  V30 4778 C 425.463 0.00273189 -2.021 0
M  V30 4779 C 425.784 1.34672 -1.41027 0
M  V30 4780 O 425.054 1.8724 -0.576012 0
M  V30 4781 H 423.634 0.00399774 -0.746989 0
M  V30 4782 H 426.296 -0.695054 -1.82085 0
M  V30 4783 H 425.392 0.11031 -3.11905 0
M  V30 4784 N 425.693 1.55336 -0.266172 0
M  V30 4785 C 426.942 1.98574 0.353749 0
M  V30 4786 C 427.255 1.15789 1.57646 0
M  V30 4787 O 428.461 1.49129 2.26876 0
M  V30 4788 C 426.917 3.53403 0.680747 0
M  V30 4789 C 426.525 4.44953 -0.52165 0
M  V30 4790 C 428.269 4.05251 1.26379 0
M  V30 4791 C 426.176 5.91156 -0.169736 0
M  V30 4792 H 425.106 0.741643 0.135949 0
M  V30 4793 H 427.757 1.79743 -0.369421 0
M  V30 4794 H 426.139 3.68001 1.46257 0
M  V30 4795 H 427.313 4.42121 -1.29869 0
M  V30 4796 H 425.628 4.03691 -1.02093 0
M  V30 4797 H 428.225 5.12021 1.54074 0
M  V30 4798 H 428.568 3.53749 2.19471 0
M  V30 4799 H 429.101 3.94057 0.544447 0
M  V30 4800 H 425.84 6.46736 -1.0683 0
M  V30 4801 H 425.36 5.97079 0.570717 0
M  V30 4802 H 427.039 6.4655 0.241245 0
M  V30 4803 N 427.171 -0.0066808 1.57599 0
M  V30 4804 C 428.42 -0.692078 1.89455 0
M  V30 4805 C 428.733 -1.75306 0.867586 0
M  V30 4806 O 429.939 -2.49262 1.07614 0
M  V30 4807 C 428.395 -1.2821 3.36289 0
M  V30 4808 C 428.003 -0.256291 4.47266 0
M  V30 4809 C 429.747 -1.94608 3.77264 0
M  V30 4810 C 427.654 -0.855927 5.85173 0
M  V30 4811 H 426.584 -0.262252 0.706923 0
M  V30 4812 H 429.235 0.052769 1.83424 0
M  V30 4813 H 427.617 -2.0774 3.37135 0
M  V30 4814 H 428.791 0.513923 4.57925 0
M  V30 4815 H 427.106 0.306862 4.15268 0
M  V30 4816 H 429.703 -2.40364 4.77629 0
M  V30 4817 H 430.046 -2.77382 3.10427 0
M  V30 4818 H 430.579 -1.21822 3.78688 0
M  V30 4819 H 427.318 -0.0671161 6.55466 0
M  V30 4820 H 426.838 -1.59546 5.78191 0
M  V30 4821 H 428.517 -1.35658 6.32618 0
M  V30 4822 N 428.649 -1.55105 -0.279332 0
M  V30 4823 C 429.579 -1.90557 -1.34945 0
M  V30 4824 C 430.56 -0.766738 -1.51839 0
M  V30 4825 O 431.745 -1.02434 -1.64988 0
M  V30 4826 C 428.875 -2.17193 -2.71006 0
M  V30 4827 C 427.829 -3.33021 -2.68851 0
M  V30 4828 C 427.155 -3.45123 -4.08405 0
M  V30 4829 C 428.455 -4.69578 -2.28678 0
M  V30 4830 H 430.149 -2.80188 -1.05522 0
M  V30 4831 H 427.695 -1.34811 -0.506173 0
M  V30 4832 H 429.648 -2.40581 -3.45975 0
M  V30 4833 H 428.372 -1.24355 -3.01999 0
M  V30 4834 H 427.031 -3.0959 -1.9634 0
M  V30 4835 H 426.679 -2.49762 -4.3661 0
M  V30 4836 H 426.379 -4.22995 -4.07859 0
M  V30 4837 H 427.903 -3.70796 -4.85121 0
M  V30 4838 H 429.317 -4.92553 -2.93368 0
M  V30 4839 H 427.714 -5.5032 -2.39306 0
M  V30 4840 H 428.784 -4.68828 -1.23807 0
M  V30 4841 N 430.127 0.543554 -1.4793 0
M  V30 4842 C 431.404 1.30458 -1.4574 0
M  V30 4843 C 431.784 2.1048 -0.161692 0
M  V30 4844 O 431.132 2.11831 0.856734 0
M  V30 4845 C 431.342 2.19754 -2.71126 0
M  V30 4846 C 432.69 2.80334 -3.18901 0
M  V30 4847 O 433.714 2.30049 -2.71948 0
M  V30 4848 O 432.573 3.71766 -4.00565 0
M  V30 4849 H 429.667 0.588117 -0.581418 0
M  V30 4850 H 432.213 0.561328 -1.60147 0
M  V30 4851 H 430.985 1.60316 -3.56952 0
M  V30 4852 H 430.608 3.01351 -2.59371 0
M  V30 4853 N 431.605 1.3629 0.791371 0
M  V30 4854 C 432.854 1.29742 1.54434 0
M  V30 4855 C 433.167 -0.121729 1.95221 0
M  V30 4856 O 434.373 -0.309579 2.69729 0
M  V30 4857 C 432.829 2.27623 2.78776 0
M  V30 4858 C 432.437 3.74963 2.45166 0
M  V30 4859 C 434.181 2.30047 3.56761 0
M  V30 4860 C 432.088 4.64626 3.65891 0
M  V30 4861 H 431.018 0.482113 0.579727 0
M  V30 4862 H 433.669 1.61642 0.868565 0
M  V30 4863 H 432.051 1.88714 3.48142 0
M  V30 4864 H 433.225 4.22596 1.83709 0
M  V30 4865 H 431.54 3.75295 1.80396 0
M  V30 4866 H 434.137 2.94247 4.46456 0
M  V30 4867 H 434.48 1.30846 3.95203 0
M  V30 4868 H 435.013 2.67563 2.94372 0
M  V30 4869 H 431.752 5.64883 3.32547 0
M  V30 4870 H 431.272 4.2171 4.26521 0
M  V30 4871 H 432.951 4.80801 4.32943 0
M  V30 4872 N 433.083 -1.0153 1.20538 0
M  V30 4873 C 434.311 -1.78746 1.04199 0
M  V30 4874 C 434.726 -1.84323 -0.408733 0
M  V30 4875 O 434.083 -1.29714 -1.28377 0
M  V30 4876 C 434.134 -3.23152 1.62035 0
M  V30 4877 O 433.855 -3.17918 3.0143 0
M  V30 4878 C 435.356 -4.16911 1.50666 0
M  V30 4879 H 432.576 -0.56208 0.366479 0
M  V30 4880 H 435.12 -1.27794 1.59653 0
M  V30 4881 H 433.275 -3.71248 1.10697 0
M  V30 4882 H 433.689 -4.08567 3.28897 0
M  V30 4883 H 435.163 -5.16072 1.95892 0
M  V30 4884 H 435.64 -4.36791 0.459363 0
M  V30 4885 H 436.246 -3.74698 2.01201 0
M  V30 4886 N 434.561 -1.01147 -1.20859 0
M  V30 4887 C 435.491 -0.597663 -2.25722 0
M  V30 4888 C 436.472 0.384744 -1.65692 0
M  V30 4889 O 437.657 0.271303 -1.92296 0
M  V30 4890 C 434.787 0.0700149 -3.47229 0
M  V30 4891 C 433.741 -0.832843 -4.19819 0
M  V30 4892 C 433.067 -0.0312202 -5.34691 0
M  V30 4893 C 434.367 -2.1385 -4.76514 0
M  V30 4894 H 436.061 -1.47423 -2.60589 0
M  V30 4895 H 433.607 -0.710301 -1.25263 0
M  V30 4896 H 435.56 0.37103 -4.19763 0
M  V30 4897 H 434.284 0.981259 -3.11511 0
M  V30 4898 H 432.943 -1.11778 -3.49144 0
M  V30 4899 H 432.591 0.881515 -4.95215 0
M  V30 4900 H 432.291 -0.632434 -5.84187 0
M  V30 4901 H 433.815 0.26346 -6.10031 0
M  V30 4902 H 435.229 -1.9002 -5.40893 0
M  V30 4903 H 433.626 -2.69012 -5.36426 0
M  V30 4904 H 434.696 -2.80495 -3.95538 0
M  V30 4905 N 436.039 1.36541 -0.78704 0
M  V30 4906 C 436.969 2.32659 -0.197992 0
M  V30 4907 C 437.95 1.56533 0.665697 0
M  V30 4908 O 439.135 1.84698 0.60001 0
M  V30 4909 C 436.265 3.40778 0.669901 0
M  V30 4910 C 435.219 4.27897 -0.0937039 0
M  V30 4911 C 434.545 5.27163 0.894629 0
M  V30 4912 C 435.845 5.06334 -1.28154 0
M  V30 4913 H 437.539 2.82171 -1.00099 0
M  V30 4914 H 435.085 1.35665 -0.482793 0
M  V30 4915 H 437.038 4.07008 1.09191 0
M  V30 4916 H 435.762 2.89827 1.50558 0
M  V30 4917 H 434.421 3.6322 -0.49666 0
M  V30 4918 H 434.069 4.72486 1.72527 0
M  V30 4919 H 433.769 5.86317 0.388149 0
M  V30 4920 H 435.293 5.96266 1.31525 0
M  V30 4921 H 436.707 5.65617 -0.93541 0
M  V30 4922 H 435.104 5.74888 -1.72115 0
M  V30 4923 H 436.174 4.38114 -2.07807 0
M  V30 4924 N 437.518 0.538854 1.48102 0
M  V30 4925 C 438.465 -0.219042 2.29758 0
M  V30 4926 C 439.435 -0.925562 1.37922 0
M  V30 4927 O 440.62 -0.924855 1.66886 0
M  V30 4928 C 437.76 -1.25452 3.2149 0
M  V30 4929 C 436.873 -0.555943 4.28408 0
M  V30 4930 C 436.008 -1.57512 5.0731 0
M  V30 4931 C 435.047 -0.860498 6.06021 0
M  V30 4932 N 434.184 -1.82564 6.77949 0
M  V30 4933 H 439.024 0.483449 2.94052 0
M  V30 4934 H 436.561 0.250247 1.44956 0
M  V30 4935 H 438.519 -1.86727 3.7308 0
M  V30 4936 H 437.149 -1.92528 2.591 0
M  V30 4937 H 436.201 0.170938 3.80016 0
M  V30 4938 H 437.513 0.00474616 4.988 0
M  V30 4939 H 436.667 -2.26191 5.62959 0
M  V30 4940 H 435.406 -2.16972 4.36778 0
M  V30 4941 H 434.411 -0.159686 5.49568 0
M  V30 4942 H 435.636 -0.271897 6.78555 0
M  V30 4943 H 433.582 -2.40915 6.10161 0
M  V30 4944 H 433.499 -1.31662 7.44447 0
M  V30 4945 H 434.767 -2.50414 7.38182 0
M  V30 4946 N 438.996 -1.55193 0.274407 0
M  V30 4947 C 439.944 -2.23924 -0.629362 0
M  V30 4948 C 440.938 -1.23602 -1.1584 0
M  V30 4949 O 442.144 -1.41535 -1.11211 0
M  V30 4950 H 438.519 -0.718637 -0.221507 0
M  V30 4951 H 440.49 -2.98388 -0.0268322 0
M  V30 4952 C 439.239 -2.97329 -1.80252 0
M  V30 4953 H 438.562 -3.74313 -1.40462 0
M  V30 4954 H 440.002 -3.48743 -2.41152 0
M  V30 4955 C 438.461 -2.0276 -2.69054 0
M  V30 4956 O 438.991 -1.57836 -3.69392 0
M  V30 4957 N 437.197 -1.69275 -2.36208 0
M  V30 4958 H 436.744 -2.06004 -1.54661 0
M  V30 4959 H 436.702 -1.06271 -2.95895 0
M  V30 4960 N 440.474 -0.00167713 -1.576 0
M  V30 4961 C 441.723 0.682021 -1.89819 0
M  V30 4962 C 442.036 1.74844 -0.876871 0
M  V30 4963 O 443.242 2.48688 -1.08934 0
M  V30 4964 C 441.698 1.26425 -3.36964 0
M  V30 4965 C 441.306 0.232568 -4.47396 0
M  V30 4966 C 443.05 1.92604 -3.78291 0
M  V30 4967 C 440.957 0.824882 -5.85619 0
M  V30 4968 H 439.887 0.258499 -0.708304 0
M  V30 4969 H 442.538 -0.0624957 -1.83394 0
M  V30 4970 H 440.92 2.05949 -3.38232 0
M  V30 4971 H 442.094 -0.5382 -4.57646 0
M  V30 4972 H 440.409 -0.32888 -4.15099 0
M  V30 4973 H 443.006 2.37827 -4.78897 0
M  V30 4974 H 443.349 2.75732 -3.11894 0
M  V30 4975 H 443.882 1.19812 -3.79328 0
M  V30 4976 H 440.621 0.0323542 -6.55492 0
M  V30 4977 H 440.141 1.56477 -5.79029 0
M  V30 4978 H 441.82 1.32301 -6.33329 0
M  V30 4979 N 441.952 1.55251 0.271103 0
M  V30 4980 C 443.182 1.79713 1.01916 0
M  V30 4981 C 443.59 0.571613 1.80359 0
M  V30 4982 O 442.933 -0.468853 1.77616 0
M  V30 4983 C 442.995 2.97138 2.02359 0
M  V30 4984 C 442.659 4.34104 1.42837 0
M  V30 4985 C 443.656 5.13019 0.843071 0
M  V30 4986 C 441.341 4.80765 1.455 0
M  V30 4987 C 443.335 6.36729 0.292333 0
M  V30 4988 C 441.022 6.0443 0.900402 0
M  V30 4989 C 442.02 6.8225 0.32007 0
M  V30 4990 O 441.708 8.03582 -0.226031 0
M  V30 4991 H 441.44 0.602431 0.306681 0
M  V30 4992 H 443.994 2.03097 0.306701 0
M  V30 4993 H 442.224 2.6945 2.77369 0
M  V30 4994 H 443.913 3.08907 2.63309 0
M  V30 4995 H 444.679 4.781 0.815178 0
M  V30 4996 H 440.558 4.20202 1.89609 0
M  V30 4997 H 444.102 6.97414 -0.161274 0
M  V30 4998 H 439.999 6.3883 0.925541 0
M  V30 4999 H 440.767 8.18418 -0.115572 0
M  V30 5000 N 443.43 -0.535701 1.48216 0
M  V30 5001 C 444.34 -1.66785 1.64985 0
M  V30 5002 C 445.356 -1.65654 0.532414 0
M  V30 5003 O 446.532 -1.8471 0.80275 0
M  V30 5004 C 443.597 -3.0326 1.68031 0
M  V30 5005 C 442.658 -3.1529 2.9136 0
M  V30 5006 C 441.891 -4.45255 2.94252 0
M  V30 5007 O 442.114 -5.32011 2.05719 0
M  V30 5008 O 441.048 -4.6153 3.86359 0
M  V30 5009 H 444.874 -1.55576 2.60825 0
M  V30 5010 H 442.459 -0.70815 1.31551 0
M  V30 5011 H 444.341 -3.84436 1.72589 0
M  V30 5012 H 443.016 -3.14805 0.753628 0
M  V30 5013 H 441.923 -2.3343 2.92337 0
M  V30 5014 H 443.256 -3.08658 3.83394 0
M  V30 5015 N 444.908 -1.36708 -0.784132 0
M  V30 5016 C 446.154 -1.31426 -1.54451 0
M  V30 5017 C 446.487 0.10476 -1.93917 0
M  V30 5018 O 445.762 1.05934 -1.6312 0
M  V30 5019 C 446.045 -2.24189 -2.818 0
M  V30 5020 C 445.898 -3.74813 -2.48667 0
M  V30 5021 C 447.217 -2.15626 -3.83658 0
M  V30 5022 H 444.336 -0.478739 -0.560337 0
M  V30 5023 H 446.978 -1.67305 -0.900498 0
M  V30 5024 H 445.128 -1.93722 -3.36755 0
M  V30 5025 H 446.8 -4.15823 -1.99722 0
M  V30 5026 H 445.043 -3.93989 -1.81535 0
M  V30 5027 H 445.714 -4.35138 -3.39646 0
M  V30 5028 H 448.19 -2.42456 -3.38163 0
M  V30 5029 H 447.066 -2.82694 -4.70506 0
M  V30 5030 H 447.327 -1.14522 -4.27009 0
M  V30 5031 N 446.386 1.0089 -1.21074 0
M  V30 5032 C 447.611 1.78727 -1.05221 0
M  V30 5033 C 448.036 1.83932 0.393795 0
M  V30 5034 O 447.394 1.28004 1.28393 0
M  V30 5035 C 447.442 3.20665 -1.64944 0
M  V30 5036 O 446.546 4.02632 -0.892273 0
M  V30 5037 H 445.887 0.550973 -0.370574 0
M  V30 5038 H 448.417 1.26847 -1.60534 0
M  V30 5039 H 448.427 3.71352 -1.69002 0
M  V30 5040 H 447.102 3.16191 -2.70177 0
M  V30 5041 H 445.679 3.61207 -0.926492 0
M  V30 5042 N 447.864 1.01787 1.20321 0
M  V30 5043 C 448.812 0.58254 2.25187 0
M  V30 5044 C 449.806 -0.379359 1.65098 0
M  V30 5045 O 451.012 -0.249142 1.78267 0
M  V30 5046 H 447.387 0.170078 0.732514 0
M  V30 5047 H 449.358 1.47788 2.59232 0
M  V30 5048 C 448.107 -0.0620885 3.47645 0
M  V30 5049 H 447.43 0.669069 3.94162 0
M  V30 5050 H 448.87 -0.329784 4.22716 0
M  V30 5051 C 447.329 -1.3053 3.10586 0
M  V30 5052 O 447.859 -2.39848 3.22236 0
M  V30 5053 N 446.065 -1.18988 2.65123 0
M  V30 5054 H 445.612 -0.300341 2.55843 0
M  V30 5055 H 445.57 -2.02267 2.40698 0
M  V30 5056 N 449.342 -1.36122 0.79427 0
M  V30 5057 C 450.591 -1.98361 0.365464 0
M  V30 5058 C 450.904 -1.6374 -1.06997 0
M  V30 5059 O 452.11 -2.19251 -1.60129 0
M  V30 5060 C 450.566 -3.54821 0.602496 0
M  V30 5061 C 450.174 -3.98362 2.04967 0
M  V30 5062 C 451.918 -4.2383 0.238437 0
M  V30 5063 C 449.825 -5.47619 2.2331 0
M  V30 5064 H 448.755 -0.742193 0.13291 0
M  V30 5065 H 451.406 -1.55354 0.976589 0
M  V30 5066 H 449.788 -3.95922 -0.078409 0
M  V30 5067 H 450.962 -3.68447 2.76737 0
M  V30 5068 H 449.277 -3.42206 2.37243 0
M  V30 5069 H 451.874 -5.33529 0.353705 0
M  V30 5070 H 452.217 -4.08264 -0.814006 0
M  V30 5071 H 452.75 -3.88108 0.872769 0
M  V30 5072 H 449.489 -5.68138 3.26955 0
M  V30 5073 H 449.009 -5.79145 1.5605 0
M  V30 5074 H 450.688 -6.13911 2.0426 0
M  V30 5075 N 450.82 -0.546701 -1.47814 0
M  V30 5076 C 451.75 0.195317 -2.32682 0
M  V30 5077 C 452.731 0.918981 -1.43139 0
M  V30 5078 O 453.916 0.901501 -1.72008 0
M  V30 5079 C 451.046 1.23237 -3.247 0
M  V30 5080 C 450 0.625818 -4.234 0
M  V30 5081 C 449.326 1.76674 -5.04669 0
M  V30 5082 C 450.626 -0.413515 -5.2066 0
M  V30 5083 H 452.32 -0.513184 -2.94969 0
M  V30 5084 H 449.866 -0.248241 -1.41844 0
M  V30 5085 H 451.819 1.75955 -3.82907 0
M  V30 5086 H 450.543 1.97067 -2.60446 0
M  V30 5087 H 449.202 0.120023 -3.66403 0
M  V30 5088 H 448.85 2.49383 -4.36826 0
M  V30 5089 H 448.55 1.36673 -5.71484 0
M  V30 5090 H 450.074 2.29738 -5.65732 0
M  V30 5091 H 451.488 0.0272042 -5.73294 0
M  V30 5092 H 449.885 -0.731825 -5.95621 0
M  V30 5093 H 450.955 -1.31325 -4.66778 0
M  V30 5094 N 452.299 1.55045 -0.282633 0
M  V30 5095 C 453.229 2.2579 0.595066 0
M  V30 5096 C 454.21 1.25074 1.15284 0
M  V30 5097 O 455.395 1.5381 1.18559 0
M  V30 5098 C 452.525 2.98472 1.77572 0
M  V30 5099 C 451.479 4.0618 1.34914 0
M  V30 5100 C 450.805 4.66477 2.6135 0
M  V30 5101 C 452.105 5.1996 0.493821 0
M  V30 5102 H 453.799 2.994 0.00505653 0
M  V30 5103 H 451.345 1.44 0.000992001 0
M  V30 5104 H 453.298 3.46677 2.39568 0
M  V30 5105 H 452.022 2.2241 2.39168 0
M  V30 5106 H 450.681 3.58797 0.752338 0
M  V30 5107 H 450.329 3.87074 3.2122 0
M  V30 5108 H 450.029 5.39207 2.33516 0
M  V30 5109 H 451.553 5.17435 3.24181 0
M  V30 5110 H 452.967 5.64172 1.01898 0
M  V30 5111 H 451.364 5.99299 0.310047 0
M  V30 5112 H 452.434 4.82462 -0.485593 0
M  V30 5113 N 453.777 0.010035 1.57597 0
M  V30 5114 C 455.002 -0.687021 1.95691 0
M  V30 5115 C 455.427 -1.65952 0.885519 0
M  V30 5116 O 454.785 -1.80633 -0.15543 0
M  V30 5117 C 454.833 -1.3864 3.32884 0
M  V30 5118 O 453.937 -2.50115 3.27897 0
M  V30 5119 H 453.278 -0.181989 0.638573 0
M  V30 5120 H 455.808 0.0662122 2.04493 0
M  V30 5121 H 455.818 -1.74754 3.6868 0
M  V30 5122 H 454.493 -0.673411 4.10412 0
M  V30 5123 H 453.07 -2.16253 3.03791 0
M  V30 5124 N 455.255 -1.55392 -0.262866 0
M  V30 5125 C 456.203 -1.8977 -1.345 0
M  V30 5126 C 457.197 -0.775063 -1.50629 0
M  V30 5127 O 458.403 -0.959519 -1.52293 0
M  V30 5128 H 454.778 -0.602467 -0.450041 0
M  V30 5129 H 456.749 -2.80147 -1.02762 0
M  V30 5130 C 455.498 -2.19501 -2.69657 0
M  V30 5131 H 454.821 -3.05378 -2.5804 0
M  V30 5132 H 456.261 -2.47469 -3.44289 0
M  V30 5133 C 454.72 -1.00597 -3.21531 0
M  V30 5134 O 455.25 -0.245768 -4.00947 0
M  V30 5135 N 453.456 -0.800911 -2.79345 0
M  V30 5136 H 453.003 -1.42079 -2.14875 0
M  V30 5137 H 452.961 -0.00697996 -3.14399 0
M  V30 5138 N 456.733 0.527833 -1.48498 0
M  V30 5139 C 457.681 1.65313 -1.63628 0
M  V30 5140 C 458.675 1.6177 -0.502676 0
M  V30 5141 O 459.881 1.66601 -0.681469 0
M  V30 5142 H 456.256 0.547518 -0.515488 0
M  V30 5143 H 458.227 1.49696 -2.58135 0
M  V30 5144 C 456.976 3.03576 -1.6952 0
M  V30 5145 H 456.299 3.06997 -2.56111 0
M  V30 5146 H 457.739 3.81923 -1.84149 0
M  V30 5147 C 456.198 3.34089 -0.43432 0
M  V30 5148 O 456.728 3.99151 0.451852 0
M  V30 5149 N 454.934 2.88991 -0.305368 0
M  V30 5150 H 454.481 2.36222 -1.02747 0
M  V30 5151 H 454.439 3.09776 0.537249 0
M  V30 5152 N 458.211 1.37122 0.776871 0
M  V30 5153 C 459.121 1.34651 1.9211 0
M  V30 5154 C 460.137 0.246824 1.7224 0
M  V30 5155 O 461.313 0.48134 1.95563 0
M  V30 5156 C 458.378 1.14748 3.2716 0
M  V30 5157 C 457.439 2.34308 3.5972 0
M  V30 5158 C 456.672 2.15345 4.88326 0
M  V30 5159 O 456.895 1.13507 5.58992 0
M  V30 5160 O 455.829 3.03414 5.1983 0
M  V30 5161 H 459.655 2.31013 1.97146 0
M  V30 5162 H 457.24 1.17799 0.918901 0
M  V30 5163 H 459.122 1.05616 4.0795 0
M  V30 5164 H 457.797 0.214562 3.22988 0
M  V30 5165 H 456.704 2.49011 2.79185 0
M  V30 5166 H 458.037 3.26149 3.68629 0
M  V30 5167 N 459.689 -1.00246 1.21608 0
M  V30 5168 C 460.636 -2.09073 0.977613 0
M  V30 5169 C 461.606 -1.65815 -0.097297 0
M  V30 5170 O 462.791 -1.90734 0.0503445 0
M  V30 5171 C 459.931 -3.40671 0.551133 0
M  V30 5172 C 459.044 -3.97326 1.69576 0
M  V30 5173 C 458.179 -5.17043 1.2182 0
M  V30 5174 C 457.218 -5.65813 2.335 0
M  V30 5175 N 456.355 -6.76778 1.86859 0
M  V30 5176 H 461.195 -2.28806 1.90924 0
M  V30 5177 H 458.732 -1.12186 0.951452 0
M  V30 5178 H 460.69 -4.16225 0.285097 0
M  V30 5179 H 459.32 -3.20967 -0.343489 0
M  V30 5180 H 458.372 -3.18734 2.07637 0
M  V30 5181 H 459.684 -4.29511 2.53617 0
M  V30 5182 H 458.838 -5.99852 0.908975 0
M  V30 5183 H 457.577 -4.86458 0.347869 0
M  V30 5184 H 456.582 -4.81599 2.65222 0
M  V30 5185 H 457.807 -5.98427 3.21033 0
M  V30 5186 H 455.753 -6.47994 1.02174 0
M  V30 5187 H 455.67 -7.08231 2.64471 0
M  V30 5188 H 456.938 -7.63116 1.58978 0
M  V30 5189 N 461.167 -1.02423 -1.1978 0
M  V30 5190 C 462.444 -0.632802 -1.85081 0
M  V30 5191 C 462.824 0.888745 -1.9148 0
M  V30 5192 O 462.172 1.78357 -1.42832 0
M  V30 5193 C 462.382 -1.28947 -3.24305 0
M  V30 5194 C 463.73 -1.40976 -4.00513 0
M  V30 5195 O 464.754 -1.24628 -3.33686 0
M  V30 5196 O 463.613 -1.67467 -5.20209 0
M  V30 5197 H 460.707 -0.219348 -0.79738 0
M  V30 5198 H 463.253 -1.12209 -1.27307 0
M  V30 5199 H 462.025 -2.3288 -3.14456 0
M  V30 5200 H 461.648 -0.787748 -3.89718 0
M  V30 5201 N 462.645 1.35699 -0.801477 0
M  V30 5202 C 463.577 2.28598 -0.166028 0
M  V30 5203 C 464.59 1.50044 0.631721 0
M  V30 5204 O 465.779 1.72339 0.464921 0
M  V30 5205 C 462.879 3.29625 0.787451 0
M  V30 5206 C 462.052 4.37384 0.037171 0
M  V30 5207 C 461.111 5.183 0.908375 0
M  V30 5208 O 460.137 5.68053 0.361189 0
M  V30 5209 N 461.339 5.35912 2.23112 0
M  V30 5210 H 464.104 2.83771 -0.964071 0
M  V30 5211 H 461.665 1.47994 -0.656469 0
M  V30 5212 H 463.657 3.80648 1.37439 0
M  V30 5213 H 462.227 2.75004 1.48632 0
M  V30 5214 H 461.447 3.87364 -0.730935 0
M  V30 5215 H 462.735 5.0653 -0.480109 0
M  V30 5216 H 462.133 4.97125 2.69968 0
M  V30 5217 H 460.69 5.90133 2.76741 0
M  V30 5218 N 464.123 0.554532 1.47522 0
M  V30 5219 C 465.348 0.0322661 2.07375 0
M  V30 5220 C 465.773 -1.25079 1.40488 0
M  V30 5221 O 465.131 -1.74859 0.47896 0
M  V30 5222 C 465.179 -0.149397 3.6029 0
M  V30 5223 O 464.283 -1.21259 3.9417 0
M  V30 5224 H 463.624 0.0501228 0.662106 0
M  V30 5225 H 466.154 0.769452 1.8958 0
M  V30 5226 H 466.164 -0.364437 4.06369 0
M  V30 5227 H 464.839 0.787743 4.08372 0
M  V30 5228 H 463.416 -0.97825 3.5984 0
M  V30 5229 N 465.601 -1.54893 0.290851 0
M  V30 5230 C 466.85 -1.99111 -0.322113 0
M  V30 5231 C 467.163 -1.18283 -1.55784 0
M  V30 5232 O 468.369 -1.5272 -2.24475 0
M  V30 5233 C 466.825 -3.54442 -0.624438 0
M  V30 5234 C 466.433 -4.44066 0.592373 0
M  V30 5235 C 468.177 -4.07211 -1.19916 0
M  V30 5236 C 466.084 -5.90812 0.263762 0
M  V30 5237 H 465.014 -0.743712 -0.124133 0
M  V30 5238 H 467.665 -1.79132 0.39797 0
M  V30 5239 H 466.047 -3.70281 -1.40384 0
M  V30 5240 H 467.221 -4.39999 1.36886 0
M  V30 5241 H 465.536 -4.02015 1.08502 0
M  V30 5242 H 468.133 -5.14407 -1.45909 0
M  V30 5243 H 468.476 -3.57196 -2.13815 0
M  V30 5244 H 469.009 -3.94873 -0.481687 0
M  V30 5245 H 465.748 -6.44955 1.17105 0
M  V30 5246 H 465.268 -5.97911 -0.475655 0
M  V30 5247 H 466.947 -6.46852 -0.138354 0
M  V30 5248 N 467.08 -0.0183926 -1.57589 0
M  V30 5249 C 468.03 0.975944 -2.06057 0
M  V30 5250 C 469.014 1.29204 -0.958908 0
M  V30 5251 O 470.206 1.27995 -1.22255 0
M  V30 5252 C 467.335 2.26194 -2.58247 0
M  V30 5253 C 466.421 1.97467 -3.75323 0
M  V30 5254 N 466.812 1.38968 -4.86335 0
M  V30 5255 C 465.11 2.27515 -3.83605 0
M  V30 5256 C 465.811 1.27131 -5.67638 0
M  V30 5257 N 464.787 1.76319 -5.14211 0
M  V30 5258 H 468.589 0.518444 -2.89291 0
M  V30 5259 H 466.103 0.18688 -1.61321 0
M  V30 5260 H 468.1 2.98289 -2.91255 0
M  V30 5261 H 466.76 2.7258 -1.76438 0
M  V30 5262 H 467.771 1.06608 -5.06809 0
M  V30 5263 H 464.448 2.76649 -3.12684 0
M  V30 5264 H 465.838 0.819882 -6.66879 0
M  V30 5265 N 468.558 1.5553 0.254621 0
M  V30 5266 C 469.807 1.76202 0.981612 0
M  V30 5267 C 470.12 0.580883 1.86776 0
M  V30 5268 O 471.326 0.670448 2.63092 0
M  V30 5269 C 469.782 3.11921 1.79537 0
M  V30 5270 C 469.39 4.37659 0.956991 0
M  V30 5271 C 471.134 3.41936 2.51555 0
M  V30 5272 C 469.041 5.64411 1.76619 0
M  V30 5273 H 467.971 0.656841 0.370237 0
M  V30 5274 H 470.622 1.81969 0.236556 0
M  V30 5275 H 469.004 3.00241 2.58208 0
M  V30 5276 H 470.178 4.60307 0.21315 0
M  V30 5277 H 468.493 4.14922 0.350497 0
M  V30 5278 H 471.09 4.33849 3.12536 0
M  V30 5279 H 471.433 2.62905 3.22779 0
M  V30 5280 H 471.966 3.54797 1.799 0
M  V30 5281 H 468.705 6.46241 1.09783 0
M  V30 5282 H 468.225 5.45877 2.48551 0
M  V30 5283 H 469.904 6.03386 2.33527 0
M  V30 5284 N 470.036 -0.519951 1.48776 0
M  V30 5285 C 471.313 -1.28123 1.47797 0
M  V30 5286 C 471.693 -2.10196 0.195157 0
M  V30 5287 O 471.041 -2.13167 -0.822925 0
M  V30 5288 C 471.251 -2.15413 2.74587 0
M  V30 5289 C 472.599 -2.75225 3.23321 0
M  V30 5290 O 473.623 -2.25694 2.75574 0
M  V30 5291 O 472.482 -3.65346 4.06429 0
M  V30 5292 H 469.576 -0.578793 0.590701 0
M  V30 5293 H 472.122 -0.535779 1.6102 0
M  V30 5294 H 470.894 -1.54617 3.59457 0
M  V30 5295 H 470.517 -2.97186 2.64132 0
M  V30 5296 N 471.514 -1.37532 -0.769588 0
M  V30 5297 C 472.744 -1.35861 -1.55645 0
M  V30 5298 C 473.152 0.0574398 -1.89113 0
M  V30 5299 O 472.495 1.03021 -1.52093 0
M  V30 5300 C 472.557 -2.13431 -2.89288 0
M  V30 5301 C 472.221 -3.62378 -2.78444 0
M  V30 5302 C 473.218 -4.56215 -2.49326 0
M  V30 5303 C 470.903 -4.05529 -2.96398 0
M  V30 5304 C 472.897 -5.91181 -2.38294 0
M  V30 5305 C 470.584 -5.40579 -2.84987 0
M  V30 5306 C 471.582 -6.33218 -2.55975 0
M  V30 5307 O 471.27 -7.65787 -2.44594 0
M  V30 5308 H 471.002 -0.467001 -0.48876 0
M  V30 5309 H 473.556 -1.81505 -0.961515 0
M  V30 5310 H 471.786 -1.62481 -3.50909 0
M  V30 5311 H 473.475 -2.04368 -3.50697 0
M  V30 5312 H 474.241 -4.24187 -2.35139 0
M  V30 5313 H 470.12 -3.33781 -3.1798 0
M  V30 5314 H 473.664 -6.63457 -2.15571 0
M  V30 5315 H 469.561 -5.72209 -2.98743 0
M  V30 5316 H 470.329 -7.76132 -2.59927 0
M  V30 5317 N 472.992 0.995999 -1.22138 0
M  V30 5318 C 474.241 1.72928 -1.03821 0
M  V30 5319 C 474.554 1.90872 0.427444 0
M  V30 5320 O 475.76 2.61496 0.730212 0
M  V30 5321 C 474.216 3.11124 -1.80913 0
M  V30 5322 C 473.824 3.01122 -3.31707 0
M  V30 5323 C 475.568 3.8852 -1.71035 0
M  V30 5324 C 473.475 4.34453 -4.01253 0
M  V30 5325 H 472.405 0.648376 -0.384869 0
M  V30 5326 H 475.056 1.11213 -1.45959 0
M  V30 5327 H 473.438 3.73503 -1.31573 0
M  V30 5328 H 474.612 2.47926 -3.88419 0
M  V30 5329 H 472.927 2.3721 -3.42228 0
M  V30 5330 H 475.524 4.872 -2.20318 0
M  V30 5331 H 475.867 4.1087 -0.670196 0
M  V30 5332 H 476.4 3.32812 -2.17902 0
M  V30 5333 H 473.139 4.17303 -5.05508 0
M  V30 5334 H 472.659 4.87574 -3.49331 0
M  V30 5335 H 474.338 5.03215 -4.06674 0
M  V30 5336 N 474.47 1.03057 1.19235 0
M  V30 5337 C 475.7 0.746613 1.92638 0
M  V30 5338 C 476.108 -0.698708 1.75826 0
M  V30 5339 O 475.451 -1.487 1.07861 0
M  V30 5340 C 475.513 1.02024 3.44719 0
M  V30 5341 C 475.177 2.45745 3.85303 0
M  V30 5342 C 476.174 3.43887 3.8992 0
M  V30 5343 C 473.859 2.8019 4.16892 0
M  V30 5344 C 475.853 4.74529 4.2556 0
M  V30 5345 C 473.54 4.1104 4.52205 0
M  V30 5346 C 474.538 5.0802 4.56513 0
M  V30 5347 O 474.226 6.36527 4.91008 0
M  V30 5348 H 473.958 0.272401 0.618687 0
M  V30 5349 H 476.512 1.37853 1.52269 0
M  V30 5350 H 474.742 0.331184 3.85279 0
M  V30 5351 H 476.431 0.725677 3.9936 0
M  V30 5352 H 477.197 3.18614 3.65664 0
M  V30 5353 H 473.076 2.05382 4.12722 0
M  V30 5354 H 476.62 5.50222 4.28838 0
M  V30 5355 H 472.517 4.36086 4.7592 0
M  V30 5356 H 473.285 6.41025 5.08949 0
M  V30 5357 N 475.948 -1.35272 0.808662 0
M  V30 5358 C 476.858 -2.33546 0.222079 0
M  V30 5359 C 477.874 -1.6196 -0.636011 0
M  V30 5360 O 479.05 -1.93822 -0.547274 0
M  V30 5361 C 476.115 -3.41148 -0.61795 0
M  V30 5362 C 475.176 -4.28507 0.260875 0
M  V30 5363 C 474.409 -5.3097 -0.539156 0
M  V30 5364 O 474.632 -5.42123 -1.77367 0
M  V30 5365 O 473.566 -6.01858 0.0710526 0
M  V30 5366 H 477.392 -2.85515 1.03512 0
M  V30 5367 H 474.977 -1.38079 0.570495 0
M  V30 5368 H 476.859 -4.06889 -1.09634 0
M  V30 5369 H 475.534 -2.91447 -1.40855 0
M  V30 5370 H 474.441 -3.6574 0.786451 0
M  V30 5371 H 475.774 -4.81611 1.01547 0
M  V30 5372 N 477.426 -0.562348 -1.47226 0
M  V30 5373 C 478.672 -0.0402761 -2.0276 0
M  V30 5374 C 479.005 1.30823 -1.43523 0
M  V30 5375 O 478.28 1.85249 -0.592705 0
M  V30 5376 C 478.563 0.047311 -3.60069 0
M  V30 5377 C 478.416 -1.32865 -4.29729 0
M  V30 5378 C 479.735 0.758182 -4.3352 0
M  V30 5379 H 476.854 -0.0161105 -0.736824 0
M  V30 5380 H 479.496 -0.725628 -1.75598 0
M  V30 5381 H 477.646 0.630986 -3.83342 0
M  V30 5382 H 479.318 -1.95593 -4.17781 0
M  V30 5383 H 477.561 -1.90195 -3.89882 0
M  V30 5384 H 478.232 -1.22004 -5.38349 0
M  V30 5385 H 480.708 0.262546 -4.15271 0
M  V30 5386 H 479.584 0.78844 -5.43208 0
M  V30 5387 H 479.845 1.81537 -4.03109 0
M  V30 5388 N 478.904 1.54736 -0.299062 0
M  V30 5389 C 480.132 2.04512 0.313447 0
M  V30 5390 C 480.547 1.17643 1.47667 0
M  V30 5391 O 479.904 0.20164 1.81383 0
M  V30 5392 C 479.955 3.53171 0.771542 0
M  V30 5393 O 479.676 4.36736 -0.345379 0
M  V30 5394 C 481.177 4.18936 1.4494 0
M  V30 5395 H 478.397 0.667507 0.0683784 0
M  V30 5396 H 480.941 1.99752 -0.438129 0
M  V30 5397 H 479.096 3.58298 1.47314 0
M  V30 5398 H 479.51 5.24499 0.0109219 0
M  V30 5399 H 480.984 5.24482 1.72111 0
M  V30 5400 H 481.461 3.68554 2.38883 0
M  V30 5401 H 482.067 4.17879 0.791028 0
M  V30 5402 N 480.382 0.0267497 1.57577 0
M  V30 5403 C 481.329 -0.955894 2.10075 0
M  V30 5404 C 482.299 -1.32453 1.00226 0
M  V30 5405 O 483.484 -1.41826 1.27632 0
M  V30 5406 C 480.624 -2.2338 2.6305 0
M  V30 5407 C 479.737 -1.92183 3.86898 0
M  V30 5408 C 478.872 -3.14251 4.28275 0
M  V30 5409 C 477.911 -2.78862 5.44888 0
M  V30 5410 N 477.048 -3.93548 5.81433 0
M  V30 5411 H 481.888 -0.501303 2.93753 0
M  V30 5412 H 479.425 -0.235847 1.45197 0
M  V30 5413 H 481.383 -2.98124 2.91853 0
M  V30 5414 H 480.013 -2.6646 1.82205 0
M  V30 5415 H 479.065 -1.07692 3.64838 0
M  V30 5416 H 480.377 -1.62117 4.7172 0
M  V30 5417 H 479.531 -3.97317 4.58502 0
M  V30 5418 H 478.27 -3.47476 3.42215 0
M  V30 5419 H 477.275 -1.94208 5.14357 0
M  V30 5420 H 478.5 -2.46855 6.32645 0
M  V30 5421 H 476.446 -4.2662 4.98328 0
M  V30 5422 H 476.363 -3.67098 6.6089 0
M  V30 5423 H 477.631 -4.77325 6.16264 0
M  V30 5424 N 481.861 -1.55662 -0.24637 0
M  V30 5425 C 483.091 -1.81312 -0.990438 0
M  V30 5426 C 483.499 -0.600234 -1.79426 0
M  V30 5427 O 482.842 0.440537 -1.78339 0
M  V30 5428 C 482.904 -3.0032 -1.97607 0
M  V30 5429 C 482.568 -4.36322 -1.35912 0
M  V30 5430 C 483.565 -5.14295 -0.761348 0
M  V30 5431 C 481.25 -4.83019 -1.37833 0
M  V30 5432 C 483.244 -6.37114 -0.190998 0
M  V30 5433 C 480.931 -6.05786 -0.804128 0
M  V30 5434 C 481.929 -6.82672 -0.211489 0
M  V30 5435 O 481.617 -8.03121 0.353845 0
M  V30 5436 H 481.349 -0.607233 -0.297058 0
M  V30 5437 H 483.903 -2.0356 -0.274351 0
M  V30 5438 H 482.133 -2.73829 -2.73047 0
M  V30 5439 H 483.822 -3.13057 -2.58361 0
M  V30 5440 H 484.588 -4.79337 -0.739013 0
M  V30 5441 H 480.467 -4.23165 -1.829 0
M  V30 5442 H 484.011 -6.97069 0.272206 0
M  V30 5443 H 479.908 -6.40222 -0.823792 0
M  V30 5444 H 480.676 -8.18131 0.245761 0
M  V30 5445 N 483.339 0.512053 -1.4905 0
M  V30 5446 C 484.588 1.26343 -1.57227 0
M  V30 5447 C 484.901 1.93876 -0.259155 0
M  V30 5448 O 486.107 2.70612 -0.219358 0
M  V30 5449 C 484.563 2.29343 -2.77362 0
M  V30 5450 C 484.171 1.67799 -4.15388 0
M  V30 5451 C 485.915 3.05378 -2.94864 0
M  V30 5452 C 483.822 2.68845 -5.2676 0
M  V30 5453 H 482.752 0.475231 -0.585382 0
M  V30 5454 H 485.403 0.53862 -1.75417 0
M  V30 5455 H 483.785 3.04938 -2.52643 0
M  V30 5456 H 484.959 0.982715 -4.50199 0
M  V30 5457 H 483.274 1.04194 -4.03153 0
M  V30 5458 H 485.871 3.80921 -3.75238 0
M  V30 5459 H 486.214 3.62327 -2.05 0
M  V30 5460 H 486.747 2.36898 -3.19569 0
M  V30 5461 H 483.486 2.16692 -6.18647 0
M  V30 5462 H 483.006 3.36647 -4.96416 0
M  V30 5463 H 484.685 3.31487 -5.5563 0
M  V30 5464 N 484.817 1.37938 0.762283 0
M  V30 5465 C 485.764 1.34467 1.87583 0
M  V30 5466 C 486.734 0.208633 1.64785 0
M  V30 5467 O 487.919 0.399494 1.86571 0
M  V30 5468 C 485.059 1.16692 3.24772 0
M  V30 5469 C 484.172 2.39608 3.59461 0
M  V30 5470 C 483.307 2.14631 4.85908 0
M  V30 5471 C 482.346 3.33364 5.13357 0
M  V30 5472 N 481.483 3.07877 6.30996 0
M  V30 5473 H 486.323 2.29669 1.89885 0
M  V30 5474 H 483.86 1.14116 0.928219 0
M  V30 5475 H 485.818 1.04405 4.03925 0
M  V30 5476 H 484.448 0.251333 3.2182 0
M  V30 5477 H 483.5 2.626 2.75219 0
M  V30 5478 H 484.812 3.28128 3.75678 0
M  V30 5479 H 483.966 1.99429 5.72986 0
M  V30 5480 H 482.705 1.23463 4.71814 0
M  V30 5481 H 481.71 3.49094 4.24751 0
M  V30 5482 H 482.935 4.25395 5.29354 0
M  V30 5483 H 480.881 2.19348 6.18241 0
M  V30 5484 H 480.798 3.89944 6.47673 0
M  V30 5485 H 482.066 2.96313 7.20985 0
M  V30 5486 N 486.295 -0.989507 1.22664 0
M  V30 5487 C 487.205 -2.11449 1.01619 0
M  V30 5488 C 488.221 -1.73962 -0.036545 0
M  V30 5489 O 489.397 -2.00788 0.156924 0
M  V30 5490 C 486.462 -3.41465 0.600204 0
M  V30 5491 C 485.523 -3.93033 1.72695 0
M  V30 5492 C 484.756 -5.16844 1.33071 0
M  V30 5493 O 484.979 -5.7001 0.210975 0
M  V30 5494 O 483.913 -5.6225 2.14845 0
M  V30 5495 H 487.739 -2.32088 1.9588 0
M  V30 5496 H 485.324 -1.09823 1.01289 0
M  V30 5497 H 487.206 -4.19695 0.37873 0
M  V30 5498 H 485.881 -3.22178 -0.313511 0
M  V30 5499 H 484.788 -3.15961 2.00298 0
M  V30 5500 H 486.121 -4.16758 2.61865 0
M  V30 5501 N 487.773 -1.03688 -1.18687 0
M  V30 5502 C 488.721 -0.618292 -2.24232 0
M  V30 5503 C 489.715 0.353045 -1.6568 0
M  V30 5504 O 490.921 0.220749 -1.78641 0
M  V30 5505 H 487.296 -0.181711 -0.729716 0
M  V30 5506 H 489.267 -1.51893 -2.56848 0
M  V30 5507 C 488.016 0.00677342 -3.47699 0
M  V30 5508 H 487.339 -0.731692 -3.93047 0
M  V30 5509 H 488.779 0.262492 -4.23187 0
M  V30 5510 C 487.238 1.25572 -3.12623 0
M  V30 5511 O 487.768 2.34691 -3.26011 0
M  V30 5512 N 485.974 1.14755 -2.66982 0
M  V30 5513 H 485.521 0.259601 -2.56289 0
M  V30 5514 H 485.479 1.98412 -2.43885 0
M  V30 5515 N 489.251 1.34841 -0.815825 0
M  V30 5516 C 490.181 2.32187 -0.247298 0
M  V30 5517 C 491.162 1.5791 0.632344 0
M  V30 5518 O 492.347 1.8593 0.560698 0
M  V30 5519 C 489.477 3.42122 0.597466 0
M  V30 5520 C 488.431 4.27602 -0.184446 0
M  V30 5521 C 487.757 5.28942 0.782609 0
M  V30 5522 C 489.057 5.03502 -1.38865 0
M  V30 5523 H 490.751 2.79985 -1.06061 0
M  V30 5524 H 488.297 1.34611 -0.511461 0
M  V30 5525 H 490.25 4.09232 1.00533 0
M  V30 5526 H 488.974 2.92956 1.44376 0
M  V30 5527 H 487.633 3.62085 -0.573592 0
M  V30 5528 H 487.281 4.7604 1.62466 0
M  V30 5529 H 486.981 5.87008 0.263695 0
M  V30 5530 H 488.505 5.98922 1.18848 0
M  V30 5531 H 489.919 5.63506 -1.05518 0
M  V30 5532 H 488.316 5.71108 -1.8427 0
M  V30 5533 H 489.386 4.33608 -2.17054 0
M  V30 5534 N 490.729 0.570148 1.46925 0
M  V30 5535 C 492.145 0.23087 1.57921 0
M  V30 5536 C 492.345 -1.26676 1.56702 0
M  V30 5537 O 491.401 -2.04774 1.47729 0
M  V30 5538 C 492.714 0.868973 2.8787 0
M  V30 5539 C 494.262 0.841397 3.01479 0
M  V30 5540 C 494.737 1.45881 4.34146 0
M  V30 5541 N 496.228 1.42258 4.40814 0
M  V30 5542 C 496.963 1.8698 5.42057 0
M  V30 5543 N 496.459 2.39618 6.50042 0
M  V30 5544 N 498.252 1.77972 5.33181 0
M  V30 5545 H 490.403 1.54301 1.45962 0
M  V30 5546 H 492.666 0.644224 0.69547 0
M  V30 5547 H 492.372 1.922 2.94537 0
M  V30 5548 H 492.246 0.369682 3.75384 0
M  V30 5549 H 494.633 -0.202973 2.94401 0
M  V30 5550 H 494.714 1.37858 2.15474 0
M  V30 5551 H 494.358 2.50231 4.4198 0
M  V30 5552 H 494.288 0.896958 5.18905 0
M  V30 5553 H 496.779 1.03768 3.63374 0
M  V30 5554 H 497.092 2.71633 7.23488 0
M  V30 5555 H 495.437 2.43636 6.50897 0
M  V30 5556 H 498.628 1.36617 4.4772 0
M  V30 5557 H 498.801 2.13143 6.11943 0
M  V30 5558 N 492.207 -1.54576 0.307264 0
M  V30 5559 C 493.453 -2.0056 -0.300612 0
M  V30 5560 C 493.786 -1.1953 -1.53057 0
M  V30 5561 O 493.061 -0.27337 -1.92569 0
M  V30 5562 C 493.344 -3.54167 -0.650987 0
M  V30 5563 C 493.197 -4.45933 0.588539 0
M  V30 5564 C 494.516 -4.14645 -1.47506 0
M  V30 5565 H 491.635 -0.729075 -0.107788 0
M  V30 5566 H 494.277 -1.85286 0.420606 0
M  V30 5567 H 492.427 -3.67313 -1.26544 0
M  V30 5568 H 494.099 -4.44683 1.22697 0
M  V30 5569 H 492.342 -4.16274 1.22058 0
M  V30 5570 H 493.013 -5.51189 0.299153 0
M  V30 5571 H 495.489 -4.04973 -0.955821 0
M  V30 5572 H 494.365 -5.22269 -1.68899 0
M  V30 5573 H 494.626 -3.66921 -2.4662 0
M  V30 5574 N 493.685 -0.035106 -1.57561 0
M  V30 5575 C 495.101 0.321334 -1.56332 0
M  V30 5576 C 495.301 1.72509 -1.04129 0
M  V30 5577 O 494.357 2.4287 -0.690694 0
M  V30 5578 C 495.67 0.164469 -3.0025 0
M  V30 5579 C 497.218 0.236786 -3.12103 0
M  V30 5580 C 497.693 0.10864 -4.57871 0
M  V30 5581 N 499.184 0.165433 -4.62904 0
M  V30 5582 C 499.919 0.0901506 -5.73329 0
M  V30 5583 N 499.415 -0.0365606 -6.9279 0
M  V30 5584 N 501.208 0.144572 -5.61914 0
M  V30 5585 H 493.359 -0.952976 -1.89821 0
M  V30 5586 H 495.622 -0.368537 -0.873432 0
M  V30 5587 H 495.328 -0.802746 -3.42416 0
M  V30 5588 H 495.202 0.932194 -3.655 0
M  V30 5589 H 497.589 1.19446 -2.69845 0
M  V30 5590 H 497.67 -0.561419 -2.49563 0
M  V30 5591 H 497.314 -0.845644 -5.00811 0
M  V30 5592 H 497.244 0.925786 -5.18398 0
M  V30 5593 H 499.735 0.263269 -3.76982 0
M  V30 5594 H 500.048 -0.0871487 -7.72751 0
M  V30 5595 H 498.393 -0.0714256 -6.94963 0
M  V30 5596 H 501.584 0.242006 -4.67474 0
M  V30 5597 H 501.757 0.0824413 -6.47948 0
M  V30 5598 N 495.163 1.55791 0.238111 0
M  V30 5599 C 496.093 1.94068 1.29846 0
M  V30 5600 C 497.074 0.806726 1.49753 0
M  V30 5601 O 498.259 1.06772 1.62214 0
M  V30 5602 C 495.389 2.24302 2.65153 0
M  V30 5603 C 494.343 3.40032 2.59927 0
M  V30 5604 C 493.669 3.55829 3.99111 0
M  V30 5605 C 494.969 4.75476 2.16148 0
M  V30 5606 H 496.663 2.82887 0.980563 0
M  V30 5607 H 494.209 1.36105 0.470253 0
M  V30 5608 H 496.162 2.4967 3.39475 0
M  V30 5609 H 494.886 1.32318 2.98596 0
M  V30 5610 H 493.545 3.14687 1.88063 0
M  V30 5611 H 493.193 2.6125 4.29834 0
M  V30 5612 H 492.893 4.3366 3.96501 0
M  V30 5613 H 494.417 3.83528 4.7512 0
M  V30 5614 H 495.831 5.00158 2.80205 0
M  V30 5615 H 494.228 5.56472 2.24631 0
M  V30 5616 H 495.298 4.71946 1.11333 0
M  V30 5617 N 496.642 -0.504142 1.49319 0
M  V30 5618 C 497.87 -1.28256 1.62351 0
M  V30 5619 C 498.285 -1.86502 0.293682 0
M  V30 5620 O 497.642 -1.67678 -0.720449 0
M  V30 5621 C 497.693 -2.41507 2.68992 0
M  V30 5622 O 497.414 -1.85656 3.96817 0
M  V30 5623 C 498.915 -3.32929 2.927 0
M  V30 5624 H 496.135 -0.389115 0.546654 0
M  V30 5625 H 498.679 -0.605531 1.95329 0
M  V30 5626 H 496.834 -3.05046 2.38801 0
M  V30 5627 H 497.248 -2.59981 4.55533 0
M  V30 5628 H 498.722 -4.0868 3.71058 0
M  V30 5629 H 499.199 -3.89733 2.02496 0
M  V30 5630 H 499.805 -2.75158 3.24296 0
M  V30 5631 N 498.12 -1.38341 -0.754957 0
M  V30 5632 C 499.07 -1.31964 -1.85929 0
M  V30 5633 C 500.054 -0.204181 -1.59599 0
M  V30 5634 O 501.246 -0.440036 -1.71443 0
M  V30 5635 C 498.375 -1.14565 -3.2362 0
M  V30 5636 C 497.461 -2.30727 -3.55846 0
M  V30 5637 N 497.852 -3.56165 -3.59138 0
M  V30 5638 C 496.15 -2.23249 -3.86104 0
M  V30 5639 C 496.851 -4.32865 -3.88591 0
M  V30 5640 N 495.827 -3.62203 -4.05351 0
M  V30 5641 H 499.629 -2.2694 -1.8675 0
M  V30 5642 H 497.143 -1.31553 -0.952243 0
M  V30 5643 H 499.14 -1.0808 -4.02647 0
M  V30 5644 H 497.8 -0.205212 -3.24051 0
M  V30 5645 H 498.811 -3.89854 -3.40932 0
M  V30 5646 H 495.488 -1.37357 -3.94258 0
M  V30 5647 H 496.878 -5.41504 -3.97773 0
M  V30 5648 N 499.598 0.982988 -1.23187 0
M  V30 5649 C 500.823 1.76455 -1.08988 0
M  V30 5650 C 501.248 1.84726 0.354691 0
M  V30 5651 O 500.606 1.30699 1.25649 0
M  V30 5652 C 500.654 3.17094 -1.71708 0
M  V30 5653 O 499.758 4.00648 -0.977477 0
M  V30 5654 H 499.099 0.542988 -0.382177 0
M  V30 5655 H 501.629 1.23413 -1.63188 0
M  V30 5656 H 501.639 3.67684 -1.76841 0
M  V30 5657 H 500.314 3.10389 -2.76823 0
M  V30 5658 H 498.891 3.59161 -1.0029 0
M  V30 5659 N 501.076 1.04316 1.18135 0
M  V30 5660 C 501.986 0.646876 2.25505 0
M  V30 5661 C 503.002 -0.328008 1.7088 0
M  V30 5662 O 504.178 -0.182309 2.00573 0
M  V30 5663 C 501.243 0.0185664 3.46695 0
M  V30 5664 C 500.304 1.04277 4.16443 0
M  V30 5665 C 499.537 0.444352 5.31847 0
M  V30 5666 O 499.76 -0.748735 5.65465 0
M  V30 5667 O 498.694 1.17428 5.90334 0
M  V30 5668 H 502.52 1.54147 2.61672 0
M  V30 5669 H 500.105 0.814188 1.25265 0
M  V30 5670 H 501.987 -0.331068 4.20097 0
M  V30 5671 H 500.662 -0.849814 3.12346 0
M  V30 5672 H 499.569 1.44425 3.45098 0
M  V30 5673 H 500.902 1.882 4.54798 0
M  V30 5674 N 502.554 -1.34406 0.822964 0
M  V30 5675 C 503.502 -2.31428 0.233165 0
M  V30 5676 C 504.496 -1.57404 -0.626118 0
M  V30 5677 O 505.702 -1.72402 -0.517453 0
M  V30 5678 H 502.077 -0.749863 0.0566557 0
M  V30 5679 H 504.048 -2.78699 1.06628 0
M  V30 5680 C 502.797 -3.42653 -0.590264 0
M  V30 5681 H 502.12 -3.99753 0.0616129 0
M  V30 5682 H 503.56 -4.12778 -0.969054 0
M  V30 5683 C 502.019 -2.87112 -1.76262 0
M  V30 5684 O 502.549 -2.81995 -2.8608 0
M  V30 5685 N 500.755 -2.43934 -1.57938 0
M  V30 5686 H 500.302 -2.48296 -0.686078 0
M  V30 5687 H 500.26 -2.07123 -2.36532 0
M  V30 5688 N 504.032 -0.577932 -1.46621 0
M  V30 5689 C 505.278 -0.0617793 -2.02706 0
M  V30 5690 C 505.611 1.29294 -1.44903 0
M  V30 5691 O 504.886 1.8461 -0.61232 0
M  V30 5692 C 505.169 0.00911824 -3.60099 0
M  V30 5693 C 505.022 -1.37416 -4.28295 0
M  V30 5694 C 506.341 0.712159 -4.343 0
M  V30 5695 H 503.46 -0.0239246 -0.736612 0
M  V30 5696 H 506.102 -0.744211 -1.74818 0
M  V30 5697 H 504.252 0.590292 -3.83989 0
M  V30 5698 H 505.924 -2.00013 -4.15683 0
M  V30 5699 H 504.167 -1.94319 -3.87843 0
M  V30 5700 H 504.838 -1.27707 -5.37024 0
M  V30 5701 H 507.314 0.218486 -4.15526 0
M  V30 5702 H 506.19 0.730782 -5.44014 0
M  V30 5703 H 506.451 1.77251 -4.05012 0
M  V30 5704 N 505.51 1.54411 -0.315457 0
M  V30 5705 C 506.75 2.02329 0.290236 0
M  V30 5706 C 507.114 1.19878 1.49977 0
M  V30 5707 O 508.315 1.57562 2.17779 0
M  V30 5708 C 506.586 3.51912 0.623937 0
M  V30 5709 S 508.145 4.21775 1.21044 0
M  V30 5710 H 504.963 0.705499 0.0882739 0
M  V30 5711 H 507.565 1.90328 -0.446694 0
M  V30 5712 H 506.269 4.09546 -0.264624 0
M  V30 5713 H 505.8 3.67977 1.39128 0
M  V30 5714 H 507.815 4.28757 2.49764 0
M  V30 5715 N 506.988 0.0434614 1.5754 0
M  V30 5716 C 507.918 -0.931651 2.14109 0
M  V30 5717 C 508.899 -1.32971 1.06079 0
M  V30 5718 O 510.084 -1.40579 1.33982 0
M  V30 5719 C 507.214 -2.20914 2.67982 0
M  V30 5720 C 506.168 -1.95139 3.80926 0
M  V30 5721 C 505.494 -3.29276 4.21285 0
M  V30 5722 C 506.794 -1.27913 5.06395 0
M  V30 5723 H 508.488 -0.460497 2.95837 0
M  V30 5724 H 506.034 -0.220058 1.42309 0
M  V30 5725 H 507.987 -2.89522 3.06194 0
M  V30 5726 H 506.711 -2.70221 1.83434 0
M  V30 5727 H 505.37 -1.28945 3.43175 0
M  V30 5728 H 505.018 -3.76369 3.33699 0
M  V30 5729 H 504.718 -3.12831 4.97404 0
M  V30 5730 H 506.242 -3.99129 4.62091 0
M  V30 5731 H 507.656 -1.86544 5.42102 0
M  V30 5732 H 506.053 -1.2182 5.87605 0
M  V30 5733 H 507.123 -0.254066 4.84234 0
M  V30 5734 N 508.466 -1.55915 -0.229846 0
M  V30 5735 C 509.414 -1.9258 -1.30444 0
M  V30 5736 C 510.408 -0.806839 -1.48951 0
M  V30 5737 O 511.614 -0.991606 -1.50224 0
M  V30 5738 H 507.989 -0.611878 -0.437161 0
M  V30 5739 H 509.96 -2.82264 -0.96797 0
M  V30 5740 C 508.709 -2.25171 -2.6494 0
M  V30 5741 H 508.032 -3.10782 -2.51504 0
M  V30 5742 H 509.472 -2.54716 -3.38963 0
M  V30 5743 C 507.931 -1.07394 -3.19324 0
M  V30 5744 O 508.461 -0.330759 -4.00336 0
M  V30 5745 N 506.667 -0.859984 -2.77584 0
M  V30 5746 H 506.214 -1.46605 -2.11813 0
M  V30 5747 H 506.172 -0.0736671 -3.14314 0
M  V30 5748 N 509.944 0.496216 -1.49584 0
M  V30 5749 C 510.854 1.62352 -1.69349 0
M  V30 5750 C 511.87 1.64184 -0.576147 0
M  V30 5751 O 513.046 1.82517 -0.85144 0
M  V30 5752 C 510.111 2.98698 -1.76013 0
M  V30 5753 C 509.172 3.07454 -2.99617 0
M  V30 5754 C 508.405 4.37296 -3.05953 0
M  V30 5755 O 508.628 5.2637 -2.19752 0
M  V30 5756 O 507.562 4.51124 -3.9846 0
M  V30 5757 H 511.388 1.48606 -2.64859 0
M  V30 5758 H 508.973 0.673022 -1.33382 0
M  V30 5759 H 510.855 3.79725 -1.82721 0
M  V30 5760 H 509.53 3.12696 -0.836828 0
M  V30 5761 H 508.437 2.25597 -2.98424 0
M  V30 5762 H 509.77 2.98385 -3.91443 0
M  V30 5763 N 511.423 1.38739 0.74761 0
M  V30 5764 C 512.333 1.38696 1.89211 0
M  V30 5765 C 513.349 0.283303 1.71678 0
M  V30 5766 O 514.525 0.522713 1.94498 0
M  V30 5767 C 511.59 1.21662 3.24653 0
M  V30 5768 C 510.651 2.41886 3.54669 0
M  V30 5769 C 509.884 2.25655 4.83648 0
M  V30 5770 O 510.107 1.25339 5.56459 0
M  V30 5771 O 509.041 3.14372 5.13277 0
M  V30 5772 H 512.867 2.35143 1.92202 0
M  V30 5773 H 510.452 1.19721 0.893708 0
M  V30 5774 H 512.334 1.14246 4.05618 0
M  V30 5775 H 511.009 0.283024 3.2246 0
M  V30 5776 H 509.916 2.54877 2.73841 0
M  V30 5777 H 511.249 3.33895 3.61628 0
M  V30 5778 N 512.901 -0.976442 1.23707 0
M  V30 5779 C 513.833 -2.07212 0.979574 0
M  V30 5780 C 514.846 -1.6273 -0.0478528 0
M  V30 5781 O 516.035 -1.77506 0.18815 0
M  V30 5782 C 513.135 -3.35835 0.45479 0
M  V30 5783 C 512.308 -4.09268 1.54331 0
M  V30 5784 C 511.367 -5.16166 1.02271 0
M  V30 5785 O 510.393 -5.42827 1.71254 0
M  V30 5786 N 511.595 -5.80313 -0.147419 0
M  V30 5787 H 514.36 -2.29878 1.92292 0
M  V30 5788 H 511.921 -1.14343 1.14618 0
M  V30 5789 H 513.913 -4.04597 0.0914631 0
M  V30 5790 H 512.483 -3.10106 -0.394068 0
M  V30 5791 H 511.703 -3.34906 2.07923 0
M  V30 5792 H 512.991 -4.55095 2.27522 0
M  V30 5793 H 512.389 -5.61043 -0.724353 0
M  V30 5794 H 510.946 -6.50231 -0.451972 0
M  V30 5795 N 514.379 -1.04941 -1.1758 0
M  V30 5796 C 515.327 -0.64204 -2.23563 0
M  V30 5797 C 516.321 0.335453 -1.66045 0
M  V30 5798 O 517.527 0.20179 -1.78865 0
M  V30 5799 H 513.902 -0.18944 -0.727748 0
M  V30 5800 H 515.873 -1.54609 -2.55223 0
M  V30 5801 C 514.622 -0.0301051 -3.47687 0
M  V30 5802 H 513.945 -0.773339 -3.92249 0
M  V30 5803 H 515.385 0.217592 -4.23441 0
M  V30 5804 C 513.844 1.2225 -3.13937 0
M  V30 5805 O 514.374 2.3122 -3.28482 0
M  V30 5806 N 512.58 1.11917 -2.68185 0
M  V30 5807 H 512.127 0.232403 -2.5655 0
M  V30 5808 H 512.085 1.95814 -2.45976 0
M  V30 5809 N 515.857 1.33968 -0.830081 0
M  V30 5810 C 517.106 1.97323 -0.417928 0
M  V30 5811 C 517.419 1.6652 1.02618 0
M  V30 5812 O 518.625 2.2342 1.54259 0
M  V30 5813 C 517.081 3.53099 -0.696359 0
M  V30 5814 C 516.689 3.92788 -2.15457 0
M  V30 5815 C 518.433 4.23049 -0.350724 0
M  V30 5816 C 516.34 5.41506 -2.37751 0
M  V30 5817 H 515.27 0.738409 -0.152541 0
M  V30 5818 H 517.921 1.52711 -1.01744 0
M  V30 5819 H 516.303 3.95991 -0.0265904 0
M  V30 5820 H 517.477 3.6098 -2.86408 0
M  V30 5821 H 515.792 3.35795 -2.46232 0
M  V30 5822 H 518.389 5.32403 -0.495036 0
M  V30 5823 H 518.732 4.10279 0.705476 0
M  V30 5824 H 519.265 3.85657 -0.975362 0
M  V30 5825 H 516.004 5.5927 -3.41903 0
M  V30 5826 H 515.524 5.74804 -1.7135 0
M  V30 5827 H 517.203 6.0828 -2.20465 0
M  V30 5828 N 517.335 0.585699 1.46312 0
M  V30 5829 C 518.285 -0.166813 2.27389 0
M  V30 5830 C 519.269 -0.859076 1.36047 0
M  V30 5831 O 520.461 -0.752678 1.60199 0
M  V30 5832 C 517.59 -1.17791 3.2246 0
M  V30 5833 C 516.676 -0.487605 4.21288 0
M  V30 5834 N 517.067 0.45849 5.03718 0
M  V30 5835 C 515.365 -0.737971 4.39852 0
M  V30 5836 C 516.066 0.862213 5.75275 0
M  V30 5837 N 515.042 0.210707 5.43191 0
M  V30 5838 H 518.844 0.560167 2.88512 0
M  V30 5839 H 516.358 0.407715 1.57199 0
M  V30 5840 H 518.355 -1.73122 3.79255 0
M  V30 5841 H 517.015 -1.90568 2.62896 0
M  V30 5842 H 518.026 0.834163 5.11138 0
M  V30 5843 H 514.703 -1.45209 3.91434 0
M  V30 5844 H 516.093 1.64128 6.51546 0
M  V30 5845 N 518.813 -1.54241 0.323641 0
M  V30 5846 C 519.743 -2.27289 -0.534993 0
M  V30 5847 C 520.724 -1.28087 -1.11927 0
M  V30 5848 O 521.909 -1.56899 -1.14439 0
M  V30 5849 C 519.039 -3.03075 -1.69596 0
M  V30 5850 C 517.993 -4.09614 -1.24098 0
M  V30 5851 C 517.319 -4.73242 -2.4889 0
M  V30 5852 C 518.619 -5.21087 -0.355789 0
M  V30 5853 H 520.313 -2.99308 0.0743257 0
M  V30 5854 H 517.859 -1.43952 0.0371874 0
M  V30 5855 H 519.812 -3.52907 -2.30293 0
M  V30 5856 H 518.536 -2.28673 -2.33187 0
M  V30 5857 H 517.195 -3.60666 -0.656945 0
M  V30 5858 H 516.843 -3.95455 -3.10845 0
M  V30 5859 H 516.543 -5.45209 -2.19138 0
M  V30 5860 H 518.067 -5.25848 -3.10348 0
M  V30 5861 H 519.481 -5.66675 -0.869042 0
M  V30 5862 H 517.878 -5.9991 -0.151045 0
M  V30 5863 H 518.948 -4.81005 0.613339 0
M  V30 5864 N 520.291 -0.0518155 -1.57515 0
M  V30 5865 C 521.221 0.920283 -2.146 0
M  V30 5866 C 522.202 1.32406 -1.06783 0
M  V30 5867 O 523.387 1.39866 -1.34726 0
M  V30 5868 C 520.517 2.1949 -2.6915 0
M  V30 5869 C 519.471 1.93116 -3.81956 0
M  V30 5870 C 518.797 3.27037 -4.23026 0
M  V30 5871 C 520.097 1.25225 -5.07066 0
M  V30 5872 H 521.791 0.444801 -2.96077 0
M  V30 5873 H 519.337 0.212508 -1.42423 0
M  V30 5874 H 521.29 2.87894 -3.07725 0
M  V30 5875 H 520.014 2.69244 -1.84865 0
M  V30 5876 H 518.673 1.27123 -3.43854 0
M  V30 5877 H 518.321 3.74595 -3.3569 0
M  V30 5878 H 518.021 3.10189 -4.99056 0
M  V30 5879 H 519.545 3.96673 -4.64202 0
M  V30 5880 H 520.959 1.83666 -5.43083 0
M  V30 5881 H 519.356 1.18702 -5.88243 0
M  V30 5882 H 520.426 0.228382 -4.84362 0
M  V30 5883 N 521.769 1.56035 0.221574 0
M  V30 5884 C 523.046 1.69837 0.970301 0
M  V30 5885 C 523.426 0.599065 2.02421 0
M  V30 5886 O 522.774 -0.393929 2.25079 0
M  V30 5887 C 522.984 3.11148 1.58076 0
M  V30 5888 C 524.332 3.70555 2.07302 0
M  V30 5889 O 525.356 3.14109 1.6797 0
M  V30 5890 O 524.215 4.69562 2.79596 0
M  V30 5891 H 521.309 0.691727 0.453257 0
M  V30 5892 H 523.855 1.68353 0.213358 0
M  V30 5893 H 522.627 3.82617 0.819759 0
M  V30 5894 H 522.25 3.16749 2.40324 0
M  V30 5895 N 523.247 -0.488276 1.49845 0
M  V30 5896 C 524.195 -1.60917 1.67954 0
M  V30 5897 C 525.189 -1.6038 0.54539 0
M  V30 5898 O 526.395 -1.64736 0.7254 0
M  V30 5899 H 522.77 -0.533658 0.529824 0
M  V30 5900 H 524.741 -1.428 2.62013 0
M  V30 5901 C 523.49 -2.98975 1.77509 0
M  V30 5902 H 522.813 -3.00099 2.6416 0
M  V30 5903 H 524.253 -3.76906 1.9421 0
M  V30 5904 C 522.712 -3.3282 0.522745 0
M  V30 5905 O 523.242 -4.00208 -0.345866 0
M  V30 5906 N 521.448 -2.8808 0.381882 0
M  V30 5907 H 520.995 -2.33415 1.08974 0
M  V30 5908 H 520.953 -3.11091 -0.454929 0
M  V30 5909 N 524.725 -1.39134 -0.740242 0
M  V30 5910 C 526.002 -1.26584 -1.49117 0
M  V30 5911 C 526.382 0.126902 -2.10718 0
M  V30 5912 O 525.73 1.13765 -1.98166 0
M  V30 5913 C 525.94 -2.38619 -2.54681 0
M  V30 5914 C 527.288 -2.77685 -3.21211 0
M  V30 5915 O 528.312 -2.38029 -2.64991 0
M  V30 5916 O 527.171 -3.46115 -4.22926 0
M  V30 5917 H 524.265 -0.495769 -0.661923 0
M  V30 5918 H 526.811 -1.50995 -0.774514 0
M  V30 5919 H 525.583 -3.3175 -2.07504 0
M  V30 5920 H 525.206 -2.15845 -3.33911 0
M  V30 5921 N 526.204 0.969867 -1.24223 0
M  V30 5922 C 527.615 1.52717 -1.07399 0
M  V30 5923 C 527.966 1.92956 0.355298 0
M  V30 5924 O 527.091 1.77112 1.2434 0
M  V30 5925 C 527.686 2.77521 -1.94339 0
M  V30 5926 C 526.245 3.29615 -1.81744 0
M  V30 5927 C 525.392 2.02537 -1.89405 0
M  V30 5928 H 528.343 0.788399 -1.37732 0
M  V30 5929 H 528.364 3.50773 -1.47439 0
M  V30 5930 H 527.876 2.48203 -2.98357 0
M  V30 5931 H 525.977 3.63789 -0.805505 0
M  V30 5932 H 526.09 3.98661 -2.65718 0
M  V30 5933 H 524.454 2.17151 -1.33108 0
M  V30 5934 H 525.237 1.75587 -2.94999 0
M  V30 5935 N 527.682 1.05563 1.17022 0
M  V30 5936 C 528.63 0.653887 2.2322 0
M  V30 5937 C 529.624 -0.326642 1.66221 0
M  V30 5938 O 530.83 -0.192301 1.7897 0
M  V30 5939 H 527.205 0.193297 0.726733 0
M  V30 5940 H 529.176 1.5596 2.54399 0
M  V30 5941 C 527.925 0.0485434 3.47666 0
M  V30 5942 H 527.248 0.79413 3.91834 0
M  V30 5943 H 528.688 -0.195133 4.23551 0
M  V30 5944 C 527.147 -1.20583 3.14581 0
M  V30 5945 O 527.677 -2.29475 3.29703 0
M  V30 5946 N 525.883 -1.10493 2.68774 0
M  V30 5947 H 525.43 -0.218795 2.56669 0
M  V30 5948 H 525.388 -1.94507 2.47011 0
M  V30 5949 N 529.16 -1.33526 0.837174 0
M  V30 5950 C 530.108 -2.31168 0.257698 0
M  V30 5951 C 531.102 -1.5806 -0.609388 0
M  V30 5952 O 532.308 -1.72941 -0.499139 0
M  V30 5953 H 528.683 -0.74922 0.0646058 0
M  V30 5954 H 530.654 -2.77552 1.09578 0
M  V30 5955 C 529.403 -3.4326 -0.553887 0
M  V30 5956 H 528.726 -3.99665 0.104008 0
M  V30 5957 H 530.166 -4.13782 -0.925219 0
M  V30 5958 C 528.625 -2.88965 -1.73207 0
M  V30 5959 O 529.155 -2.85013 -2.83073 0
M  V30 5960 N 527.361 -2.45596 -1.55342 0
M  V30 5961 H 526.908 -2.49009 -0.659705 0
M  V30 5962 H 526.866 -2.0962 -2.34322 0
M  V30 5963 N 530.638 -0.59345 -1.46 0
M  V30 5964 C 531.885 -0.0831523 -2.02329 0
M  V30 5965 C 532.213 1.28093 -1.46364 0
M  V30 5966 O 531.468 1.85526 -0.622793 0
M  V30 5967 C 531.767 0.021178 -3.57394 0
M  V30 5968 C 531.433 -1.27671 -4.32448 0
M  V30 5969 C 530.095 -1.63227 -4.5267 0
M  V30 5970 C 532.447 -2.13511 -4.7546 0
M  V30 5971 C 529.775 -2.84401 -5.1316 0
M  V30 5972 C 532.127 -3.33922 -5.37289 0
M  V30 5973 C 530.791 -3.69747 -5.55737 0
M  V30 5974 H 530.061 -0.0304276 -0.740375 0
M  V30 5975 H 532.708 -0.772239 -1.75239 0
M  V30 5976 H 531.013 0.793454 -3.83682 0
M  V30 5977 H 532.71 0.431942 -3.98667 0
M  V30 5978 H 529.3 -0.989937 -4.17011 0
M  V30 5979 H 533.484 -1.87344 -4.59582 0
M  V30 5980 H 528.74 -3.12282 -5.25633 0
M  V30 5981 H 532.914 -4.00698 -5.69574 0
M  V30 5982 H 530.541 -4.6373 -6.02377 0
M  V30 5983 N 532.116 1.54067 -0.331816 0
M  V30 5984 C 533.026 2.28322 0.539104 0
M  V30 5985 C 534.042 1.32985 1.1221 0
M  V30 5986 O 535.218 1.6601 1.1403 0
M  V30 5987 C 532.283 3.03277 1.68 0
M  V30 5988 C 531.344 4.14216 1.12798 0
M  V30 5989 C 530.577 4.85588 2.2145 0
M  V30 5990 O 530.8 4.56536 3.41952 0
M  V30 5991 O 529.734 5.72309 1.86404 0
M  V30 5992 H 533.56 3.03632 -0.0641692 0
M  V30 5993 H 531.145 1.49083 -0.0972365 0
M  V30 5994 H 533.027 3.50189 2.34405 0
M  V30 5995 H 531.702 2.30834 2.2693 0
M  V30 5996 H 530.609 3.71635 0.428782 0
M  V30 5997 H 531.942 4.88727 0.583698 0
M  V30 5998 N 533.594 0.0601682 1.57485 0
M  V30 5999 C 534.843 -0.611101 1.9222 0
M  V30 6000 C 535.156 -1.71469 0.941159 0
M  V30 6001 O 536.362 -2.44473 1.18089 0
M  V30 6002 C 534.818 -1.13832 3.41424 0
M  V30 6003 C 534.426 -0.0663596 4.47951 0
M  V30 6004 C 536.17 -1.78432 3.85178 0
M  V30 6005 C 534.077 -0.606965 5.88277 0
M  V30 6006 H 533.007 -0.232033 0.71741 0
M  V30 6007 H 535.658 0.130518 1.83035 0
M  V30 6008 H 534.04 -1.93254 3.45643 0
M  V30 6009 H 535.214 0.707682 4.55333 0
M  V30 6010 H 533.529 0.482715 4.13593 0
M  V30 6011 H 536.126 -2.1989 4.87394 0
M  V30 6012 H 536.469 -2.63966 3.21913 0
M  V30 6013 H 537.002 -1.05651 3.83514 0
M  V30 6014 H 533.741 0.21095 6.5516 0
M  V30 6015 H 533.261 -1.34879 5.84438 0
M  V30 6016 H 534.94 -1.08704 6.37803 0
M  V30 6017 N 535.072 -1.5615 -0.213296 0
M  V30 6018 C 536.302 -1.83372 -0.951757 0
M  V30 6019 C 536.71 -0.638158 -1.78113 0
M  V30 6020 O 536.053 0.402609 -1.79234 0
M  V30 6021 C 536.115 -3.04444 -1.91192 0
M  V30 6022 C 535.779 -4.39107 -1.26627 0
M  V30 6023 C 536.776 -5.15794 -0.652087 0
M  V30 6024 C 534.461 -4.85834 -1.27556 0
M  V30 6025 C 536.455 -6.37376 -0.055814 0
M  V30 6026 C 534.142 -6.07356 -0.675451 0
M  V30 6027 C 535.14 -6.82967 -0.0666367 0
M  V30 6028 O 534.828 -8.0219 0.524119 0
M  V30 6029 H 534.56 -0.613398 -0.284111 0
M  V30 6030 H 537.114 -2.04096 -0.231112 0
M  V30 6031 H 535.344 -2.79559 -2.67178 0
M  V30 6032 H 537.033 -3.18466 -2.51662 0
M  V30 6033 H 537.799 -4.80796 -0.637172 0
M  V30 6034 H 533.678 -4.26949 -1.73883 0
M  V30 6035 H 537.222 -6.96334 0.420004 0
M  V30 6036 H 533.119 -6.41825 -0.687806 0
M  V30 6037 H 533.887 -8.17426 0.419243 0
M  V30 6038 N 536.55 0.480323 -1.50102 0
M  V30 6039 C 537.497 1.57946 -1.6829 0
M  V30 6040 C 538.467 1.57611 -0.524223 0
M  V30 6041 O 539.652 1.75282 -0.753709 0
M  V30 6042 C 536.792 2.95978 -1.77457 0
M  V30 6043 C 535.905 3.06173 -3.04766 0
M  V30 6044 C 535.04 4.35063 -3.04784 0
M  V30 6045 C 534.079 4.38966 -4.26586 0
M  V30 6046 N 533.216 5.59314 -4.24396 0
M  V30 6047 H 538.056 1.41743 -2.62131 0
M  V30 6048 H 535.593 0.689304 -1.2995 0
M  V30 6049 H 537.551 3.76011 -1.80752 0
M  V30 6050 H 536.181 3.10837 -0.870637 0
M  V30 6051 H 535.233 2.19071 -3.10986 0
M  V30 6052 H 536.545 3.04916 -3.9475 0
M  V30 6053 H 535.699 5.23436 -3.06757 0
M  V30 6054 H 534.438 4.38915 -2.12614 0
M  V30 6055 H 533.443 3.48992 -4.24835 0
M  V30 6056 H 534.668 4.36813 -5.19972 0
M  V30 6057 H 532.614 5.63969 -3.35074 0
M  V30 6058 H 532.531 5.5976 -5.08138 0
M  V30 6059 H 533.799 6.49837 -4.30502 0
M  V30 6060 N 538.028 1.39524 0.732853 0
M  V30 6061 C 539.258 1.3994 1.51988 0
M  V30 6062 C 539.666 -0.00727973 1.89199 0
M  V30 6063 O 539.009 -0.989521 1.54771 0
M  V30 6064 C 539.071 2.21026 2.83527 0
M  V30 6065 C 538.735 3.69633 2.68738 0
M  V30 6066 C 539.732 4.62665 2.37143 0
M  V30 6067 C 537.417 4.13244 2.85542 0
M  V30 6068 C 539.411 5.97291 2.22536 0
M  V30 6069 C 537.098 5.47945 2.70554 0
M  V30 6070 C 538.096 6.39783 2.39097 0
M  V30 6071 O 537.784 7.72002 2.24204 0
M  V30 6072 H 537.516 0.479795 0.476206 0
M  V30 6073 H 540.07 1.8399 0.913054 0
M  V30 6074 H 538.3 1.71728 3.46477 0
M  V30 6075 H 539.989 2.13594 3.45156 0
M  V30 6076 H 540.755 4.30272 2.2381 0
M  V30 6077 H 536.634 3.42094 3.09019 0
M  V30 6078 H 540.178 6.68939 1.97905 0
M  V30 6079 H 536.075 5.79928 2.83466 0
M  V30 6080 H 536.843 7.8275 2.39258 0
M  V30 6081 N 539.506 -0.963266 1.24736 0
M  V30 6082 C 540.736 -1.73913 1.11524 0
M  V30 6083 C 541.144 -1.86218 -0.334612 0
M  V30 6084 O 540.487 -1.3531 -1.24245 0
M  V30 6085 C 540.549 -3.17501 1.68622 0
M  V30 6086 C 540.213 -3.28655 3.17546 0
M  V30 6087 C 541.21 -3.13637 4.14642 0
M  V30 6088 C 538.895 -3.52753 3.5759 0
M  V30 6089 C 540.889 -3.2255 5.49764 0
M  V30 6090 C 538.576 -3.61303 4.92852 0
M  V30 6091 C 539.574 -3.46214 5.88748 0
M  V30 6092 O 539.262 -3.5443 7.2155 0
M  V30 6093 H 538.994 -0.552057 0.390139 0
M  V30 6094 H 541.548 -1.2177 1.65412 0
M  V30 6095 H 539.778 -3.70969 1.09172 0
M  V30 6096 H 541.467 -3.76914 1.50635 0
M  V30 6097 H 542.233 -2.94899 3.85045 0
M  V30 6098 H 538.112 -3.63561 2.83451 0
M  V30 6099 H 541.656 -3.1069 6.24594 0
M  V30 6100 H 537.553 -3.79556 5.22118 0
M  V30 6101 H 538.321 -3.71116 7.29531 0
M  V30 6102 N 540.985 -1.06182 -1.16461 0
M  V30 6103 C 541.917 -0.629584 -2.20383 0
M  V30 6104 C 542.93 0.311834 -1.59786 0
M  V30 6105 O 544.119 0.103 -1.78203 0
M  V30 6106 C 541.219 0.0973695 -3.3876 0
M  V30 6107 C 540.392 -0.857252 -4.28917 0
M  V30 6108 C 539.451 -0.169749 -5.25926 0
M  V30 6109 O 538.477 -0.807044 -5.6345 0
M  V30 6110 N 539.679 1.08911 -5.70192 0
M  V30 6111 H 542.444 -1.52352 -2.58087 0
M  V30 6112 H 540.005 -0.944993 -1.31459 0
M  V30 6113 H 541.997 0.567676 -4.00699 0
M  V30 6114 H 540.567 0.893093 -2.99571 0
M  V30 6115 H 539.787 -1.50696 -3.64259 0
M  V30 6116 H 541.075 -1.50489 -4.86035 0
M  V30 6117 H 540.473 1.62703 -5.41797 0
M  V30 6118 H 539.03 1.50331 -6.34227 0
M  V30 6119 N 542.463 1.3308 -0.844243 0
M  V30 6120 C 543.709 1.97898 -0.443206 0
M  V30 6121 C 544.042 1.66699 0.99625 0
M  V30 6122 O 543.317 0.949704 1.69738 0
M  V30 6123 C 543.6 3.53801 -0.670606 0
M  V30 6124 C 543.453 3.94667 -2.15772 0
M  V30 6125 C 544.772 4.39936 -0.120226 0
M  V30 6126 H 541.891 0.718861 -0.162504 0
M  V30 6127 H 544.533 1.57633 -1.06075 0
M  V30 6128 H 542.683 3.88229 -0.14496 0
M  V30 6129 H 544.355 3.70469 -2.74865 0
M  V30 6130 H 542.598 3.44203 -2.6402 0
M  V30 6131 H 543.269 5.03275 -2.26757 0
M  V30 6132 H 545.745 4.12183 -0.5696 0
M  V30 6133 H 544.621 5.4803 -0.308984 0
M  V30 6134 H 544.882 4.31184 0.976347 0
M  V30 6135 N 543.941 0.601185 1.45683 0
M  V30 6136 C 544.871 -0.108824 2.33246 0
M  V30 6137 C 545.852 -0.865223 1.46451 0
M  V30 6138 O 547.037 -0.83704 1.75235 0
M  V30 6139 C 544.167 -1.11101 3.2905 0
M  V30 6140 C 543.121 -0.468244 4.25431 0
M  V30 6141 C 542.447 -1.57822 5.10878 0
M  V30 6142 C 543.747 0.606469 5.18767 0
M  V30 6143 H 545.441 0.622306 2.92861 0
M  V30 6144 H 542.987 0.300714 1.40825 0
M  V30 6145 H 544.94 -1.61622 3.89174 0
M  V30 6146 H 543.664 -1.87265 2.67581 0
M  V30 6147 H 542.323 0.0160484 3.66596 0
M  V30 6148 H 541.971 -2.32998 4.45781 0
M  V30 6149 H 541.671 -1.15369 5.76163 0
M  V30 6150 H 543.195 -2.08583 5.73869 0
M  V30 6151 H 544.609 0.185589 5.73 0
M  V30 6152 H 543.006 0.952381 5.92494 0
M  V30 6153 H 544.076 1.48559 4.61582 0
M  V30 6154 N 545.419 -1.53889 0.339982 0
M  V30 6155 C 546.367 -2.26391 -0.533822 0
M  V30 6156 C 547.361 -1.28404 -1.10493 0
M  V30 6157 O 548.567 -1.46124 -1.05108 0
M  V30 6158 H 544.942 -0.727385 -0.190828 0
M  V30 6159 H 546.913 -2.98233 0.0997484 0
M  V30 6160 C 545.662 -3.04707 -1.67479 0
M  V30 6161 H 544.985 -3.79934 -1.2446 0
M  V30 6162 H 546.425 -3.58657 -2.26144 0
M  V30 6163 C 544.884 -2.13989 -2.60212 0
M  V30 6164 O 545.414 -1.73361 -3.62366 0
M  V30 6165 N 543.62 -1.79141 -2.28816 0
M  V30 6166 H 543.167 -2.12378 -1.45785 0
M  V30 6167 H 543.125 -1.18725 -2.91121 0
M  V30 6168 N 546.897 -0.0685191 -1.57451 0
M  V30 6169 C 547.827 0.89747 -2.15564 0
M  V30 6170 C 548.808 1.31266 -1.08181 0
M  V30 6171 O 549.993 1.38429 -1.36202 0
M  V30 6172 C 547.123 2.16623 -2.71463 0
M  V30 6173 C 546.077 1.89054 -3.83982 0
M  V30 6174 C 545.403 3.22532 -4.26471 0
M  V30 6175 C 546.703 1.1984 -5.08366 0
M  V30 6176 H 548.397 0.413373 -2.96533 0
M  V30 6177 H 545.943 0.197391 -1.42641 0
M  V30 6178 H 547.896 2.84614 -3.10761 0
M  V30 6179 H 546.62 2.67269 -1.8771 0
M  V30 6180 H 545.279 1.23469 -3.45183 0
M  V30 6181 H 544.927 3.71013 -3.39644 0
M  V30 6182 H 544.627 3.04879 -5.02317 0
M  V30 6183 H 546.151 3.91727 -4.68383 0
M  V30 6184 H 547.565 1.77896 -5.45001 0
M  V30 6185 H 545.962 1.12456 -5.89469 0
M  V30 6186 H 547.032 0.176996 -4.84577 0
M  V30 6187 N 548.375 1.56261 0.205012 0
M  V30 6188 C 549.622 1.8004 0.926927 0
M  V30 6189 C 549.95 0.640086 1.83666 0
M  V30 6190 O 549.205 -0.374702 1.92079 0
M  V30 6191 C 549.504 3.09722 1.78345 0
M  V30 6192 C 549.17 4.39082 1.02555 0
M  V30 6193 C 547.832 4.74226 0.816256 0
M  V30 6194 C 550.184 5.18877 0.491559 0
M  V30 6195 C 547.512 5.86668 0.0613287 0
M  V30 6196 C 549.864 6.32105 -0.250107 0
M  V30 6197 C 548.528 6.6584 -0.470508 0
M  V30 6198 H 547.798 0.658812 0.339187 0
M  V30 6199 H 550.445 1.90515 0.19395 0
M  V30 6200 H 548.75 2.9444 2.5848 0
M  V30 6201 H 550.447 3.25324 2.34446 0
M  V30 6202 H 547.037 4.11497 1.19868 0
M  V30 6203 H 551.221 4.92147 0.640684 0
M  V30 6204 H 546.477 6.11283 -0.119501 0
M  V30 6205 H 550.651 6.93157 -0.671307 0
M  V30 6206 H 548.278 7.5281 -1.05739 0
M  V30 6207 N 549.853 -0.472356 1.50355 0
M  V30 6208 C 550.8 -1.57051 1.69126 0
M  V30 6209 C 551.77 -1.5733 0.532574 0
M  V30 6210 O 552.955 -1.7488 0.762994 0
M  V30 6211 C 550.095 -2.95033 1.79024 0
M  V30 6212 C 549.208 -3.04552 3.06386 0
M  V30 6213 C 548.343 -4.33441 3.07087 0
M  V30 6214 C 547.382 -4.36697 4.28908 0
M  V30 6215 N 546.519 -5.57056 4.27356 0
M  V30 6216 H 551.359 -1.40351 2.62879 0
M  V30 6217 H 548.896 -0.682403 1.30314 0
M  V30 6218 H 550.854 -3.75048 1.82744 0
M  V30 6219 H 549.484 -3.10371 0.887109 0
M  V30 6220 H 548.536 -2.17419 3.12143 0
M  V30 6221 H 549.848 -3.02818 3.96362 0
M  V30 6222 H 549.002 -5.21801 3.09529 0
M  V30 6223 H 547.741 -4.37782 2.14939 0
M  V30 6224 H 546.746 -3.46734 4.2668 0
M  V30 6225 H 547.971 -4.34049 5.22282 0
M  V30 6226 H 545.917 -5.62184 3.3806 0
M  V30 6227 H 545.834 -5.57058 5.111 0
M  V30 6228 H 547.102 -6.47545 4.33942 0
M  V30 6229 N 551.331 -1.39911 -0.725443 0
M  V30 6230 C 552.608 -1.28158 -1.47766 0
M  V30 6231 C 552.988 0.104545 -2.10841 0
M  V30 6232 O 552.336 1.11657 -1.99361 0
M  V30 6233 C 552.546 -2.41306 -2.52135 0
M  V30 6234 C 553.894 -2.81076 -3.18247 0
M  V30 6235 O 554.918 -2.40827 -2.62452 0
M  V30 6236 O 553.777 -3.50581 -4.19231 0
M  V30 6237 H 550.871 -0.502761 -0.656628 0
M  V30 6238 H 553.417 -1.51808 -0.758456 0
M  V30 6239 H 552.189 -3.33932 -2.03974 0
M  V30 6240 H 551.812 -2.19374 -3.31603 0
M  V30 6241 N 552.809 0.956637 -1.25245 0
M  V30 6242 C 554.039 1.7332 -1.12445 0
M  V30 6243 C 554.447 1.86392 0.324732 0
M  V30 6244 O 553.79 1.35967 1.23526 0
M  V30 6245 C 553.852 3.16603 -1.70303 0
M  V30 6246 C 553.516 3.26966 -3.19284 0
M  V30 6247 C 554.513 3.11434 -4.16299 0
M  V30 6248 C 552.198 3.50851 -3.59456 0
M  V30 6249 C 554.192 3.1963 -5.51467 0
M  V30 6250 C 551.879 3.58684 -4.94761 0
M  V30 6251 C 552.877 3.43087 -5.90576 0
M  V30 6252 O 552.565 3.50598 -7.2342 0
M  V30 6253 H 552.297 0.549981 -0.393061 0
M  V30 6254 H 554.851 1.20892 -1.66055 0
M  V30 6255 H 553.081 3.70385 -1.11138 0
M  V30 6256 H 554.77 3.76109 -1.52632 0
M  V30 6257 H 555.536 2.92853 -3.86604 0
M  V30 6258 H 551.415 3.62053 -2.85375 0
M  V30 6259 H 554.959 3.07373 -6.26233 0
M  V30 6260 H 550.856 3.76782 -5.24124 0
M  V30 6261 H 551.624 3.67242 -7.31489 0
M  V30 6262 N 554.287 1.06798 1.15896 0
M  V30 6263 C 555.235 0.677525 2.22514 0
M  V30 6264 C 556.229 -0.308994 1.66558 0
M  V30 6265 O 557.435 -0.173308 1.79164 0
M  V30 6266 H 553.81 0.200994 0.724642 0
M  V30 6267 H 555.781 1.5865 2.52731 0
M  V30 6268 C 554.53 0.0854153 3.47595 0
M  V30 6269 H 553.853 0.835645 3.90969 0
M  V30 6270 H 555.293 -0.150199 4.23734 0
M  V30 6271 C 553.752 -1.1724 3.15843 0
M  V30 6272 O 554.282 -2.25965 3.32119 0
M  V30 6273 N 552.488 -1.07636 2.69931 0
M  V30 6274 H 552.035 -0.191559 2.56887 0
M  V30 6275 H 551.993 -1.91876 2.4906 0
M  V30 6276 N 555.766 -1.3263 0.851289 0
M  V30 6277 C 556.713 -2.28952 0.291469 0
M  V30 6278 C 557.683 -1.54897 -0.599676 0
M  V30 6279 O 558.868 -1.83137 -0.535305 0
M  V30 6280 C 556.008 -3.41206 -0.516992 0
M  V30 6281 C 555.121 -4.30148 0.399566 0
M  V30 6282 C 554.256 -5.29527 -0.4212 0
M  V30 6283 C 553.295 -6.10112 0.492969 0
M  V30 6284 N 552.432 -7.01499 -0.290414 0
M  V30 6285 H 557.272 -2.76228 1.11813 0
M  V30 6286 H 554.809 -1.35907 0.562826 0
M  V30 6287 H 556.767 -4.05005 -1.00132 0
M  V30 6288 H 555.397 -2.9509 -1.30851 0
M  V30 6289 H 554.449 -3.66959 1.00227 0
M  V30 6290 H 555.761 -4.8649 1.1013 0
M  V30 6291 H 554.915 -5.98914 -0.968832 0
M  V30 6292 H 553.654 -4.73794 -1.15632 0
M  V30 6293 H 552.659 -5.39632 1.05251 0
M  V30 6294 H 553.884 -6.6793 1.22664 0
M  V30 6295 H 551.83 -6.48199 -1.00868 0
M  V30 6296 H 551.747 -7.55178 0.352354 0
M  V30 6297 H 553.015 -7.75176 -0.819882 0
M  V30 6298 N 557.244 -0.608902 -1.45362 0
M  V30 6299 C 558.192 0.121639 -2.32282 0
M  V30 6300 C 559.186 0.858301 -1.46046 0
M  V30 6301 O 560.392 0.773718 -1.62523 0
M  V30 6302 H 556.767 0.058086 -0.749753 0
M  V30 6303 H 558.738 -0.629866 -2.91677 0
M  V30 6304 C 557.487 1.1047 -3.29684 0
M  V30 6305 H 556.81 0.547278 -3.96036 0
M  V30 6306 H 558.25 1.58576 -3.9323 0
M  V30 6307 C 556.709 2.17891 -2.56954 0
M  V30 6308 O 557.239 3.25652 -2.35189 0
M  V30 6309 N 555.445 1.93211 -2.17066 0
M  V30 6310 H 554.992 1.05584 -2.34967 0
M  V30 6311 H 554.95 2.6529 -1.68727 0
M  V30 6312 N 558.722 1.53707 -0.348139 0
M  V30 6313 C 559.95 2.05406 0.248224 0
M  V30 6314 C 560.365 1.22282 1.43849 0
M  V30 6315 O 559.722 0.259244 1.80649 0
M  V30 6316 C 559.773 3.55446 0.658793 0
M  V30 6317 O 559.494 4.35417 -0.484149 0
M  V30 6318 C 560.995 4.23335 1.31539 0
M  V30 6319 H 558.215 0.669344 0.0471075 0
M  V30 6320 H 560.759 1.98257 -0.501456 0
M  V30 6321 H 558.914 3.62803 1.35841 0
M  V30 6322 H 559.328 5.24268 -0.155949 0
M  V30 6323 H 560.802 5.29692 1.55338 0
M  V30 6324 H 561.279 3.75967 2.27036 0
M  V30 6325 H 561.885 4.20184 0.657683 0
M  V30 6326 N 560.2 0.0768682 1.57412 0
M  V30 6327 C 561.11 -0.903207 2.16516 0
M  V30 6328 C 562.126 -1.32341 1.12968 0
M  V30 6329 O 563.302 -1.39507 1.45258 0
M  V30 6330 C 560.367 -2.1508 2.71922 0
M  V30 6331 C 559.428 -1.78653 3.90361 0
M  V30 6332 C 558.661 -2.97465 4.43114 0
M  V30 6333 O 558.884 -4.11638 3.94854 0
M  V30 6334 O 557.818 -2.76987 5.3438 0
M  V30 6335 H 561.644 -0.430427 3.00634 0
M  V30 6336 H 559.229 -0.146485 1.4868 0
M  V30 6337 H 561.111 -2.8823 3.07411 0
M  V30 6338 H 559.786 -2.61446 1.9086 0
M  V30 6339 H 558.693 -1.0274 3.59716 0
M  V30 6340 H 560.026 -1.37066 4.7273 0
M  V30 6341 N 561.678 -1.56367 -0.196722 0
M  V30 6342 C 562.588 -1.97617 -1.2643 0
M  V30 6343 C 563.604 -0.883598 -1.49895 0
M  V30 6344 O 564.78 -1.18921 -1.62541 0
M  V30 6345 C 561.845 -2.30595 -2.58895 0
M  V30 6346 C 560.906 -3.53551 -2.43516 0
M  V30 6347 C 560.139 -3.84946 -3.69665 0
M  V30 6348 O 560.362 -3.17655 -4.73763 0
M  V30 6349 O 559.296 -4.78379 -3.65291 0
M  V30 6350 H 563.122 -2.88648 -0.944233 0
M  V30 6351 H 560.707 -1.43901 -0.401592 0
M  V30 6352 H 562.589 -2.52889 -3.37083 0
M  V30 6353 H 561.264 -1.42732 -2.90533 0
M  V30 6354 H 560.171 -3.36507 -1.63445 0
M  V30 6355 H 561.504 -4.41875 -2.16812 0
M  V30 6356 N 563.156 0.464375 -1.50603 0
M  V30 6357 C 564.103 1.56152 -1.69956 0
M  V30 6358 C 565.073 1.57046 -0.54091 0
M  V30 6359 O 566.258 1.74473 -0.772258 0
M  V30 6360 C 563.398 2.94079 -1.80586 0
M  V30 6361 C 562.511 3.02923 -3.07996 0
M  V30 6362 C 561.646 4.31806 -3.09382 0
M  V30 6363 C 560.685 4.34417 -4.31218 0
M  V30 6364 N 559.822 5.54782 -4.30304 0
M  V30 6365 H 564.662 1.38955 -2.6362 0
M  V30 6366 H 562.199 0.675482 -1.30674 0
M  V30 6367 H 564.157 3.74073 -1.8473 0
M  V30 6368 H 562.787 3.09896 -0.903556 0
M  V30 6369 H 561.839 2.1576 -3.13292 0
M  V30 6370 H 563.151 3.00712 -3.97962 0
M  V30 6371 H 562.305 5.20153 -3.12292 0
M  V30 6372 H 561.044 4.36636 -2.17257 0
M  V30 6373 H 560.049 3.44467 -4.28512 0
M  V30 6374 H 561.274 4.31273 -5.24576 0
M  V30 6375 H 559.22 5.60384 -3.41037 0
M  V30 6376 H 559.137 5.54339 -5.14047 0
M  V30 6377 H 560.405 6.45235 -4.3737 0
M  V30 6378 N 564.634 1.40294 0.718013 0
M  V30 6379 C 565.566 1.36281 1.84283 0
M  V30 6380 C 566.579 0.268621 1.60569 0
M  V30 6381 O 567.768 0.528798 1.70487 0
M  V30 6382 C 564.868 1.09741 3.2064 0
M  V30 6383 C 564.041 2.30767 3.71571 0
M  V30 6384 C 563.1 2.00424 4.86535 0
M  V30 6385 O 562.126 2.73268 4.99313 0
M  V30 6386 N 563.328 0.980724 5.72156 0
M  V30 6387 H 566.093 2.3322 1.88225 0
M  V30 6388 H 563.654 1.34616 0.899453 0
M  V30 6389 H 565.646 0.874322 3.95143 0
M  V30 6390 H 564.216 0.214771 3.11861 0
M  V30 6391 H 563.436 2.68921 2.88228 0
M  V30 6392 H 564.724 3.11455 4.02335 0
M  V30 6393 H 564.122 0.377375 5.6444 0
M  V30 6394 H 562.679 0.817538 6.46653 0
M  V30 6395 N 566.112 -0.949982 1.2575 0
M  V30 6396 C 567.342 -1.72721 1.13363 0
M  V30 6397 C 567.75 -1.86562 -0.314842 0
M  V30 6398 O 567.093 -1.36621 -1.22803 0
M  V30 6399 C 567.155 -3.15695 1.7198 0
M  V30 6400 C 566.819 -3.25268 3.21014 0
M  V30 6401 C 567.816 -3.09222 4.17945 0
M  V30 6402 C 565.501 -3.4894 3.61312 0
M  V30 6403 C 567.495 -3.16701 5.53154 0
M  V30 6404 C 565.182 -3.56055 4.96657 0
M  V30 6405 C 566.18 -3.3995 5.92387 0
M  V30 6406 O 565.868 -3.46757 7.25269 0
M  V30 6407 H 565.6 -0.547888 0.395973 0
M  V30 6408 H 568.154 -1.20009 1.66694 0
M  V30 6409 H 566.384 -3.69791 1.13101 0
M  V30 6410 H 568.073 -3.75295 1.54624 0
M  V30 6411 H 568.839 -2.90798 3.88151 0
M  V30 6412 H 564.718 -3.60534 2.87291 0
M  V30 6413 H 568.262 -3.04048 6.27854 0
M  V30 6414 H 564.159 -3.73997 5.26115 0
M  V30 6415 H 564.927 -3.63358 7.33426 0
M  V30 6416 N 567.59 -1.07411 -1.15328 0
M  V30 6417 C 568.5 -0.706438 -2.23711 0
M  V30 6418 C 569.516 0.282586 -1.7169 0
M  V30 6419 O 570.692 0.129066 -2.00986 0
M  V30 6420 C 567.757 -0.11048 -3.46524 0
M  V30 6421 C 566.818 -1.15282 -4.13532 0
M  V30 6422 C 566.051 -0.585205 -5.30482 0
M  V30 6423 O 566.274 0.598549 -5.67251 0
M  V30 6424 O 565.208 -1.33039 -5.87013 0
M  V30 6425 H 569.034 -1.61031 -2.57493 0
M  V30 6426 H 566.619 -0.847113 -1.23062 0
M  V30 6427 H 568.501 0.21957 -4.20828 0
M  V30 6428 H 567.176 0.766703 -3.14489 0
M  V30 6429 H 566.083 -1.53523 -3.41147 0
M  V30 6430 H 567.416 -2.00192 -4.49649 0
M  V30 6431 N 569.068 1.32177 -0.85831 0
M  V30 6432 C 570.015 2.28794 -0.303607 0
M  V30 6433 C 570.985 1.55213 0.591453 0
M  V30 6434 O 572.17 1.83418 0.525585 0
M  V30 6435 C 569.31 3.41475 0.49889 0
M  V30 6436 C 568.423 4.2993 -0.422373 0
M  V30 6437 C 567.558 5.29743 0.393111 0
M  V30 6438 C 566.597 6.09842 -0.525317 0
M  V30 6439 N 565.734 7.01643 0.253208 0
M  V30 6440 H 570.574 2.75631 -1.13276 0
M  V30 6441 H 568.111 1.35606 -0.570026 0
M  V30 6442 H 570.069 4.05531 0.979826 0
M  V30 6443 H 568.699 2.95779 1.29284 0
M  V30 6444 H 567.751 3.66422 -1.02171 0
M  V30 6445 H 569.063 4.85899 -1.12709 0
M  V30 6446 H 568.217 5.9942 0.937056 0
M  V30 6447 H 566.956 4.744 1.13117 0
M  V30 6448 H 565.961 5.39066 -1.08112 0
M  V30 6449 H 567.186 6.6727 -1.26205 0
M  V30 6450 H 565.132 6.48725 0.974295 0
M  V30 6451 H 565.049 7.54981 -0.392398 0
M  V30 6452 H 566.317 7.756 0.778761 0
M  V30 6453 N 570.547 0.616602 1.45037 0
M  V30 6454 C 571.796 0.112861 2.01384 0
M  V30 6455 C 572.109 -1.26758 1.48969 0
M  V30 6456 O 573.315 -1.86454 1.9735 0
M  V30 6457 C 571.771 0.151057 3.59583 0
M  V30 6458 C 571.379 1.53191 4.20995 0
M  V30 6459 C 573.123 -0.296974 4.2346 0
M  V30 6460 C 571.03 1.526 5.71373 0
M  V30 6461 H 569.96 0.0384254 0.75302 0
M  V30 6462 H 572.611 0.773262 1.66412 0
M  V30 6463 H 570.993 -0.57617 3.91786 0
M  V30 6464 H 572.167 2.28156 4.00352 0
M  V30 6465 H 570.482 1.92279 3.69348 0
M  V30 6466 H 573.079 -0.320712 5.33737 0
M  V30 6467 H 573.422 -1.32145 3.9477 0
M  V30 6468 H 573.955 0.377279 3.96007 0
M  V30 6469 H 570.694 2.52837 6.04776 0
M  V30 6470 H 570.214 0.819064 5.94181 0
M  V30 6471 H 571.893 1.25357 6.3474 0
M  V30 6472 N 572.025 -1.5352 0.356285 0
M  V30 6473 C 573.273 -2.00719 -0.235837 0
M  V30 6474 C 573.594 -1.24551 -1.5004 0
M  V30 6475 O 572.864 -0.356185 -1.92635 0
M  V30 6476 H 571.444 -0.741542 -0.0901366 0
M  V30 6477 H 574.106 -1.88887 0.480378 0
M  V30 6478 H 573.202 -3.08551 -0.469357 0
M  V30 6479 N 573.503 -0.0852151 -1.57369 0
M  V30 6480 C 574.453 0.88767 -2.10011 0
M  V30 6481 C 575.437 1.25021 -1.01285 0
M  V30 6482 O 576.629 1.22694 -1.27574 0
M  V30 6483 C 573.758 2.15037 -2.67608 0
M  V30 6484 C 572.844 1.81371 -3.83361 0
M  V30 6485 N 573.235 1.18216 -4.91791 0
M  V30 6486 C 571.533 2.11041 -3.92909 0
M  V30 6487 C 572.234 1.02941 -5.72519 0
M  V30 6488 N 571.21 1.54351 -5.21226 0
M  V30 6489 H 575.012 0.395279 -2.9123 0
M  V30 6490 H 572.526 0.11829 -1.61969 0
M  V30 6491 H 574.523 2.85667 -3.03644 0
M  V30 6492 H 573.183 2.64851 -1.8784 0
M  V30 6493 H 574.194 0.850168 -5.10874 0
M  V30 6494 H 570.871 2.63138 -3.24136 0
M  V30 6495 H 572.261 0.536298 -6.69756 0
M  V30 6496 N 574.981 1.5647 0.188427 0
M  V30 6497 C 575.891 1.98285 1.2538 0
M  V30 6498 C 576.907 0.891535 1.49424 0
M  V30 6499 O 578.083 1.19782 1.61908 0
M  V30 6500 C 575.148 2.31965 2.57669 0
M  V30 6501 C 574.209 3.54838 2.41638 0
M  V30 6502 C 573.442 3.86901 3.67618 0
M  V30 6503 O 573.665 3.20163 4.72072 0
M  V30 6504 O 572.599 4.80309 3.62749 0
M  V30 6505 H 576.425 2.89145 0.928912 0
M  V30 6506 H 574.01 1.44112 0.393955 0
M  V30 6507 H 575.892 2.54673 3.35737 0
M  V30 6508 H 574.567 1.44271 2.89771 0
M  V30 6509 H 573.474 3.37369 1.61658 0
M  V30 6510 H 574.807 4.43019 2.14465 0
M  V30 6511 N 576.459 -0.456382 1.50847 0
M  V30 6512 C 577.407 -1.57318 1.71329 0
M  V30 6513 C 578.401 -1.59187 0.579287 0
M  V30 6514 O 579.607 -1.6316 0.76018 0
M  V30 6515 H 575.982 -0.5223 0.541024 0
M  V30 6516 H 577.953 -1.3721 2.64983 0
M  V30 6517 C 576.702 -2.95142 1.83811 0
M  V30 6518 H 576.025 -2.94428 2.70467 0
M  V30 6519 H 577.465 -3.72702 2.02161 0
M  V30 6520 C 575.924 -3.31636 0.593224 0
M  V30 6521 O 576.454 -4.00852 -0.260898 0
M  V30 6522 N 574.66 -2.87205 0.442902 0
M  V30 6523 H 574.207 -2.31051 1.13901 0
M  V30 6524 H 574.165 -3.11986 -0.38884 0
M  V30 6525 N 577.937 -1.40673 -0.710563 0
M  V30 6526 C 579.183 -1.39428 -1.47267 0
M  V30 6527 C 579.516 0.00182129 -1.942 0
M  V30 6528 O 578.791 0.971387 -1.68506 0
M  V30 6529 C 579.074 -2.38812 -2.6952 0
M  V30 6530 C 578.927 -3.87467 -2.28449 0
M  V30 6531 C 580.246 -2.3566 -3.71689 0
M  V30 6532 H 577.365 -0.507768 -0.534173 0
M  V30 6533 H 580.007 -1.71843 -0.810547 0
M  V30 6534 H 578.157 -2.113 -3.26013 0
M  V30 6535 H 579.829 -4.25825 -1.77399 0
M  V30 6536 H 578.072 -4.03058 -1.60395 0
M  V30 6537 H 578.743 -4.5253 -3.16103 0
M  V30 6538 H 581.219 -2.6004 -3.24836 0
M  V30 6539 H 580.095 -3.07237 -4.54859 0
M  V30 6540 H 580.356 -1.36996 -4.20339 0
M  V30 6541 N 579.415 0.9433 -1.26252 0
M  V30 6542 C 580.831 1.21644 -1.03319 0
M  V30 6543 C 581.031 2.0003 0.242983 0
M  V30 6544 O 580.087 2.33838 0.952688 0
M  V30 6545 C 581.4 1.97978 -2.2633 0
M  V30 6546 C 582.948 2.10978 -2.31209 0
M  V30 6547 C 583.423 2.90713 -3.53907 0
M  V30 6548 N 584.914 2.98287 -3.54371 0
M  V30 6549 C 585.649 3.60406 -4.45976 0
M  V30 6550 N 585.145 4.24043 -5.47868 0
M  V30 6551 N 586.938 3.57658 -4.33633 0
M  V30 6552 H 579.089 0.419221 -2.08222 0
M  V30 6553 H 581.352 0.247995 -0.914988 0
M  V30 6554 H 581.058 1.47788 -3.19142 0
M  V30 6555 H 580.932 2.9865 -2.30408 0
M  V30 6556 H 583.319 2.6036 -1.38913 0
M  V30 6557 H 583.4 1.09575 -2.31143 0
M  V30 6558 H 583.044 2.42018 -4.46531 0
M  V30 6559 H 582.974 3.92367 -3.5122 0
M  V30 6560 H 585.465 2.53044 -2.80673 0
M  V30 6561 H 585.778 4.69334 -6.13959 0
M  V30 6562 H 584.123 4.22637 -5.51728 0
M  V30 6563 H 587.314 3.07134 -3.53251 0
M  V30 6564 H 587.487 4.05782 -5.05218 0
M  V30 6565 N 580.893 1.08022 1.14757 0
M  V30 6566 C 581.843 0.676345 2.17737 0
M  V30 6567 C 582.827 -0.302018 1.5804 0
M  V30 6568 O 584.019 -0.11466 1.76628 0
M  V30 6569 C 581.148 0.082984 3.432 0
M  V30 6570 C 580.234 1.0869 4.09936 0
M  V30 6571 N 580.625 2.26891 4.52055 0
M  V30 6572 C 578.923 0.921768 4.36371 0
M  V30 6573 C 579.624 2.90636 5.0389 0
M  V30 6574 N 578.6 2.18266 4.97856 0
M  V30 6575 H 582.402 1.5765 2.4804 0
M  V30 6576 H 579.916 0.954374 1.31398 0
M  V30 6577 H 581.913 -0.224289 4.16296 0
M  V30 6578 H 580.573 -0.812206 3.14378 0
M  V30 6579 H 581.584 2.6457 4.45223 0
M  V30 6580 H 578.261 0.0800499 4.17423 0
M  V30 6581 H 579.651 3.9104 5.46386 0
M  V30 6582 N 582.371 -1.3172 0.865308 0
M  V30 6583 C 583.281 -2.32394 0.320935 0
M  V30 6584 C 584.297 -1.64511 -0.566746 0
M  V30 6585 O 585.473 -1.95969 -0.464575 0
M  V30 6586 C 582.538 -3.43462 -0.472701 0
M  V30 6587 C 581.599 -4.27015 0.442385 0
M  V30 6588 C 580.832 -5.32779 -0.313469 0
M  V30 6589 O 581.055 -5.49158 -1.54214 0
M  V30 6590 O 579.989 -6.01015 0.326257 0
M  V30 6591 H 583.815 -2.80868 1.15528 0
M  V30 6592 H 581.4 -1.35535 0.628545 0
M  V30 6593 H 583.282 -4.11172 -0.922781 0
M  V30 6594 H 581.957 -2.97159 -1.28367 0
M  V30 6595 H 580.864 -3.62075 0.940866 0
M  V30 6596 H 582.197 -4.76871 1.21882 0
M  V30 6597 N 583.85 -0.624285 -1.44708 0
M  V30 6598 C 584.76 0.0861083 -2.34442 0
M  V30 6599 C 585.776 0.84291 -1.5222 0
M  V30 6600 O 586.952 0.796723 -1.84971 0
M  V30 6601 C 584.017 1.05999 -3.30099 0
M  V30 6602 C 583.077 0.303316 -4.28227 0
M  V30 6603 C 582.311 1.23081 -5.19314 0
M  V30 6604 O 582.534 2.46929 -5.14181 0
M  V30 6605 O 581.468 0.71883 -5.97592 0
M  V30 6606 H 585.293 -0.651756 -2.96624 0
M  V30 6607 H 582.879 -0.384493 -1.44368 0
M  V30 6608 H 584.76 1.62046 -3.88997 0
M  V30 6609 H 583.436 1.77859 -2.70459 0
M  V30 6610 H 582.343 -0.300033 -3.72895 0
M  V30 6611 H 583.676 -0.375123 -4.90768 0
M  V30 6612 N 585.328 1.53329 -0.364422 0
M  V30 6613 C 586.556 2.05657 0.226424 0
M  V30 6614 C 586.971 1.23801 1.42544 0
M  V30 6615 O 586.328 0.27839 1.80364 0
M  V30 6616 C 586.379 3.56125 0.621056 0
M  V30 6617 O 586.1 4.34879 -0.530304 0
M  V30 6618 C 587.601 4.24706 1.27041 0
M  V30 6619 H 584.821 0.669806 0.0400056 0
M  V30 6620 H 587.365 1.97714 -0.522456 0
M  V30 6621 H 585.52 3.64223 1.31985 0
M  V30 6622 H 585.934 5.24073 -0.211546 0
M  V30 6623 H 587.408 5.3131 1.49711 0
M  V30 6624 H 587.885 3.78354 2.23036 0
M  V30 6625 H 588.491 4.20858 0.613079 0
M  V30 6626 N 586.806 0.0935595 1.57322 0
M  V30 6627 C 588.031 -0.582324 1.99057 0
M  V30 6628 C 588.456 -1.61025 0.972242 0
M  V30 6629 O 587.814 -1.81202 -0.0594622 0
M  V30 6630 C 587.862 -1.20799 3.39765 0
M  V30 6631 O 586.966 -2.32382 3.40694 0
M  V30 6632 H 586.307 -0.147884 0.647323 0
M  V30 6633 H 588.837 0.174516 2.03854 0
M  V30 6634 H 588.847 -1.54966 3.77425 0
M  V30 6635 H 587.522 -0.454914 4.13405 0
M  V30 6636 H 586.099 -1.99845 3.14827 0
M  V30 6637 N 588.284 -1.56567 -0.180126 0
M  V30 6638 C 589.509 -1.85975 -0.918041 0
M  V30 6639 C 589.934 -0.678888 -1.75422 0
M  V30 6640 O 589.292 0.372168 -1.77439 0
M  V30 6641 C 589.34 -3.13731 -1.77779 0
M  V30 6642 O 588.444 -2.95335 -2.87838 0
M  V30 6643 H 587.785 -0.61196 -0.257683 0
M  V30 6644 H 590.315 -2.03798 -0.180923 0
M  V30 6645 H 590.325 -3.4491 -2.17948 0
M  V30 6646 H 589 -3.99293 -1.16352 0
M  V30 6647 H 587.577 -2.7549 -2.51316 0
M  V30 6648 N 589.762 0.448376 -1.51087 0
M  V30 6649 C 590.672 1.56882 -1.74428 0
M  V30 6650 C 591.688 1.62268 -0.62809 0
M  V30 6651 O 592.864 1.79716 -0.909075 0
M  V30 6652 C 589.929 2.92947 -1.85426 0
M  V30 6653 C 588.99 2.97766 -3.09247 0
M  V30 6654 C 588.223 4.27341 -3.19711 0
M  V30 6655 O 588.446 5.19112 -2.36387 0
M  V30 6656 O 587.38 4.38219 -4.12611 0
M  V30 6657 H 591.206 1.40104 -2.69452 0
M  V30 6658 H 588.791 0.630247 -1.35456 0
M  V30 6659 H 590.673 3.73719 -1.94709 0
M  V30 6660 H 589.348 3.09876 -0.935887 0
M  V30 6661 H 588.255 2.15989 -3.0545 0
M  V30 6662 H 589.588 2.8578 -4.00738 0
M  V30 6663 N 591.24 1.41047 0.703093 0
M  V30 6664 C 592.488 1.39723 1.4602 0
M  V30 6665 C 592.809 0.00461257 1.94999 0
M  V30 6666 O 592.079 -0.952292 1.71196 0
M  V30 6667 H 590.659 0.514281 0.541779 0
M  V30 6668 H 593.321 1.76217 0.832678 0
M  V30 6669 H 592.417 2.07982 2.32701 0
M  V30 6670 N 592.718 -0.936591 1.26751 0
M  V30 6671 C 593.666 -2.0573 1.08527 0
M  V30 6672 C 594.66 -1.69397 0.0108784 0
M  V30 6673 O 595.866 -1.79215 0.167915 0
M  V30 6674 H 592.241 -0.673691 0.334133 0
M  V30 6675 H 594.212 -2.1825 2.03493 0
M  V30 6676 C 592.961 -3.39738 0.739845 0
M  V30 6677 H 592.284 -3.68174 1.55845 0
M  V30 6678 H 593.724 -4.18955 0.652149 0
M  V30 6679 C 592.183 -3.32292 -0.555288 0
M  V30 6680 O 592.713 -3.68794 -1.59229 0
M  V30 6681 N 590.919 -2.85394 -0.54762 0
M  V30 6682 H 590.466 -2.55886 0.296667 0
M  V30 6683 H 590.424 -2.80795 -1.41427 0
M  V30 6684 N 594.196 -1.08629 -1.14182 0
M  V30 6685 C 595.106 -0.730126 -2.22949 0
M  V30 6686 C 596.122 0.26436 -1.7198 0
M  V30 6687 O 597.298 0.107742 -2.01112 0
M  V30 6688 C 594.363 -0.147227 -3.46387 0
M  V30 6689 C 593.424 -1.19662 -4.12286 0
M  V30 6690 C 592.657 -0.641437 -5.29831 0
M  V30 6691 O 592.88 0.538351 -5.67854 0
M  V30 6692 O 591.814 -1.39257 -5.85569 0
M  V30 6693 H 595.64 -1.63753 -2.55771 0
M  V30 6694 H 593.225 -0.860118 -1.22157 0
M  V30 6695 H 595.107 0.174923 -4.21037 0
M  V30 6696 H 593.782 0.733304 -3.15285 0
M  V30 6697 H 592.689 -1.57133 -3.395 0
M  V30 6698 H 594.022 -2.0495 -4.475 0
M  V30 6699 N 595.674 1.31259 -0.872281 0
M  V30 6700 C 596.622 2.30404 -0.318897 0
M  V30 6701 C 597.616 1.5962 0.567267 0
M  V30 6702 O 598.822 1.74204 0.453111 0
M  V30 6703 H 595.197 0.747243 -0.0844474 0
M  V30 6704 H 597.168 2.74549 -1.16899 0
M  V30 6705 C 595.917 3.44608 0.462683 0
M  V30 6706 H 595.24 3.99248 -0.209936 0
M  V30 6707 H 596.68 4.1609 0.815187 0
M  V30 6708 C 595.139 2.93456 1.65485 0
M  V30 6709 O 595.669 2.92418 2.75417 0
M  V30 6710 N 593.875 2.49628 1.48776 0
M  V30 6711 H 593.422 2.50671 0.593452 0
M  V30 6712 H 593.38 2.15759 2.28682 0
M  V30 6713 N 597.152 0.631951 1.44375 0
M  V30 6714 C 598.082 -0.0593243 2.33425 0
M  V30 6715 C 599.063 -0.833964 1.48253 0
M  V30 6716 O 600.248 -0.799682 1.76971 0
M  V30 6717 C 597.378 -1.04096 3.31333 0
M  V30 6718 C 596.332 -0.377899 4.26328 0
M  V30 6719 C 595.658 -1.4695 5.14111 0
M  V30 6720 C 596.958 0.716371 5.17364 0
M  V30 6721 H 598.652 0.684287 2.91475 0
M  V30 6722 H 596.198 0.330518 1.40156 0
M  V30 6723 H 598.151 -1.53331 3.92514 0
M  V30 6724 H 596.875 -1.81547 2.71493 0
M  V30 6725 H 595.534 0.0938054 3.6648 0
M  V30 6726 H 595.182 -2.2349 4.50623 0
M  V30 6727 H 594.882 -1.03121 5.78481 0
M  V30 6728 H 596.406 -1.96363 5.78164 0
M  V30 6729 H 597.82 0.307089 5.72477 0
M  V30 6730 H 596.217 1.07784 5.90341 0
M  V30 6731 H 597.287 1.58316 4.58327 0
M  V30 6732 N 598.631 -1.53133 0.372548 0
M  V30 6733 C 599.579 -2.27473 -0.485681 0
M  V30 6734 C 600.573 -1.30719 -1.07745 0
M  V30 6735 O 601.779 -1.48321 -1.01985 0
M  V30 6736 H 598.154 -0.731269 -0.175356 0
M  V30 6737 H 600.125 -2.97955 0.162986 0
M  V30 6738 C 598.874 -3.08191 -1.60978 0
M  V30 6739 H 598.197 -3.82488 -1.16373 0
M  V30 6740 H 599.637 -3.63373 -2.18485 0
M  V30 6741 C 598.096 -2.19461 -2.55614 0
M  V30 6742 O 598.626 -1.81008 -3.58607 0
M  V30 6743 N 596.832 -1.83955 -2.24965 0
M  V30 6744 H 596.379 -2.15423 -1.41247 0
M  V30 6745 H 596.337 -1.24874 -2.88538 0
M  V30 6746 N 600.109 -0.101901 -1.5727 0
M  V30 6747 C 601.525 0.254739 -1.57554 0
M  V30 6748 C 601.725 1.67937 -1.11352 0
M  V30 6749 O 600.781 2.39722 -0.793081 0
M  V30 6750 C 602.094 0.036975 -3.00677 0
M  V30 6751 C 603.642 0.104199 -3.12827 0
M  V30 6752 C 604.117 -0.0856565 -4.5792 0
M  V30 6753 N 605.608 -0.0310498 -4.6319 0
M  V30 6754 C 606.343 -0.153099 -5.73196 0
M  V30 6755 N 605.839 -0.330364 -6.92012 0
M  V30 6756 N 607.632 -0.0938854 -5.62022 0
M  V30 6757 H 599.783 -1.03263 -1.85609 0
M  V30 6758 H 602.046 -0.405251 -0.857016 0
M  V30 6759 H 601.752 -0.947254 -3.38703 0
M  V30 6760 H 601.626 0.776335 -3.69124 0
M  V30 6761 H 604.013 1.07894 -2.74669 0
M  V30 6762 H 604.094 -0.666762 -2.46957 0
M  V30 6763 H 603.738 -1.05729 -4.96773 0
M  V30 6764 H 603.668 0.705082 -5.21858 0
M  V30 6765 H 606.159 0.103141 -3.77759 0
M  V30 6766 H 606.472 -0.41482 -7.71686 0
M  V30 6767 H 604.817 -0.366119 -6.94035 0
M  V30 6768 H 608.008 0.0435168 -4.6808 0
M  V30 6769 H 608.181 -0.19245 -6.47714 0
M  V30 6770 N 601.587 1.56661 0.17182 0
M  V30 6771 C 602.535 1.97289 1.23207 0
M  V30 6772 C 603.529 0.861566 1.45854 0
M  V30 6773 O 604.735 1.04668 1.4644 0
M  V30 6774 H 601.11 0.627681 0.41415 0
M  V30 6775 H 603.081 2.85662 0.862542 0
M  V30 6776 C 601.83 2.34849 2.564 0
M  V30 6777 H 601.153 3.19903 2.39797 0
M  V30 6778 H 602.593 2.67121 3.29276 0
M  V30 6779 C 601.052 1.19172 3.15119 0
M  V30 6780 O 601.582 0.479113 3.98833 0
M  V30 6781 N 599.788 0.962415 2.74201 0
M  V30 6782 H 599.335 1.54365 2.06226 0
M  V30 6783 H 599.293 0.190272 3.13824 0
M  V30 6784 N 603.065 -0.440357 1.51323 0
M  V30 6785 C 604.293 -1.21255 1.67645 0
M  V30 6786 C 604.708 -1.85088 0.37252 0
M  V30 6787 O 604.065 -1.70582 -0.648683 0
M  V30 6788 C 604.116 -2.29881 2.78993 0
M  V30 6789 O 603.837 -1.68659 4.04334 0
M  V30 6790 C 605.338 -3.20214 3.06558 0
M  V30 6791 H 602.558 -0.36558 0.562666 0
M  V30 6792 H 605.102 -0.52214 1.97722 0
M  V30 6793 H 603.257 -2.94643 2.51524 0
M  V30 6794 H 603.671 -2.40426 4.6615 0
M  V30 6795 H 605.145 -3.92575 3.88058 0
M  V30 6796 H 605.622 -3.80794 2.18844 0
M  V30 6797 H 606.228 -2.61156 3.35675 0
M  V30 6798 N 604.543 -1.41418 -0.695603 0
M  V30 6799 C 605.49 -1.43264 -1.80954 0
M  V30 6800 C 606.46 -0.287016 -1.63601 0
M  V30 6801 O 607.645 -0.488054 -1.84452 0
M  V30 6802 C 604.785 -1.32054 -3.18835 0
M  V30 6803 C 603.898 -2.56485 -3.4762 0
M  V30 6804 C 603.033 -2.3757 -4.75115 0
M  V30 6805 C 602.072 -3.57477 -4.96867 0
M  V30 6806 N 601.209 -3.37632 -6.15588 0
M  V30 6807 H 606.049 -2.38467 -1.78711 0
M  V30 6808 H 603.586 -1.18415 -0.872715 0
M  V30 6809 H 605.544 -1.23558 -3.98484 0
M  V30 6810 H 604.174 -0.404592 -3.20254 0
M  V30 6811 H 603.226 -2.75432 -2.62376 0
M  V30 6812 H 604.538 -3.45678 -3.59594 0
M  V30 6813 H 603.692 -2.2654 -5.62818 0
M  V30 6814 H 602.431 -1.45834 -4.65386 0
M  V30 6815 H 601.436 -3.68961 -4.07612 0
M  V30 6816 H 602.661 -4.50167 -5.08455 0
M  V30 6817 H 600.607 -2.48596 -6.07072 0
M  V30 6818 H 600.524 -4.20401 -6.2833 0
M  V30 6819 H 601.792 -3.30375 -7.06026 0
M  V30 6820 N 606.021 0.929856 -1.27246 0
M  V30 6821 C 606.971 2.01629 -1.06442 0
M  V30 6822 C 607.955 1.60899 0.00687842 0
M  V30 6823 O 609.147 1.75733 -0.211407 0
M  V30 6824 C 606.276 3.35849 -0.711361 0
M  V30 6825 C 605.362 3.8303 -1.82069 0
M  V30 6826 N 605.753 4.02743 -3.05993 0
M  V30 6827 C 604.051 4.12046 -1.70687 0
M  V30 6828 C 604.752 4.42001 -3.78167 0
M  V30 6829 N 603.728 4.4935 -3.05918 0
M  V30 6830 H 607.53 2.14898 -2.00489 0
M  V30 6831 H 605.044 1.11654 -1.17929 0
M  V30 6832 H 607.041 4.13343 -0.543442 0
M  V30 6833 H 605.701 3.23944 0.221517 0
M  V30 6834 H 606.712 3.89112 -3.41778 0
M  V30 6835 H 603.389 4.08866 -0.844681 0
M  V30 6836 H 604.779 4.6535 -4.84664 0
M  V30 6837 N 607.499 1.09233 1.13605 0
M  V30 6838 C 608.447 0.724572 2.21027 0
M  V30 6839 C 609.441 -0.273595 1.67176 0
M  V30 6840 O 610.647 -0.135266 1.79491 0
M  V30 6841 H 607.022 0.216319 0.720215 0
M  V30 6842 H 608.993 1.63975 2.49309 0
M  V30 6843 C 607.742 0.159126 3.47336 0
M  V30 6844 H 607.065 0.918387 3.89109 0
M  V30 6845 H 608.505 -0.0602851 4.23957 0
M  V30 6846 C 606.964 -1.10514 3.18258 0
M  V30 6847 O 607.494 -2.18869 3.36837 0
M  V30 6848 N 605.7 -1.01886 2.72154 0
M  V30 6849 H 605.247 -0.137027 2.57235 0
M  V30 6850 H 605.205 -1.8655 2.53074 0
M  V30 6851 N 608.977 -1.30795 0.87923 0
M  V30 6852 C 609.925 -2.30231 0.331112 0
M  V30 6853 C 610.919 -1.59918 -0.558794 0
M  V30 6854 O 612.125 -1.74441 -0.443866 0
M  V30 6855 H 608.5 -0.746785 0.088409 0
M  V30 6856 H 610.471 -2.73925 1.18353 0
M  V30 6857 C 609.22 -3.44848 -0.444401 0
M  V30 6858 H 608.543 -3.99131 0.231106 0
M  V30 6859 H 609.983 -4.16516 -0.793109 0
M  V30 6860 C 608.442 -2.94329 -1.63926 0
M  V30 6861 O 608.972 -2.93875 -2.73862 0
M  V30 6862 N 607.178 -2.50413 -1.4745 0
M  V30 6863 H 606.725 -2.50982 -0.58015 0
M  V30 6864 H 606.683 -2.16969 -2.27534 0
M  V30 6865 N 610.455 -0.639598 -1.44038 0
M  V30 6866 C 611.732 -0.078012 -1.95444 0
M  V30 6867 C 612.112 1.39847 -1.58133 0
M  V30 6868 O 611.46 2.11714 -0.859614 0
M  V30 6869 C 611.67 -0.309832 -3.47622 0
M  V30 6870 C 613.018 -0.207521 -4.24093 0
M  V30 6871 O 614.042 -0.241653 -3.55379 0
M  V30 6872 O 612.901 -0.119641 -5.46369 0
M  V30 6873 H 609.995 0.0174534 -0.826816 0
M  V30 6874 H 612.541 -0.711891 -1.54046 0
M  V30 6875 H 611.313 -1.33401 -3.67858 0
M  V30 6876 H 610.936 0.357777 -3.95987 0
M  V30 6877 N 611.933 1.52934 -0.380664 0
M  V30 6878 C 612.881 2.27727 0.47361 0
M  V30 6879 C 613.875 1.31288 1.0705 0
M  V30 6880 O 615.081 1.4886 1.01197 0
M  V30 6881 H 611.456 0.732189 0.171475 0
M  V30 6882 H 613.427 2.97864 -0.178785 0
M  V30 6883 C 612.176 3.0904 1.59341 0
M  V30 6884 H 611.499 3.831 1.14343 0
M  V30 6885 H 612.939 3.64527 2.16555 0
M  V30 6886 C 611.398 2.20813 2.54447 0
M  V30 6887 O 611.928 1.82907 3.57642 0
M  V30 6888 N 610.134 1.85145 2.23986 0
M  V30 6889 H 609.681 2.16169 1.40103 0
M  V30 6890 H 609.639 1.26402 2.87871 0
M  V30 6891 N 613.412 0.11024 1.57214 0
M  V30 6892 C 614.36 -0.860586 2.16094 0
M  V30 6893 C 615.354 -1.28156 1.1078 0
M  V30 6894 O 616.56 -1.25433 1.29099 0
M  V30 6895 H 612.935 -0.295606 0.691463 0
M  V30 6896 H 614.906 -0.33942 2.96463 0
M  V30 6897 C 613.655 -2.10421 2.768 0
M  V30 6898 H 612.978 -1.7892 3.5753 0
M  V30 6899 H 614.418 -2.76375 3.21547 0
M  V30 6900 C 612.877 -2.88823 1.73444 0
M  V30 6901 O 613.407 -3.839 1.18251 0
M  V30 6902 N 611.613 -2.52649 1.43586 0
M  V30 6903 H 611.16 -1.754 1.8866 0
M  V30 6904 H 611.118 -3.05403 0.746735 0
M  V30 6905 N 614.89 -1.56749 -0.16351 0
M  V30 6906 C 615.838 -1.97939 -1.22159 0
M  V30 6907 C 616.832 -0.869288 -1.45395 0
M  V30 6908 O 618.038 -1.05443 -1.45883 0
M  V30 6909 H 614.413 -0.629869 -0.410815 0
M  V30 6910 H 616.384 -2.86115 -0.847381 0
M  V30 6911 C 615.133 -2.36206 -2.55151 0
M  V30 6912 H 614.456 -3.2117 -2.38097 0
M  V30 6913 H 615.896 -2.68863 -3.27854 0
M  V30 6914 C 614.355 -1.20841 -3.14482 0
M  V30 6915 O 614.885 -0.500258 -3.98573 0
M  V30 6916 N 613.091 -0.976943 -2.73686 0
M  V30 6917 H 612.638 -1.55457 -2.05404 0
M  V30 6918 H 612.596 -0.206912 -3.13718 0
M  V30 6919 N 616.368 0.432326 -1.51554 0
M  V30 6920 C 617.645 1.19288 -1.55015 0
M  V30 6921 C 618.025 2.08701 -0.317375 0
M  V30 6922 O 617.373 2.17602 0.697243 0
M  V30 6923 C 617.583 1.99037 -2.86679 0
M  V30 6924 C 618.931 2.55907 -3.38817 0
M  V30 6925 O 619.955 2.09243 -2.88263 0
M  V30 6926 O 618.814 3.41029 -4.27038 0
M  V30 6927 H 615.908 0.543369 -0.623441 0
M  V30 6928 H 618.454 0.440988 -1.6387 0
M  V30 6929 H 617.226 1.33397 -3.6786 0
M  V30 6930 H 616.849 2.81281 -2.8101 0
M  V30 6931 N 617.846 1.41785 0.688094 0
M  V30 6932 C 618.794 1.44436 1.82321 0
M  V30 6933 C 619.788 0.321544 1.6632 0
M  V30 6934 O 620.994 0.493931 1.73091 0
M  V30 6935 H 617.369 0.452084 0.600936 0
M  V30 6936 H 619.34 2.40087 1.77202 0
M  V30 6937 C 618.089 1.35071 3.20392 0
M  V30 6938 H 617.412 2.2076 3.33324 0
M  V30 6939 H 618.852 1.40988 3.99873 0
M  V30 6940 C 617.311 0.0639127 3.36839 0
M  V30 6941 O 617.841 -0.888495 3.91751 0
M  V30 6942 N 616.047 -0.0146114 2.90596 0
M  V30 6943 H 615.594 0.761191 2.46097 0
M  V30 6944 H 615.552 -0.874988 3.01979 0
M  V30 6945 N 619.324 -0.923095 1.27737 0
M  V30 6946 C 620.272 -2.04567 1.10703 0
M  V30 6947 C 621.266 -1.69375 0.0288445 0
M  V30 6948 O 622.472 -1.79027 0.186913 0
M  V30 6949 H 618.847 -0.670109 0.34126 0
M  V30 6950 H 620.818 -2.1608 2.05796 0
M  V30 6951 C 619.567 -3.38934 0.775837 0
M  V30 6952 H 618.89 -3.66501 1.59741 0
M  V30 6953 H 620.33 -4.18239 0.696548 0
M  V30 6954 C 618.789 -3.32863 -0.520012 0
M  V30 6955 O 619.319 -3.70462 -1.55308 0
M  V30 6956 N 617.525 -2.85958 -0.51732 0
M  V30 6957 H 617.072 -2.55557 0.32379 0
M  V30 6958 H 617.03 -2.82279 -1.38441 0
M  V30 6959 N 620.802 -1.09834 -1.13024 0
M  V30 6960 C 621.75 -0.736283 -2.20639 0
M  V30 6961 C 622.744 0.264725 -1.67319 0
M  V30 6962 O 623.95 0.125745 -1.7956 0
M  V30 6963 H 620.325 -0.220136 -0.719058 0
M  V30 6964 H 622.296 -1.65295 -2.48436 0
M  V30 6965 C 621.045 -0.177544 -3.47246 0
M  V30 6966 H 620.368 -0.939009 -3.88616 0
M  V30 6967 H 621.808 0.0378007 -4.23983 0
M  V30 6968 C 620.267 1.08824 -3.1884 0
M  V30 6969 O 620.797 2.1708 -3.37993 0
M  V30 6970 N 619.003 1.00442 -2.7269 0
M  V30 6971 H 618.55 0.123383 -2.57304 0
M  V30 6972 H 618.508 1.85206 -2.5406 0
M  V30 6973 N 622.28 1.30327 -0.886154 0
M  V30 6974 C 623.51 1.99964 -0.519421 0
M  V30 6975 C 623.918 1.66593 0.89686 0
M  V30 6976 O 623.261 0.899886 1.60149 0
M  V30 6977 C 623.323 3.54187 -0.615795 0
M  V30 6978 C 622.987 4.11078 -1.9966 0
M  V30 6979 C 623.984 4.26985 -2.96614 0
M  V30 6980 C 621.669 4.46429 -2.30231 0
M  V30 6981 C 623.663 4.77456 -4.22273 0
M  V30 6982 C 621.35 4.966 -3.56135 0
M  V30 6983 C 622.348 5.12066 -4.5197 0
M  V30 6984 O 622.036 5.61154 -5.7564 0
M  V30 6985 H 621.768 0.645979 -0.199217 0
M  V30 6986 H 624.322 1.67154 -1.19368 0
M  V30 6987 H 622.552 3.86528 0.115448 0
M  V30 6988 H 624.241 4.05065 -0.26017 0
M  V30 6989 H 625.007 3.99975 -2.74308 0
M  V30 6990 H 620.886 4.33658 -1.56404 0
M  V30 6991 H 624.43 4.89444 -4.97082 0
M  V30 6992 H 620.327 5.23045 -3.78277 0
M  V30 6993 H 621.095 5.79494 -5.78039 0
M  V30 6994 N 623.758 0.647228 1.43697 0
M  V30 6995 C 624.983 0.164083 2.0675 0
M  V30 6996 C 625.408 -1.15892 1.48158 0
M  V30 6997 O 624.766 -1.71459 0.589194 0
M  V30 6998 C 624.814 0.0800368 3.60511 0
M  V30 6999 O 623.918 -0.959453 4.01084 0
M  V30 7000 H 623.259 0.0921288 0.657578 0
M  V30 7001 H 625.789 0.88846 1.84303 0
M  V30 7002 H 625.799 -0.105263 4.07864 0
M  V30 7003 H 624.474 1.04586 4.02535 0
M  V30 7004 H 623.051 -0.747425 3.65333 0
M  V30 7005 N 625.236 -1.5273 0.388769 0
M  V30 7006 C 626.146 -2.30165 -0.453993 0
M  V30 7007 C 627.162 -1.37058 -1.07197 0
M  V30 7008 O 628.338 -1.70127 -1.0779 0
M  V30 7009 C 625.403 -3.09303 -1.56628 0
M  V30 7010 C 624.464 -4.18117 -0.973467 0
M  V30 7011 C 623.697 -4.93472 -2.03275 0
M  V30 7012 O 623.92 -4.68913 -3.24772 0
M  V30 7013 O 622.854 -5.78833 -1.65034 0
M  V30 7014 H 626.68 -3.03185 0.176816 0
M  V30 7015 H 624.265 -1.4862 0.152501 0
M  V30 7016 H 626.147 -3.58648 -2.21246 0
M  V30 7017 H 624.822 -2.39098 -2.18206 0
M  V30 7018 H 623.729 -3.7297 -0.290556 0
M  V30 7019 H 625.062 -4.90556 -0.401908 0
M  V30 7020 N 626.714 -0.118576 -1.57153 0
M  V30 7021 C 627.991 0.583062 -1.86708 0
M  V30 7022 C 628.371 1.84841 -1.01967 0
M  V30 7023 O 627.719 2.28288 -0.0984673 0
M  V30 7024 C 627.929 0.875912 -3.3783 0
M  V30 7025 C 629.277 1.22916 -4.0642 0
M  V30 7026 O 630.301 0.966188 -3.42846 0
M  V30 7027 O 629.16 1.72269 -5.18638 0
M  V30 7028 H 626.254 0.294185 -0.772906 0
M  V30 7029 H 628.8 -0.153048 -1.69008 0
M  V30 7030 H 627.572 -0.0207776 -3.91294 0
M  V30 7031 H 627.195 1.66719 -3.60958 0
M  V30 7032 N 628.193 1.56834 0.155195 0
M  V30 7033 C 629.156 1.96748 1.17571 0
M  V30 7034 C 630.156 0.853006 1.3631 0
M  V30 7035 O 631.346 1.11978 1.33441 0
M  V30 7036 C 628.478 2.27631 2.53765 0
M  V30 7037 H 629.671 2.88085 0.833498 0
M  V30 7038 H 627.224 1.51141 0.398242 0
M  V30 7039 H 627.959 1.39059 2.92973 0
M  V30 7040 H 627.744 3.0888 2.41527 0
M  V30 7041 H 629.234 2.59377 3.27282 0
M  V30 7042 N 629.671 -0.424282 1.51781 0
M  V30 7043 C 630.92 -1.16961 1.64326 0
M  V30 7044 C 631.233 -1.92035 0.371749 0
M  V30 7045 O 632.439 -2.68873 0.37676 0
M  V30 7046 C 630.895 -2.12782 2.90262 0
M  V30 7047 C 630.503 -1.43295 4.24465 0
M  V30 7048 C 632.247 -2.87667 3.12166 0
M  V30 7049 C 630.154 -2.37676 5.41538 0
M  V30 7050 H 629.084 -0.440293 0.612093 0
M  V30 7051 H 631.735 -0.435431 1.78259 0
M  V30 7052 H 630.117 -2.8969 2.69992 0
M  V30 7053 H 631.291 -0.718564 4.55163 0
M  V30 7054 H 629.606 -0.805118 4.08542 0
M  V30 7055 H 632.203 -3.58395 3.96808 0
M  V30 7056 H 632.546 -3.49758 2.25776 0
M  V30 7057 H 633.079 -2.17863 3.32837 0
M  V30 7058 H 629.818 -1.80255 6.30229 0
M  V30 7059 H 629.338 -3.07132 5.15199 0
M  V30 7060 H 631.017 -2.98529 5.74012 0
M  V30 7061 N 631.149 -1.42148 -0.680565 0
M  V30 7062 C 632.112 -1.4488 -1.77602 0
M  V30 7063 C 633.112 -0.337209 -1.57224 0
M  V30 7064 O 634.302 -0.597778 -1.63622 0
M  V30 7065 C 631.434 -1.27483 -3.16166 0
M  V30 7066 H 632.627 -2.42412 -1.76568 0
M  V30 7067 H 630.18 -1.28511 -0.889645 0
M  V30 7068 H 630.915 -0.30851 -3.22829 0
M  V30 7069 H 630.7 -2.08037 -3.3236 0
M  V30 7070 H 632.19 -1.32265 -3.96101 0
M  V30 7071 N 632.627 0.916307 -1.28225 0
M  V30 7072 C 633.537 2.05165 -1.13775 0
M  V30 7073 C 634.553 1.73879 -0.0649418 0
M  V30 7074 O 635.729 1.99531 -0.273722 0
M  V30 7075 C 632.794 3.37385 -0.798267 0
M  V30 7076 C 631.855 3.82296 -1.95316 0
M  V30 7077 C 631.088 5.08206 -1.62978 0
M  V30 7078 O 631.311 5.6781 -0.542948 0
M  V30 7079 O 630.245 5.48768 -2.47261 0
M  V30 7080 H 634.071 2.20273 -2.09078 0
M  V30 7081 H 631.656 1.0373 -1.07519 0
M  V30 7082 H 633.538 4.16773 -0.62278 0
M  V30 7083 H 632.213 3.23458 0.125139 0
M  V30 7084 H 631.12 3.03746 -2.18378 0
M  V30 7085 H 632.453 4.00782 -2.85718 0
M  V30 7086 N 634.105 1.10431 1.1244 0
M  V30 7087 C 635.035 0.775143 2.20258 0
M  V30 7088 C 636.016 -0.25186 1.68225 0
M  V30 7089 O 637.201 -0.117637 1.93843 0
M  V30 7090 C 634.331 0.206133 3.46688 0
M  V30 7091 C 633.285 1.16382 4.11873 0
M  V30 7092 C 632.611 0.456014 5.32752 0
M  V30 7093 C 633.911 2.5104 4.58013 0
M  V30 7094 H 635.605 1.67665 2.4805 0
M  V30 7095 H 633.151 0.807595 1.19222 0
M  V30 7096 H 635.104 -0.036291 4.21384 0
M  V30 7097 H 633.828 -0.730614 3.18323 0
M  V30 7098 H 632.487 1.39169 3.39157 0
M  V30 7099 H 632.135 -0.485203 5.00654 0
M  V30 7100 H 631.835 1.09466 5.77314 0
M  V30 7101 H 633.359 0.222135 6.10196 0
M  V30 7102 H 634.773 2.32401 5.24083 0
M  V30 7103 H 633.17 3.10789 5.13352 0
M  V30 7104 H 634.24 3.11039 3.71998 0
M  V30 7105 N 635.583 -1.29855 0.893053 0
M  V30 7106 C 636.513 -2.3035 0.382249 0
M  V30 7107 C 637.494 -1.61328 -0.539203 0
M  V30 7108 O 638.679 -1.88882 -0.451342 0
M  V30 7109 C 635.809 -3.45024 -0.396983 0
M  V30 7110 C 634.763 -4.258 0.433437 0
M  V30 7111 C 634.089 -5.32605 -0.472889 0
M  V30 7112 C 635.389 -4.94549 1.67984 0
M  V30 7113 H 637.083 -2.73325 1.22205 0
M  V30 7114 H 634.629 -1.314 0.589073 0
M  V30 7115 H 636.582 -4.14398 -0.765024 0
M  V30 7116 H 635.306 -3.00875 -1.2705 0
M  V30 7117 H 633.965 -3.58125 0.783723 0
M  V30 7118 H 633.613 -4.84702 -1.34435 0
M  V30 7119 H 633.313 -5.87547 0.0789958 0
M  V30 7120 H 634.837 -6.04832 -0.837269 0
M  V30 7121 H 636.251 -5.56395 1.38192 0
M  V30 7122 H 634.648 -5.59393 2.17254 0
M  V30 7123 H 635.718 -4.20215 2.41965 0
M  V30 7124 N 637.061 -0.65484 -1.43351 0
M  V30 7125 C 637.991 0.0221809 -2.33489 0
M  V30 7126 C 638.972 0.810272 -1.49561 0
M  V30 7127 O 640.157 0.771426 -1.78221 0
M  V30 7128 C 637.287 0.988117 -3.32947 0
M  V30 7129 C 636.241 0.310026 -4.26876 0
M  V30 7130 C 635.567 1.38752 -5.16384 0
M  V30 7131 C 636.867 -0.798589 -5.16159 0
M  V30 7132 H 638.561 -0.730571 -2.9035 0
M  V30 7133 H 636.107 -0.352773 -1.39612 0
M  V30 7134 H 638.06 1.47067 -3.94904 0
M  V30 7135 H 636.784 1.77205 -2.74346 0
M  V30 7136 H 635.443 -0.152097 -3.66284 0
M  V30 7137 H 635.091 2.16293 -4.54121 0
M  V30 7138 H 634.791 0.939051 -5.80048 0
M  V30 7139 H 636.315 1.87141 -5.81215 0
M  V30 7140 H 637.729 -0.398126 -5.71916 0
M  V30 7141 H 636.126 -1.17163 -5.88552 0
M  V30 7142 H 637.196 -1.65588 -4.55751 0
M  V30 7143 N 638.539 1.52521 -0.396863 0
M  V30 7144 C 639.764 2.06571 0.185258 0
M  V30 7145 C 640.189 1.26605 1.39115 0
M  V30 7146 O 639.547 0.293055 1.78916 0
M  V30 7147 C 639.595 3.5674 0.526189 0
M  V30 7148 O 638.699 3.7929 1.61903 0
M  V30 7149 H 638.04 0.663712 0.0195474 0
M  V30 7150 H 640.57 1.966 -0.566519 0
M  V30 7151 H 640.58 4.00311 0.788338 0
M  V30 7152 H 639.255 4.14379 -0.355397 0
M  V30 7153 H 637.832 3.47605 1.35 0
M  V30 7154 N 640.017 0.126909 1.57088 0
M  V30 7155 C 641.247 -0.535892 1.99529 0
M  V30 7156 C 641.655 -1.60259 1.00566 0
M  V30 7157 O 640.998 -1.83698 -0.00843269 0
M  V30 7158 C 641.06 -1.21374 3.38391 0
M  V30 7159 C 640.724 -0.294044 4.56053 0
M  V30 7160 C 641.721 0.470454 5.17767 0
M  V30 7161 C 639.406 -0.202808 5.0189 0
M  V30 7162 C 641.4 1.31384 6.23712 0
M  V30 7163 C 639.087 0.644203 6.07695 0
M  V30 7164 C 640.085 1.40115 6.68473 0
M  V30 7165 O 639.773 2.23408 7.72233 0
M  V30 7166 H 639.505 -0.145799 0.66009 0
M  V30 7167 H 642.059 0.212441 2.04298 0
M  V30 7168 H 640.289 -2.00931 3.30399 0
M  V30 7169 H 641.978 -1.77424 3.65069 0
M  V30 7170 H 642.744 0.409884 4.83265 0
M  V30 7171 H 638.623 -0.781688 4.54324 0
M  V30 7172 H 642.167 1.90514 6.71081 0
M  V30 7173 H 638.064 0.706137 6.41626 0
M  V30 7174 H 638.832 2.16436 7.89365 0
M  V30 7175 N 641.495 -1.56914 -0.146875 0
M  V30 7176 C 642.742 -1.83356 -0.859467 0
M  V30 7177 C 643.07 -0.707811 -1.81164 0
M  V30 7178 O 642.325 0.303155 -1.93338 0
M  V30 7179 C 642.624 -3.16128 -1.66727 0
M  V30 7180 C 642.29 -4.42586 -0.861881 0
M  V30 7181 C 640.952 -4.76929 -0.639687 0
M  V30 7182 C 643.304 -5.20344 -0.298643 0
M  V30 7183 C 640.632 -5.86491 0.156451 0
M  V30 7184 C 642.984 -6.30742 0.484536 0
M  V30 7185 C 641.648 -6.63635 0.717306 0
M  V30 7186 H 640.918 -0.670947 -0.314501 0
M  V30 7187 H 643.565 -1.91104 -0.123108 0
M  V30 7188 H 641.87 -3.03831 -2.47374 0
M  V30 7189 H 643.567 -3.33802 -2.2221 0
M  V30 7190 H 640.157 -4.15662 -1.04513 0
M  V30 7191 H 644.341 -4.94186 -0.457585 0
M  V30 7192 H 639.597 -6.10419 0.346292 0
M  V30 7193 H 643.771 -6.90188 0.928105 0
M  V30 7194 H 641.398 -7.48367 1.33607 0
M  V30 7195 N 642.974 0.416227 -1.52004 0
M  V30 7196 C 643.922 1.5272 -1.7544 0
M  V30 7197 C 644.916 1.57596 -0.621289 0
M  V30 7198 O 646.122 1.61087 -0.803172 0
M  V30 7199 H 642.497 0.507772 -0.554682 0
M  V30 7200 H 644.468 1.30136 -2.68528 0
M  V30 7201 C 643.217 2.90165 -1.91571 0
M  V30 7202 H 642.54 2.87154 -2.78178 0
M  V30 7203 H 643.98 3.67211 -2.11972 0
M  V30 7204 C 642.439 3.29947 -0.680942 0
M  V30 7205 O 642.969 4.01403 0.154527 0
M  V30 7206 N 641.175 2.8593 -0.518894 0
M  V30 7207 H 640.722 2.2795 -1.19986 0
M  V30 7208 H 640.68 3.12907 0.305985 0
M  V30 7209 N 644.452 1.42507 0.673017 0
M  V30 7210 C 645.698 1.43284 1.43519 0
M  V30 7211 C 646.031 0.049668 1.94136 0
M  V30 7212 O 645.306 -0.926369 1.71022 0
M  V30 7213 C 645.589 2.45874 2.63093 0
M  V30 7214 C 645.442 3.93388 2.18096 0
M  V30 7215 C 646.761 2.45431 3.6531 0
M  V30 7216 H 643.88 0.521752 0.520522 0
M  V30 7217 H 646.522 1.73932 0.764701 0
M  V30 7218 H 644.672 2.19869 3.20296 0
M  V30 7219 H 646.344 4.30379 1.66046 0
M  V30 7220 H 644.587 4.07169 1.49652 0
M  V30 7221 H 645.258 4.60752 3.03993 0
M  V30 7222 H 647.734 2.68561 3.17827 0
M  V30 7223 H 646.61 3.19189 4.46553 0
M  V30 7224 H 646.871 1.48092 4.16559 0
M  V30 7225 N 645.93 -0.909495 1.28709 0
M  V30 7226 C 647.177 -1.65905 1.16111 0
M  V30 7227 C 647.505 -1.92334 -0.289436 0
M  V30 7228 O 646.76 -1.52495 -1.22653 0
M  V30 7229 C 647.059 -3.02117 1.90945 0
M  V30 7230 C 646.725 -2.95332 3.40719 0
M  V30 7231 C 645.387 -2.93189 3.81567 0
M  V30 7232 C 647.739 -2.85264 4.36204 0
M  V30 7233 C 645.067 -2.78784 5.16233 0
M  V30 7234 C 647.419 -2.724 5.70948 0
M  V30 7235 C 646.083 -2.68617 6.11066 0
M  V30 7236 H 645.353 -0.60709 0.42488 0
M  V30 7237 H 648 -1.05932 1.59533 0
M  V30 7238 H 646.305 -3.65901 1.40085 0
M  V30 7239 H 648.002 -3.59026 1.7861 0
M  V30 7240 H 644.592 -2.97797 3.08245 0
M  V30 7241 H 648.776 -2.86005 4.05605 0
M  V30 7242 H 644.032 -2.74254 5.46438 0
M  V30 7243 H 648.206 -2.63579 6.44592 0
M  V30 7244 H 645.833 -2.57213 7.15364 0
M  V30 7245 N 647.408 -1.11026 -1.11852 0
M  V30 7246 C 648.638 -0.877544 -1.87037 0
M  V30 7247 C 649.046 0.575925 -1.80221 0
M  V30 7248 O 648.389 1.40916 -1.17849 0
M  V30 7249 C 648.451 -1.25529 -3.36872 0
M  V30 7250 C 648.115 -2.71704 -3.67459 0
M  V30 7251 C 649.112 -3.69931 -3.65304 0
M  V30 7252 C 646.797 -3.08243 -3.966 0
M  V30 7253 C 648.791 -5.02717 -3.9186 0
M  V30 7254 C 646.478 -4.41215 -4.22815 0
M  V30 7255 C 647.476 -5.38262 -4.20432 0
M  V30 7256 O 647.164 -6.68839 -4.45992 0
M  V30 7257 H 646.896 -0.314374 -0.598452 0
M  V30 7258 H 649.45 -1.48015 -1.42411 0
M  V30 7259 H 647.68 -0.595808 -3.82082 0
M  V30 7260 H 649.369 -0.999064 -3.93413 0
M  V30 7261 H 650.135 -3.43047 -3.42846 0
M  V30 7262 H 646.014 -2.33326 -3.97593 0
M  V30 7263 H 649.558 -5.78456 -3.89916 0
M  V30 7264 H 645.455 -4.67835 -4.44748 0
M  V30 7265 H 646.223 -6.74563 -4.63581 0
M  V30 7266 N 648.886 1.2938 -0.899927 0
M  V30 7267 C 650.297 1.77644 -0.574427 0
M  V30 7268 C 650.648 1.73824 0.909928 0
M  V30 7269 O 649.773 1.32429 1.71147 0
M  V30 7270 C 650.368 3.22573 -1.03595 0
M  V30 7271 C 648.927 3.68614 -0.76161 0
M  V30 7272 C 648.074 2.49483 -1.21052 0
M  V30 7273 H 651.025 1.16038 -1.08263 0
M  V30 7274 H 651.046 3.78684 -0.371337 0
M  V30 7275 H 650.558 3.25321 -2.11631 0
M  V30 7276 H 648.659 3.7134 0.306127 0
M  V30 7277 H 648.772 4.59402 -1.35965 0
M  V30 7278 H 647.136 2.46798 -0.629515 0
M  V30 7279 H 647.919 2.54959 -2.29893 0
M  V30 7280 N 650.364 0.662433 1.43002 0
M  V30 7281 C 651.613 0.176873 2.00923 0
M  V30 7282 C 651.926 -1.21954 1.52927 0
M  V30 7283 O 653.132 -1.80081 2.03182 0
M  V30 7284 C 651.588 0.265379 3.5892 0
M  V30 7285 C 651.196 1.66507 4.15908 0
M  V30 7286 C 652.94 -0.162103 4.2419 0
M  V30 7287 C 650.847 1.707 5.66229 0
M  V30 7288 H 649.777 0.0623627 0.751417 0
M  V30 7289 H 652.428 0.825813 1.63868 0
M  V30 7290 H 650.81 -0.451235 3.93421 0
M  V30 7291 H 651.984 2.40777 3.92891 0
M  V30 7292 H 650.299 2.03932 3.63044 0
M  V30 7293 H 652.896 -0.150745 5.34487 0
M  V30 7294 H 653.239 -1.19519 3.98774 0
M  V30 7295 H 653.772 0.503075 3.94606 0
M  V30 7296 H 650.511 2.7195 5.96426 0
M  V30 7297 H 650.031 1.00768 5.91275 0
M  V30 7298 H 651.71 1.45487 6.3043 0
M  V30 7299 N 651.842 -1.52309 0.404946 0
M  V30 7300 C 653.067 -2.06666 -0.1743 0
M  V30 7301 C 653.492 -1.27341 -1.38441 0
M  V30 7302 O 652.85 -0.302539 -1.78758 0
M  V30 7303 C 652.898 -3.57014 -0.507262 0
M  V30 7304 O 652.002 -3.80144 -1.59889 0
M  V30 7305 H 651.343 -0.663807 -0.0160273 0
M  V30 7306 H 653.873 -1.96297 0.576937 0
M  V30 7307 H 653.883 -4.00724 -0.767098 0
M  V30 7308 H 652.558 -4.14184 0.377368 0
M  V30 7309 H 651.135 -3.48316 -1.33155 0
M  V30 7310 N 653.32 -0.135238 -1.57019 0
M  V30 7311 C 654.548 0.526066 -2.001 0
M  V30 7312 C 654.963 1.59184 -1.01519 0
M  V30 7313 O 654.32 1.82497 -0.0104258 0
M  V30 7314 C 654.371 1.13744 -3.43139 0
M  V30 7315 O 654.092 0.114259 -4.37951 0
M  V30 7316 C 655.593 1.8805 -4.01438 0
M  V30 7317 H 652.813 0.137962 -0.656664 0
M  V30 7318 H 655.357 -0.226359 -2.03243 0
M  V30 7319 H 653.512 1.84056 -3.40885 0
M  V30 7320 H 653.926 0.56058 -5.21496 0
M  V30 7321 H 655.4 2.26133 -5.03555 0
M  V30 7322 H 655.877 2.76194 -3.41487 0
M  V30 7323 H 656.483 1.22464 -4.07287 0
M  V30 7324 N 654.798 1.5699 0.138552 0
M  V30 7325 C 656.038 1.85619 0.855849 0
M  V30 7326 C 656.402 0.720663 1.77962 0
M  V30 7327 O 657.603 0.888221 2.53701 0
M  V30 7328 C 655.874 3.19447 1.60275 0
M  V30 7329 S 657.433 3.69656 2.36431 0
M  V30 7330 H 654.251 0.650926 0.286035 0
M  V30 7331 H 656.853 1.9516 0.115331 0
M  V30 7332 H 655.557 4.00053 0.915737 0
M  V30 7333 H 655.088 3.12935 2.38402 0
M  V30 7334 H 657.103 3.39595 3.61787 0
M  V30 7335 N 656.276 -0.40816 1.52223 0
M  V30 7336 C 657.209 -1.51834 1.70357 0
M  V30 7337 C 658.187 -1.52973 0.551171 0
M  V30 7338 O 659.371 -1.71667 0.778642 0
M  V30 7339 C 656.498 -2.90362 1.74378 0
M  V30 7340 C 655.544 -3.0713 2.95928 0
M  V30 7341 S 656.377 -2.80342 4.56255 0
M  V30 7342 C 657.533 -4.21098 4.63063 0
M  V30 7343 H 657.766 -1.36223 2.64255 0
M  V30 7344 H 655.299 -0.599798 1.42274 0
M  V30 7345 H 657.257 -3.70199 1.77379 0
M  V30 7346 H 655.918 -3.03314 0.816063 0
M  V30 7347 H 655.111 -4.08482 2.95226 0
M  V30 7348 H 654.713 -2.3516 2.90819 0
M  V30 7349 H 657.005 -5.14749 4.40499 0
M  V30 7350 H 657.948 -4.26823 5.65002 0
M  V30 7351 H 658.356 -4.06114 3.92086 0
M  V30 7352 N 657.755 -1.42862 -0.66545 0
M  V30 7353 C 658.995 -1.45323 -1.43738 0
M  V30 7354 C 659.359 -0.0707969 -1.91869 0
M  V30 7355 O 660.56 0.0298852 -2.68783 0
M  V30 7356 C 658.831 -2.45671 -2.59577 0
M  V30 7357 S 660.39 -2.6691 -3.48288 0
M  V30 7358 H 657.208 -0.51442 -0.490809 0
M  V30 7359 H 659.81 -1.79537 -0.773745 0
M  V30 7360 H 658.514 -3.44869 -2.22471 0
M  V30 7361 H 658.045 -2.12914 -3.30804 0
M  V30 7362 H 660.06 -1.95914 -4.55886 0
M  V30 7363 N 659.233 0.902656 -1.29189 0
M  V30 7364 C 660.463 1.68394 -1.19695 0
M  V30 7365 C 660.871 1.87602 0.245384 0
M  V30 7366 O 660.214 1.41084 1.17648 0
M  V30 7367 C 660.276 3.09094 -1.83578 0
M  V30 7368 C 659.94 3.1313 -3.32864 0
M  V30 7369 C 660.937 2.93497 -4.29134 0
M  V30 7370 C 658.622 3.3529 -3.74013 0
M  V30 7371 C 660.616 2.95953 -5.64527 0
M  V30 7372 C 658.303 3.37377 -5.09529 0
M  V30 7373 C 659.301 3.1773 -6.04596 0
M  V30 7374 O 658.989 3.196 -7.37639 0
M  V30 7375 H 658.721 0.532815 -0.416034 0
M  V30 7376 H 661.275 1.1374 -1.71033 0
M  V30 7377 H 659.505 3.65338 -1.26747 0
M  V30 7378 H 661.194 3.69297 -1.68447 0
M  V30 7379 H 661.96 2.76192 -3.98677 0
M  V30 7380 H 657.839 3.49623 -3.00474 0
M  V30 7381 H 661.383 2.80536 -6.38706 0
M  V30 7382 H 657.28 3.54213 -5.39633 0
M  V30 7383 H 658.048 3.35887 -7.46406 0
M  V30 7384 N 660.711 1.11618 1.11262 0
M  V30 7385 C 661.936 0.889013 1.8738 0
M  V30 7386 C 662.361 -0.555884 1.79698 0
M  V30 7387 O 661.719 -1.39272 1.16073 0
M  V30 7388 C 661.767 1.35759 3.34069 0
M  V30 7389 O 660.871 0.530499 4.08974 0
M  V30 7390 H 660.212 0.320082 0.581759 0
M  V30 7391 H 662.742 1.48611 1.40627 0
M  V30 7392 H 662.752 1.35291 3.84916 0
M  V30 7393 H 661.427 2.40973 3.38976 0
M  V30 7394 H 660.004 0.601439 3.68018 0
M  V30 7395 N 662.189 -1.289 0.906776 0
M  V30 7396 C 663.438 -1.9455 0.532262 0
M  V30 7397 C 663.751 -1.72219 -0.927353 0
M  V30 7398 O 664.957 -2.32033 -1.40971 0
M  V30 7399 C 663.413 -3.48438 0.901041 0
M  V30 7400 C 663.021 -3.79558 2.37991 0
M  V30 7401 C 664.765 -4.20284 0.596777 0
M  V30 7402 C 662.672 -5.26723 2.68918 0
M  V30 7403 H 661.602 -0.728259 0.195333 0
M  V30 7404 H 664.253 -1.46519 1.10474 0
M  V30 7405 H 662.635 -3.95162 0.257419 0
M  V30 7406 H 663.809 -3.43668 3.06967 0
M  V30 7407 H 662.124 -3.20868 2.65391 0
M  V30 7408 H 664.721 -5.28612 0.8046 0
M  V30 7409 H 665.064 -4.13694 -0.465072 0
M  V30 7410 H 665.597 -3.79315 1.19855 0
M  V30 7411 H 662.336 -5.38384 3.73928 0
M  V30 7412 H 661.856 -5.63836 2.04571 0
M  V30 7413 H 663.535 -5.94391 2.55555 0
M  V30 7414 N 663.667 -0.670007 -1.42649 0
M  V30 7415 C 665.083 -0.33911 -1.55956 0
M  V30 7416 C 665.283 1.1558 -1.65056 0
M  V30 7417 O 664.339 1.94111 -1.61485 0
M  V30 7418 C 665.652 -1.06522 -2.812 0
M  V30 7419 C 667.2 -1.04708 -2.94966 0
M  V30 7420 C 667.675 -1.75442 -4.23065 0
M  V30 7421 N 669.166 -1.72286 -4.29967 0
M  V30 7422 C 669.901 -2.23877 -5.27889 0
M  V30 7423 N 669.397 -2.83829 -6.31991 0
M  V30 7424 N 671.19 -2.14279 -5.19654 0
M  V30 7425 H 663.341 -1.6399 -1.34986 0
M  V30 7426 H 665.604 -0.690603 -0.649439 0
M  V30 7427 H 665.31 -2.12033 -2.80597 0
M  V30 7428 H 665.184 -0.627398 -3.71946 0
M  V30 7429 H 667.571 -0.000315966 -2.951 0
M  V30 7430 H 667.652 -1.52374 -2.05465 0
M  V30 7431 H 667.296 -2.80084 -4.23693 0
M  V30 7432 H 667.226 -1.25229 -5.11493 0
M  V30 7433 H 669.717 -1.28554 -3.55362 0
M  V30 7434 H 670.03 -3.20827 -7.03057 0
M  V30 7435 H 668.375 -2.87896 -6.32567 0
M  V30 7436 H 671.566 -1.67135 -4.37245 0
M  V30 7437 H 671.739 -2.54792 -5.95806 0
M  V30 7438 N 665.145 1.52092 -0.413018 0
M  V30 7439 C 666.37 2.06756 0.163338 0
M  V30 7440 C 666.795 1.28073 1.37764 0
M  V30 7441 O 666.153 0.312015 1.78595 0
M  V30 7442 C 666.201 3.57278 0.488322 0
M  V30 7443 O 665.305 3.80986 1.57871 0
M  V30 7444 H 664.646 0.663882 0.0125068 0
M  V30 7445 H 667.176 1.95988 -0.587339 0
M  V30 7446 H 667.186 4.01125 0.745836 0
M  V30 7447 H 665.861 4.13978 -0.399327 0
M  V30 7448 H 664.438 3.49017 1.31306 0
M  V30 7449 N 666.623 0.143563 1.56945 0
M  V30 7450 C 667.57 -0.797433 2.16586 0
M  V30 7451 C 668.54 -1.24654 1.09775 0
M  V30 7452 O 669.725 -1.31968 1.37801 0
M  V30 7453 C 666.865 -2.03253 2.78895 0
M  V30 7454 C 665.978 -1.62954 4.00087 0
M  V30 7455 C 665.113 -2.81617 4.50406 0
M  V30 7456 C 664.152 -2.37675 5.64072 0
M  V30 7457 N 663.289 -3.49335 6.09023 0
M  V30 7458 H 668.129 -0.282023 2.96662 0
M  V30 7459 H 665.666 -0.127494 1.46546 0
M  V30 7460 H 667.624 -2.75653 3.13163 0
M  V30 7461 H 666.254 -2.52211 2.01469 0
M  V30 7462 H 665.306 -0.803322 3.71821 0
M  V30 7463 H 666.618 -1.26679 4.82446 0
M  V30 7464 H 665.772 -3.62212 4.86711 0
M  V30 7465 H 664.511 -3.21134 3.67048 0
M  V30 7466 H 663.516 -1.55519 5.27346 0
M  V30 7467 H 664.741 -1.99247 6.49213 0
M  V30 7468 H 662.687 -3.8848 5.28601 0
M  V30 7469 H 662.604 -3.17064 6.86299 0
M  V30 7470 H 663.872 -4.30297 6.49973 0
M  V30 7471 N 668.101 -1.57061 -0.130224 0
M  V30 7472 C 669.051 -1.95941 -1.16582 0
M  V30 7473 C 670.035 -0.832858 -1.37667 0
M  V30 7474 O 671.227 -1.09647 -1.38948 0
M  V30 7475 C 668.356 -2.35777 -2.49528 0
M  V30 7476 C 667.442 -3.5504 -2.31964 0
M  V30 7477 N 667.833 -4.71071 -1.84189 0
M  V30 7478 C 666.131 -3.60453 -2.62659 0
M  V30 7479 C 666.832 -5.53128 -1.80068 0
M  V30 7480 N 665.808 -4.95303 -2.24001 0
M  V30 7481 H 669.61 -2.83117 -0.788806 0
M  V30 7482 H 667.124 -1.58842 -0.3381 0
M  V30 7483 H 669.121 -2.61843 -3.24413 0
M  V30 7484 H 667.781 -1.49961 -2.87996 0
M  V30 7485 H 668.792 -4.94504 -1.53903 0
M  V30 7486 H 665.469 -2.85217 -3.0489 0
M  V30 7487 H 666.859 -6.56182 -1.4448 0
M  V30 7488 N 669.579 0.400081 -1.52437 0
M  V30 7489 C 670.489 1.51253 -1.79331 0
M  V30 7490 C 671.505 1.60188 -0.679396 0
M  V30 7491 O 672.681 1.76733 -0.965791 0
M  V30 7492 C 669.746 2.869 -1.94652 0
M  V30 7493 C 668.807 2.87777 -3.18564 0
M  V30 7494 C 668.04 4.16954 -3.33145 0
M  V30 7495 O 668.263 5.11329 -2.52783 0
M  V30 7496 O 667.197 4.2487 -4.26343 0
M  V30 7497 H 671.023 1.31461 -2.73773 0
M  V30 7498 H 668.608 0.586834 -1.37392 0
M  V30 7499 H 670.49 3.67336 -2.065 0
M  V30 7500 H 669.165 3.06741 -1.034 0
M  V30 7501 H 668.072 2.06162 -3.12167 0
M  V30 7502 H 669.405 2.72886 -4.09627 0
M  V30 7503 N 671.057 1.43213 0.657864 0
M  V30 7504 C 672.282 1.48227 1.45064 0
M  V30 7505 C 672.707 0.0999939 1.87834 0
M  V30 7506 O 672.065 -0.905269 1.57081 0
M  V30 7507 C 672.113 2.42931 2.6649 0
M  V30 7508 O 671.217 1.91237 3.6538 0
M  V30 7509 H 670.558 0.501551 0.435135 0
M  V30 7510 H 673.088 1.8808 0.805431 0
M  V30 7511 H 673.098 2.6008 3.1436 0
M  V30 7512 H 671.773 3.43348 2.34701 0
M  V30 7513 H 670.35 1.83726 3.24498 0
M  V30 7514 N 672.536 -0.895792 1.29666 0
M  V30 7515 C 673.466 -2.01673 1.17688 0
M  V30 7516 C 674.447 -1.69955 0.0701317 0
M  V30 7517 O 675.632 -1.9258 0.250289 0
M  V30 7518 C 672.762 -3.36568 0.856681 0
M  V30 7519 C 671.716 -3.82509 1.92017 0
M  V30 7520 C 671.042 -5.14574 1.4532 0
M  V30 7521 C 672.342 -4.02409 3.32963 0
M  V30 7522 H 674.036 -2.11953 2.11463 0
M  V30 7523 H 671.582 -1.01839 1.01807 0
M  V30 7524 H 673.535 -4.14498 0.759577 0
M  V30 7525 H 672.259 -3.26391 -0.116763 0
M  V30 7526 H 670.918 -3.068 2.00673 0
M  V30 7527 H 670.566 -5.00815 0.468325 0
M  V30 7528 H 670.266 -5.46283 2.16447 0
M  V30 7529 H 671.79 -5.9504 1.36968 0
M  V30 7530 H 673.204 -4.70808 3.27127 0
M  V30 7531 H 671.601 -4.45478 4.02082 0
M  V30 7532 H 672.671 -3.06616 3.75652 0
M  V30 7533 N 674.014 -1.12206 -1.10668 0
M  V30 7534 C 674.947 -0.731468 -2.16159 0
M  V30 7535 C 675.925 0.276216 -1.60237 0
M  V30 7536 O 677.109 0.17074 -1.87725 0
M  V30 7537 C 674.236 -0.0822882 -3.386 0
M  V30 7538 C 673.282 -1.05641 -4.1321 0
M  V30 7539 S 674.115 -2.58281 -4.69096 0
M  V30 7540 C 675.271 -1.94686 -5.94851 0
M  V30 7541 H 675.504 -1.62504 -2.48957 0
M  V30 7542 H 673.037 -0.940906 -1.22419 0
M  V30 7543 H 674.995 0.285896 -4.09503 0
M  V30 7544 H 673.656 0.788358 -3.04046 0
M  V30 7545 H 672.849 -0.549764 -5.00993 0
M  V30 7546 H 672.451 -1.36741 -3.48106 0
M  V30 7547 H 674.743 -1.28815 -6.65141 0
M  V30 7548 H 675.686 -2.80499 -6.50174 0
M  V30 7549 H 676.094 -1.40369 -5.46769 0
M  V30 7550 N 675.492 1.28418 -0.913599 0
M  V30 7551 C 676.769 1.89977 -0.465619 0
M  V30 7552 C 677.149 1.82813 1.05559 0
M  V30 7553 O 676.497 1.26397 1.90358 0
M  V30 7554 C 676.707 3.34492 -0.995813 0
M  V30 7555 C 678.055 4.11468 -1.04782 0
M  V30 7556 O 679.079 3.43451 -0.944445 0
M  V30 7557 O 677.938 5.33046 -1.20518 0
M  V30 7558 H 675.032 0.813734 -0.147532 0
M  V30 7559 H 677.578 1.36786 -1.00437 0
M  V30 7560 H 676.35 3.33929 -2.03978 0
M  V30 7561 H 675.973 3.95181 -0.437878 0
M  V30 7562 N 676.97 0.677563 1.42291 0
M  V30 7563 C 678.2 0.209155 2.05539 0
M  V30 7564 C 678.608 -1.13987 1.51009 0
M  V30 7565 O 677.951 -1.71976 0.645764 0
M  V30 7566 C 678.013 0.0697758 3.59432 0
M  V30 7567 C 677.677 1.34795 4.36668 0
M  V30 7568 C 678.674 2.28201 4.67141 0
M  V30 7569 C 676.359 1.59632 4.76259 0
M  V30 7570 C 678.353 3.44718 5.36142 0
M  V30 7571 C 676.04 2.76437 5.45 0
M  V30 7572 C 677.038 3.68805 5.74867 0
M  V30 7573 O 676.726 4.83567 6.42198 0
M  V30 7574 H 676.458 0.0986202 0.668768 0
M  V30 7575 H 679.012 0.925483 1.83368 0
M  V30 7576 H 677.242 -0.702157 3.80272 0
M  V30 7577 H 678.931 -0.359115 4.04308 0
M  V30 7578 H 679.697 2.10264 4.37052 0
M  V30 7579 H 675.576 0.886073 4.52404 0
M  V30 7580 H 679.12 4.16833 5.59371 0
M  V30 7581 H 675.017 2.94299 5.74507 0
M  V30 7582 H 675.785 4.83147 6.6069 0
M  V30 7583 N 678.448 -1.51871 0.421078 0
M  V30 7584 C 679.725 -1.9447 -0.20993 0
M  V30 7585 C 680.105 -1.35875 -1.61558 0
M  V30 7586 O 679.453 -0.539294 -2.22045 0
M  V30 7587 C 679.663 -3.48402 -0.204165 0
M  V30 7588 C 681.011 -4.2254 -0.417696 0
M  V30 7589 O 682.035 -3.55074 -0.282999 0
M  V30 7590 O 680.894 -5.422 -0.684239 0
M  V30 7591 H 677.988 -0.815283 -0.138718 0
M  V30 7592 H 680.534 -1.62832 0.477884 0
M  V30 7593 H 679.306 -3.83464 0.779183 0
M  V30 7594 H 678.929 -3.86436 -0.935576 0
M  V30 7595 N 679.926 -0.151884 -1.56866 0
M  V30 7596 C 680.873 0.785936 -2.17006 0
M  V30 7597 C 681.843 1.2407 -1.10435 0
M  V30 7598 O 683.028 1.31235 -1.38499 0
M  V30 7599 C 680.168 2.01771 -2.79969 0
M  V30 7600 C 679.281 1.6083 -4.00946 0
M  V30 7601 C 678.416 2.79224 -4.51893 0
M  V30 7602 C 677.455 2.3468 -5.65324 0
M  V30 7603 N 676.592 3.461 -6.10867 0
M  V30 7604 H 681.432 0.266286 -2.96808 0
M  V30 7605 H 678.969 0.11972 -1.46612 0
M  V30 7606 H 680.927 2.73989 -3.14621 0
M  V30 7607 H 679.557 2.51139 -2.02803 0
M  V30 7608 H 678.609 0.783592 -3.72242 0
M  V30 7609 H 679.921 1.24119 -4.83111 0
M  V30 7610 H 679.075 3.59625 -4.88625 0
M  V30 7611 H 677.814 3.19183 -3.68746 0
M  V30 7612 H 676.819 1.52721 -5.28163 0
M  V30 7613 H 678.044 1.95801 -6.5026 0
M  V30 7614 H 675.99 3.85671 -5.30654 0
M  V30 7615 H 675.907 3.1342 -6.87971 0
M  V30 7616 H 677.175 4.26844 -6.52246 0
M  V30 7617 N 681.404 1.57128 0.121893 0
M  V30 7618 C 682.634 1.88609 0.843227 0
M  V30 7619 C 683.042 0.740917 1.74089 0
M  V30 7620 O 682.385 -0.297426 1.81276 0
M  V30 7621 C 682.447 3.15073 1.73117 0
M  V30 7622 C 682.111 4.45742 1.0081 0
M  V30 7623 C 683.108 5.18719 0.350255 0
M  V30 7624 C 680.793 4.92444 0.99014 0
M  V30 7625 C 682.787 6.36617 -0.315889 0
M  V30 7626 C 680.474 6.10261 0.320196 0
M  V30 7627 C 681.472 6.82194 -0.331666 0
M  V30 7628 O 681.16 7.97769 -0.990927 0
M  V30 7629 H 680.892 0.628919 0.247865 0
M  V30 7630 H 683.446 2.05096 0.111725 0
M  V30 7631 H 681.676 2.9466 2.50424 0
M  V30 7632 H 683.365 3.32597 2.32667 0
M  V30 7633 H 684.131 4.83693 0.35577 0
M  V30 7634 H 680.01 4.36361 1.48695 0
M  V30 7635 H 683.554 6.92701 -0.825272 0
M  V30 7636 H 679.451 6.44743 0.312433 0
M  V30 7637 H 680.219 8.13591 -0.895113 0
M  V30 7638 N 682.882 -0.391992 1.52647 0
M  V30 7639 C 683.832 -1.47815 1.73594 0
M  V30 7640 C 684.816 -1.49693 0.589979 0
M  V30 7641 O 686.008 -1.5538 0.847701 0
M  V30 7642 C 683.137 -2.85561 1.90551 0
M  V30 7643 C 682.223 -2.88264 3.1107 0
M  V30 7644 N 682.614 -2.60642 4.33474 0
M  V30 7645 C 680.912 -3.19432 3.11254 0
M  V30 7646 C 681.613 -2.70351 5.15058 0
M  V30 7647 N 680.589 -3.03956 4.50679 0
M  V30 7648 H 684.391 -1.2528 2.65861 0
M  V30 7649 H 681.905 -0.599907 1.50913 0
M  V30 7650 H 683.902 -3.63759 2.03678 0
M  V30 7651 H 682.562 -3.09081 0.994952 0
M  V30 7652 H 683.573 -2.34718 4.61658 0
M  V30 7653 H 680.25 -3.48436 2.29997 0
M  V30 7654 H 681.64 -2.52565 6.22624 0
M  V30 7655 N 684.36 -1.4356 -0.65026 0
M  V30 7656 C 685.293 -1.434 -1.77515 0
M  V30 7657 C 686.271 -0.295082 -1.599 0
M  V30 7658 O 687.455 -0.489128 -1.82043 0
M  V30 7659 C 684.582 -1.2484 -3.14853 0
M  V30 7660 C 683.628 -2.42046 -3.51163 0
M  V30 7661 S 684.461 -4.04595 -3.50803 0
M  V30 7662 C 685.617 -3.88424 -4.90793 0
M  V30 7663 H 685.85 -2.38586 -1.77381 0
M  V30 7664 H 683.383 -1.30627 -0.823169 0
M  V30 7665 H 685.341 -1.14819 -3.94115 0
M  V30 7666 H 684.002 -0.311977 -3.12547 0
M  V30 7667 H 683.195 -2.24873 -4.51052 0
M  V30 7668 H 682.797 -2.48708 -2.79321 0
M  V30 7669 H 685.089 -3.50932 -5.79528 0
M  V30 7670 H 686.032 -4.88076 -5.13018 0
M  V30 7671 H 686.44 -3.20829 -4.64467 0
M  V30 7672 N 685.838 0.888903 -1.30139 0
M  V30 7673 C 687.087 1.63507 -1.18103 0
M  V30 7674 C 687.4 1.93808 0.264141 0
M  V30 7675 O 688.606 2.66744 0.505966 0
M  V30 7676 C 687.062 2.94673 -2.0663 0
M  V30 7677 C 686.67 2.71926 -3.56034 0
M  V30 7678 C 688.414 3.72626 -2.03346 0
M  V30 7679 C 686.321 3.98884 -4.3663 0
M  V30 7680 H 685.251 0.613426 -0.438435 0
M  V30 7681 H 687.902 0.984427 -1.54859 0
M  V30 7682 H 686.284 3.61009 -1.62754 0
M  V30 7683 H 687.458 2.14116 -4.08033 0
M  V30 7684 H 685.773 2.07353 -3.61101 0
M  V30 7685 H 688.37 4.66775 -2.60816 0
M  V30 7686 H 688.713 4.03712 -1.016 0
M  V30 7687 H 689.246 3.13147 -2.45324 0
M  V30 7688 H 685.985 3.72959 -5.39056 0
M  V30 7689 H 685.505 4.56214 -3.89396 0
M  V30 7690 H 687.184 4.66938 -4.47859 0
M  V30 7691 N 687.317 1.12792 1.10072 0
M  V30 7692 C 688.265 0.794523 2.18609 0
M  V30 7693 C 689.259 -0.220271 1.67962 0
M  V30 7694 O 690.465 -0.0780938 1.79831 0
M  V30 7695 H 686.84 0.239123 0.712969 0
M  V30 7696 H 688.811 1.71823 2.43966 0
M  V30 7697 C 687.56 0.269548 3.46654 0
M  V30 7698 H 686.883 1.04171 3.8599 0
M  V30 7699 H 688.323 0.0746242 4.23934 0
M  V30 7700 C 686.782 -1.00333 3.21613 0
M  V30 7701 O 687.312 -2.08042 3.4363 0
M  V30 7702 N 685.518 -0.931763 2.75257 0
M  V30 7703 H 685.065 -0.0551197 2.57541 0
M  V30 7704 H 685.023 -1.78405 2.58881 0
M  V30 7705 N 688.795 -1.27931 0.920396 0
M  V30 7706 C 689.725 -2.29487 0.431024 0
M  V30 7707 C 690.706 -1.62435 -0.504861 0
M  V30 7708 O 691.891 -1.89797 -0.411176 0
M  V30 7709 C 689.021 -3.45788 -0.323709 0
M  V30 7710 C 687.975 -4.24784 0.523658 0
M  V30 7711 C 687.301 -5.33488 -0.359809 0
M  V30 7712 C 688.601 -4.90874 1.78437 0
M  V30 7713 H 690.295 -2.70671 1.27975 0
M  V30 7714 H 687.841 -1.30121 0.616813 0
M  V30 7715 H 689.794 -4.15927 -0.676952 0
M  V30 7716 H 688.518 -3.03502 -1.2064 0
M  V30 7717 H 687.177 -3.56382 0.85951 0
M  V30 7718 H 686.825 -4.87445 -1.24124 0
M  V30 7719 H 686.525 -5.87247 0.203605 0
M  V30 7720 H 688.049 -6.06472 -0.708787 0
M  V30 7721 H 689.463 -5.53339 1.49963 0
M  V30 7722 H 687.86 -5.54659 2.29071 0
M  V30 7723 H 688.93 -4.14988 2.50824 0
M  V30 7724 N 690.273 -0.685099 -1.4193 0
M  V30 7725 C 691.183 -0.013404 -2.34596 0
M  V30 7726 C 692.199 0.777589 -1.55658 0
M  V30 7727 O 693.375 0.717553 -1.88184 0
M  V30 7728 C 690.44 0.919031 -3.34297 0
M  V30 7729 C 689.501 0.121417 -4.29128 0
M  V30 7730 C 688.734 1.00944 -5.24067 0
M  V30 7731 O 688.957 2.24898 -5.24192 0
M  V30 7732 O 687.891 0.464724 -6.00103 0
M  V30 7733 H 691.717 -0.776978 -2.93593 0
M  V30 7734 H 689.302 -0.445379 -1.42607 0
M  V30 7735 H 691.184 1.45402 -3.9552 0
M  V30 7736 H 689.859 1.66228 -2.77759 0
M  V30 7737 H 688.766 -0.45792 -3.71287 0
M  V30 7738 H 690.099 -0.582937 -4.88736 0
M  V30 7739 N 691.751 1.51645 -0.429126 0
M  V30 7740 C 692.699 2.29119 0.400921 0
M  V30 7741 C 693.693 1.34628 1.02819 0
M  V30 7742 O 694.899 1.52004 0.964098 0
M  V30 7743 H 691.274 0.737273 0.148095 0
M  V30 7744 H 693.245 2.97144 -0.273457 0
M  V30 7745 C 691.994 3.13953 1.49429 0
M  V30 7746 H 691.317 3.86544 1.02097 0
M  V30 7747 H 692.757 3.71232 2.04849 0
M  V30 7748 C 691.216 2.28796 2.47293 0
M  V30 7749 O 691.746 1.94193 3.51642 0
M  V30 7750 N 689.952 1.92177 2.17982 0
M  V30 7751 H 689.499 2.20517 1.33154 0
M  V30 7752 H 689.457 1.35497 2.83704 0
M  V30 7753 N 693.229 0.160201 1.56784 0
M  V30 7754 C 694.506 -0.533355 1.88188 0
M  V30 7755 C 694.886 -1.82072 1.06831 0
M  V30 7756 O 694.234 -2.27946 0.158959 0
M  V30 7757 C 694.444 -0.786034 3.40033 0
M  V30 7758 C 695.792 -1.12097 4.09536 0
M  V30 7759 O 696.816 -0.874949 3.45287 0
M  V30 7760 O 695.675 -1.58457 5.23023 0
M  V30 7761 H 692.769 -0.273589 0.780434 0
M  V30 7762 H 695.315 0.197803 1.68543 0
M  V30 7763 H 694.087 0.124515 3.91102 0
M  V30 7764 H 693.71 -1.57091 3.65251 0
M  V30 7765 N 694.707 -1.5719 -0.113559 0
M  V30 7766 C 695.956 -1.84325 -0.818984 0
M  V30 7767 C 696.269 -0.746685 -1.80787 0
M  V30 7768 O 697.475 -0.904596 -2.55987 0
M  V30 7769 C 695.931 -3.26818 -1.50724 0
M  V30 7770 C 695.539 -4.44498 -0.559065 0
M  V30 7771 C 697.283 -3.63196 -2.19748 0
M  V30 7772 C 695.19 -5.7802 -1.25086 0
M  V30 7773 H 694.12 -0.687507 -0.309596 0
M  V30 7774 H 696.771 -1.8336 -0.0717621 0
M  V30 7775 H 695.153 -3.22269 -2.30128 0
M  V30 7776 H 696.327 -4.60356 0.202146 0
M  V30 7777 H 694.642 -4.16393 0.024495 0
M  V30 7778 H 697.239 -4.60226 -2.72206 0
M  V30 7779 H 697.582 -2.90899 -2.97798 0
M  V30 7780 H 698.115 -3.69553 -1.47226 0
M  V30 7781 H 694.854 -6.53501 -0.511539 0
M  V30 7782 H 694.374 -5.66038 -1.98395 0
M  V30 7783 H 696.053 -6.2196 -1.78253 0
M  V30 7784 N 696.185 0.383891 -1.52853 0
M  V30 7785 C 697.132 1.46924 -1.77995 0
M  V30 7786 C 698.102 1.53958 -0.623396 0
M  V30 7787 O 699.287 1.70134 -0.863657 0
M  V30 7788 C 696.427 2.84093 -1.95921 0
M  V30 7789 C 695.54 2.86171 -3.23621 0
M  V30 7790 C 694.675 4.14799 -3.31836 0
M  V30 7791 C 693.714 4.10948 -4.53639 0
M  V30 7792 N 692.851 5.31192 -4.59107 0
M  V30 7793 H 697.691 1.24786 -2.70615 0
M  V30 7794 H 695.228 0.605265 -1.34071 0
M  V30 7795 H 697.186 3.63755 -2.04299 0
M  V30 7796 H 695.816 3.04671 -1.06656 0
M  V30 7797 H 694.868 1.9885 -3.24288 0
M  V30 7798 H 696.18 2.79194 -4.13343 0
M  V30 7799 H 695.334 5.02867 -3.39425 0
M  V30 7800 H 694.073 4.24505 -2.40097 0
M  V30 7801 H 693.078 3.21268 -4.46169 0
M  V30 7802 H 694.303 4.0286 -5.467 0
M  V30 7803 H 692.249 5.41518 -3.70262 0
M  V30 7804 H 692.166 5.26311 -5.42708 0
M  V30 7805 H 693.434 6.21143 -4.70958 0
M  V30 7806 N 697.663 1.43903 0.642637 0
M  V30 7807 C 698.593 1.52697 1.76652 0
M  V30 7808 C 699.574 0.380816 1.65782 0
M  V30 7809 O 700.759 0.599432 1.84717 0
M  V30 7810 C 697.889 1.45975 3.15133 0
M  V30 7811 C 696.843 2.58949 3.40778 0
M  V30 7812 C 696.169 2.37279 4.79169 0
M  V30 7813 C 697.469 4.01153 3.34475 0
M  V30 7814 H 699.163 2.46766 1.69549 0
M  V30 7815 H 696.709 1.18767 0.814279 0
M  V30 7816 H 698.662 1.5073 3.93521 0
M  V30 7817 H 697.386 0.484162 3.22991 0
M  V30 7818 H 696.045 2.53564 2.64765 0
M  V30 7819 H 695.693 1.37939 4.83717 0
M  V30 7820 H 695.393 3.13016 4.97287 0
M  V30 7821 H 696.917 2.43834 5.59801 0
M  V30 7822 H 698.331 4.07968 4.02784 0
M  V30 7823 H 696.728 4.77001 3.64129 0
M  V30 7824 H 697.798 4.25539 2.32475 0
M  V30 7825 N 699.141 -0.881989 1.30609 0
M  V30 7826 C 700.088 -1.98803 1.17244 0
M  V30 7827 C 701.058 -1.65987 0.0611905 0
M  V30 7828 O 702.243 -1.89385 0.231911 0
M  V30 7829 C 699.383 -3.33867 0.87333 0
M  V30 7830 C 698.496 -3.79354 2.06675 0
M  V30 7831 C 697.631 -5.03078 1.70547 0
M  V30 7832 C 696.67 -5.40981 2.86366 0
M  V30 7833 N 695.807 -6.55886 2.50514 0
M  V30 7834 H 700.647 -2.09566 2.11863 0
M  V30 7835 H 698.184 -1.02607 1.05405 0
M  V30 7836 H 700.142 -4.11612 0.680519 0
M  V30 7837 H 698.772 -3.2278 -0.0359983 0
M  V30 7838 H 697.824 -2.97492 2.37071 0
M  V30 7839 H 699.136 -4.03382 2.93401 0
M  V30 7840 H 698.29 -5.88457 1.47658 0
M  V30 7841 H 697.029 -4.80927 0.809947 0
M  V30 7842 H 696.034 -4.54127 3.09917 0
M  V30 7843 H 697.259 -5.65104 3.76609 0
M  V30 7844 H 695.205 -6.35306 1.63471 0
M  V30 7845 H 695.122 -6.79799 3.30771 0
M  V30 7846 H 696.39 -7.44489 2.30989 0
M  V30 7847 N 700.619 -1.13374 -1.09472 0
M  V30 7848 C 701.569 -0.77946 -2.14263 0
M  V30 7849 C 702.553 0.226271 -1.59301 0
M  V30 7850 O 703.745 0.0302581 -1.76974 0
M  V30 7851 C 700.874 -0.246635 -3.42413 0
M  V30 7852 C 699.96 -1.28124 -4.04283 0
M  V30 7853 N 700.351 -2.48201 -4.40715 0
M  V30 7854 C 698.649 -1.12892 -4.31476 0
M  V30 7855 C 699.35 -3.14347 -4.8945 0
M  V30 7856 N 698.326 -2.41771 -4.86876 0
M  V30 7857 H 702.128 -1.69305 -2.40235 0
M  V30 7858 H 699.642 -1.01598 -1.26695 0
M  V30 7859 H 701.639 0.0254131 -4.16892 0
M  V30 7860 H 700.299 0.661287 -3.17895 0
M  V30 7861 H 701.31 -2.85511 -4.32093 0
M  V30 7862 H 697.987 -0.279117 -4.16566 0
M  V30 7863 H 699.377 -4.16663 -5.27107 0
M  V30 7864 N 702.098 1.27442 -0.927168 0
M  V30 7865 C 703.328 1.9821 -0.582775 0
M  V30 7866 C 703.736 1.69361 0.843406 0
M  V30 7867 O 703.079 0.950381 1.57205 0
M  V30 7868 C 703.141 3.52048 -0.728165 0
M  V30 7869 C 702.805 4.04518 -2.12637 0
M  V30 7870 C 703.802 4.17332 -3.10048 0
M  V30 7871 C 701.487 4.38879 -2.44317 0
M  V30 7872 C 703.481 4.6378 -4.37249 0
M  V30 7873 C 701.168 4.85018 -3.71753 0
M  V30 7874 C 702.166 4.97428 -4.68033 0
M  V30 7875 O 701.854 5.42556 -5.93202 0
M  V30 7876 H 701.586 0.639314 -0.219667 0
M  V30 7877 H 704.14 1.63272 -1.24626 0
M  V30 7878 H 702.37 3.86699 -0.00758143 0
M  V30 7879 H 704.059 4.04033 -0.388906 0
M  V30 7880 H 704.825 3.91046 -2.86894 0
M  V30 7881 H 700.704 4.28462 -1.70121 0
M  V30 7882 H 704.248 4.73382 -5.12402 0
M  V30 7883 H 700.145 5.10746 -3.94726 0
M  V30 7884 H 700.913 5.60811 -5.96182 0
M  V30 7885 N 703.576 0.692616 1.41565 0
M  V30 7886 C 704.825 0.219452 2.00503 0
M  V30 7887 C 705.138 -1.18683 1.55479 0
M  V30 7888 O 706.344 -1.75731 2.06956 0
M  V30 7889 C 704.8 0.341451 3.58277 0
M  V30 7890 C 704.408 1.75291 4.12283 0
M  V30 7891 C 706.152 -0.0720899 4.24439 0
M  V30 7892 C 704.059 1.82673 5.62481 0
M  V30 7893 H 702.989 0.0782874 0.749925 0
M  V30 7894 H 705.64 0.860386 1.62079 0
M  V30 7895 H 704.022 -0.367683 3.94289 0
M  V30 7896 H 705.196 2.49057 3.87695 0
M  V30 7897 H 703.511 2.11587 3.58636 0
M  V30 7898 H 706.108 -0.0373385 5.34687 0
M  V30 7899 H 706.451 -1.11034 4.0122 0
M  V30 7900 H 706.984 0.586663 3.9345 0
M  V30 7901 H 703.723 2.84539 5.90523 0
M  V30 7902 H 703.243 1.13288 5.89004 0
M  V30 7903 H 704.922 1.58827 6.27203 0
M  V30 7904 N 705.054 -1.51416 0.437162 0
M  V30 7905 C 706.001 -2.27743 -0.374374 0
M  V30 7906 C 706.971 -1.31327 -1.01698 0
M  V30 7907 O 708.156 -1.60229 -1.03592 0
M  V30 7908 C 705.296 -3.12241 -1.46969 0
M  V30 7909 C 704.409 -4.23651 -0.845236 0
M  V30 7910 C 703.544 -4.95458 -1.91559 0
M  V30 7911 C 702.583 -5.98789 -1.26956 0
M  V30 7912 N 701.72 -6.64005 -2.28126 0
M  V30 7913 H 706.56 -2.96654 0.282892 0
M  V30 7914 H 704.097 -1.46319 0.151352 0
M  V30 7915 H 706.055 -3.59556 -2.11602 0
M  V30 7916 H 704.685 -2.45445 -2.09659 0
M  V30 7917 H 703.737 -3.803 -0.0872059 0
M  V30 7918 H 705.049 -4.97683 -0.333582 0
M  V30 7919 H 704.203 -5.46321 -2.63854 0
M  V30 7920 H 702.942 -4.21055 -2.46097 0
M  V30 7921 H 701.947 -5.47219 -0.53207 0
M  V30 7922 H 703.172 -6.75149 -0.731509 0
M  V30 7923 H 701.118 -5.92415 -2.81745 0
M  V30 7924 H 701.035 -7.33802 -1.81852 0
M  V30 7925 H 702.303 -7.19498 -2.99905 0
M  V30 7926 N 706.532 -0.168513 -1.56696 0
M  V30 7927 C 707.442 0.775435 -2.21414 0
M  V30 7928 C 708.458 1.25529 -1.20492 0
M  V30 7929 O 709.634 1.30801 -1.53144 0
M  V30 7930 C 706.699 1.9886 -2.83999 0
M  V30 7931 C 705.76 1.5559 -4.00113 0
M  V30 7932 C 704.993 2.71124 -4.59704 0
M  V30 7933 O 705.216 3.87917 -4.18182 0
M  V30 7934 O 704.15 2.4536 -5.4962 0
M  V30 7935 H 707.976 0.254416 -3.02632 0
M  V30 7936 H 705.561 0.0595507 -1.49281 0
M  V30 7937 H 707.443 2.69816 -3.23693 0
M  V30 7938 H 706.118 2.49874 -2.05779 0
M  V30 7939 H 705.025 0.815924 -3.65094 0
M  V30 7940 H 706.358 1.09271 -4.79917 0
M  V30 7941 N 708.01 1.57248 0.105221 0
M  V30 7942 C 709.238 1.89768 0.82437 0
M  V30 7943 C 709.653 0.761192 1.72775 0
M  V30 7944 O 709.01 -0.267342 1.80531 0
M  V30 7945 C 709.061 3.2184 1.64625 0
M  V30 7946 O 708.782 4.31115 0.779217 0
M  V30 7947 C 710.283 3.68155 2.46935 0
M  V30 7948 H 707.503 0.628031 0.236259 0
M  V30 7949 H 710.047 2.04321 0.085485 0
M  V30 7950 H 708.202 3.08915 2.33775 0
M  V30 7951 H 708.616 5.06897 1.34745 0
M  V30 7952 H 710.09 4.6329 3.00111 0
M  V30 7953 H 710.567 2.95492 3.24932 0
M  V30 7954 H 711.173 3.83914 1.83002 0
M  V30 7955 N 709.488 -0.375779 1.53054 0
M  V30 7956 C 710.398 -1.48381 1.81715 0
M  V30 7957 C 711.414 -1.59087 0.704795 0
M  V30 7958 O 712.59 -1.75174 0.993785 0
M  V30 7959 C 709.655 -2.83767 1.99192 0
M  V30 7960 C 708.716 -2.82673 3.23102 0
M  V30 7961 C 707.949 -4.11601 3.39736 0
M  V30 7962 O 708.172 -5.07243 2.60885 0
M  V30 7963 O 707.106 -4.18034 4.33049 0
M  V30 7964 H 710.932 -1.27089 2.7583 0
M  V30 7965 H 708.517 -0.564902 1.38308 0
M  V30 7966 H 710.399 -3.64004 2.12318 0
M  V30 7967 H 709.074 -3.05057 1.08267 0
M  V30 7968 H 707.981 -2.0117 3.15407 0
M  V30 7969 H 709.314 -2.66335 4.13916 0
M  V30 7970 N 710.966 -1.44241 -0.634997 0
M  V30 7971 C 711.876 -1.53293 -1.77591 0
M  V30 7972 C 712.892 -0.418831 -1.68884 0
M  V30 7973 O 714.068 -0.675619 -1.8973 0
M  V30 7974 C 711.133 -1.47075 -3.13958 0
M  V30 7975 C 710.194 -2.69304 -3.34326 0
M  V30 7976 C 709.427 -2.63374 -4.64187 0
M  V30 7977 O 709.65 -1.69161 -5.44739 0
M  V30 7978 O 708.584 -3.54166 -4.86673 0
M  V30 7979 H 712.41 -2.49673 -1.72908 0
M  V30 7980 H 709.995 -1.26445 -0.795745 0
M  V30 7981 H 711.877 -1.46117 -3.95257 0
M  V30 7982 H 710.552 -0.538373 -3.19192 0
M  V30 7983 H 709.459 -2.75831 -2.52721 0
M  V30 7984 H 710.792 -3.61576 -3.33951 0
M  V30 7985 N 712.444 0.87505 -1.31075 0
M  V30 7986 C 713.693 1.62245 -1.19831 0
M  V30 7987 C 714.006 1.94078 0.24357 0
M  V30 7988 O 715.212 2.67265 0.477646 0
M  V30 7989 C 713.668 2.92464 -2.09744 0
M  V30 7990 C 713.276 2.68134 -3.58898 0
M  V30 7991 C 715.02 3.70449 -2.07287 0
M  V30 7992 C 712.927 3.9423 -4.40836 0
M  V30 7993 H 711.857 0.608741 -0.444916 0
M  V30 7994 H 714.508 0.967947 -1.55894 0
M  V30 7995 H 712.89 3.59262 -1.66574 0
M  V30 7996 H 714.064 2.09776 -4.10281 0
M  V30 7997 H 712.379 2.03511 -3.6328 0
M  V30 7998 H 714.976 4.63983 -2.65752 0
M  V30 7999 H 715.319 4.02611 -1.05876 0
M  V30 8000 H 715.852 3.10528 -2.48631 0
M  V30 8001 H 712.591 3.67221 -5.42982 0
M  V30 8002 H 712.111 4.52058 -3.94213 0
M  V30 8003 H 713.79 4.62162 -4.52786 0
M  V30 8004 N 713.922 1.13953 1.08869 0
M  V30 8005 C 714.872 0.790812 2.13846 0
M  V30 8006 C 715.856 -0.217819 1.59419 0
M  V30 8007 O 717.048 -0.0208723 1.76988 0
M  V30 8008 C 714.177 0.26479 3.42277 0
M  V30 8009 C 713.263 1.30267 4.03598 0
M  V30 8010 N 713.654 2.50535 4.39393 0
M  V30 8011 C 711.952 1.15178 4.30871 0
M  V30 8012 C 712.653 3.16938 4.87776 0
M  V30 8013 N 711.629 2.44349 4.85587 0
M  V30 8014 H 715.431 1.70577 2.39334 0
M  V30 8015 H 712.945 1.02268 1.26154 0
M  V30 8016 H 714.942 -0.00330398 4.169 0
M  V30 8017 H 713.602 -0.644419 3.18241 0
M  V30 8018 H 714.613 2.87798 4.30572 0
M  V30 8019 H 711.29 0.301204 4.16412 0
M  V30 8020 H 712.68 4.19453 5.2489 0
M  V30 8021 N 715.4 -1.26948 0.933913 0
M  V30 8022 C 716.647 -1.94087 0.577625 0
M  V30 8023 C 716.975 -1.73345 -0.88214 0
M  V30 8024 O 716.23 -1.05945 -1.64542 0
M  V30 8025 C 716.529 -3.46963 0.857406 0
M  V30 8026 C 716.195 -3.87834 2.2999 0
M  V30 8027 C 714.857 -3.98704 2.69423 0
M  V30 8028 C 717.209 -4.08442 3.23766 0
M  V30 8029 C 714.537 -4.27573 4.01744 0
M  V30 8030 C 716.889 -4.38798 4.55675 0
M  V30 8031 C 715.553 -4.47881 4.94934 0
M  V30 8032 H 714.823 -0.710215 0.211368 0
M  V30 8033 H 717.47 -1.50899 1.17905 0
M  V30 8034 H 715.775 -3.91416 0.173369 0
M  V30 8035 H 717.472 -3.97062 0.560615 0
M  V30 8036 H 714.062 -3.79916 1.98399 0
M  V30 8037 H 718.246 -3.99479 2.94499 0
M  V30 8038 H 713.502 -4.32815 4.31834 0
M  V30 8039 H 717.676 -4.5369 5.28335 0
M  V30 8040 H 715.303 -4.70005 5.97495 0
M  V30 8041 N 716.879 -0.700114 -1.41195 0
M  V30 8042 C 717.827 -0.0263301 -2.32585 0
M  V30 8043 C 718.821 0.763683 -1.51209 0
M  V30 8044 O 720.027 0.668793 -1.67114 0
M  V30 8045 H 716.402 0.0102869 -0.75193 0
M  V30 8046 H 718.373 -0.814087 -2.8708 0
M  V30 8047 C 717.122 0.892793 -3.36042 0
M  V30 8048 H 716.445 0.294306 -3.98715 0
M  V30 8049 H 717.885 1.33247 -4.02518 0
M  V30 8050 C 716.344 2.01109 -2.7029 0
M  V30 8051 O 716.874 3.10035 -2.55423 0
M  V30 8052 N 715.08 1.79015 -2.28915 0
M  V30 8053 H 714.627 0.904275 -2.41207 0
M  V30 8054 H 714.585 2.54022 -1.85257 0
M  V30 8055 N 718.357 1.51182 -0.445186 0
M  V30 8056 C 719.582 2.07056 0.119445 0
M  V30 8057 C 720.007 1.30966 1.35016 0
M  V30 8058 O 719.365 0.349827 1.77893 0
M  V30 8059 C 719.413 3.58234 0.412428 0
M  V30 8060 O 718.517 3.84249 1.49754 0
M  V30 8061 H 717.858 0.663998 -0.00157797 0
M  V30 8062 H 720.388 1.94699 -0.628779 0
M  V30 8063 H 720.398 4.02617 0.660583 0
M  V30 8064 H 719.073 4.13038 -0.487049 0
M  V30 8065 H 717.65 3.51724 1.23873 0
M  V30 8066 N 719.835 0.176821 1.56605 0
M  V30 8067 C 721.084 -0.466833 1.96223 0
M  V30 8068 C 721.397 -1.64015 1.06576 0
M  V30 8069 O 722.603 -2.3504 1.35898 0
M  V30 8070 C 721.059 -0.881921 3.48927 0
M  V30 8071 C 720.667 0.266102 4.47209 0
M  V30 8072 C 722.411 -1.49368 3.97353 0
M  V30 8073 C 720.318 -0.168923 5.91159 0
M  V30 8074 H 719.248 -0.178178 0.732645 0
M  V30 8075 H 721.899 0.265929 1.81563 0
M  V30 8076 H 720.281 -1.67082 3.59026 0
M  V30 8077 H 721.455 1.04349 4.4883 0
M  V30 8078 H 719.77 0.788178 4.08872 0
M  V30 8079 H 722.367 -1.8313 5.02362 0
M  V30 8080 H 722.71 -2.3936 3.40606 0
M  V30 8081 H 723.243 -0.769114 3.90294 0
M  V30 8082 H 719.982 0.696351 6.51791 0
M  V30 8083 H 719.502 -0.911552 5.92833 0
M  V30 8084 H 721.181 -0.610938 6.44109 0
M  V30 8085 N 721.313 -1.57302 -0.09688 0
M  V30 8086 C 722.223 -2.05258 -1.13606 0
M  V30 8087 C 723.239 -0.977137 -1.43972 0
M  V30 8088 O 724.415 -1.29018 -1.54649 0
M  V30 8089 C 721.48 -2.46593 -2.43706 0
M  V30 8090 C 720.541 -3.68322 -2.20538 0
M  V30 8091 C 719.774 -4.07676 -3.44435 0
M  V30 8092 O 719.997 -3.47141 -4.52603 0
M  V30 8093 O 718.931 -5.00641 -3.34129 0
M  V30 8094 H 722.757 -2.94069 -0.758752 0
M  V30 8095 H 720.342 -1.46164 -0.309263 0
M  V30 8096 H 722.224 -2.73814 -3.20318 0
M  V30 8097 H 720.899 -1.6092 -2.80867 0
M  V30 8098 H 719.806 -3.4622 -1.41713 0
M  V30 8099 H 721.139 -4.54769 -1.88271 0
M  V30 8100 N 722.791 0.367657 -1.53252 0
M  V30 8101 C 723.701 1.47415 -1.82499 0
M  V30 8102 C 724.717 1.58711 -0.713222 0
M  V30 8103 O 725.893 1.74644 -1.00306 0
M  V30 8104 C 722.958 2.82706 -2.00694 0
M  V30 8105 C 722.019 2.80955 -3.24596 0
M  V30 8106 C 721.252 4.09793 -3.41914 0
M  V30 8107 O 721.475 5.05852 -2.63572 0
M  V30 8108 O 720.409 4.15731 -4.3526 0
M  V30 8109 H 724.235 1.25624 -2.765 0
M  V30 8110 H 721.82 0.557559 -1.38606 0
M  V30 8111 H 723.702 3.62873 -2.14246 0
M  V30 8112 H 722.377 3.04479 -1.09883 0
M  V30 8113 H 721.284 1.99494 -3.16469 0
M  V30 8114 H 722.617 2.64136 -4.15323 0
M  V30 8115 N 724.269 1.44576 0.627338 0
M  V30 8116 C 725.499 1.50829 1.41189 0
M  V30 8117 C 725.907 0.133083 1.88731 0
M  V30 8118 O 725.25 -0.87199 1.61685 0
M  V30 8119 C 725.312 2.41449 2.66351 0
M  V30 8120 C 724.976 3.88549 2.40579 0
M  V30 8121 C 725.973 4.78981 2.0217 0
M  V30 8122 C 723.658 4.33287 2.54102 0
M  V30 8123 C 725.652 6.12153 1.77618 0
M  V30 8124 C 723.339 5.66505 2.29163 0
M  V30 8125 C 724.337 6.55756 1.9098 0
M  V30 8126 O 724.025 7.86506 1.66321 0
M  V30 8127 H 723.757 0.513797 0.439304 0
M  V30 8128 H 726.311 1.90256 0.774059 0
M  V30 8129 H 724.541 1.96955 3.32784 0
M  V30 8130 H 726.23 2.38608 3.28361 0
M  V30 8131 H 726.996 4.45689 1.91277 0
M  V30 8132 H 722.875 3.64074 2.82792 0
M  V30 8133 H 726.419 6.81776 1.47739 0
M  V30 8134 H 722.316 5.99358 2.39668 0
M  V30 8135 H 723.084 7.98341 1.80536 0
M  V30 8136 N 725.747 -0.868086 1.31537 0
M  V30 8137 C 726.694 -1.97548 1.19346 0
M  V30 8138 C 727.664 -1.65913 0.0787922 0
M  V30 8139 O 728.849 -1.89129 0.251985 0
M  V30 8140 C 725.989 -3.32922 0.908692 0
M  V30 8141 C 725.102 -3.77141 2.10687 0
M  V30 8142 C 724.237 -5.01241 1.75873 0
M  V30 8143 C 723.276 -5.37914 2.92088 0
M  V30 8144 N 722.413 -6.53192 2.57457 0
M  V30 8145 H 727.253 -2.07307 2.14074 0
M  V30 8146 H 724.79 -1.01483 1.06487 0
M  V30 8147 H 726.748 -4.10867 0.724138 0
M  V30 8148 H 725.378 -3.228 -0.0017611 0
M  V30 8149 H 724.43 -2.94961 2.40213 0
M  V30 8150 H 725.742 -4.00248 2.97663 0
M  V30 8151 H 724.896 -5.86858 1.53891 0
M  V30 8152 H 723.635 -4.80041 0.86091 0
M  V30 8153 H 722.64 -4.50814 3.14717 0
M  V30 8154 H 723.865 -5.61077 3.82582 0
M  V30 8155 H 721.811 -6.33536 1.702 0
M  V30 8156 H 721.728 -6.76252 3.37963 0
M  V30 8157 H 722.996 -7.41997 2.38873 0
M  V30 8158 N 727.225 -1.14528 -1.08264 0
M  V30 8159 C 728.158 -0.777154 -2.14559 0
M  V30 8160 C 729.136 0.242165 -1.60787 0
M  V30 8161 O 730.32 0.130882 -1.88045 0
M  V30 8162 C 727.447 -0.154092 -3.38349 0
M  V30 8163 C 726.493 -1.14382 -4.10876 0
M  V30 8164 S 727.326 -2.68173 -4.63512 0
M  V30 8165 C 728.482 -2.0726 -5.90588 0
M  V30 8166 H 728.715 -1.67748 -2.45454 0
M  V30 8167 H 726.248 -0.966661 -1.20395 0
M  V30 8168 H 728.206 0.19897 -4.10018 0
M  V30 8169 H 726.867 0.723688 -3.05649 0
M  V30 8170 H 726.06 -0.655908 -4.99714 0
M  V30 8171 H 725.662 -1.44095 -3.45127 0
M  V30 8172 H 727.954 -1.42895 -6.62259 0
M  V30 8173 H 728.897 -2.94227 -6.44078 0
M  V30 8174 H 729.305 -1.51935 -5.43669 0
M  V30 8175 N 728.703 1.26451 -0.940633 0
M  V30 8176 C 729.65 2.264 -0.448497 0
M  V30 8177 C 730.62 1.5866 0.491546 0
M  V30 8178 O 731.805 1.86389 0.407874 0
M  V30 8179 C 728.945 3.43956 0.280715 0
M  V30 8180 C 728.058 4.26374 -0.694937 0
M  V30 8181 C 727.193 5.31171 0.0554186 0
M  V30 8182 C 726.232 6.05266 -0.912091 0
M  V30 8183 N 725.369 7.01833 -0.193524 0
M  V30 8184 H 730.209 2.67869 -1.30576 0
M  V30 8185 H 727.746 1.31707 -0.655112 0
M  V30 8186 H 729.704 4.10941 0.71994 0
M  V30 8187 H 728.334 3.03403 1.10212 0
M  V30 8188 H 727.386 3.59183 -1.25267 0
M  V30 8189 H 728.698 4.77748 -1.43382 0
M  V30 8190 H 727.852 6.04166 0.553951 0
M  V30 8191 H 726.591 4.80634 0.827183 0
M  V30 8192 H 725.596 5.31099 -1.42175 0
M  V30 8193 H 726.821 6.57893 -1.68385 0
M  V30 8194 H 724.767 6.53607 0.559758 0
M  V30 8195 H 724.684 7.50957 -0.871744 0
M  V30 8196 H 725.952 7.78983 0.283932 0
M  V30 8197 N 730.181 0.707592 1.40822 0
M  V30 8198 C 731.111 0.0644925 2.33411 0
M  V30 8199 C 732.092 -0.754205 1.52466 0
M  V30 8200 O 733.277 -0.704749 1.80961 0
M  V30 8201 C 730.407 -0.863865 3.36385 0
M  V30 8202 C 729.361 -0.15138 4.27732 0
M  V30 8203 C 728.687 -1.19491 5.21177 0
M  V30 8204 C 729.987 0.989607 5.12839 0
M  V30 8205 H 731.681 0.837829 2.87438 0
M  V30 8206 H 729.227 0.404346 1.38207 0
M  V30 8207 H 731.18 -1.32309 4.0009 0
M  V30 8208 H 729.904 -1.66901 2.80734 0
M  V30 8209 H 728.563 0.287937 3.65467 0
M  V30 8210 H 728.211 -1.9929 4.61836 0
M  V30 8211 H 727.911 -0.723123 5.83134 0
M  V30 8212 H 729.435 -1.6544 5.8776 0
M  V30 8213 H 730.849 0.610114 5.70044 0
M  V30 8214 H 729.246 1.38926 5.83798 0
M  V30 8215 H 730.316 1.82389 4.49291 0
M  V30 8216 N 731.66 -1.50943 0.453197 0
M  V30 8217 C 732.608 -2.29728 -0.364419 0
M  V30 8218 C 733.602 -1.36246 -1.00664 0
M  V30 8219 O 734.808 -1.53518 -0.939794 0
M  V30 8220 H 731.183 -0.739536 -0.136347 0
M  V30 8221 H 733.154 -2.96672 0.320696 0
M  V30 8222 C 731.903 -3.1629 -1.44415 0
M  V30 8223 H 731.226 -3.88119 -0.959343 0
M  V30 8224 H 732.666 -3.74444 -1.98917 0
M  V30 8225 C 731.125 -2.32702 -2.43622 0
M  V30 8226 O 731.655 -1.99763 -3.48508 0
M  V30 8227 N 729.861 -1.95621 -2.14897 0
M  V30 8228 H 729.408 -2.22607 -1.29629 0
M  V30 8229 H 729.366 -1.39993 -2.81513 0
M  V30 8230 N 733.138 -0.185124 -1.56509 0
M  V30 8231 C 734.554 0.170865 -1.58683 0
M  V30 8232 C 734.754 1.61799 -1.20098 0
M  V30 8233 O 733.81 2.35181 -0.919038 0
M  V30 8234 C 735.123 -0.122459 -3.00451 0
M  V30 8235 C 736.671 -0.0617699 -3.12939 0
M  V30 8236 C 737.146 -0.328269 -4.56822 0
M  V30 8237 N 738.637 -0.276533 -4.62374 0
M  V30 8238 C 739.372 -0.456722 -5.71578 0
M  V30 8239 N 738.868 -0.69672 -6.89288 0
M  V30 8240 N 740.661 -0.391669 -5.60734 0
M  V30 8241 H 732.812 -1.12956 -1.79874 0
M  V30 8242 H 735.075 -0.45011 -0.834329 0
M  V30 8243 H 734.781 -1.12546 -3.33206 0
M  V30 8244 H 734.655 0.579578 -3.72721 0
M  V30 8245 H 737.042 0.931826 -2.80002 0
M  V30 8246 H 737.123 -0.796732 -2.43076 0
M  V30 8247 H 736.767 -1.31914 -4.9047 0
M  V30 8248 H 736.697 0.427465 -5.24862 0
M  V30 8249 H 739.188 -0.0972458 -3.77775 0
M  V30 8250 H 739.501 -0.823291 -7.68402 0
M  V30 8251 H 737.846 -0.733497 -6.91119 0
M  V30 8252 H 741.037 -0.204663 -4.67652 0
M  V30 8253 H 741.21 -0.535518 -6.45783 0
M  V30 8254 N 734.616 1.57351 0.0885366 0
M  V30 8255 C 735.865 1.85604 0.789556 0
M  V30 8256 C 736.178 0.775352 1.79576 0
M  V30 8257 O 737.384 0.945206 2.54515 0
M  V30 8258 C 735.84 3.29175 1.45506 0
M  V30 8259 C 735.448 4.45331 0.488278 0
M  V30 8260 C 737.192 3.66646 2.13942 0
M  V30 8261 C 735.099 5.79937 1.15874 0
M  V30 8262 H 734.029 0.692346 0.298619 0
M  V30 8263 H 736.68 1.83451 0.0425821 0
M  V30 8264 H 735.062 3.25889 2.24972 0
M  V30 8265 H 736.236 4.59977 -0.275359 0
M  V30 8266 H 734.551 4.16301 -0.0907363 0
M  V30 8267 H 737.148 4.64498 2.6485 0
M  V30 8268 H 737.491 2.956 2.93132 0
M  V30 8269 H 738.024 3.71848 1.41328 0
M  V30 8270 H 734.763 6.54232 0.407508 0
M  V30 8271 H 734.283 5.69123 1.89364 0
M  V30 8272 H 735.962 6.24718 1.68336 0
M  V30 8273 N 736.094 -0.359525 1.53444 0
M  V30 8274 C 737.042 -1.46104 1.80987 0
M  V30 8275 C 738.036 -1.55181 0.679351 0
M  V30 8276 O 739.242 -1.57995 0.862405 0
M  V30 8277 H 735.617 -0.486835 0.573145 0
M  V30 8278 H 737.588 -1.2008 2.73173 0
M  V30 8279 C 736.337 -2.82855 2.02208 0
M  V30 8280 H 735.66 -2.76631 2.88644 0
M  V30 8281 H 737.1 -3.59091 2.25455 0
M  V30 8282 C 735.559 -3.27192 0.802931 0
M  V30 8283 O 736.089 -4.017 -0.00544286 0
M  V30 8284 N 734.295 -2.83807 0.624657 0
M  V30 8285 H 733.842 -2.23339 1.28364 0
M  V30 8286 H 733.8 -3.13828 -0.189641 0
M  V30 8287 N 737.572 -1.44907 -0.619662 0
M  V30 8288 C 738.802 -1.51575 -1.40387 0
M  V30 8289 C 739.21 -0.14309 -1.88658 0
M  V30 8290 O 738.553 0.863403 -1.62145 0
M  V30 8291 C 738.615 -2.42858 -2.65067 0
M  V30 8292 C 738.279 -3.8982 -2.38515 0
M  V30 8293 C 739.276 -4.80047 -1.99627 0
M  V30 8294 C 736.961 -4.34628 -2.51801 0
M  V30 8295 C 738.955 -6.13086 -1.74369 0
M  V30 8296 C 736.642 -5.67712 -2.26156 0
M  V30 8297 C 737.64 -6.56759 -1.875 0
M  V30 8298 O 737.328 -7.87377 -1.62148 0
M  V30 8299 H 737.06 -0.51612 -0.436573 0
M  V30 8300 H 739.614 -1.90664 -0.763959 0
M  V30 8301 H 737.844 -1.98717 -3.31735 0
M  V30 8302 H 739.533 -2.40346 -3.27091 0
M  V30 8303 H 740.299 -4.46697 -1.8891 0
M  V30 8304 H 736.178 -3.65568 -2.80857 0
M  V30 8305 H 739.722 -6.8255 -1.44122 0
M  V30 8306 H 735.619 -6.0062 -2.36486 0
M  V30 8307 H 736.387 -7.99288 -1.763 0
M  V30 8308 N 739.05 0.861098 -1.31996 0
M  V30 8309 C 739.997 1.96912 -1.20392 0
M  V30 8310 C 740.967 1.65869 -0.0875899 0
M  V30 8311 O 742.152 1.88992 -0.262011 0
M  V30 8312 C 739.292 3.32435 -0.926335 0
M  V30 8313 C 738.405 3.76018 -2.12684 0
M  V30 8314 C 737.54 5.00301 -1.78529 0
M  V30 8315 C 736.579 5.36357 -2.94937 0
M  V30 8316 N 735.716 6.51818 -2.60917 0
M  V30 8317 H 740.556 2.06169 -2.1517 0
M  V30 8318 H 738.093 1.00917 -1.07024 0
M  V30 8319 H 740.051 4.10478 -0.745917 0
M  V30 8320 H 738.681 3.22796 -0.0153578 0
M  V30 8321 H 737.733 2.93683 -2.41774 0
M  V30 8322 H 739.045 3.98664 -2.99781 0
M  V30 8323 H 738.199 5.86034 -1.57001 0
M  V30 8324 H 736.938 4.79578 -0.886356 0
M  V30 8325 H 735.943 4.49139 -3.17103 0
M  V30 8326 H 737.168 5.59041 -3.85552 0
M  V30 8327 H 735.114 6.32624 -1.73558 0
M  V30 8328 H 735.031 6.7445 -3.41544 0
M  V30 8329 H 736.299 7.4072 -2.42804 0
M  V30 8330 N 740.528 1.15101 1.07655 0
M  V30 8331 C 741.758 0.946357 1.83651 0
M  V30 8332 C 742.166 -0.508641 1.82235 0
M  V30 8333 O 741.509 -1.36445 1.22997 0
M  V30 8334 C 741.571 1.37945 3.31981 0
M  V30 8335 C 741.235 2.85155 3.57122 0
M  V30 8336 C 742.232 3.83234 3.51323 0
M  V30 8337 C 739.917 3.2275 3.84887 0
M  V30 8338 C 741.911 5.16914 3.72932 0
M  V30 8339 C 739.598 4.56604 4.06148 0
M  V30 8340 C 740.596 5.53495 4.00165 0
M  V30 8341 O 740.284 6.84931 4.20861 0
M  V30 8342 H 740.016 0.336368 0.586372 0
M  V30 8343 H 742.57 1.53198 1.36819 0
M  V30 8344 H 740.8 0.737205 3.79608 0
M  V30 8345 H 742.489 1.14439 3.89434 0
M  V30 8346 H 743.255 3.55535 3.29878 0
M  V30 8347 H 739.134 2.47921 3.88659 0
M  V30 8348 H 742.678 5.92529 3.68178 0
M  V30 8349 H 738.575 4.84019 4.27078 0
M  V30 8350 H 739.343 6.91304 4.38226 0
M  V30 8351 N 742.006 -1.2595 0.947325 0
M  V30 8352 C 743.283 -1.88676 0.515824 0
M  V30 8353 C 743.663 -1.85547 -1.00675 0
M  V30 8354 O 743.011 -1.31399 -1.8694 0
M  V30 8355 C 743.221 -3.31734 1.08415 0
M  V30 8356 C 744.569 -4.08545 1.15654 0
M  V30 8357 O 745.593 -3.40826 1.03517 0
M  V30 8358 O 744.452 -5.29663 1.34608 0
M  V30 8359 H 741.546 -0.809537 0.169055 0
M  V30 8360 H 744.092 -1.34075 1.04029 0
M  V30 8361 H 742.864 -3.28404 2.1276 0
M  V30 8362 H 742.487 -3.93882 0.542499 0
M  V30 8363 N 743.484 -0.715051 -1.40445 0
M  V30 8364 C 744.712 -0.263959 -2.05209 0
M  V30 8365 C 745.127 1.09403 -1.53871 0
M  V30 8366 O 744.484 1.68746 -0.695064 0
M  V30 8367 C 744.535 -0.234545 -3.60738 0
M  V30 8368 O 744.256 -1.53891 -4.10182 0
M  V30 8369 C 745.757 0.235164 -4.42676 0
M  V30 8370 H 742.977 -0.11876 -0.660407 0
M  V30 8371 H 745.521 -0.973107 -1.79864 0
M  V30 8372 H 743.676 0.425563 -3.85055 0
M  V30 8373 H 744.09 -1.43903 -5.04373 0
M  V30 8374 H 745.564 0.204598 -5.51621 0
M  V30 8375 H 746.041 1.27724 -4.20218 0
M  V30 8376 H 746.647 -0.394649 -4.23465 0
M  V30 8377 N 744.962 1.50701 -0.461195 0
M  V30 8378 C 745.892 2.31182 0.328184 0
M  V30 8379 C 746.873 1.37644 0.999408 0
M  V30 8380 O 748.058 1.66565 0.99848 0
M  V30 8381 C 745.188 3.17113 1.41621 0
M  V30 8382 C 744.142 4.19124 0.867148 0
M  V30 8383 C 743.468 4.93728 2.05272 0
M  V30 8384 C 744.768 5.22174 -0.114808 0
M  V30 8385 H 746.462 2.97423 -0.343501 0
M  V30 8386 H 744.008 1.43033 -0.166641 0
M  V30 8387 H 745.961 3.72208 1.97584 0
M  V30 8388 H 744.685 2.48739 2.11652 0
M  V30 8389 H 743.344 3.65116 0.329557 0
M  V30 8390 H 742.992 4.21835 2.73978 0
M  V30 8391 H 742.692 5.62724 1.69161 0
M  V30 8392 H 744.216 5.51654 2.61744 0
M  V30 8393 H 745.63 5.72198 0.355316 0
M  V30 8394 H 744.027 5.98833 -0.389689 0
M  V30 8395 H 745.097 4.7353 -1.04391 0
M  V30 8396 N 746.441 0.193421 1.56409 0
M  V30 8397 C 747.371 -0.723334 2.22014 0
M  V30 8398 C 748.352 -1.22254 1.1827 0
M  V30 8399 O 749.537 -1.27168 1.46771 0
M  V30 8400 C 746.667 -1.94366 2.87818 0
M  V30 8401 C 745.621 -1.57943 3.97791 0
M  V30 8402 C 744.947 -2.87623 4.50752 0
M  V30 8403 C 746.247 -0.790639 5.16281 0
M  V30 8404 H 747.941 -0.176426 2.9888 0
M  V30 8405 H 745.487 -0.0834166 1.43758 0
M  V30 8406 H 747.44 -2.5902 3.32396 0
M  V30 8407 H 746.164 -2.51507 2.08355 0
M  V30 8408 H 744.823 -0.956482 3.53903 0
M  V30 8409 H 744.471 -3.4285 3.68053 0
M  V30 8410 H 744.171 -2.63998 5.24956 0
M  V30 8411 H 745.695 -3.53268 4.9803 0
M  V30 8412 H 747.109 -1.34024 5.57414 0
M  V30 8413 H 745.506 -0.65258 5.96541 0
M  V30 8414 H 746.576 0.208633 4.84451 0
M  V30 8415 N 747.919 -1.57396 -0.0801906 0
M  V30 8416 C 748.829 -2.06451 -1.11423 0
M  V30 8417 C 749.845 -0.992352 -1.42928 0
M  V30 8418 O 751.021 -1.30651 -1.53272 0
M  V30 8419 C 748.086 -2.49164 -2.41077 0
M  V30 8420 C 747.147 -3.70641 -2.16619 0
M  V30 8421 C 746.38 -4.11307 -3.40092 0
M  V30 8422 O 746.603 -3.51922 -4.48895 0
M  V30 8423 O 745.537 -5.04157 -3.288 0
M  V30 8424 H 749.363 -2.94857 -0.727519 0
M  V30 8425 H 746.948 -1.46484 -0.293743 0
M  V30 8426 H 748.83 -2.77196 -3.17396 0
M  V30 8427 H 747.505 -1.6389 -2.79145 0
M  V30 8428 H 746.412 -3.47703 -1.38033 0
M  V30 8429 H 747.745 -4.5674 -1.83437 0
M  V30 8430 N 749.397 0.351382 -1.53633 0
M  V30 8431 C 750.307 1.45471 -1.84052 0
M  V30 8432 C 751.323 1.57945 -0.730015 0
M  V30 8433 O 752.499 1.73571 -1.02153 0
M  V30 8434 C 749.564 2.80562 -2.03681 0
M  V30 8435 C 748.625 2.77497 -3.27558 0
M  V30 8436 C 747.858 4.06144 -3.46241 0
M  V30 8437 O 748.081 5.03028 -2.68922 0
M  V30 8438 O 747.015 4.11092 -4.39645 0
M  V30 8439 H 750.841 1.22684 -2.77817 0
M  V30 8440 H 748.426 0.542827 -1.3919 0
M  V30 8441 H 750.308 3.6058 -2.18082 0
M  V30 8442 H 748.983 3.03296 -1.13106 0
M  V30 8443 H 747.89 1.96126 -3.18568 0
M  V30 8444 H 749.223 2.59716 -4.18101 0
M  V30 8445 N 750.875 1.45233 0.611969 0
M  V30 8446 C 751.825 1.49997 1.71711 0
M  V30 8447 C 752.809 0.363689 1.56736 0
M  V30 8448 O 754.001 0.610261 1.66147 0
M  V30 8449 C 751.13 1.46537 3.10454 0
M  V30 8450 C 750.216 2.65351 3.30831 0
M  V30 8451 N 750.607 3.90485 3.21489 0
M  V30 8452 C 748.905 2.60955 3.61688 0
M  V30 8453 C 749.606 4.69758 3.43078 0
M  V30 8454 N 748.582 4.01141 3.66861 0
M  V30 8455 H 752.384 2.44574 1.62975 0
M  V30 8456 H 749.898 1.40464 0.815082 0
M  V30 8457 H 751.895 1.48035 3.89732 0
M  V30 8458 H 750.555 0.530139 3.20343 0
M  V30 8459 H 751.566 4.22171 2.99987 0
M  V30 8460 H 748.243 1.76319 3.78441 0
M  V30 8461 H 749.633 5.7877 3.41285 0
M  V30 8462 N 752.353 -0.854086 1.3245 0
M  V30 8463 C 753.263 -1.99503 1.23434 0
M  V30 8464 C 754.279 -1.73371 0.147828 0
M  V30 8465 O 755.455 -1.97998 0.368609 0
M  V30 8466 C 752.52 -3.33192 0.958328 0
M  V30 8467 C 751.581 -3.72542 2.13333 0
M  V30 8468 C 750.814 -4.99852 1.8704 0
M  V30 8469 O 751.037 -5.64573 0.813239 0
M  V30 8470 O 749.971 -5.36345 2.73161 0
M  V30 8471 H 753.797 -2.10046 2.1935 0
M  V30 8472 H 751.382 -0.984823 1.12346 0
M  V30 8473 H 753.264 -4.13327 0.820918 0
M  V30 8474 H 751.939 -3.23687 0.0293299 0
M  V30 8475 H 750.846 -2.92981 2.32622 0
M  V30 8476 H 752.179 -3.86694 3.04514 0
M  V30 8477 N 753.831 -1.1567 -1.07043 0
M  V30 8478 C 754.779 -0.852204 -2.16426 0
M  V30 8479 C 755.773 0.175661 -1.68487 0
M  V30 8480 O 756.979 0.0303874 -1.79974 0
M  V30 8481 H 753.354 -0.257942 -0.706378 0
M  V30 8482 H 755.325 -1.78231 -2.39324 0
M  V30 8483 C 754.074 -0.361362 -3.45817 0
M  V30 8484 H 753.397 -1.14369 -3.83092 0
M  V30 8485 H 754.837 -0.186997 -4.23587 0
M  V30 8486 C 753.296 0.917703 -3.2416 0
M  V30 8487 O 753.826 1.98858 -3.49025 0
M  V30 8488 N 752.032 0.858456 -2.77631 0
M  V30 8489 H 751.579 -0.0131821 -2.57597 0
M  V30 8490 H 751.537 1.71478 -2.6352 0
M  V30 8491 N 755.309 1.25446 -0.953992 0
M  V30 8492 C 756.239 2.28264 -0.491717 0
M  V30 8493 C 757.22 1.63717 0.461617 0
M  V30 8494 O 758.405 1.90821 0.36071 0
M  V30 8495 C 755.535 3.46525 0.231915 0
M  V30 8496 C 754.489 4.23247 -0.636098 0
M  V30 8497 C 753.815 5.34254 0.218238 0
M  V30 8498 C 755.115 4.85971 -1.91389 0
M  V30 8499 H 756.809 2.67183 -1.35106 0
M  V30 8500 H 754.355 1.2844 -0.651095 0
M  V30 8501 H 756.308 4.17576 0.566439 0
M  V30 8502 H 755.032 3.06594 1.12551 0
M  V30 8503 H 753.691 3.53978 -0.953696 0
M  V30 8504 H 753.339 4.90564 1.11156 0
M  V30 8505 H 753.039 5.86501 -0.359232 0
M  V30 8506 H 754.563 6.08138 0.547743 0
M  V30 8507 H 755.977 5.49168 -1.64581 0
M  V30 8508 H 754.374 5.48391 -2.43696 0
M  V30 8509 H 755.444 4.08192 -2.61738 0
M  V30 8510 N 756.787 0.722489 1.40064 0
M  V30 8511 C 758.033 0.265371 2.01056 0
M  V30 8512 C 758.366 -1.14062 1.57174 0
M  V30 8513 O 757.641 -1.77514 0.794916 0
M  V30 8514 C 757.924 0.353157 3.58364 0
M  V30 8515 C 757.777 1.79802 4.123 0
M  V30 8516 C 759.096 -0.271677 4.39261 0
M  V30 8517 H 756.215 0.0979002 0.730469 0
M  V30 8518 H 758.857 0.916289 1.66446 0
M  V30 8519 H 757.007 -0.201037 3.87979 0
M  V30 8520 H 758.679 2.40813 3.93455 0
M  V30 8521 H 756.922 2.32348 3.66329 0
M  V30 8522 H 757.593 1.81079 5.21454 0
M  V30 8523 H 760.069 0.200607 4.15616 0
M  V30 8524 H 758.945 -0.179843 5.48605 0
M  V30 8525 H 759.206 -1.35611 4.20787 0
M  V30 8526 N 758.265 -1.50454 0.469181 0
M  V30 8527 C 759.493 -2.06729 -0.0842134 0
M  V30 8528 C 759.908 -1.33326 -1.33677 0
M  V30 8529 O 759.265 -0.401977 -1.78018 0
M  V30 8530 C 759.316 -3.59557 -0.374253 0
M  V30 8531 O 759.037 -4.30192 0.828622 0
M  V30 8532 C 760.538 -4.32449 -0.974824 0
M  V30 8533 H 757.758 -0.670971 0.006231 0
M  V30 8534 H 760.302 -1.93645 0.657415 0
M  V30 8535 H 758.457 -3.7245 -1.06581 0
M  V30 8536 H 758.871 -5.21371 0.572066 0
M  V30 8537 H 760.345 -5.40361 -1.12755 0
M  V30 8538 H 760.822 -3.92819 -1.96442 0
M  V30 8539 H 761.428 -4.24082 -0.321703 0
M  V30 8540 N 759.743 -0.201713 -1.56304 0
M  V30 8541 C 760.693 0.729444 -2.16016 0
M  V30 8542 C 761.677 1.17164 -1.10279 0
M  V30 8543 O 762.869 1.12893 -1.36324 0
M  V30 8544 C 759.998 1.94594 -2.82822 0
M  V30 8545 C 759.084 1.52434 -3.95758 0
M  V30 8546 N 759.475 0.814106 -4.99205 0
M  V30 8547 C 757.773 1.81314 -4.07481 0
M  V30 8548 C 758.474 0.601896 -5.78578 0
M  V30 8549 N 757.45 1.15263 -5.3124 0
M  V30 8550 H 761.252 0.178163 -2.93359 0
M  V30 8551 H 758.766 -0.00218038 -1.624 0
M  V30 8552 H 760.763 2.62357 -3.23998 0
M  V30 8553 H 759.423 2.50188 -2.06969 0
M  V30 8554 H 760.434 0.468872 -5.15773 0
M  V30 8555 H 757.111 2.3837 -3.42762 0
M  V30 8556 H 758.501 0.0380119 -6.71889 0
M  V30 8557 N 761.222 1.57436 0.0718424 0
M  V30 8558 C 762.169 2.03686 1.08539 0
M  V30 8559 C 763.139 0.917474 1.38462 0
M  V30 8560 O 764.324 1.18513 1.4953 0
M  V30 8561 C 761.464 2.48566 2.39393 0
M  V30 8562 C 760.577 3.74122 2.16001 0
M  V30 8563 C 759.712 4.07786 3.40418 0
M  V30 8564 C 758.751 5.26383 3.1239 0
M  V30 8565 N 757.888 5.55685 4.29138 0
M  V30 8566 H 762.728 2.90043 0.684018 0
M  V30 8567 H 760.265 1.43438 0.326183 0
M  V30 8568 H 762.223 2.72639 3.15791 0
M  V30 8569 H 760.853 1.65186 2.77333 0
M  V30 8570 H 759.905 3.57389 1.30296 0
M  V30 8571 H 761.217 4.60659 1.91298 0
M  V30 8572 H 760.371 4.32759 4.25211 0
M  V30 8573 H 759.11 3.19817 3.68197 0
M  V30 8574 H 758.115 5.01206 2.25993 0
M  V30 8575 H 759.34 6.1597 2.85934 0
M  V30 8576 H 757.286 4.70675 4.56948 0
M  V30 8577 H 757.203 6.3664 4.07708 0
M  V30 8578 H 758.471 5.85209 5.14928 0
M  V30 8579 N 762.7 -0.34323 1.53817 0
M  V30 8580 C 763.648 -1.44176 1.82527 0
M  V30 8581 C 764.642 -1.54452 0.695772 0
M  V30 8582 O 765.848 -1.57072 0.879114 0
M  V30 8583 H 762.223 -0.480729 0.578277 0
M  V30 8584 H 764.194 -1.17176 2.74431 0
M  V30 8585 C 762.943 -2.80695 2.05197 0
M  V30 8586 H 762.266 -2.73554 2.91561 0
M  V30 8587 H 763.706 -3.56679 2.29251 0
M  V30 8588 C 762.165 -3.26322 0.837589 0
M  V30 8589 O 762.695 -4.01683 0.0371631 0
M  V30 8590 N 760.901 -2.83128 0.654724 0
M  V30 8591 H 760.448 -2.21965 1.30725 0
M  V30 8592 H 760.406 -3.14011 -0.156345 0
M  V30 8593 N 764.178 -1.45556 -0.604258 0
M  V30 8594 C 765.427 -1.49019 -1.35928 0
M  V30 8595 C 765.74 -0.137409 -1.95117 0
M  V30 8596 O 766.946 -0.0497032 -2.71455 0
M  V30 8597 C 765.402 -2.62477 -2.46239 0
M  V30 8598 C 765.01 -4.04082 -1.93447 0
M  V30 8599 C 766.754 -2.7519 -3.23219 0
M  V30 8600 C 764.661 -5.08917 -3.0126 0
M  V30 8601 H 763.591 -0.554518 -0.510907 0
M  V30 8602 H 766.242 -1.71705 -0.647262 0
M  V30 8603 H 764.624 -2.3308 -3.2014 0
M  V30 8604 H 765.798 -4.43173 -1.26232 0
M  V30 8605 H 764.113 -3.95849 -1.29201 0
M  V30 8606 H 766.71 -3.50683 -4.0364 0
M  V30 8607 H 767.053 -1.81941 -3.74437 0
M  V30 8608 H 767.586 -3.04129 -2.56418 0
M  V30 8609 H 764.325 -6.03886 -2.54955 0
M  V30 8610 H 763.845 -4.74393 -3.67031 0
M  V30 8611 H 765.524 -5.33814 -3.65584 0
M  V30 8612 N 765.656 0.84705 -1.32902 0
M  V30 8613 C 766.586 1.97166 -1.25091 0
M  V30 8614 C 767.567 1.69578 -0.133161 0
M  V30 8615 O 768.752 1.91519 -0.321591 0
M  V30 8616 C 765.882 3.33157 -0.981006 0
M  V30 8617 C 764.836 3.75119 -2.06082 0
M  V30 8618 C 764.162 5.08826 -1.64318 0
M  V30 8619 C 765.462 3.89774 -3.47669 0
M  V30 8620 H 767.156 2.03958 -2.19184 0
M  V30 8621 H 764.702 0.979907 -1.05517 0
M  V30 8622 H 766.655 4.11393 -0.912891 0
M  V30 8623 H 765.379 3.266 -0.00445559 0
M  V30 8624 H 764.038 2.9914 -2.11921 0
M  V30 8625 H 763.686 4.98732 -0.653876 0
M  V30 8626 H 763.386 5.37873 -2.36572 0
M  V30 8627 H 764.91 5.89546 -1.58958 0
M  V30 8628 H 766.324 4.58343 -3.44376 0
M  V30 8629 H 764.721 4.30248 -4.18338 0
M  V30 8630 H 765.791 2.92463 -3.86773 0
M  V30 8631 N 767.134 1.16236 1.06428 0
M  V30 8632 C 768.383 0.937523 1.78587 0
M  V30 8633 C 768.696 -0.536 1.88113 0
M  V30 8634 O 769.902 -0.878697 2.56887 0
M  V30 8635 C 768.358 1.62808 3.2097 0
M  V30 8636 C 767.966 3.13927 3.19615 0
M  V30 8637 C 769.71 1.48515 3.97673 0
M  V30 8638 C 767.617 3.75727 4.56709 0
M  V30 8639 H 766.547 0.347125 0.669343 0
M  V30 8640 H 769.198 1.39353 1.19385 0
M  V30 8641 H 767.58 1.09977 3.80422 0
M  V30 8642 H 768.754 3.7359 2.69753 0
M  V30 8643 H 767.069 3.28089 2.56411 0
M  V30 8644 H 769.666 1.92069 4.99013 0
M  V30 8645 H 770.009 0.433913 4.14032 0
M  V30 8646 H 770.542 1.98494 3.44739 0
M  V30 8647 H 767.281 4.80793 4.45554 0
M  V30 8648 H 766.801 3.20849 5.0677 0
M  V30 8649 H 768.48 3.77203 5.25668 0
M  V30 8650 N 768.612 -1.24939 0.960631 0
M  V30 8651 C 769.86 -1.92437 0.617441 0
M  V30 8652 C 770.181 -1.75543 -0.849101 0
M  V30 8653 O 769.451 -1.12269 -1.60538 0
M  V30 8654 H 768.031 -0.712192 0.225371 0
M  V30 8655 H 770.693 -1.5198 1.22017 0
M  V30 8656 H 769.789 -3.00247 0.851933 0
M  V30 8657 N 770.09 -0.729906 -1.39679 0
M  V30 8658 C 771.339 -0.272534 -1.9985 0
M  V30 8659 C 771.652 1.14519 -1.58571 0
M  V30 8660 O 772.858 1.70182 -2.11543 0
M  V30 8661 C 771.314 -0.436322 -3.57245 0
M  V30 8662 C 770.922 -1.86161 -4.0749 0
M  V30 8663 C 772.666 -0.0404679 -4.24481 0
M  V30 8664 C 770.573 -1.97522 -5.5744 0
M  V30 8665 H 769.503 -0.0981428 -0.747585 0
M  V30 8666 H 772.154 -0.903056 -1.59741 0
M  V30 8667 H 770.536 0.263015 -3.95126 0
M  V30 8668 H 771.71 -2.59248 -3.80955 0
M  V30 8669 H 770.025 -2.21021 -3.529 0
M  V30 8670 H 772.622 -0.104437 -5.34598 0
M  V30 8671 H 772.965 1.00357 -4.04023 0
M  V30 8672 H 773.498 -0.690774 -3.91757 0
M  V30 8673 H 770.237 -3.00096 -5.82771 0
M  V30 8674 H 769.757 -1.28864 -5.85794 0
M  V30 8675 H 771.436 -1.754 -6.22771 0
M  V30 8676 N 771.568 1.50203 -0.477153 0
M  V30 8677 C 772.515 2.28656 0.31386 0
M  V30 8678 C 773.485 1.33977 0.981802 0
M  V30 8679 O 774.67 1.62919 0.993072 0
M  V30 8680 C 771.81 3.16027 1.38639 0
M  V30 8681 C 770.923 4.25743 0.732615 0
M  V30 8682 C 770.058 5.00363 1.78355 0
M  V30 8683 C 769.097 6.01945 1.11035 0
M  V30 8684 N 768.234 6.6982 2.10441 0
M  V30 8685 H 773.074 2.958 -0.361445 0
M  V30 8686 H 770.611 1.45867 -0.190093 0
M  V30 8687 H 772.569 3.6504 2.01994 0
M  V30 8688 H 771.199 2.50917 2.03077 0
M  V30 8689 H 770.251 3.80398 -0.0136546 0
M  V30 8690 H 771.563 4.98393 0.201513 0
M  V30 8691 H 770.717 5.53124 2.49276 0
M  V30 8692 H 769.456 4.27432 2.34847 0
M  V30 8693 H 768.461 5.48438 0.386797 0
M  V30 8694 H 769.686 6.76851 0.552248 0
M  V30 8695 H 767.632 5.99677 2.65939 0
M  V30 8696 H 767.549 7.38366 1.62332 0
M  V30 8697 H 768.817 7.27196 2.80724 0
M  V30 8698 N 773.046 0.209999 1.56195 0
M  V30 8699 C 774.274 -0.429996 2.02382 0
M  V30 8700 C 774.689 -1.54159 1.08998 0
M  V30 8701 O 774.046 -1.82239 0.0974856 0
M  V30 8702 C 774.097 -0.972433 3.48175 0
M  V30 8703 O 773.818 0.0948231 4.37997 0
M  V30 8704 C 775.319 -1.68683 4.09952 0
M  V30 8705 H 772.539 -0.106475 0.662498 0
M  V30 8706 H 775.083 0.323072 2.01932 0
M  V30 8707 H 773.238 -1.67582 3.49278 0
M  V30 8708 H 773.652 -0.31113 5.23576 0
M  V30 8709 H 775.126 -2.01851 5.13771 0
M  V30 8710 H 775.603 -2.59587 3.54276 0
M  V30 8711 H 776.209 -1.02893 4.12666 0
M  V30 8712 N 774.524 -1.57472 -0.0634922 0
M  V30 8713 C 775.749 -1.92273 -0.77756 0
M  V30 8714 C 776.174 -0.807141 -1.69902 0
M  V30 8715 O 775.532 0.239523 -1.79711 0
M  V30 8716 C 775.58 -3.26054 -1.54017 0
M  V30 8717 O 774.684 -3.15873 -2.65138 0
M  V30 8718 H 774.025 -0.629389 -0.211579 0
M  V30 8719 H 776.555 -2.04579 -0.0292523 0
M  V30 8720 H 776.565 -3.60127 -1.91763 0
M  V30 8721 H 775.24 -4.06824 -0.864128 0
M  V30 8722 H 773.817 -2.93373 -2.30189 0
M  V30 8723 N 776.003 0.335068 -1.53997 0
M  V30 8724 C 777.252 1.07182 -1.70865 0
M  V30 8725 C 777.565 1.89541 -0.483078 0
M  V30 8726 O 778.771 2.66219 -0.532879 0
M  V30 8727 C 777.227 1.95497 -3.02174 0
M  V30 8728 C 776.835 1.18304 -4.32097 0
M  V30 8729 C 778.579 2.68978 -3.28407 0
M  V30 8730 C 776.486 2.05699 -5.54474 0
M  V30 8731 H 775.416 0.403857 -0.636722 0
M  V30 8732 H 778.067 0.33076 -1.80494 0
M  V30 8733 H 776.449 2.73456 -2.86423 0
M  V30 8734 H 777.623 0.451969 -4.58578 0
M  V30 8735 H 775.938 0.565556 -4.12541 0
M  V30 8736 H 778.535 3.34651 -4.17029 0
M  V30 8737 H 778.878 3.36 -2.45784 0
M  V30 8738 H 779.411 1.98087 -3.44973 0
M  V30 8739 H 776.15 1.43204 -6.39666 0
M  V30 8740 H 775.67 2.76572 -5.32229 0
M  V30 8741 H 777.349 2.64554 -5.90441 0
M  V30 8742 N 777.481 1.45874 0.596531 0
M  V30 8743 C 778.429 1.55739 1.72766 0
M  V30 8744 C 779.423 0.426666 1.63939 0
M  V30 8745 O 780.629 0.60301 1.69599 0
M  V30 8746 H 777.004 0.489386 0.570968 0
M  V30 8747 H 778.975 2.50871 1.61575 0
M  V30 8748 C 777.724 1.55174 3.11153 0
M  V30 8749 H 777.047 2.41511 3.1861 0
M  V30 8750 H 778.487 1.66133 3.90097 0
M  V30 8751 C 776.946 0.278001 3.35751 0
M  V30 8752 O 777.476 -0.637557 3.96608 0
M  V30 8753 N 775.682 0.170227 2.90101 0
M  V30 8754 H 775.229 0.916159 2.40758 0
M  V30 8755 H 775.187 -0.68117 3.06932 0
M  V30 8756 N 778.959 -0.83999 1.33349 0
M  V30 8757 C 780.187 -1.62728 1.27778 0
M  V30 8758 C 780.602 -1.88191 -0.151505 0
M  V30 8759 O 779.959 -1.46128 -1.09329 0
M  V30 8760 C 780.01 -2.97813 2.04913 0
M  V30 8761 O 779.731 -2.73469 3.42266 0
M  V30 8762 C 781.232 -3.92245 2.0654 0
M  V30 8763 H 778.452 -0.506374 0.440257 0
M  V30 8764 H 780.996 -1.04637 1.75703 0
M  V30 8765 H 779.151 -3.52509 1.60674 0
M  V30 8766 H 779.565 -3.59483 3.81932 0
M  V30 8767 H 781.039 -4.84249 2.64966 0
M  V30 8768 H 781.516 -4.26332 1.05537 0
M  V30 8769 H 782.122 -3.43487 2.50793 0
M  V30 8770 N 780.437 -1.16799 -1.0581 0
M  V30 8771 C 781.347 -0.893492 -2.16919 0
M  V30 8772 C 782.363 0.136061 -1.73467 0
M  V30 8773 O 783.539 -0.0417348 -2.01357 0
M  V30 8774 C 780.604 -0.403763 -3.44341 0
M  V30 8775 C 779.665 -1.49914 -4.02274 0
M  V30 8776 C 778.898 -1.03269 -5.23614 0
M  V30 8777 O 779.121 0.115647 -5.70283 0
M  V30 8778 O 778.055 -1.8231 -5.73626 0
M  V30 8779 H 781.881 -1.82274 -2.42919 0
M  V30 8780 H 779.466 -0.948361 -1.1544 0
M  V30 8781 H 781.348 -0.137874 -4.21174 0
M  V30 8782 H 780.023 0.497413 -3.19855 0
M  V30 8783 H 778.93 -1.81883 -3.26909 0
M  V30 8784 H 780.263 -2.3758 -4.31064 0
M  V30 8785 N 781.915 1.24427 -0.967243 0
M  V30 8786 C 782.825 2.29109 -0.504592 0
M  V30 8787 C 783.841 1.68495 0.434224 0
M  V30 8788 O 785.017 1.99041 0.307379 0
M  V30 8789 C 782.082 3.46133 0.198273 0
M  V30 8790 C 781.143 4.22149 -0.780313 0
M  V30 8791 C 780.376 5.33585 -0.110896 0
M  V30 8792 O 780.599 5.59676 1.10088 0
M  V30 8793 O 779.533 5.96522 -0.802823 0
M  V30 8794 H 783.359 2.708 -1.37482 0
M  V30 8795 H 780.944 1.30111 -0.73426 0
M  V30 8796 H 782.826 4.17205 0.593124 0
M  V30 8797 H 781.501 3.0642 1.04347 0
M  V30 8798 H 780.408 3.53454 -1.22561 0
M  V30 8799 H 781.741 4.65677 -1.59392 0
M  V30 8800 N 783.393 0.737304 1.3929 0
M  V30 8801 C 784.303 0.100464 2.34385 0
M  V30 8802 C 785.319 -0.719282 1.58437 0
M  V30 8803 O 786.495 -0.647216 1.90717 0
M  V30 8804 C 783.56 -0.794325 3.37478 0
M  V30 8805 C 782.621 0.0379345 4.29283 0
M  V30 8806 C 781.854 -0.814241 5.27452 0
M  V30 8807 O 782.077 -2.05288 5.32177 0
M  V30 8808 O 781.011 -0.241679 6.01415 0
M  V30 8809 H 784.837 0.885407 2.90507 0
M  V30 8810 H 782.422 0.497999 1.40856 0
M  V30 8811 H 784.304 -1.30622 4.00644 0
M  V30 8812 H 782.979 -1.55804 2.83737 0
M  V30 8813 H 781.886 0.595405 3.69331 0
M  V30 8814 H 783.219 0.763926 4.86236 0
M  V30 8815 N 784.871 -1.49948 0.485112 0
M  V30 8816 C 786.287 -1.58984 0.140096 0
M  V30 8817 C 786.487 -1.49194 -1.35438 0
M  V30 8818 O 785.543 -1.35765 -2.12894 0
M  V30 8819 C 786.856 -2.92372 0.702769 0
M  V30 8820 C 788.404 -3.05801 0.66745 0
M  V30 8821 C 788.879 -4.41785 1.20791 0
M  V30 8822 N 790.37 -4.48234 1.16792 0
M  V30 8823 C 791.105 -5.51871 1.55646 0
M  V30 8824 N 790.601 -6.62692 2.02016 0
M  V30 8825 N 792.394 -5.42494 1.47161 0
M  V30 8826 H 784.545 -1.54555 1.45693 0
M  V30 8827 H 786.808 -0.731206 0.603359 0
M  V30 8828 H 786.514 -3.05056 1.75025 0
M  V30 8829 H 786.388 -3.76885 0.154205 0
M  V30 8830 H 788.775 -2.92757 -0.371157 0
M  V30 8831 H 788.856 -2.23011 1.25298 0
M  V30 8832 H 788.5 -4.55579 2.24522 0
M  V30 8833 H 788.43 -5.23188 0.598464 0
M  V30 8834 H 790.921 -3.68718 0.827982 0
M  V30 8835 H 791.234 -7.3785 2.29775 0
M  V30 8836 H 789.579 -6.63775 2.05979 0
M  V30 8837 H 792.77 -4.54806 1.10765 0
M  V30 8838 H 792.943 -6.2314 1.77766 0
M  V30 8839 N 786.349 -0.21828 -1.56081 0
M  V30 8840 C 787.598 0.414644 -1.97392 0
M  V30 8841 C 787.911 1.61132 -1.10887 0
M  V30 8842 O 789.117 2.31355 -1.42082 0
M  V30 8843 C 787.573 0.789099 -3.51143 0
M  V30 8844 C 787.181 -0.384578 -4.46346 0
M  V30 8845 C 788.925 1.38781 -4.01173 0
M  V30 8846 C 786.832 0.0121288 -5.91399 0
M  V30 8847 H 785.762 0.158691 -0.737111 0
M  V30 8848 H 788.413 -0.313974 -1.80794 0
M  V30 8849 H 786.795 1.57505 -3.6333 0
M  V30 8850 H 787.969 -1.16212 -4.45905 0
M  V30 8851 H 786.284 -0.896306 -4.06639 0
M  V30 8852 H 788.881 1.69746 -5.07041 0
M  V30 8853 H 789.224 2.30245 -3.46833 0
M  V30 8854 H 789.757 0.665364 -3.92196 0
M  V30 8855 H 786.496 -0.868917 -6.49715 0
M  V30 8856 H 786.016 0.754053 -5.95041 0
M  V30 8857 H 787.695 0.439949 -6.45502 0
M  V30 8858 N 787.827 1.57504 0.0551401 0
M  V30 8859 C 789.238 1.76626 0.604979 0
M  V30 8860 C 789.589 0.845978 1.77024 0
M  V30 8861 O 788.714 0.0341936 2.16373 0
M  V30 8862 C 789.309 3.203 1.10425 0
M  V30 8863 C 787.868 3.4071 1.59981 0
M  V30 8864 C 787.015 2.72258 0.526414 0
M  V30 8865 H 789.966 1.57775 -0.171072 0
M  V30 8866 H 789.987 3.25377 1.97256 0
M  V30 8867 H 789.499 3.87255 0.255939 0
M  V30 8868 H 787.6 2.78892 2.47083 0
M  V30 8869 H 787.713 4.49227 1.66528 0
M  V30 8870 H 786.077 2.35283 0.97539 0
M  V30 8871 H 786.86 3.41879 -0.311991 0
M  V30 8872 N 789.305 -0.326896 1.54172 0
M  V30 8873 C 790.255 -1.40319 1.79707 0
M  V30 8874 C 791.239 -1.47056 0.652938 0
M  V30 8875 O 792.431 -1.51645 0.91284 0
M  V30 8876 C 789.56 -2.77222 2.02491 0
M  V30 8877 C 788.646 -2.74811 3.23016 0
M  V30 8878 N 789.037 -2.42022 4.44138 0
M  V30 8879 C 787.335 -3.05943 3.24522 0
M  V30 8880 C 788.036 -2.48263 5.26061 0
M  V30 8881 N 787.012 -2.84567 4.63166 0
M  V30 8882 H 790.814 -1.13892 2.70935 0
M  V30 8883 H 788.328 -0.53536 1.53322 0
M  V30 8884 H 790.325 -3.54793 2.18923 0
M  V30 8885 H 788.985 -3.04582 1.12515 0
M  V30 8886 H 789.996 -2.14926 4.71197 0
M  V30 8887 H 786.673 -3.38367 2.44569 0
M  V30 8888 H 788.063 -2.2593 6.32776 0
M  V30 8889 N 790.784 -1.46188 -0.588786 0
M  V30 8890 C 792.033 -1.50452 -1.34339 0
M  V30 8891 C 792.346 -0.158096 -1.9496 0
M  V30 8892 O 793.552 -0.0784918 -2.71387 0
M  V30 8893 C 792.008 -2.65074 -2.43441 0
M  V30 8894 C 791.616 -4.06111 -1.8915 0
M  V30 8895 C 793.36 -2.78603 -3.20282 0
M  V30 8896 C 791.267 -5.12084 -2.95845 0
M  V30 8897 H 790.197 -0.559905 -0.504997 0
M  V30 8898 H 792.848 -1.72382 -0.629014 0
M  V30 8899 H 791.23 -2.36462 -3.1765 0
M  V30 8900 H 792.404 -4.44487 -1.21524 0
M  V30 8901 H 790.719 -3.97197 -1.24995 0
M  V30 8902 H 793.316 -3.54944 -3.99898 0
M  V30 8903 H 793.659 -1.85902 -3.72486 0
M  V30 8904 H 794.192 -3.06832 -2.53178 0
M  V30 8905 H 790.931 -6.06556 -2.48535 0
M  V30 8906 H 790.451 -4.78259 -3.61979 0
M  V30 8907 H 792.13 -5.37661 -3.59902 0
M  V30 8908 N 792.262 0.832906 -1.33792 0
M  V30 8909 C 793.209 1.94314 -1.24541 0
M  V30 8910 C 794.179 1.65646 -0.122753 0
M  V30 8911 O 795.364 1.88394 -0.30204 0
M  V30 8912 C 792.504 3.30395 -0.996641 0
M  V30 8913 C 791.617 3.71422 -2.20612 0
M  V30 8914 C 790.752 4.96401 -1.89101 0
M  V30 8915 C 789.791 5.2998 -3.06247 0
M  V30 8916 N 788.928 6.46137 -2.74685 0
M  V30 8917 H 793.768 2.01559 -2.19495 0
M  V30 8918 H 791.305 0.986243 -1.09141 0
M  V30 8919 H 793.263 4.08803 -0.832817 0
M  V30 8920 H 791.893 3.22691 -0.0838242 0
M  V30 8921 H 790.945 2.88488 -2.47949 0
M  V30 8922 H 792.257 3.92215 -3.0817 0
M  V30 8923 H 791.411 5.82572 -1.69396 0
M  V30 8924 H 790.15 4.7759 -0.987882 0
M  V30 8925 H 789.155 4.42312 -3.26559 0
M  V30 8926 H 790.38 5.50737 -3.97323 0
M  V30 8927 H 788.326 6.28801 -1.86938 0
M  V30 8928 H 788.243 6.67054 -3.55774 0
M  V30 8929 H 789.511 7.35403 -2.58461 0
M  V30 8930 N 793.74 1.17359 1.05189 0
M  V30 8931 C 794.688 0.886527 2.15043 0
M  V30 8932 C 795.682 -0.148834 1.68745 0
M  V30 8933 O 796.888 -0.00175123 1.8 0
M  V30 8934 H 793.263 0.269147 0.702185 0
M  V30 8935 H 795.234 1.82016 2.36459 0
M  V30 8936 C 793.983 0.416333 3.45198 0
M  V30 8937 H 793.306 1.20449 3.81225 0
M  V30 8938 H 794.746 0.254362 4.23236 0
M  V30 8939 C 793.205 -0.866016 3.25579 0
M  V30 8940 O 793.735 -1.9328 3.52144 0
M  V30 8941 N 791.941 -0.814179 2.78961 0
M  V30 8942 H 791.488 0.0541618 2.57543 0
M  V30 8943 H 791.446 -1.67264 2.66214 0
M  V30 8944 N 795.218 -1.23913 0.973828 0
M  V30 8945 C 796.446 -1.96195 0.656891 0
M  V30 8946 C 796.861 -1.72166 -0.774876 0
M  V30 8947 O 796.218 -1.0091 -1.52064 0
M  V30 8948 C 796.269 -3.49342 0.929638 0
M  V30 8949 O 795.99 -3.72553 2.30512 0
M  V30 8950 C 797.491 -4.38833 0.627739 0
M  V30 8951 H 794.711 -0.624841 0.244572 0
M  V30 8952 H 797.255 -1.57579 1.30343 0
M  V30 8953 H 795.41 -3.85999 0.329216 0
M  V30 8954 H 795.824 -4.66893 2.3898 0
M  V30 8955 H 797.298 -5.45117 0.868991 0
M  V30 8956 H 797.775 -4.37009 -0.438104 0
M  V30 8957 H 798.381 -4.07773 1.20834 0
M  V30 8958 N 796.696 -0.74468 -1.38897 0
M  V30 8959 C 797.926 -0.306982 -2.04307 0
M  V30 8960 C 798.334 1.06652 -1.56275 0
M  V30 8961 O 797.677 1.68699 -0.72708 0
M  V30 8962 C 797.739 -0.241186 -3.5869 0
M  V30 8963 C 797.403 -1.55476 -4.2974 0
M  V30 8964 C 798.4 -2.50229 -4.55721 0
M  V30 8965 C 796.085 -1.82173 -4.68101 0
M  V30 8966 C 798.079 -3.69905 -5.19085 0
M  V30 8967 C 795.766 -3.02125 -5.31191 0
M  V30 8968 C 796.764 -3.95812 -5.56616 0
M  V30 8969 O 796.452 -5.13656 -6.18395 0
M  V30 8970 H 796.184 -0.130416 -0.663301 0
M  V30 8971 H 798.738 -1.01192 -1.78744 0
M  V30 8972 H 796.968 0.519925 -3.83189 0
M  V30 8973 H 798.657 0.165806 -4.05561 0
M  V30 8974 H 799.423 -2.30877 -4.26522 0
M  V30 8975 H 795.302 -1.10091 -4.47662 0
M  V30 8976 H 798.846 -4.43047 -5.38846 0
M  V30 8977 H 794.743 -3.21374 -5.59811 0
M  V30 8978 H 795.511 -5.14119 -6.36886 0
M  V30 8979 N 798.174 1.49689 -0.493057 0
M  V30 8980 C 799.451 1.9525 0.116907 0
M  V30 8981 C 799.831 1.43429 1.54892 0
M  V30 8982 O 799.179 0.644621 2.19219 0
M  V30 8983 C 799.389 3.4898 0.037705 0
M  V30 8984 C 800.737 4.24052 0.215621 0
M  V30 8985 O 801.761 3.5602 0.113266 0
M  V30 8986 O 800.62 5.44847 0.42477 0
M  V30 8987 H 797.714 0.820973 0.099662 0
M  V30 8988 H 800.26 1.60367 -0.555029 0
M  V30 8989 H 799.032 3.79309 -0.961251 0
M  V30 8990 H 798.655 3.9046 0.750137 0
M  V30 8991 N 799.652 0.226554 1.55963 0
M  V30 8992 C 800.6 -0.697922 2.21882 0
M  V30 8993 C 801.594 -1.19586 1.19981 0
M  V30 8994 O 802.8 -1.15511 1.38048 0
M  V30 8995 H 799.175 -0.243501 0.711485 0
M  V30 8996 H 801.146 -0.118576 2.98164 0
M  V30 8997 C 799.895 -1.89309 2.91646 0
M  V30 8998 H 799.218 -1.51906 3.69817 0
M  V30 8999 H 800.658 -2.51762 3.41162 0
M  V30 9000 C 799.117 -2.75162 1.94391 0
M  V30 9001 O 799.647 -3.74071 1.46402 0
M  V30 9002 N 797.853 -2.41302 1.61932 0
M  V30 9003 H 797.4 -1.60923 2.01151 0
M  V30 9004 H 797.358 -2.99023 0.971219 0
M  V30 9005 N 801.13 -1.57531 -0.0467866 0
M  V30 9006 C 802.077 -2.05387 -1.05285 0
M  V30 9007 C 803.047 -0.939385 -1.36985 0
M  V30 9008 O 804.232 -1.20877 -1.47626 0
M  V30 9009 C 801.372 -2.52343 -2.35408 0
M  V30 9010 C 800.485 -3.77512 -2.10022 0
M  V30 9011 C 799.62 -4.1315 -3.33887 0
M  V30 9012 C 798.659 -5.31286 -3.03976 0
M  V30 9013 N 797.796 -5.62441 -4.20243 0
M  V30 9014 H 802.636 -2.91095 -0.637788 0
M  V30 9015 H 800.173 -1.43939 -0.303322 0
M  V30 9016 H 802.131 -2.77628 -3.11413 0
M  V30 9017 H 800.761 -1.69577 -2.7467 0
M  V30 9018 H 799.813 -3.59417 -1.24594 0
M  V30 9019 H 801.125 -4.63644 -1.83945 0
M  V30 9020 H 800.279 -4.39469 -4.18273 0
M  V30 9021 H 799.018 -3.25634 -3.63062 0
M  V30 9022 H 798.023 -5.04738 -2.17991 0
M  V30 9023 H 799.248 -6.20441 -2.76098 0
M  V30 9024 H 797.194 -4.77885 -4.49402 0
M  V30 9025 H 797.111 -6.43046 -3.97528 0
M  V30 9026 H 798.379 -5.93327 -5.05553 0
M  V30 9027 N 802.608 0.318715 -1.54344 0
M  V30 9028 C 803.518 1.41535 -1.87097 0
M  V30 9029 C 804.534 1.56361 -0.763353 0
M  V30 9030 O 805.71 1.71365 -1.05811 0
M  V30 9031 C 802.775 2.76178 -2.09587 0
M  V30 9032 C 801.836 2.70486 -3.3337 0
M  V30 9033 C 801.069 3.98708 -3.54778 0
M  V30 9034 O 801.292 4.9721 -2.79532 0
M  V30 9035 O 800.226 4.01674 -4.48266 0
M  V30 9036 H 804.052 1.16764 -2.80357 0
M  V30 9037 H 801.637 0.51318 -1.4031 0
M  V30 9038 H 803.519 3.55873 -2.25682 0
M  V30 9039 H 802.194 3.00829 -1.19514 0
M  V30 9040 H 801.101 1.89325 -3.22656 0
M  V30 9041 H 802.434 2.50789 -4.23516 0
M  V30 9042 N 804.086 1.46499 0.581025 0
M  V30 9043 C 805.034 1.57562 1.71105 0
M  V30 9044 C 806.028 0.44403 1.63477 0
M  V30 9045 O 807.234 0.620964 1.6895 0
M  V30 9046 H 803.609 0.495415 0.565746 0
M  V30 9047 H 805.58 2.5257 1.58905 0
M  V30 9048 C 804.329 1.58465 3.0949 0
M  V30 9049 H 803.652 2.44877 3.16031 0
M  V30 9050 H 805.092 1.70261 3.88313 0
M  V30 9051 C 803.551 0.313596 3.35437 0
M  V30 9052 O 804.081 -0.595456 3.97262 0
M  V30 9053 N 802.287 0.200986 2.89904 0
M  V30 9054 H 801.834 0.941643 2.39773 0
M  V30 9055 H 801.792 -0.648577 3.07638 0
M  V30 9056 N 805.565 -0.825799 1.34232 0
M  V30 9057 C 806.793 -1.61363 1.29497 0
M  V30 9058 C 807.208 -1.88341 -0.131536 0
M  V30 9059 O 806.565 -1.47279 -1.07773 0
M  V30 9060 C 806.616 -2.95623 2.08061 0
M  V30 9061 O 806.337 -2.69824 3.45147 0
M  V30 9062 C 807.838 -3.90032 2.10688 0
M  V30 9063 H 805.058 -0.501676 0.445603 0
M  V30 9064 H 807.602 -1.02767 1.76803 0
M  V30 9065 H 805.757 -3.50785 1.64404 0
M  V30 9066 H 806.171 -3.55412 3.85723 0
M  V30 9067 H 807.645 -4.81411 2.70087 0
M  V30 9068 H 808.122 -4.25188 1.10052 0
M  V30 9069 H 808.728 -3.40807 2.54422 0
M  V30 9070 N 807.043 -1.17915 -1.04565 0
M  V30 9071 C 807.975 -0.859359 -2.1248 0
M  V30 9072 C 808.988 0.140922 -1.62189 0
M  V30 9073 O 810.177 -0.0862361 -1.78292 0
M  V30 9074 C 807.277 -0.261811 -3.37887 0
M  V30 9075 C 806.45 -1.30651 -4.17431 0
M  V30 9076 C 805.509 -0.725575 -5.21174 0
M  V30 9077 O 804.535 -1.39901 -5.51739 0
M  V30 9078 N 805.737 0.479351 -5.78517 0
M  V30 9079 H 808.502 -1.78818 -2.40508 0
M  V30 9080 H 806.063 -1.07885 -1.20716 0
M  V30 9081 H 808.055 0.14028 -4.04457 0
M  V30 9082 H 806.625 0.570929 -3.07342 0
M  V30 9083 H 805.845 -1.88412 -3.46258 0
M  V30 9084 H 807.133 -2.01099 -4.67372 0
M  V30 9085 H 806.531 1.04431 -5.55977 0
M  V30 9086 H 805.088 0.823427 -6.46578 0
M  V30 9087 N 808.521 1.23394 -0.980386 0
M  V30 9088 C 809.77 1.91116 -0.644785 0
M  V30 9089 C 810.083 1.77333 0.825367 0
M  V30 9090 O 811.289 2.39858 1.27203 0
M  V30 9091 C 809.745 3.42592 -1.10266 0
M  V30 9092 C 809.353 3.65037 -2.59715 0
M  V30 9093 C 811.097 4.1609 -0.8408 0
M  V30 9094 C 809.004 5.10148 -2.9917 0
M  V30 9095 H 807.934 0.715632 -0.23746 0
M  V30 9096 H 810.585 1.39829 -1.18828 0
M  V30 9097 H 808.967 3.92989 -0.487372 0
M  V30 9098 H 810.141 3.25186 -3.26482 0
M  V30 9099 H 808.456 3.04849 -2.83647 0
M  V30 9100 H 811.053 5.23021 -1.11143 0
M  V30 9101 H 811.396 4.15702 0.223085 0
M  V30 9102 H 811.929 3.71681 -1.41767 0
M  V30 9103 H 808.668 5.15668 -4.04682 0
M  V30 9104 H 808.188 5.50949 -2.37097 0
M  V30 9105 H 809.867 5.7848 -2.89775 0
M  V30 9106 N 809.999 0.752036 1.385 0
M  V30 9107 C 811.248 0.304294 1.99391 0
M  V30 9108 C 811.561 -1.11982 1.60373 0
M  V30 9109 O 812.767 -1.66795 2.14223 0
M  V30 9110 C 811.223 0.493101 3.56506 0
M  V30 9111 C 810.831 1.9262 4.04477 0
M  V30 9112 C 812.575 0.107994 4.24363 0
M  V30 9113 C 810.482 2.06365 5.54227 0
M  V30 9114 H 809.412 0.110024 0.745929 0
M  V30 9115 H 812.063 0.928355 1.58284 0
M  V30 9116 H 810.445 -0.20012 3.95494 0
M  V30 9117 H 811.619 2.65276 3.76783 0
M  V30 9118 H 809.934 2.26608 3.49339 0
M  V30 9119 H 812.531 0.189474 5.34364 0
M  V30 9120 H 812.874 -0.939165 4.05568 0
M  V30 9121 H 813.407 0.753011 3.90608 0
M  V30 9122 H 810.146 3.0933 5.77923 0
M  V30 9123 H 809.666 1.38167 5.83669 0
M  V30 9124 H 811.345 1.85286 6.19902 0
M  V30 9125 N 811.477 -1.49425 0.500989 0
M  V30 9126 C 812.724 -2.02453 -0.0435355 0
M  V30 9127 C 813.052 -1.38067 -1.36995 0
M  V30 9128 O 812.307 -0.505557 -1.89057 0
M  V30 9129 C 812.606 -3.56562 -0.24463 0
M  V30 9130 C 812.272 -4.39585 1.00379 0
M  V30 9131 C 810.934 -4.61992 1.346 0
M  V30 9132 C 813.286 -4.87881 1.83361 0
M  V30 9133 C 810.614 -5.2994 2.51755 0
M  V30 9134 C 812.966 -5.57119 2.99669 0
M  V30 9135 C 811.63 -5.77771 3.3427 0
M  V30 9136 H 810.9 -0.740829 -0.0159308 0
M  V30 9137 H 813.547 -1.79725 0.661143 0
M  V30 9138 H 811.852 -3.77969 -1.03183 0
M  V30 9139 H 813.549 -3.95185 -0.6804 0
M  V30 9140 H 810.139 -4.22385 0.727225 0
M  V30 9141 H 814.323 -4.70398 1.58237 0
M  V30 9142 H 809.579 -5.44133 2.788 0
M  V30 9143 H 813.753 -5.93516 3.64296 0
M  V30 9144 H 811.38 -6.30197 4.25154 0
M  V30 9145 N 812.955 -0.234822 -1.55841 0
M  V30 9146 C 813.903 0.686145 -2.22249 0
M  V30 9147 C 814.897 1.18948 -1.20614 0
M  V30 9148 O 816.103 1.14777 -1.38659 0
M  V30 9149 H 812.478 0.239724 -0.712767 0
M  V30 9150 H 814.449 0.102762 -2.98223 0
M  V30 9151 C 813.198 1.8776 -2.92646 0
M  V30 9152 H 812.521 1.49943 -3.70617 0
M  V30 9153 H 813.961 2.4995 -3.42493 0
M  V30 9154 C 812.42 2.74127 -1.95847 0
M  V30 9155 O 812.95 3.7329 -1.48384 0
M  V30 9156 N 811.156 2.4044 -1.63209 0
M  V30 9157 H 810.703 1.59854 -2.02001 0
M  V30 9158 H 810.661 2.98504 -0.987063 0
M  V30 9159 N 814.433 1.57553 0.0384317 0
M  V30 9160 C 815.661 1.93093 0.743141 0
M  V30 9161 C 816.076 0.833787 1.69391 0
M  V30 9162 O 815.433 -0.190532 1.81503 0
M  V30 9163 C 815.484 3.28533 1.50826 0
M  V30 9164 O 815.205 4.34032 0.595665 0
M  V30 9165 C 816.706 3.78297 2.31098 0
M  V30 9166 H 813.926 0.637486 0.20941 0
M  V30 9167 H 816.47 2.045 -0.00125154 0
M  V30 9168 H 814.625 3.18552 2.20462 0
M  V30 9169 H 815.039 5.12155 1.13124 0
M  V30 9170 H 816.513 4.75602 2.80191 0
M  V30 9171 H 816.99 3.09008 3.12107 0
M  V30 9172 H 817.596 3.91331 1.66555 0
M  V30 9173 N 815.911 -0.310526 1.54511 0
M  V30 9174 C 817.158 -1.04691 1.73338 0
M  V30 9175 C 817.486 -1.87584 0.514038 0
M  V30 9176 O 816.741 -1.89096 -0.504119 0
M  V30 9177 C 817.04 -1.98942 2.96912 0
M  V30 9178 C 816.706 -1.321 4.31115 0
M  V30 9179 C 815.368 -1.13603 4.67598 0
M  V30 9180 C 817.72 -0.842362 5.14348 0
M  V30 9181 C 815.048 -0.459102 5.84901 0
M  V30 9182 C 817.4 -0.179202 6.32346 0
M  V30 9183 C 816.064 0.0178111 6.67498 0
M  V30 9184 H 815.334 -0.38309 0.634289 0
M  V30 9185 H 817.981 -0.322723 1.88761 0
M  V30 9186 H 816.286 -2.77856 2.76231 0
M  V30 9187 H 817.983 -2.55972 3.08674 0
M  V30 9188 H 814.573 -1.47502 4.02419 0
M  V30 9189 H 818.757 -0.973013 4.86668 0
M  V30 9190 H 814.013 -0.295385 6.10686 0
M  V30 9191 H 818.187 0.199619 6.96114 0
M  V30 9192 H 815.814 0.544356 7.58249 0
M  V30 9193 N 817.389 -1.46805 -0.573248 0
M  V30 9194 C 818.337 -1.58468 -1.70267 0
M  V30 9195 C 819.331 -0.452694 -1.63239 0
M  V30 9196 O 820.537 -0.629915 -1.68618 0
M  V30 9197 H 816.912 -0.498408 -0.56311 0
M  V30 9198 H 818.883 -2.5341 -1.57563 0
M  V30 9199 C 817.632 -1.60104 -3.08645 0
M  V30 9200 H 816.955 -2.4655 -3.14727 0
M  V30 9201 H 818.395 -1.72318 -3.87405 0
M  V30 9202 C 816.854 -0.33138 -3.35266 0
M  V30 9203 O 817.384 0.57438 -3.97572 0
M  V30 9204 N 815.59 -0.216358 -2.89793 0
M  V30 9205 H 815.137 -0.954345 -2.3927 0
M  V30 9206 H 815.095 0.632253 -3.07977 0
M  V30 9207 N 818.867 0.818669 -1.34668 0
M  V30 9208 C 820.097 1.60441 -1.30162 0
M  V30 9209 C 820.505 1.88783 0.125579 0
M  V30 9210 O 819.848 1.48281 1.08437 0
M  V30 9211 C 819.91 2.96794 -2.02864 0
M  V30 9212 C 819.574 2.91327 -3.52105 0
M  V30 9213 C 820.571 2.65611 -4.4693 0
M  V30 9214 C 818.256 3.10825 -3.9458 0
M  V30 9215 C 820.25 2.59452 -5.82206 0
M  V30 9216 C 817.937 3.0429 -5.29954 0
M  V30 9217 C 818.935 2.78637 -6.23579 0
M  V30 9218 O 818.623 2.72042 -7.56471 0
M  V30 9219 H 818.355 0.505278 -0.449077 0
M  V30 9220 H 820.909 1.02632 -1.77921 0
M  V30 9221 H 819.139 3.56538 -1.49725 0
M  V30 9222 H 820.828 3.57837 -1.91592 0
M  V30 9223 H 821.594 2.50278 -4.15434 0
M  V30 9224 H 817.473 3.29807 -3.221 0
M  V30 9225 H 821.017 2.39349 -6.55254 0
M  V30 9226 H 816.914 3.19177 -5.61067 0
M  V30 9227 H 817.682 2.87738 -7.66257 0
M  V30 9228 N 820.346 1.18468 1.03938 0
M  V30 9229 C 821.623 0.890435 1.74157 0
M  V30 9230 C 822.003 -0.606409 2.02203 0
M  V30 9231 O 821.351 -1.5615 1.66822 0
M  V30 9232 C 821.561 1.73906 3.02585 0
M  V30 9233 C 822.909 1.96686 3.76297 0
M  V30 9234 O 823.933 1.70969 3.12487 0
M  V30 9235 O 822.792 2.39986 4.90988 0
M  V30 9236 H 819.886 0.330889 0.757919 0
M  V30 9237 H 822.432 1.29228 1.09992 0
M  V30 9238 H 821.204 2.75369 2.78006 0
M  V30 9239 H 820.827 1.33581 3.74489 0
M  V30 9240 N 821.824 -1.22873 0.986916 0
M  V30 9241 C 822.772 -2.26597 0.525043 0
M  V30 9242 C 823.766 -1.64079 -0.421252 0
M  V30 9243 O 824.972 -1.77576 -0.294429 0
M  V30 9244 H 821.347 -0.736606 0.151381 0
M  V30 9245 H 823.318 -2.62909 1.41142 0
M  V30 9246 C 822.067 -3.47374 -0.150542 0
M  V30 9247 H 821.39 -3.95737 0.568541 0
M  V30 9248 H 822.83 -4.21739 -0.437256 0
M  V30 9249 C 821.289 -3.07163 -1.38392 0
M  V30 9250 O 821.819 -3.16028 -2.47971 0
M  V30 9251 N 820.025 -2.62009 -1.25697 0
M  V30 9252 H 819.572 -2.54996 -0.365355 0
M  V30 9253 H 819.53 -2.35472 -2.08327 0
M  V30 9254 N 823.302 -0.75937 -1.38099 0
M  V30 9255 C 824.249 -0.135508 -2.30402 0
M  V30 9256 C 825.219 0.703356 -1.50473 0
M  V30 9257 O 826.404 0.658287 -1.79084 0
M  V30 9258 C 823.544 0.747228 -3.36913 0
M  V30 9259 C 822.657 -0.106893 -4.31868 0
M  V30 9260 C 821.792 0.779388 -5.25451 0
M  V30 9261 C 820.831 -0.0780179 -6.1205 0
M  V30 9262 N 819.968 0.765545 -6.97914 0
M  V30 9263 H 824.808 -0.9282 -2.83176 0
M  V30 9264 H 822.345 -0.46935 -1.39411 0
M  V30 9265 H 824.303 1.27371 -3.97281 0
M  V30 9266 H 822.933 1.50565 -2.85535 0
M  V30 9267 H 821.985 -0.751063 -3.72912 0
M  V30 9268 H 823.297 -0.768798 -4.9284 0
M  V30 9269 H 822.451 1.37282 -5.90964 0
M  V30 9270 H 821.19 1.47501 -4.6486 0
M  V30 9271 H 820.195 -0.684078 -5.45528 0
M  V30 9272 H 821.42 -0.770786 -6.74712 0
M  V30 9273 H 819.366 1.44601 -6.39864 0
M  V30 9274 H 819.283 0.160666 -7.55829 0
M  V30 9275 H 820.551 1.34377 -7.6783 0
M  V30 9276 N 824.78 1.49157 -0.508906 0
M  V30 9277 C 825.71 2.32109 0.254469 0
M  V30 9278 C 826.691 1.40754 0.955111 0
M  V30 9279 O 827.876 1.69658 0.944983 0
M  V30 9280 C 825.006 3.21458 1.3146 0
M  V30 9281 C 823.96 4.2167 0.733368 0
M  V30 9282 C 823.286 5.00009 1.8946 0
M  V30 9283 C 824.586 5.21544 -0.280875 0
M  V30 9284 H 826.28 2.9618 -0.43795 0
M  V30 9285 H 823.826 1.4243 -0.212062 0
M  V30 9286 H 825.779 3.78305 1.85643 0
M  V30 9287 H 824.503 2.55346 2.03632 0
M  V30 9288 H 823.162 3.65979 0.213231 0
M  V30 9289 H 822.81 4.30338 2.60419 0
M  V30 9290 H 822.51 5.67821 1.51173 0
M  V30 9291 H 824.034 5.59702 2.44061 0
M  V30 9292 H 825.448 5.73039 0.173095 0
M  V30 9293 H 823.845 5.97291 -0.580006 0
M  V30 9294 H 824.915 4.69969 -1.19404 0
M  V30 9295 N 826.258 0.243083 1.55714 0
M  V30 9296 C 827.205 -0.658078 2.21219 0
M  V30 9297 C 828.175 -1.1742 1.17481 0
M  V30 9298 O 829.36 -1.22937 1.45915 0
M  V30 9299 C 826.5 -1.85104 2.91257 0
M  V30 9300 C 825.613 -1.3718 4.09641 0
M  V30 9301 C 824.748 -2.52403 4.67404 0
M  V30 9302 C 823.787 -2.01321 5.78045 0
M  V30 9303 N 822.924 -3.09896 6.30007 0
M  V30 9304 H 827.764 -0.0927854 2.97856 0
M  V30 9305 H 825.301 -0.0340375 1.47061 0
M  V30 9306 H 827.259 -2.55179 3.3006 0
M  V30 9307 H 825.889 -2.38887 2.17101 0
M  V30 9308 H 824.941 -0.565232 3.76177 0
M  V30 9309 H 826.253 -0.957409 4.89525 0
M  V30 9310 H 825.407 -3.30525 5.08761 0
M  V30 9311 H 824.146 -2.97142 3.86728 0
M  V30 9312 H 823.151 -1.21667 5.36169 0
M  V30 9313 H 824.376 -1.57556 6.6057 0
M  V30 9314 H 822.322 -3.54077 5.52237 0
M  V30 9315 H 822.239 -2.72776 7.05074 0
M  V30 9316 H 823.507 -3.8809 6.76023 0
M  V30 9317 N 827.736 -1.57571 -0.0300757 0
M  V30 9318 C 828.646 -2.09892 -1.04798 0
M  V30 9319 C 829.662 -1.03732 -1.39698 0
M  V30 9320 O 830.838 -1.35461 -1.49038 0
M  V30 9321 C 827.903 -2.56707 -2.33028 0
M  V30 9322 C 826.964 -3.77345 -2.04718 0
M  V30 9323 C 826.197 -4.21918 -3.26834 0
M  V30 9324 O 826.42 -3.66025 -4.37472 0
M  V30 9325 O 825.354 -5.14362 -3.12594 0
M  V30 9326 H 829.18 -2.97023 -0.633344 0
M  V30 9327 H 826.765 -1.47344 -0.246991 0
M  V30 9328 H 828.647 -2.87154 -3.08417 0
M  V30 9329 H 827.322 -1.72688 -2.73789 0
M  V30 9330 H 826.229 -3.51919 -1.26901 0
M  V30 9331 H 827.562 -4.62345 -1.68813 0
M  V30 9332 N 829.214 0.302327 -1.54673 0
M  V30 9333 C 830.161 1.37282 -1.85532 0
M  V30 9334 C 831.131 1.50437 -0.704129 0
M  V30 9335 O 832.316 1.65317 -0.952627 0
M  V30 9336 C 829.456 2.73309 -2.10704 0
M  V30 9337 C 828.569 2.68614 -3.38335 0
M  V30 9338 C 827.704 3.96626 -3.53357 0
M  V30 9339 C 826.743 3.86324 -4.74784 0
M  V30 9340 N 825.88 5.06109 -4.86619 0
M  V30 9341 H 830.72 1.10265 -2.76849 0
M  V30 9342 H 828.257 0.533346 -1.37091 0
M  V30 9343 H 830.215 3.52414 -2.23294 0
M  V30 9344 H 828.845 2.98589 -1.22656 0
M  V30 9345 H 827.897 1.81381 -3.34373 0
M  V30 9346 H 829.209 2.56891 -4.27561 0
M  V30 9347 H 828.363 4.84168 -3.65604 0
M  V30 9348 H 827.102 4.11182 -2.62261 0
M  V30 9349 H 826.107 2.97166 -4.62572 0
M  V30 9350 H 827.332 3.73315 -5.67286 0
M  V30 9351 H 825.278 5.2113 -3.98446 0
M  V30 9352 H 825.195 4.96804 -5.69844 0
M  V30 9353 H 826.463 5.95306 -5.03221 0
M  V30 9354 N 830.692 1.47107 0.565454 0
M  V30 9355 C 831.64 1.59368 1.69424 0
M  V30 9356 C 832.634 0.461344 1.62997 0
M  V30 9357 O 833.84 0.638849 1.68282 0
M  V30 9358 H 830.215 0.501387 0.560459 0
M  V30 9359 H 832.186 2.54242 1.56217 0
M  V30 9360 C 830.935 1.61739 3.07792 0
M  V30 9361 H 830.258 2.48215 3.13416 0
M  V30 9362 H 831.698 1.7437 3.86486 0
M  V30 9363 C 830.157 0.349156 3.35086 0
M  V30 9364 O 830.687 -0.553287 3.97871 0
M  V30 9365 N 828.893 0.231723 2.89675 0
M  V30 9366 H 828.44 0.967021 2.3876 0
M  V30 9367 H 828.398 -0.615911 3.08308 0
M  V30 9368 N 832.17 -0.811516 1.35101 0
M  V30 9369 C 833.398 -1.59981 1.31201 0
M  V30 9370 C 833.813 -1.8847 -0.111552 0
M  V30 9371 O 833.17 -1.48414 -1.06205 0
M  V30 9372 C 833.221 -2.934 2.11184 0
M  V30 9373 O 832.942 -2.66148 3.4799 0
M  V30 9374 C 834.443 -3.87776 2.14813 0
M  V30 9375 H 831.663 -0.496921 0.450899 0
M  V30 9376 H 834.207 -1.00886 1.77883 0
M  V30 9377 H 832.362 -3.49022 1.68115 0
M  V30 9378 H 832.776 -3.51301 3.89471 0
M  V30 9379 H 834.25 -4.7852 2.75178 0
M  V30 9380 H 834.727 -4.23997 1.14556 0
M  V30 9381 H 835.333 -3.3809 2.58022 0
M  V30 9382 N 833.648 -1.19017 -1.03309 0
M  V30 9383 C 834.895 -0.990214 -1.76638 0
M  V30 9384 C 835.223 0.479435 -1.88498 0
M  V30 9385 O 834.478 1.37223 -1.39529 0
M  V30 9386 C 834.777 -1.59927 -3.19622 0
M  V30 9387 C 834.443 -3.09632 -3.27779 0
M  V30 9388 C 833.105 -3.50491 -3.29712 0
M  V30 9389 C 835.457 -4.05644 -3.27264 0
M  V30 9390 C 832.785 -4.85921 -3.28782 0
M  V30 9391 C 835.137 -5.41 -3.27875 0
M  V30 9392 C 833.801 -5.81295 -3.28104 0
M  V30 9393 H 833.071 -0.362345 -0.646364 0
M  V30 9394 H 835.718 -1.48197 -1.21284 0
M  V30 9395 H 834.023 -1.0297 -3.78027 0
M  V30 9396 H 835.72 -1.41989 -3.7502 0
M  V30 9397 H 832.31 -2.77073 -3.26999 0
M  V30 9398 H 836.494 -3.75124 -3.24955 0
M  V30 9399 H 831.75 -5.16427 -3.27281 0
M  V30 9400 H 835.924 -6.15157 -3.26428 0
M  V30 9401 H 833.551 -6.86211 -3.27138 0
M  V30 9402 N 835.127 1.22348 -0.993418 0
M  V30 9403 C 836.375 1.90733 -0.668246 0
M  V30 9404 C 836.696 1.77732 0.802261 0
M  V30 9405 O 835.966 1.16486 1.57505 0
M  V30 9406 H 834.546 0.705966 -0.244174 0
M  V30 9407 H 837.208 1.48691 -1.26004 0
M  V30 9408 H 836.304 2.97883 -0.931239 0
M  V30 9409 N 836.605 0.766683 1.37694 0
M  V30 9410 C 837.852 0.328714 1.99814 0
M  V30 9411 C 838.18 -1.09333 1.60862 0
M  V30 9412 O 837.435 -1.7657 0.8439 0
M  V30 9413 C 837.734 0.413831 3.54996 0
M  V30 9414 C 837.4 1.7934 4.137 0
M  V30 9415 C 836.062 2.17092 4.29447 0
M  V30 9416 C 838.414 2.69776 4.45949 0
M  V30 9417 C 835.742 3.44726 4.74743 0
M  V30 9418 C 838.094 3.96814 4.92667 0
M  V30 9419 C 836.758 4.34618 5.0662 0
M  V30 9420 H 836.028 0.120285 0.731172 0
M  V30 9421 H 838.675 0.97972 1.64541 0
M  V30 9422 H 836.98 -0.320723 3.90485 0
M  V30 9423 H 838.677 0.0563369 4.0096 0
M  V30 9424 H 835.267 1.48997 4.01868 0
M  V30 9425 H 839.451 2.41871 4.33373 0
M  V30 9426 H 834.707 3.73917 4.83731 0
M  V30 9427 H 838.881 4.67022 5.16588 0
M  V30 9428 H 836.508 5.33578 5.41478 0
M  V30 9429 N 838.083 -1.48885 0.516809 0
M  V30 9430 C 839.313 -2.06592 -0.018375 0
M  V30 9431 C 839.721 -1.37543 -1.29917 0
M  V30 9432 O 839.064 -0.452527 -1.78039 0
M  V30 9433 C 839.126 -3.58016 -0.326315 0
M  V30 9434 C 838.79 -4.48853 0.859072 0
M  V30 9435 C 839.787 -4.89422 1.75391 0
M  V30 9436 C 837.472 -4.90937 1.06235 0
M  V30 9437 C 839.466 -5.70831 2.83604 0
M  V30 9438 C 837.153 -5.72119 2.14763 0
M  V30 9439 C 838.151 -6.11972 3.03281 0
M  V30 9440 O 837.839 -6.91527 4.09934 0
M  V30 9441 H 837.571 -0.675559 0.0244023 0
M  V30 9442 H 840.125 -1.92442 0.718005 0
M  V30 9443 H 838.355 -3.70231 -1.1165 0
M  V30 9444 H 840.044 -3.97898 -0.801999 0
M  V30 9445 H 840.81 -4.57542 1.60875 0
M  V30 9446 H 836.689 -4.59409 0.382677 0
M  V30 9447 H 840.233 -6.01857 3.52724 0
M  V30 9448 H 836.13 -6.03412 2.29268 0
M  V30 9449 H 836.898 -7.0986 4.07482 0
M  V30 9450 N 839.561 -0.251338 -1.55583 0
M  V30 9451 C 840.509 0.662534 -2.22965 0
M  V30 9452 C 841.503 1.17662 -1.21869 0
M  V30 9453 O 842.709 1.133 -1.39868 0
M  V30 9454 H 839.084 0.232151 -0.715269 0
M  V30 9455 H 841.055 0.0711252 -2.98315 0
M  V30 9456 C 839.804 1.84646 -2.94621 0
M  V30 9457 H 839.127 1.46003 -3.72187 0
M  V30 9458 H 840.567 2.46303 -3.45124 0
M  V30 9459 C 839.026 2.72034 -1.98744 0
M  V30 9460 O 839.556 3.71695 -1.52335 0
M  V30 9461 N 837.762 2.38695 -1.6575 0
M  V30 9462 H 837.309 1.57702 -2.03685 0
M  V30 9463 H 837.267 2.9744 -1.01867 0
M  V30 9464 N 841.039 1.57585 0.0217189 0
M  V30 9465 C 841.987 2.08134 1.03842 0
M  V30 9466 C 842.981 0.996662 1.36978 0
M  V30 9467 O 844.187 1.18149 1.35797 0
M  V30 9468 H 840.562 0.664298 0.352438 0
M  V30 9469 H 842.533 2.92583 0.58634 0
M  V30 9470 C 841.282 2.58218 2.32849 0
M  V30 9471 H 840.605 3.41302 2.08214 0
M  V30 9472 H 842.045 2.97289 3.02316 0
M  V30 9473 C 840.504 1.48664 3.02325 0
M  V30 9474 O 841.034 0.857075 3.9245 0
M  V30 9475 N 839.24 1.21938 2.63779 0
M  V30 9476 H 838.787 1.73319 1.90574 0
M  V30 9477 H 838.745 0.488523 3.10581 0
M  V30 9478 N 842.517 -0.29412 1.54831 0
M  V30 9479 C 843.742 -1.05156 1.78765 0
M  V30 9480 C 844.167 -1.79916 0.548809 0
M  V30 9481 O 843.525 -1.74243 -0.500909 0
M  V30 9482 C 843.573 -2.00242 2.99893 0
M  V30 9483 O 842.677 -3.08662 2.73499 0
M  V30 9484 H 842.018 -0.301737 0.591482 0
M  V30 9485 H 844.548 -0.329449 2.0193 0
M  V30 9486 H 844.558 -2.42583 3.28051 0
M  V30 9487 H 843.233 -1.45235 3.89717 0
M  V30 9488 H 841.81 -2.70786 2.56377 0
M  V30 9489 N 843.995 -1.47404 -0.557645 0
M  V30 9490 C 844.925 -1.62736 -1.67449 0
M  V30 9491 C 845.906 -0.476824 -1.6328 0
M  V30 9492 O 847.091 -0.706108 -1.80908 0
M  V30 9493 C 844.221 -1.641 -3.06086 0
M  V30 9494 C 843.175 -2.78377 -3.25101 0
M  V30 9495 C 842.501 -2.64812 -4.6452 0
M  V30 9496 C 843.801 -4.19971 -3.10518 0
M  V30 9497 H 845.495 -2.56232 -1.54873 0
M  V30 9498 H 843.041 -1.23312 -0.743649 0
M  V30 9499 H 844.994 -1.73417 -3.84063 0
M  V30 9500 H 843.718 -0.671652 -3.19619 0
M  V30 9501 H 842.377 -2.6857 -2.49531 0
M  V30 9502 H 842.025 -1.65906 -4.74852 0
M  V30 9503 H 841.725 -3.41477 -4.78191 0
M  V30 9504 H 843.249 -2.76057 -5.44633 0
M  V30 9505 H 844.663 -4.30757 -3.78313 0
M  V30 9506 H 843.06 -4.97419 -3.35699 0
M  V30 9507 H 844.13 -4.38369 -2.0727 0
M  V30 9508 N 845.473 0.80434 -1.35529 0
M  V30 9509 C 846.403 1.93086 -1.31301 0
M  V30 9510 C 847.384 1.69068 -0.187044 0
M  V30 9511 O 848.569 1.90399 -0.382359 0
M  V30 9512 C 845.699 3.29867 -1.0865 0
M  V30 9513 C 844.653 3.68373 -2.17911 0
M  V30 9514 C 843.979 5.0334 -1.80423 0
M  V30 9515 C 845.279 3.78516 -3.59893 0
M  V30 9516 H 846.973 1.96882 -2.25561 0
M  V30 9517 H 844.519 0.945841 -1.08581 0
M  V30 9518 H 846.472 4.08281 -1.04331 0
M  V30 9519 H 845.196 3.2642 -0.108359 0
M  V30 9520 H 843.855 2.92247 -2.21331 0
M  V30 9521 H 843.503 4.96399 -0.812213 0
M  V30 9522 H 843.203 5.30074 -2.53565 0
M  V30 9523 H 844.727 5.84191 -1.77633 0
M  V30 9524 H 846.141 4.47155 -3.58783 0
M  V30 9525 H 844.538 4.16721 -4.31814 0
M  V30 9526 H 845.608 2.8001 -3.95882 0
M  V30 9527 N 846.951 1.19563 1.02676 0
M  V30 9528 C 847.883 0.893054 2.11086 0
M  V30 9529 C 848.896 -0.115101 1.62393 0
M  V30 9530 O 850.085 0.11459 1.78132 0
M  V30 9531 C 847.185 0.315533 3.37428 0
M  V30 9532 C 846.358 1.37276 4.153 0
M  V30 9533 C 845.417 0.808398 5.19953 0
M  V30 9534 O 844.443 1.48661 5.49444 0
M  V30 9535 N 845.645 -0.387253 5.79207 0
M  V30 9536 H 848.41 1.82622 2.37633 0
M  V30 9537 H 845.971 1.09792 1.18984 0
M  V30 9538 H 847.963 -0.0759166 4.04629 0
M  V30 9539 H 846.533 -0.521961 3.08211 0
M  V30 9540 H 845.753 1.93897 3.43217 0
M  V30 9541 H 847.041 2.08509 4.64114 0
M  V30 9542 H 846.439 -0.955725 5.57568 0
M  V30 9543 H 844.996 -0.720457 6.47806 0
M  V30 9544 N 848.429 -1.21819 0.999893 0
M  V30 9545 C 849.377 -2.26027 0.549047 0
M  V30 9546 C 850.371 -1.64516 -0.403826 0
M  V30 9547 O 851.577 -1.77878 -0.275578 0
M  V30 9548 H 847.952 -0.734958 0.159185 0
M  V30 9549 H 849.923 -2.61398 1.43923 0
M  V30 9550 C 848.672 -3.47514 -0.11369 0
M  V30 9551 H 847.995 -3.95112 0.610482 0
M  V30 9552 H 849.435 -4.22179 -0.3925 0
M  V30 9553 C 847.894 -3.08614 -1.35126 0
M  V30 9554 O 848.424 -3.1864 -2.44605 0
M  V30 9555 N 846.63 -2.63327 -1.22911 0
M  V30 9556 H 846.177 -2.55369 -0.338288 0
M  V30 9557 H 846.135 -2.37668 -2.05818 0
M  V30 9558 N 849.908 -0.773975 -1.37286 0
M  V30 9559 C 850.871 -0.167974 -2.28584 0
M  V30 9560 C 851.871 0.625662 -1.48129 0
M  V30 9561 O 853.061 0.448924 -1.68316 0
M  V30 9562 C 850.193 0.769364 -3.32105 0
M  V30 9563 H 851.386 -0.972806 -2.83684 0
M  V30 9564 H 848.939 -0.542335 -1.46589 0
M  V30 9565 H 849.674 1.59912 -2.82132 0
M  V30 9566 H 849.459 0.202419 -3.91577 0
M  V30 9567 H 850.949 1.18872 -4.00324 0
M  V30 9568 N 851.386 1.48609 -0.524698 0
M  V30 9569 C 852.316 2.32366 0.229837 0
M  V30 9570 C 853.297 1.41759 0.940129 0
M  V30 9571 O 854.482 1.7065 0.926936 0
M  V30 9572 C 851.612 3.22835 1.28043 0
M  V30 9573 C 850.566 4.22424 0.688603 0
M  V30 9574 C 849.892 5.0199 1.84146 0
M  V30 9575 C 851.192 5.21217 -0.336176 0
M  V30 9576 H 852.886 2.95698 -0.469339 0
M  V30 9577 H 850.432 1.42197 -0.227156 0
M  V30 9578 H 852.385 3.80253 1.8162 0
M  V30 9579 H 851.109 2.57492 2.00912 0
M  V30 9580 H 849.768 3.66185 0.174402 0
M  V30 9581 H 849.416 4.33076 2.5584 0
M  V30 9582 H 849.116 5.69392 1.45142 0
M  V30 9583 H 850.64 5.62259 2.38111 0
M  V30 9584 H 852.054 5.7319 0.112307 0
M  V30 9585 H 850.451 5.96642 -0.643324 0
M  V30 9586 H 851.521 4.68676 -1.24381 0
M  V30 9587 N 852.864 0.259585 1.55447 0
M  V30 9588 C 853.774 -0.645026 2.25558 0
M  V30 9589 C 854.79 -1.18291 1.27606 0
M  V30 9590 O 855.966 -1.21649 1.6051 0
M  V30 9591 C 853.031 -1.81964 2.9511 0
M  V30 9592 C 852.092 -1.31997 4.08504 0
M  V30 9593 C 851.325 -2.43861 4.74729 0
M  V30 9594 O 851.548 -3.62876 4.40088 0
M  V30 9595 O 850.482 -2.12898 5.6299 0
M  V30 9596 H 854.308 -0.0775399 3.03601 0
M  V30 9597 H 851.893 0.0275859 1.49375 0
M  V30 9598 H 853.775 -2.50485 3.38873 0
M  V30 9599 H 852.45 -2.37451 2.19997 0
M  V30 9600 H 851.357 -0.601676 3.6923 0
M  V30 9601 H 852.69 -0.811045 4.85472 0
M  V30 9602 N 854.342 -1.57594 -0.0133615 0
M  V30 9603 C 855.29 -2.08682 -1.02736 0
M  V30 9604 C 856.284 -1.00391 -1.36448 0
M  V30 9605 O 857.49 -1.18868 -1.35168 0
M  V30 9606 H 853.865 -0.666158 -0.34891 0
M  V30 9607 H 855.836 -2.9289 -0.570815 0
M  V30 9608 C 854.585 -2.5945 -2.31476 0
M  V30 9609 H 853.908 -3.42401 -2.06401 0
M  V30 9610 H 855.348 -2.98888 -3.00735 0
M  V30 9611 C 853.807 -1.50266 -3.01533 0
M  V30 9612 O 854.337 -0.877875 -3.9199 0
M  V30 9613 N 852.543 -1.23336 -2.63129 0
M  V30 9614 H 852.09 -1.74327 -1.89652 0
M  V30 9615 H 852.048 -0.504987 -3.10318 0
M  V30 9616 N 855.82 0.285905 -1.54985 0
M  V30 9617 C 857.097 1.0397 -1.65679 0
M  V30 9618 C 857.477 2.04725 -0.514851 0
M  V30 9619 O 856.825 2.23257 0.486663 0
M  V30 9620 C 857.035 1.70807 -3.04345 0
M  V30 9621 C 858.383 2.22447 -3.61666 0
M  V30 9622 O 859.407 1.80815 -3.06895 0
M  V30 9623 O 858.266 2.98773 -4.57599 0
M  V30 9624 H 855.36 0.481473 -0.672394 0
M  V30 9625 H 857.906 0.282789 -1.67327 0
M  V30 9626 H 856.678 0.977271 -3.789 0
M  V30 9627 H 856.301 2.53217 -3.06541 0
M  V30 9628 N 857.298 1.47698 0.54982 0
M  V30 9629 C 858.246 1.61156 1.67724 0
M  V30 9630 C 859.24 0.478606 1.62498 0
M  V30 9631 O 860.446 0.656661 1.67595 0
M  V30 9632 H 856.821 0.507304 0.55511 0
M  V30 9633 H 858.792 2.55884 1.53512 0
M  V30 9634 C 857.541 1.64994 3.06059 0
M  V30 9635 H 856.864 2.51525 3.10765 0
M  V30 9636 H 858.304 1.78459 3.84615 0
M  V30 9637 C 856.763 0.384677 3.34697 0
M  V30 9638 O 857.293 -0.511057 3.98436 0
M  V30 9639 N 855.499 0.262434 2.89413 0
M  V30 9640 H 855.046 0.99229 2.37721 0
M  V30 9641 H 855.004 -0.583177 3.08944 0
M  V30 9642 N 858.776 -0.797141 1.35954 0
M  V30 9643 C 860.025 -1.54983 1.29086 0
M  V30 9644 C 860.338 -1.95167 -0.130003 0
M  V30 9645 O 861.544 -2.69596 -0.32101 0
M  V30 9646 C 860 -2.79738 2.26439 0
M  V30 9647 C 859.608 -2.46753 3.73921 0
M  V30 9648 C 861.352 -3.57733 2.28533 0
M  V30 9649 C 859.259 -3.67858 4.63071 0
M  V30 9650 H 858.189 -0.581766 0.479651 0
M  V30 9651 H 860.84 -0.87541 1.61273 0
M  V30 9652 H 859.222 -3.48939 1.87236 0
M  V30 9653 H 860.396 -1.85499 4.21814 0
M  V30 9654 H 858.711 -1.81985 3.74527 0
M  V30 9655 H 861.308 -4.47699 2.92351 0
M  V30 9656 H 861.651 -3.95754 1.29169 0
M  V30 9657 H 862.184 -2.95504 2.66313 0
M  V30 9658 H 858.923 -3.34939 5.63468 0
M  V30 9659 H 858.443 -4.28305 4.19898 0
M  V30 9660 H 860.122 -4.34977 4.78961 0
M  V30 9661 N 860.254 -1.20106 -1.0204 0
M  V30 9662 C 861.531 -0.918029 -1.72718 0
M  V30 9663 C 861.911 0.574163 -2.03142 0
M  V30 9664 O 861.259 1.53476 -1.69285 0
M  V30 9665 C 861.469 -1.78698 -2.9978 0
M  V30 9666 C 862.817 -2.02648 -3.7312 0
M  V30 9667 O 863.841 -1.75919 -3.09727 0
M  V30 9668 O 862.7 -2.47767 -4.87107 0
M  V30 9669 H 859.794 -0.342904 -0.752559 0
M  V30 9670 H 862.34 -1.30961 -1.07923 0
M  V30 9671 H 861.112 -2.79757 -2.7359 0
M  V30 9672 H 860.735 -1.39522 -3.72316 0
M  V30 9673 N 861.732 1.21287 -1.00634 0
M  V30 9674 C 862.662 2.25973 -0.588089 0
M  V30 9675 C 863.643 1.65527 0.391764 0
M  V30 9676 O 864.828 1.92179 0.279452 0
M  V30 9677 C 861.958 3.47197 0.0847336 0
M  V30 9678 C 860.912 4.20168 -0.815039 0
M  V30 9679 C 860.238 5.34699 -0.00855393 0
M  V30 9680 C 861.538 4.77416 -2.11828 0
M  V30 9681 H 863.232 2.61212 -1.46317 0
M  V30 9682 H 860.778 1.25563 -0.704985 0
M  V30 9683 H 862.731 4.19602 0.388821 0
M  V30 9684 H 861.455 3.11092 0.994456 0
M  V30 9685 H 860.114 3.49614 -1.10297 0
M  V30 9686 H 859.762 4.94837 0.902499 0
M  V30 9687 H 859.462 5.84449 -0.607664 0
M  V30 9688 H 860.986 6.09914 0.289317 0
M  V30 9689 H 862.4 5.41694 -1.87725 0
M  V30 9690 H 860.797 5.37561 -2.66736 0
M  V30 9691 H 861.867 3.96724 -2.78816 0
M  V30 9692 N 863.21 0.781244 1.36873 0
M  V30 9693 C 864.487 0.274217 1.93668 0
M  V30 9694 C 864.867 -1.2323 1.71399 0
M  V30 9695 O 864.215 -2.01993 1.06822 0
M  V30 9696 C 864.425 0.657939 3.42742 0
M  V30 9697 C 865.773 0.63307 4.19854 0
M  V30 9698 O 866.797 0.597909 3.51146 0
M  V30 9699 O 865.656 0.668636 5.42394 0
M  V30 9700 H 862.75 0.0658059 0.824378 0
M  V30 9701 H 865.296 0.863238 1.46104 0
M  V30 9702 H 864.068 1.69728 3.52573 0
M  V30 9703 H 863.691 0.0423678 3.97577 0
M  V30 9704 N 864.689 -1.48329 0.532571 0
M  V30 9705 C 865.938 -2.017 -0.00259705 0
M  V30 9706 C 866.251 -1.41469 -1.35077 0
M  V30 9707 O 867.457 -1.86354 -1.97445 0
M  V30 9708 C 865.913 -3.59858 -0.0550179 0
M  V30 9709 C 865.521 -4.29073 1.28842 0
M  V30 9710 C 867.265 -4.21066 -0.538878 0
M  V30 9711 C 865.172 -5.79171 1.19644 0
M  V30 9712 H 864.102 -0.753985 -0.00474081 0
M  V30 9713 H 866.753 -1.70565 0.676739 0
M  V30 9714 H 865.135 -3.87846 -0.799486 0
M  V30 9715 H 866.309 -4.12755 2.04865 0
M  V30 9716 H 864.624 -3.79748 1.70822 0
M  V30 9717 H 867.221 -5.31026 -0.6257 0
M  V30 9718 H 867.564 -3.86559 -1.54525 0
M  V30 9719 H 868.097 -3.97517 0.149984 0
M  V30 9720 H 864.836 -6.18257 2.17805 0
M  V30 9721 H 864.356 -5.97895 0.477609 0
M  V30 9722 H 866.035 -6.40875 0.888186 0
M  V30 9723 N 866.167 -0.267825 -1.55308 0
M  V30 9724 C 867.416 0.351635 -1.98611 0
M  V30 9725 C 867.729 1.57522 -1.15957 0
M  V30 9726 O 868.935 2.26717 -1.49371 0
M  V30 9727 C 867.391 0.676986 -3.53475 0
M  V30 9728 C 866.999 -0.526385 -4.44897 0
M  V30 9729 C 868.743 1.25948 -4.05386 0
M  V30 9730 C 866.65 -0.176026 -5.91138 0
M  V30 9731 H 865.58 0.13516 -0.741787 0
M  V30 9732 H 868.231 -0.371333 -1.79704 0
M  V30 9733 H 866.613 1.45866 -3.68156 0
M  V30 9734 H 867.787 -1.30339 -4.41982 0
M  V30 9735 H 866.102 -1.02522 -4.03582 0
M  V30 9736 H 868.699 1.53529 -5.12184 0
M  V30 9737 H 869.042 2.19094 -3.53982 0
M  V30 9738 H 869.575 0.540253 -3.94114 0
M  V30 9739 H 866.314 -1.07518 -6.46622 0
M  V30 9740 H 865.834 0.564363 -5.97139 0
M  V30 9741 H 867.513 0.234365 -6.46575 0
M  V30 9742 N 867.645 1.57599 0.00500368 0
M  V30 9743 C 868.875 1.94344 0.700998 0
M  V30 9744 C 869.283 0.868011 1.68114 0
M  V30 9745 O 868.626 -0.16214 1.82983 0
M  V30 9746 C 868.688 3.27046 1.49268 0
M  V30 9747 C 868.352 4.51992 0.674684 0
M  V30 9748 C 869.349 5.19888 -0.0354833 0
M  V30 9749 C 867.034 4.98432 0.622129 0
M  V30 9750 C 869.028 6.3252 -0.787246 0
M  V30 9751 C 866.715 6.10954 -0.133362 0
M  V30 9752 C 867.713 6.77855 -0.836788 0
M  V30 9753 O 867.401 7.88221 -1.57996 0
M  V30 9754 H 867.133 0.645572 0.20053 0
M  V30 9755 H 869.687 2.0536 -0.040718 0
M  V30 9756 H 867.917 3.12424 2.27877 0
M  V30 9757 H 869.606 3.4894 2.07355 0
M  V30 9758 H 870.372 4.85 -0.00400159 0
M  V30 9759 H 866.251 4.46189 1.15917 0
M  V30 9760 H 869.795 6.84671 -1.33683 0
M  V30 9761 H 865.692 6.45285 -0.166682 0
M  V30 9762 H 866.46 8.0471 -1.49615 0
M  V30 9763 N 869.123 -0.277682 1.55134 0
M  V30 9764 C 870.056 -1.3685 1.82612 0
M  V30 9765 C 871.034 -1.47752 0.678833 0
M  V30 9766 O 872.218 -1.6445 0.921329 0
M  V30 9767 C 869.345 -2.74539 1.98359 0
M  V30 9768 C 868.391 -2.80945 3.20893 0
M  V30 9769 S 869.224 -2.40666 4.78373 0
M  V30 9770 C 870.38 -3.80338 4.97085 0
M  V30 9771 H 870.613 -1.13338 2.74849 0
M  V30 9772 H 868.146 -0.477063 1.46845 0
M  V30 9773 H 870.104 -3.53834 2.08115 0
M  V30 9774 H 868.765 -2.95306 1.07019 0
M  V30 9775 H 867.958 -3.81992 3.28783 0
M  V30 9776 H 867.56 -2.09667 3.09703 0
M  V30 9777 H 869.852 -4.75565 4.8254 0
M  V30 9778 H 870.795 -3.77403 5.99143 0
M  V30 9779 H 871.203 -3.71424 4.25094 0
M  V30 9780 N 870.601 -1.47988 -0.541979 0
M  V30 9781 C 871.826 -1.59286 -1.32826 0
M  V30 9782 C 872.251 -0.24894 -1.86445 0
M  V30 9783 O 871.609 0.777581 -1.63778 0
M  V30 9784 C 871.657 -2.6334 -2.46343 0
M  V30 9785 O 870.761 -2.19667 -3.49028 0
M  V30 9786 H 870.102 -0.534543 -0.393903 0
M  V30 9787 H 872.632 -1.93885 -0.653427 0
M  V30 9788 H 872.642 -2.84238 -2.92699 0
M  V30 9789 H 871.317 -3.60913 -2.06675 0
M  V30 9790 H 869.894 -2.08932 -3.08872 0
M  V30 9791 N 872.079 0.78992 -1.36375 0
M  V30 9792 C 873.356 1.53584 -1.21126 0
M  V30 9793 C 873.736 2.10124 0.202785 0
M  V30 9794 O 873.084 1.93936 1.20835 0
M  V30 9795 C 873.294 2.63117 -2.29282 0
M  V30 9796 C 874.642 3.31013 -2.65924 0
M  V30 9797 O 875.666 2.734 -2.28321 0
M  V30 9798 O 874.525 4.35129 -3.30643 0
M  V30 9799 H 871.619 0.679366 -0.471583 0
M  V30 9800 H 874.165 0.828446 -1.48104 0
M  V30 9801 H 872.937 2.19329 -3.24053 0
M  V30 9802 H 872.56 3.41476 -2.03666 0
M  V30 9803 N 873.557 1.20646 1.01402 0
M  V30 9804 C 874.504 0.957618 2.09996 0
M  V30 9805 C 875.474 -0.113115 1.65714 0
M  V30 9806 O 876.659 0.032142 1.90773 0
M  V30 9807 C 873.799 0.5186 3.41181 0
M  V30 9808 C 872.912 1.65777 3.98926 0
M  V30 9809 C 872.047 1.16881 5.18182 0
M  V30 9810 C 871.086 2.2809 5.68015 0
M  V30 9811 N 870.223 1.80392 6.7853 0
M  V30 9812 H 875.063 1.88732 2.30617 0
M  V30 9813 H 872.6 0.940703 1.13089 0
M  V30 9814 H 874.558 0.245367 4.16478 0
M  V30 9815 H 873.188 -0.3741 3.20625 0
M  V30 9816 H 872.24 2.04586 3.207 0
M  V30 9817 H 873.552 2.49507 4.31912 0
M  V30 9818 H 872.706 0.851694 6.00692 0
M  V30 9819 H 871.445 0.301434 4.86768 0
M  V30 9820 H 870.45 2.60614 4.84108 0
M  V30 9821 H 871.675 3.15308 6.01463 0
M  V30 9822 H 869.621 0.959856 6.4894 0
M  V30 9823 H 869.538 2.57701 7.10722 0
M  V30 9824 H 870.806 1.51688 7.64598 0
M  V30 9825 N 875.035 -1.20752 1.01276 0
M  V30 9826 C 875.945 -2.27079 0.589277 0
M  V30 9827 C 876.961 -1.6999 -0.371389 0
M  V30 9828 O 878.137 -2.00044 -0.233294 0
M  V30 9829 C 875.202 -3.4663 -0.0696715 0
M  V30 9830 C 874.263 -4.18962 0.936454 0
M  V30 9831 C 873.496 -5.32806 0.308856 0
M  V30 9832 O 873.719 -5.63376 -0.8924 0
M  V30 9833 O 872.653 -5.93131 1.02367 0
M  V30 9834 H 876.479 -2.6551 1.47438 0
M  V30 9835 H 874.064 -1.27297 0.782045 0
M  V30 9836 H 875.946 -4.19119 -0.437873 0
M  V30 9837 H 874.621 -3.10082 -0.929029 0
M  V30 9838 H 873.528 -3.48661 1.35595 0
M  V30 9839 H 874.861 -4.59441 1.76565 0
M  V30 9840 N 876.513 -0.788492 -1.36457 0
M  V30 9841 C 877.738 -0.371224 -2.04051 0
M  V30 9842 C 878.163 1.004 -1.59064 0
M  V30 9843 O 877.521 1.64663 -0.758679 0
M  V30 9844 C 877.569 -0.442275 -3.57877 0
M  V30 9845 O 876.673 0.55113 -4.08701 0
M  V30 9846 H 876.014 -0.157808 -0.644975 0
M  V30 9847 H 878.544 -1.06935 -1.74431 0
M  V30 9848 H 878.554 -0.305548 -4.06854 0
M  V30 9849 H 877.229 -1.44547 -3.89973 0
M  V30 9850 H 875.806 0.37614 -3.70998 0
M  V30 9851 N 877.991 1.48044 -0.54043 0
M  V30 9852 C 878.923 2.2779 0.253854 0
M  V30 9853 C 879.936 1.35999 0.894883 0
M  V30 9854 O 881.125 1.60963 0.771563 0
M  V30 9855 C 878.225 3.09724 1.37566 0
M  V30 9856 C 877.398 4.29364 0.83459 0
M  V30 9857 C 876.457 4.93026 1.83881 0
M  V30 9858 O 875.483 5.51927 1.39159 0
M  V30 9859 N 876.685 4.86207 3.17149 0
M  V30 9860 H 879.45 2.96597 -0.430125 0
M  V30 9861 H 877.011 1.57487 -0.375423 0
M  V30 9862 H 879.003 3.49181 2.04584 0
M  V30 9863 H 877.573 2.43269 1.96314 0
M  V30 9864 H 876.793 3.94198 -0.0118878 0
M  V30 9865 H 878.081 5.06787 0.452155 0
M  V30 9866 H 877.479 4.39523 3.56141 0
M  V30 9867 H 876.036 5.29733 3.79771 0
M  V30 9868 N 879.47 0.276058 1.55163 0
M  V30 9869 C 880.417 -0.611006 2.22565 0
M  V30 9870 C 881.387 -1.14902 1.19945 0
M  V30 9871 O 882.572 -1.19815 1.48489 0
M  V30 9872 C 879.712 -1.78885 2.95117 0
M  V30 9873 C 878.825 -1.2846 4.12458 0
M  V30 9874 C 877.96 -2.42432 4.72652 0
M  V30 9875 C 876.999 -1.89015 5.82185 0
M  V30 9876 N 876.136 -2.96463 6.36439 0
M  V30 9877 H 880.976 -0.0295849 2.97985 0
M  V30 9878 H 878.513 -0.00283607 1.471 0
M  V30 9879 H 880.471 -2.48121 3.35398 0
M  V30 9880 H 879.101 -2.34229 2.22119 0
M  V30 9881 H 878.153 -0.485312 3.77292 0
M  V30 9882 H 879.465 -0.853358 4.91446 0
M  V30 9883 H 878.619 -3.19659 5.15658 0
M  V30 9884 H 877.358 -2.88872 3.92943 0
M  V30 9885 H 876.363 -1.10267 5.38629 0
M  V30 9886 H 877.588 -1.43509 6.63763 0
M  V30 9887 H 875.534 -3.42283 5.59623 0
M  V30 9888 H 875.451 -2.57759 7.10701 0
M  V30 9889 H 876.719 -3.73663 6.84103 0
M  V30 9890 N 880.948 -1.576 0.00335426 0
M  V30 9891 C 882.178 -1.94713 -0.690682 0
M  V30 9892 C 882.586 -0.876915 -1.67651 0
M  V30 9893 O 881.929 0.152434 -1.83066 0
M  V30 9894 C 881.991 -3.27833 -1.47532 0
M  V30 9895 C 881.655 -4.52344 -0.650704 0
M  V30 9896 C 882.652 -5.19862 0.0630537 0
M  V30 9897 C 880.337 -4.98755 -0.595687 0
M  V30 9898 C 882.331 -6.32093 0.820779 0
M  V30 9899 C 880.018 -6.10875 0.165761 0
M  V30 9900 C 881.016 -6.77401 0.872724 0
M  V30 9901 O 880.704 -7.87372 1.62174 0
M  V30 9902 H 880.436 -0.646627 -0.197104 0
M  V30 9903 H 882.99 -2.05335 0.0516082 0
M  V30 9904 H 881.22 -3.13628 -2.26217 0
M  V30 9905 H 882.909 -3.50034 -2.05501 0
M  V30 9906 H 883.675 -4.84991 0.0297223 0
M  V30 9907 H 879.554 -4.46797 -1.13549 0
M  V30 9908 H 883.098 -6.83953 1.37312 0
M  V30 9909 H 878.995 -6.45187 0.200901 0
M  V30 9910 H 879.763 -8.03905 1.5388 0
M  V30 9911 N 882.426 0.269451 -1.5528 0
M  V30 9912 C 883.703 1.02207 -1.66773 0
M  V30 9913 C 884.083 2.04168 -0.536536 0
M  V30 9914 O 883.431 2.23761 0.462956 0
M  V30 9915 C 883.641 1.67569 -3.0614 0
M  V30 9916 C 884.989 2.18599 -3.64005 0
M  V30 9917 O 886.013 1.7755 -3.08795 0
M  V30 9918 O 884.872 2.93903 -4.60742 0
M  V30 9919 H 881.966 0.474314 -0.677462 0
M  V30 9920 H 884.512 0.265026 -1.67618 0
M  V30 9921 H 883.284 0.937029 -3.79915 0
M  V30 9922 H 882.907 2.49951 -3.09209 0
M  V30 9923 N 883.904 1.48273 0.534124 0
M  V30 9924 C 884.852 1.62926 1.66005 0
M  V30 9925 C 885.846 0.495814 1.61982 0
M  V30 9926 O 887.052 0.6744 1.66889 0
M  V30 9927 H 883.427 0.513163 0.549698 0
M  V30 9928 H 885.398 2.57498 1.50789 0
M  V30 9929 C 884.147 1.68231 3.04292 0
M  V30 9930 H 883.47 2.54807 3.0808 0
M  V30 9931 H 884.91 1.82528 3.827 0
M  V30 9932 C 883.369 0.420154 3.3427 0
M  V30 9933 O 883.899 -0.468769 3.98955 0
M  V30 9934 N 882.105 0.293115 2.89118 0
M  V30 9935 H 881.652 1.01745 2.36655 0
M  V30 9936 H 881.61 -0.550376 3.09545 0
M  V30 9937 N 885.382 -0.782676 1.36792 0
M  V30 9938 C 886.312 -1.90973 1.34356 0
M  V30 9939 C 887.293 -1.6875 0.213917 0
M  V30 9940 O 888.478 -1.89766 0.412601 0
M  V30 9941 C 885.608 -3.28097 1.13884 0
M  V30 9942 C 884.562 -3.6486 2.23744 0
M  V30 9943 C 883.888 -5.00406 1.88408 0
M  V30 9944 C 885.188 -3.72742 3.6587 0
M  V30 9945 H 886.882 -1.93268 2.28665 0
M  V30 9946 H 884.428 -0.928447 1.10072 0
M  V30 9947 H 886.381 -4.06569 1.10813 0
M  V30 9948 H 885.105 -3.26206 0.160275 0
M  V30 9949 H 883.764 -2.88689 2.25952 0
M  V30 9950 H 883.412 -4.95044 0.891083 0
M  V30 9951 H 883.112 -5.25973 2.61966 0
M  V30 9952 H 884.636 -5.81291 1.86905 0
M  V30 9953 H 886.05 -4.4139 3.65852 0
M  V30 9954 H 884.447 -4.09798 4.38389 0
M  V30 9955 H 885.517 -2.73676 4.00287 0
M  V30 9956 N 886.86 -1.21182 -1.00761 0
M  V30 9957 C 888.09 -1.05182 -1.77821 0
M  V30 9958 C 888.498 0.401527 -1.8489 0
M  V30 9959 O 887.841 1.29042 -1.30743 0
M  V30 9960 C 887.903 -1.57066 -3.23374 0
M  V30 9961 C 887.567 -3.05491 -3.39889 0
M  V30 9962 C 888.564 -4.03065 -3.28381 0
M  V30 9963 C 886.249 -3.44641 -3.65415 0
M  V30 9964 C 888.243 -5.37778 -3.4216 0
M  V30 9965 C 885.93 -4.79507 -3.78836 0
M  V30 9966 C 886.928 -5.75884 -3.67214 0
M  V30 9967 O 886.616 -7.08304 -3.80212 0
M  V30 9968 H 886.348 -0.369983 -0.565763 0
M  V30 9969 H 888.902 -1.60914 -1.27655 0
M  V30 9970 H 887.132 -0.957273 -3.74664 0
M  V30 9971 H 888.821 -1.36949 -3.82099 0
M  V30 9972 H 889.587 -3.74163 -3.08588 0
M  V30 9973 H 885.466 -2.7016 -3.73544 0
M  V30 9974 H 889.01 -6.12987 -3.33005 0
M  V30 9975 H 884.907 -5.08096 -3.98132 0
M  V30 9976 H 885.675 -7.15677 -3.97175 0
M  V30 9977 N 888.338 1.20213 -1.01915 0
M  V30 9978 C 889.585 1.89647 -0.709955 0
M  V30 9979 C 889.913 1.7901 0.760631 0
M  V30 9980 O 889.168 1.17028 1.56853 0
M  V30 9981 C 889.467 3.40232 -1.09438 0
M  V30 9982 C 889.133 3.7107 -2.5616 0
M  V30 9983 C 887.795 3.79196 -2.96249 0
M  V30 9984 C 890.147 3.85169 -3.51133 0
M  V30 9985 C 887.475 3.98882 -4.30244 0
M  V30 9986 C 889.827 4.06365 -4.8482 0
M  V30 9987 C 888.491 4.12722 -5.24611 0
M  V30 9988 H 887.761 0.693967 -0.259791 0
M  V30 9989 H 890.408 1.42419 -1.2802 0
M  V30 9990 H 888.713 3.89292 -0.442596 0
M  V30 9991 H 890.41 3.92257 -0.832811 0
M  V30 9992 H 887 3.65346 -2.24099 0
M  V30 9993 H 891.184 3.78243 -3.21319 0
M  V30 9994 H 886.44 4.02039 -4.60624 0
M  V30 9995 H 890.614 4.16216 -5.58334 0
M  V30 9996 H 888.241 4.27728 -6.28453 0
M  V30 9997 N 889.816 0.795718 1.36037 0
M  V30 9998 C 890.764 0.18649 2.31851 0
M  V30 9999 C 891.758 -0.657704 1.56111 0
M  V30 10000 O 892.964 -0.552083 1.71324 0
M  V30 10001 H 889.339 0.0415363 0.750852 0
M  V30 10002 H 891.31 1.00992 2.8079 0
M  V30 10003 C 890.059 -0.65918 3.41394 0
M  V30 10004 H 889.382 -0.01894 3.99796 0
M  V30 10005 H 890.822 -1.05202 4.10741 0
M  V30 10006 C 889.281 -1.82011 2.83502 0
M  V30 10007 O 889.811 -2.91703 2.76174 0
M  V30 10008 N 888.017 -1.62821 2.40703 0
M  V30 10009 H 887.564 -0.735965 2.46863 0
M  V30 10010 H 887.522 -2.40657 2.02316 0
M  V30 10011 N 891.294 -1.47756 0.548274 0
M  V30 10012 C 892.519 -2.07387 0.023475 0
M  V30 10013 C 892.944 -1.39956 -1.25674 0
M  V30 10014 O 892.302 -0.471543 -1.7506 0
M  V30 10015 C 892.35 -3.60224 -0.164669 0
M  V30 10016 O 891.454 -3.93653 -1.22928 0
M  V30 10017 H 890.795 -0.662312 0.0473156 0
M  V30 10018 H 893.325 -1.89905 0.761409 0
M  V30 10019 H 893.335 -4.06211 -0.38166 0
M  V30 10020 H 892.01 -4.08702 0.770425 0
M  V30 10021 H 890.587 -3.59422 -0.993495 0
M  V30 10022 N 892.772 -0.284283 -1.55015 0
M  V30 10023 C 893.719 0.599194 -2.22886 0
M  V30 10024 C 894.689 1.14264 -1.20553 0
M  V30 10025 O 895.874 1.19025 -1.49123 0
M  V30 10026 C 893.014 1.77317 -2.96062 0
M  V30 10027 C 892.127 1.26271 -4.13134 0
M  V30 10028 C 891.262 2.39922 -4.73931 0
M  V30 10029 C 890.301 1.85925 -5.8318 0
M  V30 10030 N 889.438 2.93084 -6.38002 0
M  V30 10031 H 894.278 0.0137816 -2.97997 0
M  V30 10032 H 891.815 -0.00496503 -1.47099 0
M  V30 10033 H 893.773 2.46339 -3.36709 0
M  V30 10034 H 892.403 2.33047 -2.23358 0
M  V30 10035 H 891.455 0.465296 -3.77544 0
M  V30 10036 H 892.767 0.827284 -4.91892 0
M  V30 10037 H 891.921 3.1692 -5.17346 0
M  V30 10038 H 890.66 2.86784 -3.9447 0
M  V30 10039 H 889.665 1.07409 -5.39206 0
M  V30 10040 H 890.89 1.39987 -6.64515 0
M  V30 10041 H 888.836 3.3931 -5.61431 0
M  V30 10042 H 888.753 2.53986 -7.12058 0
M  V30 10043 H 890.021 3.7003 -6.86075 0
M  V30 10044 N 894.251 1.57596 -0.0117121 0
M  V30 10045 C 895.497 1.91355 0.671661 0
M  V30 10046 C 895.83 0.886818 1.72769 0
M  V30 10047 O 895.105 -0.0928813 1.94278 0
M  V30 10048 C 895.388 3.35657 1.30409 0
M  V30 10049 C 895.241 4.49055 0.2588 0
M  V30 10050 C 896.56 3.79595 2.22701 0
M  V30 10051 H 893.679 0.695893 0.242698 0
M  V30 10052 H 896.321 1.89887 -0.0654071 0
M  V30 10053 H 894.471 3.37038 1.9323 0
M  V30 10054 H 896.143 4.59809 -0.370631 0
M  V30 10055 H 894.386 4.31785 -0.417672 0
M  V30 10056 H 895.057 5.4701 0.740578 0
M  V30 10057 H 897.533 3.7984 1.69885 0
M  V30 10058 H 896.409 4.81292 2.63912 0
M  V30 10059 H 896.67 3.14118 3.11098 0
M  V30 10060 N 895.729 -0.261212 1.5542 0
M  V30 10061 C 896.957 -1.00916 1.8062 0
M  V30 10062 C 897.372 -1.79494 0.585444 0
M  V30 10063 O 896.729 -1.76974 -0.445702 0
M  V30 10064 C 896.78 -1.95841 3.03856 0
M  V30 10065 O 896.501 -1.20445 4.21218 0
M  V30 10066 C 898.002 -2.82352 3.41749 0
M  V30 10067 H 895.222 -0.297596 0.601397 0
M  V30 10068 H 897.766 -0.288427 2.02456 0
M  V30 10069 H 895.921 -2.63361 2.84112 0
M  V30 10070 H 896.335 -1.84528 4.90968 0
M  V30 10071 H 897.809 -3.44733 4.31118 0
M  V30 10072 H 898.286 -3.5273 2.61683 0
M  V30 10073 H 898.892 -2.20306 3.63793 0
M  V30 10074 N 897.207 -1.48554 -0.526253 0
M  V30 10075 C 898.432 -1.60686 -1.31129 0
M  V30 10076 C 898.857 -0.268701 -1.86171 0
M  V30 10077 O 898.215 0.760167 -1.64594 0
M  V30 10078 C 898.263 -2.65938 -2.43536 0
M  V30 10079 O 897.367 -2.23356 -3.46678 0
M  V30 10080 H 896.708 -0.538691 -0.388211 0
M  V30 10081 H 899.238 -1.94567 -0.632826 0
M  V30 10082 H 899.248 -2.87327 -2.89668 0
M  V30 10083 H 897.923 -3.63085 -2.02835 0
M  V30 10084 H 896.5 -2.12196 -3.06639 0
M  V30 10085 N 898.685 0.775411 -1.37205 0
M  V30 10086 C 899.632 1.88857 -1.32671 0
M  V30 10087 C 900.602 1.64976 -0.192899 0
M  V30 10088 O 901.787 1.86944 -0.381673 0
M  V30 10089 C 898.927 3.25871 -1.13588 0
M  V30 10090 C 898.04 3.61731 -2.36167 0
M  V30 10091 C 897.175 4.87934 -2.09985 0
M  V30 10092 C 896.214 5.16514 -3.2845 0
M  V30 10093 N 895.351 6.33905 -3.01842 0
M  V30 10094 H 900.191 1.92068 -2.27846 0
M  V30 10095 H 897.728 0.939066 -1.13225 0
M  V30 10096 H 899.686 4.04903 -1.00546 0
M  V30 10097 H 898.316 3.22045 -0.220613 0
M  V30 10098 H 897.368 2.77712 -2.59962 0
M  V30 10099 H 898.68 3.78792 -3.24528 0
M  V30 10100 H 897.834 5.74863 -1.93953 0
M  V30 10101 H 896.573 4.7297 -1.18956 0
M  V30 10102 H 895.578 4.28063 -3.45025 0
M  V30 10103 H 896.803 5.33389 -4.20325 0
M  V30 10104 H 894.749 6.20306 -2.13439 0
M  V30 10105 H 894.666 6.51364 -3.83746 0
M  V30 10106 H 895.934 7.23779 -2.8942 0
M  V30 10107 N 900.163 1.21714 1.00117 0
M  V30 10108 C 901.073 0.99597 2.12409 0
M  V30 10109 C 902.089 -0.0531431 1.73919 0
M  V30 10110 O 903.265 0.137757 2.00928 0
M  V30 10111 C 900.33 0.567593 3.42022 0
M  V30 10112 C 899.391 1.68936 3.94663 0
M  V30 10113 C 898.624 1.28133 5.1809 0
M  V30 10114 O 898.847 0.156574 5.70185 0
M  V30 10115 O 897.781 2.0947 5.64275 0
M  V30 10116 H 901.607 1.93657 2.33946 0
M  V30 10117 H 899.192 1.00236 1.10784 0
M  V30 10118 H 901.074 0.338664 4.20037 0
M  V30 10119 H 899.749 -0.34424 3.21864 0
M  V30 10120 H 898.656 1.97274 3.17858 0
M  V30 10121 H 899.989 2.57876 4.19238 0
M  V30 10122 N 901.641 -1.19671 1.02551 0
M  V30 10123 C 902.889 -1.88894 0.71858 0
M  V30 10124 C 903.21 -1.79797 -0.754856 0
M  V30 10125 O 902.48 -1.20621 -1.54362 0
M  V30 10126 H 901.06 -0.699244 0.262806 0
M  V30 10127 H 903.722 -1.45298 1.29902 0
M  V30 10128 H 902.818 -2.95309 1.00989 0
M  V30 10129 N 903.119 -0.802921 -1.35613 0
M  V30 10130 C 904.049 -0.225131 -2.32412 0
M  V30 10131 C 905.03 0.647383 -1.57299 0
M  V30 10132 O 906.215 0.578414 -1.85386 0
M  V30 10133 C 903.345 0.630085 -3.41537 0
M  V30 10134 C 902.299 -0.143635 -4.27759 0
M  V30 10135 C 901.625 0.833046 -5.28171 0
M  V30 10136 C 902.925 -1.34054 -5.04804 0
M  V30 10137 H 904.619 -1.03385 -2.80984 0
M  V30 10138 H 902.165 -0.498593 -1.35093 0
M  V30 10139 H 904.118 1.04433 -4.08254 0
M  V30 10140 H 902.842 1.47165 -2.91565 0
M  V30 10141 H 901.501 -0.539015 -3.62616 0
M  V30 10142 H 901.149 1.67001 -4.74468 0
M  V30 10143 H 900.849 0.319697 -5.8673 0
M  V30 10144 H 902.373 1.24558 -5.97761 0
M  V30 10145 H 903.787 -1.00136 -5.64487 0
M  V30 10146 H 902.184 -1.78812 -5.72841 0
M  V30 10147 H 903.254 -2.12906 -4.35659 0
M  V30 10148 N 904.597 1.47463 -0.556102 0
M  V30 10149 C 905.837 2.04372 -0.0339743 0
M  V30 10150 C 906.201 1.42125 1.29091 0
M  V30 10151 O 907.402 1.90074 1.90066 0
M  V30 10152 C 905.673 3.57352 0.0585316 0
M  V30 10153 S 907.232 4.35625 0.526943 0
M  V30 10154 H 904.05 0.710574 -0.0246115 0
M  V30 10155 H 906.652 1.80848 -0.742585 0
M  V30 10156 H 905.356 4.00181 -0.910116 0
M  V30 10157 H 904.887 3.85371 0.790731 0
M  V30 10158 H 906.902 4.62911 1.78683 0
M  V30 10159 N 906.075 0.2925 1.54862 0
M  V30 10160 C 906.985 -0.597036 2.26876 0
M  V30 10161 C 908.001 -1.15558 1.30086 0
M  V30 10162 O 909.177 -1.18217 1.63054 0
M  V30 10163 C 906.242 -1.75664 2.98903 0
M  V30 10164 C 905.303 -1.23303 4.11212 0
M  V30 10165 C 904.536 -2.33736 4.79795 0
M  V30 10166 O 904.759 -3.53459 4.47686 0
M  V30 10167 O 903.693 -2.00908 5.67379 0
M  V30 10168 H 907.519 -0.0131242 3.03697 0
M  V30 10169 H 905.104 0.0592642 1.49282 0
M  V30 10170 H 906.986 -2.43241 3.4411 0
M  V30 10171 H 905.661 -2.32731 2.24984 0
M  V30 10172 H 904.568 -0.523222 3.70423 0
M  V30 10173 H 905.901 -0.707887 4.87083 0
M  V30 10174 N 907.553 -1.57587 0.0200696 0
M  V30 10175 C 908.5 -2.09667 -0.964791 0
M  V30 10176 C 909.47 -0.99664 -1.32877 0
M  V30 10177 O 910.655 -1.2703 -1.42366 0
M  V30 10178 C 907.795 -2.62101 -2.24493 0
M  V30 10179 C 906.908 -3.8608 -1.93821 0
M  V30 10180 C 906.043 -4.26939 -3.16064 0
M  V30 10181 C 905.082 -5.43701 -2.81169 0
M  V30 10182 N 904.219 -5.79759 -3.9601 0
M  V30 10183 H 909.059 -2.93538 -0.513751 0
M  V30 10184 H 906.596 -1.45096 -0.242 0
M  V30 10185 H 908.554 -2.90587 -2.99358 0
M  V30 10186 H 907.184 -1.81074 -2.6723 0
M  V30 10187 H 906.236 -3.64378 -1.09237 0
M  V30 10188 H 907.548 -4.71028 -1.64115 0
M  V30 10189 H 906.702 -4.56814 -3.99257 0
M  V30 10190 H 905.441 -3.40739 -3.48924 0
M  V30 10191 H 904.446 -5.13529 -1.96387 0
M  V30 10192 H 905.671 -6.31593 -2.49535 0
M  V30 10193 H 903.617 -4.96516 -4.28729 0
M  V30 10194 H 903.534 -6.59327 -3.69896 0
M  V30 10195 H 904.802 -6.14235 -4.79933 0
M  V30 10196 N 909.032 0.252966 -1.55557 0
M  V30 10197 C 909.962 1.31691 -1.9282 0
M  V30 10198 C 910.943 1.50516 -0.7924 0
M  V30 10199 O 912.128 1.63225 -1.05219 0
M  V30 10200 C 909.258 2.67281 -2.21762 0
M  V30 10201 C 908.212 2.6316 -3.37536 0
M  V30 10202 C 907.538 4.02488 -3.52005 0
M  V30 10203 C 908.838 2.20675 -4.73392 0
M  V30 10204 H 910.532 1.00751 -2.81939 0
M  V30 10205 H 908.078 0.483219 -1.3565 0
M  V30 10206 H 910.031 3.41842 -2.46419 0
M  V30 10207 H 908.755 2.99845 -1.29463 0
M  V30 10208 H 907.414 1.91057 -3.12878 0
M  V30 10209 H 907.062 4.32307 -2.57137 0
M  V30 10210 H 906.762 4.00621 -4.29857 0
M  V30 10211 H 908.286 4.78758 -3.78977 0
M  V30 10212 H 909.7 2.84965 -4.97461 0
M  V30 10213 H 908.097 2.29931 -5.54303 0
M  V30 10214 H 909.167 1.15831 -4.70862 0
M  V30 10215 N 910.51 1.48831 0.518367 0
M  V30 10216 C 911.457 1.64216 1.62178 0
M  V30 10217 C 912.427 0.483942 1.58894 0
M  V30 10218 O 913.612 0.708857 1.77144 0
M  V30 10219 C 910.752 1.69867 3.00399 0
M  V30 10220 C 909.865 2.96875 3.1383 0
M  V30 10221 C 909 2.93613 4.42679 0
M  V30 10222 C 908.039 4.15276 4.4968 0
M  V30 10223 N 907.176 4.10024 5.69934 0
M  V30 10224 H 912.016 2.58439 1.48368 0
M  V30 10225 H 909.553 1.28154 0.722152 0
M  V30 10226 H 911.511 1.71124 3.8049 0
M  V30 10227 H 910.141 0.791249 3.12952 0
M  V30 10228 H 909.193 3.0531 2.26914 0
M  V30 10229 H 910.505 3.86863 3.14863 0
M  V30 10230 H 909.659 2.93337 5.31073 0
M  V30 10231 H 908.398 2.01375 4.44184 0
M  V30 10232 H 907.403 4.15816 3.59691 0
M  V30 10233 H 908.628 5.08687 4.49904 0
M  V30 10234 H 906.574 3.20613 5.72314 0
M  V30 10235 H 906.491 4.93728 5.72511 0
M  V30 10236 H 907.759 4.13824 6.60583 0
M  V30 10237 N 911.988 -0.768124 1.37614 0
M  V30 10238 C 912.938 -1.8718 1.30184 0
M  V30 10239 C 913.922 -1.59787 0.188943 0
M  V30 10240 O 915.114 -1.71855 0.423656 0
M  V30 10241 C 912.243 -3.24698 1.11471 0
M  V30 10242 C 911.329 -3.58031 2.27321 0
M  V30 10243 N 911.72 -3.6252 3.52722 0
M  V30 10244 C 910.018 -3.88216 2.19554 0
M  V30 10245 C 910.719 -3.92704 4.29137 0
M  V30 10246 N 909.695 -4.08789 3.58319 0
M  V30 10247 H 913.497 -1.88907 2.25147 0
M  V30 10248 H 911.011 -0.964753 1.30638 0
M  V30 10249 H 913.008 -4.0366 1.04233 0
M  V30 10250 H 911.668 -3.24232 0.174281 0
M  V30 10251 H 912.679 -3.44636 3.86583 0
M  V30 10252 H 909.356 -3.95551 1.33588 0
M  V30 10253 H 910.746 -4.02922 5.37683 0
M  V30 10254 N 913.466 -1.22244 -0.994698 0
M  V30 10255 C 914.399 -0.934168 -2.08203 0
M  V30 10256 C 915.377 0.122231 -1.6214 0
M  V30 10257 O 916.561 -0.00896598 -1.88498 0
M  V30 10258 C 913.688 -0.404646 -3.36274 0
M  V30 10259 C 912.734 -1.44544 -4.01259 0
M  V30 10260 S 913.567 -3.01816 -4.42343 0
M  V30 10261 C 914.723 -2.50497 -5.73587 0
M  V30 10262 H 914.956 -1.85493 -2.32335 0
M  V30 10263 H 912.489 -1.0533 -1.12893 0
M  V30 10264 H 914.447 -0.105719 -4.10364 0
M  V30 10265 H 913.108 0.494971 -3.10176 0
M  V30 10266 H 912.301 -1.02478 -4.93472 0
M  V30 10267 H 911.903 -1.69298 -3.33488 0
M  V30 10268 H 914.195 -1.91626 -6.49835 0
M  V30 10269 H 915.138 -3.41193 -6.20478 0
M  V30 10270 H 915.546 -1.91845 -5.30901 0
M  V30 10271 N 914.944 1.19125 -1.03184 0
M  V30 10272 C 916.193 1.8821 -0.725264 0
M  V30 10273 C 916.506 1.80674 0.749411 0
M  V30 10274 O 917.712 2.45037 1.16915 0
M  V30 10275 C 916.168 3.37607 -1.24697 0
M  V30 10276 C 915.776 3.53693 -2.74964 0
M  V30 10277 C 917.52 4.12149 -1.01652 0
M  V30 10278 C 915.427 4.97001 -3.20538 0
M  V30 10279 H 914.357 0.704916 -0.267599 0
M  V30 10280 H 917.008 1.34663 -1.24652 0
M  V30 10281 H 915.39 3.90569 -0.653614 0
M  V30 10282 H 916.564 3.11046 -3.39981 0
M  V30 10283 H 914.879 2.92544 -2.96322 0
M  V30 10284 H 917.476 5.17837 -1.33226 0
M  V30 10285 H 917.819 4.16274 0.0465712 0
M  V30 10286 H 918.352 3.65334 -1.57403 0
M  V30 10287 H 915.091 4.9804 -4.26189 0
M  V30 10288 H 914.611 5.40398 -2.60251 0
M  V30 10289 H 916.29 5.65669 -3.14049 0
M  V30 10290 N 916.422 0.810101 1.35185 0
M  V30 10291 C 917.652 0.404109 2.02609 0
M  V30 10292 C 918.06 -0.990748 1.61186 0
M  V30 10293 O 917.403 -1.65038 0.80674 0
M  V30 10294 C 917.465 0.412047 3.57131 0
M  V30 10295 C 917.129 1.75802 4.21832 0
M  V30 10296 C 918.126 2.71687 4.43263 0
M  V30 10297 C 915.811 2.04299 4.58876 0
M  V30 10298 C 917.805 3.9425 5.00845 0
M  V30 10299 C 915.492 3.27125 5.16171 0
M  V30 10300 C 916.49 4.21918 5.37098 0
M  V30 10301 O 916.178 5.42576 5.93184 0
M  V30 10302 H 915.91 0.161914 0.656323 0
M  V30 10303 H 918.464 1.09605 1.73712 0
M  V30 10304 H 916.694 -0.336509 3.85233 0
M  V30 10305 H 918.383 0.0278817 4.0589 0
M  V30 10306 H 919.149 2.50964 4.15021 0
M  V30 10307 H 915.028 1.31324 4.41899 0
M  V30 10308 H 918.572 4.68251 5.17094 0
M  V30 10309 H 914.469 3.47718 5.43841 0
M  V30 10310 H 915.237 5.43921 6.11631 0
M  V30 10311 N 917.9 -1.47166 0.563914 0
M  V30 10312 C 919.13 -2.06546 0.0473599 0
M  V30 10313 C 919.538 -1.41607 -1.25476 0
M  V30 10314 O 918.881 -0.50894 -1.76509 0
M  V30 10315 C 918.943 -3.58873 -0.212249 0
M  V30 10316 C 918.607 -4.45893 1.00144 0
M  V30 10317 C 919.604 -4.83594 1.90873 0
M  V30 10318 C 917.289 -4.87309 1.218 0
M  V30 10319 C 919.283 -5.61519 3.01621 0
M  V30 10320 C 916.97 -5.64997 2.32856 0
M  V30 10321 C 917.968 -6.02013 3.22597 0
M  V30 10322 O 917.656 -6.78135 4.31727 0
M  V30 10323 H 917.388 -0.674441 0.0458823 0
M  V30 10324 H 919.942 -1.9006 0.778865 0
M  V30 10325 H 918.172 -3.73596 -0.998145 0
M  V30 10326 H 919.861 -4.00248 -0.675005 0
M  V30 10327 H 920.627 -4.52192 1.7535 0
M  V30 10328 H 916.506 -4.57959 0.528641 0
M  V30 10329 H 920.05 -5.90331 3.71693 0
M  V30 10330 H 915.947 -5.95813 2.48349 0
M  V30 10331 H 916.715 -6.96537 4.29859 0
M  V30 10332 N 919.378 -0.300708 -1.54705 0
M  V30 10333 C 920.608 0.310819 -2.04249 0
M  V30 10334 C 921.016 1.4809 -1.17754 0
M  V30 10335 O 920.359 1.82654 -0.195779 0
M  V30 10336 C 920.421 0.83014 -3.49784 0
M  V30 10337 C 920.085 -0.214628 -4.56496 0
M  V30 10338 C 921.082 -1.04298 -5.09331 0
M  V30 10339 C 918.767 -0.356242 -5.01035 0
M  V30 10340 C 920.761 -1.99889 -6.05246 0
M  V30 10341 C 918.448 -1.3156 -5.96771 0
M  V30 10342 C 919.446 -2.1354 -6.4876 0
M  V30 10343 O 919.134 -3.07849 -7.4262 0
M  V30 10344 H 918.866 0.0715341 -0.672204 0
M  V30 10345 H 921.42 -0.438179 -2.00672 0
M  V30 10346 H 919.65 1.62966 -3.50684 0
M  V30 10347 H 921.339 1.35752 -3.82526 0
M  V30 10348 H 922.105 -0.944439 -4.75716 0
M  V30 10349 H 917.984 0.271916 -4.60197 0
M  V30 10350 H 921.528 -2.63917 -6.45751 0
M  V30 10351 H 917.425 -1.41486 -6.29803 0
M  V30 10352 H 918.193 -3.02824 -7.60421 0
M  V30 10353 N 920.856 1.57574 -0.0284266 0
M  V30 10354 C 922.086 1.95787 0.659617 0
M  V30 10355 C 922.494 0.903475 1.66235 0
M  V30 10356 O 921.837 -0.12329 1.83286 0
M  V30 10357 C 921.899 3.30139 1.42298 0
M  V30 10358 C 921.563 4.53322 0.578658 0
M  V30 10359 C 922.56 5.19696 -0.145751 0
M  V30 10360 C 920.245 4.9964 0.516264 0
M  V30 10361 C 922.239 6.30708 -0.921235 0
M  V30 10362 C 919.926 6.10534 -0.262925 0
M  V30 10363 C 920.924 6.75927 -0.980382 0
M  V30 10364 O 920.612 7.84692 -1.7468 0
M  V30 10365 H 920.344 0.649681 0.186792 0
M  V30 10366 H 922.898 2.05227 -0.0842687 0
M  V30 10367 H 921.128 3.17188 2.21199 0
M  V30 10368 H 922.817 3.53259 1.99906 0
M  V30 10369 H 923.583 4.84882 -0.106876 0
M  V30 10370 H 919.462 4.48547 1.06427 0
M  V30 10371 H 923.006 6.81682 -1.48176 0
M  V30 10372 H 918.903 6.44786 -0.303519 0
M  V30 10373 H 919.671 8.01355 -1.6665 0
M  V30 10374 N 922.334 -0.244713 1.55689 0
M  V30 10375 C 923.244 -1.32447 1.93636 0
M  V30 10376 C 924.26 -1.52541 0.837086 0
M  V30 10377 O 925.436 -1.66121 1.13867 0
M  V30 10378 C 922.501 -2.65864 2.22525 0
M  V30 10379 C 921.562 -2.54273 3.45896 0
M  V30 10380 C 920.795 -3.81327 3.73397 0
M  V30 10381 O 921.018 -4.83307 3.02936 0
M  V30 10382 O 919.952 -3.79829 4.66919 0
M  V30 10383 H 923.778 -1.03255 2.85608 0
M  V30 10384 H 921.363 -0.445652 1.42598 0
M  V30 10385 H 923.245 -3.447 2.42404 0
M  V30 10386 H 921.92 -2.94784 1.33731 0
M  V30 10387 H 920.827 -1.73715 3.31321 0
M  V30 10388 H 922.16 -2.30297 4.34999 0
M  V30 10389 N 923.813 -1.49104 -0.510467 0
M  V30 10390 C 924.723 -1.67792 -1.6396 0
M  V30 10391 C 925.739 -0.560454 -1.64727 0
M  V30 10392 O 926.915 -0.833985 -1.83321 0
M  V30 10393 C 923.98 -1.73154 -3.00364 0
M  V30 10394 C 923.041 -2.9667 -3.10299 0
M  V30 10395 C 922.274 -3.01767 -4.40196 0
M  V30 10396 O 922.497 -2.1472 -5.28443 0
M  V30 10397 O 921.431 -3.94137 -4.54906 0
M  V30 10398 H 925.257 -2.63428 -1.51126 0
M  V30 10399 H 922.842 -1.32734 -0.685719 0
M  V30 10400 H 924.724 -1.79089 -3.81451 0
M  V30 10401 H 923.399 -0.806952 -3.1348 0
M  V30 10402 H 922.306 -2.96257 -2.28435 0
M  V30 10403 H 923.639 -3.88578 -3.02106 0
M  V30 10404 N 925.291 0.760815 -1.38019 0
M  V30 10405 C 926.521 1.54776 -1.3685 0
M  V30 10406 C 926.929 1.89146 0.0453971 0
M  V30 10407 O 926.272 1.52746 1.0205 0
M  V30 10408 C 926.334 2.87923 -2.15269 0
M  V30 10409 C 925.998 2.76131 -3.64144 0
M  V30 10410 C 926.995 2.46417 -4.57794 0
M  V30 10411 C 924.68 2.9381 -4.07408 0
M  V30 10412 C 926.674 2.34525 -5.92686 0
M  V30 10413 C 924.361 2.81539 -5.42383 0
M  V30 10414 C 925.359 2.51938 -6.34836 0
M  V30 10415 O 925.047 2.39713 -7.67329 0
M  V30 10416 H 924.779 0.485776 -0.470104 0
M  V30 10417 H 927.333 0.949939 -1.82113 0
M  V30 10418 H 925.563 3.49867 -1.64712 0
M  V30 10419 H 927.252 3.49389 -2.06596 0
M  V30 10420 H 928.018 2.32433 -4.25676 0
M  V30 10421 H 923.897 3.15849 -3.35799 0
M  V30 10422 H 927.441 2.11342 -6.64816 0
M  V30 10423 H 923.338 2.95093 -5.741 0
M  V30 10424 H 924.106 2.5498 -7.77771 0
M  V30 10425 N 926.769 1.22769 0.988202 0
M  V30 10426 C 928.015 1.05665 1.73097 0
M  V30 10427 C 928.348 -0.406615 1.89895 0
M  V30 10428 O 927.623 -1.30132 1.44554 0
M  V30 10429 C 927.906 1.77381 3.13382 0
M  V30 10430 C 927.759 3.31332 3.04203 0
M  V30 10431 C 929.078 1.52999 4.12649 0
M  V30 10432 H 926.197 0.385258 0.628288 0
M  V30 10433 H 928.839 1.51171 1.15097 0
M  V30 10434 H 926.989 1.38696 3.62899 0
M  V30 10435 H 928.661 3.79489 2.6227 0
M  V30 10436 H 926.904 3.60767 2.40894 0
M  V30 10437 H 927.575 3.76692 4.03493 0
M  V30 10438 H 930.051 1.86611 3.71908 0
M  V30 10439 H 928.927 2.05666 5.08913 0
M  V30 10440 H 929.188 0.463615 4.39662 0
M  V30 10441 N 928.247 -1.18576 1.03814 0
M  V30 10442 C 929.18 -2.20929 0.571463 0
M  V30 10443 C 930.158 -1.57788 -0.392636 0
M  V30 10444 O 931.342 -1.85974 -0.30754 0
M  V30 10445 C 928.469 -3.38295 -0.165504 0
M  V30 10446 C 927.515 -4.19828 0.751457 0
M  V30 10447 S 928.348 -4.86725 2.23291 0
M  V30 10448 C 929.504 -6.07494 1.50672 0
M  V30 10449 H 929.737 -2.60173 1.43866 0
M  V30 10450 H 927.27 -1.2897 0.84888 0
M  V30 10451 H 929.228 -4.06317 -0.584545 0
M  V30 10452 H 927.889 -2.97468 -1.00855 0
M  V30 10453 H 927.082 -5.03671 0.181986 0
M  V30 10454 H 926.684 -3.57172 1.10923 0
M  V30 10455 H 928.976 -6.72779 0.798377 0
M  V30 10456 H 929.919 -6.68942 2.3221 0
M  V30 10457 H 930.327 -5.55569 1.00016 0
M  V30 10458 N 929.725 -0.817259 -1.34754 0
M  V30 10459 C 930.672 -0.233108 -2.2962 0
M  V30 10460 C 931.642 0.638902 -1.53321 0
M  V30 10461 O 932.827 0.581739 -1.81715 0
M  V30 10462 C 929.967 0.603659 -3.39779 0
M  V30 10463 C 929.08 -0.289967 -4.31026 0
M  V30 10464 C 928.215 0.555825 -5.28284 0
M  V30 10465 C 927.254 -0.337539 -6.11169 0
M  V30 10466 N 926.391 0.468847 -7.00533 0
M  V30 10467 H 931.231 -1.04747 -2.78984 0
M  V30 10468 H 928.768 -0.528056 -1.37295 0
M  V30 10469 H 930.726 1.10407 -4.02326 0
M  V30 10470 H 929.356 1.38319 -2.91664 0
M  V30 10471 H 928.408 -0.908552 -3.69391 0
M  V30 10472 H 929.72 -0.977136 -4.89135 0
M  V30 10473 H 928.874 1.12094 -5.96255 0
M  V30 10474 H 927.613 1.27652 -4.70698 0
M  V30 10475 H 926.618 -0.914839 -5.42135 0
M  V30 10476 H 927.843 -1.05626 -6.70835 0
M  V30 10477 H 925.789 1.17332 -6.45422 0
M  V30 10478 H 925.706 -0.160052 -7.55831 0
M  V30 10479 H 926.974 1.01689 -7.72839 0
M  V30 10480 N 931.203 1.46865 -0.571711 0
M  V30 10481 C 932.151 2.31897 0.180714 0
M  V30 10482 C 933.145 1.43815 0.895191 0
M  V30 10483 O 934.351 1.60501 0.814828 0
M  V30 10484 H 930.726 0.748032 0.077148 0
M  V30 10485 H 932.697 2.93185 -0.555432 0
M  V30 10486 C 931.446 3.26766 1.18824 0
M  V30 10487 H 930.769 3.94515 0.64789 0
M  V30 10488 H 932.209 3.89067 1.68532 0
M  V30 10489 C 930.668 2.51325 2.2436 0
M  V30 10490 O 931.198 2.26825 3.31532 0
M  V30 10491 N 929.404 2.12079 1.98673 0
M  V30 10492 H 928.951 2.32204 1.1153 0
M  V30 10493 H 928.909 1.61921 2.69498 0
M  V30 10494 N 932.681 0.308908 1.54543 0
M  V30 10495 C 933.906 -0.303196 2.05172 0
M  V30 10496 C 934.331 -1.46133 1.18434 0
M  V30 10497 O 933.689 -1.803 0.190162 0
M  V30 10498 C 933.737 -0.729526 3.53143 0
M  V30 10499 O 932.841 -1.83348 3.69401 0
M  V30 10500 H 932.182 -0.0575066 0.661505 0
M  V30 10501 H 934.712 0.453055 1.99521 0
M  V30 10502 H 934.722 -1.01619 3.95143 0
M  V30 10503 H 933.397 0.117622 4.15734 0
M  V30 10504 H 931.974 -1.54676 3.39308 0
M  V30 10505 N 934.159 -1.57557 0.0367827 0
M  V30 10506 C 935.069 -2.14148 -0.958017 0
M  V30 10507 C 936.085 -1.09564 -1.35173 0
M  V30 10508 O 937.261 -1.4166 -1.43158 0
M  V30 10509 C 934.326 -2.6636 -2.21931 0
M  V30 10510 C 933.387 -3.85688 -1.8853 0
M  V30 10511 C 932.62 -4.35401 -3.08645 0
M  V30 10512 O 932.843 -3.8425 -4.21554 0
M  V30 10513 O 931.777 -5.27158 -2.90497 0
M  V30 10514 H 935.603 -2.99442 -0.506797 0
M  V30 10515 H 933.188 -1.48259 -0.184275 0
M  V30 10516 H 935.07 -2.99976 -2.9596 0
M  V30 10517 H 933.745 -1.84145 -2.66219 0
M  V30 10518 H 932.652 -3.56985 -1.11861 0
M  V30 10519 H 933.985 -4.69089 -1.49052 0
M  V30 10520 N 935.637 0.236453 -1.55816 0
M  V30 10521 C 936.584 1.29289 -1.91188 0
M  V30 10522 C 937.554 1.47315 -0.767301 0
M  V30 10523 O 938.739 1.61128 -1.02189 0
M  V30 10524 C 935.879 2.64126 -2.22107 0
M  V30 10525 C 934.992 2.54022 -3.49423 0
M  V30 10526 C 934.127 3.81282 -3.69861 0
M  V30 10527 C 933.166 3.65839 -4.90743 0
M  V30 10528 N 932.303 4.85014 -5.07647 0
M  V30 10529 H 937.143 0.98424 -2.81277 0
M  V30 10530 H 934.68 0.474722 -1.39229 0
M  V30 10531 H 936.638 3.42626 -2.3804 0
M  V30 10532 H 935.268 2.93118 -1.35209 0
M  V30 10533 H 934.32 1.67036 -3.41765 0
M  V30 10534 H 935.632 2.38525 -4.38072 0
M  V30 10535 H 934.786 4.68226 -3.8581 0
M  V30 10536 H 933.525 3.99688 -2.79465 0
M  V30 10537 H 932.53 2.77279 -4.74759 0
M  V30 10538 H 933.755 3.48918 -5.82609 0
M  V30 10539 H 931.701 5.03762 -4.20191 0
M  V30 10540 H 931.618 4.72188 -5.90402 0
M  V30 10541 H 932.886 5.73427 -5.28017 0
M  V30 10542 N 937.115 1.49373 0.502552 0
M  V30 10543 C 938.062 1.65927 1.60427 0
M  V30 10544 C 939.032 0.500768 1.58371 0
M  V30 10545 O 940.217 0.727606 1.76382 0
M  V30 10546 C 937.357 1.73043 2.9858 0
M  V30 10547 C 936.47 3.00187 3.10663 0
M  V30 10548 C 935.605 2.98292 4.3954 0
M  V30 10549 C 934.644 4.20022 4.4525 0
M  V30 10550 N 933.781 4.16046 5.65553 0
M  V30 10551 H 938.621 2.59998 1.45619 0
M  V30 10552 H 936.158 1.28912 0.708519 0
M  V30 10553 H 938.116 1.7515 3.78653 0
M  V30 10554 H 936.746 0.824397 3.12095 0
M  V30 10555 H 935.798 3.07699 2.23663 0
M  V30 10556 H 937.11 3.9018 3.10742 0
M  V30 10557 H 936.264 2.98953 5.27932 0
M  V30 10558 H 935.003 2.06075 4.42023 0
M  V30 10559 H 934.008 4.19607 3.5526 0
M  V30 10560 H 935.233 5.13431 4.44484 0
M  V30 10561 H 933.179 3.26665 5.68881 0
M  V30 10562 H 933.096 4.99773 5.67242 0
M  V30 10563 H 934.364 4.20807 6.56156 0
M  V30 10564 N 938.594 -0.753485 1.38421 0
M  V30 10565 C 939.824 -1.54049 1.37669 0
M  V30 10566 C 940.232 -1.89167 -0.0353656 0
M  V30 10567 O 939.575 -1.53285 -1.01239 0
M  V30 10568 C 939.637 -2.86777 2.16793 0
M  V30 10569 C 939.301 -2.74196 3.65603 0
M  V30 10570 C 940.298 -2.43985 4.59094 0
M  V30 10571 C 937.983 -2.91645 4.0896 0
M  V30 10572 C 939.977 -2.31379 5.93921 0
M  V30 10573 C 937.664 -2.78658 5.43868 0
M  V30 10574 C 938.662 -2.48568 6.36163 0
M  V30 10575 O 938.35 -2.3564 7.68589 0
M  V30 10576 H 938.082 -0.483276 0.472673 0
M  V30 10577 H 940.636 -0.940267 1.82615 0
M  V30 10578 H 938.866 -3.48988 1.66565 0
M  V30 10579 H 940.555 -3.48289 2.08446 0
M  V30 10580 H 941.321 -2.30172 4.26902 0
M  V30 10581 H 937.2 -3.14063 3.37469 0
M  V30 10582 H 940.744 -2.07813 6.65927 0
M  V30 10583 H 936.641 -2.92044 5.75656 0
M  V30 10584 H 937.409 -2.50851 7.79112 0
M  V30 10585 N 940.072 -1.23292 -0.981677 0
M  V30 10586 C 941.319 -1.06424 -1.72279 0
M  V30 10587 C 941.647 0.399055 -1.90362 0
M  V30 10588 O 940.902 1.31181 -1.45224 0
M  V30 10589 C 941.201 -1.73339 -3.12551 0
M  V30 10590 C 940.867 -3.23256 -3.14351 0
M  V30 10591 C 939.529 -3.64159 -3.14549 0
M  V30 10592 C 941.881 -4.1916 -3.09765 0
M  V30 10593 C 939.209 -4.99428 -3.07877 0
M  V30 10594 C 941.561 -5.54419 -3.04635 0
M  V30 10595 C 940.225 -5.94688 -3.03154 0
M  V30 10596 H 939.495 -0.389434 -0.630415 0
M  V30 10597 H 942.142 -1.53208 -1.1489 0
M  V30 10598 H 940.447 -1.18911 -3.73319 0
M  V30 10599 H 942.144 -1.57767 -3.68661 0
M  V30 10600 H 938.734 -2.90693 -3.14953 0
M  V30 10601 H 942.918 -3.88569 -3.08753 0
M  V30 10602 H 938.174 -5.29844 -3.05083 0
M  V30 10603 H 942.348 -6.28448 -3.00043 0
M  V30 10604 H 939.975 -6.99468 -2.97739 0
M  V30 10605 N 941.55 1.18024 -1.04442 0
M  V30 10606 C 942.797 1.88098 -0.750022 0
M  V30 10607 C 943.125 1.80583 0.722489 0
M  V30 10608 O 942.38 1.20329 1.54335 0
M  V30 10609 C 942.679 3.37834 -1.16631 0
M  V30 10610 C 942.345 3.65553 -2.63974 0
M  V30 10611 C 941.007 3.72827 -3.04226 0
M  V30 10612 C 943.359 3.77634 -3.59224 0
M  V30 10613 C 940.687 3.89666 -4.38608 0
M  V30 10614 C 943.039 3.9599 -4.9333 0
M  V30 10615 C 941.703 4.01501 -5.33248 0
M  V30 10616 H 940.973 0.6883 -0.274452 0
M  V30 10617 H 943.62 1.39671 -1.31012 0
M  V30 10618 H 941.925 3.88266 -0.525071 0
M  V30 10619 H 943.622 3.90402 -0.915827 0
M  V30 10620 H 940.212 3.6051 -2.31798 0
M  V30 10621 H 944.396 3.71342 -3.2927 0
M  V30 10622 H 939.652 3.92178 -4.69048 0
M  V30 10623 H 943.826 4.0428 -5.67037 0
M  V30 10624 H 941.453 4.14301 -6.37384 0
M  V30 10625 N 943.028 0.824394 1.34319 0
M  V30 10626 C 944.277 0.40956 1.97498 0
M  V30 10627 C 944.59 -1.03323 1.66083 0
M  V30 10628 O 945.796 -1.55205 2.22764 0
M  V30 10629 C 944.252 0.681384 3.53391 0
M  V30 10630 C 943.86 2.1379 3.93698 0
M  V30 10631 C 945.604 0.332788 4.23194 0
M  V30 10632 C 943.511 2.35453 5.42509 0
M  V30 10633 H 942.441 0.149409 0.739049 0
M  V30 10634 H 945.092 1.01095 1.5314 0
M  V30 10635 H 943.474 0.00980375 3.95999 0
M  V30 10636 H 944.648 2.84876 3.62191 0
M  V30 10637 H 942.963 2.44807 3.36836 0
M  V30 10638 H 945.56 0.472463 5.32609 0
M  V30 10639 H 945.903 -0.722862 4.09976 0
M  V30 10640 H 946.436 0.959005 3.86067 0
M  V30 10641 H 943.175 3.39529 5.60714 0
M  V30 10642 H 942.695 1.68912 5.75525 0
M  V30 10643 H 944.374 2.17885 6.09209 0
M  V30 10644 N 944.506 -1.46559 0.579492 0
M  V30 10645 C 945.469 -2.28739 -0.145371 0
M  V30 10646 C 946.469 -1.38211 -0.821854 0
M  V30 10647 O 947.659 -1.6062 -0.674302 0
M  V30 10648 C 944.791 -3.18507 -1.21515 0
M  V30 10649 H 945.984 -2.94301 0.576786 0
M  V30 10650 H 943.537 -1.52616 0.337327 0
M  V30 10651 H 944.272 -2.57685 -1.96899 0
M  V30 10652 H 944.057 -3.85157 -0.734616 0
M  V30 10653 H 945.547 -3.80369 -1.72363 0
M  V30 10654 N 945.984 -0.3171 -1.54377 0
M  V30 10655 C 947.261 0.341348 -1.92598 0
M  V30 10656 C 947.641 1.70402 -1.24605 0
M  V30 10657 O 946.989 2.25191 -0.387448 0
M  V30 10658 C 947.199 0.440003 -3.46215 0
M  V30 10659 C 948.547 0.703327 -4.18734 0
M  V30 10660 O 949.571 0.523181 -3.52337 0
M  V30 10661 O 948.43 1.05042 -5.3631 0
M  V30 10662 H 945.524 0.193696 -0.803997 0
M  V30 10663 H 948.07 -0.366341 -1.65699 0
M  V30 10664 H 946.842 -0.517299 -3.87866 0
M  V30 10665 H 946.465 1.19553 -3.792 0
M  V30 10666 N 947.462 1.57535 -0.0451378 0
M  V30 10667 C 948.739 1.83785 0.669523 0
M  V30 10668 C 949.119 0.932331 1.89396 0
M  V30 10669 O 948.467 -0.00813229 2.28499 0
M  V30 10670 C 948.677 3.33376 1.03255 0
M  V30 10671 C 950.025 4.00243 1.41741 0
M  V30 10672 O 951.049 3.37965 1.12507 0
M  V30 10673 O 949.908 5.10038 1.96275 0
M  V30 10674 H 947.002 0.758342 0.329919 0
M  V30 10675 H 949.548 1.69538 -0.0740415 0
M  V30 10676 H 948.32 3.90965 0.161777 0
M  V30 10677 H 947.943 3.52787 1.83376 0
M  V30 10678 N 948.94 -0.228186 1.55939 0
M  V30 10679 C 950.217 -0.977492 1.69424 0
M  V30 10680 C 950.597 -2.02674 0.590479 0
M  V30 10681 O 949.945 -2.2491 -0.403467 0
M  V30 10682 C 950.155 -1.59394 3.10475 0
M  V30 10683 C 951.503 -2.08871 3.69673 0
M  V30 10684 O 952.527 -1.693 3.13394 0
M  V30 10685 O 951.386 -2.81584 4.68372 0
M  V30 10686 H 948.48 -0.456185 0.6898 0
M  V30 10687 H 951.026 -0.220492 1.68261 0
M  V30 10688 H 949.798 -0.835971 3.82266 0
M  V30 10689 H 949.421 -2.41665 3.15727 0
M  V30 10690 N 950.418 -1.49637 -0.494624 0
M  V30 10691 C 951.646 -1.63164 -1.2722 0
M  V30 10692 C 952.061 -0.305552 -1.86311 0
M  V30 10693 O 951.418 0.709758 -1.68133 0
M  V30 10694 C 951.469 -2.70524 -2.39789 0
M  V30 10695 O 951.19 -3.97991 -1.83126 0
M  V30 10696 C 952.691 -2.94814 -3.31058 0
M  V30 10697 H 949.911 -0.54912 -0.385627 0
M  V30 10698 H 952.455 -1.95711 -0.593081 0
M  V30 10699 H 950.61 -2.40738 -3.03519 0
M  V30 10700 H 951.024 -4.57179 -2.57075 0
M  V30 10701 H 952.498 -3.73653 -4.06309 0
M  V30 10702 H 952.975 -2.04974 -3.88436 0
M  V30 10703 H 953.581 -3.26042 -2.73088 0
M  V30 10704 N 951.896 0.746133 -1.38819 0
M  V30 10705 C 953.143 1.50545 -1.35434 0
M  V30 10706 C 953.471 1.94427 0.0532669 0
M  V30 10707 O 952.726 1.66285 1.03188 0
M  V30 10708 C 953.025 2.76639 -2.26286 0
M  V30 10709 C 952.691 2.51682 -3.74122 0
M  V30 10710 C 951.353 2.44584 -4.14406 0
M  V30 10711 C 953.705 2.30071 -4.67672 0
M  V30 10712 C 951.033 2.13902 -5.46318 0
M  V30 10713 C 953.385 2.00907 -5.99849 0
M  V30 10714 C 952.049 1.92271 -6.39209 0
M  V30 10715 H 951.319 0.550883 -0.49559 0
M  V30 10716 H 953.966 0.857337 -1.71237 0
M  V30 10717 H 952.271 3.46138 -1.83564 0
M  V30 10718 H 953.968 3.34626 -2.20967 0
M  V30 10719 H 950.558 2.5808 -3.42188 0
M  V30 10720 H 954.742 2.34528 -4.3739 0
M  V30 10721 H 949.998 2.0573 -5.75748 0
M  V30 10722 H 954.172 1.83191 -6.71874 0
M  V30 10723 H 951.799 1.68261 -7.41345 0
M  V30 10724 N 953.375 1.23811 0.975125 0
M  V30 10725 C 954.621 1.07495 1.71967 0
M  V30 10726 C 954.954 -0.386451 1.90316 0
M  V30 10727 O 954.229 -1.28591 1.45927 0
M  V30 10728 C 954.512 1.80694 3.11483 0
M  V30 10729 C 954.365 3.3454 3.00671 0
M  V30 10730 C 955.684 1.57367 4.11003 0
M  V30 10731 H 952.803 0.3919 0.624166 0
M  V30 10732 H 955.445 1.52383 1.13487 0
M  V30 10733 H 953.595 1.42538 3.61407 0
M  V30 10734 H 955.267 3.8225 2.5823 0
M  V30 10735 H 953.51 3.63301 2.37054 0
M  V30 10736 H 954.181 3.80951 3.99475 0
M  V30 10737 H 956.657 1.90545 3.69908 0
M  V30 10738 H 955.533 2.11052 5.06703 0
M  V30 10739 H 955.794 0.510221 4.39146 0
M  V30 10740 N 954.853 -1.17469 1.05066 0
M  V30 10741 C 955.801 -2.23495 0.644418 0
M  V30 10742 C 956.795 -1.66081 -0.333685 0
M  V30 10743 O 958.001 -1.78887 -0.199886 0
M  V30 10744 H 954.376 -0.727546 0.190214 0
M  V30 10745 H 956.347 -2.55058 1.5488 0
M  V30 10746 C 955.096 -3.47684 0.0338051 0
M  V30 10747 H 954.419 -3.92167 0.777513 0
M  V30 10748 H 955.859 -4.23464 -0.213086 0
M  V30 10749 C 954.318 -3.14067 -1.21915 0
M  V30 10750 O 954.848 -3.28728 -2.3087 0
M  V30 10751 N 953.054 -2.68304 -1.11631 0
M  V30 10752 H 952.601 -2.56574 -0.229673 0
M  V30 10753 H 952.559 -2.46184 -1.95553 0
M  V30 10754 N 956.331 -0.831506 -1.3388 0
M  V30 10755 C 957.577 -0.424302 -1.98312 0
M  V30 10756 C 957.91 1.01211 -1.65741 0
M  V30 10757 O 957.185 1.70636 -0.933464 0
M  V30 10758 C 957.468 -0.636815 -3.54424 0
M  V30 10759 C 957.321 -2.11997 -3.96708 0
M  V30 10760 C 958.64 -0.0782411 -4.4003 0
M  V30 10761 H 955.759 -0.155637 -0.720379 0
M  V30 10762 H 958.401 -1.04566 -1.58638 0
M  V30 10763 H 956.551 -0.107907 -3.8835 0
M  V30 10764 H 958.223 -2.71317 -3.73075 0
M  V30 10765 H 956.466 -2.60723 -3.46707 0
M  V30 10766 H 957.137 -2.21944 -5.05416 0
M  V30 10767 H 959.613 -0.530243 -4.12708 0
M  V30 10768 H 958.489 -0.256676 -5.483 0
M  V30 10769 H 958.75 1.01745 -4.30233 0
M  V30 10770 N 957.809 1.4625 -0.587256 0
M  V30 10771 C 958.756 2.30354 0.143384 0
M  V30 10772 C 959.726 1.40891 0.879716 0
M  V30 10773 O 960.911 1.69837 0.869486 0
M  V30 10774 C 958.051 3.25441 1.14815 0
M  V30 10775 C 957.164 4.30004 0.414792 0
M  V30 10776 C 956.299 5.12214 1.40748 0
M  V30 10777 C 955.338 6.08523 0.660786 0
M  V30 10778 N 954.475 6.83585 1.60176 0
M  V30 10779 H 959.315 2.92304 -0.579866 0
M  V30 10780 H 956.852 1.44055 -0.29777 0
M  V30 10781 H 958.81 3.79018 1.7436 0
M  V30 10782 H 957.44 2.6529 1.83906 0
M  V30 10783 H 956.492 3.79248 -0.295787 0
M  V30 10784 H 957.804 4.98515 -0.168738 0
M  V30 10785 H 956.958 5.70091 2.0756 0
M  V30 10786 H 955.697 4.43675 2.02494 0
M  V30 10787 H 954.702 5.49796 -0.0210864 0
M  V30 10788 H 955.927 6.79083 0.0486551 0
M  V30 10789 H 953.873 6.17752 2.20724 0
M  V30 10790 H 953.79 7.48373 1.07115 0
M  V30 10791 H 955.058 7.46016 2.26009 0
M  V30 10792 N 959.287 0.325282 1.54207 0
M  V30 10793 C 960.235 -0.5554 2.25872 0
M  V30 10794 C 961.229 -1.11714 1.27344 0
M  V30 10795 O 962.435 -1.06498 1.45115 0
M  V30 10796 H 958.81 -0.19776 0.725531 0
M  V30 10797 H 960.781 0.0712858 2.98315 0
M  V30 10798 C 959.53 -1.70379 3.03095 0
M  V30 10799 H 958.853 -1.2808 3.78729 0
M  V30 10800 H 960.293 -2.29556 3.56483 0
M  V30 10801 C 958.752 -2.62242 2.11496 0
M  V30 10802 O 959.282 -3.64003 1.69895 0
M  V30 10803 N 957.488 -2.30515 1.7695 0
M  V30 10804 H 957.035 -1.47805 2.10978 0
M  V30 10805 H 956.993 -2.92241 1.15942 0
M  V30 10806 N 960.765 -1.57509 0.0534917 0
M  V30 10807 C 961.695 -2.14698 -0.917999 0
M  V30 10808 C 962.676 -1.06924 -1.32292 0
M  V30 10809 O 963.861 -1.34875 -1.39723 0
M  V30 10810 C 960.991 -2.69383 -2.19203 0
M  V30 10811 C 959.945 -3.82161 -1.9271 0
M  V30 10812 C 959.271 -4.23373 -3.26587 0
M  V30 10813 C 960.571 -5.07199 -1.24686 0
M  V30 10814 H 962.265 -2.96125 -0.44165 0
M  V30 10815 H 959.811 -1.42446 -0.210993 0
M  V30 10816 H 961.764 -3.08031 -2.87567 0
M  V30 10817 H 960.488 -1.85151 -2.69048 0
M  V30 10818 H 959.147 -3.43989 -1.26757 0
M  V30 10819 H 958.795 -3.36089 -3.74237 0
M  V30 10820 H 958.495 -4.99385 -3.09658 0
M  V30 10821 H 960.019 -4.64623 -3.96178 0
M  V30 10822 H 961.433 -5.43279 -1.83088 0
M  V30 10823 H 959.83 -5.88369 -1.18076 0
M  V30 10824 H 960.9 -4.84386 -0.223227 0
M  V30 10825 N 962.243 0.219913 -1.56058 0
M  V30 10826 C 963.492 0.942119 -1.78345 0
M  V30 10827 C 963.805 1.85435 -0.622344 0
M  V30 10828 O 965.011 2.61533 -0.728886 0
M  V30 10829 C 963.467 1.72544 -3.15843 0
M  V30 10830 C 963.075 0.859263 -4.39682 0
M  V30 10831 C 964.819 2.43876 -3.47455 0
M  V30 10832 C 962.726 1.64003 -5.68205 0
M  V30 10833 H 961.656 0.355514 -0.664925 0
M  V30 10834 H 964.307 0.195963 -1.82451 0
M  V30 10835 H 962.689 2.51456 -3.05918 0
M  V30 10836 H 963.863 0.110562 -4.60667 0
M  V30 10837 H 962.178 0.257985 -4.156 0
M  V30 10838 H 964.775 3.02794 -4.40704 0
M  V30 10839 H 965.118 3.16843 -2.7003 0
M  V30 10840 H 965.651 1.71952 -3.58716 0
M  V30 10841 H 962.39 0.953606 -6.48526 0
M  V30 10842 H 961.91 2.3633 -5.51279 0
M  V30 10843 H 963.589 2.20028 -6.08438 0
M  V30 10844 N 963.721 1.49897 0.486681 0
M  V30 10845 C 964.998 1.50614 1.24799 0
M  V30 10846 C 965.378 0.24193 2.09709 0
M  V30 10847 O 964.726 -0.775237 2.14947 0
M  V30 10848 C 964.936 2.79318 2.09243 0
M  V30 10849 C 966.284 3.29371 2.67955 0
M  V30 10850 O 967.308 2.80533 2.19499 0
M  V30 10851 O 966.167 4.14466 3.56202 0
M  V30 10852 H 963.261 0.603447 0.565491 0
M  V30 10853 H 965.807 1.62174 0.499778 0
M  V30 10854 H 964.579 3.62812 1.46572 0
M  V30 10855 H 964.202 2.70687 2.91229 0
M  V30 10856 N 965.199 -0.738761 1.39212 0
M  V30 10857 C 966.445 -1.50046 1.36433 0
M  V30 10858 C 966.778 -1.94157 -0.0409474 0
M  V30 10859 O 966.053 -1.66515 -1.00514 0
M  V30 10860 C 966.336 -2.74277 2.33333 0
M  V30 10861 C 966.189 -2.36209 3.82786 0
M  V30 10862 C 967.508 -3.76361 2.28123 0
M  V30 10863 H 964.627 -0.544294 0.496903 0
M  V30 10864 H 967.269 -0.845005 1.70175 0
M  V30 10865 H 965.419 -3.30204 2.04689 0
M  V30 10866 H 967.091 -1.85942 4.22165 0
M  V30 10867 H 965.334 -1.68483 3.99745 0
M  V30 10868 H 966.005 -3.25156 4.46069 0
M  V30 10869 H 968.481 -3.30009 2.53443 0
M  V30 10870 H 967.357 -4.60957 2.9801 0
M  V30 10871 H 967.618 -4.23013 1.28499 0
M  V30 10872 N 966.677 -1.24326 -0.968545 0
M  V30 10873 C 967.905 -1.10947 -1.74638 0
M  V30 10874 C 968.32 0.338064 -1.85749 0
M  V30 10875 O 967.677 1.23331 -1.3452 0
M  V30 10876 C 967.728 -1.74254 -3.1673 0
M  V30 10877 O 967.449 -3.13347 -3.06178 0
M  V30 10878 C 968.95 -1.66473 -4.10855 0
M  V30 10879 H 966.17 -0.38767 -0.547679 0
M  V30 10880 H 968.714 -1.64415 -1.21605 0
M  V30 10881 H 966.869 -1.2479 -3.66751 0
M  V30 10882 H 967.283 -3.44255 -3.95713 0
M  V30 10883 H 968.757 -2.15452 -5.08217 0
M  V30 10884 H 969.234 -0.625785 -4.34719 0
M  V30 10885 H 969.84 -2.15359 -3.66743 0
M  V30 10886 N 968.156 1.1691 -1.05688 0
M  V30 10887 C 969.104 2.2315 -0.656262 0
M  V30 10888 C 970.098 1.66256 0.324873 0
M  V30 10889 O 971.304 1.7899 0.190397 0
M  V30 10890 H 967.679 0.726527 -0.19407 0
M  V30 10891 H 969.65 2.54233 -1.56231 0
M  V30 10892 C 968.399 3.47661 -0.0522431 0
M  V30 10893 H 967.722 3.91749 -0.798299 0
M  V30 10894 H 969.162 4.23571 0.190626 0
M  V30 10895 C 967.621 3.14709 1.20248 0
M  V30 10896 O 968.151 3.29947 2.29124 0
M  V30 10897 N 966.357 2.68892 1.10207 0
M  V30 10898 H 965.904 2.56692 0.216063 0
M  V30 10899 H 965.862 2.47218 1.94244 0
M  V30 10900 N 969.634 0.838594 1.33437 0
M  V30 10901 C 970.564 0.286672 2.31734 0
M  V30 10902 C 971.545 -0.605451 1.5896 0
M  V30 10903 O 972.73 -0.529059 1.86854 0
M  V30 10904 C 969.86 -0.539311 3.43087 0
M  V30 10905 C 968.814 0.256997 4.27228 0
M  V30 10906 C 968.14 -0.692718 5.30194 0
M  V30 10907 C 969.44 1.47391 5.01072 0
M  V30 10908 H 971.134 1.10798 2.78144 0
M  V30 10909 H 968.68 0.534235 1.33723 0
M  V30 10910 H 970.633 -0.935724 4.1088 0
M  V30 10911 H 969.357 -1.39383 2.95364 0
M  V30 10912 H 968.016 0.634967 3.61059 0
M  V30 10913 H 967.664 -1.54363 4.78729 0
M  V30 10914 H 967.364 -0.164023 5.87371 0
M  V30 10915 H 968.888 -1.08665 6.00853 0
M  V30 10916 H 970.302 1.15067 5.61634 0
M  V30 10917 H 968.699 1.93937 5.67898 0
M  V30 10918 H 969.769 2.24382 4.29861 0
M  V30 10919 N 971.112 -1.45937 0.595003 0
M  V30 10920 C 972.34 -2.06698 0.091293 0
M  V30 10921 C 972.755 -1.44176 -1.21897 0
M  V30 10922 O 972.112 -0.551402 -1.73971 0
M  V30 10923 C 972.163 -3.61436 -0.0681801 0
M  V30 10924 O 971.884 -4.21622 1.19023 0
M  V30 10925 C 973.385 -4.39155 -0.604814 0
M  V30 10926 H 970.605 -0.668029 0.0630737 0
M  V30 10927 H 973.149 -1.87376 0.819165 0
M  V30 10928 H 971.304 -3.80143 -0.746324 0
M  V30 10929 H 971.718 -5.14647 1.01187 0
M  V30 10930 H 973.192 -5.47973 -0.665532 0
M  V30 10931 H 973.669 -4.08055 -1.62444 0
M  V30 10932 H 974.275 -4.25282 0.0388658 0
M  V30 10933 N 972.59 -0.333456 -1.54032 0
M  V30 10934 C 973.52 0.52051 -2.27625 0
M  V30 10935 C 974.501 1.1111 -1.28797 0
M  V30 10936 O 975.686 1.13438 -1.57625 0
M  V30 10937 C 972.816 1.67663 -3.04149 0
M  V30 10938 C 971.77 1.21487 -4.10396 0
M  V30 10939 C 971.096 2.45872 -4.74817 0
M  V30 10940 C 972.396 0.322603 -5.21303 0
M  V30 10941 H 974.09 -0.0933823 -2.99254 0
M  V30 10942 H 971.636 -0.0463526 -1.43925 0
M  V30 10943 H 973.589 2.28041 -3.54366 0
M  V30 10944 H 972.313 2.31727 -2.30153 0
M  V30 10945 H 970.972 0.633966 -3.61077 0
M  V30 10946 H 970.62 3.0832 -3.97426 0
M  V30 10947 H 970.32 2.15662 -5.46593 0
M  V30 10948 H 971.844 3.06994 -5.27814 0
M  V30 10949 H 973.258 0.832942 -5.67217 0
M  V30 10950 H 971.655 0.112843 -5.99994 0
M  V30 10951 H 972.725 -0.643954 -4.80605 0
M  V30 10952 N 974.068 1.57479 -0.061844 0
M  V30 10953 C 975.016 2.13346 0.926629 0
M  V30 10954 C 976.01 1.06787 1.31502 0
M  V30 10955 O 977.216 1.25181 1.29343 0
M  V30 10956 H 973.591 0.682046 0.316729 0
M  V30 10957 H 975.562 2.95279 0.430424 0
M  V30 10958 C 974.311 2.70198 2.18834 0
M  V30 10959 H 973.634 3.51859 1.89829 0
M  V30 10960 H 975.074 3.12897 2.86132 0
M  V30 10961 C 973.533 1.64481 2.9402 0
M  V30 10962 O 974.063 1.0639 3.87355 0
M  V30 10963 N 972.269 1.35749 2.56944 0
M  V30 10964 H 971.816 1.83177 1.81119 0
M  V30 10965 H 971.774 0.652469 3.07555 0
M  V30 10966 N 975.546 -0.211634 1.56173 0
M  V30 10967 C 976.774 -0.951184 1.83739 0
M  V30 10968 C 977.189 -1.7754 0.642252 0
M  V30 10969 O 976.546 -1.78302 -0.389174 0
M  V30 10970 C 976.597 -1.86075 3.09933 0
M  V30 10971 O 976.318 -1.06983 4.24837 0
M  V30 10972 C 977.819 -2.71337 3.50559 0
M  V30 10973 H 975.039 -0.278312 0.61056 0
M  V30 10974 H 977.583 -0.223871 2.03271 0
M  V30 10975 H 975.738 -2.54189 2.92347 0
M  V30 10976 H 976.152 -1.68815 4.9659 0
M  V30 10977 H 977.626 -3.30843 4.41868 0
M  V30 10978 H 978.103 -3.44226 2.72773 0
M  V30 10979 H 978.709 -2.0862 3.70618 0
M  V30 10980 N 977.024 -1.50153 -0.478725 0
M  V30 10981 C 978.264 -1.62393 -1.24129 0
M  V30 10982 C 978.628 -0.313774 -1.89419 0
M  V30 10983 O 979.829 -0.311537 -2.66989 0
M  V30 10984 C 978.1 -2.76633 -2.26293 0
M  V30 10985 S 979.659 -3.08961 -3.11591 0
M  V30 10986 H 976.477 -0.572559 -0.421541 0
M  V30 10987 H 979.079 -1.87906 -0.539592 0
M  V30 10988 H 977.783 -3.70319 -1.76896 0
M  V30 10989 H 977.314 -2.53182 -3.01102 0
M  V30 10990 H 979.329 -2.52197 -4.2733 0
M  V30 10991 N 978.502 0.731368 -1.39602 0
M  V30 10992 C 979.727 1.52567 -1.40492 0
M  V30 10993 C 980.152 1.881 -0.00228828 0
M  V30 10994 O 979.51 1.52167 0.985643 0
M  V30 10995 C 979.558 2.78749 -2.2876 0
M  V30 10996 O 978.662 3.7482 -1.71999 0
M  V30 10997 H 978.003 0.460601 -0.478271 0
M  V30 10998 H 980.533 0.902042 -1.83642 0
M  V30 10999 H 980.543 3.27446 -2.43399 0
M  V30 11000 H 979.218 2.5222 -3.30693 0
M  V30 11001 H 977.795 3.33604 -1.66622 0
M  V30 11002 N 979.98 1.24838 0.961938 0
M  V30 11003 C 980.93 1.01276 2.04272 0
M  V30 11004 C 981.914 -0.0478239 1.60829 0
M  V30 11005 O 983.106 0.166616 1.76214 0
M  V30 11006 C 980.235 0.625659 3.37551 0
M  V30 11007 C 979.321 1.72262 3.87539 0
M  V30 11008 N 979.712 2.95644 4.104 0
M  V30 11009 C 978.01 1.60146 4.16256 0
M  V30 11010 C 978.711 3.66796 4.51482 0
M  V30 11011 N 977.687 2.94383 4.56989 0
M  V30 11012 H 981.489 1.94956 2.19931 0
M  V30 11013 H 979.003 1.15049 1.14619 0
M  V30 11014 H 981 0.438072 4.14592 0
M  V30 11015 H 979.66 -0.303887 3.23275 0
M  V30 11016 H 980.671 3.31764 3.97685 0
M  V30 11017 H 977.348 0.740353 4.10883 0
M  V30 11018 H 978.738 4.72664 4.77534 0
M  V30 11019 N 981.458 -1.16348 1.06306 0
M  V30 11020 C 982.683 -1.91323 0.800636 0
M  V30 11021 C 983.108 -1.7691 -0.639105 0
M  V30 11022 O 982.466 -1.0945 -1.44535 0
M  V30 11023 C 982.514 -3.40038 1.20027 0
M  V30 11024 O 981.618 -4.11003 0.339142 0
M  V30 11025 H 980.959 -0.596057 0.292595 0
M  V30 11026 H 983.489 -1.47406 1.41889 0
M  V30 11027 H 983.499 -3.90808 1.17188 0
M  V30 11028 H 982.174 -3.49848 2.24898 0
M  V30 11029 H 980.751 -3.70423 0.42911 0
M  V30 11030 N 982.937 -0.845659 -1.3299 0
M  V30 11031 C 983.884 -0.281761 -2.29074 0
M  V30 11032 C 984.854 0.606237 -1.54641 0
M  V30 11033 O 986.039 0.543063 -1.82908 0
M  V30 11034 C 983.179 0.531451 -3.40983 0
M  V30 11035 C 982.292 -0.381328 -4.30314 0
M  V30 11036 C 981.427 0.443643 -5.29344 0
M  V30 11037 C 980.466 -0.467101 -6.10315 0
M  V30 11038 N 979.603 0.320148 -7.0137 0
M  V30 11039 H 984.443 -1.10641 -2.76699 0
M  V30 11040 H 981.98 -0.55706 -1.36144 0
M  V30 11041 H 983.938 1.01848 -4.04577 0
M  V30 11042 H 982.568 1.32101 -2.94532 0
M  V30 11043 H 981.62 -0.986701 -3.6738 0
M  V30 11044 H 982.932 -1.08067 -4.86953 0
M  V30 11045 H 982.086 0.994212 -5.98498 0
M  V30 11046 H 980.825 1.17639 -4.73299 0
M  V30 11047 H 979.83 -1.02963 -5.40073 0
M  V30 11048 H 981.055 -1.19832 -6.68444 0
M  V30 11049 H 979.001 1.03615 -6.47765 0
M  V30 11050 H 978.918 -0.320338 -7.55321 0
M  V30 11051 H 980.186 0.852735 -7.74822 0
M  V30 11052 N 984.415 1.45619 -0.602734 0
M  V30 11053 C 985.362 2.30493 0.118944 0
M  V30 11054 C 986.332 1.41816 0.864723 0
M  V30 11055 O 987.517 1.7075 0.851424 0
M  V30 11056 C 984.657 3.2664 1.11356 0
M  V30 11057 C 983.77 4.3042 0.369161 0
M  V30 11058 C 982.905 5.13678 1.35307 0
M  V30 11059 C 981.944 6.09189 0.596207 0
M  V30 11060 N 981.081 6.85245 1.52916 0
M  V30 11061 H 985.921 2.91672 -0.610836 0
M  V30 11062 H 983.458 1.43731 -0.313032 0
M  V30 11063 H 985.416 3.80846 1.7033 0
M  V30 11064 H 984.046 2.67225 1.81081 0
M  V30 11065 H 983.098 3.78913 -0.335994 0
M  V30 11066 H 984.41 4.98307 -0.221603 0
M  V30 11067 H 983.564 5.7226 2.01502 0
M  V30 11068 H 982.303 4.45798 1.97777 0
M  V30 11069 H 981.308 5.49743 -0.0793984 0
M  V30 11070 H 982.533 6.79096 -0.0233734 0
M  V30 11071 H 980.479 6.20058 2.14159 0
M  V30 11072 H 980.396 7.49467 0.991713 0
M  V30 11073 H 981.664 7.48371 2.18083 0
M  V30 11074 N 985.893 0.34162 1.53853 0
M  V30 11075 C 987.123 -0.256557 2.05001 0
M  V30 11076 C 987.531 -1.44916 1.21639 0
M  V30 11077 O 986.874 -1.8207 0.244138 0
M  V30 11078 C 986.936 -0.737109 3.51862 0
M  V30 11079 C 986.6 0.335584 4.55766 0
M  V30 11080 C 987.597 1.17765 5.06387 0
M  V30 11081 C 985.282 0.488958 4.99914 0
M  V30 11082 C 987.276 2.15865 5.99734 0
M  V30 11083 C 984.963 1.47336 5.93073 0
M  V30 11084 C 985.961 2.30666 6.4287 0
M  V30 11085 O 985.649 3.2743 7.34197 0
M  V30 11086 H 985.381 -0.0536867 0.673865 0
M  V30 11087 H 987.935 0.49123 1.99439 0
M  V30 11088 H 986.165 -1.53611 3.54881 0
M  V30 11089 H 987.854 -1.25562 3.85991 0
M  V30 11090 H 988.62 1.07023 4.73044 0
M  V30 11091 H 984.499 -0.149807 4.60757 0
M  V30 11092 H 988.043 2.80945 6.38526 0
M  V30 11093 H 983.94 1.58134 6.25831 0
M  V30 11094 H 984.708 3.22879 7.52125 0
M  V30 11095 N 987.371 -1.57444 0.0701946 0
M  V30 11096 C 988.304 -2.08232 -0.93352 0
M  V30 11097 C 989.282 -0.987073 -1.29212 0
M  V30 11098 O 990.466 -1.26035 -1.40169 0
M  V30 11099 C 987.593 -2.53866 -2.2421 0
M  V30 11100 C 986.639 -3.7481 -2.03518 0
M  V30 11101 S 987.472 -5.1958 -1.29601 0
M  V30 11102 C 988.628 -5.68544 -2.61742 0
M  V30 11103 H 988.861 -2.93042 -0.501354 0
M  V30 11104 H 986.394 -1.53741 -0.142533 0
M  V30 11105 H 988.352 -2.80818 -2.99419 0
M  V30 11106 H 987.013 -1.69327 -2.64551 0
M  V30 11107 H 986.206 -4.04724 -3.00358 0
M  V30 11108 H 985.808 -3.48222 -1.36445 0
M  V30 11109 H 988.1 -5.75291 -3.57836 0
M  V30 11110 H 989.043 -6.67459 -2.3644 0
M  V30 11111 H 989.451 -4.96354 -2.68873 0
M  V30 11112 N 988.849 0.203349 -1.56283 0
M  V30 11113 C 990.079 0.940061 -1.83974 0
M  V30 11114 C 990.487 1.77703 -0.649486 0
M  V30 11115 O 989.83 1.79487 0.391189 0
M  V30 11116 C 989.892 1.89249 -3.05655 0
M  V30 11117 C 989.556 1.23828 -4.39904 0
M  V30 11118 C 990.553 0.619231 -5.16199 0
M  V30 11119 C 988.238 1.2446 -4.86636 0
M  V30 11120 C 990.232 0.0152287 -6.37398 0
M  V30 11121 C 987.919 0.636764 -6.07773 0
M  V30 11122 C 988.917 0.0231481 -6.82996 0
M  V30 11123 O 988.605 -0.575187 -8.0184 0
M  V30 11124 H 988.337 0.280199 -0.615194 0
M  V30 11125 H 990.891 0.218111 -2.04239 0
M  V30 11126 H 989.121 2.65392 -2.81254 0
M  V30 11127 H 990.81 2.4963 -3.20062 0
M  V30 11128 H 991.576 0.606545 -4.81192 0
M  V30 11129 H 987.455 1.71161 -4.28048 0
M  V30 11130 H 990.999 -0.464333 -6.96053 0
M  V30 11131 H 986.896 0.646924 -6.4225 0
M  V30 11132 H 987.664 -0.471284 -8.17142 0
M  V30 11133 N 990.327 1.50405 0.470755 0
M  V30 11134 C 991.604 1.51929 1.23195 0
M  V30 11135 C 991.984 0.264159 2.09441 0
M  V30 11136 O 991.332 -0.752395 2.15757 0
M  V30 11137 C 991.542 2.81521 2.06269 0
M  V30 11138 C 992.89 3.32195 2.64446 0
M  V30 11139 O 993.914 2.82845 2.16511 0
M  V30 11140 O 992.773 4.18221 3.51786 0
M  V30 11141 H 989.867 0.609411 0.559059 0
M  V30 11142 H 992.413 1.62695 0.482549 0
M  V30 11143 H 991.185 3.64346 1.42715 0
M  V30 11144 H 990.808 2.7376 2.88342 0
M  V30 11145 N 991.805 -0.723954 1.39988 0
M  V30 11146 C 992.752 -1.83803 1.39589 0
M  V30 11147 C 993.722 -1.64146 0.253996 0
M  V30 11148 O 994.907 -1.85398 0.450793 0
M  V30 11149 C 992.047 -3.21431 1.25604 0
M  V30 11150 C 991.16 -3.52717 2.49429 0
M  V30 11151 C 990.295 -4.79805 2.27949 0
M  V30 11152 C 989.334 -5.03968 3.47394 0
M  V30 11153 N 988.471 -6.22266 3.25161 0
M  V30 11154 H 993.311 -1.83479 2.34818 0
M  V30 11155 H 990.848 -0.896396 1.16633 0
M  V30 11156 H 992.806 -4.00892 1.15504 0
M  V30 11157 H 991.436 -3.21005 0.339986 0
M  V30 11158 H 990.488 -2.67872 2.7009 0
M  V30 11159 H 991.8 -3.66486 3.38363 0
M  V30 11160 H 990.954 -5.67268 2.15155 0
M  V30 11161 H 989.693 -4.68229 1.36428 0
M  V30 11162 H 988.698 -4.14963 3.60674 0
M  V30 11163 H 989.923 -5.17422 4.39831 0
M  V30 11164 H 987.869 -6.11957 2.36314 0
M  V30 11165 H 987.786 -6.36673 4.07656 0
M  V30 11166 H 989.054 -7.12539 3.16083 0
M  V30 11167 N 993.283 -1.25346 -0.955304 0
M  V30 11168 C 994.513 -1.12629 -1.732 0
M  V30 11169 C 994.921 0.322748 -1.86427 0
M  V30 11170 O 994.264 1.23381 -1.36099 0
M  V30 11171 C 994.326 -1.7064 -3.16421 0
M  V30 11172 C 993.99 -3.19632 -3.26626 0
M  V30 11173 C 994.987 -4.1663 -3.10991 0
M  V30 11174 C 992.672 -3.59829 -3.50468 0
M  V30 11175 C 994.666 -5.51806 -3.19043 0
M  V30 11176 C 992.353 -4.95143 -3.58157 0
M  V30 11177 C 993.351 -5.90941 -3.42459 0
M  V30 11178 O 993.039 -7.23792 -3.49828 0
M  V30 11179 H 992.771 -0.393646 -0.549562 0
M  V30 11180 H 995.325 -1.66184 -1.20715 0
M  V30 11181 H 993.555 -1.11532 -3.70267 0
M  V30 11182 H 995.244 -1.53032 -3.75947 0
M  V30 11183 H 996.01 -3.86915 -2.92441 0
M  V30 11184 H 991.889 -2.8576 -3.61749 0
M  V30 11185 H 995.433 -6.26559 -3.06707 0
M  V30 11186 H 991.33 -5.24525 -3.76224 0
M  V30 11187 H 992.098 -7.31879 -3.66463 0
M  V30 11188 N 994.761 1.15782 -1.06922 0
M  V30 11189 C 996.01 1.85807 -0.784774 0
M  V30 11190 C 996.323 1.82967 0.691551 0
M  V30 11191 O 997.529 2.48632 1.0906 0
M  V30 11192 C 995.985 3.33469 -1.35375 0
M  V30 11193 C 995.593 3.44766 -2.86077 0
M  V30 11194 C 997.337 4.08707 -1.14713 0
M  V30 11195 C 995.244 4.86551 -3.36187 0
M  V30 11196 H 994.174 0.696046 -0.28989 0
M  V30 11197 H 996.825 1.30629 -1.28873 0
M  V30 11198 H 995.207 3.88292 -0.77754 0
M  V30 11199 H 996.381 3.00073 -3.49704 0
M  V30 11200 H 994.696 2.82969 -3.05479 0
M  V30 11201 H 997.293 5.13336 -1.49633 0
M  V30 11202 H 997.636 4.16211 -0.0858868 0
M  V30 11203 H 998.169 3.60142 -1.68946 0
M  V30 11204 H 994.908 4.84229 -4.41818 0
M  V30 11205 H 994.428 5.31844 -2.77312 0
M  V30 11206 H 996.107 5.55392 -3.31887 0
M  V30 11207 N 996.239 0.8527 1.3254 0
M  V30 11208 C 997.186 0.293905 2.28921 0
M  V30 11209 C 998.156 -0.598027 1.54961 0
M  V30 11210 O 999.341 -0.533355 1.83194 0
M  V30 11211 C 996.481 -0.513361 3.4126 0
M  V30 11212 C 995.594 0.404144 4.30105 0
M  V30 11213 C 994.729 -0.415564 5.29572 0
M  V30 11214 C 993.768 0.499461 6.10059 0
M  V30 11215 N 992.905 -0.282949 7.0153 0
M  V30 11216 H 997.745 1.12107 2.76109 0
M  V30 11217 H 995.282 0.564272 1.35847 0
M  V30 11218 H 997.24 -0.997008 4.05112 0
M  V30 11219 H 995.87 -1.30537 2.95229 0
M  V30 11220 H 994.922 1.00617 3.66852 0
M  V30 11221 H 996.234 1.10648 4.86373 0
M  V30 11222 H 995.388 -0.962458 5.99017 0
M  V30 11223 H 994.127 -1.15127 4.73917 0
M  V30 11224 H 993.132 1.05825 5.39519 0
M  V30 11225 H 994.357 1.23375 6.67799 0
M  V30 11226 H 992.303 -1.00179 6.48306 0
M  V30 11227 H 992.22 0.36039 7.55141 0
M  V30 11228 H 993.488 -0.811632 7.75263 0
M  V30 11229 N 997.718 -1.45297 0.610449 0
M  V30 11230 C 998.943 -2.07101 0.111414 0
M  V30 11231 C 999.368 -1.45161 -1.19625 0
M  V30 11232 O 998.726 -0.545368 -1.72903 0
M  V30 11233 C 998.774 -3.60598 -0.0117372 0
M  V30 11234 O 997.878 -3.98512 -1.06122 0
M  V30 11235 H 997.219 -0.659709 0.075364 0
M  V30 11236 H 999.749 -1.86504 0.841269 0
M  V30 11237 H 999.759 -4.07464 -0.209028 0
M  V30 11238 H 998.434 -4.05067 0.943076 0
M  V30 11239 H 997.011 -3.63312 -0.840158 0
M  V30 11240 N 999.196 -0.349774 -1.5367 0
M  V30 11241 C 1000.43 0.245682 -2.05134 0
M  V30 11242 C 1000.83 1.44269 -1.22406 0
M  V30 11243 O 1000.18 1.81938 -0.25379 0
M  V30 11244 C 1000.24 0.718439 -3.52248 0
M  V30 11245 C 999.903 -0.35975 -4.55582 0
M  V30 11246 C 1000.9 -1.20449 -5.05755 0
M  V30 11247 C 998.585 -0.515463 -4.99648 0
M  V30 11248 C 1000.58 -2.19043 -5.98581 0
M  V30 11249 C 998.266 -1.50479 -5.92283 0
M  V30 11250 C 999.264 -2.34072 -6.41638 0
M  V30 11251 O 998.952 -3.31319 -7.3245 0
M  V30 11252 H 998.684 0.0501122 -0.67414 0
M  V30 11253 H 1001.24 -0.5018 -1.99176 0
M  V30 11254 H 999.468 1.51727 -3.55691 0
M  V30 11255 H 1001.16 1.23513 -3.86651 0
M  V30 11256 H 1001.92 -1.09531 -4.7247 0
M  V30 11257 H 997.802 0.12537 -4.60829 0
M  V30 11258 H 1001.35 -2.84327 -6.37027 0
M  V30 11259 H 997.243 -1.61451 -6.24983 0
M  V30 11260 H 998.011 -3.26863 -7.50402 0
M  V30 11261 N 1000.67 1.57404 -0.0785433 0
M  V30 11262 C 1001.95 1.85163 0.630389 0
M  V30 11263 C 1002.33 0.972295 1.87376 0
M  V30 11264 O 1001.68 0.0403375 2.28464 0
M  V30 11265 C 1001.89 3.35491 0.961604 0
M  V30 11266 C 1003.24 4.0316 1.33219 0
M  V30 11267 O 1004.26 3.40276 1.05313 0
M  V30 11268 O 1003.12 5.14086 1.85412 0
M  V30 11269 H 1000.21 0.765169 0.31376 0
M  V30 11270 H 1002.76 1.69343 -0.109986 0
M  V30 11271 H 1001.53 3.91221 0.0788113 0
M  V30 11272 H 1001.15 3.56598 1.75852 0
M  V30 11273 N 1002.15 -0.195058 1.56388 0
M  V30 11274 C 1003.4 -0.915444 1.80626 0
M  V30 11275 C 1003.73 -1.83255 0.651768 0
M  V30 11276 O 1002.98 -1.92314 -0.362464 0
M  V30 11277 C 1003.28 -1.7637 3.10851 0
M  V30 11278 C 1002.95 -0.997572 4.39726 0
M  V30 11279 C 1001.61 -0.786043 4.74737 0
M  V30 11280 C 1003.96 -0.45851 5.19179 0
M  V30 11281 C 1001.29 -0.023972 5.86695 0
M  V30 11282 C 1003.64 0.29035 6.31933 0
M  V30 11283 C 1002.3 0.512895 6.65527 0
M  V30 11284 H 1001.57 -0.334985 0.660959 0
M  V30 11285 H 1004.22 -0.181815 1.90635 0
M  V30 11286 H 1002.53 -2.566 2.9608 0
M  V30 11287 H 1004.22 -2.3237 3.26811 0
M  V30 11288 H 1000.81 -1.17245 4.12252 0
M  V30 11289 H 1005 -0.609334 4.92545 0
M  V30 11290 H 1000.25 0.158421 6.11195 0
M  V30 11291 H 1004.43 0.715429 6.92715 0
M  V30 11292 H 1002.05 1.10531 7.52122 0
M  V30 11293 N 1003.63 -1.50653 -0.462772 0
M  V30 11294 C 1004.88 -1.62297 -1.21603 0
M  V30 11295 C 1005.21 -0.326191 -1.91441 0
M  V30 11296 O 1004.48 0.67284 -1.82491 0
M  V30 11297 C 1004.77 -2.80901 -2.25315 0
M  V30 11298 C 1004.62 -4.20484 -1.59728 0
M  V30 11299 C 1005.94 -2.95049 -3.26549 0
M  V30 11300 H 1003.06 -0.590691 -0.440741 0
M  V30 11301 H 1005.7 -1.83064 -0.508675 0
M  V30 11302 H 1003.85 -2.63325 -2.85643 0
M  V30 11303 H 1005.52 -4.49669 -1.02932 0
M  V30 11304 H 1003.76 -4.24357 -0.900181 0
M  V30 11305 H 1004.44 -4.99416 -2.35133 0
M  V30 11306 H 1006.91 -3.11166 -2.76251 0
M  V30 11307 H 1005.79 -3.79645 -3.96435 0
M  V30 11308 H 1006.05 -2.06019 -3.91163 0
M  V30 11309 N 1005.11 0.71652 -1.4037 0
M  V30 11310 C 1006.06 1.8306 -1.40562 0
M  V30 11311 C 1007.03 1.64009 -0.262697 0
M  V30 11312 O 1008.21 1.85157 -0.460619 0
M  V30 11313 C 1005.35 3.2076 -1.27307 0
M  V30 11314 C 1004.46 3.51389 -2.51296 0
M  V30 11315 C 1003.6 4.78589 -2.30491 0
M  V30 11316 C 1002.64 5.02119 -3.50061 0
M  V30 11317 N 1001.77 6.20533 -3.28457 0
M  V30 11318 H 1006.61 1.82231 -2.35788 0
M  V30 11319 H 1004.15 0.890198 -1.17106 0
M  V30 11320 H 1006.11 4.00274 -1.17628 0
M  V30 11321 H 1004.74 3.2082 -0.357005 0
M  V30 11322 H 1003.79 2.66436 -2.71507 0
M  V30 11323 H 1005.1 3.64686 -3.40302 0
M  V30 11324 H 1004.26 5.66119 -2.1816 0
M  V30 11325 H 1003 4.67499 -1.38909 0
M  V30 11326 H 1002 4.13044 -3.6287 0
M  V30 11327 H 1003.23 5.15082 -4.42569 0
M  V30 11328 H 1001.17 6.10695 -2.39556 0
M  V30 11329 H 1001.09 6.34502 -4.11027 0
M  V30 11330 H 1002.36 7.10853 -3.19857 0
M  V30 11331 N 1006.59 1.25851 0.948643 0
M  V30 11332 C 1007.5 1.08516 2.07994 0
M  V30 11333 C 1008.51 0.0206696 1.73988 0
M  V30 11334 O 1009.69 0.222854 2.00163 0
M  V30 11335 C 1006.75 0.712145 3.39307 0
M  V30 11336 C 1005.81 1.85523 3.87143 0
M  V30 11337 C 1005.05 1.49992 5.1219 0
M  V30 11338 O 1005.27 0.398268 5.69008 0
M  V30 11339 O 1004.2 2.33215 5.54882 0
M  V30 11340 H 1008.03 2.03405 2.25522 0
M  V30 11341 H 1005.62 1.04844 1.06433 0
M  V30 11342 H 1007.5 0.516512 4.18223 0
M  V30 11343 H 1006.17 -0.207416 3.23035 0
M  V30 11344 H 1005.08 2.10578 3.09205 0
M  V30 11345 H 1006.41 2.75425 4.07924 0
M  V30 11346 N 1008.06 -1.15214 1.07534 0
M  V30 11347 C 1009.01 -2.22078 0.69168 0
M  V30 11348 C 1010.01 -1.66751 -0.298382 0
M  V30 11349 O 1011.21 -1.7927 -0.161897 0
M  V30 11350 H 1007.59 -0.723347 0.205604 0
M  V30 11351 H 1009.56 -2.51716 1.60256 0
M  V30 11352 C 1008.31 -3.47534 0.107546 0
M  V30 11353 H 1007.63 -3.90429 0.860522 0
M  V30 11354 H 1009.07 -4.23821 -0.123215 0
M  V30 11355 C 1007.53 -3.16583 -1.15226 0
M  V30 11356 O 1008.06 -3.33551 -2.23845 0
M  V30 11357 N 1006.27 -2.70611 -1.05915 0
M  V30 11358 H 1005.81 -2.57004 -0.175198 0
M  V30 11359 H 1005.77 -2.50277 -1.90287 0
M  V30 11360 N 1009.54 -0.859717 -1.32086 0
M  V30 11361 C 1010.45 -0.31108 -2.32528 0
M  V30 11362 C 1011.47 0.573714 -1.6427 0
M  V30 11363 O 1012.64 0.472878 -1.9577 0
M  V30 11364 C 1009.71 0.487256 -3.43259 0
M  V30 11365 C 1008.77 -0.424279 -4.27198 0
M  V30 11366 C 1008 0.336051 -5.32641 0
M  V30 11367 O 1008.23 1.56541 -5.48499 0
M  V30 11368 O 1007.16 -0.300777 -6.01148 0
M  V30 11369 H 1010.99 -1.14336 -2.81355 0
M  V30 11370 H 1008.57 -0.622794 -1.358 0
M  V30 11371 H 1010.45 0.940203 -4.10777 0
M  V30 11372 H 1009.13 1.29626 -2.96612 0
M  V30 11373 H 1008.04 -0.925509 -3.62471 0
M  V30 11374 H 1009.37 -1.1986 -4.77383 0
M  V30 11375 N 1011.02 1.44971 -0.618145 0
M  V30 11376 C 1011.98 2.29044 0.0846739 0
M  V30 11377 C 1012.98 1.40341 0.784921 0
M  V30 11378 O 1014.17 1.62351 0.631479 0
M  V30 11379 C 1011.31 3.21617 1.13027 0
M  V30 11380 H 1012.5 2.92668 -0.654612 0
M  V30 11381 H 1010.05 1.51668 -0.377672 0
M  V30 11382 H 1010.79 2.62815 1.89997 0
M  V30 11383 H 1010.57 3.86969 0.63224 0
M  V30 11384 H 1012.06 3.84805 1.62218 0
M  V30 11385 N 1012.5 0.357919 1.53482 0
M  V30 11386 C 1013.43 -0.484231 2.28424 0
M  V30 11387 C 1014.41 -1.09046 1.30548 0
M  V30 11388 O 1015.59 -1.10916 1.59409 0
M  V30 11389 C 1012.72 -1.62803 3.06778 0
M  V30 11390 C 1011.68 -1.14943 4.12277 0
M  V30 11391 C 1011 -2.38287 4.78669 0
M  V30 11392 C 1012.3 -0.239627 5.2175 0
M  V30 11393 H 1014 0.140979 2.99068 0
M  V30 11394 H 1011.54 0.069244 1.43833 0
M  V30 11395 H 1013.5 -2.22374 3.57949 0
M  V30 11396 H 1012.22 -2.28036 2.3381 0
M  V30 11397 H 1010.88 -0.576442 3.6204 0
M  V30 11398 H 1010.53 -3.01959 4.02281 0
M  V30 11399 H 1010.23 -2.06939 5.49955 0
M  V30 11400 H 1011.75 -2.98558 5.32631 0
M  V30 11401 H 1013.17 -0.742597 5.6847 0
M  V30 11402 H 1011.56 -0.0173747 6.00097 0
M  V30 11403 H 1012.63 0.720333 4.7952 0
M  V30 11404 N 1013.98 -1.5736 0.0868897 0
M  V30 11405 C 1015.22 -1.94054 -0.578741 0
M  V30 11406 C 1015.55 -0.968047 -1.68698 0
M  V30 11407 O 1014.81 0.0137824 -1.95695 0
M  V30 11408 C 1015.11 -3.37316 -1.18123 0
M  V30 11409 C 1014.77 -4.50467 -0.197607 0
M  V30 11410 C 1013.43 -4.81145 0.072952 0
M  V30 11411 C 1015.79 -5.19036 0.474473 0
M  V30 11412 C 1013.11 -5.77723 1.02242 0
M  V30 11413 C 1015.47 -6.16632 1.41236 0
M  V30 11414 C 1014.13 -6.45719 1.69124 0
M  V30 11415 H 1013.4 -0.710093 -0.211776 0
M  V30 11416 H 1016.05 -1.90822 0.160978 0
M  V30 11417 H 1014.35 -3.37085 -1.99701 0
M  V30 11418 H 1016.05 -3.63003 -1.7038 0
M  V30 11419 H 1012.64 -4.2655 -0.418669 0
M  V30 11420 H 1016.82 -4.95518 0.278581 0
M  V30 11421 H 1012.08 -5.98578 1.24557 0
M  V30 11422 H 1016.25 -6.68862 1.939 0
M  V30 11423 H 1013.88 -7.20365 2.42855 0
M  V30 11424 N 1015.45 0.186762 -1.56489 0
M  V30 11425 C 1016.38 1.23395 -1.98232 0
M  V30 11426 C 1017.37 1.4702 -0.855526 0
M  V30 11427 O 1018.55 1.58616 -1.12048 0
M  V30 11428 C 1015.68 2.57635 -2.32898 0
M  V30 11429 C 1014.63 2.48607 -3.48394 0
M  V30 11430 C 1013.96 3.87196 -3.68759 0
M  V30 11431 C 1015.26 2.00398 -4.82325 0
M  V30 11432 H 1016.95 0.887026 -2.85958 0
M  V30 11433 H 1014.5 0.42525 -1.37578 0
M  V30 11434 H 1016.45 3.31082 -2.60696 0
M  V30 11435 H 1015.18 2.94084 -1.42064 0
M  V30 11436 H 1013.84 1.77615 -3.207 0
M  V30 11437 H 1013.48 4.21012 -2.75241 0
M  V30 11438 H 1013.18 3.82029 -4.46462 0
M  V30 11439 H 1014.71 4.62253 -3.98941 0
M  V30 11440 H 1016.12 2.6361 -5.091 0
M  V30 11441 H 1014.52 2.06214 -5.63556 0
M  V30 11442 H 1015.59 0.957562 -4.75351 0
M  V30 11443 N 1016.93 1.50896 0.454776 0
M  V30 11444 C 1017.86 1.6712 1.56855 0
M  V30 11445 C 1018.88 0.552223 1.53148 0
M  V30 11446 O 1020.07 0.825969 1.5824 0
M  V30 11447 C 1017.17 1.65464 2.95762 0
M  V30 11448 C 1016.34 2.93662 3.24163 0
M  V30 11449 C 1015.4 2.84428 4.42704 0
M  V30 11450 O 1014.42 3.58382 4.42211 0
M  V30 11451 N 1015.63 1.9909 5.45292 0
M  V30 11452 H 1018.39 2.63194 1.43349 0
M  V30 11453 H 1015.95 1.48564 0.643457 0
M  V30 11454 H 1017.94 1.56878 3.73057 0
M  V30 11455 H 1016.51 0.770568 3.02954 0
M  V30 11456 H 1015.73 3.16251 2.35328 0
M  V30 11457 H 1017.02 3.78558 3.39957 0
M  V30 11458 H 1016.42 1.3835 5.48521 0
M  V30 11459 H 1014.98 1.96396 6.21508 0
M  V30 11460 N 1018.41 -0.709066 1.40748 0
M  V30 11461 C 1019.36 -1.84445 1.41714 0
M  V30 11462 C 1020.35 -1.66779 0.296818 0
M  V30 11463 O 1021.56 -1.73805 0.468181 0
M  V30 11464 H 1017.93 -0.607581 0.443114 0
M  V30 11465 H 1019.9 -1.80747 2.3743 0
M  V30 11466 C 1018.65 -3.22362 1.303 0
M  V30 11467 H 1017.98 -3.36565 2.15787 0
M  V30 11468 H 1019.42 -4.01922 1.35036 0
M  V30 11469 C 1017.88 -3.36897 0.0139015 0
M  V30 11470 O 1018.41 -3.90389 -0.946553 0
M  V30 11471 N 1016.61 -2.90543 -0.0577491 0
M  V30 11472 H 1016.16 -2.472 0.724574 0
M  V30 11473 H 1016.12 -3.00647 -0.919721 0
M  V30 11474 N 1019.89 -1.26353 -0.941956 0
M  V30 11475 C 1021.14 -1.11851 -1.68806 0
M  V30 11476 C 1021.46 0.33829 -1.91535 0
M  V30 11477 O 1020.72 1.26495 -1.49324 0
M  V30 11478 C 1021.02 -1.83195 -3.06879 0
M  V30 11479 C 1020.68 -3.33093 -3.03908 0
M  V30 11480 C 1019.35 -3.73982 -3.02805 0
M  V30 11481 C 1021.7 -4.28803 -2.96273 0
M  V30 11482 C 1019.03 -5.08971 -2.91832 0
M  V30 11483 C 1021.38 -5.6383 -2.86842 0
M  V30 11484 C 1020.04 -6.04032 -2.84081 0
M  V30 11485 H 1019.31 -0.409293 -0.617706 0
M  V30 11486 H 1021.96 -1.56785 -1.09957 0
M  V30 11487 H 1020.26 -1.30728 -3.69347 0
M  V30 11488 H 1021.96 -1.69416 -3.63455 0
M  V30 11489 H 1018.55 -3.00566 -3.05546 0
M  V30 11490 H 1022.74 -3.98195 -2.96234 0
M  V30 11491 H 1017.99 -5.39282 -2.88072 0
M  V30 11492 H 1022.17 -6.37676 -2.79898 0
M  V30 11493 H 1019.79 -7.08586 -2.75335 0
M  V30 11494 N 1021.37 1.14642 -1.08144 0
M  V30 11495 C 1022.78 1.6719 -0.830923 0
M  V30 11496 C 1023.13 1.85373 0.642749 0
M  V30 11497 O 1022.25 1.56293 1.49671 0
M  V30 11498 C 1022.85 3.03697 -1.50179 0
M  V30 11499 C 1021.41 3.5329 -1.29858 0
M  V30 11500 C 1020.56 2.28828 -1.5663 0
M  V30 11501 H 1023.51 0.987441 -1.24239 0
M  V30 11502 H 1023.53 3.69023 -0.9275 0
M  V30 11503 H 1023.04 2.90431 -2.57432 0
M  V30 11504 H 1021.14 3.71783 -0.246626 0
M  V30 11505 H 1021.25 4.34231 -2.02436 0
M  V30 11506 H 1019.62 2.34769 -0.987716 0
M  V30 11507 H 1020.4 2.18141 -2.65084 0
M  V30 11508 N 1022.85 0.866709 1.31628 0
M  V30 11509 C 1023.79 0.318169 2.28596 0
M  V30 11510 C 1024.76 -0.581558 1.55586 0
M  V30 11511 O 1025.95 -0.513895 1.83749 0
M  V30 11512 C 1023.09 -0.477137 3.41786 0
M  V30 11513 C 1022.2 0.449739 4.29653 0
M  V30 11514 C 1021.34 -0.359373 5.29983 0
M  V30 11515 C 1020.37 0.564138 6.09495 0
M  V30 11516 N 1019.51 -0.208526 7.0179 0
M  V30 11517 H 1024.35 1.15029 2.74904 0
M  V30 11518 H 1021.89 0.578649 1.35241 0
M  V30 11519 H 1023.85 -0.953985 4.06146 0
M  V30 11520 H 1022.48 -1.27398 2.96597 0
M  V30 11521 H 1021.53 1.04502 3.65764 0
M  V30 11522 H 1022.84 1.158 4.85172 0
M  V30 11523 H 1021.99 -0.89887 6.00004 0
M  V30 11524 H 1020.73 -1.10094 4.75111 0
M  V30 11525 H 1019.74 1.11542 5.38366 0
M  V30 11526 H 1020.96 1.30451 6.66453 0
M  V30 11527 H 1018.91 -0.932969 6.49332 0
M  V30 11528 H 1018.83 0.440463 7.54716 0
M  V30 11529 H 1020.09 -0.72936 7.7608 0
M  V30 11530 N 1024.32 -1.44642 0.625825 0
M  V30 11531 C 1025.27 -2.30653 -0.082259 0
M  V30 11532 C 1026.24 -1.43174 -0.842052 0
M  V30 11533 O 1027.43 -1.72082 -0.824151 0
M  V30 11534 C 1024.57 -3.2837 -1.06146 0
M  V30 11535 C 1023.68 -4.30953 -0.300638 0
M  V30 11536 C 1022.81 -5.15766 -1.27118 0
M  V30 11537 C 1021.85 -6.10061 -0.499215 0
M  V30 11538 N 1020.99 -6.87591 -1.41995 0
M  V30 11539 H 1025.83 -2.90664 0.657161 0
M  V30 11540 H 1023.37 -1.43215 0.335859 0
M  V30 11541 H 1025.32 -3.83507 -1.6425 0
M  V30 11542 H 1023.95 -2.70072 -1.76807 0
M  V30 11543 H 1023.01 -3.78331 0.396234 0
M  V30 11544 H 1024.32 -4.97892 0.300851 0
M  V30 11545 H 1023.47 -5.75394 -1.92372 0
M  V30 11546 H 1022.21 -4.48888 -1.9066 0
M  V30 11547 H 1021.22 -5.49547 0.166848 0
M  V30 11548 H 1022.44 -6.78973 0.131409 0
M  V30 11549 H 1020.39 -6.23387 -2.04267 0
M  V30 11550 H 1020.3 -7.5095 -0.872354 0
M  V30 11551 H 1021.57 -7.51746 -2.0615 0
M  V30 11552 N 1025.8 -0.366053 -1.5329 0
M  V30 11553 C 1027.03 0.224236 -2.05681 0
M  V30 11554 C 1027.44 1.42412 -1.23952 0
M  V30 11555 O 1026.8 1.80334 -0.280309 0
M  V30 11556 C 1026.85 0.617266 -3.56191 0
M  V30 11557 O 1026.57 -0.534931 -4.34822 0
M  V30 11558 C 1028.07 1.26589 -4.24841 0
M  V30 11559 H 1025.29 0.0392928 -0.669849 0
M  V30 11560 H 1027.84 -0.52456 -1.97658 0
M  V30 11561 H 1025.99 1.31598 -3.64364 0
M  V30 11562 H 1026.41 -0.217123 -5.2405 0
M  V30 11563 H 1027.88 1.49146 -5.31469 0
M  V30 11564 H 1028.36 2.22633 -3.78591 0
M  V30 11565 H 1028.96 0.6086 -4.20923 0
M  V30 11566 N 1027.28 1.57312 -0.0952337 0
M  V30 11567 C 1028.21 2.17056 0.860753 0
M  V30 11568 C 1029.19 1.10394 1.29411 0
M  V30 11569 O 1030.38 1.38532 1.36098 0
M  V30 11570 C 1027.51 2.751 2.11984 0
M  V30 11571 C 1026.46 3.87136 1.8251 0
M  V30 11572 C 1025.79 4.31883 3.15247 0
M  V30 11573 C 1027.09 5.10326 1.11194 0
M  V30 11574 H 1028.78 2.97192 0.362983 0
M  V30 11575 H 1026.33 1.42955 0.173151 0
M  V30 11576 H 1028.28 3.15547 2.79299 0
M  V30 11577 H 1027 1.92219 2.64044 0
M  V30 11578 H 1025.66 3.47229 1.17592 0
M  V30 11579 H 1025.31 3.45893 3.65195 0
M  V30 11580 H 1025.01 5.0742 2.96309 0
M  V30 11581 H 1026.53 4.74964 3.83721 0
M  V30 11582 H 1027.95 5.47942 1.6862 0
M  V30 11583 H 1026.34 5.91293 1.02435 0
M  V30 11584 H 1027.41 4.84807 0.0947227 0
M  V30 11585 N 1028.76 -0.17846 1.56586 0
M  V30 11586 C 1030 -0.896235 1.81587 0
M  V30 11587 C 1030.33 -1.82553 0.671168 0
M  V30 11588 O 1029.59 -1.92688 -0.342046 0
M  V30 11589 C 1029.89 -1.73063 3.12704 0
M  V30 11590 C 1029.55 -0.950877 4.4076 0
M  V30 11591 C 1028.21 -0.735647 4.75544 0
M  V30 11592 C 1030.57 -0.403419 5.19636 0
M  V30 11593 C 1027.89 0.0382562 5.86688 0
M  V30 11594 C 1030.25 0.357359 6.3159 0
M  V30 11595 C 1028.91 0.583455 6.64945 0
M  V30 11596 H 1028.18 -0.327956 0.664474 0
M  V30 11597 H 1030.83 -0.161586 1.90817 0
M  V30 11598 H 1029.13 -2.53446 2.98785 0
M  V30 11599 H 1030.83 -2.28891 3.29257 0
M  V30 11600 H 1027.42 -1.12866 4.13472 0
M  V30 11601 H 1031.6 -0.557059 4.93164 0
M  V30 11602 H 1026.86 0.223237 6.10992 0
M  V30 11603 H 1031.03 0.788861 6.91918 0
M  V30 11604 H 1028.66 1.18502 7.50907 0
M  V30 11605 N 1030.24 -1.51135 -0.446768 0
M  V30 11606 C 1031.17 -1.74709 -1.54916 0
M  V30 11607 C 1032.15 -0.596628 -1.59293 0
M  V30 11608 O 1033.33 -0.838356 -1.75172 0
M  V30 11609 C 1030.46 -1.86353 -2.9307 0
M  V30 11610 C 1029.42 -3.01725 -3.03556 0
M  V30 11611 C 1028.74 -2.9854 -4.43597 0
M  V30 11612 C 1030.04 -4.41848 -2.7851 0
M  V30 11613 H 1031.74 -2.67014 -1.3544 0
M  V30 11614 H 1029.28 -1.28489 -0.650131 0
M  V30 11615 H 1031.23 -2.01428 -3.70141 0
M  V30 11616 H 1029.96 -0.906887 -3.13756 0
M  V30 11617 H 1028.62 -2.86339 -2.28922 0
M  V30 11618 H 1028.27 -2.00673 -4.61237 0
M  V30 11619 H 1027.97 -3.76008 -4.51544 0
M  V30 11620 H 1029.49 -3.15696 -5.22655 0
M  V30 11621 H 1030.9 -4.57633 -3.45319 0
M  V30 11622 H 1029.3 -5.2095 -2.97877 0
M  V30 11623 H 1030.37 -4.52536 -1.74182 0
M  V30 11624 N 1031.71 0.701592 -1.41122 0
M  V30 11625 C 1032.94 1.48833 -1.43291 0
M  V30 11626 C 1033.35 1.89168 -0.0348668 0
M  V30 11627 O 1032.69 1.56937 0.9548 0
M  V30 11628 C 1032.76 2.78533 -2.27287 0
M  V30 11629 C 1032.42 2.60438 -3.75528 0
M  V30 11630 C 1033.42 2.26778 -4.67833 0
M  V30 11631 C 1031.1 2.76266 -4.19503 0
M  V30 11632 C 1033.1 2.09176 -6.021 0
M  V30 11633 C 1030.78 2.58281 -5.53836 0
M  V30 11634 C 1031.78 2.24786 -6.4495 0
M  V30 11635 O 1031.47 2.06952 -7.76805 0
M  V30 11636 H 1031.2 0.465401 -0.490284 0
M  V30 11637 H 1033.76 0.871843 -1.85979 0
M  V30 11638 H 1031.99 3.42566 -1.79403 0
M  V30 11639 H 1033.67 3.40312 -2.21229 0
M  V30 11640 H 1034.44 2.1417 -4.35151 0
M  V30 11641 H 1030.32 3.01322 -3.48893 0
M  V30 11642 H 1033.86 1.82955 -6.73181 0
M  V30 11643 H 1029.76 2.70478 -5.86099 0
M  V30 11644 H 1030.53 2.21762 -7.87886 0
M  V30 11645 N 1033.19 1.2685 0.935242 0
M  V30 11646 C 1034.42 1.15645 1.72165 0
M  V30 11647 C 1034.84 -0.283909 1.85945 0
M  V30 11648 O 1034.2 -1.20567 1.354 0
M  V30 11649 C 1034.25 1.83689 3.10307 0
M  V30 11650 O 1033.35 1.12972 3.96625 0
M  V30 11651 H 1032.69 0.402629 0.528002 0
M  V30 11652 H 1035.22 1.67781 1.17093 0
M  V30 11653 H 1035.23 1.90749 3.60664 0
M  V30 11654 H 1033.91 2.88472 2.99595 0
M  V30 11655 H 1032.48 1.13929 3.5507 0
M  V30 11656 N 1034.67 -1.14067 1.0875 0
M  V30 11657 C 1035.9 -1.88767 0.839682 0
M  V30 11658 C 1036.31 -1.79024 -0.612119 0
M  V30 11659 O 1035.65 -1.14986 -1.43262 0
M  V30 11660 C 1035.71 -3.39333 1.18716 0
M  V30 11661 C 1035.38 -3.72858 2.64245 0
M  V30 11662 C 1036.37 -3.72683 3.62496 0
M  V30 11663 C 1034.06 -4.0273 3.0019 0
M  V30 11664 C 1036.05 -4.01909 4.9472 0
M  V30 11665 C 1033.74 -4.31618 4.32607 0
M  V30 11666 C 1034.74 -4.31192 5.29682 0
M  V30 11667 O 1034.43 -4.59377 6.59718 0
M  V30 11668 H 1034.16 -0.604665 0.302253 0
M  V30 11669 H 1036.71 -1.45364 1.45115 0
M  V30 11670 H 1034.94 -3.83205 0.518707 0
M  V30 11671 H 1036.63 -3.95346 0.919599 0
M  V30 11672 H 1037.4 -3.49688 3.3607 0
M  V30 11673 H 1033.28 -4.02213 2.25268 0
M  V30 11674 H 1036.82 -4.01491 5.70483 0
M  V30 11675 H 1032.72 -4.54083 4.58779 0
M  V30 11676 H 1033.49 -4.77078 6.65086 0
M  V30 11677 N 1036.15 -0.873678 -1.31166 0
M  V30 11678 C 1037.08 -0.348011 -2.30892 0
M  V30 11679 C 1038.06 0.563092 -1.60509 0
M  V30 11680 O 1039.24 0.479332 -1.88192 0
M  V30 11681 C 1036.37 0.448158 -3.44396 0
M  V30 11682 C 1035.33 -0.370179 -4.26396 0
M  V30 11683 C 1034.65 0.551903 -5.31844 0
M  V30 11684 C 1035.95 -1.60624 -4.96988 0
M  V30 11685 H 1037.65 -1.18134 -2.75109 0
M  V30 11686 H 1035.19 -0.569502 -1.3226 0
M  V30 11687 H 1037.15 0.826458 -4.13216 0
M  V30 11688 H 1035.87 1.31503 -2.98956 0
M  V30 11689 H 1034.53 -0.730472 -3.59249 0
M  V30 11690 H 1034.18 1.41616 -4.82653 0
M  V30 11691 H 1033.88 0.00823478 -5.87599 0
M  V30 11692 H 1035.4 0.926965 -6.03523 0
M  V30 11693 H 1036.82 -1.29917 -5.58386 0
M  V30 11694 H 1035.21 -2.08926 -5.62557 0
M  V30 11695 H 1036.28 -2.357 -4.23761 0
M  V30 11696 N 1037.63 1.44308 -0.633487 0
M  V30 11697 C 1038.57 2.30694 0.0700257 0
M  V30 11698 C 1039.54 1.43618 0.834447 0
M  V30 11699 O 1040.73 1.72517 0.815014 0
M  V30 11700 C 1037.87 3.28929 1.04403 0
M  V30 11701 C 1036.98 4.31106 0.277779 0
M  V30 11702 C 1036.12 5.16433 1.24381 0
M  V30 11703 C 1035.16 6.10317 0.466855 0
M  V30 11704 N 1034.29 6.88335 1.38347 0
M  V30 11705 H 1039.13 2.90311 -0.672567 0
M  V30 11706 H 1036.67 1.43034 -0.343449 0
M  V30 11707 H 1038.63 3.84373 1.62214 0
M  V30 11708 H 1037.26 2.71006 1.75372 0
M  V30 11709 H 1036.31 3.78115 -0.416292 0
M  V30 11710 H 1037.62 4.97725 -0.327251 0
M  V30 11711 H 1036.78 5.76406 1.89318 0
M  V30 11712 H 1035.51 4.49893 1.88276 0
M  V30 11713 H 1034.52 5.49451 -0.195989 0
M  V30 11714 H 1035.74 6.78894 -0.167414 0
M  V30 11715 H 1033.69 6.24461 2.00959 0
M  V30 11716 H 1033.61 7.51402 0.832517 0
M  V30 11717 H 1034.88 7.52829 2.0216 0
M  V30 11718 N 1039.1 0.374177 1.53094 0
M  V30 11719 C 1040.38 -0.269632 1.93733 0
M  V30 11720 C 1040.76 -1.6566 1.30843 0
M  V30 11721 O 1040.11 -2.23598 0.470759 0
M  V30 11722 C 1040.32 -0.311204 3.4761 0
M  V30 11723 C 1041.67 -0.547432 4.21056 0
M  V30 11724 O 1042.69 -0.392053 3.54036 0
M  V30 11725 O 1041.55 -0.850645 5.39839 0
M  V30 11726 H 1038.64 -0.163723 0.810632 0
M  V30 11727 H 1041.19 0.427586 1.64225 0
M  V30 11728 H 1039.96 0.660897 3.85678 0
M  V30 11729 H 1039.59 -1.05397 3.83376 0
M  V30 11730 N 1040.58 -1.57259 0.103575 0
M  V30 11731 C 1041.81 -1.99 -0.566275 0
M  V30 11732 C 1042.23 -0.982909 -1.61197 0
M  V30 11733 O 1041.58 0.026345 -1.82481 0
M  V30 11734 C 1041.63 -3.40778 -1.20635 0
M  V30 11735 O 1041.35 -4.37632 -0.202472 0
M  V30 11736 C 1042.86 -3.97567 -1.961 0
M  V30 11737 H 1040.08 -0.653751 -0.151164 0
M  V30 11738 H 1042.62 -2.03658 0.185365 0
M  V30 11739 H 1040.77 -3.37107 -1.90886 0
M  V30 11740 H 1041.19 -5.2026 -0.665535 0
M  V30 11741 H 1042.66 -4.98897 -2.36233 0
M  V30 11742 H 1043.14 -3.35853 -2.83018 0
M  V30 11743 H 1043.75 -4.04737 -1.30645 0
M  V30 11744 N 1042.06 0.170153 -1.56679 0
M  V30 11745 C 1043.31 0.886592 -1.8206 0
M  V30 11746 C 1043.64 1.82194 -0.680839 0
M  V30 11747 O 1042.89 1.92866 0.331822 0
M  V30 11748 C 1043.19 1.71402 -3.13618 0
M  V30 11749 C 1042.86 0.927489 -4.41258 0
M  V30 11750 C 1041.52 0.710417 -4.75927 0
M  V30 11751 C 1043.87 0.375855 -5.19843 0
M  V30 11752 C 1041.2 -0.0693691 -5.86659 0
M  V30 11753 C 1043.55 -0.390849 -6.31391 0
M  V30 11754 C 1042.21 -0.61871 -6.64626 0
M  V30 11755 H 1041.48 0.324427 -0.666204 0
M  V30 11756 H 1044.13 0.151464 -1.909 0
M  V30 11757 H 1042.44 2.51858 -3.00125 0
M  V30 11758 H 1044.13 2.27141 -3.30466 0
M  V30 11759 H 1040.72 1.10672 -4.14065 0
M  V30 11760 H 1044.91 0.530897 -4.93452 0
M  V30 11761 H 1040.16 -0.255637 -6.10865 0
M  V30 11762 H 1044.34 -0.825544 -6.9149 0
M  V30 11763 H 1041.96 -1.22482 -7.50268 0
M  V30 11764 N 1043.54 1.5137 0.438746 0
M  V30 11765 C 1044.5 1.71993 1.51496 0
M  V30 11766 C 1045.5 0.589978 1.49586 0
M  V30 11767 O 1046.69 0.857505 1.51633 0
M  V30 11768 C 1043.82 1.77508 2.91039 0
M  V30 11769 H 1045.02 2.68041 1.34514 0
M  V30 11770 H 1042.57 1.41338 0.667326 0
M  V30 11771 H 1043.3 0.832698 3.13427 0
M  V30 11772 H 1043.09 2.59627 2.9383 0
M  V30 11773 H 1044.58 1.95308 3.69113 0
M  V30 11774 N 1045.02 -0.694098 1.41492 0
M  V30 11775 C 1045.96 -1.80801 1.43456 0
M  V30 11776 C 1046.93 -1.63571 0.288757 0
M  V30 11777 O 1048.12 -1.844 0.490017 0
M  V30 11778 C 1045.26 -3.18694 1.32394 0
M  V30 11779 C 1044.37 -3.47346 2.56855 0
M  V30 11780 C 1043.51 -4.74862 2.38075 0
M  V30 11781 C 1042.55 -4.96486 3.58005 0
M  V30 11782 N 1041.68 -6.15229 3.38287 0
M  V30 11783 H 1046.52 -1.78457 2.38657 0
M  V30 11784 H 1044.06 -0.871455 1.18508 0
M  V30 11785 H 1046.02 -3.98352 1.23982 0
M  V30 11786 H 1044.65 -3.20211 0.407999 0
M  V30 11787 H 1043.7 -2.62083 2.75711 0
M  V30 11788 H 1045.01 -3.59226 3.4606 0
M  V30 11789 H 1044.17 -5.62577 2.27139 0
M  V30 11790 H 1042.9 -4.6523 1.46329 0
M  V30 11791 H 1041.91 -4.07219 3.69395 0
M  V30 11792 H 1043.13 -5.07976 4.50708 0
M  V30 11793 H 1041.08 -6.06807 2.49242 0
M  V30 11794 H 1041 -6.27883 4.21069 0
M  V30 11795 H 1042.27 -7.05674 3.31126 0
M  V30 11796 N 1046.49 -1.27344 -0.928501 0
M  V30 11797 C 1047.72 -1.16447 -1.7102 0
M  V30 11798 C 1048.14 0.278799 -1.8673 0
M  V30 11799 O 1047.49 1.18989 -1.38376 0
M  V30 11800 C 1047.55 -1.84242 -3.11026 0
M  V30 11801 O 1047.27 -3.2293 -2.96054 0
M  V30 11802 C 1048.77 -1.7946 -4.05351 0
M  V30 11803 H 1045.99 -0.404898 -0.535069 0
M  V30 11804 H 1048.53 -1.68201 -1.16313 0
M  V30 11805 H 1046.69 -1.36395 -3.62595 0
M  V30 11806 H 1047.1 -3.5667 -3.8456 0
M  V30 11807 H 1048.57 -2.31511 -5.01105 0
M  V30 11808 H 1049.05 -0.763771 -4.32508 0
M  V30 11809 H 1049.66 -2.26918 -3.59706 0
M  V30 11810 N 1047.97 1.13488 -1.09353 0
M  V30 11811 C 1049.22 1.841 -0.82401 0
M  V30 11812 C 1049.53 1.84393 0.652586 0
M  V30 11813 O 1050.74 2.5089 1.03762 0
M  V30 11814 C 1049.2 3.30523 -1.42418 0
M  V30 11815 C 1048.8 3.38621 -2.93326 0
M  V30 11816 C 1050.55 4.06182 -1.23356 0
M  V30 11817 C 1048.46 4.79311 -3.46432 0
M  V30 11818 H 1047.39 0.68974 -0.304589 0
M  V30 11819 H 1050.04 1.27866 -1.31615 0
M  V30 11820 H 1048.42 3.86555 -0.859727 0
M  V30 11821 H 1049.59 2.92587 -3.5599 0
M  V30 11822 H 1047.91 2.76426 -3.11412 0
M  V30 11823 H 1050.5 5.10047 -1.60488 0
M  V30 11824 H 1050.85 4.15936 -0.174152 0
M  V30 11825 H 1051.38 3.56477 -1.76547 0
M  V30 11826 H 1048.12 4.74748 -4.5199 0
M  V30 11827 H 1047.64 5.25842 -2.8853 0
M  V30 11828 H 1049.32 5.48227 -3.43593 0
M  V30 11829 N 1049.45 0.880621 1.30701 0
M  V30 11830 C 1050.38 0.301443 2.27209 0
M  V30 11831 C 1051.4 -0.541533 1.53529 0
M  V30 11832 O 1052.59 -0.361791 1.74795 0
M  V30 11833 C 1049.69 -0.59038 3.33718 0
M  V30 11834 C 1048.86 0.222549 4.36833 0
M  V30 11835 C 1047.92 -0.599083 5.22779 0
M  V30 11836 O 1046.94 -0.0233267 5.69195 0
M  V30 11837 N 1048.15 -1.90904 5.48211 0
M  V30 11838 H 1050.91 1.13083 2.77547 0
M  V30 11839 H 1048.47 0.743168 1.43835 0
M  V30 11840 H 1050.46 -1.14599 3.88135 0
M  V30 11841 H 1049.03 -1.32044 2.83343 0
M  V30 11842 H 1048.25 0.959606 3.82342 0
M  V30 11843 H 1049.54 0.779965 5.02786 0
M  V30 11844 H 1048.94 -2.3998 5.12275 0
M  V30 11845 H 1047.5 -2.4122 6.05521 0
M  V30 11846 N 1050.93 -1.4397 0.641131 0
M  V30 11847 C 1052.16 -2.06303 0.157006 0
M  V30 11848 C 1052.57 -1.47981 -1.17248 0
M  V30 11849 O 1051.93 -0.606471 -1.72128 0
M  V30 11850 C 1051.98 -3.6147 0.0468425 0
M  V30 11851 O 1051.7 -4.17622 1.32376 0
M  V30 11852 C 1053.2 -4.40857 -0.464795 0
M  V30 11853 H 1050.42 -0.665684 0.0842946 0
M  V30 11854 H 1052.97 -1.84675 0.878363 0
M  V30 11855 H 1051.12 -3.82325 -0.625006 0
M  V30 11856 H 1051.54 -5.11167 1.17509 0
M  V30 11857 H 1053.01 -5.49813 -0.490862 0
M  V30 11858 H 1053.49 -4.13016 -1.4938 0
M  V30 11859 H 1054.09 -4.24943 0.174146 0
M  V30 11860 N 1052.41 -0.382291 -1.52893 0
M  V30 11861 C 1053.34 0.447829 -2.29165 0
M  V30 11862 C 1054.32 1.06956 -1.32267 0
M  V30 11863 O 1055.5 1.08365 -1.61154 0
M  V30 11864 C 1052.63 1.57902 -3.09329 0
M  V30 11865 C 1051.59 1.08369 -4.14053 0
M  V30 11866 C 1050.91 2.30641 -4.82399 0
M  V30 11867 C 1052.21 0.156591 -5.22065 0
M  V30 11868 H 1053.91 -0.188541 -2.98806 0
M  V30 11869 H 1051.45 -0.0921179 -1.43705 0
M  V30 11870 H 1053.41 2.16652 -3.61442 0
M  V30 11871 H 1052.13 2.24287 -2.37409 0
M  V30 11872 H 1050.79 0.518772 -3.62911 0
M  V30 11873 H 1050.44 2.9552 -4.07034 0
M  V30 11874 H 1050.14 1.98163 -5.53177 0
M  V30 11875 H 1051.66 2.90047 -5.37313 0
M  V30 11876 H 1053.08 0.652065 -5.6958 0
M  V30 11877 H 1051.47 -0.0780978 -6.00049 0
M  V30 11878 H 1052.54 -0.796529 -4.78313 0
M  V30 11879 N 1053.89 1.57202 -0.111913 0
M  V30 11880 C 1054.83 2.14936 0.840908 0
M  V30 11881 C 1055.8 1.07242 1.2684 0
M  V30 11882 O 1056.99 1.35114 1.34718 0
M  V30 11883 C 1054.13 2.74743 2.0883 0
M  V30 11884 C 1053.24 3.96723 1.70982 0
M  V30 11885 C 1052.38 4.4464 2.90634 0
M  V30 11886 C 1051.41 5.59169 2.48992 0
M  V30 11887 N 1050.55 6.01862 3.61534 0
M  V30 11888 H 1055.39 2.96034 0.341735 0
M  V30 11889 H 1052.93 1.4626 0.156993 0
M  V30 11890 H 1054.89 3.07546 2.81907 0
M  V30 11891 H 1053.52 1.96346 2.56218 0
M  V30 11892 H 1052.57 3.70127 0.878072 0
M  V30 11893 H 1053.88 4.79795 1.36373 0
M  V30 11894 H 1053.03 4.79315 3.71944 0
M  V30 11895 H 1051.77 3.60503 3.28464 0
M  V30 11896 H 1050.78 5.24106 1.66113 0
M  V30 11897 H 1052 6.45067 2.12287 0
M  V30 11898 H 1049.95 5.20667 3.99051 0
M  V30 11899 H 1049.87 6.79772 3.30827 0
M  V30 11900 H 1051.13 6.41172 4.43305 0
M  V30 11901 N 1055.36 -0.161842 1.56767 0
M  V30 11902 C 1056.31 -1.2002 1.97139 0
M  V30 11903 C 1057.28 -1.43486 0.836713 0
M  V30 11904 O 1058.47 -1.56069 1.0976 0
M  V30 11905 C 1055.61 -2.53228 2.34456 0
M  V30 11906 C 1054.72 -2.37062 3.61145 0
M  V30 11907 C 1053.85 -3.63202 3.87631 0
M  V30 11908 C 1052.89 -3.42008 5.07638 0
M  V30 11909 N 1052.03 -4.60242 5.30209 0
M  V30 11910 H 1056.87 -0.848918 2.85653 0
M  V30 11911 H 1054.41 -0.407753 1.41336 0
M  V30 11912 H 1056.36 -3.30879 2.54116 0
M  V30 11913 H 1054.99 -2.86333 1.4904 0
M  V30 11914 H 1054.05 -1.50539 3.49345 0
M  V30 11915 H 1055.36 -2.17353 4.48953 0
M  V30 11916 H 1054.51 -4.49285 4.0771 0
M  V30 11917 H 1053.25 -3.85899 2.98216 0
M  V30 11918 H 1052.26 -2.54312 4.87448 0
M  V30 11919 H 1053.48 -3.20724 5.98593 0
M  V30 11920 H 1051.43 -4.8314 4.43747 0
M  V30 11921 H 1051.34 -4.43481 6.12259 0
M  V30 11922 H 1052.61 -5.47581 5.54775 0
M  V30 11923 N 1056.84 -1.516 -0.430713 0
M  V30 11924 C 1058.07 -1.68169 -1.20011 0
M  V30 11925 C 1058.48 -0.381406 -1.85316 0
M  V30 11926 O 1057.82 0.6506 -1.71793 0
M  V30 11927 C 1057.88 -2.7454 -2.32095 0
M  V30 11928 C 1057.55 -4.16942 -1.87104 0
M  V30 11929 C 1058.55 -5.01503 -1.37078 0
M  V30 11930 C 1056.23 -4.63075 -1.94594 0
M  V30 11931 C 1058.22 -6.3026 -0.951362 0
M  V30 11932 C 1055.91 -5.91827 -1.52264 0
M  V30 11933 C 1056.91 -6.75247 -1.02618 0
M  V30 11934 O 1056.6 -8.01591 -0.608905 0
M  V30 11935 H 1056.33 -0.567361 -0.367528 0
M  V30 11936 H 1058.88 -1.98819 -0.515759 0
M  V30 11937 H 1057.11 -2.39219 -3.03828 0
M  V30 11938 H 1058.8 -2.79921 -2.93937 0
M  V30 11939 H 1059.57 -4.67063 -1.30681 0
M  V30 11940 H 1055.45 -3.98262 -2.32182 0
M  V30 11941 H 1058.99 -6.95323 -0.563163 0
M  V30 11942 H 1054.89 -6.2578 -1.58333 0
M  V30 11943 H 1055.66 -8.15201 -0.73416 0
M  V30 11944 N 1058.32 0.686584 -1.41858 0
M  V30 11945 C 1059.6 1.44176 -1.32185 0
M  V30 11946 C 1059.98 2.11049 0.046362 0
M  V30 11947 O 1059.32 2.02365 1.06117 0
M  V30 11948 C 1059.53 2.45385 -2.48168 0
M  V30 11949 C 1060.88 3.10375 -2.89746 0
M  V30 11950 O 1061.91 2.55711 -2.47973 0
M  V30 11951 O 1060.77 4.09404 -3.62009 0
M  V30 11952 H 1057.86 0.642513 -0.520678 0
M  V30 11953 H 1060.41 0.716303 -1.53841 0
M  V30 11954 H 1059.18 1.94687 -3.3943 0
M  V30 11955 H 1058.8 3.25428 -2.28435 0
M  V30 11956 N 1059.8 1.27835 0.921735 0
M  V30 11957 C 1061.03 1.17182 1.70153 0
M  V30 11958 C 1061.44 -0.273207 1.87217 0
M  V30 11959 O 1060.78 -1.19729 1.39322 0
M  V30 11960 C 1060.84 1.78969 3.11786 0
M  V30 11961 C 1060.5 3.28179 3.18037 0
M  V30 11962 C 1061.5 4.24729 2.99835 0
M  V30 11963 C 1059.19 3.68995 3.40805 0
M  V30 11964 C 1061.18 5.60071 3.04301 0
M  V30 11965 C 1058.87 5.04465 3.44904 0
M  V30 11966 C 1059.87 5.99813 3.2667 0
M  V30 11967 O 1059.55 7.32813 3.30515 0
M  V30 11968 H 1059.29 0.408079 0.538932 0
M  V30 11969 H 1061.84 1.69326 1.16266 0
M  V30 11970 H 1060.07 1.2131 3.6718 0
M  V30 11971 H 1061.76 1.62946 3.71757 0
M  V30 11972 H 1062.52 3.94533 2.8208 0
M  V30 11973 H 1058.4 2.9525 3.54045 0
M  V30 11974 H 1061.95 6.34471 2.89987 0
M  V30 11975 H 1057.84 5.34315 3.62185 0
M  V30 11976 H 1058.61 7.41338 3.4693 0
M  V30 11977 N 1061.28 -1.12907 1.09954 0
M  V30 11978 C 1062.52 -1.84579 0.840155 0
M  V30 11979 C 1062.85 -1.83605 -0.632692 0
M  V30 11980 O 1062.13 -1.27803 -1.46617 0
M  V30 11981 C 1062.41 -3.32489 1.38286 0
M  V30 11982 C 1062.27 -3.41946 2.92221 0
M  V30 11983 C 1063.58 -4.28091 1.0211 0
M  V30 11984 H 1060.7 -0.670169 0.306663 0
M  V30 11985 H 1063.35 -1.3249 1.36185 0
M  V30 11986 H 1061.5 -3.76978 0.939123 0
M  V30 11987 H 1063.17 -3.06128 3.45085 0
M  V30 11988 H 1061.41 -2.8265 3.29077 0
M  V30 11989 H 1062.08 -4.45983 3.25274 0
M  V30 11990 H 1064.56 -3.91701 1.4039 0
M  V30 11991 H 1063.43 -5.30005 1.42781 0
M  V30 11992 H 1063.69 -4.42044 -0.0700753 0
M  V30 11993 N 1062.75 -0.88754 -1.30232 0
M  V30 11994 C 1064.16 -0.55745 -1.78184 0
M  V30 11995 C 1064.52 0.926474 -1.72948 0
M  V30 11996 O 1063.64 1.72403 -1.3079 0
M  V30 11997 C 1064.24 -1.00512 -3.23547 0
M  V30 11998 C 1062.79 -0.726402 -3.69324 0
M  V30 11999 C 1061.94 -1.18666 -2.50627 0
M  V30 12000 H 1064.89 -1.07151 -1.17066 0
M  V30 12001 H 1064.91 -0.335185 -3.79021 0
M  V30 12002 H 1064.43 -2.08517 -3.27326 0
M  V30 12003 H 1062.53 0.341548 -3.71031 0
M  V30 12004 H 1062.64 -1.31575 -4.60679 0
M  V30 12005 H 1061 -0.605936 -2.47387 0
M  V30 12006 H 1061.79 -2.2745 -2.57141 0
M  V30 12007 N 1064.23 1.43628 -0.648757 0
M  V30 12008 C 1065.18 2.30755 0.0455536 0
M  V30 12009 C 1066.15 1.44495 0.819168 0
M  V30 12010 O 1067.33 1.73372 0.79667 0
M  V30 12011 C 1064.47 3.30017 1.00908 0
M  V30 12012 C 1063.59 4.31376 0.232039 0
M  V30 12013 C 1062.72 5.17723 1.18897 0
M  V30 12014 C 1061.76 6.10778 0.402096 0
M  V30 12015 N 1060.9 6.89763 1.31038 0
M  V30 12016 H 1065.74 2.89581 -0.70332 0
M  V30 12017 H 1063.28 1.42662 -0.3586 0
M  V30 12018 H 1065.23 3.86072 1.58128 0
M  V30 12019 H 1063.86 2.72851 1.72488 0
M  V30 12020 H 1062.92 3.77652 -0.456373 0
M  V30 12021 H 1064.23 4.9735 -0.380023 0
M  V30 12022 H 1063.38 5.78381 1.83194 0
M  V30 12023 H 1062.12 4.51864 1.83494 0
M  V30 12024 H 1061.13 5.49212 -0.254255 0
M  V30 12025 H 1062.35 6.78678 -0.239411 0
M  V30 12026 H 1060.3 6.26557 1.94324 0
M  V30 12027 H 1060.21 7.52243 0.752774 0
M  V30 12028 H 1061.48 7.54931 1.94164 0
M  V30 12029 N 1065.71 0.390394 1.52688 0
M  V30 12030 C 1066.94 -0.191207 2.05713 0
M  V30 12031 C 1067.35 -1.40973 1.26188 0
M  V30 12032 O 1066.69 -1.81202 0.301938 0
M  V30 12033 C 1066.75 -0.624794 3.54029 0
M  V30 12034 C 1066.42 0.480413 4.54468 0
M  V30 12035 C 1067.41 1.33816 5.02384 0
M  V30 12036 C 1065.1 0.647754 4.98106 0
M  V30 12037 C 1067.09 2.34836 5.92563 0
M  V30 12038 C 1064.78 1.66129 5.88085 0
M  V30 12039 C 1065.78 2.51001 6.35206 0
M  V30 12040 O 1065.47 3.50622 7.23408 0
M  V30 12041 H 1065.2 -0.032221 0.675232 0
M  V30 12042 H 1067.75 0.554431 1.97776 0
M  V30 12043 H 1065.98 -1.42243 3.59589 0
M  V30 12044 H 1067.67 -1.13219 3.8979 0
M  V30 12045 H 1068.44 1.22019 4.694 0
M  V30 12046 H 1064.32 -0.00314511 4.61 0
M  V30 12047 H 1067.86 3.01117 6.29265 0
M  V30 12048 H 1063.76 1.77964 6.20483 0
M  V30 12049 H 1064.53 3.46644 7.41472 0
M  V30 12050 N 1067.19 -1.57141 0.120249 0
M  V30 12051 C 1068.43 -1.97124 -0.540521 0
M  V30 12052 C 1068.79 -1.0022 -1.63768 0
M  V30 12053 O 1069.99 -1.29146 -2.35743 0
M  V30 12054 C 1068.26 -3.41371 -1.05833 0
M  V30 12055 S 1069.82 -4.03367 -1.72745 0
M  V30 12056 H 1066.64 -0.688962 -0.175646 0
M  V30 12057 H 1069.24 -1.94416 0.205625 0
M  V30 12058 H 1067.95 -4.09646 -0.248656 0
M  V30 12059 H 1067.48 -3.47732 -1.83972 0
M  V30 12060 H 1069.49 -3.94227 -3.0133 0
M  V30 12061 N 1068.67 0.153526 -1.5685 0
M  V30 12062 C 1069.6 1.2147 -1.94365 0
M  V30 12063 C 1070.61 1.39532 -0.838726 0
M  V30 12064 O 1071.8 1.39219 -1.11715 0
M  V30 12065 C 1068.9 2.5806 -2.19677 0
M  V30 12066 C 1068.07 2.61062 -3.50949 0
M  V30 12067 C 1067.13 3.79144 -3.64878 0
M  V30 12068 O 1066.16 3.64319 -4.37333 0
M  V30 12069 N 1067.36 4.96333 -3.01054 0
M  V30 12070 H 1070.13 0.895889 -2.85996 0
M  V30 12071 H 1067.69 0.343147 -1.58222 0
M  V30 12072 H 1069.68 3.35553 -2.26243 0
M  V30 12073 H 1068.25 2.8226 -1.34343 0
M  V30 12074 H 1067.47 1.69533 -3.55882 0
M  V30 12075 H 1068.76 2.60094 -4.37297 0
M  V30 12076 H 1068.15 5.1128 -2.42093 0
M  V30 12077 H 1066.71 5.71625 -3.13191 0
M  V30 12078 N 1070.14 1.51827 0.422667 0
M  V30 12079 C 1071.39 1.64893 1.16853 0
M  V30 12080 C 1071.71 0.37456 1.91369 0
M  V30 12081 O 1070.98 -0.610128 1.86157 0
M  V30 12082 H 1069.56 0.607744 0.434345 0
M  V30 12083 H 1072.23 1.88816 0.483159 0
M  V30 12084 H 1071.32 2.48361 1.89006 0
M  V30 12085 N 1071.62 -0.679052 1.4222 0
M  V30 12086 C 1072.87 -1.43627 1.42182 0
M  V30 12087 C 1073.19 -1.94964 0.0377095 0
M  V30 12088 O 1072.46 -1.72788 -0.923098 0
M  V30 12089 H 1071.04 -0.532972 0.523402 0
M  V30 12090 H 1073.7 -0.802649 1.77605 0
M  V30 12091 H 1072.8 -2.29137 2.11902 0
M  V30 12092 N 1073.1 -1.28322 -0.914942 0
M  V30 12093 C 1074.35 -1.14785 -1.65853 0
M  V30 12094 C 1074.66 0.303135 -1.93237 0
M  V30 12095 O 1075.87 0.559606 -2.6567 0
M  V30 12096 C 1074.32 -2.00652 -2.98776 0
M  V30 12097 C 1073.93 -3.50483 -2.79044 0
M  V30 12098 C 1075.68 -1.95798 -3.76648 0
M  V30 12099 C 1073.58 -4.28505 -4.076 0
M  V30 12100 H 1072.51 -0.425987 -0.622135 0
M  V30 12101 H 1075.16 -1.52844 -1.01543 0
M  V30 12102 H 1073.55 -1.55447 -3.64214 0
M  V30 12103 H 1074.72 -4.03636 -2.22293 0
M  V30 12104 H 1073.04 -3.5685 -2.14586 0
M  V30 12105 H 1075.63 -2.51359 -4.71935 0
M  V30 12106 H 1075.98 -0.934455 -4.05677 0
M  V30 12107 H 1076.51 -2.38965 -3.18026 0
M  V30 12108 H 1073.25 -5.31433 -3.83744 0
M  V30 12109 H 1072.77 -3.80125 -4.63966 0
M  V30 12110 H 1074.45 -4.3836 -4.75867 0
M  V30 12111 N 1074.58 1.12322 -1.10551 0
M  V30 12112 C 1075.51 2.20176 -0.777486 0
M  V30 12113 C 1076.49 1.68252 0.250069 0
M  V30 12114 O 1077.67 1.93856 0.115574 0
M  V30 12115 C 1074.8 3.46666 -0.209822 0
M  V30 12116 C 1073.76 4.11749 -1.1682 0
M  V30 12117 C 1073.08 5.32703 -0.461684 0
M  V30 12118 C 1074.38 4.57746 -2.51527 0
M  V30 12119 H 1076.08 2.47872 -1.67928 0
M  V30 12120 H 1073.62 1.19136 -0.808863 0
M  V30 12121 H 1075.58 4.21388 0.0318068 0
M  V30 12122 H 1074.3 3.18401 0.727226 0
M  V30 12123 H 1072.96 3.39009 -1.3953 0
M  V30 12124 H 1072.61 5.00706 0.479875 0
M  V30 12125 H 1072.31 5.77197 -1.1008 0
M  V30 12126 H 1073.83 6.10172 -0.228629 0
M  V30 12127 H 1075.25 5.23835 -2.32958 0
M  V30 12128 H 1073.64 5.13021 -3.11335 0
M  V30 12129 H 1074.71 3.71667 -3.11435 0
M  V30 12130 N 1076.06 0.894434 1.2976 0
M  V30 12131 C 1077.28 0.5322 2.00455 0
M  V30 12132 C 1077.71 -0.874427 1.66539 0
M  V30 12133 O 1077.06 -1.58113 0.887129 0
M  V30 12134 C 1077.11 0.725264 3.53231 0
M  V30 12135 O 1076.22 -0.224612 4.11788 0
M  V30 12136 H 1075.56 0.208562 0.630395 0
M  V30 12137 H 1078.09 1.20458 1.65382 0
M  V30 12138 H 1078.1 0.627889 4.0314 0
M  V30 12139 H 1076.77 1.75079 3.77253 0
M  V30 12140 H 1075.35 -0.0801361 3.72814 0
M  V30 12141 N 1077.53 -1.43282 0.656365 0
M  V30 12142 C 1078.48 -2.30776 -0.0333155 0
M  V30 12143 C 1079.45 -1.44928 -0.811493 0
M  V30 12144 O 1080.64 -1.73792 -0.787465 0
M  V30 12145 C 1077.78 -3.30548 -0.991566 0
M  V30 12146 C 1076.89 -4.31493 -0.209159 0
M  V30 12147 C 1076.02 -5.18346 -1.16149 0
M  V30 12148 C 1075.06 -6.10983 -0.369699 0
M  V30 12149 N 1074.2 -6.90449 -1.27378 0
M  V30 12150 H 1079.04 -2.89204 0.718668 0
M  V30 12151 H 1076.58 -1.4247 0.366161 0
M  V30 12152 H 1078.54 -3.86905 -1.56078 0
M  V30 12153 H 1077.17 -2.73762 -1.71039 0
M  V30 12154 H 1076.22 -3.77405 0.476394 0
M  V30 12155 H 1077.53 -4.97142 0.406394 0
M  V30 12156 H 1076.68 -5.79345 -1.80124 0
M  V30 12157 H 1075.42 -4.52831 -1.81095 0
M  V30 12158 H 1074.43 -5.49069 0.283377 0
M  V30 12159 H 1075.65 -6.78541 0.275399 0
M  V30 12160 H 1073.6 -6.27579 -1.90999 0
M  V30 12161 H 1073.52 -7.52631 -0.71287 0
M  V30 12162 H 1074.78 -7.5595 -1.90158 0
M  V30 12163 N 1079.01 -0.398486 -1.52479 0
M  V30 12164 C 1079.96 0.432212 -2.26717 0
M  V30 12165 C 1080.93 1.05007 -1.28696 0
M  V30 12166 O 1082.12 1.07636 -1.57541 0
M  V30 12167 C 1079.26 1.54868 -3.08399 0
M  V30 12168 C 1078.37 0.952779 -4.21362 0
M  V30 12169 C 1077.5 2.04106 -4.90423 0
M  V30 12170 C 1076.54 1.42153 -5.95364 0
M  V30 12171 N 1075.68 2.44951 -6.57984 0
M  V30 12172 H 1080.52 -0.207303 -2.97278 0
M  V30 12173 H 1078.06 -0.114066 -1.46657 0
M  V30 12174 H 1080.01 2.20684 -3.54054 0
M  V30 12175 H 1078.64 2.15837 -2.4003 0
M  V30 12176 H 1077.7 0.183962 -3.79955 0
M  V30 12177 H 1079.01 0.460131 -4.96673 0
M  V30 12178 H 1078.16 2.77672 -5.39429 0
M  V30 12179 H 1076.9 2.56733 -4.14656 0
M  V30 12180 H 1075.91 0.671161 -5.45688 0
M  V30 12181 H 1077.13 0.903093 -6.73068 0
M  V30 12182 H 1075.08 2.9673 -5.85053 0
M  V30 12183 H 1074.99 2.00468 -7.28937 0
M  V30 12184 H 1076.26 3.18119 -7.11632 0
M  V30 12185 N 1080.49 1.57075 -0.12858 0
M  V30 12186 C 1081.44 2.12379 0.829418 0
M  V30 12187 C 1082.43 1.04694 1.2218 0
M  V30 12188 O 1083.62 1.30909 1.1913 0
M  V30 12189 C 1080.75 2.73436 2.07575 0
M  V30 12190 C 1079.83 3.88217 1.7073 0
M  V30 12191 N 1080.22 4.94864 1.04609 0
M  V30 12192 C 1078.52 3.9858 2.00125 0
M  V30 12193 C 1079.22 5.7514 0.871137 0
M  V30 12194 N 1078.2 5.25284 1.39918 0
M  V30 12195 H 1082 2.92209 0.314816 0
M  V30 12196 H 1079.51 1.62233 0.0735788 0
M  V30 12197 H 1081.51 3.11406 2.77185 0
M  V30 12198 H 1080.17 1.95073 2.5957 0
M  V30 12199 H 1081.18 5.13025 0.708961 0
M  V30 12200 H 1077.86 3.3127 2.541 0
M  V30 12201 H 1079.25 6.7098 0.351395 0
M  V30 12202 N 1081.97 -0.145205 1.5693 0
M  V30 12203 C 1082.92 -1.17923 1.98401 0
M  V30 12204 C 1083.89 -1.42591 0.851885 0
M  V30 12205 O 1085.07 -1.54896 1.11409 0
M  V30 12206 C 1082.21 -2.50727 2.37128 0
M  V30 12207 C 1081.32 -2.33218 3.63639 0
M  V30 12208 C 1080.46 -3.5907 3.91462 0
M  V30 12209 C 1079.5 -3.36605 5.11237 0
M  V30 12210 N 1078.64 -4.54592 5.35061 0
M  V30 12211 H 1083.48 -0.818573 2.86537 0
M  V30 12212 H 1081.01 -0.392739 1.4176 0
M  V30 12213 H 1082.97 -3.28165 2.57611 0
M  V30 12214 H 1081.6 -2.84736 1.52069 0
M  V30 12215 H 1080.65 -1.46826 3.50922 0
M  V30 12216 H 1081.96 -2.12579 4.51234 0
M  V30 12217 H 1081.12 -4.44936 4.12453 0
M  V30 12218 H 1079.86 -3.82715 3.02293 0
M  V30 12219 H 1078.86 -2.49127 4.90118 0
M  V30 12220 H 1080.09 -3.14357 6.01961 0
M  V30 12221 H 1078.03 -4.78406 4.48847 0
M  V30 12222 H 1077.95 -4.36962 6.16928 0
M  V30 12223 H 1079.22 -5.41666 5.60551 0
M  V30 12224 N 1083.45 -1.52049 -0.414609 0
M  V30 12225 C 1084.4 -1.75603 -1.52533 0
M  V30 12226 C 1085.39 -0.622965 -1.57529 0
M  V30 12227 O 1086.6 -0.804886 -1.61002 0
M  V30 12228 H 1082.97 -0.555222 -0.507181 0
M  V30 12229 H 1084.94 -2.68666 -1.2985 0
M  V30 12230 C 1083.69 -1.9188 -2.89961 0
M  V30 12231 H 1083.01 -2.78483 -2.86857 0
M  V30 12232 H 1084.45 -2.12363 -3.66985 0
M  V30 12233 C 1082.91 -0.684453 -3.29874 0
M  V30 12234 O 1083.44 0.150256 -4.01419 0
M  V30 12235 N 1081.65 -0.521936 -2.85874 0
M  V30 12236 H 1081.2 -1.20229 -2.27822 0
M  V30 12237 H 1081.15 0.302655 -3.1294 0
M  V30 12238 N 1084.93 0.6715 -1.42579 0
M  V30 12239 C 1085.87 1.80623 -1.46554 0
M  V30 12240 C 1086.87 1.65934 -0.340932 0
M  V30 12241 O 1088.07 1.72502 -0.514098 0
M  V30 12242 H 1084.45 0.595619 -0.459067 0
M  V30 12243 H 1086.42 1.74388 -2.42139 0
M  V30 12244 C 1085.17 3.18794 -1.38801 0
M  V30 12245 H 1084.49 3.30725 -2.24635 0
M  V30 12246 H 1085.93 3.98201 -1.45645 0
M  V30 12247 C 1084.39 3.36742 -0.103219 0
M  V30 12248 O 1084.92 3.92761 0.842715 0
M  V30 12249 N 1083.13 2.90594 -0.0193034 0
M  V30 12250 H 1082.67 2.45192 -0.78986 0
M  V30 12251 H 1082.63 3.0298 0.839686 0
M  V30 12252 N 1086.4 1.28806 0.908124 0
M  V30 12253 C 1087.68 1.06981 1.63751 0
M  V30 12254 C 1088.06 -0.388936 2.07486 0
M  V30 12255 O 1087.41 -1.37611 1.82415 0
M  V30 12256 C 1087.62 2.04962 2.82474 0
M  V30 12257 C 1088.97 2.35418 3.5336 0
M  V30 12258 O 1089.99 2.03091 2.92631 0
M  V30 12259 O 1088.85 2.90617 4.62822 0
M  V30 12260 H 1085.94 0.409267 0.71863 0
M  V30 12261 H 1088.49 1.40146 0.956934 0
M  V30 12262 H 1087.26 3.03254 2.47291 0
M  V30 12263 H 1086.88 1.72476 3.58242 0
M  V30 12264 N 1087.88 -1.11734 1.11145 0
M  V30 12265 C 1089.11 -1.87755 0.881062 0
M  V30 12266 C 1089.53 -1.79461 -0.563496 0
M  V30 12267 O 1088.89 -1.15481 -1.39763 0
M  V30 12268 C 1088.94 -3.34641 1.34342 0
M  V30 12269 O 1088.04 -4.09195 0.513157 0
M  V30 12270 H 1087.38 -0.583111 0.317613 0
M  V30 12271 H 1089.91 -1.41256 1.48013 0
M  V30 12272 H 1089.92 -3.85486 1.33658 0
M  V30 12273 H 1088.6 -3.39994 2.39534 0
M  V30 12274 H 1087.17 -3.68269 0.585833 0
M  V30 12275 N 1089.36 -0.901303 -1.29284 0
M  V30 12276 C 1090.64 -0.44747 -1.90413 0
M  V30 12277 C 1091.02 1.07298 -1.81797 0
M  V30 12278 O 1090.36 1.91555 -1.24574 0
M  V30 12279 C 1090.57 -0.963849 -3.35427 0
M  V30 12280 C 1091.92 -1.00851 -4.12449 0
M  V30 12281 O 1092.95 -0.91163 -3.44337 0
M  V30 12282 O 1091.81 -1.15426 -5.34171 0
M  V30 12283 H 1088.9 -0.13976 -0.815105 0
M  V30 12284 H 1091.45 -0.991274 -1.37738 0
M  V30 12285 H 1090.22 -2.00782 -3.3586 0
M  V30 12286 H 1089.84 -0.400149 -3.95581 0
M  V30 12287 N 1090.84 1.42931 -0.663954 0
M  V30 12288 C 1092.11 1.95284 -0.111174 0
M  V30 12289 C 1092.49 1.60484 1.37142 0
M  V30 12290 O 1091.84 0.895425 2.10225 0
M  V30 12291 C 1092.05 3.47046 -0.368789 0
M  V30 12292 C 1093.4 4.23679 -0.279473 0
M  V30 12293 O 1094.42 3.54918 -0.301937 0
M  V30 12294 O 1093.28 5.46087 -0.21236 0
M  V30 12295 H 1090.38 0.826993 0.00341718 0
M  V30 12296 H 1092.92 1.52816 -0.737935 0
M  V30 12297 H 1091.7 3.65541 -1.39626 0
M  V30 12298 H 1091.32 3.96537 0.290514 0
M  V30 12299 N 1092.32 0.406567 1.52266 0
M  V30 12300 C 1093.59 -0.228477 1.94261 0
M  V30 12301 C 1093.97 -1.62848 1.34328 0
M  V30 12302 O 1093.32 -2.22549 0.518082 0
M  V30 12303 C 1093.53 -0.237401 3.48192 0
M  V30 12304 C 1094.88 -0.457997 4.22123 0
M  V30 12305 O 1095.9 -0.316868 3.54788 0
M  V30 12306 O 1094.76 -0.735946 5.41522 0
M  V30 12307 H 1091.86 -0.146492 0.813922 0
M  V30 12308 H 1094.4 0.462325 1.63281 0
M  V30 12309 H 1093.17 0.742556 3.8419 0
M  V30 12310 H 1092.8 -0.972408 3.85526 0
M  V30 12311 N 1093.79 -1.57004 0.136909 0
M  V30 12312 C 1094.74 -2.12815 -0.818144 0
M  V30 12313 C 1095.73 -1.0534 -1.21623 0
M  V30 12314 O 1096.92 -1.31539 -1.18434 0
M  V30 12315 C 1094.05 -2.74533 -2.06122 0
M  V30 12316 C 1093.14 -3.89117 -1.68669 0
M  V30 12317 N 1093.53 -4.95412 -1.01983 0
M  V30 12318 C 1091.82 -3.99636 -1.98009 0
M  V30 12319 C 1092.53 -5.75594 -0.840624 0
M  V30 12320 N 1091.5 -5.26019 -1.37131 0
M  V30 12321 H 1095.3 -2.92372 -0.299315 0
M  V30 12322 H 1092.82 -1.6227 -0.0649741 0
M  V30 12323 H 1094.81 -3.12872 -2.7553 0
M  V30 12324 H 1093.47 -1.96446 -2.58532 0
M  V30 12325 H 1094.49 -5.13393 -0.681744 0
M  V30 12326 H 1091.16 -3.32613 -2.52339 0
M  V30 12327 H 1092.55 -6.71157 -0.315807 0
M  V30 12328 N 1095.27 0.136881 -1.57004 0
M  V30 12329 C 1096.55 0.87705 -1.74835 0
M  V30 12330 C 1096.93 1.98886 -0.707639 0
M  V30 12331 O 1096.28 2.26879 0.271652 0
M  V30 12332 C 1096.49 1.41021 -3.1924 0
M  V30 12333 C 1097.84 1.86963 -3.81222 0
M  V30 12334 O 1098.86 1.5074 -3.22732 0
M  V30 12335 O 1097.72 2.53798 -4.83993 0
M  V30 12336 H 1094.81 0.415192 -0.715223 0
M  V30 12337 H 1097.36 0.122016 -1.69261 0
M  V30 12338 H 1096.13 0.611677 -3.8649 0
M  V30 12339 H 1095.75 2.22846 -3.2928 0
M  V30 12340 N 1096.75 1.52266 0.40654 0
M  V30 12341 C 1097.7 1.72175 1.49465 0
M  V30 12342 C 1098.68 0.575668 1.50249 0
M  V30 12343 O 1099.88 0.832835 1.56182 0
M  V30 12344 C 1097.01 1.87818 2.87366 0
M  V30 12345 C 1096.09 3.08305 2.91219 0
M  V30 12346 N 1096.48 4.30967 2.64766 0
M  V30 12347 C 1094.78 3.08192 3.22388 0
M  V30 12348 C 1095.48 5.12455 2.75254 0
M  V30 12349 N 1094.46 4.47758 3.08242 0
M  V30 12350 H 1098.26 2.64653 1.27812 0
M  V30 12351 H 1095.77 1.50334 0.61428 0
M  V30 12352 H 1097.77 2.00198 3.65686 0
M  V30 12353 H 1096.43 0.965414 3.10016 0
M  V30 12354 H 1097.44 4.59397 2.39113 0
M  V30 12355 H 1094.12 2.26662 3.50615 0
M  V30 12356 H 1095.51 6.20186 2.58495 0
M  V30 12357 N 1098.23 -0.663929 1.42933 0
M  V30 12358 C 1099.18 -1.77007 1.4371 0
M  V30 12359 C 1100.16 -1.57945 0.306948 0
M  V30 12360 O 1101.35 -1.68239 0.549967 0
M  V30 12361 C 1098.48 -3.15535 1.3525 0
M  V30 12362 C 1097.57 -3.40183 2.53252 0
M  V30 12363 N 1097.96 -3.35357 3.78641 0
M  V30 12364 C 1096.26 -3.70861 2.47746 0
M  V30 12365 C 1096.96 -3.5979 4.57085 0
M  V30 12366 N 1095.94 -3.81084 3.87655 0
M  V30 12367 H 1099.74 -1.71686 2.3854 0
M  V30 12368 H 1097.25 -0.865191 1.37434 0
M  V30 12369 H 1099.25 -3.94816 1.33888 0
M  V30 12370 H 1097.91 -3.22046 0.414308 0
M  V30 12371 H 1098.92 -3.15011 4.11082 0
M  V30 12372 H 1095.6 -3.84552 1.62561 0
M  V30 12373 H 1096.99 -3.61928 5.6609 0
M  V30 12374 N 1099.71 -1.29285 -0.901281 0
M  V30 12375 C 1100.95 -1.17339 -1.65407 0
M  V30 12376 C 1101.29 0.274834 -1.92245 0
M  V30 12377 O 1100.56 1.19865 -1.53176 0
M  V30 12378 C 1100.84 -1.98547 -3.00418 0
M  V30 12379 C 1100.7 -3.51501 -2.80655 0
M  V30 12380 C 1102.02 -1.81062 -4.01129 0
M  V30 12381 H 1099.13 -0.427624 -0.600255 0
M  V30 12382 H 1101.78 -1.58741 -1.0441 0
M  V30 12383 H 1099.93 -1.63366 -3.52482 0
M  V30 12384 H 1101.6 -3.96655 -2.35505 0
M  V30 12385 H 1099.84 -3.76504 -2.15469 0
M  V30 12386 H 1100.51 -4.03593 -3.76585 0
M  V30 12387 H 1102.99 -2.11788 -3.58169 0
M  V30 12388 H 1101.86 -2.40235 -4.93536 0
M  V30 12389 H 1102.13 -0.765388 -4.35424 0
M  V30 12390 N 1101.18 1.11143 -1.11736 0
M  V30 12391 C 1102.43 1.82586 -0.866412 0
M  V30 12392 C 1102.75 1.85227 0.609593 0
M  V30 12393 O 1102.02 1.32505 1.44288 0
M  V30 12394 H 1100.6 0.676149 -0.31754 0
M  V30 12395 H 1103.27 1.34516 -1.41037 0
M  V30 12396 H 1102.36 2.8635 -1.24136 0
M  V30 12397 N 1102.66 0.908147 1.28804 0
M  V30 12398 C 1103.61 0.382315 2.29437 0
M  V30 12399 C 1104.6 -0.523033 1.61123 0
M  V30 12400 O 1105.81 -0.404898 1.75387 0
M  V30 12401 H 1102.19 0.105022 0.74463 0
M  V30 12402 H 1104.16 1.24425 2.71221 0
M  V30 12403 C 1102.91 -0.367475 3.45753 0
M  V30 12404 H 1102.23 0.319957 3.98518 0
M  V30 12405 H 1103.67 -0.700131 4.1818 0
M  V30 12406 C 1102.13 -1.57329 2.97908 0
M  V30 12407 O 1102.66 -2.67248 2.99902 0
M  V30 12408 N 1100.86 -1.41835 2.53636 0
M  V30 12409 H 1100.41 -0.524099 2.52212 0
M  V30 12410 H 1100.37 -2.22645 2.21984 0
M  V30 12411 N 1104.14 -1.42577 0.671525 0
M  V30 12412 C 1105.09 -2.30798 -0.00883676 0
M  V30 12413 C 1106.06 -1.4578 -0.796076 0
M  V30 12414 O 1107.24 -1.74617 -0.768987 0
M  V30 12415 C 1104.38 -3.31581 -0.956452 0
M  V30 12416 C 1103.5 -4.31691 -0.163381 0
M  V30 12417 C 1102.63 -5.19549 -1.10645 0
M  V30 12418 C 1101.67 -6.1134 -0.304876 0
M  V30 12419 N 1100.81 -6.91761 -1.20048 0
M  V30 12420 H 1105.65 -2.88426 0.749301 0
M  V30 12421 H 1103.18 -1.42074 0.381251 0
M  V30 12422 H 1105.14 -3.88539 -1.51966 0
M  V30 12423 H 1103.77 -2.75561 -1.68126 0
M  V30 12424 H 1102.82 -3.76879 0.516396 0
M  V30 12425 H 1104.14 -4.96683 0.459099 0
M  V30 12426 H 1103.29 -5.81223 -1.73969 0
M  V30 12427 H 1102.03 -4.54726 -1.76282 0
M  V30 12428 H 1101.03 -5.48738 0.341597 0
M  V30 12429 H 1102.26 -6.78211 0.347352 0
M  V30 12430 H 1100.2 -6.2957 -1.84331 0
M  V30 12431 H 1100.12 -7.53345 -0.633003 0
M  V30 12432 H 1101.39 -7.57924 -1.82129 0
M  V30 12433 N 1105.62 -0.414636 -1.52048 0
M  V30 12434 C 1106.55 0.443601 -2.24866 0
M  V30 12435 C 1107.56 1.00556 -1.28032 0
M  V30 12436 O 1108.75 0.903566 -1.53941 0
M  V30 12437 C 1105.85 1.63004 -2.97124 0
M  V30 12438 C 1105.03 1.191 -4.20873 0
M  V30 12439 C 1104.08 2.24497 -4.75907 0
M  V30 12440 O 1103.11 1.84861 -5.38345 0
M  V30 12441 N 1104.31 3.56727 -4.57959 0
M  V30 12442 H 1107.08 -0.180393 -2.99157 0
M  V30 12443 H 1104.64 -0.242305 -1.60077 0
M  V30 12444 H 1106.63 2.33089 -3.30835 0
M  V30 12445 H 1105.2 2.15984 -2.25986 0
M  V30 12446 H 1104.42 0.318059 -3.92915 0
M  V30 12447 H 1105.71 0.874699 -5.01225 0
M  V30 12448 H 1105.11 3.91675 -4.08175 0
M  V30 12449 H 1103.66 4.22772 -4.96092 0
M  V30 12450 N 1107.1 1.56929 -0.145233 0
M  V30 12451 C 1108.04 2.17958 0.812237 0
M  V30 12452 C 1109.04 1.13608 1.25657 0
M  V30 12453 O 1110.24 1.31861 1.22526 0
M  V30 12454 H 1106.62 0.697876 0.28013 0
M  V30 12455 H 1108.59 2.97146 0.273297 0
M  V30 12456 C 1107.34 2.81418 2.04203 0
M  V30 12457 H 1106.66 3.61427 1.70911 0
M  V30 12458 H 1108.1 3.27624 2.69144 0
M  V30 12459 C 1106.56 1.79835 2.84888 0
M  V30 12460 O 1107.09 1.26773 3.81171 0
M  V30 12461 N 1105.3 1.49179 2.49387 0
M  V30 12462 H 1104.84 1.9252 1.71154 0
M  V30 12463 H 1104.8 0.81458 3.03664 0
M  V30 12464 N 1108.58 -0.128553 1.57075 0
M  V30 12465 C 1109.52 -1.17719 2.00611 0
M  V30 12466 C 1110.52 -1.43423 0.90146 0
M  V30 12467 O 1111.72 -1.43498 1.08666 0
M  V30 12468 H 1108.1 -0.396683 0.638864 0
M  V30 12469 H 1110.07 -0.783437 2.87932 0
M  V30 12470 C 1108.82 -2.49826 2.41831 0
M  V30 12471 H 1108.14 -2.30883 3.26394 0
M  V30 12472 H 1109.58 -3.21784 2.761 0
M  V30 12473 C 1108.04 -3.11712 1.27816 0
M  V30 12474 O 1108.57 -3.9736 0.588917 0
M  V30 12475 N 1106.78 -2.71442 1.03767 0
M  V30 12476 H 1106.32 -2.01891 1.59994 0
M  V30 12477 H 1106.28 -3.1318 0.276743 0
M  V30 12478 N 1110.05 -1.5248 -0.398459 0
M  V30 12479 C 1111.33 -1.57634 -1.15805 0
M  V30 12480 C 1111.71 -0.363785 -2.07942 0
M  V30 12481 O 1111.06 0.648598 -2.19101 0
M  V30 12482 C 1111.27 -2.91042 -1.92602 0
M  V30 12483 C 1112.62 -3.44433 -2.48296 0
M  V30 12484 O 1113.64 -2.92853 -2.0277 0
M  V30 12485 O 1112.5 -4.34529 -3.31432 0
M  V30 12486 H 1109.59 -0.63539 -0.529347 0
M  V30 12487 H 1112.14 -1.64812 -0.404376 0
M  V30 12488 H 1110.91 -3.7074 -1.25169 0
M  V30 12489 H 1110.53 -2.87206 -2.74952 0
M  V30 12490 N 1111.53 0.65634 -1.43283 0
M  V30 12491 C 1112.76 1.44906 -1.48382 0
M  V30 12492 C 1113.18 1.87823 -0.101993 0
M  V30 12493 O 1112.54 1.57178 0.903597 0
M  V30 12494 C 1112.59 2.66231 -2.43215 0
M  V30 12495 O 1111.69 3.65176 -1.91625 0
M  V30 12496 H 1111.03 0.434601 -0.502014 0
M  V30 12497 H 1113.56 0.803429 -1.88165 0
M  V30 12498 H 1113.57 3.14083 -2.60414 0
M  V30 12499 H 1112.25 2.34336 -3.43598 0
M  V30 12500 H 1110.82 3.24302 -1.84072 0
M  V30 12501 N 1113.01 1.29761 0.894412 0
M  V30 12502 C 1114.24 1.2094 1.67872 0
M  V30 12503 C 1114.65 -0.229192 1.87404 0
M  V30 12504 O 1114.01 -1.15278 1.41482 0
M  V30 12505 C 1114.06 1.92424 3.06032 0
M  V30 12506 O 1113.78 3.30665 2.87388 0
M  V30 12507 C 1115.28 1.90144 4.0045 0
M  V30 12508 H 1112.5 0.418942 0.524145 0
M  V30 12509 H 1115.05 1.71226 1.11813 0
M  V30 12510 H 1113.2 1.4596 3.58851 0
M  V30 12511 H 1113.62 3.66741 3.74969 0
M  V30 12512 H 1115.09 2.44716 4.94791 0
M  V30 12513 H 1115.57 0.878175 4.30331 0
M  V30 12514 H 1116.17 2.36375 3.53563 0
M  V30 12515 N 1114.49 -1.10549 1.12324 0
M  V30 12516 C 1115.44 -2.18944 0.785248 0
M  V30 12517 C 1116.43 -1.67867 -0.227389 0
M  V30 12518 O 1117.64 -1.79796 -0.0857162 0
M  V30 12519 H 1114.01 -0.713976 0.236098 0
M  V30 12520 H 1115.98 -2.44692 1.70788 0
M  V30 12521 C 1114.73 -3.46765 0.25485 0
M  V30 12522 H 1114.05 -3.86428 1.02534 0
M  V30 12523 H 1115.49 -4.23962 0.0566526 0
M  V30 12524 C 1113.95 -3.21185 -1.01695 0
M  V30 12525 O 1114.48 -3.42745 -2.09497 0
M  V30 12526 N 1112.69 -2.7486 -0.943423 0
M  V30 12527 H 1112.24 -2.57515 -0.0660366 0
M  V30 12528 H 1112.19 -2.58122 -1.795 0
M  V30 12529 N 1115.97 -0.914965 -1.28321 0
M  V30 12530 C 1116.92 -0.375436 -2.24888 0
M  V30 12531 C 1117.9 0.51313 -1.52498 0
M  V30 12532 O 1119.09 0.352654 -1.73451 0
M  V30 12533 C 1116.22 0.382266 -3.41165 0
M  V30 12534 C 1115.31 -0.522089 -4.20874 0
M  V30 12535 N 1115.7 -1.63623 -4.78603 0
M  V30 12536 C 1114 -0.322703 -4.44831 0
M  V30 12537 C 1114.7 -2.19766 -5.38589 0
M  V30 12538 N 1113.67 -1.48878 -5.22816 0
M  V30 12539 H 1117.47 -1.2263 -2.67094 0
M  V30 12540 H 1114.99 -0.767759 -1.43106 0
M  V30 12541 H 1116.99 0.785641 -4.0943 0
M  V30 12542 H 1115.65 1.23021 -3.00493 0
M  V30 12543 H 1116.66 -2.01879 -4.76933 0
M  V30 12544 H 1113.33 0.485627 -4.14666 0
M  V30 12545 H 1114.72 -3.13494 -5.94282 0
M  V30 12546 N 1117.44 1.42219 -0.679077 0
M  V30 12547 C 1118.38 2.29172 0.035583 0
M  V30 12548 C 1119.39 1.43909 0.761183 0
M  V30 12549 O 1120.58 1.67584 0.61463 0
M  V30 12550 C 1117.68 3.21426 1.07419 0
M  V30 12551 C 1116.85 4.35364 0.421547 0
M  V30 12552 C 1115.91 5.08307 1.36051 0
M  V30 12553 O 1114.94 5.62678 0.859186 0
M  V30 12554 N 1116.14 5.14222 2.69362 0
M  V30 12555 H 1118.9 2.91147 -0.710865 0
M  V30 12556 H 1116.46 1.53192 -0.523821 0
M  V30 12557 H 1118.46 3.67091 1.70371 0
M  V30 12558 H 1117.03 2.60873 1.72233 0
M  V30 12559 H 1116.25 3.9229 -0.387559 0
M  V30 12560 H 1117.53 5.08789 -0.0329421 0
M  V30 12561 H 1116.93 4.71467 3.12627 0
M  V30 12562 H 1115.49 5.63519 3.27551 0
M  V30 12563 N 1118.92 0.422693 1.51826 0
M  V30 12564 C 1120.2 -0.20786 1.94492 0
M  V30 12565 C 1120.58 -1.61414 1.36047 0
M  V30 12566 O 1119.93 -2.21987 0.541657 0
M  V30 12567 C 1120.14 -0.200457 3.48424 0
M  V30 12568 C 1121.48 -0.413199 4.22585 0
M  V30 12569 O 1122.51 -0.27922 3.55104 0
M  V30 12570 O 1121.37 -0.678469 5.42272 0
M  V30 12571 H 1118.46 -0.137851 0.81543 0
M  V30 12572 H 1121.01 0.479617 1.62781 0
M  V30 12573 H 1119.78 0.783263 3.83381 0
M  V30 12574 H 1119.4 -0.931464 3.86535 0
M  V30 12575 N 1120.4 -1.5685 0.153553 0
M  V30 12576 C 1121.65 -1.95509 -0.495911 0
M  V30 12577 C 1121.96 -1.04129 -1.65579 0
M  V30 12578 O 1123.17 -1.32394 -2.37032 0
M  V30 12579 C 1121.62 -3.47579 -0.933622 0
M  V30 12580 C 1121.23 -4.47555 0.199684 0
M  V30 12581 C 1122.98 -3.95092 -1.55251 0
M  V30 12582 C 1120.88 -5.90843 -0.256663 0
M  V30 12583 H 1119.81 -0.729919 -0.189035 0
M  V30 12584 H 1122.46 -1.81938 0.238947 0
M  V30 12585 H 1120.85 -3.56506 -1.72394 0
M  V30 12586 H 1122.02 -4.50329 0.976744 0
M  V30 12587 H 1120.33 -4.09997 0.727394 0
M  V30 12588 H 1122.93 -4.99588 -1.90567 0
M  V30 12589 H 1123.27 -3.37015 -2.4439 0
M  V30 12590 H 1123.81 -3.89109 -0.826969 0
M  V30 12591 H 1120.55 -6.52753 0.599515 0
M  V30 12592 H 1120.07 -5.91414 -0.999458 0
M  V30 12593 H 1121.75 -6.43131 -0.70649 0
M  V30 12594 N 1121.88 0.120221 -1.57141 0
M  V30 12595 C 1122.79 1.16641 -2.03549 0
M  V30 12596 C 1123.8 1.45407 -0.955656 0
M  V30 12597 O 1124.98 1.56547 -1.26708 0
M  V30 12598 C 1122.04 2.4734 -2.42948 0
M  V30 12599 C 1121.11 2.25982 -3.65008 0
M  V30 12600 C 1120.34 3.50449 -4.02518 0
M  V30 12601 O 1120.56 4.57706 -3.40384 0
M  V30 12602 O 1119.5 3.41524 -4.95626 0
M  V30 12603 H 1123.32 0.802323 -2.9291 0
M  V30 12604 H 1120.91 0.330927 -1.45689 0
M  V30 12605 H 1122.79 3.24348 -2.69029 0
M  V30 12606 H 1121.46 2.83225 -1.56733 0
M  V30 12607 H 1120.37 1.46837 -3.44078 0
M  V30 12608 H 1121.7 1.95002 -4.51924 0
M  V30 12609 N 1123.36 1.52689 0.390367 0
M  V30 12610 C 1124.3 1.7737 1.47677 0
M  V30 12611 C 1125.27 0.616864 1.54221 0
M  V30 12612 O 1126.46 0.856437 1.70499 0
M  V30 12613 C 1123.6 1.94715 2.84921 0
M  V30 12614 C 1122.71 3.22405 2.8754 0
M  V30 12615 C 1121.85 3.30074 4.16202 0
M  V30 12616 C 1120.89 4.51893 4.12867 0
M  V30 12617 N 1120.02 4.56851 5.33134 0
M  V30 12618 H 1124.86 2.70084 1.25932 0
M  V30 12619 H 1122.4 1.33813 0.610943 0
M  V30 12620 H 1124.36 2.02755 3.64618 0
M  V30 12621 H 1122.99 1.05363 3.0512 0
M  V30 12622 H 1122.04 3.23442 2.00223 0
M  V30 12623 H 1123.35 4.12156 2.80943 0
M  V30 12624 H 1122.51 3.3729 5.04302 0
M  V30 12625 H 1121.24 2.38295 4.25519 0
M  V30 12626 H 1120.25 4.44803 3.23156 0
M  V30 12627 H 1121.47 5.44987 4.05174 0
M  V30 12628 H 1119.42 3.67963 5.43083 0
M  V30 12629 H 1119.34 5.40472 5.28607 0
M  V30 12630 H 1120.61 4.6832 6.23134 0
M  V30 12631 N 1124.83 -0.648732 1.43629 0
M  V30 12632 C 1125.78 -1.78269 1.49409 0
M  V30 12633 C 1126.78 -1.6537 0.367288 0
M  V30 12634 O 1127.98 -1.71663 0.541476 0
M  V30 12635 H 1124.36 -0.58824 0.468484 0
M  V30 12636 H 1126.33 -1.70514 2.44883 0
M  V30 12637 C 1125.08 -3.16545 1.43856 0
M  V30 12638 H 1124.4 -3.2711 2.29868 0
M  V30 12639 H 1125.84 -3.95833 1.51961 0
M  V30 12640 C 1124.3 -3.36535 0.156779 0
M  V30 12641 O 1124.83 -3.94052 -0.780124 0
M  V30 12642 N 1123.04 -2.90526 0.0655319 0
M  V30 12643 H 1122.58 -2.43904 0.828768 0
M  V30 12644 H 1122.54 -3.04277 -0.791379 0
M  V30 12645 N 1126.31 -1.30234 -0.887518 0
M  V30 12646 C 1127.24 -1.12212 -1.99853 0
M  V30 12647 C 1128.26 -0.0660929 -1.62666 0
M  V30 12648 O 1129.45 -0.311853 -1.75755 0
M  V30 12649 C 1126.55 -0.688591 -3.31831 0
M  V30 12650 C 1125.72 -1.82581 -3.97471 0
M  V30 12651 C 1124.78 -1.38126 -5.07748 0
M  V30 12652 O 1123.8 -2.08805 -5.29518 0
M  V30 12653 N 1125.01 -0.258868 -5.79923 0
M  V30 12654 H 1127.77 -2.07901 -2.15864 0
M  V30 12655 H 1125.33 -1.22336 -1.06045 0
M  V30 12656 H 1127.32 -0.374252 -4.02966 0
M  V30 12657 H 1125.89 0.176185 -3.12103 0
M  V30 12658 H 1125.11 -2.3084 -3.19541 0
M  V30 12659 H 1126.4 -2.58798 -4.38065 0
M  V30 12660 H 1125.8 0.330131 -5.64736 0
M  V30 12661 H 1124.36 -0.00396813 -6.518 0
M  V30 12662 N 1127.79 1.09952 -1.12909 0
M  V30 12663 C 1129.04 1.82286 -0.888797 0
M  V30 12664 C 1129.37 1.85218 0.58379 0
M  V30 12665 O 1128.64 1.31645 1.43177 0
M  V30 12666 C 1128.93 3.28706 -1.47053 0
M  V30 12667 C 1128.78 3.34078 -3.01184 0
M  V30 12668 C 1130.1 4.25233 -1.13424 0
M  V30 12669 H 1127.22 0.661803 -0.324324 0
M  V30 12670 H 1129.86 1.28833 -1.3965 0
M  V30 12671 H 1128.01 3.74356 -1.03874 0
M  V30 12672 H 1129.68 2.96871 -3.5308 0
M  V30 12673 H 1127.93 2.73825 -3.36455 0
M  V30 12674 H 1128.6 4.37202 -3.36984 0
M  V30 12675 H 1131.07 3.87841 -1.50726 0
M  V30 12676 H 1129.95 5.26033 -1.56783 0
M  V30 12677 H 1130.21 4.42075 -0.0471496 0
M  V30 12678 N 1129.27 0.921757 1.27833 0
M  V30 12679 C 1130.22 0.406628 2.29018 0
M  V30 12680 C 1131.21 -0.505914 1.61669 0
M  V30 12681 O 1132.42 -0.386273 1.75807 0
M  V30 12682 H 1128.79 0.112914 0.743475 0
M  V30 12683 H 1130.76 1.27295 2.69886 0
M  V30 12684 C 1129.51 -0.330783 3.46123 0
M  V30 12685 H 1128.83 0.362207 3.98156 0
M  V30 12686 H 1130.27 -0.655738 4.18899 0
M  V30 12687 C 1128.73 -1.54161 2.9956 0
M  V30 12688 O 1129.26 -2.64052 3.0272 0
M  V30 12689 N 1127.47 -1.39137 2.55126 0
M  V30 12690 H 1127.02 -0.497319 2.52754 0
M  V30 12691 H 1126.97 -2.20278 2.24333 0
M  V30 12692 N 1130.75 -1.41857 0.686609 0
M  V30 12693 C 1131.99 -2.01666 0.214118 0
M  V30 12694 C 1132.33 -1.5422 -1.18025 0
M  V30 12695 O 1131.6 -0.749482 -1.7948 0
M  V30 12696 C 1131.88 -3.59147 0.261841 0
M  V30 12697 C 1131.74 -4.16742 1.69251 0
M  V30 12698 C 1133.06 -4.38427 -0.383378 0
M  V30 12699 H 1130.17 -0.732724 0.0792785 0
M  V30 12700 H 1132.82 -1.68724 0.873633 0
M  V30 12701 H 1130.97 -3.87342 -0.29971 0
M  V30 12702 H 1132.64 -3.99456 2.30722 0
M  V30 12703 H 1130.88 -3.72124 2.2295 0
M  V30 12704 H 1131.55 -5.25894 1.6775 0
M  V30 12705 H 1134.03 -4.15992 0.0947701 0
M  V30 12706 H 1132.9 -5.4797 -0.319401 0
M  V30 12707 H 1133.17 -4.172 -1.46276 0
M  V30 12708 N 1132.22 -0.430739 -1.51599 0
M  V30 12709 C 1133.47 0.139396 -2.01218 0
M  V30 12710 C 1133.79 1.44361 -1.31982 0
M  V30 12711 O 1134.99 2.0963 -1.72533 0
M  V30 12712 C 1133.45 0.298969 -3.58656 0
M  V30 12713 C 1133.06 -0.994424 -4.36824 0
M  V30 12714 C 1134.8 0.82323 -4.16441 0
M  V30 12715 C 1132.71 -0.800855 -5.85952 0
M  V30 12716 H 1131.64 0.0558698 -0.751927 0
M  V30 12717 H 1134.29 -0.559493 -1.74762 0
M  V30 12718 H 1132.67 1.06071 -3.8153 0
M  V30 12719 H 1133.84 -1.76398 -4.257 0
M  V30 12720 H 1132.16 -1.44672 -3.9046 0
M  V30 12721 H 1134.76 0.984434 -5.2556 0
M  V30 12722 H 1135.1 1.80388 -3.75188 0
M  V30 12723 H 1135.63 0.119982 -3.97619 0
M  V30 12724 H 1132.37 -1.75369 -6.31606 0
M  V30 12725 H 1131.89 -0.0709793 -5.99758 0
M  V30 12726 H 1133.57 -0.451459 -6.45423 0
M  V30 12727 N 1133.7 1.56767 -0.161869 0
M  V30 12728 C 1134.65 2.18807 0.789074 0
M  V30 12729 C 1135.64 1.14934 1.24445 0
M  V30 12730 O 1136.85 1.33154 1.2112 0
M  V30 12731 H 1133.23 0.700808 0.272713 0
M  V30 12732 H 1135.2 2.97419 0.241766 0
M  V30 12733 C 1133.95 2.83568 2.01207 0
M  V30 12734 H 1133.27 3.63219 1.67068 0
M  V30 12735 H 1134.71 3.3046 2.65654 0
M  V30 12736 C 1133.17 1.82846 2.82964 0
M  V30 12737 O 1133.7 1.30809 3.79805 0
M  V30 12738 N 1131.9 1.51815 2.47791 0
M  V30 12739 H 1131.45 1.94325 1.69103 0
M  V30 12740 H 1131.41 0.846742 3.02783 0
M  V30 12741 N 1135.18 -0.111886 1.57202 0
M  V30 12742 C 1136.13 -1.15585 2.01849 0
M  V30 12743 C 1137.12 -1.42458 0.916621 0
M  V30 12744 O 1138.33 -1.42337 1.10182 0
M  V30 12745 H 1134.7 -0.389885 0.643035 0
M  V30 12746 H 1136.67 -0.752854 2.88747 0
M  V30 12747 C 1135.42 -2.47247 2.44467 0
M  V30 12748 H 1134.75 -2.27409 3.28824 0
M  V30 12749 H 1136.19 -3.18837 2.79497 0
M  V30 12750 C 1134.65 -3.10339 1.31115 0
M  V30 12751 O 1135.18 -3.96713 0.631029 0
M  V30 12752 N 1133.38 -2.70326 1.0664 0
M  V30 12753 H 1132.93 -2.00182 1.62126 0
M  V30 12754 H 1132.89 -3.12869 0.309944 0
M  V30 12755 N 1136.66 -1.52894 -0.382264 0
M  V30 12756 C 1137.61 -1.78799 -1.48774 0
M  V30 12757 C 1138.6 -0.65624 -1.56173 0
M  V30 12758 O 1139.81 -0.838856 -1.59258 0
M  V30 12759 H 1136.18 -0.565855 -0.49529 0
M  V30 12760 H 1138.15 -2.7136 -1.24122 0
M  V30 12761 C 1136.9 -1.97987 -2.85826 0
M  V30 12762 H 1136.22 -2.84505 -2.80886 0
M  V30 12763 H 1137.66 -2.20099 -3.62398 0
M  V30 12764 C 1136.12 -0.75427 -3.28348 0
M  V30 12765 O 1136.65 0.0650749 -4.01647 0
M  V30 12766 N 1134.86 -0.582457 -2.84703 0
M  V30 12767 H 1134.41 -1.25034 -2.2522 0
M  V30 12768 H 1134.36 0.236208 -3.13511 0
M  V30 12769 N 1138.14 0.641106 -1.43971 0
M  V30 12770 C 1139.09 1.77474 -1.50352 0
M  V30 12771 C 1140.08 1.65173 -0.376052 0
M  V30 12772 O 1141.29 1.71373 -0.550572 0
M  V30 12773 H 1137.66 0.585747 -0.471597 0
M  V30 12774 H 1139.63 1.69213 -2.45784 0
M  V30 12775 C 1138.38 3.15778 -1.45532 0
M  V30 12776 H 1137.7 3.25886 -2.316 0
M  V30 12777 H 1139.14 3.95022 -1.54058 0
M  V30 12778 C 1137.6 3.36447 -0.174624 0
M  V30 12779 O 1138.13 3.9446 0.759215 0
M  V30 12780 N 1136.34 2.90487 -0.0809383 0
M  V30 12781 H 1135.89 2.43461 -0.841691 0
M  V30 12782 H 1135.84 3.04693 0.775231 0
M  V30 12783 N 1139.62 1.30703 0.880598 0
M  V30 12784 C 1140.56 1.17369 2.00817 0
M  V30 12785 C 1141.56 0.0845159 1.69189 0
M  V30 12786 O 1142.76 0.245673 1.78316 0
M  V30 12787 H 1139.14 0.363107 0.658527 0
M  V30 12788 H 1141.11 2.12789 2.09197 0
M  V30 12789 C 1139.86 0.886851 3.362 0
M  V30 12790 H 1139.18 1.71704 3.61051 0
M  V30 12791 H 1140.62 0.83368 4.15723 0
M  V30 12792 C 1139.08 -0.410293 3.34392 0
M  V30 12793 O 1139.61 -1.43044 3.75368 0
M  V30 12794 N 1137.82 -0.423023 2.87505 0
M  V30 12795 H 1137.36 0.407637 2.54354 0
M  V30 12796 H 1137.32 -1.29086 2.86678 0
M  V30 12797 N 1141.09 -1.09351 1.1349 0
M  V30 12798 C 1142.04 -2.18099 0.808426 0
M  V30 12799 C 1143.04 -1.68099 -0.209571 0
M  V30 12800 O 1144.24 -1.79877 -0.0666417 0
M  V30 12801 H 1140.62 -0.711432 0.243658 0
M  V30 12802 H 1142.59 -2.42867 1.73373 0
M  V30 12803 C 1141.34 -3.46475 0.291615 0
M  V30 12804 H 1140.66 -3.85319 1.06627 0
M  V30 12805 H 1142.1 -4.23878 0.101616 0
M  V30 12806 C 1140.56 -3.22245 -0.982827 0
M  V30 12807 O 1141.09 -3.44947 -2.0585 0
M  V30 12808 N 1139.29 -2.75845 -0.914218 0
M  V30 12809 H 1138.84 -2.57571 -0.03872 0
M  V30 12810 H 1138.8 -2.60011 -1.76753 0
M  V30 12811 N 1142.57 -0.928524 -1.27343 0
M  V30 12812 C 1143.52 -0.418768 -2.28799 0
M  V30 12813 C 1144.51 0.497334 -1.61935 0
M  V30 12814 O 1145.72 0.376945 -1.76009 0
M  V30 12815 H 1142.09 -0.116855 -0.742865 0
M  V30 12816 H 1144.07 -1.28725 -2.69207 0
M  V30 12817 C 1142.81 0.312422 -3.46294 0
M  V30 12818 H 1142.14 -0.383317 -3.97958 0
M  V30 12819 H 1143.58 0.633514 -4.19241 0
M  V30 12820 C 1142.04 1.5257 -3.00373 0
M  V30 12821 O 1142.57 2.62443 -3.04116 0
M  V30 12822 N 1140.77 1.37782 -2.5586 0
M  V30 12823 H 1140.32 0.483908 -2.53014 0
M  V30 12824 H 1140.28 2.19085 -2.25498 0
M  V30 12825 N 1144.05 1.41491 -0.694123 0
M  V30 12826 C 1145 2.32594 -0.0164704 0
M  V30 12827 C 1145.99 1.50884 0.770086 0
M  V30 12828 O 1147.2 1.66829 0.675871 0
M  V30 12829 H 1143.57 0.751879 0.0134743 0
M  V30 12830 H 1145.54 2.87423 -0.80191 0
M  V30 12831 C 1144.29 3.35661 0.90703 0
M  V30 12832 H 1143.62 3.98587 0.311205 0
M  V30 12833 H 1145.06 4.0195 1.34952 0
M  V30 12834 C 1143.51 2.69436 2.02253 0
M  V30 12835 O 1144.04 2.54107 3.11115 0
M  V30 12836 N 1142.25 2.28154 1.79984 0
M  V30 12837 H 1141.8 2.40821 0.914492 0
M  V30 12838 H 1141.76 1.84178 2.54805 0
M  V30 12839 N 1145.53 0.438773 1.51369 0
M  V30 12840 C 1146.48 -0.386324 2.29369 0
M  V30 12841 C 1147.47 -1.0196 1.3528 0
M  V30 12842 O 1148.68 -0.9544 1.52615 0
M  V30 12843 H 1145.05 -0.143397 0.738201 0
M  V30 12844 H 1147.02 0.292372 2.96964 0
M  V30 12845 C 1145.77 -1.47426 3.14898 0
M  V30 12846 H 1145.09 -0.996335 3.87186 0
M  V30 12847 H 1146.53 -2.02481 3.72529 0
M  V30 12848 C 1144.99 -2.45831 2.30366 0
M  V30 12849 O 1145.52 -3.50398 1.96428 0
M  V30 12850 N 1143.73 -2.16754 1.93561 0
M  V30 12851 H 1143.28 -1.31748 2.2136 0
M  V30 12852 H 1143.23 -2.82836 1.373 0
M  V30 12853 N 1147.01 -1.56678 0.170181 0
M  V30 12854 C 1147.95 -2.17909 -0.760556 0
M  V30 12855 C 1148.92 -1.11875 -1.22773 0
M  V30 12856 O 1150.11 -1.40021 -1.2961 0
M  V30 12857 C 1147.25 -2.82305 -1.9849 0
M  V30 12858 C 1146.36 -4.02796 -1.5614 0
M  V30 12859 C 1145.5 -4.55121 -2.73932 0
M  V30 12860 C 1144.53 -5.68025 -2.28067 0
M  V30 12861 N 1143.67 -6.14865 -3.38947 0
M  V30 12862 H 1148.51 -2.97098 -0.231629 0
M  V30 12863 H 1146.05 -1.46742 -0.102602 0
M  V30 12864 H 1148.01 -3.17797 -2.70298 0
M  V30 12865 H 1146.64 -2.05721 -2.48755 0
M  V30 12866 H 1145.69 -3.73131 -0.740097 0
M  V30 12867 H 1147 -4.84526 -1.18472 0
M  V30 12868 H 1146.15 -4.92789 -3.53898 0
M  V30 12869 H 1144.89 -3.72445 -3.14858 0
M  V30 12870 H 1143.9 -5.2991 -1.46546 0
M  V30 12871 H 1145.12 -6.52501 -1.88199 0
M  V30 12872 H 1143.07 -5.35119 -3.79452 0
M  V30 12873 H 1142.99 -6.91582 -3.05369 0
M  V30 12874 H 1144.25 -6.57183 -4.19203 0
M  V30 12875 N 1148.48 0.103547 -1.57259 0
M  V30 12876 C 1149.45 1.11039 -2.00507 0
M  V30 12877 C 1150.45 1.33432 -0.897361 0
M  V30 12878 O 1151.64 1.29688 -1.16304 0
M  V30 12879 C 1148.77 2.46144 -2.35851 0
M  V30 12880 H 1149.96 0.738332 -2.90669 0
M  V30 12881 H 1147.51 0.348334 -1.52369 0
M  V30 12882 H 1148.25 2.88242 -1.48617 0
M  V30 12883 H 1148.03 2.31241 -3.16654 0
M  V30 12884 H 1149.52 3.18577 -2.69997 0
M  V30 12885 N 1149.96 1.53094 0.37415 0
M  V30 12886 C 1150.91 1.78927 1.45787 0
M  V30 12887 C 1151.88 0.633187 1.53558 0
M  V30 12888 O 1153.06 0.874472 1.69581 0
M  V30 12889 C 1150.2 1.97726 2.8284 0
M  V30 12890 C 1149.32 3.25436 2.84104 0
M  V30 12891 C 1148.45 3.3447 4.12678 0
M  V30 12892 C 1147.49 4.56246 4.08051 0
M  V30 12893 N 1146.63 4.6248 5.28258 0
M  V30 12894 H 1151.47 2.71404 1.2306 0
M  V30 12895 H 1149 1.34453 0.596716 0
M  V30 12896 H 1150.96 2.06611 3.62447 0
M  V30 12897 H 1149.59 1.08593 3.03986 0
M  V30 12898 H 1148.64 3.25548 1.96781 0
M  V30 12899 H 1149.96 4.15112 2.76556 0
M  V30 12900 H 1149.11 3.4262 5.00696 0
M  V30 12901 H 1147.85 2.42795 4.22968 0
M  V30 12902 H 1146.85 4.48206 3.1842 0
M  V30 12903 H 1148.08 5.49254 3.99371 0
M  V30 12904 H 1146.03 3.73703 5.3915 0
M  V30 12905 H 1145.94 5.46049 5.22845 0
M  V30 12906 H 1147.21 4.74903 6.18132 0
M  V30 12907 N 1151.44 -0.633461 1.44309 0
M  V30 12908 C 1152.66 -1.42527 1.50668 0
M  V30 12909 C 1153.09 -1.87637 0.131861 0
M  V30 12910 O 1152.45 -1.58595 -0.878477 0
M  V30 12911 C 1152.5 -2.62328 2.47419 0
M  V30 12912 O 1151.6 -3.62081 1.97411 0
M  V30 12913 H 1150.94 -0.426559 0.508864 0
M  V30 12914 H 1153.47 -0.773392 1.8942 0
M  V30 12915 H 1153.48 -3.09901 2.65378 0
M  V30 12916 H 1152.16 -2.2884 3.47283 0
M  V30 12917 H 1150.73 -3.21333 1.89208 0
M  V30 12918 N 1152.92 -1.31168 -0.873655 0
M  V30 12919 C 1154.17 -1.20003 -1.62118 0
M  V30 12920 C 1154.48 0.241505 -1.94103 0
M  V30 12921 O 1155.69 0.474801 -2.67316 0
M  V30 12922 C 1154.14 -2.10055 -2.92241 0
M  V30 12923 C 1153.75 -3.59183 -2.67752 0
M  V30 12924 C 1155.49 -2.07681 -3.70228 0
M  V30 12925 C 1153.4 -4.41255 -3.93761 0
M  V30 12926 H 1152.33 -0.445564 -0.608267 0
M  V30 12927 H 1154.98 -1.55997 -0.966287 0
M  V30 12928 H 1153.36 -1.66956 -3.59085 0
M  V30 12929 H 1154.54 -4.10504 -2.09339 0
M  V30 12930 H 1152.85 -3.63496 -2.03125 0
M  V30 12931 H 1155.45 -2.66246 -4.637 0
M  V30 12932 H 1155.79 -1.06304 -4.02499 0
M  V30 12933 H 1156.33 -2.48961 -3.10263 0
M  V30 12934 H 1153.07 -5.43372 -3.66643 0
M  V30 12935 H 1152.59 -3.94694 -4.51638 0
M  V30 12936 H 1154.26 -4.53278 -4.6168 0
M  V30 12937 N 1154.4 1.08748 -1.14068 0
M  V30 12938 C 1155.81 1.62551 -0.918379 0
M  V30 12939 C 1156.16 1.8852 0.543583 0
M  V30 12940 O 1155.28 1.64007 1.41176 0
M  V30 12941 C 1155.88 2.95309 -1.66066 0
M  V30 12942 C 1154.44 3.4591 -1.48403 0
M  V30 12943 C 1153.58 2.20204 -1.6854 0
M  V30 12944 H 1156.54 0.920196 -1.29298 0
M  V30 12945 H 1156.56 3.63587 -1.12181 0
M  V30 12946 H 1156.07 2.76377 -2.72465 0
M  V30 12947 H 1154.17 3.69953 -0.443353 0
M  V30 12948 H 1154.28 4.2289 -2.25169 0
M  V30 12949 H 1152.65 2.29203 -1.11077 0
M  V30 12950 H 1153.43 2.03783 -2.76274 0
M  V30 12951 N 1155.87 0.935264 1.26849 0
M  V30 12952 C 1157.12 0.575467 1.93317 0
M  V30 12953 C 1157.44 -0.88876 1.74242 0
M  V30 12954 O 1158.64 -1.35767 2.35116 0
M  V30 12955 C 1157.1 0.978433 3.46345 0
M  V30 12956 C 1156.71 2.46386 3.74163 0
M  V30 12957 C 1158.45 0.690249 4.18851 0
M  V30 12958 C 1156.36 2.80584 5.20602 0
M  V30 12959 H 1155.29 0.211506 0.723727 0
M  V30 12960 H 1157.94 1.1371 1.44022 0
M  V30 12961 H 1156.32 0.345379 3.94491 0
M  V30 12962 H 1157.49 3.14547 3.36745 0
M  V30 12963 H 1155.81 2.72473 3.14877 0
M  V30 12964 H 1158.41 0.922151 5.26688 0
M  V30 12965 H 1158.75 -0.372805 4.14627 0
M  V30 12966 H 1159.28 1.28275 3.76551 0
M  V30 12967 H 1156.02 3.85828 5.29921 0
M  V30 12968 H 1155.54 2.1708 5.59139 0
M  V30 12969 H 1157.22 2.68732 5.88551 0
M  V30 12970 N 1157.35 -1.41121 0.701616 0
M  V30 12971 C 1158.58 -2.05154 0.244011 0
M  V30 12972 C 1158.99 -1.52922 -1.11407 0
M  V30 12973 O 1158.33 -0.67486 -1.70855 0
M  V30 12974 C 1158.4 -3.59262 0.130773 0
M  V30 12975 C 1158.06 -4.34318 1.42187 0
M  V30 12976 C 1159.06 -4.632 2.36097 0
M  V30 12977 C 1156.74 -4.73481 1.67693 0
M  V30 12978 C 1158.74 -5.30214 3.53768 0
M  V30 12979 C 1156.42 -5.4023 2.85648 0
M  V30 12980 C 1157.42 -5.68524 3.78509 0
M  V30 12981 O 1157.11 -6.33898 4.94397 0
M  V30 12982 H 1156.84 -0.666997 0.109957 0
M  V30 12983 H 1159.39 -1.81771 0.956473 0
M  V30 12984 H 1157.62 -3.81409 -0.637512 0
M  V30 12985 H 1159.31 -4.0486 -0.29044 0
M  V30 12986 H 1160.08 -4.3342 2.17652 0
M  V30 12987 H 1155.96 -4.50835 0.962733 0
M  V30 12988 H 1159.5 -5.52215 4.26267 0
M  V30 12989 H 1155.4 -5.69429 3.04008 0
M  V30 12990 H 1156.17 -6.52394 4.94292 0
M  V30 12991 N 1158.83 -0.446794 -1.51134 0
M  V30 12992 C 1159.76 0.350229 -2.30858 0
M  V30 12993 C 1160.74 1.0125 -1.36684 0
M  V30 12994 O 1161.93 1.01433 -1.65605 0
M  V30 12995 C 1159.06 1.4464 -3.15748 0
M  V30 12996 C 1158.01 0.907102 -4.18277 0
M  V30 12997 C 1157.34 2.09974 -4.91747 0
M  V30 12998 C 1158.64 -0.0649758 -5.2226 0
M  V30 12999 H 1160.33 -0.315105 -2.97737 0
M  V30 13000 H 1157.88 -0.152985 -1.43185 0
M  V30 13001 H 1159.83 2.01127 -3.70305 0
M  V30 13002 H 1158.55 2.14016 -2.46708 0
M  V30 13003 H 1157.21 0.364382 -3.64785 0
M  V30 13004 H 1156.86 2.77991 -4.19202 0
M  V30 13005 H 1156.56 1.74523 -5.61084 0
M  V30 13006 H 1158.08 2.66996 -5.49131 0
M  V30 13007 H 1159.5 0.4099 -5.71833 0
M  V30 13008 H 1157.9 -0.332529 -5.99178 0
M  V30 13009 H 1158.97 -0.998681 -4.74504 0
M  V30 13010 N 1160.31 1.56586 -0.178487 0
M  V30 13011 C 1161.56 1.96709 0.4637 0
M  V30 13012 C 1161.88 1.06586 1.63292 0
M  V30 13013 O 1161.15 0.133683 1.95443 0
M  V30 13014 H 1159.73 0.726381 0.174299 0
M  V30 13015 H 1162.39 1.9314 -0.261345 0
M  V30 13016 H 1161.49 3.01164 0.818934 0
M  V30 13017 N 1161.79 -0.095206 1.57312 0
M  V30 13018 C 1163.2 -0.449411 1.53142 0
M  V30 13019 C 1163.4 -1.80523 0.895187 0
M  V30 13020 O 1162.46 -2.47746 0.487649 0
M  V30 13021 C 1163.77 -0.412002 2.97864 0
M  V30 13022 C 1165.32 -0.493866 3.09079 0
M  V30 13023 C 1165.79 -0.486606 4.55408 0
M  V30 13024 N 1167.29 -0.547363 4.59955 0
M  V30 13025 C 1168.02 -0.563582 5.70624 0
M  V30 13026 N 1167.52 -0.536015 6.90723 0
M  V30 13027 N 1169.31 -0.608385 5.58798 0
M  V30 13028 H 1161.46 0.792869 1.97047 0
M  V30 13029 H 1163.72 0.295106 0.900898 0
M  V30 13030 H 1163.43 0.517064 3.47878 0
M  V30 13031 H 1163.3 -1.23102 3.56547 0
M  V30 13032 H 1165.69 -1.41335 2.59053 0
M  V30 13033 H 1165.77 0.353286 2.53349 0
M  V30 13034 H 1165.42 0.428935 5.06086 0
M  V30 13035 H 1165.35 -1.35097 5.08976 0
M  V30 13036 H 1167.84 -0.573867 3.73517 0
M  V30 13037 H 1168.15 -0.551671 7.70828 0
M  V30 13038 H 1166.49 -0.503064 6.93177 0
M  V30 13039 H 1169.69 -0.627451 4.63876 0
M  V30 13040 H 1169.86 -0.617556 6.45051 0
M  V30 13041 N 1163.26 -1.53291 -0.366026 0
M  V30 13042 C 1164.68 -1.43053 -0.707669 0
M  V30 13043 C 1164.88 -0.56925 -1.93292 0
M  V30 13044 O 1163.94 -0.0515214 -2.52447 0
M  V30 13045 C 1165.25 -2.86239 -0.921292 0
M  V30 13046 C 1166.8 -2.95868 -1.02133 0
M  V30 13047 C 1167.27 -4.40114 -1.26743 0
M  V30 13048 N 1168.76 -4.43541 -1.33514 0
M  V30 13049 C 1169.5 -5.52259 -1.54264 0
M  V30 13050 N 1168.99 -6.71024 -1.72335 0
M  V30 13051 N 1170.79 -5.39836 -1.5663 0
M  V30 13052 H 1162.94 -2.07795 0.43988 0
M  V30 13053 H 1165.2 -0.938376 0.134736 0
M  V30 13054 H 1164.91 -3.51578 -0.0928042 0
M  V30 13055 H 1164.78 -3.29862 -1.82951 0
M  V30 13056 H 1167.17 -2.30683 -1.84036 0
M  V30 13057 H 1167.25 -2.5564 -0.0905097 0
M  V30 13058 H 1166.89 -5.05872 -0.453409 0
M  V30 13059 H 1166.82 -4.77914 -2.21146 0
M  V30 13060 H 1169.31 -3.57949 -1.21165 0
M  V30 13061 H 1169.63 -7.49649 -1.8774 0
M  V30 13062 H 1167.97 -6.7401 -1.69514 0
M  V30 13063 H 1171.16 -4.46017 -1.4208 0
M  V30 13064 H 1171.34 -6.24629 -1.72461 0
M  V30 13065 N 1164.74 0.6258 -1.44643 0
M  V30 13066 C 1165.97 1.41028 -1.50979 0
M  V30 13067 C 1166.38 1.88717 -0.135092 0
M  V30 13068 O 1165.72 1.61778 0.870268 0
M  V30 13069 C 1165.79 2.66094 -2.41732 0
M  V30 13070 C 1165.45 2.40166 -3.88805 0
M  V30 13071 C 1166.45 2.01661 -4.79196 0
M  V30 13072 C 1164.13 2.53641 -4.33557 0
M  V30 13073 C 1166.13 1.76966 -6.12341 0
M  V30 13074 C 1163.81 2.2856 -5.66748 0
M  V30 13075 C 1164.81 1.90282 -6.55959 0
M  V30 13076 O 1164.5 1.65484 -7.86683 0
M  V30 13077 H 1164.23 0.438757 -0.514265 0
M  V30 13078 H 1166.78 0.772034 -1.90339 0
M  V30 13079 H 1165.01 3.32575 -1.97309 0
M  V30 13080 H 1166.7 3.28107 -2.38957 0
M  V30 13081 H 1167.47 1.90802 -4.45892 0
M  V30 13082 H 1163.35 2.82404 -3.64375 0
M  V30 13083 H 1166.89 1.47014 -6.81933 0
M  V30 13084 H 1162.79 2.3903 -5.99612 0
M  V30 13085 H 1163.56 1.79686 -7.98533 0
M  V30 13086 N 1166.22 1.31629 0.866686 0
M  V30 13087 C 1167.45 1.24609 1.65793 0
M  V30 13088 C 1167.87 -0.184944 1.87189 0
M  V30 13089 O 1167.23 -1.1322 1.41601 0
M  V30 13090 C 1167.28 1.9988 3.00134 0
M  V30 13091 O 1166.38 1.33838 3.90079 0
M  V30 13092 H 1165.72 0.430051 0.505917 0
M  V30 13093 H 1168.25 1.73752 1.08035 0
M  V30 13094 H 1168.26 2.09599 3.50046 0
M  V30 13095 H 1166.94 3.03947 2.83882 0
M  V30 13096 H 1165.51 1.3259 3.48532 0
M  V30 13097 N 1167.7 -1.08142 1.14644 0
M  V30 13098 C 1168.93 -1.8405 0.938563 0
M  V30 13099 C 1169.34 -1.82017 -0.516361 0
M  V30 13100 O 1168.68 -1.22418 -1.36966 0
M  V30 13101 C 1168.74 -3.32563 1.36536 0
M  V30 13102 C 1168.41 -3.58327 2.83638 0
M  V30 13103 C 1169.4 -3.52944 3.81741 0
M  V30 13104 C 1167.09 -3.86251 3.21115 0
M  V30 13105 C 1169.08 -3.7512 5.15329 0
M  V30 13106 C 1166.77 -4.0808 4.54878 0
M  V30 13107 C 1167.77 -4.02508 5.51794 0
M  V30 13108 O 1167.46 -4.23761 6.83141 0
M  V30 13109 H 1167.19 -0.587793 0.33388 0
M  V30 13110 H 1169.74 -1.37467 1.52617 0
M  V30 13111 H 1167.97 -3.79917 0.721106 0
M  V30 13112 H 1169.66 -3.89915 1.12787 0
M  V30 13113 H 1170.43 -3.31382 3.54134 0
M  V30 13114 H 1166.31 -3.89707 2.46272 0
M  V30 13115 H 1169.85 -3.70686 5.90963 0
M  V30 13116 H 1165.75 -4.29126 4.82204 0
M  V30 13117 H 1166.51 -4.41152 6.8944 0
M  V30 13118 N 1169.18 -0.941978 -1.26351 0
M  V30 13119 C 1170.13 -0.443011 -2.28342 0
M  V30 13120 C 1171.12 0.48013 -1.62453 0
M  V30 13121 O 1172.33 0.358255 -1.76399 0
M  V30 13122 H 1168.7 -0.124728 -0.741584 0
M  V30 13123 H 1170.67 -1.31573 -2.67827 0
M  V30 13124 C 1169.42 0.275675 -3.46605 0
M  V30 13125 H 1168.74 -0.425504 -3.97529 0
M  V30 13126 H 1170.18 0.589012 -4.19889 0
M  V30 13127 C 1168.64 1.49376 -3.01974 0
M  V30 13128 O 1169.17 2.59203 -3.06883 0
M  V30 13129 N 1167.38 1.35061 -2.57307 0
M  V30 13130 H 1166.93 0.457045 -2.53513 0
M  V30 13131 H 1166.88 2.16681 -2.27809 0
M  V30 13132 N 1170.66 1.40747 -0.709091 0
M  V30 13133 C 1171.88 2.05319 -0.255258 0
M  V30 13134 C 1172.3 1.53406 1.10054 0
M  V30 13135 O 1171.66 0.687905 1.69039 0
M  V30 13136 C 1171.71 3.60835 -0.219251 0
M  V30 13137 O 1171.43 4.1083 -1.52151 0
M  V30 13138 C 1172.93 4.42572 0.253927 0
M  V30 13139 H 1170.15 0.660904 -0.115959 0
M  V30 13140 H 1172.69 1.80274 -0.965474 0
M  V30 13141 H 1170.85 3.84872 0.441882 0
M  V30 13142 H 1171.26 5.04979 -1.41764 0
M  V30 13143 H 1172.74 5.51529 0.22798 0
M  V30 13144 H 1173.21 4.19673 1.29504 0
M  V30 13145 H 1173.82 4.23629 -0.376694 0
M  V30 13146 N 1172.13 0.454803 1.50895 0
M  V30 13147 C 1173.38 -0.10577 2.02224 0
M  V30 13148 C 1173.71 -1.41176 1.33789 0
M  V30 13149 O 1172.96 -1.90522 0.447181 0
M  V30 13150 C 1173.26 -0.354159 3.55641 0
M  V30 13151 C 1172.93 0.868136 4.42464 0
M  V30 13152 C 1171.59 1.2033 4.65912 0
M  V30 13153 C 1173.94 1.68272 4.93289 0
M  V30 13154 C 1171.27 2.3534 5.37431 0
M  V30 13155 C 1173.62 2.82396 5.6607 0
M  V30 13156 C 1172.29 3.16346 5.87777 0
M  V30 13157 H 1171.56 -0.0387041 0.739989 0
M  V30 13158 H 1174.2 0.605564 1.81673 0
M  V30 13159 H 1172.51 -1.14757 3.74617 0
M  V30 13160 H 1174.21 -0.8016 3.92906 0
M  V30 13161 H 1170.8 0.596995 4.24422 0
M  V30 13162 H 1174.98 1.43698 4.75042 0
M  V30 13163 H 1170.24 2.61936 5.52449 0
M  V30 13164 H 1174.41 3.45873 6.04438 0
M  V30 13165 H 1172.04 4.05574 6.42973 0
M  V30 13166 N 1173.61 -1.56489 0.186789 0
M  V30 13167 C 1174.84 -2.02163 -0.463126 0
M  V30 13168 C 1175.26 -1.06612 -1.54969 0
M  V30 13169 O 1174.62 -0.0482139 -1.81236 0
M  V30 13170 C 1174.67 -3.46337 -1.00416 0
M  V30 13171 O 1173.77 -3.53889 -2.11747 0
M  V30 13172 H 1173.11 -0.65496 -0.109194 0
M  V30 13173 H 1175.64 -2.02459 0.295227 0
M  V30 13174 H 1175.65 -3.85959 -1.32287 0
M  V30 13175 H 1174.33 -4.15376 -0.208693 0
M  V30 13176 H 1172.9 -3.26136 -1.80803 0
M  V30 13177 N 1175.09 0.086862 -1.5736 0
M  V30 13178 C 1176.32 0.802167 -1.90717 0
M  V30 13179 C 1176.73 1.71875 -0.781304 0
M  V30 13180 O 1176.09 1.80831 0.246255 0
M  V30 13181 C 1176.14 1.60858 -3.23739 0
M  V30 13182 O 1175.86 0.728851 -4.31995 0
M  V30 13183 C 1177.36 2.42621 -3.71012 0
M  V30 13184 H 1174.58 0.228914 -0.630745 0
M  V30 13185 H 1177.13 0.061634 -2.04407 0
M  V30 13186 H 1175.28 2.30153 -3.11622 0
M  V30 13187 H 1175.7 1.2882 -5.08435 0
M  V30 13188 H 1177.17 2.94683 -4.66761 0
M  V30 13189 H 1177.65 3.21462 -2.99264 0
M  V30 13190 H 1178.25 1.78509 -3.86024 0
M  V30 13191 N 1176.57 1.53483 0.357892 0
M  V30 13192 C 1177.52 1.81143 1.45911 0
M  V30 13193 C 1178.51 0.681002 1.55109 0
M  V30 13194 O 1179.72 0.864086 1.57904 0
M  V30 13195 H 1176.09 0.573663 0.486225 0
M  V30 13196 H 1178.06 2.733 1.19789 0
M  V30 13197 C 1176.81 2.02509 2.8264 0
M  V30 13198 H 1176.13 2.88938 2.76324 0
M  V30 13199 H 1177.57 2.25837 3.58851 0
M  V30 13200 C 1176.03 0.806412 3.27106 0
M  V30 13201 O 1176.56 -0.00116809 4.017 0
M  V30 13202 N 1174.77 0.627677 2.8374 0
M  V30 13203 H 1174.32 1.28601 2.23203 0
M  V30 13204 H 1174.27 -0.186301 3.13848 0
M  V30 13205 N 1178.05 -0.61812 1.44973 0
M  V30 13206 C 1179.27 -1.40921 1.52171 0
M  V30 13207 C 1179.7 -1.87487 0.151755 0
M  V30 13208 O 1179.05 -1.59518 -0.861606 0
M  V30 13209 C 1179.1 -2.59689 2.50188 0
M  V30 13210 O 1178.21 -3.59967 2.0124 0
M  V30 13211 H 1177.55 -0.421138 0.51336 0
M  V30 13212 H 1180.08 -0.753258 1.90229 0
M  V30 13213 H 1180.09 -3.07069 2.6865 0
M  V30 13214 H 1178.76 -2.25144 3.4969 0
M  V30 13215 H 1177.34 -3.19308 1.92605 0
M  V30 13216 N 1179.52 -1.32087 -0.859693 0
M  V30 13217 C 1180.47 -1.20549 -1.98924 0
M  V30 13218 C 1181.47 -0.111422 -1.69033 0
M  V30 13219 O 1182.67 -0.27401 -1.77902 0
M  V30 13220 H 1179.05 -0.373538 -0.652667 0
M  V30 13221 H 1181.02 -2.16091 -2.05785 0
M  V30 13222 C 1179.77 -0.940226 -3.34746 0
M  V30 13223 H 1179.09 -1.77427 -3.58273 0
M  V30 13224 H 1180.53 -0.899712 -4.14344 0
M  V30 13225 C 1178.99 0.357042 -3.35003 0
M  V30 13226 O 1179.52 1.37054 -3.77596 0
M  V30 13227 N 1177.72 0.37723 -2.88141 0
M  V30 13228 H 1177.27 -0.448051 -2.53674 0
M  V30 13229 H 1177.23 1.24509 -2.88695 0
M  V30 13230 N 1181 1.07532 -1.15215 0
M  V30 13231 C 1181.91 2.18222 -0.861192 0
M  V30 13232 C 1182.93 1.73246 0.161798 0
M  V30 13233 O 1184.1 2.01397 -0.0118386 0
M  V30 13234 C 1181.17 3.44902 -0.352601 0
M  V30 13235 C 1180.23 4.04455 -1.43926 0
M  V30 13236 C 1179.46 5.25089 -0.954841 0
M  V30 13237 O 1179.69 5.70048 0.200294 0
M  V30 13238 O 1178.62 5.76269 -1.73774 0
M  V30 13239 H 1182.45 2.45599 -1.78648 0
M  V30 13240 H 1180.03 1.16835 -0.93112 0
M  V30 13241 H 1181.91 4.21333 -0.0753347 0
M  V30 13242 H 1180.59 3.19082 0.544841 0
M  V30 13243 H 1179.49 3.29573 -1.7701 0
M  V30 13244 H 1180.83 4.34544 -2.31155 0
M  V30 13245 N 1182.48 0.948665 1.2585 0
M  V30 13246 C 1183.71 0.616334 1.97193 0
M  V30 13247 C 1184.12 -0.814538 1.70769 0
M  V30 13248 O 1183.46 -1.55569 0.976926 0
M  V30 13249 C 1183.52 0.787814 3.50762 0
M  V30 13250 C 1183.19 2.19472 4.0085 0
M  V30 13251 C 1184.18 3.17087 4.12009 0
M  V30 13252 C 1181.87 2.51731 4.34669 0
M  V30 13253 C 1183.86 4.45058 4.56292 0
M  V30 13254 C 1181.55 3.79932 4.78639 0
M  V30 13255 C 1182.55 4.76408 4.89412 0
M  V30 13256 O 1182.24 6.02325 5.32409 0
M  V30 13257 H 1181.97 0.230487 0.635493 0
M  V30 13258 H 1184.52 1.27379 1.61133 0
M  V30 13259 H 1182.75 0.0732154 3.86631 0
M  V30 13260 H 1184.44 0.457427 4.03314 0
M  V30 13261 H 1185.21 2.9349 3.8612 0
M  V30 13262 H 1181.09 1.77369 4.25513 0
M  V30 13263 H 1184.63 5.20363 4.64616 0
M  V30 13264 H 1180.53 4.03338 5.03973 0
M  V30 13265 H 1181.3 6.05615 5.50611 0
M  V30 13266 N 1183.96 -1.40369 0.716545 0
M  V30 13267 C 1185.21 -2.00869 0.256466 0
M  V30 13268 C 1185.53 -1.56816 -1.15061 0
M  V30 13269 O 1184.79 -0.779696 -1.79497 0
M  V30 13270 C 1185.09 -3.56257 0.285583 0
M  V30 13271 C 1184.75 -4.19897 1.64309 0
M  V30 13272 C 1183.42 -4.36994 2.01469 0
M  V30 13273 C 1185.77 -4.55385 2.53524 0
M  V30 13274 C 1183.1 -4.86862 3.27387 0
M  V30 13275 C 1185.45 -5.06653 3.78795 0
M  V30 13276 C 1184.11 -5.21959 4.16071 0
M  V30 13277 H 1183.38 -0.735033 0.0938475 0
M  V30 13278 H 1186.03 -1.67966 0.919765 0
M  V30 13279 H 1184.33 -3.89075 -0.461287 0
M  V30 13280 H 1186.03 -4.00903 -0.0882496 0
M  V30 13281 H 1182.62 -4.06978 1.34413 0
M  V30 13282 H 1186.8 -4.41811 2.2609 0
M  V30 13283 H 1182.06 -4.96897 3.56235 0
M  V30 13284 H 1186.23 -5.33089 4.48095 0
M  V30 13285 H 1183.86 -5.60362 5.1371 0
M  V30 13286 N 1185.44 -0.462799 -1.50652 0
M  V30 13287 C 1186.67 0.0928413 -2.06391 0
M  V30 13288 C 1187.07 1.34791 -1.3277 0
M  V30 13289 O 1186.42 1.79555 -0.388048 0
M  V30 13290 C 1186.48 0.45517 -3.56607 0
M  V30 13291 C 1186.14 -0.696698 -4.51658 0
M  V30 13292 C 1187.14 -1.57633 -4.95427 0
M  V30 13293 C 1184.83 -0.884669 -4.94448 0
M  V30 13294 C 1186.82 -2.62841 -5.80684 0
M  V30 13295 C 1184.51 -1.93998 -5.79489 0
M  V30 13296 C 1185.5 -2.81022 -6.22508 0
M  V30 13297 O 1185.19 -3.84738 -7.05856 0
M  V30 13298 H 1184.92 -3.18898e-05 -0.676 0
M  V30 13299 H 1187.48 -0.648161 -1.94905 0
M  V30 13300 H 1185.71 1.24924 -3.65966 0
M  V30 13301 H 1187.4 0.944923 -3.94748 0
M  V30 13302 H 1188.16 -1.44276 -4.63044 0
M  V30 13303 H 1184.04 -0.216807 -4.6049 0
M  V30 13304 H 1187.59 -3.30797 -6.14182 0
M  V30 13305 H 1183.48 -2.07366 -6.11285 0
M  V30 13306 H 1184.25 -3.81626 -7.24088 0
M  V30 13307 N 1186.91 1.56388 -0.195085 0
M  V30 13308 C 1188.19 1.89329 0.491303 0
M  V30 13309 C 1188.57 1.10861 1.79647 0
M  V30 13310 O 1187.92 0.209696 2.27536 0
M  V30 13311 C 1188.13 3.417 0.710096 0
M  V30 13312 C 1189.48 4.11931 1.02947 0
M  V30 13313 O 1190.5 3.4715 0.797817 0
M  V30 13314 O 1189.36 5.26423 1.46767 0
M  V30 13315 H 1186.45 0.786335 0.256137 0
M  V30 13316 H 1189 1.68061 -0.235298 0
M  V30 13317 H 1187.77 3.90727 -0.211604 0
M  V30 13318 H 1187.4 3.6866 1.48916 0
M  V30 13319 N 1188.39 -0.0785156 1.57404 0
M  V30 13320 C 1189.62 -0.790893 1.90862 0
M  V30 13321 C 1190.03 -1.7198 0.788644 0
M  V30 13322 O 1189.37 -1.82027 -0.247322 0
M  V30 13323 C 1189.44 -1.64362 3.19727 0
M  V30 13324 C 1189.1 -0.884796 4.48353 0
M  V30 13325 C 1190.1 -0.207074 5.19487 0
M  V30 13326 C 1187.78 -0.853962 4.94988 0
M  V30 13327 C 1189.78 0.491329 6.35504 0
M  V30 13328 C 1187.46 -0.151783 6.10911 0
M  V30 13329 C 1188.46 0.519669 6.8102 0
M  V30 13330 O 1188.15 1.21055 7.94733 0
M  V30 13331 H 1187.88 -0.230427 0.635515 0
M  V30 13332 H 1190.43 -0.0551231 2.05326 0
M  V30 13333 H 1188.66 -2.42203 3.01454 0
M  V30 13334 H 1190.35 -2.23406 3.38887 0
M  V30 13335 H 1191.12 -0.222247 4.84491 0
M  V30 13336 H 1187 -1.36605 4.40296 0
M  V30 13337 H 1190.54 1.01598 6.90162 0
M  V30 13338 H 1186.44 -0.134514 6.4536 0
M  V30 13339 H 1187.21 1.11914 8.10813 0
M  V30 13340 N 1189.87 -1.5367 -0.349747 0
M  V30 13341 C 1190.8 -1.84208 -1.43492 0
M  V30 13342 C 1191.78 -0.696725 -1.55177 0
M  V30 13343 O 1192.97 -0.948061 -1.69486 0
M  V30 13344 C 1190.1 -2.04613 -2.80625 0
M  V30 13345 C 1189.05 -3.20419 -2.83753 0
M  V30 13346 C 1188.38 -3.26147 -4.23713 0
M  V30 13347 C 1189.68 -4.58666 -2.49846 0
M  V30 13348 H 1191.37 -2.75087 -1.18185 0
M  V30 13349 H 1188.92 -1.32363 -0.567101 0
M  V30 13350 H 1190.87 -2.2456 -3.56582 0
M  V30 13351 H 1189.59 -1.10459 -3.07354 0
M  V30 13352 H 1188.25 -3.00318 -2.10249 0
M  V30 13353 H 1187.9 -2.29599 -4.47541 0
M  V30 13354 H 1187.6 -4.03963 -4.26717 0
M  V30 13355 H 1189.12 -3.48296 -5.0152 0
M  V30 13356 H 1190.54 -4.78668 -3.15516 0
M  V30 13357 H 1188.94 -5.3884 -2.64144 0
M  V30 13358 H 1190.01 -4.62697 -1.4505 0
M  V30 13359 N 1191.35 0.610423 -1.45298 0
M  V30 13360 C 1192.58 1.39621 -1.52688 0
M  V30 13361 C 1192.99 1.88133 -0.158535 0
M  V30 13362 O 1192.35 1.62051 0.839396 0
M  V30 13363 C 1192.4 2.60261 -2.50891 0
M  V30 13364 O 1192.12 2.13766 -3.82408 0
M  V30 13365 C 1193.62 3.53154 -2.6795 0
M  V30 13366 H 1190.84 0.427493 -0.517195 0
M  V30 13367 H 1193.39 0.744701 -1.90459 0
M  V30 13368 H 1191.54 3.2146 -2.162 0
M  V30 13369 H 1191.95 2.92128 -4.35616 0
M  V30 13370 H 1193.43 4.34355 -3.40647 0
M  V30 13371 H 1193.91 4.03311 -1.73888 0
M  V30 13372 H 1194.51 2.9781 -3.03627 0
M  V30 13373 N 1192.83 1.32541 0.852676 0
M  V30 13374 C 1194.07 1.22971 1.60383 0
M  V30 13375 C 1194.4 -0.208009 1.93887 0
M  V30 13376 O 1193.67 -1.13326 1.59794 0
M  V30 13377 H 1192.25 0.452149 0.594618 0
M  V30 13378 H 1194.91 1.66089 1.01983 0
M  V30 13379 H 1194 1.81373 2.53989 0
M  V30 13380 N 1194.3 -1.0692 1.15784 0
M  V30 13381 C 1195.55 -1.79245 0.933581 0
M  V30 13382 C 1195.87 -1.87362 -0.540427 0
M  V30 13383 O 1195.14 -1.37769 -1.39271 0
M  V30 13384 H 1193.72 -0.663898 0.342416 0
M  V30 13385 H 1196.39 -1.29189 1.45932 0
M  V30 13386 H 1195.48 -2.81546 1.34679 0
M  V30 13387 N 1195.78 -0.955326 -1.25345 0
M  V30 13388 C 1196.75 -0.480564 -2.24105 0
M  V30 13389 C 1197.75 0.416123 -1.55322 0
M  V30 13390 O 1198.94 0.213315 -1.72889 0
M  V30 13391 C 1196.07 0.305589 -3.39528 0
M  V30 13392 H 1197.26 -1.35349 -2.6762 0
M  V30 13393 H 1194.81 -0.738673 -1.37744 0
M  V30 13394 H 1195.55 1.19615 -3.01434 0
M  V30 13395 H 1195.33 -0.337719 -3.90643 0
M  V30 13396 H 1196.82 0.627201 -4.12863 0
M  V30 13397 N 1197.26 1.39987 -0.723979 0
M  V30 13398 C 1198.51 2.00334 -0.266587 0
M  V30 13399 C 1198.83 1.57714 1.14679 0
M  V30 13400 O 1198.1 0.82037 1.77895 0
M  V30 13401 H 1196.68 0.740861 -0.095573 0
M  V30 13402 H 1199.34 1.712 -0.931481 0
M  V30 13403 H 1198.44 3.10594 -0.306282 0
M  V30 13404 N 1198.74 0.470782 1.50404 0
M  V30 13405 C 1199.99 -0.0859981 2.01517 0
M  V30 13406 C 1200.3 -1.40811 1.35763 0
M  V30 13407 O 1201.51 -2.04982 1.7803 0
M  V30 13408 C 1199.96 -0.203773 3.59323 0
M  V30 13409 C 1199.57 1.10989 4.34034 0
M  V30 13410 C 1201.32 -0.712528 4.18477 0
M  V30 13411 C 1199.22 0.955928 5.83623 0
M  V30 13412 H 1198.15 -0.0359142 0.753144 0
M  V30 13413 H 1200.8 0.605631 1.73218 0
M  V30 13414 H 1199.19 -0.959177 3.84208 0
M  V30 13415 H 1200.36 1.87623 4.20873 0
M  V30 13416 H 1198.67 1.54973 3.86487 0
M  V30 13417 H 1201.27 -0.844745 5.27985 0
M  V30 13418 H 1201.61 -1.70377 3.79838 0
M  V30 13419 H 1202.15 -0.0145179 3.97797 0
M  V30 13420 H 1198.89 1.92054 6.26734 0
M  V30 13421 H 1198.41 0.22997 5.99359 0
M  V30 13422 H 1200.09 0.622423 6.43999 0
M  V30 13423 N 1200.22 -1.56282 0.203376 0
M  V30 13424 C 1201.15 -2.2247 -0.709183 0
M  V30 13425 C 1202.13 -1.19046 -1.21499 0
M  V30 13426 O 1203.31 -1.47578 -1.26231 0
M  V30 13427 C 1200.44 -2.8905 -1.92529 0
M  V30 13428 C 1199.4 -3.98789 -1.55407 0
M  V30 13429 C 1198.72 -4.52574 -2.84747 0
M  V30 13430 C 1200.02 -5.16774 -0.75775 0
M  V30 13431 H 1201.72 -2.98986 -0.157392 0
M  V30 13432 H 1199.26 -1.43808 -0.0742613 0
M  V30 13433 H 1201.22 -3.34038 -2.56898 0
M  V30 13434 H 1199.94 -2.09952 -2.50175 0
M  V30 13435 H 1198.6 -3.54504 -0.933928 0
M  V30 13436 H 1198.25 -3.70229 -3.40499 0
M  V30 13437 H 1197.95 -5.26627 -2.6065 0
M  V30 13438 H 1199.47 -5.00269 -3.5009 0
M  V30 13439 H 1200.89 -5.58256 -1.30472 0
M  V30 13440 H 1199.28 -5.96945 -0.614583 0
M  V30 13441 H 1200.35 -4.84308 0.239476 0
M  V30 13442 N 1201.7 0.070167 -1.57444 0
M  V30 13443 C 1202.94 0.767842 -1.86513 0
M  V30 13444 C 1203.26 1.78659 -0.796257 0
M  V30 13445 O 1204.46 2.53395 -0.974845 0
M  V30 13446 C 1202.92 1.41654 -3.30851 0
M  V30 13447 C 1202.53 0.436273 -4.45871 0
M  V30 13448 C 1204.27 2.09649 -3.69117 0
M  V30 13449 C 1202.18 1.09098 -5.8125 0
M  V30 13450 H 1201.11 0.290519 -0.695784 0
M  V30 13451 H 1203.76 0.0211697 -1.83488 0
M  V30 13452 H 1202.14 2.21153 -3.28493 0
M  V30 13453 H 1203.32 -0.329022 -4.59624 0
M  V30 13454 H 1201.63 -0.139314 -4.16167 0
M  V30 13455 H 1204.23 2.59411 -4.67558 0
M  V30 13456 H 1204.57 2.89663 -2.99 0
M  V30 13457 H 1205.1 1.36979 -3.73472 0
M  V30 13458 H 1201.84 0.331128 -6.54663 0
M  V30 13459 H 1201.36 1.8271 -5.71294 0
M  V30 13460 H 1203.04 1.61034 -6.2664 0
M  V30 13461 N 1203.17 1.53854 0.341593 0
M  V30 13462 C 1204.12 1.8268 1.43982 0
M  V30 13463 C 1205.12 0.697415 1.54378 0
M  V30 13464 O 1206.32 0.880785 1.56978 0
M  V30 13465 H 1202.7 0.578788 0.480113 0
M  V30 13466 H 1204.67 2.74556 1.16884 0
M  V30 13467 C 1203.42 2.05496 2.80476 0
M  V30 13468 H 1202.74 2.91852 2.73244 0
M  V30 13469 H 1204.18 2.2963 3.56435 0
M  V30 13470 C 1202.64 0.841061 3.26233 0
M  V30 13471 O 1203.17 0.0414376 4.01679 0
M  V30 13472 N 1201.37 0.657736 2.83059 0
M  V30 13473 H 1200.92 1.30962 2.21826 0
M  V30 13474 H 1200.88 -0.153003 3.14027 0
M  V30 13475 N 1204.65 -0.602709 1.4562 0
M  V30 13476 C 1205.93 -1.36224 1.40366 0
M  V30 13477 C 1206.31 -2.1096 0.0767645 0
M  V30 13478 O 1205.66 -2.08207 -0.941378 0
M  V30 13479 C 1205.87 -2.30499 2.62052 0
M  V30 13480 C 1207.21 -2.92954 3.07348 0
M  V30 13481 O 1208.24 -2.40818 2.62459 0
M  V30 13482 O 1207.1 -3.87601 3.85263 0
M  V30 13483 H 1204.19 -0.611064 0.557253 0
M  V30 13484 H 1206.74 -0.625391 1.57756 0
M  V30 13485 H 1205.51 -1.74566 3.50203 0
M  V30 13486 H 1205.13 -3.11556 2.4702 0
M  V30 13487 N 1206.13 -1.32992 -0.845635 0
M  V30 13488 C 1207.04 -1.24701 -1.98713 0
M  V30 13489 C 1208.06 -0.158864 -1.73273 0
M  V30 13490 O 1209.23 -0.381209 -1.97759 0
M  V30 13491 C 1206.3 -0.979524 -3.32575 0
M  V30 13492 C 1205.36 -2.15701 -3.71176 0
M  V30 13493 C 1204.59 -1.90219 -4.98651 0
M  V30 13494 O 1204.81 -0.849171 -5.64044 0
M  V30 13495 O 1203.75 -2.76571 -5.34595 0
M  V30 13496 H 1207.57 -2.20683 -2.08645 0
M  V30 13497 H 1205.16 -1.12971 -0.97765 0
M  V30 13498 H 1207.04 -0.847219 -4.12796 0
M  V30 13499 H 1205.72 -0.0499398 -3.23661 0
M  V30 13500 H 1204.62 -2.34483 -2.91494 0
M  V30 13501 H 1205.96 -3.0697 -3.84747 0
M  V30 13502 N 1207.61 1.06304 -1.1635 0
M  V30 13503 C 1208.84 1.82799 -0.96913 0
M  V30 13504 C 1209.25 1.82526 0.482659 0
M  V30 13505 O 1208.61 1.24437 1.33498 0
M  V30 13506 C 1208.66 3.29417 -1.48884 0
M  V30 13507 O 1208.38 3.29803 -2.88377 0
M  V30 13508 C 1209.88 4.22642 -1.33748 0
M  V30 13509 H 1207.1 0.576388 -0.343537 0
M  V30 13510 H 1209.64 1.34122 -1.54375 0
M  V30 13511 H 1207.8 3.75406 -0.956509 0
M  V30 13512 H 1208.21 4.21486 -3.1217 0
M  V30 13513 H 1209.69 5.23545 -1.74942 0
M  V30 13514 H 1210.16 4.38287 -0.283021 0
M  V30 13515 H 1210.77 3.82499 -1.85942 0
M  V30 13516 N 1209.09 0.96196 1.24836 0
M  V30 13517 C 1210.05 0.492443 2.23847 0
M  V30 13518 C 1211.05 -0.40788 1.55541 0
M  V30 13519 O 1212.24 -0.204143 1.73 0
M  V30 13520 C 1209.37 -0.287578 3.39685 0
M  V30 13521 H 1210.56 1.36767 2.66899 0
M  V30 13522 H 1208.12 0.745967 1.3735 0
M  V30 13523 H 1208.85 -1.18015 3.02064 0
M  V30 13524 H 1208.64 0.358431 3.90458 0
M  V30 13525 H 1210.13 -0.605297 4.1319 0
M  V30 13526 N 1210.56 -1.39601 0.731392 0
M  V30 13527 C 1211.51 -2.30628 0.0890606 0
M  V30 13528 C 1212.48 -1.49025 -0.73353 0
M  V30 13529 O 1213.67 -1.77722 -0.694234 0
M  V30 13530 C 1210.81 -3.35339 -0.814956 0
M  V30 13531 C 1209.92 -4.31995 0.0198606 0
M  V30 13532 C 1209.05 -5.23774 -0.885095 0
M  V30 13533 C 1208.09 -6.12083 -0.045311 0
M  V30 13534 N 1207.23 -6.9623 -0.906002 0
M  V30 13535 H 1212.07 -2.84988 0.870958 0
M  V30 13536 H 1209.61 -1.40329 0.441166 0
M  V30 13537 H 1211.56 -3.94634 -1.3535 0
M  V30 13538 H 1210.19 -2.82443 -1.56287 0
M  V30 13539 H 1209.25 -3.74349 0.675778 0
M  V30 13540 H 1210.56 -4.94289 0.669346 0
M  V30 13541 H 1209.71 -5.88078 -1.49161 0
M  V30 13542 H 1208.45 -4.61794 -1.56837 0
M  V30 13543 H 1207.46 -5.46795 0.574028 0
M  V30 13544 H 1208.68 -6.76128 0.634692 0
M  V30 13545 H 1206.63 -6.36821 -1.57463 0
M  V30 13546 H 1206.54 -7.55352 -0.312914 0
M  V30 13547 H 1207.81 -7.64967 -1.49819 0
M  V30 13548 N 1212.04 -0.478751 -1.50152 0
M  V30 13549 C 1213.46 -0.133356 -1.59042 0
M  V30 13550 C 1213.66 1.36069 -1.48618 0
M  V30 13551 O 1212.71 2.13468 -1.34862 0
M  V30 13552 C 1214.03 -0.690369 -2.92668 0
M  V30 13553 C 1215.58 -0.654481 -3.06081 0
M  V30 13554 C 1216.05 -1.18917 -4.42293 0
M  V30 13555 N 1217.54 -1.14891 -4.48725 0
M  V30 13556 C 1218.28 -1.53305 -5.52526 0
M  V30 13557 N 1217.77 -1.99205 -6.63543 0
M  V30 13558 N 1219.57 -1.4486 -5.43113 0
M  V30 13559 H 1211.72 -1.45037 -1.55171 0
M  V30 13560 H 1213.98 -0.600254 -0.733757 0
M  V30 13561 H 1213.69 -1.7373 -3.05795 0
M  V30 13562 H 1213.56 -0.138227 -3.76947 0
M  V30 13563 H 1215.95 0.383564 -2.92597 0
M  V30 13564 H 1216.03 -1.24352 -2.2354 0
M  V30 13565 H 1215.67 -2.22588 -4.56527 0
M  V30 13566 H 1215.6 -0.57628 -5.23437 0
M  V30 13567 H 1218.09 -0.812344 -3.69066 0
M  V30 13568 H 1218.41 -2.26645 -7.38818 0
M  V30 13569 H 1216.75 -2.03164 -6.64642 0
M  V30 13570 H 1219.94 -1.08836 -4.55272 0
M  V30 13571 H 1220.11 -1.75123 -6.23888 0
M  V30 13572 N 1213.52 1.56172 -0.211661 0
M  V30 13573 C 1214.77 1.97214 0.423008 0
M  V30 13574 C 1215.08 1.10203 1.616 0
M  V30 13575 O 1216.29 1.411 2.31955 0
M  V30 13576 C 1214.74 3.50805 0.803977 0
M  V30 13577 C 1214.35 4.46505 -0.365654 0
M  V30 13578 C 1216.1 4.00582 1.4048 0
M  V30 13579 C 1214 5.91388 0.0371986 0
M  V30 13580 H 1212.93 0.736432 0.161814 0
M  V30 13581 H 1215.58 1.80925 -0.306307 0
M  V30 13582 H 1213.97 3.62659 1.59043 0
M  V30 13583 H 1215.14 4.46394 -1.14321 0
M  V30 13584 H 1213.46 4.07015 -0.879061 0
M  V30 13585 H 1216.05 5.06317 1.71894 0
M  V30 13586 H 1216.4 3.45853 2.31713 0
M  V30 13587 H 1216.93 3.9191 0.681984 0
M  V30 13588 H 1213.67 6.50078 -0.841367 0
M  V30 13589 H 1213.19 5.94716 0.77927 0
M  V30 13590 H 1214.87 6.4531 0.467309 0
M  V30 13591 N 1215 -0.0618163 1.57479 0
M  V30 13592 C 1216.23 -0.770605 1.9169 0
M  V30 13593 C 1216.64 -1.71134 0.806841 0
M  V30 13594 O 1215.98 -1.8228 -0.228002 0
M  V30 13595 C 1216.04 -1.60962 3.21452 0
M  V30 13596 C 1215.71 -0.837193 4.49266 0
M  V30 13597 C 1216.7 -0.151964 5.19678 0
M  V30 13598 C 1214.39 -0.801414 4.95866 0
M  V30 13599 C 1216.38 0.558705 6.34947 0
M  V30 13600 C 1214.07 -0.0869788 6.11038 0
M  V30 13601 C 1215.07 0.591871 6.80431 0
M  V30 13602 O 1214.75 1.29478 7.93405 0
M  V30 13603 H 1214.49 -0.223673 0.637923 0
M  V30 13604 H 1217.04 -0.0333424 2.05373 0
M  V30 13605 H 1215.27 -2.38992 3.04006 0
M  V30 13606 H 1216.96 -2.19799 3.41238 0
M  V30 13607 H 1217.73 -0.170848 4.84699 0
M  V30 13608 H 1213.6 -1.31927 4.4172 0
M  V30 13609 H 1217.15 1.08913 6.89046 0
M  V30 13610 H 1213.05 -0.066057 6.45466 0
M  V30 13611 H 1213.81 1.20507 8.0958 0
M  V30 13612 N 1216.48 -1.54033 -0.333429 0
M  V30 13613 C 1217.39 -1.85737 -1.43314 0
M  V30 13614 C 1218.4 -0.748398 -1.57083 0
M  V30 13615 O 1219.58 -1.04171 -1.72367 0
M  V30 13616 C 1216.64 -2.06942 -2.78165 0
M  V30 13617 C 1215.7 -3.30774 -2.73655 0
M  V30 13618 C 1214.94 -3.50957 -4.02075 0
M  V30 13619 O 1215.16 -2.74774 -4.99855 0
M  V30 13620 O 1214.09 -4.44412 -4.05933 0
M  V30 13621 H 1217.92 -2.7923 -1.19434 0
M  V30 13622 H 1215.51 -1.39814 -0.526546 0
M  V30 13623 H 1217.39 -2.22276 -3.58011 0
M  V30 13624 H 1216.06 -1.16638 -3.01956 0
M  V30 13625 H 1214.97 -3.20835 -1.92395 0
M  V30 13626 H 1216.3 -4.21103 -2.54819 0
M  V30 13627 N 1217.95 0.594978 -1.45938 0
M  V30 13628 C 1219.19 1.36479 -1.52161 0
M  V30 13629 C 1219.56 1.91296 -0.164295 0
M  V30 13630 O 1220.76 2.68609 -0.101247 0
M  V30 13631 C 1219.03 2.47286 -2.5804 0
M  V30 13632 S 1220.59 3.34855 -2.8358 0
M  V30 13633 H 1217.41 0.465134 -0.537746 0
M  V30 13634 H 1220.01 0.685257 -1.83097 0
M  V30 13635 H 1218.71 2.05386 -3.5531 0
M  V30 13636 H 1218.24 3.20025 -2.28795 0
M  V30 13637 H 1220.26 4.45788 -2.17916 0
M  V30 13638 N 1219.43 1.33438 0.838571 0
M  V30 13639 C 1220.38 1.23717 1.94841 0
M  V30 13640 C 1221.35 0.11573 1.65696 0
M  V30 13641 O 1222.53 0.294051 1.8852 0
M  V30 13642 C 1219.67 0.982626 3.30815 0
M  V30 13643 C 1218.79 2.19036 3.72354 0
M  V30 13644 C 1217.92 1.86995 4.97199 0
M  V30 13645 C 1216.96 3.03998 5.31274 0
M  V30 13646 N 1216.1 2.71943 6.47295 0
M  V30 13647 H 1220.94 2.18639 2.02487 0
M  V30 13648 H 1218.48 1.08721 0.990861 0
M  V30 13649 H 1220.43 0.81548 4.09152 0
M  V30 13650 H 1219.06 0.0701443 3.22724 0
M  V30 13651 H 1218.12 2.46724 2.89537 0
M  V30 13652 H 1219.43 3.06505 3.93518 0
M  V30 13653 H 1218.58 1.66925 5.83285 0
M  V30 13654 H 1217.32 0.967628 4.78004 0
M  V30 13655 H 1216.33 3.24681 4.43692 0
M  V30 13656 H 1217.55 3.94985 5.52416 0
M  V30 13657 H 1215.5 1.8427 6.29588 0
M  V30 13658 H 1215.41 3.52943 6.68556 0
M  V30 13659 H 1216.68 2.55342 7.36492 0
M  V30 13660 N 1220.91 -1.05686 1.16912 0
M  V30 13661 C 1221.82 -2.16824 0.8958 0
M  V30 13662 C 1222.84 -1.73482 -0.134215 0
M  V30 13663 O 1224.01 -2.01352 0.0438776 0
M  V30 13664 C 1221.08 -3.44298 0.407427 0
M  V30 13665 C 1220.14 -4.02114 1.50342 0
M  V30 13666 C 1219.37 -5.23503 1.03826 0
M  V30 13667 O 1219.59 -5.70295 -0.109579 0
M  V30 13668 O 1218.53 -5.73432 1.8292 0
M  V30 13669 H 1222.35 -2.42725 1.82533 0
M  V30 13670 H 1219.94 -1.15339 0.949589 0
M  V30 13671 H 1221.82 -4.21159 0.142356 0
M  V30 13672 H 1220.5 -3.19908 -0.494009 0
M  V30 13673 H 1219.4 -3.26715 1.82231 0
M  V30 13674 H 1220.74 -4.30811 2.38039 0
M  V30 13675 N 1222.39 -0.968567 -1.24324 0
M  V30 13676 C 1223.63 -0.63879 -1.94162 0
M  V30 13677 C 1223.99 0.81112 -1.74025 0
M  V30 13678 O 1225.19 1.25116 -2.37906 0
M  V30 13679 C 1223.46 -1.00432 -3.42999 0
M  V30 13680 S 1225.02 -0.789227 -4.31644 0
M  V30 13681 H 1221.84 -0.234322 -0.671278 0
M  V30 13682 H 1224.44 -1.2457 -1.50673 0
M  V30 13683 H 1223.15 -2.05643 -3.55161 0
M  V30 13684 H 1222.68 -0.388221 -3.9148 0
M  V30 13685 H 1224.69 0.332976 -4.95082 0
M  V30 13686 N 1223.87 1.39211 -0.738786 0
M  V30 13687 C 1225.09 2.04732 -0.298751 0
M  V30 13688 C 1225.51 1.55706 1.06776 0
M  V30 13689 O 1224.87 0.723605 1.67542 0
M  V30 13690 C 1224.92 3.60288 -0.29574 0
M  V30 13691 O 1224.64 4.07511 -1.60831 0
M  V30 13692 C 1226.14 4.43011 0.159994 0
M  V30 13693 H 1223.36 0.658296 -0.129952 0
M  V30 13694 H 1225.9 1.78186 -1.0035 0
M  V30 13695 H 1224.06 3.85722 0.360146 0
M  V30 13696 H 1224.47 5.01858 -1.52443 0
M  V30 13697 H 1225.95 5.51889 0.110941 0
M  V30 13698 H 1226.42 4.22325 1.20573 0
M  V30 13699 H 1227.03 4.22734 -0.466467 0
M  V30 13700 N 1225.34 0.486708 1.49896 0
M  V30 13701 C 1226.58 -0.0613987 2.04308 0
M  V30 13702 C 1226.95 -1.3558 1.35948 0
M  V30 13703 O 1228.15 -1.98726 1.81001 0
M  V30 13704 C 1226.42 -0.225167 3.5669 0
M  V30 13705 S 1227.98 -0.729581 4.32692 0
M  V30 13706 H 1224.8 -0.00856238 0.710948 0
M  V30 13707 H 1227.4 0.657414 1.84115 0
M  V30 13708 H 1226.1 0.722447 4.03991 0
M  V30 13709 H 1225.63 -0.969639 3.81263 0
M  V30 13710 H 1227.65 -2.00082 4.54072 0
M  V30 13711 N 1226.82 -1.56058 0.219941 0
M  V30 13712 C 1228.23 -1.84462 -0.288203 0
M  V30 13713 C 1228.59 -1.14128 -1.59591 0
M  V30 13714 O 1227.71 -0.410411 -2.12473 0
M  V30 13715 C 1228.31 -3.34634 -0.529689 0
M  V30 13716 C 1226.86 -3.63361 -0.982145 0
M  V30 13717 C 1226.01 -2.77265 -0.0443292 0
M  V30 13718 H 1228.96 -1.52387 0.44317 0
M  V30 13719 H 1228.98 -3.54752 -1.3759 0
M  V30 13720 H 1228.5 -3.85796 0.422243 0
M  V30 13721 H 1226.6 -3.17653 -1.94749 0
M  V30 13722 H 1226.71 -4.71361 -0.857668 0
M  V30 13723 H 1225.07 -2.48672 -0.550825 0
M  V30 13724 H 1225.86 -3.31225 0.902491 0
M  V30 13725 N 1228.3 0.053464 -1.57509 0
M  V30 13726 C 1229.53 0.765301 -1.92764 0
M  V30 13727 C 1229.95 1.69385 -0.817943 0
M  V30 13728 O 1229.31 1.7986 0.228075 0
M  V30 13729 C 1229.36 1.51938 -3.27028 0
M  V30 13730 O 1228.46 2.63121 -3.17555 0
M  V30 13731 H 1227.8 0.207567 -0.630723 0
M  V30 13732 H 1230.33 0.0162254 -2.04594 0
M  V30 13733 H 1230.34 1.89466 -3.6134 0
M  V30 13734 H 1229.02 0.838207 -4.07366 0
M  V30 13735 H 1227.59 2.28316 -2.94832 0
M  V30 13736 N 1229.78 1.54207 0.325255 0
M  V30 13737 C 1231.01 1.76293 1.08298 0
M  V30 13738 C 1231.42 0.510722 1.81761 0
M  V30 13739 O 1230.78 -0.5185 1.7498 0
M  V30 13740 C 1230.83 2.95498 2.08238 0
M  V30 13741 O 1230.55 4.15877 1.37759 0
M  V30 13742 C 1232.05 3.29781 2.96242 0
M  V30 13743 H 1229.27 0.588576 0.322209 0
M  V30 13744 H 1231.82 2.0109 0.371896 0
M  V30 13745 H 1229.97 2.72979 2.74884 0
M  V30 13746 H 1230.39 4.82918 2.04672 0
M  V30 13747 H 1231.86 4.16495 3.62265 0
M  V30 13748 H 1232.34 2.46874 3.63249 0
M  V30 13749 H 1232.94 3.54372 2.3516 0
M  V30 13750 N 1231.26 -0.58723 1.46251 0
M  V30 13751 C 1232.21 -1.71771 1.56836 0
M  V30 13752 C 1233.2 -1.63664 0.437096 0
M  V30 13753 O 1234.41 -1.69212 0.613797 0
M  V30 13754 H 1230.78 -0.567841 0.493012 0
M  V30 13755 H 1232.75 -1.59974 2.51895 0
M  V30 13756 C 1231.5 -3.10159 1.57152 0
M  V30 13757 H 1230.82 -3.17066 2.43535 0
M  V30 13758 H 1232.26 -3.89032 1.68613 0
M  V30 13759 C 1230.72 -3.35567 0.299374 0
M  V30 13760 O 1231.25 -3.97006 -0.612291 0
M  V30 13761 N 1229.46 -2.89987 0.188695 0
M  V30 13762 H 1229.01 -2.4017 0.93147 0
M  V30 13763 H 1228.96 -3.0736 -0.661612 0
M  V30 13764 N 1232.74 -1.33881 -0.831482 0
M  V30 13765 C 1233.96 -1.28961 -1.62431 0
M  V30 13766 C 1234.39 0.135249 -1.87613 0
M  V30 13767 O 1233.74 1.09426 -1.44553 0
M  V30 13768 C 1233.79 -2.07767 -2.94729 0
M  V30 13769 O 1232.9 -1.44133 -3.86393 0
M  V30 13770 H 1232.24 -0.443313 -0.494337 0
M  V30 13771 H 1234.77 -1.76555 -1.0339 0
M  V30 13772 H 1234.78 -2.18806 -3.44366 0
M  V30 13773 H 1233.45 -3.11367 -2.75724 0
M  V30 13774 H 1232.03 -1.41784 -3.44894 0
M  V30 13775 N 1234.21 1.05064 -1.1747 0
M  V30 13776 C 1235.44 1.82299 -0.98903 0
M  V30 13777 C 1235.86 1.82441 0.457907 0
M  V30 13778 O 1235.22 1.23433 1.32793 0
M  V30 13779 C 1235.27 3.26239 -1.53624 0
M  V30 13780 O 1234.37 4.05507 -0.750857 0
M  V30 13781 H 1233.71 0.563601 -0.35107 0
M  V30 13782 H 1236.24 1.32386 -1.55997 0
M  V30 13783 H 1236.25 3.77038 -1.55906 0
M  V30 13784 H 1234.93 3.25451 -2.58949 0
M  V30 13785 H 1233.51 3.64227 -0.799548 0
M  V30 13786 N 1235.69 0.975146 1.23809 0
M  V30 13787 C 1236.62 0.45593 2.23599 0
M  V30 13788 C 1237.6 -0.474069 1.55536 0
M  V30 13789 O 1238.79 -0.40373 1.84126 0
M  V30 13790 C 1235.91 -0.341008 3.36979 0
M  V30 13791 C 1234.96 0.532362 4.23164 0
M  V30 13792 S 1235.79 1.97706 4.97667 0
M  V30 13793 C 1236.95 1.18912 6.145 0
M  V30 13794 H 1237.18 1.30157 2.67295 0
M  V30 13795 H 1234.71 0.78074 1.33206 0
M  V30 13796 H 1236.67 -0.794817 4.02732 0
M  V30 13797 H 1235.33 -1.16171 2.91827 0
M  V30 13798 H 1234.53 -0.0798928 5.03937 0
M  V30 13799 H 1234.13 0.922202 3.62452 0
M  V30 13800 H 1236.42 0.447823 6.76018 0
M  V30 13801 H 1237.36 1.97148 6.80102 0
M  V30 13802 H 1237.77 0.710216 5.60014 0
M  V30 13803 N 1237.17 -1.38817 0.746158 0
M  V30 13804 C 1238.45 -1.94303 0.224841 0
M  V30 13805 C 1238.83 -1.68207 -1.27552 0
M  V30 13806 O 1238.17 -1.01647 -2.04646 0
M  V30 13807 C 1238.38 -3.44306 0.5705 0
M  V30 13808 C 1239.73 -4.21329 0.526015 0
M  V30 13809 O 1240.76 -3.52554 0.508351 0
M  V30 13810 O 1239.62 -5.4392 0.530383 0
M  V30 13811 H 1236.71 -0.825785 0.0448047 0
M  V30 13812 H 1239.26 -1.48253 0.825775 0
M  V30 13813 H 1238.03 -3.56779 1.60701 0
M  V30 13814 H 1237.65 -3.97556 -0.0588271 0
M  V30 13815 N 1238.65 -0.49465 -1.49636 0
M  V30 13816 C 1239.92 0.114829 -1.95263 0
M  V30 13817 C 1240.3 1.54739 -1.43593 0
M  V30 13818 O 1239.65 2.1915 -0.646953 0
M  V30 13819 C 1239.86 0.0339912 -3.48983 0
M  V30 13820 C 1241.21 0.211108 -4.24075 0
M  V30 13821 O 1242.23 0.109478 -3.56032 0
M  V30 13822 O 1241.09 0.418971 -5.44892 0
M  V30 13823 H 1238.19 0.0987883 -0.821078 0
M  V30 13824 H 1240.73 -0.556736 -1.60308 0
M  V30 13825 H 1239.51 -0.965287 -3.79207 0
M  V30 13826 H 1239.13 0.745982 -3.90539 0
M  V30 13827 N 1240.13 1.55939 -0.228214 0
M  V30 13828 C 1241.06 2.16566 0.719321 0
M  V30 13829 C 1242.04 1.11204 1.18627 0
M  V30 13830 O 1243.22 1.39495 1.2678 0
M  V30 13831 C 1240.35 2.75132 1.97536 0
M  V30 13832 C 1239.39 3.93381 1.64783 0
M  V30 13833 S 1240.23 5.29982 0.76678 0
M  V30 13834 C 1241.38 5.91989 2.03223 0
M  V30 13835 H 1241.62 2.96599 0.204035 0
M  V30 13836 H 1239.15 1.54395 -0.0128406 0
M  V30 13837 H 1241.11 3.09512 2.69652 0
M  V30 13838 H 1239.77 1.95079 2.46176 0
M  V30 13839 H 1238.96 4.32884 2.58122 0
M  V30 13840 H 1238.56 3.60181 1.00724 0
M  V30 13841 H 1240.85 6.08368 2.98152 0
M  V30 13842 H 1241.8 6.87858 1.68099 0
M  V30 13843 H 1242.21 5.20883 2.1758 0
M  V30 13844 N 1241.6 -0.0451101 1.57535 0
M  V30 13845 C 1242.85 -0.738072 1.87711 0
M  V30 13846 C 1243.17 -1.7737 0.824579 0
M  V30 13847 O 1244.37 -2.51812 1.01503 0
M  V30 13848 C 1242.83 -1.36373 3.33062 0
M  V30 13849 C 1242.44 -0.365283 4.46508 0
M  V30 13850 C 1244.18 -2.0375 3.72406 0
M  V30 13851 C 1242.09 -0.998371 5.82912 0
M  V30 13852 H 1241.02 -0.279413 0.700317 0
M  V30 13853 H 1243.67 0.00802425 1.83498 0
M  V30 13854 H 1242.05 -2.15899 3.31969 0
M  V30 13855 H 1243.22 0.402102 4.59042 0
M  V30 13856 H 1241.54 0.205505 4.15893 0
M  V30 13857 H 1244.14 -2.51939 4.71625 0
M  V30 13858 H 1244.48 -2.84869 3.03571 0
M  V30 13859 H 1245.01 -1.3102 3.75604 0
M  V30 13860 H 1241.75 -0.226935 6.55107 0
M  V30 13861 H 1241.27 -1.73598 5.74129 0
M  V30 13862 H 1242.95 -1.51044 6.29122 0
M  V30 13863 N 1243.08 -1.54377 -0.317073 0
M  V30 13864 C 1244.33 -1.72893 -1.05424 0
M  V30 13865 C 1244.66 -0.506082 -1.87801 0
M  V30 13866 O 1243.91 0.51213 -1.8888 0
M  V30 13867 C 1244.21 -2.96066 -2.00199 0
M  V30 13868 C 1243.88 -4.30551 -1.33927 0
M  V30 13869 C 1242.54 -4.67112 -1.15584 0
M  V30 13870 C 1244.89 -5.13986 -0.864158 0
M  V30 13871 C 1242.22 -5.84701 -0.483892 0
M  V30 13872 C 1244.57 -6.32264 -0.206006 0
M  V30 13873 C 1243.24 -6.67499 -0.0104849 0
M  V30 13874 H 1242.51 -0.63266 -0.385776 0
M  V30 13875 H 1245.15 -1.88623 -0.330722 0
M  V30 13876 H 1243.46 -2.7505 -2.79024 0
M  V30 13877 H 1245.15 -3.07586 -2.57278 0
M  V30 13878 H 1241.74 -4.0179 -1.49207 0
M  V30 13879 H 1245.93 -4.86252 -0.993635 0
M  V30 13880 H 1241.18 -6.10555 -0.32127 0
M  V30 13881 H 1245.36 -6.96192 0.170108 0
M  V30 13882 H 1242.99 -7.58472 0.512209 0
M  V30 13883 N 1244.56 0.579466 -1.4656 0
M  V30 13884 C 1245.81 1.33492 -1.51738 0
M  V30 13885 C 1246.13 1.94241 -0.171926 0
M  V30 13886 O 1245.4 1.78737 0.801875 0
M  V30 13887 H 1243.98 0.49565 -0.558874 0
M  V30 13888 H 1246.64 0.678394 -1.82712 0
M  V30 13889 H 1245.74 2.13995 -2.27183 0
M  V30 13890 N 1246.04 1.3432 0.824371 0
M  V30 13891 C 1246.99 1.25776 1.93517 0
M  V30 13892 C 1247.96 0.133298 1.65564 0
M  V30 13893 O 1249.14 0.31403 1.88198 0
M  V30 13894 C 1246.28 1.01766 3.29754 0
M  V30 13895 C 1245.39 2.22973 3.7001 0
M  V30 13896 C 1244.53 1.92258 4.95187 0
M  V30 13897 C 1243.57 3.09616 5.2802 0
M  V30 13898 N 1242.7 2.78793 6.44375 0
M  V30 13899 H 1247.54 2.20774 2.00157 0
M  V30 13900 H 1245.08 1.09766 0.979274 0
M  V30 13901 H 1247.04 0.858831 4.08265 0
M  V30 13902 H 1245.67 0.10437 3.22631 0
M  V30 13903 H 1244.72 2.49781 2.86903 0
M  V30 13904 H 1246.03 3.10661 3.90245 0
M  V30 13905 H 1245.19 1.73102 5.81481 0
M  V30 13906 H 1243.93 1.01827 4.76951 0
M  V30 13907 H 1242.93 3.29368 4.40223 0
M  V30 13908 H 1244.16 4.00822 5.48196 0
M  V30 13909 H 1242.1 1.90938 6.27598 0
M  V30 13910 H 1242.02 3.60014 6.64775 0
M  V30 13911 H 1243.29 2.63139 7.33743 0
M  V30 13912 N 1247.52 -1.0444 1.18026 0
M  V30 13913 C 1248.76 -1.77972 0.984767 0
M  V30 13914 C 1249.12 -1.86294 -0.480861 0
M  V30 13915 O 1248.41 -1.35724 -1.35239 0
M  V30 13916 C 1248.6 -3.21134 1.56869 0
M  V30 13917 C 1248.43 -3.26765 3.08958 0
M  V30 13918 C 1247.2 -3.35612 3.77747 0
M  V30 13919 C 1249.4 -3.15083 4.06482 0
M  V30 13920 N 1247.38 -3.30454 5.17372 0
M  V30 13921 C 1248.75 -3.17382 5.32606 0
M  V30 13922 C 1250.81 -2.99099 3.98051 0
M  V30 13923 C 1249.51 -3.05338 6.51277 0
M  V30 13924 C 1251.54 -2.88399 5.16314 0
M  V30 13925 C 1250.9 -2.91338 6.41328 0
M  V30 13926 H 1247 -0.66322 0.414323 0
M  V30 13927 H 1249.58 -1.24444 1.49739 0
M  V30 13928 H 1247.75 -3.73016 1.0823 0
M  V30 13929 H 1249.49 -3.82943 1.30908 0
M  V30 13930 H 1246.24 -3.41189 3.28462 0
M  V30 13931 H 1246.67 -3.31324 5.90384 0
M  V30 13932 H 1251.31 -2.95659 3.02234 0
M  V30 13933 H 1249.03 -3.07531 7.47296 0
M  V30 13934 H 1252.61 -2.77091 5.11578 0
M  V30 13935 H 1251.49 -2.83141 7.31301 0
M  V30 13936 N 1248.99 -0.981699 -1.2329 0
M  V30 13937 C 1249.96 -0.527992 -2.23036 0
M  V30 13938 C 1250.96 0.383083 -1.5617 0
M  V30 13939 O 1252.15 0.176595 -1.73303 0
M  V30 13940 C 1249.28 0.233501 -3.40099 0
M  V30 13941 H 1250.47 -1.40995 -2.64689 0
M  V30 13942 H 1248.03 -0.767724 -1.36146 0
M  V30 13943 H 1248.76 1.13194 -3.03904 0
M  V30 13944 H 1248.55 -0.420505 -3.89839 0
M  V30 13945 H 1250.04 0.539485 -4.14101 0
M  V30 13946 N 1250.47 1.3842 -0.753509 0
M  V30 13947 C 1251.42 2.30457 -0.12574 0
M  V30 13948 C 1252.39 1.50173 0.709728 0
M  V30 13949 O 1253.57 1.78804 0.665872 0
M  V30 13950 C 1250.71 3.36593 0.761503 0
M  V30 13951 C 1249.83 4.31909 -0.0885848 0
M  V30 13952 C 1248.96 5.25116 0.801655 0
M  V30 13953 C 1248 6.12078 -0.0520719 0
M  V30 13954 N 1247.14 6.97583 0.795124 0
M  V30 13955 H 1251.98 2.83567 -0.916187 0
M  V30 13956 H 1249.52 1.39609 -0.463436 0
M  V30 13957 H 1251.47 3.96738 1.29054 0
M  V30 13958 H 1250.1 2.84894 1.51774 0
M  V30 13959 H 1249.16 3.73227 -0.735249 0
M  V30 13960 H 1250.47 4.93161 -0.747899 0
M  V30 13961 H 1249.62 5.90377 1.39786 0
M  V30 13962 H 1248.36 4.6423 1.4947 0
M  V30 13963 H 1247.37 5.45813 -0.660946 0
M  V30 13964 H 1248.59 6.75032 -0.742178 0
M  V30 13965 H 1246.54 6.39246 1.47312 0
M  V30 13966 H 1246.45 7.55754 0.192705 0
M  V30 13967 H 1247.72 7.67254 1.3763 0
M  V30 13968 N 1251.95 0.502579 1.49372 0
M  V30 13969 C 1252.86 -0.279532 2.32929 0
M  V30 13970 C 1253.88 -0.965806 1.44735 0
M  V30 13971 O 1255.05 -0.946839 1.77755 0
M  V30 13972 C 1252.12 -1.32913 3.20211 0
M  V30 13973 C 1251.18 -0.656121 4.24256 0
M  V30 13974 C 1250.41 -1.65571 5.07368 0
M  V30 13975 O 1250.63 -2.88571 4.92019 0
M  V30 13976 O 1249.57 -1.21016 5.89609 0
M  V30 13977 H 1253.39 0.404427 3.00995 0
M  V30 13978 H 1250.98 0.263888 1.47051 0
M  V30 13979 H 1252.86 -1.93635 3.74277 0
M  V30 13980 H 1251.54 -1.99598 2.54837 0
M  V30 13981 H 1250.44 -0.00911489 3.74099 0
M  V30 13982 H 1251.78 -0.0316802 4.9219 0
M  V30 13983 N 1253.43 -1.55816 0.23648 0
M  V30 13984 C 1254.36 -2.23924 -0.661834 0
M  V30 13985 C 1255.34 -1.21597 -1.18946 0
M  V30 13986 O 1256.52 -1.50222 -1.23073 0
M  V30 13987 C 1253.65 -2.93069 -1.86355 0
M  V30 13988 C 1252.61 -4.01996 -1.46913 0
M  V30 13989 C 1251.93 -4.58512 -2.75083 0
M  V30 13990 C 1253.23 -5.18265 -0.647964 0
M  V30 13991 H 1254.93 -2.99253 -0.0939368 0
M  V30 13992 H 1252.47 -1.43934 -0.0437407 0
M  V30 13993 H 1254.43 -3.39412 -2.49755 0
M  V30 13994 H 1253.15 -2.15212 -2.45665 0
M  V30 13995 H 1251.81 -3.56406 -0.858522 0
M  V30 13996 H 1251.46 -3.77368 -3.3257 0
M  V30 13997 H 1251.16 -5.32037 -2.49421 0
M  V30 13998 H 1252.68 -5.07583 -3.39399 0
M  V30 13999 H 1254.1 -5.60898 -1.18602 0
M  V30 14000 H 1252.49 -5.98114 -0.487823 0
M  V30 14001 H 1253.56 -4.83691 0.342151 0
M  V30 14002 N 1254.91 0.036755 -1.57557 0
M  V30 14003 C 1256.15 0.727665 -1.88546 0
M  V30 14004 C 1256.48 1.76304 -0.833179 0
M  V30 14005 O 1255.75 1.9544 0.13414 0
M  V30 14006 H 1254.33 0.271744 -0.695819 0
M  V30 14007 H 1256.99 0.00452915 -1.94899 0
M  V30 14008 H 1256.08 1.22205 -2.8718 0
M  V30 14009 N 1256.39 1.54543 0.308881 0
M  V30 14010 C 1257.63 1.7266 1.04266 0
M  V30 14011 C 1257.95 0.51518 1.88694 0
M  V30 14012 O 1259.15 0.577988 2.65276 0
M  V30 14013 C 1257.61 3.05448 1.9034 0
M  V30 14014 C 1257.22 4.34043 1.10953 0
M  V30 14015 C 1258.96 3.32925 2.63365 0
M  V30 14016 C 1256.87 5.57886 1.96258 0
M  V30 14017 H 1255.8 0.643485 0.392992 0
M  V30 14018 H 1258.45 1.8103 0.300077 0
M  V30 14019 H 1256.83 2.91023 2.68555 0
M  V30 14020 H 1258.01 4.59279 0.374069 0
M  V30 14021 H 1256.32 4.13442 0.495453 0
M  V30 14022 H 1258.92 4.22649 3.27524 0
M  V30 14023 H 1259.26 2.51451 3.3178 0
M  V30 14024 H 1259.79 3.48285 1.92204 0
M  V30 14025 H 1256.53 6.42005 1.32326 0
M  V30 14026 H 1256.05 5.36847 2.67498 0
M  V30 14027 H 1257.73 5.94846 2.54494 0
M  V30 14028 N 1257.86 -0.571685 1.46866 0
M  V30 14029 C 1258.79 -1.68994 1.61131 0
M  V30 14030 C 1259.77 -1.63728 0.461222 0
M  V30 14031 O 1260.96 -1.81574 0.688813 0
M  V30 14032 C 1258.09 -3.07638 1.61172 0
M  V30 14033 C 1257.04 -3.27742 2.75262 0
M  V30 14034 C 1256.37 -4.67025 2.60368 0
M  V30 14035 C 1257.67 -3.14511 4.16989 0
M  V30 14036 H 1259.36 -1.57311 2.54742 0
M  V30 14037 H 1256.91 -0.755382 1.22597 0
M  V30 14038 H 1258.86 -3.857 1.69744 0
M  V30 14039 H 1257.59 -3.20245 0.641122 0
M  V30 14040 H 1256.25 -2.52083 2.66176 0
M  V30 14041 H 1255.89 -4.76413 1.61368 0
M  V30 14042 H 1255.59 -4.81428 3.36899 0
M  V30 14043 H 1257.12 -5.47242 2.70848 0
M  V30 14044 H 1258.53 -3.82407 4.27128 0
M  V30 14045 H 1256.93 -3.40431 4.94193 0
M  V30 14046 H 1258 -2.11443 4.36371 0
M  V30 14047 N 1259.34 -1.34755 -0.817236 0
M  V30 14048 C 1260.3 -1.26687 -1.91006 0
M  V30 14049 C 1261.3 -0.180745 -1.59781 0
M  V30 14050 O 1262.49 -0.433748 -1.68714 0
M  V30 14051 C 1259.63 -0.957293 -3.27183 0
M  V30 14052 H 1260.82 -2.23846 -1.99582 0
M  V30 14053 H 1258.37 -1.19125 -1.01187 0
M  V30 14054 H 1259.11 0.0108917 -3.24298 0
M  V30 14055 H 1258.89 -1.74297 -3.5123 0
M  V30 14056 H 1260.38 -0.926161 -4.072 0
M  V30 14057 N 1260.82 1.03812 -1.18578 0
M  V30 14058 C 1262.07 1.76455 -0.977071 0
M  V30 14059 C 1262.38 1.8926 0.493964 0
M  V30 14060 O 1263.59 2.58781 0.821256 0
M  V30 14061 C 1262.04 3.17264 -1.69917 0
M  V30 14062 C 1261.65 3.12543 -3.20969 0
M  V30 14063 C 1263.4 3.94266 -1.57337 0
M  V30 14064 C 1261.3 4.48226 -3.85807 0
M  V30 14065 H 1260.23 0.661445 -0.361949 0
M  V30 14066 H 1262.88 1.16252 -1.41978 0
M  V30 14067 H 1261.27 3.77878 -1.18424 0
M  V30 14068 H 1262.44 2.61364 -3.79507 0
M  V30 14069 H 1260.75 2.49039 -3.33719 0
M  V30 14070 H 1263.35 4.9461 -2.03137 0
M  V30 14071 H 1263.69 4.12963 -0.526033 0
M  V30 14072 H 1264.23 3.40232 -2.06124 0
M  V30 14073 H 1260.97 4.34734 -4.90599 0
M  V30 14074 H 1260.49 4.99497 -3.32058 0
M  V30 14075 H 1262.17 5.17135 -3.88819 0
M  V30 14076 N 1262.3 0.988223 1.22768 0
M  V30 14077 C 1263.25 0.527454 2.26541 0
M  V30 14078 C 1264.24 -0.419506 1.64123 0
M  V30 14079 O 1265.45 -0.292539 1.77607 0
M  V30 14080 H 1261.82 0.152165 0.736444 0
M  V30 14081 H 1263.79 1.41422 2.62759 0
M  V30 14082 C 1262.54 -0.146845 3.4739 0
M  V30 14083 H 1261.86 0.572752 3.95676 0
M  V30 14084 H 1263.3 -0.432768 4.21786 0
M  V30 14085 C 1261.76 -1.38065 3.0731 0
M  V30 14086 O 1262.29 -2.47634 3.16291 0
M  V30 14087 N 1260.5 -1.25418 2.62143 0
M  V30 14088 H 1260.05 -0.362641 2.55035 0
M  V30 14089 H 1260 -2.08077 2.35694 0
M  V30 14090 N 1263.78 -1.38018 0.760839 0
M  V30 14091 C 1265.02 -1.99952 0.320241 0
M  V30 14092 C 1265.35 -1.60397 -1.10014 0
M  V30 14093 O 1264.61 -0.836407 -1.76926 0
M  V30 14094 C 1264.9 -3.55168 0.398778 0
M  V30 14095 C 1264.57 -4.14457 1.77585 0
M  V30 14096 C 1263.23 -4.30363 2.15269 0
M  V30 14097 C 1265.58 -4.47089 2.67883 0
M  V30 14098 C 1262.91 -4.762 3.4271 0
M  V30 14099 C 1265.26 -4.94345 3.94722 0
M  V30 14100 C 1263.93 -5.08458 4.32466 0
M  V30 14101 H 1263.2 -0.731675 0.117185 0
M  V30 14102 H 1265.85 -1.64955 0.972736 0
M  V30 14103 H 1264.15 -3.90346 -0.337273 0
M  V30 14104 H 1265.85 -4.00981 0.0393393 0
M  V30 14105 H 1262.44 -4.02496 1.47292 0
M  V30 14106 H 1266.62 -4.34395 2.40031 0
M  V30 14107 H 1261.88 -4.85312 3.71863 0
M  V30 14108 H 1266.05 -5.18563 4.64828 0
M  V30 14109 H 1263.68 -5.43735 5.31278 0
M  V30 14110 N 1265.25 -0.510493 -1.49103 0
M  V30 14111 C 1266.16 0.267176 -2.33074 0
M  V30 14112 C 1267.18 0.958117 -1.45245 0
M  V30 14113 O 1268.36 0.937399 -1.78255 0
M  V30 14114 C 1265.42 1.31212 -3.20911 0
M  V30 14115 C 1264.48 0.633613 -4.24598 0
M  V30 14116 C 1263.71 1.62878 -5.08239 0
M  V30 14117 O 1263.94 2.85958 -4.93543 0
M  V30 14118 O 1262.87 1.17887 -5.90242 0
M  V30 14119 H 1266.7 -0.420384 -3.00776 0
M  V30 14120 H 1264.28 -0.271683 -1.46909 0
M  V30 14121 H 1266.16 1.91647 -3.75299 0
M  V30 14122 H 1264.84 1.98244 -2.55892 0
M  V30 14123 H 1263.75 -0.0107246 -3.74098 0
M  V30 14124 H 1265.08 0.0055777 -4.922 0
M  V30 14125 N 1266.73 1.55688 -0.24474 0
M  V30 14126 C 1267.98 1.98498 0.379852 0
M  V30 14127 C 1268.3 1.13416 1.58625 0
M  V30 14128 O 1267.57 0.216456 1.947 0
M  V30 14129 H 1266.15 0.73312 0.143334 0
M  V30 14130 H 1268.81 1.91858 -0.343027 0
M  V30 14131 H 1267.91 3.04367 0.690463 0
M  V30 14132 N 1268.21 -0.0283989 1.57574 0
M  V30 14133 C 1269.44 -0.729772 1.93282 0
M  V30 14134 C 1269.85 -1.69384 0.842959 0
M  V30 14135 O 1269.19 -1.82722 -0.189286 0
M  V30 14136 C 1269.25 -1.54107 3.24794 0
M  V30 14137 C 1268.92 -0.741709 4.50941 0
M  V30 14138 C 1269.91 -0.0416985 5.19883 0
M  V30 14139 C 1267.6 -0.696053 4.97454 0
M  V30 14140 C 1269.59 0.693261 6.33619 0
M  V30 14141 C 1267.28 0.042651 6.11085 0
M  V30 14142 C 1268.28 0.736067 6.79022 0
M  V30 14143 O 1267.97 1.46278 7.9048 0
M  V30 14144 H 1267.7 -0.210092 0.642524 0
M  V30 14145 H 1270.25 0.0102277 2.05397 0
M  V30 14146 H 1268.48 -2.3249 3.09007 0
M  V30 14147 H 1270.17 -2.12512 3.45823 0
M  V30 14148 H 1270.94 -0.0679975 4.84952 0
M  V30 14149 H 1266.82 -1.22528 4.44419 0
M  V30 14150 H 1270.36 1.23504 6.8658 0
M  V30 14151 H 1266.26 0.0708708 6.45461 0
M  V30 14152 H 1267.02 1.37652 8.06842 0
M  V30 14153 N 1269.69 -1.54705 -0.300681 0
M  V30 14154 C 1270.93 -1.74001 -1.03585 0
M  V30 14155 C 1271.26 -0.525972 -1.87253 0
M  V30 14156 O 1270.52 0.492068 -1.89413 0
M  V30 14157 C 1270.82 -2.98173 -1.97047 0
M  V30 14158 C 1270.48 -4.31948 -1.29352 0
M  V30 14159 C 1269.14 -4.68312 -1.10623 0
M  V30 14160 C 1271.5 -5.14874 -0.809594 0
M  V30 14161 C 1268.82 -5.85181 -0.42185 0
M  V30 14162 C 1271.18 -6.32447 -0.138935 0
M  V30 14163 C 1269.84 -6.67473 0.0603129 0
M  V30 14164 H 1269.11 -0.636716 -0.379044 0
M  V30 14165 H 1271.76 -1.88963 -0.310697 0
M  V30 14166 H 1270.06 -2.77994 -2.76091 0
M  V30 14167 H 1271.76 -3.10297 -2.54001 0
M  V30 14168 H 1268.35 -4.0335 -1.44937 0
M  V30 14169 H 1272.53 -4.87278 -0.942006 0
M  V30 14170 H 1267.79 -6.10862 -0.256494 0
M  V30 14171 H 1271.96 -6.95973 0.243939 0
M  V30 14172 H 1269.59 -7.57887 0.592626 0
M  V30 14173 N 1271.17 0.563888 -1.47167 0
M  V30 14174 C 1272.1 1.68655 -1.55204 0
M  V30 14175 C 1273.11 1.56776 -0.438769 0
M  V30 14176 O 1274.3 1.63856 -0.708059 0
M  V30 14177 C 1271.4 3.07068 -1.43396 0
M  V30 14178 C 1270.57 3.44767 -2.69174 0
M  V30 14179 C 1269.63 4.62316 -2.51298 0
M  V30 14180 O 1268.66 4.67231 -3.2509 0
M  V30 14181 N 1269.86 5.58389 -1.58688 0
M  V30 14182 H 1272.63 1.62209 -2.52009 0
M  V30 14183 H 1270.19 0.750359 -1.43462 0
M  V30 14184 H 1272.18 3.83529 -1.29181 0
M  V30 14185 H 1270.75 3.07777 -0.546997 0
M  V30 14186 H 1269.97 2.57821 -2.98198 0
M  V30 14187 H 1271.26 3.66726 -3.52689 0
M  V30 14188 H 1270.65 5.57169 -0.978737 0
M  V30 14189 H 1269.21 6.34204 -1.50428 0
M  V30 14190 N 1272.64 1.35187 0.810078 0
M  V30 14191 C 1273.59 1.27848 1.94313 0
M  V30 14192 C 1274.59 0.174081 1.68503 0
M  V30 14193 O 1275.79 0.339848 1.76763 0
M  V30 14194 H 1272.17 0.397504 0.638353 0
M  V30 14195 H 1274.14 2.23579 1.97623 0
M  V30 14196 C 1272.89 1.06382 3.31026 0
M  V30 14197 H 1272.21 1.90601 3.51441 0
M  V30 14198 H 1273.65 1.05287 4.1072 0
M  V30 14199 C 1272.11 -0.232462 3.36097 0
M  V30 14200 O 1272.64 -1.22946 3.82423 0
M  V30 14201 N 1270.85 -0.270028 2.89343 0
M  V30 14202 H 1270.39 0.541891 2.51836 0
M  V30 14203 H 1270.35 -1.13708 2.93117 0
M  V30 14204 N 1274.12 -1.03182 1.19127 0
M  V30 14205 C 1275.35 -1.80703 1.01791 0
M  V30 14206 C 1275.77 -1.83147 -0.428824 0
M  V30 14207 O 1275.13 -1.2553 -1.30812 0
M  V30 14208 C 1275.18 -3.23754 1.58794 0
M  V30 14209 O 1274.28 -4.04261 0.815274 0
M  V30 14210 H 1273.62 -0.557944 0.359992 0
M  V30 14211 H 1276.15 -1.29887 1.58084 0
M  V30 14212 H 1276.16 -3.7451 1.61884 0
M  V30 14213 H 1274.84 -3.2129 2.64094 0
M  V30 14214 H 1273.42 -3.62909 0.857392 0
M  V30 14215 N 1275.6 -0.99472 -1.22242 0
M  V30 14216 C 1277.01 -0.706456 -1.72818 0
M  V30 14217 C 1277.36 0.776566 -1.80177 0
M  V30 14218 O 1276.49 1.60698 -1.44931 0
M  V30 14219 C 1277.08 -1.27571 -3.13865 0
M  V30 14220 C 1275.64 -1.03679 -3.61839 0
M  V30 14221 C 1274.79 -1.3948 -2.39668 0
M  V30 14222 H 1277.74 -1.16687 -1.07564 0
M  V30 14223 H 1277.76 -0.655202 -3.74816 0
M  V30 14224 H 1277.27 -2.35508 -3.08476 0
M  V30 14225 H 1275.37 0.0258679 -3.72591 0
M  V30 14226 H 1275.49 -1.70145 -4.4787 0
M  V30 14227 H 1273.85 -0.813418 -2.41362 0
M  V30 14228 H 1274.63 -2.48425 -2.36939 0
M  V30 14229 N 1277.08 1.37613 -0.768148 0
M  V30 14230 C 1278.01 2.3291 -0.165911 0
M  V30 14231 C 1278.99 1.556 0.687205 0
M  V30 14232 O 1280.17 1.83854 0.625407 0
M  V30 14233 C 1277.3 3.39822 0.7168 0
M  V30 14234 C 1276.26 4.27986 -0.0347264 0
M  V30 14235 C 1275.58 5.2588 0.967192 0
M  V30 14236 C 1276.88 5.08052 -1.21164 0
M  V30 14237 H 1278.58 2.83524 -0.962006 0
M  V30 14238 H 1276.12 1.36318 -0.464051 0
M  V30 14239 H 1278.08 4.05464 1.14789 0
M  V30 14240 H 1276.8 2.87725 1.54538 0
M  V30 14241 H 1275.46 3.6387 -0.446557 0
M  V30 14242 H 1275.11 4.70064 1.79022 0
M  V30 14243 H 1274.81 5.85726 0.468913 0
M  V30 14244 H 1276.33 5.94397 1.3973 0
M  V30 14245 H 1277.75 5.66853 -0.857373 0
M  V30 14246 H 1276.14 5.77206 -1.64176 0
M  V30 14247 H 1277.21 4.40936 -2.0175 0
M  V30 14248 N 1278.56 0.518393 1.4883 0
M  V30 14249 C 1279.83 -0.0837498 1.95421 0
M  V30 14250 C 1280.21 -1.52435 1.46037 0
M  V30 14251 O 1279.56 -2.18093 0.681736 0
M  V30 14252 C 1279.77 0.0215333 3.48993 0
M  V30 14253 C 1281.12 -0.143615 4.24357 0
M  V30 14254 O 1282.14 -0.0528223 3.56161 0
M  V30 14255 O 1281 -0.332231 5.45489 0
M  V30 14256 H 1278.1 -0.0857132 0.822546 0
M  V30 14257 H 1280.64 0.582169 1.59402 0
M  V30 14258 H 1279.41 1.02549 3.77623 0
M  V30 14259 H 1279.04 -0.683756 3.91677 0
M  V30 14260 N 1280.03 -1.55556 0.252993 0
M  V30 14261 C 1281.26 -2.03196 -0.37348 0
M  V30 14262 C 1281.67 -1.13145 -1.51641 0
M  V30 14263 O 1281.02 -0.139519 -1.83169 0
M  V30 14264 C 1281.08 -3.47066 -0.937308 0
M  V30 14265 C 1280.74 -4.5694 0.0741513 0
M  V30 14266 C 1281.74 -5.12297 0.885862 0
M  V30 14267 C 1279.42 -5.01894 0.202003 0
M  V30 14268 C 1281.42 -6.11107 1.81182 0
M  V30 14269 C 1279.1 -6.00534 1.13146 0
M  V30 14270 C 1280.1 -6.5502 1.93489 0
M  V30 14271 O 1279.79 -7.51735 2.84868 0
M  V30 14272 H 1279.52 -0.669687 -0.092171 0
M  V30 14273 H 1282.08 -2.01924 0.376264 0
M  V30 14274 H 1280.31 -3.45507 -1.73672 0
M  V30 14275 H 1282 -3.78171 -1.47451 0
M  V30 14276 H 1282.76 -4.78395 0.797707 0
M  V30 14277 H 1278.64 -4.59144 -0.413301 0
M  V30 14278 H 1282.18 -6.53561 2.43935 0
M  V30 14279 H 1278.08 -6.33856 1.22052 0
M  V30 14280 H 1278.85 -7.69373 2.79298 0
M  V30 14281 N 1281.51 0.0200419 -1.57587 0
M  V30 14282 C 1282.46 1.0362 -2.08244 0
M  V30 14283 C 1283.45 1.36872 -0.998119 0
M  V30 14284 O 1284.66 1.35671 -1.18293 0
M  V30 14285 H 1281.04 0.351731 -0.664673 0
M  V30 14286 H 1283.01 0.583226 -2.92645 0
M  V30 14287 C 1281.76 2.32574 -2.58466 0
M  V30 14288 H 1281.08 2.0785 -3.41523 0
M  V30 14289 H 1282.52 3.02 -2.97611 0
M  V30 14290 C 1280.98 3.02167 -1.48986 0
M  V30 14291 O 1281.51 3.92359 -0.861251 0
M  V30 14292 N 1279.71 2.63649 -1.22219 0
M  V30 14293 H 1279.26 1.90389 -1.73521 0
M  V30 14294 H 1279.22 3.10529 -0.491828 0
M  V30 14295 N 1282.99 1.54862 0.292472 0
M  V30 14296 C 1283.94 1.86403 1.36098 0
M  V30 14297 C 1284.91 0.713694 1.49985 0
M  V30 14298 O 1286.09 0.963134 1.64707 0
M  V30 14299 C 1283.23 2.1244 2.71962 0
M  V30 14300 C 1282.35 3.40038 2.66454 0
M  V30 14301 C 1281.48 3.55875 3.94368 0
M  V30 14302 C 1280.52 4.77235 3.83293 0
M  V30 14303 N 1279.66 4.89832 5.03 0
M  V30 14304 H 1284.5 2.77546 1.085 0
M  V30 14305 H 1282.03 1.37427 0.524607 0
M  V30 14306 H 1283.99 2.25533 3.50985 0
M  V30 14307 H 1282.62 1.24554 2.97802 0
M  V30 14308 H 1281.67 3.35521 1.79248 0
M  V30 14309 H 1282.99 4.29188 2.54163 0
M  V30 14310 H 1282.14 3.68679 4.8183 0
M  V30 14311 H 1280.88 2.64874 4.09503 0
M  V30 14312 H 1279.88 4.64455 2.94214 0
M  V30 14313 H 1281.11 5.69651 3.69695 0
M  V30 14314 H 1279.05 4.01756 5.18582 0
M  V30 14315 H 1278.97 5.72996 4.93165 0
M  V30 14316 H 1280.24 5.07001 5.92089 0
M  V30 14317 N 1284.47 -0.556076 1.47464 0
M  V30 14318 C 1285.42 -1.66304 1.60036 0
M  V30 14319 C 1286.39 -1.60074 0.443348 0
M  V30 14320 O 1287.57 -1.7889 0.663545 0
M  V30 14321 C 1284.71 -3.04624 1.62167 0
M  V30 14322 C 1283.82 -3.21283 2.88793 0
M  V30 14323 C 1282.96 -4.50008 2.82252 0
M  V30 14324 C 1282 -4.60103 4.03698 0
M  V30 14325 N 1281.13 -5.80184 3.95387 0
M  V30 14326 H 1285.97 -1.54897 2.5458 0
M  V30 14327 H 1283.51 -0.754533 1.26274 0
M  V30 14328 H 1285.47 -3.84721 1.61386 0
M  V30 14329 H 1284.1 -3.14865 0.711348 0
M  V30 14330 H 1283.15 -2.34611 2.99436 0
M  V30 14331 H 1284.46 -3.24607 3.78724 0
M  V30 14332 H 1283.62 -5.38366 2.79726 0
M  V30 14333 H 1282.36 -4.49165 1.90005 0
M  V30 14334 H 1281.36 -3.70157 4.06527 0
M  V30 14335 H 1282.59 -4.62704 4.97073 0
M  V30 14336 H 1280.53 -5.80288 3.05944 0
M  V30 14337 H 1280.45 -5.8489 4.78998 0
M  V30 14338 H 1281.72 -6.709 3.96879 0
M  V30 14339 N 1285.95 -1.35615 -0.802897 0
M  V30 14340 C 1287.18 -1.32025 -1.58911 0
M  V30 14341 C 1287.59 0.103539 -1.88916 0
M  V30 14342 O 1286.93 1.06699 -1.49536 0
M  V30 14343 C 1286.99 -2.06313 -2.94406 0
M  V30 14344 C 1286.65 -3.5548 -2.87198 0
M  V30 14345 C 1287.65 -4.5 -2.60377 0
M  V30 14346 C 1285.34 -3.9818 -3.06199 0
M  V30 14347 C 1287.33 -5.85194 -2.5264 0
M  V30 14348 C 1285.02 -5.33469 -2.98084 0
M  V30 14349 C 1286.02 -6.26788 -2.71341 0
M  V30 14350 O 1285.7 -7.59594 -2.63195 0
M  V30 14351 H 1285.44 -0.454943 -0.500003 0
M  V30 14352 H 1287.99 -1.79106 -1.00549 0
M  V30 14353 H 1286.22 -1.53875 -3.54766 0
M  V30 14354 H 1287.91 -1.95755 -3.55577 0
M  V30 14355 H 1288.67 -4.18327 -2.45413 0
M  V30 14356 H 1284.55 -3.25927 -3.26025 0
M  V30 14357 H 1288.1 -6.58003 -2.31686 0
M  V30 14358 H 1283.99 -5.64754 -3.12607 0
M  V30 14359 H 1284.76 -7.69562 -2.78776 0
M  V30 14360 N 1287.43 1.02549 -1.19673 0
M  V30 14361 C 1288.67 1.75408 -0.995732 0
M  V30 14362 C 1288.99 1.89773 0.473863 0
M  V30 14363 O 1290.19 2.59638 0.793762 0
M  V30 14364 C 1288.65 3.15444 -1.73273 0
M  V30 14365 C 1288.26 3.09121 -3.24266 0
M  V30 14366 C 1290 3.92575 -1.61509 0
M  V30 14367 C 1287.91 4.44109 -3.9054 0
M  V30 14368 H 1286.84 0.657569 -0.368944 0
M  V30 14369 H 1289.49 1.14739 -1.43203 0
M  V30 14370 H 1287.87 3.76601 -1.22425 0
M  V30 14371 H 1289.05 2.57325 -3.82257 0
M  V30 14372 H 1287.36 2.45485 -3.36342 0
M  V30 14373 H 1289.96 4.92428 -2.08372 0
M  V30 14374 H 1290.3 4.12382 -0.569804 0
M  V30 14375 H 1290.83 3.38027 -2.09721 0
M  V30 14376 H 1287.57 4.29506 -4.95182 0
M  V30 14377 H 1287.09 4.95947 -3.37337 0
M  V30 14378 H 1288.77 5.12982 -3.94282 0
M  V30 14379 N 1288.9 1.00119 1.21713 0
M  V30 14380 C 1289.85 0.551452 2.25969 0
M  V30 14381 C 1290.85 -0.402075 1.64559 0
M  V30 14382 O 1292.05 -0.273685 1.77907 0
M  V30 14383 H 1288.43 0.159968 0.734789 0
M  V30 14384 H 1290.4 1.44201 2.61244 0
M  V30 14385 C 1289.15 -0.109992 3.47526 0
M  V30 14386 H 1288.47 0.614686 3.95046 0
M  V30 14387 H 1289.91 -0.388007 4.22221 0
M  V30 14388 C 1288.37 -1.34798 3.08757 0
M  V30 14389 O 1288.9 -2.44266 3.189 0
M  V30 14390 N 1287.1 -1.2263 2.63458 0
M  V30 14391 H 1286.65 -0.335571 2.55405 0
M  V30 14392 H 1286.61 -2.05565 2.37887 0
M  V30 14393 N 1290.38 -1.37203 0.775435 0
M  V30 14394 C 1291.61 -2.03868 0.352927 0
M  V30 14395 C 1292.02 -1.58482 -1.0261 0
M  V30 14396 O 1291.38 -0.767772 -1.65564 0
M  V30 14397 C 1291.43 -3.59378 0.39116 0
M  V30 14398 O 1291.15 -4.03103 1.71579 0
M  V30 14399 C 1292.65 -4.4328 -0.0424808 0
M  V30 14400 H 1289.87 -0.654619 0.14736 0
M  V30 14401 H 1292.42 -1.75463 1.05039 0
M  V30 14402 H 1290.57 -3.86542 -0.257752 0
M  V30 14403 H 1290.99 -4.9764 1.65695 0
M  V30 14404 H 1292.46 -5.51989 0.0354215 0
M  V30 14405 H 1292.94 -4.25374 -1.09333 0
M  V30 14406 H 1293.54 -4.21349 0.578384 0
M  V30 14407 N 1291.86 -0.526279 -1.48553 0
M  V30 14408 C 1292.79 0.227364 -2.3239 0
M  V30 14409 C 1293.77 0.93862 -1.41859 0
M  V30 14410 O 1294.96 0.925119 -1.70749 0
M  V30 14411 C 1292.09 1.277 -3.22971 0
M  V30 14412 C 1291.04 0.684107 -4.22497 0
M  V30 14413 C 1290.37 1.83612 -5.02186 0
M  V30 14414 C 1291.67 -0.341723 -5.21181 0
M  V30 14415 H 1293.36 -0.472486 -2.95648 0
M  V30 14416 H 1290.91 -0.228669 -1.42173 0
M  V30 14417 H 1292.86 1.81215 -3.80446 0
M  V30 14418 H 1291.58 2.00638 -2.57705 0
M  V30 14419 H 1290.24 0.170505 -3.66203 0
M  V30 14420 H 1289.89 2.55379 -4.33348 0
M  V30 14421 H 1289.59 1.44536 -5.69547 0
M  V30 14422 H 1291.11 2.37513 -5.62512 0
M  V30 14423 H 1292.53 0.106207 -5.73202 0
M  V30 14424 H 1290.92 -0.649673 -5.96573 0
M  V30 14425 H 1291.99 -1.2488 -4.68543 0
M  V30 14426 N 1293.34 1.5542 -0.261239 0
M  V30 14427 C 1294.58 1.99579 0.36002 0
M  V30 14428 C 1294.92 1.14933 1.56538 0
M  V30 14429 O 1294.19 0.216082 1.93296 0
M  V30 14430 C 1294.47 3.52078 0.755842 0
M  V30 14431 C 1294.33 4.47484 -0.455896 0
M  V30 14432 C 1295.65 4.10083 1.5975 0
M  V30 14433 H 1292.77 0.725554 0.129385 0
M  V30 14434 H 1295.41 1.86453 -0.365415 0
M  V30 14435 H 1293.56 3.63394 1.37393 0
M  V30 14436 H 1295.23 4.4813 -1.09441 0
M  V30 14437 H 1293.47 4.19714 -1.09646 0
M  V30 14438 H 1294.14 5.51834 -0.13539 0
M  V30 14439 H 1296.62 4.01957 1.07562 0
M  V30 14440 H 1295.5 5.17024 1.84329 0
M  V30 14441 H 1295.76 3.59438 2.57404 0
M  V30 14442 N 1294.82 -0.0116844 1.57596 0
M  V30 14443 C 1296.23 -0.55604 1.78228 0
M  V30 14444 C 1296.58 -1.74624 0.894474 0
M  V30 14445 O 1295.7 -2.16196 0.0938498 0
M  V30 14446 C 1296.3 -1.0155 3.23223 0
M  V30 14447 C 1294.86 -1.50525 3.44992 0
M  V30 14448 C 1294 -0.451133 2.73606 0
M  V30 14449 H 1296.95 0.214516 1.57243 0
M  V30 14450 H 1296.98 -1.88208 3.30693 0
M  V30 14451 H 1296.49 -0.149048 3.87814 0
M  V30 14452 H 1294.59 -2.39298 2.856 0
M  V30 14453 H 1294.7 -1.54076 4.53649 0
M  V30 14454 H 1293.07 -0.910135 2.37884 0
M  V30 14455 H 1293.85 0.406152 3.40889 0
M  V30 14456 N 1296.29 -1.55015 -0.284256 0
M  V30 14457 C 1297.54 -1.74297 -1.01506 0
M  V30 14458 C 1297.86 -0.545134 -1.8785 0
M  V30 14459 O 1299.06 -0.620118 -2.64323 0
M  V30 14460 C 1297.52 -3.08438 -1.85456 0
M  V30 14461 C 1297.13 -4.35753 -1.04034 0
M  V30 14462 C 1298.87 -3.37073 -2.58035 0
M  V30 14463 C 1296.78 -5.60938 -1.87358 0
M  V30 14464 H 1295.71 -0.649656 -0.382705 0
M  V30 14465 H 1298.36 -1.81484 -0.271239 0
M  V30 14466 H 1296.74 -2.95259 -2.63891 0
M  V30 14467 H 1297.91 -4.59816 -0.300954 0
M  V30 14468 H 1296.23 -4.14178 -0.429616 0
M  V30 14469 H 1298.83 -4.27806 -3.20759 0
M  V30 14470 H 1299.17 -2.56698 -3.27738 0
M  V30 14471 H 1299.7 -3.51299 -1.86638 0
M  V30 14472 H 1296.44 -6.44029 -1.22096 0
M  V30 14473 H 1295.96 -5.41035 -2.58923 0
M  V30 14474 H 1297.64 -5.98819 -2.44999 0
M  V30 14475 N 1297.77 0.548248 -1.47757 0
M  V30 14476 C 1299 1.3302 -1.58472 0
M  V30 14477 C 1299.41 1.87292 -0.238186 0
M  V30 14478 O 1298.77 1.65465 0.76991 0
M  V30 14479 C 1298.82 2.49386 -2.61704 0
M  V30 14480 O 1298.54 1.97355 -3.9113 0
M  V30 14481 C 1300.04 3.41471 -2.82688 0
M  V30 14482 H 1297.26 0.405172 -0.534861 0
M  V30 14483 H 1299.81 0.663251 -1.93446 0
M  V30 14484 H 1297.96 3.12001 -2.29639 0
M  V30 14485 H 1298.38 2.7339 -4.47614 0
M  V30 14486 H 1299.85 4.19516 -3.58762 0
M  V30 14487 H 1300.33 3.95573 -1.90837 0
M  V30 14488 H 1300.93 2.84664 -3.15985 0
M  V30 14489 N 1299.25 1.36039 0.795694 0
M  V30 14490 C 1300.48 1.32866 1.58209 0
M  V30 14491 C 1300.89 -0.0935189 1.88969 0
M  V30 14492 O 1300.23 -1.05905 1.501 0
M  V30 14493 C 1300.29 2.07872 2.93308 0
M  V30 14494 C 1299.96 3.56999 2.85309 0
M  V30 14495 C 1300.95 4.51374 2.57987 0
M  V30 14496 C 1298.64 3.99798 3.04083 0
M  V30 14497 C 1300.63 5.86526 2.49533 0
M  V30 14498 C 1298.32 5.35042 2.95251 0
M  V30 14499 C 1299.32 6.28218 2.68013 0
M  V30 14500 O 1299.01 7.60979 2.59163 0
M  V30 14501 H 1298.74 0.457589 0.497583 0
M  V30 14502 H 1301.29 1.79637 0.995978 0
M  V30 14503 H 1299.52 1.55755 3.53945 0
M  V30 14504 H 1301.21 1.97638 3.54534 0
M  V30 14505 H 1301.98 4.19623 2.43191 0
M  V30 14506 H 1297.86 3.27652 3.24292 0
M  V30 14507 H 1301.4 6.59222 2.28193 0
M  V30 14508 H 1297.3 5.66404 3.09608 0
M  V30 14509 H 1298.06 7.7103 2.74691 0
M  V30 14510 N 1300.73 -1.01913 1.20215 0
M  V30 14511 C 1301.68 -2.08774 0.916367 0
M  V30 14512 C 1302.66 -1.60431 -0.122796 0
M  V30 14513 O 1303.85 -1.76799 0.0842336 0
M  V30 14514 C 1300.98 -3.40102 0.467517 0
M  V30 14515 C 1300.07 -3.95153 1.53997 0
M  V30 14516 N 1300.46 -4.23745 2.76178 0
M  V30 14517 C 1298.76 -4.23274 1.40554 0
M  V30 14518 C 1299.46 -4.681 3.45336 0
M  V30 14519 N 1298.44 -4.70224 2.72745 0
M  V30 14520 H 1302.24 -2.28786 1.84484 0
M  V30 14521 H 1299.75 -1.19861 1.09577 0
M  V30 14522 H 1301.75 -4.16184 0.244195 0
M  V30 14523 H 1300.41 -3.21505 -0.454358 0
M  V30 14524 H 1301.42 -4.12728 3.12852 0
M  V30 14525 H 1298.1 -4.1389 0.547877 0
M  V30 14526 H 1299.49 -4.99063 4.49873 0
M  V30 14527 N 1302.21 -1.00763 -1.2118 0
M  V30 14528 C 1303.62 -0.720905 -1.42391 0
M  V30 14529 C 1303.82 0.702918 -1.88842 0
M  V30 14530 O 1302.88 1.47191 -2.05161 0
M  V30 14531 C 1304.19 -1.739 -2.45315 0
M  V30 14532 C 1305.74 -1.75611 -2.59094 0
M  V30 14533 C 1306.21 -2.76323 -3.65253 0
M  V30 14534 N 1307.71 -2.75007 -3.72727 0
M  V30 14535 C 1308.44 -3.49594 -4.54502 0
M  V30 14536 N 1307.94 -4.33828 -5.40153 0
M  V30 14537 N 1309.73 -3.38232 -4.4895 0
M  V30 14538 H 1301.88 -1.92697 -0.893404 0
M  V30 14539 H 1304.14 -0.831888 -0.454606 0
M  V30 14540 H 1303.85 -2.75859 -2.18162 0
M  V30 14541 H 1303.72 -1.5438 -3.44161 0
M  V30 14542 H 1306.11 -0.743416 -2.85582 0
M  V30 14543 H 1306.19 -1.99203 -1.60474 0
M  V30 14544 H 1305.84 -3.77751 -3.39509 0
M  V30 14545 H 1305.77 -2.49996 -4.63476 0
M  V30 14546 H 1308.26 -2.13897 -3.11539 0
M  V30 14547 H 1308.57 -4.8753 -5.99612 0
M  V30 14548 H 1306.91 -4.3791 -5.39685 0
M  V30 14549 H 1310.11 -2.71855 -3.81068 0
M  V30 14550 H 1310.28 -3.96615 -5.12445 0
M  V30 14551 N 1303.68 1.3679 -0.7827 0
M  V30 14552 C 1304.61 2.32721 -0.190604 0
M  V30 14553 C 1305.6 1.56321 0.670663 0
M  V30 14554 O 1306.78 1.84507 0.605871 0
M  V30 14555 C 1303.91 3.40564 0.680717 0
M  V30 14556 C 1302.86 4.27925 -0.080118 0
M  V30 14557 C 1302.19 5.26876 0.911361 0
M  V30 14558 C 1303.49 5.06738 -1.26545 0
M  V30 14559 H 1305.18 2.82488 -0.992023 0
M  V30 14560 H 1302.73 1.35818 -0.478484 0
M  V30 14561 H 1304.68 4.06659 1.10482 0
M  V30 14562 H 1303.41 2.89348 1.51477 0
M  V30 14563 H 1302.07 3.63376 -0.485125 0
M  V30 14564 H 1301.71 4.71936 1.74026 0
M  V30 14565 H 1301.41 5.8619 0.406762 0
M  V30 14566 H 1302.94 5.95846 1.33418 0
M  V30 14567 H 1304.35 5.65911 -0.917448 0
M  V30 14568 H 1302.75 5.75432 -1.70289 0
M  V30 14569 H 1303.82 4.38772 -2.06415 0
M  V30 14570 N 1305.16 0.53415 1.48272 0
M  V30 14571 C 1306.11 -0.239672 2.31362 0
M  V30 14572 C 1307.1 -0.931501 1.4149 0
M  V30 14573 O 1308.31 -0.855411 1.58375 0
M  V30 14574 H 1304.69 -0.09616 0.745827 0
M  V30 14575 H 1306.66 0.480638 2.94504 0
M  V30 14576 C 1305.41 -1.27102 3.23636 0
M  V30 14577 H 1304.73 -0.748082 3.92739 0
M  V30 14578 H 1306.17 -1.78379 3.84652 0
M  V30 14579 C 1304.63 -2.30683 2.45534 0
M  V30 14580 O 1305.16 -3.37197 2.18314 0
M  V30 14581 N 1303.36 -2.04006 2.06954 0
M  V30 14582 H 1302.91 -1.17403 2.29291 0
M  V30 14583 H 1302.87 -2.73531 1.5501 0
M  V30 14584 N 1306.64 -1.55279 0.269478 0
M  V30 14585 C 1307.59 -2.22304 -0.620435 0
M  V30 14586 C 1308.56 -1.19457 -1.15409 0
M  V30 14587 O 1309.74 -1.4798 -1.20443 0
M  V30 14588 C 1306.88 -2.94356 -1.80134 0
M  V30 14589 C 1306 -4.1191 -1.30207 0
M  V30 14590 C 1305.13 -4.71621 -2.44433 0
M  V30 14591 C 1304.17 -5.81379 -1.91481 0
M  V30 14592 N 1303.31 -6.35176 -2.99158 0
M  V30 14593 H 1308.15 -2.9797 -0.0422165 0
M  V30 14594 H 1305.68 -1.47097 -0.00907173 0
M  V30 14595 H 1307.64 -3.34343 -2.4954 0
M  V30 14596 H 1306.27 -2.21124 -2.35168 0
M  V30 14597 H 1305.32 -3.77082 -0.501301 0
M  V30 14598 H 1306.64 -4.9108 -0.874183 0
M  V30 14599 H 1305.79 -5.14298 -3.21842 0
M  V30 14600 H 1304.53 -3.91715 -2.90535 0
M  V30 14601 H 1303.53 -5.38157 -1.12549 0
M  V30 14602 H 1304.76 -6.63149 -1.46322 0
M  V30 14603 H 1302.7 -5.58167 -3.44652 0
M  V30 14604 H 1302.62 -7.09602 -2.60769 0
M  V30 14605 H 1303.89 -6.82512 -3.7656 0
M  V30 14606 N 1308.12 0.00332656 -1.576 0
M  V30 14607 C 1309.07 1.01406 -2.09331 0
M  V30 14608 C 1310.06 1.35806 -1.01258 0
M  V30 14609 O 1311.27 1.34409 -1.19726 0
M  V30 14610 H 1307.64 0.344661 -0.668366 0
M  V30 14611 H 1309.61 0.552154 -2.93247 0
M  V30 14612 C 1308.36 2.29819 -2.60918 0
M  V30 14613 H 1307.68 2.04216 -3.43709 0
M  V30 14614 H 1309.12 2.98826 -3.00797 0
M  V30 14615 C 1307.58 3.0057 -1.52182 0
M  V30 14616 O 1308.11 3.91423 -0.902817 0
M  V30 14617 N 1306.32 2.62338 -1.25009 0
M  V30 14618 H 1305.87 1.88538 -1.75531 0
M  V30 14619 H 1305.82 3.0999 -0.524736 0
M  V30 14620 N 1309.6 1.55164 0.276031 0
M  V30 14621 C 1311.01 1.46936 0.623061 0
M  V30 14622 C 1311.21 0.680977 1.89644 0
M  V30 14623 O 1310.27 0.198618 2.51718 0
M  V30 14624 C 1311.58 2.91123 0.752839 0
M  V30 14625 C 1313.13 3.01319 0.847093 0
M  V30 14626 C 1313.6 4.46755 1.00867 0
M  V30 14627 N 1315.1 4.5057 1.07427 0
M  V30 14628 C 1315.83 5.60314 1.21804 0
M  V30 14629 N 1315.33 6.7993 1.32919 0
M  V30 14630 N 1317.12 5.4805 1.2489 0
M  V30 14631 H 1309.27 2.04877 -0.560282 0
M  V30 14632 H 1311.53 0.928925 -0.189217 0
M  V30 14633 H 1311.24 3.51521 -0.112333 0
M  V30 14634 H 1311.11 3.39967 1.63408 0
M  V30 14635 H 1313.5 2.41021 1.70274 0
M  V30 14636 H 1313.58 2.55733 -0.0586896 0
M  V30 14637 H 1313.23 5.07655 0.1577 0
M  V30 14638 H 1313.16 4.89995 1.92906 0
M  V30 14639 H 1315.65 3.64404 1.00089 0
M  V30 14640 H 1315.96 7.59319 1.43714 0
M  V30 14641 H 1314.3 6.82747 1.29929 0
M  V30 14642 H 1317.5 4.53542 1.15834 0
M  V30 14643 H 1317.67 6.33621 1.3575 0
M  V30 14644 N 1311.07 -0.540404 1.48045 0
M  V30 14645 C 1312.3 -1.32177 1.59175 0
M  V30 14646 C 1312.72 -1.87163 0.248115 0
M  V30 14647 O 1312.07 -1.65871 -0.761124 0
M  V30 14648 C 1312.13 -2.47995 2.63023 0
M  V30 14649 O 1311.85 -1.95278 3.92171 0
M  V30 14650 C 1313.35 -3.39967 2.84495 0
M  V30 14651 H 1310.57 -0.40233 0.537002 0
M  V30 14652 H 1313.11 -0.652983 1.93795 0
M  V30 14653 H 1311.27 -3.10779 2.31291 0
M  V30 14654 H 1311.68 -2.71012 4.49058 0
M  V30 14655 H 1313.15 -4.17607 3.60982 0
M  V30 14656 H 1313.63 -3.94555 1.92932 0
M  V30 14657 H 1314.24 -2.82985 3.1749 0
M  V30 14658 N 1312.55 -1.36459 -0.788468 0
M  V30 14659 C 1313.78 -1.33898 -1.57731 0
M  V30 14660 C 1314.2 0.0795471 -1.88632 0
M  V30 14661 O 1313.55 1.03671 -1.50195 0
M  V30 14662 C 1313.6 -2.16134 -2.89773 0
M  V30 14663 O 1313.32 -3.52457 -2.60203 0
M  V30 14664 C 1314.83 -2.21364 -3.84074 0
M  V30 14665 H 1312.05 -0.459269 -0.489197 0
M  V30 14666 H 1314.59 -1.79569 -0.978526 0
M  V30 14667 H 1312.74 -1.74015 -3.46118 0
M  V30 14668 H 1313.16 -3.95378 -3.4464 0
M  V30 14669 H 1314.63 -2.83261 -4.7378 0
M  V30 14670 H 1315.11 -1.21736 -4.21992 0
M  V30 14671 H 1315.72 -2.63723 -3.33662 0
M  V30 14672 N 1314.03 1.01274 -1.20754 0
M  V30 14673 C 1314.98 2.09894 -0.959852 0
M  V30 14674 C 1315.95 1.65726 0.111351 0
M  V30 14675 O 1317.13 1.90769 -0.0341721 0
M  V30 14676 C 1314.27 3.41126 -0.52223 0
M  V30 14677 C 1313.39 3.98749 -1.66202 0
M  V30 14678 C 1312.52 5.18057 -1.17432 0
M  V30 14679 C 1311.56 5.67772 -2.28694 0
M  V30 14680 N 1310.7 6.78338 -1.81114 0
M  V30 14681 H 1315.54 2.30416 -1.88977 0
M  V30 14682 H 1313.07 1.12989 -0.941906 0
M  V30 14683 H 1315.03 4.16451 -0.249799 0
M  V30 14684 H 1313.66 3.20665 0.370688 0
M  V30 14685 H 1312.71 3.20483 -2.04927 0
M  V30 14686 H 1314.03 4.31646 -2.49967 0
M  V30 14687 H 1313.18 6.00601 -0.858086 0
M  V30 14688 H 1311.92 4.86735 -0.306614 0
M  V30 14689 H 1310.92 4.8383 -2.61129 0
M  V30 14690 H 1312.15 6.01127 -3.15948 0
M  V30 14691 H 1310.09 6.48837 -0.966761 0
M  V30 14692 H 1310.01 7.10448 -2.58457 0
M  V30 14693 H 1311.28 7.64437 -1.52502 0
M  V30 14694 N 1315.51 1.01404 1.20644 0
M  V30 14695 C 1316.42 0.591693 2.27016 0
M  V30 14696 C 1317.44 -0.36958 1.7003 0
M  V30 14697 O 1318.61 -0.231165 2.00069 0
M  V30 14698 C 1315.68 -0.0659827 3.46637 0
M  V30 14699 C 1314.74 0.940911 4.18862 0
M  V30 14700 C 1313.97 0.314526 5.32772 0
M  V30 14701 O 1314.19 -0.886404 5.63471 0
M  V30 14702 O 1313.13 1.02998 5.93022 0
M  V30 14703 H 1316.95 1.4772 2.65353 0
M  V30 14704 H 1314.54 0.783399 1.27213 0
M  V30 14705 H 1316.42 -0.433412 4.19165 0
M  V30 14706 H 1315.1 -0.925729 3.10181 0
M  V30 14707 H 1314 1.35966 3.48517 0
M  V30 14708 H 1315.34 1.77054 4.59252 0
M  V30 14709 N 1316.99 -1.36373 0.789944 0
M  V30 14710 C 1318.21 -2.04011 0.373396 0
M  V30 14711 C 1318.64 -1.59171 -1.00231 0
M  V30 14712 O 1318 -0.760431 -1.64582 0
M  V30 14713 C 1318.04 -3.5783 0.446083 0
M  V30 14714 O 1317.15 -4.08759 -0.54678 0
M  V30 14715 H 1316.49 -0.644807 0.158495 0
M  V30 14716 H 1319.02 -1.74317 1.0712 0
M  V30 14717 H 1319.03 -4.06822 0.309877 0
M  V30 14718 H 1317.7 -3.89819 1.44962 0
M  V30 14719 H 1316.28 -3.71038 -0.372192 0
M  V30 14720 N 1318.47 -0.542005 -1.47987 0
M  V30 14721 C 1319.88 -0.200691 -1.58333 0
M  V30 14722 C 1320.08 1.29643 -1.54256 0
M  V30 14723 O 1319.14 2.07556 -1.43794 0
M  V30 14724 C 1320.45 -0.813878 -2.89476 0
M  V30 14725 C 1322 -0.783711 -3.0303 0
M  V30 14726 C 1322.47 -1.37569 -4.36851 0
M  V30 14727 N 1323.96 -1.33819 -4.43449 0
M  V30 14728 C 1324.7 -1.76602 -5.45527 0
M  V30 14729 N 1324.2 -2.27169 -6.54497 0
M  V30 14730 N 1325.99 -1.67765 -5.3648 0
M  V30 14731 H 1318.14 -1.51488 -1.4888 0
M  V30 14732 H 1320.4 -0.630835 -0.707638 0
M  V30 14733 H 1320.11 -1.86544 -2.98151 0
M  V30 14734 H 1319.98 -0.297978 -3.76021 0
M  V30 14735 H 1322.37 0.259118 -2.9396 0
M  V30 14736 H 1322.45 -1.33721 -2.18065 0
M  V30 14737 H 1322.09 -2.41751 -4.46675 0
M  V30 14738 H 1322.02 -0.797769 -5.20522 0
M  V30 14739 H 1324.52 -0.968147 -3.65288 0
M  V30 14740 H 1324.83 -2.57777 -7.2854 0
M  V30 14741 H 1323.17 -2.31171 -6.55427 0
M  V30 14742 H 1326.36 -1.28048 -4.50246 0
M  V30 14743 H 1326.54 -2.01426 -6.15899 0
M  V30 14744 N 1319.94 1.55134 -0.277709 0
M  V30 14745 C 1321.22 1.91667 0.390253 0
M  V30 14746 C 1321.6 1.20228 1.73518 0
M  V30 14747 O 1320.95 0.330013 2.26104 0
M  V30 14748 C 1321.16 3.44983 0.52797 0
M  V30 14749 C 1322.51 4.16809 0.809665 0
M  V30 14750 O 1323.53 3.50891 0.612679 0
M  V30 14751 O 1322.39 5.33463 1.18656 0
M  V30 14752 H 1319.48 0.798807 0.214095 0
M  V30 14753 H 1322.03 1.66577 -0.324053 0
M  V30 14754 H 1320.8 3.89056 -0.418422 0
M  V30 14755 H 1320.42 3.76035 1.29164 0
M  V30 14756 N 1321.42 0.00503138 1.57599 0
M  V30 14757 C 1322.35 -1.01883 2.04194 0
M  V30 14758 C 1323.33 -1.33183 0.9328 0
M  V30 14759 O 1324.52 -1.45261 1.20131 0
M  V30 14760 C 1321.64 -2.34515 2.44377 0
M  V30 14761 C 1320.69 -2.18843 3.66074 0
M  V30 14762 S 1321.52 -1.50975 5.13777 0
M  V30 14763 C 1322.68 -2.85027 5.57235 0
M  V30 14764 H 1322.91 -0.622099 2.90718 0
M  V30 14765 H 1320.44 -0.205983 1.5302 0
M  V30 14766 H 1322.4 -3.10775 2.68196 0
M  V30 14767 H 1321.06 -2.71327 1.58243 0
M  V30 14768 H 1320.26 -3.16836 3.91958 0
M  V30 14769 H 1319.86 -1.50727 3.42283 0
M  V30 14770 H 1322.15 -3.81318 5.60002 0
M  V30 14771 H 1323.09 -2.63837 6.57112 0
M  V30 14772 H 1323.5 -2.89168 4.84812 0
M  V30 14773 N 1322.9 -1.55308 -0.267798 0
M  V30 14774 C 1324.13 -1.79929 -1.01533 0
M  V30 14775 C 1324.54 -0.57545 -1.80237 0
M  V30 14776 O 1323.88 0.465072 -1.77715 0
M  V30 14777 C 1323.94 -2.97568 -2.01726 0
M  V30 14778 C 1323.61 -4.34407 -1.41912 0
M  V30 14779 C 1324.6 -5.13197 -0.832151 0
M  V30 14780 C 1322.29 -4.81074 -1.44476 0
M  V30 14781 C 1324.28 -6.3679 -0.278781 0
M  V30 14782 C 1321.97 -6.04621 -0.887535 0
M  V30 14783 C 1322.97 -6.82316 -0.305548 0
M  V30 14784 O 1322.66 -8.03532 0.243133 0
M  V30 14785 H 1322.39 -0.603082 -0.305398 0
M  V30 14786 H 1324.94 -2.03162 -0.302378 0
M  V30 14787 H 1323.17 -2.7004 -2.76795 0
M  V30 14788 H 1324.86 -3.09466 -2.62651 0
M  V30 14789 H 1325.63 -4.78273 -0.805 0
M  V30 14790 H 1321.51 -4.20604 -1.88714 0
M  V30 14791 H 1325.05 -6.97378 0.176117 0
M  V30 14792 H 1320.95 -6.39026 -0.911943 0
M  V30 14793 H 1321.71 -8.18392 0.132991 0
M  V30 14794 N 1324.38 0.532545 -1.4833 0
M  V30 14795 C 1325.62 1.28851 -1.56217 0
M  V30 14796 C 1325.95 1.93076 -0.234967 0
M  V30 14797 O 1325.21 1.79722 0.774508 0
M  V30 14798 C 1325.51 2.40117 -2.64724 0
M  V30 14799 C 1325.17 1.93562 -4.0724 0
M  V30 14800 C 1323.83 1.80583 -4.46031 0
M  V30 14801 C 1326.19 1.58349 -4.96563 0
M  V30 14802 C 1323.51 1.30722 -5.71952 0
M  V30 14803 C 1325.87 1.09951 -6.22972 0
M  V30 14804 C 1324.53 0.955866 -6.60621 0
M  V30 14805 H 1323.8 0.4715 -0.571637 0
M  V30 14806 H 1326.45 0.594564 -1.82036 0
M  V30 14807 H 1324.75 3.15171 -2.32754 0
M  V30 14808 H 1326.45 2.98252 -2.68042 0
M  V30 14809 H 1323.04 2.04614 -3.76605 0
M  V30 14810 H 1327.22 1.67237 -4.67274 0
M  V30 14811 H 1322.48 1.18286 -5.99849 0
M  V30 14812 H 1326.65 0.817736 -6.91582 0
M  V30 14813 H 1324.28 0.567302 -7.5808 0
M  V30 14814 N 1325.86 1.36875 0.78122 0
M  V30 14815 C 1326.8 1.31941 1.91557 0
M  V30 14816 C 1327.8 0.209783 1.68096 0
M  V30 14817 O 1329 0.377266 1.76002 0
M  V30 14818 H 1325.38 0.410955 0.629778 0
M  V30 14819 H 1327.35 2.27721 1.92836 0
M  V30 14820 C 1326.1 1.13379 3.28695 0
M  V30 14821 H 1325.42 1.98013 3.47319 0
M  V30 14822 H 1326.86 1.13976 4.08394 0
M  V30 14823 C 1325.32 -0.161119 3.36515 0
M  V30 14824 O 1325.85 -1.14806 3.84945 0
M  V30 14825 N 1324.06 -0.208594 2.8985 0
M  V30 14826 H 1323.6 0.595187 2.5063 0
M  V30 14827 H 1323.56 -1.07465 2.95463 0
M  V30 14828 N 1327.33 -1.00632 1.21289 0
M  V30 14829 C 1328.56 -1.77709 1.05371 0
M  V30 14830 C 1328.97 -1.84933 -0.39956 0
M  V30 14831 O 1328.31 -1.30881 -1.28903 0
M  V30 14832 C 1328.38 -3.23206 1.5741 0
M  V30 14833 C 1328.04 -3.39563 3.05852 0
M  V30 14834 C 1329.04 -3.27952 4.03415 0
M  V30 14835 C 1326.72 -3.65048 3.4503 0
M  V30 14836 C 1328.72 -3.41587 5.38142 0
M  V30 14837 C 1326.4 -3.78325 4.7991 0
M  V30 14838 C 1327.4 -3.66601 5.76275 0
M  V30 14839 O 1327.09 -3.79458 7.08708 0
M  V30 14840 H 1326.82 -0.565369 0.370585 0
M  V30 14841 H 1329.38 -1.27483 1.6105 0
M  V30 14842 H 1327.61 -3.74562 0.96126 0
M  V30 14843 H 1329.29 -3.81953 1.37356 0
M  V30 14844 H 1330.06 -3.0819 3.74492 0
M  V30 14845 H 1325.94 -3.73256 2.70557 0
M  V30 14846 H 1329.48 -3.32353 6.13341 0
M  V30 14847 H 1325.38 -3.97591 5.08519 0
M  V30 14848 H 1326.15 -3.96413 7.161 0
M  V30 14849 N 1328.81 -1.02043 -1.20104 0
M  V30 14850 C 1329.74 -0.614421 -2.25271 0
M  V30 14851 C 1330.72 0.37242 -1.65973 0
M  V30 14852 O 1331.91 0.257005 -1.92492 0
M  V30 14853 C 1329.04 0.0442085 -3.47272 0
M  V30 14854 C 1327.99 -0.864019 -4.19188 0
M  V30 14855 C 1327.32 -0.0709551 -5.34653 0
M  V30 14856 C 1328.62 -2.17385 -4.74912 0
M  V30 14857 H 1330.31 -1.49355 -2.59487 0
M  V30 14858 H 1327.86 -0.719591 -1.24731 0
M  V30 14859 H 1329.81 0.339825 -4.20028 0
M  V30 14860 H 1328.53 0.958082 -3.12231 0
M  V30 14861 H 1327.19 -1.1437 -3.48303 0
M  V30 14862 H 1326.84 0.844688 -4.95857 0
M  V30 14863 H 1326.54 -0.67583 -5.83701 0
M  V30 14864 H 1328.07 0.218118 -6.1021 0
M  V30 14865 H 1329.48 -1.94034 -5.39466 0
M  V30 14866 H 1327.88 -2.72991 -5.34412 0
M  V30 14867 H 1328.95 -2.83427 -3.93443 0
M  V30 14868 N 1330.29 1.35952 -0.797165 0
M  V30 14869 C 1331.54 1.99327 -0.373695 0
M  V30 14870 C 1331.87 1.63111 1.05396 0
M  V30 14871 O 1331.14 0.889736 1.72956 0
M  V30 14872 C 1331.43 3.5593 -0.54641 0
M  V30 14873 C 1331.28 4.01975 -2.01832 0
M  V30 14874 C 1332.6 4.40087 0.0337694 0
M  V30 14875 H 1329.72 0.724107 -0.137254 0
M  V30 14876 H 1332.36 1.61248 -1.00495 0
M  V30 14877 H 1330.51 3.88499 -0.00903959 0
M  V30 14878 H 1332.18 3.79859 -2.61735 0
M  V30 14879 H 1330.43 3.5323 -2.51815 0
M  V30 14880 H 1331.1 5.109 -2.09009 0
M  V30 14881 H 1333.57 4.13923 -0.425039 0
M  V30 14882 H 1332.45 5.48775 -0.117054 0
M  V30 14883 H 1332.71 4.27504 1.12661 0
M  V30 14884 N 1331.77 0.549846 1.47697 0
M  V30 14885 C 1332.72 -0.215119 2.31603 0
M  V30 14886 C 1333.71 -0.916441 1.4247 0
M  V30 14887 O 1334.92 -0.838565 1.59274 0
M  V30 14888 H 1331.29 -0.0882441 0.746805 0
M  V30 14889 H 1333.26 0.511847 2.93977 0
M  V30 14890 C 1332.01 -1.23662 3.24966 0
M  V30 14891 H 1331.33 -0.706384 3.9351 0
M  V30 14892 H 1332.77 -1.7429 3.86522 0
M  V30 14893 C 1331.23 -2.28066 2.47967 0
M  V30 14894 O 1331.76 -3.34862 2.21879 0
M  V30 14895 N 1329.97 -2.01799 2.09106 0
M  V30 14896 H 1329.52 -1.14965 2.30523 0
M  V30 14897 H 1329.47 -2.71872 1.57902 0
M  V30 14898 N 1333.25 -1.54984 0.285932 0
M  V30 14899 C 1334.48 -2.03943 -0.330295 0
M  V30 14900 C 1334.88 -1.16336 -1.49207 0
M  V30 14901 O 1334.23 -0.178341 -1.82832 0
M  V30 14902 C 1334.29 -3.48976 -0.863479 0
M  V30 14903 C 1333.95 -4.5668 0.171058 0
M  V30 14904 C 1334.95 -5.10303 0.994329 0
M  V30 14905 C 1332.64 -5.01352 0.308416 0
M  V30 14906 C 1334.63 -6.07126 1.94104 0
M  V30 14907 C 1332.32 -5.97999 1.25859 0
M  V30 14908 C 1333.31 -6.50768 2.0734 0
M  V30 14909 O 1333 -7.45524 3.00749 0
M  V30 14910 H 1332.73 -0.671491 -0.0779452 0
M  V30 14911 H 1335.29 -2.01081 0.419011 0
M  V30 14912 H 1333.52 -3.49113 -1.66305 0
M  V30 14913 H 1335.21 -3.81213 -1.39396 0
M  V30 14914 H 1335.97 -4.76595 0.899002 0
M  V30 14915 H 1331.85 -4.59917 -0.315817 0
M  V30 14916 H 1335.4 -6.48239 2.57743 0
M  V30 14917 H 1331.29 -6.31125 1.35469 0
M  V30 14918 H 1332.06 -7.63276 2.95554 0
M  V30 14919 N 1334.72 -0.0133892 -1.57594 0
M  V30 14920 C 1335.67 0.991796 -2.10395 0
M  V30 14921 C 1336.67 1.34724 -1.02693 0
M  V30 14922 O 1337.87 1.33131 -1.21145 0
M  V30 14923 H 1334.25 0.337553 -0.671984 0
M  V30 14924 H 1336.22 0.52102 -2.93816 0
M  V30 14925 C 1334.97 2.27039 -2.63341 0
M  V30 14926 H 1334.29 2.00559 -3.45855 0
M  V30 14927 H 1335.73 2.95619 -3.0395 0
M  V30 14928 C 1334.19 2.98939 -1.55362 0
M  V30 14929 O 1334.72 3.90444 -0.944282 0
M  V30 14930 N 1332.93 2.60997 -1.27784 0
M  V30 14931 H 1332.47 1.86666 -1.77521 0
M  V30 14932 H 1332.43 3.09416 -0.557585 0
M  V30 14933 N 1336.2 1.55448 0.259558 0
M  V30 14934 C 1337.62 1.47588 0.607442 0
M  V30 14935 C 1337.82 0.701053 1.88911 0
M  V30 14936 O 1336.87 0.225305 2.51493 0
M  V30 14937 C 1338.19 2.91905 0.72192 0
M  V30 14938 C 1339.74 3.02201 0.815087 0
M  V30 14939 C 1340.21 4.47799 0.961231 0
M  V30 14940 N 1341.7 4.51684 1.02642 0
M  V30 14941 C 1342.44 5.61574 1.15854 0
M  V30 14942 N 1341.93 6.81301 1.257 0
M  V30 14943 N 1343.73 5.49344 1.1907 0
M  V30 14944 H 1335.88 2.04271 -0.581981 0
M  V30 14945 H 1338.14 0.926865 -0.199059 0
M  V30 14946 H 1337.85 3.51382 -0.149611 0
M  V30 14947 H 1337.72 3.41681 1.59793 0
M  V30 14948 H 1340.11 2.42813 1.67708 0
M  V30 14949 H 1340.19 2.55656 -0.0858102 0
M  V30 14950 H 1339.83 5.07794 0.103848 0
M  V30 14951 H 1339.76 4.92013 1.87698 0
M  V30 14952 H 1342.25 3.65446 0.962184 0
M  V30 14953 H 1342.57 7.60801 1.35652 0
M  V30 14954 H 1340.91 6.84087 1.2268 0
M  V30 14955 H 1344.1 4.54745 1.11018 0
M  V30 14956 H 1344.27 6.35025 1.29022 0
M  V30 14957 N 1337.68 -0.524672 1.4861 0
M  V30 14958 C 1338.63 -1.64965 1.6398 0
M  V30 14959 C 1339.62 -1.61663 0.506118 0
M  V30 14960 O 1340.83 -1.66456 0.685013 0
M  V30 14961 H 1337.2 -0.546419 0.516653 0
M  V30 14962 H 1339.17 -1.49146 2.58453 0
M  V30 14963 C 1337.92 -3.03215 1.70165 0
M  V30 14964 H 1337.25 -3.06451 2.56764 0
M  V30 14965 H 1338.69 -3.8153 1.84962 0
M  V30 14966 C 1337.15 -3.33996 0.44143 0
M  V30 14967 O 1337.68 -3.99246 -0.443356 0
M  V30 14968 N 1335.88 -2.88925 0.311518 0
M  V30 14969 H 1335.43 -2.36003 1.0325 0
M  V30 14970 H 1335.39 -3.09889 -0.530655 0
M  V30 14971 N 1339.16 -1.37287 -0.77395 0
M  V30 14972 C 1340.44 -1.2291 -1.52159 0
M  V30 14973 C 1340.82 0.178249 -2.10346 0
M  V30 14974 O 1340.16 1.18564 -1.95333 0
M  V30 14975 C 1340.37 -2.32337 -2.60424 0
M  V30 14976 C 1341.72 -2.69769 -3.27887 0
M  V30 14977 O 1342.75 -2.31497 -2.70717 0
M  V30 14978 O 1341.6 -3.35699 -4.31241 0
M  V30 14979 H 1338.7 -0.47948 -0.673816 0
M  V30 14980 H 1341.24 -1.49061 -0.811105 0
M  V30 14981 H 1340.02 -3.26591 -2.15532 0
M  V30 14982 H 1339.64 -2.07638 -3.39076 0
M  V30 14983 N 1340.64 0.999871 -1.21821 0
M  V30 14984 C 1341.58 2.08864 -0.98206 0
M  V30 14985 C 1342.55 1.65835 0.0937677 0
M  V30 14986 O 1343.74 1.90722 -0.0544038 0
M  V30 14987 C 1340.88 3.40553 -0.558382 0
M  V30 14988 C 1339.99 3.96964 -1.70422 0
M  V30 14989 C 1339.13 5.16782 -1.2292 0
M  V30 14990 C 1338.17 5.65315 -2.34703 0
M  V30 14991 N 1337.3 6.76379 -1.88299 0
M  V30 14992 H 1342.14 2.28399 -1.9141 0
M  V30 14993 H 1339.68 1.11984 -0.953837 0
M  V30 14994 H 1341.64 4.16163 -0.293955 0
M  V30 14995 H 1340.27 3.2104 0.336656 0
M  V30 14996 H 1339.32 3.18291 -2.08315 0
M  V30 14997 H 1340.63 4.2897 -2.54531 0
M  V30 14998 H 1339.79 5.99657 -0.92174 0
M  V30 14999 H 1338.52 4.86383 -0.358222 0
M  V30 15000 H 1337.53 4.81033 -2.66246 0
M  V30 15001 H 1338.75 5.97742 -3.22306 0
M  V30 15002 H 1336.7 6.47775 -1.03552 0
M  V30 15003 H 1336.62 7.07666 -2.65978 0
M  V30 15004 H 1337.89 7.62776 -1.60601 0
M  V30 15005 N 1342.11 1.02678 1.19562 0
M  V30 15006 C 1343.02 0.615738 2.26375 0
M  V30 15007 C 1344.04 -0.351525 1.70412 0
M  V30 15008 O 1345.22 -0.209932 2.00303 0
M  V30 15009 C 1342.28 -0.0292135 3.46688 0
M  V30 15010 C 1341.34 0.985284 4.1784 0
M  V30 15011 C 1340.58 0.371016 5.32409 0
M  V30 15012 O 1340.8 -0.826591 5.64379 0
M  V30 15013 O 1339.73 1.09282 5.91896 0
M  V30 15014 H 1343.56 1.50526 2.63772 0
M  V30 15015 H 1341.14 0.796847 1.26375 0
M  V30 15016 H 1343.03 -0.38893 4.19601 0
M  V30 15017 H 1341.7 -0.892778 3.11145 0
M  V30 15018 H 1340.61 1.39655 3.47055 0
M  V30 15019 H 1341.94 1.81915 4.57349 0
M  V30 15020 N 1343.59 -1.35528 0.804364 0
M  V30 15021 C 1344.52 -2.28562 0.170893 0
M  V30 15022 C 1345.54 -1.50178 -0.628526 0
M  V30 15023 O 1346.73 -1.72438 -0.461252 0
M  V30 15024 C 1343.83 -3.29792 -0.780434 0
M  V30 15025 C 1343 -4.37391 -0.0278619 0
M  V30 15026 C 1342.06 -5.18492 -0.897341 0
M  V30 15027 O 1341.08 -5.68128 -0.349098 0
M  V30 15028 N 1342.29 -5.36385 -2.21971 0
M  V30 15029 H 1345.05 -2.83565 0.970108 0
M  V30 15030 H 1342.61 -1.47854 0.659617 0
M  V30 15031 H 1344.6 -3.80939 -1.36628 0
M  V30 15032 H 1343.17 -2.7532 -1.48046 0
M  V30 15033 H 1342.39 -3.87208 0.739178 0
M  V30 15034 H 1343.68 -5.06426 0.490889 0
M  V30 15035 H 1343.08 -4.97699 -2.6891 0
M  V30 15036 H 1341.64 -5.90721 -2.75485 0
M  V30 15037 N 1345.07 -0.557671 -1.47404 0
M  V30 15038 C 1346.02 0.202834 -2.31714 0
M  V30 15039 C 1347.01 0.908873 -1.42954 0
M  V30 15040 O 1348.22 0.830106 -1.59716 0
M  V30 15041 H 1344.59 0.0842824 -0.747262 0
M  V30 15042 H 1346.57 -0.527431 -2.93702 0
M  V30 15043 C 1345.31 1.21937 -3.25617 0
M  V30 15044 H 1344.64 0.685506 -3.93879 0
M  V30 15045 H 1346.08 1.72237 -3.87441 0
M  V30 15046 C 1344.54 2.26748 -2.49173 0
M  V30 15047 O 1345.07 3.33681 -2.23651 0
M  V30 15048 N 1343.27 2.00687 -2.10174 0
M  V30 15049 H 1342.82 1.13741 -2.3113 0
M  V30 15050 H 1342.78 2.71031 -1.59342 0
M  V30 15051 N 1346.55 1.54831 -0.294147 0
M  V30 15052 C 1347.5 2.23263 0.58499 0
M  V30 15053 C 1348.47 1.21278 1.13494 0
M  V30 15054 O 1349.65 1.49878 1.18073 0
M  V30 15055 C 1346.79 2.97185 1.75429 0
M  V30 15056 C 1345.9 4.1393 1.23638 0
M  V30 15057 C 1345.04 4.7545 2.36899 0
M  V30 15058 C 1344.08 5.84352 1.82207 0
M  V30 15059 N 1343.22 6.39855 2.89015 0
M  V30 15060 H 1348.06 2.98 -0.00519329 0
M  V30 15061 H 1345.59 1.47093 -0.0143313 0
M  V30 15062 H 1347.55 3.38271 2.4419 0
M  V30 15063 H 1346.18 2.24837 2.3162 0
M  V30 15064 H 1345.23 3.77832 0.441247 0
M  V30 15065 H 1346.54 4.92409 0.795946 0
M  V30 15066 H 1345.7 5.19353 3.1362 0
M  V30 15067 H 1344.44 3.96288 2.84266 0
M  V30 15068 H 1343.44 5.39879 1.03974 0
M  V30 15069 H 1344.67 6.65393 1.35753 0
M  V30 15070 H 1342.61 5.6358 3.35729 0
M  V30 15071 H 1342.53 7.13661 2.49447 0
M  V30 15072 H 1343.8 6.88417 3.65654 0
M  V30 15073 N 1348.03 0.0217466 1.57585 0
M  V30 15074 C 1349.3 -0.696733 1.8277 0
M  V30 15075 C 1349.68 -1.90759 0.904112 0
M  V30 15076 O 1349.03 -2.28461 -0.0420522 0
M  V30 15077 C 1349.24 -1.08193 3.31806 0
M  V30 15078 C 1350.59 -1.47667 3.98095 0
M  V30 15079 O 1351.61 -1.17511 3.36258 0
M  V30 15080 O 1350.47 -2.03825 5.07068 0
M  V30 15081 H 1347.57 -0.341141 0.75336 0
M  V30 15082 H 1350.11 0.0488652 1.6963 0
M  V30 15083 H 1348.89 -0.219799 3.90682 0
M  V30 15084 H 1348.51 -1.88593 3.50026 0
M  V30 15085 N 1349.51 -1.55583 -0.251311 0
M  V30 15086 C 1350.75 -1.76411 -0.977859 0
M  V30 15087 C 1351.07 -0.584857 -1.86651 0
M  V30 15088 O 1352.27 -0.676046 -2.62948 0
M  V30 15089 C 1350.73 -3.12302 -1.78872 0
M  V30 15090 C 1350.34 -4.37862 -0.947674 0
M  V30 15091 C 1352.08 -3.42471 -2.50827 0
M  V30 15092 C 1349.99 -5.64786 -1.75417 0
M  V30 15093 H 1348.92 -0.657628 -0.368839 0
M  V30 15094 H 1351.57 -1.82019 -0.232682 0
M  V30 15095 H 1349.95 -3.0079 -2.57569 0
M  V30 15096 H 1351.13 -4.60351 -0.203352 0
M  V30 15097 H 1349.44 -4.14996 -0.341666 0
M  V30 15098 H 1352.04 -4.34514 -3.11612 0
M  V30 15099 H 1352.38 -2.63592 -3.22219 0
M  V30 15100 H 1352.91 -3.55179 -1.79145 0
M  V30 15101 H 1349.65 -6.46474 -1.08407 0
M  V30 15102 H 1349.17 -5.46405 -2.47389 0
M  V30 15103 H 1350.85 -6.03881 -2.32242 0
M  V30 15104 N 1350.98 0.516783 -1.48886 0
M  V30 15105 C 1352.21 1.2944 -1.61024 0
M  V30 15106 C 1352.62 1.87195 -0.274705 0
M  V30 15107 O 1351.96 1.67787 0.747868 0
M  V30 15108 C 1352.03 2.4743 -2.60804 0
M  V30 15109 C 1351.69 2.10663 -4.05549 0
M  V30 15110 C 1352.69 1.65559 -4.92835 0
M  V30 15111 C 1350.37 2.20782 -4.51177 0
M  V30 15112 C 1352.37 1.31057 -6.23781 0
M  V30 15113 C 1350.05 1.85891 -5.82141 0
M  V30 15114 C 1351.05 1.41101 -6.68266 0
M  V30 15115 O 1350.74 1.06674 -7.96791 0
M  V30 15116 H 1350.47 0.399402 -0.545394 0
M  V30 15117 H 1353.03 0.628719 -1.95541 0
M  V30 15118 H 1351.26 3.17023 -2.21435 0
M  V30 15119 H 1352.94 3.09478 -2.62637 0
M  V30 15120 H 1353.71 1.57201 -4.58817 0
M  V30 15121 H 1349.59 2.54598 -3.84319 0
M  V30 15122 H 1353.13 0.960245 -6.9096 0
M  V30 15123 H 1349.03 1.93894 -6.15691 0
M  V30 15124 H 1349.8 1.19958 -8.09662 0
M  V30 15125 N 1352.46 1.37696 0.766659 0
M  V30 15126 C 1353.71 1.33382 1.52765 0
M  V30 15127 C 1354.04 -0.0800569 1.94035 0
M  V30 15128 O 1353.32 -1.03848 1.64456 0
M  V30 15129 C 1353.6 2.2776 2.78922 0
M  V30 15130 C 1353.45 3.77949 2.43874 0
M  V30 15131 C 1354.77 2.20494 3.80881 0
M  V30 15132 H 1351.89 0.485836 0.554195 0
M  V30 15133 H 1354.53 1.68438 0.879119 0
M  V30 15134 H 1352.68 1.97994 3.34261 0
M  V30 15135 H 1354.35 4.18333 1.9441 0
M  V30 15136 H 1352.6 3.96269 1.76503 0
M  V30 15137 H 1353.27 4.39428 3.34077 0
M  V30 15138 H 1355.74 2.46742 3.35048 0
M  V30 15139 H 1354.62 2.88663 4.66867 0
M  V30 15140 H 1354.88 1.19951 4.25516 0
M  V30 15141 N 1353.94 -0.993397 1.22349 0
M  V30 15142 C 1355.22 -1.7063 0.956275 0
M  V30 15143 C 1355.6 -2.0437 -0.52877 0
M  V30 15144 O 1354.94 -1.72662 -1.49667 0
M  V30 15145 C 1355.15 -2.95725 1.85331 0
M  V30 15146 C 1356.5 -3.68514 2.10909 0
M  V30 15147 O 1357.53 -3.05732 1.82775 0
M  V30 15148 O 1356.39 -4.81468 2.58556 0
M  V30 15149 H 1353.48 -0.744734 0.359583 0
M  V30 15150 H 1356.03 -1.04979 1.33333 0
M  V30 15151 H 1354.8 -2.6729 2.85782 0
M  V30 15152 H 1354.42 -3.69116 1.47781 0
M  V30 15153 N 1355.42 -1.03311 -1.19015 0
M  V30 15154 C 1356.65 -0.750712 -1.92478 0
M  V30 15155 C 1357.06 0.694964 -1.75974 0
M  V30 15156 O 1356.4 1.4847 -1.08177 0
M  V30 15157 C 1356.46 -1.02757 -3.44501 0
M  V30 15158 C 1356.12 -2.46565 -3.84779 0
M  V30 15159 C 1357.12 -3.44716 -3.89187 0
M  V30 15160 C 1354.81 -2.81076 -4.16295 0
M  V30 15161 C 1356.8 -4.75433 -4.24549 0
M  V30 15162 C 1354.49 -4.12002 -4.51329 0
M  V30 15163 C 1355.49 -5.08991 -4.55431 0
M  V30 15164 O 1355.17 -6.37571 -4.89652 0
M  V30 15165 H 1354.91 -0.273717 -0.618106 0
M  V30 15166 H 1357.46 -1.38176 -1.51975 0
M  V30 15167 H 1355.69 -0.339383 -3.85208 0
M  V30 15168 H 1357.38 -0.734175 -3.99205 0
M  V30 15169 H 1358.14 -3.19392 -3.64985 0
M  V30 15170 H 1354.02 -2.0626 -4.12284 0
M  V30 15171 H 1357.57 -5.51133 -4.27666 0
M  V30 15172 H 1353.46 -4.37098 -4.7499 0
M  V30 15173 H 1354.23 -6.42107 -5.07583 0
M  V30 15174 N 1356.9 1.35099 -0.81154 0
M  V30 15175 C 1357.83 2.32264 -0.239925 0
M  V30 15176 C 1358.81 1.57708 0.637354 0
M  V30 15177 O 1359.99 1.85751 0.566598 0
M  V30 15178 C 1357.12 3.41931 0.608325 0
M  V30 15179 C 1356.08 4.27659 -0.170869 0
M  V30 15180 C 1355.4 5.28691 0.799398 0
M  V30 15181 C 1356.7 5.0394 -1.37266 0
M  V30 15182 H 1358.4 2.8032 -1.05172 0
M  V30 15183 H 1355.94 1.34773 -0.507185 0
M  V30 15184 H 1357.89 4.08911 1.01832 0
M  V30 15185 H 1356.62 2.92496 1.45306 0
M  V30 15186 H 1355.28 3.62265 -0.562094 0
M  V30 15187 H 1354.93 4.75521 1.63977 0
M  V30 15188 H 1354.63 5.86921 0.282331 0
M  V30 15189 H 1356.15 5.98542 1.20749 0
M  V30 15190 H 1357.56 5.63838 -1.03728 0
M  V30 15191 H 1355.96 5.7169 -1.82456 0
M  V30 15192 H 1357.03 4.34295 -2.15676 0
M  V30 15193 N 1358.37 0.56548 1.47106 0
M  V30 15194 C 1359.65 -0.0215358 1.95588 0
M  V30 15195 C 1360.03 -1.47712 1.50813 0
M  V30 15196 O 1359.38 -2.15814 0.750776 0
M  V30 15197 C 1359.59 0.132552 3.48748 0
M  V30 15198 C 1360.94 -0.00853591 4.24599 0
M  V30 15199 O 1361.96 0.0605142 3.56149 0
M  V30 15200 O 1360.82 -0.158519 5.4627 0
M  V30 15201 H 1357.91 -0.0595011 0.824857 0
M  V30 15202 H 1360.46 0.632586 1.57469 0
M  V30 15203 H 1359.23 1.14511 3.7417 0
M  V30 15204 H 1358.85 -0.558801 3.93654 0
M  V30 15205 N 1359.85 -1.54672 0.302354 0
M  V30 15206 C 1361.27 -1.59519 -0.0509899 0
M  V30 15207 C 1361.47 -1.31931 -1.52304 0
M  V30 15208 O 1360.52 -1.09338 -2.27599 0
M  V30 15209 C 1361.84 -2.98678 0.348168 0
M  V30 15210 C 1363.39 -3.11587 0.297046 0
M  V30 15211 C 1363.86 -4.53057 0.671046 0
M  V30 15212 N 1365.35 -4.58983 0.623633 0
M  V30 15213 C 1366.09 -5.66522 0.885476 0
M  V30 15214 N 1365.58 -6.82092 1.21336 0
M  V30 15215 N 1367.38 -5.56198 0.812448 0
M  V30 15216 H 1359.53 -1.70865 1.2617 0
M  V30 15217 H 1361.79 -0.798099 0.511608 0
M  V30 15218 H 1361.5 -3.23794 1.37297 0
M  V30 15219 H 1361.37 -3.76025 -0.297505 0
M  V30 15220 H 1363.76 -2.86219 -0.718515 0
M  V30 15221 H 1363.84 -2.36392 0.977361 0
M  V30 15222 H 1363.48 -4.79155 1.68442 0
M  V30 15223 H 1363.41 -5.26591 -0.0313537 0
M  V30 15224 H 1365.9 -3.75972 0.381203 0
M  V30 15225 H 1366.22 -7.6003 1.39909 0
M  V30 15226 H 1364.56 -6.83641 1.25141 0
M  V30 15227 H 1367.75 -4.64787 0.555939 0
M  V30 15228 H 1367.92 -6.39924 1.01988 0
M  V30 15229 N 1361.33 -0.0301034 -1.57571 0
M  V30 15230 C 1362.28 0.969425 -2.11435 0
M  V30 15231 C 1363.27 1.33627 -1.04116 0
M  V30 15232 O 1364.48 1.31839 -1.2255 0
M  V30 15233 H 1360.85 0.330407 -0.675526 0
M  V30 15234 H 1362.82 0.489828 -2.94352 0
M  V30 15235 C 1361.57 2.24233 -2.65734 0
M  V30 15236 H 1360.9 1.9688 -3.47963 0
M  V30 15237 H 1362.34 2.92378 -3.07068 0
M  V30 15238 C 1360.8 2.97274 -1.58524 0
M  V30 15239 O 1361.33 3.8942 -0.985641 0
M  V30 15240 N 1359.53 2.59627 -1.30545 0
M  V30 15241 H 1359.08 1.84773 -1.79491 0
M  V30 15242 H 1359.04 3.08807 -0.590372 0
M  V30 15243 N 1362.81 1.55714 0.243056 0
M  V30 15244 C 1363.76 1.87031 1.30397 0
M  V30 15245 C 1364.74 0.731497 1.43311 0
M  V30 15246 O 1365.93 0.9935 1.46487 0
M  V30 15247 C 1363.06 2.17185 2.65868 0
M  V30 15248 C 1362.15 3.37403 2.56944 0
M  V30 15249 N 1362.54 4.56575 2.17653 0
M  V30 15250 C 1360.84 3.4059 2.87949 0
M  V30 15251 C 1361.54 5.38715 2.19455 0
M  V30 15252 N 1360.52 4.77875 2.59108 0
M  V30 15253 H 1364.32 2.76697 0.990755 0
M  V30 15254 H 1361.83 1.55992 0.451675 0
M  V30 15255 H 1363.83 2.37787 3.42437 0
M  V30 15256 H 1362.49 1.28819 2.98053 0
M  V30 15257 H 1363.5 4.82129 1.89134 0
M  V30 15258 H 1360.18 2.62506 3.24648 0
M  V30 15259 H 1361.57 6.44066 1.91385 0
M  V30 15260 N 1364.29 -0.50888 1.49158 0
M  V30 15261 C 1365.23 -1.61129 1.65246 0
M  V30 15262 C 1366.2 -1.58582 0.49405 0
M  V30 15263 O 1367.39 -1.76689 0.720122 0
M  V30 15264 C 1364.53 -2.99311 1.71776 0
M  V30 15265 C 1363.64 -3.11933 2.98868 0
M  V30 15266 C 1362.78 -4.408 2.96426 0
M  V30 15267 C 1361.82 -4.47027 4.18131 0
M  V30 15268 N 1360.95 -5.67311 4.13645 0
M  V30 15269 H 1365.79 -1.4672 2.59379 0
M  V30 15270 H 1363.33 -0.713978 1.28611 0
M  V30 15271 H 1365.29 -3.79392 1.73543 0
M  V30 15272 H 1363.92 -3.12442 0.811159 0
M  V30 15273 H 1362.97 -2.24966 3.06748 0
M  V30 15274 H 1364.28 -3.12393 3.8886 0
M  V30 15275 H 1363.44 -5.29194 2.96712 0
M  V30 15276 H 1362.17 -4.42893 2.04199 0
M  V30 15277 H 1361.18 -3.57036 4.18097 0
M  V30 15278 H 1362.4 -4.46656 5.11542 0
M  V30 15279 H 1360.35 -5.70261 3.2425 0
M  V30 15280 H 1360.27 -5.69355 4.97364 0
M  V30 15281 H 1361.54 -6.57934 4.18022 0
M  V30 15282 N 1365.76 -1.381 -0.759346 0
M  V30 15283 C 1366.71 -1.34972 -1.89434 0
M  V30 15284 C 1367.71 -0.236499 -1.67741 0
M  V30 15285 O 1368.91 -0.405218 -1.7538 0
M  V30 15286 H 1365.29 -0.420922 -0.62316 0
M  V30 15287 H 1367.26 -2.3076 -1.89189 0
M  V30 15288 C 1366.01 -1.18594 -3.2685 0
M  V30 15289 H 1365.33 -2.03514 -3.44125 0
M  V30 15290 H 1366.77 -1.20458 -4.06529 0
M  V30 15291 C 1365.23 0.107562 -3.36728 0
M  V30 15292 O 1365.76 1.08668 -3.86722 0
M  V30 15293 N 1363.97 0.162455 -2.90146 0
M  V30 15294 H 1363.51 -0.634985 -2.49651 0
M  V30 15295 H 1363.47 1.02751 -2.97136 0
M  V30 15296 N 1367.24 0.986894 -1.22875 0
M  V30 15297 C 1368.18 2.07604 -0.947406 0
M  V30 15298 C 1369.15 1.62214 0.111904 0
M  V30 15299 O 1370.34 1.88488 -0.0209682 0
M  V30 15300 C 1367.46 3.3601 -0.42605 0
M  V30 15301 C 1366.51 4.00331 -1.47097 0
M  V30 15302 S 1367.34 4.40412 -3.04627 0
M  V30 15303 C 1368.5 5.7198 -2.54145 0
M  V30 15304 H 1368.73 2.31149 -1.86969 0
M  V30 15305 H 1366.27 1.1222 -1.06047 0
M  V30 15306 H 1368.22 4.10288 -0.131846 0
M  V30 15307 H 1366.88 3.10484 0.475211 0
M  V30 15308 H 1366.08 4.92809 -1.05618 0
M  V30 15309 H 1365.68 3.32403 -1.71418 0
M  V30 15310 H 1367.97 6.48602 -1.9576 0
M  V30 15311 H 1368.91 6.18293 -3.45137 0
M  V30 15312 H 1369.32 5.29669 -1.95221 0
M  V30 15313 N 1368.72 1.0394 1.18466 0
M  V30 15314 C 1369.97 0.737233 1.87744 0
M  V30 15315 C 1370.28 -0.737891 1.81148 0
M  V30 15316 O 1371.49 -1.15353 2.45776 0
M  V30 15317 C 1369.94 1.26844 3.36806 0
M  V30 15318 C 1369.55 2.7721 3.51935 0
M  V30 15319 C 1371.3 1.04274 4.11494 0
M  V30 15320 C 1369.2 3.23696 4.9495 0
M  V30 15321 H 1368.13 0.272082 0.703198 0
M  V30 15322 H 1370.78 1.25507 1.33866 0
M  V30 15323 H 1369.17 0.67847 3.90145 0
M  V30 15324 H 1370.34 3.41954 3.08875 0
M  V30 15325 H 1368.66 2.98179 2.90652 0
M  V30 15326 H 1371.25 1.3652 5.16978 0
M  V30 15327 H 1371.6 -0.0200645 4.16295 0
M  V30 15328 H 1372.13 1.59726 3.64325 0
M  V30 15329 H 1368.87 4.29351 4.95316 0
M  V30 15330 H 1368.39 2.63687 5.38729 0
M  V30 15331 H 1370.07 3.17645 5.63658 0
M  V30 15332 N 1370.2 -1.34667 0.818693 0
M  V30 15333 C 1371.48 -1.92838 0.327521 0
M  V30 15334 C 1371.86 -1.74732 -1.18457 0
M  V30 15335 O 1371.2 -1.12352 -1.98971 0
M  V30 15336 C 1371.41 -3.40797 0.752207 0
M  V30 15337 C 1372.76 -4.17948 0.748613 0
M  V30 15338 O 1373.79 -3.49364 0.694517 0
M  V30 15339 O 1372.64 -5.40344 0.817958 0
M  V30 15340 H 1369.74 -0.822249 0.0885148 0
M  V30 15341 H 1372.28 -1.43668 0.9032 0
M  V30 15342 H 1371.06 -3.47759 1.79387 0
M  V30 15343 H 1370.68 -3.97309 0.151992 0
M  V30 15344 N 1371.68 -0.573274 -1.46804 0
M  V30 15345 C 1372.62 0.178246 -2.31916 0
M  V30 15346 C 1373.62 0.89366 -1.4391 0
M  V30 15347 O 1374.82 0.81312 -1.60588 0
M  V30 15348 H 1371.2 0.0763519 -0.748114 0
M  V30 15349 H 1373.17 -0.558552 -2.93126 0
M  V30 15350 C 1371.92 1.18476 -3.26892 0
M  V30 15351 H 1371.24 0.643691 -3.94584 0
M  V30 15352 H 1372.68 1.68118 -3.89246 0
M  V30 15353 C 1371.14 2.24092 -2.51564 0
M  V30 15354 O 1371.67 3.3129 -2.27178 0
M  V30 15355 N 1369.88 1.98447 -2.1229 0
M  V30 15356 H 1369.42 1.11283 -2.32323 0
M  V30 15357 H 1369.38 2.69325 -1.62207 0
M  V30 15358 N 1373.15 1.5451 -0.310553 0
M  V30 15359 C 1374.4 2.00623 0.296343 0
M  V30 15360 C 1374.73 1.19855 1.52802 0
M  V30 15361 O 1374.01 0.277468 1.92511 0
M  V30 15362 C 1374.29 3.54305 0.643448 0
M  V30 15363 C 1374.14 4.45807 -0.598029 0
M  V30 15364 C 1375.46 4.14958 1.46623 0
M  V30 15365 H 1372.58 0.729303 0.106236 0
M  V30 15366 H 1375.22 1.85196 -0.424549 0
M  V30 15367 H 1373.37 3.67581 1.25762 0
M  V30 15368 H 1375.05 4.44421 -1.23643 0
M  V30 15369 H 1373.29 4.16014 -1.22944 0
M  V30 15370 H 1373.96 5.51124 -0.310883 0
M  V30 15371 H 1376.44 4.05176 0.947199 0
M  V30 15372 H 1375.31 5.22627 1.67787 0
M  V30 15373 H 1375.57 3.67445 2.45839 0
M  V30 15374 N 1374.63 0.0384594 1.57553 0
M  V30 15375 C 1375.88 -0.63814 1.92182 0
M  V30 15376 C 1376.21 -1.71595 0.915714 0
M  V30 15377 O 1375.46 -1.9556 -0.0739533 0
M  V30 15378 C 1375.76 -1.28439 3.33524 0
M  V30 15379 C 1375.43 -0.336034 4.49646 0
M  V30 15380 C 1374.09 -0.0750373 4.81141 0
M  V30 15381 C 1376.44 0.314642 5.20249 0
M  V30 15382 C 1373.77 0.844286 5.80593 0
M  V30 15383 C 1376.12 1.22208 6.20684 0
M  V30 15384 C 1374.79 1.49187 6.50615 0
M  V30 15385 H 1374.06 -0.233512 0.703245 0
M  V30 15386 H 1376.7 0.102223 1.91227 0
M  V30 15387 H 1375.01 -2.09973 3.30785 0
M  V30 15388 H 1376.71 -1.81462 3.57593 0
M  V30 15389 H 1373.3 -0.549638 4.25061 0
M  V30 15390 H 1377.48 0.126074 4.9614 0
M  V30 15391 H 1372.74 1.06092 6.02125 0
M  V30 15392 H 1376.91 1.7324 6.74508 0
M  V30 15393 H 1374.54 2.20588 7.27492 0
M  V30 15394 N 1376.11 -1.55841 -0.234795 0
M  V30 15395 C 1377.06 -1.8772 -1.29403 0
M  V30 15396 C 1378.05 -0.739087 -1.42921 0
M  V30 15397 O 1379.24 -1.00125 -1.45959 0
M  V30 15398 C 1376.37 -2.18592 -2.64712 0
M  V30 15399 C 1375.45 -3.38761 -2.55151 0
M  V30 15400 N 1375.84 -4.57723 -2.15229 0
M  V30 15401 C 1374.14 -3.42112 -2.86138 0
M  V30 15402 C 1374.84 -5.39872 -2.16595 0
M  V30 15403 N 1373.82 -4.79242 -2.5657 0
M  V30 15404 H 1377.62 -2.77219 -0.976067 0
M  V30 15405 H 1375.13 -1.5623 -0.443396 0
M  V30 15406 H 1377.13 -2.39599 -3.41171 0
M  V30 15407 H 1375.79 -1.30398 -2.97366 0
M  V30 15408 H 1376.8 -4.83126 -1.86575 0
M  V30 15409 H 1373.48 -2.64224 -3.23252 0
M  V30 15410 H 1374.87 -6.45072 -1.87967 0
M  V30 15411 N 1377.59 0.500963 -1.49426 0
M  V30 15412 C 1378.82 1.27725 -1.62388 0
M  V30 15413 C 1379.23 1.86893 -0.294544 0
M  V30 15414 O 1378.57 1.68571 0.73003 0
M  V30 15415 C 1378.63 2.44649 -2.63414 0
M  V30 15416 C 1378.3 2.0635 -4.0776 0
M  V30 15417 C 1379.29 1.60323 -4.94563 0
M  V30 15418 C 1376.98 2.15984 -4.53493 0
M  V30 15419 C 1378.97 1.24433 -6.25136 0
M  V30 15420 C 1376.66 1.79706 -5.8408 0
M  V30 15421 C 1377.66 1.34005 -6.69725 0
M  V30 15422 O 1377.35 0.982171 -7.97878 0
M  V30 15423 H 1377.08 0.393595 -0.549599 0
M  V30 15424 H 1379.63 0.607944 -1.96197 0
M  V30 15425 H 1377.86 3.14656 -2.24785 0
M  V30 15426 H 1379.55 3.06675 -2.65905 0
M  V30 15427 H 1380.32 1.52326 -4.60458 0
M  V30 15428 H 1376.2 2.50507 -3.86998 0
M  V30 15429 H 1379.74 0.886906 -6.91939 0
M  V30 15430 H 1375.64 1.87352 -6.17713 0
M  V30 15431 H 1376.4 1.11364 -8.10889 0
M  V30 15432 N 1379.07 1.38501 0.752011 0
M  V30 15433 C 1380.31 1.34795 1.51118 0
M  V30 15434 C 1380.64 -0.0615084 1.94403 0
M  V30 15435 O 1379.9 -1.03892 1.65846 0
M  V30 15436 C 1380.2 2.25111 2.77596 0
M  V30 15437 C 1379.86 3.73052 2.53265 0
M  V30 15438 C 1378.52 4.13365 2.46339 0
M  V30 15439 C 1380.88 4.66692 2.32051 0
M  V30 15440 C 1378.2 5.45406 2.16216 0
M  V30 15441 C 1380.56 5.98992 2.03448 0
M  V30 15442 C 1379.22 6.38388 1.94979 0
M  V30 15443 H 1378.49 0.49325 0.552979 0
M  V30 15444 H 1381.14 1.70872 0.864588 0
M  V30 15445 H 1379.44 1.82096 3.46913 0
M  V30 15446 H 1381.14 2.19547 3.3556 0
M  V30 15447 H 1377.73 3.41091 2.59528 0
M  V30 15448 H 1381.91 4.36392 2.3638 0
M  V30 15449 H 1377.17 5.7487 2.08168 0
M  V30 15450 H 1381.34 6.71091 1.86037 0
M  V30 15451 H 1378.97 7.40625 1.71402 0
M  V30 15452 N 1380.55 -0.980364 1.23396 0
M  V30 15453 C 1381.79 -1.72166 1.06607 0
M  V30 15454 C 1382.12 -1.90405 -0.397029 0
M  V30 15455 O 1381.38 -1.45363 -1.31027 0
M  V30 15456 C 1381.67 -3.12367 1.73671 0
M  V30 15457 C 1381.34 -3.14007 3.2359 0
M  V30 15458 C 1380 -3.14162 3.64494 0
M  V30 15459 C 1382.35 -3.09319 4.19489 0
M  V30 15460 C 1379.68 -3.07345 4.99756 0
M  V30 15461 C 1382.03 -3.04044 5.54743 0
M  V30 15462 C 1380.7 -3.02521 5.9501 0
M  V30 15463 H 1379.97 -0.63 0.390104 0
M  V30 15464 H 1382.62 -1.14727 1.5333 0
M  V30 15465 H 1380.92 -3.73193 1.19308 0
M  V30 15466 H 1382.62 -3.68493 1.58159 0
M  V30 15467 H 1379.21 -3.14644 2.91028 0
M  V30 15468 H 1383.39 -3.08339 3.88897 0
M  V30 15469 H 1378.65 -3.04519 5.30168 0
M  V30 15470 H 1382.82 -2.99374 6.28767 0
M  V30 15471 H 1380.45 -2.96994 6.99785 0
M  V30 15472 N 1382.02 -1.04567 -1.17913 0
M  V30 15473 C 1383.25 -0.771084 -1.91671 0
M  V30 15474 C 1383.66 0.676261 -1.76701 0
M  V30 15475 O 1383 1.47314 -1.09746 0
M  V30 15476 C 1383.07 -1.06406 -3.43392 0
M  V30 15477 C 1382.73 -2.50632 -3.82142 0
M  V30 15478 C 1383.73 -3.48825 -3.85509 0
M  V30 15479 C 1381.41 -2.85476 -4.1329 0
M  V30 15480 C 1383.41 -4.79909 -4.19483 0
M  V30 15481 C 1381.09 -4.16766 -4.46934 0
M  V30 15482 C 1382.09 -5.13793 -4.50007 0
M  V30 15483 O 1381.78 -6.42728 -4.82862 0
M  V30 15484 H 1381.51 -0.280258 -0.615168 0
M  V30 15485 H 1384.07 -1.39781 -1.50501 0
M  V30 15486 H 1382.3 -0.380221 -3.84826 0
M  V30 15487 H 1383.98 -0.776475 -3.98404 0
M  V30 15488 H 1384.75 -3.23245 -3.61577 0
M  V30 15489 H 1380.63 -2.10621 -4.10073 0
M  V30 15490 H 1384.17 -5.55638 -4.21796 0
M  V30 15491 H 1380.07 -4.42111 -4.70328 0
M  V30 15492 H 1380.84 -6.47454 -5.00744 0
M  V30 15493 N 1383.5 1.34231 -0.825823 0
M  V30 15494 C 1384.75 1.9849 -0.415891 0
M  V30 15495 C 1385.08 1.6531 1.01913 0
M  V30 15496 O 1384.36 0.926223 1.7103 0
M  V30 15497 C 1384.64 3.54691 -0.621785 0
M  V30 15498 C 1384.49 3.97603 -2.10313 0
M  V30 15499 C 1385.81 4.4006 -0.0595871 0
M  V30 15500 H 1382.93 0.721032 -0.152582 0
M  V30 15501 H 1385.57 1.5908 -1.03892 0
M  V30 15502 H 1383.72 3.88392 -0.0914439 0
M  V30 15503 H 1385.39 3.74221 -2.69733 0
M  V30 15504 H 1383.64 3.47809 -2.59251 0
M  V30 15505 H 1384.31 5.06352 -2.19799 0
M  V30 15506 H 1386.78 4.12929 -0.512743 0
M  V30 15507 H 1385.66 5.48403 -0.233431 0
M  V30 15508 H 1385.92 4.29798 1.03568 0
M  V30 15509 N 1384.98 0.581051 1.46498 0
M  V30 15510 C 1385.93 -0.165944 2.32007 0
M  V30 15511 C 1386.92 -0.886015 1.44382 0
M  V30 15512 O 1388.13 -0.804592 1.61017 0
M  V30 15513 H 1384.5 -0.0723834 0.748508 0
M  V30 15514 H 1386.47 0.574089 2.92826 0
M  V30 15515 C 1385.22 -1.16741 3.27516 0
M  V30 15516 H 1384.55 -0.622756 3.9492 0
M  V30 15517 H 1385.99 -1.66052 3.90132 0
M  V30 15518 C 1384.44 -2.22755 2.52749 0
M  V30 15519 O 1384.97 -3.30081 2.28932 0
M  V30 15520 N 1383.18 -1.97318 2.1334 0
M  V30 15521 H 1382.73 -1.10049 2.3291 0
M  V30 15522 H 1382.69 -2.68461 1.63633 0
M  V30 15523 N 1386.46 -1.54343 0.318742 0
M  V30 15524 C 1387.39 -2.20392 -0.591833 0
M  V30 15525 C 1388.37 -1.17931 -1.11942 0
M  V30 15526 O 1389.55 -1.4665 -1.18432 0
M  V30 15527 C 1386.68 -2.8618 -1.81159 0
M  V30 15528 C 1385.73 -4.02319 -1.41568 0
M  V30 15529 S 1386.56 -5.33551 -0.456481 0
M  V30 15530 C 1387.71 -6.02831 -1.68363 0
M  V30 15531 H 1387.95 -2.97284 -0.0307625 0
M  V30 15532 H 1385.48 -1.54057 0.102835 0
M  V30 15533 H 1387.44 -3.24707 -2.51148 0
M  V30 15534 H 1386.1 -2.091 -2.34384 0
M  V30 15535 H 1385.29 -4.47197 -2.32445 0
M  V30 15536 H 1384.89 -3.65441 -0.795535 0
M  V30 15537 H 1387.19 -6.24716 -2.62175 0
M  V30 15538 H 1388.13 -6.96488 -1.27709 0
M  V30 15539 H 1388.54 -5.32682 -1.86841 0
M  V30 15540 N 1387.94 -0.0468143 -1.5753 0
M  V30 15541 C 1389.17 0.636723 -1.96544 0
M  V30 15542 C 1389.57 1.65169 -0.922814 0
M  V30 15543 O 1388.92 1.83417 0.101892 0
M  V30 15544 C 1388.98 1.38435 -3.31777 0
M  V30 15545 C 1388.64 0.525714 -4.53966 0
M  V30 15546 C 1389.64 -0.206392 -5.1949 0
M  V30 15547 C 1387.32 0.457919 -5.00208 0
M  V30 15548 C 1389.32 -0.994779 -6.29589 0
M  V30 15549 C 1387.01 -0.334159 -6.10186 0
M  V30 15550 C 1388 -1.0592 -6.74737 0
M  V30 15551 O 1387.69 -1.83826 -7.826 0
M  V30 15552 H 1387.42 0.179197 -0.651816 0
M  V30 15553 H 1389.98 -0.108214 -2.05115 0
M  V30 15554 H 1388.21 2.17482 -3.19748 0
M  V30 15555 H 1389.9 1.9577 -3.55568 0
M  V30 15556 H 1390.66 -0.163457 -4.84724 0
M  V30 15557 H 1386.54 1.01185 -4.49758 0
M  V30 15558 H 1390.09 -1.56121 -6.79906 0
M  V30 15559 H 1385.98 -0.378748 -6.44388 0
M  V30 15560 H 1386.75 -1.75991 -7.99356 0
M  V30 15561 N 1389.41 1.55964 0.226527 0
M  V30 15562 C 1390.69 1.69528 0.975689 0
M  V30 15563 C 1391.07 0.592635 2.02611 0
M  V30 15564 O 1390.42 -0.401073 2.24953 0
M  V30 15565 C 1390.63 3.10644 1.59063 0
M  V30 15566 C 1391.98 3.69895 2.08478 0
M  V30 15567 O 1393 3.13574 1.68966 0
M  V30 15568 O 1391.86 4.68672 2.81085 0
M  V30 15569 H 1388.95 0.690285 0.455451 0
M  V30 15570 H 1391.5 1.68285 0.218702 0
M  V30 15571 H 1390.27 3.82355 0.831903 0
M  V30 15572 H 1389.9 3.15984 2.41329 0
M  V30 15573 N 1390.89 -0.493031 1.4969 0
M  V30 15574 C 1391.8 -1.61991 1.69694 0
M  V30 15575 C 1392.82 -1.64061 0.579641 0
M  V30 15576 O 1393.99 -1.82335 0.855323 0
M  V30 15577 C 1391.06 -2.98323 1.76648 0
M  V30 15578 C 1390.12 -3.06816 3.00271 0
M  V30 15579 C 1389.35 -4.36644 3.06883 0
M  V30 15580 O 1389.58 -5.25901 2.20872 0
M  V30 15581 O 1388.51 -4.50275 3.99419 0
M  V30 15582 H 1392.34 -1.48042 2.65174 0
M  V30 15583 H 1389.92 -0.670182 1.33525 0
M  V30 15584 H 1391.8 -3.79335 1.83529 0
M  V30 15585 H 1390.48 -3.12517 0.843482 0
M  V30 15586 H 1389.39 -2.24962 2.98903 0
M  V30 15587 H 1390.72 -2.97551 3.92077 0
M  V30 15588 N 1392.37 -1.38898 -0.744656 0
M  V30 15589 C 1393.32 -1.36845 -1.85855 0
M  V30 15590 C 1394.29 -0.2296 -1.64505 0
M  V30 15591 O 1395.47 -0.423221 -1.86047 0
M  V30 15592 C 1392.61 -1.20818 -3.2326 0
M  V30 15593 C 1391.73 -2.44166 -3.5638 0
M  V30 15594 C 1390.86 -2.20801 -4.83136 0
M  V30 15595 C 1389.9 -3.39874 -5.0907 0
M  V30 15596 N 1389.04 -3.15888 -6.27024 0
M  V30 15597 H 1393.88 -2.32068 -1.86945 0
M  V30 15598 H 1391.41 -1.15289 -0.913611 0
M  V30 15599 H 1393.37 -1.0954 -4.02563 0
M  V30 15600 H 1392 -0.292295 -3.21474 0
M  V30 15601 H 1391.05 -2.66083 -2.71852 0
M  V30 15602 H 1392.37 -3.32885 -3.71469 0
M  V30 15603 H 1391.52 -2.0671 -5.704 0
M  V30 15604 H 1390.26 -1.29462 -4.70203 0
M  V30 15605 H 1389.26 -3.54474 -4.20271 0
M  V30 15606 H 1390.49 -4.32102 -5.23894 0
M  V30 15607 H 1388.43 -2.27204 -6.15398 0
M  V30 15608 H 1388.35 -3.9816 -6.42655 0
M  V30 15609 H 1389.62 -3.0547 -7.17153 0
M  V30 15610 N 1393.85 0.973806 -1.23914 0
M  V30 15611 C 1394.8 2.08861 -1.02372 0
M  V30 15612 C 1395.79 1.69354 0.039415 0
M  V30 15613 O 1397 1.79635 -0.114637 0
M  V30 15614 H 1393.37 0.683313 -0.313986 0
M  V30 15615 H 1395.34 2.24195 -1.96924 0
M  V30 15616 C 1394.09 3.41784 -0.638661 0
M  V30 15617 H 1393.41 3.72639 -1.44846 0
M  V30 15618 H 1394.85 4.20706 -0.527487 0
M  V30 15619 C 1393.31 3.30497 0.65369 0
M  V30 15620 O 1393.84 3.63905 1.70107 0
M  V30 15621 N 1392.05 2.83642 0.632104 0
M  V30 15622 H 1391.6 2.56654 -0.220571 0
M  V30 15623 H 1391.55 2.76472 1.49701 0
M  V30 15624 N 1395.33 1.05191 1.17357 0
M  V30 15625 C 1396.27 0.652868 2.21374 0
M  V30 15626 C 1397.24 -0.344974 1.62478 0
M  V30 15627 O 1398.43 -0.23639 1.8933 0
M  V30 15628 C 1395.57 0.0337737 3.45083 0
M  V30 15629 C 1394.68 1.08045 4.18271 0
M  V30 15630 C 1393.82 0.428673 5.29468 0
M  V30 15631 C 1392.86 1.45966 5.94441 0
M  V30 15632 N 1391.99 0.832042 6.97152 0
M  V30 15633 H 1396.83 1.54434 2.54861 0
M  V30 15634 H 1394.37 0.772365 1.25192 0
M  V30 15635 H 1396.33 -0.342607 4.15791 0
M  V30 15636 H 1394.96 -0.821159 3.12181 0
M  V30 15637 H 1394.01 1.57466 3.46278 0
M  V30 15638 H 1395.32 1.86305 4.62701 0
M  V30 15639 H 1394.48 -0.00129344 6.067 0
M  V30 15640 H 1393.21 -0.385919 4.86171 0
M  V30 15641 H 1392.22 1.89964 5.1594 0
M  V30 15642 H 1393.44 2.27615 6.39819 0
M  V30 15643 H 1391.39 0.0379612 6.55989 0
M  V30 15644 H 1391.31 1.55219 7.39894 0
M  V30 15645 H 1392.58 0.42685 7.7833 0
M  V30 15646 N 1396.8 -1.33791 0.83293 0
M  V30 15647 C 1398.05 -1.98266 0.426412 0
M  V30 15648 C 1398.38 -1.65848 -1.01035 0
M  V30 15649 O 1397.66 -0.93528 -1.70537 0
M  V30 15650 C 1397.94 -3.54356 0.640586 0
M  V30 15651 C 1397.79 -3.96482 2.12419 0
M  V30 15652 C 1399.11 -4.40022 0.0829237 0
M  V30 15653 H 1396.23 -0.720213 0.156404 0
M  V30 15654 H 1398.87 -1.58527 1.04735 0
M  V30 15655 H 1397.02 -3.88338 0.11204 0
M  V30 15656 H 1398.7 -3.72786 2.71714 0
M  V30 15657 H 1396.94 -3.46429 2.61092 0
M  V30 15658 H 1397.61 -5.05179 2.22482 0
M  V30 15659 H 1400.09 -4.12651 0.534634 0
M  V30 15660 H 1398.96 -5.48272 0.262511 0
M  V30 15661 H 1399.22 -4.30341 -1.01287 0
M  V30 15662 N 1398.28 -0.588812 -1.46187 0
M  V30 15663 C 1399.53 -0.0768417 -2.02654 0
M  V30 15664 C 1399.86 1.28213 -1.4586 0
M  V30 15665 O 1399.14 1.8415 -0.626022 0
M  V30 15666 C 1399.42 -0.0176429 -3.60096 0
M  V30 15667 C 1399.27 -1.40595 -4.27262 0
M  V30 15668 C 1400.59 0.679864 -4.34817 0
M  V30 15669 H 1397.71 -0.0293981 -0.736413 0
M  V30 15670 H 1400.35 -0.757183 -1.74261 0
M  V30 15671 H 1398.5 0.56174 -3.84417 0
M  V30 15672 H 1400.17 -2.03097 -4.14185 0
M  V30 15673 H 1398.42 -1.97196 -3.86388 0
M  V30 15674 H 1399.09 -1.31694 -5.3606 0
M  V30 15675 H 1401.56 0.1876 -4.15677 0
M  V30 15676 H 1400.44 0.690333 -5.44542 0
M  V30 15677 H 1400.7 1.74237 -4.06318 0
M  V30 15678 N 1399.76 1.54172 -0.326923 0
M  V30 15679 C 1400.99 2.05044 0.276508 0
M  V30 15680 C 1401.4 1.20288 1.45521 0
M  V30 15681 O 1400.76 0.234324 1.80989 0
M  V30 15682 C 1400.81 3.54505 0.707714 0
M  V30 15683 O 1400.53 4.36042 -0.424098 0
M  V30 15684 C 1402.03 4.21482 1.3736 0
M  V30 15685 H 1399.25 0.668632 0.0563273 0
M  V30 15686 H 1401.8 1.98929 -0.474087 0
M  V30 15687 H 1399.95 3.60896 1.40828 0
M  V30 15688 H 1400.37 5.24433 -0.0836846 0
M  V30 15689 H 1401.84 5.27501 1.62623 0
M  V30 15690 H 1402.32 3.72802 2.32196 0
M  V30 15691 H 1402.92 4.19238 0.715526 0
M  V30 15692 N 1401.24 0.0551678 1.57503 0
M  V30 15693 C 1402.19 -0.917847 2.11764 0
M  V30 15694 C 1403.16 -1.30624 1.02599 0
M  V30 15695 O 1404.34 -1.39501 1.30169 0
M  V30 15696 C 1401.48 -2.18599 2.67036 0
M  V30 15697 C 1400.59 -1.85173 3.90301 0
M  V30 15698 C 1399.73 -3.06475 4.33874 0
M  V30 15699 C 1398.77 -2.68988 5.49829 0
M  V30 15700 N 1397.9 -3.82997 5.88437 0
M  V30 15701 H 1402.74 -0.448236 2.9461 0
M  V30 15702 H 1400.28 -0.209619 1.45599 0
M  V30 15703 H 1402.24 -2.92811 2.97183 0
M  V30 15704 H 1400.87 -2.6313 1.86982 0
M  V30 15705 H 1399.92 -1.01094 3.66721 0
M  V30 15706 H 1401.23 -1.53582 4.74567 0
M  V30 15707 H 1400.39 -3.88982 4.65594 0
M  V30 15708 H 1399.13 -3.41247 3.48427 0
M  V30 15709 H 1398.13 -1.84899 5.17776 0
M  V30 15710 H 1399.36 -2.35404 6.36994 0
M  V30 15711 H 1397.3 -4.17562 5.05942 0
M  V30 15712 H 1397.22 -3.55118 6.67403 0
M  V30 15713 H 1398.49 -4.66131 6.24773 0
M  V30 15714 N 1402.72 -1.56081 -0.218252 0
M  V30 15715 C 1403.97 -1.78445 -0.94022 0
M  V30 15716 C 1404.28 -0.624317 -1.85369 0
M  V30 15717 O 1405.48 -0.731669 -2.61455 0
M  V30 15718 C 1403.94 -3.16026 -1.72208 0
M  V30 15719 C 1403.55 -4.39774 -0.854584 0
M  V30 15720 C 1405.29 -3.47714 -2.43506 0
M  V30 15721 C 1403.2 -5.68379 -1.63398 0
M  V30 15722 H 1402.13 -0.665303 -0.354806 0
M  V30 15723 H 1404.78 -1.82471 -0.194021 0
M  V30 15724 H 1403.16 -3.06185 -2.5113 0
M  V30 15725 H 1404.34 -4.60679 -0.105659 0
M  V30 15726 H 1402.65 -4.15627 -0.253562 0
M  V30 15727 H 1405.25 -4.41026 -3.02325 0
M  V30 15728 H 1405.59 -2.70367 -3.16555 0
M  V30 15729 H 1406.12 -3.58899 -1.71571 0
M  V30 15730 H 1402.86 -6.48628 -0.946704 0
M  V30 15731 H 1402.38 -5.5153 -2.35743 0
M  V30 15732 H 1404.06 -6.08672 -2.1938 0
M  V30 15733 N 1404.2 0.485086 -1.49949 0
M  V30 15734 C 1405.11 1.61089 -1.70551 0
M  V30 15735 C 1406.12 1.63752 -0.588333 0
M  V30 15736 O 1407.3 1.81879 -0.86498 0
M  V30 15737 C 1404.36 2.97382 -1.78227 0
M  V30 15738 C 1403.42 3.05219 -3.01894 0
M  V30 15739 C 1402.66 4.35011 -3.09195 0
M  V30 15740 O 1402.88 5.24722 -2.23658 0
M  V30 15741 O 1401.81 4.48151 -4.01802 0
M  V30 15742 H 1405.64 1.46633 -2.65956 0
M  V30 15743 H 1403.22 0.663091 -1.33879 0
M  V30 15744 H 1405.11 3.78356 -1.85538 0
M  V30 15745 H 1403.78 3.12066 -0.860043 0
M  V30 15746 H 1402.69 2.23373 -3.00092 0
M  V30 15747 H 1404.02 2.95467 -3.93649 0
M  V30 15748 N 1405.67 1.39291 0.737279 0
M  V30 15749 C 1406.62 1.34321 1.84233 0
M  V30 15750 C 1407.61 0.224489 1.59326 0
M  V30 15751 O 1408.8 0.461832 1.70869 0
M  V30 15752 C 1405.93 1.18676 3.22135 0
M  V30 15753 C 1405.01 2.35239 3.52878 0
M  V30 15754 N 1405.41 3.6071 3.54573 0
M  V30 15755 C 1403.7 2.28147 3.83229 0
M  V30 15756 C 1404.4 4.37778 3.83047 0
M  V30 15757 N 1403.38 3.67336 4.00706 0
M  V30 15758 H 1407.18 2.29299 1.83845 0
M  V30 15759 H 1404.7 1.32755 0.935413 0
M  V30 15760 H 1406.69 1.13199 4.01238 0
M  V30 15761 H 1405.35 0.246461 3.23763 0
M  V30 15762 H 1406.36 3.94164 3.3594 0
M  V30 15763 H 1403.04 1.42366 3.92477 0
M  V30 15764 H 1404.43 5.46525 3.90845 0
M  V30 15765 N 1407.15 -0.967221 1.24429 0
M  V30 15766 C 1408.1 -2.08315 1.03478 0
M  V30 15767 C 1409.09 -1.69373 -0.0304332 0
M  V30 15768 O 1410.3 -1.79571 0.124162 0
M  V30 15769 H 1406.67 -0.681638 0.317605 0
M  V30 15770 H 1408.65 -2.23148 1.9811 0
M  V30 15771 C 1407.39 -3.41441 0.656778 0
M  V30 15772 H 1406.72 -3.71865 1.4682 0
M  V30 15773 H 1408.16 -4.2042 0.549791 0
M  V30 15774 C 1406.62 -3.30839 -0.636154 0
M  V30 15775 O 1407.15 -3.64802 -1.68175 0
M  V30 15776 N 1405.35 -2.83973 -0.617052 0
M  V30 15777 H 1404.9 -2.56533 0.234179 0
M  V30 15778 H 1404.86 -2.77262 -1.48233 0
M  V30 15779 N 1408.63 -1.05812 -1.16797 0
M  V30 15780 C 1409.59 -0.668766 -2.19226 0
M  V30 15781 C 1410.59 0.28299 -1.5829 0
M  V30 15782 O 1411.78 0.0660233 -1.74075 0
M  V30 15783 C 1408.91 0.0167379 -3.40896 0
M  V30 15784 H 1410.11 -1.57543 -2.55187 0
M  V30 15785 H 1407.66 -0.852753 -1.30988 0
M  V30 15786 H 1408.4 0.936382 -3.10487 0
M  V30 15787 H 1408.18 -0.667576 -3.86375 0
M  V30 15788 H 1409.67 0.275041 -4.16693 0
M  V30 15789 N 1410.11 1.33347 -0.840014 0
M  V30 15790 C 1411.38 1.92293 -0.358158 0
M  V30 15791 C 1411.76 1.76594 1.15662 0
M  V30 15792 O 1411.11 1.15503 1.97158 0
M  V30 15793 C 1411.32 3.39558 -0.806329 0
M  V30 15794 C 1412.67 4.16705 -0.81501 0
M  V30 15795 O 1413.69 3.48214 -0.75001 0
M  V30 15796 O 1412.55 5.38974 -0.903818 0
M  V30 15797 H 1409.65 0.820737 -0.101585 0
M  V30 15798 H 1412.19 1.42213 -0.925942 0
M  V30 15799 H 1410.97 3.44861 -1.84897 0
M  V30 15800 H 1410.59 3.97017 -0.215181 0
M  V30 15801 N 1411.59 0.596556 1.45873 0
M  V30 15802 C 1412.52 -0.177354 2.2751 0
M  V30 15803 C 1413.5 -0.883999 1.36471 0
M  V30 15804 O 1414.68 -0.895098 1.65892 0
M  V30 15805 C 1411.81 -1.25567 3.14564 0
M  V30 15806 C 1410.85 -0.653363 4.21466 0
M  V30 15807 S 1411.69 0.53036 5.32867 0
M  V30 15808 C 1412.84 -0.548817 6.23489 0
M  V30 15809 H 1413.08 0.515289 2.928 0
M  V30 15810 H 1410.61 0.383791 1.49554 0
M  V30 15811 H 1412.57 -1.87298 3.6528 0
M  V30 15812 H 1411.23 -1.92033 2.4856 0
M  V30 15813 H 1410.42 -1.46435 4.82258 0
M  V30 15814 H 1410.02 -0.111425 3.73834 0
M  V30 15815 H 1412.31 -1.43085 6.62218 0
M  V30 15816 H 1413.26 0.0226785 7.08096 0
M  V30 15817 H 1413.67 -0.859188 5.57923 0
M  V30 15818 N 1413.06 -1.53996 0.335095 0
M  V30 15819 C 1414.01 -2.26221 -0.541007 0
M  V30 15820 C 1415.01 -1.28053 -1.109 0
M  V30 15821 O 1416.21 -1.4579 -1.05571 0
M  V30 15822 H 1412.59 -0.726775 -0.193136 0
M  V30 15823 H 1414.56 -2.98263 0.0902792 0
M  V30 15824 C 1413.31 -3.04173 -1.68445 0
M  V30 15825 H 1412.63 -3.79537 -1.25665 0
M  V30 15826 H 1414.07 -3.57937 -2.27282 0
M  V30 15827 C 1412.53 -2.13162 -2.6089 0
M  V30 15828 O 1413.06 -1.7221 -3.62914 0
M  V30 15829 N 1411.26 -1.78414 -2.29384 0
M  V30 15830 H 1410.81 -2.11914 -1.46458 0
M  V30 15831 H 1410.77 -1.178 -2.91497 0
M  V30 15832 N 1414.54 -0.0635198 -1.57472 0
M  V30 15833 C 1415.77 0.620205 -1.9791 0
M  V30 15834 C 1416.19 1.62851 -0.941335 0
M  V30 15835 O 1415.55 1.81056 0.0940313 0
M  V30 15836 C 1415.6 1.27261 -3.37397 0
M  V30 15837 O 1414.7 2.38841 -3.36197 0
M  V30 15838 H 1414.04 0.16021 -0.644382 0
M  V30 15839 H 1416.57 -0.135582 -2.0415 0
M  V30 15840 H 1416.58 1.6214 -3.74399 0
M  V30 15841 H 1415.26 0.533723 -4.12461 0
M  V30 15842 H 1413.83 2.05817 -3.10956 0
M  V30 15843 N 1416.02 1.56195 0.209972 0
M  V30 15844 C 1416.97 1.93355 1.26026 0
M  V30 15845 C 1417.94 0.792195 1.45991 0
M  V30 15846 O 1419.12 1.04909 1.5937 0
M  V30 15847 C 1416.26 2.26558 2.60318 0
M  V30 15848 C 1415.37 3.53685 2.48055 0
M  V30 15849 C 1414.51 3.76279 3.7495 0
M  V30 15850 C 1413.55 4.96881 3.57457 0
M  V30 15851 N 1412.69 5.15806 4.76328 0
M  V30 15852 H 1417.53 2.82907 0.936357 0
M  V30 15853 H 1415.06 1.40015 0.451022 0
M  V30 15854 H 1417.02 2.43821 3.38537 0
M  V30 15855 H 1415.65 1.40165 2.90781 0
M  V30 15856 H 1414.7 3.44551 1.61211 0
M  V30 15857 H 1416.01 4.42057 2.31056 0
M  V30 15858 H 1415.17 3.93702 4.6161 0
M  V30 15859 H 1413.91 2.86209 3.94887 0
M  V30 15860 H 1412.91 4.79397 2.69181 0
M  V30 15861 H 1414.14 5.88447 3.38979 0
M  V30 15862 H 1412.08 4.28681 4.96557 0
M  V30 15863 H 1412 5.98332 4.62099 0
M  V30 15864 H 1413.27 5.37674 5.64382 0
M  V30 15865 N 1417.5 -0.477127 1.50204 0
M  V30 15866 C 1418.44 -1.57587 1.68626 0
M  V30 15867 C 1419.41 -1.57499 0.527576 0
M  V30 15868 O 1420.6 -1.75121 0.757438 0
M  V30 15869 C 1417.74 -2.956 1.78086 0
M  V30 15870 C 1416.85 -3.05523 3.05417 0
M  V30 15871 C 1415.99 -4.34414 3.05709 0
M  V30 15872 C 1415.03 -4.38057 4.27519 0
M  V30 15873 N 1414.16 -5.5841 4.25585 0
M  V30 15874 H 1419 -1.41185 2.62433 0
M  V30 15875 H 1416.54 -0.686537 1.30096 0
M  V30 15876 H 1418.5 -3.75626 1.81552 0
M  V30 15877 H 1417.13 -3.10651 0.877251 0
M  V30 15878 H 1416.18 -2.18409 3.11451 0
M  V30 15879 H 1417.49 -3.04075 3.95398 0
M  V30 15880 H 1416.65 -5.22782 3.07871 0
M  V30 15881 H 1415.39 -4.38462 2.13548 0
M  V30 15882 H 1414.39 -3.48087 4.25577 0
M  V30 15883 H 1415.62 -4.35705 5.20901 0
M  V30 15884 H 1413.56 -5.63255 3.36274 0
M  V30 15885 H 1413.48 -5.58677 5.09328 0
M  V30 15886 H 1414.75 -6.4892 4.31884 0
M  V30 15887 N 1418.98 -1.3968 -0.729882 0
M  V30 15888 C 1419.92 -1.3896 -1.86528 0
M  V30 15889 C 1420.92 -0.272027 -1.67202 0
M  V30 15890 O 1422.12 -0.442328 -1.74481 0
M  V30 15891 H 1418.5 -0.434045 -0.614092 0
M  V30 15892 H 1420.47 -2.34721 -1.84252 0
M  V30 15893 C 1419.22 -1.255 -3.24261 0
M  V30 15894 H 1418.54 -2.10767 -3.39731 0
M  V30 15895 H 1419.98 -1.29054 -4.03882 0
M  V30 15896 C 1418.44 0.0361127 -3.36881 0
M  V30 15897 O 1418.97 1.0044 -3.8894 0
M  V30 15898 N 1417.18 0.100874 -2.90425 0
M  V30 15899 H 1416.72 -0.687797 -2.48248 0
M  V30 15900 H 1416.68 0.964251 -2.99248 0
M  V30 15901 N 1420.45 0.960609 -1.2494 0
M  V30 15902 C 1421.4 2.05634 -1.04801 0
M  V30 15903 C 1422.37 1.66049 0.0409611 0
M  V30 15904 O 1423.56 1.90453 -0.115053 0
M  V30 15905 C 1420.7 3.38604 -0.666444 0
M  V30 15906 C 1419.81 3.91341 -1.82964 0
M  V30 15907 C 1418.94 5.1261 -1.39299 0
M  V30 15908 C 1417.98 5.57562 -2.52569 0
M  V30 15909 N 1417.12 6.70046 -2.09722 0
M  V30 15910 H 1421.96 2.22194 -1.9858 0
M  V30 15911 H 1419.5 1.08892 -0.988981 0
M  V30 15912 H 1421.46 4.15017 -0.426205 0
M  V30 15913 H 1420.09 3.21948 0.23435 0
M  V30 15914 H 1419.14 3.11502 -2.18335 0
M  V30 15915 H 1420.45 4.20656 -2.68049 0
M  V30 15916 H 1419.6 5.96421 -1.11205 0
M  V30 15917 H 1418.34 4.84997 -0.512779 0
M  V30 15918 H 1417.35 4.72319 -2.81415 0
M  V30 15919 H 1418.57 5.87186 -3.41159 0
M  V30 15920 H 1416.52 6.44153 -1.24109 0
M  V30 15921 H 1416.44 6.98846 -2.88357 0
M  V30 15922 H 1417.7 7.57281 -1.84787 0
M  V30 15923 N 1421.93 1.0643 1.16234 0
M  V30 15924 C 1423.16 0.802671 1.91238 0
M  V30 15925 C 1423.58 -0.637222 1.76978 0
M  V30 15926 O 1422.94 -1.44419 1.09603 0
M  V30 15927 C 1422.99 1.20389 3.3991 0
M  V30 15928 O 1422.09 0.343516 4.10967 0
M  V30 15929 H 1421.43 0.29323 0.595745 0
M  V30 15930 H 1423.96 1.42046 1.47255 0
M  V30 15931 H 1423.97 1.17604 3.90683 0
M  V30 15932 H 1422.65 2.2527 3.49608 0
M  V30 15933 H 1421.23 0.433051 3.70377 0
M  V30 15934 N 1423.41 -1.329 0.847073 0
M  V30 15935 C 1424.36 -2.29044 0.284199 0
M  V30 15936 C 1425.33 -1.54706 -0.604591 0
M  V30 15937 O 1426.51 -1.82966 -0.541116 0
M  V30 15938 C 1423.65 -3.4104 -0.527822 0
M  V30 15939 C 1422.77 -4.30273 0.385907 0
M  V30 15940 C 1421.9 -5.29391 -0.438009 0
M  V30 15941 C 1420.94 -6.10265 0.473596 0
M  V30 15942 N 1420.08 -7.01403 -0.312684 0
M  V30 15943 H 1424.92 -2.76582 1.10935 0
M  V30 15944 H 1422.45 -1.36085 0.558508 0
M  V30 15945 H 1424.41 -4.04686 -1.01417 0
M  V30 15946 H 1423.04 -2.94673 -1.31787 0
M  V30 15947 H 1422.09 -3.67275 0.99061 0
M  V30 15948 H 1423.41 -4.86837 1.08585 0
M  V30 15949 H 1422.56 -5.98604 -0.987842 0
M  V30 15950 H 1421.3 -4.73424 -1.17135 0
M  V30 15951 H 1420.3 -5.39963 1.03537 0
M  V30 15952 H 1421.53 -6.68316 1.20543 0
M  V30 15953 H 1419.47 -6.47875 -1.02926 0
M  V30 15954 H 1419.39 -7.55286 0.328376 0
M  V30 15955 H 1420.66 -7.74912 -0.844489 0
M  V30 15956 N 1424.89 -0.604284 -1.45555 0
M  V30 15957 C 1425.84 0.129013 -2.32242 0
M  V30 15958 C 1426.83 0.862933 -1.45773 0
M  V30 15959 O 1428.04 0.778874 -1.62276 0
M  V30 15960 H 1424.41 0.0604661 -0.749565 0
M  V30 15961 H 1426.38 -0.620603 -2.91875 0
M  V30 15962 C 1425.13 1.11516 -3.29332 0
M  V30 15963 H 1424.45 0.559849 -3.95861 0
M  V30 15964 H 1425.89 1.59824 -3.92724 0
M  V30 15965 C 1424.35 2.18706 -2.5626 0
M  V30 15966 O 1424.88 3.26397 -2.34154 0
M  V30 15967 N 1423.09 1.93899 -2.16452 0
M  V30 15968 H 1422.64 1.0633 -2.34631 0
M  V30 15969 H 1422.59 2.65824 -1.67884 0
M  V30 15970 N 1426.37 1.53816 -0.343257 0
M  V30 15971 C 1427.78 1.86169 0.140709 0
M  V30 15972 C 1428.13 1.26449 1.50017 0
M  V30 15973 O 1427.25 0.577955 2.08539 0
M  V30 15974 C 1427.85 3.37785 0.262097 0
M  V30 15975 C 1426.41 3.70016 0.690294 0
M  V30 15976 C 1425.55 2.7674 -0.17614 0
M  V30 15977 H 1428.51 1.48383 -0.562863 0
M  V30 15978 H 1428.53 3.64564 1.08964 0
M  V30 15979 H 1428.04 3.81221 -0.727481 0
M  V30 15980 H 1426.14 3.32124 1.68891 0
M  V30 15981 H 1426.25 4.76686 0.480388 0
M  V30 15982 H 1424.62 2.52263 0.351476 0
M  V30 15983 H 1425.4 3.23006 -1.16285 0
M  V30 15984 N 1427.84 0.0718701 1.57436 0
M  V30 15985 C 1428.78 -0.924911 2.09709 0
M  V30 15986 C 1429.79 -1.26136 1.02925 0
M  V30 15987 O 1430.98 -1.21853 1.30438 0
M  V30 15988 C 1428.08 -2.24072 2.54254 0
M  V30 15989 C 1427.25 -2.0831 3.84611 0
M  V30 15990 C 1426.31 -3.23196 4.15248 0
M  V30 15991 O 1425.34 -2.98184 4.84846 0
M  V30 15992 N 1426.54 -4.48293 3.688 0
M  V30 15993 H 1429.3 -0.478605 2.95854 0
M  V30 15994 H 1426.86 -0.113853 1.61499 0
M  V30 15995 H 1428.86 -2.99835 2.71811 0
M  V30 15996 H 1427.43 -2.60201 1.73246 0
M  V30 15997 H 1426.65 -1.17014 3.76432 0
M  V30 15998 H 1427.93 -1.9503 4.69937 0
M  V30 15999 H 1427.33 -4.71501 3.12575 0
M  V30 16000 H 1425.89 -5.21082 3.91556 0
M  V30 16001 N 1429.32 -1.56304 -0.201686 0
M  V30 16002 C 1430.27 -1.94021 -1.24999 0
M  V30 16003 C 1431.24 -0.799926 -1.45569 0
M  V30 16004 O 1432.42 -1.05752 -1.58811 0
M  V30 16005 C 1429.56 -2.27935 -2.59113 0
M  V30 16006 C 1428.68 -3.54995 -2.46176 0
M  V30 16007 C 1427.81 -3.78262 -3.72949 0
M  V30 16008 C 1426.85 -4.9877 -3.54817 0
M  V30 16009 N 1425.99 -5.18325 -4.73586 0
M  V30 16010 H 1430.83 -2.834 -0.92134 0
M  V30 16011 H 1428.37 -1.40252 -0.44359 0
M  V30 16012 H 1430.32 -2.45613 -3.37239 0
M  V30 16013 H 1428.95 -1.41705 -2.90034 0
M  V30 16014 H 1428.01 -3.45401 -1.59381 0
M  V30 16015 H 1429.32 -4.43277 -2.28708 0
M  V30 16016 H 1428.47 -3.96144 -4.59516 0
M  V30 16017 H 1427.21 -2.88299 -3.93364 0
M  V30 16018 H 1426.22 -4.80818 -2.66635 0
M  V30 16019 H 1427.44 -5.90237 -3.35854 0
M  V30 16020 H 1425.39 -4.31308 -4.94277 0
M  V30 16021 H 1425.3 -6.00774 -4.58919 0
M  V30 16022 H 1426.57 -5.40659 -5.61523 0
M  V30 16023 N 1430.8 0.469154 -1.50455 0
M  V30 16024 C 1431.73 1.57493 -1.7239 0
M  V30 16025 C 1432.71 1.60161 -0.572915 0
M  V30 16026 O 1433.9 1.76397 -0.812259 0
M  V30 16027 C 1431.03 2.95804 -1.81981 0
M  V30 16028 C 1429.98 3.08001 -2.97185 0
M  V30 16029 C 1429.31 4.4798 -2.91922 0
M  V30 16030 C 1430.61 2.85039 -4.37665 0
M  V30 16031 H 1432.3 1.39389 -2.64974 0
M  V30 16032 H 1429.85 0.669133 -1.27509 0
M  V30 16033 H 1431.8 3.73091 -1.95911 0
M  V30 16034 H 1430.52 3.15068 -0.86021 0
M  V30 16035 H 1429.18 2.33148 -2.82909 0
M  V30 16036 H 1428.83 4.64165 -1.93803 0
M  V30 16037 H 1428.53 4.57076 -3.69263 0
M  V30 16038 H 1430.05 5.27284 -3.07903 0
M  V30 16039 H 1431.47 3.52074 -4.52456 0
M  V30 16040 H 1429.87 3.05578 -5.16471 0
M  V30 16041 H 1430.94 1.8088 -4.499 0
M  V30 16042 N 1432.28 1.40065 0.722464 0
M  V30 16043 C 1433.23 1.39947 1.85789 0
M  V30 16044 C 1434.22 0.28089 1.67055 0
M  V30 16045 O 1435.43 0.451575 1.74244 0
M  V30 16046 H 1431.8 0.437296 0.611781 0
M  V30 16047 H 1433.77 2.35695 1.83004 0
M  V30 16048 C 1432.52 1.27218 3.2359 0
M  V30 16049 H 1431.84 2.12566 3.38609 0
M  V30 16050 H 1433.28 1.31194 4.03192 0
M  V30 16051 C 1431.74 -0.0182466 3.36895 0
M  V30 16052 O 1432.27 -0.983761 3.89468 0
M  V30 16053 N 1430.48 -0.0854707 2.90474 0
M  V30 16054 H 1430.03 0.700953 2.4788 0
M  V30 16055 H 1429.98 -0.948367 2.99755 0
M  V30 16056 N 1433.76 -0.95397 1.25448 0
M  V30 16057 C 1434.71 -2.07206 1.05681 0
M  V30 16058 C 1435.7 -1.69395 -0.0124672 0
M  V30 16059 O 1436.91 -1.79429 0.143201 0
M  V30 16060 H 1433.28 -0.678231 0.324817 0
M  V30 16061 H 1435.25 -2.21034 2.00466 0
M  V30 16062 C 1434 -3.40725 0.692955 0
M  V30 16063 H 1433.32 -3.70287 1.50756 0
M  V30 16064 H 1434.76 -4.19814 0.594351 0
M  V30 16065 C 1433.22 -3.31495 -0.601028 0
M  V30 16066 O 1433.75 -3.66565 -1.64296 0
M  V30 16067 N 1431.96 -2.84612 -0.586899 0
M  V30 16068 H 1431.51 -2.56271 0.261375 0
M  V30 16069 H 1431.46 -2.78819 -1.45284 0
M  V30 16070 N 1435.24 -1.07045 -1.15668 0
M  V30 16071 C 1436.46 -0.812746 -1.90268 0
M  V30 16072 C 1436.88 0.633722 -1.77847 0
M  V30 16073 O 1436.24 1.43444 -1.12828 0
M  V30 16074 C 1436.29 -1.20793 -3.40722 0
M  V30 16075 O 1436.01 -2.59764 -3.52781 0
M  V30 16076 C 1437.51 -0.979074 -4.32353 0
M  V30 16077 H 1434.73 -0.294093 -0.603117 0
M  V30 16078 H 1437.27 -1.42609 -1.46571 0
M  V30 16079 H 1435.43 -0.638975 -3.82094 0
M  V30 16080 H 1435.84 -2.75801 -4.46133 0
M  V30 16081 H 1437.32 -1.30513 -5.36349 0
M  V30 16082 H 1437.79 0.0847752 -4.39118 0
M  V30 16083 H 1438.4 -1.53278 -3.96719 0
M  V30 16084 N 1436.71 1.32449 -0.85411 0
M  V30 16085 C 1437.65 2.2777 -0.255605 0
M  V30 16086 C 1438.66 1.52407 0.572355 0
M  V30 16087 O 1439.85 1.74031 0.396935 0
M  V30 16088 C 1436.95 3.32461 0.657496 0
M  V30 16089 C 1436.12 4.37193 -0.134492 0
M  V30 16090 C 1435.18 5.21465 0.704288 0
M  V30 16091 O 1434.21 5.69033 0.138001 0
M  V30 16092 N 1435.41 5.44254 2.01911 0
M  V30 16093 H 1438.17 2.79769 -1.07468 0
M  V30 16094 H 1435.73 1.45304 -0.714038 0
M  V30 16095 H 1437.73 3.85748 1.22396 0
M  V30 16096 H 1436.3 2.80625 1.37726 0
M  V30 16097 H 1435.52 3.84198 -0.882378 0
M  V30 16098 H 1436.8 5.04256 -0.678508 0
M  V30 16099 H 1436.2 5.07336 2.50252 0
M  V30 16100 H 1434.76 6.00538 2.53371 0
M  V30 16101 N 1438.19 0.611994 1.45232 0
M  V30 16102 C 1439.44 0.108696 2.01807 0
M  V30 16103 C 1439.76 -1.26692 1.48237 0
M  V30 16104 O 1439.03 -1.8378 0.678368 0
M  V30 16105 H 1437.61 0.0371921 0.746074 0
M  V30 16106 H 1440.27 0.794386 1.77976 0
M  V30 16107 H 1439.37 0.0618207 3.12039 0
M  V30 16108 N 1439.67 -1.53632 0.351409 0
M  V30 16109 C 1440.95 -1.93311 -0.298362 0
M  V30 16110 C 1441.33 -1.28369 -1.67584 0
M  V30 16111 O 1440.67 -0.437514 -2.24272 0
M  V30 16112 C 1440.88 -3.47109 -0.362773 0
M  V30 16113 C 1442.23 -4.20197 -0.609878 0
M  V30 16114 O 1443.26 -3.53415 -0.444566 0
M  V30 16115 O 1442.12 -5.38517 -0.930691 0
M  V30 16116 H 1439.21 -0.808112 -0.175739 0
M  V30 16117 H 1441.76 -1.64841 0.40316 0
M  V30 16118 H 1440.53 -3.86617 0.60357 0
M  V30 16119 H 1440.15 -3.81769 -1.11076 0
M  V30 16120 N 1441.15 -0.0802183 -1.57396 0
M  V30 16121 C 1442.09 0.884041 -2.13198 0
M  V30 16122 C 1443.06 1.28975 -1.04664 0
M  V30 16123 O 1444.25 1.37413 -1.32372 0
M  V30 16124 C 1441.39 2.14323 -2.7048 0
M  V30 16125 C 1440.5 1.7894 -3.93198 0
M  V30 16126 C 1439.64 2.99534 -4.38695 0
M  V30 16127 C 1438.68 2.60207 -5.54039 0
M  V30 16128 N 1437.81 3.73587 -5.94455 0
M  V30 16129 H 1442.65 0.40131 -2.95285 0
M  V30 16130 H 1440.19 0.186429 -1.45914 0
M  V30 16131 H 1442.15 2.88046 -3.01804 0
M  V30 16132 H 1440.78 2.60122 -1.91144 0
M  V30 16133 H 1439.83 0.952465 -3.68283 0
M  V30 16134 H 1441.14 1.46012 -4.76951 0
M  V30 16135 H 1440.3 3.81526 -4.71724 0
M  V30 16136 H 1439.04 3.35661 -3.53812 0
M  V30 16137 H 1438.04 1.76638 -5.20652 0
M  V30 16138 H 1439.27 2.2524 -6.40659 0
M  V30 16139 H 1437.21 4.0946 -5.12521 0
M  V30 16140 H 1437.13 3.44455 -6.72969 0
M  V30 16141 H 1438.4 4.56133 -6.3211 0
M  V30 16142 N 1442.63 1.56409 0.193394 0
M  V30 16143 C 1443.57 1.95572 1.25914 0
M  V30 16144 C 1444.57 0.841384 1.47028 0
M  V30 16145 O 1445.77 1.0264 1.47868 0
M  V30 16146 H 1442.15 0.621914 0.422761 0
M  V30 16147 H 1444.12 2.84446 0.901827 0
M  V30 16148 C 1442.87 2.31293 2.59613 0
M  V30 16149 H 1442.19 3.16568 2.44182 0
M  V30 16150 H 1443.63 2.62558 3.32926 0
M  V30 16151 C 1442.09 1.14818 3.16731 0
M  V30 16152 O 1442.62 0.424105 3.99455 0
M  V30 16153 N 1440.83 0.924536 2.75501 0
M  V30 16154 H 1440.37 1.51509 2.08334 0
M  V30 16155 H 1440.33 0.147006 3.14056 0
M  V30 16156 N 1444.1 -0.461169 1.50702 0
M  V30 16157 C 1445.35 -1.21431 1.62427 0
M  V30 16158 C 1445.68 -1.91406 0.328228 0
M  V30 16159 O 1444.96 -1.82563 -0.670898 0
M  V30 16160 C 1445.24 -2.25016 2.8114 0
M  V30 16161 C 1445.09 -1.5928 4.20654 0
M  V30 16162 C 1446.41 -3.26234 2.95397 0
M  V30 16163 H 1443.53 -0.440113 0.59116 0
M  V30 16164 H 1446.17 -0.506726 1.83118 0
M  V30 16165 H 1444.32 -2.85363 2.63629 0
M  V30 16166 H 1446 -1.02454 4.49779 0
M  V30 16167 H 1444.24 -0.895665 4.24453 0
M  V30 16168 H 1444.91 -2.34602 4.99666 0
M  V30 16169 H 1447.39 -2.7592 3.1146 0
M  V30 16170 H 1446.26 -3.96031 3.80067 0
M  V30 16171 H 1446.52 -3.90943 2.06436 0
M  V30 16172 N 1445.58 -1.40446 -0.715026 0
M  V30 16173 C 1446.53 -1.40931 -1.85044 0
M  V30 16174 C 1447.52 -0.289745 -1.66904 0
M  V30 16175 O 1448.73 -0.460809 -1.74002 0
M  V30 16176 H 1445.1 -0.440534 -0.609454 0
M  V30 16177 H 1447.08 -2.36662 -1.81752 0
M  V30 16178 C 1445.82 -1.28933 -3.22911 0
M  V30 16179 H 1445.15 -2.14359 -3.37476 0
M  V30 16180 H 1446.59 -1.33331 -4.02491 0
M  V30 16181 C 1445.05 0.000379936 -3.369 0
M  V30 16182 O 1445.58 0.963093 -3.89984 0
M  V30 16183 N 1443.78 0.0700649 -2.90516 0
M  V30 16184 H 1443.33 -0.714088 -2.47505 0
M  V30 16185 H 1443.29 0.932457 -3.00254 0
M  V30 16186 N 1447.06 0.947303 -1.25952 0
M  V30 16187 C 1448.34 1.66964 -1.01894 0
M  V30 16188 C 1448.72 2.06192 0.452555 0
M  V30 16189 O 1448.06 1.78098 1.43156 0
M  V30 16190 C 1448.27 2.88643 -1.96179 0
M  V30 16191 C 1449.62 3.60432 -2.24441 0
M  V30 16192 O 1450.65 2.98737 -1.93996 0
M  V30 16193 O 1449.51 4.7154 -2.76247 0
M  V30 16194 H 1446.6 0.730875 -0.386976 0
M  V30 16195 H 1449.15 0.999577 -1.37137 0
M  V30 16196 H 1447.92 2.565 -2.95506 0
M  V30 16197 H 1447.54 3.63377 -1.61379 0
M  V30 16198 N 1448.54 1.07657 1.15099 0
M  V30 16199 C 1449.82 0.714608 1.82079 0
M  V30 16200 C 1450.2 -0.802578 1.95248 0
M  V30 16201 O 1449.54 -1.71818 1.50634 0
M  V30 16202 C 1449.75 1.43264 3.1824 0
M  V30 16203 C 1451.1 1.58675 3.93837 0
M  V30 16204 O 1452.13 1.39367 3.27804 0
M  V30 16205 O 1450.98 1.9047 5.12234 0
M  V30 16206 H 1448.08 0.254645 0.786819 0
M  V30 16207 H 1450.62 1.17768 1.22183 0
M  V30 16208 H 1449.4 2.46655 3.03772 0
M  V30 16209 H 1449.02 0.960546 3.85823 0
M  V30 16210 N 1450.02 -1.31994 0.861122 0
M  V30 16211 C 1450.93 -2.32495 0.313555 0
M  V30 16212 C 1451.94 -1.64331 -0.571966 0
M  V30 16213 O 1453.12 -1.9582 -0.470794 0
M  V30 16214 C 1450.18 -3.43311 -0.483603 0
M  V30 16215 C 1449.24 -4.27153 0.428825 0
M  V30 16216 C 1448.48 -5.32676 -0.330383 0
M  V30 16217 O 1448.7 -5.48665 -1.55957 0
M  V30 16218 O 1447.63 -6.01116 0.307174 0
M  V30 16219 H 1451.46 -2.81234 1.14636 0
M  V30 16220 H 1449.05 -1.35734 0.624239 0
M  V30 16221 H 1450.93 -4.10877 -0.935831 0
M  V30 16222 H 1449.6 -2.9675 -1.2931 0
M  V30 16223 H 1448.51 -3.62372 0.929366 0
M  V30 16224 H 1449.84 -4.77255 1.20368 0
M  V30 16225 N 1451.49 -0.619688 -1.44906 0
M  V30 16226 C 1452.44 0.104373 -2.32366 0
M  V30 16227 C 1453.44 0.847423 -1.4668 0
M  V30 16228 O 1454.64 0.761618 -1.63093 0
M  V30 16229 H 1451.02 0.0525126 -0.750164 0
M  V30 16230 H 1452.99 -0.651525 -2.912 0
M  V30 16231 C 1451.74 1.08017 -3.30496 0
M  V30 16232 H 1451.06 0.517831 -3.96432 0
M  V30 16233 H 1452.5 1.5565 -3.94397 0
M  V30 16234 C 1450.96 2.15975 -2.58566 0
M  V30 16235 O 1451.49 3.23895 -2.37603 0
M  V30 16236 N 1449.7 1.91593 -2.18496 0
M  V30 16237 H 1449.24 1.03835 -2.35746 0
M  V30 16238 H 1449.2 2.64028 -1.70694 0
M  V30 16239 N 1452.97 1.53444 -0.359552 0
M  V30 16240 C 1454.22 2.01464 0.232366 0
M  V30 16241 C 1454.55 1.24656 1.48911 0
M  V30 16242 O 1453.83 0.338574 1.9153 0
M  V30 16243 C 1454.11 3.56172 0.530403 0
M  V30 16244 C 1453.96 4.43678 -0.739556 0
M  V30 16245 C 1455.28 4.19412 1.33347 0
M  V30 16246 H 1452.4 0.732314 0.0829802 0
M  V30 16247 H 1455.04 1.83752 -0.483253 0
M  V30 16248 H 1453.19 3.71396 1.14004 0
M  V30 16249 H 1454.86 4.40263 -1.37719 0
M  V30 16250 H 1453.11 4.11892 -1.36117 0
M  V30 16251 H 1453.78 5.49856 -0.486062 0
M  V30 16252 H 1456.25 4.07984 0.817816 0
M  V30 16253 H 1455.13 5.277 1.51075 0
M  V30 16254 H 1455.39 3.7508 2.34024 0
M  V30 16255 N 1454.45 0.0885642 1.57351 0
M  V30 16256 C 1455.4 -0.890284 2.14888 0
M  V30 16257 C 1456.39 -1.29671 1.09004 0
M  V30 16258 O 1457.6 -1.272 1.27359 0
M  V30 16259 H 1453.97 -0.305107 0.687324 0
M  V30 16260 H 1455.94 -0.380243 2.95967 0
M  V30 16261 C 1454.69 -2.14216 2.73874 0
M  V30 16262 H 1454.02 -1.8383 3.55031 0
M  V30 16263 H 1455.46 -2.8078 3.17708 0
M  V30 16264 C 1453.92 -2.91186 1.69448 0
M  V30 16265 O 1454.45 -3.85494 1.12949 0
M  V30 16266 N 1452.65 -2.54603 1.40091 0
M  V30 16267 H 1452.2 -1.77984 1.86225 0
M  V30 16268 H 1452.16 -3.06403 0.704577 0
M  V30 16269 N 1455.93 -1.56509 -0.185096 0
M  V30 16270 C 1457.21 -1.72055 -0.930398 0
M  V30 16271 C 1457.59 -0.646145 -2.00968 0
M  V30 16272 O 1456.93 0.34129 -2.25937 0
M  V30 16273 C 1457.14 -3.14752 -1.50771 0
M  V30 16274 C 1458.49 -3.75292 -1.98597 0
M  V30 16275 O 1459.52 -3.17944 -1.60593 0
M  V30 16276 O 1458.37 -4.7596 -2.68561 0
M  V30 16277 H 1455.47 -0.702118 -0.436989 0
M  V30 16278 H 1458.01 -1.68806 -0.174007 0
M  V30 16279 H 1456.79 -3.84426 -0.730236 0
M  V30 16280 H 1456.41 -3.22272 -2.32866 0
M  V30 16281 N 1457.41 0.45317 -1.50944 0
M  V30 16282 C 1458.68 1.21413 -1.53357 0
M  V30 16283 C 1459.06 2.09118 -0.288584 0
M  V30 16284 O 1458.41 2.16621 0.727164 0
M  V30 16285 C 1458.62 2.02969 -2.83909 0
M  V30 16286 C 1459.97 2.60551 -3.35258 0
M  V30 16287 O 1460.99 2.13196 -2.85353 0
M  V30 16288 O 1459.85 3.46881 -4.22298 0
M  V30 16289 H 1456.95 0.551909 -0.615894 0
M  V30 16290 H 1459.49 0.463529 -1.63247 0
M  V30 16291 H 1458.26 1.38453 -3.65987 0
M  V30 16292 H 1457.89 2.85127 -2.77107 0
M  V30 16293 N 1458.88 1.40823 0.707568 0
M  V30 16294 C 1459.79 1.44058 1.85161 0
M  V30 16295 C 1460.81 0.332357 1.70796 0
M  V30 16296 O 1461.99 0.578205 1.92922 0
M  V30 16297 C 1459.05 1.3091 3.21035 0
M  V30 16298 C 1458.11 2.51944 3.47595 0
M  V30 16299 C 1457.35 2.39414 4.76987 0
M  V30 16300 O 1457.57 1.41224 5.52641 0
M  V30 16301 O 1456.5 3.28944 5.04063 0
M  V30 16302 H 1460.33 2.40551 1.85388 0
M  V30 16303 H 1457.91 1.22232 0.859052 0
M  V30 16304 H 1459.8 1.25816 4.02179 0
M  V30 16305 H 1458.47 0.375263 3.21517 0
M  V30 16306 H 1457.38 2.62615 2.66428 0
M  V30 16307 H 1458.71 3.44115 3.51917 0
M  V30 16308 N 1460.36 -0.94061 1.26453 0
M  V30 16309 C 1461.31 -2.06073 1.07873 0
M  V30 16310 C 1462.3 -1.69399 0.0055001 0
M  V30 16311 O 1463.51 -1.79267 0.162224 0
M  V30 16312 H 1459.89 -0.674748 0.331993 0
M  V30 16313 H 1461.86 -2.18895 2.02799 0
M  V30 16314 C 1460.61 -3.39971 0.729054 0
M  V30 16315 H 1459.93 -3.68667 1.54675 0
M  V30 16316 H 1461.37 -4.1916 0.638844 0
M  V30 16317 C 1459.83 -3.32114 -0.565835 0
M  V30 16318 O 1460.36 -3.68287 -1.60399 0
M  V30 16319 N 1458.56 -2.85218 -0.556679 0
M  V30 16320 H 1458.11 -2.55979 0.288541 0
M  V30 16321 H 1458.07 -2.80344 -1.42318 0
M  V30 16322 N 1461.84 -1.08266 -1.14527 0
M  V30 16323 C 1463.09 -0.812661 -1.85805 0
M  V30 16324 C 1463.42 0.659878 -1.82645 0
M  V30 16325 O 1462.69 1.48498 -1.25612 0
M  V30 16326 C 1462.98 -1.33335 -3.34505 0
M  V30 16327 C 1462.83 -2.87113 -3.46246 0
M  V30 16328 C 1464.15 -0.957435 -4.29559 0
M  V30 16329 H 1461.27 -0.296681 -0.674648 0
M  V30 16330 H 1463.91 -1.34203 -1.34497 0
M  V30 16331 H 1462.06 -0.883056 -3.78331 0
M  V30 16332 H 1463.73 -3.40502 -3.11217 0
M  V30 16333 H 1461.98 -3.24845 -2.87504 0
M  V30 16334 H 1462.65 -3.18618 -4.50762 0
M  V30 16335 H 1465.12 -1.3456 -3.93742 0
M  V30 16336 H 1464 -1.34897 -5.32066 0
M  V30 16337 H 1464.26 0.135689 -4.41892 0
M  V30 16338 N 1463.32 1.31536 -0.86811 0
M  V30 16339 C 1464.27 2.28562 -0.320602 0
M  V30 16340 C 1465.24 1.55648 0.579902 0
M  V30 16341 O 1466.42 1.83804 0.51194 0
M  V30 16342 C 1463.56 3.41836 0.473499 0
M  V30 16343 C 1462.67 4.29604 -0.454311 0
M  V30 16344 C 1461.81 5.30021 0.353733 0
M  V30 16345 C 1460.85 6.09434 -0.570624 0
M  V30 16346 N 1459.99 7.01812 0.201058 0
M  V30 16347 H 1464.83 2.74782 -1.15322 0
M  V30 16348 H 1462.36 1.35179 -0.580088 0
M  V30 16349 H 1464.32 4.06248 0.949662 0
M  V30 16350 H 1462.95 2.96732 1.27083 0
M  V30 16351 H 1462 3.65653 -1.04892 0
M  V30 16352 H 1463.31 4.85048 -1.16316 0
M  V30 16353 H 1462.47 6.001 0.892484 0
M  V30 16354 H 1461.21 4.75228 1.09589 0
M  V30 16355 H 1460.21 5.38247 -1.12115 0
M  V30 16356 H 1461.44 6.66314 -1.3116 0
M  V30 16357 H 1459.38 6.49431 0.926058 0
M  V30 16358 H 1459.3 7.54668 -0.448494 0
M  V30 16359 H 1460.57 7.76157 0.7211 0
M  V30 16360 N 1464.8 0.627364 1.44575 0
M  V30 16361 C 1466.05 0.130094 2.01681 0
M  V30 16362 C 1466.37 -1.25112 1.49572 0
M  V30 16363 O 1465.64 -1.8305 0.697822 0
M  V30 16364 H 1464.22 0.0451032 0.745637 0
M  V30 16365 H 1466.88 0.813218 1.77124 0
M  V30 16366 H 1465.97 0.0949131 3.11956 0
M  V30 16367 N 1466.28 -1.53251 0.367684 0
M  V30 16368 C 1467.55 -1.93617 -0.277842 0
M  V30 16369 C 1467.93 -1.3014 -1.66213 0
M  V30 16370 O 1467.28 -0.461277 -2.23796 0
M  V30 16371 C 1467.49 -3.47475 -0.325937 0
M  V30 16372 C 1468.84 -4.2082 -0.565276 0
M  V30 16373 O 1469.86 -3.53866 -0.407057 0
M  V30 16374 O 1468.72 -5.39474 -0.873522 0
M  V30 16375 H 1465.82 -0.80993 -0.167158 0
M  V30 16376 H 1468.36 -1.64405 0.420621 0
M  V30 16377 H 1467.13 -3.85955 0.644542 0
M  V30 16378 H 1466.76 -3.82926 -1.07021 0
M  V30 16379 N 1467.75 -0.0969077 -1.57302 0
M  V30 16380 C 1468.66 0.875561 -2.17649 0
M  V30 16381 C 1469.68 1.30892 -1.14645 0
M  V30 16382 O 1470.86 1.37646 -1.47022 0
M  V30 16383 C 1467.92 2.116 -2.74639 0
M  V30 16384 C 1466.98 1.73667 -3.92604 0
M  V30 16385 C 1466.21 2.91798 -4.46867 0
M  V30 16386 O 1466.44 4.06577 -4.00064 0
M  V30 16387 O 1465.37 2.70159 -5.37864 0
M  V30 16388 H 1469.2 0.392107 -3.01158 0
M  V30 16389 H 1466.78 0.127539 -1.48855 0
M  V30 16390 H 1468.66 2.84292 -3.11057 0
M  V30 16391 H 1467.34 2.58994 -1.94174 0
M  V30 16392 H 1466.25 0.981505 -3.60995 0
M  V30 16393 H 1467.58 1.31035 -4.74437 0
M  V30 16394 N 1469.23 1.56605 0.176793 0
M  V30 16395 C 1470.18 1.96896 1.23833 0
M  V30 16396 C 1471.17 0.85693 1.46127 0
M  V30 16397 O 1472.38 1.04202 1.46772 0
M  V30 16398 H 1468.75 0.626363 0.416141 0
M  V30 16399 H 1470.73 2.85387 0.871607 0
M  V30 16400 C 1469.47 2.34034 2.57145 0
M  V30 16401 H 1468.8 3.1914 2.40811 0
M  V30 16402 H 1470.24 2.66074 3.30122 0
M  V30 16403 C 1468.7 1.18171 3.15495 0
M  V30 16404 O 1469.23 0.466448 3.98983 0
M  V30 16405 N 1467.43 0.953705 2.74505 0
M  V30 16406 H 1466.98 1.5371 2.06715 0
M  V30 16407 H 1466.94 0.180307 3.13883 0
M  V30 16408 N 1470.71 -0.445159 1.51182 0
M  V30 16409 C 1471.96 -1.19701 1.63705 0
M  V30 16410 C 1472.29 -1.91047 0.348511 0
M  V30 16411 O 1471.56 -1.83264 -0.651497 0
M  V30 16412 C 1471.85 -2.22021 2.83511 0
M  V30 16413 C 1471.7 -1.54809 4.2232 0
M  V30 16414 C 1473.02 -3.23083 2.9884 0
M  V30 16415 H 1470.14 -0.433818 0.595795 0
M  V30 16416 H 1472.78 -0.487276 1.83645 0
M  V30 16417 H 1470.93 -2.82551 2.66641 0
M  V30 16418 H 1472.6 -0.976774 4.5084 0
M  V30 16419 H 1470.84 -0.850596 4.25379 0
M  V30 16420 H 1471.52 -2.29289 5.02126 0
M  V30 16421 H 1473.99 -2.72601 3.14369 0
M  V30 16422 H 1472.87 -3.91978 3.84246 0
M  V30 16423 H 1473.13 -3.88732 2.1057 0
M  V30 16424 N 1472.19 -1.41197 -0.700089 0
M  V30 16425 C 1473.13 -1.42688 -1.81407 0
M  V30 16426 C 1474.1 -0.28182 -1.63692 0
M  V30 16427 O 1475.29 -0.482196 -1.84606 0
M  V30 16428 C 1472.43 -1.31041 -3.19252 0
M  V30 16429 C 1471.54 -2.5538 -3.48432 0
M  V30 16430 C 1470.68 -2.3606 -4.75867 0
M  V30 16431 C 1469.72 -3.55898 -4.97999 0
M  V30 16432 N 1468.85 -3.35676 -6.16657 0
M  V30 16433 H 1473.69 -2.37898 -1.79467 0
M  V30 16434 H 1471.23 -1.18137 -0.87647 0
M  V30 16435 H 1473.19 -1.22292 -3.98874 0
M  V30 16436 H 1471.82 -0.394422 -3.20381 0
M  V30 16437 H 1470.87 -2.74598 -2.6325 0
M  V30 16438 H 1472.18 -3.44535 -3.6069 0
M  V30 16439 H 1471.34 -2.24752 -5.63535 0
M  V30 16440 H 1470.08 -1.44355 -4.65846 0
M  V30 16441 H 1469.08 -3.67665 -4.08781 0
M  V30 16442 H 1470.31 -4.4855 -5.09882 0
M  V30 16443 H 1468.25 -2.46667 -6.07858 0
M  V30 16444 H 1468.17 -4.18404 -6.29662 0
M  V30 16445 H 1469.44 -3.28132 -7.07071 0
M  V30 16446 N 1473.67 0.933891 -1.2695 0
M  V30 16447 C 1474.91 1.67759 -1.12701 0
M  V30 16448 C 1475.23 1.92207 0.328848 0
M  V30 16449 O 1474.5 1.52394 1.23097 0
M  V30 16450 H 1473.08 0.621729 -0.41408 0
M  V30 16451 H 1475.75 1.1217 -1.59386 0
M  V30 16452 H 1474.84 2.64834 -1.65135 0
M  V30 16453 N 1475.14 1.08871 1.13951 0
M  V30 16454 C 1476.42 0.73388 1.81311 0
M  V30 16455 C 1476.8 -0.781824 1.96089 0
M  V30 16456 O 1476.15 -1.70211 1.52448 0
M  V30 16457 C 1476.36 1.46631 3.16702 0
M  V30 16458 C 1477.71 1.62843 3.92132 0
M  V30 16459 O 1478.73 1.42836 3.26307 0
M  V30 16460 O 1477.59 1.95893 5.10185 0
M  V30 16461 H 1474.68 0.262976 0.784074 0
M  V30 16462 H 1477.23 1.19057 1.20927 0
M  V30 16463 H 1476 2.49863 3.01138 0
M  V30 16464 H 1475.62 1.00141 3.84782 0
M  V30 16465 N 1476.62 -1.31073 0.875073 0
M  V30 16466 C 1477.53 -2.3215 0.338196 0
M  V30 16467 C 1478.55 -1.64928 -0.554504 0
M  V30 16468 O 1479.72 -1.96308 -0.449998 0
M  V30 16469 C 1476.79 -3.43804 -0.447163 0
M  V30 16470 C 1475.85 -4.26674 0.474106 0
M  V30 16471 C 1475.08 -5.32997 -0.273867 0
M  V30 16472 O 1475.31 -5.50288 -1.50129 0
M  V30 16473 O 1474.24 -6.00756 0.370913 0
M  V30 16474 H 1478.07 -2.80002 1.17612 0
M  V30 16475 H 1475.65 -1.35064 0.6386 0
M  V30 16476 H 1477.53 -4.11847 -0.892199 0
M  V30 16477 H 1476.21 -2.98105 -1.26155 0
M  V30 16478 H 1475.11 -3.61366 0.967748 0
M  V30 16479 H 1476.45 -4.75952 1.25423 0
M  V30 16480 N 1478.1 -0.635022 -1.4424 0
M  V30 16481 C 1479.05 0.0797218 -2.32463 0
M  V30 16482 C 1480.04 0.831818 -1.47571 0
M  V30 16483 O 1481.25 0.744277 -1.63892 0
M  V30 16484 H 1477.62 0.0445532 -0.750679 0
M  V30 16485 H 1479.59 -0.682374 -2.90493 0
M  V30 16486 C 1478.34 1.04505 -3.31623 0
M  V30 16487 H 1477.67 0.475755 -3.96959 0
M  V30 16488 H 1479.11 1.51458 -3.96026 0
M  V30 16489 C 1477.57 2.13221 -2.60842 0
M  V30 16490 O 1478.1 3.21357 -2.41025 0
M  V30 16491 N 1476.3 1.89264 -2.20516 0
M  V30 16492 H 1475.85 1.01329 -2.36834 0
M  V30 16493 H 1475.81 2.62203 -1.73484 0
M  V30 16494 N 1479.58 1.53054 -0.375806 0
M  V30 16495 C 1480.82 2.017 0.210985 0
M  V30 16496 C 1481.16 1.26228 1.47581 0
M  V30 16497 O 1480.43 0.358869 1.91161 0
M  V30 16498 C 1480.72 3.56715 0.492596 0
M  V30 16499 C 1480.57 4.42869 -0.786573 0
M  V30 16500 C 1481.89 4.20803 1.28891 0
M  V30 16501 H 1479.01 0.733153 0.0752084 0
M  V30 16502 H 1481.65 1.83229 -0.502715 0
M  V30 16503 H 1479.8 3.72585 1.10059 0
M  V30 16504 H 1481.47 4.38777 -1.42381 0
M  V30 16505 H 1479.71 4.10425 -1.40478 0
M  V30 16506 H 1480.38 5.49309 -0.544354 0
M  V30 16507 H 1482.86 4.08828 0.774498 0
M  V30 16508 H 1481.74 5.29273 1.45469 0
M  V30 16509 H 1482 3.77541 2.30033 0
M  V30 16510 N 1481.06 0.105248 1.57248 0
M  V30 16511 C 1482 -0.850012 2.14577 0
M  V30 16512 C 1482.97 -1.27294 1.06703 0
M  V30 16513 O 1484.16 -1.35289 1.34542 0
M  V30 16514 C 1481.3 -2.09993 2.73856 0
M  V30 16515 C 1480.41 -1.72662 3.95995 0
M  V30 16516 C 1479.55 -2.92517 4.43404 0
M  V30 16517 C 1478.59 -2.5136 5.58108 0
M  V30 16518 N 1477.72 -3.64082 6.00324 0
M  V30 16519 H 1482.56 -0.354282 2.95887 0
M  V30 16520 H 1480.1 -0.163192 1.46192 0
M  V30 16521 H 1482.06 -2.83208 3.06348 0
M  V30 16522 H 1480.69 -2.57048 1.95259 0
M  V30 16523 H 1479.74 -0.893754 3.69752 0
M  V30 16524 H 1481.05 -1.38406 4.79213 0
M  V30 16525 H 1480.21 -3.73973 4.77734 0
M  V30 16526 H 1478.94 -3.2999 3.59107 0
M  V30 16527 H 1477.95 -1.68333 5.23397 0
M  V30 16528 H 1479.17 -2.15019 6.44161 0
M  V30 16529 H 1477.12 -4.01255 5.18971 0
M  V30 16530 H 1477.04 -3.33705 6.78363 0
M  V30 16531 H 1478.31 -4.46019 6.39287 0
M  V30 16532 N 1482.53 -1.56697 -0.168486 0
M  V30 16533 C 1483.78 -1.81794 -0.882907 0
M  V30 16534 C 1484.1 -0.682707 -1.82658 0
M  V30 16535 O 1483.37 0.297234 -1.93632 0
M  V30 16536 H 1481.95 -0.670636 -0.329024 0
M  V30 16537 H 1484.62 -1.94178 -0.167625 0
M  V30 16538 H 1483.71 -2.75945 -1.45811 0
M  V30 16539 N 1484.01 0.437135 -1.51416 0
M  V30 16540 C 1485.29 1.1978 -1.54636 0
M  V30 16541 C 1485.67 2.088 -0.310747 0
M  V30 16542 O 1485.02 2.1738 0.704148 0
M  V30 16543 C 1485.23 1.99947 -2.86046 0
M  V30 16544 C 1486.58 2.56981 -3.38003 0
M  V30 16545 O 1487.6 2.10157 -2.87598 0
M  V30 16546 O 1486.46 3.42383 -4.25953 0
M  V30 16547 H 1483.55 0.545346 -0.621713 0
M  V30 16548 H 1486.1 0.446189 -1.63729 0
M  V30 16549 H 1484.87 1.34564 -3.67435 0
M  V30 16550 H 1484.49 2.82172 -2.80115 0
M  V30 16551 N 1485.49 1.41566 0.692592 0
M  V30 16552 C 1486.4 1.46014 1.83622 0
M  V30 16553 C 1487.42 0.350453 1.70434 0
M  V30 16554 O 1488.59 0.598634 1.92298 0
M  V30 16555 C 1485.66 1.34308 3.19628 0
M  V30 16556 C 1484.72 2.55617 3.44904 0
M  V30 16557 C 1483.95 2.4446 4.74421 0
M  V30 16558 O 1484.17 1.47078 5.51112 0
M  V30 16559 O 1483.11 3.34272 5.00546 0
M  V30 16560 H 1486.93 2.42504 1.82826 0
M  V30 16561 H 1484.52 1.23136 0.846039 0
M  V30 16562 H 1486.4 1.30075 4.00822 0
M  V30 16563 H 1485.08 0.409343 3.21101 0
M  V30 16564 H 1483.98 2.65426 2.63628 0
M  V30 16565 H 1485.32 3.47829 3.48247 0
M  V30 16566 N 1486.97 -0.927146 1.27443 0
M  V30 16567 C 1488.2 -1.70648 1.1646 0
M  V30 16568 C 1488.61 -1.871 -0.28114 0
M  V30 16569 O 1487.95 -1.38813 -1.20319 0
M  V30 16570 C 1488.01 -3.12542 1.77646 0
M  V30 16571 C 1487.68 -3.19425 3.26828 0
M  V30 16572 C 1488.67 -3.01633 4.23454 0
M  V30 16573 C 1486.36 -3.42366 3.67547 0
M  V30 16574 C 1488.35 -3.06672 5.58776 0
M  V30 16575 C 1486.04 -3.47039 5.02998 0
M  V30 16576 C 1487.04 -3.2921 5.98423 0
M  V30 16577 O 1486.72 -3.33619 7.31405 0
M  V30 16578 H 1486.46 -0.540657 0.40579 0
M  V30 16579 H 1489.01 -1.16983 1.68832 0
M  V30 16580 H 1487.24 -3.67691 1.19752 0
M  V30 16581 H 1488.93 -3.72445 1.61369 0
M  V30 16582 H 1489.7 -2.8375 3.93333 0
M  V30 16583 H 1485.57 -3.55294 2.93747 0
M  V30 16584 H 1489.12 -2.92674 6.33236 0
M  V30 16585 H 1485.02 -3.64446 5.32775 0
M  V30 16586 H 1485.78 -3.5007 7.3986 0
M  V30 16587 N 1488.45 -1.09474 -1.13372 0
M  V30 16588 C 1489.38 -0.678539 -2.17879 0
M  V30 16589 C 1490.36 0.315208 -1.59516 0
M  V30 16590 O 1491.54 0.216467 -1.87253 0
M  V30 16591 C 1488.67 0.000305902 -3.387 0
M  V30 16592 C 1487.71 -0.95533 -4.15663 0
M  V30 16593 S 1488.55 -2.46765 -4.75255 0
M  V30 16594 C 1489.7 -1.80123 -5.99422 0
M  V30 16595 H 1489.94 -1.56385 -2.52846 0
M  V30 16596 H 1487.47 -0.910774 -1.24677 0
M  V30 16597 H 1489.43 0.385671 -4.08684 0
M  V30 16598 H 1488.09 0.862267 -3.02033 0
M  V30 16599 H 1487.28 -0.427431 -5.02184 0
M  V30 16600 H 1486.88 -1.28212 -3.51337 0
M  V30 16601 H 1489.18 -1.12557 -6.68085 0
M  V30 16602 H 1490.12 -2.64561 -6.5682 0
M  V30 16603 H 1490.53 -1.26994 -5.5003 0
M  V30 16604 N 1489.92 1.30607 -0.882012 0
M  V30 16605 C 1490.87 2.2821 -0.344826 0
M  V30 16606 C 1491.84 1.56254 0.563361 0
M  V30 16607 O 1493.03 1.84336 0.492416 0
M  V30 16608 C 1490.17 3.42319 0.437216 0
M  V30 16609 C 1489.28 4.29098 -0.499851 0
M  V30 16610 C 1488.41 5.30366 0.297497 0
M  V30 16611 C 1487.45 6.08795 -0.63523 0
M  V30 16612 N 1486.59 7.01986 0.12661 0
M  V30 16613 H 1491.43 2.73543 -1.18229 0
M  V30 16614 H 1488.97 1.34556 -0.594392 0
M  V30 16615 H 1490.93 4.07232 0.906521 0
M  V30 16616 H 1489.56 2.98063 1.23928 0
M  V30 16617 H 1488.61 3.6452 -1.08764 0
M  V30 16618 H 1489.92 4.83787 -1.21454 0
M  V30 16619 H 1489.07 6.01013 0.828786 0
M  V30 16620 H 1487.81 4.76364 1.04542 0
M  V30 16621 H 1486.82 5.37028 -1.17817 0
M  V30 16622 H 1488.04 6.64885 -1.3822 0
M  V30 16623 H 1485.99 6.50376 0.857125 0
M  V30 16624 H 1485.91 7.5415 -0.528512 0
M  V30 16625 H 1487.17 7.76879 0.638738 0
M  V30 16626 N 1491.4 0.642663 1.43901 0
M  V30 16627 C 1492.65 0.151478 2.01532 0
M  V30 16628 C 1492.97 -1.23519 1.50891 0
M  V30 16629 O 1492.24 -1.82299 0.717197 0
M  V30 16630 H 1490.82 0.0530091 0.745117 0
M  V30 16631 H 1493.48 0.831958 1.76251 0
M  V30 16632 H 1492.58 0.127995 3.11837 0
M  V30 16633 N 1492.88 -1.52852 0.383918 0
M  V30 16634 C 1494.16 -1.939 -0.25729 0
M  V30 16635 C 1494.54 -1.31895 -1.64824 0
M  V30 16636 O 1493.89 -0.484987 -2.23294 0
M  V30 16637 C 1494.1 -3.47801 -0.289064 0
M  V30 16638 C 1495.44 -4.21396 -0.520611 0
M  V30 16639 O 1496.47 -3.54278 -0.369502 0
M  V30 16640 O 1495.33 -5.4037 -0.816254 0
M  V30 16641 H 1492.42 -0.811658 -0.158558 0
M  V30 16642 H 1494.97 -1.63949 0.438034 0
M  V30 16643 H 1493.74 -3.8525 0.685441 0
M  V30 16644 H 1493.36 -3.8404 -1.02953 0
M  V30 16645 N 1494.36 -0.113586 -1.5719 0
M  V30 16646 C 1495.27 0.852428 -2.18565 0
M  V30 16647 C 1496.29 1.29668 -1.16026 0
M  V30 16648 O 1497.46 1.36079 -1.48474 0
M  V30 16649 C 1494.53 2.08675 -2.76867 0
M  V30 16650 C 1493.59 1.69493 -3.94424 0
M  V30 16651 C 1492.82 2.87042 -4.49936 0
M  V30 16652 O 1493.04 4.02311 -4.04354 0
M  V30 16653 O 1491.98 2.64439 -5.40699 0
M  V30 16654 H 1495.8 0.360144 -3.01557 0
M  V30 16655 H 1493.39 0.111744 -1.48982 0
M  V30 16656 H 1495.27 2.80976 -3.14054 0
M  V30 16657 H 1493.95 2.5692 -1.9691 0
M  V30 16658 H 1492.85 0.943161 -3.62016 0
M  V30 16659 H 1494.19 1.25995 -4.758 0
M  V30 16660 N 1495.84 1.56784 0.160173 0
M  V30 16661 C 1496.79 1.98199 1.21737 0
M  V30 16662 C 1497.78 0.872381 1.4521 0
M  V30 16663 O 1498.99 1.05753 1.45658 0
M  V30 16664 H 1495.36 0.630742 0.409474 0
M  V30 16665 H 1497.33 2.86295 0.841289 0
M  V30 16666 C 1496.08 2.36748 2.54648 0
M  V30 16667 H 1495.4 3.21676 2.37413 0
M  V30 16668 H 1496.84 2.69561 3.27281 0
M  V30 16669 C 1495.3 1.2151 3.14224 0
M  V30 16670 O 1495.83 0.508739 3.98465 0
M  V30 16671 N 1494.04 0.982766 2.73478 0
M  V30 16672 H 1493.59 1.55893 2.05073 0
M  V30 16673 H 1493.54 0.213589 3.13674 0
M  V30 16674 N 1497.32 -0.429099 1.51646 0
M  V30 16675 C 1498.56 -1.17958 1.64966 0
M  V30 16676 C 1498.89 -1.90667 0.368755 0
M  V30 16677 O 1498.17 -1.83945 -0.632023 0
M  V30 16678 C 1498.45 -2.19002 2.8585 0
M  V30 16679 C 1498.31 -1.50321 4.23938 0
M  V30 16680 C 1499.62 -3.19895 3.0225 0
M  V30 16681 H 1496.74 -0.427474 0.600362 0
M  V30 16682 H 1499.39 -0.46777 1.84152 0
M  V30 16683 H 1497.54 -2.79707 2.69623 0
M  V30 16684 H 1499.21 -0.928902 4.51851 0
M  V30 16685 H 1497.45 -0.805431 4.26257 0
M  V30 16686 H 1498.12 -2.2395 5.0453 0
M  V30 16687 H 1500.6 -2.69251 3.17243 0
M  V30 16688 H 1499.47 -3.8788 3.88381 0
M  V30 16689 H 1499.73 -3.86477 2.14682 0
M  V30 16690 N 1498.79 -1.41931 -0.685074 0
M  V30 16691 C 1499.74 -1.44604 -1.79884 0
M  V30 16692 C 1500.71 -0.299166 -1.63384 0
M  V30 16693 O 1501.9 -0.501749 -1.84085 0
M  V30 16694 C 1499.04 -1.3442 -3.17845 0
M  V30 16695 C 1498.15 -2.59061 -3.45704 0
M  V30 16696 C 1497.28 -2.41094 -4.73336 0
M  V30 16697 C 1496.32 -3.61159 -4.94197 0
M  V30 16698 N 1495.46 -3.42198 -6.13062 0
M  V30 16699 H 1500.3 -2.39788 -1.76934 0
M  V30 16700 H 1497.84 -1.1906 -0.863891 0
M  V30 16701 H 1499.79 -1.26515 -3.97555 0
M  V30 16702 H 1498.42 -0.42838 -3.19945 0
M  V30 16703 H 1497.48 -2.77374 -2.60322 0
M  V30 16704 H 1498.79 -3.48341 -3.57016 0
M  V30 16705 H 1497.94 -2.30717 -5.61119 0
M  V30 16706 H 1496.68 -1.49288 -4.64289 0
M  V30 16707 H 1495.69 -3.7198 -4.04859 0
M  V30 16708 H 1496.91 -4.53933 -5.05096 0
M  V30 16709 H 1494.86 -2.531 -6.05208 0
M  V30 16710 H 1494.77 -4.25059 -6.25189 0
M  V30 16711 H 1496.04 -3.35612 -7.03551 0
M  V30 16712 N 1500.27 0.920374 -1.27933 0
M  V30 16713 C 1501.52 1.66554 -1.14474 0
M  V30 16714 C 1501.84 1.92545 0.308444 0
M  V30 16715 O 1501.11 1.53691 1.21473 0
M  V30 16716 H 1499.69 0.617302 -0.420651 0
M  V30 16717 H 1502.35 1.10473 -1.60567 0
M  V30 16718 H 1501.45 2.63067 -1.67935 0
M  V30 16719 N 1501.75 1.10074 1.1279 0
M  V30 16720 C 1503.03 0.753069 1.80522 0
M  V30 16721 C 1503.41 -0.760982 1.96907 0
M  V30 16722 O 1502.75 -1.68584 1.54245 0
M  V30 16723 C 1502.96 1.49982 3.15129 0
M  V30 16724 C 1504.31 1.66993 3.90382 0
M  V30 16725 O 1505.34 1.46289 3.24774 0
M  V30 16726 O 1504.2 2.01293 5.08078 0
M  V30 16727 H 1501.29 0.271277 0.781241 0
M  V30 16728 H 1503.84 1.20333 1.19658 0
M  V30 16729 H 1502.61 2.53043 2.98471 0
M  V30 16730 H 1502.23 1.04217 3.83699 0
M  V30 16731 N 1503.23 -1.30138 0.888926 0
M  V30 16732 C 1504.14 -2.31778 0.3628 0
M  V30 16733 C 1505.15 -1.65507 -0.53698 0
M  V30 16734 O 1506.33 -1.96775 -0.429152 0
M  V30 16735 C 1503.39 -3.44259 -0.410673 0
M  V30 16736 C 1502.46 -4.26147 0.519334 0
M  V30 16737 C 1501.69 -5.33257 -0.21732 0
M  V30 16738 O 1501.91 -5.5185 -1.44284 0
M  V30 16739 O 1500.85 -6.00329 0.43461 0
M  V30 16740 H 1504.67 -2.78739 1.20575 0
M  V30 16741 H 1502.26 -1.34379 0.65289 0
M  V30 16742 H 1504.14 -4.1277 -0.848467 0
M  V30 16743 H 1502.81 -2.99426 -1.22986 0
M  V30 16744 H 1501.72 -3.60319 1.00602 0
M  V30 16745 H 1503.05 -4.74595 1.30464 0
M  V30 16746 N 1504.71 -0.650285 -1.43559 0
M  V30 16747 C 1505.65 0.0550615 -2.32535 0
M  V30 16748 C 1506.65 0.81612 -1.48445 0
M  V30 16749 O 1507.85 0.726853 -1.64672 0
M  V30 16750 H 1504.23 0.0365887 -0.751109 0
M  V30 16751 H 1506.2 -0.713146 -2.89753 0
M  V30 16752 C 1504.95 1.00982 -3.32713 0
M  V30 16753 H 1504.27 0.433626 -3.97441 0
M  V30 16754 H 1505.71 1.47249 -3.9761 0
M  V30 16755 C 1504.17 2.10442 -2.63089 0
M  V30 16756 O 1504.7 3.18782 -2.44419 0
M  V30 16757 N 1502.91 1.86915 -2.22511 0
M  V30 16758 H 1502.45 0.988113 -2.37895 0
M  V30 16759 H 1502.41 2.60348 -1.76256 0
M  V30 16760 N 1506.18 1.52647 -0.392018 0
M  V30 16761 C 1507.43 2.01912 0.18958 0
M  V30 16762 C 1507.76 1.27786 1.46234 0
M  V30 16763 O 1507.04 0.379124 1.90769 0
M  V30 16764 C 1507.32 3.57217 0.454734 0
M  V30 16765 C 1507.17 4.4201 -0.833501 0
M  V30 16766 C 1508.49 4.22146 1.24421 0
M  V30 16767 H 1505.61 0.733909 0.0674281 0
M  V30 16768 H 1508.25 1.82685 -0.52212 0
M  V30 16769 H 1506.4 3.73731 1.06101 0
M  V30 16770 H 1508.08 4.37242 -1.47027 0
M  V30 16771 H 1506.32 4.08912 -1.44823 0
M  V30 16772 H 1506.99 5.48701 -0.602585 0
M  V30 16773 H 1509.47 4.09627 0.731093 0
M  V30 16774 H 1508.34 5.30786 1.39848 0
M  V30 16775 H 1508.6 3.7996 2.26016 0
M  V30 16776 N 1507.66 0.121921 1.57128 0
M  V30 16777 C 1508.61 -0.827205 2.15467 0
M  V30 16778 C 1509.58 -1.26155 1.08047 0
M  V30 16779 O 1510.76 -1.33855 1.35969 0
M  V30 16780 C 1507.9 -2.07077 2.76067 0
M  V30 16781 C 1507.02 -1.68452 3.97804 0
M  V30 16782 C 1506.15 -2.87797 4.46482 0
M  V30 16783 C 1505.19 -2.45426 5.60743 0
M  V30 16784 N 1504.33 -3.57695 6.04151 0
M  V30 16785 H 1509.17 -0.322879 2.96246 0
M  V30 16786 H 1506.71 -0.147677 1.46357 0
M  V30 16787 H 1508.66 -2.79943 3.09335 0
M  V30 16788 H 1507.29 -2.54963 1.97974 0
M  V30 16789 H 1506.35 -0.854487 3.70679 0
M  V30 16790 H 1507.66 -1.33316 4.80654 0
M  V30 16791 H 1506.81 -3.68885 4.81673 0
M  V30 16792 H 1505.55 -3.26162 3.62587 0
M  V30 16793 H 1504.56 -1.62772 5.25153 0
M  V30 16794 H 1505.78 -2.08175 6.46405 0
M  V30 16795 H 1503.73 -3.95728 5.23197 0
M  V30 16796 H 1503.64 -3.26491 6.81865 0
M  V30 16797 H 1504.91 -4.39213 6.43981 0
M  V30 16798 N 1509.14 -1.56867 -0.151857 0
M  V30 16799 C 1510.42 -1.7399 -0.893694 0
M  V30 16800 C 1510.8 -0.688628 -1.99552 0
M  V30 16801 O 1510.15 0.293289 -2.2661 0
M  V30 16802 C 1510.36 -3.1788 -1.44061 0
M  V30 16803 C 1511.7 -3.7942 -1.90592 0
M  V30 16804 O 1512.73 -3.21279 -1.53813 0
M  V30 16805 O 1511.59 -4.81549 -2.58404 0
M  V30 16806 H 1508.68 -0.711229 -0.421998 0
M  V30 16807 H 1511.23 -1.69137 -0.138162 0
M  V30 16808 H 1510 -3.85888 -0.648529 0
M  V30 16809 H 1509.62 -3.27139 -2.25978 0
M  V30 16810 N 1510.62 0.421051 -1.51871 0
M  V30 16811 C 1511.9 1.18133 -1.55897 0
M  V30 16812 C 1512.28 2.08459 -0.332876 0
M  V30 16813 O 1511.62 2.18114 0.681052 0
M  V30 16814 C 1511.83 1.96902 -2.88151 0
M  V30 16815 C 1513.18 2.53382 -3.4071 0
M  V30 16816 O 1514.21 2.07095 -2.89811 0
M  V30 16817 O 1513.06 3.37846 -4.29561 0
M  V30 16818 H 1510.16 0.538721 -0.627462 0
M  V30 16819 H 1512.7 0.428798 -1.64193 0
M  V30 16820 H 1511.48 1.30659 -3.68841 0
M  V30 16821 H 1511.1 2.79185 -2.83093 0
M  V30 16822 N 1512.1 1.42293 0.677538 0
M  V30 16823 C 1513.01 1.47953 1.82063 0
M  V30 16824 C 1514.02 0.36851 1.70053 0
M  V30 16825 O 1515.2 0.618996 1.91652 0
M  V30 16826 C 1512.26 1.3769 3.18186 0
M  V30 16827 C 1511.32 2.59261 3.42173 0
M  V30 16828 C 1510.56 2.49478 4.71801 0
M  V30 16829 O 1510.78 1.52915 5.49521 0
M  V30 16830 O 1509.71 3.39562 4.96972 0
M  V30 16831 H 1513.54 2.4443 1.80244 0
M  V30 16832 H 1511.13 1.24027 0.832932 0
M  V30 16833 H 1513.01 1.34319 3.9942 0
M  V30 16834 H 1511.68 0.443377 3.20649 0
M  V30 16835 H 1510.59 2.68207 2.60798 0
M  V30 16836 H 1511.92 3.51503 3.44538 0
M  V30 16837 N 1513.57 -0.913576 1.28419 0
M  V30 16838 C 1514.52 -2.03739 1.1222 0
M  V30 16839 C 1515.52 -1.69349 0.0414309 0
M  V30 16840 O 1516.72 -1.78883 0.200213 0
M  V30 16841 H 1513.1 -0.667554 0.34623 0
M  V30 16842 H 1515.07 -2.14544 2.07397 0
M  V30 16843 C 1513.82 -3.38348 0.801003 0
M  V30 16844 H 1513.14 -3.65304 1.6246 0
M  V30 16845 H 1514.58 -4.1771 0.727611 0
M  V30 16846 C 1513.04 -3.3324 -0.495261 0
M  V30 16847 O 1513.57 -3.71606 -1.52551 0
M  V30 16848 N 1511.78 -2.86335 -0.496054 0
M  V30 16849 H 1511.32 -2.55309 0.342773 0
M  V30 16850 H 1511.28 -2.833 -1.3634 0
M  V30 16851 N 1515.05 -1.1067 -1.12204 0
M  V30 16852 C 1516.3 -0.85189 -1.8404 0
M  V30 16853 C 1516.63 0.620988 -1.84004 0
M  V30 16854 O 1515.91 1.45801 -1.28734 0
M  V30 16855 C 1516.19 -1.40401 -3.31602 0
M  V30 16856 C 1516.04 -2.94392 -3.40078 0
M  V30 16857 C 1517.36 -1.04834 -4.27432 0
M  V30 16858 H 1514.48 -0.310924 -0.668203 0
M  V30 16859 H 1517.12 -1.37026 -1.3162 0
M  V30 16860 H 1515.27 -0.963107 -3.76373 0
M  V30 16861 H 1516.94 -3.47027 -3.03924 0
M  V30 16862 H 1515.19 -3.3087 -2.80548 0
M  V30 16863 H 1515.86 -3.28107 -4.43903 0
M  V30 16864 H 1518.33 -1.42882 -3.90799 0
M  V30 16865 H 1517.21 -1.46153 -5.29085 0
M  V30 16866 H 1517.47 0.0419272 -4.4208 0
M  V30 16867 N 1516.53 1.29665 -0.895815 0
M  V30 16868 C 1517.48 2.27831 -0.369011 0
M  V30 16869 C 1518.45 1.56843 0.546756 0
M  V30 16870 O 1519.63 1.84848 0.472837 0
M  V30 16871 C 1516.77 3.42764 0.400884 0
M  V30 16872 C 1515.89 4.28544 -0.545335 0
M  V30 16873 C 1515.02 5.30652 0.241228 0
M  V30 16874 C 1514.06 6.08087 -0.699765 0
M  V30 16875 N 1513.2 7.02081 0.0521477 0
M  V30 16876 H 1518.04 2.72274 -1.21124 0
M  V30 16877 H 1515.57 1.33918 -0.608631 0
M  V30 16878 H 1517.53 4.08171 0.863277 0
M  V30 16879 H 1516.16 2.99361 1.2076 0
M  V30 16880 H 1515.21 3.63346 -1.12624 0
M  V30 16881 H 1516.53 4.82472 -1.26579 0
M  V30 16882 H 1515.68 6.01858 0.764994 0
M  V30 16883 H 1514.42 4.77446 0.994838 0
M  V30 16884 H 1513.42 5.35748 -1.23507 0
M  V30 16885 H 1514.65 6.63382 -1.45264 0
M  V30 16886 H 1512.59 6.51249 0.788096 0
M  V30 16887 H 1512.51 7.53547 -0.60847 0
M  V30 16888 H 1513.78 7.77512 0.556304 0
M  V30 16889 N 1518.01 0.657889 1.43212 0
M  V30 16890 C 1519.29 0.102895 1.95329 0
M  V30 16891 C 1519.67 -1.37821 1.59901 0
M  V30 16892 O 1519.01 -2.10602 0.886505 0
M  V30 16893 C 1519.22 0.354075 3.47199 0
M  V30 16894 C 1520.57 0.261511 4.23794 0
M  V30 16895 O 1521.6 0.286889 3.55043 0
M  V30 16896 O 1520.45 0.189209 5.46172 0
M  V30 16897 H 1517.55 -0.00692284 0.826971 0
M  V30 16898 H 1520.09 0.73145 1.53127 0
M  V30 16899 H 1518.87 1.38075 3.6613 0
M  V30 16900 H 1518.49 -0.307321 3.96411 0
M  V30 16901 N 1519.49 -1.52437 0.400108 0
M  V30 16902 C 1520.76 -1.94162 -0.23671 0
M  V30 16903 C 1521.14 -1.33636 -1.63416 0
M  V30 16904 O 1520.49 -0.508643 -2.22767 0
M  V30 16905 C 1520.7 -3.48088 -0.252159 0
M  V30 16906 C 1522.05 -4.21925 -0.475887 0
M  V30 16907 O 1523.07 -3.5465 -0.331905 0
M  V30 16908 O 1521.93 -5.41205 -0.758895 0
M  V30 16909 H 1519.03 -0.813294 -0.14994 0
M  V30 16910 H 1521.57 -1.63475 0.455399 0
M  V30 16911 H 1520.34 -3.84501 0.726263 0
M  V30 16912 H 1519.97 -3.8511 -0.988742 0
M  V30 16913 N 1520.96 -0.130252 -1.57061 0
M  V30 16914 C 1521.87 0.829198 -2.19457 0
M  V30 16915 C 1522.89 1.2843 -1.17395 0
M  V30 16916 O 1524.07 1.34496 -1.49909 0
M  V30 16917 C 1521.13 2.05727 -2.79065 0
M  V30 16918 C 1520.19 1.65301 -3.962 0
M  V30 16919 C 1519.43 2.82253 -4.52956 0
M  V30 16920 O 1519.65 3.97999 -4.08598 0
M  V30 16921 O 1518.58 2.5869 -5.43473 0
M  V30 16922 H 1522.41 0.328139 -3.01922 0
M  V30 16923 H 1519.99 0.0959361 -1.49092 0
M  V30 16924 H 1521.88 2.7763 -3.17017 0
M  V30 16925 H 1520.55 2.54817 -1.99624 0
M  V30 16926 H 1519.46 0.904712 -3.62996 0
M  V30 16927 H 1520.79 1.20942 -4.7711 0
M  V30 16928 N 1522.44 1.56945 0.143535 0
M  V30 16929 C 1523.39 1.99479 1.19628 0
M  V30 16930 C 1524.39 0.887733 1.44276 0
M  V30 16931 O 1525.59 1.07292 1.44528 0
M  V30 16932 H 1521.97 0.635049 0.402761 0
M  V30 16933 H 1523.94 2.87171 0.810877 0
M  V30 16934 C 1522.69 2.39436 2.52123 0
M  V30 16935 H 1522.01 3.24176 2.33987 0
M  V30 16936 H 1523.45 2.73017 3.24404 0
M  V30 16937 C 1521.91 1.24836 3.12918 0
M  V30 16938 O 1522.44 0.550973 3.97903 0
M  V30 16939 N 1520.64 1.01172 2.7242 0
M  V30 16940 H 1520.19 1.5806 2.03408 0
M  V30 16941 H 1520.15 0.246846 3.13429 0
M  V30 16942 N 1523.92 -0.412991 1.52093 0
M  V30 16943 C 1525.17 -1.15737 1.65191 0
M  V30 16944 C 1525.48 -1.91753 0.38601 0
M  V30 16945 O 1526.69 -2.68586 0.396731 0
M  V30 16946 C 1525.15 -2.10619 2.91835 0
M  V30 16947 C 1524.75 -1.40137 4.25518 0
M  V30 16948 C 1526.5 -2.85339 3.14296 0
M  V30 16949 C 1524.4 -2.33645 5.4329 0
M  V30 16950 H 1523.33 -0.435732 0.615348 0
M  V30 16951 H 1525.99 -0.422172 1.78578 0
M  V30 16952 H 1524.37 -2.87675 2.72138 0
M  V30 16953 H 1525.54 -0.684719 4.55684 0
M  V30 16954 H 1523.86 -0.774734 4.09129 0
M  V30 16955 H 1526.45 -3.55437 3.99461 0
M  V30 16956 H 1526.8 -3.48071 2.28369 0
M  V30 16957 H 1527.33 -2.15384 3.34447 0
M  V30 16958 H 1524.07 -1.75566 6.31551 0
M  V30 16959 H 1523.59 -3.03294 5.17467 0
M  V30 16960 H 1525.27 -2.94255 5.76215 0
M  V30 16961 N 1525.4 -1.4265 -0.669982 0
M  V30 16962 C 1526.35 -1.46504 -1.7834 0
M  V30 16963 C 1527.32 -0.316478 -1.63057 0
M  V30 16964 O 1528.5 -0.521245 -1.83542 0
M  V30 16965 C 1525.64 -1.37784 -3.16401 0
M  V30 16966 C 1524.75 -2.62714 -3.42937 0
M  V30 16967 C 1523.89 -2.46101 -4.70752 0
M  V30 16968 C 1522.93 -3.66381 -4.90338 0
M  V30 16969 N 1522.07 -3.48681 -6.09398 0
M  V30 16970 H 1526.91 -2.41651 -1.74381 0
M  V30 16971 H 1524.44 -1.1997 -0.851215 0
M  V30 16972 H 1526.4 -1.30725 -3.9619 0
M  V30 16973 H 1525.03 -0.462291 -3.19473 0
M  V30 16974 H 1524.08 -2.8012 -2.57366 0
M  V30 16975 H 1525.39 -3.52108 -3.53301 0
M  V30 16976 H 1524.55 -2.36655 -5.58641 0
M  V30 16977 H 1523.29 -1.54204 -4.6268 0
M  V30 16978 H 1522.29 -3.76254 -4.00891 0
M  V30 16979 H 1523.52 -4.59265 -5.00253 0
M  V30 16980 H 1521.46 -2.59505 -6.02489 0
M  V30 16981 H 1521.38 -4.31666 -6.20645 0
M  V30 16982 H 1522.65 -3.43056 -6.99952 0
M  V30 16983 N 1526.88 0.906753 -1.28902 0
M  V30 16984 C 1528.13 1.6533 -1.16234 0
M  V30 16985 C 1528.45 1.92861 0.288004 0
M  V30 16986 O 1527.72 1.54971 1.19837 0
M  V30 16987 H 1526.3 0.612806 -0.427174 0
M  V30 16988 H 1528.96 1.08764 -1.6173 0
M  V30 16989 H 1528.05 2.61271 -1.70715 0
M  V30 16990 N 1528.36 1.11264 1.11616 0
M  V30 16991 C 1529.63 0.772174 1.79713 0
M  V30 16992 C 1530.01 -0.740055 1.97703 0
M  V30 16993 O 1529.36 -1.66939 1.56024 0
M  V30 16994 C 1529.57 1.53316 3.13521 0
M  V30 16995 C 1530.92 1.71124 3.88589 0
M  V30 16996 O 1531.94 1.49725 3.23204 0
M  V30 16997 O 1530.8 2.0667 5.05915 0
M  V30 16998 H 1527.9 0.279548 0.77832 0
M  V30 16999 H 1530.44 1.21596 1.18375 0
M  V30 17000 H 1529.21 2.56194 2.95771 0
M  V30 17001 H 1528.84 1.08281 3.82572 0
M  V30 17002 N 1529.83 -1.29188 0.902679 0
M  V30 17003 C 1531.11 -1.90365 0.449496 0
M  V30 17004 C 1531.49 -1.81911 -1.07105 0
M  V30 17005 O 1530.84 -1.24778 -1.91423 0
M  V30 17006 C 1531.05 -3.35324 0.967418 0
M  V30 17007 C 1532.4 -4.12342 1.0129 0
M  V30 17008 O 1533.42 -3.44239 0.915293 0
M  V30 17009 O 1532.28 -5.34048 1.15994 0
M  V30 17010 H 1529.37 -0.814956 0.140628 0
M  V30 17011 H 1531.92 -1.37633 0.992739 0
M  V30 17012 H 1530.69 -3.35646 2.0114 0
M  V30 17013 H 1530.31 -3.95539 0.404358 0
M  V30 17014 N 1531.31 -0.665475 -1.42861 0
M  V30 17015 C 1532.26 0.030395 -2.3258 0
M  V30 17016 C 1533.25 0.800329 -1.49302 0
M  V30 17017 O 1534.46 0.709346 -1.65434 0
M  V30 17018 H 1530.83 0.0286201 -0.751455 0
M  V30 17019 H 1532.81 -0.743838 -2.8898 0
M  V30 17020 C 1531.55 0.974474 -3.33765 0
M  V30 17021 H 1530.88 0.391447 -3.97879 0
M  V30 17022 H 1532.32 1.43023 -3.99149 0
M  V30 17023 C 1530.78 2.0764 -2.65306 0
M  V30 17024 O 1531.31 3.16172 -2.47787 0
M  V30 17025 N 1529.51 1.84544 -2.24481 0
M  V30 17026 H 1529.06 0.962826 -2.3893 0
M  V30 17027 H 1529.02 2.58464 -1.79007 0
M  V30 17028 N 1532.79 1.52222 -0.408187 0
M  V30 17029 C 1533.74 2.28544 0.432458 0
M  V30 17030 C 1534.73 1.33198 1.04665 0
M  V30 17031 O 1535.94 1.50661 0.984954 0
M  V30 17032 H 1532.31 0.735162 0.158241 0
M  V30 17033 H 1534.28 2.97493 -0.232482 0
M  V30 17034 C 1533.03 3.11864 1.53741 0
M  V30 17035 H 1532.36 3.851 1.07414 0
M  V30 17036 H 1533.8 3.68374 2.09945 0
M  V30 17037 C 1532.25 2.25367 2.50423 0
M  V30 17038 O 1532.78 1.89329 3.54285 0
M  V30 17039 N 1530.99 1.89155 2.2061 0
M  V30 17040 H 1530.54 2.18661 1.36181 0
M  V30 17041 H 1530.5 1.31574 2.85544 0
M  V30 17042 N 1534.27 0.138579 1.5699 0
M  V30 17043 C 1535.5 -0.521049 1.99922 0
M  V30 17044 C 1535.91 -1.59508 1.01754 0
M  V30 17045 O 1535.25 -1.83699 0.00521913 0
M  V30 17046 C 1535.31 -1.18856 3.39284 0
M  V30 17047 C 1534.97 -0.260145 4.56259 0
M  V30 17048 C 1535.97 0.508919 5.17403 0
M  V30 17049 C 1533.66 -0.165504 5.02027 0
M  V30 17050 C 1535.65 1.36016 6.22719 0
M  V30 17051 C 1533.34 0.689346 6.07199 0
M  V30 17052 C 1534.34 1.45079 6.67414 0
M  V30 17053 O 1534.02 2.29141 7.70551 0
M  V30 17054 H 1533.76 -0.140889 0.661155 0
M  V30 17055 H 1536.31 0.227618 2.04135 0
M  V30 17056 H 1534.54 -1.9847 3.31883 0
M  V30 17057 H 1536.23 -1.74706 3.66377 0
M  V30 17058 H 1536.99 0.445787 4.82947 0
M  V30 17059 H 1532.87 -0.747903 4.54893 0
M  V30 17060 H 1536.42 1.95496 6.69647 0
M  V30 17061 H 1532.31 0.7538 6.41084 0
M  V30 17062 H 1533.08 2.22296 7.87735 0
M  V30 17063 N 1535.75 -1.57019 -0.13521 0
M  V30 17064 C 1536.69 -2.0011 -1.18569 0
M  V30 17065 C 1537.69 -0.895372 -1.43804 0
M  V30 17066 O 1538.89 -1.08057 -1.43957 0
M  V30 17067 H 1535.27 -0.637176 -0.399388 0
M  V30 17068 H 1537.24 -2.87597 -0.795636 0
M  V30 17069 C 1535.99 -2.40769 -2.50849 0
M  V30 17070 H 1535.31 -3.25412 -2.32265 0
M  V30 17071 H 1536.75 -2.74733 -3.22951 0
M  V30 17072 C 1535.21 -1.26494 -3.12251 0
M  V30 17073 O 1535.74 -0.572067 -3.97606 0
M  V30 17074 N 1533.95 -1.02615 -2.7188 0
M  V30 17075 H 1533.49 -1.59136 -2.02567 0
M  V30 17076 H 1533.45 -0.263464 -3.13294 0
M  V30 17077 N 1537.22 0.404919 -1.52309 0
M  V30 17078 C 1538.47 1.15319 -1.66822 0
M  V30 17079 C 1538.8 1.90056 -0.399041 0
M  V30 17080 O 1538.08 1.84927 0.602679 0
M  V30 17081 C 1538.36 2.14426 -2.89298 0
M  V30 17082 C 1538.21 1.43558 -4.26276 0
M  V30 17083 C 1539.53 3.15046 -3.07301 0
M  V30 17084 H 1536.65 0.417869 -0.607087 0
M  V30 17085 H 1539.29 0.438414 -1.84873 0
M  V30 17086 H 1537.44 2.75382 -2.74039 0
M  V30 17087 H 1539.12 0.856899 -4.53271 0
M  V30 17088 H 1537.36 0.737515 -4.27485 0
M  V30 17089 H 1538.03 2.15895 -5.08029 0
M  V30 17090 H 1540.51 2.6417 -3.21486 0
M  V30 17091 H 1539.38 3.81652 -3.94503 0
M  V30 17092 H 1539.64 3.83012 -2.20803 0
M  V30 17093 N 1538.7 1.43003 0.662408 0
M  V30 17094 C 1539.98 1.34613 1.41911 0
M  V30 17095 C 1540.36 -0.0105336 2.11097 0
M  V30 17096 O 1539.71 -1.02667 2.04137 0
M  V30 17097 C 1539.92 2.52297 2.41137 0
M  V30 17098 C 1541.27 2.94972 3.05412 0
M  V30 17099 O 1542.29 2.52277 2.51465 0
M  V30 17100 O 1541.15 3.68906 4.03201 0
M  V30 17101 H 1538.24 0.531508 0.633583 0
M  V30 17102 H 1540.79 1.55035 0.690088 0
M  V30 17103 H 1539.56 3.42685 1.88898 0
M  V30 17104 H 1539.18 2.33926 3.21503 0
M  V30 17105 N 1540.18 -0.899904 1.29381 0
M  V30 17106 C 1541.13 -2.02537 1.14375 0
M  V30 17107 C 1542.12 -1.69296 0.0593904 0
M  V30 17108 O 1543.33 -1.78661 0.219174 0
M  V30 17109 H 1539.7 -0.663844 0.353291 0
M  V30 17110 H 1541.67 -2.12332 2.0966 0
M  V30 17111 C 1540.42 -3.37479 0.836845 0
M  V30 17112 H 1539.75 -3.6356 1.66326 0
M  V30 17113 H 1541.19 -4.16915 0.771873 0
M  V30 17114 C 1539.65 -3.33746 -0.459889 0
M  V30 17115 O 1540.18 -3.73203 -1.48601 0
M  V30 17116 N 1538.38 -2.86845 -0.465657 0
M  V30 17117 H 1537.93 -2.54931 0.369833 0
M  V30 17118 H 1537.89 -2.8473 -1.33327 0
M  V30 17119 N 1541.66 -1.11854 -1.11024 0
M  V30 17120 C 1542.59 -0.724602 -2.1639 0
M  V30 17121 C 1543.57 0.281302 -1.60148 0
M  V30 17122 O 1544.75 0.176699 -1.8767 0
M  V30 17123 C 1541.88 -0.0715375 -3.38624 0
M  V30 17124 C 1540.93 -1.04328 -4.13543 0
M  V30 17125 S 1541.76 -2.5679 -4.69914 0
M  V30 17126 C 1542.92 -1.92797 -5.95466 0
M  V30 17127 H 1543.15 -1.61713 -2.49472 0
M  V30 17128 H 1540.68 -0.937015 -1.22717 0
M  V30 17129 H 1542.64 0.298896 -4.0941 0
M  V30 17130 H 1541.3 0.798007 -3.03794 0
M  V30 17131 H 1540.49 -0.533855 -5.01165 0
M  V30 17132 H 1540.1 -1.35636 -3.48538 0
M  V30 17133 H 1542.39 -1.26703 -6.65547 0
M  V30 17134 H 1543.33 -2.78434 -6.51061 0
M  V30 17135 H 1543.74 -1.38633 -5.47212 0
M  V30 17136 N 1543.14 1.28707 -0.909517 0
M  V30 17137 C 1544.05 2.31171 -0.399628 0
M  V30 17138 C 1545.06 1.6634 0.510582 0
M  V30 17139 O 1546.24 1.97432 0.397792 0
M  V30 17140 C 1543.3 3.44869 0.355852 0
M  V30 17141 C 1542.36 4.25267 -0.587065 0
M  V30 17142 C 1541.6 5.33536 0.132456 0
M  V30 17143 O 1541.82 5.54075 1.35486 0
M  V30 17144 O 1540.75 5.99561 -0.530062 0
M  V30 17145 H 1544.58 2.76785 -1.24995 0
M  V30 17146 H 1542.17 1.33323 -0.674186 0
M  V30 17147 H 1544.05 4.14068 0.782692 0
M  V30 17148 H 1542.72 3.01345 1.18207 0
M  V30 17149 H 1541.63 3.58673 -1.06322 0
M  V30 17150 H 1542.96 4.72459 -1.37998 0
M  V30 17151 N 1544.61 0.673042 1.42506 0
M  V30 17152 C 1545.56 -0.0180603 2.32593 0
M  V30 17153 C 1546.56 -0.7924 1.49724 0
M  V30 17154 O 1547.76 -0.700563 1.65807 0
M  V30 17155 H 1544.14 -0.0246346 0.751596 0
M  V30 17156 H 1546.11 0.759153 2.88582 0
M  V30 17157 C 1544.86 -0.95676 3.34277 0
M  V30 17158 H 1544.18 -0.370341 3.98081 0
M  V30 17159 H 1545.62 -1.40905 3.99902 0
M  V30 17160 C 1544.08 -2.0623 2.66403 0
M  V30 17161 O 1544.61 -3.14853 2.4946 0
M  V30 17162 N 1542.82 -1.83351 2.25457 0
M  V30 17163 H 1542.36 -0.950141 2.39437 0
M  V30 17164 H 1542.32 -2.57511 1.80375 0
M  V30 17165 N 1546.09 -1.52004 0.416254 0
M  V30 17166 C 1547.34 -2.01076 -0.158591 0
M  V30 17167 C 1547.65 -1.30598 -1.45614 0
M  V30 17168 O 1548.86 -1.70525 -2.11267 0
M  V30 17169 C 1547.32 -3.58354 -0.333179 0
M  V30 17170 C 1546.92 -4.37753 0.952696 0
M  V30 17171 C 1548.67 -4.15637 -0.86293 0
M  V30 17172 C 1546.58 -5.8669 0.744905 0
M  V30 17173 H 1545.51 -0.75136 -0.0630423 0
M  V30 17174 H 1548.16 -1.75288 0.542791 0
M  V30 17175 H 1546.54 -3.805 -1.09706 0
M  V30 17176 H 1547.71 -4.27364 1.72328 0
M  V30 17177 H 1546.03 -3.91823 1.40939 0
M  V30 17178 H 1548.62 -5.24596 -1.03454 0
M  V30 17179 H 1548.97 -3.73449 -1.8396 0
M  V30 17180 H 1549.5 -3.97486 -0.157918 0
M  V30 17181 H 1546.24 -6.3325 1.69334 0
M  V30 17182 H 1545.76 -5.99798 0.0137458 0
M  V30 17183 H 1547.44 -6.45824 0.389851 0
M  V30 17184 N 1547.57 -0.146903 -1.56914 0
M  V30 17185 C 1548.85 0.549291 -1.87729 0
M  V30 17186 C 1549.23 1.82971 -1.05284 0
M  V30 17187 O 1548.58 2.28073 -0.139628 0
M  V30 17188 C 1548.79 0.814835 -3.39354 0
M  V30 17189 C 1550.13 1.15565 -4.0857 0
M  V30 17190 O 1551.16 0.904191 -3.44533 0
M  V30 17191 O 1550.02 1.62886 -5.21661 0
M  V30 17192 H 1547.11 0.280196 -0.778087 0
M  V30 17193 H 1549.66 -0.183507 -1.68705 0
M  V30 17194 H 1548.43 -0.0913527 -3.91193 0
M  V30 17195 H 1548.05 1.60182 -3.63906 0
M  V30 17196 N 1549.05 1.57088 0.126881 0
M  V30 17197 C 1550.33 1.7539 0.8659 0
M  V30 17198 C 1550.71 0.720288 1.98432 0
M  V30 17199 O 1550.05 -0.2572 2.27048 0
M  V30 17200 C 1550.26 3.20131 1.38985 0
M  V30 17201 C 1551.61 3.82404 1.84532 0
M  V30 17202 O 1552.64 3.23685 1.48682 0
M  V30 17203 O 1551.49 4.85599 2.50711 0
M  V30 17204 H 1548.59 0.717853 0.41063 0
M  V30 17205 H 1551.13 1.69335 0.111236 0
M  V30 17206 H 1549.91 3.86871 0.587056 0
M  V30 17207 H 1549.53 3.30692 2.20745 0
M  V30 17208 N 1550.53 -0.396836 1.52522 0
M  V30 17209 C 1551.78 -1.13978 1.66409 0
M  V30 17210 C 1552.09 -1.91333 0.406326 0
M  V30 17211 O 1553.29 -2.6815 0.425195 0
M  V30 17212 C 1551.75 -2.07512 2.94052 0
M  V30 17213 C 1551.36 -1.35616 4.2698 0
M  V30 17214 C 1553.1 -2.8199 3.17304 0
M  V30 17215 C 1551.01 -2.2787 5.45737 0
M  V30 17216 H 1549.94 -0.429181 0.619935 0
M  V30 17217 H 1552.59 -0.403207 1.79015 0
M  V30 17218 H 1550.97 -2.84773 2.75174 0
M  V30 17219 H 1552.15 -0.636349 4.56385 0
M  V30 17220 H 1550.46 -0.731297 4.09928 0
M  V30 17221 H 1553.06 -3.5118 4.03208 0
M  V30 17222 H 1553.4 -3.45629 2.32048 0
M  V30 17223 H 1553.93 -2.11824 3.36712 0
M  V30 17224 H 1550.67 -1.68858 6.33378 0
M  V30 17225 H 1550.19 -2.97789 5.20655 0
M  V30 17226 H 1551.87 -2.88126 5.79303 0
M  V30 17227 N 1552.01 -1.43353 -0.654814 0
M  V30 17228 C 1553.25 -1.44172 -1.41058 0
M  V30 17229 C 1553.57 -0.0690586 -1.95478 0
M  V30 17230 O 1554.77 0.0453021 -2.71462 0
M  V30 17231 C 1553.23 -2.53701 -2.55272 0
M  V30 17232 C 1552.84 -3.97066 -2.07466 0
M  V30 17233 C 1554.58 -2.63713 -3.3265 0
M  V30 17234 C 1552.49 -4.98065 -3.18881 0
M  V30 17235 H 1551.42 -0.536303 -0.529995 0
M  V30 17236 H 1554.07 -1.69336 -0.706941 0
M  V30 17237 H 1552.45 -2.21736 -3.28099 0
M  V30 17238 H 1553.63 -4.38485 -1.4166 0
M  V30 17239 H 1551.94 -3.91086 -1.42972 0
M  V30 17240 H 1554.54 -3.36346 -4.15663 0
M  V30 17241 H 1554.88 -1.68729 -3.80574 0
M  V30 17242 H 1555.41 -2.94971 -2.66902 0
M  V30 17243 H 1552.15 -5.94596 -2.75927 0
M  V30 17244 H 1551.67 -4.61261 -3.83404 0
M  V30 17245 H 1553.35 -5.20696 -3.84037 0
M  V30 17246 N 1553.48 0.89303 -1.29857 0
M  V30 17247 C 1554.43 2.01928 -1.15447 0
M  V30 17248 C 1555.43 1.69262 -0.0683677 0
M  V30 17249 O 1556.63 1.78542 -0.228646 0
M  V30 17250 H 1553.01 0.661961 -0.356807 0
M  V30 17251 H 1554.98 2.11218 -2.10784 0
M  V30 17252 C 1553.73 3.37031 -0.85473 0
M  V30 17253 H 1553.05 3.62673 -1.68251 0
M  V30 17254 H 1554.49 4.165 -0.793973 0
M  V30 17255 C 1552.95 3.33986 0.442183 0
M  V30 17256 O 1553.48 3.73986 1.4662 0
M  V30 17257 N 1551.68 2.87088 0.450438 0
M  V30 17258 H 1551.23 2.54732 -0.383347 0
M  V30 17259 H 1551.19 2.85433 1.31815 0
M  V30 17260 N 1554.96 1.12442 1.10429 0
M  V30 17261 C 1555.89 0.736067 2.16003 0
M  V30 17262 C 1556.87 -0.272805 1.60295 0
M  V30 17263 O 1558.06 -0.166744 1.87761 0
M  V30 17264 C 1555.18 0.0894945 3.38582 0
M  V30 17265 C 1554.23 1.0652 4.12984 0
M  V30 17266 S 1555.06 2.59279 4.68546 0
M  V30 17267 C 1556.22 1.95952 5.94436 0
M  V30 17268 H 1556.45 1.63033 2.48611 0
M  V30 17269 H 1553.98 0.94351 1.22218 0
M  V30 17270 H 1555.94 -0.27718 4.09563 0
M  V30 17271 H 1554.6 -0.781885 3.04213 0
M  V30 17272 H 1553.8 0.560426 5.00874 0
M  V30 17273 H 1553.4 1.37482 3.47814 0
M  V30 17274 H 1555.69 1.30231 6.64866 0
M  V30 17275 H 1556.63 2.81882 6.49575 0
M  V30 17276 H 1557.04 1.41533 5.46469 0
M  V30 17277 N 1556.44 -1.28223 0.91633 0
M  V30 17278 C 1557.69 -1.95153 0.551639 0
M  V30 17279 C 1558.02 -1.71938 -0.902829 0
M  V30 17280 O 1557.29 -1.04184 -1.64243 0
M  V30 17281 C 1557.58 -3.49565 0.864647 0
M  V30 17282 C 1557.43 -3.82171 2.37203 0
M  V30 17283 C 1558.75 -4.38604 0.362593 0
M  V30 17284 H 1555.87 -0.708808 0.20189 0
M  V30 17285 H 1558.51 -1.51545 1.14604 0
M  V30 17286 H 1556.66 -3.8684 0.358782 0
M  V30 17287 H 1558.33 -3.54751 2.94872 0
M  V30 17288 H 1556.57 -3.29124 2.82595 0
M  V30 17289 H 1557.25 -4.90007 2.54159 0
M  V30 17290 H 1559.72 -4.08416 0.795983 0
M  V30 17291 H 1558.6 -5.45493 0.61066 0
M  V30 17292 H 1558.86 -4.35911 -0.737137 0
M  V30 17293 N 1557.92 -0.68059 -1.42147 0
M  V30 17294 C 1558.83 -0.00595573 -2.34599 0
M  V30 17295 C 1559.84 0.782528 -1.55411 0
M  V30 17296 O 1561.02 0.723524 -1.87955 0
M  V30 17297 C 1558.08 0.92964 -3.34004 0
M  V30 17298 C 1557.15 0.135041 -4.29088 0
M  V30 17299 C 1556.38 1.02607 -5.23744 0
M  V30 17300 O 1556.6 2.26562 -5.23475 0
M  V30 17301 O 1555.54 0.483774 -5.99953 0
M  V30 17302 H 1559.36 -0.767652 -2.93838 0
M  V30 17303 H 1556.95 -0.440849 -1.42748 0
M  V30 17304 H 1558.83 1.46657 -3.95057 0
M  V30 17305 H 1557.5 1.67109 -2.7723 0
M  V30 17306 H 1556.41 -0.44613 -3.7143 0
M  V30 17307 H 1557.74 -0.567417 -4.88918 0
M  V30 17308 N 1559.4 1.51781 -0.424309 0
M  V30 17309 C 1560.62 2.06871 0.147968 0
M  V30 17310 C 1561.05 1.29093 1.36808 0
M  V30 17311 O 1560.4 0.325279 1.78358 0
M  V30 17312 C 1560.45 3.57631 0.461757 0
M  V30 17313 O 1559.56 3.82149 1.55035 0
M  V30 17314 H 1558.9 0.663957 0.00757275 0
M  V30 17315 H 1561.43 1.95547 -0.601888 0
M  V30 17316 H 1561.44 4.01668 0.716005 0
M  V30 17317 H 1560.11 4.1367 -0.430081 0
M  V30 17318 H 1558.69 3.49984 1.28709 0
M  V30 17319 N 1560.87 0.155222 1.56834 0
M  V30 17320 C 1562.12 -0.494557 1.96677 0
M  V30 17321 C 1562.45 -1.63973 1.04051 0
M  V30 17322 O 1561.73 -1.94316 0.0844791 0
M  V30 17323 C 1562.01 -0.992902 3.46141 0
M  V30 17324 C 1561.86 0.151335 4.49545 0
M  V30 17325 C 1563.18 -1.87197 3.98303 0
M  V30 17326 H 1560.3 -0.178298 0.715107 0
M  V30 17327 H 1562.94 0.23811 1.88502 0
M  V30 17328 H 1561.09 -1.61724 3.53239 0
M  V30 17329 H 1562.77 0.787945 4.54521 0
M  V30 17330 H 1561.01 0.809262 4.26185 0
M  V30 17331 H 1561.68 -0.23921 5.51481 0
M  V30 17332 H 1564.16 -1.34578 3.93736 0
M  V30 17333 H 1563.03 -2.18972 5.03331 0
M  V30 17334 H 1563.29 -2.81191 3.41151 0
M  V30 17335 N 1562.35 -1.57153 -0.118549 0
M  V30 17336 C 1563.63 -1.75846 -0.856587 0
M  V30 17337 C 1564.01 -0.730801 -1.98047 0
M  V30 17338 O 1563.36 0.245156 -2.27181 0
M  V30 17339 C 1563.57 -3.20864 -1.37286 0
M  V30 17340 C 1564.91 -3.83378 -1.82501 0
M  V30 17341 O 1565.94 -3.24469 -1.46964 0
M  V30 17342 O 1564.8 -4.86922 -2.48132 0
M  V30 17343 H 1561.89 -0.72002 -0.406817 0
M  V30 17344 H 1564.44 -1.69392 -0.102254 0
M  V30 17345 H 1563.21 -3.87177 -0.566531 0
M  V30 17346 H 1562.83 -3.31858 -2.18988 0
M  V30 17347 N 1563.83 0.388742 -1.5273 0
M  V30 17348 C 1565.11 1.14799 -1.58368 0
M  V30 17349 C 1565.49 2.07706 -0.377018 0
M  V30 17350 O 1564.83 2.1951 0.634634 0
M  V30 17351 C 1565.04 1.90745 -2.92262 0
M  V30 17352 C 1566.39 2.46098 -3.46007 0
M  V30 17353 O 1567.42 2.00901 -2.94138 0
M  V30 17354 O 1566.28 3.28658 -4.3663 0
M  V30 17355 H 1563.37 0.52529 -0.638748 0
M  V30 17356 H 1565.92 0.393874 -1.65066 0
M  V30 17357 H 1564.69 1.22806 -3.7153 0
M  V30 17358 H 1564.31 2.73118 -2.88951 0
M  V30 17359 N 1565.31 1.43698 0.647203 0
M  V30 17360 C 1566.58 1.3611 1.40476 0
M  V30 17361 C 1566.96 0.0118567 2.11097 0
M  V30 17362 O 1566.31 -1.00496 2.05214 0
M  V30 17363 C 1566.52 2.5484 2.38448 0
M  V30 17364 C 1567.87 2.98195 3.02267 0
M  V30 17365 O 1568.89 2.5493 2.48775 0
M  V30 17366 O 1567.75 3.73162 3.99265 0
M  V30 17367 H 1564.85 0.538198 0.62791 0
M  V30 17368 H 1567.39 1.55758 0.673606 0
M  V30 17369 H 1566.17 3.4467 1.85253 0
M  V30 17370 H 1565.79 2.37323 3.19004 0
M  V30 17371 N 1566.79 -0.886131 1.30328 0
M  V30 17372 C 1568.03 -1.64026 1.19261 0
M  V30 17373 C 1568.37 -1.92553 -0.252379 0
M  V30 17374 O 1567.64 -1.54564 -1.18069 0
M  V30 17375 C 1567.92 -2.9808 2.0204 0
M  V30 17376 C 1567.78 -2.76534 3.54752 0
M  V30 17377 C 1569.1 -3.98989 1.85731 0
M  V30 17378 H 1566.21 -0.595224 0.4346 0
M  V30 17379 H 1568.86 -1.0255 1.59949 0
M  V30 17380 H 1567.01 -3.50552 1.67469 0
M  V30 17381 H 1568.68 -2.3086 3.99376 0
M  V30 17382 H 1566.92 -2.1106 3.78993 0
M  V30 17383 H 1567.59 -3.71849 4.07961 0
M  V30 17384 H 1570.07 -3.55673 2.15953 0
M  V30 17385 H 1568.94 -4.90699 2.45979 0
M  V30 17386 H 1569.21 -4.34501 0.816152 0
M  V30 17387 N 1568.26 -1.13026 -1.09832 0
M  V30 17388 C 1569.2 -0.747512 -2.1561 0
M  V30 17389 C 1570.18 0.2643 -1.60438 0
M  V30 17390 O 1571.36 0.156784 -1.87847 0
M  V30 17391 C 1568.49 -0.107449 -3.3853 0
M  V30 17392 C 1567.53 -1.08709 -4.12413 0
M  V30 17393 S 1568.37 -2.6176 -4.67164 0
M  V30 17394 C 1569.52 -1.99102 -5.93388 0
M  V30 17395 H 1569.75 -1.6435 -2.47743 0
M  V30 17396 H 1567.29 -0.949978 -1.21716 0
M  V30 17397 H 1569.25 0.255456 -4.09704 0
M  V30 17398 H 1567.91 0.765741 -3.04623 0
M  V30 17399 H 1567.1 -0.58698 -5.0057 0
M  V30 17400 H 1566.7 -1.39325 -3.4708 0
M  V30 17401 H 1568.99 -1.33755 -6.64166 0
M  V30 17402 H 1569.94 -2.85323 -6.48071 0
M  V30 17403 H 1570.34 -1.44429 -5.45711 0
M  V30 17404 N 1569.74 1.27735 -0.923117 0
M  V30 17405 C 1570.65 2.30734 -0.424124 0
M  V30 17406 C 1571.67 1.66872 0.49291 0
M  V30 17407 O 1572.84 1.97843 0.37683 0
M  V30 17408 C 1569.91 3.45227 0.319254 0
M  V30 17409 C 1568.97 4.2462 -0.632137 0
M  V30 17410 C 1568.2 5.33646 0.0758596 0
M  V30 17411 O 1568.43 5.55481 1.29602 0
M  V30 17412 O 1567.36 5.98966 -0.593624 0
M  V30 17413 H 1571.19 2.75444 -1.27923 0
M  V30 17414 H 1568.77 1.32601 -0.688288 0
M  V30 17415 H 1570.65 4.14874 0.73873 0
M  V30 17416 H 1569.33 3.02582 1.15004 0
M  V30 17417 H 1568.24 3.57525 -1.1012 0
M  V30 17418 H 1569.57 4.70969 -1.43001 0
M  V30 17419 N 1571.22 0.688118 1.41784 0
M  V30 17420 C 1572.64 0.358943 1.55511 0
M  V30 17421 C 1572.84 -1.13469 1.66514 0
M  V30 17422 O 1571.89 -1.92039 1.63943 0
M  V30 17423 C 1573.21 1.10094 2.79821 0
M  V30 17424 C 1574.75 1.08456 2.93609 0
M  V30 17425 C 1575.23 1.80815 4.20797 0
M  V30 17426 N 1576.72 1.77748 4.27738 0
M  V30 17427 C 1577.45 2.30581 5.24995 0
M  V30 17428 N 1576.95 2.91854 6.28326 0
M  V30 17429 N 1578.74 2.2088 5.16884 0
M  V30 17430 H 1570.89 1.65695 1.32886 0
M  V30 17431 H 1573.16 0.698818 0.640592 0
M  V30 17432 H 1572.86 2.15589 2.77874 0
M  V30 17433 H 1572.74 0.674713 3.71117 0
M  V30 17434 H 1575.12 0.0378955 2.95076 0
M  V30 17435 H 1575.21 1.54978 2.03508 0
M  V30 17436 H 1574.85 2.85457 4.20092 0
M  V30 17437 H 1574.78 1.31732 5.09857 0
M  V30 17438 H 1577.27 1.33069 3.53696 0
M  V30 17439 H 1577.58 3.29755 6.98915 0
M  V30 17440 H 1575.93 2.95929 6.28849 0
M  V30 17441 H 1579.12 1.72689 4.35082 0
M  V30 17442 H 1579.29 2.62359 5.92513 0
M  V30 17443 N 1572.7 -1.51554 0.432352 0
M  V30 17444 C 1573.65 -2.29204 -0.396044 0
M  V30 17445 C 1574.64 -1.34846 -1.02532 0
M  V30 17446 O 1575.85 -1.52209 -0.960861 0
M  V30 17447 H 1572.22 -0.737587 -0.146525 0
M  V30 17448 H 1574.19 -2.97085 0.279781 0
M  V30 17449 C 1572.94 -3.1427 -1.4876 0
M  V30 17450 H 1572.26 -3.8676 -1.01274 0
M  V30 17451 H 1573.7 -3.71667 -2.04058 0
M  V30 17452 C 1572.16 -2.29322 -2.46806 0
M  V30 17453 O 1572.69 -1.94941 -3.51228 0
M  V30 17454 N 1570.9 -1.92641 -2.17573 0
M  V30 17455 H 1570.45 -2.208 -1.32685 0
M  V30 17456 H 1570.4 -1.361 -2.83415 0
M  V30 17457 N 1574.18 -0.163538 -1.56749 0
M  V30 17458 C 1575.12 0.769787 -2.17584 0
M  V30 17459 C 1576.09 1.23246 -1.11354 0
M  V30 17460 O 1577.28 1.30203 -1.3947 0
M  V30 17461 C 1574.42 1.99685 -2.81461 0
M  V30 17462 C 1573.53 1.57846 -4.0213 0
M  V30 17463 C 1572.67 2.75858 -4.53955 0
M  V30 17464 C 1571.71 2.30473 -5.67053 0
M  V30 17465 N 1570.84 3.41551 -6.13423 0
M  V30 17466 H 1575.68 0.244221 -2.96998 0
M  V30 17467 H 1573.22 0.108821 -1.46697 0
M  V30 17468 H 1575.18 2.71643 -3.16648 0
M  V30 17469 H 1573.81 2.49624 -2.04664 0
M  V30 17470 H 1572.86 0.755907 -3.72814 0
M  V30 17471 H 1574.17 1.20525 -4.8402 0
M  V30 17472 H 1573.33 3.55984 -4.91284 0
M  V30 17473 H 1572.06 3.16434 -3.71107 0
M  V30 17474 H 1571.07 1.48791 -5.29284 0
M  V30 17475 H 1572.29 1.90964 -6.51698 0
M  V30 17476 H 1570.24 3.81717 -5.33506 0
M  V30 17477 H 1570.16 3.08298 -6.90281 0
M  V30 17478 H 1571.43 4.21985 -6.554 0
M  V30 17479 N 1575.65 1.57214 0.110213 0
M  V30 17480 C 1576.6 2.00978 1.13474 0
M  V30 17481 C 1577.57 0.883436 1.40658 0
M  V30 17482 O 1578.76 1.14832 1.52376 0
M  V30 17483 C 1575.9 2.42654 2.45383 0
M  V30 17484 C 1575.01 3.68744 2.2506 0
M  V30 17485 C 1574.14 3.99363 3.50261 0
M  V30 17486 C 1573.18 5.18608 3.25133 0
M  V30 17487 N 1572.32 5.45055 4.42561 0
M  V30 17488 H 1577.16 2.88289 0.754543 0
M  V30 17489 H 1574.7 1.426 0.361064 0
M  V30 17490 H 1576.66 2.64857 3.22345 0
M  V30 17491 H 1575.29 1.58374 2.81278 0
M  V30 17492 H 1574.34 3.54106 1.38972 0
M  V30 17493 H 1575.65 4.55857 2.02475 0
M  V30 17494 H 1574.8 4.22261 4.35638 0
M  V30 17495 H 1573.54 3.10743 3.75886 0
M  V30 17496 H 1572.55 4.95546 2.38148 0
M  V30 17497 H 1573.77 6.08814 3.0087 0
M  V30 17498 H 1571.72 4.59392 4.6829 0
M  V30 17499 H 1571.64 6.26508 4.23111 0
M  V30 17500 H 1572.9 5.72478 5.29046 0
M  V30 17501 N 1577.13 -0.380637 1.52934 0
M  V30 17502 C 1578.38 -1.12261 1.68053 0
M  V30 17503 C 1578.7 -1.90263 0.427191 0
M  V30 17504 O 1577.97 -1.87768 -0.558559 0
M  V30 17505 H 1576.55 -0.41742 0.619491 0
M  V30 17506 H 1579.21 -0.430906 1.90077 0
M  V30 17507 H 1578.31 -1.82085 2.53479 0
M  V30 17508 N 1578.61 -1.44039 -0.639573 0
M  V30 17509 C 1579.84 -1.49844 -1.42669 0
M  V30 17510 C 1580.25 -0.120599 -1.88414 0
M  V30 17511 O 1579.61 0.871875 -1.60327 0
M  V30 17512 C 1579.66 -2.45597 -2.65263 0
M  V30 17513 O 1579.38 -3.78023 -2.21427 0
M  V30 17514 C 1580.88 -2.60781 -3.5848 0
M  V30 17515 H 1578.1 -0.508477 -0.437826 0
M  V30 17516 H 1580.65 -1.88919 -0.782923 0
M  V30 17517 H 1578.8 -2.09679 -3.2575 0
M  V30 17518 H 1579.22 -4.29642 -3.00846 0
M  V30 17519 H 1580.69 -3.31826 -4.4113 0
M  V30 17520 H 1581.17 -1.65727 -4.06732 0
M  V30 17521 H 1581.77 -2.97565 -3.03867 0
M  V30 17522 N 1580.09 0.879207 -1.30796 0
M  V30 17523 C 1581.34 1.62828 -1.19715 0
M  V30 17524 C 1581.66 1.93429 0.247031 0
M  V30 17525 O 1580.93 1.57478 1.16522 0
M  V30 17526 H 1579.51 0.603607 -0.440077 0
M  V30 17527 H 1582.17 1.05309 -1.64 0
M  V30 17528 H 1581.27 2.57591 -1.76219 0
M  V30 17529 N 1581.57 1.13606 1.09231 0
M  V30 17530 C 1582.51 0.815279 2.15921 0
M  V30 17531 C 1583.48 -0.223501 1.64589 0
M  V30 17532 O 1584.67 -0.0952982 1.90562 0
M  V30 17533 C 1581.81 0.289655 3.43882 0
M  V30 17534 C 1580.92 1.38773 4.09104 0
M  V30 17535 C 1580.06 0.820238 5.24829 0
M  V30 17536 C 1579.1 1.89658 5.81976 0
M  V30 17537 N 1578.23 1.34688 6.8906 0
M  V30 17538 H 1583.07 1.72914 2.42703 0
M  V30 17539 H 1580.61 0.863101 1.19117 0
M  V30 17540 H 1582.57 -0.0332398 4.17187 0
M  V30 17541 H 1581.2 -0.587329 3.17412 0
M  V30 17542 H 1580.25 1.82718 3.33644 0
M  V30 17543 H 1581.56 2.20114 4.47606 0
M  V30 17544 H 1580.72 0.448745 6.05038 0
M  V30 17545 H 1579.46 -0.0242261 4.87694 0
M  V30 17546 H 1578.46 2.27712 5.00427 0
M  V30 17547 H 1579.69 2.74448 6.21172 0
M  V30 17548 H 1577.63 0.524453 6.539 0
M  V30 17549 H 1577.55 2.09675 7.26342 0
M  V30 17550 H 1578.82 1.00302 7.7302 0
M  V30 17551 N 1583.05 -1.27244 0.929878 0
M  V30 17552 C 1583.96 -2.30506 0.436355 0
M  V30 17553 C 1584.97 -1.67131 -0.484054 0
M  V30 17554 O 1586.15 -1.9804 -0.366332 0
M  V30 17555 C 1583.21 -3.45391 -0.300942 0
M  V30 17556 C 1582.27 -4.24279 0.654647 0
M  V30 17557 C 1581.51 -5.33679 -0.047558 0
M  V30 17558 O 1581.73 -5.56161 -1.26654 0
M  V30 17559 O 1580.66 -5.98642 0.62538 0
M  V30 17560 H 1584.49 -2.74762 1.29382 0
M  V30 17561 H 1582.07 -1.32234 0.695311 0
M  V30 17562 H 1583.96 -4.1526 -0.716718 0
M  V30 17563 H 1582.63 -3.03187 -1.13398 0
M  V30 17564 H 1581.54 -3.56936 1.12015 0
M  V30 17565 H 1582.87 -4.70204 1.45497 0
M  V30 17566 N 1584.52 -0.695628 -1.41417 0
M  V30 17567 C 1585.47 -0.0303383 -2.3078 0
M  V30 17568 C 1586.44 0.771218 -1.4711 0
M  V30 17569 O 1587.63 0.739239 -1.75897 0
M  V30 17570 C 1584.77 0.900034 -3.33157 0
M  V30 17571 C 1583.88 0.0900862 -4.31906 0
M  V30 17572 C 1583.01 1.01811 -5.21352 0
M  V30 17573 C 1582.05 0.201068 -6.1177 0
M  V30 17574 N 1581.19 1.0829 -6.93699 0
M  V30 17575 H 1586.03 -0.798148 -2.87113 0
M  V30 17576 H 1583.57 -0.405311 -1.41406 0
M  V30 17577 H 1585.52 1.45349 -3.91062 0
M  V30 17578 H 1584.15 1.63424 -2.78375 0
M  V30 17579 H 1583.21 -0.58029 -3.75948 0
M  V30 17580 H 1584.52 -0.543336 -4.95832 0
M  V30 17581 H 1583.67 1.64079 -5.84092 0
M  V30 17582 H 1582.41 1.68538 -4.57653 0
M  V30 17583 H 1581.42 -0.434686 -5.48079 0
M  V30 17584 H 1582.64 -0.462416 -6.77524 0
M  V30 17585 H 1580.59 1.73619 -6.32608 0
M  V30 17586 H 1580.5 0.505046 -7.54311 0
M  V30 17587 H 1581.77 1.69239 -7.60906 0
M  V30 17588 N 1586 1.51322 -0.440383 0
M  V30 17589 C 1586.95 2.27823 0.369526 0
M  V30 17590 C 1587.92 1.31543 1.01418 0
M  V30 17591 O 1589.1 1.60449 1.03251 0
M  V30 17592 C 1586.24 3.12553 1.46304 0
M  V30 17593 C 1585.36 4.23829 0.836217 0
M  V30 17594 C 1584.49 4.95865 1.90504 0
M  V30 17595 C 1583.53 5.99058 1.25681 0
M  V30 17596 N 1582.67 6.64489 2.26712 0
M  V30 17597 H 1587.51 2.96593 -0.289205 0
M  V30 17598 H 1585.04 1.46287 -0.154466 0
M  V30 17599 H 1587 3.60006 2.10836 0
M  V30 17600 H 1585.63 2.4589 2.09136 0
M  V30 17601 H 1584.68 3.80318 0.0791116 0
M  V30 17602 H 1586 4.97753 0.322989 0
M  V30 17603 H 1585.15 5.46881 2.6269 0
M  V30 17604 H 1583.89 4.21578 2.452 0
M  V30 17605 H 1582.89 5.47331 0.520422 0
M  V30 17606 H 1584.12 6.75303 0.717138 0
M  V30 17607 H 1582.07 5.93014 2.80483 0
M  V30 17608 H 1581.98 7.34188 1.80289 0
M  V30 17609 H 1583.25 7.20134 2.98373 0
M  V30 17610 N 1587.48 0.171848 1.5666 0
M  V30 17611 C 1588.76 -0.519355 1.88579 0
M  V30 17612 C 1589.14 -1.81273 1.08182 0
M  V30 17613 O 1588.48 -2.27822 0.175895 0
M  V30 17614 C 1588.69 -0.760743 3.40608 0
M  V30 17615 C 1590.04 -1.09051 4.10357 0
M  V30 17616 O 1591.07 -0.849264 3.45928 0
M  V30 17617 O 1589.93 -1.54566 5.24187 0
M  V30 17618 H 1587.02 -0.267782 0.782446 0
M  V30 17619 H 1589.57 0.210323 1.68392 0
M  V30 17620 H 1588.34 0.153577 3.90999 0
M  V30 17621 H 1587.96 -1.54372 3.66408 0
M  V30 17622 N 1588.96 -1.5727 -0.101874 0
M  V30 17623 C 1590.23 -1.76745 -0.837888 0
M  V30 17624 C 1590.61 -0.751766 -1.9726 0
M  V30 17625 O 1589.96 0.221046 -2.27428 0
M  V30 17626 C 1590.17 -3.22302 -1.33875 0
M  V30 17627 C 1591.52 -3.85292 -1.78425 0
M  V30 17628 O 1592.54 -3.2601 -1.43514 0
M  V30 17629 O 1591.4 -4.89526 -2.42953 0
M  V30 17630 H 1588.5 -0.724294 -0.399157 0
M  V30 17631 H 1591.04 -1.69491 -0.0842821 0
M  V30 17632 H 1589.82 -3.87756 -0.525434 0
M  V30 17633 H 1589.44 -3.34162 -2.15456 0
M  V30 17634 N 1590.44 0.372521 -1.53134 0
M  V30 17635 C 1591.38 1.45597 -1.79082 0
M  V30 17636 C 1592.35 1.5349 -0.63482 0
M  V30 17637 O 1593.54 1.69488 -0.876276 0
M  V30 17638 C 1590.68 2.8263 -1.98026 0
M  V30 17639 C 1589.79 2.83758 -3.25738 0
M  V30 17640 C 1588.93 4.12322 -3.34909 0
M  V30 17641 C 1587.96 4.07565 -4.5668 0
M  V30 17642 N 1587.1 5.27766 -4.63042 0
M  V30 17643 H 1591.94 1.22771 -2.71535 0
M  V30 17644 H 1589.48 0.595285 -1.34517 0
M  V30 17645 H 1591.44 3.62227 -2.06997 0
M  V30 17646 H 1590.07 3.0387 -1.08917 0
M  V30 17647 H 1589.12 1.96435 -3.25757 0
M  V30 17648 H 1590.43 2.76114 -4.15406 0
M  V30 17649 H 1589.58 5.00331 -3.43153 0
M  V30 17650 H 1588.32 4.22709 -2.43245 0
M  V30 17651 H 1587.33 3.17943 -4.48545 0
M  V30 17652 H 1588.55 3.98786 -5.49678 0
M  V30 17653 H 1586.5 5.38752 -3.74276 0
M  V30 17654 H 1586.42 5.22264 -5.46605 0
M  V30 17655 H 1587.68 6.17626 -4.75561 0
M  V30 17656 N 1591.91 1.44376 0.631925 0
M  V30 17657 C 1592.86 1.51479 1.76513 0
M  V30 17658 C 1593.86 0.386562 1.6493 0
M  V30 17659 O 1595.06 0.561473 1.71019 0
M  V30 17660 H 1591.44 0.475318 0.582733 0
M  V30 17661 H 1593.41 2.46856 1.67644 0
M  V30 17662 C 1592.16 1.4754 3.14845 0
M  V30 17663 H 1591.48 2.3367 3.24405 0
M  V30 17664 H 1592.92 1.5657 3.94033 0
M  V30 17665 C 1591.38 0.196043 3.36329 0
M  V30 17666 O 1591.91 -0.734083 3.94936 0
M  V30 17667 N 1590.11 0.0994331 2.9043 0
M  V30 17668 H 1589.66 0.857176 2.4292 0
M  V30 17669 H 1589.62 -0.755814 3.0518 0
M  V30 17670 N 1593.39 -0.872258 1.31261 0
M  V30 17671 C 1594.34 -1.96688 1.15317 0
M  V30 17672 C 1595.33 -1.60769 0.0647922 0
M  V30 17673 O 1596.52 -1.74617 0.289469 0
M  V30 17674 C 1593.65 -3.32347 0.860242 0
M  V30 17675 C 1592.73 -3.7454 1.98948 0
M  V30 17676 N 1593.12 -3.88715 3.23627 0
M  V30 17677 C 1591.42 -4.04035 1.88871 0
M  V30 17678 C 1592.12 -4.24718 3.97478 0
M  V30 17679 N 1591.1 -4.35278 3.25629 0
M  V30 17680 H 1594.9 -2.05755 2.09862 0
M  V30 17681 H 1592.41 -1.0629 1.22785 0
M  V30 17682 H 1594.41 -4.10512 0.727004 0
M  V30 17683 H 1593.07 -3.24609 -0.0770132 0
M  V30 17684 H 1594.08 -3.73504 3.58769 0
M  V30 17685 H 1590.76 -4.04698 1.02595 0
M  V30 17686 H 1592.15 -4.43302 5.04909 0
M  V30 17687 N 1594.87 -1.14184 -1.08627 0
M  V30 17688 C 1595.82 -0.822297 -2.1758 0
M  V30 17689 C 1596.81 0.198863 -1.68229 0
M  V30 17690 O 1598.02 0.0551869 -1.79915 0
M  V30 17691 H 1594.39 -0.248183 -0.709866 0
M  V30 17692 H 1596.36 -1.74916 -2.41758 0
M  V30 17693 C 1595.11 -0.313671 -3.46282 0
M  V30 17694 H 1594.44 -1.09078 -3.84632 0
M  V30 17695 H 1595.88 -0.128604 -4.23805 0
M  V30 17696 C 1594.33 0.962289 -3.22865 0
M  V30 17697 O 1594.86 2.03649 -3.46251 0
M  V30 17698 N 1593.07 0.896635 -2.76421 0
M  V30 17699 H 1592.62 0.0223186 -2.5759 0
M  V30 17700 H 1592.58 1.75093 -2.61132 0
M  V30 17701 N 1596.35 1.26749 -0.936613 0
M  V30 17702 C 1597.3 2.28528 -0.433328 0
M  V30 17703 C 1598.29 1.62248 0.487012 0
M  V30 17704 O 1599.5 1.76245 0.36573 0
M  V30 17705 H 1595.87 0.742106 -0.121583 0
M  V30 17706 H 1597.84 2.68382 -1.30436 0
M  V30 17707 C 1596.59 3.46485 0.290366 0
M  V30 17708 H 1595.91 3.97706 -0.408649 0
M  V30 17709 H 1597.35 4.19635 0.606807 0
M  V30 17710 C 1595.81 3.01339 1.50654 0
M  V30 17711 O 1596.34 3.05781 2.60501 0
M  V30 17712 N 1594.55 2.56732 1.3615 0
M  V30 17713 H 1594.1 2.53317 0.467788 0
M  V30 17714 H 1594.05 2.26888 2.17645 0
M  V30 17715 N 1597.83 0.703118 1.41046 0
M  V30 17716 C 1598.77 0.0425767 2.30761 0
M  V30 17717 C 1599.74 -0.763406 1.47517 0
M  V30 17718 O 1600.93 -0.7299 1.76287 0
M  V30 17719 C 1598.07 -0.882353 3.33629 0
M  V30 17720 C 1597.18 -0.0671799 4.31948 0
M  V30 17721 C 1596.32 -0.990443 5.21885 0
M  V30 17722 C 1595.36 -0.168622 6.11868 0
M  V30 17723 N 1594.49 -1.04609 6.94263 0
M  V30 17724 H 1599.33 0.813363 2.86685 0
M  V30 17725 H 1596.87 0.412804 1.41189 0
M  V30 17726 H 1598.83 -1.43273 3.91827 0
M  V30 17727 H 1597.46 -1.61946 2.79237 0
M  V30 17728 H 1596.51 0.600219 3.75635 0
M  V30 17729 H 1597.82 0.569624 4.95537 0
M  V30 17730 H 1596.98 -1.60979 5.84954 0
M  V30 17731 H 1595.71 -1.66109 4.5854 0
M  V30 17732 H 1594.72 0.463746 5.47841 0
M  V30 17733 H 1595.94 0.49834 6.77269 0
M  V30 17734 H 1593.89 -1.70262 6.33519 0
M  V30 17735 H 1593.81 -0.465036 7.54568 0
M  V30 17736 H 1595.08 -1.65201 7.61793 0
M  V30 17737 N 1599.3 -1.51086 0.448402 0
M  V30 17738 C 1600.21 -2.3177 -0.363323 0
M  V30 17739 C 1601.23 -1.41159 -1.01736 0
M  V30 17740 O 1602.41 -1.74226 -1.01031 0
M  V30 17741 C 1599.47 -3.15211 -1.4437 0
M  V30 17742 C 1598.53 -4.21615 -0.808643 0
M  V30 17743 C 1597.77 -5.01069 -1.83754 0
M  V30 17744 O 1597.99 -4.81296 -3.06121 0
M  V30 17745 O 1596.92 -5.84863 -1.42193 0
M  V30 17746 H 1600.75 -3.02257 0.295653 0
M  V30 17747 H 1598.33 -1.47907 0.210703 0
M  V30 17748 H 1600.22 -3.67053 -2.07002 0
M  V30 17749 H 1598.89 -2.47476 -2.08656 0
M  V30 17750 H 1597.8 -3.73823 -0.143975 0
M  V30 17751 H 1599.13 -4.91756 -0.209098 0
M  V30 17752 N 1600.78 -0.180154 -1.56567 0
M  V30 17753 C 1601.73 0.746666 -2.18389 0
M  V30 17754 C 1602.7 1.22058 -1.12655 0
M  V30 17755 O 1603.88 1.28716 -1.40843 0
M  V30 17756 C 1601.02 1.96688 -2.83563 0
M  V30 17757 C 1600.14 1.53572 -4.03782 0
M  V30 17758 C 1599.27 2.71028 -4.56856 0
M  V30 17759 C 1598.31 2.24445 -5.69465 0
M  V30 17760 N 1597.45 3.35026 -6.17011 0
M  V30 17761 H 1602.29 0.212707 -2.9724 0
M  V30 17762 H 1599.83 0.093256 -1.46804 0
M  V30 17763 H 1601.78 2.68269 -3.19511 0
M  V30 17764 H 1600.41 2.4744 -2.073 0
M  V30 17765 H 1599.47 0.716323 -3.73595 0
M  V30 17766 H 1600.78 1.15385 -4.85271 0
M  V30 17767 H 1599.93 3.50753 -4.95032 0
M  V30 17768 H 1598.67 3.1248 -3.74443 0
M  V30 17769 H 1597.68 1.43169 -5.30832 0
M  V30 17770 H 1598.9 1.84041 -6.53686 0
M  V30 17771 H 1596.85 3.76037 -5.37524 0
M  V30 17772 H 1596.76 3.0096 -6.93512 0
M  V30 17773 H 1598.03 4.15009 -6.59839 0
M  V30 17774 N 1602.26 1.57322 0.0935319 0
M  V30 17775 C 1603.22 2.0121 1.0976 0
M  V30 17776 C 1604.22 0.905839 1.32858 0
M  V30 17777 O 1605.41 1.17128 1.28945 0
M  V30 17778 C 1602.55 2.37414 2.44638 0
M  V30 17779 H 1603.74 2.91134 0.719809 0
M  V30 17780 H 1601.29 1.52588 0.338625 0
M  V30 17781 H 1602.03 1.50449 2.8729 0
M  V30 17782 H 1601.81 3.1812 2.2922 0
M  V30 17783 H 1603.3 2.7202 3.16851 0
M  V30 17784 N 1603.74 -0.364395 1.53329 0
M  V30 17785 C 1604.97 -1.1275 1.7348 0
M  V30 17786 C 1605.38 -1.83002 0.4643 0
M  V30 17787 O 1604.74 -1.73603 -0.562864 0
M  V30 17788 C 1604.79 -2.15691 2.90103 0
M  V30 17789 O 1604.51 -1.48298 4.12237 0
M  V30 17790 C 1606.01 -3.04539 3.22135 0
M  V30 17791 H 1603.23 -0.337084 0.580186 0
M  V30 17792 H 1605.78 -0.422952 2.00078 0
M  V30 17793 H 1603.93 -2.81742 2.65895 0
M  V30 17794 H 1604.34 -2.16896 4.77553 0
M  V30 17795 H 1605.82 -3.72747 4.07141 0
M  V30 17796 H 1606.3 -3.69414 2.3755 0
M  V30 17797 H 1606.9 -2.44103 3.48273 0
M  V30 17798 N 1605.22 -1.44709 -0.62426 0
M  V30 17799 C 1606.49 -1.38328 -1.38292 0
M  V30 17800 C 1606.87 -0.0454388 -2.11051 0
M  V30 17801 O 1606.22 0.972183 -2.06787 0
M  V30 17802 C 1606.43 -2.58602 -2.34364 0
M  V30 17803 C 1607.78 -3.02966 -2.97484 0
M  V30 17804 O 1608.8 -2.58856 -2.44688 0
M  V30 17805 O 1607.66 -3.79466 -3.93278 0
M  V30 17806 H 1604.76 -0.54812 -0.619269 0
M  V30 17807 H 1607.3 -1.5681 -0.648741 0
M  V30 17808 H 1606.07 -3.47573 -1.79746 0
M  V30 17809 H 1605.7 -2.42368 -3.15188 0
M  V30 17810 N 1606.69 0.865285 -1.31722 0
M  V30 17811 C 1607.94 1.62108 -1.21855 0
M  V30 17812 C 1608.27 1.9293 0.221714 0
M  V30 17813 O 1607.55 1.56423 1.15595 0
M  V30 17814 C 1607.83 2.94828 -2.06756 0
M  V30 17815 C 1607.68 2.70855 -3.59107 0
M  V30 17816 C 1609 3.95983 -1.92055 0
M  V30 17817 H 1606.12 0.588234 -0.444015 0
M  V30 17818 H 1608.76 0.999922 -1.6156 0
M  V30 17819 H 1606.91 3.47843 -1.73025 0
M  V30 17820 H 1608.59 2.24477 -4.02999 0
M  V30 17821 H 1606.83 2.05004 -3.82303 0
M  V30 17822 H 1607.5 3.65312 -4.13825 0
M  V30 17823 H 1609.98 3.52193 -2.21584 0
M  V30 17824 H 1608.85 4.86724 -2.53754 0
M  V30 17825 H 1609.11 4.33148 -0.885174 0
M  V30 17826 N 1608.17 1.14759 1.0802 0
M  V30 17827 C 1609.12 0.838134 2.15044 0
M  V30 17828 C 1610.09 -0.206031 1.64817 0
M  V30 17829 O 1611.27 -0.0750812 1.90652 0
M  V30 17830 C 1608.41 0.326112 3.43556 0
M  V30 17831 C 1607.53 1.43104 4.07609 0
M  V30 17832 C 1606.66 0.875857 5.2393 0
M  V30 17833 C 1605.7 1.9582 5.79932 0
M  V30 17834 N 1604.84 1.41989 6.87593 0
M  V30 17835 H 1609.68 1.75478 2.40856 0
M  V30 17836 H 1607.22 0.875686 1.18195 0
M  V30 17837 H 1609.17 0.0110103 4.17199 0
M  V30 17838 H 1607.8 -0.55363 3.18017 0
M  V30 17839 H 1606.86 1.86247 3.31687 0
M  V30 17840 H 1608.17 2.24849 4.45246 0
M  V30 17841 H 1607.32 0.512893 6.04528 0
M  V30 17842 H 1606.06 0.0275017 4.87692 0
M  V30 17843 H 1605.07 2.33006 4.97984 0
M  V30 17844 H 1606.29 2.81021 6.18227 0
M  V30 17845 H 1604.24 0.593779 6.53307 0
M  V30 17846 H 1604.15 2.17367 7.24077 0
M  V30 17847 H 1605.42 1.08495 7.71913 0
M  V30 17848 N 1609.65 -1.26251 0.943322 0
M  V30 17849 C 1610.6 -2.26304 0.453315 0
M  V30 17850 C 1611.57 -1.58764 -0.488168 0
M  V30 17851 O 1612.75 -1.86476 -0.403906 0
M  V30 17852 C 1609.89 -3.44015 -0.273393 0
M  V30 17853 C 1609.01 -4.26225 0.70401 0
M  V30 17854 C 1608.14 -5.31182 -0.0441134 0
M  V30 17855 C 1607.18 -6.05071 0.924971 0
M  V30 17856 N 1606.32 -7.0179 0.208461 0
M  V30 17857 H 1611.16 -2.67591 1.31146 0
M  V30 17858 H 1608.69 -1.31567 0.657914 0
M  V30 17859 H 1610.65 -4.11094 -0.711192 0
M  V30 17860 H 1609.28 -3.03636 -1.09566 0
M  V30 17861 H 1608.33 -3.58915 1.26032 0
M  V30 17862 H 1609.65 -4.77442 1.44398 0
M  V30 17863 H 1608.8 -6.04282 -0.541091 0
M  V30 17864 H 1607.54 -4.80809 -0.816952 0
M  V30 17865 H 1606.54 -5.30795 1.43305 0
M  V30 17866 H 1607.77 -6.57533 1.69785 0
M  V30 17867 H 1605.71 -6.53725 -0.545846 0
M  V30 17868 H 1605.63 -7.5077 0.887725 0
M  V30 17869 H 1606.9 -7.79041 -0.267352 0
M  V30 17870 N 1611.13 -0.710588 -1.40671 0
M  V30 17871 C 1612.35 -0.256007 -2.05814 0
M  V30 17872 C 1612.78 1.09178 -1.53173 0
M  V30 17873 O 1612.14 1.68665 -0.664977 0
M  V30 17874 C 1612.19 -0.240528 -3.59797 0
M  V30 17875 O 1611.29 0.779859 -4.04959 0
M  V30 17876 H 1610.63 -0.121326 -0.652822 0
M  V30 17877 H 1613.16 -0.969667 -1.80163 0
M  V30 17878 H 1613.17 -0.0765027 -4.07928 0
M  V30 17879 H 1611.85 -1.22411 -3.97478 0
M  V30 17880 H 1610.42 0.583965 -3.68299 0
M  V30 17881 N 1612.61 1.50847 -0.456408 0
M  V30 17882 C 1613.83 2.07139 0.104054 0
M  V30 17883 C 1614.26 1.31966 1.34039 0
M  V30 17884 O 1613.62 0.363038 1.77628 0
M  V30 17885 C 1613.66 3.5853 0.385794 0
M  V30 17886 O 1612.77 3.85351 1.46895 0
M  V30 17887 H 1612.11 0.663968 -0.00651246 0
M  V30 17888 H 1614.64 1.94226 -0.64323 0
M  V30 17889 H 1614.65 4.03097 0.630644 0
M  V30 17890 H 1613.32 4.12665 -0.51773 0
M  V30 17891 H 1611.9 3.52635 1.21256 0
M  V30 17892 N 1614.09 0.188454 1.56469 0
M  V30 17893 C 1615.33 -0.452728 1.97682 0
M  V30 17894 C 1615.66 -1.61729 1.07506 0
M  V30 17895 O 1614.94 -1.94094 0.125677 0
M  V30 17896 C 1615.22 -0.919257 3.48169 0
M  V30 17897 C 1615.08 0.246656 4.49123 0
M  V30 17898 C 1616.39 -1.78706 4.02184 0
M  V30 17899 H 1613.51 -0.16309 0.718729 0
M  V30 17900 H 1616.16 0.27804 1.87955 0
M  V30 17901 H 1614.31 -1.54195 3.5659 0
M  V30 17902 H 1615.98 0.884178 4.52747 0
M  V30 17903 H 1614.22 0.89948 4.24372 0
M  V30 17904 H 1614.89 -0.122179 5.51865 0
M  V30 17905 H 1617.37 -1.26196 3.96502 0
M  V30 17906 H 1616.24 -2.08247 5.07863 0
M  V30 17907 H 1616.5 -2.73891 3.47039 0
M  V30 17908 N 1615.56 -1.5737 -0.0851874 0
M  V30 17909 C 1616.97 -1.7544 -0.638575 0
M  V30 17910 C 1617.33 -0.812041 -1.78607 0
M  V30 17911 O 1616.45 0.00710428 -2.16399 0
M  V30 17912 C 1617.05 -3.18134 -1.16517 0
M  V30 17913 C 1615.6 -3.37594 -1.66454 0
M  V30 17914 C 1614.75 -2.71203 -0.578274 0
M  V30 17915 H 1617.7 -1.58073 0.140931 0
M  V30 17916 H 1617.72 -3.21553 -2.0343 0
M  V30 17917 H 1617.24 -3.86696 -0.329794 0
M  V30 17918 H 1615.34 -2.74126 -2.5236 0
M  V30 17919 H 1615.45 -4.45968 -1.75071 0
M  V30 17920 H 1613.81 -2.33379 -1.02011 0
M  V30 17921 H 1614.6 -3.42413 0.246691 0
M  V30 17922 N 1617.04 0.356258 -1.53521 0
M  V30 17923 C 1618.27 1.11828 -1.74075 0
M  V30 17924 C 1618.68 1.82753 -0.473998 0
M  V30 17925 O 1618.04 1.73899 0.553649 0
M  V30 17926 C 1618.09 2.14149 -2.91243 0
M  V30 17927 O 1617.81 1.4611 -4.13017 0
M  V30 17928 C 1619.31 3.02826 -3.23746 0
M  V30 17929 H 1616.53 0.334002 -0.581965 0
M  V30 17930 H 1619.08 0.412336 -2.003 0
M  V30 17931 H 1617.23 2.80328 -2.67386 0
M  V30 17932 H 1617.65 2.1436 -4.78696 0
M  V30 17933 H 1619.12 3.70583 -4.09112 0
M  V30 17934 H 1619.6 3.68149 -2.39505 0
M  V30 17935 H 1620.2 2.42252 -3.49563 0
M  V30 17936 N 1618.52 1.45038 0.616577 0
M  V30 17937 C 1619.47 1.53343 1.74896 0
M  V30 17938 C 1620.46 0.404033 1.64511 0
M  V30 17939 O 1621.67 0.57958 1.70414 0
M  V30 17940 H 1618.04 0.481471 0.577658 0
M  V30 17941 H 1620.01 2.4862 1.65017 0
M  V30 17942 C 1618.76 1.50871 3.13262 0
M  V30 17943 H 1618.09 2.37098 3.21908 0
M  V30 17944 H 1619.53 1.60741 3.9235 0
M  V30 17945 C 1617.98 0.231704 3.36102 0
M  V30 17946 O 1618.51 -0.692154 3.95692 0
M  V30 17947 N 1616.72 0.130232 2.90308 0
M  V30 17948 H 1616.27 0.882893 2.41997 0
M  V30 17949 H 1616.23 -0.723403 3.05964 0
M  V30 17950 N 1620 -0.858287 1.32179 0
M  V30 17951 C 1620.95 -1.98796 1.2076 0
M  V30 17952 C 1621.94 -1.69021 0.11322 0
M  V30 17953 O 1623.15 -1.77873 0.275903 0
M  V30 17954 H 1619.52 -0.652269 0.374232 0
M  V30 17955 H 1621.49 -2.05555 2.1631 0
M  V30 17956 C 1620.24 -3.34646 0.943787 0
M  V30 17957 H 1619.56 -3.58084 1.77808 0
M  V30 17958 H 1621 -4.14248 0.904121 0
M  V30 17959 C 1619.46 -3.35041 -0.353477 0
M  V30 17960 O 1619.99 -3.77742 -1.36652 0
M  V30 17961 N 1618.2 -2.88181 -0.374164 0
M  V30 17962 H 1617.75 -2.53626 0.45075 0
M  V30 17963 H 1617.7 -2.88828 -1.24201 0
M  V30 17964 N 1621.48 -1.1533 -1.07409 0
M  V30 17965 C 1622.72 -0.922348 -1.79376 0
M  V30 17966 C 1623.04 0.551929 -1.87652 0
M  V30 17967 O 1624.24 0.900444 -2.56133 0
M  V30 17968 C 1622.7 -1.60081 -3.22339 0
M  V30 17969 C 1622.31 -3.11206 -3.22265 0
M  V30 17970 C 1624.05 -1.45138 -3.98917 0
M  V30 17971 C 1621.96 -3.71842 -4.59878 0
M  V30 17972 H 1620.89 -0.341438 -0.672262 0
M  V30 17973 H 1623.54 -1.38336 -1.20562 0
M  V30 17974 H 1621.92 -1.06748 -3.81341 0
M  V30 17975 H 1623.1 -3.7129 -2.72911 0
M  V30 17976 H 1621.41 -3.25903 -2.59183 0
M  V30 17977 H 1624.01 -1.87832 -5.00623 0
M  V30 17978 H 1624.35 -0.398796 -4.14385 0
M  V30 17979 H 1624.88 -1.95564 -3.46409 0
M  V30 17980 H 1621.62 -4.76998 -4.49614 0
M  V30 17981 H 1621.14 -3.16541 -5.09472 0
M  V30 17982 H 1622.82 -3.72733 -5.28847 0
M  V30 17983 N 1622.95 1.25748 -0.950004 0
M  V30 17984 C 1624.23 1.88566 -0.519839 0
M  V30 17985 C 1624.61 1.85761 1.00279 0
M  V30 17986 O 1623.96 1.31797 1.8666 0
M  V30 17987 C 1624.17 3.31502 -1.09121 0
M  V30 17988 C 1625.52 4.08298 -1.16524 0
M  V30 17989 O 1626.54 3.40605 -1.04243 0
M  V30 17990 O 1625.4 5.29375 -1.35735 0
M  V30 17991 H 1622.49 0.809175 -0.170777 0
M  V30 17992 H 1625.04 1.33853 -1.04314 0
M  V30 17993 H 1623.81 3.2795 -2.13458 0
M  V30 17994 H 1623.43 3.93765 -0.550881 0
M  V30 17995 N 1624.43 0.718038 1.40292 0
M  V30 17996 C 1625.38 0.0670495 2.30703 0
M  V30 17997 C 1626.35 -0.747716 1.48319 0
M  V30 17998 O 1627.53 -0.711161 1.77051 0
M  V30 17999 C 1624.67 -0.846918 3.34546 0
M  V30 18000 C 1623.79 -0.0213622 4.31995 0
M  V30 18001 C 1622.92 -0.935035 5.22906 0
M  V30 18002 C 1621.96 -0.103715 6.12012 0
M  V30 18003 N 1621.1 -0.972397 6.95334 0
M  V30 18004 H 1625.94 0.843724 2.85806 0
M  V30 18005 H 1623.47 0.427756 1.40743 0
M  V30 18006 H 1625.43 -1.39109 3.93325 0
M  V30 18007 H 1624.06 -1.58975 2.80939 0
M  V30 18008 H 1623.11 0.640026 3.74977 0
M  V30 18009 H 1624.43 0.62215 4.94905 0
M  V30 18010 H 1623.58 -1.54766 5.86628 0
M  V30 18011 H 1622.32 -1.61236 4.60276 0
M  V30 18012 H 1621.32 0.521826 5.47318 0
M  V30 18013 H 1622.55 0.570146 6.76702 0
M  V30 18014 H 1620.5 -1.63533 6.3529 0
M  V30 18015 H 1620.41 -0.384977 7.55019 0
M  V30 18016 H 1621.68 -1.57112 7.63503 0
M  V30 18017 N 1625.91 -1.50602 0.464402 0
M  V30 18018 C 1626.86 -2.29992 -0.347337 0
M  V30 18019 C 1627.85 -1.36991 -0.996489 0
M  V30 18020 O 1629.06 -1.54213 -0.928359 0
M  V30 18021 H 1625.43 -0.740529 -0.130847 0
M  V30 18022 H 1627.4 -2.96425 0.342734 0
M  V30 18023 C 1626.15 -3.17355 -1.4206 0
M  V30 18024 H 1625.48 -3.88822 -0.930473 0
M  V30 18025 H 1626.92 -3.75912 -1.96129 0
M  V30 18026 C 1625.38 -2.34506 -2.41886 0
M  V30 18027 O 1625.91 -2.02347 -3.47014 0
M  V30 18028 N 1624.11 -1.97212 -2.13438 0
M  V30 18029 H 1623.66 -2.23564 -1.27971 0
M  V30 18030 H 1623.62 -1.42081 -2.80464 0
M  V30 18031 N 1627.39 -0.19675 -1.56367 0
M  V30 18032 C 1628.3 0.735372 -2.22777 0
M  V30 18033 C 1629.31 1.23336 -1.22737 0
M  V30 18034 O 1630.49 1.28017 -1.55479 0
M  V30 18035 C 1627.56 1.93706 -2.8754 0
M  V30 18036 C 1626.62 1.48348 -4.02854 0
M  V30 18037 C 1625.85 2.62788 -4.64519 0
M  V30 18038 O 1626.07 3.80311 -4.25111 0
M  V30 18039 O 1625.01 2.35406 -5.53956 0
M  V30 18040 H 1628.83 0.199788 -3.03042 0
M  V30 18041 H 1626.42 0.0326149 -1.49364 0
M  V30 18042 H 1628.3 2.63934 -3.28507 0
M  V30 18043 H 1626.97 2.46121 -2.10252 0
M  V30 18044 H 1625.88 0.749939 -3.66506 0
M  V30 18045 H 1627.21 1.00597 -4.8181 0
M  V30 18046 N 1628.87 1.57413 0.0768405 0
M  V30 18047 C 1630.14 1.78056 0.809663 0
M  V30 18048 C 1630.52 0.783053 1.9604 0
M  V30 18049 O 1629.87 -0.184836 2.27751 0
M  V30 18050 C 1630.08 3.24391 1.2873 0
M  V30 18051 C 1631.43 3.88082 1.72272 0
M  V30 18052 O 1632.45 3.28251 1.38309 0
M  V30 18053 O 1631.31 4.93329 2.35135 0
M  V30 18054 H 1628.41 0.730553 0.387584 0
M  V30 18055 H 1630.95 1.69603 0.057307 0
M  V30 18056 H 1629.72 3.88543 0.463678 0
M  V30 18057 H 1629.35 3.37548 2.10112 0
M  V30 18058 N 1630.34 -0.348112 1.53707 0
M  V30 18059 C 1631.57 -1.10903 1.74666 0
M  V30 18060 C 1631.99 -1.82499 0.483683 0
M  V30 18061 O 1631.34 -1.74191 -0.544419 0
M  V30 18062 C 1631.4 -2.12602 2.92374 0
M  V30 18063 O 1631.12 -1.43918 4.13787 0
M  V30 18064 C 1632.62 -3.01105 3.25347 0
M  V30 18065 H 1629.84 -0.330911 0.583728 0
M  V30 18066 H 1632.38 -0.401707 2.00516 0
M  V30 18067 H 1630.54 -2.78906 2.68869 0
M  V30 18068 H 1630.95 -2.11818 4.79826 0
M  V30 18069 H 1632.42 -3.68408 4.11071 0
M  V30 18070 H 1632.9 -3.66874 2.41455 0
M  V30 18071 H 1633.51 -2.40395 3.50842 0
M  V30 18072 N 1631.82 -1.45363 -0.608876 0
M  V30 18073 C 1633.05 -1.52836 -1.39459 0
M  V30 18074 C 1633.47 -0.160537 -1.88116 0
M  V30 18075 O 1632.82 0.837671 -1.6214 0
M  V30 18076 C 1632.87 -2.51168 -2.59994 0
M  V30 18077 O 1632.59 -3.82635 -2.13359 0
M  V30 18078 C 1634.1 -2.68326 -3.52868 0
M  V30 18079 H 1631.32 -0.51765 -0.426942 0
M  V30 18080 H 1633.86 -1.90538 -0.742674 0
M  V30 18081 H 1632.01 -2.16542 -3.2123 0
M  V30 18082 H 1632.43 -4.35927 -2.91665 0
M  V30 18083 H 1633.9 -3.41109 -4.33992 0
M  V30 18084 H 1634.38 -1.74317 -4.03126 0
M  V30 18085 H 1634.99 -3.03943 -2.97487 0
M  V30 18086 N 1633.3 0.851265 -1.32632 0
M  V30 18087 C 1634.25 1.96012 -1.21852 0
M  V30 18088 C 1635.22 1.65799 -0.0999141 0
M  V30 18089 O 1636.4 1.88793 -0.276049 0
M  V30 18090 C 1633.54 3.31737 -0.951014 0
M  V30 18091 C 1632.66 3.74427 -2.15472 0
M  V30 18092 C 1631.79 4.9896 -1.82242 0
M  V30 18093 C 1630.83 5.3415 -2.98914 0
M  V30 18094 N 1629.97 6.49861 -2.65754 0
M  V30 18095 H 1634.81 2.04565 -2.16696 0
M  V30 18096 H 1632.34 1.00119 -1.07771 0
M  V30 18097 H 1634.3 4.09912 -0.776401 0
M  V30 18098 H 1632.93 3.22776 -0.0393461 0
M  V30 18099 H 1631.98 2.91878 -2.4395 0
M  V30 18100 H 1633.3 3.96425 -3.02736 0
M  V30 18101 H 1632.45 5.84851 -1.61352 0
M  V30 18102 H 1631.19 4.78906 -0.921971 0
M  V30 18103 H 1630.19 4.4677 -3.20432 0
M  V30 18104 H 1631.42 5.5616 -3.89696 0
M  V30 18105 H 1629.36 6.31317 -1.78254 0
M  V30 18106 H 1629.28 6.71894 -3.46547 0
M  V30 18107 H 1630.55 7.38895 -2.48302 0
M  V30 18108 N 1634.78 1.15898 1.06796 0
M  V30 18109 C 1636.01 0.959978 1.82943 0
M  V30 18110 C 1636.42 -0.495084 1.82608 0
M  V30 18111 O 1635.76 -1.35528 1.24008 0
M  V30 18112 C 1635.82 1.40408 3.30947 0
M  V30 18113 C 1635.49 2.87801 3.54993 0
M  V30 18114 C 1636.48 3.85834 3.48465 0
M  V30 18115 C 1634.17 3.25601 3.82478 0
M  V30 18116 C 1636.16 5.19672 3.6908 0
M  V30 18117 C 1633.85 4.59609 4.02744 0
M  V30 18118 C 1634.85 5.56454 3.96041 0
M  V30 18119 O 1634.53 6.8804 4.1576 0
M  V30 18120 H 1634.27 0.340717 0.583856 0
M  V30 18121 H 1636.82 1.54211 1.35677 0
M  V30 18122 H 1635.05 0.765395 3.7905 0
M  V30 18123 H 1636.74 1.1733 3.88572 0
M  V30 18124 H 1637.51 3.57977 3.27227 0
M  V30 18125 H 1633.38 2.50803 3.86806 0
M  V30 18126 H 1636.93 5.95249 3.63764 0
M  V30 18127 H 1632.83 4.8718 4.23469 0
M  V30 18128 H 1633.59 6.94541 4.33076 0
M  V30 18129 N 1636.26 -1.25243 0.956659 0
M  V30 18130 C 1637.5 -1.93299 0.613446 0
M  V30 18131 C 1637.84 -1.74723 -0.847671 0
M  V30 18132 O 1637.11 -1.09357 -1.60846 0
M  V30 18133 C 1637.39 -3.46637 0.975421 0
M  V30 18134 C 1637.25 -3.74431 2.49242 0
M  V30 18135 C 1638.57 -4.37228 0.501948 0
M  V30 18136 H 1635.68 -0.702027 0.224338 0
M  V30 18137 H 1638.33 -1.47822 1.19368 0
M  V30 18138 H 1636.48 -3.85503 0.48167 0
M  V30 18139 H 1638.15 -3.4519 3.06009 0
M  V30 18140 H 1636.39 -3.19967 2.92923 0
M  V30 18141 H 1637.06 -4.81674 2.69619 0
M  V30 18142 H 1639.54 -4.05677 0.925514 0
M  V30 18143 H 1638.41 -5.43274 0.783895 0
M  V30 18144 H 1638.68 -4.38036 -0.598082 0
M  V30 18145 N 1637.73 -0.725468 -1.3991 0
M  V30 18146 C 1638.98 -0.266188 -1.99936 0
M  V30 18147 C 1639.3 1.15022 -1.58207 0
M  V30 18148 O 1640.5 1.70853 -2.11001 0
M  V30 18149 C 1638.96 -0.424978 -3.57382 0
M  V30 18150 C 1638.57 -1.84866 -4.08079 0
M  V30 18151 C 1640.31 -0.0269907 -4.24491 0
M  V30 18152 C 1638.22 -1.95751 -5.58064 0
M  V30 18153 H 1637.15 -0.0957688 -0.747893 0
M  V30 18154 H 1639.8 -0.89798 -1.60027 0
M  V30 18155 H 1638.18 0.275558 -3.9504 0
M  V30 18156 H 1639.35 -2.58037 -3.81776 0
M  V30 18157 H 1637.67 -2.199 -3.536 0
M  V30 18158 H 1640.27 -0.0874638 -5.34628 0
M  V30 18159 H 1640.61 1.01639 -4.03702 0
M  V30 18160 H 1641.14 -0.678332 -3.91974 0
M  V30 18161 H 1637.88 -2.98244 -5.83721 0
M  V30 18162 H 1637.4 -1.27004 -5.862 0
M  V30 18163 H 1639.08 -1.73422 -6.23325 0
M  V30 18164 N 1639.21 1.50354 -0.472382 0
M  V30 18165 C 1640.16 2.28555 0.321118 0
M  V30 18166 C 1641.13 1.33665 0.98605 0
M  V30 18167 O 1642.31 1.62603 0.998239 0
M  V30 18168 C 1639.45 3.15586 1.39641 0
M  V30 18169 C 1638.57 4.25508 0.746129 0
M  V30 18170 C 1637.7 4.99794 1.79943 0
M  V30 18171 C 1636.74 6.01589 1.12946 0
M  V30 18172 N 1635.88 6.69149 2.12567 0
M  V30 18173 H 1640.72 2.95913 -0.352051 0
M  V30 18174 H 1638.26 1.45926 -0.185461 0
M  V30 18175 H 1640.21 3.64397 2.03152 0
M  V30 18176 H 1638.84 2.50271 2.03873 0
M  V30 18177 H 1637.9 3.804 -0.00157718 0
M  V30 18178 H 1639.21 4.98326 0.217335 0
M  V30 18179 H 1638.36 5.5233 2.51031 0
M  V30 18180 H 1637.1 4.26684 2.36203 0
M  V30 18181 H 1636.11 5.48312 0.404207 0
M  V30 18182 H 1637.33 6.76672 0.573735 0
M  V30 18183 H 1635.28 5.9883 2.67841 0
M  V30 18184 H 1635.19 7.37847 1.64676 0
M  V30 18185 H 1636.46 7.26301 2.83031 0
M  V30 18186 N 1640.69 0.205039 1.56261 0
M  V30 18187 C 1641.62 -0.751391 2.15475 0
M  V30 18188 C 1642.6 -1.20265 1.09431 0
M  V30 18189 O 1643.79 -1.28837 1.37598 0
M  V30 18190 C 1640.91 -2.01598 2.72169 0
M  V30 18191 C 1639.96 -1.70605 3.90892 0
M  V30 18192 S 1640.79 -0.845372 5.28785 0
M  V30 18193 C 1641.95 -2.11989 5.88907 0
M  V30 18194 H 1642.18 -0.248043 2.96263 0
M  V30 18195 H 1639.71 -0.0100808 1.54397 0
M  V30 18196 H 1641.67 -2.74217 3.05475 0
M  V30 18197 H 1640.33 -2.49045 1.91403 0
M  V30 18198 H 1639.53 -2.6452 4.29005 0
M  V30 18199 H 1639.13 -1.0606 3.58646 0
M  V30 18200 H 1641.42 -3.0715 6.03875 0
M  V30 18201 H 1642.36 -1.78292 6.85286 0
M  V30 18202 H 1642.77 -2.25289 5.17596 0
M  V30 18203 N 1642.17 -1.57451 -0.0684915 0
M  V30 18204 C 1643.12 -2.04959 -1.09975 0
M  V30 18205 C 1644.11 -0.955558 -1.39877 0
M  V30 18206 O 1645.32 -1.14066 -1.39245 0
M  V30 18207 H 1641.69 -0.653542 -0.372003 0
M  V30 18208 H 1643.66 -2.90713 -0.67294 0
M  V30 18209 C 1642.41 -2.51192 -2.40412 0
M  V30 18210 H 1641.74 -3.3497 -2.18254 0
M  V30 18211 H 1643.18 -2.88183 -3.11008 0
M  V30 18212 C 1641.63 -1.39624 -3.06605 0
M  V30 18213 O 1642.16 -0.740191 -3.94822 0
M  V30 18214 N 1640.37 -1.14054 -2.67283 0
M  V30 18215 H 1639.92 -1.67585 -1.95635 0
M  V30 18216 H 1639.88 -0.396106 -3.11895 0
M  V30 18217 N 1643.65 0.339955 -1.5389 0
M  V30 18218 C 1644.56 1.441 -1.85128 0
M  V30 18219 C 1645.57 1.57399 -0.741733 0
M  V30 18220 O 1646.75 1.72807 -1.0344 0
M  V30 18221 C 1643.81 2.7904 -2.05761 0
M  V30 18222 C 1642.88 2.75055 -3.29611 0
M  V30 18223 C 1642.11 4.0356 -3.4925 0
M  V30 18224 O 1642.33 5.01015 -2.72653 0
M  V30 18225 O 1641.27 4.07813 -4.42687 0
M  V30 18226 H 1645.09 1.20616 -2.78721 0
M  V30 18227 H 1642.68 0.532468 -1.39589 0
M  V30 18228 H 1644.56 3.5895 -2.20756 0
M  V30 18229 H 1643.23 3.02447 -1.15357 0
M  V30 18230 H 1642.14 1.93753 -3.20016 0
M  V30 18231 H 1643.47 2.56602 -4.20019 0
M  V30 18232 N 1645.13 1.45684 0.601159 0
M  V30 18233 C 1646.07 1.54846 1.71147 0
M  V30 18234 C 1647.04 0.393914 1.61361 0
M  V30 18235 O 1648.23 0.608222 1.80846 0
M  V30 18236 C 1645.37 1.52723 3.09467 0
M  V30 18237 C 1644.48 2.78776 3.30012 0
M  V30 18238 C 1643.62 2.68281 4.58474 0
M  V30 18239 C 1642.65 3.89358 4.72299 0
M  V30 18240 N 1641.79 3.77359 5.92068 0
M  V30 18241 H 1646.63 2.49696 1.62653 0
M  V30 18242 H 1644.17 1.23894 0.793006 0
M  V30 18243 H 1646.13 1.49479 3.89502 0
M  V30 18244 H 1644.76 0.614189 3.16903 0
M  V30 18245 H 1643.81 2.9208 2.43708 0
M  V30 18246 H 1645.12 3.68563 3.36099 0
M  V30 18247 H 1644.27 2.63039 5.46713 0
M  V30 18248 H 1643.01 1.76103 4.54795 0
M  V30 18249 H 1642.02 3.94952 3.82482 0
M  V30 18250 H 1643.24 4.82609 4.77771 0
M  V30 18251 H 1641.19 2.87955 5.89422 0
M  V30 18252 H 1641.11 4.60786 5.99343 0
M  V30 18253 H 1642.37 3.76061 6.82787 0
M  V30 18254 N 1646.6 -0.84422 1.33082 0
M  V30 18255 C 1647.85 -1.59404 1.23585 0
M  V30 18256 C 1648.17 -1.94593 -0.198208 0
M  V30 18257 O 1649.37 -2.68307 -0.415138 0
M  V30 18258 C 1647.83 -2.87489 2.16513 0
M  V30 18259 C 1647.44 -2.59685 3.65059 0
M  V30 18260 C 1649.18 -3.6551 2.15877 0
M  V30 18261 C 1647.09 -3.83834 4.49917 0
M  V30 18262 H 1646.02 -0.598191 0.459003 0
M  V30 18263 H 1648.67 -0.931299 1.58111 0
M  V30 18264 H 1647.05 -3.55276 1.74913 0
M  V30 18265 H 1648.22 -2.00143 4.15065 0
M  V30 18266 H 1646.54 -1.94977 3.6793 0
M  V30 18267 H 1649.14 -4.57654 2.76509 0
M  V30 18268 H 1649.48 -4.00031 1.15244 0
M  V30 18269 H 1650.01 -3.0464 2.55811 0
M  V30 18270 H 1646.75 -3.54448 5.51404 0
M  V30 18271 H 1646.27 -4.42734 4.04656 0
M  V30 18272 H 1647.95 -4.51468 4.63449 0
M  V30 18273 N 1648.08 -1.16463 -1.0618 0
M  V30 18274 C 1649.31 -0.969667 -1.82431 0
M  V30 18275 C 1649.72 0.485393 -1.82868 0
M  V30 18276 O 1649.06 1.34868 -1.24725 0
M  V30 18277 C 1649.12 -1.42161 -3.30198 0
M  V30 18278 C 1648.79 -2.89679 -3.53461 0
M  V30 18279 C 1649.79 -3.87677 -3.46414 0
M  V30 18280 C 1647.47 -3.27625 -3.80745 0
M  V30 18281 C 1649.46 -5.21622 -3.66319 0
M  V30 18282 C 1647.15 -4.61739 -4.003 0
M  V30 18283 C 1648.15 -5.58546 -3.93084 0
M  V30 18284 O 1647.84 -6.90235 -4.12105 0
M  V30 18285 H 1647.57 -0.343808 -0.582041 0
M  V30 18286 H 1650.12 -1.54928 -1.34857 0
M  V30 18287 H 1648.35 -0.785486 -3.78638 0
M  V30 18288 H 1650.04 -1.19389 -3.87945 0
M  V30 18289 H 1650.81 -3.59707 -3.25324 0
M  V30 18290 H 1646.69 -2.52851 -3.85471 0
M  V30 18291 H 1650.23 -5.9717 -3.60602 0
M  V30 18292 H 1646.13 -4.89418 -4.2088 0
M  V30 18293 H 1646.9 -6.96828 -4.29387 0
M  V30 18294 N 1649.56 1.24734 -0.963288 0
M  V30 18295 C 1650.51 2.27557 -0.481704 0
M  V30 18296 C 1651.5 1.63245 0.452488 0
M  V30 18297 O 1652.71 1.76981 0.328263 0
M  V30 18298 H 1649.08 0.73936 -0.137297 0
M  V30 18299 H 1651.05 2.65555 -1.361 0
M  V30 18300 C 1649.8 3.47023 0.216806 0
M  V30 18301 H 1649.13 3.9675 -0.492916 0
M  V30 18302 H 1650.57 4.20828 0.517659 0
M  V30 18303 C 1649.02 3.04466 1.44229 0
M  V30 18304 O 1649.55 3.11238 2.53956 0
M  V30 18305 N 1647.76 2.59563 1.30674 0
M  V30 18306 H 1647.31 2.54252 0.41395 0
M  V30 18307 H 1647.27 2.31453 2.12783 0
M  V30 18308 N 1651.04 0.732878 1.39523 0
M  V30 18309 C 1652.45 0.408236 1.54291 0
M  V30 18310 C 1652.65 -1.08114 1.7004 0
M  V30 18311 O 1651.71 -1.86726 1.6997 0
M  V30 18312 C 1653.02 1.1894 2.76177 0
M  V30 18313 C 1654.57 1.17742 2.9001 0
M  V30 18314 C 1655.05 1.94111 4.14831 0
M  V30 18315 N 1656.54 1.91266 4.21867 0
M  V30 18316 C 1657.27 2.47167 5.17394 0
M  V30 18317 N 1656.77 3.11696 6.18723 0
M  V30 18318 N 1658.56 2.37212 5.09595 0
M  V30 18319 H 1650.71 1.69839 1.27548 0
M  V30 18320 H 1652.97 0.718844 0.618035 0
M  V30 18321 H 1652.68 2.24321 2.70875 0
M  V30 18322 H 1652.55 0.792439 3.68782 0
M  V30 18323 H 1654.94 0.131752 2.94806 0
M  V30 18324 H 1655.02 1.61374 1.98474 0
M  V30 18325 H 1654.67 2.98677 4.10797 0
M  V30 18326 H 1654.6 1.47886 5.05408 0
M  V30 18327 H 1657.09 1.44254 3.49284 0
M  V30 18328 H 1657.4 3.51823 6.8807 0
M  V30 18329 H 1655.75 3.15785 6.19116 0
M  V30 18330 H 1658.94 1.86444 4.29367 0
M  V30 18331 H 1659.11 2.81076 5.83866 0
M  V30 18332 N 1652.52 -1.50101 0.480349 0
M  V30 18333 C 1653.45 -2.25419 -0.355186 0
M  V30 18334 C 1654.43 -1.2912 -0.988276 0
M  V30 18335 O 1655.61 -1.58364 -1.02241 0
M  V30 18336 C 1652.74 -3.03751 -1.49844 0
M  V30 18337 C 1651.78 -4.15046 -0.981799 0
M  V30 18338 S 1652.62 -5.35385 0.110936 0
M  V30 18339 C 1653.77 -6.17267 -1.03597 0
M  V30 18340 H 1654.01 -2.95939 0.284135 0
M  V30 18341 H 1651.54 -1.52103 0.265352 0
M  V30 18342 H 1653.5 -3.49471 -2.15361 0
M  V30 18343 H 1652.16 -2.32739 -2.1093 0
M  V30 18344 H 1651.35 -4.69292 -1.83795 0
M  V30 18345 H 1650.95 -3.7181 -0.404184 0
M  V30 18346 H 1653.24 -6.48961 -1.94565 0
M  V30 18347 H 1654.19 -7.06094 -0.532569 0
M  V30 18348 H 1654.6 -5.49469 -1.29398 0
M  V30 18349 N 1653.99 -0.213323 -1.5615 0
M  V30 18350 C 1654.93 0.732346 -2.17185 0
M  V30 18351 C 1655.94 1.16357 -1.13864 0
M  V30 18352 O 1657.13 1.09614 -1.40879 0
M  V30 18353 C 1654.23 2.0027 -2.73395 0
M  V30 18354 C 1653.4 1.72836 -4.01804 0
M  V30 18355 C 1652.46 2.84497 -4.4266 0
M  V30 18356 O 1651.49 2.5332 -5.09723 0
M  V30 18357 N 1652.69 4.13268 -4.07663 0
M  V30 18358 H 1655.45 0.210294 -2.98961 0
M  V30 18359 H 1653.01 -0.0320124 -1.61868 0
M  V30 18360 H 1655.01 2.74145 -2.97702 0
M  V30 18361 H 1653.58 2.43546 -1.9597 0
M  V30 18362 H 1652.8 0.826474 -3.85439 0
M  V30 18363 H 1654.08 1.51928 -4.85588 0
M  V30 18364 H 1653.48 4.41444 -3.53756 0
M  V30 18365 H 1652.04 4.83713 -4.36881 0
M  V30 18366 N 1655.47 1.57485 0.0601405 0
M  V30 18367 C 1656.38 2.07853 1.08785 0
M  V30 18368 C 1657.4 1.01047 1.41653 0
M  V30 18369 O 1658.57 1.32592 1.51596 0
M  V30 18370 C 1655.64 2.52214 2.37885 0
M  V30 18371 C 1654.7 3.73369 2.11882 0
M  V30 18372 C 1653.93 4.15604 3.34827 0
M  V30 18373 O 1654.16 3.5761 4.44377 0
M  V30 18374 O 1653.09 5.08303 3.22353 0
M  V30 18375 H 1656.92 2.9576 0.689912 0
M  V30 18376 H 1654.5 1.46846 0.275065 0
M  V30 18377 H 1656.38 2.81216 3.1384 0
M  V30 18378 H 1655.06 1.67432 2.77035 0
M  V30 18379 H 1653.97 3.49433 1.33594 0
M  V30 18380 H 1655.3 4.59039 1.77606 0
M  V30 18381 N 1656.95 -0.331789 1.54068 0
M  V30 18382 C 1658.18 -1.09484 1.76148 0
M  V30 18383 C 1658.6 -1.81201 0.504772 0
M  V30 18384 O 1657.96 -1.7297 -0.54325 0
M  V30 18385 C 1658.01 -2.07495 2.94921 0
M  V30 18386 O 1657.11 -3.15239 2.65891 0
M  V30 18387 H 1656.45 -0.316071 0.583948 0
M  V30 18388 H 1658.98 -0.378593 2.01067 0
M  V30 18389 H 1658.99 -2.5051 3.22038 0
M  V30 18390 H 1657.67 -1.54696 3.8606 0
M  V30 18391 H 1656.24 -2.76958 2.49697 0
M  V30 18392 N 1658.43 -1.46001 -0.593424 0
M  V30 18393 C 1659.68 -1.50457 -1.34933 0
M  V30 18394 C 1660 -0.153383 -1.94396 0
M  V30 18395 O 1659.27 0.818894 -1.77963 0
M  V30 18396 H 1657.85 -0.554119 -0.50096 0
M  V30 18397 H 1660.51 -1.82057 -0.695798 0
M  V30 18398 H 1659.61 -2.25131 -2.16154 0
M  V30 18399 N 1659.91 0.83715 -1.33527 0
M  V30 18400 C 1660.85 1.94709 -1.23924 0
M  V30 18401 C 1661.82 1.65684 -0.117494 0
M  V30 18402 O 1663.01 1.88489 -0.296057 0
M  V30 18403 C 1660.15 3.3071 -0.986146 0
M  V30 18404 C 1659.26 3.72121 -2.19432 0
M  V30 18405 C 1658.4 4.96999 -1.87524 0
M  V30 18406 C 1657.44 5.3095 -3.04563 0
M  V30 18407 N 1656.57 6.47006 -2.72632 0
M  V30 18408 H 1661.41 2.02255 -2.18854 0
M  V30 18409 H 1658.95 0.989703 -1.08827 0
M  V30 18410 H 1660.91 4.09065 -0.819834 0
M  V30 18411 H 1659.54 3.22716 -0.0735786 0
M  V30 18412 H 1658.59 2.89274 -2.47032 0
M  V30 18413 H 1659.9 3.93192 -3.06923 0
M  V30 18414 H 1659.06 5.83107 -1.67546 0
M  V30 18415 H 1657.79 4.77901 -0.972714 0
M  V30 18416 H 1656.8 4.43346 -3.25153 0
M  V30 18417 H 1658.02 5.51995 -3.95573 0
M  V30 18418 H 1655.97 6.29391 -1.8494 0
M  V30 18419 H 1655.89 6.6818 -3.53654 0
M  V30 18420 H 1657.16 7.3622 -2.56125 0
M  V30 18421 N 1661.38 1.17024 1.05561 0
M  V30 18422 C 1662.61 0.979328 1.81914 0
M  V30 18423 C 1663.02 -0.475688 1.83122 0
M  V30 18424 O 1662.37 -1.34205 1.25438 0
M  V30 18425 C 1662.43 1.4391 3.29439 0
M  V30 18426 C 1662.09 2.9155 3.5192 0
M  V30 18427 C 1663.09 3.89509 3.44353 0
M  V30 18428 C 1660.77 3.2964 3.79003 0
M  V30 18429 C 1662.77 5.23557 3.63548 0
M  V30 18430 C 1660.45 4.63855 3.97846 0
M  V30 18431 C 1661.45 5.60623 3.90117 0
M  V30 18432 O 1661.14 6.92411 4.08439 0
M  V30 18433 H 1660.87 0.34689 0.58021 0
M  V30 18434 H 1663.43 1.55641 1.34034 0
M  V30 18435 H 1661.66 0.805555 3.78216 0
M  V30 18436 H 1663.35 1.21445 3.87306 0
M  V30 18437 H 1664.11 3.61428 3.23412 0
M  V30 18438 H 1659.99 2.54891 3.84124 0
M  V30 18439 H 1663.53 5.99074 3.5743 0
M  V30 18440 H 1659.43 4.91644 4.18278 0
M  V30 18441 H 1660.2 6.99095 4.25685 0
M  V30 18442 N 1662.86 -1.24221 0.969889 0
M  V30 18443 C 1663.81 -2.25292 0.501215 0
M  V30 18444 C 1664.78 -1.59764 -0.454382 0
M  V30 18445 O 1665.96 -1.87291 -0.364261 0
M  V30 18446 C 1663.1 -3.44518 -0.200361 0
M  V30 18447 C 1662.22 -4.24636 0.79426 0
M  V30 18448 C 1661.35 -5.31156 0.068568 0
M  V30 18449 C 1660.39 -6.02973 1.05311 0
M  V30 18450 N 1659.53 -7.0119 0.357274 0
M  V30 18451 H 1664.37 -2.64749 1.36792 0
M  V30 18452 H 1661.91 -1.30142 0.685673 0
M  V30 18453 H 1663.86 -4.1251 -0.623833 0
M  V30 18454 H 1662.49 -3.05892 -1.03101 0
M  V30 18455 H 1661.55 -3.56161 1.33616 0
M  V30 18456 H 1662.86 -4.74271 1.54493 0
M  V30 18457 H 1662.01 -6.05294 -0.412792 0
M  V30 18458 H 1660.75 -4.82434 -0.714781 0
M  V30 18459 H 1659.76 -5.27636 1.54532 0
M  V30 18460 H 1660.98 -6.53784 1.83694 0
M  V30 18461 H 1658.93 -6.54736 -0.407059 0
M  V30 18462 H 1658.84 -7.48718 1.04677 0
M  V30 18463 H 1660.11 -7.79433 -0.102045 0
M  V30 18464 N 1664.34 -0.740267 -1.39132 0
M  V30 18465 C 1665.27 -0.064087 -2.2911 0
M  V30 18466 C 1666.29 0.697897 -1.47082 0
M  V30 18467 O 1667.47 0.541189 -1.70098 0
M  V30 18468 C 1664.57 0.933426 -3.25792 0
M  V30 18469 C 1663.75 0.231867 -4.36785 0
M  V30 18470 C 1662.81 1.13823 -5.13742 0
M  V30 18471 O 1661.83 0.613741 -5.65881 0
M  V30 18472 N 1663.03 2.46751 -5.25447 0
M  V30 18473 H 1665.8 -0.836774 -2.87781 0
M  V30 18474 H 1663.36 -0.589928 -1.5077 0
M  V30 18475 H 1665.35 1.5425 -3.74151 0
M  V30 18476 H 1663.92 1.60728 -2.68114 0
M  V30 18477 H 1663.14 -0.557747 -3.90234 0
M  V30 18478 H 1664.43 -0.254115 -5.08165 0
M  V30 18479 H 1663.83 2.91834 -4.84613 0
M  V30 18480 H 1662.39 3.02741 -5.77227 0
M  V30 18481 N 1665.82 1.49844 -0.488302 0
M  V30 18482 C 1666.75 2.31737 0.286432 0
M  V30 18483 C 1667.73 1.39424 0.974418 0
M  V30 18484 O 1668.91 1.68339 0.968274 0
M  V30 18485 C 1666.04 3.19616 1.35878 0
M  V30 18486 C 1665 4.20619 0.791409 0
M  V30 18487 C 1664.32 4.9735 1.96333 0
M  V30 18488 C 1665.62 5.21882 -0.208975 0
M  V30 18489 H 1667.32 2.96755 -0.397092 0
M  V30 18490 H 1664.86 1.42709 -0.192413 0
M  V30 18491 H 1666.82 3.75711 1.90838 0
M  V30 18492 H 1665.54 2.52516 2.07131 0
M  V30 18493 H 1664.2 3.65651 0.263647 0
M  V30 18494 H 1663.85 4.26708 2.66325 0
M  V30 18495 H 1663.55 5.65684 1.58983 0
M  V30 18496 H 1665.07 5.56286 2.51751 0
M  V30 18497 H 1666.49 5.72746 0.252049 0
M  V30 18498 H 1664.88 5.98033 -0.497638 0
M  V30 18499 H 1665.95 4.7157 -1.12916 0
M  V30 18500 N 1667.3 0.221601 1.56034 0
M  V30 18501 C 1668.54 -0.410087 1.98304 0
M  V30 18502 C 1668.87 -1.59769 1.10924 0
M  V30 18503 O 1668.13 -1.95092 0.154196 0
M  V30 18504 C 1668.43 -0.887416 3.46208 0
M  V30 18505 C 1668.09 0.189671 4.50501 0
M  V30 18506 C 1666.75 0.485557 4.78744 0
M  V30 18507 C 1669.11 0.918112 5.1305 0
M  V30 18508 C 1666.43 1.5144 5.66818 0
M  V30 18509 C 1668.79 1.93629 6.02238 0
M  V30 18510 C 1667.45 2.23909 6.28825 0
M  V30 18511 H 1666.72 -0.150061 0.725646 0
M  V30 18512 H 1669.37 0.32413 1.88737 0
M  V30 18513 H 1667.67 -1.70039 3.52979 0
M  V30 18514 H 1669.37 -1.38602 3.76285 0
M  V30 18515 H 1665.96 -0.0510987 4.2857 0
M  V30 18516 H 1670.14 0.702761 4.91299 0
M  V30 18517 H 1665.4 1.75462 5.85682 0
M  V30 18518 H 1669.57 2.5058 6.49756 0
M  V30 18519 H 1667.2 3.03774 6.96868 0
M  V30 18520 N 1668.77 -1.57515 -0.0517878 0
M  V30 18521 C 1670.05 -1.79321 -0.781233 0
M  V30 18522 C 1670.43 -0.814142 -1.94769 0
M  V30 18523 O 1669.78 0.14858 -2.28016 0
M  V30 18524 C 1669.99 -3.26398 -1.23553 0
M  V30 18525 C 1671.34 -3.90773 -1.66077 0
M  V30 18526 O 1672.36 -3.3041 -1.33069 0
M  V30 18527 O 1671.22 -4.97008 -2.27257 0
M  V30 18528 H 1668.31 -0.736627 -0.375912 0
M  V30 18529 H 1670.86 -1.69673 -0.0303173 0
M  V30 18530 H 1669.63 -3.89232 -0.401806 0
M  V30 18531 H 1669.26 -3.40848 -2.04716 0
M  V30 18532 N 1670.25 0.323614 -1.54242 0
M  V30 18533 C 1671.5 1.05909 -1.71657 0
M  V30 18534 C 1671.82 1.89177 -0.497151 0
M  V30 18535 O 1673.02 2.65816 -0.552649 0
M  V30 18536 C 1671.48 1.93246 -3.03618 0
M  V30 18537 C 1671.09 1.1509 -4.32965 0
M  V30 18538 C 1672.83 2.6653 -3.30397 0
M  V30 18539 C 1670.74 2.01573 -5.55988 0
M  V30 18540 H 1669.67 0.399114 -0.639706 0
M  V30 18541 H 1672.32 0.317338 -1.80735 0
M  V30 18542 H 1670.7 2.71319 -2.88447 0
M  V30 18543 H 1671.87 0.417877 -4.58901 0
M  V30 18544 H 1670.19 0.534882 -4.1295 0
M  V30 18545 H 1672.79 3.31542 -4.19504 0
M  V30 18546 H 1673.13 3.34164 -2.48274 0
M  V30 18547 H 1673.66 1.95518 -3.46435 0
M  V30 18548 H 1670.4 1.38446 -6.40713 0
M  V30 18549 H 1669.92 2.72609 -5.3427 0
M  V30 18550 H 1671.6 2.60159 -5.9239 0
M  V30 18551 N 1671.73 1.46313 0.585673 0
M  V30 18552 C 1672.68 1.57018 1.71604 0
M  V30 18553 C 1673.67 0.438838 1.63617 0
M  V30 18554 O 1674.88 0.615597 1.69146 0
M  V30 18555 H 1671.25 0.493616 0.567316 0
M  V30 18556 H 1673.23 2.52065 1.59706 0
M  V30 18557 C 1671.97 1.57482 3.09992 0
M  V30 18558 H 1671.3 2.43872 3.16806 0
M  V30 18559 H 1672.74 1.69027 3.88852 0
M  V30 18560 C 1671.2 0.302944 3.35535 0
M  V30 18561 O 1671.73 -0.608066 3.97071 0
M  V30 18562 N 1669.93 0.191781 2.89966 0
M  V30 18563 H 1669.48 0.934025 2.4007 0
M  V30 18564 H 1669.44 -0.658341 3.0743 0
M  V30 18565 N 1673.21 -0.830057 1.33969 0
M  V30 18566 C 1674.16 -1.94049 1.24955 0
M  V30 18567 C 1675.13 -1.65619 0.126279 0
M  V30 18568 O 1676.31 -1.88329 0.306049 0
M  V30 18569 C 1673.45 -3.30182 1.00367 0
M  V30 18570 C 1672.56 -3.70952 2.21402 0
M  V30 18571 C 1671.7 -4.95998 1.90157 0
M  V30 18572 C 1670.74 -5.29327 3.07374 0
M  V30 18573 N 1669.88 -6.45551 2.76059 0
M  V30 18574 H 1674.72 -2.01091 2.19923 0
M  V30 18575 H 1672.25 -0.983918 1.0935 0
M  V30 18576 H 1674.21 -4.08625 0.841516 0
M  V30 18577 H 1672.84 -3.22673 0.090692 0
M  V30 18578 H 1671.89 -2.8796 2.48563 0
M  V30 18579 H 1673.2 -3.91558 3.09004 0
M  V30 18580 H 1672.36 -5.8221 1.70636 0
M  V30 18581 H 1671.1 -4.77379 0.998045 0
M  V30 18582 H 1670.1 -4.41616 3.27499 0
M  V30 18583 H 1671.33 -5.4989 3.98495 0
M  V30 18584 H 1669.27 -6.28401 1.88275 0
M  V30 18585 H 1669.19 -6.66295 3.57193 0
M  V30 18586 H 1670.46 -7.34851 2.60026 0
M  V30 18587 N 1674.69 -1.17582 -1.04939 0
M  V30 18588 C 1675.93 -0.965778 -1.77986 0
M  V30 18589 C 1676.26 0.505366 -1.8782 0
M  V30 18590 O 1675.52 1.39132 -1.37625 0
M  V30 18591 C 1675.82 -1.55507 -3.21796 0
M  V30 18592 C 1675.48 -3.05086 -3.32014 0
M  V30 18593 C 1674.14 -3.45914 -3.3451 0
M  V30 18594 C 1676.5 -4.01096 -3.32824 0
M  V30 18595 C 1673.82 -4.81344 -3.35447 0
M  V30 18596 C 1676.18 -5.3643 -3.353 0
M  V30 18597 C 1674.84 -5.76718 -3.36084 0
M  V30 18598 H 1674.11 -0.353403 -0.651297 0
M  V30 18599 H 1676.76 -1.46512 -1.23315 0
M  V30 18600 H 1675.06 -0.977509 -3.7941 0
M  V30 18601 H 1676.76 -1.36807 -3.76941 0
M  V30 18602 H 1673.35 -2.72541 -3.30786 0
M  V30 18603 H 1677.53 -3.7061 -3.30094 0
M  V30 18604 H 1672.79 -5.11868 -3.34366 0
M  V30 18605 H 1676.96 -6.106 -3.34874 0
M  V30 18606 H 1674.59 -6.81637 -3.36563 0
M  V30 18607 N 1676.17 1.23705 -0.976463 0
M  V30 18608 C 1677.41 1.92015 -0.643168 0
M  V30 18609 C 1677.74 1.76239 0.822796 0
M  V30 18610 O 1677 1.11469 1.60851 0
M  V30 18611 C 1677.29 3.43853 -0.974676 0
M  V30 18612 C 1676.96 3.79805 -2.43021 0
M  V30 18613 C 1675.62 3.89329 -2.82801 0
M  V30 18614 C 1677.97 3.97218 -3.37442 0
M  V30 18615 C 1675.3 4.13691 -4.16025 0
M  V30 18616 C 1677.65 4.23079 -4.70305 0
M  V30 18617 C 1676.32 4.30824 -5.0985 0
M  V30 18618 H 1675.59 0.702631 -0.235352 0
M  V30 18619 H 1678.24 1.46811 -1.22959 0
M  V30 18620 H 1676.54 3.90602 -0.306121 0
M  V30 18621 H 1678.24 3.9493 -0.695061 0
M  V30 18622 H 1674.83 3.72963 -2.11179 0
M  V30 18623 H 1679.01 3.89254 -3.07889 0
M  V30 18624 H 1674.27 4.17909 -4.46276 0
M  V30 18625 H 1678.44 4.35496 -5.4343 0
M  V30 18626 H 1676.07 4.49454 -6.13103 0
M  V30 18627 N 1677.64 0.747635 1.38738 0
M  V30 18628 C 1678.59 0.11597 2.30508 0
M  V30 18629 C 1679.56 -0.716088 1.49871 0
M  V30 18630 O 1680.75 -0.673446 1.7852 0
M  V30 18631 C 1677.89 -0.775765 3.36268 0
M  V30 18632 C 1677 0.070275 4.31943 0
M  V30 18633 C 1676.13 -0.823908 5.24772 0
M  V30 18634 C 1675.17 0.0261249 6.12094 0
M  V30 18635 N 1674.31 -0.824688 6.9724 0
M  V30 18636 H 1679.15 0.904158 2.83952 0
M  V30 18637 H 1676.69 0.457513 1.39804 0
M  V30 18638 H 1678.64 -1.30735 3.96187 0
M  V30 18639 H 1677.27 -1.5298 2.84248 0
M  V30 18640 H 1676.33 0.719421 3.73535 0
M  V30 18641 H 1677.64 0.726987 4.93474 0
M  V30 18642 H 1676.79 -1.42287 5.89779 0
M  V30 18643 H 1675.53 -1.51437 4.63593 0
M  V30 18644 H 1674.54 0.637803 5.46088 0
M  V30 18645 H 1675.76 0.713556 6.75341 0
M  V30 18646 H 1673.71 -1.50021 6.38616 0
M  V30 18647 H 1673.62 -0.22474 7.55666 0
M  V30 18648 H 1674.89 -1.40882 7.66663 0
M  V30 18649 N 1679.12 -1.49583 0.496242 0
M  V30 18650 C 1680.07 -2.29037 -0.284716 0
M  V30 18651 C 1681.04 -1.35217 -0.964661 0
M  V30 18652 O 1682.22 -1.64171 -0.972244 0
M  V30 18653 C 1679.36 -3.17767 -1.34603 0
M  V30 18654 C 1678.48 -4.26641 -0.67834 0
M  V30 18655 C 1677.61 -5.02594 -1.71969 0
M  V30 18656 C 1676.65 -6.0331 -1.03361 0
M  V30 18657 N 1675.79 -6.72446 -2.01894 0
M  V30 18658 H 1680.63 -2.95316 0.399084 0
M  V30 18659 H 1678.16 -1.45613 0.208653 0
M  V30 18660 H 1680.12 -3.67583 -1.97329 0
M  V30 18661 H 1678.75 -2.53483 -1.99866 0
M  V30 18662 H 1677.8 -3.80349 0.0620953 0
M  V30 18663 H 1679.12 -4.98609 -0.138028 0
M  V30 18664 H 1678.27 -5.56254 -2.42212 0
M  V30 18665 H 1677.01 -4.30388 -2.29385 0
M  V30 18666 H 1676.01 -5.48886 -0.316925 0
M  V30 18667 H 1677.24 -6.77499 -0.466009 0
M  V30 18668 H 1675.19 -6.03015 -2.58281 0
M  V30 18669 H 1675.1 -7.40373 -1.52916 0
M  V30 18670 H 1676.37 -7.30712 -2.7144 0
M  V30 18671 N 1680.6 -0.229873 -1.55915 0
M  V30 18672 C 1681.51 0.687953 -2.24286 0
M  V30 18673 C 1682.53 1.20705 -1.25325 0
M  V30 18674 O 1683.7 1.2469 -1.58159 0
M  V30 18675 C 1680.77 1.87563 -2.91584 0
M  V30 18676 C 1679.83 1.39769 -4.0591 0
M  V30 18677 C 1679.06 2.52876 -4.69989 0
M  V30 18678 O 1679.28 3.71208 -4.33083 0
M  V30 18679 O 1678.22 2.23603 -5.58825 0
M  V30 18680 H 1682.04 0.135464 -3.03398 0
M  V30 18681 H 1679.63 0.000925172 -1.494 0
M  V30 18682 H 1681.51 2.56907 -3.34031 0
M  V30 18683 H 1680.19 2.41606 -2.15426 0
M  V30 18684 H 1679.09 0.672029 -3.68014 0
M  V30 18685 H 1680.43 0.903543 -4.83836 0
M  V30 18686 N 1682.08 1.5754 0.0434337 0
M  V30 18687 C 1683.33 1.87789 0.736074 0
M  V30 18688 C 1683.64 0.826466 1.77282 0
M  V30 18689 O 1684.85 1.01771 2.51704 0
M  V30 18690 C 1683.3 3.33207 1.36018 0
M  V30 18691 C 1682.91 4.46547 0.360532 0
M  V30 18692 C 1684.65 3.72623 2.03353 0
M  V30 18693 C 1682.56 5.83018 0.992167 0
M  V30 18694 H 1681.49 0.700614 0.278667 0
M  V30 18695 H 1684.14 1.83497 -0.00997697 0
M  V30 18696 H 1682.52 3.32199 2.15546 0
M  V30 18697 H 1683.7 4.58999 -0.406987 0
M  V30 18698 H 1682.01 4.1587 -0.209931 0
M  V30 18699 H 1684.61 4.71893 2.51437 0
M  V30 18700 H 1684.95 3.03874 2.84546 0
M  V30 18701 H 1685.49 3.75744 1.3062 0
M  V30 18702 H 1682.22 6.55131 0.219964 0
M  V30 18703 H 1681.74 5.74313 1.72987 0
M  V30 18704 H 1683.42 6.29283 1.50374 0
M  V30 18705 N 1683.56 -0.31543 1.54411 0
M  V30 18706 C 1684.47 -1.41136 1.87397 0
M  V30 18707 C 1685.48 -1.56199 0.76668 0
M  V30 18708 O 1686.66 -1.71139 1.06176 0
M  V30 18709 C 1683.72 -2.75731 2.10174 0
M  V30 18710 C 1682.78 -2.69776 3.33945 0
M  V30 18711 C 1682.02 -3.97952 3.55626 0
M  V30 18712 O 1682.24 -4.96614 2.80589 0
M  V30 18713 O 1681.17 -4.00719 4.49119 0
M  V30 18714 H 1685 -1.16167 2.80605 0
M  V30 18715 H 1682.58 -0.510193 1.40419 0
M  V30 18716 H 1684.47 -3.55392 2.26439 0
M  V30 18717 H 1683.14 -3.00574 1.20154 0
M  V30 18718 H 1682.05 -1.88638 3.23058 0
M  V30 18719 H 1683.38 -2.49887 4.24049 0
M  V30 18720 N 1685.03 -1.46622 -0.577906 0
M  V30 18721 C 1686.28 -1.5188 -1.3333 0
M  V30 18722 C 1686.6 -0.173993 -1.94222 0
M  V30 18723 O 1685.87 0.799972 -1.78822 0
M  V30 18724 H 1684.45 -0.559401 -0.495055 0
M  V30 18725 H 1687.12 -1.82785 -0.676449 0
M  V30 18726 H 1686.21 -2.27411 -2.13754 0
M  V30 18727 N 1686.51 0.822941 -1.34408 0
M  V30 18728 C 1687.46 1.92272 -1.22537 0
M  V30 18729 C 1688.45 1.60418 -0.124416 0
M  V30 18730 O 1689.64 1.73422 -0.354077 0
M  V30 18731 C 1686.77 3.28926 -0.982998 0
M  V30 18732 C 1685.85 3.66898 -2.12712 0
M  V30 18733 N 1686.24 3.76436 -3.37831 0
M  V30 18734 C 1684.54 3.96746 -2.03736 0
M  V30 18735 C 1685.24 4.09674 -4.12968 0
M  V30 18736 N 1684.22 4.22893 -3.41559 0
M  V30 18737 H 1688.02 1.97824 -2.17354 0
M  V30 18738 H 1685.54 1.0166 -1.26645 0
M  V30 18739 H 1687.53 4.07531 -0.878862 0
M  V30 18740 H 1686.19 3.24671 -0.0435162 0
M  V30 18741 H 1687.2 3.59931 -3.72384 0
M  V30 18742 H 1683.88 4.00611 -1.17544 0
M  V30 18743 H 1685.27 4.24257 -5.21014 0
M  V30 18744 N 1687.99 1.18137 1.04314 0
M  V30 18745 C 1689.4 0.979768 1.58926 0
M  V30 18746 C 1689.75 -0.471214 1.90457 0
M  V30 18747 O 1688.88 -1.34812 1.69277 0
M  V30 18748 C 1689.47 1.77219 2.88754 0
M  V30 18749 C 1688.03 1.61501 3.39992 0
M  V30 18750 C 1687.18 1.76824 2.13609 0
M  V30 18751 H 1690.13 1.32717 0.870162 0
M  V30 18752 H 1690.15 1.2598 3.59039 0
M  V30 18753 H 1689.66 2.82818 2.65773 0
M  V30 18754 H 1687.76 0.58427 3.67991 0
M  V30 18755 H 1687.88 2.4115 4.13985 0
M  V30 18756 H 1686.24 1.19747 2.24795 0
M  V30 18757 H 1687.02 2.83853 1.93087 0
M  V30 18758 N 1689.47 -1.23186 0.98301 0
M  V30 18759 C 1690.7 -1.95418 0.670479 0
M  V30 18760 C 1691.11 -1.7295 -0.767135 0
M  V30 18761 O 1690.45 -1.01946 -1.52816 0
M  V30 18762 C 1690.51 -3.48456 0.884244 0
M  V30 18763 C 1690.18 -3.94645 2.30443 0
M  V30 18764 C 1691.17 -4.03108 3.28328 0
M  V30 18765 C 1688.86 -4.27561 2.63622 0
M  V30 18766 C 1690.85 -4.43845 4.57471 0
M  V30 18767 C 1688.54 -4.67979 3.92987 0
M  V30 18768 C 1689.54 -4.76088 4.89723 0
M  V30 18769 O 1689.22 -5.15597 6.16778 0
M  V30 18770 H 1688.96 -0.628896 0.247924 0
M  V30 18771 H 1691.51 -1.57559 1.31774 0
M  V30 18772 H 1689.74 -3.86282 0.179809 0
M  V30 18773 H 1691.43 -4.01899 0.568475 0
M  V30 18774 H 1692.2 -3.77879 3.04027 0
M  V30 18775 H 1688.07 -4.2046 1.89036 0
M  V30 18776 H 1691.62 -4.5009 5.32978 0
M  V30 18777 H 1687.52 -4.92658 4.17083 0
M  V30 18778 H 1688.28 -5.33701 6.20569 0
M  V30 18779 N 1690.95 -0.754982 -1.38339 0
M  V30 18780 C 1692.19 -0.311762 -2.00086 0
M  V30 18781 C 1692.52 1.10693 -1.59929 0
M  V30 18782 O 1691.78 1.77279 -0.8289 0
M  V30 18783 C 1692.08 -0.383719 -3.55334 0
M  V30 18784 C 1691.74 -1.75826 -4.15206 0
M  V30 18785 C 1690.4 -2.13443 -4.31272 0
M  V30 18786 C 1692.76 -2.65985 -4.4822 0
M  V30 18787 C 1690.08 -3.40689 -4.77649 0
M  V30 18788 C 1692.44 -3.92623 -4.96014 0
M  V30 18789 C 1691.1 -4.30307 -5.10286 0
M  V30 18790 H 1690.37 -0.114082 -0.732166 0
M  V30 18791 H 1693.02 -0.965735 -1.65366 0
M  V30 18792 H 1691.32 0.353817 -3.90199 0
M  V30 18793 H 1693.02 -0.022341 -4.00994 0
M  V30 18794 H 1689.61 -1.45585 -4.03117 0
M  V30 18795 H 1693.79 -2.38188 -4.35408 0
M  V30 18796 H 1689.05 -3.69802 -4.86884 0
M  V30 18797 H 1693.22 -4.62626 -5.20529 0
M  V30 18798 H 1690.85 -5.28968 -5.45982 0
M  V30 18799 N 1692.42 1.49318 -0.504168 0
M  V30 18800 C 1693.36 2.27103 0.309327 0
M  V30 18801 C 1694.37 1.33776 0.927781 0
M  V30 18802 O 1695.56 1.59034 0.810585 0
M  V30 18803 C 1692.66 3.06277 1.45078 0
M  V30 18804 C 1691.83 4.27201 0.939045 0
M  V30 18805 C 1690.89 4.88395 1.95849 0
M  V30 18806 O 1689.92 5.4837 1.52576 0
M  V30 18807 N 1691.12 4.78328 3.28911 0
M  V30 18808 H 1693.88 2.97558 -0.35767 0
M  V30 18809 H 1691.44 1.58356 -0.336907 0
M  V30 18810 H 1693.44 3.44088 2.13038 0
M  V30 18811 H 1692.01 2.38409 2.02188 0
M  V30 18812 H 1691.23 3.9411 0.0842433 0
M  V30 18813 H 1692.51 5.05534 0.575603 0
M  V30 18814 H 1691.91 4.30707 3.66753 0
M  V30 18815 H 1690.47 5.20315 3.92576 0
M  V30 18816 N 1693.9 0.238138 1.5579 0
M  V30 18817 C 1694.85 -0.665098 2.21009 0
M  V30 18818 C 1695.82 -1.17793 1.17107 0
M  V30 18819 O 1697 -1.234 1.45523 0
M  V30 18820 C 1694.14 -1.86028 2.90667 0
M  V30 18821 C 1693.26 -1.3848 4.09203 0
M  V30 18822 C 1692.39 -2.53885 4.666 0
M  V30 18823 C 1691.43 -2.03155 5.77403 0
M  V30 18824 N 1690.57 -3.11895 6.2902 0
M  V30 18825 H 1695.41 -0.102242 2.97825 0
M  V30 18826 H 1692.95 -0.0387064 1.47049 0
M  V30 18827 H 1694.9 -2.56226 3.29248 0
M  V30 18828 H 1693.53 -2.39575 2.16341 0
M  V30 18829 H 1692.59 -0.577172 3.75996 0
M  V30 18830 H 1693.9 -0.972946 4.89219 0
M  V30 18831 H 1693.05 -3.32139 5.07709 0
M  V30 18832 H 1691.79 -2.98368 3.85782 0
M  V30 18833 H 1690.8 -1.23369 5.3578 0
M  V30 18834 H 1692.02 -1.59653 6.60067 0
M  V30 18835 H 1689.97 -3.55828 5.5111 0
M  V30 18836 H 1689.88 -2.75013 7.04204 0
M  V30 18837 H 1691.15 -3.90234 6.74787 0
M  V30 18838 N 1695.38 -1.57561 -0.0350783 0
M  V30 18839 C 1696.63 -1.88177 -0.726105 0
M  V30 18840 C 1696.94 -0.835856 -1.76841 0
M  V30 18841 O 1698.15 -1.03105 -2.51161 0
M  V30 18842 C 1696.6 -3.33924 -1.34249 0
M  V30 18843 C 1696.21 -4.46732 -0.336845 0
M  V30 18844 C 1697.96 -3.73696 -2.01374 0
M  V30 18845 C 1695.86 -5.83536 -0.961234 0
M  V30 18846 H 1694.79 -0.702082 -0.274948 0
M  V30 18847 H 1697.44 -1.83489 0.0197081 0
M  V30 18848 H 1695.83 -3.33337 -2.13781 0
M  V30 18849 H 1697 -4.58777 0.431323 0
M  V30 18850 H 1695.32 -4.15753 0.231983 0
M  V30 18851 H 1697.91 -4.7322 -2.48931 0
M  V30 18852 H 1698.26 -3.05379 -2.8293 0
M  V30 18853 H 1698.79 -3.76431 -1.28626 0
M  V30 18854 H 1695.53 -6.55238 -0.185217 0
M  V30 18855 H 1695.05 -5.75223 -1.69938 0
M  V30 18856 H 1696.73 -6.30071 -1.47035 0
M  V30 18857 N 1696.86 0.307236 -1.54576 0
M  V30 18858 C 1697.81 1.3787 -1.85096 0
M  V30 18859 C 1698.78 1.5066 -0.69935 0
M  V30 18860 O 1699.96 1.65618 -0.947373 0
M  V30 18861 C 1697.1 2.73976 -2.09836 0
M  V30 18862 C 1696.21 2.69687 -3.3748 0
M  V30 18863 C 1695.35 3.97746 -3.52096 0
M  V30 18864 C 1694.39 3.87829 -4.73556 0
M  V30 18865 N 1693.52 5.07651 -4.8501 0
M  V30 18866 H 1698.36 1.11144 -2.76498 0
M  V30 18867 H 1695.9 0.537696 -1.36921 0
M  V30 18868 H 1697.86 3.53121 -2.22174 0
M  V30 18869 H 1696.49 2.98977 -1.21707 0
M  V30 18870 H 1695.54 1.82441 -3.33795 0
M  V30 18871 H 1696.85 2.58247 -4.26743 0
M  V30 18872 H 1696.01 4.85327 -3.64065 0
M  V30 18873 H 1694.75 4.12012 -2.60955 0
M  V30 18874 H 1693.75 2.98633 -4.61626 0
M  V30 18875 H 1694.98 3.75114 -5.66098 0
M  V30 18876 H 1692.92 5.22393 -3.9679 0
M  V30 18877 H 1692.84 4.9861 -5.68264 0
M  V30 18878 H 1694.11 5.969 -5.01328 0
M  V30 18879 N 1698.34 1.46926 0.570122 0
M  V30 18880 C 1699.28 1.58442 1.67824 0
M  V30 18881 C 1700.25 0.428053 1.6049 0
M  V30 18882 O 1701.44 0.646445 1.79515 0
M  V30 18883 C 1698.58 1.59253 3.06158 0
M  V30 18884 C 1697.69 2.85714 3.24024 0
M  V30 18885 C 1696.83 2.77945 4.52681 0
M  V30 18886 C 1695.87 3.99289 4.63934 0
M  V30 18887 N 1695 3.89833 5.83931 0
M  V30 18888 H 1699.84 2.5309 1.5732 0
M  V30 18889 H 1697.38 1.25549 0.766548 0
M  V30 18890 H 1699.34 1.57707 3.86244 0
M  V30 18891 H 1697.97 0.68127 3.15529 0
M  V30 18892 H 1697.02 2.97184 2.37458 0
M  V30 18893 H 1698.33 3.7561 3.28206 0
M  V30 18894 H 1697.49 2.74576 5.41011 0
M  V30 18895 H 1696.22 1.85711 4.50958 0
M  V30 18896 H 1695.23 4.02976 3.74019 0
M  V30 18897 H 1696.45 4.92635 4.67427 0
M  V30 18898 H 1694.4 3.00393 5.83181 0
M  V30 18899 H 1694.32 4.73395 5.89434 0
M  V30 18900 H 1695.59 3.90459 6.74657 0
M  V30 18901 N 1699.82 -0.815801 1.34842 0
M  V30 18902 C 1700.76 -1.92713 1.27006 0
M  V30 18903 C 1701.73 -1.65476 0.143838 0
M  V30 18904 O 1702.92 -1.87994 0.326007 0
M  V30 18905 C 1700.06 -3.29099 1.03863 0
M  V30 18906 C 1699.17 -3.68583 2.25324 0
M  V30 18907 C 1698.31 -4.93953 1.95407 0
M  V30 18908 C 1697.34 -5.26037 3.12971 0
M  V30 18909 N 1696.48 -6.42586 2.82891 0
M  V30 18910 H 1701.32 -1.98747 2.22044 0
M  V30 18911 H 1698.86 -0.972265 1.10388 0
M  V30 18912 H 1700.82 -4.07709 0.884809 0
M  V30 18913 H 1699.45 -3.22558 0.124911 0
M  V30 18914 H 1698.5 -2.85307 2.51603 0
M  V30 18915 H 1699.81 -3.88259 3.1314 0
M  V30 18916 H 1698.96 -5.80367 1.76801 0
M  V30 18917 H 1697.7 -4.76293 1.04862 0
M  V30 18918 H 1696.71 -4.38117 3.32165 0
M  V30 18919 H 1697.93 -5.45632 4.04305 0
M  V30 18920 H 1695.88 -6.26369 1.9493 0
M  V30 18921 H 1695.8 -6.62469 3.64239 0
M  V30 18922 H 1697.06 -7.32052 2.67805 0
M  V30 18923 N 1701.29 -1.18689 -1.03686 0
M  V30 18924 C 1702.24 -0.91384 -2.13897 0
M  V30 18925 C 1703.24 0.127333 -1.68921 0
M  V30 18926 O 1704.44 -0.0211711 -1.79988 0
M  V30 18927 H 1700.82 -0.278067 -0.698701 0
M  V30 18928 H 1702.79 -1.85013 -2.34122 0
M  V30 18929 C 1701.54 -0.460259 -3.4464 0
M  V30 18930 H 1700.86 -1.25294 -3.7966 0
M  V30 18931 H 1702.3 -0.308239 -4.22878 0
M  V30 18932 C 1700.76 0.824485 -3.26656 0
M  V30 18933 O 1701.29 1.8878 -3.54577 0
M  V30 18934 N 1699.49 0.778588 -2.79976 0
M  V30 18935 H 1699.04 -0.0869543 -2.57453 0
M  V30 18936 H 1699 1.6386 -2.68323 0
M  V30 18937 N 1702.77 1.22662 -0.989529 0
M  V30 18938 C 1703.68 2.28162 -0.545835 0
M  V30 18939 C 1704.7 1.69251 0.403762 0
M  V30 18940 O 1705.87 1.99563 0.271428 0
M  V30 18941 C 1702.94 3.46434 0.135808 0
M  V30 18942 C 1702 4.20673 -0.85633 0
M  V30 18943 C 1701.23 5.33298 -0.207121 0
M  V30 18944 O 1701.46 5.6157 0.99975 0
M  V30 18945 O 1700.39 5.94977 -0.910288 0
M  V30 18946 H 1704.22 2.68276 -1.42344 0
M  V30 18947 H 1701.8 1.28766 -0.757609 0
M  V30 18948 H 1703.68 4.18207 0.517776 0
M  V30 18949 H 1702.36 3.08252 0.988035 0
M  V30 18950 H 1701.26 3.51186 -1.28917 0
M  V30 18951 H 1702.6 4.62726 -1.67765 0
M  V30 18952 N 1704.25 0.762308 1.37937 0
M  V30 18953 C 1705.2 0.140412 2.30372 0
M  V30 18954 C 1706.17 -0.700152 1.50622 0
M  V30 18955 O 1707.35 -0.654474 1.79224 0
M  V30 18956 C 1704.49 -0.740056 3.37071 0
M  V30 18957 C 1703.6 0.116084 4.31844 0
M  V30 18958 C 1702.74 -0.768203 5.25616 0
M  V30 18959 C 1701.78 0.0910442 6.12032 0
M  V30 18960 N 1700.92 -0.75069 6.98075 0
M  V30 18961 H 1705.76 0.934224 2.82977 0
M  V30 18962 H 1703.29 0.472316 1.39311 0
M  V30 18963 H 1705.25 -1.26525 3.97551 0
M  V30 18964 H 1703.88 -1.49956 2.85855 0
M  V30 18965 H 1702.93 0.758999 3.72751 0
M  V30 18966 H 1704.24 0.779285 4.92675 0
M  V30 18967 H 1703.4 -1.36024 5.91255 0
M  V30 18968 H 1702.14 -1.46511 4.65173 0
M  V30 18969 H 1701.14 0.695687 5.45381 0
M  V30 18970 H 1702.37 0.785145 6.74546 0
M  V30 18971 H 1700.31 -1.43239 6.40171 0
M  V30 18972 H 1700.23 -0.144579 7.55862 0
M  V30 18973 H 1701.5 -1.32742 7.68114 0
M  V30 18974 N 1705.73 -1.49049 0.51208 0
M  V30 18975 C 1706.69 -2.27838 -0.249491 0
M  V30 18976 C 1707.69 -1.34321 -0.884004 0
M  V30 18977 O 1708.88 -1.57379 -0.74682 0
M  V30 18978 C 1706.01 -3.12637 -1.35908 0
M  V30 18979 H 1707.21 -2.96625 0.442029 0
M  V30 18980 H 1704.76 -1.53996 0.267406 0
M  V30 18981 H 1705.49 -2.48441 -2.0844 0
M  V30 18982 H 1705.28 -3.81408 -0.909427 0
M  V30 18983 H 1706.77 -3.72117 -1.89523 0
M  V30 18984 N 1707.21 -0.246397 -1.55662 0
M  V30 18985 C 1708.15 0.653368 -2.21359 0
M  V30 18986 C 1709.12 1.1717 -1.1773 0
M  V30 18987 O 1710.31 1.22626 -1.46176 0
M  V30 18988 C 1707.45 1.84484 -2.9165 0
M  V30 18989 C 1706.56 1.36308 -4.09932 0
M  V30 18990 C 1705.7 2.51407 -4.6794 0
M  V30 18991 C 1704.73 2.0009 -5.78472 0
M  V30 18992 N 1703.87 3.08555 -6.30665 0
M  V30 18993 H 1708.71 0.0864458 -2.97875 0
M  V30 18994 H 1706.25 0.0309074 -1.47068 0
M  V30 18995 H 1708.21 2.54476 -3.30602 0
M  V30 18996 H 1706.84 2.38425 -2.17609 0
M  V30 18997 H 1705.89 0.557224 -3.76297 0
M  V30 18998 H 1707.2 0.946988 -4.89728 0
M  V30 18999 H 1706.35 3.29442 -5.09463 0
M  V30 19000 H 1705.09 2.96318 -3.87359 0
M  V30 19001 H 1704.1 1.20526 -5.36427 0
M  V30 19002 H 1705.32 1.5615 -6.60904 0
M  V30 19003 H 1703.27 3.529 -5.52989 0
M  V30 19004 H 1703.19 2.71274 -7.05653 0
M  V30 19005 H 1704.45 3.8665 -6.76847 0
M  V30 19006 N 1708.68 1.57577 0.026722 0
M  V30 19007 C 1709.63 2.06711 1.02661 0
M  V30 19008 C 1710.6 0.956754 1.35777 0
M  V30 19009 O 1711.79 1.22747 1.46074 0
M  V30 19010 C 1708.93 2.55321 2.32175 0
M  V30 19011 C 1708.04 3.80155 2.05197 0
M  V30 19012 C 1707.17 4.17368 3.28599 0
M  V30 19013 C 1706.21 5.35114 2.97186 0
M  V30 19014 N 1705.35 5.67747 4.13046 0
M  V30 19015 H 1710.19 2.91884 0.600666 0
M  V30 19016 H 1707.73 1.44313 0.284968 0
M  V30 19017 H 1709.68 2.81572 3.07853 0
M  V30 19018 H 1708.31 1.73061 2.72488 0
M  V30 19019 H 1707.37 3.60975 1.20006 0
M  V30 19020 H 1708.68 4.65949 1.78026 0
M  V30 19021 H 1707.83 4.4476 4.12642 0
M  V30 19022 H 1706.57 3.30231 3.58886 0
M  V30 19023 H 1705.58 5.07473 2.11545 0
M  V30 19024 H 1706.8 6.23906 2.68175 0
M  V30 19025 H 1704.75 4.83569 4.4328 0
M  V30 19026 H 1704.66 6.48056 3.89307 0
M  V30 19027 H 1705.93 5.99717 4.97956 0
M  V30 19028 N 1710.16 -0.299034 1.54737 0
M  V30 19029 C 1711.07 -1.39141 1.88884 0
M  V30 19030 C 1712.09 -1.55377 0.783203 0
M  V30 19031 O 1713.26 -1.70003 1.07985 0
M  V30 19032 C 1710.33 -2.73487 2.13087 0
M  V30 19033 C 1709.39 -2.66219 3.36788 0
M  V30 19034 C 1708.62 -3.94158 3.59827 0
M  V30 19035 O 1708.85 -4.9361 2.85841 0
M  V30 19036 O 1707.78 -3.95933 4.53344 0
M  V30 19037 H 1711.61 -1.13184 2.81821 0
M  V30 19038 H 1709.19 -0.495271 1.40952 0
M  V30 19039 H 1711.07 -3.5297 2.30195 0
M  V30 19040 H 1709.75 -2.99283 1.23335 0
M  V30 19041 H 1708.65 -1.85201 3.25041 0
M  V30 19042 H 1709.99 -2.45376 4.26675 0
M  V30 19043 N 1711.64 -1.47227 -0.562322 0
M  V30 19044 C 1712.59 -1.59329 -1.66981 0
M  V30 19045 C 1713.56 -0.436558 -1.6026 0
M  V30 19046 O 1714.74 -0.655956 -1.7917 0
M  V30 19047 C 1711.88 -1.60874 -3.05309 0
M  V30 19048 C 1710.99 -2.87428 -3.22505 0
M  V30 19049 C 1710.13 -2.80342 -4.512 0
M  V30 19050 C 1709.17 -4.01744 -4.6181 0
M  V30 19051 N 1708.31 -3.92924 -5.81855 0
M  V30 19052 H 1713.15 -2.53921 -1.55975 0
M  V30 19053 H 1710.68 -1.25953 -0.759879 0
M  V30 19054 H 1712.64 -1.59753 -3.85402 0
M  V30 19055 H 1711.27 -0.697994 -3.15163 0
M  V30 19056 H 1710.32 -2.98439 -2.35878 0
M  V30 19057 H 1711.63 -3.77345 -3.26209 0
M  V30 19058 H 1710.79 -2.77442 -5.39547 0
M  V30 19059 H 1709.53 -1.881 -4.49966 0
M  V30 19060 H 1708.53 -4.04954 -3.71877 0
M  V30 19061 H 1709.76 -4.95107 -4.64807 0
M  V30 19062 H 1707.7 -3.03481 -5.8158 0
M  V30 19063 H 1707.62 -4.76514 -5.86916 0
M  V30 19064 H 1708.89 -3.94031 -6.72577 0
M  V30 19065 N 1713.12 0.808639 -1.35273 0
M  V30 19066 C 1714.03 1.95198 -1.30134 0
M  V30 19067 C 1715.04 1.72769 -0.206587 0
M  V30 19068 O 1716.22 1.96633 -0.4356 0
M  V30 19069 C 1713.28 3.29747 -1.07087 0
M  V30 19070 C 1712.35 3.65086 -2.25855 0
M  V30 19071 C 1711.58 4.93215 -2.03898 0
M  V30 19072 O 1711.8 5.61487 -1.00439 0
M  V30 19073 O 1710.74 5.26765 -2.91208 0
M  V30 19074 H 1714.56 2.0248 -2.26353 0
M  V30 19075 H 1712.15 0.946124 -1.15624 0
M  V30 19076 H 1714.03 4.10302 -0.960734 0
M  V30 19077 H 1712.7 3.23401 -0.139177 0
M  V30 19078 H 1711.61 2.84917 -2.42432 0
M  V30 19079 H 1712.94 3.76135 -3.17464 0
M  V30 19080 N 1714.6 1.19237 1.03055 0
M  V30 19081 C 1715.54 0.928588 2.11296 0
M  V30 19082 C 1716.51 -0.135941 1.65543 0
M  V30 19083 O 1717.7 0.00584847 1.90799 0
M  V30 19084 C 1714.84 0.471532 3.41863 0
M  V30 19085 C 1713.95 1.60264 4.01173 0
M  V30 19086 C 1713.09 1.09729 5.19743 0
M  V30 19087 C 1712.13 2.2024 5.71105 0
M  V30 19088 N 1711.26 1.71024 6.80952 0
M  V30 19089 H 1716.1 1.85536 2.33196 0
M  V30 19090 H 1713.64 0.925029 1.14375 0
M  V30 19091 H 1715.6 0.187949 4.16776 0
M  V30 19092 H 1714.23 -0.41825 3.20079 0
M  V30 19093 H 1713.28 2.00147 3.23489 0
M  V30 19094 H 1714.59 2.43531 4.35309 0
M  V30 19095 H 1713.75 0.768832 6.01809 0
M  V30 19096 H 1712.48 0.234324 4.87137 0
M  V30 19097 H 1711.49 2.53918 4.87653 0
M  V30 19098 H 1712.71 3.06989 6.05751 0
M  V30 19099 H 1710.66 0.870334 6.50201 0
M  V30 19100 H 1710.58 2.47882 7.14206 0
M  V30 19101 H 1711.85 1.41137 7.66616 0
M  V30 19102 N 1716.07 -1.22136 0.99602 0
M  V30 19103 C 1717.01 -2.22793 0.493816 0
M  V30 19104 C 1717.99 -1.56318 -0.447601 0
M  V30 19105 O 1719.17 -1.84784 -0.372419 0
M  V30 19106 C 1716.3 -3.37509 -0.283763 0
M  V30 19107 C 1715.34 -4.222 0.60411 0
M  V30 19108 S 1716.18 -4.9424 2.06125 0
M  V30 19109 C 1717.33 -6.12394 1.29325 0
M  V30 19110 H 1717.56 -2.65047 1.34675 0
M  V30 19111 H 1715.1 -1.31862 0.803237 0
M  V30 19112 H 1717.06 -4.04023 -0.726346 0
M  V30 19113 H 1715.72 -2.93757 -1.11201 0
M  V30 19114 H 1714.91 -5.04 0.00565269 0
M  V30 19115 H 1714.51 -3.60835 0.983588 0
M  V30 19116 H 1716.8 -6.75161 0.5625 0
M  V30 19117 H 1717.75 -6.76657 2.08664 0
M  V30 19118 H 1718.15 -5.58728 0.805166 0
M  V30 19119 N 1717.55 -0.769612 -1.37531 0
M  V30 19120 C 1718.5 -0.142211 -2.32165 0
M  V30 19121 C 1719.49 0.687376 -1.54827 0
M  V30 19122 O 1720.7 0.584677 -1.7024 0
M  V30 19123 H 1717.08 -0.0271998 -0.751508 0
M  V30 19124 H 1719.05 -0.956148 -2.82667 0
M  V30 19125 C 1717.8 0.72421 -3.40074 0
M  V30 19126 H 1717.12 0.0952318 -3.99687 0
M  V30 19127 H 1718.56 1.13021 -4.08659 0
M  V30 19128 C 1717.02 1.87388 -2.79977 0
M  V30 19129 O 1717.55 2.96921 -2.70557 0
M  V30 19130 N 1715.75 1.67384 -2.37552 0
M  V30 19131 H 1715.3 0.782941 -2.45414 0
M  V30 19132 H 1715.26 2.44474 -1.97686 0
M  V30 19133 N 1719.03 1.48775 -0.519977 0
M  V30 19134 C 1719.96 2.27418 0.285222 0
M  V30 19135 C 1720.98 1.34753 0.91354 0
M  V30 19136 O 1722.16 1.59885 0.793672 0
M  V30 19137 C 1719.26 3.07799 1.41821 0
M  V30 19138 C 1718.44 4.28173 0.893682 0
M  V30 19139 C 1717.5 4.90445 1.90658 0
M  V30 19140 O 1716.52 5.49957 1.46751 0
M  V30 19141 N 1717.72 4.8179 3.23819 0
M  V30 19142 H 1720.49 2.97162 -0.38921 0
M  V30 19143 H 1718.05 1.5799 -0.353684 0
M  V30 19144 H 1720.04 3.46329 2.09377 0
M  V30 19145 H 1718.61 2.4054 1.99648 0
M  V30 19146 H 1717.83 3.94177 0.0424379 0
M  V30 19147 H 1719.12 5.06116 0.521952 0
M  V30 19148 H 1718.52 4.34573 3.62164 0
M  V30 19149 H 1717.08 5.2445 3.87035 0
M  V30 19150 N 1720.51 0.254649 1.55529 0
M  V30 19151 C 1721.44 -0.635656 2.24681 0
M  V30 19152 C 1722.42 -1.17519 1.22977 0
M  V30 19153 O 1723.6 -1.21311 1.51649 0
M  V30 19154 C 1720.73 -1.82922 2.95224 0
M  V30 19155 C 1719.69 -1.42212 4.03683 0
M  V30 19156 C 1719.01 -2.69713 4.61691 0
M  V30 19157 C 1720.31 -0.587436 5.18986 0
M  V30 19158 H 1722.01 -0.0590063 2.99342 0
M  V30 19159 H 1719.55 -0.02694 1.43975 0
M  V30 19160 H 1721.51 -2.45777 3.42304 0
M  V30 19161 H 1720.23 -2.43137 2.18064 0
M  V30 19162 H 1718.89 -0.81687 3.57383 0
M  V30 19163 H 1718.54 -3.28143 3.81223 0
M  V30 19164 H 1718.24 -2.43194 5.34911 0
M  V30 19165 H 1719.76 -3.33453 5.11509 0
M  V30 19166 H 1721.18 -1.12048 5.62244 0
M  V30 19167 H 1719.57 -0.417988 5.98643 0
M  V30 19168 H 1720.64 0.398577 4.83259 0
M  V30 19169 N 1721.99 -1.57589 -0.0183649 0
M  V30 19170 C 1722.93 -2.07252 -1.01563 0
M  V30 19171 C 1723.9 -0.963941 -1.35268 0
M  V30 19172 O 1725.09 -1.2352 -1.45421 0
M  V30 19173 C 1722.23 -2.56548 -2.30818 0
M  V30 19174 C 1721.34 -3.81238 -2.03178 0
M  V30 19175 C 1720.48 -4.19105 -3.26381 0
M  V30 19176 C 1719.52 -5.36682 -2.94344 0
M  V30 19177 N 1718.65 -5.6993 -4.1003 0
M  V30 19178 H 1723.49 -2.92198 -0.585179 0
M  V30 19179 H 1721.03 -1.44462 -0.27731 0
M  V30 19180 H 1722.99 -2.832 -3.06355 0
M  V30 19181 H 1721.62 -1.74504 -2.71566 0
M  V30 19182 H 1720.67 -3.61606 -1.1809 0
M  V30 19183 H 1721.98 -4.66886 -1.75552 0
M  V30 19184 H 1721.14 -4.46942 -4.10278 0
M  V30 19185 H 1719.87 -3.32129 -3.57129 0
M  V30 19186 H 1718.88 -5.08587 -2.08851 0
M  V30 19187 H 1720.1 -6.2532 -2.64862 0
M  V30 19188 H 1718.05 -4.85913 -4.40709 0
M  V30 19189 H 1717.97 -6.50111 -3.85865 0
M  V30 19190 H 1719.24 -6.02349 -4.94768 0
M  V30 19191 N 1723.46 0.290824 -1.54893 0
M  V30 19192 C 1724.41 1.35899 -1.86548 0
M  V30 19193 C 1725.38 1.49909 -0.71529 0
M  V30 19194 O 1726.57 1.64604 -0.964886 0
M  V30 19195 C 1723.71 2.71735 -2.1273 0
M  V30 19196 C 1722.82 2.66092 -3.40322 0
M  V30 19197 C 1721.95 3.93989 -3.56295 0
M  V30 19198 C 1720.99 3.82785 -4.77642 0
M  V30 19199 N 1720.13 5.02479 -4.90367 0
M  V30 19200 H 1724.97 1.08205 -2.77661 0
M  V30 19201 H 1722.51 0.523144 -1.37483 0
M  V30 19202 H 1724.47 3.50745 -2.25907 0
M  V30 19203 H 1723.1 2.97669 -1.24871 0
M  V30 19204 H 1722.15 1.78891 -3.35712 0
M  V30 19205 H 1723.46 2.53706 -4.29458 0
M  V30 19206 H 1722.61 4.81438 -3.69192 0
M  V30 19207 H 1721.35 4.09221 -2.6531 0
M  V30 19208 H 1720.36 2.9372 -4.64767 0
M  V30 19209 H 1721.58 3.69088 -5.70044 0
M  V30 19210 H 1719.53 5.18155 -4.02308 0
M  V30 19211 H 1719.45 4.92555 -5.7352 0
M  V30 19212 H 1720.71 5.9155 -5.07631 0
M  V30 19213 N 1724.94 1.47523 0.554506 0
M  V30 19214 C 1725.87 1.56275 1.67663 0
M  V30 19215 C 1726.89 0.448743 1.56493 0
M  V30 19216 O 1728.08 0.718478 1.63402 0
M  V30 19217 C 1725.18 1.45348 3.06149 0
M  V30 19218 C 1724.35 2.71364 3.43046 0
M  V30 19219 C 1723.41 2.54237 4.60706 0
M  V30 19220 O 1722.43 3.28059 4.65152 0
M  V30 19221 N 1723.64 1.6224 5.57367 0
M  V30 19222 H 1726.4 2.53036 1.60601 0
M  V30 19223 H 1723.96 1.43936 0.741209 0
M  V30 19224 H 1725.95 1.31621 3.82698 0
M  V30 19225 H 1724.52 0.566583 3.07423 0
M  V30 19226 H 1723.74 2.99833 2.55917 0
M  V30 19227 H 1725.03 3.55017 3.64473 0
M  V30 19228 H 1724.43 1.01419 5.56534 0
M  V30 19229 H 1722.99 1.54463 6.33233 0
M  V30 19230 N 1726.42 -0.801453 1.357 0
M  V30 19231 C 1727.37 -1.91355 1.29043 0
M  V30 19232 C 1728.34 -1.65314 0.161381 0
M  V30 19233 O 1729.52 -1.87638 0.345928 0
M  V30 19234 C 1726.66 -3.27979 1.07348 0
M  V30 19235 C 1725.78 -3.66172 2.29221 0
M  V30 19236 C 1724.91 -4.91853 2.00635 0
M  V30 19237 C 1723.95 -5.22688 3.18533 0
M  V30 19238 N 1723.09 -6.3955 2.8969 0
M  V30 19239 H 1727.93 -1.96381 2.24139 0
M  V30 19240 H 1725.46 -0.960502 1.11413 0
M  V30 19241 H 1727.42 -4.06748 0.928002 0
M  V30 19242 H 1726.05 -3.22408 0.159115 0
M  V30 19243 H 1725.1 -2.82623 2.54615 0
M  V30 19244 H 1726.42 -3.84916 3.1724 0
M  V30 19245 H 1725.57 -5.78459 1.82947 0
M  V30 19246 H 1724.31 -4.75154 1.09908 0
M  V30 19247 H 1723.31 -4.34569 3.36793 0
M  V30 19248 H 1724.54 -5.41313 4.10069 0
M  V30 19249 H 1722.48 -6.24266 2.01562 0
M  V30 19250 H 1722.4 -6.58569 3.71245 0
M  V30 19251 H 1723.67 -7.29171 2.75555 0
M  V30 19252 N 1727.9 -1.19782 -1.02421 0
M  V30 19253 C 1729.18 -0.912541 -1.73009 0
M  V30 19254 C 1729.56 0.58061 -2.02958 0
M  V30 19255 O 1728.9 1.54013 -1.68797 0
M  V30 19256 C 1729.11 -1.77745 -3.00346 0
M  V30 19257 C 1730.46 -2.01462 -3.73762 0
M  V30 19258 O 1731.49 -1.74935 -3.10284 0
M  V30 19259 O 1730.34 -2.46219 -4.87892 0
M  V30 19260 H 1727.44 -0.340513 -0.753644 0
M  V30 19261 H 1729.98 -1.30618 -1.08338 0
M  V30 19262 H 1728.76 -2.78887 -2.74477 0
M  V30 19263 H 1728.38 -1.38339 -3.72757 0
M  V30 19264 N 1729.38 1.21606 -1.00248 0
M  V30 19265 C 1730.61 1.94326 -0.701484 0
M  V30 19266 C 1731.02 1.74148 0.739524 0
M  V30 19267 O 1730.36 1.04364 1.51175 0
M  V30 19268 C 1730.42 3.47005 -0.939568 0
M  V30 19269 C 1730.08 3.90929 -2.36692 0
M  V30 19270 C 1731.08 3.97834 -3.347 0
M  V30 19271 C 1728.77 4.23313 -2.70391 0
M  V30 19272 C 1730.76 4.36511 -4.64475 0
M  V30 19273 C 1728.45 4.61668 -4.00382 0
M  V30 19274 C 1729.45 4.68237 -4.97236 0
M  V30 19275 O 1729.13 5.05719 -6.24903 0
M  V30 19276 H 1728.87 0.624872 -0.257898 0
M  V30 19277 H 1731.42 1.55442 -1.34264 0
M  V30 19278 H 1729.65 3.85947 -0.24124 0
M  V30 19279 H 1731.34 4.00944 -0.632342 0
M  V30 19280 H 1732.1 3.72995 -3.1 0
M  V30 19281 H 1727.98 4.17399 -1.95701 0
M  V30 19282 H 1731.53 4.41553 -5.40071 0
M  V30 19283 H 1727.42 4.8596 -4.24868 0
M  V30 19284 H 1728.19 5.2376 -6.28981 0
M  V30 19285 N 1730.86 0.776895 1.37121 0
M  V30 19286 C 1732.08 0.355097 2.0383 0
M  V30 19287 C 1732.5 -1.02441 1.58591 0
M  V30 19288 O 1731.86 -1.65482 0.769533 0
M  V30 19289 C 1731.91 0.394984 3.59336 0
M  V30 19290 O 1731.63 1.72008 4.0292 0
M  V30 19291 C 1733.13 -0.0377636 4.43284 0
M  V30 19292 H 1730.35 0.148056 0.654462 0
M  V30 19293 H 1732.89 1.05225 1.75351 0
M  V30 19294 H 1731.05 -0.253638 3.86569 0
M  V30 19295 H 1731.46 1.66225 4.97463 0
M  V30 19296 H 1732.94 0.0412956 5.51985 0
M  V30 19297 H 1733.41 -1.08881 4.2549 0
M  V30 19298 H 1734.02 0.582867 4.21287 0
M  V30 19299 N 1732.33 -1.48497 0.527859 0
M  V30 19300 C 1733.28 -2.31258 -0.249477 0
M  V30 19301 C 1734.28 -1.41094 -0.93749 0
M  V30 19302 O 1735.48 -1.58011 -0.862117 0
M  V30 19303 H 1731.86 -0.745412 -0.0993208 0
M  V30 19304 H 1733.83 -2.94705 0.46815 0
M  V30 19305 C 1732.58 -3.23095 -1.28472 0
M  V30 19306 H 1731.9 -3.92418 -0.764724 0
M  V30 19307 H 1733.34 -3.83892 -1.80008 0
M  V30 19308 C 1731.8 -2.44554 -2.31722 0
M  V30 19309 O 1732.33 -2.16883 -3.38119 0
M  V30 19310 N 1730.53 -2.06088 -2.04881 0
M  V30 19311 H 1730.08 -2.28791 -1.18374 0
M  V30 19312 H 1730.04 -1.53849 -2.74186 0
M  V30 19313 N 1733.81 -0.262893 -1.55392 0
M  V30 19314 C 1734.76 0.645946 -2.23451 0
M  V30 19315 C 1735.75 1.16753 -1.2274 0
M  V30 19316 O 1736.96 1.12257 -1.40706 0
M  V30 19317 H 1733.33 0.226829 -0.716975 0
M  V30 19318 H 1735.31 0.0489539 -2.9836 0
M  V30 19319 C 1734.05 1.82451 -2.95985 0
M  V30 19320 H 1733.38 1.43233 -3.73262 0
M  V30 19321 H 1734.82 2.43731 -3.46945 0
M  V30 19322 C 1733.28 2.7055 -2.0076 0
M  V30 19323 O 1733.81 3.70552 -1.55093 0
M  V30 19324 N 1732.01 2.37457 -1.67519 0
M  V30 19325 H 1731.56 1.56184 -2.04852 0
M  V30 19326 H 1731.52 2.96675 -1.04074 0
M  V30 19327 N 1735.29 1.57597 0.0100073 0
M  V30 19328 C 1736.52 1.9412 0.707165 0
M  V30 19329 C 1736.93 0.862669 1.68388 0
M  V30 19330 O 1736.27 -0.167949 1.82931 0
M  V30 19331 C 1736.33 3.26571 1.50306 0
M  V30 19332 C 1736 4.51776 0.689031 0
M  V30 19333 C 1736.99 5.19897 -0.018977 0
M  V30 19334 C 1734.68 4.98232 0.637951 0
M  V30 19335 C 1736.67 6.32766 -0.76716 0
M  V30 19336 C 1734.36 6.10994 -0.113964 0
M  V30 19337 C 1735.36 6.78117 -0.815262 0
M  V30 19338 O 1735.05 7.88719 -1.55493 0
M  V30 19339 H 1734.78 0.644932 0.202579 0
M  V30 19340 H 1737.33 2.05372 -0.0341978 0
M  V30 19341 H 1735.56 3.11699 2.28868 0
M  V30 19342 H 1737.25 3.4828 2.08461 0
M  V30 19343 H 1738.02 4.84999 0.0113968 0
M  V30 19344 H 1733.9 4.45818 1.17333 0
M  V30 19345 H 1737.44 6.85092 -1.31508 0
M  V30 19346 H 1733.34 6.45334 -0.146194 0
M  V30 19347 H 1734.1 8.05181 -1.47059 0
M  V30 19348 N 1736.77 -0.282606 1.55045 0
M  V30 19349 C 1738.01 -1.01547 1.75198 0
M  V30 19350 C 1738.34 -1.86627 0.54779 0
M  V30 19351 O 1737.6 -1.89974 -0.46993 0
M  V30 19352 C 1737.9 -1.93554 3.00452 0
M  V30 19353 C 1737.56 -1.24303 4.33428 0
M  V30 19354 C 1736.22 -1.0515 4.69571 0
M  V30 19355 C 1738.58 -0.749451 5.15784 0
M  V30 19356 C 1735.9 -0.353528 5.85634 0
M  V30 19357 C 1738.26 -0.0651157 6.32566 0
M  V30 19358 C 1736.92 0.138206 6.67357 0
M  V30 19359 H 1736.19 -0.371587 0.641096 0
M  V30 19360 H 1738.84 -0.288623 1.89312 0
M  V30 19361 H 1737.14 -2.72828 2.81197 0
M  V30 19362 H 1738.84 -2.50363 3.1324 0
M  V30 19363 H 1735.43 -1.4022 4.05014 0
M  V30 19364 H 1739.61 -0.885074 4.88344 0
M  V30 19365 H 1734.87 -0.185186 6.11119 0
M  V30 19366 H 1739.04 0.325146 6.95641 0
M  V30 19367 H 1736.67 0.681034 7.57143 0
M  V30 19368 N 1738.25 -1.47815 -0.546675 0
M  V30 19369 C 1739.2 -1.57497 -1.6486 0
M  V30 19370 C 1740.18 -0.433138 -1.5496 0
M  V30 19371 O 1741.37 -0.683657 -1.63264 0
M  V30 19372 C 1738.5 -1.60219 -3.03619 0
M  V30 19373 C 1737.59 -2.79823 -3.18684 0
M  V30 19374 N 1737.98 -4.04416 -3.03778 0
M  V30 19375 C 1736.28 -2.76806 -3.49707 0
M  V30 19376 C 1736.98 -4.84573 -3.21814 0
M  V30 19377 N 1735.95 -4.17083 -3.4863 0
M  V30 19378 H 1739.75 -2.5159 -1.5192 0
M  V30 19379 H 1737.27 -1.43955 -0.751711 0
M  V30 19380 H 1739.27 -1.65246 -3.82752 0
M  V30 19381 H 1737.93 -0.672293 -3.17664 0
M  V30 19382 H 1738.94 -4.35114 -2.80885 0
M  V30 19383 H 1735.61 -1.93 -3.70213 0
M  V30 19384 H 1737 -5.93396 -3.15168 0
M  V30 19385 N 1739.72 0.794246 -1.36123 0
M  V30 19386 C 1740.95 1.58297 -1.33228 0
M  V30 19387 C 1741.37 1.88597 0.0875426 0
M  V30 19388 O 1740.72 1.49754 1.04307 0
M  V30 19389 C 1740.77 2.90687 -2.14904 0
M  V30 19390 O 1740.5 2.61695 -3.51351 0
M  V30 19391 C 1742 3.85009 -2.19734 0
M  V30 19392 H 1739.22 0.491139 -0.457191 0
M  V30 19393 H 1741.76 0.986129 -1.79153 0
M  V30 19394 H 1739.92 3.46852 -1.72546 0
M  V30 19395 H 1740.33 3.46313 -3.93913 0
M  V30 19396 H 1741.8 4.74976 -2.8125 0
M  V30 19397 H 1742.28 4.22504 -1.19946 0
M  V30 19398 H 1742.89 3.34777 -2.62307 0
M  V30 19399 N 1741.2 1.20323 1.01785 0
M  V30 19400 C 1742.43 1.03893 1.79502 0
M  V30 19401 C 1742.85 -0.407421 1.83635 0
M  V30 19402 O 1742.21 -1.29338 1.27049 0
M  V30 19403 C 1742.26 1.62562 3.21879 0
M  V30 19404 O 1741.36 0.862398 4.03282 0
M  V30 19405 H 1740.7 0.366479 0.553705 0
M  V30 19406 H 1743.23 1.59589 1.28034 0
M  V30 19407 H 1743.24 1.66244 3.72595 0
M  V30 19408 H 1741.92 2.67826 3.18186 0
M  V30 19409 H 1740.49 0.899687 3.61884 0
M  V30 19410 N 1742.68 -1.21073 1.00892 0
M  V30 19411 C 1743.63 -2.25613 0.565829 0
M  V30 19412 C 1744.62 -1.64812 -0.391588 0
M  V30 19413 O 1745.83 -1.78078 -0.262352 0
M  V30 19414 H 1742.2 -0.733755 0.164643 0
M  V30 19415 H 1744.17 -2.60321 1.45862 0
M  V30 19416 C 1742.92 -3.47589 -0.087861 0
M  V30 19417 H 1742.25 -3.94647 0.639828 0
M  V30 19418 H 1743.69 -4.22459 -0.361115 0
M  V30 19419 C 1742.14 -3.09609 -1.32829 0
M  V30 19420 O 1742.67 -3.20449 -2.4223 0
M  V30 19421 N 1740.88 -2.64234 -1.2095 0
M  V30 19422 H 1740.43 -2.55613 -0.319301 0
M  V30 19423 H 1740.39 -2.39191 -2.04046 0
M  V30 19424 N 1744.16 -0.784156 -1.36707 0
M  V30 19425 C 1745.09 -0.124956 -2.27858 0
M  V30 19426 C 1746.07 0.695835 -1.46959 0
M  V30 19427 O 1747.25 0.667944 -1.76269 0
M  V30 19428 C 1744.38 0.828816 -3.28403 0
M  V30 19429 C 1743.43 0.0904776 -4.26404 0
M  V30 19430 S 1744.26 -1.23012 -5.2118 0
M  V30 19431 C 1745.42 -0.280212 -6.25272 0
M  V30 19432 H 1745.65 -0.89783 -2.83419 0
M  V30 19433 H 1743.18 -0.578123 -1.43168 0
M  V30 19434 H 1745.14 1.37367 -3.86834 0
M  V30 19435 H 1743.8 1.5749 -2.71764 0
M  V30 19436 H 1742.99 0.813986 -4.97383 0
M  V30 19437 H 1742.6 -0.383737 -3.72026 0
M  V30 19438 H 1744.89 0.542878 -6.75321 0
M  V30 19439 H 1745.83 -0.958538 -7.01582 0
M  V30 19440 H 1746.24 0.114109 -5.64385 0
M  V30 19441 N 1745.64 1.48215 -0.535727 0
M  V30 19442 C 1746.57 2.27708 0.261085 0
M  V30 19443 C 1747.58 1.35714 0.899197 0
M  V30 19444 O 1748.77 1.60717 0.776669 0
M  V30 19445 C 1745.87 3.09285 1.38549 0
M  V30 19446 C 1745.04 4.29097 0.848218 0
M  V30 19447 C 1744.1 4.92439 1.85445 0
M  V30 19448 O 1743.13 5.51483 1.4091 0
M  V30 19449 N 1744.33 4.85197 3.18691 0
M  V30 19450 H 1747.1 2.96732 -0.420706 0
M  V30 19451 H 1744.66 1.57606 -0.370421 0
M  V30 19452 H 1746.65 3.4853 2.05691 0
M  V30 19453 H 1745.22 2.42644 1.97085 0
M  V30 19454 H 1744.44 3.942 0.000627744 0
M  V30 19455 H 1745.73 5.06641 0.468243 0
M  V30 19456 H 1745.12 4.3839 3.57535 0
M  V30 19457 H 1743.68 5.28525 3.81451 0
M  V30 19458 N 1747.11 0.27113 1.5525 0
M  V30 19459 C 1748.36 -0.346106 1.99114 0
M  V30 19460 C 1748.68 -1.56677 1.16092 0
M  V30 19461 O 1747.95 -1.94305 0.249472 0
M  V30 19462 H 1746.53 -0.13087 0.735447 0
M  V30 19463 H 1749.2 0.375542 1.91248 0
M  V30 19464 H 1748.29 -0.638703 3.05495 0
M  V30 19465 N 1748.59 -1.576 -0.00164943 0
M  V30 19466 C 1749.54 -2.09439 -1.01183 0
M  V30 19467 C 1750.53 -1.01402 -1.35698 0
M  V30 19468 O 1751.74 -1.19869 -1.34281 0
M  V30 19469 H 1748.12 -0.668732 -0.34395 0
M  V30 19470 H 1750.09 -2.93306 -0.549033 0
M  V30 19471 C 1748.84 -2.61163 -2.29542 0
M  V30 19472 H 1748.16 -3.43926 -2.0385 0
M  V30 19473 H 1749.6 -3.01115 -2.98506 0
M  V30 19474 C 1748.06 -1.52502 -3.00408 0
M  V30 19475 O 1748.59 -0.906982 -3.91327 0
M  V30 19476 N 1746.79 -1.25288 -2.62205 0
M  V30 19477 H 1746.34 -1.75731 -1.88351 0
M  V30 19478 H 1746.3 -0.528035 -3.09934 0
M  V30 19479 N 1750.07 0.274379 -1.55193 0
M  V30 19480 C 1751.32 1.00617 -1.75734 0
M  V30 19481 C 1751.65 1.86334 -0.557679 0
M  V30 19482 O 1750.9 1.90221 0.459848 0
M  V30 19483 C 1751.2 1.91958 -3.01475 0
M  V30 19484 C 1750.87 1.22002 -4.34081 0
M  V30 19485 C 1749.53 1.02658 -4.70122 0
M  V30 19486 C 1751.88 0.722087 -5.16174 0
M  V30 19487 C 1749.21 0.322465 -5.85813 0
M  V30 19488 C 1751.56 0.0315683 -6.32592 0
M  V30 19489 C 1750.22 -0.173595 -6.67274 0
M  V30 19490 H 1749.49 0.368182 -0.643058 0
M  V30 19491 H 1752.14 0.278579 -1.89463 0
M  V30 19492 H 1750.45 2.71333 -2.8264 0
M  V30 19493 H 1752.14 2.48698 -3.14564 0
M  V30 19494 H 1748.73 1.3807 -4.05752 0
M  V30 19495 H 1752.92 0.859163 -4.88807 0
M  V30 19496 H 1748.17 0.152775 -6.11209 0
M  V30 19497 H 1752.35 -0.362033 -6.95458 0
M  V30 19498 H 1749.97 -0.721178 -7.56771 0
M  V30 19499 N 1751.55 1.48103 0.538828 0
M  V30 19500 C 1752.5 1.62398 1.66522 0
M  V30 19501 C 1753.49 0.490669 1.62138 0
M  V30 19502 O 1754.7 0.669098 1.67102 0
M  V30 19503 H 1751.07 0.511415 0.551324 0
M  V30 19504 H 1753.04 2.57018 1.51606 0
M  V30 19505 C 1751.79 1.67264 3.04824 0
M  V30 19506 H 1751.11 2.53828 3.08887 0
M  V30 19507 H 1752.55 1.81312 3.83278 0
M  V30 19508 C 1751.01 0.409539 3.34402 0
M  V30 19509 O 1751.54 -0.481433 3.98805 0
M  V30 19510 N 1749.75 0.283934 2.8921 0
M  V30 19511 H 1749.3 1.00993 2.36977 0
M  V30 19512 H 1749.25 -0.560201 3.09369 0
M  V30 19513 N 1753.03 -0.787016 1.36542 0
M  V30 19514 C 1753.96 -1.90844 1.26931 0
M  V30 19515 C 1754.97 -1.61707 0.188293 0
M  V30 19516 O 1756.16 -1.7291 0.443205 0
M  V30 19517 C 1753.26 -3.25709 0.936305 0
M  V30 19518 C 1752.43 -3.82607 2.11969 0
M  V30 19519 C 1751.49 -4.95916 1.75937 0
M  V30 19520 O 1750.52 -5.12307 2.48053 0
M  V30 19521 N 1751.72 -5.76331 0.694461 0
M  V30 19522 H 1754.49 -1.9961 2.23553 0
M  V30 19523 H 1752.05 -0.965401 1.29968 0
M  V30 19524 H 1754.04 -3.99008 0.676378 0
M  V30 19525 H 1752.61 -3.12544 0.0591364 0
M  V30 19526 H 1751.83 -3.01267 2.54227 0
M  V30 19527 H 1753.12 -4.17352 2.91024 0
M  V30 19528 H 1752.51 -5.65619 0.0957046 0
M  V30 19529 H 1751.07 -6.49923 0.494363 0
M  V30 19530 N 1754.5 -1.20861 -1.01145 0
M  V30 19531 C 1755.44 -0.919862 -2.09931 0
M  V30 19532 C 1756.45 0.0944116 -1.62526 0
M  V30 19533 O 1757.64 -0.137265 -1.77971 0
M  V30 19534 C 1754.74 -0.358478 -3.36999 0
M  V30 19535 C 1753.91 -1.42553 -4.13518 0
M  V30 19536 C 1752.97 -0.874546 -5.18882 0
M  V30 19537 O 1752 -1.55646 -5.47506 0
M  V30 19538 N 1753.2 0.313462 -5.79653 0
M  V30 19539 H 1755.96 -1.85633 -2.35288 0
M  V30 19540 H 1753.52 -1.11299 -1.17577 0
M  V30 19541 H 1755.52 0.0243829 -4.04693 0
M  V30 19542 H 1754.09 0.482669 -3.08851 0
M  V30 19543 H 1753.31 -1.98251 -3.4072 0
M  V30 19544 H 1754.59 -2.14402 -4.61421 0
M  V30 19545 H 1753.99 0.884644 -5.5874 0
M  V30 19546 H 1752.55 0.637904 -6.48671 0
M  V30 19547 N 1755.98 1.20536 -1.01532 0
M  V30 19548 C 1756.93 2.23277 -0.584486 0
M  V30 19549 C 1757.9 1.6134 0.394773 0
M  V30 19550 O 1759.08 1.88514 0.294498 0
M  V30 19551 C 1756.22 3.45024 0.0723574 0
M  V30 19552 C 1755.34 4.21395 -0.951314 0
M  V30 19553 C 1754.47 5.30535 -0.265656 0
M  V30 19554 C 1753.51 5.98649 -1.27617 0
M  V30 19555 N 1752.65 6.99381 -0.61727 0
M  V30 19556 H 1757.49 2.59489 -1.46524 0
M  V30 19557 H 1755.03 1.27507 -0.733502 0
M  V30 19558 H 1756.98 4.14541 0.470303 0
M  V30 19559 H 1755.61 3.09508 0.916768 0
M  V30 19560 H 1754.67 3.50957 -1.46743 0
M  V30 19561 H 1755.98 4.68211 -1.71989 0
M  V30 19562 H 1755.13 6.06409 0.187857 0
M  V30 19563 H 1753.87 4.84754 0.535237 0
M  V30 19564 H 1752.88 5.21537 -1.74008 0
M  V30 19565 H 1754.1 6.46516 -2.07832 0
M  V30 19566 H 1752.05 6.55796 0.163777 0
M  V30 19567 H 1751.96 7.44317 -1.32393 0
M  V30 19568 H 1753.23 7.79275 -0.187306 0
M  V30 19569 N 1757.46 0.791395 1.36289 0
M  V30 19570 C 1758.39 0.137038 2.27788 0
M  V30 19571 C 1759.37 -0.688032 1.47326 0
M  V30 19572 O 1760.56 -0.658587 1.76621 0
M  V30 19573 C 1757.68 -0.811389 3.28838 0
M  V30 19574 C 1756.73 -0.0678631 4.26446 0
M  V30 19575 S 1757.56 1.25774 5.2052 0
M  V30 19576 C 1758.72 0.313368 6.25115 0
M  V30 19577 H 1758.95 0.912848 2.82939 0
M  V30 19578 H 1756.48 0.585708 1.42859 0
M  V30 19579 H 1758.44 -1.35313 3.87557 0
M  V30 19580 H 1757.1 -1.56046 2.72596 0
M  V30 19581 H 1756.3 -0.787597 4.97808 0
M  V30 19582 H 1755.9 0.403461 3.71817 0
M  V30 19583 H 1758.19 -0.507056 6.756 0
M  V30 19584 H 1759.13 0.995731 7.01064 0
M  V30 19585 H 1759.54 -0.0841768 5.64437 0
M  V30 19586 N 1758.94 -1.47929 0.54358 0
M  V30 19587 C 1760.19 -2.02095 0.0144379 0
M  V30 19588 C 1760.51 -1.42166 -1.33469 0
M  V30 19589 O 1759.78 -0.591899 -1.86744 0
M  V30 19590 H 1758.36 -0.746996 0.00234858 0
M  V30 19591 H 1761.02 -1.81488 0.710498 0
M  V30 19592 H 1760.12 -3.11987 -0.0838074 0
M  V30 19593 N 1760.42 -0.27936 -1.55104 0
M  V30 19594 C 1761.37 0.62221 -2.24123 0
M  V30 19595 C 1762.36 1.15445 -1.23971 0
M  V30 19596 O 1763.57 1.10759 -1.41889 0
M  V30 19597 H 1759.94 0.219212 -0.71934 0
M  V30 19598 H 1761.91 0.0173061 -2.98395 0
M  V30 19599 C 1760.66 1.79301 -2.97903 0
M  V30 19600 H 1759.98 1.39266 -3.7476 0
M  V30 19601 H 1761.42 2.40038 -3.49511 0
M  V30 19602 C 1759.88 2.68405 -2.03618 0
M  V30 19603 O 1760.41 3.68887 -1.59014 0
M  V30 19604 N 1758.62 2.35666 -1.70028 0
M  V30 19605 H 1758.17 1.54003 -2.06497 0
M  V30 19606 H 1758.12 2.95554 -1.07215 0
M  V30 19607 N 1761.9 1.57599 -0.0067085 0
M  V30 19608 C 1763.13 1.9486 0.686536 0
M  V30 19609 C 1763.53 0.880481 1.67464 0
M  V30 19610 O 1762.88 -0.148537 1.83098 0
M  V30 19611 C 1762.94 3.28146 1.46834 0
M  V30 19612 C 1762.6 4.52481 0.641076 0
M  V30 19613 C 1763.6 5.19847 -0.0741179 0
M  V30 19614 C 1761.28 4.98881 0.585071 0
M  V30 19615 C 1763.28 6.31917 -0.83423 0
M  V30 19616 C 1760.97 6.10838 -0.178762 0
M  V30 19617 C 1761.96 6.77214 -0.887139 0
M  V30 19618 O 1761.65 7.87025 -1.6385 0
M  V30 19619 H 1761.38 0.647045 0.195727 0
M  V30 19620 H 1763.94 2.05324 -0.0559783 0
M  V30 19621 H 1762.17 3.14109 2.25549 0
M  V30 19622 H 1763.86 3.50471 2.04756 0
M  V30 19623 H 1764.62 4.84983 -0.0400444 0
M  V30 19624 H 1760.5 4.47038 1.12598 0
M  V30 19625 H 1764.05 6.83659 -1.38767 0
M  V30 19626 H 1759.94 6.45143 -0.214632 0
M  V30 19627 H 1760.71 8.03576 -1.55591 0
M  V30 19628 N 1763.37 -0.266145 1.55336 0
M  V30 19629 C 1764.31 -1.35159 1.85107 0
M  V30 19630 C 1765.32 -1.45213 0.736006 0
M  V30 19631 O 1766.51 -1.46907 1.01393 0
M  V30 19632 C 1763.61 -2.73218 2.00512 0
M  V30 19633 C 1762.78 -2.85671 3.31226 0
M  V30 19634 C 1761.84 -4.0445 3.36611 0
M  V30 19635 O 1760.87 -3.94884 4.09945 0
M  V30 19636 N 1762.07 -5.16735 2.64508 0
M  V30 19637 H 1764.83 -1.09963 2.78798 0
M  V30 19638 H 1762.39 -0.456261 1.55338 0
M  V30 19639 H 1764.39 -3.50983 2.01477 0
M  V30 19640 H 1762.96 -2.91206 1.13655 0
M  V30 19641 H 1762.18 -1.94736 3.42741 0
M  V30 19642 H 1763.46 -2.90927 4.17419 0
M  V30 19643 H 1762.86 -5.27395 2.04624 0
M  V30 19644 H 1761.42 -5.92706 2.71189 0
M  V30 19645 N 1764.85 -1.48386 -0.530967 0
M  V30 19646 C 1765.8 -1.63279 -1.65658 0
M  V30 19647 C 1766.79 -0.499261 -1.61876 0
M  V30 19648 O 1768 -0.677951 -1.66745 0
M  V30 19649 H 1764.37 -0.514332 -0.548605 0
M  V30 19650 H 1766.35 -2.57818 -1.50241 0
M  V30 19651 C 1765.09 -1.68878 -3.03933 0
M  V30 19652 H 1764.42 -2.55462 -3.07537 0
M  V30 19653 H 1765.86 -1.83343 -3.82311 0
M  V30 19654 C 1764.32 -0.427267 -3.3418 0
M  V30 19655 O 1764.85 0.460276 -3.99054 0
M  V30 19656 N 1763.05 -0.299268 -2.89055 0
M  V30 19657 H 1762.6 -1.02248 -2.36438 0
M  V30 19658 H 1762.56 0.543787 -3.09662 0
M  V30 19659 N 1766.33 0.779763 -1.36958 0
M  V30 19660 C 1767.26 1.90168 -1.27941 0
M  V30 19661 C 1768.27 1.61605 -0.196866 0
M  V30 19662 O 1769.46 1.72673 -0.452368 0
M  V30 19663 C 1766.56 3.25208 -0.953565 0
M  V30 19664 C 1765.74 3.81477 -2.13995 0
M  V30 19665 C 1764.8 4.94976 -1.78564 0
M  V30 19666 O 1763.82 5.10984 -2.50767 0
M  V30 19667 N 1765.02 5.75955 -0.725015 0
M  V30 19668 H 1767.79 1.98422 -2.24608 0
M  V30 19669 H 1765.35 0.958495 -1.30478 0
M  V30 19670 H 1767.34 3.98643 -0.697529 0
M  V30 19671 H 1765.91 3.12508 -0.0757105 0
M  V30 19672 H 1765.13 2.99915 -2.55822 0
M  V30 19673 H 1766.42 4.15803 -2.93233 0
M  V30 19674 H 1765.82 5.6556 -0.125699 0
M  V30 19675 H 1764.37 6.49651 -0.528823 0
M  V30 19676 N 1767.81 1.21396 1.00503 0
M  V30 19677 C 1768.72 0.989221 2.12724 0
M  V30 19678 C 1769.73 -0.0586646 1.73901 0
M  V30 19679 O 1770.91 0.131377 2.00971 0
M  V30 19680 C 1767.97 0.556731 3.42201 0
M  V30 19681 C 1767.04 1.67683 3.95197 0
M  V30 19682 C 1766.27 1.26488 5.18494 0
M  V30 19683 O 1766.49 0.13847 5.70232 0
M  V30 19684 O 1765.43 2.07678 5.64937 0
M  V30 19685 H 1769.25 1.92913 2.3456 0
M  V30 19686 H 1766.84 0.998837 1.11102 0
M  V30 19687 H 1768.72 0.325327 4.20142 0
M  V30 19688 H 1767.39 -0.354457 3.21753 0
M  V30 19689 H 1766.3 1.96263 3.18483 0
M  V30 19690 H 1767.63 2.56544 4.20055 0
M  V30 19691 N 1769.29 -1.19996 1.0217 0
M  V30 19692 C 1770.23 -2.25 0.589726 0
M  V30 19693 C 1771.23 -1.65218 -0.374086 0
M  V30 19694 O 1772.43 -1.78346 -0.243449 0
M  V30 19695 H 1768.81 -0.731968 0.172416 0
M  V30 19696 H 1770.78 -2.58759 1.48615 0
M  V30 19697 C 1769.53 -3.47663 -0.0509896 0
M  V30 19698 H 1768.85 -3.93946 0.681649 0
M  V30 19699 H 1770.29 -4.22819 -0.316287 0
M  V30 19700 C 1768.75 -3.11001 -1.29538 0
M  V30 19701 O 1769.28 -3.23 -2.38818 0
M  V30 19702 N 1767.49 -2.65502 -1.18141 0
M  V30 19703 H 1767.03 -2.55938 -0.292172 0
M  V30 19704 H 1766.99 -2.41342 -2.01498 0
M  V30 19705 N 1770.76 -0.798611 -1.35867 0
M  V30 19706 C 1771.67 -0.204758 -2.33705 0
M  V30 19707 C 1772.69 0.648001 -1.61484 0
M  V30 19708 O 1773.87 0.561628 -1.93411 0
M  V30 19709 C 1770.93 0.643225 -3.40681 0
M  V30 19710 C 1769.99 -0.229099 -4.28688 0
M  V30 19711 C 1769.22 0.578508 -5.30555 0
M  V30 19712 O 1769.45 1.81382 -5.40793 0
M  V30 19713 O 1768.38 -0.0264291 -6.01894 0
M  V30 19714 H 1772.21 -1.01392 -2.86275 0
M  V30 19715 H 1769.79 -0.560242 -1.38498 0
M  V30 19716 H 1771.67 1.12648 -4.06065 0
M  V30 19717 H 1770.35 1.43012 -2.90395 0
M  V30 19718 H 1769.26 -0.759314 -3.66313 0
M  V30 19719 H 1770.59 -0.979736 -4.82351 0
M  V30 19720 N 1772.24 1.47639 -0.551417 0
M  V30 19721 C 1773.15 2.33722 0.202799 0
M  V30 19722 C 1774.17 1.47832 0.917699 0
M  V30 19723 O 1775.34 1.80772 0.887885 0
M  V30 19724 C 1772.41 3.24408 1.22313 0
M  V30 19725 C 1771.47 4.26184 0.51628 0
M  V30 19726 C 1770.7 5.12537 1.488 0
M  V30 19727 O 1770.93 5.01241 2.72238 0
M  V30 19728 O 1769.86 5.93269 1.01566 0
M  V30 19729 H 1773.69 2.99503 -0.50317 0
M  V30 19730 H 1771.27 1.46104 -0.312093 0
M  V30 19731 H 1773.15 3.80441 1.81225 0
M  V30 19732 H 1771.83 2.61262 1.91112 0
M  V30 19733 H 1770.73 3.73927 -0.113886 0
M  V30 19734 H 1772.07 4.92028 -0.130158 0
M  V30 19735 N 1773.72 0.287581 1.54954 0
M  V30 19736 C 1774.67 -0.610315 2.2445 0
M  V30 19737 C 1775.66 -1.14786 1.24582 0
M  V30 19738 O 1776.87 -1.10005 1.42474 0
M  V30 19739 H 1773.24 -0.215394 0.720493 0
M  V30 19740 H 1775.21 -0.00148121 2.984 0
M  V30 19741 C 1773.96 -1.77719 2.9885 0
M  V30 19742 H 1773.29 -1.37277 3.75493 0
M  V30 19743 H 1774.73 -2.38181 3.50779 0
M  V30 19744 C 1773.19 -2.67321 2.05039 0
M  V30 19745 O 1773.72 -3.68038 1.60968 0
M  V30 19746 N 1771.92 -2.34761 1.71276 0
M  V30 19747 H 1771.47 -1.52905 2.07311 0
M  V30 19748 H 1771.43 -2.94981 1.08781 0
M  V30 19749 N 1775.2 -1.57593 0.0150662 0
M  V30 19750 C 1776.48 -1.82473 -0.704474 0
M  V30 19751 C 1776.86 -0.896018 -1.91141 0
M  V30 19752 O 1776.2 0.0517365 -2.28441 0
M  V30 19753 C 1776.41 -3.31345 -1.09598 0
M  V30 19754 C 1777.76 -3.97465 -1.49353 0
M  V30 19755 O 1778.79 -3.35757 -1.18936 0
M  V30 19756 O 1777.64 -5.06199 -2.05972 0
M  V30 19757 H 1774.74 -0.751908 -0.344331 0
M  V30 19758 H 1777.28 -1.69649 0.041674 0
M  V30 19759 H 1776.06 -3.90586 -0.236358 0
M  V30 19760 H 1775.68 -3.49224 -1.90075 0
M  V30 19761 N 1776.68 0.257904 -1.55475 0
M  V30 19762 C 1777.92 0.98747 -1.76792 0
M  V30 19763 C 1778.25 1.85732 -0.577411 0
M  V30 19764 O 1777.51 1.90698 0.439647 0
M  V30 19765 C 1777.81 1.8875 -3.03494 0
M  V30 19766 C 1777.47 1.17391 -4.35351 0
M  V30 19767 C 1776.13 0.976662 -4.71184 0
M  V30 19768 C 1778.49 0.667299 -5.16911 0
M  V30 19769 C 1775.81 0.260314 -5.86122 0
M  V30 19770 C 1778.17 -0.0355283 -6.3259 0
M  V30 19771 C 1776.83 -0.244359 -6.67053 0
M  V30 19772 H 1776.1 0.361341 -0.646926 0
M  V30 19773 H 1778.75 0.258469 -1.89748 0
M  V30 19774 H 1777.05 2.6832 -2.85502 0
M  V30 19775 H 1778.75 2.45348 -3.17184 0
M  V30 19776 H 1775.34 1.33758 -4.07194 0
M  V30 19777 H 1779.52 0.807271 -4.89691 0
M  V30 19778 H 1774.78 0.0879391 -6.11337 0
M  V30 19779 H 1778.95 -0.435775 -6.95035 0
M  V30 19780 H 1776.58 -0.801403 -7.55964 0
M  V30 19781 N 1778.15 1.48666 0.52309 0
M  V30 19782 C 1779.4 1.57034 1.27854 0
M  V30 19783 C 1779.73 0.247256 1.92922 0
M  V30 19784 O 1778.98 -0.763049 1.80211 0
M  V30 19785 C 1779.28 2.66247 2.38426 0
M  V30 19786 C 1778.95 4.08464 1.90965 0
M  V30 19787 C 1777.61 4.47171 1.77739 0
M  V30 19788 C 1779.96 4.97562 1.55184 0
M  V30 19789 C 1777.29 5.72772 1.27077 0
M  V30 19790 C 1779.64 6.23659 1.05982 0
M  V30 19791 C 1778.31 6.61216 0.913782 0
M  V30 19792 H 1777.58 0.574628 0.46785 0
M  V30 19793 H 1780.22 1.82411 0.582961 0
M  V30 19794 H 1778.53 2.34756 3.13682 0
M  V30 19795 H 1780.23 2.69936 2.9654 0
M  V30 19796 H 1776.82 3.779 2.02212 0
M  V30 19797 H 1781 4.6833 1.64259 0
M  V30 19798 H 1776.26 6.0059 1.14464 0
M  V30 19799 H 1780.43 6.92089 0.773684 0
M  V30 19800 H 1778.06 7.58426 0.519021 0
M  V30 19801 N 1779.63 -0.772489 1.37369 0
M  V30 19802 C 1780.91 -1.52029 1.23072 0
M  V30 19803 C 1781.29 -2.10365 -0.176011 0
M  V30 19804 O 1780.64 -1.95459 -1.18356 0
M  V30 19805 C 1780.85 -2.60176 2.32614 0
M  V30 19806 C 1782.2 -3.27599 2.70118 0
M  V30 19807 O 1783.22 -2.70471 2.31785 0
M  V30 19808 O 1782.08 -4.30883 3.36158 0
M  V30 19809 H 1779.17 -0.673306 0.480196 0
M  V30 19810 H 1781.72 -0.809518 1.49147 0
M  V30 19811 H 1780.49 -2.15185 3.2682 0
M  V30 19812 H 1780.11 -3.38855 2.07998 0
M  V30 19813 N 1781.11 -1.21927 -0.998575 0
M  V30 19814 C 1782.04 -0.942076 -2.08944 0
M  V30 19815 C 1783.06 0.0771683 -1.62617 0
M  V30 19816 O 1784.24 -0.156133 -1.77816 0
M  V30 19817 C 1781.34 -0.394201 -3.366 0
M  V30 19818 C 1780.52 -1.46931 -4.11983 0
M  V30 19819 C 1779.58 -0.929531 -5.17925 0
M  V30 19820 O 1778.6 -1.61444 -5.45824 0
M  V30 19821 N 1779.8 0.251965 -5.79953 0
M  V30 19822 H 1782.57 -1.88119 -2.33306 0
M  V30 19823 H 1780.13 -1.12539 -1.16389 0
M  V30 19824 H 1782.12 -0.0185416 -4.04696 0
M  V30 19825 H 1780.69 0.449884 -3.09346 0
M  V30 19826 H 1779.91 -2.01854 -3.38598 0
M  V30 19827 H 1781.2 -2.19284 -4.59121 0
M  V30 19828 H 1780.6 0.825333 -5.59647 0
M  V30 19829 H 1779.16 0.569068 -6.49311 0
M  V30 19830 N 1782.59 1.19452 -1.02805 0
M  V30 19831 C 1784 1.41147 -0.744969 0
M  V30 19832 C 1784.2 1.90008 0.670765 0
M  V30 19833 O 1783.26 2.0763 1.43688 0
M  V30 19834 C 1784.57 2.42328 -1.78039 0
M  V30 19835 C 1786.12 2.56076 -1.79984 0
M  V30 19836 C 1786.6 3.6051 -2.82483 0
M  V30 19837 N 1788.09 3.68005 -2.81294 0
M  V30 19838 C 1788.82 4.48502 -3.57258 0
M  V30 19839 N 1788.32 5.32711 -4.42934 0
M  V30 19840 N 1790.11 4.43144 -3.45803 0
M  V30 19841 H 1782.26 0.860569 -1.94185 0
M  V30 19842 H 1784.53 0.44042 -0.839484 0
M  V30 19843 H 1784.23 2.13448 -2.79523 0
M  V30 19844 H 1784.11 3.41491 -1.60199 0
M  V30 19845 H 1786.49 2.84279 -0.791782 0
M  V30 19846 H 1786.57 1.57069 -2.01898 0
M  V30 19847 H 1786.22 3.33049 -3.83459 0
M  V30 19848 H 1786.15 4.59166 -2.57827 0
M  V30 19849 H 1788.64 3.07863 -2.19154 0
M  V30 19850 H 1788.95 5.9125 -4.97637 0
M  V30 19851 H 1787.3 5.32175 -4.47007 0
M  V30 19852 H 1790.49 3.76399 -2.78283 0
M  V30 19853 H 1790.66 5.0564 -4.05256 0
M  V30 19854 N 1784.07 0.805805 1.35442 0
M  V30 19855 C 1785.48 0.446863 1.81273 0
M  V30 19856 C 1785.83 -1.03104 1.66925 0
M  V30 19857 O 1784.95 -1.80117 1.19945 0
M  V30 19858 C 1785.55 0.80433 3.29114 0
M  V30 19859 C 1784.11 0.497997 3.73091 0
M  V30 19860 C 1783.25 1.03035 2.57447 0
M  V30 19861 H 1786.21 0.997517 1.23431 0
M  V30 19862 H 1786.23 0.101559 3.80364 0
M  V30 19863 H 1785.74 1.88001 3.39525 0
M  V30 19864 H 1783.84 -0.568982 3.6823 0
M  V30 19865 H 1783.95 1.03008 4.67896 0
M  V30 19866 H 1782.32 0.452716 2.50644 0
M  V30 19867 H 1783.1 2.11213 2.70636 0
M  V30 19868 N 1785.54 -1.47344 0.559239 0
M  V30 19869 C 1786.45 -2.33826 -0.190402 0
M  V30 19870 C 1787.47 -1.48317 -0.909846 0
M  V30 19871 O 1788.65 -1.8124 -0.878286 0
M  V30 19872 C 1785.71 -3.25052 -1.20591 0
M  V30 19873 C 1784.77 -4.26452 -0.493671 0
M  V30 19874 C 1784.01 -5.13319 -1.4608 0
M  V30 19875 O 1784.23 -5.02678 -2.69576 0
M  V30 19876 O 1783.16 -5.93799 -0.984178 0
M  V30 19877 H 1786.99 -2.99232 0.519046 0
M  V30 19878 H 1784.57 -1.45936 0.319836 0
M  V30 19879 H 1786.46 -3.81397 -1.79205 0
M  V30 19880 H 1785.13 -2.62272 -1.89724 0
M  V30 19881 H 1784.04 -3.73861 0.133714 0
M  V30 19882 H 1785.37 -4.91952 0.15625 0
M  V30 19883 N 1787.02 -0.295795 -1.54799 0
M  V30 19884 C 1788.27 0.315754 -1.99213 0
M  V30 19885 C 1788.58 1.55405 -1.18779 0
M  V30 19886 O 1789.79 2.23986 -1.53436 0
M  V30 19887 C 1788.25 0.613119 -3.54639 0
M  V30 19888 C 1787.85 -0.606546 -4.43875 0
M  V30 19889 C 1789.6 1.18615 -4.07591 0
M  V30 19890 C 1787.51 -0.282622 -5.90724 0
M  V30 19891 H 1786.44 0.121758 -0.744104 0
M  V30 19892 H 1789.09 -0.403686 -1.79005 0
M  V30 19893 H 1787.47 1.39202 -3.70728 0
M  V30 19894 H 1788.64 -1.3829 -4.39559 0
M  V30 19895 H 1786.96 -1.09785 -4.01667 0
M  V30 19896 H 1789.55 1.44266 -5.1487 0
M  V30 19897 H 1789.9 2.12674 -3.57876 0
M  V30 19898 H 1790.43 0.469078 -3.95025 0
M  V30 19899 H 1787.17 -1.19164 -6.44578 0
M  V30 19900 H 1786.69 0.456564 -5.9806 0
M  V30 19901 H 1788.37 0.117703 -6.46893 0
M  V30 19902 N 1788.5 1.57583 -0.0234236 0
M  V30 19903 C 1789.41 2.13328 0.976138 0
M  V30 19904 C 1790.43 1.08414 1.36097 0
M  V30 19905 O 1791.6 1.40441 1.44354 0
M  V30 19906 C 1788.67 2.64469 2.24181 0
M  V30 19907 C 1787.73 3.84076 1.91793 0
M  V30 19908 C 1786.96 4.32768 3.12326 0
M  V30 19909 O 1787.19 3.80663 4.24797 0
M  V30 19910 O 1786.12 5.24676 2.94956 0
M  V30 19911 H 1789.95 2.99001 0.532166 0
M  V30 19912 H 1787.53 1.48098 0.196838 0
M  V30 19913 H 1789.41 2.97456 2.98492 0
M  V30 19914 H 1788.09 1.81881 2.6777 0
M  V30 19915 H 1786.99 3.56023 1.14883 0
M  V30 19916 H 1788.33 4.67808 1.53024 0
M  V30 19917 N 1789.98 -0.249655 1.5561 0
M  V30 19918 C 1790.89 -1.33061 1.93215 0
M  V30 19919 C 1791.91 -1.52806 0.832239 0
M  V30 19920 O 1793.08 -1.66482 1.13339 0
M  V30 19921 C 1790.15 -2.66569 2.2168 0
M  V30 19922 C 1789.21 -2.5537 3.45087 0
M  V30 19923 C 1788.44 -3.82511 3.72184 0
M  V30 19924 O 1788.66 -4.84267 3.014 0
M  V30 19925 O 1787.6 -3.81309 4.65711 0
M  V30 19926 H 1791.42 -1.04161 2.85279 0
M  V30 19927 H 1789.01 -0.450177 1.42456 0
M  V30 19928 H 1790.89 -3.45468 2.41308 0
M  V30 19929 H 1789.57 -2.95207 1.32794 0
M  V30 19930 H 1788.47 -1.74766 3.30768 0
M  V30 19931 H 1789.81 -2.31677 4.34266 0
M  V30 19932 N 1791.46 -1.48941 -0.515198 0
M  V30 19933 C 1792.73 -1.48205 -1.27651 0
M  V30 19934 C 1793.11 -0.201866 -2.10133 0
M  V30 19935 O 1792.46 0.816115 -2.13429 0
M  V30 19936 C 1792.67 -2.75274 -2.14535 0
M  V30 19937 C 1794.02 -3.24198 -2.74192 0
M  V30 19938 O 1795.04 -2.76293 -2.24813 0
M  V30 19939 O 1793.9 -4.07593 -3.64047 0
M  V30 19940 H 1791 -0.592546 -0.576904 0
M  V30 19941 H 1793.54 -1.6119 -0.530636 0
M  V30 19942 H 1792.32 -3.59949 -1.53469 0
M  V30 19943 H 1791.94 -2.6508 -2.96342 0
M  V30 19944 N 1792.94 0.765193 -1.37777 0
M  V30 19945 C 1793.9 1.8603 -1.33886 0
M  V30 19946 C 1794.9 1.58974 -0.241614 0
M  V30 19947 O 1796.09 1.66935 -0.497843 0
M  V30 19948 C 1793.22 3.2329 -1.08151 0
M  V30 19949 H 1794.41 1.9089 -2.31303 0
M  V30 19950 H 1791.97 0.965653 -1.22902 0
M  V30 19951 H 1792.7 3.24103 -0.112926 0
M  V30 19952 H 1792.49 3.4432 -1.8758 0
M  V30 19953 H 1793.98 4.03367 -1.08095 0
M  V30 19954 N 1794.41 1.22455 0.992094 0
M  V30 19955 C 1795.66 1.04373 1.72596 0
M  V30 19956 C 1795.98 -0.421349 1.91008 0
M  V30 19957 O 1797.18 -0.72186 2.61728 0
M  V30 19958 C 1795.64 1.81906 3.10545 0
M  V30 19959 C 1795.25 3.32667 3.00061 0
M  V30 19960 C 1796.99 1.72274 3.87972 0
M  V30 19961 C 1794.9 4.02638 4.3317 0
M  V30 19962 H 1793.83 0.386937 0.647144 0
M  V30 19963 H 1796.48 1.46313 1.10746 0
M  V30 19964 H 1794.86 1.32764 3.73081 0
M  V30 19965 H 1796.03 3.89208 2.46685 0
M  V30 19966 H 1794.35 3.42984 2.36117 0
M  V30 19967 H 1796.95 2.21872 4.86494 0
M  V30 19968 H 1797.29 0.68331 4.10654 0
M  V30 19969 H 1797.82 2.18963 3.32115 0
M  V30 19970 H 1794.56 5.06838 4.15687 0
M  V30 19971 H 1794.08 3.50885 4.86456 0
M  V30 19972 H 1795.76 4.08279 5.01914 0
M  V30 19973 N 1795.89 -1.18905 1.03437 0
M  V30 19974 C 1796.84 -2.24362 0.613557 0
M  V30 19975 C 1797.83 -1.65605 -0.356541 0
M  V30 19976 O 1799.04 -1.78594 -0.22452 0
M  V30 19977 H 1795.41 -0.730098 0.18017 0
M  V30 19978 H 1797.39 -2.57168 1.51351 0
M  V30 19979 C 1796.13 -3.47697 -0.0141125 0
M  V30 19980 H 1795.46 -3.93201 0.723394 0
M  V30 19981 H 1796.9 -4.2313 -0.271424 0
M  V30 19982 C 1795.36 -3.12357 -1.26232 0
M  V30 19983 O 1795.89 -3.25515 -2.35378 0
M  V30 19984 N 1794.09 -2.6674 -1.15318 0
M  V30 19985 H 1793.64 -2.56233 -0.26501 0
M  V30 19986 H 1793.6 -2.43466 -1.98927 0
M  V30 19987 N 1797.37 -0.812977 -1.35013 0
M  V30 19988 C 1798.78 -0.45647 -1.81034 0
M  V30 19989 C 1799.13 1.02217 -1.6747 0
M  V30 19990 O 1798.26 1.79478 -1.20898 0
M  V30 19991 C 1798.85 -0.821773 -3.28683 0
M  V30 19992 C 1797.41 -0.517776 -3.72822 0
M  V30 19993 C 1796.56 -1.04399 -2.56897 0
M  V30 19994 H 1799.51 -1.00405 -1.22901 0
M  V30 19995 H 1799.53 -0.12173 -3.80305 0
M  V30 19996 H 1799.04 -1.89799 -3.38523 0
M  V30 19997 H 1797.14 0.549446 -3.68527 0
M  V30 19998 H 1797.26 -1.05488 -4.67343 0
M  V30 19999 H 1795.62 -0.466002 -2.50401 0
M  V30 20000 H 1796.4 -2.12645 -2.69512 0
M  V30 20001 N 1798.85 1.47045 -0.567045 0
M  V30 20002 C 1799.78 2.27106 0.223156 0
M  V30 20003 C 1800.76 1.34662 0.911315 0
M  V30 20004 O 1801.94 1.64055 0.92834 0
M  V30 20005 C 1799.07 3.1197 1.31879 0
M  V30 20006 C 1798.12 4.20064 0.738145 0
M  V30 20007 S 1798.95 5.33828 -0.422892 0
M  V30 20008 C 1800.1 6.22257 0.674324 0
M  V30 20009 H 1800.34 2.93779 -0.456193 0
M  V30 20010 H 1797.87 1.50297 -0.353581 0
M  V30 20011 H 1799.83 3.61432 1.9462 0
M  V30 20012 H 1798.49 2.44641 1.97002 0
M  V30 20013 H 1797.68 4.7921 1.56122 0
M  V30 20014 H 1797.28 3.73534 0.186721 0
M  V30 20015 H 1799.58 6.59201 1.56398 0
M  V30 20016 H 1800.52 7.07998 0.11999 0
M  V30 20017 H 1800.93 5.56079 0.971422 0
M  V30 20018 N 1800.33 0.304 1.5464 0
M  V30 20019 C 1801.6 -0.357665 1.92302 0
M  V30 20020 C 1801.98 -1.71453 1.23155 0
M  V30 20021 O 1801.33 -2.25512 0.368342 0
M  V30 20022 C 1801.54 -0.469339 3.4583 0
M  V30 20023 C 1802.89 -0.738803 4.18123 0
M  V30 20024 O 1803.91 -0.553033 3.51881 0
M  V30 20025 O 1802.77 -1.09585 5.354 0
M  V30 20026 H 1799.87 -0.200506 0.802326 0
M  V30 20027 H 1802.41 0.352279 1.66003 0
M  V30 20028 H 1801.18 0.484397 3.8829 0
M  V30 20029 H 1800.81 -1.22763 3.78173 0
M  V30 20030 N 1801.8 -1.57568 0.0317802 0
M  V30 20031 C 1803.03 -1.95927 -0.655449 0
M  V30 20032 C 1803.44 -0.907011 -1.66042 0
M  V30 20033 O 1802.78 0.119389 -1.83312 0
M  V30 20034 C 1802.85 -3.30441 -1.41595 0
M  V30 20035 C 1802.51 -4.53444 -0.569009 0
M  V30 20036 C 1803.51 -5.19663 0.156812 0
M  V30 20037 C 1801.19 -4.99749 -0.505629 0
M  V30 20038 C 1803.19 -6.3051 0.934657 0
M  V30 20039 C 1800.87 -6.10477 0.275919 0
M  V30 20040 C 1801.87 -6.75717 0.994766 0
M  V30 20041 O 1801.56 -7.84319 1.7635 0
M  V30 20042 H 1801.29 -0.650077 -0.185408 0
M  V30 20043 H 1803.85 -2.05209 0.0886364 0
M  V30 20044 H 1802.08 -3.17658 -2.20523 0
M  V30 20045 H 1803.76 -3.53684 -1.99154 0
M  V30 20046 H 1804.53 -4.84858 0.117196 0
M  V30 20047 H 1800.41 -4.48772 -1.05472 0
M  V30 20048 H 1803.95 -6.81365 1.49626 0
M  V30 20049 H 1799.85 -6.4472 0.317242 0
M  V30 20050 H 1800.62 -8.00999 1.68355 0
M  V30 20051 N 1803.28 0.241399 -1.5574 0
M  V30 20052 C 1804.19 1.32034 -1.93918 0
M  V30 20053 C 1805.21 1.52363 -0.840331 0
M  V30 20054 O 1806.38 1.65879 -1.1422 0
M  V30 20055 C 1803.45 2.6539 -2.2309 0
M  V30 20056 C 1802.51 2.53536 -3.46436 0
M  V30 20057 C 1801.74 3.80532 -3.74208 0
M  V30 20058 O 1801.97 4.82662 -3.03964 0
M  V30 20059 O 1800.9 3.78834 -4.67727 0
M  V30 20060 H 1804.73 1.02647 -2.85827 0
M  V30 20061 H 1802.31 0.442616 -1.42693 0
M  V30 20062 H 1804.19 3.44184 -2.43137 0
M  V30 20063 H 1802.87 2.94499 -1.34358 0
M  V30 20064 H 1801.78 1.73009 -3.3169 0
M  V30 20065 H 1803.11 2.29371 -4.35488 0
M  V30 20066 N 1804.76 1.49212 0.507292 0
M  V30 20067 C 1805.67 1.68141 1.63603 0
M  V30 20068 C 1806.69 0.563959 1.64607 0
M  V30 20069 O 1807.86 0.837885 1.83143 0
M  V30 20070 C 1804.93 1.73793 2.99995 0
M  V30 20071 C 1803.99 2.9733 3.09667 0
M  V30 20072 C 1803.22 3.02703 4.39553 0
M  V30 20073 O 1803.44 2.15844 5.27985 0
M  V30 20074 O 1802.38 3.95105 4.54066 0
M  V30 20075 H 1806.2 2.63749 1.50565 0
M  V30 20076 H 1803.79 1.32879 0.682893 0
M  V30 20077 H 1805.67 1.79901 3.81069 0
M  V30 20078 H 1804.35 0.813622 3.13308 0
M  V30 20079 H 1803.25 2.96743 2.27804 0
M  V30 20080 H 1804.59 3.8922 3.01278 0
M  V30 20081 N 1806.24 -0.757876 1.38181 0
M  V30 20082 C 1807.47 -1.54485 1.37179 0
M  V30 20083 C 1807.88 -1.89155 -0.0413714 0
M  V30 20084 O 1807.22 -1.52963 -1.01725 0
M  V30 20085 C 1807.28 -2.87464 2.15881 0
M  V30 20086 C 1806.95 -2.75355 3.64731 0
M  V30 20087 C 1807.94 -2.45442 4.58317 0
M  V30 20088 C 1805.63 -2.92942 4.08032 0
M  V30 20089 C 1807.62 -2.33263 5.93184 0
M  V30 20090 C 1805.31 -2.80384 5.42981 0
M  V30 20091 C 1806.31 -2.50586 6.3537 0
M  V30 20092 O 1805.99 -2.38079 7.67837 0
M  V30 20093 H 1805.73 -0.484775 0.471136 0
M  V30 20094 H 1808.28 -0.946061 1.82315 0
M  V30 20095 H 1806.51 -3.49516 1.65456 0
M  V30 20096 H 1808.2 -3.48949 2.0734 0
M  V30 20097 H 1808.97 -2.31527 4.26169 0
M  V30 20098 H 1804.84 -3.15133 3.3647 0
M  V30 20099 H 1808.39 -2.09927 6.65264 0
M  V30 20100 H 1804.29 -2.93871 5.74726 0
M  V30 20101 H 1805.05 -2.53324 7.78312 0
M  V30 20102 N 1807.72 -1.22979 -0.985586 0
M  V30 20103 C 1808.65 -0.949615 -2.07503 0
M  V30 20104 C 1809.63 0.110178 -1.62226 0
M  V30 20105 O 1810.81 -0.022974 -1.88486 0
M  V30 20106 C 1807.94 -0.429626 -3.35964 0
M  V30 20107 C 1806.98 -1.47522 -4.00174 0
M  V30 20108 S 1807.82 -3.05095 -4.40088 0
M  V30 20109 C 1808.97 -2.54753 -5.71709 0
M  V30 20110 H 1809.21 -1.87215 -2.3095 0
M  V30 20111 H 1806.74 -1.06167 -1.12107 0
M  V30 20112 H 1808.7 -0.136212 -4.10274 0
M  V30 20113 H 1807.36 0.471907 -3.10535 0
M  V30 20114 H 1806.55 -1.06142 -4.92697 0
M  V30 20115 H 1806.15 -1.71772 -3.3222 0
M  V30 20116 H 1808.45 -1.9645 -6.48393 0
M  V30 20117 H 1809.39 -3.45795 -6.17925 0
M  V30 20118 H 1809.8 -1.95785 -5.29461 0
M  V30 20119 N 1809.19 1.18355 -1.04066 0
M  V30 20120 C 1810.1 2.25641 -0.642115 0
M  V30 20121 C 1811.12 1.70811 0.331614 0
M  V30 20122 O 1812.3 2.00534 0.186542 0
M  V30 20123 C 1809.36 3.46698 -0.0112485 0
M  V30 20124 C 1808.42 4.16662 -1.03398 0
M  V30 20125 C 1807.66 5.3194 -0.433125 0
M  V30 20126 O 1807.88 5.65305 0.760669 0
M  V30 20127 O 1806.81 5.90581 -1.16182 0
M  V30 20128 H 1810.64 2.61997 -1.53595 0
M  V30 20129 H 1808.22 1.25437 -0.811542 0
M  V30 20130 H 1810.11 4.20027 0.339934 0
M  V30 20131 H 1808.78 3.12166 0.856405 0
M  V30 20132 H 1807.69 3.45402 -1.43696 0
M  V30 20133 H 1809.02 4.55194 -1.8724 0
M  V30 20134 N 1810.67 0.820125 1.3458 0
M  V30 20135 C 1811.62 0.22828 2.31477 0
M  V30 20136 C 1812.61 -0.629439 1.57272 0
M  V30 20137 O 1813.82 -0.521091 1.72292 0
M  V30 20138 H 1810.2 0.0550728 0.749981 0
M  V30 20139 H 1812.17 1.0604 2.78923 0
M  V30 20140 C 1810.92 -0.597495 3.42528 0
M  V30 20141 H 1810.24 0.0531749 3.99765 0
M  V30 20142 H 1811.68 -0.977765 4.12572 0
M  V30 20143 C 1810.14 -1.76868 2.86739 0
M  V30 20144 O 1810.67 -2.86674 2.81391 0
M  V30 20145 N 1808.87 -1.58453 2.436 0
M  V30 20146 H 1808.42 -0.691318 2.4815 0
M  V30 20147 H 1808.38 -2.36969 2.06624 0
M  V30 20148 N 1812.15 -1.46743 0.574835 0
M  V30 20149 C 1813.08 -2.33012 -0.150836 0
M  V30 20150 C 1814.06 -1.44868 -0.891472 0
M  V30 20151 O 1815.25 -1.73698 -0.868481 0
M  V30 20152 C 1812.38 -3.26995 -1.17012 0
M  V30 20153 C 1811.33 -4.24518 -0.544829 0
M  V30 20154 C 1810.66 -5.07951 -1.67002 0
M  V30 20155 C 1811.96 -5.19776 0.512891 0
M  V30 20156 H 1813.65 -2.93935 0.569433 0
M  V30 20157 H 1811.2 -1.41344 0.275289 0
M  V30 20158 H 1813.15 -3.86198 -1.68609 0
M  V30 20159 H 1811.87 -2.64163 -1.92056 0
M  V30 20160 H 1810.53 -3.66566 -0.0500133 0
M  V30 20161 H 1810.18 -4.4151 -2.40993 0
M  V30 20162 H 1809.88 -5.73991 -1.25732 0
M  V30 20163 H 1811.4 -5.70017 -2.1889 0
M  V30 20164 H 1812.82 -5.73241 0.0823064 0
M  V30 20165 H 1811.22 -5.94114 0.845462 0
M  V30 20166 H 1812.29 -4.64184 1.40217 0
M  V30 20167 N 1813.63 -0.312197 -1.54477 0
M  V30 20168 C 1814.85 0.298829 -2.05236 0
M  V30 20169 C 1815.28 1.45881 -1.18745 0
M  V30 20170 O 1814.64 1.80259 -0.193999 0
M  V30 20171 C 1814.68 0.722008 -3.53298 0
M  V30 20172 O 1813.79 1.82562 -3.6979 0
M  V30 20173 H 1813.13 0.0560985 -0.661626 0
M  V30 20174 H 1815.66 -0.4573 -1.99424 0
M  V30 20175 H 1815.67 1.00777 -3.95358 0
M  V30 20176 H 1814.34 -0.12647 -4.15708 0
M  V30 20177 H 1812.92 1.53954 -3.39636 0
M  V30 20178 N 1815.11 1.57549 -0.040136 0
M  V30 20179 C 1816.05 2.12048 0.955943 0
M  V30 20180 C 1817.05 1.04965 1.32962 0
M  V30 20181 O 1818.25 1.23387 1.31056 0
M  V30 20182 H 1814.63 0.677616 0.326099 0
M  V30 20183 H 1816.6 2.94658 0.471075 0
M  V30 20184 C 1815.35 2.67157 2.22537 0
M  V30 20185 H 1814.67 3.4921 1.9466 0
M  V30 20186 H 1816.11 3.08924 2.90417 0
M  V30 20187 C 1814.57 1.60413 2.96259 0
M  V30 20188 O 1815.1 1.01042 3.88785 0
M  V30 20189 N 1813.31 1.32196 2.58791 0
M  V30 20190 H 1812.85 1.80663 1.83626 0
M  V30 20191 H 1812.81 0.610023 3.08425 0
M  V30 20192 N 1816.58 -0.233136 1.55866 0
M  V30 20193 C 1817.83 -0.959219 1.7834 0
M  V30 20194 C 1818.16 -1.84789 0.606886 0
M  V30 20195 O 1817.41 -1.91373 -0.409253 0
M  V30 20196 C 1817.71 -1.83897 3.06458 0
M  V30 20197 C 1817.38 -1.1045 4.37163 0
M  V30 20198 C 1816.04 -0.901577 4.72679 0
M  V30 20199 C 1818.39 -0.584979 5.17907 0
M  V30 20200 C 1815.72 -0.167034 5.86462 0
M  V30 20201 C 1818.07 0.136163 6.32453 0
M  V30 20202 C 1816.74 0.35045 6.66579 0
M  V30 20203 H 1816.01 -0.351003 0.652593 0
M  V30 20204 H 1818.65 -0.228249 1.90135 0
M  V30 20205 H 1816.96 -2.63744 2.89735 0
M  V30 20206 H 1818.66 -2.4027 3.21047 0
M  V30 20207 H 1815.25 -1.27263 4.0927 0
M  V30 20208 H 1819.43 -0.729263 4.90913 0
M  V30 20209 H 1814.69 0.00933042 6.11399 0
M  V30 20210 H 1818.86 0.546294 6.94254 0
M  V30 20211 H 1816.49 0.921569 7.54593 0
M  V30 20212 N 1818.06 -1.49479 -0.499372 0
M  V30 20213 C 1818.97 -1.69006 -1.62709 0
M  V30 20214 C 1819.99 -0.572681 -1.64306 0
M  V30 20215 O 1821.17 -0.847586 -1.82696 0
M  V30 20216 C 1818.23 -1.75382 -2.99069 0
M  V30 20217 C 1817.29 -2.98968 -3.08086 0
M  V30 20218 C 1816.52 -3.0503 -4.37941 0
M  V30 20219 O 1816.75 -2.18641 -5.26832 0
M  V30 20220 O 1815.68 -3.97507 -4.51964 0
M  V30 20221 H 1819.51 -2.64544 -1.49164 0
M  V30 20222 H 1817.09 -1.3324 -0.675836 0
M  V30 20223 H 1818.97 -1.81919 -3.8011 0
M  V30 20224 H 1817.65 -0.830226 -3.12872 0
M  V30 20225 H 1816.56 -2.97947 -2.26227 0
M  V30 20226 H 1817.89 -3.90812 -2.9921 0
M  V30 20227 N 1819.54 0.750537 -1.38581 0
M  V30 20228 C 1820.82 1.50051 -1.25475 0
M  V30 20229 C 1821.2 2.10618 0.142521 0
M  V30 20230 O 1820.55 1.97317 1.15231 0
M  V30 20231 C 1820.76 2.56443 -2.36724 0
M  V30 20232 C 1822.1 3.23261 -2.75296 0
M  V30 20233 O 1823.13 2.66749 -2.36058 0
M  V30 20234 O 1821.99 4.25481 -3.4297 0
M  V30 20235 H 1819.08 0.665581 -0.490847 0
M  V30 20236 H 1821.63 0.785688 -1.50416 0
M  V30 20237 H 1820.4 2.09958 -3.30202 0
M  V30 20238 H 1820.02 3.35503 -2.13363 0
M  V30 20239 N 1821.02 1.235 0.979051 0
M  V30 20240 C 1822.3 0.976124 1.69503 0
M  V30 20241 C 1822.68 -0.504883 2.04974 0
M  V30 20242 O 1822.02 -1.47642 1.74397 0
M  V30 20243 C 1822.23 1.8877 2.93542 0
M  V30 20244 C 1823.58 2.15196 3.66027 0
M  V30 20245 O 1824.61 1.8633 3.03578 0
M  V30 20246 O 1823.47 2.64157 4.78417 0
M  V30 20247 H 1820.56 0.36825 0.740487 0
M  V30 20248 H 1823.11 1.34549 1.03415 0
M  V30 20249 H 1821.88 2.88882 2.63937 0
M  V30 20250 H 1821.5 1.52079 3.67366 0
M  V30 20251 N 1822.5 -1.17802 1.04693 0
M  V30 20252 C 1823.75 -1.87567 0.752534 0
M  V30 20253 C 1824.07 -1.81129 -0.722303 0
M  V30 20254 O 1823.34 -1.23385 -1.52161 0
M  V30 20255 H 1821.92 -0.69439 0.275376 0
M  V30 20256 H 1824.58 -1.42932 1.32501 0
M  V30 20257 H 1823.67 -2.9344 1.06299 0
M  V30 20258 N 1823.98 -0.827251 -1.34143 0
M  V30 20259 C 1824.89 -0.254285 -2.33218 0
M  V30 20260 C 1825.9 0.613602 -1.62822 0
M  V30 20261 O 1827.08 0.520477 -1.94558 0
M  V30 20262 C 1824.14 0.570817 -3.41969 0
M  V30 20263 C 1823.2 -0.319978 -4.28106 0
M  V30 20264 C 1822.44 0.465839 -5.31663 0
M  V30 20265 O 1822.66 1.6987 -5.44518 0
M  V30 20266 O 1821.59 -0.154094 -6.01703 0
M  V30 20267 H 1825.42 -1.07441 -2.8406 0
M  V30 20268 H 1823 -0.589493 -1.37278 0
M  V30 20269 H 1824.89 1.04009 -4.08363 0
M  V30 20270 H 1823.56 1.3682 -2.93363 0
M  V30 20271 H 1822.47 -0.836843 -3.6462 0
M  V30 20272 H 1823.8 -1.08183 -4.80164 0
M  V30 20273 N 1825.45 1.46436 -0.582609 0
M  V30 20274 C 1826.86 1.86047 -0.156012 0
M  V30 20275 C 1827.22 1.48619 1.28089 0
M  V30 20276 O 1826.34 0.90104 1.96749 0
M  V30 20277 C 1826.94 3.37671 -0.276358 0
M  V30 20278 C 1825.49 3.76279 0.0953682 0
M  V30 20279 C 1824.64 2.70454 -0.612348 0
M  V30 20280 H 1827.59 1.37592 -0.790834 0
M  V30 20281 H 1827.61 3.77223 0.498312 0
M  V30 20282 H 1827.13 3.64881 -1.32225 0
M  V30 20283 H 1825.23 3.54687 1.1414 0
M  V30 20284 H 1825.34 4.78276 -0.280881 0
M  V30 20285 H 1823.7 2.54646 -0.0526182 0
M  V30 20286 H 1824.49 3.00504 -1.65989 0
M  V30 20287 N 1826.93 0.320385 1.54309 0
M  V30 20288 C 1828.16 -0.284784 2.04628 0
M  V30 20289 C 1828.57 -1.46578 1.1963 0
M  V30 20290 O 1827.91 -1.8239 0.219023 0
M  V30 20291 C 1827.97 -0.785529 3.50813 0
M  V30 20292 C 1827.64 0.272743 4.56185 0
M  V30 20293 C 1828.64 1.10775 5.07961 0
M  V30 20294 C 1826.32 0.420018 5.00541 0
M  V30 20295 C 1828.31 2.0758 6.02652 0
M  V30 20296 C 1826 1.39148 5.95047 0
M  V30 20297 C 1827 2.21784 6.45988 0
M  V30 20298 O 1826.69 3.17281 7.38639 0
M  V30 20299 H 1826.42 -0.0629681 0.673061 0
M  V30 20300 H 1828.97 0.463698 2.00097 0
M  V30 20301 H 1827.2 -1.58487 3.52731 0
M  V30 20302 H 1828.89 -1.3087 3.84224 0
M  V30 20303 H 1829.66 1.00494 4.74474 0
M  V30 20304 H 1825.54 -0.21329 4.60506 0
M  V30 20305 H 1829.08 2.72119 6.42337 0
M  V30 20306 H 1824.98 1.49494 6.2795 0
M  V30 20307 H 1825.75 3.12483 7.56503 0
M  V30 20308 N 1828.41 -1.57525 0.0484906 0
M  V30 20309 C 1829.69 -1.83927 -0.66561 0
M  V30 20310 C 1830.07 -0.93636 -1.89197 0
M  V30 20311 O 1829.41 0.00326905 -2.285 0
M  V30 20312 C 1829.62 -3.33595 -1.02545 0
M  V30 20313 C 1830.97 -4.00544 -1.40889 0
M  V30 20314 O 1832 -3.38204 -1.11787 0
M  V30 20315 O 1830.86 -5.10454 -1.95189 0
M  V30 20316 H 1827.95 -0.759042 -0.328305 0
M  V30 20317 H 1830.5 -1.69522 0.0776497 0
M  V30 20318 H 1829.27 -3.90999 -0.153456 0
M  V30 20319 H 1828.89 -3.53177 -1.82625 0
M  V30 20320 N 1829.89 0.224867 -1.55988 0
M  V30 20321 C 1830.8 1.2997 -1.95307 0
M  V30 20322 C 1831.81 1.51463 -0.856444 0
M  V30 20323 O 1832.99 1.64658 -1.15973 0
M  V30 20324 C 1830.05 2.63009 -2.25892 0
M  V30 20325 C 1829.12 2.49847 -3.49106 0
M  V30 20326 C 1828.35 3.76541 -3.78223 0
M  V30 20327 O 1828.57 4.7941 -3.09066 0
M  V30 20328 O 1827.51 3.73852 -4.71718 0
M  V30 20329 H 1831.33 0.996093 -2.869 0
M  V30 20330 H 1828.92 0.427457 -1.43154 0
M  V30 20331 H 1830.8 3.41586 -2.46774 0
M  V30 20332 H 1829.47 2.93057 -1.37474 0
M  V30 20333 H 1828.38 1.69482 -3.33507 0
M  V30 20334 H 1829.71 2.24739 -4.37896 0
M  V30 20335 N 1831.37 1.49742 0.491438 0
M  V30 20336 C 1832.6 1.63198 1.26689 0
M  V30 20337 C 1833 0.306438 1.86702 0
M  V30 20338 O 1832.35 -0.719282 1.69033 0
M  V30 20339 C 1832.41 2.64966 2.42967 0
M  V30 20340 C 1832.07 4.09066 2.0375 0
M  V30 20341 C 1833.07 4.95574 1.57171 0
M  V30 20342 C 1830.75 4.54859 2.13092 0
M  V30 20343 C 1832.75 6.25916 1.2045 0
M  V30 20344 C 1830.44 5.85212 1.75983 0
M  V30 20345 C 1831.43 6.70565 1.29738 0
M  V30 20346 O 1831.12 7.98487 0.931347 0
M  V30 20347 H 1830.85 0.552094 0.390087 0
M  V30 20348 H 1833.41 1.9658 0.595439 0
M  V30 20349 H 1831.64 2.26784 3.13218 0
M  V30 20350 H 1833.33 2.67852 3.04975 0
M  V30 20351 H 1834.09 4.61419 1.49391 0
M  V30 20352 H 1829.97 3.88585 2.48038 0
M  V30 20353 H 1833.52 6.9249 0.84283 0
M  V30 20354 H 1829.41 6.18893 1.83415 0
M  V30 20355 H 1830.18 8.11581 1.06198 0
M  V30 20356 N 1832.84 -0.743177 1.38977 0
M  V30 20357 C 1834.12 -1.49384 1.26269 0
M  V30 20358 C 1834.5 -2.10691 -0.131349 0
M  V30 20359 O 1833.85 -1.97925 -1.14183 0
M  V30 20360 C 1834.06 -2.55184 2.3808 0
M  V30 20361 C 1835.41 -3.21796 2.77006 0
M  V30 20362 O 1836.43 -2.65493 2.37469 0
M  V30 20363 O 1835.29 -4.23656 3.45222 0
M  V30 20364 H 1832.38 -0.662968 0.49437 0
M  V30 20365 H 1834.93 -0.7777 1.50831 0
M  V30 20366 H 1833.7 -2.08204 3.31311 0
M  V30 20367 H 1833.33 -3.34366 2.15139 0
M  V30 20368 N 1834.32 -1.24018 -0.972487 0
M  V30 20369 C 1835.6 -0.985099 -1.68983 0
M  V30 20370 C 1835.98 0.494006 -2.05238 0
M  V30 20371 O 1835.33 1.46715 -1.75177 0
M  V30 20372 C 1835.54 -1.90324 -2.92537 0
M  V30 20373 C 1836.89 -2.17134 -3.64881 0
M  V30 20374 O 1837.91 -1.87938 -3.02585 0
M  V30 20375 O 1836.77 -2.66691 -4.7701 0
M  V30 20376 H 1833.86 -0.372172 -0.738524 0
M  V30 20377 H 1836.41 -1.35095 -1.027 0
M  V30 20378 H 1835.18 -2.90278 -2.62401 0
M  V30 20379 H 1834.8 -1.54025 -3.66554 0
M  V30 20380 N 1835.8 1.17245 -1.05316 0
M  V30 20381 C 1837.03 1.91176 -0.783273 0
M  V30 20382 C 1837.44 1.77128 0.664996 0
M  V30 20383 O 1836.78 1.10682 1.46612 0
M  V30 20384 C 1836.84 3.42708 -1.0859 0
M  V30 20385 C 1836.51 3.80539 -2.5306 0
M  V30 20386 C 1837.5 3.8328 -3.51272 0
M  V30 20387 C 1835.19 4.11464 -2.88102 0
M  V30 20388 C 1837.18 4.16418 -4.82571 0
M  V30 20389 C 1834.87 4.44271 -4.19603 0
M  V30 20390 C 1835.87 4.46726 -5.16648 0
M  V30 20391 O 1835.56 4.7876 -6.4579 0
M  V30 20392 H 1835.29 0.613371 -0.284169 0
M  V30 20393 H 1837.84 1.49608 -1.40736 0
M  V30 20394 H 1836.07 3.84576 -0.404716 0
M  V30 20395 H 1837.76 3.97901 -0.801827 0
M  V30 20396 H 1838.53 3.59511 -3.25541 0
M  V30 20397 H 1834.41 4.08723 -2.13228 0
M  V30 20398 H 1837.95 4.1825 -5.58313 0
M  V30 20399 H 1833.85 4.67503 -4.45097 0
M  V30 20400 H 1834.62 4.96612 -6.5063 0
M  V30 20401 N 1837.28 0.834353 1.33702 0
M  V30 20402 C 1838.56 0.350003 1.92443 0
M  V30 20403 C 1838.94 -1.1641 1.76102 0
M  V30 20404 O 1838.28 -1.97646 1.14666 0
M  V30 20405 C 1838.49 0.791928 3.39896 0
M  V30 20406 C 1839.84 0.797338 4.17046 0
M  V30 20407 O 1840.87 0.735242 3.48529 0
M  V30 20408 O 1839.72 0.880963 5.39353 0
M  V30 20409 H 1836.82 0.0981048 0.82116 0
M  V30 20410 H 1839.36 0.919905 1.42604 0
M  V30 20411 H 1838.14 1.83433 3.45641 0
M  V30 20412 H 1837.76 0.198349 3.97105 0
M  V30 20413 N 1838.76 -1.46125 0.590367 0
M  V30 20414 C 1840.03 -1.95597 0.0116648 0
M  V30 20415 C 1840.41 -1.53298 -1.45131 0
M  V30 20416 O 1839.76 -0.787298 -2.14508 0
M  V30 20417 C 1839.97 -3.48473 0.191727 0
M  V30 20418 C 1841.32 -4.24552 0.0635332 0
M  V30 20419 O 1842.34 -3.55995 0.120955 0
M  V30 20420 O 1841.2 -5.4646 -0.0657772 0
M  V30 20421 H 1838.3 -0.825748 -0.0454921 0
M  V30 20422 H 1840.84 -1.56372 0.659223 0
M  V30 20423 H 1839.61 -3.72172 1.20846 0
M  V30 20424 H 1839.24 -3.94545 -0.491905 0
M  V30 20425 N 1840.23 -0.328564 -1.54137 0
M  V30 20426 C 1841.48 0.272505 -2.00658 0
M  V30 20427 C 1841.81 1.51748 -1.21666 0
M  V30 20428 O 1841.06 1.93566 -0.288224 0
M  V30 20429 C 1841.36 0.646813 -3.51498 0
M  V30 20430 C 1841.03 -0.499561 -4.48124 0
M  V30 20431 C 1839.69 -0.8142 -4.74262 0
M  V30 20432 C 1842.04 -1.26936 -5.05506 0
M  V30 20433 C 1839.37 -1.90127 -5.55039 0
M  V30 20434 C 1841.72 -2.34656 -5.87469 0
M  V30 20435 C 1840.39 -2.66696 -6.11906 0
M  V30 20436 H 1839.66 0.0997168 -0.73426 0
M  V30 20437 H 1842.3 -0.453377 -1.86056 0
M  V30 20438 H 1840.61 1.45319 -3.63854 0
M  V30 20439 H 1842.31 1.12352 -3.84939 0
M  V30 20440 H 1838.9 -0.244255 -4.27903 0
M  V30 20441 H 1843.08 -1.03954 -4.85291 0
M  V30 20442 H 1838.34 -2.15392 -5.72203 0
M  V30 20443 H 1842.51 -2.94745 -6.3095 0
M  V30 20444 H 1840.14 -3.51058 -6.74287 0
M  V30 20445 N 1841.71 1.57497 -0.0568439 0
M  V30 20446 C 1842.96 1.932 0.61658 0
M  V30 20447 C 1843.29 0.935936 1.70158 0
M  V30 20448 O 1842.57 -0.0372005 1.94464 0
M  V30 20449 C 1842.85 3.39254 1.20742 0
M  V30 20450 C 1842.7 4.49612 0.130081 0
M  V30 20451 C 1844.02 3.85817 2.11738 0
M  V30 20452 H 1841.14 0.702558 0.222668 0
M  V30 20453 H 1843.78 1.89622 -0.119765 0
M  V30 20454 H 1841.93 3.42434 1.83497 0
M  V30 20455 H 1843.6 4.58559 -0.502172 0
M  V30 20456 H 1841.85 4.30411 -0.541167 0
M  V30 20457 H 1842.52 5.48906 0.583606 0
M  V30 20458 H 1844.99 3.8455 1.58936 0
M  V30 20459 H 1843.87 4.88653 2.50019 0
M  V30 20460 H 1844.13 3.22899 3.01974 0
M  V30 20461 N 1843.19 -0.216591 1.56105 0
M  V30 20462 C 1844.14 -1.28803 1.93681 0
M  V30 20463 C 1845.13 -1.4826 0.819464 0
M  V30 20464 O 1846.34 -1.49376 1.00433 0
M  V30 20465 H 1842.71 -0.431947 0.61557 0
M  V30 20466 H 1844.68 -0.943954 2.83076 0
M  V30 20467 C 1843.43 -2.63017 2.27414 0
M  V30 20468 H 1842.76 -2.48855 3.12908 0
M  V30 20469 H 1844.2 -3.36787 2.57587 0
M  V30 20470 C 1842.66 -3.18401 1.10103 0
M  V30 20471 O 1843.19 -4.00041 0.364758 0
M  V30 20472 N 1841.39 -2.76843 0.883536 0
M  V30 20473 H 1840.94 -2.1056 1.48399 0
M  V30 20474 H 1840.9 -3.1424 0.100368 0
M  V30 20475 N 1844.67 -1.5 -0.48349 0
M  V30 20476 C 1845.9 -1.64105 -1.26004 0
M  V30 20477 C 1846.31 -0.319389 -1.86079 0
M  V30 20478 O 1845.67 0.697243 -1.68656 0
M  V30 20479 C 1845.72 -2.72299 -2.37772 0
M  V30 20480 O 1845.44 -3.99341 -1.80163 0
M  V30 20481 C 1846.94 -2.97266 -3.28858 0
M  V30 20482 H 1844.16 -0.551971 -0.381535 0
M  V30 20483 H 1846.71 -1.96146 -0.57852 0
M  V30 20484 H 1844.86 -2.42987 -3.01722 0
M  V30 20485 H 1845.27 -4.59077 -2.5367 0
M  V30 20486 H 1846.75 -3.76662 -4.03521 0
M  V30 20487 H 1847.23 -2.07855 -3.86902 0
M  V30 20488 H 1847.83 -3.28062 -2.70657 0
M  V30 20489 N 1846.15 0.735796 -1.39369 0
M  V30 20490 C 1847.4 1.49079 -1.35861 0
M  V30 20491 C 1847.71 1.95553 0.0429472 0
M  V30 20492 O 1848.91 2.70758 0.200614 0
M  V30 20493 C 1847.37 2.69375 -2.38674 0
M  V30 20494 C 1846.98 2.29854 -3.8454 0
M  V30 20495 C 1848.72 3.47199 -2.44239 0
M  V30 20496 C 1846.63 3.46868 -4.78996 0
M  V30 20497 H 1845.56 0.559825 -0.505086 0
M  V30 20498 H 1848.21 0.80271 -1.65012 0
M  V30 20499 H 1846.59 3.40253 -2.02592 0
M  V30 20500 H 1847.77 1.66527 -4.29657 0
M  V30 20501 H 1846.08 1.65123 -3.82261 0
M  V30 20502 H 1848.68 4.34234 -3.12002 0
M  V30 20503 H 1849.02 3.89608 -1.46668 0
M  V30 20504 H 1849.55 2.83349 -2.7921 0
M  V30 20505 H 1846.29 3.0951 -5.77827 0
M  V30 20506 H 1845.81 4.09178 -4.38558 0
M  V30 20507 H 1847.49 4.13213 -4.9786 0
M  V30 20508 N 1847.63 1.24532 0.965897 0
M  V30 20509 C 1848.57 1.03699 2.08205 0
M  V30 20510 C 1849.57 -0.0286308 1.69376 0
M  V30 20511 O 1850.77 0.126073 1.79558 0
M  V30 20512 H 1847.15 0.318331 0.6813 0
M  V30 20513 H 1849.12 1.98348 2.22937 0
M  V30 20514 C 1847.87 0.660411 3.41371 0
M  V30 20515 H 1847.19 1.47216 3.71709 0
M  V30 20516 H 1848.63 0.554264 4.20362 0
M  V30 20517 C 1847.09 -0.632633 3.30907 0
M  V30 20518 O 1847.62 -1.67786 3.6498 0
M  V30 20519 N 1845.83 -0.61403 2.84039 0
M  V30 20520 H 1845.37 0.236909 2.56508 0
M  V30 20521 H 1845.33 -1.47938 2.7742 0
M  V30 20522 N 1849.1 -1.16685 1.05936 0
M  V30 20523 C 1850.07 -2.19155 0.671098 0
M  V30 20524 C 1851.07 -1.5832 -0.281305 0
M  V30 20525 O 1852.26 -1.74082 -0.0641708 0
M  V30 20526 C 1849.39 -3.40897 -0.0131101 0
M  V30 20527 H 1850.58 -2.55019 1.57815 0
M  V30 20528 H 1848.13 -1.30897 0.854147 0
M  V30 20529 H 1848.87 -3.10587 -0.933077 0
M  V30 20530 H 1848.65 -3.86304 0.671687 0
M  V30 20531 H 1850.14 -4.16722 -0.270606 0
M  V30 20532 N 1850.58 -0.841432 -1.33258 0
M  V30 20533 C 1851.86 -0.360204 -1.92255 0
M  V30 20534 C 1852.24 1.15474 -1.76717 0
M  V30 20535 O 1851.59 1.97035 -1.15713 0
M  V30 20536 C 1851.8 -0.809942 -3.39472 0
M  V30 20537 C 1853.14 -0.819444 -4.16618 0
M  V30 20538 O 1854.17 -0.753715 -3.48134 0
M  V30 20539 O 1853.03 -0.909553 -5.38878 0
M  V30 20540 H 1850.12 -0.102458 -0.820629 0
M  V30 20541 H 1852.67 -0.927455 -1.42114 0
M  V30 20542 H 1851.44 -1.85263 -3.44664 0
M  V30 20543 H 1851.06 -0.219406 -3.96994 0
M  V30 20544 N 1852.06 1.4581 -0.598108 0
M  V30 20545 C 1853.01 2.30454 0.126261 0
M  V30 20546 C 1853.98 1.41541 0.869221 0
M  V30 20547 O 1855.16 1.70478 0.856841 0
M  V30 20548 C 1852.3 3.26285 1.12393 0
M  V30 20549 C 1851.41 4.303 0.382824 0
M  V30 20550 C 1850.55 5.13246 1.36937 0
M  V30 20551 C 1849.59 6.08997 0.615545 0
M  V30 20552 N 1848.73 6.84756 1.55091 0
M  V30 20553 H 1853.57 2.91865 -0.601573 0
M  V30 20554 H 1851.1 1.43829 -0.308467 0
M  V30 20555 H 1853.06 3.80303 1.71539 0
M  V30 20556 H 1851.69 2.66649 1.81929 0
M  V30 20557 H 1850.74 3.79018 -0.323962 0
M  V30 20558 H 1852.05 4.98375 -0.205781 0
M  V30 20559 H 1851.21 5.71618 2.03318 0
M  V30 20560 H 1849.95 4.45168 1.99191 0
M  V30 20561 H 1848.95 5.49765 -0.0619441 0
M  V30 20562 H 1850.18 6.791 -0.00181251 0
M  V30 20563 H 1848.12 6.19375 2.16127 0
M  V30 20564 H 1848.04 7.49149 1.0155 0
M  V30 20565 H 1849.31 7.47675 2.20458 0
M  V30 20566 N 1853.54 0.336733 1.53961 0
M  V30 20567 C 1854.47 -0.515664 2.27735 0
M  V30 20568 C 1855.45 -1.10835 1.29033 0
M  V30 20569 O 1856.63 -1.13102 1.57866 0
M  V30 20570 C 1853.76 -1.67015 3.04505 0
M  V30 20571 C 1852.72 -1.20613 4.10654 0
M  V30 20572 C 1852.04 -2.44861 4.75339 0
M  V30 20573 C 1853.34 -0.311507 5.2137 0
M  V30 20574 H 1855.04 0.0997513 2.99234 0
M  V30 20575 H 1852.58 0.0494157 1.43915 0
M  V30 20576 H 1854.54 -2.27286 3.54851 0
M  V30 20577 H 1853.26 -2.31236 2.30646 0
M  V30 20578 H 1851.92 -0.62628 3.61211 0
M  V30 20579 H 1851.57 -3.07474 3.98081 0
M  V30 20580 H 1851.27 -2.14498 5.47051 0
M  V30 20581 H 1852.79 -3.0587 5.28466 0
M  V30 20582 H 1854.21 -0.820868 5.67393 0
M  V30 20583 H 1852.6 -0.100073 6.00017 0
M  V30 20584 H 1853.67 0.654181 4.80467 0
M  V30 20585 N 1855.02 -1.57465 0.0651956 0
M  V30 20586 C 1855.96 -2.12345 -0.904345 0
M  V30 20587 C 1856.93 -1.03429 -1.29968 0
M  V30 20588 O 1858.12 -1.31055 -1.38669 0
M  V30 20589 C 1855.26 -2.68423 -2.16895 0
M  V30 20590 C 1854.37 -3.91472 -1.82684 0
M  V30 20591 C 1853.51 -4.35816 -3.03706 0
M  V30 20592 C 1852.54 -5.5153 -2.65482 0
M  V30 20593 N 1851.68 -5.90863 -3.79242 0
M  V30 20594 H 1856.52 -2.94889 -0.429468 0
M  V30 20595 H 1854.06 -1.45729 -0.200344 0
M  V30 20596 H 1856.02 -2.99041 -2.90913 0
M  V30 20597 H 1854.65 -1.88654 -2.61934 0
M  V30 20598 H 1853.7 -3.67357 -0.987564 0
M  V30 20599 H 1855.01 -4.75536 -1.50557 0
M  V30 20600 H 1854.16 -4.68062 -3.86009 0
M  V30 20601 H 1852.9 -3.50593 -3.39022 0
M  V30 20602 H 1851.91 -5.18943 -1.81598 0
M  V30 20603 H 1853.13 -6.3848 -2.31343 0
M  V30 20604 H 1851.08 -5.08591 -4.14332 0
M  V30 20605 H 1851 -6.69651 -3.50861 0
M  V30 20606 H 1852.26 -6.27729 -4.62144 0
M  V30 20607 N 1856.49 0.20831 -1.56217 0
M  V30 20608 C 1857.74 0.928839 -1.7904 0
M  V30 20609 C 1858.06 1.84968 -0.636108 0
M  V30 20610 O 1859.26 2.60984 -0.748302 0
M  V30 20611 C 1857.72 1.70192 -3.17116 0
M  V30 20612 C 1857.33 0.826564 -4.40309 0
M  V30 20613 C 1859.07 2.41287 -3.49257 0
M  V30 20614 C 1856.98 1.59775 -5.69408 0
M  V30 20615 H 1855.91 0.350563 -0.667549 0
M  V30 20616 H 1858.56 0.182398 -1.82591 0
M  V30 20617 H 1856.94 2.49176 -3.07778 0
M  V30 20618 H 1858.11 0.076324 -4.60737 0
M  V30 20619 H 1856.43 0.227092 -4.1578 0
M  V30 20620 H 1859.03 2.99511 -4.42942 0
M  V30 20621 H 1859.37 3.14827 -2.72377 0
M  V30 20622 H 1859.9 1.69282 -3.59984 0
M  V30 20623 H 1856.64 0.905384 -6.49217 0
M  V30 20624 H 1856.16 2.32227 -5.5302 0
M  V30 20625 H 1857.84 2.155 -6.10056 0
M  V30 20626 N 1857.97 1.50255 0.475528 0
M  V30 20627 C 1858.92 1.69315 1.59484 0
M  V30 20628 C 1859.91 0.558996 1.59911 0
M  V30 20629 O 1861.12 0.73937 1.64114 0
M  V30 20630 H 1857.49 0.534338 0.529138 0
M  V30 20631 H 1859.47 2.63217 1.40568 0
M  V30 20632 C 1858.21 1.80042 2.97456 0
M  V30 20633 H 1857.54 2.667 2.97844 0
M  V30 20634 H 1858.98 1.97405 3.75243 0
M  V30 20635 C 1857.44 0.551002 3.32364 0
M  V30 20636 O 1857.97 -0.311853 4.00488 0
M  V30 20637 N 1856.17 0.406343 2.87745 0
M  V30 20638 H 1855.72 1.10953 2.32481 0
M  V30 20639 H 1855.68 -0.428483 3.11467 0
M  V30 20640 N 1859.45 -0.728395 1.39758 0
M  V30 20641 C 1860.73 -1.48036 1.27846 0
M  V30 20642 C 1861.11 -2.10818 -0.108996 0
M  V30 20643 O 1860.45 -1.99125 -1.12078 0
M  V30 20644 C 1860.66 -2.52644 2.40774 0
M  V30 20645 C 1862.01 -3.1884 2.80404 0
M  V30 20646 O 1863.04 -2.6296 2.40272 0
M  V30 20647 O 1861.9 -4.19971 3.49696 0
M  V30 20648 H 1858.99 -0.657688 0.501374 0
M  V30 20649 H 1861.54 -0.761658 1.51647 0
M  V30 20650 H 1860.31 -2.04678 3.335 0
M  V30 20651 H 1859.93 -3.32066 2.18674 0
M  V30 20652 N 1860.93 -1.25042 -0.959279 0
M  V30 20653 C 1861.86 -1.00807 -2.05841 0
M  V30 20654 C 1862.87 0.0253938 -1.6278 0
M  V30 20655 O 1864.06 -0.212625 -1.77229 0
M  V30 20656 C 1861.16 -0.501088 -3.35175 0
M  V30 20657 C 1860.33 -1.59964 -4.071 0
M  V30 20658 C 1859.39 -1.09383 -5.14705 0
M  V30 20659 O 1858.42 -1.78728 -5.40412 0
M  V30 20660 N 1859.62 0.0673296 -5.80461 0
M  V30 20661 H 1862.39 -1.95446 -2.27203 0
M  V30 20662 H 1859.95 -1.16185 -1.1275 0
M  V30 20663 H 1861.94 -0.147283 -4.04432 0
M  V30 20664 H 1860.51 0.351241 -3.1062 0
M  V30 20665 H 1859.73 -2.12524 -3.32005 0
M  V30 20666 H 1861.02 -2.3378 -4.51912 0
M  V30 20667 H 1860.42 0.646867 -5.61989 0
M  V30 20668 H 1858.97 0.362206 -6.50793 0
M  V30 20669 N 1862.41 1.16121 -1.06553 0
M  V30 20670 C 1863.35 2.22656 -0.672827 0
M  V30 20671 C 1864.35 1.66492 0.312509 0
M  V30 20672 O 1865.55 1.79127 0.17709 0
M  V30 20673 H 1861.93 0.725064 -0.199464 0
M  V30 20674 H 1863.9 2.53065 -1.58116 0
M  V30 20675 C 1862.65 3.47612 -0.0780782 0
M  V30 20676 H 1861.97 3.91145 -0.82739 0
M  V30 20677 H 1863.41 4.23701 0.159143 0
M  V30 20678 C 1861.87 3.15594 1.17906 0
M  V30 20679 O 1862.4 3.31641 2.26665 0
M  V30 20680 N 1860.61 2.69703 1.08206 0
M  V30 20681 H 1860.15 2.56846 0.196981 0
M  V30 20682 H 1860.11 2.48654 1.92402 0
M  V30 20683 N 1863.88 0.848487 1.3281 0
M  V30 20684 C 1864.83 0.286636 2.29013 0
M  V30 20685 C 1865.8 -0.602944 1.5477 0
M  V30 20686 O 1866.99 -0.539169 1.83024 0
M  V30 20687 C 1864.13 -0.524193 3.41096 0
M  V30 20688 C 1863.24 0.390486 4.30232 0
M  V30 20689 C 1862.37 -0.432376 5.29437 0
M  V30 20690 C 1861.41 0.48009 6.10214 0
M  V30 20691 N 1860.55 -0.30522 7.01436 0
M  V30 20692 H 1865.39 1.1123 2.76463 0
M  V30 20693 H 1862.93 0.559956 1.36025 0
M  V30 20694 H 1864.89 -1.00987 4.04793 0
M  V30 20695 H 1863.52 -1.31474 2.94813 0
M  V30 20696 H 1862.57 0.994518 3.6717 0
M  V30 20697 H 1863.88 1.09103 4.86722 0
M  V30 20698 H 1863.03 -0.981471 5.98709 0
M  V30 20699 H 1861.77 -1.16631 4.73549 0
M  V30 20700 H 1860.78 1.04112 5.39853 0
M  V30 20701 H 1862 1.21254 6.68187 0
M  V30 20702 H 1859.95 -1.02236 6.47984 0
M  V30 20703 H 1859.87 0.336414 7.55251 0
M  V30 20704 H 1861.13 -0.836242 7.75001 0
M  V30 20705 N 1865.36 -1.4549 0.605832 0
M  V30 20706 C 1866.31 -2.27597 -0.13542 0
M  V30 20707 C 1867.3 -1.37219 -0.840222 0
M  V30 20708 O 1868.49 -1.61222 -0.730501 0
M  V30 20709 C 1865.62 -3.24054 -1.1333 0
M  V30 20710 C 1864.7 -4.2192 -0.429427 0
M  V30 20711 N 1865.09 -5.03037 0.527952 0
M  V30 20712 C 1863.39 -4.40829 -0.677207 0
M  V30 20713 C 1864.09 -5.7403 0.941511 0
M  V30 20714 N 1863.07 -5.42849 0.28564 0
M  V30 20715 H 1866.87 -2.87712 0.599924 0
M  V30 20716 H 1864.39 -1.56621 0.429367 0
M  V30 20717 H 1866.38 -3.81608 -1.67872 0
M  V30 20718 H 1865.04 -2.655 -1.86922 0
M  V30 20719 H 1866.05 -5.09938 0.904614 0
M  V30 20720 H 1862.73 -3.93401 -1.39794 0
M  V30 20721 H 1864.12 -6.49219 1.73103 0
M  V30 20722 N 1866.84 -0.344893 -1.5378 0
M  V30 20723 C 1867.77 0.503579 -2.28005 0
M  V30 20724 C 1868.75 1.10149 -1.29619 0
M  V30 20725 O 1869.94 1.12263 -1.58463 0
M  V30 20726 C 1867.07 1.65398 -3.05386 0
M  V30 20727 C 1866.02 1.18434 -4.11288 0
M  V30 20728 C 1865.35 2.42336 -4.76631 0
M  V30 20729 C 1866.65 0.283853 -5.21528 0
M  V30 20730 H 1868.34 -0.115619 -2.99177 0
M  V30 20731 H 1865.89 -0.0570472 -1.43887 0
M  V30 20732 H 1867.84 2.25401 -3.56051 0
M  V30 20733 H 1866.56 2.3001 -2.31869 0
M  V30 20734 H 1865.22 0.607115 -3.61538 0
M  V30 20735 H 1864.87 3.05358 -3.99707 0
M  V30 20736 H 1864.57 2.11594 -5.4818 0
M  V30 20737 H 1866.09 3.03063 -5.3008 0
M  V30 20738 H 1867.51 0.790766 -5.6782 0
M  V30 20739 H 1865.91 0.0682509 -6.00061 0
M  V30 20740 H 1866.98 -0.679653 -4.80113 0
M  V30 20741 N 1868.32 1.57428 -0.0735454 0
M  V30 20742 C 1869.55 1.97596 0.603272 0
M  V30 20743 C 1869.96 0.950716 1.63579 0
M  V30 20744 O 1869.3 -0.0707453 1.83564 0
M  V30 20745 C 1869.36 3.34079 1.32784 0
M  V30 20746 C 1869.03 4.54793 0.448586 0
M  V30 20747 C 1870.02 5.19065 -0.294536 0
M  V30 20748 C 1867.71 5.00914 0.372952 0
M  V30 20749 C 1869.7 6.2781 -1.1015 0
M  V30 20750 C 1867.39 6.09531 -0.437679 0
M  V30 20751 C 1868.39 6.72842 -1.17357 0
M  V30 20752 O 1868.07 7.79367 -1.97083 0
M  V30 20753 H 1867.81 0.654764 0.168108 0
M  V30 20754 H 1870.36 2.04902 -0.143013 0
M  V30 20755 H 1868.59 3.23393 2.12023 0
M  V30 20756 H 1870.28 3.5884 1.89707 0
M  V30 20757 H 1871.05 4.84377 -0.245706 0
M  V30 20758 H 1866.92 4.51411 0.935363 0
M  V30 20759 H 1870.47 6.77158 -1.67639 0
M  V30 20760 H 1866.37 6.43652 -0.488066 0
M  V30 20761 H 1867.13 7.96253 -1.89533 0
M  V30 20762 N 1869.8 -0.200022 1.56326 0
M  V30 20763 C 1870.71 -1.26847 1.9735 0
M  V30 20764 C 1871.72 -1.50081 0.880432 0
M  V30 20765 O 1872.9 -1.62792 1.18578 0
M  V30 20766 C 1869.96 -2.59382 2.30048 0
M  V30 20767 C 1869.02 -2.44262 3.53036 0
M  V30 20768 C 1868.26 -3.70476 3.84165 0
M  V30 20769 O 1868.48 -4.74433 3.16654 0
M  V30 20770 O 1867.41 -3.663 4.77606 0
M  V30 20771 H 1871.24 -0.950324 2.88449 0
M  V30 20772 H 1868.83 -0.404628 1.43816 0
M  V30 20773 H 1870.71 -3.37616 2.52177 0
M  V30 20774 H 1869.38 -2.90833 1.42119 0
M  V30 20775 H 1868.29 -1.64154 3.36161 0
M  V30 20776 H 1869.62 -2.17744 4.41416 0
M  V30 20777 N 1871.27 -1.50505 -0.467553 0
M  V30 20778 C 1872.21 -1.65784 -1.58267 0
M  V30 20779 C 1873.22 -0.539219 -1.53611 0
M  V30 20780 O 1874.41 -0.812524 -1.58935 0
M  V30 20781 C 1871.51 -1.62951 -2.97154 0
M  V30 20782 C 1870.68 -2.90903 -3.26641 0
M  V30 20783 C 1869.74 -2.80665 -4.451 0
M  V30 20784 O 1868.77 -3.5462 -4.45234 0
M  V30 20785 N 1869.97 -1.9446 -5.4696 0
M  V30 20786 H 1872.73 -2.6197 -1.45575 0
M  V30 20787 H 1870.29 -1.48013 -0.656029 0
M  V30 20788 H 1872.29 -1.53709 -3.74373 0
M  V30 20789 H 1870.86 -0.744855 -3.03596 0
M  V30 20790 H 1870.08 -3.14244 -2.38001 0
M  V30 20791 H 1871.36 -3.75663 -3.43155 0
M  V30 20792 H 1870.76 -1.33694 -5.49675 0
M  V30 20793 H 1869.32 -1.9112 -6.2315 0
M  V30 20794 N 1872.75 0.720973 -1.40142 0
M  V30 20795 C 1874 1.4763 -1.37435 0
M  V30 20796 C 1874.31 1.95587 0.0222038 0
M  V30 20797 O 1875.52 2.70955 0.171885 0
M  V30 20798 C 1873.98 2.66828 -2.41517 0
M  V30 20799 C 1873.58 2.25763 -3.86956 0
M  V30 20800 C 1875.33 3.44589 -2.47908 0
M  V30 20801 C 1873.24 3.41768 -4.82648 0
M  V30 20802 H 1872.17 0.554436 -0.510996 0
M  V30 20803 H 1874.82 0.785164 -1.65854 0
M  V30 20804 H 1873.2 3.38086 -2.0619 0
M  V30 20805 H 1874.37 1.61961 -4.31399 0
M  V30 20806 H 1872.69 1.61059 -3.83991 0
M  V30 20807 H 1875.28 4.309 -3.1659 0
M  V30 20808 H 1875.63 3.8803 -1.50792 0
M  V30 20809 H 1876.16 2.80371 -2.822 0
M  V30 20810 H 1872.9 3.03364 -5.81077 0
M  V30 20811 H 1872.42 4.04504 -4.42873 0
M  V30 20812 H 1874.1 4.07909 -5.02214 0
M  V30 20813 N 1874.23 1.25549 0.952634 0
M  V30 20814 C 1875.18 1.06108 2.04963 0
M  V30 20815 C 1876.15 -0.0303872 1.66072 0
M  V30 20816 O 1877.33 0.127178 1.90376 0
M  V30 20817 C 1874.47 0.68799 3.38173 0
M  V30 20818 C 1873.59 1.85452 3.90168 0
M  V30 20819 C 1872.72 1.4256 5.11713 0
M  V30 20820 C 1871.76 2.56115 5.55942 0
M  V30 20821 N 1870.9 2.13984 6.68697 0
M  V30 20822 H 1875.74 1.99991 2.20925 0
M  V30 20823 H 1873.27 0.995895 1.08261 0
M  V30 20824 H 1875.23 0.452622 4.14737 0
M  V30 20825 H 1873.86 -0.213845 3.22091 0
M  V30 20826 H 1872.91 2.20314 3.10106 0
M  V30 20827 H 1874.23 2.70722 4.1894 0
M  V30 20828 H 1873.38 1.15 5.95701 0
M  V30 20829 H 1872.12 0.54365 4.8466 0
M  V30 20830 H 1871.12 2.84417 4.70518 0
M  V30 20831 H 1872.35 3.44891 5.85002 0
M  V30 20832 H 1870.29 1.28208 6.4335 0
M  V30 20833 H 1870.21 2.92801 6.96996 0
M  V30 20834 H 1871.48 1.89605 7.56089 0
M  V30 20835 N 1875.71 -1.15554 1.07168 0
M  V30 20836 C 1876.99 -1.8238 0.706884 0
M  V30 20837 C 1877.37 -1.94906 -0.810848 0
M  V30 20838 O 1876.71 -1.49905 -1.72455 0
M  V30 20839 C 1876.92 -3.18844 1.41913 0
M  V30 20840 C 1878.27 -3.94506 1.57004 0
M  V30 20841 O 1879.3 -3.28392 1.37976 0
M  V30 20842 O 1878.15 -5.13036 1.88297 0
M  V30 20843 H 1875.25 -0.787892 0.251307 0
M  V30 20844 H 1877.79 -1.22681 1.17249 0
M  V30 20845 H 1876.57 -3.04814 2.45365 0
M  V30 20846 H 1876.19 -3.86227 0.944182 0
M  V30 20847 N 1877.19 -0.855519 -1.32358 0
M  V30 20848 C 1878.44 -0.455543 -1.96488 0
M  V30 20849 C 1878.75 0.99419 -1.68449 0
M  V30 20850 O 1879.96 1.49964 -2.26325 0
M  V30 20851 C 1878.41 -0.763678 -3.51704 0
M  V30 20852 C 1878.02 -2.2292 -3.88601 0
M  V30 20853 C 1879.76 -0.431467 -4.22302 0
M  V30 20854 C 1877.67 -2.48051 -5.36866 0
M  V30 20855 H 1876.6 -0.166617 -0.73536 0
M  V30 20856 H 1879.25 -1.04642 -1.50739 0
M  V30 20857 H 1877.63 -0.102224 -3.95868 0
M  V30 20858 H 1878.81 -2.93251 -3.55444 0
M  V30 20859 H 1877.12 -2.52602 -3.31031 0
M  V30 20860 H 1879.72 -0.596641 -5.31361 0
M  V30 20861 H 1880.06 0.62698 -4.11552 0
M  V30 20862 H 1880.6 -1.04885 -3.83724 0
M  V30 20863 H 1877.33 -3.52523 -5.52637 0
M  V30 20864 H 1876.85 -1.82298 -5.71426 0
M  V30 20865 H 1878.53 -2.32044 -6.03957 0
M  V30 20866 N 1878.67 1.45167 -0.61354 0
M  V30 20867 C 1879.63 2.29016 0.0919454 0
M  V30 20868 C 1880.63 1.40091 0.789373 0
M  V30 20869 O 1881.82 1.6215 0.636631 0
M  V30 20870 C 1878.95 3.21257 1.14048 0
M  V30 20871 H 1880.14 2.92875 -0.645317 0
M  V30 20872 H 1877.7 1.51788 -0.372855 0
M  V30 20873 H 1878.43 2.6221 1.90831 0
M  V30 20874 H 1878.22 3.86766 0.644523 0
M  V30 20875 H 1879.71 3.84288 1.63439 0
M  V30 20876 N 1880.14 0.353044 1.53595 0
M  V30 20877 C 1881.08 -0.533833 2.22897 0
M  V30 20878 C 1882.09 -1.05633 1.23877 0
M  V30 20879 O 1883.28 -0.964851 1.50176 0
M  V30 20880 C 1880.38 -1.74842 2.90316 0
M  V30 20881 C 1879.55 -1.35959 4.15733 0
M  V30 20882 C 1878.61 -2.43488 4.66476 0
M  V30 20883 O 1877.64 -2.06399 5.3046 0
M  V30 20884 N 1878.84 -3.74887 4.43216 0
M  V30 20885 H 1881.6 0.0597255 2.9964 0
M  V30 20886 H 1879.16 0.177618 1.60923 0
M  V30 20887 H 1881.16 -2.46228 3.21176 0
M  V30 20888 H 1879.73 -2.24913 2.17101 0
M  V30 20889 H 1878.95 -0.476094 3.91314 0
M  V30 20890 H 1880.23 -1.07592 4.97294 0
M  V30 20891 H 1879.63 -4.07801 3.92064 0
M  V30 20892 H 1878.19 -4.42415 4.78657 0
M  V30 20893 N 1881.62 -1.57387 0.0818932 0
M  V30 20894 C 1883.03 -1.81214 -0.449254 0
M  V30 20895 C 1883.38 -0.996563 -1.69006 0
M  V30 20896 O 1882.51 -0.22203 -2.15258 0
M  V30 20897 C 1883.1 -3.28681 -0.821827 0
M  V30 20898 C 1881.66 -3.53319 -1.29779 0
M  V30 20899 C 1880.81 -2.75801 -0.287911 0
M  V30 20900 H 1883.76 -1.55693 0.307486 0
M  V30 20901 H 1883.78 -3.41283 -1.68245 0
M  V30 20902 H 1883.29 -3.88015 0.081441 0
M  V30 20903 H 1881.39 -2.99302 -2.21921 0
M  V30 20904 H 1881.51 -4.61996 -1.26874 0
M  V30 20905 H 1879.87 -2.42867 -0.76731 0
M  V30 20906 H 1880.65 -3.37877 0.607805 0
M  V30 20907 N 1883.1 0.191729 -1.56429 0
M  V30 20908 C 1884.51 0.756099 -1.70705 0
M  V30 20909 C 1884.86 1.83703 -0.689029 0
M  V30 20910 O 1883.99 2.15852 0.153863 0
M  V30 20911 C 1884.58 1.37827 -3.09498 0
M  V30 20912 C 1883.14 1.88968 -3.25527 0
M  V30 20913 C 1882.29 0.76089 -2.66657 0
M  V30 20914 H 1885.24 -0.0333918 -1.58665 0
M  V30 20915 H 1885.26 2.24771 -3.07015 0
M  V30 20916 H 1884.77 0.591316 -3.83569 0
M  V30 20917 H 1882.87 2.70372 -2.56378 0
M  V30 20918 H 1882.99 2.04916 -4.33066 0
M  V30 20919 H 1881.35 1.17606 -2.25923 0
M  V30 20920 H 1882.13 -0.0138776 -3.43297 0
M  V30 20921 N 1884.58 1.50751 0.459565 0
M  V30 20922 C 1885.82 1.62556 1.21258 0
M  V30 20923 C 1886.16 0.330265 1.91371 0
M  V30 20924 O 1885.43 -0.668955 1.82634 0
M  V30 20925 C 1885.71 2.8138 2.24716 0
M  V30 20926 C 1885.57 4.20823 1.58832 0
M  V30 20927 C 1886.89 2.95744 3.2592 0
M  V30 20928 H 1884.01 0.591628 0.439483 0
M  V30 20929 H 1886.65 1.83172 0.504777 0
M  V30 20930 H 1884.8 2.63933 2.85082 0
M  V30 20931 H 1886.47 4.49888 1.01975 0
M  V30 20932 H 1884.71 4.24548 0.891148 0
M  V30 20933 H 1885.38 4.99915 2.3407 0
M  V30 20934 H 1887.86 3.11754 2.75588 0
M  V30 20935 H 1886.74 3.80488 3.95626 0
M  V30 20936 H 1887 2.06852 3.90723 0
M  V30 20937 N 1886.06 -0.713531 1.40522 0
M  V30 20938 C 1887 -1.84894 1.41127 0
M  V30 20939 C 1888 -1.66873 0.291521 0
M  V30 20940 O 1889.2 -1.73952 0.46266 0
M  V30 20941 H 1885.58 -0.608985 0.441182 0
M  V30 20942 H 1887.55 -1.815 2.36855 0
M  V30 20943 C 1886.3 -3.22774 1.29276 0
M  V30 20944 H 1885.62 -3.37248 2.14718 0
M  V30 20945 H 1887.06 -4.02349 1.33759 0
M  V30 20946 C 1885.52 -3.369 0.00320525 0
M  V30 20947 O 1886.05 -3.90086 -0.958942 0
M  V30 20948 N 1884.26 -2.90523 -0.0669733 0
M  V30 20949 H 1883.8 -2.47428 0.716722 0
M  V30 20950 H 1883.76 -3.00353 -0.929262 0
M  V30 20951 N 1887.53 -1.26053 -0.945962 0
M  V30 20952 C 1888.78 -1.11315 -1.69161 0
M  V30 20953 C 1889.11 0.34437 -1.91427 0
M  V30 20954 O 1888.36 1.26968 -1.48921 0
M  V30 20955 C 1888.66 -1.8222 -3.07459 0
M  V30 20956 C 1888.33 -3.32126 -3.04964 0
M  V30 20957 C 1886.99 -3.73019 -3.03991 0
M  V30 20958 C 1889.34 -4.2786 -2.97633 0
M  V30 20959 C 1886.67 -5.08041 -2.93446 0
M  V30 20960 C 1889.02 -5.62917 -2.88631 0
M  V30 20961 C 1887.69 -6.03127 -2.85998 0
M  V30 20962 H 1886.96 -0.407329 -0.619002 0
M  V30 20963 H 1889.6 -1.56435 -1.10454 0
M  V30 20964 H 1887.91 -1.29554 -3.69761 0
M  V30 20965 H 1889.61 -1.68261 -3.63991 0
M  V30 20966 H 1886.2 -2.99594 -3.06498 0
M  V30 20967 H 1890.38 -3.97252 -2.97497 0
M  V30 20968 H 1885.64 -5.38364 -2.89782 0
M  V30 20969 H 1889.81 -6.36784 -2.81921 0
M  V30 20970 H 1887.44 -7.07709 -2.77583 0
M  V30 20971 N 1889.01 1.14984 -1.07779 0
M  V30 20972 C 1889.94 2.19494 -0.659934 0
M  V30 20973 C 1890.96 1.60201 0.289756 0
M  V30 20974 O 1892.15 1.78328 0.0784004 0
M  V30 20975 C 1889.25 3.38862 0.0506161 0
M  V30 20976 C 1888.42 4.27693 -0.916355 0
M  V30 20977 C 1887.48 5.25642 -0.242303 0
M  V30 20978 O 1886.5 5.62282 -0.884715 0
M  V30 20979 N 1887.71 5.7164 1.01033 0
M  V30 20980 H 1890.47 2.5596 -1.55899 0
M  V30 20981 H 1888.03 1.30143 -0.963043 0
M  V30 20982 H 1890.02 4.01444 0.512331 0
M  V30 20983 H 1888.59 3.00775 0.851671 0
M  V30 20984 H 1887.81 3.62145 -1.55708 0
M  V30 20985 H 1889.1 4.83913 -1.57182 0
M  V30 20986 H 1888.5 5.43991 1.55212 0
M  V30 20987 H 1887.06 6.36241 1.41565 0
M  V30 20988 N 1890.49 0.862526 1.31902 0
M  V30 20989 C 1891.44 0.301807 2.30634 0
M  V30 20990 C 1892.43 -0.579086 1.59195 0
M  V30 20991 O 1893.64 -0.466014 1.73863 0
M  V30 20992 H 1890.01 0.078905 0.747849 0
M  V30 20993 H 1891.98 1.1486 2.75408 0
M  V30 20994 C 1890.73 -0.48822 3.44255 0
M  V30 20995 H 1890.06 0.18033 3.99393 0
M  V30 20996 H 1891.5 -0.846013 4.15474 0
M  V30 20997 C 1889.95 -1.67656 2.92221 0
M  V30 20998 O 1890.48 -2.77577 2.90369 0
M  V30 20999 N 1888.69 -1.50622 2.48518 0
M  V30 21000 H 1888.24 -0.612021 2.50224 0
M  V30 21001 H 1888.2 -2.30275 2.14058 0
M  V30 21002 N 1891.97 -1.4484 0.62123 0
M  V30 21003 C 1893.25 -1.95528 0.0531511 0
M  V30 21004 C 1893.63 -1.56342 -1.41846 0
M  V30 21005 O 1892.97 -0.832621 -2.1279 0
M  V30 21006 C 1893.18 -3.47988 0.2656 0
M  V30 21007 C 1894.53 -4.24322 0.153573 0
M  V30 21008 O 1895.56 -3.55658 0.19644 0
M  V30 21009 O 1894.41 -5.46477 0.05015 0
M  V30 21010 H 1891.51 -0.826527 -0.0279665 0
M  V30 21011 H 1894.05 -1.54939 0.692243 0
M  V30 21012 H 1892.83 -3.69525 1.28713 0
M  V30 21013 H 1892.45 -3.955 -0.408105 0
M  V30 21014 N 1893.45 -0.361184 -1.53405 0
M  V30 21015 C 1894.38 0.522004 -2.23177 0
M  V30 21016 C 1895.39 1.04974 -1.24436 0
M  V30 21017 O 1896.58 0.956873 -1.50686 0
M  V30 21018 C 1893.68 1.733 -2.91239 0
M  V30 21019 C 1892.85 1.33752 -4.16448 0
M  V30 21020 C 1891.91 2.4101 -4.67761 0
M  V30 21021 O 1890.94 2.03583 -5.31547 0
M  V30 21022 N 1892.14 3.72531 -4.45198 0
M  V30 21023 H 1894.91 -0.0756154 -2.99605 0
M  V30 21024 H 1892.47 -0.18615 -1.60826 0
M  V30 21025 H 1894.46 2.44522 -3.22477 0
M  V30 21026 H 1893.03 2.23759 -2.18291 0
M  V30 21027 H 1892.25 0.455335 -3.91561 0
M  V30 21028 H 1893.54 1.04953 -4.97858 0
M  V30 21029 H 1892.93 4.05716 -3.94222 0
M  V30 21030 H 1891.49 4.3987 -4.80997 0
M  V30 21031 N 1894.92 1.57341 -0.0902386 0
M  V30 21032 C 1895.87 2.14982 0.887997 0
M  V30 21033 C 1896.87 1.09142 1.29555 0
M  V30 21034 O 1898.07 1.27494 1.27064 0
M  V30 21035 H 1894.45 0.687648 0.304376 0
M  V30 21036 H 1896.42 2.96008 0.377094 0
M  V30 21037 C 1895.17 2.74101 2.13925 0
M  V30 21038 H 1894.49 3.55226 1.83452 0
M  V30 21039 H 1895.93 3.18007 2.80442 0
M  V30 21040 C 1894.39 1.69757 2.91005 0
M  V30 21041 O 1894.92 1.13359 3.85373 0
M  V30 21042 N 1893.13 1.40362 2.54454 0
M  V30 21043 H 1892.67 1.86414 1.77785 0
M  V30 21044 H 1892.63 0.707837 3.06328 0
M  V30 21045 N 1896.4 -0.183431 1.56529 0
M  V30 21046 C 1897.63 -0.921964 1.85781 0
M  V30 21047 C 1898.05 -1.75564 0.675184 0
M  V30 21048 O 1897.41 -1.7736 -0.375913 0
M  V30 21049 C 1897.46 -1.7844 3.13355 0
M  V30 21050 O 1896.56 -2.88461 2.94727 0
M  V30 21051 H 1895.9 -0.258974 0.611415 0
M  V30 21052 H 1898.43 -0.185225 2.0376 0
M  V30 21053 H 1898.44 -2.18675 3.44449 0
M  V30 21054 H 1897.12 -1.17195 3.99047 0
M  V30 21055 H 1895.7 -2.51897 2.74959 0
M  V30 21056 N 1897.88 -1.50992 -0.451564 0
M  V30 21057 C 1898.83 -1.71831 -1.5677 0
M  V30 21058 C 1899.82 -0.584366 -1.59002 0
M  V30 21059 O 1901.03 -0.765385 -1.62917 0
M  V30 21060 H 1897.4 -0.542689 -0.52057 0
M  V30 21061 H 1899.37 -2.6542 -1.36363 0
M  V30 21062 C 1898.12 -1.84752 -2.94554 0
M  V30 21063 H 1897.45 -2.71405 -2.93563 0
M  V30 21064 H 1898.89 -2.0335 -3.72055 0
M  V30 21065 C 1897.35 -0.603808 -3.31445 0
M  V30 21066 O 1897.88 0.248099 -4.00933 0
M  V30 21067 N 1896.08 -0.452069 -2.87062 0
M  V30 21068 H 1895.63 -1.14638 -2.30686 0
M  V30 21069 H 1895.59 0.378877 -3.12109 0
M  V30 21070 N 1899.36 0.706069 -1.40899 0
M  V30 21071 C 1900.59 1.49504 -1.43025 0
M  V30 21072 C 1901 1.88772 -0.0325752 0
M  V30 21073 O 1900.36 1.56085 0.945716 0
M  V30 21074 C 1900.41 2.76431 -2.32955 0
M  V30 21075 O 1900.13 2.38821 -3.67282 0
M  V30 21076 C 1901.63 3.70255 -2.43774 0
M  V30 21077 H 1898.85 0.461069 -0.4875 0
M  V30 21078 H 1901.4 0.870198 -1.85062 0
M  V30 21079 H 1899.55 3.35177 -1.94255 0
M  V30 21080 H 1899.96 3.2056 -4.1514 0
M  V30 21081 H 1901.44 4.56129 -3.10887 0
M  V30 21082 H 1901.92 4.14021 -1.46573 0
M  V30 21083 H 1902.52 3.17417 -2.83066 0
M  V30 21084 N 1900.84 1.26553 0.939264 0
M  V30 21085 C 1902.08 1.1221 1.68568 0
M  V30 21086 C 1902.41 -0.334213 1.91607 0
M  V30 21087 O 1901.67 -1.26177 1.49593 0
M  V30 21088 C 1901.97 1.83848 3.06488 0
M  V30 21089 C 1901.63 3.33739 3.03198 0
M  V30 21090 C 1900.29 3.74626 3.02008 0
M  V30 21091 C 1902.65 4.29432 2.9536 0
M  V30 21092 C 1899.97 5.0959 2.90748 0
M  V30 21093 C 1902.33 5.64439 2.85641 0
M  V30 21094 C 1900.99 6.04635 2.82795 0
M  V30 21095 H 1900.26 0.410606 0.616833 0
M  V30 21096 H 1902.91 1.57019 1.09623 0
M  V30 21097 H 1901.21 1.31514 3.69068 0
M  V30 21098 H 1902.91 1.70189 3.63093 0
M  V30 21099 H 1899.5 3.01216 3.04905 0
M  V30 21100 H 1903.68 3.98824 2.95386 0
M  V30 21101 H 1898.94 5.39894 2.86923 0
M  V30 21102 H 1903.11 6.3827 2.7854 0
M  V30 21103 H 1900.74 7.09171 2.73826 0
M  V30 21104 N 1902.31 -1.14411 1.08387 0
M  V30 21105 C 1903.59 -1.8162 0.726188 0
M  V30 21106 C 1903.97 -1.95755 -0.790129 0
M  V30 21107 O 1903.32 -1.51725 -1.70856 0
M  V30 21108 C 1903.53 -3.17321 1.45287 0
M  V30 21109 C 1904.88 -3.92818 1.6118 0
M  V30 21110 O 1905.9 -3.2691 1.41451 0
M  V30 21111 O 1904.76 -5.1101 1.93728 0
M  V30 21112 H 1901.85 -0.785182 0.25965 0
M  V30 21113 H 1904.4 -1.21431 1.18544 0
M  V30 21114 H 1903.17 -3.02195 2.48584 0
M  V30 21115 H 1902.8 -3.85203 0.985093 0
M  V30 21116 N 1903.79 -0.869509 -1.31443 0
M  V30 21117 C 1905.04 -0.480214 -1.96724 0
M  V30 21118 C 1905.37 0.967405 -1.68735 0
M  V30 21119 O 1904.62 1.69616 -0.976162 0
M  V30 21120 C 1904.92 -0.683486 -3.50804 0
M  V30 21121 C 1904.59 -2.10382 -3.98811 0
M  V30 21122 C 1903.25 -2.49226 -4.11631 0
M  V30 21123 C 1905.6 -3.03015 -4.24065 0
M  V30 21124 C 1902.93 -3.79944 -4.47057 0
M  V30 21125 C 1905.28 -4.33248 -4.60954 0
M  V30 21126 C 1903.95 -4.72006 -4.71982 0
M  V30 21127 H 1903.22 -0.175723 -0.719863 0
M  V30 21128 H 1905.86 -1.10241 -1.56586 0
M  V30 21129 H 1904.17 0.0218481 -3.91794 0
M  V30 21130 H 1905.86 -0.362105 -3.99362 0
M  V30 21131 H 1902.45 -1.79225 -3.89328 0
M  V30 21132 H 1906.64 -2.74232 -4.13655 0
M  V30 21133 H 1901.89 -4.09736 -4.53792 0
M  V30 21134 H 1906.07 -5.05077 -4.79448 0
M  V30 21135 H 1903.7 -5.73337 -4.99188 0
M  V30 21136 N 1905.27 1.44508 -0.628902 0
M  V30 21137 C 1906.55 1.95497 -0.0635197 0
M  V30 21138 C 1906.93 1.57092 1.41015 0
M  V30 21139 O 1906.28 0.843894 2.12346 0
M  V30 21140 C 1906.49 3.47842 -0.284051 0
M  V30 21141 C 1907.83 4.24235 -0.176073 0
M  V30 21142 O 1908.86 3.55549 -0.215298 0
M  V30 21143 O 1907.72 5.46443 -0.0791303 0
M  V30 21144 H 1904.81 0.826664 0.0235829 0
M  V30 21145 H 1907.36 1.5457 -0.70045 0
M  V30 21146 H 1906.13 3.68837 -1.30671 0
M  V30 21147 H 1905.75 3.95711 0.387125 0
M  V30 21148 N 1906.75 0.369315 1.53212 0
M  V30 21149 C 1907.98 -0.219858 2.05729 0
M  V30 21150 C 1908.39 -1.42148 1.24255 0
M  V30 21151 O 1907.75 -1.80274 0.284146 0
M  V30 21152 C 1907.8 -0.609683 3.56322 0
M  V30 21153 O 1907.52 0.544184 4.34707 0
M  V30 21154 C 1909.02 -1.25685 4.2511 0
M  V30 21155 H 1906.24 -0.037867 0.669931 0
M  V30 21156 H 1908.79 0.528765 1.97546 0
M  V30 21157 H 1906.94 -1.30822 3.64643 0
M  V30 21158 H 1907.36 0.228276 5.24003 0
M  V30 21159 H 1908.83 -1.48014 5.31785 0
M  V30 21160 H 1909.31 -2.21827 3.79064 0
M  V30 21161 H 1909.91 -0.59964 4.21052 0
M  V30 21162 N 1908.23 -1.57291 0.0985816 0
M  V30 21163 C 1909.5 -1.85951 -0.606759 0
M  V30 21164 C 1909.88 -0.996077 -1.86122 0
M  V30 21165 O 1909.23 -0.0694281 -2.28394 0
M  V30 21166 C 1909.44 -3.36688 -0.918803 0
M  V30 21167 C 1910.79 -4.04824 -1.28074 0
M  V30 21168 O 1911.81 -3.41589 -1.00971 0
M  V30 21169 O 1910.67 -5.16406 -1.7885 0
M  V30 21170 H 1907.77 -0.769103 -0.30399 0
M  V30 21171 H 1910.31 -1.69189 0.131543 0
M  V30 21172 H 1909.09 -3.91289 -0.0289848 0
M  V30 21173 H 1908.71 -3.58808 -1.71296 0
M  V30 21174 N 1909.71 0.175127 -1.56624 0
M  V30 21175 C 1910.62 1.23691 -1.99343 0
M  V30 21176 C 1911.63 1.48662 -0.904197 0
M  V30 21177 O 1912.81 1.60885 -1.21153 0
M  V30 21178 C 1909.87 2.55689 -2.34145 0
M  V30 21179 C 1908.93 2.38614 -3.56878 0
M  V30 21180 C 1908.17 3.64318 -3.9001 0
M  V30 21181 O 1908.39 4.69335 -3.24162 0
M  V30 21182 O 1907.32 3.58655 -4.83373 0
M  V30 21183 H 1911.15 0.904314 -2.89924 0
M  V30 21184 H 1908.73 0.381697 -1.44442 0
M  V30 21185 H 1910.62 3.33562 -2.57516 0
M  V30 21186 H 1909.29 2.88535 -1.46728 0
M  V30 21187 H 1908.2 1.58786 -3.3873 0
M  V30 21188 H 1909.53 2.10694 -4.44825 0
M  V30 21189 N 1911.18 1.5123 0.44355 0
M  V30 21190 C 1912.11 1.75038 1.54544 0
M  V30 21191 C 1913.09 0.600017 1.59166 0
M  V30 21192 O 1914.28 0.842082 1.74993 0
M  V30 21193 C 1911.41 1.86976 2.92673 0
M  V30 21194 C 1910.36 3.0237 3.02913 0
M  V30 21195 C 1909.69 2.99483 4.4296 0
M  V30 21196 C 1910.99 4.4244 2.77569 0
M  V30 21197 H 1912.68 2.67301 1.34872 0
M  V30 21198 H 1910.23 1.28627 0.647395 0
M  V30 21199 H 1912.18 2.02215 3.69712 0
M  V30 21200 H 1910.91 0.913563 3.13563 0
M  V30 21201 H 1909.57 2.86826 2.28312 0
M  V30 21202 H 1909.21 2.01654 4.60809 0
M  V30 21203 H 1908.91 3.76968 4.50743 0
M  V30 21204 H 1910.44 3.16808 5.21982 0
M  V30 21205 H 1911.85 4.58367 3.44344 0
M  V30 21206 H 1910.25 5.21583 2.96768 0
M  V30 21207 H 1911.32 4.52906 1.73218 0
M  V30 21208 O 1912.7 -0.589273 1.50366 0
M  V30 21209 H 1913.39 -1.24414 1.48462 0
M  V30 END ATOM
M  V30 BEGIN BOND
M  V30 END BOND
M  V30 END CTAB
M  END
$$$$
