drugbank_target|O77323 T-complex protein 1 subunit eta (DB11638)
 OpenBabel12092121113D

  0  0  0     0  0            999 V3000
M  V30 BEGIN CTAB
M  V30 COUNTS 8428 8482 0 0 0
M  V30 BEGIN ATOM
M  V30 1 H -0.908 1.98254 -0.117106 0
M  V30 2 N 0 1.576 0 0
M  V30 3 C 0.933 2.03868 1.02534 0
M  V30 4 C 1.911 0.928543 1.3348 0
M  V30 5 O 3.095 1.19667 1.45644 0
M  V30 6 C 0.222 2.43627 2.35294 0
M  V30 7 C -0.732 3.65373 2.2001 0
M  V30 8 S 0.101 5.13292 1.52614 0
M  V30 9 C 1.257 5.56322 2.86805 0
M  V30 10 H 1.49 2.90518 0.631377 0
M  V30 11 H -0.977 1.52953 0.210867 0
M  V30 12 H 0.981 2.67203 3.11629 0
M  V30 13 H -0.358 1.57376 2.7183 0
M  V30 14 H -1.165 3.90944 3.18086 0
M  V30 15 H -1.563 3.418 1.51819 0
M  V30 16 H 0.729 5.58782 3.83104 0
M  V30 17 H 1.672 6.56266 2.65933 0
M  V30 18 H 2.08 4.83886 2.90714 0
M  V30 19 N 1.4781 -0.272755 1.55222 0
M  V30 20 C 2.7031 -1.02683 1.80197 0
M  V30 21 C 3.1281 -1.79142 0.573551 0
M  V30 22 O 2.4861 -1.74917 -0.476849 0
M  V30 23 C 2.5341 -1.9609 3.02624 0
M  V30 24 O 1.6381 -3.04863 2.77727 0
M  V30 25 H 0.9791 -0.293557 0.595584 0
M  V30 26 H 3.5091 -0.30159 2.02365 0
M  V30 27 H 3.5191 -2.38039 3.31363 0
M  V30 28 H 2.1941 -1.39851 3.91682 0
M  V30 29 H 0.7711 -2.67228 2.60084 0
M  V30 30 N 2.9562 -1.48159 -0.537278 0
M  V30 31 C 3.9062 -1.5854 -1.63857 0
M  V30 32 C 4.8902 -0.442969 -1.54682 0
M  V30 33 O 6.0822 -0.69401 -1.62827 0
M  V30 34 C 3.2112 -1.62144 -3.02596 0
M  V30 35 C 2.2972 -2.81841 -3.16901 0
M  V30 36 N 2.6882 -4.06337 -3.01204 0
M  V30 37 C 0.9862 -2.79021 -3.47942 0
M  V30 38 C 1.6872 -4.86606 -3.18731 0
M  V30 39 N 0.6632 -4.19288 -3.45974 0
M  V30 40 H 4.4652 -2.5255 -1.50319 0
M  V30 41 H 1.9792 -1.4443 -0.742555 0
M  V30 42 H 3.9762 -1.67674 -3.81695 0
M  V30 43 H 2.6362 -0.69245 -3.17231 0
M  V30 44 H 3.6472 -4.36888 -2.78117 0
M  V30 45 H 0.3242 -1.95347 -3.6898 0
M  V30 46 H 1.7142 -5.95385 -3.11394 0
M  V30 47 N 4.4343 0.785586 -1.36625 0
M  V30 48 C 5.3643 1.91259 -1.33949 0
M  V30 49 C 6.3453 1.68795 -0.210325 0
M  V30 50 O 7.5303 1.89854 -0.408561 0
M  V30 51 C 4.6603 3.28339 -1.13186 0
M  V30 52 C 3.6143 3.65335 -2.22967 0
M  V30 53 C 2.9403 5.00806 -1.87342 0
M  V30 54 C 4.2403 3.7352 -3.65075 0
M  V30 55 H 5.9343 1.93755 -2.28253 0
M  V30 56 H 3.4803 0.930788 -1.09874 0
M  V30 57 H 5.4333 4.06804 -1.09948 0
M  V30 58 H 4.1573 3.2624 -0.153332 0
M  V30 59 H 2.8163 2.89169 -2.25337 0
M  V30 60 H 2.4643 4.95233 -0.880545 0
M  V30 61 H 2.1643 5.26529 -2.60846 0
M  V30 62 H 3.6883 5.81687 -1.85667 0
M  V30 63 H 5.1023 4.42168 -3.64911 0
M  V30 64 H 3.4993 4.10731 -4.37516 0
M  V30 65 H 4.5693 2.74527 -3.99703 0
M  V30 66 N 5.9124 1.20967 1.01018 0
M  V30 67 C 6.8454 0.907578 2.09376 0
M  V30 68 C 7.8234 -0.142868 1.61971 0
M  V30 69 O 9.0074 -0.0150391 1.88494 0
M  V30 70 C 6.1344 0.361791 3.36762 0
M  V30 71 C 5.1804 1.39423 4.03068 0
M  V30 72 S 6.0134 2.96159 4.4615 0
M  V30 73 C 7.1694 2.43173 5.7673 0
M  V30 74 H 7.4024 1.82519 2.34678 0
M  V30 75 H 4.9354 1.03884 1.14225 0
M  V30 76 H 6.8934 0.0534523 4.10465 0
M  V30 77 H 5.5544 -0.53443 3.0952 0
M  V30 78 H 4.7474 0.961853 4.94737 0
M  V30 79 H 4.3494 1.65038 3.35617 0
M  V30 80 H 6.6414 1.83335 6.52223 0
M  V30 81 H 7.5844 3.33264 6.24773 0
M  V30 82 H 7.9924 1.85069 5.33301 0
M  V30 83 N 7.3905 -1.2043 1.01659 0
M  V30 84 C 8.6155 -1.94318 0.724942 0
M  V30 85 C 9.0405 -1.74266 -0.708034 0
M  V30 86 O 8.3985 -1.03694 -1.48719 0
M  V30 87 C 8.4465 -3.44486 1.06591 0
M  V30 88 O 7.5505 -4.12017 0.177599 0
M  V30 89 H 6.8915 -0.60708 0.26898 0
M  V30 90 H 9.4215 -1.52861 1.35995 0
M  V30 91 H 9.4315 -3.95106 1.01762 0
M  V30 92 H 8.1065 -3.58404 2.10997 0
M  V30 93 H 6.6835 -3.71821 0.283421 0
M  V30 94 N 8.8686 -0.792821 -1.36206 0
M  V30 95 C 9.7986 -0.207853 -2.32573 0
M  V30 96 C 10.7796 0.659055 -1.56813 0
M  V30 97 O 11.9646 0.592176 -1.84951 0
M  V30 98 C 9.0946 0.655449 -3.41059 0
M  V30 99 C 8.0486 -0.111842 -4.27854 0
M  V30 100 C 7.3746 0.872274 -5.27537 0
M  V30 101 C 8.6746 -1.30299 -5.05786 0
M  V30 102 H 10.3686 -1.01294 -2.81744 0
M  V30 103 H 7.9146 -0.48854 -1.3546 0
M  V30 104 H 9.8676 1.07464 -4.07467 0
M  V30 105 H 8.5916 1.49328 -2.90463 0
M  V30 106 H 7.2506 -0.512053 -3.63006 0
M  V30 107 H 6.8986 1.70523 -4.73214 0
M  V30 108 H 6.5986 0.363291 -5.86476 0
M  V30 109 H 8.1226 1.28996 -5.96818 0
M  V30 110 H 9.5366 -0.959379 -5.65216 0
M  V30 111 H 7.9336 -1.7455 -5.74154 0
M  V30 112 H 9.0036 -2.09663 -4.37229 0
M  V30 113 N 10.3467 1.47872 -0.545128 0
M  V30 114 C 11.7577 1.86384 -0.108581 0
M  V30 115 C 12.1087 1.45309 1.31832 0
M  V30 116 O 11.2337 0.850641 1.9898 0
M  V30 117 C 11.8287 3.38265 -0.190274 0
M  V30 118 C 10.3877 3.75914 0.191164 0
M  V30 119 C 9.5347 2.71926 -0.543273 0
M  V30 120 H 12.4857 1.39561 -0.755537 0
M  V30 121 H 12.5067 3.75831 0.594217 0
M  V30 122 H 12.0187 3.6813 -1.2289 0
M  V30 123 H 10.1197 3.51665 1.23136 0
M  V30 124 H 10.2327 4.78836 -0.158987 0
M  V30 125 H 8.5967 2.54697 0.0122495 0
M  V30 126 H 9.3797 3.04634 -1.58282 0
M  V30 127 N 11.8248 0.280983 1.55075 0
M  V30 128 C 13.0738 -0.334784 1.98902 0
M  V30 129 C 13.3868 -1.56534 1.17288 0
M  V30 130 O 14.5928 -2.25443 1.51287 0
M  V30 131 C 13.0488 -0.646994 3.54037 0
M  V30 132 C 12.6568 0.564085 4.44435 0
M  V30 133 C 14.4008 -1.22506 4.06439 0
M  V30 134 C 12.3078 0.226137 5.90967 0
M  V30 135 H 11.2378 -0.128866 0.742906 0
M  V30 136 H 13.8888 0.386556 1.79382 0
M  V30 137 H 12.2708 -1.42739 3.6938 0
M  V30 138 H 13.4448 1.34082 4.40861 0
M  V30 139 H 11.7598 1.0594 4.02698 0
M  V30 140 H 14.3568 -1.49182 5.13468 0
M  V30 141 H 14.6998 -2.16085 3.55827 0
M  V30 142 H 15.2328 -0.50682 3.94558 0
M  V30 143 H 11.9718 1.12996 6.45687 0
M  V30 144 H 11.4918 -0.513717 5.97596 0
M  V30 145 H 13.1708 -0.179539 6.46751 0
M  V30 146 N 13.3029 -1.57598 0.00835791 0
M  V30 147 C 14.5489 -1.91211 -0.675732 0
M  V30 148 C 14.8819 -0.883139 -1.72958 0
M  V30 149 O 14.1569 0.097016 -1.94258 0
M  V30 150 C 14.4399 -3.35379 -1.31123 0
M  V30 151 C 14.2929 -4.48999 -0.268356 0
M  V30 152 C 15.6119 -3.7912 -2.23508 0
M  V30 153 H 12.7309 -0.695374 -0.244179 0
M  V30 154 H 15.3729 -1.89901 0.0613655 0
M  V30 155 H 13.5229 -3.36626 -1.93946 0
M  V30 156 H 15.1949 -4.59887 0.360844 0
M  V30 157 H 13.4379 -4.31873 0.408482 0
M  V30 158 H 14.1089 -5.46851 -0.752218 0
M  V30 159 H 16.5849 -3.79477 -1.70693 0
M  V30 160 H 15.4609 -4.80729 -2.64936 0
M  V30 161 H 15.7219 -3.13455 -3.11766 0
M  V30 162 N 14.781 0.264519 -1.55364 0
M  V30 163 C 15.711 1.33121 -1.91836 0
M  V30 164 C 16.692 1.51101 -0.781192 0
M  V30 165 O 17.877 1.64003 -1.04003 0
M  V30 166 C 15.007 2.68921 -2.19769 0
M  V30 167 C 13.961 2.65661 -3.35571 0
M  V30 168 C 13.287 4.05093 -3.49004 0
M  V30 169 C 14.587 2.24187 -4.71739 0
M  V30 170 H 16.281 1.02844 -2.81182 0
M  V30 171 H 13.827 0.493286 -1.35287 0
M  V30 172 H 15.78 3.43663 -2.43872 0
M  V30 173 H 14.504 3.00799 -1.27231 0
M  V30 174 H 13.163 1.93377 -3.1145 0
M  V30 175 H 12.811 4.34206 -2.53917 0
M  V30 176 H 12.511 4.03804 -4.26868 0
M  V30 177 H 14.035 4.81561 -3.75408 0
M  V30 178 H 15.449 2.88654 -4.9533 0
M  V30 179 H 13.846 2.34044 -5.52579 0
M  V30 180 H 14.916 1.19327 -4.69988 0
M  V30 181 N 16.2591 1.48442 0.529413 0
M  V30 182 C 17.1891 1.65902 1.64313 0
M  V30 183 C 18.1701 0.507897 1.6234 0
M  V30 184 O 19.3551 0.740503 1.79528 0
M  V30 185 C 16.4851 1.69911 3.02898 0
M  V30 186 C 15.4391 2.8453 3.19729 0
M  V30 187 C 14.7651 2.73629 4.59381 0
M  V30 188 C 16.0651 4.25821 3.02447 0
M  V30 189 H 17.7591 2.5914 1.49955 0
M  V30 190 H 15.3051 1.24709 0.719982 0
M  V30 191 H 17.2581 1.80715 3.80684 0
M  V30 192 H 15.9821 0.732524 3.18279 0
M  V30 193 H 14.6411 2.73283 2.44361 0
M  V30 194 H 14.2891 1.74938 4.71599 0
M  V30 195 H 13.9891 3.50541 4.71588 0
M  V30 196 H 15.5131 2.86401 5.39265 0
M  V30 197 H 16.9271 4.37898 3.70024 0
M  V30 198 H 15.3241 5.03735 3.26146 0
M  V30 199 H 16.3941 4.42244 1.98867 0
M  V30 200 N 17.7372 -0.778329 1.37039 0
M  V30 201 C 18.6842 -1.89139 1.32269 0
M  V30 202 C 19.6542 -1.65017 0.189387 0
M  V30 203 O 20.8392 -1.87024 0.377693 0
M  V30 204 C 17.9792 -3.26112 1.12894 0
M  V30 205 C 17.0922 -3.62233 2.35396 0
M  V30 206 C 16.2272 -4.8838 2.08946 0
M  V30 207 C 15.2662 -5.17212 3.2735 0
M  V30 208 N 14.4032 -6.34546 3.00492 0
M  V30 209 H 19.2432 -1.92552 2.27437 0
M  V30 210 H 16.7802 -0.941473 1.13025 0
M  V30 211 H 18.7382 -4.05116 0.996835 0
M  V30 212 H 17.3682 -3.22091 0.213758 0
M  V30 213 H 16.4202 -2.78265 2.5937 0
M  V30 214 H 17.7322 -3.79481 3.23721 0
M  V30 215 H 16.8862 -5.75274 1.92729 0
M  V30 216 H 15.6252 -4.73222 1.17949 0
M  V30 217 H 14.6302 -4.28796 3.44113 0
M  V30 218 H 15.8552 -5.34283 4.19188 0
M  V30 219 H 13.8012 -6.20759 2.12118 0
M  V30 220 H 13.7182 -6.52179 3.82358 0
M  V30 221 H 14.9862 -7.24394 2.87879 0
M  V30 222 N 19.2153 -1.21501 -1.00376 0
M  V30 223 C 20.1253 -0.991447 -2.12621 0
M  V30 224 C 21.1413 0.0568446 -1.73907 0
M  V30 225 O 22.3173 -0.13348 -2.00957 0
M  V30 226 C 19.3823 -0.560312 -3.42142 0
M  V30 227 C 18.4433 -1.68096 -3.95022 0
M  V30 228 C 17.6763 -1.2703 -5.18362 0
M  V30 229 O 17.8993 -0.144438 -5.70217 0
M  V30 230 O 16.8333 -2.08269 -5.64719 0
M  V30 231 H 20.6593 -1.93158 -2.34358 0
M  V30 232 H 18.2443 -0.999999 -1.10997 0
M  V30 233 H 20.1263 -0.329724 -4.20108 0
M  V30 234 H 18.8013 0.351089 -3.2179 0
M  V30 235 H 17.7083 -1.96597 -3.18278 0
M  V30 236 H 19.0413 -2.56983 -4.19786 0
M  V30 237 N 20.6934 1.19889 -1.02296 0
M  V30 238 C 21.9414 1.89046 -0.714558 0
M  V30 239 C 22.2624 1.79636 0.758681 0
M  V30 240 O 21.5324 1.20292 1.54618 0
M  V30 241 H 20.1124 0.699802 -0.261317 0
M  V30 242 H 22.7744 1.45574 -1.29592 0
M  V30 243 H 21.8704 2.95524 -1.0036 0
M  V30 244 N 22.1715 0.800033 1.35784 0
M  V30 245 C 23.3995 0.389606 2.03199 0
M  V30 246 C 23.8145 -0.997375 1.60306 0
M  V30 247 O 23.1715 -1.64154 0.797481 0
M  V30 248 C 23.2225 0.455855 3.58614 0
M  V30 249 O 22.9435 1.78815 3.99946 0
M  V30 250 C 24.4445 0.0374032 4.43284 0
M  V30 251 H 21.6645 0.159132 0.651857 0
M  V30 252 H 24.2085 1.08183 1.73541 0
M  V30 253 H 22.3635 -0.188057 3.86943 0
M  V30 254 H 22.7775 1.74636 4.94573 0
M  V30 255 H 24.2515 0.134882 5.51835 0
M  V30 256 H 24.7285 -1.01651 4.27275 0
M  V30 257 H 25.3345 0.654215 4.20238 0
M  V30 258 N 23.6496 -1.47581 0.552962 0
M  V30 259 C 24.9266 -1.95563 -0.0381515 0
M  V30 260 C 25.3066 -1.49552 -1.48988 0
M  V30 261 O 24.6546 -0.732414 -2.16444 0
M  V30 262 C 24.8646 -3.48848 0.102919 0
M  V30 263 C 26.2126 -4.24577 -0.0446082 0
M  V30 264 O 27.2366 -3.56187 0.0302548 0
M  V30 265 O 26.0956 -5.46116 -0.204923 0
M  V30 266 H 23.1896 -0.824321 -0.0665067 0
M  V30 267 H 25.7356 -1.58001 0.619186 0
M  V30 268 H 24.5076 -3.75129 1.11328 0
M  V30 269 H 24.1306 -3.93165 -0.592224 0
M  V30 270 N 25.1277 -0.289203 -1.54924 0
M  V30 271 C 26.3557 0.326463 -2.04308 0
M  V30 272 C 26.7707 1.48413 -1.16701 0
M  V30 273 O 26.1277 1.81507 -0.190087 0
M  V30 274 C 26.1787 0.794014 -3.52672 0
M  V30 275 O 25.8997 -0.317564 -4.36948 0
M  V30 276 C 27.4007 1.47605 -4.18004 0
M  V30 277 H 24.6207 0.0726272 -0.667058 0
M  V30 278 H 27.1647 -0.425401 -2.00026 0
M  V30 279 H 25.3197 1.49593 -3.57352 0
M  V30 280 H 25.7337 0.0443186 -5.24481 0
M  V30 281 H 27.2077 1.75447 -5.23376 0
M  V30 282 H 27.6847 2.41224 -3.67025 0
M  V30 283 H 28.2907 0.81762 -4.17367 0
M  V30 284 N 26.6058 1.57591 -0.0167156 0
M  V30 285 C 27.5688 2.08393 0.954204 0
M  V30 286 C 28.5688 0.996531 1.26198 0
M  V30 287 O 29.7588 1.25858 1.20438 0
M  V30 288 C 26.8908 2.5394 2.27436 0
M  V30 289 H 28.0838 2.95455 0.514451 0
M  V30 290 H 25.6368 1.54582 0.231089 0
M  V30 291 H 26.3718 1.70171 2.76066 0
M  V30 292 H 26.1568 3.33371 2.06412 0
M  V30 293 H 27.6468 2.93512 2.97053 0
M  V30 294 N 28.0839 -0.256276 1.55502 0
M  V30 295 C 29.0159 -1.33981 1.85962 0
M  V30 296 C 30.0289 -1.44743 0.745212 0
M  V30 297 O 31.2179 -1.4626 1.02324 0
M  V30 298 C 28.3179 -2.7194 2.02242 0
M  V30 299 C 27.4909 -2.83562 3.33033 0
M  V30 300 C 26.5499 -4.02304 3.39172 0
M  V30 301 O 25.5759 -3.92273 4.12444 0
M  V30 302 N 26.7779 -5.15045 2.67784 0
M  V30 303 H 29.5429 -1.08191 2.7949 0
M  V30 304 H 27.1039 -0.446388 1.55624 0
M  V30 305 H 29.0959 -3.49697 2.03701 0
M  V30 306 H 27.6659 -2.90479 1.15502 0
M  V30 307 H 26.8859 -1.92555 3.43971 0
M  V30 308 H 28.1739 -2.88271 4.19258 0
M  V30 309 H 27.5719 -5.26085 2.07968 0
M  V30 310 H 26.1289 -5.90972 2.74947 0
M  V30 311 N 29.562 -1.4872 -0.521534 0
M  V30 312 C 30.81 -1.56857 -1.27437 0
M  V30 313 C 31.131 -0.247982 -1.93417 0
M  V30 314 O 30.401 0.731151 -1.81744 0
M  V30 315 H 28.981 -0.577885 -0.473347 0
M  V30 316 H 31.643 -1.85233 -0.606205 0
M  V30 317 H 30.739 -2.35402 -2.0492 0
M  V30 318 N 31.0401 0.771051 -1.3745 0
M  V30 319 C 32.4561 1.07171 -1.18265 0
M  V30 320 C 32.6561 2.01491 -0.019287 0
M  V30 321 O 31.7121 2.44244 0.640408 0
M  V30 322 C 33.0251 1.66854 -2.50161 0
M  V30 323 C 34.5731 1.79109 -2.56689 0
M  V30 324 C 35.0481 2.42205 -3.88717 0
M  V30 325 N 36.5391 2.49655 -3.90162 0
M  V30 326 C 37.2741 2.9933 -4.8907 0
M  V30 327 N 36.7701 3.49172 -5.98374 0
M  V30 328 N 38.5631 2.9821 -4.76474 0
M  V30 329 H 30.7141 0.144796 -2.11906 0
M  V30 330 H 32.9771 0.126863 -0.939473 0
M  V30 331 H 32.6831 1.05017 -3.35655 0
M  V30 332 H 32.5571 2.6614 -2.673 0
M  V30 333 H 34.9441 2.40077 -1.71601 0
M  V30 334 H 35.0251 0.785757 -2.43433 0
M  V30 335 H 34.6691 1.81875 -4.74219 0
M  V30 336 H 34.5991 3.43345 -3.99276 0
M  V30 337 H 37.0901 2.14383 -3.11205 0
M  V30 338 H 37.4031 3.8548 -6.69795 0
M  V30 339 H 35.7481 3.47275 -6.02018 0
M  V30 340 H 38.9391 2.58572 -3.90203 0
M  V30 341 H 39.1121 3.36613 -5.53711 0
M  V30 342 N 32.5182 1.22032 0.997298 0
M  V30 343 C 33.7432 1.06921 1.77715 0
M  V30 344 C 34.1682 -0.376226 1.84299 0
M  V30 345 O 33.5262 -1.27165 1.29223 0
M  V30 346 C 33.5742 1.67996 3.19076 0
M  V30 347 O 32.6782 0.930653 4.01762 0
M  V30 348 H 32.0192 0.375814 0.547412 0
M  V30 349 H 34.5492 1.61737 1.25309 0
M  V30 350 H 34.5592 1.72538 3.69723 0
M  V30 351 H 33.2342 2.73182 3.13599 0
M  V30 352 H 31.8112 0.960917 3.60307 0
M  V30 353 N 33.9963 -1.19345 1.0293 0
M  V30 354 C 34.9283 -2.22036 0.56857 0
M  V30 355 C 35.9413 -1.58865 -0.355779 0
M  V30 356 O 37.1303 -1.77851 -0.152103 0
M  V30 357 C 34.2303 -3.38363 -0.190752 0
M  V30 358 C 33.4033 -4.31118 0.738643 0
M  V30 359 C 32.4623 -5.26194 0.0246497 0
M  V30 360 O 31.4883 -5.65461 0.651354 0
M  V30 361 N 32.6903 -5.66971 -1.24594 0
M  V30 362 H 35.4553 -2.6219 1.45177 0
M  V30 363 H 33.0163 -1.34015 0.908381 0
M  V30 364 H 35.0083 -3.98981 -0.677961 0
M  V30 365 H 33.5783 -2.96994 -0.975366 0
M  V30 366 H 32.7983 -3.68276 1.40593 0
M  V30 367 H 34.0863 -4.90001 1.37029 0
M  V30 368 H 33.4843 -5.37104 -1.77583 0
M  V30 369 H 32.0413 -6.2984 -1.67764 0
M  V30 370 N 35.4744 -0.807222 -1.35358 0
M  V30 371 C 36.7234 -0.384376 -1.98004 0
M  V30 372 C 37.0364 1.0543 -1.64754 0
M  V30 373 O 38.2424 1.58029 -2.20769 0
M  V30 374 C 36.6984 -0.636326 -3.5423 0
M  V30 375 C 36.3064 -2.08759 -3.96388 0
M  V30 376 C 38.0504 -0.278869 -4.23583 0
M  V30 377 C 35.9574 -2.28525 -5.45463 0
M  V30 378 H 34.8874 -0.139986 -0.740891 0
M  V30 379 H 37.5384 -0.991369 -1.54415 0
M  V30 380 H 35.9204 0.0406256 -3.95979 0
M  V30 381 H 37.0944 -2.8024 -3.6579 0
M  V30 382 H 35.4094 -2.40497 -3.39926 0
M  V30 383 H 38.0064 -0.404599 -5.33167 0
M  V30 384 H 38.3494 0.775012 -4.09022 0
M  V30 385 H 38.8824 -0.909764 -3.87257 0
M  V30 386 H 35.6214 -3.32361 -5.64992 0
M  V30 387 H 35.1414 -1.61569 -5.77629 0
M  V30 388 H 36.8204 -2.10109 -6.11934 0
M  V30 389 N 36.9525 1.47285 -0.560781 0
M  V30 390 C 38.2015 2.01668 -0.035895 0
M  V30 391 C 38.5145 1.44021 1.32353 0
M  V30 392 O 39.7205 1.90088 1.93853 0
M  V30 393 C 38.1765 3.59897 -0.0136659 0
M  V30 394 C 37.7845 4.26536 -1.37006 0
M  V30 395 C 39.5285 4.22017 0.458425 0
M  V30 396 C 37.4355 5.76782 -1.30675 0
M  V30 397 H 36.3655 0.753938 -0.00964879 0
M  V30 398 H 39.0165 1.69243 -0.709166 0
M  V30 399 H 37.3985 3.89301 0.725325 0
M  V30 400 H 38.5725 4.0877 -2.12705 0
M  V30 401 H 36.8875 3.76419 -1.78038 0
M  V30 402 H 39.4845 5.32124 0.524247 0
M  V30 403 H 39.8275 3.89437 1.4712 0
M  V30 404 H 40.3605 3.97159 -0.225818 0
M  V30 405 H 37.0995 6.13988 -2.29564 0
M  V30 406 H 36.6195 5.96875 -0.591622 0
M  V30 407 H 38.2985 6.39063 -1.01033 0
M  V30 408 N 38.4306 0.297415 1.54768 0
M  V30 409 C 39.8466 -0.0560823 1.59501 0
M  V30 410 C 40.0466 -1.52725 1.31444 0
M  V30 411 O 39.1026 -2.27947 1.08611 0
M  V30 412 C 40.4156 0.338631 2.98787 0
M  V30 413 C 41.9636 0.287097 3.11681 0
M  V30 414 C 42.4386 0.656579 4.53269 0
M  V30 415 N 43.9296 0.608977 4.59179 0
M  V30 416 C 44.6646 0.867385 5.66802 0
M  V30 417 N 44.1606 1.19157 6.82476 0
M  V30 418 N 45.9536 0.794687 5.56454 0
M  V30 419 H 38.1046 1.25624 1.71267 0
M  V30 420 H 40.3676 0.509057 0.799728 0
M  V30 421 H 40.0736 1.36263 3.2423 0
M  V30 422 H 39.9476 -0.309508 3.75928 0
M  V30 423 H 42.3346 -0.727649 2.85988 0
M  V30 424 H 42.4156 0.969809 2.36703 0
M  V30 425 H 42.0596 1.66912 4.7969 0
M  V30 426 H 41.9896 -0.0481649 5.26578 0
M  V30 427 H 44.4806 0.369198 3.76092 0
M  V30 428 H 44.7936 1.37482 7.60473 0
M  V30 429 H 43.1386 1.22958 6.84037 0
M  V30 430 H 46.3296 0.541098 4.64962 0
M  V30 431 H 46.5026 0.999445 6.40246 0
M  V30 432 N 39.9087 -1.5758 0.0250728 0
M  V30 433 C 40.8567 -2.11125 -0.97617 0
M  V30 434 C 41.8507 -1.03689 -1.33959 0
M  V30 435 O 43.0567 -1.22128 -1.3223 0
M  V30 436 H 39.4317 -0.674468 -0.332561 0
M  V30 437 H 41.4027 -2.94194 -0.499223 0
M  V30 438 C 40.1517 -2.65017 -2.2508 0
M  V30 439 H 39.4747 -3.47333 -1.9799 0
M  V30 440 H 40.9147 -3.06133 -2.93357 0
M  V30 441 C 39.3737 -1.57574 -2.97779 0
M  V30 442 O 39.9037 -0.973203 -3.89733 0
M  V30 443 N 38.1097 -1.29716 -2.60043 0
M  V30 444 H 37.6567 -1.789 -1.85345 0
M  V30 445 H 37.6147 -0.58051 -3.08994 0
M  V30 446 N 41.3868 0.248026 -1.55636 0
M  V30 447 C 42.6358 0.974134 -1.76617 0
M  V30 448 C 42.9488 1.86528 -0.588796 0
M  V30 449 O 44.1548 2.62805 -0.681594 0
M  V30 450 C 42.6108 1.78213 -3.12679 0
M  V30 451 C 42.2188 0.93843 -4.38061 0
M  V30 452 C 43.9628 2.50104 -3.42999 0
M  V30 453 C 41.8698 1.74225 -5.65155 0
M  V30 454 H 40.7998 0.36745 -0.658405 0
M  V30 455 H 43.4508 0.22884 -1.82067 0
M  V30 456 H 41.8328 2.56933 -3.01333 0
M  V30 457 H 43.0068 0.193635 -4.60393 0
M  V30 458 H 41.3218 0.332905 -4.15067 0
M  V30 459 H 43.9188 3.10694 -4.3517 0
M  V30 460 H 44.2618 3.21662 -2.64271 0
M  V30 461 H 44.7948 1.78395 -3.55556 0
M  V30 462 H 41.5338 1.07043 -6.46701 0
M  V30 463 H 41.0538 2.46235 -5.46926 0
M  V30 464 H 42.7328 2.30967 -6.0437 0
M  V30 465 N 42.8649 1.48995 0.513639 0
M  V30 466 C 43.8129 1.65199 1.63744 0
M  V30 467 C 44.8069 0.51809 1.61283 0
M  V30 468 O 46.0129 0.697335 1.65943 0
M  V30 469 H 42.3879 0.52069 0.542574 0
M  V30 470 H 44.3589 2.59552 1.47226 0
M  V30 471 C 43.1079 1.72409 3.01945 0
M  V30 472 H 42.4309 2.59029 3.04539 0
M  V30 473 H 43.8709 1.87785 3.80148 0
M  V30 474 C 42.3299 0.46618 3.33659 0
M  V30 475 O 42.8599 -0.413744 3.99564 0
M  V30 476 N 41.0659 0.332931 2.88687 0
M  V30 477 H 40.6129 1.04996 2.35231 0
M  V30 478 H 40.5709 -0.507665 3.10274 0
M  V30 479 N 44.343 -0.763751 1.37857 0
M  V30 480 C 45.306 -1.85889 1.34081 0
M  V30 481 C 46.306 -1.58949 0.243277 0
M  V30 482 O 47.496 -1.66882 0.499589 0
M  V30 483 C 44.628 -3.23176 1.08489 0
M  V30 484 H 45.821 -1.90648 2.31502 0
M  V30 485 H 43.374 -0.964367 1.23003 0
M  V30 486 H 44.109 -3.24091 0.116318 0
M  V30 487 H 43.894 -3.44124 1.8794 0
M  V30 488 H 45.384 -4.03254 1.08517 0
M  V30 489 N 45.8211 -1.22559 -0.990812 0
M  V30 490 C 47.0611 -1.06302 -1.74583 0
M  V30 491 C 47.4251 0.394737 -1.87898 0
M  V30 492 O 48.6261 0.678214 -2.60103 0
M  V30 493 C 46.8971 -1.75699 -3.11231 0
M  V30 494 S 48.4561 -1.74882 -4.02445 0
M  V30 495 H 45.2741 -0.380639 -0.600529 0
M  V30 496 H 47.8761 -1.55532 -1.18449 0
M  V30 497 H 46.5801 -2.80923 -2.99183 0
M  V30 498 H 46.1111 -1.26708 -3.72436 0
M  V30 499 H 48.1261 -0.799997 -4.89709 0
M  V30 500 N 47.2992 1.18797 -1.03562 0
M  V30 501 C 48.2312 2.21731 -0.580337 0
M  V30 502 C 49.2442 1.59051 0.347349 0
M  V30 503 O 50.4332 1.77929 0.142669 0
M  V30 504 C 47.5332 3.38459 0.172805 0
M  V30 505 C 46.7062 4.3072 -0.761496 0
M  V30 506 C 45.7652 5.26174 -0.0525547 0
M  V30 507 O 44.7912 5.65108 -0.681333 0
M  V30 508 N 45.9932 5.67624 1.21586 0
M  V30 509 H 48.7582 2.61417 -1.46565 0
M  V30 510 H 46.3192 1.33531 -0.915476 0
M  V30 511 H 48.3112 3.99335 0.656793 0
M  V30 512 H 46.8812 2.97507 0.959602 0
M  V30 513 H 46.1012 3.67525 -1.42544 0
M  V30 514 H 47.3892 4.89267 -1.39626 0
M  V30 515 H 46.7872 5.38038 1.74732 0
M  V30 516 H 45.3442 6.30721 1.64421 0
M  V30 517 N 48.7773 0.814389 1.34928 0
M  V30 518 C 50.0263 0.394871 1.97797 0
M  V30 519 C 50.3393 -1.04555 1.65311 0
M  V30 520 O 51.5453 -1.56856 2.21604 0
M  V30 521 C 50.0013 0.655103 3.53888 0
M  V30 522 C 49.6093 2.10858 3.95276 0
M  V30 523 C 51.3533 0.301329 4.23429 0
M  V30 524 C 49.2603 2.31415 5.44244 0
M  V30 525 H 48.1903 0.143913 0.740139 0
M  V30 526 H 50.8413 0.999544 1.53888 0
M  V30 527 H 49.2233 -0.0196253 3.95995 0
M  V30 528 H 50.3973 2.82176 3.64298 0
M  V30 529 H 48.7123 2.42297 3.38646 0
M  V30 530 H 51.3093 0.432869 5.32945 0
M  V30 531 H 51.6523 -0.75331 4.09428 0
M  V30 532 H 52.1853 0.930288 3.86769 0
M  V30 533 H 48.9243 3.35353 5.63222 0
M  V30 534 H 48.4443 1.6463 5.76764 0
M  V30 535 H 50.1233 2.13352 6.10811 0
M  V30 536 N 50.2554 -1.46986 0.568584 0
M  V30 537 C 51.5044 -2.01646 0.0465894 0
M  V30 538 C 51.8174 -1.44721 -1.31587 0
M  V30 539 O 53.0234 -1.91113 -1.92842 0
M  V30 540 C 51.4794 -3.59885 0.032752 0
M  V30 541 C 51.0874 -4.25804 1.39266 0
M  V30 542 C 52.8314 -4.22255 -0.436038 0
M  V30 543 C 50.7384 -5.76081 1.33732 0
M  V30 544 H 49.6684 -0.753876 0.013647 0
M  V30 545 H 52.3194 -1.68864 0.718131 0
M  V30 546 H 50.7014 -3.8968 -0.704669 0
M  V30 547 H 51.8754 -4.07637 2.1487 0
M  V30 548 H 50.1904 -3.7547 1.80032 0
M  V30 549 H 52.7874 -5.32394 -0.49602 0
M  V30 550 H 53.1304 -3.90212 -1.45053 0
M  V30 551 H 53.6634 -3.97033 0.246877 0
M  V30 552 H 50.4024 -6.12761 2.32817 0
M  V30 553 H 49.9224 -5.96553 0.623267 0
M  V30 554 H 51.6014 -6.38518 1.0442 0
M  V30 555 N 51.7335 -0.305618 -1.54608 0
M  V30 556 C 52.9795 0.302746 -2.00528 0
M  V30 557 C 53.3125 1.53184 -1.19367 0
M  V30 558 O 52.5875 1.92598 -0.271321 0
M  V30 559 C 52.8705 0.654756 -3.54097 0
M  V30 560 C 52.7235 -0.583793 -4.45995 0
M  V30 561 C 54.0425 1.47947 -4.14487 0
M  V30 562 H 51.1615 0.108564 -0.72896 0
M  V30 563 H 53.8035 -0.418634 -1.85331 0
M  V30 564 H 51.9535 1.26935 -3.67178 0
M  V30 565 H 53.6255 -1.22224 -4.44814 0
M  V30 566 H 51.8685 -1.21615 -4.16404 0
M  V30 567 H 52.5395 -0.293287 -5.5122 0
M  V30 568 H 55.0155 0.96013 -4.04871 0
M  V30 569 H 53.8915 1.69454 -5.22088 0
M  V30 570 H 54.1525 2.47011 -3.66658 0
M  V30 571 N 53.2116 1.57565 -0.0334293 0
M  V30 572 C 54.4886 1.83282 0.683163 0
M  V30 573 C 54.8686 0.91823 1.90084 0
M  V30 574 O 54.2166 -0.025113 2.28486 0
M  V30 575 C 54.4266 3.32599 1.0573 0
M  V30 576 C 55.7746 3.99179 1.44711 0
M  V30 577 O 56.7986 3.3712 1.15015 0
M  V30 578 O 55.6576 5.08565 2.0006 0
M  V30 579 H 52.7516 0.755869 0.335546 0
M  V30 580 H 55.2976 1.69589 -0.0614402 0
M  V30 581 H 54.0696 3.90834 0.190828 0
M  V30 582 H 53.6926 3.51415 1.85993 0
M  V30 583 N 54.6897 -0.239769 1.55765 0
M  V30 584 C 55.9387 -0.964754 1.77131 0
M  V30 585 C 56.2517 -1.86213 0.59868 0
M  V30 586 O 57.4577 -2.6244 0.695522 0
M  V30 587 C 55.9137 -1.76552 3.1362 0
M  V30 588 C 55.5217 -0.915185 4.38553 0
M  V30 589 C 57.2657 -2.48281 3.44321 0
M  V30 590 C 55.1727 -1.71225 5.66071 0
M  V30 591 H 54.1027 -0.363953 0.660344 0
M  V30 592 H 56.7537 -0.219181 1.82186 0
M  V30 593 H 55.1357 -2.55331 3.02691 0
M  V30 594 H 56.3097 -0.169217 4.60489 0
M  V30 595 H 54.6247 -0.310889 4.15238 0
M  V30 596 H 57.2217 -3.08382 4.36812 0
M  V30 597 H 57.5647 -3.20256 2.65973 0
M  V30 598 H 58.0977 -1.76507 3.56497 0
M  V30 599 H 54.8367 -1.03612 6.4726 0
M  V30 600 H 54.3567 -2.43331 5.48224 0
M  V30 601 H 56.0357 -2.27758 6.05587 0
M  V30 602 N 56.1678 -1.49265 -0.50573 0
M  V30 603 C 57.4138 -1.58748 -1.26202 0
M  V30 604 C 57.7468 -0.271227 -1.92297 0
M  V30 605 O 57.0218 0.724831 -1.80489 0
M  V30 606 C 57.3048 -2.74332 -2.33268 0
M  V30 607 C 57.1578 -4.15737 -1.71705 0
M  V30 608 C 58.4768 -2.85576 -3.34865 0
M  V30 609 H 55.5958 -0.577826 -0.457478 0
M  V30 610 H 58.2378 -1.81532 -0.560897 0
M  V30 611 H 56.3878 -2.55036 -2.93068 0
M  V30 612 H 58.0598 -4.46537 -1.15769 0
M  V30 613 H 56.3028 -4.21605 -1.02135 0
M  V30 614 H 56.9738 -4.92477 -2.49341 0
M  V30 615 H 59.4498 -3.03127 -2.8505 0
M  V30 616 H 58.3258 -3.68135 -4.07146 0
M  V30 617 H 58.5868 -1.94732 -3.96903 0
M  V30 618 N 57.6459 0.756429 -1.3826 0
M  V30 619 C 58.5929 1.87011 -1.35261 0
M  V30 620 C 59.5629 1.64695 -0.215616 0
M  V30 621 O 60.7479 1.864 -0.407399 0
M  V30 622 C 57.8879 3.24275 -1.18068 0
M  V30 623 C 57.0009 3.58442 -2.41129 0
M  V30 624 C 56.1359 4.84994 -2.16689 0
M  V30 625 C 55.1749 5.11939 -3.35537 0
M  V30 626 N 54.3119 6.29685 -3.10549 0
M  V30 627 H 59.1519 1.8891 -2.30472 0
M  V30 628 H 56.6889 0.923373 -1.14509 0
M  V30 629 H 58.6469 4.03479 -1.06116 0
M  V30 630 H 57.2769 3.21711 -0.264973 0
M  V30 631 H 56.3289 2.74103 -2.63764 0
M  V30 632 H 57.6409 3.74283 -3.29717 0
M  V30 633 H 56.7949 5.72135 -2.01857 0
M  V30 634 H 55.5339 4.71286 -1.25462 0
M  V30 635 H 54.5389 4.23268 -3.50891 0
M  V30 636 H 55.7639 5.27546 -4.27635 0
M  V30 637 H 53.7099 6.17306 -2.21967 0
M  V30 638 H 53.6269 6.46014 -3.92686 0
M  V30 639 H 54.8949 7.19722 -2.99367 0
M  V30 640 N 59.124 1.23083 0.984299 0
M  V30 641 C 60.352 1.08714 1.76037 0
M  V30 642 C 60.767 -0.361691 1.85303 0
M  V30 643 O 60.124 -1.25034 1.32939 0
M  V30 644 C 60.175 1.70206 3.18923 0
M  V30 645 O 59.896 3.09423 3.10144 0
M  V30 646 C 61.397 1.61227 4.12941 0
M  V30 647 H 58.617 0.380664 0.552572 0
M  V30 648 H 61.161 1.62853 1.23689 0
M  V30 649 H 59.316 1.20109 3.6831 0
M  V30 650 H 59.73 3.39188 4.00065 0
M  V30 651 H 61.204 2.08962 5.10919 0
M  V30 652 H 61.681 0.570375 4.35481 0
M  V30 653 H 62.287 2.10671 3.69456 0
M  V30 654 N 60.6021 -1.18246 1.0419 0
M  V30 655 C 61.8301 -1.92195 0.766072 0
M  V30 656 C 62.2451 -1.76247 -0.676933 0
M  V30 657 O 61.6021 -1.09293 -1.46155 0
M  V30 658 C 61.6531 -3.43568 1.12442 0
M  V30 659 O 61.3741 -3.59015 2.51078 0
M  V30 660 C 62.8751 -4.34613 0.873275 0
M  V30 661 H 60.0951 -0.610114 0.279288 0
M  V30 662 H 62.6391 -1.50007 1.38989 0
M  V30 663 H 60.7941 -3.8354 0.545542 0
M  V30 664 H 61.2081 -4.5273 2.64831 0
M  V30 665 H 62.6821 -5.39374 1.17385 0
M  V30 666 H 63.1591 -4.38781 -0.191909 0
M  V30 667 H 63.7651 -4.00341 1.43551 0
M  V30 668 N 62.0802 -0.821533 -1.34494 0
M  V30 669 C 63.0102 -0.257138 -2.3208 0
M  V30 670 C 63.9912 0.625645 -1.58176 0
M  V30 671 O 65.1762 0.552811 -1.86166 0
M  V30 672 C 62.3062 0.582958 -3.42372 0
M  V30 673 C 61.2602 -0.202571 -4.2752 0
M  V30 674 C 60.5862 0.760179 -5.29269 0
M  V30 675 C 61.8862 -1.40998 -5.02908 0
M  V30 676 H 63.5802 -1.07247 -2.79532 0
M  V30 677 H 61.1262 -0.517163 -1.34393 0
M  V30 678 H 63.0792 0.987972 -4.09655 0
M  V30 679 H 61.8032 1.43133 -2.93565 0
M  V30 680 H 60.4622 -0.588936 -3.61838 0
M  V30 681 H 60.1102 1.60447 -4.76724 0
M  V30 682 H 59.8102 0.238809 -5.87115 0
M  V30 683 H 61.3342 1.16308 -5.9942 0
M  V30 684 H 62.7482 -1.07905 -5.63054 0
M  V30 685 H 61.1452 -1.86689 -5.70322 0
M  V30 686 H 62.2152 -2.1889 -4.32684 0
M  V30 687 N 63.5583 1.46682 -0.576371 0
M  V30 688 C 64.8063 2.02013 -0.0594163 0
M  V30 689 C 65.1273 1.45101 1.30271 0
M  V30 690 O 64.3973 0.633317 1.8538 0
M  V30 691 H 62.9773 0.746759 -0.0189745 0
M  V30 692 H 65.6393 1.79862 -0.750717 0
M  V30 693 H 64.7353 3.12097 0.014345 0
M  V30 694 N 65.0364 0.313813 1.54444 0
M  V30 695 C 66.4474 -0.176243 1.85866 0
M  V30 696 C 66.7984 -1.52405 1.23561 0
M  V30 697 O 65.9234 -2.09605 0.538016 0
M  V30 698 C 66.5184 -0.32657 3.37222 0
M  V30 699 C 65.0774 -0.760846 3.6863 0
M  V30 700 C 64.2244 0.123247 2.77026 0
M  V30 701 H 67.1754 0.534418 1.49431 0
M  V30 702 H 67.1964 -1.15908 3.62416 0
M  V30 703 H 66.7084 0.654531 3.82541 0
M  V30 704 H 64.8094 -1.75204 3.28838 0
M  V30 705 H 64.9224 -0.571353 4.75681 0
M  V30 706 H 63.2864 -0.399597 2.51546 0
M  V30 707 H 64.0694 1.10094 3.25168 0
M  V30 708 N 66.5145 -1.57545 0.0417849 0
M  V30 709 C 67.9305 -1.56467 -0.314704 0
M  V30 710 C 68.1305 -1.04859 -1.72066 0
M  V30 711 O 67.1865 -0.700983 -2.42575 0
M  V30 712 C 68.4995 -3.00317 -0.15174 0
M  V30 713 C 70.0475 -3.12201 -0.223553 0
M  V30 714 C 70.5225 -4.57913 -0.0892295 0
M  V30 715 N 72.0135 -4.6297 -0.145808 0
M  V30 716 C 72.7485 -5.73362 -0.0658459 0
M  V30 717 N 72.2445 -6.92769 0.0659282 0
M  V30 718 N 74.0375 -5.6197 -0.12075 0
M  V30 719 H 66.1885 -1.89416 0.961014 0
M  V30 720 H 68.4515 -0.871862 0.372237 0
M  V30 721 H 68.1575 -3.42073 0.817254 0
M  V30 722 H 68.0315 -3.65892 -0.916692 0
M  V30 723 H 70.4185 -2.70349 -1.18301 0
M  V30 724 H 70.4995 -2.49323 0.571994 0
M  V30 725 H 70.1435 -5.00448 0.866867 0
M  V30 726 H 70.0735 -5.18786 -0.903802 0
M  V30 727 H 72.5645 -3.7709 -0.247286 0
M  V30 728 H 72.8775 -7.72707 0.119905 0
M  V30 729 H 71.2225 -6.94927 0.100885 0
M  V30 730 H 74.4135 -4.67572 -0.222187 0
M  V30 731 H 74.5865 -6.47977 -0.0549735 0
M  V30 732 N 67.9926 0.231505 -1.5589 0
M  V30 733 C 69.2406 0.955461 -1.78088 0
M  V30 734 C 69.5616 1.85262 -0.608533 0
M  V30 735 O 68.8316 1.92277 0.375035 0
M  V30 736 H 67.4116 0.355787 -0.656829 0
M  V30 737 H 70.0736 0.245751 -1.93344 0
M  V30 738 H 69.1696 1.56814 -2.69844 0
M  V30 739 N 69.4707 1.49531 0.497807 0
M  V30 740 C 70.4037 1.61043 1.6168 0
M  V30 741 C 71.3817 0.459386 1.55976 0
M  V30 742 O 72.5657 0.675358 1.75986 0
M  V30 743 C 69.6927 1.56833 3.00202 0
M  V30 744 C 68.7387 2.77173 3.24156 0
M  V30 745 S 69.5717 4.38808 3.06933 0
M  V30 746 C 70.7277 4.37248 4.47845 0
M  V30 747 H 70.9607 2.55702 1.51671 0
M  V30 748 H 68.4937 1.38462 0.683201 0
M  V30 749 H 70.4517 1.55089 3.80076 0
M  V30 750 H 69.1127 0.634561 3.07623 0
M  V30 751 H 68.3057 2.70456 4.25288 0
M  V30 752 H 67.9077 2.76346 2.5201 0
M  V30 753 H 70.1997 4.09164 5.39992 0
M  V30 754 H 71.1427 5.38668 4.59612 0
M  V30 755 H 71.5507 3.67286 4.28674 0
M  V30 756 N 70.9488 -0.749086 1.3866 0
M  V30 757 C 72.2258 -1.4992 1.25632 0
M  V30 758 C 72.6058 -2.10633 -0.140317 0
M  V30 759 O 71.9538 -1.97437 -1.15025 0
M  V30 760 C 72.1638 -2.56195 2.36992 0
M  V30 761 C 73.5118 -3.22972 2.75634 0
M  V30 762 O 74.5358 -2.66502 2.36337 0
M  V30 763 O 73.3948 -4.25122 3.43415 0
M  V30 764 H 70.4888 -0.665067 0.491544 0
M  V30 765 H 73.0348 -0.784113 1.50498 0
M  V30 766 H 71.8068 -2.09612 3.30422 0
M  V30 767 H 71.4298 -3.35279 2.13714 0
M  V30 768 N 72.4269 -1.23603 -0.977757 0
M  V30 769 C 73.3739 -1.01954 -2.07061 0
M  V30 770 C 74.3439 0.0638697 -1.65977 0
M  V30 771 O 75.5289 -0.0887624 -1.90593 0
M  V30 772 C 72.6689 -0.619658 -3.39491 0
M  V30 773 C 71.7819 -1.77547 -3.93829 0
M  V30 774 C 70.9169 -1.32212 -5.14484 0
M  V30 775 C 69.9559 -2.44852 -5.60994 0
M  V30 776 N 69.0929 -2.00456 -6.72876 0
M  V30 777 H 73.9329 -1.95495 -2.24913 0
M  V30 778 H 71.4699 -0.973861 -1.10247 0
M  V30 779 H 73.4279 -0.368898 -4.15566 0
M  V30 780 H 72.0579 0.278752 -3.21594 0
M  V30 781 H 71.1099 -2.14016 -3.14486 0
M  V30 782 H 72.4219 -2.62219 -4.24314 0
M  V30 783 H 71.5759 -1.02965 -5.97899 0
M  V30 784 H 70.3149 -0.445808 -4.85658 0
M  V30 785 H 69.3199 -2.74871 -4.76157 0
M  V30 786 H 70.5449 -3.33024 -5.91837 0
M  V30 787 H 68.4909 -1.15208 -6.45804 0
M  V30 788 H 68.4079 -2.78687 -7.02759 0
M  V30 789 H 69.6759 -1.7432 -7.59758 0
M  V30 790 N 73.905 1.17692 -1.04816 0
M  V30 791 C 74.835 2.23777 -0.666791 0
M  V30 792 C 75.816 1.66796 0.33361 0
M  V30 793 O 77.001 1.93039 0.212042 0
M  V30 794 C 74.131 3.47281 -0.0367933 0
M  V30 795 C 73.085 4.17059 -0.961546 0
M  V30 796 C 72.411 5.34342 -0.195626 0
M  V30 797 C 73.711 4.69713 -2.28402 0
M  V30 798 H 75.405 2.55933 -1.55367 0
M  V30 799 H 72.951 1.23019 -0.748484 0
M  V30 800 H 74.904 4.20706 0.241775 0
M  V30 801 H 73.628 3.14381 0.885004 0
M  V30 802 H 72.287 3.45541 -1.22462 0
M  V30 803 H 71.935 4.97692 0.728816 0
M  V30 804 H 71.635 5.81966 -0.811775 0
M  V30 805 H 73.159 6.10553 0.0757473 0
M  V30 806 H 74.573 5.34794 -2.06563 0
M  V30 807 H 72.97 5.279 -2.8538 0
M  V30 808 H 74.04 3.86726 -2.92525 0
M  V30 809 N 75.3831 0.828654 1.34056 0
M  V30 810 C 76.6321 0.415828 1.97367 0
M  V30 811 C 76.9451 -1.02796 1.6641 0
M  V30 812 O 78.1511 -1.54497 2.23255 0
M  V30 813 C 76.6071 0.692601 3.53173 0
M  V30 814 C 76.2151 2.15038 3.93017 0
M  V30 815 C 77.9591 0.346222 4.23086 0
M  V30 816 C 75.8661 2.37174 5.41758 0
M  V30 817 H 74.7961 0.151755 0.738571 0
M  V30 818 H 77.4471 1.01581 1.52819 0
M  V30 819 H 75.8291 0.0223764 3.95994 0
M  V30 820 H 77.0031 2.86024 3.61285 0
M  V30 821 H 75.3181 2.45875 3.36057 0
M  V30 822 H 77.9151 0.48937 5.32456 0
M  V30 823 H 78.2581 -0.709842 4.10204 0
M  V30 824 H 78.7911 0.971258 3.85761 0
M  V30 825 H 75.5301 3.41308 5.59633 0
M  V30 826 H 75.0501 1.70738 5.74986 0
M  V30 827 H 76.7291 2.19818 6.08514 0
M  V30 828 N 76.8612 -1.46375 0.584142 0
M  V30 829 C 78.0912 -2.06461 0.0758195 0
M  V30 830 C 78.4992 -1.43322 -1.23512 0
M  V30 831 O 77.8422 -0.533216 -1.75791 0
M  V30 832 C 77.9042 -3.59131 -0.162773 0
M  V30 833 C 77.5682 -4.4447 1.06279 0
M  V30 834 C 78.5652 -4.80918 1.97519 0
M  V30 835 C 76.2502 -4.85584 1.28504 0
M  V30 836 C 78.2442 -5.57309 3.09331 0
M  V30 837 C 75.9312 -5.61734 2.4062 0
M  V30 838 C 76.9292 -5.9751 3.30863 0
M  V30 839 O 76.6172 -6.72121 4.41032 0
M  V30 840 H 76.3492 -0.673745 0.0551725 0
M  V30 841 H 78.9032 -1.88969 0.804984 0
M  V30 842 H 77.1332 -3.74936 -0.946565 0
M  V30 843 H 78.8222 -4.0114 -0.619782 0
M  V30 844 H 79.5882 -4.49732 1.81565 0
M  V30 845 H 75.4672 -4.57187 0.591702 0
M  V30 846 H 79.0112 -5.85152 3.79793 0
M  V30 847 H 74.9082 -5.92334 2.56537 0
M  V30 848 H 75.6762 -6.90547 4.39417 0
M  V30 849 N 78.3393 -0.321999 -1.54275 0
M  V30 850 C 79.5673 0.283052 -2.04955 0
M  V30 851 C 79.9823 1.45904 -1.19823 0
M  V30 852 O 79.3393 1.81063 -0.228545 0
M  V30 853 C 79.3903 0.719028 -3.54277 0
M  V30 854 O 79.1113 -0.410175 -4.36176 0
M  V30 855 C 80.6123 1.38705 -4.21041 0
M  V30 856 H 77.8323 0.0584616 -0.668448 0
M  V30 857 H 80.3763 -0.467734 -1.99079 0
M  V30 858 H 78.5313 1.41979 -3.60445 0
M  V30 859 H 78.9453 -0.0669416 -5.24457 0
M  V30 860 H 80.4193 1.64306 -5.2698 0
M  V30 861 H 80.8963 2.33385 -3.72059 0
M  V30 862 H 81.5023 0.728906 -4.19007 0
M  V30 863 N 79.8174 1.5752 -0.0501392 0
M  V30 864 C 80.7274 2.14952 0.939827 0
M  V30 865 C 81.7434 1.10706 1.34239 0
M  V30 866 O 82.9194 1.42869 1.41952 0
M  V30 867 C 79.9844 2.68232 2.19665 0
M  V30 868 C 79.0454 3.87272 1.85253 0
M  V30 869 C 78.2784 4.38002 3.04943 0
M  V30 870 O 78.5014 3.87811 4.18281 0
M  V30 871 O 77.4354 5.29602 2.86017 0
M  V30 872 H 81.2614 2.9986 0.481392 0
M  V30 873 H 78.8464 1.4841 0.171699 0
M  V30 874 H 80.7284 3.02475 2.93406 0
M  V30 875 H 79.4034 1.86395 2.64648 0
M  V30 876 H 78.3104 3.5792 1.0883 0
M  V30 877 H 79.6434 4.70336 1.4507 0
M  V30 878 N 81.2955 -0.223234 1.56011 0
M  V30 879 C 82.7115 -0.572856 1.48965 0
M  V30 880 C 82.9115 -1.87225 0.74492 0
M  V30 881 O 81.9675 -2.50899 0.283896 0
M  V30 882 C 83.2805 -0.653646 2.9351 0
M  V30 883 C 84.8285 -0.744386 3.0402 0
M  V30 884 C 85.3035 -0.856535 4.49919 0
M  V30 885 N 86.7945 -0.9208 4.53955 0
M  V30 886 C 87.5295 -1.02726 5.64123 0
M  V30 887 N 87.0255 -1.09777 6.84047 0
M  V30 888 N 88.8185 -1.06226 5.51971 0
M  V30 889 H 80.9695 0.629462 2.02858 0
M  V30 890 H 83.2325 0.220621 0.921971 0
M  V30 891 H 82.9385 0.231518 3.50937 0
M  V30 892 H 82.8125 -1.51781 3.45315 0
M  V30 893 H 85.1995 -1.61999 2.46658 0
M  V30 894 H 85.2805 0.14541 2.55386 0
M  V30 895 H 84.9245 0.0146069 5.07898 0
M  V30 896 H 84.8545 -1.76172 4.96257 0
M  V30 897 H 87.3455 -0.876694 3.6759 0
M  V30 898 H 87.6585 -1.17872 7.63758 0
M  V30 899 H 86.0035 -1.06693 6.86762 0
M  V30 900 H 89.1945 -1.00382 4.5721 0
M  V30 901 H 89.3675 -1.14177 6.37862 0
M  V30 902 N 82.7736 -1.49793 -0.48987 0
M  V30 903 C 84.0506 -1.50348 -1.25119 0
M  V30 904 C 84.4306 -0.237466 -2.0976 0
M  V30 905 O 83.7786 0.77981 -2.14782 0
M  V30 906 C 83.9886 -2.78872 -2.09837 0
M  V30 907 C 85.3366 -3.288 -2.68655 0
M  V30 908 O 86.3606 -2.80065 -2.20096 0
M  V30 909 O 85.2196 -4.13707 -3.57083 0
M  V30 910 H 82.3136 -0.602242 -0.566775 0
M  V30 911 H 84.8596 -1.62067 -0.503229 0
M  V30 912 H 83.6316 -3.62499 -1.47343 0
M  V30 913 H 83.2546 -2.70066 -2.91805 0
M  V30 914 N 84.2517 0.741722 -1.39055 0
M  V30 915 C 85.4977 1.50336 -1.36113 0
M  V30 916 C 85.8307 1.94148 0.0450796 0
M  V30 917 O 85.1057 1.66301 1.00868 0
M  V30 918 C 85.3887 2.74773 -2.32749 0
M  V30 919 C 85.2417 2.37023 -3.82283 0
M  V30 920 C 86.5607 3.76846 -2.27322 0
M  V30 921 H 83.6797 0.545351 -0.495743 0
M  V30 922 H 86.3217 0.848624 -1.69995 0
M  V30 923 H 84.4717 3.30639 -2.03986 0
M  V30 924 H 86.1437 1.8684 -4.21768 0
M  V30 925 H 84.3867 1.69334 -3.99385 0
M  V30 926 H 85.0577 3.26104 -4.45376 0
M  V30 927 H 87.5337 3.30548 -2.5274 0
M  V30 928 H 86.4097 4.6159 -2.97028 0
M  V30 929 H 86.6707 4.23286 -1.27599 0
M  V30 930 N 85.7298 1.2412 0.971189 0
M  V30 931 C 86.9578 1.10575 1.74874 0
M  V30 932 C 87.3728 -0.342017 1.85676 0
M  V30 933 O 86.7298 -1.23617 1.34258 0
M  V30 934 C 86.7808 1.73579 3.171 0
M  V30 935 O 86.5018 3.12695 3.06844 0
M  V30 936 C 88.0028 1.65598 4.11208 0
M  V30 937 H 85.2228 0.386504 0.548503 0
M  V30 938 H 87.7668 1.64156 1.21955 0
M  V30 939 H 85.9218 1.24009 3.67016 0
M  V30 940 H 86.3358 3.43412 3.96445 0
M  V30 941 H 87.8098 2.1437 5.08674 0
M  V30 942 H 88.2868 0.616532 4.34851 0
M  V30 943 H 88.8928 2.14578 3.67201 0
M  V30 944 N 87.2079 -1.17134 1.05439 0
M  V30 945 C 88.4569 -1.86791 0.761049 0
M  V30 946 C 88.7699 -1.82072 -0.714795 0
M  V30 947 O 89.9759 -2.47223 -1.12218 0
M  V30 948 C 88.4319 -3.35166 1.31117 0
M  V30 949 C 88.0399 -3.48381 2.81664 0
M  V30 950 C 89.7839 -4.10134 1.09499 0
M  V30 951 C 87.6909 -4.90793 3.29964 0
M  V30 952 H 86.6209 -0.699681 0.281002 0
M  V30 953 H 89.2719 -1.3226 1.27199 0
M  V30 954 H 87.6539 -3.8925 0.72803 0
M  V30 955 H 88.8279 -3.04502 3.45855 0
M  V30 956 H 87.1429 -2.86836 3.01851 0
M  V30 957 H 89.7399 -5.152 1.43084 0
M  V30 958 H 90.0829 -4.16287 0.0328772 0
M  V30 959 H 90.6159 -3.62264 1.64346 0
M  V30 960 H 87.3549 -4.89816 4.35616 0
M  V30 961 H 86.8749 -5.35333 2.70516 0
M  V30 962 H 88.5539 -5.59573 3.24787 0
M  V30 963 N 88.686 -0.835752 -1.33615 0
M  V30 964 C 89.914 -0.443344 -2.02094 0
M  V30 965 C 90.329 0.954522 -1.62894 0
M  V30 966 O 89.686 1.61982 -0.840723 0
M  V30 967 C 89.737 -0.550775 -3.5728 0
M  V30 968 O 89.458 -1.89356 -3.95065 0
M  V30 969 C 90.959 -0.154919 -4.43029 0
M  V30 970 H 88.179 -0.176359 -0.647409 0
M  V30 971 H 90.723 -1.12746 -1.70612 0
M  V30 972 H 88.878 0.0853997 -3.87306 0
M  V30 973 H 89.292 -1.87687 -4.89769 0
M  V30 974 H 90.766 -0.281144 -5.51284 0
M  V30 975 H 91.243 0.902863 -4.2982 0
M  V30 976 H 91.849 -0.765404 -4.18356 0
M  V30 977 N 90.1641 1.46063 -0.591896 0
M  V30 978 C 91.1121 2.32124 0.148739 0
M  V30 979 C 92.1061 1.45035 0.875286 0
M  V30 980 O 93.3121 1.61609 0.792632 0
M  V30 981 H 89.6871 0.749024 0.066832 0
M  V30 982 H 91.6581 2.92392 -0.595783 0
M  V30 983 C 90.4071 3.28373 1.1431 0
M  V30 984 H 89.7301 3.95371 0.59346 0
M  V30 985 H 91.1701 3.91352 1.63155 0
M  V30 986 C 89.6291 2.54393 2.20875 0
M  V30 987 O 90.1591 2.31373 3.28374 0
M  V30 988 N 88.3651 2.14797 1.95731 0
M  V30 989 H 87.9121 2.33719 1.08319 0
M  V30 990 H 87.8701 1.65619 2.67241 0
M  V30 991 N 91.6422 0.330177 1.54103 0
M  V30 992 C 92.9192 -0.325007 1.92881 0
M  V30 993 C 93.2992 -1.6934 1.26045 0
M  V30 994 O 92.6472 -2.24855 0.406526 0
M  V30 995 C 92.8572 -0.410634 3.46576 0
M  V30 996 C 94.2052 -0.667801 4.19316 0
M  V30 997 O 95.2292 -0.49329 3.52768 0
M  V30 998 O 94.0882 -1.00491 5.37181 0
M  V30 999 H 91.1822 -0.186873 0.80561 0
M  V30 1000 H 93.7282 0.380376 1.65382 0
M  V30 1001 H 92.5002 0.550164 3.87413 0
M  V30 1002 H 92.1232 -1.16333 3.802 0
M  V30 1003 N 93.1203 -1.57491 0.0584922 0
M  V30 1004 C 94.3683 -1.92597 -0.612436 0
M  V30 1005 C 94.6893 -0.938162 -1.70949 0
M  V30 1006 O 93.9593 0.0158301 -1.95894 0
M  V30 1007 H 92.5393 -0.710964 -0.229214 0
M  V30 1008 H 95.2013 -1.94571 0.113218 0
M  V30 1009 H 94.2973 -2.94038 -1.04633 0
M  V30 1010 N 94.5984 0.214957 -1.56127 0
M  V30 1011 C 95.5614 1.24997 -1.92116 0
M  V30 1012 C 96.5614 1.39467 -0.800344 0
M  V30 1013 O 97.7514 1.37619 -1.06802 0
M  V30 1014 C 94.8834 2.62271 -2.17777 0
M  V30 1015 H 96.0764 0.942875 -2.84693 0
M  V30 1016 H 93.6294 0.455654 -1.49511 0
M  V30 1017 H 94.3644 2.98068 -1.27773 0
M  V30 1018 H 94.1494 2.53143 -2.99434 0
M  V30 1019 H 95.6394 3.36946 -2.46693 0
M  V30 1020 N 96.0765 1.50051 0.48192 0
M  V30 1021 C 97.3045 1.64237 1.25832 0
M  V30 1022 C 97.7195 0.321336 1.86045 0
M  V30 1023 O 97.0765 -0.695478 1.68729 0
M  V30 1024 C 97.1275 2.72548 2.37487 0
M  V30 1025 O 96.8485 3.99529 1.79745 0
M  V30 1026 C 98.3495 2.9761 3.28547 0
M  V30 1027 H 95.5695 0.55237 0.380957 0
M  V30 1028 H 98.1135 1.96207 0.576467 0
M  V30 1029 H 96.2685 2.43303 3.01467 0
M  V30 1030 H 96.6825 4.59342 2.5319 0
M  V30 1031 H 98.1565 3.77084 4.03127 0
M  V30 1032 H 98.6335 2.0826 3.86684 0
M  V30 1033 H 99.2395 3.28345 2.70314 0
M  V30 1034 N 97.5546 -0.734337 1.39446 0
M  V30 1035 C 98.8006 -1.49613 1.36908 0
M  V30 1036 C 99.1336 -1.94169 -0.0347829 0
M  V30 1037 O 98.4086 -1.66833 -0.999847 0
M  V30 1038 C 98.6916 -2.73534 2.34203 0
M  V30 1039 C 98.5446 -2.34993 3.83534 0
M  V30 1040 C 99.8636 -3.75635 2.29317 0
M  V30 1041 H 96.9826 -0.542714 0.498629 0
M  V30 1042 H 99.6246 -0.839597 1.70443 0
M  V30 1043 H 97.7746 -3.29553 2.05736 0
M  V30 1044 H 99.4466 -1.84601 4.22753 0
M  V30 1045 H 97.6896 -1.67213 4.00278 0
M  V30 1046 H 98.3606 -3.23738 4.47099 0
M  V30 1047 H 100.837 -3.29203 2.54489 0
M  V30 1048 H 99.7126 -4.60008 2.99472 0
M  V30 1049 H 99.9736 -4.22603 1.29842 0
M  V30 1050 N 99.0327 -1.24633 -0.964593 0
M  V30 1051 C 99.9657 -0.984662 -2.05863 0
M  V30 1052 C 100.944 0.0826554 -1.6239 0
M  V30 1053 O 102.128 -0.0549296 -1.8842 0
M  V30 1054 C 99.2547 -0.486529 -3.35187 0
M  V30 1055 C 98.3007 -1.54286 -3.97615 0
M  V30 1056 S 99.1337 -3.12513 -4.34851 0
M  V30 1057 C 100.29 -2.6441 -5.67308 0
M  V30 1058 H 100.523 -1.91104 -2.27743 0
M  V30 1059 H 98.0557 -1.08052 -1.10291 0
M  V30 1060 H 100.014 -0.205757 -4.09984 0
M  V30 1061 H 98.6747 0.419186 -3.1129 0
M  V30 1062 H 97.8677 -1.14481 -4.90826 0
M  V30 1063 H 97.4697 -1.7738 -3.2926 0
M  V30 1064 H 99.7617 -2.07416 -6.44969 0
M  V30 1065 H 100.705 -3.56222 -6.11973 0
M  V30 1066 H 101.113 -2.04734 -5.26065 0
M  V30 1067 N 100.511 1.16574 -1.06058 0
M  V30 1068 C 101.459 2.22941 -0.663343 0
M  V30 1069 C 102.453 1.66358 0.319593 0
M  V30 1070 O 103.659 1.7905 0.184713 0
M  V30 1071 H 100.034 0.725907 -0.196376 0
M  V30 1072 H 102.005 2.53736 -1.57037 0
M  V30 1073 C 100.754 3.47642 -0.0632808 0
M  V30 1074 H 100.077 3.91493 -0.810733 0
M  V30 1075 H 101.517 4.2363 0.177177 0
M  V30 1076 C 99.9758 3.1509 1.19248 0
M  V30 1077 O 100.506 3.30673 2.28075 0
M  V30 1078 N 98.7118 2.6924 1.09353 0
M  V30 1079 H 98.2588 2.5676 0.207912 0
M  V30 1080 H 98.2168 2.47833 1.93458 0
M  V30 1081 N 101.989 0.842826 1.3317 0
M  V30 1082 C 102.919 0.294028 2.31641 0
M  V30 1083 C 103.9 -0.600401 1.59151 0
M  V30 1084 O 105.085 -0.523124 1.87022 0
M  V30 1085 C 102.215 -0.528416 3.43257 0
M  V30 1086 C 101.169 0.27056 4.27144 0
M  V30 1087 C 100.495 -0.675881 5.30411 0
M  V30 1088 C 101.795 1.48981 5.00602 0
M  V30 1089 H 103.489 1.11681 2.77791 0
M  V30 1090 H 101.035 0.538478 1.33553 0
M  V30 1091 H 102.988 -0.922674 4.11175 0
M  V30 1092 H 101.712 -1.38445 2.95805 0
M  V30 1093 H 100.371 0.646427 3.60856 0
M  V30 1094 H 100.019 -1.52842 4.79216 0
M  V30 1095 H 99.7189 -0.145374 5.8742 0
M  V30 1096 H 101.243 -1.06757 6.01195 0
M  V30 1097 H 102.657 1.16849 5.61266 0
M  V30 1098 H 101.054 1.95739 5.6728 0
M  V30 1099 H 102.124 2.25746 4.29147 0
M  V30 1100 N 103.467 -1.45747 0.599634 0
M  V30 1101 C 104.397 -2.33235 -0.111306 0
M  V30 1102 C 105.378 -1.46359 -0.866781 0
M  V30 1103 O 106.563 -1.75146 -0.838904 0
M  V30 1104 C 103.693 -3.28932 -1.11451 0
M  V30 1105 C 102.647 -4.25381 -0.472772 0
M  V30 1106 C 101.973 -5.1071 -1.58365 0
M  V30 1107 C 103.273 -5.18831 0.600948 0
M  V30 1108 H 104.967 -2.92927 0.61919 0
M  V30 1109 H 102.513 -1.40857 0.299215 0
M  V30 1110 H 104.466 -3.89002 -1.62036 0
M  V30 1111 H 103.19 -2.67381 -1.8755 0
M  V30 1112 H 101.849 -3.66598 0.0121472 0
M  V30 1113 H 101.497 -4.45533 -2.33473 0
M  V30 1114 H 101.197 -5.7604 -1.15982 0
M  V30 1115 H 102.721 -5.73647 -2.09194 0
M  V30 1116 H 104.135 -5.73019 0.179491 0
M  V30 1117 H 102.532 -5.92595 0.946076 0
M  V30 1118 H 103.602 -4.6174 1.48068 0
M  V30 1119 N 104.945 -0.338344 -1.53925 0
M  V30 1120 C 105.893 0.536231 -2.26335 0
M  V30 1121 C 106.887 1.1063 -1.28286 0
M  V30 1122 O 108.093 1.05264 -1.46012 0
M  V30 1123 H 104.468 0.191602 -0.727181 0
M  V30 1124 H 106.439 -0.0965747 -2.98244 0
M  V30 1125 C 105.188 1.67803 -3.04528 0
M  V30 1126 H 104.511 1.24864 -3.79801 0
M  V30 1127 H 105.951 2.26526 -3.58416 0
M  V30 1128 C 104.41 2.60439 -2.13712 0
M  V30 1129 O 104.94 3.6255 -1.72975 0
M  V30 1130 N 103.146 2.29006 -1.78898 0
M  V30 1131 H 102.693 1.46011 -2.12223 0
M  V30 1132 H 102.651 2.91248 -1.18416 0
M  V30 1133 N 106.423 1.57458 -0.0668435 0
M  V30 1134 C 107.672 1.92477 0.602947 0
M  V30 1135 C 107.985 0.948419 1.71068 0
M  V30 1136 O 109.191 1.19124 2.43971 0
M  V30 1137 C 107.647 3.41903 1.12383 0
M  V30 1138 C 107.255 4.47975 0.04737 0
M  V30 1139 C 108.999 3.85931 1.76797 0
M  V30 1140 C 106.906 5.88529 0.582022 0
M  V30 1141 H 105.836 0.718387 0.22899 0
M  V30 1142 H 108.487 1.82978 -0.138276 0
M  V30 1143 H 106.869 3.46459 1.91787 0
M  V30 1144 H 108.043 4.55029 -0.726978 0
M  V30 1145 H 106.358 4.13384 -0.500243 0
M  V30 1146 H 108.955 4.88322 2.17821 0
M  V30 1147 H 109.298 3.23029 2.62599 0
M  V30 1148 H 109.831 3.83958 1.04024 0
M  V30 1149 H 106.57 6.55065 -0.238721 0
M  V30 1150 H 106.09 5.85004 1.324 0
M  V30 1151 H 107.769 6.38258 1.05999 0
M  V30 1152 N 107.901 -0.206675 1.56239 0
M  V30 1153 C 109.126 -0.949474 1.8439 0
M  V30 1154 C 109.551 -1.76549 0.649016 0
M  V30 1155 O 108.909 -1.76782 -0.402231 0
M  V30 1156 C 108.957 -1.83078 3.10668 0
M  V30 1157 O 108.061 -2.9281 2.90407 0
M  V30 1158 H 107.402 -0.268033 0.607499 0
M  V30 1159 H 109.932 -0.215488 2.03462 0
M  V30 1160 H 109.942 -2.2377 3.41161 0
M  V30 1161 H 108.617 -1.23112 3.97261 0
M  V30 1162 H 107.194 -2.55956 2.71184 0
M  V30 1163 N 109.379 -1.50304 -0.473955 0
M  V30 1164 C 110.329 -1.65347 -1.56985 0
M  V30 1165 C 111.313 -0.508176 -1.52664 0
M  V30 1166 O 112.505 -0.762446 -1.59737 0
M  V30 1167 C 109.634 -1.74832 -2.95447 0
M  V30 1168 C 108.72 -2.95028 -3.04662 0
M  V30 1169 N 109.111 -4.18747 -2.83698 0
M  V30 1170 C 107.409 -2.93527 -3.35795 0
M  V30 1171 C 108.11 -4.99687 -2.97805 0
M  V30 1172 N 107.086 -4.33585 -3.2788 0
M  V30 1173 H 110.888 -2.58698 -1.39472 0
M  V30 1174 H 108.402 -1.47449 -0.680629 0
M  V30 1175 H 110.399 -1.83712 -3.7424 0
M  V30 1176 H 109.059 -0.826376 -3.14008 0
M  V30 1177 H 110.07 -4.48291 -2.59337 0
M  V30 1178 H 106.747 -2.10821 -3.60362 0
M  V30 1179 H 108.137 -6.08057 -2.85861 0
M  V30 1180 N 110.857 0.726932 -1.39834 0
M  V30 1181 C 112.268 1.30558 -1.3346 0
M  V30 1182 C 112.619 1.962 -0.00273003 0
M  V30 1183 O 111.744 1.96826 0.899371 0
M  V30 1184 C 112.339 2.37404 -2.41713 0
M  V30 1185 C 110.898 2.90921 -2.38835 0
M  V30 1186 C 110.045 1.64578 -2.2318 0
M  V30 1187 H 112.996 0.523862 -1.49804 0
M  V30 1188 H 113.017 3.17984 -2.08966 0
M  V30 1189 H 112.529 1.89599 -3.38635 0
M  V30 1190 H 110.63 3.42985 -1.45575 0
M  V30 1191 H 110.743 3.43487 -3.33997 0
M  V30 1192 H 109.107 1.89219 -1.70494 0
M  V30 1193 H 109.89 1.18814 -3.22084 0
M  V30 1194 N 112.336 1.25143 0.95797 0
M  V30 1195 C 113.299 1.05321 2.03569 0
M  V30 1196 C 114.299 0.007152 1.60798 0
M  V30 1197 O 115.489 0.24903 1.72411 0
M  V30 1198 C 112.621 0.598394 3.35607 0
M  V30 1199 H 113.814 2.00986 2.22586 0
M  V30 1200 H 111.367 1.07502 1.13459 0
M  V30 1201 H 112.102 -0.361014 3.22284 0
M  V30 1202 H 111.887 1.35351 3.67998 0
M  V30 1203 H 113.377 0.48104 4.1482 0
M  V30 1204 N 113.814 -1.1601 1.06675 0
M  V30 1205 C 114.777 -2.18724 0.685001 0
M  V30 1206 C 115.777 -1.58496 -0.271246 0
M  V30 1207 O 116.967 -1.74119 -0.0531156 0
M  V30 1208 C 114.099 -3.40899 0.00853648 0
M  V30 1209 H 115.292 -2.54011 1.59431 0
M  V30 1210 H 112.845 -1.30352 0.862441 0
M  V30 1211 H 113.58 -3.11173 -0.913337 0
M  V30 1212 H 113.365 -3.8587 0.696204 0
M  V30 1213 H 114.855 -4.16886 -0.24414 0
M  V30 1214 N 115.292 -0.849877 -1.32721 0
M  V30 1215 C 116.517 -0.463856 -2.02146 0
M  V30 1216 C 116.942 0.930449 -1.63476 0
M  V30 1217 O 116.3 1.61033 -0.832952 0
M  V30 1218 C 116.348 -0.604955 -3.55489 0
M  V30 1219 O 115.452 0.36425 -4.10788 0
M  V30 1220 H 114.793 -0.187046 -0.637111 0
M  V30 1221 H 117.323 -1.14775 -1.69375 0
M  V30 1222 H 117.333 -0.490696 -4.05038 0
M  V30 1223 H 116.008 -1.62174 -3.82978 0
M  V30 1224 H 114.585 0.206628 -3.72327 0
M  V30 1225 N 116.77 1.45427 -0.607355 0
M  V30 1226 C 118.019 2.01452 -0.100036 0
M  V30 1227 C 118.332 1.48159 1.27704 0
M  V30 1228 O 119.538 1.96159 1.87707 0
M  V30 1229 C 117.994 3.59672 -0.128158 0
M  V30 1230 C 117.602 4.21962 -1.50507 0
M  V30 1231 C 119.346 4.23262 0.323932 0
M  V30 1232 C 117.253 5.72333 -1.48959 0
M  V30 1233 H 116.183 0.75325 -0.0336299 0
M  V30 1234 H 118.834 1.66901 -0.76265 0
M  V30 1235 H 117.216 3.91411 0.601105 0
M  V30 1236 H 118.39 4.01796 -2.25602 0
M  V30 1237 H 116.705 3.70565 -1.89923 0
M  V30 1238 H 119.302 5.33522 0.354691 0
M  V30 1239 H 119.645 3.93921 1.34656 0
M  V30 1240 H 120.178 3.96239 -0.352056 0
M  V30 1241 H 116.917 6.06373 -2.48981 0
M  V30 1242 H 116.437 5.94691 -0.781214 0
M  V30 1243 H 118.116 6.35525 -1.21313 0
M  V30 1244 N 118.248 0.346503 1.53744 0
M  V30 1245 C 119.178 -0.501193 2.28058 0
M  V30 1246 C 120.159 -1.10014 1.29734 0
M  V30 1247 O 121.344 -1.12097 1.58581 0
M  V30 1248 C 118.474 -1.65078 3.05559 0
M  V30 1249 C 117.428 -1.18003 4.11411 0
M  V30 1250 C 116.754 -2.41837 4.76884 0
M  V30 1251 C 118.054 -0.278394 5.21558 0
M  V30 1252 H 119.748 0.11875 2.99164 0
M  V30 1253 H 117.294 0.0585531 1.43881 0
M  V30 1254 H 119.247 -2.25028 3.56287 0
M  V30 1255 H 117.971 -2.29767 2.32109 0
M  V30 1256 H 116.63 -0.603331 3.61601 0
M  V30 1257 H 116.278 -3.0494 4.00026 0
M  V30 1258 H 115.978 -2.1102 5.48402 0
M  V30 1259 H 117.502 -3.02508 5.30397 0
M  V30 1260 H 118.916 -0.784823 5.67903 0
M  V30 1261 H 117.313 -0.0619707 6.00068 0
M  V30 1262 H 118.383 0.684677 4.80042 0
M  V30 1263 N 119.726 -1.57421 0.075193 0
M  V30 1264 C 120.972 -1.93905 -0.594025 0
M  V30 1265 C 121.305 -0.955701 -1.69056 0
M  V30 1266 O 120.58 0.0145373 -1.94495 0
M  V30 1267 C 120.863 -3.40638 -1.1678 0
M  V30 1268 C 120.716 -4.49733 -0.0776792 0
M  V30 1269 C 122.035 -3.88259 -2.07228 0
M  V30 1270 H 119.154 -0.705105 -0.214466 0
M  V30 1271 H 121.796 -1.8947 0.141854 0
M  V30 1272 H 119.946 -3.44549 -1.79494 0
M  V30 1273 H 121.618 -4.57942 0.555573 0
M  V30 1274 H 119.861 -4.29751 0.591286 0
M  V30 1275 H 120.532 -5.49549 -0.519603 0
M  V30 1276 H 123.008 -3.86376 -1.54445 0
M  V30 1277 H 121.884 -4.91533 -2.44308 0
M  V30 1278 H 122.145 -3.26396 -2.98191 0
M  V30 1279 N 121.204 0.198386 -1.56346 0
M  V30 1280 C 122.481 0.944982 -1.71258 0
M  V30 1281 C 122.861 2.0151 -0.629048 0
M  V30 1282 O 122.209 2.25639 0.360473 0
M  V30 1283 C 122.419 1.5344 -3.1346 0
M  V30 1284 C 123.767 2.01778 -3.73591 0
M  V30 1285 O 124.791 1.63288 -3.16568 0
M  V30 1286 O 123.65 2.72594 -4.73661 0
M  V30 1287 H 120.744 0.442939 -0.69838 0
M  V30 1288 H 123.29 0.188342 -1.68652 0
M  V30 1289 H 122.062 0.762869 -3.83792 0
M  V30 1290 H 121.685 2.35596 -3.20282 0
M  V30 1291 N 122.682 1.50554 0.465978 0
M  V30 1292 C 123.931 1.61038 1.21448 0
M  V30 1293 C 124.244 0.31865 1.92987 0
M  V30 1294 O 125.45 0.302469 2.6981 0
M  V30 1295 C 123.906 2.84283 2.20706 0
M  V30 1296 C 123.514 4.20352 1.54946 0
M  V30 1297 C 125.258 3.04115 2.96166 0
M  V30 1298 C 123.165 5.34778 2.5252 0
M  V30 1299 H 122.095 0.599718 0.457005 0
M  V30 1300 H 124.746 1.7699 0.484424 0
M  V30 1301 H 123.128 2.61901 2.97025 0
M  V30 1302 H 124.302 4.53008 0.843811 0
M  V30 1303 H 122.617 4.06167 0.917475 0
M  V30 1304 H 125.214 3.86774 3.69202 0
M  V30 1305 H 125.557 2.16045 3.55852 0
M  V30 1306 H 126.09 3.26702 2.26959 0
M  V30 1307 H 122.829 6.25018 1.97566 0
M  V30 1308 H 122.349 5.06534 3.21222 0
M  V30 1309 H 124.028 5.65561 3.14245 0
M  V30 1310 N 124.16 -0.719506 1.40217 0
M  V30 1311 C 125.123 -1.8153 1.39927 0
M  V30 1312 C 126.123 -1.58095 0.293723 0
M  V30 1313 O 127.313 -1.65209 0.552429 0
M  V30 1314 C 124.445 -3.19561 1.18716 0
M  V30 1315 H 125.638 -1.83186 2.37451 0
M  V30 1316 H 123.191 -0.924746 1.26008 0
M  V30 1317 H 123.926 -3.23557 0.219366 0
M  V30 1318 H 123.711 -3.3797 1.98793 0
M  V30 1319 H 125.201 -3.99598 1.21291 0
M  V30 1320 N 125.638 -1.25649 -0.95132 0
M  V30 1321 C 126.585 -1.06323 -2.04851 0
M  V30 1322 C 127.555 0.0286491 -1.66075 0
M  V30 1323 O 128.74 -0.12917 -1.90362 0
M  V30 1324 C 125.88 -0.691529 -3.381 0
M  V30 1325 C 124.993 -1.85861 -3.89974 0
M  V30 1326 C 124.128 -1.43096 -5.11563 0
M  V30 1327 C 123.167 -2.56696 -5.55674 0
M  V30 1328 N 122.304 -2.14684 -6.68472 0
M  V30 1329 H 127.144 -2.00222 -2.20715 0
M  V30 1330 H 124.681 -0.997027 -1.08156 0
M  V30 1331 H 126.639 -0.456963 -4.1469 0
M  V30 1332 H 125.269 0.210474 -3.22113 0
M  V30 1333 H 124.321 -2.20639 -3.09875 0
M  V30 1334 H 125.633 -2.71161 -4.18657 0
M  V30 1335 H 124.787 -1.15624 -5.9558 0
M  V30 1336 H 123.526 -0.548722 -4.84603 0
M  V30 1337 H 122.531 -2.84909 -4.7022 0
M  V30 1338 H 123.756 -3.45503 -5.8464 0
M  V30 1339 H 121.702 -1.28881 -6.43215 0
M  V30 1340 H 121.619 -2.9353 -6.96689 0
M  V30 1341 H 122.887 -1.90397 -7.5589 0
M  V30 1342 N 127.117 1.15442 -1.07289 0
M  V30 1343 C 128.342 1.90638 -0.816828 0
M  V30 1344 C 128.767 1.77445 0.624083 0
M  V30 1345 O 128.125 1.10671 1.43602 0
M  V30 1346 C 128.173 3.39008 -1.22906 0
M  V30 1347 O 127.277 4.10701 -0.373975 0
M  V30 1348 H 126.618 0.593555 -0.297638 0
M  V30 1349 H 129.148 1.46198 -1.43134 0
M  V30 1350 H 129.158 3.89801 -1.20497 0
M  V30 1351 H 127.833 3.47929 -2.27856 0
M  V30 1352 H 126.41 3.70046 -0.460499 0
M  V30 1353 N 128.595 0.856903 1.32268 0
M  V30 1354 C 129.527 0.260412 2.27716 0
M  V30 1355 C 130.54 -0.569137 1.52528 0
M  V30 1356 O 131.729 -0.39326 1.74114 0
M  V30 1357 C 128.829 -0.650477 3.32599 0
M  V30 1358 C 128.002 0.14372 4.37164 0
M  V30 1359 C 127.061 -0.69328 5.21613 0
M  V30 1360 O 126.087 -0.12599 5.69061 0
M  V30 1361 N 127.289 -2.00761 5.44679 0
M  V30 1362 H 130.054 1.08059 2.79541 0
M  V30 1363 H 127.615 0.717103 1.45152 0
M  V30 1364 H 129.607 -1.21581 3.86005 0
M  V30 1365 H 128.177 -1.37133 2.80915 0
M  V30 1366 H 127.397 0.890486 3.8401 0
M  V30 1367 H 128.685 0.68915 5.04111 0
M  V30 1368 H 128.083 -2.49181 5.07863 0
M  V30 1369 H 126.64 -2.52103 6.01072 0
M  V30 1370 N 130.073 -1.45103 0.615059 0
M  V30 1371 C 131.35 -1.95549 0.0448276 0
M  V30 1372 C 131.73 -1.55737 -1.4251 0
M  V30 1373 O 131.078 -0.823556 -2.13143 0
M  V30 1374 C 131.288 -3.48098 0.250785 0
M  V30 1375 C 132.636 -4.24384 0.135509 0
M  V30 1376 O 133.66 -3.55738 0.181299 0
M  V30 1377 O 132.519 -5.46493 0.0268878 0
M  V30 1378 H 129.613 -0.8264 -0.0314845 0
M  V30 1379 H 132.159 -1.55232 0.685642 0
M  V30 1380 H 130.931 -3.7007 1.27139 0
M  V30 1381 H 130.554 -3.95323 -0.424937 0
M  V30 1382 N 131.551 -0.354651 -1.53558 0
M  V30 1383 C 132.828 0.294281 -1.93374 0
M  V30 1384 C 133.208 1.67313 -1.28723 0
M  V30 1385 O 132.556 2.24179 -0.442247 0
M  V30 1386 C 132.766 0.355445 -3.47185 0
M  V30 1387 C 134.114 0.601007 -4.20325 0
M  V30 1388 O 135.138 0.437106 -3.53508 0
M  V30 1389 O 133.997 0.919322 -5.38712 0
M  V30 1390 H 131.091 0.174033 -0.808481 0
M  V30 1391 H 133.637 -0.406638 -1.64756 0
M  V30 1392 H 132.409 -0.611729 -3.86489 0
M  V30 1393 H 132.032 1.1027 -3.82003 0
M  V30 1394 N 133.029 1.57378 -0.0835403 0
M  V30 1395 C 133.939 2.16897 0.894021 0
M  V30 1396 C 134.955 1.13528 1.31861 0
M  V30 1397 O 136.131 1.45848 1.3889 0
M  V30 1398 C 133.196 2.72831 2.13925 0
M  V30 1399 C 132.257 3.91115 1.76997 0
M  V30 1400 C 131.49 4.44371 2.95584 0
M  V30 1401 O 131.713 3.96596 4.09961 0
M  V30 1402 O 130.647 5.35549 2.74719 0
M  V30 1403 H 134.473 3.00814 0.417679 0
M  V30 1404 H 132.058 1.48741 0.140181 0
M  V30 1405 H 133.94 3.0863 2.86924 0
M  V30 1406 H 132.615 1.91967 2.60635 0
M  V30 1407 H 131.522 3.60148 1.01214 0
M  V30 1408 H 132.855 4.73307 1.3506 0
M  V30 1409 N 134.507 -0.190092 1.56449 0
M  V30 1410 C 135.753 -0.911052 1.81184 0
M  V30 1411 C 136.086 -1.82699 0.658396 0
M  V30 1412 O 135.361 -1.91491 -0.340775 0
M  V30 1413 C 135.644 -1.72297 3.16205 0
M  V30 1414 C 135.497 -0.831419 4.42049 0
M  V30 1415 C 136.816 -2.69454 3.47969 0
M  V30 1416 H 133.935 -0.32977 0.659106 0
M  V30 1417 H 136.577 -0.178169 1.89163 0
M  V30 1418 H 134.727 -2.34778 3.09534 0
M  V30 1419 H 136.399 -0.220929 4.60771 0
M  V30 1420 H 134.642 -0.138406 4.33579 0
M  V30 1421 H 135.313 -1.43461 5.33032 0
M  V30 1422 H 137.789 -2.17104 3.54972 0
M  V30 1423 H 136.665 -3.23342 4.43555 0
M  V30 1424 H 136.926 -3.48744 2.71717 0
M  V30 1425 N 135.985 -1.50799 -0.457987 0
M  V30 1426 C 137.233 -1.62121 -1.2067 0
M  V30 1427 C 137.554 -0.329793 -1.92191 0
M  V30 1428 O 136.824 0.653409 -1.84682 0
M  V30 1429 H 135.404 -0.597441 -0.448411 0
M  V30 1430 H 138.066 -1.87637 -0.527096 0
M  V30 1431 H 137.162 -2.43882 -1.94751 0
M  V30 1432 N 137.463 0.71206 -1.40597 0
M  V30 1433 C 138.74 1.46536 -1.29563 0
M  V30 1434 C 139.12 2.10931 0.0844217 0
M  V30 1435 O 138.468 2.00418 1.0975 0
M  V30 1436 C 138.678 2.49821 -2.43701 0
M  V30 1437 C 140.026 3.15551 -2.841 0
M  V30 1438 O 141.05 2.60142 -2.4332 0
M  V30 1439 O 139.909 4.15867 -3.54566 0
M  V30 1440 H 137.003 0.651801 -0.509004 0
M  V30 1441 H 139.549 0.743935 -1.52524 0
M  V30 1442 H 138.321 2.00778 -3.35863 0
M  V30 1443 H 137.944 3.29495 -2.22528 0
M  V30 1444 N 138.941 1.26152 0.944643 0
M  V30 1445 C 140.189 1.11271 1.6871 0
M  V30 1446 C 140.51 -0.345166 1.91921 0
M  V30 1447 O 139.78 -1.24387 1.51343 0
M  V30 1448 H 138.36 0.408783 0.625224 0
M  V30 1449 H 141.022 1.58427 1.1352 0
M  V30 1450 H 140.118 1.62879 2.66227 0
M  V30 1451 N 140.419 -1.14872 1.07899 0
M  V30 1452 C 141.647 -1.89661 0.82683 0
M  V30 1453 C 142.062 -1.78312 -0.620519 0
M  V30 1454 O 141.419 -1.13888 -1.42604 0
M  V30 1455 C 141.47 -3.39817 1.23316 0
M  V30 1456 O 141.191 -3.50845 2.62372 0
M  V30 1457 C 142.692 -4.31615 1.0111 0
M  V30 1458 H 139.912 -0.60092 0.298557 0
M  V30 1459 H 142.456 -1.4551 1.43691 0
M  V30 1460 H 140.611 -3.8161 0.667286 0
M  V30 1461 H 141.025 -4.44076 2.79101 0
M  V30 1462 H 142.499 -5.35367 1.34486 0
M  V30 1463 H 142.976 -4.39169 -0.0522168 0
M  V30 1464 H 143.582 -3.95572 1.56215 0
M  V30 1465 N 141.898 -0.863906 -1.31812 0
M  V30 1466 C 143.126 -0.486111 -2.01108 0
M  V30 1467 C 143.541 0.919755 -1.64882 0
M  V30 1468 O 142.898 1.60162 -0.874893 0
M  V30 1469 C 142.949 -0.626435 -3.56031 0
M  V30 1470 O 142.67 -1.97693 -3.90959 0
M  V30 1471 C 144.171 -0.248857 -4.42601 0
M  V30 1472 H 141.391 -0.190052 -0.643523 0
M  V30 1473 H 143.935 -1.1634 -1.68182 0
M  V30 1474 H 142.09 0.00322717 -3.874 0
M  V30 1475 H 142.504 -1.98034 -4.85678 0
M  V30 1476 H 143.978 -0.398016 -5.50563 0
M  V30 1477 H 144.455 0.811489 -4.31638 0
M  V30 1478 H 145.061 -0.853971 -4.16638 0
M  V30 1479 N 143.376 1.44774 -0.622745 0
M  V30 1480 C 144.601 2.06999 -0.128968 0
M  V30 1481 C 145.026 1.4617 1.1839 0
M  V30 1482 O 144.384 0.560007 1.72434 0
M  V30 1483 C 144.432 3.60595 -0.0188351 0
M  V30 1484 O 143.536 3.99398 1.02739 0
M  V30 1485 H 142.877 0.659047 -0.0809544 0
M  V30 1486 H 145.407 1.85784 -0.85705 0
M  V30 1487 H 145.417 4.07627 0.174476 0
M  V30 1488 H 144.092 4.04252 -0.977384 0
M  V30 1489 H 142.669 3.64011 0.809326 0
M  V30 1490 N 144.854 0.36279 1.53368 0
M  V30 1491 C 146.1 -0.228113 2.01513 0
M  V30 1492 C 146.433 -1.48648 1.2497 0
M  V30 1493 O 145.708 -1.91459 0.342616 0
M  V30 1494 C 145.991 -0.522884 3.56284 0
M  V30 1495 C 145.844 0.74892 4.43521 0
M  V30 1496 C 147.163 -1.32461 4.19693 0
M  V30 1497 H 144.282 -0.0814343 0.732487 0
M  V30 1498 H 146.924 0.48713 1.83649 0
M  V30 1499 H 145.074 -1.1322 3.71636 0
M  V30 1500 H 146.746 1.38648 4.39971 0
M  V30 1501 H 144.989 1.36986 4.11603 0
M  V30 1502 H 145.66 0.497667 5.49752 0
M  V30 1503 H 148.136 -0.809203 4.08156 0
M  V30 1504 H 147.012 -1.49961 5.28018 0
M  V30 1505 H 147.273 -2.33232 3.75573 0
M  V30 1506 N 146.332 -1.57332 0.0918853 0
M  V30 1507 C 147.578 -1.94524 -0.573425 0
M  V30 1508 C 147.911 -0.973578 -1.68033 0
M  V30 1509 O 147.186 -0.00609226 -1.94499 0
M  V30 1510 C 147.469 -3.41858 -1.13161 0
M  V30 1511 C 147.322 -4.4979 -0.0299747 0
M  V30 1512 C 148.641 -3.90435 -2.03098 0
M  V30 1513 H 145.76 -0.70734 -0.206975 0
M  V30 1514 H 148.402 -1.89309 0.161942 0
M  V30 1515 H 146.552 -3.46433 -1.7583 0
M  V30 1516 H 148.224 -4.57327 0.604112 0
M  V30 1517 H 146.467 -4.291 0.636833 0
M  V30 1518 H 147.138 -5.50069 -0.461287 0
M  V30 1519 H 149.614 -3.87992 -1.50338 0
M  V30 1520 H 148.49 -4.94097 -2.39081 0
M  V30 1521 H 148.751 -3.29541 -2.94712 0
M  V30 1522 N 147.81 0.181792 -1.56548 0
M  V30 1523 C 149.056 0.901431 -1.81665 0
M  V30 1524 C 149.389 1.82347 -0.668075 0
M  V30 1525 O 148.664 1.91669 0.330615 0
M  V30 1526 C 148.947 1.70618 -3.17115 0
M  V30 1527 C 148.8 0.807964 -4.42484 0
M  V30 1528 C 150.119 2.67605 -3.49393 0
M  V30 1529 H 147.238 0.32627 -0.660846 0
M  V30 1530 H 149.88 0.168134 -1.89255 0
M  V30 1531 H 148.03 2.33133 -3.10775 0
M  V30 1532 H 149.702 0.19649 -4.60881 0
M  V30 1533 H 147.945 0.115411 -4.33646 0
M  V30 1534 H 148.616 1.40632 -5.33785 0
M  V30 1535 H 151.092 2.15218 -3.56118 0
M  V30 1536 H 149.968 3.20985 -4.45264 0
M  V30 1537 H 150.229 3.47298 -2.73563 0
M  V30 1538 N 149.288 1.51039 0.449983 0
M  V30 1539 C 150.534 1.63322 1.20223 0
M  V30 1540 C 150.867 0.34241 1.91158 0
M  V30 1541 O 150.142 -0.657344 1.83055 0
M  V30 1542 C 150.425 2.82801 2.22925 0
M  V30 1543 C 150.278 4.21823 1.56157 0
M  V30 1544 C 151.597 2.97807 3.24035 0
M  V30 1545 H 148.716 0.594407 0.435718 0
M  V30 1546 H 151.358 1.83489 0.493136 0
M  V30 1547 H 149.508 2.65738 2.834 0
M  V30 1548 H 151.18 4.50526 0.991162 0
M  V30 1549 H 149.423 4.25105 0.864172 0
M  V30 1550 H 150.094 5.01391 2.30891 0
M  V30 1551 H 152.57 3.13497 2.73603 0
M  V30 1552 H 151.446 3.82992 3.93202 0
M  V30 1553 H 151.707 2.09328 3.89402 0
M  V30 1554 N 150.766 -0.704594 1.40972 0
M  V30 1555 C 151.729 -1.80035 1.41845 0
M  V30 1556 C 152.729 -1.57774 0.310474 0
M  V30 1557 O 153.919 -1.64613 0.56992 0
M  V30 1558 C 151.051 -3.18284 1.22098 0
M  V30 1559 H 152.244 -1.80658 2.3938 0
M  V30 1560 H 149.797 -0.911329 1.26982 0
M  V30 1561 H 150.532 -3.23306 0.253672 0
M  V30 1562 H 150.317 -3.35843 2.02366 0
M  V30 1563 H 151.807 -3.98289 1.25522 0
M  V30 1564 N 152.244 -1.26651 -0.937939 0
M  V30 1565 C 153.492 -1.12165 -1.68118 0
M  V30 1566 C 153.813 0.334983 -1.92101 0
M  V30 1567 O 153.083 1.23583 -1.52 0
M  V30 1568 H 151.663 -0.412093 -0.623048 0
M  V30 1569 H 154.325 -1.59027 -1.12678 0
M  V30 1570 H 153.421 -1.64289 -2.6536 0
M  V30 1571 N 153.722 1.14298 -1.08507 0
M  V30 1572 C 154.632 2.23027 -0.727753 0
M  V30 1573 C 155.648 1.71952 0.26619 0
M  V30 1574 O 156.824 2.011 0.109882 0
M  V30 1575 C 153.889 3.46403 -0.143541 0
M  V30 1576 C 152.95 4.12413 -1.19223 0
M  V30 1577 C 152.183 5.29899 -0.635798 0
M  V30 1578 O 152.406 5.67796 0.544393 0
M  V30 1579 O 151.34 5.85717 -1.38634 0
M  V30 1580 H 155.166 2.55945 -1.63481 0
M  V30 1581 H 152.751 1.22248 -0.858817 0
M  V30 1582 H 154.633 4.21018 0.179404 0
M  V30 1583 H 153.308 3.15206 0.736659 0
M  V30 1584 H 152.215 3.39667 -1.56772 0
M  V30 1585 H 153.548 4.47718 -2.04474 0
M  V30 1586 N 155.201 0.870884 1.31352 0
M  V30 1587 C 156.131 0.343096 2.30966 0
M  V30 1588 C 157.112 -0.566507 1.60389 0
M  V30 1589 O 158.297 -0.483336 1.88089 0
M  V30 1590 C 155.427 -0.455487 3.443 0
M  V30 1591 C 154.381 0.361103 4.26474 0
M  V30 1592 C 153.707 -0.563221 5.31725 0
M  V30 1593 C 155.007 1.59566 4.97329 0
M  V30 1594 H 156.701 1.17548 2.75359 0
M  V30 1595 H 154.247 0.566686 1.32381 0
M  V30 1596 H 156.2 -0.83525 4.13039 0
M  V30 1597 H 154.924 -1.32139 2.98675 0
M  V30 1598 H 153.583 0.722825 3.59403 0
M  V30 1599 H 153.231 -1.42643 4.82351 0
M  V30 1600 H 152.931 -0.0207409 5.87596 0
M  V30 1601 H 154.455 -0.939808 6.03324 0
M  V30 1602 H 155.869 1.28728 5.58661 0
M  V30 1603 H 154.266 2.07728 5.63 0
M  V30 1604 H 155.336 2.34798 4.24262 0
M  V30 1605 N 156.679 -1.44442 0.630414 0
M  V30 1606 C 157.609 -2.33418 -0.0618083 0
M  V30 1607 C 158.59 -1.48165 -0.835541 0
M  V30 1608 O 159.775 -1.76886 -0.801564 0
M  V30 1609 C 156.905 -3.31222 -1.04449 0
M  V30 1610 C 155.859 -4.26288 -0.382436 0
M  V30 1611 C 155.185 -5.13954 -1.47497 0
M  V30 1612 C 156.485 -5.1744 0.710865 0
M  V30 1613 H 158.179 -2.91548 0.681184 0
M  V30 1614 H 155.725 -1.40191 0.329026 0
M  V30 1615 H 157.678 -3.92351 -1.53748 0
M  V30 1616 H 156.402 -2.71299 -1.81836 0
M  V30 1617 H 155.061 -3.6649 0.0899054 0
M  V30 1618 H 154.709 -4.50385 -2.2397 0
M  V30 1619 H 154.409 -5.7837 -1.03737 0
M  V30 1620 H 155.933 -5.77955 -1.96979 0
M  V30 1621 H 157.347 -5.72509 0.300996 0
M  V30 1622 H 155.744 -5.90455 1.07156 0
M  V30 1623 H 156.814 -4.58496 1.57829 0
M  V30 1624 N 158.157 -0.370918 -1.53173 0
M  V30 1625 C 159.105 0.488101 -2.27421 0
M  V30 1626 C 160.099 1.07884 -1.30604 0
M  V30 1627 O 161.305 1.02143 -1.48212 0
M  V30 1628 H 157.68 0.176134 -0.731082 0
M  V30 1629 H 159.651 -0.159815 -2.97972 0
M  V30 1630 C 158.4 1.61306 -3.08019 0
M  V30 1631 H 157.723 1.1678 -3.82364 0
M  V30 1632 H 159.163 2.18872 -3.63141 0
M  V30 1633 C 157.622 2.55848 -2.19188 0
M  V30 1634 O 158.152 3.58799 -1.80626 0
M  V30 1635 N 156.358 2.2516 -1.83715 0
M  V30 1636 H 155.905 1.41476 -2.15273 0
M  V30 1637 H 155.863 2.8867 -1.24567 0
M  V30 1638 N 159.635 1.57281 -0.100228 0
M  V30 1639 C 160.545 2.17833 0.870965 0
M  V30 1640 C 161.561 1.14921 1.30649 0
M  V30 1641 O 162.737 1.47313 1.37335 0
M  V30 1642 C 159.802 2.75085 2.1102 0
M  V30 1643 C 158.863 3.9297 1.72838 0
M  V30 1644 C 158.096 4.47482 2.90854 0
M  V30 1645 O 158.319 4.00922 4.05731 0
M  V30 1646 O 157.253 5.38433 2.69023 0
M  V30 1647 H 161.079 3.0124 0.38575 0
M  V30 1648 H 158.664 1.48881 0.124397 0
M  V30 1649 H 160.546 3.11656 2.83634 0
M  V30 1650 H 159.221 1.94721 2.58584 0
M  V30 1651 H 158.128 3.61201 0.973883 0
M  V30 1652 H 159.461 4.74713 1.30033 0
M  V30 1653 N 161.113 -0.173488 1.56642 0
M  V30 1654 C 162.076 -1.19859 1.95362 0
M  V30 1655 C 163.076 -1.37296 0.83704 0
M  V30 1656 O 164.266 -1.34739 1.10413 0
M  V30 1657 C 161.398 -2.56405 2.24654 0
M  V30 1658 H 162.591 -0.867062 2.87092 0
M  V30 1659 H 160.144 -0.415853 1.50666 0
M  V30 1660 H 160.879 -2.94576 1.35631 0
M  V30 1661 H 160.664 -2.45115 3.06041 0
M  V30 1662 H 162.154 -3.30287 2.5554 0
M  V30 1663 N 162.591 -1.51276 -0.441967 0
M  V30 1664 C 163.538 -1.72256 -1.53612 0
M  V30 1665 C 164.508 -0.564164 -1.56225 0
M  V30 1666 O 165.693 -0.798074 -1.73307 0
M  V30 1667 C 162.833 -1.84932 -2.91366 0
M  V30 1668 C 161.946 -3.12459 -2.98317 0
M  V30 1669 C 161.081 -3.15758 -4.27166 0
M  V30 1670 C 160.12 -4.37619 -4.27967 0
M  V30 1671 N 159.257 -4.38493 -5.48333 0
M  V30 1672 H 164.097 -2.65654 -1.35026 0
M  V30 1673 H 161.634 -1.31662 -0.656009 0
M  V30 1674 H 163.592 -1.90263 -3.7129 0
M  V30 1675 H 162.222 -0.949461 -3.08521 0
M  V30 1676 H 161.274 -3.1646 -2.11086 0
M  V30 1677 H 162.586 -4.02382 -2.94771 0
M  V30 1678 H 161.74 -3.19979 -5.15459 0
M  V30 1679 H 160.479 -2.23715 -4.33362 0
M  V30 1680 H 159.484 -4.33579 -3.38067 0
M  V30 1681 H 160.709 -5.30921 -4.23438 0
M  V30 1682 H 158.655 -3.49318 -5.55259 0
M  V30 1683 H 158.572 -5.22219 -5.46647 0
M  V30 1684 H 159.84 -4.469 -6.38671 0
M  V30 1685 N 164.069 0.697108 -1.41344 0
M  V30 1686 C 165.317 1.45426 -1.40341 0
M  V30 1687 C 165.638 1.94996 -0.0128787 0
M  V30 1688 O 164.908 1.71599 0.945027 0
M  V30 1689 H 163.488 0.539594 -0.516573 0
M  V30 1690 H 166.15 0.825201 -1.76569 0
M  V30 1691 H 165.246 2.31817 -2.08967 0
M  V30 1692 N 165.547 1.27147 0.931209 0
M  V30 1693 C 166.477 1.12081 2.04842 0
M  V30 1694 C 167.458 0.0232364 1.70084 0
M  V30 1695 O 168.643 0.197085 1.93197 0
M  V30 1696 C 165.773 0.76354 3.38803 0
M  V30 1697 C 164.727 1.81396 3.87659 0
M  V30 1698 C 164.053 1.31075 5.18385 0
M  V30 1699 C 165.353 3.21739 4.11438 0
M  V30 1700 H 167.047 2.05537 2.17703 0
M  V30 1701 H 164.593 0.989603 1.04608 0
M  V30 1702 H 166.546 0.644982 4.16435 0
M  V30 1703 H 165.27 -0.206727 3.25945 0
M  V30 1704 H 163.929 1.92136 3.12217 0
M  V30 1705 H 163.577 0.330037 5.01916 0
M  V30 1706 H 163.277 2.013 5.52044 0
M  V30 1707 H 164.801 1.20506 5.98591 0
M  V30 1708 H 166.215 3.14019 4.79651 0
M  V30 1709 H 164.612 3.89644 4.56397 0
M  V30 1710 H 165.682 3.67054 3.16859 0
M  V30 1711 N 167.025 -1.13721 1.09112 0
M  V30 1712 C 167.955 -2.21148 0.749385 0
M  V30 1713 C 168.936 -1.6792 -0.271475 0
M  V30 1714 O 170.121 -1.93693 -0.140251 0
M  V30 1715 C 167.251 -3.46905 0.165659 0
M  V30 1716 C 166.205 -4.13203 1.11567 0
M  V30 1717 C 165.531 -5.33248 0.393809 0
M  V30 1718 C 166.831 -4.60912 2.45678 0
M  V30 1719 H 168.525 -2.4999 1.64758 0
M  V30 1720 H 166.071 -1.20156 0.793626 0
M  V30 1721 H 168.024 -4.21313 -0.085466 0
M  V30 1722 H 166.748 -3.17449 -0.767714 0
M  V30 1723 H 165.407 -3.40758 1.35202 0
M  V30 1724 H 165.055 -5.00054 -0.543599 0
M  V30 1725 H 164.755 -5.78552 1.02721 0
M  V30 1726 H 166.279 -6.10413 0.150908 0
M  V30 1727 H 167.693 -5.26759 2.26269 0
M  V30 1728 H 166.09 -5.16944 3.04776 0
M  V30 1729 H 167.16 -3.75603 3.06677 0
M  V30 1730 N 168.503 -0.877838 -1.30888 0
M  V30 1731 C 169.451 -0.328662 -2.30266 0
M  V30 1732 C 170.445 0.560496 -1.59859 0
M  V30 1733 O 171.651 0.445722 -1.74394 0
M  V30 1734 H 168.026 -0.0876142 -0.746879 0
M  V30 1735 H 169.997 -1.18061 -2.74051 0
M  V30 1736 C 168.746 0.448071 -3.44801 0
M  V30 1737 H 168.069 -0.226859 -3.99156 0
M  V30 1738 H 169.509 0.797541 -4.16432 0
M  V30 1739 C 167.968 1.64239 -2.94155 0
M  V30 1740 O 168.498 2.74175 -2.93583 0
M  V30 1741 N 166.704 1.47716 -2.50256 0
M  V30 1742 H 166.251 0.582821 -2.5092 0
M  V30 1743 H 166.209 2.27765 -2.16727 0
M  V30 1744 N 169.982 1.44106 -0.638065 0
M  V30 1745 C 171.259 1.95453 -0.0759321 0
M  V30 1746 C 171.639 1.57984 1.40015 0
M  V30 1747 O 170.987 0.857361 2.11806 0
M  V30 1748 C 171.197 3.47655 -0.306132 0
M  V30 1749 C 172.545 4.24114 -0.203008 0
M  V30 1750 O 173.569 3.55405 -0.237871 0
M  V30 1751 O 172.428 5.46381 -0.113827 0
M  V30 1752 H 169.522 0.826797 0.0183332 0
M  V30 1753 H 172.068 1.54122 -0.710251 0
M  V30 1754 H 170.84 3.68 -1.3301 0
M  V30 1755 H 170.463 3.95949 0.361991 0
M  V30 1756 N 171.46 0.379036 1.52974 0
M  V30 1757 C 172.708 -0.206014 2.01047 0
M  V30 1758 C 173.029 -1.48175 1.26765 0
M  V30 1759 O 172.299 -1.92085 0.384743 0
M  V30 1760 H 170.879 -0.0791184 0.742798 0
M  V30 1761 H 173.541 0.508366 1.88153 0
M  V30 1762 H 172.637 -0.423501 3.09213 0
M  V30 1763 N 172.938 -1.57226 0.108567 0
M  V30 1764 C 174.187 -1.94008 -0.551703 0
M  V30 1765 C 174.5 -0.993442 -1.68494 0
M  V30 1766 O 175.706 -1.25551 -2.40726 0
M  V30 1767 C 174.162 -3.44763 -1.03279 0
M  V30 1768 C 173.77 -4.47943 0.0714193 0
M  V30 1769 C 175.514 -3.90483 -1.66503 0
M  V30 1770 C 173.421 -5.89865 -0.425779 0
M  V30 1771 H 172.351 -0.724206 -0.209863 0
M  V30 1772 H 175.002 -1.82547 0.186741 0
M  V30 1773 H 173.384 -3.51422 -1.82533 0
M  V30 1774 H 174.558 -4.52942 0.847365 0
M  V30 1775 H 172.873 -4.11913 0.609669 0
M  V30 1776 H 175.47 -4.93925 -2.04798 0
M  V30 1777 H 175.813 -3.29877 -2.53942 0
M  V30 1778 H 176.346 -3.86581 -0.938074 0
M  V30 1779 H 173.085 -6.54202 0.412316 0
M  V30 1780 H 172.605 -5.88309 -1.16843 0
M  V30 1781 H 174.284 -6.40844 -0.890397 0
M  V30 1782 N 174.416 0.165178 -1.56732 0
M  V30 1783 C 175.326 1.22423 -2.00125 0
M  V30 1784 C 176.342 1.48084 -0.913619 0
M  V30 1785 O 177.518 1.60112 -1.22172 0
M  V30 1786 C 174.583 2.54197 -2.35764 0
M  V30 1787 C 173.644 2.36343 -3.58386 0
M  V30 1788 C 172.877 3.61834 -3.92316 0
M  V30 1789 O 173.1 4.67267 -3.27135 0
M  V30 1790 O 172.034 3.55579 -4.85641 0
M  V30 1791 H 175.86 0.885886 -2.90492 0
M  V30 1792 H 173.445 0.372518 -1.44681 0
M  V30 1793 H 175.327 3.3192 -2.59629 0
M  V30 1794 H 174.002 2.87598 -1.48557 0
M  V30 1795 H 172.909 1.56632 -3.39731 0
M  V30 1796 H 174.242 2.07865 -4.46154 0
M  V30 1797 N 175.894 1.51508 0.433938 0
M  V30 1798 C 177.305 1.56784 1.01369 0
M  V30 1799 C 177.656 0.393349 1.92217 0
M  V30 1800 O 176.781 -0.489441 2.10792 0
M  V30 1801 C 177.376 2.84144 1.8452 0
M  V30 1802 C 175.935 2.9198 2.37539 0
M  V30 1803 C 175.082 2.51482 1.16843 0
M  V30 1804 H 178.033 1.57236 0.215081 0
M  V30 1805 H 178.054 2.68098 2.70007 0
M  V30 1806 H 177.566 3.69607 1.18373 0
M  V30 1807 H 175.667 2.10955 3.0713 0
M  V30 1808 H 175.78 3.95704 2.70103 0
M  V30 1809 H 174.144 2.04758 1.51481 0
M  V30 1810 H 174.927 3.39293 0.523015 0
M  V30 1811 N 177.372 -0.689602 1.41712 0
M  V30 1812 C 178.32 -1.82475 1.44242 0
M  V30 1813 C 179.314 -1.66354 0.319774 0
M  V30 1814 O 180.52 -1.73143 0.492089 0
M  V30 1815 H 176.895 -0.601416 0.451445 0
M  V30 1816 H 178.866 -1.77458 2.39899 0
M  V30 1817 C 177.615 -3.20535 1.3473 0
M  V30 1818 H 176.938 -3.33559 2.20405 0
M  V30 1819 H 178.378 -4.00023 1.40562 0
M  V30 1820 C 176.837 -3.36846 0.0603281 0
M  V30 1821 O 177.367 -3.91656 -0.892663 0
M  V30 1822 N 175.573 -2.90595 -0.0177039 0
M  V30 1823 H 175.12 -2.46178 0.758572 0
M  V30 1824 H 175.078 -3.01886 -0.878201 0
M  V30 1825 N 178.85 -1.27639 -0.924453 0
M  V30 1826 C 179.783 -1.04966 -2.02626 0
M  V30 1827 C 180.761 0.0309505 -1.62571 0
M  V30 1828 O 181.945 -0.114846 -1.8815 0
M  V30 1829 C 179.072 -0.59292 -3.3347 0
M  V30 1830 C 178.118 -1.66858 -3.92506 0
M  V30 1831 S 178.951 -3.2619 -4.24689 0
M  V30 1832 C 180.107 -2.82325 -5.58609 0
M  V30 1833 H 180.34 -1.98252 -2.21547 0
M  V30 1834 H 177.873 -1.11506 -1.06798 0
M  V30 1835 H 179.831 -0.336086 -4.09122 0
M  V30 1836 H 178.492 0.319939 -3.12466 0
M  V30 1837 H 177.685 -1.30038 -4.86935 0
M  V30 1838 H 177.287 -1.87766 -3.2345 0
M  V30 1839 H 179.579 -2.2783 -6.38044 0
M  V30 1840 H 180.522 -3.75511 -6.00331 0
M  V30 1841 H 180.93 -2.21367 -5.19285 0
M  V30 1842 N 180.328 1.1314 -1.09713 0
M  V30 1843 C 181.577 1.83838 -0.829851 0
M  V30 1844 C 181.89 1.84599 0.646728 0
M  V30 1845 O 183.096 2.51218 1.02965 0
M  V30 1846 C 181.552 3.30069 -1.43466 0
M  V30 1847 C 181.16 3.37688 -2.94399 0
M  V30 1848 C 182.904 4.05788 -1.24645 0
M  V30 1849 C 180.811 4.78209 -3.47952 0
M  V30 1850 H 179.741 0.68877 -0.306777 0
M  V30 1851 H 182.392 1.27448 -1.3202 0
M  V30 1852 H 180.774 3.8628 -0.871996 0
M  V30 1853 H 181.948 2.91456 -3.56918 0
M  V30 1854 H 180.263 2.75436 -3.12289 0
M  V30 1855 H 182.86 5.09535 -1.62107 0
M  V30 1856 H 183.203 4.15878 -0.187357 0
M  V30 1857 H 183.736 3.55915 -1.77678 0
M  V30 1858 H 180.475 4.73311 -4.53495 0
M  V30 1859 H 179.995 5.24924 -2.90198 0
M  V30 1860 H 181.674 5.47133 -3.45332 0
M  V30 1861 N 181.806 0.884767 1.30421 0
M  V30 1862 C 183.055 0.499164 1.95426 0
M  V30 1863 C 183.368 -0.95645 1.70621 0
M  V30 1864 O 184.574 -1.44889 2.29607 0
M  V30 1865 C 183.03 0.84177 3.49917 0
M  V30 1866 C 182.638 2.31514 3.83543 0
M  V30 1867 C 184.382 0.525355 4.21237 0
M  V30 1868 C 182.289 2.59939 5.31212 0
M  V30 1869 H 181.219 0.182944 0.73147 0
M  V30 1870 H 183.87 1.07971 1.48373 0
M  V30 1871 H 182.252 0.190311 3.95542 0
M  V30 1872 H 183.426 3.0109 3.48829 0
M  V30 1873 H 181.741 2.59907 3.25326 0
M  V30 1874 H 184.338 0.714762 5.29901 0
M  V30 1875 H 184.681 -0.535222 4.12845 0
M  V30 1876 H 185.214 1.134 3.81294 0
M  V30 1877 H 181.953 3.64736 5.44654 0
M  V30 1878 H 181.473 1.94972 5.67227 0
M  V30 1879 H 183.152 2.45429 5.98643 0
M  V30 1880 N 183.284 -1.43765 0.645699 0
M  V30 1881 C 184.561 -1.9541 0.0862963 0
M  V30 1882 C 184.941 -1.58725 -1.39175 0
M  V30 1883 O 184.289 -0.868581 -2.11348 0
M  V30 1884 C 184.499 -3.47488 0.324565 0
M  V30 1885 C 185.847 -4.24001 0.225497 0
M  V30 1886 O 186.871 -3.55274 0.256715 0
M  V30 1887 O 185.73 -5.46313 0.142801 0
M  V30 1888 H 182.824 -0.826882 -0.0139483 0
M  V30 1889 H 185.37 -1.53743 0.718415 0
M  V30 1890 H 184.142 -3.67289 1.3496 0
M  V30 1891 H 183.765 -3.96135 -0.340987 0
M  V30 1892 N 184.763 -0.387143 -1.52771 0
M  V30 1893 C 186.011 0.195349 -2.01154 0
M  V30 1894 C 186.332 1.475 -1.27549 0
M  V30 1895 O 185.602 1.91878 -0.394924 0
M  V30 1896 H 184.182 0.075178 -0.743207 0
M  V30 1897 H 186.844 -0.518337 -1.87881 0
M  V30 1898 H 185.94 0.407096 -3.09434 0
M  V30 1899 N 186.241 1.57166 -0.116904 0
M  V30 1900 C 187.488 1.95123 0.541603 0
M  V30 1901 C 187.816 1.00006 1.6682 0
M  V30 1902 O 187.071 0.0235658 1.95686 0
M  V30 1903 C 187.37 3.39508 1.11664 0
M  V30 1904 C 187.036 4.50762 0.111606 0
M  V30 1905 C 185.698 4.80918 -0.164758 0
M  V30 1906 C 188.05 5.18036 -0.573438 0
M  V30 1907 C 185.378 5.75666 -1.13249 0
M  V30 1908 C 187.73 6.13824 -1.52978 0
M  V30 1909 C 186.394 6.42374 -1.81415 0
M  V30 1910 H 185.664 0.714005 0.198187 0
M  V30 1911 H 188.311 1.9048 -0.197365 0
M  V30 1912 H 186.616 3.40835 1.93232 0
M  V30 1913 H 188.313 3.66189 1.63422 0
M  V30 1914 H 184.903 4.27272 0.337192 0
M  V30 1915 H 189.087 4.94896 -0.373092 0
M  V30 1916 H 184.343 5.96092 -1.35958 0
M  V30 1917 H 188.517 6.65039 -2.06629 0
M  V30 1918 H 186.144 7.15599 -2.56557 0
M  V30 1919 N 187.719 -0.156864 1.56817 0
M  V30 1920 C 189.135 -0.50916 1.5126 0
M  V30 1921 C 189.335 -1.83897 0.823658 0
M  V30 1922 O 188.391 -2.49469 0.390055 0
M  V30 1923 C 189.704 -0.52857 2.96018 0
M  V30 1924 C 191.252 -0.614771 3.06903 0
M  V30 1925 C 191.727 -0.664938 4.53147 0
M  V30 1926 N 193.218 -0.727433 4.57452 0
M  V30 1927 C 193.953 -0.787067 5.67973 0
M  V30 1928 N 193.449 -0.806649 6.88088 0
M  V30 1929 N 195.242 -0.827195 5.5598 0
M  V30 1930 H 187.393 0.714935 2.00006 0
M  V30 1931 H 189.656 0.259526 0.911784 0
M  V30 1932 H 189.362 0.380154 3.49639 0
M  V30 1933 H 189.236 -1.36998 3.51442 0
M  V30 1934 H 191.623 -1.51392 2.53307 0
M  V30 1935 H 191.704 0.253597 2.5454 0
M  V30 1936 H 191.348 0.230011 5.07379 0
M  V30 1937 H 191.278 -1.54966 5.03282 0
M  V30 1938 H 193.769 -0.719998 3.70978 0
M  V30 1939 H 194.082 -0.853727 7.6807 0
M  V30 1940 H 192.427 -0.774687 6.90669 0
M  V30 1941 H 195.618 -0.808998 4.61056 0
M  V30 1942 H 195.791 -0.870206 6.4213 0
M  V30 1943 N 189.197 -1.51736 -0.425897 0
M  V30 1944 C 190.145 -1.74464 -1.53834 0
M  V30 1945 C 191.139 -0.611241 -1.57988 0
M  V30 1946 O 192.345 -0.792899 -1.61596 0
M  V30 1947 H 188.72 -0.551437 -0.511293 0
M  V30 1948 H 190.691 -2.67694 -1.31843 0
M  V30 1949 C 189.44 -1.8972 -2.91379 0
M  V30 1950 H 188.763 -2.76344 -2.88919 0
M  V30 1951 H 190.203 -2.09629 -3.68553 0
M  V30 1952 C 188.662 -0.65992 -3.30374 0
M  V30 1953 O 189.192 0.180083 -4.01296 0
M  V30 1954 N 187.398 -0.500677 -2.86254 0
M  V30 1955 H 186.945 -1.18532 -2.28709 0
M  V30 1956 H 186.903 0.325903 -3.12706 0
M  V30 1957 N 190.675 0.682077 -1.42076 0
M  V30 1958 C 191.638 1.77756 -1.44691 0
M  V30 1959 C 192.638 1.5726 -0.335535 0
M  V30 1960 O 193.828 1.63686 -0.596037 0
M  V30 1961 C 190.96 3.16301 -1.27146 0
M  V30 1962 H 192.153 1.76826 -2.42224 0
M  V30 1963 H 189.706 0.891012 -1.28416 0
M  V30 1964 H 190.441 3.22862 -0.305075 0
M  V30 1965 H 190.226 3.32581 -2.07683 0
M  V30 1966 H 191.716 3.96241 -1.31843 0
M  V30 1967 N 192.153 1.28127 0.917671 0
M  V30 1968 C 193.393 1.163 1.68088 0
M  V30 1969 C 193.757 -0.284515 1.8988 0
M  V30 1970 O 194.958 -0.525413 2.63615 0
M  V30 1971 C 193.229 1.93546 3.00457 0
M  V30 1972 S 194.788 1.98048 3.91564 0
M  V30 1973 H 191.606 0.415005 0.577315 0
M  V30 1974 H 194.208 1.62173 1.09179 0
M  V30 1975 H 192.912 2.97888 2.82295 0
M  V30 1976 H 192.443 1.48207 3.64415 0
M  V30 1977 H 194.458 1.08415 4.84211 0
M  V30 1978 N 193.631 -1.12557 1.10312 0
M  V30 1979 C 194.579 -2.20325 0.745629 0
M  V30 1980 C 195.573 -1.67429 -0.25763 0
M  V30 1981 O 196.779 -1.79612 -0.118132 0
M  V30 1982 H 193.154 -0.718118 0.223182 0
M  V30 1983 H 195.125 -2.47733 1.66346 0
M  V30 1984 C 193.874 -3.47168 0.192262 0
M  V30 1985 H 193.197 -3.88215 0.955475 0
M  V30 1986 H 194.637 -4.23995 -0.0198274 0
M  V30 1987 C 193.096 -3.19298 -1.07472 0
M  V30 1988 O 193.626 -3.3891 -2.15645 0
M  V30 1989 N 191.832 -2.73113 -0.992847 0
M  V30 1990 H 191.379 -2.57354 -0.112474 0
M  V30 1991 H 191.337 -2.54842 -1.84127 0
M  V30 1992 N 195.109 -0.891671 -1.2995 0
M  V30 1993 C 196.355 -0.514261 -1.96171 0
M  V30 1994 C 196.688 0.935506 -1.70182 0
M  V30 1995 O 195.963 1.66204 -1.01028 0
M  V30 1996 C 196.246 -0.797719 -3.51153 0
M  V30 1997 C 196.099 -2.2986 -3.86632 0
M  V30 1998 C 197.418 -0.278749 -4.39216 0
M  V30 1999 H 194.537 -0.188314 -0.712535 0
M  V30 2000 H 197.179 -1.11689 -1.53706 0
M  V30 2001 H 195.329 -0.284826 -3.87455 0
M  V30 2002 H 197.001 -2.88042 -3.60319 0
M  V30 2003 H 195.244 -2.76257 -3.34462 0
M  V30 2004 H 195.915 -2.44753 -4.94773 0
M  V30 2005 H 198.391 -0.717825 -4.09862 0
M  V30 2006 H 197.267 -0.506353 -5.46559 0
M  V30 2007 H 197.528 0.820266 -4.34424 0
M  V30 2008 N 196.587 1.43421 -0.653314 0
M  V30 2009 C 197.55 2.29182 0.0287951 0
M  V30 2010 C 198.55 1.42213 0.750465 0
M  V30 2011 O 199.74 1.63843 0.591701 0
M  V30 2012 C 196.872 3.24278 1.05151 0
M  V30 2013 H 198.065 2.90985 -0.725786 0
M  V30 2014 H 195.618 1.50702 -0.414545 0
M  V30 2015 H 196.353 2.6737 1.83532 0
M  V30 2016 H 196.138 3.88396 0.537687 0
M  V30 2017 H 197.628 3.88647 1.52786 0
M  V30 2018 N 198.065 0.39524 1.52563 0
M  V30 2019 C 199.314 -0.186321 2.00838 0
M  V30 2020 C 199.627 -1.47402 1.28577 0
M  V30 2021 O 200.833 -2.13599 1.67593 0
M  V30 2022 C 199.289 -0.382595 3.57861 0
M  V30 2023 C 198.897 0.892202 4.39026 0
M  V30 2024 C 200.641 -0.9202 4.14406 0
M  V30 2025 C 198.548 0.66388 5.87662 0
M  V30 2026 H 197.478 -0.0734041 0.750418 0
M  V30 2027 H 200.129 0.518552 1.76021 0
M  V30 2028 H 198.511 -1.14946 3.7895 0
M  V30 2029 H 199.685 1.66414 4.29701 0
M  V30 2030 H 198 1.35519 3.9373 0
M  V30 2031 H 200.597 -1.10683 5.23119 0
M  V30 2032 H 200.94 -1.89096 3.70875 0
M  V30 2033 H 201.473 -0.212751 3.97231 0
M  V30 2034 H 198.212 1.6058 6.35527 0
M  V30 2035 H 197.732 -0.0690193 5.9976 0
M  V30 2036 H 199.411 0.300699 6.46301 0
M  V30 2037 N 199.544 -1.57102 0.125237 0
M  V30 2038 C 200.492 -2.16905 -0.839927 0
M  V30 2039 C 201.486 -1.11998 -1.27094 0
M  V30 2040 O 202.692 -1.3029 -1.24195 0
M  V30 2041 H 199.067 -0.694252 -0.288995 0
M  V30 2042 H 201.038 -2.96774 -0.311115 0
M  V30 2043 C 199.787 -2.78795 -2.07771 0
M  V30 2044 H 199.11 -3.59221 -1.755 0
M  V30 2045 H 200.55 -3.2417 -2.73295 0
M  V30 2046 C 199.009 -1.76193 -2.87155 0
M  V30 2047 O 199.539 -1.21909 -3.82755 0
M  V30 2048 N 197.745 -1.45991 -2.51267 0
M  V30 2049 H 197.292 -1.90325 -1.73592 0
M  V30 2050 H 197.25 -0.775844 -3.04677 0
M  V30 2051 N 201.022 0.148545 -1.56898 0
M  V30 2052 C 201.969 1.18345 -1.98149 0
M  V30 2053 C 202.939 1.42772 -0.848848 0
M  V30 2054 O 204.124 1.55132 -1.11079 0
M  V30 2055 C 201.264 2.51231 -2.36594 0
M  V30 2056 C 200.377 2.33991 -3.63142 0
M  V30 2057 C 199.512 3.59902 -3.90697 0
M  V30 2058 C 198.551 3.37692 -5.1052 0
M  V30 2059 N 197.688 4.5573 -5.34092 0
M  V30 2060 H 202.528 0.82467 -2.86362 0
M  V30 2061 H 200.065 0.395756 -1.41676 0
M  V30 2062 H 202.023 3.28713 -2.56912 0
M  V30 2063 H 200.653 2.85059 -1.51463 0
M  V30 2064 H 199.705 1.47572 -3.50609 0
M  V30 2065 H 201.017 2.13539 -4.5078 0
M  V30 2066 H 200.171 4.45813 -4.11505 0
M  V30 2067 H 198.91 3.83357 -3.01477 0
M  V30 2068 H 197.915 2.5017 -4.89587 0
M  V30 2069 H 199.14 3.15637 -6.0129 0
M  V30 2070 H 197.086 4.79361 -4.47827 0
M  V30 2071 H 197.003 4.38274 -6.15996 0
M  V30 2072 H 198.271 5.42858 -5.59397 0
M  V30 2073 N 202.5 1.5196 0.417844 0
M  V30 2074 C 203.43 1.77634 1.51554 0
M  V30 2075 C 204.411 0.626918 1.58126 0
M  V30 2076 O 205.596 0.871632 1.7354 0
M  V30 2077 C 202.726 1.91911 2.8946 0
M  V30 2078 C 201.68 3.07463 2.97743 0
M  V30 2079 C 201.006 3.06951 4.37819 0
M  V30 2080 C 202.306 4.47082 2.70027 0
M  V30 2081 H 204 2.6955 1.3032 0
M  V30 2082 H 201.546 1.29706 0.625492 0
M  V30 2083 H 203.499 2.08455 3.6623 0
M  V30 2084 H 202.223 0.966598 3.11969 0
M  V30 2085 H 200.882 2.90656 2.23416 0
M  V30 2086 H 200.53 2.09438 4.57323 0
M  V30 2087 H 200.23 3.84556 4.44286 0
M  V30 2088 H 201.754 3.25613 5.16535 0
M  V30 2089 H 203.168 4.6414 3.36522 0
M  V30 2090 H 201.565 5.2654 2.87881 0
M  V30 2091 H 202.635 4.55777 1.65514 0
M  V30 2092 N 203.978 -0.674533 1.42435 0
M  V30 2093 C 204.926 -1.80934 1.46169 0
M  V30 2094 C 205.92 -1.66006 0.3374 0
M  V30 2095 O 207.126 -1.72611 0.510425 0
M  V30 2096 H 203.501 -0.596594 0.457798 0
M  V30 2097 H 205.472 -1.74903 2.41767 0
M  V30 2098 C 204.221 -3.19088 1.38123 0
M  V30 2099 H 203.544 -3.31203 2.23931 0
M  V30 2100 H 204.984 -3.9851 1.44797 0
M  V30 2101 C 203.443 -3.36763 0.0960517 0
M  V30 2102 O 203.973 -3.92581 -0.851073 0
M  V30 2103 N 202.179 -2.90597 0.0131186 0
M  V30 2104 H 201.726 -2.45359 0.784639 0
M  V30 2105 H 201.684 -3.028 -0.846133 0
M  V30 2106 N 205.456 -1.28612 -0.910864 0
M  V30 2107 C 206.366 -1.14643 -2.0468 0
M  V30 2108 C 207.382 -0.0723121 -1.7385 0
M  V30 2109 O 208.558 -0.282178 -1.99413 0
M  V30 2110 C 205.623 -0.812561 -3.37044 0
M  V30 2111 C 204.684 -1.96935 -3.81465 0
M  V30 2112 C 203.917 -1.65131 -5.07511 0
M  V30 2113 O 204.14 -0.567013 -5.67575 0
M  V30 2114 O 203.074 -2.49585 -5.47714 0
M  V30 2115 H 206.9 -2.1001 -2.19384 0
M  V30 2116 H 204.485 -1.07958 -1.03274 0
M  V30 2117 H 206.367 -0.640441 -4.16505 0
M  V30 2118 H 205.042 0.111426 -3.23508 0
M  V30 2119 H 203.949 -2.19664 -3.02818 0
M  V30 2120 H 205.282 -2.87414 -3.99567 0
M  V30 2121 N 206.934 1.1197 -1.10907 0
M  V30 2122 C 207.864 2.19928 -0.784473 0
M  V30 2123 C 208.845 1.6833 0.244726 0
M  V30 2124 O 210.03 1.93892 0.109418 0
M  V30 2125 C 207.16 3.46597 -0.220827 0
M  V30 2126 C 206.114 4.11376 -1.18127 0
M  V30 2127 C 205.44 5.32554 -0.478594 0
M  V30 2128 C 206.74 4.56945 -2.52979 0
M  V30 2129 H 208.434 2.47337 -1.68715 0
M  V30 2130 H 205.98 1.18879 -0.812642 0
M  V30 2131 H 207.933 4.21396 0.0184278 0
M  V30 2132 H 206.657 3.1863 0.717113 0
M  V30 2133 H 205.316 3.38564 -1.40606 0
M  V30 2134 H 204.964 5.00856 0.463976 0
M  V30 2135 H 204.664 5.76844 -1.11912 0
M  V30 2136 H 206.188 6.10096 -0.248 0
M  V30 2137 H 207.602 5.23093 -2.3462 0
M  V30 2138 H 205.999 5.1203 -3.12962 0
M  V30 2139 H 207.069 3.70676 -3.12614 0
M  V30 2140 N 208.412 0.89855 1.29475 0
M  V30 2141 C 209.637 0.538561 2.00285 0
M  V30 2142 C 210.062 -0.869135 1.66816 0
M  V30 2143 O 209.42 -1.57831 0.892145 0
M  V30 2144 C 209.468 0.736475 3.52999 0
M  V30 2145 O 208.572 -0.211537 4.11857 0
M  V30 2146 H 207.913 0.210563 0.62973 0
M  V30 2147 H 210.443 1.20982 1.64998 0
M  V30 2148 H 210.453 0.640685 4.02938 0
M  V30 2149 H 209.128 1.76276 3.76696 0
M  V30 2150 H 207.705 -0.0682991 3.72837 0
M  V30 2151 N 209.89 -1.43072 0.660911 0
M  V30 2152 C 210.82 -2.33497 -0.0122829 0
M  V30 2153 C 211.801 -1.49903 -0.803925 0
M  V30 2154 O 212.986 -1.78546 -0.763864 0
M  V30 2155 C 210.116 -3.33363 -0.973994 0
M  V30 2156 C 209.07 -4.27003 -0.291928 0
M  V30 2157 C 208.396 -5.16967 -1.36562 0
M  V30 2158 C 209.696 -5.15816 0.820462 0
M  V30 2159 H 211.39 -2.90038 0.742873 0
M  V30 2160 H 208.936 -1.39461 0.358688 0
M  V30 2161 H 210.889 -3.95524 -1.45392 0
M  V30 2162 H 209.613 -2.75095 -1.7604 0
M  V30 2163 H 208.272 -3.66217 0.167623 0
M  V30 2164 H 207.92 -4.55034 -2.14366 0
M  V30 2165 H 207.62 -5.80441 -0.914454 0
M  V30 2166 H 209.144 -5.82003 -1.84675 0
M  V30 2167 H 210.558 -5.71742 0.422366 0
M  V30 2168 H 208.955 -5.8805 1.19656 0
M  V30 2169 H 210.025 -4.55045 1.67518 0
M  V30 2170 N 211.368 -0.403325 -1.52352 0
M  V30 2171 C 212.316 0.439752 -2.28405 0
M  V30 2172 C 213.31 1.05089 -1.32863 0
M  V30 2173 O 214.516 0.989759 -1.50345 0
M  V30 2174 H 210.891 0.160587 -0.734653 0
M  V30 2175 H 212.862 -0.222983 -2.97566 0
M  V30 2176 C 211.611 1.54736 -3.11371 0
M  V30 2177 H 210.934 1.08643 -3.84755 0
M  V30 2178 H 212.374 2.1112 -3.67701 0
M  V30 2179 C 210.833 2.51141 -2.24566 0
M  V30 2180 O 211.363 3.54887 -1.88196 0
M  V30 2181 N 209.569 2.21213 -1.8845 0
M  V30 2182 H 209.116 1.36878 -2.18225 0
M  V30 2183 H 209.074 2.85963 -1.30662 0
M  V30 2184 N 212.846 1.57033 -0.133567 0
M  V30 2185 C 214.093 1.95686 0.520877 0
M  V30 2186 C 214.421 1.0177 1.6575 0
M  V30 2187 O 213.676 0.0443195 1.9565 0
M  V30 2188 C 213.975 3.40674 1.08057 0
M  V30 2189 C 213.641 4.50855 0.0637899 0
M  V30 2190 C 212.303 4.80716 -0.215757 0
M  V30 2191 C 214.655 5.17398 -0.62835 0
M  V30 2192 C 211.983 5.74433 -1.19348 0
M  V30 2193 C 214.335 6.12167 -1.5948 0
M  V30 2194 C 212.999 6.40414 -1.88218 0
M  V30 2195 H 212.269 0.716067 0.190602 0
M  V30 2196 H 214.916 1.9026 -0.217556 0
M  V30 2197 H 213.221 3.42865 1.89606 0
M  V30 2198 H 214.918 3.67902 1.59529 0
M  V30 2199 H 211.508 4.27605 0.291855 0
M  V30 2200 H 215.692 4.94472 -0.425562 0
M  V30 2201 H 210.948 5.94616 -1.42272 0
M  V30 2202 H 215.122 6.6281 -2.13671 0
M  V30 2203 H 212.749 7.12838 -2.64133 0
M  V30 2204 N 214.325 -0.140222 1.56975 0
M  V30 2205 C 215.55 -0.870414 1.88251 0
M  V30 2206 C 215.975 -1.73637 0.723312 0
M  V30 2207 O 215.333 -1.78329 -0.32689 0
M  V30 2208 C 215.381 -1.69737 3.18154 0
M  V30 2209 O 214.485 -2.80229 3.02565 0
M  V30 2210 H 213.826 -0.242025 0.61832 0
M  V30 2211 H 216.356 -0.128999 2.04193 0
M  V30 2212 H 216.366 -2.09099 3.50345 0
M  V30 2213 H 215.041 -1.06152 4.02125 0
M  V30 2214 H 213.618 -2.44224 2.81796 0
M  V30 2215 N 215.803 -1.52179 -0.40978 0
M  V30 2216 C 216.751 -1.76086 -1.51975 0
M  V30 2217 C 217.745 -0.627964 -1.57331 0
M  V30 2218 O 218.951 -0.809993 -1.60745 0
M  V30 2219 H 215.326 -0.556829 -0.505416 0
M  V30 2220 H 217.297 -2.69077 -1.28996 0
M  V30 2221 C 216.046 -1.92799 -2.8935 0
M  V30 2222 H 215.369 -2.79392 -2.85972 0
M  V30 2223 H 216.809 -2.13527 -3.66309 0
M  V30 2224 C 215.268 -0.694923 -3.29655 0
M  V30 2225 O 215.798 0.13751 -4.01465 0
M  V30 2226 N 214.004 -0.53101 -2.85707 0
M  V30 2227 H 213.551 -1.20952 -2.27439 0
M  V30 2228 H 213.509 0.292718 -3.13034 0
M  V30 2229 N 217.281 0.66697 -1.42791 0
M  V30 2230 C 218.228 1.7803 -1.4688 0
M  V30 2231 C 219.198 1.6299 -0.319919 0
M  V30 2232 O 220.383 1.83432 -0.525118 0
M  V30 2233 C 217.523 3.1611 -1.38451 0
M  V30 2234 C 216.636 3.42381 -2.63437 0
M  V30 2235 C 215.771 4.70232 -2.47094 0
M  V30 2236 C 214.81 4.89564 -3.67415 0
M  V30 2237 N 213.947 6.08661 -3.49966 0
M  V30 2238 H 218.787 1.7387 -2.42019 0
M  V30 2239 H 216.324 0.84868 -1.20149 0
M  V30 2240 H 218.282 3.95914 -1.31561 0
M  V30 2241 H 216.912 3.19374 -0.469033 0
M  V30 2242 H 215.964 2.56774 -2.80662 0
M  V30 2243 H 217.276 3.52557 -3.52853 0
M  V30 2244 H 216.43 5.5814 -2.37834 0
M  V30 2245 H 215.169 4.62353 -1.5518 0
M  V30 2246 H 214.174 4.00096 -3.77099 0
M  V30 2247 H 215.399 4.99282 -4.6032 0
M  V30 2248 H 213.345 6.0194 -2.60776 0
M  V30 2249 H 213.262 6.19733 -4.32975 0
M  V30 2250 H 214.53 6.99226 -3.44532 0
M  V30 2251 N 218.759 1.29093 0.90403 0
M  V30 2252 C 219.707 1.13727 2.02901 0
M  V30 2253 C 220.701 0.0539853 1.69314 0
M  V30 2254 O 221.907 0.213469 1.7873 0
M  V30 2255 H 218.282 0.35117 0.664969 0
M  V30 2256 H 220.253 2.08982 2.13001 0
M  V30 2257 C 219.002 0.826066 3.37745 0
M  V30 2258 H 218.325 1.65164 3.64089 0
M  V30 2259 H 219.765 0.758559 4.17159 0
M  V30 2260 C 218.224 -0.470541 3.33598 0
M  V30 2261 O 218.754 -1.49792 3.72727 0
M  V30 2262 N 216.96 -0.474812 2.86695 0
M  V30 2263 H 216.507 0.361692 2.55048 0
M  V30 2264 H 216.465 -1.34236 2.84303 0
M  V30 2265 N 220.237 -1.11381 1.11499 0
M  V30 2266 C 221.147 -2.21019 0.786628 0
M  V30 2267 C 222.163 -1.72597 -0.220507 0
M  V30 2268 O 223.339 -2.01321 -0.0565251 0
M  V30 2269 C 220.404 -3.459 0.235333 0
M  V30 2270 C 219.465 -4.09107 1.30115 0
M  V30 2271 C 218.698 -5.28027 0.776068 0
M  V30 2272 O 218.921 -5.6904 -0.393661 0
M  V30 2273 O 217.855 -5.81835 1.54114 0
M  V30 2274 H 221.681 -2.51521 1.70209 0
M  V30 2275 H 219.266 -1.19928 0.890928 0
M  V30 2276 H 221.148 -4.21346 -0.067715 0
M  V30 2277 H 219.823 -3.17049 -0.652828 0
M  V30 2278 H 218.73 -3.35391 1.65722 0
M  V30 2279 H 220.063 -4.42139 2.16273 0
M  V30 2280 N 221.715 -0.905404 -1.28997 0
M  V30 2281 C 222.625 -0.392246 -2.31298 0
M  V30 2282 C 223.641 0.515889 -1.66176 0
M  V30 2283 O 224.817 0.404093 -1.97304 0
M  V30 2284 C 221.882 0.36686 -3.44754 0
M  V30 2285 C 220.943 -0.573485 -4.25452 0
M  V30 2286 C 220.176 0.149488 -5.33491 0
M  V30 2287 O 220.399 1.37255 -5.5364 0
M  V30 2288 O 219.333 -0.510919 -5.99728 0
M  V30 2289 H 223.159 -1.2411 -2.77183 0
M  V30 2290 H 220.744 -0.669926 -1.33538 0
M  V30 2291 H 222.626 0.795907 -4.13816 0
M  V30 2292 H 221.301 1.19169 -3.00966 0
M  V30 2293 H 220.208 -1.05176 -3.59011 0
M  V30 2294 H 221.541 -1.36489 -4.72897 0
M  V30 2295 N 223.193 1.4272 -0.668489 0
M  V30 2296 C 224.103 2.34596 0.0139753 0
M  V30 2297 C 225.119 1.5474 0.795703 0
M  V30 2298 O 226.295 1.87334 0.739466 0
M  V30 2299 C 223.36 3.33202 0.957982 0
M  V30 2300 C 222.421 4.28957 0.17149 0
M  V30 2301 C 221.654 5.22853 1.07053 0
M  V30 2302 O 221.877 5.21531 2.31001 0
M  V30 2303 O 220.811 5.9952 0.534727 0
M  V30 2304 H 224.637 2.9448 -0.742661 0
M  V30 2305 H 222.222 1.43117 -0.428705 0
M  V30 2306 H 224.104 3.93796 1.50008 0
M  V30 2307 H 222.779 2.758 1.69458 0
M  V30 2308 H 221.686 3.71796 -0.414558 0
M  V30 2309 H 223.019 4.89383 -0.52586 0
M  V30 2310 N 224.671 0.411399 1.52136 0
M  V30 2311 C 225.618 -0.412975 2.27075 0
M  V30 2312 C 226.588 -1.03912 1.29582 0
M  V30 2313 O 227.773 -1.06296 1.58448 0
M  V30 2314 C 224.913 -1.52247 3.09701 0
M  V30 2315 C 224.026 -0.917021 4.22155 0
M  V30 2316 C 223.161 -1.9994 4.92135 0
M  V30 2317 C 222.2 -1.37101 5.96548 0
M  V30 2318 N 221.337 -2.39364 6.60038 0
M  V30 2319 H 226.177 0.232499 2.97092 0
M  V30 2320 H 223.714 0.126496 1.46555 0
M  V30 2321 H 225.672 -2.17674 3.55913 0
M  V30 2322 H 224.302 -2.13794 2.41851 0
M  V30 2323 H 223.354 -0.151742 3.80097 0
M  V30 2324 H 224.666 -0.418006 4.97045 0
M  V30 2325 H 223.82 -2.73088 5.41763 0
M  V30 2326 H 222.559 -2.53208 4.16818 0
M  V30 2327 H 221.564 -0.624873 5.46237 0
M  V30 2328 H 222.789 -0.845998 6.7381 0
M  V30 2329 H 220.735 -2.91759 5.87548 0
M  V30 2330 H 220.652 -1.9428 7.3061 0
M  V30 2331 H 221.92 -3.12074 7.14304 0
M  V30 2332 N 226.149 -1.5696 0.141893 0
M  V30 2333 C 227.565 -1.58151 -0.21456 0
M  V30 2334 C 227.765 -1.1559 -1.65049 0
M  V30 2335 O 226.821 -0.853832 -2.37626 0
M  V30 2336 C 228.134 -3.00674 0.0395576 0
M  V30 2337 C 229.682 -3.1299 -0.0245529 0
M  V30 2338 C 230.157 -4.57554 0.202167 0
M  V30 2339 N 231.648 -4.62961 0.148919 0
M  V30 2340 C 232.383 -5.7262 0.298924 0
M  V30 2341 N 231.879 -6.90947 0.50637 0
M  V30 2342 N 233.672 -5.61601 0.236886 0
M  V30 2343 H 225.823 -1.8292 1.07953 0
M  V30 2344 H 228.086 -0.846425 0.42693 0
M  V30 2345 H 227.792 -3.36183 1.03315 0
M  V30 2346 H 227.666 -3.70981 -0.682143 0
M  V30 2347 H 230.053 -2.77326 -1.00869 0
M  V30 2348 H 230.134 -2.4518 0.729396 0
M  V30 2349 H 229.778 -4.93922 1.18338 0
M  V30 2350 H 229.708 -5.23484 -0.572044 0
M  V30 2351 H 232.199 -3.77899 -0.00697015 0
M  V30 2352 H 232.512 -7.7038 0.611076 0
M  V30 2353 H 230.857 -6.92878 0.542628 0
M  V30 2354 H 234.048 -4.68039 0.0756209 0
M  V30 2355 H 234.221 -6.47015 0.357227 0
M  V30 2356 N 227.627 0.131896 -1.57047 0
M  V30 2357 C 228.852 0.860418 -1.8871 0
M  V30 2358 C 229.277 1.73251 -0.73251 0
M  V30 2359 O 228.635 1.785 0.317429 0
M  V30 2360 C 228.683 1.68047 -3.19049 0
M  V30 2361 O 227.787 2.7862 -3.04047 0
M  V30 2362 H 227.128 0.238743 -0.619595 0
M  V30 2363 H 229.658 0.118169 -2.04258 0
M  V30 2364 H 229.668 2.07238 -3.51449 0
M  V30 2365 H 228.343 1.04018 -4.02682 0
M  V30 2366 H 226.92 2.42726 -2.83088 0
M  V30 2367 N 229.106 1.52395 0.401703 0
M  V30 2368 C 230.355 1.66044 1.14509 0
M  V30 2369 C 230.668 0.400216 1.91462 0
M  V30 2370 O 231.874 0.416632 2.68284 0
M  V30 2371 C 230.33 2.93388 2.0845 0
M  V30 2372 C 229.938 4.26545 1.36978 0
M  V30 2373 C 231.682 3.16402 2.83001 0
M  V30 2374 C 229.589 5.45007 2.29611 0
M  V30 2375 H 228.519 0.618562 0.431158 0
M  V30 2376 H 231.17 1.78886 0.40892 0
M  V30 2377 H 229.552 2.74263 2.8565 0
M  V30 2378 H 230.726 4.56179 0.650916 0
M  V30 2379 H 229.041 4.09692 0.74438 0
M  V30 2380 H 231.638 4.02085 3.52465 0
M  V30 2381 H 231.981 2.30943 3.46368 0
M  V30 2382 H 232.514 3.36034 2.12898 0
M  V30 2383 H 229.253 6.32835 1.70879 0
M  V30 2384 H 228.773 5.19702 2.9945 0
M  V30 2385 H 230.452 5.7838 2.89974 0
M  V30 2386 N 230.584 -0.659388 1.43143 0
M  V30 2387 C 231.514 -1.78422 1.50625 0
M  V30 2388 C 232.495 -1.66216 0.361443 0
M  V30 2389 O 233.68 -1.85404 0.577834 0
M  V30 2390 C 230.81 -3.16815 1.42287 0
M  V30 2391 C 229.764 -3.43777 2.54954 0
M  V30 2392 C 229.09 -4.81905 2.31671 0
M  V30 2393 C 230.39 -3.39134 3.97222 0
M  V30 2394 H 232.084 -1.72417 2.44771 0
M  V30 2395 H 229.63 -0.828084 1.17808 0
M  V30 2396 H 231.583 -3.95253 1.46127 0
M  V30 2397 H 230.307 -3.23534 0.446435 0
M  V30 2398 H 228.966 -2.67707 2.50457 0
M  V30 2399 H 228.614 -4.85294 1.32284 0
M  V30 2400 H 228.314 -5.00906 3.07192 0
M  V30 2401 H 229.838 -5.62609 2.37284 0
M  V30 2402 H 231.252 -4.07518 4.03239 0
M  V30 2403 H 229.649 -3.69671 4.72719 0
M  V30 2404 H 230.719 -2.37426 4.22797 0
M  V30 2405 N 232.062 -1.29571 -0.897171 0
M  V30 2406 C 232.992 -1.17473 -2.01798 0
M  V30 2407 C 233.973 -0.068323 -1.69963 0
M  V30 2408 O 235.158 -0.248239 -1.92607 0
M  V30 2409 C 232.288 -0.853099 -3.36659 0
M  V30 2410 C 231.242 -1.9161 -3.82713 0
M  V30 2411 C 230.568 -1.44773 -5.14728 0
M  V30 2412 C 231.868 -3.32535 -4.02763 0
M  V30 2413 H 233.562 -2.11237 -2.12177 0
M  V30 2414 H 231.108 -1.01699 -1.01948 0
M  V30 2415 H 233.061 -0.755165 -4.14578 0
M  V30 2416 H 231.785 0.120236 -3.26379 0
M  V30 2417 H 230.444 -2.00346 -3.07013 0
M  V30 2418 H 230.092 -0.462995 -5.00865 0
M  V30 2419 H 229.792 -2.15865 -5.46513 0
M  V30 2420 H 231.316 -1.36334 -5.95185 0
M  V30 2421 H 232.73 -3.26626 -4.71156 0
M  V30 2422 H 231.127 -4.01607 -4.45905 0
M  V30 2423 H 232.197 -3.75326 -3.07016 0
M  V30 2424 N 233.54 1.10788 -1.12088 0
M  V30 2425 C 234.487 2.17025 -0.785407 0
M  V30 2426 C 235.457 1.64265 0.246191 0
M  V30 2427 O 236.642 1.90412 0.121584 0
M  V30 2428 C 233.782 3.44249 -0.242177 0
M  V30 2429 C 232.895 4.1098 -1.33115 0
M  V30 2430 C 232.03 5.25911 -0.747741 0
M  V30 2431 C 231.069 5.84538 -1.81609 0
M  V30 2432 N 230.206 6.90853 -1.25167 0
M  V30 2433 H 235.046 2.45066 -1.69548 0
M  V30 2434 H 232.583 1.20297 -0.846582 0
M  V30 2435 H 234.541 4.17101 0.0908026 0
M  V30 2436 H 233.171 3.16571 0.631072 0
M  V30 2437 H 232.223 3.36133 -1.78097 0
M  V30 2438 H 233.535 4.50601 -2.13917 0
M  V30 2439 H 232.689 6.056 -0.365216 0
M  V30 2440 H 231.428 4.87614 0.0915188 0
M  V30 2441 H 230.433 5.03522 -2.20785 0
M  V30 2442 H 231.658 6.249 -2.6585 0
M  V30 2443 H 229.604 6.54562 -0.434174 0
M  V30 2444 H 229.521 7.29166 -1.99633 0
M  V30 2445 H 230.789 7.7433 -0.896259 0
M  V30 2446 N 235.018 0.912232 1.28515 0
M  V30 2447 C 236.258 0.551677 1.96814 0
M  V30 2448 C 236.622 -0.887825 1.7024 0
M  V30 2449 O 237.823 -1.35588 2.32098 0
M  V30 2450 C 236.094 0.850555 3.47132 0
M  V30 2451 S 237.653 0.59619 4.34731 0
M  V30 2452 H 234.471 0.204191 0.681049 0
M  V30 2453 H 237.073 1.17736 1.56072 0
M  V30 2454 H 235.777 1.8962 3.63968 0
M  V30 2455 H 235.308 0.213471 3.9282 0
M  V30 2456 H 237.323 -0.553154 4.93107 0
M  V30 2457 N 236.496 -1.42363 0.676048 0
M  V30 2458 C 237.459 -2.29199 0.00766941 0
M  V30 2459 C 238.459 -1.43389 -0.727745 0
M  V30 2460 O 239.649 -1.64764 -0.56556 0
M  V30 2461 C 236.781 -3.2591 -0.999785 0
M  V30 2462 H 237.974 -2.89794 0.771988 0
M  V30 2463 H 235.527 -1.50024 0.438468 0
M  V30 2464 H 236.262 -2.70256 -1.79255 0
M  V30 2465 H 236.047 -3.89202 -0.475829 0
M  V30 2466 H 237.537 -3.91028 -1.46583 0
M  V30 2467 N 237.974 -0.419461 -1.51915 0
M  V30 2468 C 238.906 0.43646 -2.25006 0
M  V30 2469 C 239.919 1.00149 -1.28351 0
M  V30 2470 O 241.108 0.898674 -1.54227 0
M  V30 2471 C 238.208 1.6206 -2.9764 0
M  V30 2472 C 237.381 1.17763 -4.21249 0
M  V30 2473 C 236.44 2.22985 -4.76617 0
M  V30 2474 O 235.466 1.83151 -5.38929 0
M  V30 2475 N 236.668 3.55271 -4.59089 0
M  V30 2476 H 239.433 -0.18989 -2.99098 0
M  V30 2477 H 236.994 -0.247386 -1.59999 0
M  V30 2478 H 238.986 2.32038 -3.31573 0
M  V30 2479 H 237.556 2.15266 -2.2667 0
M  V30 2480 H 236.776 0.305582 -3.93014 0
M  V30 2481 H 238.064 0.858781 -5.015 0
M  V30 2482 H 237.462 3.90377 -4.09417 0
M  V30 2483 H 236.019 4.21195 -4.97432 0
M  V30 2484 N 239.452 1.56882 -0.150215 0
M  V30 2485 C 240.68 2.00593 0.506948 0
M  V30 2486 C 241.095 1.03033 1.58208 0
M  V30 2487 O 240.452 0.0278396 1.82479 0
M  V30 2488 C 240.503 3.44209 1.10465 0
M  V30 2489 O 240.224 4.3804 0.0724636 0
M  V30 2490 C 241.725 4.03214 1.84211 0
M  V30 2491 H 238.945 0.65795 0.13169 0
M  V30 2492 H 241.489 2.03018 -0.245743 0
M  V30 2493 H 239.644 3.42625 1.80795 0
M  V30 2494 H 240.058 5.22007 0.510793 0
M  V30 2495 H 241.532 5.0569 2.21318 0
M  V30 2496 H 242.009 3.44107 2.72923 0
M  V30 2497 H 242.615 4.08437 1.18572 0
M  V30 2498 N 240.93 -0.123565 1.57115 0
M  V30 2499 C 241.893 -1.13583 1.99076 0
M  V30 2500 C 242.893 -1.34564 0.880296 0
M  V30 2501 O 244.083 -1.31158 1.14644 0
M  V30 2502 C 241.215 -2.49128 2.32698 0
M  V30 2503 H 242.408 -0.775287 2.89706 0
M  V30 2504 H 239.961 -0.36771 1.51913 0
M  V30 2505 H 240.696 -2.90111 1.44934 0
M  V30 2506 H 240.481 -2.35255 3.13684 0
M  V30 2507 H 241.971 -3.2199 2.65918 0
M  V30 2508 N 242.408 -1.52605 -0.393616 0
M  V30 2509 C 243.338 -1.80022 -1.48709 0
M  V30 2510 C 244.319 -0.651995 -1.57108 0
M  V30 2511 O 245.504 -0.89913 -1.72132 0
M  V30 2512 C 242.634 -1.96492 -2.86371 0
M  V30 2513 C 241.588 -3.12161 -2.92813 0
M  V30 2514 C 240.914 -3.13877 -4.3288 0
M  V30 2515 C 242.214 -4.51322 -2.6288 0
M  V30 2516 H 243.908 -2.71589 -1.26015 0
M  V30 2517 H 241.454 -1.30684 -0.604778 0
M  V30 2518 H 243.407 -2.14255 -3.62867 0
M  V30 2519 H 242.131 -1.01611 -3.10391 0
M  V30 2520 H 240.79 -2.94173 -2.18764 0
M  V30 2521 H 240.438 -2.16687 -4.53933 0
M  V30 2522 H 240.138 -3.91576 -4.38112 0
M  V30 2523 H 241.662 -3.33789 -5.1129 0
M  V30 2524 H 243.076 -4.69435 -3.29096 0
M  V30 2525 H 241.473 -5.31053 -2.79468 0
M  V30 2526 H 242.543 -4.58353 -1.58242 0
M  V30 2527 N 243.887 0.651787 -1.4349 0
M  V30 2528 C 244.835 1.78586 -1.49029 0
M  V30 2529 C 245.829 1.65448 -0.363767 0
M  V30 2530 O 247.035 1.71777 -0.537821 0
M  V30 2531 H 243.41 0.589236 -0.467231 0
M  V30 2532 H 245.381 1.71035 -2.44519 0
M  V30 2533 C 244.13 3.16851 -1.43181 0
M  V30 2534 H 243.453 3.27598 -2.29171 0
M  V30 2535 H 244.893 3.96156 -1.51118 0
M  V30 2536 C 243.352 3.36568 -0.149616 0
M  V30 2537 O 243.882 3.93885 0.788509 0
M  V30 2538 N 242.088 2.90539 -0.0593484 0
M  V30 2539 H 241.635 2.4408 -0.823575 0
M  V30 2540 H 241.593 3.04108 0.797853 0
M  V30 2541 N 245.365 1.30045 0.890287 0
M  V30 2542 C 246.59 1.21598 1.68014 0
M  V30 2543 C 247.015 -0.218678 1.86825 0
M  V30 2544 O 246.373 -1.15756 1.39536 0
M  V30 2545 C 246.421 1.94434 3.03691 0
M  V30 2546 O 245.525 1.2678 3.92429 0
M  V30 2547 H 244.866 0.420856 0.513592 0
M  V30 2548 H 247.396 1.71775 1.11151 0
M  V30 2549 H 247.406 2.03251 3.5377 0
M  V30 2550 H 246.081 2.98777 2.89318 0
M  V30 2551 H 244.658 1.26282 3.50866 0
M  V30 2552 N 246.843 -1.10192 1.12674 0
M  V30 2553 C 247.79 -2.16606 0.796906 0
M  V30 2554 C 248.76 -1.64394 -0.237476 0
M  V30 2555 O 249.945 -1.90474 -0.111484 0
M  V30 2556 C 247.085 -3.44116 0.26043 0
M  V30 2557 C 246.198 -4.10268 1.35293 0
M  V30 2558 C 245.333 -5.25507 0.775621 0
M  V30 2559 C 244.372 -5.83567 1.84706 0
M  V30 2560 N 243.509 -6.90179 1.28829 0
M  V30 2561 H 248.349 -2.44163 1.70846 0
M  V30 2562 H 245.886 -1.19846 0.85295 0
M  V30 2563 H 247.844 -4.17143 -0.0686814 0
M  V30 2564 H 246.474 -3.16901 -0.614274 0
M  V30 2565 H 245.526 -3.35184 1.79877 0
M  V30 2566 H 246.838 -4.4946 2.16303 0
M  V30 2567 H 245.992 -6.05398 0.397327 0
M  V30 2568 H 244.731 -4.87656 -0.0656581 0
M  V30 2569 H 243.736 -5.02344 2.23452 0
M  V30 2570 H 244.961 -6.23482 2.69161 0
M  V30 2571 H 242.907 -6.54322 0.468881 0
M  V30 2572 H 242.824 -7.28097 2.03497 0
M  V30 2573 H 244.092 -7.73844 0.937311 0
M  V30 2574 N 248.321 -0.919034 -1.28029 0
M  V30 2575 C 249.251 -0.428581 -2.29533 0
M  V30 2576 C 250.232 0.50659 -1.62381 0
M  V30 2577 O 251.417 0.413195 -1.89753 0
M  V30 2578 C 248.547 0.327388 -3.45753 0
M  V30 2579 C 247.501 -0.519137 -4.2484 0
M  V30 2580 C 246.827 0.365486 -5.33449 0
M  V30 2581 C 248.127 -1.77914 -4.91064 0
M  V30 2582 H 249.821 -1.27687 -2.70807 0
M  V30 2583 H 247.367 -0.615428 -1.30186 0
M  V30 2584 H 249.32 0.681378 -4.15855 0
M  V30 2585 H 248.044 1.20963 -3.03374 0
M  V30 2586 H 246.703 -0.855717 -3.56473 0
M  V30 2587 H 246.351 1.24642 -4.87312 0
M  V30 2588 H 246.051 -0.197356 -5.87268 0
M  V30 2589 H 247.575 0.715241 -6.06396 0
M  V30 2590 H 248.989 -1.49374 -5.53498 0
M  V30 2591 H 247.386 -2.2848 -5.54903 0
M  V30 2592 H 248.456 -2.50382 -4.15255 0
M  V30 2593 N 249.799 1.42003 -0.683588 0
M  V30 2594 C 251.045 2.01712 -0.209825 0
M  V30 2595 C 251.378 1.53968 1.18353 0
M  V30 2596 O 250.653 0.745661 1.79639 0
M  V30 2597 C 250.936 3.59202 -0.254197 0
M  V30 2598 C 250.789 4.17102 -1.68363 0
M  V30 2599 C 252.108 4.38344 0.392709 0
M  V30 2600 H 249.227 0.732891 -0.0777189 0
M  V30 2601 H 251.869 1.68909 -0.87004 0
M  V30 2602 H 250.019 3.87278 0.307954 0
M  V30 2603 H 251.691 3.99946 -2.29871 0
M  V30 2604 H 249.934 3.72597 -2.22157 0
M  V30 2605 H 250.605 5.26249 -1.6663 0
M  V30 2606 H 253.081 4.16011 -0.0859162 0
M  V30 2607 H 251.957 5.47901 0.331063 0
M  V30 2608 H 252.218 4.16887 1.47164 0
M  V30 2609 N 251.277 0.427512 1.51691 0
M  V30 2610 C 252.502 -0.143601 2.06902 0
M  V30 2611 C 252.927 -1.36536 1.29382 0
M  V30 2612 O 252.285 -1.78289 0.329043 0
M  V30 2613 C 252.333 -0.454207 3.57728 0
M  V30 2614 O 251.437 -1.54228 3.82475 0
M  V30 2615 H 250.778 -0.00617128 0.663971 0
M  V30 2616 H 253.308 0.606014 1.95419 0
M  V30 2617 H 253.318 -0.707525 4.01818 0
M  V30 2618 H 251.993 0.438812 4.13579 0
M  V30 2619 H 250.57 -1.2797 3.50254 0
M  V30 2620 N 252.755 -1.56801 0.158532 0
M  V30 2621 C 253.703 -2.18638 -0.793729 0
M  V30 2622 C 254.697 -1.14669 -1.24689 0
M  V30 2623 O 255.903 -1.32895 -1.21403 0
M  V30 2624 H 252.278 -0.700226 -0.274204 0
M  V30 2625 H 254.249 -2.97367 -0.248095 0
M  V30 2626 C 252.998 -2.83139 -2.0181 0
M  V30 2627 H 252.321 -3.62863 -1.67841 0
M  V30 2628 H 253.761 -3.29894 -2.66357 0
M  V30 2629 C 252.22 -1.82244 -2.83353 0
M  V30 2630 O 252.75 -1.3 -3.80083 0
M  V30 2631 N 250.956 -1.51288 -2.48114 0
M  V30 2632 H 250.503 -1.93964 -1.69516 0
M  V30 2633 H 250.461 -0.840296 -3.02963 0
M  V30 2634 N 254.233 0.115231 -1.57178 0
M  V30 2635 C 255.183 1.14707 -1.97044 0
M  V30 2636 C 256.167 1.36866 -0.845957 0
M  V30 2637 O 257.359 1.37895 -1.10968 0
M  V30 2638 C 254.488 2.47266 -2.38148 0
M  V30 2639 C 253.574 2.28566 -3.57237 0
M  V30 2640 N 253.965 1.79685 -4.72807 0
M  V30 2641 C 252.263 2.59208 -3.62943 0
M  V30 2642 C 252.964 1.74781 -5.54821 0
M  V30 2643 N 251.94 2.19264 -4.97417 0
M  V30 2644 H 255.742 0.761754 -2.83857 0
M  V30 2645 H 253.256 0.322928 -1.59157 0
M  V30 2646 H 255.253 3.219 -2.64927 0
M  V30 2647 H 253.913 2.86552 -1.52702 0
M  V30 2648 H 254.924 1.49177 -4.9595 0
M  V30 2649 H 251.601 3.02154 -2.88113 0
M  V30 2650 H 252.991 1.38212 -6.57531 0
M  V30 2651 N 255.711 1.52812 0.385517 0
M  V30 2652 C 256.658 1.77838 1.47113 0
M  V30 2653 C 257.628 0.621757 1.54024 0
M  V30 2654 O 258.813 0.861846 1.70226 0
M  V30 2655 C 255.953 1.95618 2.84302 0
M  V30 2656 C 255.066 3.23316 2.86515 0
M  V30 2657 C 254.201 3.31394 4.15152 0
M  V30 2658 C 253.24 4.53201 4.1143 0
M  V30 2659 N 252.377 4.58542 5.3168 0
M  V30 2660 H 257.217 2.70482 1.25073 0
M  V30 2661 H 254.754 1.34006 0.606692 0
M  V30 2662 H 256.712 2.03912 3.63972 0
M  V30 2663 H 255.342 1.06331 3.04784 0
M  V30 2664 H 254.394 3.24076 1.99195 0
M  V30 2665 H 255.706 4.13045 2.79634 0
M  V30 2666 H 254.86 3.3889 5.03228 0
M  V30 2667 H 253.599 2.39645 4.24761 0
M  V30 2668 H 252.604 4.45827 3.21742 0
M  V30 2669 H 253.829 5.46271 4.03442 0
M  V30 2670 H 251.775 3.69686 5.41912 0
M  V30 2671 H 251.692 5.42148 5.26889 0
M  V30 2672 H 252.96 4.70296 6.21644 0
M  V30 2673 N 257.189 -0.644168 1.43834 0
M  V30 2674 C 258.099 -1.78563 1.52159 0
M  V30 2675 C 259.115 -1.69147 0.408069 0
M  V30 2676 O 260.291 -1.90156 0.663524 0
M  V30 2677 C 257.356 -3.14888 1.45073 0
M  V30 2678 C 256.417 -3.36034 2.6717 0
M  V30 2679 C 255.65 -4.65855 2.60413 0
M  V30 2680 O 255.873 -5.45805 1.65689 0
M  V30 2681 O 254.807 -4.88918 3.5106 0
M  V30 2682 H 258.633 -1.74494 2.48567 0
M  V30 2683 H 256.218 -0.80378 1.25935 0
M  V30 2684 H 258.1 -3.96179 1.43597 0
M  V30 2685 H 256.775 -3.19528 0.518037 0
M  V30 2686 H 255.682 -2.54472 2.74217 0
M  V30 2687 H 257.015 -3.36247 3.59442 0
M  V30 2688 N 258.668 -1.30515 -0.883378 0
M  V30 2689 C 259.915 -1.1943 -1.63532 0
M  V30 2690 C 260.243 0.250627 -1.92878 0
M  V30 2691 O 259.498 1.19556 -1.54935 0
M  V30 2692 C 259.797 -1.96994 -2.98209 0
M  V30 2693 C 259.463 -3.466 -2.88408 0
M  V30 2694 C 258.125 -3.87397 -2.85442 0
M  V30 2695 C 260.477 -4.41863 -2.76418 0
M  V30 2696 C 257.805 -5.21745 -2.68327 0
M  V30 2697 C 260.157 -5.7632 -2.60841 0
M  V30 2698 C 258.821 -6.16354 -2.56251 0
M  V30 2699 H 258.091 -0.437025 -0.598406 0
M  V30 2700 H 260.738 -1.61635 -1.02696 0
M  V30 2701 H 259.043 -1.47429 -3.63004 0
M  V30 2702 H 260.74 -1.85808 -3.55354 0
M  V30 2703 H 257.33 -3.14182 -2.91527 0
M  V30 2704 H 261.514 -4.11285 -2.77775 0
M  V30 2705 H 256.77 -5.51853 -2.63189 0
M  V30 2706 H 260.944 -6.49772 -2.50538 0
M  V30 2707 H 258.571 -7.20401 -2.42748 0
M  V30 2708 N 260.146 1.09593 -1.13257 0
M  V30 2709 C 261.393 1.81734 -0.893257 0
M  V30 2710 C 261.721 1.8563 0.580656 0
M  V30 2711 O 260.976 1.31906 1.44566 0
M  V30 2712 C 261.275 3.27802 -1.42411 0
M  V30 2713 C 260.941 3.44041 -2.91456 0
M  V30 2714 C 259.603 3.48181 -3.3215 0
M  V30 2715 C 261.955 3.48719 -3.87356 0
M  V30 2716 C 259.283 3.54575 -4.67433 0
M  V30 2717 C 261.635 3.56648 -5.2248 0
M  V30 2718 C 260.299 3.59055 -5.62704 0
M  V30 2719 H 259.569 0.665011 -0.326866 0
M  V30 2720 H 262.216 1.2912 -1.41422 0
M  V30 2721 H 260.521 3.83042 -0.823795 0
M  V30 2722 H 262.218 3.82149 -1.21503 0
M  V30 2723 H 258.808 3.41502 -2.58987 0
M  V30 2724 H 262.992 3.44763 -3.57004 0
M  V30 2725 H 258.248 3.54725 -4.97976 0
M  V30 2726 H 262.422 3.59212 -5.96607 0
M  V30 2727 H 260.049 3.63763 -6.67518 0
M  V30 2728 N 261.624 0.925811 1.2754 0
M  V30 2729 C 262.872 0.564138 1.94067 0
M  V30 2730 C 263.193 -0.897188 1.73134 0
M  V30 2731 O 262.463 -1.63573 1.07799 0
M  V30 2732 H 261.043 0.205645 0.718136 0
M  V30 2733 H 263.705 1.1778 1.55287 0
M  V30 2734 H 262.801 0.76881 3.02483 0
M  V30 2735 N 263.102 -1.41638 0.69111 0
M  V30 2736 C 264.012 -2.34588 0.0233487 0
M  V30 2737 C 265.028 -1.55987 -0.770984 0
M  V30 2738 O 266.204 -1.88486 -0.709569 0
M  V30 2739 C 263.269 -3.34684 -0.904851 0
M  V30 2740 C 262.33 -4.29176 -0.103225 0
M  V30 2741 C 261.563 -5.2449 -0.987216 0
M  V30 2742 O 261.786 -5.2514 -2.22674 0
M  V30 2743 O 260.72 -6.00295 -0.439281 0
M  V30 2744 H 264.546 -2.93261 0.789416 0
M  V30 2745 H 262.131 -1.42417 0.45142 0
M  V30 2746 H 264.013 -3.96133 -1.43724 0
M  V30 2747 H 262.688 -2.78461 -1.65049 0
M  V30 2748 H 261.595 -3.71089 0.473655 0
M  V30 2749 H 262.928 -4.88484 0.60365 0
M  V30 2750 N 264.58 -0.43555 -1.51462 0
M  V30 2751 C 265.51 0.367376 -2.30592 0
M  V30 2752 C 266.491 1.02263 -1.35928 0
M  V30 2753 O 267.676 1.02661 -1.64847 0
M  V30 2754 C 264.806 1.46983 -3.14664 0
M  V30 2755 C 263.76 0.938161 -4.17591 0
M  V30 2756 C 263.086 2.13622 -4.90173 0
M  V30 2757 C 264.386 -0.0261621 -5.22293 0
M  V30 2758 H 266.08 -0.292969 -2.97963 0
M  V30 2759 H 263.626 -0.14234 -1.43295 0
M  V30 2760 H 265.579 2.03873 -3.688 0
M  V30 2761 H 264.303 2.15843 -2.4511 0
M  V30 2762 H 262.962 0.391481 -3.64504 0
M  V30 2763 H 262.61 2.81098 -4.17124 0
M  V30 2764 H 262.31 1.78688 -5.59772 0
M  V30 2765 H 263.834 2.7107 -5.47132 0
M  V30 2766 H 265.248 0.452384 -5.71512 0
M  V30 2767 H 263.645 -0.287992 -5.99409 0
M  V30 2768 H 264.715 -0.963391 -4.75233 0
M  V30 2769 N 266.058 1.56714 -0.166846 0
M  V30 2770 C 267.304 1.97039 0.479962 0
M  V30 2771 C 267.637 1.05264 1.63197 0
M  V30 2772 O 266.912 0.0988833 1.94248 0
M  V30 2773 C 267.195 3.46867 0.967212 0
M  V30 2774 C 267.048 4.49421 -0.18466 0
M  V30 2775 C 268.367 3.9968 1.84238 0
M  V30 2776 H 265.486 0.71641 0.172992 0
M  V30 2777 H 268.128 1.8832 -0.252079 0
M  V30 2778 H 266.278 3.54428 1.59101 0
M  V30 2779 H 267.95 4.53924 -0.821621 0
M  V30 2780 H 266.193 4.25573 -0.840837 0
M  V30 2781 H 266.864 5.51644 0.198317 0
M  V30 2782 H 269.34 3.94723 1.31655 0
M  V30 2783 H 268.216 5.04941 2.15234 0
M  V30 2784 H 268.477 3.43226 2.78654 0
M  V30 2785 N 267.536 -0.106894 1.57237 0
M  V30 2786 C 268.782 -0.81373 1.85759 0
M  V30 2787 C 269.115 -1.78952 0.754315 0
M  V30 2788 O 268.39 -1.93029 -0.23879 0
M  V30 2789 C 268.673 -1.55293 3.24894 0
M  V30 2790 C 268.526 -0.595929 4.45835 0
M  V30 2791 C 269.845 -2.5063 3.61763 0
M  V30 2792 H 266.964 -0.294369 0.67566 0
M  V30 2793 H 269.606 -0.0776472 1.89841 0
M  V30 2794 H 267.756 -2.1804 3.21544 0
M  V30 2795 H 269.428 0.0236262 4.61294 0
M  V30 2796 H 267.671 0.0916191 4.33703 0
M  V30 2797 H 268.342 -1.15004 5.39887 0
M  V30 2798 H 270.818 -1.97982 3.65981 0
M  V30 2799 H 269.694 -2.99376 4.60071 0
M  V30 2800 H 269.955 -3.3385 2.89821 0
M  V30 2801 N 269.014 -1.53014 -0.377408 0
M  V30 2802 C 269.962 -1.7927 -1.48206 0
M  V30 2803 C 270.956 -0.661195 -1.55963 0
M  V30 2804 O 272.162 -0.843908 -1.58991 0
M  V30 2805 H 268.537 -0.567425 -0.493491 0
M  V30 2806 H 270.508 -2.71753 -1.2326 0
M  V30 2807 C 269.257 -1.98894 -2.85196 0
M  V30 2808 H 268.58 -2.85395 -2.79981 0
M  V30 2809 H 270.02 -2.21249 -3.61698 0
M  V30 2810 C 268.479 -0.764691 -3.28107 0
M  V30 2811 O 269.009 0.0523226 -4.01666 0
M  V30 2812 N 267.215 -0.591493 -2.84517 0
M  V30 2813 H 266.762 -1.25749 -2.24822 0
M  V30 2814 H 266.72 0.226253 -3.13585 0
M  V30 2815 N 270.492 0.636531 -1.44174 0
M  V30 2816 C 271.455 1.73063 -1.50273 0
M  V30 2817 C 272.455 1.56113 -0.385397 0
M  V30 2818 O 273.645 1.61707 -0.64781 0
M  V30 2819 C 270.777 3.12096 -1.37145 0
M  V30 2820 H 271.97 1.69031 -2.47727 0
M  V30 2821 H 269.523 0.849706 -1.31186 0
M  V30 2822 H 270.258 3.21728 -0.407636 0
M  V30 2823 H 270.043 3.25805 -2.18159 0
M  V30 2824 H 271.533 3.91846 -1.44382 0
M  V30 2825 N 271.97 1.30982 0.876444 0
M  V30 2826 C 273.216 1.20474 1.63138 0
M  V30 2827 C 273.549 -0.238096 1.92735 0
M  V30 2828 O 272.824 -1.1692 1.55435 0
M  V30 2829 C 273.107 2.04244 2.96574 0
M  V30 2830 C 272.96 3.56793 2.73896 0
M  V30 2831 C 274.279 1.88684 3.97601 0
M  V30 2832 H 271.398 0.439001 0.591985 0
M  V30 2833 H 274.04 1.60704 1.01361 0
M  V30 2834 H 272.19 1.70063 3.493 0
M  V30 2835 H 273.862 4.01077 2.27892 0
M  V30 2836 H 272.105 3.80548 2.08245 0
M  V30 2837 H 272.776 4.10706 3.68815 0
M  V30 2838 H 275.252 2.18584 3.54062 0
M  V30 2839 H 274.128 2.4961 4.88862 0
M  V30 2840 H 274.389 0.848343 4.33884 0
M  V30 2841 N 273.449 -1.08991 1.13837 0
M  V30 2842 C 274.679 -1.84743 0.924859 0
M  V30 2843 C 275.087 -1.81629 -0.529874 0
M  V30 2844 O 274.43 -1.21397 -1.37872 0
M  V30 2845 C 274.492 -3.33568 1.34061 0
M  V30 2846 C 274.156 -3.60425 2.80968 0
M  V30 2847 C 275.153 -3.55771 3.79108 0
M  V30 2848 C 272.838 -3.88627 3.18236 0
M  V30 2849 C 274.832 -3.78939 5.12527 0
M  V30 2850 C 272.519 -4.11449 4.51833 0
M  V30 2851 C 273.517 -4.06598 5.48787 0
M  V30 2852 O 273.205 -4.28826 6.79973 0
M  V30 2853 H 272.937 -0.590258 0.329502 0
M  V30 2854 H 275.491 -1.38598 1.51591 0
M  V30 2855 H 273.721 -3.80442 0.692853 0
M  V30 2856 H 275.41 -3.90743 1.09886 0
M  V30 2857 H 276.176 -3.34005 3.51661 0
M  V30 2858 H 272.055 -3.91526 2.43369 0
M  V30 2859 H 275.599 -3.75068 5.88192 0
M  V30 2860 H 271.496 -4.32698 4.79002 0
M  V30 2861 H 272.264 -4.46264 6.86142 0
M  V30 2862 N 274.927 -0.932562 -1.27047 0
M  V30 2863 C 275.874 -0.434072 -2.26681 0
M  V30 2864 C 276.844 0.501639 -1.58344 0
M  V30 2865 O 278.029 0.419734 -1.86126 0
M  V30 2866 C 275.169 0.30261 -3.43771 0
M  V30 2867 C 274.282 -0.667774 -4.26808 0
M  V30 2868 C 273.417 0.0892393 -5.31125 0
M  V30 2869 C 272.456 -0.873532 -6.05835 0
M  V30 2870 N 271.593 -0.148832 -7.01942 0
M  V30 2871 H 276.433 -1.28868 -2.68695 0
M  V30 2872 H 273.97 -0.646713 -1.32121 0
M  V30 2873 H 275.928 0.746092 -4.10474 0
M  V30 2874 H 274.558 1.12142 -3.02695 0
M  V30 2875 H 273.61 -1.22978 -3.59973 0
M  V30 2876 H 274.922 -1.40337 -4.78651 0
M  V30 2877 H 274.076 0.592409 -6.03801 0
M  V30 2878 H 272.815 0.85777 -4.80097 0
M  V30 2879 H 271.82 -1.38791 -5.31994 0
M  V30 2880 H 273.045 -1.64193 -6.58952 0
M  V30 2881 H 270.991 0.601365 -6.53238 0
M  V30 2882 H 270.908 -0.82391 -7.51497 0
M  V30 2883 H 272.176 0.333527 -7.78786 0
M  V30 2884 N 276.405 1.4127 -0.698611 0
M  V30 2885 C 277.335 2.33447 -0.049629 0
M  V30 2886 C 278.316 1.51982 0.763898 0
M  V30 2887 O 279.501 1.80509 0.716257 0
M  V30 2888 C 276.631 3.35828 0.885267 0
M  V30 2889 C 275.585 4.27627 0.178613 0
M  V30 2890 C 274.911 5.20406 1.22807 0
M  V30 2891 C 276.211 5.13459 -0.956933 0
M  V30 2892 H 277.905 2.87966 -0.81951 0
M  V30 2893 H 275.451 1.38461 -0.395538 0
M  V30 2894 H 277.404 3.9924 1.34854 0
M  V30 2895 H 276.128 2.79666 1.68685 0
M  V30 2896 H 274.787 3.65643 -0.26466 0
M  V30 2897 H 274.435 4.60558 2.02226 0
M  V30 2898 H 274.135 5.82661 0.760239 0
M  V30 2899 H 275.659 5.86695 1.69179 0
M  V30 2900 H 277.073 5.70421 -0.573805 0
M  V30 2901 H 275.47 5.8467 -1.35205 0
M  V30 2902 H 276.54 4.50443 -1.79524 0
M  V30 2903 N 277.883 0.443576 1.51229 0
M  V30 2904 C 279.131 -0.120557 2.0174 0
M  V30 2905 C 279.452 -1.42665 1.32935 0
M  V30 2906 O 278.722 -1.9028 0.465866 0
M  V30 2907 H 277.302 -0.0475426 0.745486 0
M  V30 2908 H 279.964 0.587711 1.85828 0
M  V30 2909 H 279.06 -0.291972 3.10731 0
M  V30 2910 N 279.361 -1.56624 0.175154 0
M  V30 2911 C 280.638 -1.88688 -0.515373 0
M  V30 2912 C 281.018 -1.08564 -1.81044 0
M  V30 2913 O 280.366 -0.180703 -2.27784 0
M  V30 2914 C 280.576 -3.40768 -0.753552 0
M  V30 2915 C 281.924 -4.10587 -1.08184 0
M  V30 2916 O 282.948 -3.46106 -0.841961 0
M  V30 2917 O 281.807 -5.24512 -1.53459 0
M  V30 2918 H 278.901 -0.78301 -0.26613 0
M  V30 2919 H 281.447 -1.68347 0.213877 0
M  V30 2920 H 280.219 -3.90965 0.161829 0
M  V30 2921 H 279.842 -3.66733 -1.53598 0
M  V30 2922 N 280.839 0.0985539 -1.57292 0
M  V30 2923 C 281.787 1.1387 -2.02821 0
M  V30 2924 C 282.781 1.41676 -0.928666 0
M  V30 2925 O 283.987 1.41398 -1.11385 0
M  V30 2926 H 280.362 0.384419 -0.646317 0
M  V30 2927 H 282.333 0.728347 -2.89375 0
M  V30 2928 C 281.082 2.45166 -2.46554 0
M  V30 2929 H 280.405 2.24613 -3.3074 0
M  V30 2930 H 281.845 3.16456 -2.8219 0
M  V30 2931 C 280.304 3.09216 -1.33742 0
M  V30 2932 O 280.834 3.96163 -0.66464 0
M  V30 2933 N 279.04 2.69413 -1.08928 0
M  V30 2934 H 278.587 1.98801 -1.63817 0
M  V30 2935 H 278.545 3.12594 -0.336458 0
M  V30 2936 N 282.317 1.53212 0.369288 0
M  V30 2937 C 283.247 1.82365 1.45826 0
M  V30 2938 C 284.228 0.676907 1.56051 0
M  V30 2939 O 285.413 0.926401 1.70679 0
M  V30 2940 C 282.543 2.01023 2.83208 0
M  V30 2941 C 281.497 3.1678 2.8781 0
M  V30 2942 C 280.823 3.20724 4.27832 0
M  V30 2943 C 282.123 4.55447 2.55667 0
M  V30 2944 H 283.817 2.73559 1.21678 0
M  V30 2945 H 281.363 1.3163 0.583911 0
M  V30 2946 H 283.316 2.20001 3.59413 0
M  V30 2947 H 282.04 1.06536 3.08736 0
M  V30 2948 H 280.699 2.97616 2.14056 0
M  V30 2949 H 280.347 2.23882 4.50429 0
M  V30 2950 H 280.047 3.98496 4.31827 0
M  V30 2951 H 281.571 3.41881 5.05915 0
M  V30 2952 H 282.985 4.74611 3.21586 0
M  V30 2953 H 281.382 5.35432 2.70984 0
M  V30 2954 H 282.452 4.60812 1.5093 0
M  V30 2955 N 283.795 -0.628877 1.44509 0
M  V30 2956 C 285.072 -1.38733 1.37886 0
M  V30 2957 C 285.452 -2.11065 0.0387008 0
M  V30 2958 O 284.8 -2.06476 -0.97878 0
M  V30 2959 C 285.01 -2.35188 2.57852 0
M  V30 2960 C 286.358 -2.9845 3.02014 0
M  V30 2961 O 287.382 -2.45513 2.58073 0
M  V30 2962 O 286.241 -3.94487 3.78209 0
M  V30 2963 H 283.335 -0.621015 0.54614 0
M  V30 2964 H 285.881 -0.653744 1.56602 0
M  V30 2965 H 284.653 -1.80855 3.46998 0
M  V30 2966 H 284.276 -3.1596 2.4136 0
M  V30 2967 N 285.273 -1.31445 -0.869486 0
M  V30 2968 C 286.22 -1.19135 -1.97675 0
M  V30 2969 C 287.19 -0.0770266 -1.65921 0
M  V30 2970 O 288.375 -0.249972 -1.89155 0
M  V30 2971 C 285.515 -0.905149 -3.33018 0
M  V30 2972 C 284.628 -2.10285 -3.77365 0
M  V30 2973 C 283.763 -1.75339 -5.01427 0
M  V30 2974 C 282.802 -2.91515 -5.38224 0
M  V30 2975 N 281.939 -2.56762 -6.53466 0
M  V30 2976 H 286.779 -2.13853 -2.07535 0
M  V30 2977 H 284.316 -1.06379 -1.01597 0
M  V30 2978 H 286.274 -0.719765 -4.10944 0
M  V30 2979 H 284.904 0.00519624 -3.228 0
M  V30 2980 H 283.956 -2.39899 -2.95216 0
M  V30 2981 H 285.268 -2.97237 -4.00564 0
M  V30 2982 H 284.422 -1.53266 -5.87022 0
M  V30 2983 H 283.161 -0.855801 -4.80133 0
M  V30 2984 H 282.166 -3.14237 -4.51149 0
M  V30 2985 H 283.391 -3.81985 -5.61484 0
M  V30 2986 H 281.337 -1.69526 -6.33717 0
M  V30 2987 H 281.254 -3.37243 -6.76612 0
M  V30 2988 H 282.522 -2.38083 -7.42251 0
M  V30 2989 N 286.751 1.08385 -1.14413 0
M  V30 2990 C 287.976 1.85057 -0.936413 0
M  V30 2991 C 288.401 1.81055 0.509971 0
M  V30 2992 O 287.759 1.1958 1.36273 0
M  V30 2993 C 287.807 3.30505 -1.44217 0
M  V30 2994 O 286.911 4.07491 -0.634409 0
M  V30 2995 H 286.252 0.573425 -0.334784 0
M  V30 2996 H 288.782 1.36799 -1.52142 0
M  V30 2997 H 288.792 3.81348 -1.45043 0
M  V30 2998 H 287.467 3.32734 -2.49522 0
M  V30 2999 H 286.044 3.66368 -0.694902 0
M  V30 3000 N 288.23 0.939286 1.26551 0
M  V30 3001 C 289.178 0.43815 2.28436 0
M  V30 3002 C 290.172 -0.483587 1.62351 0
M  V30 3003 O 291.378 -0.362009 1.76322 0
M  V30 3004 H 287.753 0.123149 0.741848 0
M  V30 3005 H 289.724 1.31002 2.68106 0
M  V30 3006 C 288.473 -0.283052 3.46546 0
M  V30 3007 H 287.796 0.417043 3.97619 0
M  V30 3008 H 289.236 -0.597948 4.19763 0
M  V30 3009 C 287.695 -1.50018 3.01656 0
M  V30 3010 O 288.225 -2.59855 3.0633 0
M  V30 3011 N 286.431 -1.35608 2.57019 0
M  V30 3012 H 285.978 -0.46244 2.53415 0
M  V30 3013 H 285.936 -2.17165 2.27347 0
M  V30 3014 N 289.708 -1.40897 0.706093 0
M  V30 3015 C 290.957 -2.00284 0.238574 0
M  V30 3016 C 291.27 -1.56604 -1.17194 0
M  V30 3017 O 292.476 -2.08624 -1.73748 0
M  V30 3018 C 290.932 -3.57934 0.375623 0
M  V30 3019 C 290.54 -4.10591 1.79217 0
M  V30 3020 C 292.284 -4.24488 -0.0315857 0
M  V30 3021 C 290.191 -5.60712 1.88032 0
M  V30 3022 H 289.121 -0.749144 0.0854398 0
M  V30 3023 H 291.772 -1.61251 0.875813 0
M  V30 3024 H 290.154 -3.94622 -0.330042 0
M  V30 3025 H 291.328 -3.85301 2.52745 0
M  V30 3026 H 289.643 -3.56601 2.15 0
M  V30 3027 H 292.24 -5.34698 0.0136842 0
M  V30 3028 H 292.583 -4.02261 -1.072 0
M  V30 3029 H 293.116 -3.92873 0.624181 0
M  V30 3030 H 289.855 -5.87781 2.90161 0
M  V30 3031 H 289.375 -5.87896 1.18903 0
M  V30 3032 H 291.054 -6.25658 1.64805 0
M  V30 3033 N 291.186 -0.45159 -1.50991 0
M  V30 3034 C 292.434 0.109857 -2.01801 0
M  V30 3035 C 292.755 1.41958 -1.3369 0
M  V30 3036 O 292.025 1.9003 -0.475951 0
M  V30 3037 H 290.605 0.0435884 -0.745727 0
M  V30 3038 H 293.267 -0.597557 -1.85514 0
M  V30 3039 H 292.363 0.275489 -3.10882 0
M  V30 3040 N 292.664 1.56529 -0.183458 0
M  V30 3041 C 293.913 1.96419 0.458511 0
M  V30 3042 C 294.226 1.0727 1.63562 0
M  V30 3043 O 295.432 1.36893 2.34462 0
M  V30 3044 C 293.888 3.49298 0.867122 0
M  V30 3045 C 293.496 4.47092 -0.285057 0
M  V30 3046 C 295.24 3.97983 1.47683 0
M  V30 3047 C 293.147 5.91225 0.143862 0
M  V30 3048 H 292.077 0.733394 0.175071 0
M  V30 3049 H 294.728 1.81448 -0.273624 0
M  V30 3050 H 293.11 3.59731 1.65559 0
M  V30 3051 H 294.284 4.48383 -1.0625 0
M  V30 3052 H 292.599 4.08535 -0.805503 0
M  V30 3053 H 295.196 5.03134 1.80999 0
M  V30 3054 H 295.539 3.41618 2.37914 0
M  V30 3055 H 296.072 3.90617 0.752562 0
M  V30 3056 H 292.811 6.5149 -0.723974 0
M  V30 3057 H 292.331 5.93214 0.886413 0
M  V30 3058 H 294.01 6.44362 0.583628 0
M  V30 3059 N 294.142 -0.090211 1.57342 0
M  V30 3060 C 295.089 -1.10909 2.02405 0
M  V30 3061 C 296.059 -1.39523 0.901252 0
M  V30 3062 O 297.244 -1.50903 1.1676 0
M  V30 3063 C 294.384 -2.42277 2.45755 0
M  V30 3064 C 293.497 -2.20352 3.71576 0
M  V30 3065 C 292.632 -3.45154 4.03785 0
M  V30 3066 C 291.671 -3.18512 5.22701 0
M  V30 3067 N 290.808 -4.35593 5.50639 0
M  V30 3068 H 295.648 -0.71782 2.89225 0
M  V30 3069 H 293.185 -0.342901 1.43048 0
M  V30 3070 H 295.143 -3.18951 2.68935 0
M  V30 3071 H 293.773 -2.79242 1.61938 0
M  V30 3072 H 292.825 -1.34458 3.55844 0
M  V30 3073 H 294.137 -1.96661 4.58395 0
M  V30 3074 H 293.291 -4.30233 4.27767 0
M  V30 3075 H 292.03 -3.71904 3.15498 0
M  V30 3076 H 291.035 -2.31827 4.98534 0
M  V30 3077 H 292.26 -2.93103 6.12591 0
M  V30 3078 H 290.206 -4.6241 4.6531 0
M  V30 3079 H 290.123 -4.1511 6.31838 0
M  V30 3080 H 291.391 -5.21723 5.7916 0
M  V30 3081 N 295.62 -1.53406 -0.361157 0
M  V30 3082 C 296.567 -1.80156 -1.44265 0
M  V30 3083 C 297.537 -0.646183 -1.53015 0
M  V30 3084 O 298.722 -0.888818 -1.68833 0
M  V30 3085 C 295.862 -2.00116 -2.81154 0
M  V30 3086 C 294.975 -3.27833 -2.81335 0
M  V30 3087 C 294.11 -3.37957 -4.09828 0
M  V30 3088 C 293.149 -4.59689 -4.04168 0
M  V30 3089 N 292.286 -4.66942 -5.24318 0
M  V30 3090 H 297.126 -2.72438 -1.20754 0
M  V30 3091 H 294.663 -1.34954 -0.585296 0
M  V30 3092 H 296.621 -2.09677 -3.60682 0
M  V30 3093 H 295.251 -1.11167 -3.03054 0
M  V30 3094 H 294.303 -3.27204 -1.94014 0
M  V30 3095 H 295.615 -4.17442 -2.73027 0
M  V30 3096 H 294.769 -3.46853 -4.97773 0
M  V30 3097 H 293.508 -2.46372 -4.20894 0
M  V30 3098 H 292.513 -4.50889 -3.14609 0
M  V30 3099 H 293.738 -5.5262 -3.947 0
M  V30 3100 H 291.684 -3.7826 -5.35962 0
M  V30 3101 H 291.601 -5.50462 -5.18197 0
M  V30 3102 H 292.869 -4.80127 -6.14084 0
M  V30 3103 N 297.098 0.621204 -1.44841 0
M  V30 3104 C 298.344 1.3826 -1.48365 0
M  V30 3105 C 298.677 1.93831 -0.119624 0
M  V30 3106 O 297.952 1.74251 0.864111 0
M  V30 3107 C 298.235 2.54058 -2.55199 0
M  V30 3108 C 298.088 2.03772 -4.00995 0
M  V30 3109 C 299.407 3.56225 -2.58442 0
M  V30 3110 H 296.526 0.501374 -0.540179 0
M  V30 3111 H 299.168 0.7015 -1.76576 0
M  V30 3112 H 297.318 3.12162 -2.31274 0
M  V30 3113 H 298.99 1.50423 -4.36086 0
M  V30 3114 H 297.233 1.34876 -4.12299 0
M  V30 3115 H 297.904 2.87185 -4.71411 0
M  V30 3116 H 300.38 3.07939 -2.79844 0
M  V30 3117 H 299.256 4.34756 -3.3508 0
M  V30 3118 H 299.517 4.10949 -1.63013 0
M  V30 3119 N 298.576 1.31904 0.862503 0
M  V30 3120 C 299.804 1.24998 1.64873 0
M  V30 3121 C 300.219 -0.183425 1.87907 0
M  V30 3122 O 299.576 -1.11794 1.44251 0
M  V30 3123 C 299.627 1.99829 3.01248 0
M  V30 3124 O 299.348 3.37575 2.79239 0
M  V30 3125 C 300.849 1.99852 3.95694 0
M  V30 3126 H 298.069 0.431599 0.513773 0
M  V30 3127 H 300.613 1.73901 1.07604 0
M  V30 3128 H 298.768 1.54668 3.55185 0
M  V30 3129 H 299.182 3.75776 3.65914 0
M  V30 3130 H 300.656 2.56709 4.88676 0
M  V30 3131 H 301.133 0.982852 4.28062 0
M  V30 3132 H 301.739 2.44926 3.47694 0
M  V30 3133 N 300.054 -1.07777 1.14986 0
M  V30 3134 C 301.302 -1.79934 0.920235 0
M  V30 3135 C 301.623 -1.86955 -0.554336 0
M  V30 3136 O 300.893 -1.36731 -1.40291 0
M  V30 3137 H 299.473 -0.666424 0.337473 0
M  V30 3138 H 302.135 -1.3027 1.44968 0
M  V30 3139 H 301.231 -2.82539 1.32583 0
M  V30 3140 N 301.532 -0.945985 -1.26051 0
M  V30 3141 C 302.78 -0.594941 -1.93145 0
M  V30 3142 C 303.101 0.86953 -1.7454 0
M  V30 3143 O 302.371 1.61838 -1.10387 0
M  V30 3144 H 300.951 -0.217044 -0.714773 0
M  V30 3145 H 303.613 -1.20235 -1.53393 0
M  V30 3146 H 302.709 -0.816835 -3.01221 0
M  V30 3147 N 303.011 1.40521 -0.713556 0
M  V30 3148 C 304.236 2.05759 -0.26035 0
M  V30 3149 C 304.661 1.53403 1.08854 0
M  V30 3150 O 304.019 0.668535 1.68524 0
M  V30 3151 C 304.067 3.59745 -0.248122 0
M  V30 3152 O 303.171 4.05123 0.77131 0
M  V30 3153 H 302.512 0.652564 -0.122703 0
M  V30 3154 H 305.042 1.79958 -0.973467 0
M  V30 3155 H 305.052 4.07911 -0.0851129 0
M  V30 3156 H 303.727 3.97218 -1.2325 0
M  V30 3157 H 302.304 3.68422 0.57619 0
M  V30 3158 N 304.489 0.459591 1.5075 0
M  V30 3159 C 305.729 -0.09824 2.04164 0
M  V30 3160 C 306.093 -1.3801 1.33481 0
M  V30 3161 O 307.294 -2.01959 1.77387 0
M  V30 3162 C 305.565 -0.289467 3.56226 0
M  V30 3163 S 307.124 -0.807507 4.31306 0
M  V30 3164 H 303.942 -0.0213845 0.710678 0
M  V30 3165 H 306.544 0.624098 1.85271 0
M  V30 3166 H 305.248 0.649461 4.05229 0
M  V30 3167 H 304.779 -1.03825 3.79452 0
M  V30 3168 H 306.794 -2.0824 4.50389 0
M  V30 3169 N 305.967 -1.56429 0.191757 0
M  V30 3170 C 306.897 -2.21937 -0.725696 0
M  V30 3171 C 307.878 -1.1814 -1.2238 0
M  V30 3172 O 309.063 -1.46636 -1.27325 0
M  V30 3173 C 306.193 -2.87611 -1.94672 0
M  V30 3174 C 305.147 -3.97623 -1.58366 0
M  V30 3175 C 304.473 -4.50446 -2.88102 0
M  V30 3176 C 305.773 -5.16197 -0.796133 0
M  V30 3177 H 307.467 -2.98861 -0.179606 0
M  V30 3178 H 305.013 -1.43749 -0.0849464 0
M  V30 3179 H 306.966 -3.3212 -2.59373 0
M  V30 3180 H 305.69 -2.08087 -2.51728 0
M  V30 3181 H 304.349 -3.53801 -0.960247 0
M  V30 3182 H 303.997 -3.67688 -3.43241 0
M  V30 3183 H 303.697 -5.24675 -2.64556 0
M  V30 3184 H 305.221 -4.97654 -3.53798 0
M  V30 3185 H 306.635 -5.57271 -1.34618 0
M  V30 3186 H 305.032 -5.96471 -0.658928 0
M  V30 3187 H 306.102 -4.84473 0.203478 0
M  V30 3188 N 307.445 0.0818655 -1.57387 0
M  V30 3189 C 308.722 0.815343 -1.77796 0
M  V30 3190 C 309.102 1.96289 -0.77679 0
M  V30 3191 O 308.45 2.27691 0.192106 0
M  V30 3192 C 308.66 1.29765 -3.23978 0
M  V30 3193 C 310.008 1.7351 -3.8753 0
M  V30 3194 O 311.032 1.39356 -3.27808 0
M  V30 3195 O 309.891 2.36708 -4.92576 0
M  V30 3196 H 306.985 0.389914 -0.729312 0
M  V30 3197 H 309.531 0.0627213 -1.69584 0
M  V30 3198 H 308.303 0.47608 -3.88393 0
M  V30 3199 H 307.926 2.11189 -3.36875 0
M  V30 3200 N 308.923 1.53595 0.353017 0
M  V30 3201 C 310.151 1.74311 1.1146 0
M  V30 3202 C 310.566 0.477854 1.82653 0
M  V30 3203 O 309.923 -0.549977 1.74016 0
M  V30 3204 C 309.974 2.91694 2.13534 0
M  V30 3205 O 309.695 4.13325 1.45238 0
M  V30 3206 C 311.196 3.24384 3.02142 0
M  V30 3207 H 308.416 0.582669 0.332773 0
M  V30 3208 H 310.96 2.00386 0.408107 0
M  V30 3209 H 309.115 2.67977 2.79763 0
M  V30 3210 H 309.529 4.79148 2.13349 0
M  V30 3211 H 311.003 4.09893 3.69718 0
M  V30 3212 H 311.48 2.40282 3.67643 0
M  V30 3213 H 312.086 3.50073 2.41514 0
M  V30 3214 N 310.401 -0.613514 1.45168 0
M  V30 3215 C 311.333 -1.73825 1.4939 0
M  V30 3216 C 312.346 -1.58175 0.385304 0
M  V30 3217 O 313.535 -1.66165 0.652036 0
M  V30 3218 C 310.635 -3.11758 1.32891 0
M  V30 3219 C 309.808 -3.53704 2.57317 0
M  V30 3220 C 308.867 -4.70579 2.35462 0
M  V30 3221 O 307.893 -4.77996 3.09044 0
M  V30 3222 N 309.095 -5.63454 1.39644 0
M  V30 3223 H 311.86 -1.70669 2.46358 0
M  V30 3224 H 309.421 -0.79862 1.40832 0
M  V30 3225 H 311.413 -3.87692 1.1609 0
M  V30 3226 H 309.983 -3.09456 0.442218 0
M  V30 3227 H 309.203 -2.67794 2.89275 0
M  V30 3228 H 310.491 -3.78486 3.40038 0
M  V30 3229 H 309.889 -5.6017 0.789062 0
M  V30 3230 H 308.446 -6.38944 1.28816 0
M  V30 3231 N 311.879 -1.3236 -0.855495 0
M  V30 3232 C 312.809 -1.23833 -1.97958 0
M  V30 3233 C 313.79 -0.122361 -1.69659 0
M  V30 3234 O 314.975 -0.30939 -1.9172 0
M  V30 3235 C 312.105 -0.959772 -3.33775 0
M  V30 3236 C 311.059 -2.03689 -3.76424 0
M  V30 3237 C 310.385 -1.61075 -5.09862 0
M  V30 3238 C 311.685 -3.4518 -3.9198 0
M  V30 3239 H 313.379 -2.1788 -2.0535 0
M  V30 3240 H 310.925 -1.04891 -0.986605 0
M  V30 3241 H 312.878 -0.886678 -4.11966 0
M  V30 3242 H 311.602 0.0163404 -3.26596 0
M  V30 3243 H 310.261 -2.10012 -3.00484 0
M  V30 3244 H 309.909 -0.622107 -4.99138 0
M  V30 3245 H 309.609 -2.33143 -5.39368 0
M  V30 3246 H 311.133 -1.55201 -5.90546 0
M  V30 3247 H 312.547 -3.4145 -4.60526 0
M  V30 3248 H 310.944 -4.1559 -4.32903 0
M  V30 3249 H 312.014 -3.84903 -2.94919 0
M  V30 3250 N 313.357 1.07166 -1.15556 0
M  V30 3251 C 314.606 1.79181 -0.926132 0
M  V30 3252 C 314.919 1.87768 0.547967 0
M  V30 3253 O 316.125 2.56323 0.895036 0
M  V30 3254 C 314.581 3.22 -1.60761 0
M  V30 3255 C 314.189 3.21607 -3.11886 0
M  V30 3256 C 315.933 3.9861 -1.4598 0
M  V30 3257 C 313.84 4.59092 -3.72812 0
M  V30 3258 H 312.77 0.67154 -0.342856 0
M  V30 3259 H 315.421 1.2027 -1.3859 0
M  V30 3260 H 313.803 3.81115 -1.07553 0
M  V30 3261 H 314.977 2.72127 -3.71865 0
M  V30 3262 H 313.292 2.58495 -3.2645 0
M  V30 3263 H 315.889 5.00225 -1.88888 0
M  V30 3264 H 316.232 4.143 -0.407541 0
M  V30 3265 H 316.765 3.45996 -1.96295 0
M  V30 3266 H 313.504 4.48606 -4.77946 0
M  V30 3267 H 313.024 5.08803 -3.17616 0
M  V30 3268 H 314.703 5.28059 -3.73848 0
M  V30 3269 N 314.835 0.952656 1.25548 0
M  V30 3270 C 316.065 0.622592 1.96996 0
M  V30 3271 C 316.473 -0.809112 1.71026 0
M  V30 3272 O 315.816 -1.55258 0.981861 0
M  V30 3273 C 315.878 0.798946 3.5051 0
M  V30 3274 C 315.542 2.20744 4.00151 0
M  V30 3275 C 316.539 3.18394 4.11001 0
M  V30 3276 C 314.224 2.5311 4.33867 0
M  V30 3277 C 316.218 4.46504 4.54877 0
M  V30 3278 C 313.905 3.8145 4.7743 0
M  V30 3279 C 314.903 4.77959 4.87897 0
M  V30 3280 O 314.591 6.04012 5.30494 0
M  V30 3281 H 314.323 0.232503 0.634758 0
M  V30 3282 H 316.877 1.2789 1.60728 0
M  V30 3283 H 315.107 0.0854903 3.86605 0
M  V30 3284 H 316.796 0.47023 4.03167 0
M  V30 3285 H 317.562 2.94715 3.85186 0
M  V30 3286 H 313.441 1.78719 4.24948 0
M  V30 3287 H 316.985 5.21835 4.62962 0
M  V30 3288 H 312.882 4.04936 5.0269 0
M  V30 3289 H 313.65 6.0736 5.48685 0
M  V30 3290 N 316.313 -1.40141 0.720998 0
M  V30 3291 C 317.561 -2.0039 0.262323 0
M  V30 3292 C 317.882 -1.57469 -1.15015 0
M  V30 3293 O 317.152 -0.816582 -1.78069 0
M  V30 3294 H 315.732 -0.741063 0.093996 0
M  V30 3295 H 318.394 -1.71398 0.927835 0
M  V30 3296 H 317.49 -3.10658 0.299671 0
M  V30 3297 N 317.792 -0.46758 -1.50504 0
M  V30 3298 C 319.038 0.0887532 -2.02606 0
M  V30 3299 C 319.371 1.39686 -1.34913 0
M  V30 3300 O 318.646 1.88644 -0.473694 0
M  V30 3301 C 318.929 0.276206 -3.59039 0
M  V30 3302 C 318.782 -1.05267 -4.37309 0
M  V30 3303 C 320.101 1.03235 -4.27821 0
M  V30 3304 H 317.22 0.0307814 -0.736357 0
M  V30 3305 H 319.862 -0.612485 -1.79857 0
M  V30 3306 H 318.012 0.8735 -3.78553 0
M  V30 3307 H 319.684 -1.68628 -4.29374 0
M  V30 3308 H 317.927 -1.65015 -4.01189 0
M  V30 3309 H 318.598 -0.875197 -5.45018 0
M  V30 3310 H 321.074 0.526111 -4.12761 0
M  V30 3311 H 319.95 1.1323 -5.37094 0
M  V30 3312 H 320.211 2.06806 -3.90748 0
M  V30 3313 N 319.27 1.56325 -0.20005 0
M  V30 3314 C 320.233 2.18084 0.705132 0
M  V30 3315 C 321.233 1.13666 1.1374 0
M  V30 3316 O 322.423 1.39023 1.04968 0
M  V30 3317 C 319.555 2.78689 1.96329 0
M  V30 3318 H 320.748 2.99435 0.167023 0
M  V30 3319 H 318.301 1.56221 0.0495725 0
M  V30 3320 H 319.036 2.0115 2.5438 0
M  V30 3321 H 318.821 3.55133 1.66202 0
M  V30 3322 H 320.311 3.26096 2.60866 0
M  V30 3323 N 320.748 -0.0735177 1.57428 0
M  V30 3324 C 321.995 -0.772999 1.87166 0
M  V30 3325 C 322.323 -1.77665 0.791551 0
M  V30 3326 O 321.578 -1.94541 -0.212636 0
M  V30 3327 C 321.877 -1.51799 3.23561 0
M  V30 3328 C 321.543 -0.654484 4.46125 0
M  V30 3329 C 320.205 -0.416511 4.79394 0
M  V30 3330 C 322.557 -0.0555862 5.2117 0
M  V30 3331 C 319.885 0.429869 5.85123 0
M  V30 3332 C 322.237 0.778239 6.27795 0
M  V30 3333 C 320.901 1.0261 6.59566 0
M  V30 3334 H 320.171 -0.282861 0.684888 0
M  V30 3335 H 322.818 -0.0338272 1.9147 0
M  V30 3336 H 321.123 -2.32932 3.1504 0
M  V30 3337 H 322.82 -2.06397 3.43804 0
M  V30 3338 H 319.41 -0.850091 4.20085 0
M  V30 3339 H 323.594 -0.226558 4.95783 0
M  V30 3340 H 318.85 0.630665 6.08139 0
M  V30 3341 H 323.024 1.24906 6.85107 0
M  V30 3342 H 320.651 1.68371 7.4132 0
M  V30 3343 N 322.226 -1.5378 -0.344866 0
M  V30 3344 C 323.173 -1.81676 -1.42346 0
M  V30 3345 C 324.143 -0.662376 -1.52321 0
M  V30 3346 O 325.328 -0.906675 -1.67881 0
M  V30 3347 C 322.468 -2.03087 -2.79015 0
M  V30 3348 C 321.581 -3.30799 -2.77842 0
M  V30 3349 C 320.716 -3.42285 -4.0622 0
M  V30 3350 C 319.755 -4.6395 -3.9927 0
M  V30 3351 N 318.892 -4.72477 -5.19336 0
M  V30 3352 H 323.732 -2.73703 -1.17858 0
M  V30 3353 H 321.269 -1.35568 -0.570949 0
M  V30 3354 H 323.227 -2.1349 -3.58438 0
M  V30 3355 H 321.857 -1.14375 -3.01858 0
M  V30 3356 H 320.909 -3.29244 -1.90533 0
M  V30 3357 H 322.221 -4.20314 -2.68584 0
M  V30 3358 H 321.375 -3.52113 -4.94066 0
M  V30 3359 H 320.114 -2.50823 -4.18258 0
M  V30 3360 H 319.119 -4.54201 -3.09809 0
M  V30 3361 H 320.344 -5.56775 -3.88817 0
M  V30 3362 H 318.29 -3.83924 -5.3192 0
M  V30 3363 H 318.207 -5.55927 -5.12329 0
M  V30 3364 H 319.475 -4.86613 -6.08957 0
M  V30 3365 N 323.704 0.605807 -1.45491 0
M  V30 3366 C 324.651 1.7164 -1.54299 0
M  V30 3367 C 325.621 1.61486 -0.388761 0
M  V30 3368 O 326.806 1.81039 -0.602445 0
M  V30 3369 C 323.946 3.09953 -1.51734 0
M  V30 3370 C 323.059 3.309 -2.77721 0
M  V30 3371 C 322.194 4.59329 -2.66816 0
M  V30 3372 C 321.233 4.7354 -3.87848 0
M  V30 3373 N 320.37 5.9327 -3.75467 0
M  V30 3374 H 325.21 1.63449 -2.49176 0
M  V30 3375 H 322.747 0.796957 -1.23641 0
M  V30 3376 H 324.705 3.89977 -1.48235 0
M  V30 3377 H 323.335 3.17098 -0.604068 0
M  V30 3378 H 322.387 2.44639 -2.913 0
M  V30 3379 H 323.699 3.37274 -3.67488 0
M  V30 3380 H 322.853 5.4755 -2.61292 0
M  V30 3381 H 321.592 4.55355 -1.74651 0
M  V30 3382 H 320.597 3.83741 -3.93729 0
M  V30 3383 H 321.822 4.79309 -4.81082 0
M  V30 3384 H 319.768 5.90338 -2.86072 0
M  V30 3385 H 319.685 6.00811 -4.5887 0
M  V30 3386 H 320.953 6.83984 -3.73879 0
M  V30 3387 N 325.182 1.32811 0.848464 0
M  V30 3388 C 326.41 1.26739 1.63538 0
M  V30 3389 C 326.825 -0.163484 1.88091 0
M  V30 3390 O 326.182 -1.10258 1.45429 0
M  V30 3391 C 326.233 2.03013 2.99112 0
M  V30 3392 O 325.954 3.40518 2.75643 0
M  V30 3393 C 327.455 2.04038 3.93552 0
M  V30 3394 H 324.675 0.437024 0.509167 0
M  V30 3395 H 327.219 1.75033 1.05753 0
M  V30 3396 H 325.374 1.58426 3.53525 0
M  V30 3397 H 325.788 3.79635 3.61908 0
M  V30 3398 H 327.262 2.61877 4.85926 0
M  V30 3399 H 327.739 1.0282 4.26995 0
M  V30 3400 H 328.345 2.486 3.45077 0
M  V30 3401 N 326.66 -1.06551 1.16123 0
M  V30 3402 C 327.907 -1.79302 0.941126 0
M  V30 3403 C 328.235 -1.87105 -0.531235 0
M  V30 3404 O 327.49 -1.35692 -1.41018 0
M  V30 3405 C 327.789 -3.23911 1.51052 0
M  V30 3406 C 327.455 -3.36193 3.00475 0
M  V30 3407 C 326.117 -3.39252 3.41265 0
M  V30 3408 C 328.469 -3.38326 3.96465 0
M  V30 3409 C 325.797 -3.42057 4.76669 0
M  V30 3410 C 328.149 -3.4267 5.31752 0
M  V30 3411 C 326.813 -3.4401 5.72026 0
M  V30 3412 H 326.083 -0.656111 0.344382 0
M  V30 3413 H 328.73 -1.25325 1.44796 0
M  V30 3414 H 327.035 -3.80723 0.925063 0
M  V30 3415 H 328.732 -3.78793 1.31593 0
M  V30 3416 H 325.322 -3.34516 2.6795 0
M  V30 3417 H 329.506 -3.35176 3.6602 0
M  V30 3418 H 324.762 -3.41398 5.07206 0
M  V30 3419 H 328.936 -3.43268 6.05921 0
M  V30 3420 H 326.563 -3.45937 6.76928 0
M  V30 3421 N 328.138 -0.959301 -1.25041 0
M  V30 3422 C 329.363 -0.633507 -1.97488 0
M  V30 3423 C 329.788 0.788555 -1.70773 0
M  V30 3424 O 329.146 1.53394 -0.966431 0
M  V30 3425 C 329.194 -0.904057 -3.49083 0
M  V30 3426 O 328.298 0.0147939 -4.12397 0
M  V30 3427 H 327.639 -0.240368 -0.618966 0
M  V30 3428 H 330.169 -1.28717 -1.59038 0
M  V30 3429 H 330.179 -0.832203 -3.99423 0
M  V30 3430 H 328.854 -1.94048 -3.67856 0
M  V30 3431 H 327.431 -0.109664 -3.72739 0
M  V30 3432 N 329.616 1.39756 -0.72842 0
M  V30 3433 C 330.846 2.04651 -0.283117 0
M  V30 3434 C 331.254 1.5502 1.08469 0
M  V30 3435 O 330.597 0.707343 1.69536 0
M  V30 3436 C 330.659 3.58947 -0.199309 0
M  V30 3437 C 330.323 4.31525 -1.5045 0
M  V30 3438 C 331.32 4.5861 -2.44894 0
M  V30 3439 C 329.005 4.70195 -1.76698 0
M  V30 3440 C 330.999 5.23366 -3.63822 0
M  V30 3441 C 328.686 5.3468 -2.95906 0
M  V30 3442 C 329.684 5.61198 -3.89289 0
M  V30 3443 O 329.372 6.24347 -5.06404 0
M  V30 3444 H 329.104 0.664777 -0.122666 0
M  V30 3445 H 331.658 1.79913 -0.990987 0
M  V30 3446 H 329.888 3.82556 0.56461 0
M  V30 3447 H 331.577 4.0534 0.213125 0
M  V30 3448 H 332.343 4.29187 -2.25883 0
M  V30 3449 H 328.222 4.48916 -1.04859 0
M  V30 3450 H 331.766 5.4398 -4.36728 0
M  V30 3451 H 327.663 5.63524 -3.14819 0
M  V30 3452 H 328.431 6.42842 -5.06652 0
M  V30 3453 N 331.094 0.475555 1.50254 0
M  V30 3454 C 332.057 -0.305016 2.27161 0
M  V30 3455 C 333.057 -0.916519 1.32123 0
M  V30 3456 O 334.247 -0.785003 1.5551 0
M  V30 3457 C 331.379 -1.43496 3.09227 0
M  V30 3458 H 332.572 0.369511 2.97615 0
M  V30 3459 H 330.125 0.229747 1.54602 0
M  V30 3460 H 330.86 -2.14441 2.43281 0
M  V30 3461 H 330.645 -1.00223 3.79075 0
M  V30 3462 H 332.135 -1.98548 3.67381 0
M  V30 3463 N 332.573 -1.56217 0.208337 0
M  V30 3464 C 333.821 -1.97558 -0.426076 0
M  V30 3465 C 334.142 -1.09683 -1.61229 0
M  V30 3466 O 333.412 -0.170956 -1.95153 0
M  V30 3467 H 331.992 -0.729575 -0.160405 0
M  V30 3468 H 334.654 -1.92606 0.298155 0
M  V30 3469 H 333.75 -3.02672 -0.761312 0
M  V30 3470 N 334.051 0.0651679 -1.57465 0
M  V30 3471 C 335.298 0.763063 -1.87573 0
M  V30 3472 C 335.626 1.77242 -0.800961 0
M  V30 3473 O 334.881 1.94651 0.202316 0
M  V30 3474 C 335.18 1.50081 -3.24362 0
M  V30 3475 C 334.846 0.630816 -4.46466 0
M  V30 3476 C 333.508 0.391082 -4.79608 0
M  V30 3477 C 335.86 0.0279465 -5.21193 0
M  V30 3478 C 333.188 -0.460894 -5.84887 0
M  V30 3479 C 335.54 -0.811522 -6.27373 0
M  V30 3480 C 334.204 -1.06106 -6.59013 0
M  V30 3481 H 333.474 0.279224 -0.686378 0
M  V30 3482 H 336.121 0.0236726 -1.91485 0
M  V30 3483 H 334.426 2.31258 -3.16271 0
M  V30 3484 H 336.123 2.04571 -3.44894 0
M  V30 3485 H 332.713 0.8278 -4.2053 0
M  V30 3486 H 336.897 0.200262 -4.95896 0
M  V30 3487 H 332.153 -0.662907 -6.07796 0
M  V30 3488 H 336.327 -1.28537 -6.84435 0
M  V30 3489 H 333.954 -1.723 -7.40417 0
M  V30 3490 N 335.529 1.53961 0.336706 0
M  V30 3491 C 336.439 1.85432 1.43708 0
M  V30 3492 C 337.455 0.745053 1.57242 0
M  V30 3493 O 338.631 1.03804 1.72588 0
M  V30 3494 C 335.696 2.06349 2.78605 0
M  V30 3495 C 334.757 3.30191 2.74358 0
M  V30 3496 C 333.99 3.50101 4.02822 0
M  V30 3497 O 334.213 2.7371 5.00439 0
M  V30 3498 O 333.147 4.43547 4.06878 0
M  V30 3499 H 336.973 2.78975 1.20028 0
M  V30 3500 H 334.558 1.39701 0.52952 0
M  V30 3501 H 336.44 2.21513 3.58483 0
M  V30 3502 H 335.115 1.15995 3.02203 0
M  V30 3503 H 334.022 3.20425 1.93078 0
M  V30 3504 H 335.355 4.2056 2.55715 0
M  V30 3505 N 337.007 -0.598083 1.45811 0
M  V30 3506 C 337.939 -1.72231 1.51225 0
M  V30 3507 C 338.952 -1.57757 0.402059 0
M  V30 3508 O 340.141 -1.65464 0.669624 0
M  V30 3509 C 337.241 -3.10331 1.3619 0
M  V30 3510 C 336.414 -3.50955 2.61054 0
M  V30 3511 C 335.473 -4.68055 2.40439 0
M  V30 3512 O 334.499 -4.74691 3.14097 0
M  V30 3513 N 335.701 -5.61941 1.45612 0
M  V30 3514 H 338.466 -1.68046 2.48154 0
M  V30 3515 H 336.027 -0.783637 1.41671 0
M  V30 3516 H 338.019 -3.86439 1.20195 0
M  V30 3517 H 336.589 -3.0897 0.475015 0
M  V30 3518 H 335.809 -2.64711 2.92099 0
M  V30 3519 H 337.097 -3.74858 3.44034 0
M  V30 3520 H 336.495 -5.59301 0.848431 0
M  V30 3521 H 335.052 -6.37542 1.35585 0
M  V30 3522 N 338.485 -1.33259 -0.841409 0
M  V30 3523 C 339.417 -1.19136 -1.95804 0
M  V30 3524 C 340.43 -0.122965 -1.62335 0
M  V30 3525 O 341.619 -0.373154 -1.74556 0
M  V30 3526 C 338.719 -0.804268 -3.29218 0
M  V30 3527 C 337.892 -1.96376 -3.90839 0
M  V30 3528 C 336.951 -1.55806 -5.02604 0
M  V30 3529 O 335.977 -2.27203 -5.21888 0
M  V30 3530 N 337.179 -0.461609 -5.78662 0
M  V30 3531 H 339.944 -2.15326 -2.08458 0
M  V30 3532 H 337.505 -1.25971 -1.017 0
M  V30 3533 H 339.497 -0.51501 -4.0141 0
M  V30 3534 H 338.067 0.0668809 -3.12528 0
M  V30 3535 H 337.287 -2.41879 -3.11269 0
M  V30 3536 H 338.575 -2.73966 -4.28742 0
M  V30 3537 H 337.973 0.132343 -5.65545 0
M  V30 3538 H 336.53 -0.232013 -6.51387 0
M  V30 3539 N 339.963 1.05934 -1.16686 0
M  V30 3540 C 341.374 1.60263 -0.957745 0
M  V30 3541 C 341.725 1.89789 0.49745 0
M  V30 3542 O 340.85 1.67401 1.37135 0
M  V30 3543 C 341.445 2.91172 -1.73218 0
M  V30 3544 C 340.004 3.42188 -1.56794 0
M  V30 3545 C 339.151 2.16028 -1.73859 0
M  V30 3546 H 342.102 0.888392 -1.31504 0
M  V30 3547 H 342.123 3.60744 -1.21014 0
M  V30 3548 H 341.635 2.6965 -2.79124 0
M  V30 3549 H 339.736 3.68762 -0.533437 0
M  V30 3550 H 339.849 4.17273 -2.35414 0
M  V30 3551 H 338.213 2.26426 -1.16633 0
M  V30 3552 H 338.996 1.96985 -2.81161 0
M  V30 3553 N 341.441 0.965919 1.2453 0
M  V30 3554 C 342.388 0.49402 2.25451 0
M  V30 3555 C 343.358 -0.45948 1.59618 0
M  V30 3556 O 344.543 -0.370238 1.87173 0
M  V30 3557 C 341.683 -0.211359 3.44452 0
M  V30 3558 C 340.796 0.7807 4.24887 0
M  V30 3559 C 339.931 0.0516105 5.31175 0
M  V30 3560 C 338.97 1.03385 6.03306 0
M  V30 3561 N 338.107 0.334887 7.01301 0
M  V30 3562 H 342.947 1.35946 2.65184 0
M  V30 3563 H 340.484 0.681515 1.3036 0
M  V30 3564 H 342.442 -0.637 4.12308 0
M  V30 3565 H 341.072 -1.04077 3.05562 0
M  V30 3566 H 340.124 1.32479 3.56586 0
M  V30 3567 H 341.436 1.52978 4.74762 0
M  V30 3568 H 340.59 -0.432114 6.05159 0
M  V30 3569 H 339.329 -0.730179 4.82203 0
M  V30 3570 H 338.334 1.52847 5.28127 0
M  V30 3571 H 339.559 1.81606 6.54367 0
M  V30 3572 H 337.505 -0.427959 6.54603 0
M  V30 3573 H 337.422 1.02287 7.49048 0
M  V30 3574 H 338.69 -0.126928 7.79397 0
M  V30 3575 N 342.919 -1.39368 0.735821 0
M  V30 3576 C 343.866 -2.30599 0.0963825 0
M  V30 3577 C 344.836 -1.49257 -0.728794 0
M  V30 3578 O 346.021 -1.77941 -0.688588 0
M  V30 3579 C 343.161 -3.35596 -0.804305 0
M  V30 3580 C 342.274 -4.31987 0.0335761 0
M  V30 3581 C 341.409 -5.24053 -0.868461 0
M  V30 3582 C 340.448 -6.12095 -0.0258776 0
M  V30 3583 N 339.585 -6.96514 -0.883893 0
M  V30 3584 H 344.425 -2.8471 0.880002 0
M  V30 3585 H 341.962 -1.40188 0.445619 0
M  V30 3586 H 343.92 -3.95062 -1.34096 0
M  V30 3587 H 342.55 -2.82938 -1.55389 0
M  V30 3588 H 341.602 -3.74133 0.68766 0
M  V30 3589 H 342.914 -4.94074 0.685036 0
M  V30 3590 H 342.068 -5.88549 -1.47293 0
M  V30 3591 H 340.807 -4.62289 -1.5537 0
M  V30 3592 H 339.812 -5.4661 0.591386 0
M  V30 3593 H 341.037 -6.75923 0.656156 0
M  V30 3594 H 338.983 -6.37318 -1.55441 0
M  V30 3595 H 338.9 -7.55448 -0.288931 0
M  V30 3596 H 340.168 -7.65439 -1.4739 0
M  V30 3597 N 344.397 -0.483516 -1.5 0
M  V30 3598 C 345.644 0.0671597 -2.02389 0
M  V30 3599 C 345.972 1.38597 -1.36459 0
M  V30 3600 O 345.227 1.89634 -0.483458 0
M  V30 3601 C 345.526 0.286226 -3.56252 0
M  V30 3602 C 345.192 -0.952416 -4.40726 0
M  V30 3603 C 343.854 -1.29199 -4.63531 0
M  V30 3604 C 346.206 -1.77655 -4.89988 0
M  V30 3605 C 343.534 -2.45553 -5.32842 0
M  V30 3606 C 345.886 -2.93147 -5.60578 0
M  V30 3607 C 344.55 -3.27505 -5.81633 0
M  V30 3608 H 343.82 0.0245755 -0.740592 0
M  V30 3609 H 346.467 -0.640124 -1.80485 0
M  V30 3610 H 344.772 1.07587 -3.76739 0
M  V30 3611 H 346.469 0.726473 -3.94365 0
M  V30 3612 H 343.059 -0.677881 -4.23205 0
M  V30 3613 H 347.243 -1.52737 -4.72213 0
M  V30 3614 H 342.499 -2.72431 -5.47349 0
M  V30 3615 H 346.673 -3.57344 -5.97727 0
M  V30 3616 H 344.3 -4.1777 -6.35116 0
M  V30 3617 N 345.875 1.56104 -0.216619 0
M  V30 3618 C 347.124 1.97348 0.416744 0
M  V30 3619 C 347.437 1.10715 1.6125 0
M  V30 3620 O 348.643 1.41836 2.31506 0
M  V30 3621 C 347.099 3.51059 0.792835 0
M  V30 3622 C 346.707 4.46387 -0.379828 0
M  V30 3623 C 348.451 4.01026 1.39208 0
M  V30 3624 C 346.358 5.91397 0.0184223 0
M  V30 3625 H 345.288 0.736942 0.159475 0
M  V30 3626 H 347.939 1.80827 -0.31205 0
M  V30 3627 H 346.321 3.63162 1.57891 0
M  V30 3628 H 347.495 4.46029 -1.15737 0
M  V30 3629 H 345.81 4.06734 -0.891979 0
M  V30 3630 H 348.407 5.0686 1.70286 0
M  V30 3631 H 348.75 3.46587 2.30614 0
M  V30 3632 H 349.283 3.92125 0.669537 0
M  V30 3633 H 346.022 6.49807 -0.862002 0
M  V30 3634 H 345.542 5.94961 0.760384 0
M  V30 3635 H 347.221 6.45455 0.446818 0
M  V30 3636 N 347.353 -0.0568162 1.57498 0
M  V30 3637 C 348.301 -1.08452 2.05769 0
M  V30 3638 C 349.295 -1.39164 0.965903 0
M  V30 3639 O 350.501 -1.38395 1.15095 0
M  V30 3640 H 346.876 -0.367148 0.656282 0
M  V30 3641 H 348.847 -0.651368 2.91204 0
M  V30 3642 C 347.596 -2.38543 2.52968 0
M  V30 3643 H 346.919 -2.15765 3.36579 0
M  V30 3644 H 348.359 -3.08863 2.90481 0
M  V30 3645 C 346.818 -3.05562 1.41893 0
M  V30 3646 O 347.348 -3.94262 0.769442 0
M  V30 3647 N 345.554 -2.6643 1.16032 0
M  V30 3648 H 345.101 -1.94387 1.6903 0
M  V30 3649 H 345.059 -3.11593 0.419219 0
M  V30 3650 N 348.832 -1.54138 -0.328536 0
M  V30 3651 C 350.243 -1.63395 -0.903272 0
M  V30 3652 C 350.594 -0.524828 -1.8905 0
M  V30 3653 O 349.719 0.343068 -2.13663 0
M  V30 3654 C 350.314 -2.9618 -1.64507 0
M  V30 3655 C 348.873 -3.0765 -2.1686 0
M  V30 3656 C 348.02 -2.58933 -0.992416 0
M  V30 3657 H 350.971 -1.58344 -0.106253 0
M  V30 3658 H 350.992 -2.86061 -2.50897 0
M  V30 3659 H 350.504 -3.76884 -0.926302 0
M  V30 3660 H 348.605 -2.31611 -2.91868 0
M  V30 3661 H 348.718 -4.1337 -2.42202 0
M  V30 3662 H 347.082 -2.14706 -1.37016 0
M  V30 3663 H 347.865 -3.42089 -0.288041 0
M  V30 3664 N 350.31 0.590341 -1.46126 0
M  V30 3665 C 351.257 1.69994 -1.56111 0
M  V30 3666 C 352.227 1.61065 -0.405867 0
M  V30 3667 O 353.412 1.8039 -0.621613 0
M  V30 3668 C 350.552 3.08326 -1.55013 0
M  V30 3669 C 349.665 3.27936 -2.81215 0
M  V30 3670 C 348.8 4.56473 -2.71673 0
M  V30 3671 C 347.839 4.694 -3.92849 0
M  V30 3672 N 346.976 5.89254 -3.81738 0
M  V30 3673 H 351.816 1.60797 -2.50895 0
M  V30 3674 H 349.353 0.783799 -1.24479 0
M  V30 3675 H 351.311 3.88383 -1.52362 0
M  V30 3676 H 349.941 3.16439 -0.637667 0
M  V30 3677 H 348.993 2.41536 -2.93879 0
M  V30 3678 H 350.305 3.33357 -3.71045 0
M  V30 3679 H 349.459 5.44748 -2.67085 0
M  V30 3680 H 348.198 4.53477 -1.7947 0
M  V30 3681 H 347.203 3.79544 -3.97777 0
M  V30 3682 H 348.428 4.7418 -4.86138 0
M  V30 3683 H 346.374 5.87271 -2.92317 0
M  V30 3684 H 346.291 5.95911 -4.65217 0
M  V30 3685 H 347.559 6.79981 -3.81112 0
M  V30 3686 N 351.788 1.33704 0.83433 0
M  V30 3687 C 353.037 1.24763 1.58484 0
M  V30 3688 C 353.35 -0.183775 1.94735 0
M  V30 3689 O 354.556 -0.395234 2.68608 0
M  V30 3690 C 353.012 2.18638 2.85876 0
M  V30 3691 C 352.62 3.66974 2.56971 0
M  V30 3692 C 354.364 2.18581 3.63899 0
M  V30 3693 C 352.271 4.5275 3.80488 0
M  V30 3694 H 351.201 0.463425 0.594772 0
M  V30 3695 H 353.852 1.58797 0.919551 0
M  V30 3696 H 352.234 1.77542 3.5397 0
M  V30 3697 H 353.408 4.16538 1.9706 0
M  V30 3698 H 351.723 3.69366 1.92244 0
M  V30 3699 H 354.32 2.79894 4.55591 0
M  V30 3700 H 354.663 1.18207 3.99165 0
M  V30 3701 H 355.196 2.58062 3.02735 0
M  V30 3702 H 351.935 5.54017 3.5035 0
M  V30 3703 H 351.455 4.07927 4.39722 0
M  V30 3704 H 353.134 4.66784 4.4802 0
M  V30 3705 N 353.266 -1.05314 1.17247 0
M  V30 3706 C 354.196 -2.1498 0.911362 0
M  V30 3707 C 355.177 -1.69471 -0.146169 0
M  V30 3708 O 356.362 -1.942 0.003812 0
M  V30 3709 C 353.492 -3.4472 0.422528 0
M  V30 3710 C 352.446 -4.03789 1.4191 0
M  V30 3711 C 351.772 -5.28858 0.788274 0
M  V30 3712 C 353.072 -4.41418 2.7919 0
M  V30 3713 H 354.766 -2.3708 1.82848 0
M  V30 3714 H 352.312 -1.13938 0.880569 0
M  V30 3715 H 354.265 -4.20787 0.227289 0
M  V30 3716 H 352.989 -3.22269 -0.530123 0
M  V30 3717 H 351.648 -3.2979 1.60106 0
M  V30 3718 H 351.296 -5.02709 -0.171173 0
M  V30 3719 H 350.996 -5.69338 1.45353 0
M  V30 3720 H 352.52 -6.07612 0.603282 0
M  V30 3721 H 353.934 -5.08524 2.64719 0
M  V30 3722 H 352.331 -4.92913 3.42282 0
M  V30 3723 H 353.401 -3.51819 3.33693 0
M  V30 3724 N 354.744 -0.972509 -1.24016 0
M  V30 3725 C 355.674 -0.525548 -2.27509 0
M  V30 3726 C 356.655 0.437262 -1.64384 0
M  V30 3727 O 357.84 0.332343 -1.91335 0
M  V30 3728 C 354.97 0.180448 -3.46831 0
M  V30 3729 C 353.924 -0.698859 -4.22256 0
M  V30 3730 C 353.25 0.138903 -5.3452 0
M  V30 3731 C 354.55 -1.98582 -4.83076 0
M  V30 3732 H 356.244 -1.39058 -2.65148 0
M  V30 3733 H 353.79 -0.67009 -1.27459 0
M  V30 3734 H 355.743 0.504387 -4.18371 0
M  V30 3735 H 354.467 1.07987 -3.08231 0
M  V30 3736 H 353.126 -1.00614 -3.52523 0
M  V30 3737 H 352.774 1.03862 -4.9216 0
M  V30 3738 H 352.474 -0.446259 -5.85903 0
M  V30 3739 H 353.998 0.457404 -6.08884 0
M  V30 3740 H 355.412 -1.72715 -5.46665 0
M  V30 3741 H 353.809 -2.5181 -5.44713 0
M  V30 3742 H 354.879 -2.67769 -4.04262 0
M  V30 3743 N 356.222 1.38976 -0.743202 0
M  V30 3744 C 357.152 2.33171 -0.123873 0
M  V30 3745 C 358.133 1.54336 0.71516 0
M  V30 3746 O 359.318 1.82696 0.658467 0
M  V30 3747 C 356.448 3.38474 0.777978 0
M  V30 3748 C 355.402 4.27979 0.0424758 0
M  V30 3749 C 354.728 5.2405 1.06189 0
M  V30 3750 C 356.028 5.10155 -1.1198 0
M  V30 3751 H 357.722 2.85213 -0.910709 0
M  V30 3752 H 355.268 1.37133 -0.439388 0
M  V30 3753 H 357.221 4.03328 1.22084 0
M  V30 3754 H 355.945 2.84891 1.59702 0
M  V30 3755 H 354.604 3.64616 -0.380853 0
M  V30 3756 H 354.252 4.66758 1.87472 0
M  V30 3757 H 353.952 5.84785 0.574485 0
M  V30 3758 H 355.476 5.9178 1.50428 0
M  V30 3759 H 356.89 5.68307 -0.75499 0
M  V30 3760 H 355.287 5.80073 -1.53738 0
M  V30 3761 H 356.357 4.44504 -1.93764 0
M  V30 3762 N 357.7 0.491464 1.49741 0
M  V30 3763 C 358.648 -0.305837 2.30581 0
M  V30 3764 C 359.642 -0.971642 1.38764 0
M  V30 3765 O 360.848 -0.90042 1.5586 0
M  V30 3766 H 357.223 -0.117482 0.742767 0
M  V30 3767 H 359.194 0.396093 2.95759 0
M  V30 3768 C 357.943 -1.36319 3.19863 0
M  V30 3769 H 357.266 -0.860258 3.90435 0
M  V30 3770 H 358.706 -1.89323 3.79385 0
M  V30 3771 C 357.165 -2.37621 2.38826 0
M  V30 3772 O 357.695 -3.43311 2.08567 0
M  V30 3773 N 355.901 -2.09849 2.01026 0
M  V30 3774 H 355.448 -1.23922 2.25834 0
M  V30 3775 H 355.406 -2.77859 1.47112 0
M  V30 3776 N 359.178 -1.55987 0.224894 0
M  V30 3777 C 360.424 -1.98684 -0.406502 0
M  V30 3778 C 360.757 -1.11248 -1.59177 0
M  V30 3779 O 360.032 -0.170909 -1.93748 0
M  V30 3780 C 360.315 -3.50218 -0.837808 0
M  V30 3781 C 360.168 -4.48426 0.351332 0
M  V30 3782 C 361.487 -4.06243 -1.69278 0
M  V30 3783 H 358.606 -0.722337 -0.146283 0
M  V30 3784 H 361.248 -1.87255 0.321799 0
M  V30 3785 H 359.398 -3.60089 -1.45837 0
M  V30 3786 H 361.07 -4.50562 0.989526 0
M  V30 3787 H 359.313 -4.22159 0.998207 0
M  V30 3788 H 359.984 -5.52 0.00655905 0
M  V30 3789 H 362.46 -3.99337 -1.16914 0
M  V30 3790 H 361.336 -5.12581 -1.96346 0
M  V30 3791 H 361.597 -3.53332 -2.65723 0
M  V30 3792 N 360.656 0.0484629 -1.57525 0
M  V30 3793 C 361.566 1.07241 -2.08654 0
M  V30 3794 C 362.582 1.409 -1.02095 0
M  V30 3795 O 363.758 1.50609 -1.33712 0
M  V30 3796 C 360.823 2.36008 -2.5397 0
M  V30 3797 C 359.884 2.09108 -3.7493 0
M  V30 3798 C 359.117 3.31736 -4.18075 0
M  V30 3799 O 359.34 4.41714 -3.60895 0
M  V30 3800 O 358.274 3.18576 -5.10679 0
M  V30 3801 H 362.1 0.667965 -2.96263 0
M  V30 3802 H 359.685 0.26417 -1.47046 0
M  V30 3803 H 361.567 3.11747 -2.83535 0
M  V30 3804 H 360.242 2.75786 -1.69481 0
M  V30 3805 H 359.149 1.31 -3.50414 0
M  V30 3806 H 360.482 1.74198 -4.60343 0
M  V30 3807 N 362.134 1.5431 0.320358 0
M  V30 3808 C 363.064 1.86912 1.3995 0
M  V30 3809 C 364.045 0.726211 1.53819 0
M  V30 3810 O 365.23 0.980233 1.67646 0
M  V30 3811 C 362.36 2.09932 2.7667 0
M  V30 3812 C 361.314 3.25776 2.77586 0
M  V30 3813 C 360.64 3.34173 4.17412 0
M  V30 3814 C 361.94 4.6335 2.41048 0
M  V30 3815 H 363.634 2.77292 1.12914 0
M  V30 3816 H 361.18 1.33421 0.541738 0
M  V30 3817 H 363.133 2.31324 3.52232 0
M  V30 3818 H 361.857 1.16304 3.0519 0
M  V30 3819 H 360.516 3.04276 2.04479 0
M  V30 3820 H 360.164 2.38098 4.43078 0
M  V30 3821 H 359.864 4.12033 4.18931 0
M  V30 3822 H 361.388 3.57803 4.94782 0
M  V30 3823 H 362.802 4.84602 3.06324 0
M  V30 3824 H 361.199 5.43782 2.53813 0
M  V30 3825 H 362.269 4.65381 1.36193 0
M  V30 3826 N 363.613 -0.582584 1.46437 0
M  V30 3827 C 364.523 -1.71949 1.59595 0
M  V30 3828 C 365.539 -1.67264 0.479443 0
M  V30 3829 O 366.715 -1.87171 0.743579 0
M  V30 3830 C 363.78 -3.08452 1.58298 0
M  V30 3831 C 362.841 -3.244 2.81182 0
M  V30 3832 C 362.074 -4.54391 2.79937 0
M  V30 3833 O 362.297 -5.38287 1.8869 0
M  V30 3834 O 361.231 -4.73588 3.71481 0
M  V30 3835 H 365.057 -1.63795 2.55744 0
M  V30 3836 H 362.642 -0.749643 1.29231 0
M  V30 3837 H 364.524 -3.89732 1.60271 0
M  V30 3838 H 363.199 -3.17043 0.653094 0
M  V30 3839 H 362.106 -2.42613 2.84763 0
M  V30 3840 H 363.439 -3.20699 3.7338 0
M  V30 3841 N 365.091 -1.34144 -0.827227 0
M  V30 3842 C 366.021 -1.28005 -1.95287 0
M  V30 3843 C 367.002 -0.158321 -1.69362 0
M  V30 3844 O 368.187 -0.349987 -1.9102 0
M  V30 3845 C 365.317 -1.03036 -3.31664 0
M  V30 3846 C 364.271 -2.11628 -3.72019 0
M  V30 3847 C 363.597 -1.71854 -5.0633 0
M  V30 3848 C 364.897 -3.53417 -3.8457 0
M  V30 3849 H 366.591 -2.22187 -2.00682 0
M  V30 3850 H 364.137 -1.0696 -0.964135 0
M  V30 3851 H 366.09 -0.973863 -4.09993 0
M  V30 3852 H 364.814 -0.0529391 -3.26557 0
M  V30 3853 H 363.473 -2.16339 -2.95961 0
M  V30 3854 H 363.121 -0.727841 -4.97706 0
M  V30 3855 H 362.821 -2.44531 -5.34302 0
M  V30 3856 H 364.345 -1.67692 -5.87122 0
M  V30 3857 H 365.759 -3.51142 -4.5318 0
M  V30 3858 H 364.156 -4.24679 -4.2399 0
M  V30 3859 H 365.226 -3.91072 -2.86689 0
M  V30 3860 N 366.569 1.04691 -1.17803 0
M  V30 3861 C 367.516 2.12557 -0.899343 0
M  V30 3862 C 368.486 1.65339 0.158771 0
M  V30 3863 O 369.671 1.90789 0.0204797 0
M  V30 3864 C 366.811 3.42481 -0.424315 0
M  V30 3865 C 365.924 4.03346 -1.54713 0
M  V30 3866 C 365.059 5.21208 -1.02546 0
M  V30 3867 C 364.098 5.74089 -2.12339 0
M  V30 3868 N 363.235 6.83247 -1.61612 0
M  V30 3869 H 368.075 2.35734 -1.823 0
M  V30 3870 H 365.612 1.1564 -0.909159 0
M  V30 3871 H 367.57 4.16996 -0.130421 0
M  V30 3872 H 366.2 3.19471 0.462377 0
M  V30 3873 H 365.252 3.2622 -1.95664 0
M  V30 3874 H 366.564 4.38628 -2.37501 0
M  V30 3875 H 365.718 6.02812 -0.685718 0
M  V30 3876 H 364.457 4.87414 -0.167084 0
M  V30 3877 H 363.462 4.91111 -2.47165 0
M  V30 3878 H 364.687 6.0993 -2.98601 0
M  V30 3879 H 362.633 6.5134 -0.780533 0
M  V30 3880 H 362.55 7.17559 -2.38003 0
M  V30 3881 H 363.818 7.68491 -1.30545 0
M  V30 3882 N 368.047 0.979072 1.23499 0
M  V30 3883 C 369.01 0.523244 2.23147 0
M  V30 3884 C 370.01 -0.386406 1.56088 0
M  V30 3885 O 371.2 -0.180283 1.73265 0
M  V30 3886 C 368.332 -0.240739 3.40049 0
M  V30 3887 H 369.525 1.40432 2.64989 0
M  V30 3888 H 367.078 0.764824 1.36309 0
M  V30 3889 H 367.813 -1.13841 3.03662 0
M  V30 3890 H 367.598 0.412207 3.89927 0
M  V30 3891 H 369.088 -0.548297 4.13985 0
M  V30 3892 N 369.525 -1.3858 0.750561 0
M  V30 3893 C 370.435 -2.34278 0.122825 0
M  V30 3894 C 371.451 -1.59116 -0.704131 0
M  V30 3895 O 372.627 -1.91326 -0.628987 0
M  V30 3896 C 369.692 -3.38221 -0.762086 0
M  V30 3897 C 368.753 -4.29227 0.078896 0
M  V30 3898 C 367.986 -5.28205 -0.763874 0
M  V30 3899 O 368.209 -5.34112 -2.00201 0
M  V30 3900 O 367.143 -6.01618 -0.18428 0
M  V30 3901 H 370.969 -2.89649 0.913088 0
M  V30 3902 H 368.554 -1.40374 0.511417 0
M  V30 3903 H 370.436 -4.01872 -1.26793 0
M  V30 3904 H 369.111 -2.85211 -1.5309 0
M  V30 3905 H 368.018 -3.68747 0.630621 0
M  V30 3906 H 369.351 -4.85484 0.810289 0
M  V30 3907 N 371.003 -0.499398 -1.49478 0
M  V30 3908 C 371.95 0.279881 -2.29097 0
M  V30 3909 C 372.92 0.961805 -1.3542 0
M  V30 3910 O 374.105 0.968777 -1.64376 0
M  V30 3911 C 371.245 1.33932 -3.18051 0
M  V30 3912 C 370.358 0.669333 -4.26783 0
M  V30 3913 C 369.493 1.70907 -5.02955 0
M  V30 3914 C 368.532 1.02087 -6.03527 0
M  V30 3915 N 367.669 2.00474 -6.7287 0
M  V30 3916 H 372.509 -0.405317 -2.95231 0
M  V30 3917 H 370.046 -0.211726 -1.45568 0
M  V30 3918 H 372.004 1.96553 -3.67998 0
M  V30 3919 H 370.634 1.9933 -2.53904 0
M  V30 3920 H 369.686 -0.0701234 -3.80335 0
M  V30 3921 H 370.998 0.127503 -4.98637 0
M  V30 3922 H 370.152 2.41037 -5.56764 0
M  V30 3923 H 368.891 2.28476 -4.30871 0
M  V30 3924 H 367.896 0.305338 -5.48951 0
M  V30 3925 H 369.121 0.451708 -6.77596 0
M  V30 3926 H 367.067 2.57007 -6.03559 0
M  V30 3927 H 366.984 1.51353 -7.40694 0
M  V30 3928 H 368.252 2.69897 -7.31284 0
M  V30 3929 N 372.481 1.55866 -0.233164 0
M  V30 3930 C 373.391 2.24431 0.683217 0
M  V30 3931 C 374.407 1.2558 1.2044 0
M  V30 3932 O 375.583 1.58422 1.24356 0
M  V30 3933 C 372.648 2.91979 1.86947 0
M  V30 3934 C 371.709 4.06204 1.38912 0
M  V30 3935 C 370.942 4.70522 2.51883 0
M  V30 3936 O 371.165 4.33865 3.70293 0
M  V30 3937 O 370.099 5.59296 2.22423 0
M  V30 3938 H 373.925 3.03426 0.129059 0
M  V30 3939 H 371.51 1.494 -0.0022283 0
M  V30 3940 H 373.392 3.34573 2.56201 0
M  V30 3941 H 372.067 2.15935 2.41151 0
M  V30 3942 H 370.974 3.68155 0.664259 0
M  V30 3943 H 372.307 4.84025 0.893328 0
M  V30 3944 N 373.959 -0.0401083 1.57549 0
M  V30 3945 C 374.907 -1.06264 2.06908 0
M  V30 3946 C 375.901 -1.38132 0.980608 0
M  V30 3947 O 377.107 -1.37167 1.16556 0
M  V30 3948 H 373.482 -0.360166 0.660139 0
M  V30 3949 H 375.453 -0.620445 2.91878 0
M  V30 3950 C 374.202 -2.35846 2.55483 0
M  V30 3951 H 373.525 -2.12183 3.38849 0
M  V30 3952 H 374.965 -3.05765 2.93741 0
M  V30 3953 C 373.424 -3.0404 1.45126 0
M  V30 3954 O 373.954 -3.93424 0.811216 0
M  V30 3955 N 372.16 -2.65184 1.18852 0
M  V30 3956 H 371.707 -1.92584 1.71083 0
M  V30 3957 H 371.665 -3.1113 0.452244 0
M  V30 3958 N 375.437 -1.54477 -0.31217 0
M  V30 3959 C 376.4 -1.83923 -1.36766 0
M  V30 3960 C 377.4 -0.711563 -1.44199 0
M  V30 3961 O 378.59 -0.979866 -1.44029 0
M  V30 3962 C 375.722 -2.0095 -2.75376 0
M  V30 3963 H 376.915 -2.78239 -1.11906 0
M  V30 3964 H 374.468 -1.46369 -0.548257 0
M  V30 3965 H 375.203 -1.08883 -3.05475 0
M  V30 3966 H 374.988 -2.83018 -2.71373 0
M  V30 3967 H 376.478 -2.2514 -3.51713 0
M  V30 3968 N 376.915 0.57481 -1.46744 0
M  V30 3969 C 377.825 1.711 -1.60505 0
M  V30 3970 C 378.841 1.67008 -0.488307 0
M  V30 3971 O 380.017 1.86774 -0.753495 0
M  V30 3972 C 377.082 3.07608 -1.59932 0
M  V30 3973 C 376.143 3.22904 -2.82898 0
M  V30 3974 C 375.376 4.529 -2.82343 0
M  V30 3975 O 375.599 5.37278 -1.91542 0
M  V30 3976 O 374.533 4.71611 -3.73987 0
M  V30 3977 H 378.359 1.62436 -2.56609 0
M  V30 3978 H 375.944 0.742779 -1.29627 0
M  V30 3979 H 377.826 3.88877 -1.62336 0
M  V30 3980 H 376.501 3.16692 -0.669898 0
M  V30 3981 H 375.408 2.41099 -2.86046 0
M  V30 3982 H 376.741 3.18715 -3.75076 0
M  V30 3983 N 378.394 1.34581 0.820102 0
M  V30 3984 C 379.64 1.27285 1.57881 0
M  V30 3985 C 379.973 -0.156137 1.93571 0
M  V30 3986 O 379.248 -1.10222 1.60254 0
M  V30 3987 C 379.531 2.16639 2.87645 0
M  V30 3988 C 379.384 3.68088 2.58517 0
M  V30 3989 C 380.703 2.05378 3.8924 0
M  V30 3990 H 377.822 0.463714 0.572833 0
M  V30 3991 H 380.464 1.64859 0.944539 0
M  V30 3992 H 378.614 1.84725 3.41773 0
M  V30 3993 H 380.286 4.10382 2.10676 0
M  V30 3994 H 378.529 3.89038 1.91917 0
M  V30 3995 H 379.2 4.2598 3.51063 0
M  V30 3996 H 381.676 2.33404 3.44473 0
M  V30 3997 H 380.552 2.7012 4.77835 0
M  V30 3998 H 380.813 1.0316 4.29896 0
M  V30 3999 N 379.872 -1.04064 1.18357 0
M  V30 4000 C 381.288 -1.2947 0.933258 0
M  V30 4001 C 381.488 -1.97466 -0.401169 0
M  V30 4002 O 380.544 -2.25528 -1.13549 0
M  V30 4003 C 381.857 -2.15337 2.09882 0
M  V30 4004 C 383.405 -2.28683 2.13712 0
M  V30 4005 C 383.88 -3.17917 3.29686 0
M  V30 4006 N 385.371 -3.25504 3.29547 0
M  V30 4007 C 386.106 -3.94706 4.15926 0
M  V30 4008 N 385.602 -4.66239 5.12439 0
M  V30 4009 N 387.395 -3.90986 4.0384 0
M  V30 4010 H 379.546 -0.583359 2.04232 0
M  V30 4011 H 381.809 -0.319921 0.892387 0
M  V30 4012 H 381.515 -1.72682 3.06389 0
M  V30 4013 H 381.389 -3.16015 2.05947 0
M  V30 4014 H 383.776 -2.70575 1.17784 0
M  V30 4015 H 383.857 -1.27596 2.21705 0
M  V30 4016 H 383.501 -2.76736 4.25887 0
M  V30 4017 H 383.431 -4.19036 3.1893 0
M  V30 4018 H 385.922 -2.74547 2.59677 0
M  V30 4019 H 386.235 -5.16638 5.74722 0
M  V30 4020 H 384.58 -4.65143 5.16398 0
M  V30 4021 H 387.771 -3.34234 3.27727 0
M  V30 4022 H 387.944 -4.44646 4.71375 0
M  V30 4023 N 381.35 -0.985608 -1.22978 0
M  V30 4024 C 382.599 -0.652881 -1.90841 0
M  V30 4025 C 382.912 0.817842 -1.77681 0
M  V30 4026 O 384.118 1.26185 -2.40395 0
M  V30 4027 C 382.574 -1.11717 -3.42122 0
M  V30 4028 C 382.182 -2.6126 -3.63933 0
M  V30 4029 C 383.926 -0.85843 -4.1573 0
M  V30 4030 C 381.833 -3.0133 -5.08876 0
M  V30 4031 H 380.763 -0.240491 -0.714619 0
M  V30 4032 H 383.414 -1.1942 -1.39324 0
M  V30 4033 H 381.796 -0.504027 -3.92779 0
M  V30 4034 H 382.97 -3.27858 -3.23799 0
M  V30 4035 H 381.285 -2.84937 -3.03644 0
M  V30 4036 H 383.882 -1.13359 -5.22546 0
M  V30 4037 H 384.225 0.205461 -4.15793 0
M  V30 4038 H 384.758 -1.43341 -3.71077 0
M  V30 4039 H 381.497 -4.06864 -5.13947 0
M  V30 4040 H 381.017 -2.3943 -5.49939 0
M  V30 4041 H 382.696 -2.92224 -5.77247 0
M  V30 4042 N 382.828 1.3818 -0.7579 0
M  V30 4043 C 383.738 2.3421 -0.135247 0
M  V30 4044 C 384.754 1.59487 0.695683 0
M  V30 4045 O 385.93 1.91657 0.618832 0
M  V30 4046 C 382.995 3.3862 0.744139 0
M  V30 4047 C 382.056 4.2918 -0.101658 0
M  V30 4048 C 381.289 5.28603 0.735851 0
M  V30 4049 O 381.512 5.35166 1.97366 0
M  V30 4050 O 380.446 6.01707 0.152372 0
M  V30 4051 H 384.272 2.8916 -0.928436 0
M  V30 4052 H 381.857 1.40101 -0.518855 0
M  V30 4053 H 383.739 4.02539 1.2466 0
M  V30 4054 H 382.414 2.86019 1.51575 0
M  V30 4055 H 381.321 3.68407 -0.650167 0
M  V30 4056 H 382.654 4.85048 -0.836024 0
M  V30 4057 N 384.306 0.507319 1.49211 0
M  V30 4058 C 385.254 -0.281364 2.30892 0
M  V30 4059 C 386.248 -0.95687 1.39787 0
M  V30 4060 O 387.454 -0.883838 1.56807 0
M  V30 4061 H 383.829 -0.109597 0.743971 0
M  V30 4062 H 385.8 0.42744 2.95323 0
M  V30 4063 C 384.549 -1.32918 3.21291 0
M  V30 4064 H 383.872 -0.818799 3.91326 0
M  V30 4065 H 385.312 -1.85288 3.81372 0
M  V30 4066 C 383.771 -2.35074 2.41333 0
M  V30 4067 O 384.301 -3.4108 2.12197 0
M  V30 4068 N 382.507 -2.07705 2.03241 0
M  V30 4069 H 382.054 -1.2152 2.27136 0
M  V30 4070 H 382.012 -2.76283 1.50051 0
M  V30 4071 N 385.784 -1.5574 0.241426 0
M  V30 4072 C 387.195 -1.84842 -0.262755 0
M  V30 4073 C 387.546 -1.16317 -1.58003 0
M  V30 4074 O 386.671 -0.439653 -2.11887 0
M  V30 4075 C 387.266 -3.35332 -0.483523 0
M  V30 4076 C 385.825 -3.6468 -0.931977 0
M  V30 4077 C 384.972 -2.77299 -0.0061151 0
M  V30 4078 H 387.923 -1.51761 0.464129 0
M  V30 4079 H 387.944 -3.56615 -1.32688 0
M  V30 4080 H 387.456 -3.85178 0.47537 0
M  V30 4081 H 385.557 -3.20307 -1.90353 0
M  V30 4082 H 385.67 -4.72498 -0.792628 0
M  V30 4083 H 384.034 -2.49408 -0.516503 0
M  V30 4084 H 384.817 -3.2995 0.948052 0
M  V30 4085 N 387.262 0.0317525 -1.57568 0
M  V30 4086 C 388.21 1.05165 -2.07468 0
M  V30 4087 C 389.204 1.3761 -0.98792 0
M  V30 4088 O 390.41 1.36546 -1.17282 0
M  V30 4089 H 386.785 0.35666 -0.66204 0
M  V30 4090 H 388.756 0.604958 -2.92203 0
M  V30 4091 C 387.505 2.34488 -2.56731 0
M  V30 4092 H 386.828 2.10383 -3.39969 0
M  V30 4093 H 388.268 3.04203 -2.95358 0
M  V30 4094 C 386.727 3.03266 -1.46736 0
M  V30 4095 O 387.257 3.92988 -0.832069 0
M  V30 4096 N 385.463 2.6455 -1.20256 0
M  V30 4097 H 385.01 1.91674 -1.72102 0
M  V30 4098 H 384.968 3.10886 -0.468737 0
M  V30 4099 N 388.74 1.54641 0.303973 0
M  V30 4100 C 389.65 1.88439 1.39743 0
M  V30 4101 C 390.666 0.778239 1.55626 0
M  V30 4102 O 391.842 1.07442 1.70347 0
M  V30 4103 C 388.907 2.12212 2.74166 0
M  V30 4104 C 387.968 3.35936 2.67293 0
M  V30 4105 C 387.201 3.58566 3.95305 0
M  V30 4106 O 387.424 2.84263 4.9452 0
M  V30 4107 O 386.358 4.52078 3.97378 0
M  V30 4108 H 390.184 2.81458 1.14083 0
M  V30 4109 H 387.769 1.40793 0.499768 0
M  V30 4110 H 389.651 2.29067 3.53704 0
M  V30 4111 H 388.326 1.22379 2.99675 0
M  V30 4112 H 387.233 3.24448 1.86237 0
M  V30 4113 H 388.566 4.2589 2.46736 0
M  V30 4114 N 390.218 -0.567019 1.47046 0
M  V30 4115 C 391.448 -1.34831 1.56538 0
M  V30 4116 C 391.856 -1.8802 0.21101 0
M  V30 4117 O 391.199 -1.65152 -0.804387 0
M  V30 4118 C 391.261 -2.56139 2.52256 0
M  V30 4119 C 390.925 -2.24307 3.98165 0
M  V30 4120 C 391.922 -1.82192 4.86931 0
M  V30 4121 C 389.607 -2.35968 4.43423 0
M  V30 4122 C 391.601 -1.52153 6.18973 0
M  V30 4123 C 389.288 -2.05542 5.75496 0
M  V30 4124 C 390.286 -1.63701 6.63092 0
M  V30 4125 O 389.974 -1.33657 7.92711 0
M  V30 4126 H 389.706 -0.417683 0.531523 0
M  V30 4127 H 392.26 -0.694726 1.93294 0
M  V30 4128 H 390.49 -3.24356 2.10548 0
M  V30 4129 H 392.179 -3.18214 2.51982 0
M  V30 4130 H 392.945 -1.72684 4.53217 0
M  V30 4131 H 388.824 -2.67495 3.75456 0
M  V30 4132 H 392.368 -1.19421 6.87302 0
M  V30 4133 H 388.265 -2.14679 6.08755 0
M  V30 4134 H 389.033 -1.4737 8.05124 0
M  V30 4135 N 391.696 -1.35014 -0.812953 0
M  V30 4136 C 392.644 -1.27435 -1.94585 0
M  V30 4137 C 393.638 -0.170494 -1.6854 0
M  V30 4138 O 394.844 -0.336085 -1.76835 0
M  V30 4139 H 391.219 -0.396144 -0.639198 0
M  V30 4140 H 393.19 -2.23158 -1.98098 0
M  V30 4141 C 391.939 -1.05677 -3.31252 0
M  V30 4142 H 391.262 -1.89853 -3.51846 0
M  V30 4143 H 392.702 -1.04413 -4.10943 0
M  V30 4144 C 391.161 0.239615 -3.36047 0
M  V30 4145 O 391.691 1.23759 -3.8216 0
M  V30 4146 N 389.897 0.276186 -2.89285 0
M  V30 4147 H 389.444 -0.53653 -2.51951 0
M  V30 4148 H 389.402 1.14332 -2.92875 0
M  V30 4149 N 393.175 1.03435 -1.18907 0
M  V30 4150 C 394.4 1.80919 -1.01406 0
M  V30 4151 C 394.825 1.83055 0.432721 0
M  V30 4152 O 394.183 1.25252 1.31079 0
M  V30 4153 C 394.231 3.24091 -1.58105 0
M  V30 4154 O 393.335 4.04434 -0.806669 0
M  V30 4155 H 392.676 0.558709 -0.358803 0
M  V30 4156 H 395.206 1.30223 -1.57807 0
M  V30 4157 H 395.216 3.74853 -1.61087 0
M  V30 4158 H 393.891 3.21851 -2.6341 0
M  V30 4159 H 392.468 3.63091 -0.849666 0
M  V30 4160 N 394.653 0.992116 1.22453 0
M  V30 4161 C 395.902 0.662992 1.90492 0
M  V30 4162 C 396.215 -0.808407 1.78113 0
M  V30 4163 O 397.421 -1.24908 2.41061 0
M  V30 4164 C 395.877 1.1353 3.41524 0
M  V30 4165 C 395.485 2.63187 3.62542 0
M  V30 4166 C 397.229 0.880465 4.15269 0
M  V30 4167 C 395.136 3.04024 5.0727 0
M  V30 4168 H 394.066 0.244278 0.713333 0
M  V30 4169 H 396.717 1.20157 1.38688 0
M  V30 4170 H 395.099 0.52485 3.92506 0
M  V30 4171 H 396.273 3.2957 3.22056 0
M  V30 4172 H 394.588 2.86543 3.02129 0
M  V30 4173 H 397.185 1.16128 5.21937 0
M  V30 4174 H 397.528 -0.183408 4.15896 0
M  V30 4175 H 398.061 1.45307 3.70312 0
M  V30 4176 H 394.8 4.09584 5.11782 0
M  V30 4177 H 394.32 2.42343 5.48662 0
M  V30 4178 H 395.999 2.95282 5.75689 0
M  V30 4179 N 396.131 -1.37776 0.765217 0
M  V30 4180 C 397.377 -2.00145 0.327072 0
M  V30 4181 C 397.71 -1.60607 -1.09175 0
M  V30 4182 O 396.985 -0.849127 -1.74986 0
M  V30 4183 C 397.268 -3.57109 0.46319 0
M  V30 4184 C 397.121 -4.06576 1.92395 0
M  V30 4185 C 398.44 -4.39888 -0.136473 0
M  V30 4186 H 395.559 -0.727113 0.120316 0
M  V30 4187 H 398.201 -1.63549 0.967039 0
M  V30 4188 H 396.351 -3.88414 -0.0816358 0
M  V30 4189 H 398.023 -3.85864 2.52798 0
M  V30 4190 H 396.266 -3.59011 2.43503 0
M  V30 4191 H 396.937 -5.15639 1.97028 0
M  V30 4192 H 399.413 -4.14803 0.328317 0
M  V30 4193 H 398.289 -5.48899 -0.0110582 0
M  V30 4194 H 398.55 -4.24758 -1.22608 0
M  V30 4195 N 397.609 -0.515225 -1.4894 0
M  V30 4196 C 398.541 0.292481 -2.27326 0
M  V30 4197 C 399.554 0.917838 -1.3446 0
M  V30 4198 O 400.743 0.798772 -1.5963 0
M  V30 4199 C 397.843 1.42803 -3.07344 0
M  V30 4200 C 397.016 0.907347 -4.27885 0
M  V30 4201 C 396.075 1.92222 -4.89834 0
M  V30 4202 O 395.101 1.48506 -5.49486 0
M  V30 4203 N 396.303 3.25355 -4.80754 0
M  V30 4204 H 399.068 -0.379721 -2.97285 0
M  V30 4205 H 396.629 -0.348638 -1.58102 0
M  V30 4206 H 398.621 2.10481 -3.45658 0
M  V30 4207 H 397.191 2.00414 -2.39902 0
M  V30 4208 H 396.411 0.0550218 -3.94162 0
M  V30 4209 H 397.699 0.538108 -5.05946 0
M  V30 4210 H 397.097 3.6355 -4.33414 0
M  V30 4211 H 395.654 3.88707 -5.23211 0
M  V30 4212 N 399.087 1.5561 -0.249682 0
M  V30 4213 C 400.05 2.20217 0.635394 0
M  V30 4214 C 401.05 1.17227 1.10066 0
M  V30 4215 O 402.24 1.42292 1.00492 0
M  V30 4216 C 399.372 2.84794 1.87363 0
M  V30 4217 H 400.565 2.99814 0.0716752 0
M  V30 4218 H 398.118 1.563 -0.000153234 0
M  V30 4219 H 398.853 2.09142 2.47851 0
M  V30 4220 H 398.638 3.60241 1.5482 0
M  V30 4221 H 400.128 3.3423 2.5036 0
M  V30 4222 N 400.565 -0.0233959 1.57583 0
M  V30 4223 C 401.475 -1.03907 2.10334 0
M  V30 4224 C 402.491 -1.39257 1.04323 0
M  V30 4225 O 403.667 -1.48462 1.36091 0
M  V30 4226 C 400.732 -2.31938 2.57693 0
M  V30 4227 C 399.793 -2.03117 3.78209 0
M  V30 4228 C 399.026 -3.25043 4.233 0
M  V30 4229 O 399.249 -4.35916 3.67876 0
M  V30 4230 O 398.183 -3.10411 5.15683 0
M  V30 4231 H 402.009 -0.620748 2.97288 0
M  V30 4232 H 399.594 -0.240743 1.47448 0
M  V30 4233 H 401.476 -3.07196 2.88458 0
M  V30 4234 H 400.151 -2.73055 1.73847 0
M  V30 4235 H 399.058 -1.25408 3.52454 0
M  V30 4236 H 400.391 -1.66852 4.63056 0
M  V30 4237 N 402.043 -1.548 -0.295768 0
M  V30 4238 C 403.289 -1.75517 -1.02789 0
M  V30 4239 C 403.644 -0.537266 -1.84746 0
M  V30 4240 O 402.937 0.470299 -1.85738 0
M  V30 4241 C 403.131 -2.98797 -1.961 0
M  V30 4242 C 402.96 -4.3246 -1.23321 0
M  V30 4243 C 401.73 -4.96131 -0.95822 0
M  V30 4244 C 403.928 -5.10365 -0.635024 0
M  V30 4245 N 401.91 -6.1357 -0.201257 0
M  V30 4246 C 403.281 -6.19999 -0.0110937 0
M  V30 4247 C 405.336 -4.94957 -0.540594 0
M  V30 4248 C 404.039 -7.15904 0.698136 0
M  V30 4249 C 406.065 -5.91197 0.154992 0
M  V30 4250 C 405.427 -7.00203 0.767752 0
M  V30 4251 H 401.526 -0.694786 -0.358882 0
M  V30 4252 H 404.11 -1.92281 -0.305943 0
M  V30 4253 H 402.281 -2.83448 -2.6554 0
M  V30 4254 H 404.013 -3.08017 -2.62502 0
M  V30 4255 H 400.768 -4.56595 -1.25771 0
M  V30 4256 H 401.192 -6.76802 0.16389 0
M  V30 4257 H 405.834 -4.10803 -1.00003 0
M  V30 4258 H 403.552 -7.99595 1.16933 0
M  V30 4259 H 407.138 -5.81353 0.228069 0
M  V30 4260 H 406.018 -7.73393 1.29743 0
M  V30 4261 N 403.521 0.559213 -1.47345 0
M  V30 4262 C 404.798 1.31997 -1.44348 0
M  V30 4263 C 405.178 2.1064 -0.139358 0
M  V30 4264 O 404.526 2.1091 0.879153 0
M  V30 4265 C 404.736 2.22618 -2.68779 0
M  V30 4266 C 406.084 2.83701 -3.1591 0
M  V30 4267 O 407.108 2.32921 -2.69493 0
M  V30 4268 O 405.967 3.75993 -3.966 0
M  V30 4269 H 403.061 0.594251 -0.575147 0
M  V30 4270 H 405.607 0.578282 -1.59543 0
M  V30 4271 H 404.379 1.64093 -3.55231 0
M  V30 4272 H 404.002 3.04085 -2.5616 0
M  V30 4273 N 404.999 1.35443 0.805782 0
M  V30 4274 C 406.248 1.28097 1.55801 0
M  V30 4275 C 406.561 -0.142428 1.95081 0
M  V30 4276 O 407.767 -0.33817 2.69386 0
M  V30 4277 C 406.223 2.24653 2.81174 0
M  V30 4278 C 405.831 3.72342 2.49129 0
M  V30 4279 C 407.575 2.2625 3.59181 0
M  V30 4280 C 405.482 4.60719 3.70799 0
M  V30 4281 H 404.412 0.475937 0.584808 0
M  V30 4282 H 407.063 1.60712 0.885661 0
M  V30 4283 H 405.445 1.85011 3.50124 0
M  V30 4284 H 406.619 4.20624 1.88181 0
M  V30 4285 H 404.934 3.73361 1.84366 0
M  V30 4286 H 407.531 2.89495 4.49552 0
M  V30 4287 H 407.874 1.26647 3.96568 0
M  V30 4288 H 408.407 2.64426 2.97193 0
M  V30 4289 H 405.146 5.61324 3.3852 0
M  V30 4290 H 404.666 4.17163 4.3097 0
M  V30 4291 H 406.345 4.76182 4.38018 0
M  V30 4292 N 406.477 -1.02803 1.19454 0
M  V30 4293 C 407.726 -1.7562 0.991996 0
M  V30 4294 C 408.039 -1.89672 -0.477901 0
M  V30 4295 O 409.245 -2.59468 -0.799287 0
M  V30 4296 C 407.701 -3.15812 1.72601 0
M  V30 4297 C 407.309 -3.0981 3.23607 0
M  V30 4298 C 409.053 -3.92918 1.60674 0
M  V30 4299 C 406.96 -4.44939 3.89594 0
M  V30 4300 H 405.89 -0.658352 0.367543 0
M  V30 4301 H 408.541 -1.15044 1.42959 0
M  V30 4302 H 406.923 -3.7686 1.21624 0
M  V30 4303 H 408.097 -2.58138 3.81709 0
M  V30 4304 H 406.412 -2.46201 3.35819 0
M  V30 4305 H 409.009 -4.9287 2.07323 0
M  V30 4306 H 409.352 -4.12502 0.561025 0
M  V30 4307 H 409.885 -3.38472 2.09001 0
M  V30 4308 H 406.624 -4.30559 4.94267 0
M  V30 4309 H 406.144 -4.96664 3.36281 0
M  V30 4310 H 407.823 -5.1382 3.93189 0
M  V30 4311 N 407.956 -0.998596 -1.21925 0
M  V30 4312 C 409.203 -0.677663 -1.90824 0
M  V30 4313 C 409.531 0.790905 -1.77693 0
M  V30 4314 O 408.786 1.58817 -1.14349 0
M  V30 4315 C 409.085 -1.03648 -3.42041 0
M  V30 4316 C 408.751 -2.49825 -3.75364 0
M  V30 4317 C 407.413 -2.8977 -3.8417 0
M  V30 4318 C 409.765 -3.44545 -3.91073 0
M  V30 4319 C 407.093 -4.23412 -4.06127 0
M  V30 4320 C 409.445 -4.77853 -4.14535 0
M  V30 4321 C 408.109 -5.17531 -4.21566 0
M  V30 4322 H 407.379 -0.247975 -0.698276 0
M  V30 4323 H 410.026 -1.25584 -1.44571 0
M  V30 4324 H 408.331 -0.376457 -3.89987 0
M  V30 4325 H 410.028 -0.766113 -3.93614 0
M  V30 4326 H 406.618 -2.17866 -3.69097 0
M  V30 4327 H 410.802 -3.14853 -3.83642 0
M  V30 4328 H 406.058 -4.53734 -4.09799 0
M  V30 4329 H 410.232 -5.51189 -4.25633 0
M  V30 4330 H 407.859 -6.21102 -4.38333 0
M  V30 4331 N 409.434 1.37368 -0.772513 0
M  V30 4332 C 410.381 2.30262 -0.157488 0
M  V30 4333 C 411.351 1.51137 0.688965 0
M  V30 4334 O 412.536 1.79704 0.641168 0
M  V30 4335 C 409.676 3.37611 0.715045 0
M  V30 4336 C 408.789 4.31746 -0.148098 0
M  V30 4337 C 407.924 5.26171 0.729213 0
M  V30 4338 C 406.963 6.11948 -0.136418 0
M  V30 4339 N 406.1 6.98613 0.698914 0
M  V30 4340 H 410.94 2.82277 -0.955179 0
M  V30 4341 H 408.477 1.38957 -0.482631 0
M  V30 4342 H 410.435 3.98479 1.23575 0
M  V30 4343 H 409.065 2.86959 1.47833 0
M  V30 4344 H 408.117 3.72178 -0.786613 0
M  V30 4345 H 409.429 4.92084 -0.81579 0
M  V30 4346 H 408.583 5.92247 1.31637 0
M  V30 4347 H 407.322 4.66246 1.43059 0
M  V30 4348 H 406.327 5.4485 -0.736102 0
M  V30 4349 H 407.552 6.73945 -0.835134 0
M  V30 4350 H 405.498 6.41215 1.38489 0
M  V30 4351 H 405.415 7.55948 0.0885358 0
M  V30 4352 H 406.683 7.69077 1.27044 0
M  V30 4353 N 410.912 0.523116 1.48665 0
M  V30 4354 C 411.859 -0.243398 2.29513 0
M  V30 4355 C 412.829 -0.940139 1.36933 0
M  V30 4356 O 414.014 -0.942503 1.65896 0
M  V30 4357 C 411.154 -1.28855 3.20141 0
M  V30 4358 C 410.267 -0.60135 4.27794 0
M  V30 4359 C 409.402 -1.62884 5.05611 0
M  V30 4360 C 408.441 -0.924726 6.05075 0
M  V30 4361 N 407.578 -1.89744 6.75975 0
M  V30 4362 H 412.418 0.452234 2.94549 0
M  V30 4363 H 409.955 0.234858 1.45213 0
M  V30 4364 H 411.913 -1.90674 3.71079 0
M  V30 4365 H 410.543 -1.95266 2.57043 0
M  V30 4366 H 409.595 0.130623 3.80176 0
M  V30 4367 H 410.907 -0.0481585 4.98777 0
M  V30 4368 H 410.061 -2.32149 5.60528 0
M  V30 4369 H 408.8 -2.21592 4.34452 0
M  V30 4370 H 407.805 -0.217966 5.49368 0
M  V30 4371 H 409.03 -0.343851 6.78229 0
M  V30 4372 H 406.976 -2.47373 6.07571 0
M  V30 4373 H 406.893 -1.3955 7.43009 0
M  V30 4374 H 408.161 -2.58229 7.35485 0
M  V30 4375 N 412.39 -1.55475 0.257931 0
M  V30 4376 C 413.32 -2.24815 -0.630912 0
M  V30 4377 C 414.301 -1.23224 -1.17259 0
M  V30 4378 O 415.486 -1.51904 -1.20991 0
M  V30 4379 C 412.616 -2.95609 -1.82298 0
M  V30 4380 C 411.57 -4.03982 -1.41359 0
M  V30 4381 C 410.896 -4.6226 -2.68738 0
M  V30 4382 C 412.196 -5.19109 -0.57648 0
M  V30 4383 H 413.89 -2.99354 -0.0526878 0
M  V30 4384 H 411.436 -1.4398 -0.023901 0
M  V30 4385 H 413.389 -3.42822 -2.45054 0
M  V30 4386 H 412.113 -2.18577 -2.42676 0
M  V30 4387 H 410.772 -3.57555 -0.809324 0
M  V30 4388 H 410.42 -3.81915 -3.27338 0
M  V30 4389 H 410.12 -5.35424 -2.42065 0
M  V30 4390 H 411.644 -5.12212 -3.32372 0
M  V30 4391 H 413.058 -5.62479 -1.10861 0
M  V30 4392 H 411.455 -5.98729 -0.405351 0
M  V30 4393 H 412.525 -4.83174 0.408776 0
M  V30 4394 N 413.868 0.0150385 -1.57593 0
M  V30 4395 C 414.816 1.02958 -2.08572 0
M  V30 4396 C 415.81 1.36554 -1.00246 0
M  V30 4397 O 417.016 1.35295 -1.18724 0
M  V30 4398 H 413.391 0.349619 -0.665786 0
M  V30 4399 H 415.362 0.573932 -2.92829 0
M  V30 4400 C 414.111 2.31752 -2.59203 0
M  V30 4401 H 413.434 2.06765 -3.42182 0
M  V30 4402 H 414.874 3.01053 -2.98568 0
M  V30 4403 C 413.333 3.01692 -1.49945 0
M  V30 4404 O 413.863 3.92083 -0.873704 0
M  V30 4405 N 412.069 2.6326 -1.23056 0
M  V30 4406 H 411.616 1.89838 -1.74125 0
M  V30 4407 H 411.574 3.10372 -0.501685 0
M  V30 4408 N 415.346 1.54954 0.287554 0
M  V30 4409 C 416.276 1.89839 1.35954 0
M  V30 4410 C 417.257 0.758675 1.52244 0
M  V30 4411 O 418.442 1.01557 1.65529 0
M  V30 4412 C 415.572 2.15753 2.72154 0
M  V30 4413 C 414.526 3.3159 2.70614 0
M  V30 4414 C 413.852 3.42952 4.10229 0
M  V30 4415 C 415.152 4.68359 2.31165 0
M  V30 4416 H 416.846 2.79625 1.07007 0
M  V30 4417 H 414.392 1.3454 0.513316 0
M  V30 4418 H 416.345 2.38743 3.47246 0
M  V30 4419 H 415.069 1.22752 3.02654 0
M  V30 4420 H 413.728 3.08545 1.97979 0
M  V30 4421 H 413.376 2.47443 4.37928 0
M  V30 4422 H 413.076 4.20826 4.10097 0
M  V30 4423 H 414.6 3.68218 4.87081 0
M  V30 4424 H 416.014 4.9099 2.95976 0
M  V30 4425 H 414.411 5.49044 2.42221 0
M  V30 4426 H 415.481 4.68165 1.26291 0
M  V30 4427 N 416.824 -0.551391 1.4764 0
M  V30 4428 C 418.073 -1.30467 1.53822 0
M  V30 4429 C 418.386 -1.94495 0.207661 0
M  V30 4430 O 419.592 -2.71099 0.147533 0
M  V30 4431 C 418.048 -2.36616 2.71184 0
M  V30 4432 C 417.656 -1.78754 4.10793 0
M  V30 4433 C 419.4 -3.13088 2.86663 0
M  V30 4434 C 417.307 -2.82717 5.19447 0
M  V30 4435 H 416.237 -0.490584 0.572576 0
M  V30 4436 H 418.888 -0.58494 1.73927 0
M  V30 4437 H 417.27 -3.11529 2.4447 0
M  V30 4438 H 418.444 -1.10173 4.47435 0
M  V30 4439 H 416.759 -1.14846 4.00249 0
M  V30 4440 H 419.356 -3.90736 3.65007 0
M  V30 4441 H 419.699 -3.67635 1.95321 0
M  V30 4442 H 420.232 -2.45288 3.13175 0
M  V30 4443 H 416.971 -2.33018 6.12685 0
M  V30 4444 H 416.491 -3.4969 4.87316 0
M  V30 4445 H 418.17 -3.46102 5.46646 0
M  V30 4446 N 418.302 -1.35869 -0.798587 0
M  V30 4447 C 419.249 -1.29446 -1.91082 0
M  V30 4448 C 420.219 -0.16487 -1.6528 0
M  V30 4449 O 421.404 -0.349888 -1.87564 0
M  V30 4450 C 418.544 -1.0804 -3.27752 0
M  V30 4451 C 417.657 -2.29993 -3.65687 0
M  V30 4452 C 416.792 -2.01673 -4.91428 0
M  V30 4453 C 415.831 -3.19636 -5.22015 0
M  V30 4454 N 414.968 -2.91039 -6.38937 0
M  V30 4455 H 419.808 -2.24553 -1.95907 0
M  V30 4456 H 417.345 -1.11615 -0.958148 0
M  V30 4457 H 419.303 -0.936586 -4.06551 0
M  V30 4458 H 417.933 -0.16592 -3.22373 0
M  V30 4459 H 416.985 -2.55211 -2.82085 0
M  V30 4460 H 418.297 -3.18052 -3.84245 0
M  V30 4461 H 417.451 -1.84168 -5.78072 0
M  V30 4462 H 416.19 -1.10911 -4.74921 0
M  V30 4463 H 415.195 -3.37709 -4.33858 0
M  V30 4464 H 416.42 -4.11211 -5.40447 0
M  V30 4465 H 414.366 -2.0288 -6.2384 0
M  V30 4466 H 414.283 -3.72635 -6.57784 0
M  V30 4467 H 415.551 -2.77093 -7.28587 0
M  V30 4468 N 419.78 1.02168 -1.19998 0
M  V30 4469 C 421.057 1.72816 -0.916191 0
M  V30 4470 C 421.437 2.03081 0.576325 0
M  V30 4471 O 420.785 1.69122 1.53656 0
M  V30 4472 C 420.995 2.9997 -1.78378 0
M  V30 4473 C 422.343 3.73336 -2.02251 0
M  V30 4474 O 423.367 3.09914 -1.75589 0
M  V30 4475 O 422.226 4.87371 -2.47249 0
M  V30 4476 H 419.32 0.752924 -0.342103 0
M  V30 4477 H 421.866 1.08062 -1.30846 0
M  V30 4478 H 420.638 2.73888 -2.79466 0
M  V30 4479 H 420.261 3.72464 -1.39126 0
M  V30 4480 N 421.258 1.00505 1.21394 0
M  V30 4481 C 422.498 0.696149 1.9218 0
M  V30 4482 C 422.862 -0.759099 1.76357 0
M  V30 4483 O 424.063 -1.17998 2.41516 0
M  V30 4484 C 422.334 1.10571 3.39866 0
M  V30 4485 S 423.893 0.91702 4.29111 0
M  V30 4486 H 420.711 0.254147 0.664026 0
M  V30 4487 H 423.313 1.28988 1.46909 0
M  V30 4488 H 422.017 2.16096 3.489 0
M  V30 4489 H 421.548 0.504268 3.90155 0
M  V30 4490 H 423.563 -0.185855 4.95852 0
M  V30 4491 N 422.737 -1.36956 0.779787 0
M  V30 4492 C 423.985 -1.99097 0.347079 0
M  V30 4493 C 424.306 -1.62206 -1.08232 0
M  V30 4494 O 423.576 -0.891373 -1.74446 0
M  V30 4495 H 422.156 -0.736409 0.125342 0
M  V30 4496 H 424.818 -1.67308 0.999696 0
M  V30 4497 H 423.914 -3.09107 0.431162 0
M  V30 4498 N 424.215 -0.530993 -1.48385 0
M  V30 4499 C 425.178 0.220497 -2.28137 0
M  V30 4500 C 426.178 0.866851 -1.35434 0
M  V30 4501 O 427.368 0.726746 -1.58316 0
M  V30 4502 C 424.5 1.31921 -3.1434 0
M  V30 4503 H 425.693 -0.479714 -2.96038 0
M  V30 4504 H 423.246 -0.286968 -1.53643 0
M  V30 4505 H 423.981 2.05264 -2.51072 0
M  V30 4506 H 423.766 0.86085 -3.82533 0
M  V30 4507 H 425.256 1.84776 -3.74497 0
M  V30 4508 N 425.693 1.55336 -0.266172 0
M  V30 4509 C 426.641 2.23587 0.641228 0
M  V30 4510 C 427.635 1.22986 1.16494 0
M  V30 4511 O 428.841 1.40943 1.1196 0
M  V30 4512 H 425.216 0.717452 0.225315 0
M  V30 4513 H 427.187 2.9837 0.0426561 0
M  V30 4514 C 425.936 2.96369 1.81826 0
M  V30 4515 H 425.259 3.73563 1.42445 0
M  V30 4516 H 426.699 3.47459 2.42998 0
M  V30 4517 C 425.158 2.0133 2.70125 0
M  V30 4518 O 425.688 1.55875 3.70224 0
M  V30 4519 N 423.894 1.6802 2.37102 0
M  V30 4520 H 423.441 2.05181 1.55751 0
M  V30 4521 H 423.399 1.047 2.96454 0
M  V30 4522 N 427.171 -0.0066808 1.57599 0
M  V30 4523 C 428.42 -0.692078 1.89455 0
M  V30 4524 C 428.733 -1.75306 0.867586 0
M  V30 4525 O 429.939 -2.49262 1.07614 0
M  V30 4526 C 428.395 -1.2821 3.36289 0
M  V30 4527 C 428.003 -0.256291 4.47266 0
M  V30 4528 C 429.747 -1.94608 3.77264 0
M  V30 4529 C 427.654 -0.855927 5.85173 0
M  V30 4530 H 426.584 -0.262252 0.706923 0
M  V30 4531 H 429.235 0.052769 1.83424 0
M  V30 4532 H 427.617 -2.0774 3.37135 0
M  V30 4533 H 428.791 0.513923 4.57925 0
M  V30 4534 H 427.106 0.306862 4.15268 0
M  V30 4535 H 429.703 -2.40364 4.77629 0
M  V30 4536 H 430.046 -2.77382 3.10427 0
M  V30 4537 H 430.579 -1.21822 3.78688 0
M  V30 4538 H 427.318 -0.0671161 6.55466 0
M  V30 4539 H 426.838 -1.59546 5.78191 0
M  V30 4540 H 428.517 -1.35658 6.32618 0
M  V30 4541 N 428.649 -1.55105 -0.279332 0
M  V30 4542 C 429.895 -1.75672 -1.01327 0
M  V30 4543 C 430.228 -0.552739 -1.86168 0
M  V30 4544 O 429.503 0.449827 -1.89227 0
M  V30 4545 C 429.786 -3.05825 -1.90114 0
M  V30 4546 C 429.639 -4.36565 -1.08309 0
M  V30 4547 C 430.958 -3.31975 -2.8893 0
M  V30 4548 H 428.077 -0.639149 -0.366957 0
M  V30 4549 H 430.719 -1.87833 -0.286154 0
M  V30 4550 H 428.869 -2.95588 -2.52111 0
M  V30 4551 H 430.541 -4.58751 -0.484314 0
M  V30 4552 H 428.784 -4.32076 -0.386362 0
M  V30 4553 H 429.455 -5.23946 -1.73737 0
M  V30 4554 H 431.931 -3.41963 -2.37067 0
M  V30 4555 H 430.807 -4.2432 -3.48201 0
M  V30 4556 H 431.068 -2.51309 -3.63725 0
M  V30 4557 N 430.127 0.543554 -1.4793 0
M  V30 4558 C 431.057 1.65888 -1.64327 0
M  V30 4559 C 432.038 1.62818 -0.492383 0
M  V30 4560 O 433.223 1.80226 -0.723338 0
M  V30 4561 C 430.353 3.04506 -1.67013 0
M  V30 4562 C 429.307 3.2243 -2.81466 0
M  V30 4563 C 428.633 4.61972 -2.69233 0
M  V30 4564 C 429.933 3.06496 -4.22915 0
M  V30 4565 H 431.627 1.52421 -2.57698 0
M  V30 4566 H 429.173 0.731849 -1.24016 0
M  V30 4567 H 431.126 3.82391 -1.77074 0
M  V30 4568 H 429.85 3.18964 -0.70212 0
M  V30 4569 H 428.509 2.46957 -2.70938 0
M  V30 4570 H 428.157 4.73247 -1.7043 0
M  V30 4571 H 427.857 4.74911 -3.46025 0
M  V30 4572 H 429.381 5.41974 -2.81242 0
M  V30 4573 H 430.795 3.74186 -4.34348 0
M  V30 4574 H 429.192 3.30938 -5.006 0
M  V30 4575 H 430.262 2.03077 -4.40327 0
M  V30 4576 N 431.605 1.3629 0.791371 0
M  V30 4577 C 432.83 1.33726 1.58531 0
M  V30 4578 C 433.255 -0.0794933 1.87932 0
M  V30 4579 O 432.613 -1.05087 1.47738 0
M  V30 4580 C 432.661 2.16425 2.88431 0
M  V30 4581 O 431.765 1.5554 3.81944 0
M  V30 4582 H 431.106 0.457793 0.480959 0
M  V30 4583 H 433.636 1.79547 0.981031 0
M  V30 4584 H 433.646 2.28933 3.37718 0
M  V30 4585 H 432.321 3.19415 2.66359 0
M  V30 4586 H 430.898 1.51961 3.40532 0
M  V30 4587 N 433.083 -1.0153 1.20538 0
M  V30 4588 C 434.03 -2.10098 0.955383 0
M  V30 4589 C 435 -1.65702 -0.114878 0
M  V30 4590 O 436.185 -1.90776 0.0301118 0
M  V30 4591 C 433.325 -3.41236 0.514969 0
M  V30 4592 C 432.438 -3.99102 1.65353 0
M  V30 4593 C 431.573 -5.18306 1.16329 0
M  V30 4594 C 430.612 -5.68258 2.27485 0
M  V30 4595 N 429.749 -6.78722 1.7967 0
M  V30 4596 H 434.589 -2.30818 1.88486 0
M  V30 4597 H 432.126 -1.13189 0.939499 0
M  V30 4598 H 434.084 -4.16504 0.240935 0
M  V30 4599 H 432.714 -3.20585 -0.377512 0
M  V30 4600 H 431.766 -3.20918 2.04245 0
M  V30 4601 H 433.078 -4.32177 2.49047 0
M  V30 4602 H 432.232 -6.00782 0.845302 0
M  V30 4603 H 430.971 -4.86799 0.296254 0
M  V30 4604 H 429.976 -4.84385 2.60099 0
M  V30 4605 H 431.201 -6.01798 3.14667 0
M  V30 4606 H 429.147 -6.49042 0.95295 0
M  V30 4607 H 429.064 -7.10996 2.56944 0
M  V30 4608 H 430.332 -7.64759 1.50875 0
M  V30 4609 N 434.561 -1.01147 -1.20859 0
M  V30 4610 C 435.491 -0.597663 -2.25722 0
M  V30 4611 C 436.472 0.384744 -1.65692 0
M  V30 4612 O 437.657 0.271303 -1.92296 0
M  V30 4613 C 434.787 0.0700149 -3.47229 0
M  V30 4614 C 433.741 -0.832843 -4.19819 0
M  V30 4615 C 433.067 -0.0312202 -5.34691 0
M  V30 4616 C 434.367 -2.1385 -4.76514 0
M  V30 4617 H 436.061 -1.47423 -2.60589 0
M  V30 4618 H 433.607 -0.710301 -1.25263 0
M  V30 4619 H 435.56 0.37103 -4.19763 0
M  V30 4620 H 434.284 0.981259 -3.11511 0
M  V30 4621 H 432.943 -1.11778 -3.49144 0
M  V30 4622 H 432.591 0.881515 -4.95215 0
M  V30 4623 H 432.291 -0.632434 -5.84187 0
M  V30 4624 H 433.815 0.26346 -6.10031 0
M  V30 4625 H 435.229 -1.9002 -5.40893 0
M  V30 4626 H 433.626 -2.69012 -5.36426 0
M  V30 4627 H 434.696 -2.80495 -3.95538 0
M  V30 4628 N 436.039 1.36541 -0.78704 0
M  V30 4629 C 437.45 1.81873 -0.421807 0
M  V30 4630 C 437.801 1.65487 1.05397 0
M  V30 4631 O 436.926 1.17448 1.81755 0
M  V30 4632 C 437.521 3.30192 -0.758841 0
M  V30 4633 C 436.08 3.73743 -0.446468 0
M  V30 4634 C 435.227 2.58844 -0.994728 0
M  V30 4635 H 438.178 1.24796 -0.98039 0
M  V30 4636 H 438.199 3.80468 -0.0490648 0
M  V30 4637 H 437.711 3.42087 -1.83299 0
M  V30 4638 H 435.812 3.6741 0.619739 0
M  V30 4639 H 435.925 4.69272 -0.965415 0
M  V30 4640 H 434.289 2.51245 -0.418087 0
M  V30 4641 H 435.072 2.73525 -2.07458 0
M  V30 4642 N 437.518 0.538854 1.48102 0
M  V30 4643 C 438.767 0.0059532 2.01699 0
M  V30 4644 C 439.08 -1.34476 1.42041 0
M  V30 4645 O 440.286 -1.96653 1.87189 0
M  V30 4646 C 438.742 -0.0397627 3.59878 0
M  V30 4647 C 438.35 1.30659 4.28523 0
M  V30 4648 C 440.094 -0.521024 4.2129 0
M  V30 4649 C 438.001 1.22098 5.78659 0
M  V30 4650 H 436.931 -0.00154456 0.753998 0
M  V30 4651 H 439.582 0.683963 1.70277 0
M  V30 4652 H 437.964 -0.783037 3.88181 0
M  V30 4653 H 439.138 2.06613 4.11883 0
M  V30 4654 H 437.453 1.7243 3.79021 0
M  V30 4655 H 440.05 -0.603184 5.31287 0
M  V30 4656 H 440.393 -1.52885 3.8721 0
M  V30 4657 H 440.926 0.166834 3.9745 0
M  V30 4658 H 437.665 2.20424 6.17328 0
M  V30 4659 H 437.185 0.50295 5.97688 0
M  V30 4660 H 438.864 0.915345 6.40492 0
M  V30 4661 N 438.996 -1.55193 0.274407 0
M  V30 4662 C 440.244 -1.99187 -0.341902 0
M  V30 4663 C 440.565 -1.16422 -1.56431 0
M  V30 4664 O 439.835 -0.253573 -1.94252 0
M  V30 4665 H 438.415 -0.735721 -0.129317 0
M  V30 4666 H 441.077 -1.91168 0.379578 0
M  V30 4667 H 440.173 -3.05629 -0.632253 0
M  V30 4668 N 440.474 -0.00167713 -1.576 0
M  V30 4669 C 441.751 0.719951 -1.81868 0
M  V30 4670 C 442.131 1.91895 -0.879747 0
M  V30 4671 O 441.479 2.28389 0.0711423 0
M  V30 4672 C 441.689 1.12409 -3.30402 0
M  V30 4673 C 443.037 1.52724 -3.96182 0
M  V30 4674 O 444.061 1.21784 -3.34734 0
M  V30 4675 O 442.92 2.10265 -5.04431 0
M  V30 4676 H 440.014 0.350707 -0.748955 0
M  V30 4677 H 442.56 -0.0272597 -1.69678 0
M  V30 4678 H 441.332 0.269532 -3.90371 0
M  V30 4679 H 440.955 1.93035 -3.47596 0
M  V30 4680 N 441.952 1.55251 0.271103 0
M  V30 4681 C 443.201 1.75151 1.00025 0
M  V30 4682 C 443.514 0.561041 1.87381 0
M  V30 4683 O 444.72 0.642506 2.63788 0
M  V30 4684 C 443.176 3.09999 1.82835 0
M  V30 4685 C 442.784 4.3662 1.00336 0
M  V30 4686 C 444.528 3.39249 2.55168 0
M  V30 4687 C 442.435 5.62506 1.82595 0
M  V30 4688 H 441.365 0.652877 0.377183 0
M  V30 4689 H 444.016 1.81708 0.255843 0
M  V30 4690 H 442.398 2.97485 2.61378 0
M  V30 4691 H 443.572 4.60055 0.261959 0
M  V30 4692 H 441.887 4.14527 0.394486 0
M  V30 4693 H 444.484 4.3051 3.1712 0
M  V30 4694 H 444.827 2.59467 3.2555 0
M  V30 4695 H 445.36 3.52869 1.83653 0
M  V30 4696 H 442.099 6.45041 1.16631 0
M  V30 4697 H 441.619 5.43211 2.54327 0
M  V30 4698 H 443.298 6.00875 2.39913 0
M  V30 4699 N 443.43 -0.535701 1.48216 0
M  V30 4700 C 444.393 -1.623 1.61838 0
M  V30 4701 C 445.393 -1.53087 0.492024 0
M  V30 4702 O 446.583 -1.5686 0.757668 0
M  V30 4703 C 443.715 -3.01907 1.58319 0
M  V30 4704 H 444.908 -1.51564 2.58783 0
M  V30 4705 H 442.461 -0.757317 1.36727 0
M  V30 4706 H 443.196 -3.18155 0.628299 0
M  V30 4707 H 442.981 -3.10003 2.40085 0
M  V30 4708 H 444.471 -3.80969 1.71033 0
M  V30 4709 N 444.908 -1.36708 -0.784132 0
M  V30 4710 C 446.136 -1.34398 -1.57305 0
M  V30 4711 C 446.551 0.0735577 -1.88657 0
M  V30 4712 O 445.908 1.03193 -1.50524 0
M  V30 4713 C 445.959 -2.17053 -2.89085 0
M  V30 4714 O 445.68 -3.53281 -2.59083 0
M  V30 4715 C 447.181 -2.22583 -3.83369 0
M  V30 4716 H 444.401 -0.460819 -0.487736 0
M  V30 4717 H 446.945 -1.79879 -0.972819 0
M  V30 4718 H 445.1 -1.75113 -3.45564 0
M  V30 4719 H 445.514 -3.9647 -3.43383 0
M  V30 4720 H 446.988 -2.84763 -4.72878 0
M  V30 4721 H 447.465 -1.23075 -4.21603 0
M  V30 4722 H 448.071 -2.64781 -3.32823 0
M  V30 4723 N 446.386 1.0089 -1.21074 0
M  V30 4724 C 447.318 2.09737 -0.924291 0
M  V30 4725 C 448.331 1.62546 0.0909809 0
M  V30 4726 O 449.52 1.77942 -0.141021 0
M  V30 4727 C 446.62 3.36922 -0.36559 0
M  V30 4728 C 445.793 4.13216 -1.43426 0
M  V30 4729 C 444.852 5.18696 -0.885496 0
M  V30 4730 O 443.878 5.47176 -1.56801 0
M  V30 4731 N 445.08 5.79718 0.301227 0
M  V30 4732 H 447.845 2.34895 -1.8613 0
M  V30 4733 H 445.406 1.17341 -1.11546 0
M  V30 4734 H 447.398 4.04697 0.0158407 0
M  V30 4735 H 445.968 3.08952 0.476149 0
M  V30 4736 H 445.188 3.40301 -1.9897 0
M  V30 4737 H 446.476 4.60967 -2.15376 0
M  V30 4738 H 445.874 5.58926 0.872849 0
M  V30 4739 H 444.431 6.48804 0.624211 0
M  V30 4740 N 447.864 1.01787 1.20321 0
M  V30 4741 C 449.111 0.707936 1.89722 0
M  V30 4742 C 449.439 -0.762535 1.78929 0
M  V30 4743 O 448.694 -1.56977 1.16861 0
M  V30 4744 C 448.993 1.09076 3.40349 0
M  V30 4745 C 448.659 2.55765 3.71342 0
M  V30 4746 C 447.321 2.95845 3.79511 0
M  V30 4747 C 449.673 3.50723 3.85542 0
M  V30 4748 C 447.001 4.2982 3.99339 0
M  V30 4749 C 449.353 4.84387 4.06881 0
M  V30 4750 C 448.017 5.24172 4.1328 0
M  V30 4751 H 447.287 0.259052 0.694243 0
M  V30 4752 H 449.934 1.27868 1.42555 0
M  V30 4753 H 448.239 0.438453 3.89339 0
M  V30 4754 H 449.936 0.828636 3.92345 0
M  V30 4755 H 446.526 2.2371 3.65584 0
M  V30 4756 H 450.71 3.20916 3.78585 0
M  V30 4757 H 445.966 4.60196 4.02529 0
M  V30 4758 H 450.14 5.57891 4.1681 0
M  V30 4759 H 447.767 6.27997 4.28396 0
M  V30 4760 N 449.342 -1.36122 0.79427 0
M  V30 4761 C 450.589 -1.99111 0.368905 0
M  V30 4762 C 450.917 -1.63032 -1.0607 0
M  V30 4763 O 450.172 -0.879303 -1.74833 0
M  V30 4764 C 450.471 -3.5409 0.48527 0
M  V30 4765 C 450.137 -4.10003 1.87638 0
M  V30 4766 C 448.799 -4.24986 2.257 0
M  V30 4767 C 451.151 -4.40423 2.78706 0
M  V30 4768 C 448.479 -4.67701 3.54221 0
M  V30 4769 C 450.831 -4.84573 4.0666 0
M  V30 4770 C 449.495 -4.97761 4.44737 0
M  V30 4771 H 448.765 -0.7286 0.134992 0
M  V30 4772 H 451.412 -1.62534 1.01267 0
M  V30 4773 H 449.717 -3.91052 -0.241984 0
M  V30 4774 H 451.414 -4.00766 0.137109 0
M  V30 4775 H 448.004 -3.98784 1.57064 0
M  V30 4776 H 452.188 -4.28412 2.50553 0
M  V30 4777 H 447.444 -4.761 3.83587 0
M  V30 4778 H 451.618 -5.07074 4.77336 0
M  V30 4779 H 449.245 -5.30618 5.44379 0
M  V30 4780 N 450.82 -0.546701 -1.47814 0
M  V30 4781 C 451.783 0.196287 -2.28358 0
M  V30 4782 C 452.783 0.852437 -1.36346 0
M  V30 4783 O 453.973 0.709913 -1.59078 0
M  V30 4784 C 451.105 1.28579 -3.15722 0
M  V30 4785 H 452.298 -0.511086 -2.95513 0
M  V30 4786 H 449.851 -0.303248 -1.5333 0
M  V30 4787 H 450.586 2.0259 -2.53235 0
M  V30 4788 H 450.371 0.820229 -3.83425 0
M  V30 4789 H 451.861 1.80793 -3.76435 0
M  V30 4790 N 452.299 1.55045 -0.282633 0
M  V30 4791 C 453.576 1.9179 0.384166 0
M  V30 4792 C 453.956 1.20778 1.73136 0
M  V30 4793 O 453.304 0.33719 2.25998 0
M  V30 4794 C 453.514 3.45149 0.517014 0
M  V30 4795 C 454.862 4.17064 0.796427 0
M  V30 4796 O 455.886 3.51084 0.601535 0
M  V30 4797 O 454.745 5.33837 1.16962 0
M  V30 4798 H 451.839 0.799483 0.211558 0
M  V30 4799 H 454.385 1.66474 -0.32934 0
M  V30 4800 H 453.157 3.88922 -0.430772 0
M  V30 4801 H 452.78 3.76443 1.2797 0
M  V30 4802 N 453.777 0.010035 1.57597 0
M  V30 4803 C 454.727 -0.986858 2.05536 0
M  V30 4804 C 455.711 -1.29711 0.952042 0
M  V30 4805 O 456.903 -1.28641 1.21575 0
M  V30 4806 C 454.032 -2.2756 2.57043 0
M  V30 4807 C 453.118 -1.99455 3.74271 0
M  V30 4808 N 453.509 -1.41546 4.85591 0
M  V30 4809 C 451.807 -2.29547 3.82393 0
M  V30 4810 C 452.508 -1.3014 5.66956 0
M  V30 4811 N 451.484 -1.79044 5.13268 0
M  V30 4812 H 455.286 -0.533778 2.89012 0
M  V30 4813 H 452.8 -0.195432 1.6122 0
M  V30 4814 H 454.797 -2.99829 2.89669 0
M  V30 4815 H 453.457 -2.73512 1.7499 0
M  V30 4816 H 454.468 -1.09294 5.06236 0
M  V30 4817 H 451.145 -2.78304 3.11213 0
M  V30 4818 H 452.535 -0.855237 6.66435 0
M  V30 4819 N 455.255 -1.55392 -0.262866 0
M  V30 4820 C 456.532 -1.67204 -1.01499 0
M  V30 4821 C 456.912 -0.545186 -2.03939 0
M  V30 4822 O 456.26 0.453467 -2.23955 0
M  V30 4823 C 456.47 -3.06847 -1.6627 0
M  V30 4824 C 457.818 -3.64928 -2.17054 0
M  V30 4825 O 458.842 -3.09545 -1.76239 0
M  V30 4826 O 457.701 -4.61984 -2.91947 0
M  V30 4827 H 454.795 -0.679467 -0.471438 0
M  V30 4828 H 457.341 -1.67729 -0.257918 0
M  V30 4829 H 456.113 -3.80309 -0.920915 0
M  V30 4830 H 455.736 -3.10266 -2.48638 0
M  V30 4831 N 456.733 0.527833 -1.48498 0
M  V30 4832 C 457.982 1.28003 -1.55878 0
M  V30 4833 C 458.295 1.9414 -0.238577 0
M  V30 4834 O 459.501 2.7083 -0.190643 0
M  V30 4835 C 457.957 2.32272 -2.74914 0
M  V30 4836 C 457.565 1.72196 -4.13585 0
M  V30 4837 C 459.309 3.08488 -2.91608 0
M  V30 4838 C 457.216 2.74417 -5.23879 0
M  V30 4839 H 456.146 0.481413 -0.580308 0
M  V30 4840 H 458.797 0.557195 -1.74836 0
M  V30 4841 H 457.179 3.07601 -2.49395 0
M  V30 4842 H 458.353 1.03041 -4.49132 0
M  V30 4843 H 456.668 1.08464 -4.02025 0
M  V30 4844 H 459.265 3.84879 -3.71177 0
M  V30 4845 H 459.608 3.64481 -2.01145 0
M  V30 4846 H 460.141 2.40274 -3.17038 0
M  V30 4847 H 456.88 2.23242 -6.16314 0
M  V30 4848 H 456.4 3.41893 -4.92818 0
M  V30 4849 H 458.079 3.37362 -5.52083 0
M  V30 4850 N 458.211 1.37122 0.776871 0
M  V30 4851 C 459.458 1.32047 1.53524 0
M  V30 4852 C 459.786 -0.0965631 1.9426 0
M  V30 4853 O 459.041 -1.06866 1.63945 0
M  V30 4854 C 459.34 2.20068 2.81611 0
M  V30 4855 C 459.006 3.68423 2.59953 0
M  V30 4856 C 457.668 4.08854 2.53755 0
M  V30 4857 C 460.02 4.62431 2.40431 0
M  V30 4858 C 457.348 5.41417 2.26018 0
M  V30 4859 C 459.7 5.95225 2.14219 0
M  V30 4860 C 458.364 6.34767 2.06462 0
M  V30 4861 H 457.634 0.483196 0.561785 0
M  V30 4862 H 460.281 1.69284 0.895268 0
M  V30 4863 H 458.586 1.75809 3.50141 0
M  V30 4864 H 460.283 2.13458 3.39465 0
M  V30 4865 H 456.873 3.36354 2.65638 0
M  V30 4866 H 461.057 4.32057 2.44213 0
M  V30 4867 H 456.313 5.71022 2.18504 0
M  V30 4868 H 460.487 6.67626 1.98112 0
M  V30 4869 H 458.114 7.37413 1.84733 0
M  V30 4870 N 459.689 -1.00246 1.21608 0
M  V30 4871 C 460.929 -1.75589 1.04631 0
M  V30 4872 C 461.293 -1.87513 -0.412648 0
M  V30 4873 O 462.494 -2.59444 -0.703003 0
M  V30 4874 C 460.765 -3.12893 1.72722 0
M  V30 4875 S 462.324 -4.04095 1.71034 0
M  V30 4876 H 459.142 -0.604133 0.374892 0
M  V30 4877 H 461.744 -1.19927 1.54395 0
M  V30 4878 H 460.448 -3.0185 2.78055 0
M  V30 4879 H 459.979 -3.73628 1.23149 0
M  V30 4880 H 461.994 -4.9045 0.753231 0
M  V30 4881 N 461.167 -1.02423 -1.1978 0
M  V30 4882 C 462.13 -0.605703 -2.21052 0
M  V30 4883 C 463.13 0.328209 -1.57415 0
M  V30 4884 O 464.32 0.115853 -1.73814 0
M  V30 4885 C 461.452 0.114366 -3.40708 0
M  V30 4886 H 462.645 -1.5017 -2.59594 0
M  V30 4887 H 460.198 -0.814888 -1.33376 0
M  V30 4888 H 460.933 1.02492 -3.07678 0
M  V30 4889 H 460.718 -0.556641 -3.88129 0
M  V30 4890 H 462.208 0.394272 -4.15735 0
M  V30 4891 N 462.645 1.35699 -0.801477 0
M  V30 4892 C 463.893 1.9852 -0.37871 0
M  V30 4893 C 464.214 1.63907 1.05638 0
M  V30 4894 O 463.484 0.919013 1.73006 0
M  V30 4895 H 462.064 0.734322 -0.137042 0
M  V30 4896 H 464.726 1.65697 -1.02619 0
M  V30 4897 H 463.822 3.08382 -0.480284 0
M  V30 4898 N 464.123 0.554532 1.47522 0
M  V30 4899 C 465.539 0.214107 1.58157 0
M  V30 4900 C 465.739 -1.28331 1.55349 0
M  V30 4901 O 464.795 -2.06329 1.45549 0
M  V30 4902 C 466.108 0.838391 2.88776 0
M  V30 4903 C 467.656 0.809374 3.02354 0
M  V30 4904 C 468.131 1.41268 4.35669 0
M  V30 4905 N 469.622 1.37574 4.42298 0
M  V30 4906 C 470.357 1.8122 5.4401 0
M  V30 4907 N 469.853 2.3271 6.52547 0
M  V30 4908 N 471.646 1.72307 5.35039 0
M  V30 4909 H 463.797 1.52744 1.4759 0
M  V30 4910 H 466.06 0.636812 0.702264 0
M  V30 4911 H 465.766 1.89065 2.96559 0
M  V30 4912 H 465.64 0.329847 3.75755 0
M  V30 4913 H 468.027 -0.234187 2.94169 0
M  V30 4914 H 468.108 1.35565 2.16924 0
M  V30 4915 H 467.752 2.45529 4.4461 0
M  V30 4916 H 467.682 0.841871 5.19827 0
M  V30 4917 H 470.173 0.999081 3.64454 0
M  V30 4918 H 470.486 2.63944 7.26329 0
M  V30 4919 H 468.831 2.36719 6.53444 0
M  V30 4920 H 472.022 1.3186 4.49144 0
M  V30 4921 H 472.195 2.06641 6.14169 0
M  V30 4922 N 465.601 -1.54893 0.290851 0
M  V30 4923 C 466.847 -2.0023 -0.321867 0
M  V30 4924 C 467.18 -1.179 -1.54316 0
M  V30 4925 O 466.455 -0.25293 -1.92848 0
M  V30 4926 C 466.738 -3.53456 -0.688515 0
M  V30 4927 C 466.591 -4.46532 0.541209 0
M  V30 4928 C 467.91 -4.13057 -1.51895 0
M  V30 4929 H 465.029 -0.727891 -0.115515 0
M  V30 4930 H 467.671 -1.85722 0.400931 0
M  V30 4931 H 465.821 -3.6595 -1.30433 0
M  V30 4932 H 467.493 -4.4596 1.17973 0
M  V30 4933 H 465.736 -4.17545 1.17636 0
M  V30 4934 H 466.407 -5.51475 0.240675 0
M  V30 4935 H 468.883 -4.03937 -0.99872 0
M  V30 4936 H 467.759 -5.20448 -1.74429 0
M  V30 4937 H 468.02 -3.64284 -2.50498 0
M  V30 4938 N 467.08 -0.0183926 -1.57589 0
M  V30 4939 C 467.99 0.982943 -2.13015 0
M  V30 4940 C 469.006 1.36443 -1.07979 0
M  V30 4941 O 470.182 1.44802 -1.3998 0
M  V30 4942 C 467.247 2.25024 -2.63752 0
M  V30 4943 C 466.308 1.93018 -3.83461 0
M  V30 4944 C 465.541 3.13706 -4.31769 0
M  V30 4945 O 465.764 4.2601 -3.79305 0
M  V30 4946 O 464.698 2.96629 -5.23732 0
M  V30 4947 H 468.524 0.541709 -2.9883 0
M  V30 4948 H 466.109 0.201565 -1.48034 0
M  V30 4949 H 467.991 2.99441 -2.96502 0
M  V30 4950 H 466.666 2.68349 -1.81026 0
M  V30 4951 H 465.573 1.16019 -3.55655 0
M  V30 4952 H 466.906 1.54516 -4.67317 0
M  V30 4953 N 468.558 1.5553 0.254621 0
M  V30 4954 C 469.835 1.6774 1.00611 0
M  V30 4955 C 470.215 0.555993 2.03647 0
M  V30 4956 O 469.563 -0.441583 2.24193 0
M  V30 4957 C 469.773 3.07725 1.6464 0
M  V30 4958 C 471.121 3.66074 2.15116 0
M  V30 4959 O 472.145 3.10476 1.74595 0
M  V30 4960 O 471.004 4.63526 2.89493 0
M  V30 4961 H 468.098 0.681958 0.467828 0
M  V30 4962 H 470.644 1.67863 0.24902 0
M  V30 4963 H 469.416 3.80792 0.900734 0
M  V30 4964 H 469.039 3.1158 2.46989 0
M  V30 4965 N 470.036 -0.519951 1.48776 0
M  V30 4966 C 470.999 -1.60574 1.6355 0
M  V30 4967 C 471.999 -1.52557 0.508234 0
M  V30 4968 O 473.189 -1.56047 0.774262 0
M  V30 4969 C 470.321 -3.00211 1.61512 0
M  V30 4970 H 471.514 -1.4881 2.60376 0
M  V30 4971 H 469.067 -0.742772 1.37523 0
M  V30 4972 H 469.802 -3.17471 0.662009 0
M  V30 4973 H 469.587 -3.07439 2.43359 0
M  V30 4974 H 471.077 -3.79134 1.75064 0
M  V30 4975 N 471.514 -1.37532 -0.769588 0
M  V30 4976 C 472.791 -1.23392 -1.51768 0
M  V30 4977 C 473.171 0.17157 -2.10402 0
M  V30 4978 O 472.519 1.17943 -1.95708 0
M  V30 4979 C 472.729 -2.33163 -2.59685 0
M  V30 4980 C 474.077 -2.70809 -3.27028 0
M  V30 4981 O 475.101 -2.32355 -2.69981 0
M  V30 4982 O 473.96 -3.37066 -4.30173 0
M  V30 4983 H 471.054 -0.481617 -0.67229 0
M  V30 4984 H 473.6 -1.49318 -0.806368 0
M  V30 4985 H 472.372 -3.27273 -2.14494 0
M  V30 4986 H 471.995 -2.08713 -3.38415 0
M  V30 4987 N 472.992 0.995999 -1.22138 0
M  V30 4988 C 473.922 2.10387 -1.01289 0
M  V30 4989 C 474.903 1.69975 0.0651454 0
M  V30 4990 O 476.088 1.9396 -0.0964628 0
M  V30 4991 C 473.218 3.42312 -0.586517 0
M  V30 4992 C 472.172 3.96558 -1.61014 0
M  V30 4993 C 471.498 5.24494 -1.0397 0
M  V30 4994 C 472.798 4.27595 -2.99933 0
M  V30 4995 H 474.492 2.28086 -1.93951 0
M  V30 4996 H 472.038 1.09607 -0.933928 0
M  V30 4997 H 473.991 4.19223 -0.427793 0
M  V30 4998 H 472.715 3.24431 0.375761 0
M  V30 4999 H 471.374 3.21776 -1.75658 0
M  V30 5000 H 471.022 5.02953 -0.0688703 0
M  V30 5001 H 470.722 5.61755 -1.72352 0
M  V30 5002 H 472.246 6.04042 -0.892494 0
M  V30 5003 H 473.66 4.95315 -2.8868 0
M  V30 5004 H 472.057 4.76021 -3.6541 0
M  V30 5005 H 473.127 3.35498 -3.50099 0
M  V30 5006 N 474.47 1.03057 1.19235 0
M  V30 5007 C 475.417 0.612832 2.22515 0
M  V30 5008 C 476.387 -0.374224 1.61829 0
M  V30 5009 O 477.572 -0.270501 1.88873 0
M  V30 5010 C 474.712 -0.028475 3.45088 0
M  V30 5011 C 473.825 1.00483 4.20151 0
M  V30 5012 C 472.96 0.333102 5.30155 0
M  V30 5013 C 471.999 1.3522 5.96977 0
M  V30 5014 N 471.136 0.70616 6.9854 0
M  V30 5015 H 475.976 1.49812 2.57605 0
M  V30 5016 H 473.513 0.749658 1.26564 0
M  V30 5017 H 475.471 -0.417548 4.15105 0
M  V30 5018 H 474.101 -0.877334 3.10649 0
M  V30 5019 H 473.153 1.51194 3.49062 0
M  V30 5020 H 474.465 1.77929 4.65986 0
M  V30 5021 H 473.619 -0.110725 6.06599 0
M  V30 5022 H 472.358 -0.473547 4.85396 0
M  V30 5023 H 471.363 1.80627 5.19282 0
M  V30 5024 H 472.588 2.16037 6.4382 0
M  V30 5025 H 470.534 -0.0803667 6.55951 0
M  V30 5026 H 470.451 1.41848 7.42573 0
M  V30 5027 H 471.719 0.286391 7.78974 0
M  V30 5028 N 475.948 -1.35272 0.808662 0
M  V30 5029 C 477.364 -1.51806 0.492653 0
M  V30 5030 C 477.564 -1.7574 -0.985778 0
M  V30 5031 O 476.62 -1.80003 -1.77074 0
M  V30 5032 C 477.933 -2.69202 1.33981 0
M  V30 5033 C 479.481 -2.8308 1.33547 0
M  V30 5034 C 479.956 -4.03502 2.16679 0
M  V30 5035 N 481.447 -4.10684 2.14227 0
M  V30 5036 C 482.182 -5.02984 2.75308 0
M  V30 5037 N 481.678 -6.00603 3.45323 0
M  V30 5038 N 483.471 -4.95746 2.64938 0
M  V30 5039 H 475.622 -1.17993 1.76611 0
M  V30 5040 H 477.885 -0.577476 0.751814 0
M  V30 5041 H 477.591 -2.581 2.38909 0
M  V30 5042 H 477.465 -3.63854 0.994491 0
M  V30 5043 H 479.852 -2.93631 0.294036 0
M  V30 5044 H 479.933 -1.89278 1.72068 0
M  V30 5045 H 479.577 -3.93711 3.20864 0
M  V30 5046 H 479.507 -4.96489 1.75517 0
M  V30 5047 H 481.998 -3.40802 1.63285 0
M  V30 5048 H 482.311 -6.67633 3.89212 0
M  V30 5049 H 480.656 -6.0077 3.49428 0
M  V30 5050 H 483.847 -4.18439 2.09825 0
M  V30 5051 H 484.02 -5.67487 3.12829 0
M  V30 5052 N 477.426 -0.562348 -1.47226 0
M  V30 5053 C 478.654 -0.0452275 -2.06851 0
M  V30 5054 C 479.069 1.25078 -1.41424 0
M  V30 5055 O 478.426 1.75156 -0.512513 0
M  V30 5056 C 478.477 0.148674 -3.61194 0
M  V30 5057 O 478.198 -1.09602 -4.24169 0
M  V30 5058 C 479.699 0.702488 -4.37699 0
M  V30 5059 H 476.919 -0.0481775 -0.669268 0
M  V30 5060 H 479.463 -0.777223 -1.89155 0
M  V30 5061 H 477.618 0.830817 -3.78386 0
M  V30 5062 H 478.032 -0.896982 -5.16773 0
M  V30 5063 H 479.506 0.78743 -5.46355 0
M  V30 5064 H 479.983 1.71493 -4.04335 0
M  V30 5065 H 480.589 0.0558772 -4.25263 0
M  V30 5066 N 478.904 1.54736 -0.299062 0
M  V30 5067 C 479.867 2.22127 0.565012 0
M  V30 5068 C 480.867 1.20669 1.06281 0
M  V30 5069 O 482.057 1.45417 0.959145 0
M  V30 5070 C 479.189 2.90611 1.78208 0
M  V30 5071 H 480.382 2.99891 -0.0237448 0
M  V30 5072 H 477.935 1.5622 -0.0498788 0
M  V30 5073 H 478.67 2.16921 2.41072 0
M  V30 5074 H 478.455 3.64984 1.43281 0
M  V30 5075 H 479.945 3.42026 2.396 0
M  V30 5076 N 480.382 0.0267497 1.57577 0
M  V30 5077 C 481.33 -0.973923 2.11229 0
M  V30 5078 C 482.324 -1.33849 1.03831 0
M  V30 5079 O 483.53 -1.321 1.22269 0
M  V30 5080 H 479.905 -0.331844 0.674821 0
M  V30 5081 H 481.876 -0.496092 2.94247 0
M  V30 5082 C 480.625 -2.24798 2.65257 0
M  V30 5083 H 479.948 -1.9762 3.47543 0
M  V30 5084 H 481.388 -2.93031 3.06445 0
M  V30 5085 C 479.847 -2.97611 1.57891 0
M  V30 5086 O 480.377 -3.89629 0.97735 0
M  V30 5087 N 478.583 -2.59905 1.29992 0
M  V30 5088 H 478.13 -1.85154 1.79097 0
M  V30 5089 H 478.088 -3.08932 0.583798 0
M  V30 5090 N 481.861 -1.55662 -0.24637 0
M  V30 5091 C 482.824 -1.89558 -1.28842 0
M  V30 5092 C 483.824 -0.772082 -1.41052 0
M  V30 5093 O 485.014 -1.04007 -1.39743 0
M  V30 5094 C 482.146 -2.12449 -2.66605 0
M  V30 5095 H 483.339 -2.82735 -1.00004 0
M  V30 5096 H 480.892 -1.48562 -0.485684 0
M  V30 5097 H 481.627 -1.21742 -3.00582 0
M  V30 5098 H 481.412 -2.94273 -2.59125 0
M  V30 5099 H 482.902 -2.39854 -3.41847 0
M  V30 5100 N 483.339 0.512053 -1.4905 0
M  V30 5101 C 484.567 1.29116 -1.61669 0
M  V30 5102 C 484.982 1.86655 -0.283787 0
M  V30 5103 O 484.339 1.67293 0.729331 0
M  V30 5104 C 484.39 2.4293 -2.67707 0
M  V30 5105 O 484.111 1.87758 -3.95826 0
M  V30 5106 C 485.612 3.34476 -2.90931 0
M  V30 5107 H 482.832 0.392009 -0.544583 0
M  V30 5108 H 485.376 0.615881 -1.95006 0
M  V30 5109 H 483.531 3.06308 -2.37179 0
M  V30 5110 H 483.945 2.62393 -4.54148 0
M  V30 5111 H 485.419 4.10642 -3.68886 0
M  V30 5112 H 485.896 3.90801 -2.00427 0
M  V30 5113 H 486.502 2.76874 -3.22832 0
M  V30 5114 N 484.817 1.37938 0.762283 0
M  V30 5115 C 486.065 1.33404 1.51815 0
M  V30 5116 C 486.386 -0.0780975 1.94844 0
M  V30 5117 O 485.656 -1.02405 1.67003 0
M  V30 5118 H 484.236 0.490839 0.563104 0
M  V30 5119 H 486.898 1.72527 0.906669 0
M  V30 5120 H 485.994 1.97926 2.41313 0
M  V30 5121 N 486.295 -0.989507 1.22664 0
M  V30 5122 C 487.258 -2.06183 1.00106 0
M  V30 5123 C 488.258 -1.60765 -0.0337726 0
M  V30 5124 O 489.448 -1.72989 0.205072 0
M  V30 5125 C 486.58 -3.37021 0.51279 0
M  V30 5126 H 487.773 -2.27629 1.95256 0
M  V30 5127 H 485.326 -1.16158 1.0458 0
M  V30 5128 H 486.061 -3.21261 -0.442917 0
M  V30 5129 H 485.846 -3.71323 1.25942 0
M  V30 5130 H 487.336 -4.1591 0.375315 0
M  V30 5131 N 487.773 -1.03688 -1.18687 0
M  V30 5132 C 488.703 -0.645407 -2.24403 0
M  V30 5133 C 489.684 0.349511 -1.66471 0
M  V30 5134 O 490.869 0.230453 -1.92828 0
M  V30 5135 C 487.999 -0.00365337 -3.473 0
M  V30 5136 C 486.953 -0.921705 -4.17958 0
M  V30 5137 C 486.279 -0.144629 -5.34504 0
M  V30 5138 C 487.579 -2.23909 -4.71871 0
M  V30 5139 H 489.273 -1.52917 -2.57404 0
M  V30 5140 H 486.819 -0.736711 -1.23728 0
M  V30 5141 H 488.772 0.281908 -4.20456 0
M  V30 5142 H 487.496 0.914963 -3.13522 0
M  V30 5143 H 486.155 -1.19159 -3.46694 0
M  V30 5144 H 485.803 0.776274 -4.96974 0
M  V30 5145 H 485.503 -0.756206 -5.82714 0
M  V30 5146 H 487.027 0.134004 -6.10453 0
M  V30 5147 H 488.441 -2.0145 -5.36741 0
M  V30 5148 H 486.838 -2.8033 -5.30599 0
M  V30 5149 H 487.908 -2.88822 -3.895 0
M  V30 5150 N 489.251 1.34841 -0.815825 0
M  V30 5151 C 490.497 1.98793 -0.401129 0
M  V30 5152 C 490.83 1.64548 1.03139 0
M  V30 5153 O 490.105 0.913487 1.71714 0
M  V30 5154 C 490.388 3.55143 -0.595409 0
M  V30 5155 C 490.241 3.99155 -2.07352 0
M  V30 5156 C 491.56 4.40092 -0.0268823 0
M  V30 5157 H 488.679 0.722146 -0.14722 0
M  V30 5158 H 491.321 1.59847 -1.02707 0
M  V30 5159 H 489.471 3.8845 -0.0625779 0
M  V30 5160 H 491.143 3.76216 -2.66945 0
M  V30 5161 H 489.386 3.49726 -2.56659 0
M  V30 5162 H 490.057 5.07971 -2.1603 0
M  V30 5163 H 492.533 4.13298 -0.482042 0
M  V30 5164 H 491.409 5.48562 -0.19267 0
M  V30 5165 H 491.67 4.29016 1.06759 0
M  V30 5166 N 490.729 0.570148 1.46925 0
M  V30 5167 C 491.661 -0.207909 2.28255 0
M  V30 5168 C 492.674 -0.867301 1.37774 0
M  V30 5169 O 493.863 -0.738976 1.62485 0
M  V30 5170 C 490.963 -1.31298 3.12433 0
M  V30 5171 C 490.136 -0.747915 4.30958 0
M  V30 5172 C 489.195 -1.7391 4.9663 0
M  V30 5173 O 488.221 -1.2801 5.54619 0
M  V30 5174 N 489.423 -3.07288 4.92498 0
M  V30 5175 H 492.188 0.489794 2.95671 0
M  V30 5176 H 489.749 0.407076 1.56699 0
M  V30 5177 H 491.741 -1.97507 3.53232 0
M  V30 5178 H 490.311 -1.91373 2.47175 0
M  V30 5179 H 489.531 0.0913066 3.94094 0
M  V30 5180 H 490.819 -0.349958 5.07595 0
M  V30 5181 H 490.217 -3.47213 4.46609 0
M  V30 5182 H 488.774 -3.69021 5.37277 0
M  V30 5183 N 492.207 -1.54576 0.307264 0
M  V30 5184 C 493.435 -2.04675 -0.302597 0
M  V30 5185 C 493.85 -1.18425 -1.47041 0
M  V30 5186 O 493.207 -0.211257 -1.81273 0
M  V30 5187 C 493.258 -3.53575 -0.752801 0
M  V30 5188 O 492.979 -4.36547 0.368536 0
M  V30 5189 C 494.48 -4.19699 -1.42717 0
M  V30 5190 H 491.7 -0.66786 -0.0648374 0
M  V30 5191 H 494.244 -1.99516 0.448716 0
M  V30 5192 H 492.399 -3.59074 -1.45412 0
M  V30 5193 H 492.813 -5.24497 0.0168937 0
M  V30 5194 H 494.287 -5.25388 -1.69327 0
M  V30 5195 H 494.764 -3.69815 -2.36925 0
M  V30 5196 H 495.37 -4.18293 -0.768856 0
M  V30 5197 N 493.685 -0.035106 -1.57561 0
M  V30 5198 C 494.91 0.655802 -1.96759 0
M  V30 5199 C 495.335 1.64523 -0.911809 0
M  V30 5200 O 494.693 1.80857 0.126673 0
M  V30 5201 C 494.741 1.33326 -3.35047 0
M  V30 5202 O 493.845 2.44866 -3.31835 0
M  V30 5203 H 493.186 0.171807 -0.641388 0
M  V30 5204 H 495.716 -0.0987369 -2.04362 0
M  V30 5205 H 495.726 1.68867 -3.71413 0
M  V30 5206 H 494.401 0.608033 -4.11431 0
M  V30 5207 H 492.978 2.11392 -3.07193 0
M  V30 5208 N 495.163 1.55791 0.238111 0
M  V30 5209 C 496.093 1.94068 1.29846 0
M  V30 5210 C 497.074 0.806726 1.49753 0
M  V30 5211 O 498.259 1.06772 1.62214 0
M  V30 5212 C 495.389 2.24302 2.65153 0
M  V30 5213 C 494.343 3.40032 2.59927 0
M  V30 5214 C 493.669 3.55829 3.99111 0
M  V30 5215 C 494.969 4.75476 2.16148 0
M  V30 5216 H 496.663 2.82887 0.980563 0
M  V30 5217 H 494.209 1.36105 0.470253 0
M  V30 5218 H 496.162 2.4967 3.39475 0
M  V30 5219 H 494.886 1.32318 2.98596 0
M  V30 5220 H 493.545 3.14687 1.88063 0
M  V30 5221 H 493.193 2.6125 4.29834 0
M  V30 5222 H 492.893 4.3366 3.96501 0
M  V30 5223 H 494.417 3.83528 4.7512 0
M  V30 5224 H 495.831 5.00158 2.80205 0
M  V30 5225 H 494.228 5.56472 2.24631 0
M  V30 5226 H 495.298 4.71946 1.11333 0
M  V30 5227 N 496.642 -0.504142 1.49319 0
M  V30 5228 C 497.889 -1.25846 1.58647 0
M  V30 5229 C 498.217 -1.92592 0.27177 0
M  V30 5230 O 497.472 -1.81167 -0.74007 0
M  V30 5231 C 497.771 -2.35021 2.69258 0
M  V30 5232 C 497.437 -1.85755 4.1086 0
M  V30 5233 C 496.099 -1.72038 4.49395 0
M  V30 5234 C 498.451 -1.48844 4.99495 0
M  V30 5235 C 495.779 -1.19783 5.74342 0
M  V30 5236 C 498.131 -0.980422 6.24956 0
M  V30 5237 C 496.795 -0.829622 6.62324 0
M  V30 5238 H 496.065 -0.460505 0.580531 0
M  V30 5239 H 498.712 -0.559716 1.83138 0
M  V30 5240 H 497.017 -3.10672 2.38726 0
M  V30 5241 H 498.714 -2.93083 2.73685 0
M  V30 5242 H 495.304 -1.9739 3.80441 0
M  V30 5243 H 499.488 -1.5829 4.70381 0
M  V30 5244 H 494.744 -1.06817 6.01997 0
M  V30 5245 H 498.918 -0.685608 6.93017 0
M  V30 5246 H 496.545 -0.42253 7.59025 0
M  V30 5247 N 498.12 -1.38341 -0.754957 0
M  V30 5248 C 499.068 -1.35573 -1.89005 0
M  V30 5249 C 500.062 -0.241824 -1.67665 0
M  V30 5250 O 501.268 -0.410785 -1.7525 0
M  V30 5251 H 497.643 -0.422898 -0.621821 0
M  V30 5252 H 499.614 -2.31359 -1.88455 0
M  V30 5253 C 498.363 -1.19631 -3.26471 0
M  V30 5254 H 497.686 -2.04605 -3.43477 0
M  V30 5255 H 499.126 -1.21748 -4.06144 0
M  V30 5256 C 497.585 0.0968705 -3.36761 0
M  V30 5257 O 498.115 1.07439 -3.87066 0
M  V30 5258 N 496.321 0.153242 -2.90196 0
M  V30 5259 H 495.868 -0.642908 -2.49448 0
M  V30 5260 H 495.826 1.01807 -2.9746 0
M  V30 5261 N 499.598 0.982988 -1.23187 0
M  V30 5262 C 500.528 2.09301 -1.03515 0
M  V30 5263 C 501.509 1.70035 0.0471136 0
M  V30 5264 O 502.694 1.93847 -0.117029 0
M  V30 5265 C 499.824 3.4167 -0.622791 0
M  V30 5266 C 498.778 3.94828 -1.65211 0
M  V30 5267 C 498.104 5.23362 -1.09527 0
M  V30 5268 C 499.404 4.2439 -3.04451 0
M  V30 5269 H 501.098 2.26016 -1.96359 0
M  V30 5270 H 498.644 1.08611 -0.945501 0
M  V30 5271 H 500.597 4.18746 -0.472233 0
M  V30 5272 H 499.321 3.24811 0.341329 0
M  V30 5273 H 497.98 3.19895 -1.79061 0
M  V30 5274 H 497.628 5.02852 -0.122211 0
M  V30 5275 H 497.328 5.59895 -1.783 0
M  V30 5276 H 498.852 6.03062 -0.956511 0
M  V30 5277 H 500.266 4.92225 -2.93917 0
M  V30 5278 H 498.663 4.72118 -3.70438 0
M  V30 5279 H 499.733 3.31765 -3.53638 0
M  V30 5280 N 501.076 1.04316 1.18135 0
M  V30 5281 C 502.024 0.630175 2.23901 0
M  V30 5282 C 503.018 -0.344254 1.65865 0
M  V30 5283 O 504.224 -0.211273 1.78756 0
M  V30 5284 H 500.599 0.185578 0.728742 0
M  V30 5285 H 502.57 1.53253 2.56039 0
M  V30 5286 C 501.319 0.011666 3.47698 0
M  V30 5287 H 500.642 0.752526 3.92654 0
M  V30 5288 H 502.082 -0.240046 4.2332 0
M  V30 5289 C 500.541 -1.23913 3.13285 0
M  V30 5290 O 501.071 -2.32959 3.27251 0
M  V30 5291 N 499.277 -1.13338 2.67587 0
M  V30 5292 H 498.824 -0.246006 2.56423 0
M  V30 5293 H 498.782 -1.97116 2.44934 0
M  V30 5294 N 502.554 -1.34406 0.822964 0
M  V30 5295 C 503.831 -1.92733 0.333641 0
M  V30 5296 C 504.211 -1.75107 -1.17901 0
M  V30 5297 O 503.559 -1.12983 -1.98613 0
M  V30 5298 C 503.769 -3.40557 0.763023 0
M  V30 5299 C 505.117 -4.17709 0.761879 0
M  V30 5300 O 506.141 -3.49141 0.705606 0
M  V30 5301 O 505 -5.40082 0.835109 0
M  V30 5302 H 502.094 -0.821964 0.0911249 0
M  V30 5303 H 504.64 -1.4338 0.907757 0
M  V30 5304 H 503.412 -3.47187 1.8049 0
M  V30 5305 H 503.035 -3.97259 0.164605 0
M  V30 5306 N 504.032 -0.577932 -1.46621 0
M  V30 5307 C 505.309 0.00495287 -1.95599 0
M  V30 5308 C 505.689 1.46428 -1.5206 0
M  V30 5309 O 505.037 2.1517 -0.769046 0
M  V30 5310 C 505.247 -0.162114 -3.48623 0
M  V30 5311 C 506.595 -0.0274623 -4.24591 0
M  V30 5312 O 507.619 -0.0907067 -3.56084 0
M  V30 5313 O 506.478 0.1122 -5.46385 0
M  V30 5314 H 503.572 0.0525057 -0.825332 0
M  V30 5315 H 506.118 -0.645914 -1.56927 0
M  V30 5316 H 504.89 -1.17679 -3.73185 0
M  V30 5317 H 504.513 0.525407 -3.94113 0
M  V30 5318 N 505.51 1.54411 -0.315457 0
M  V30 5319 C 506.756 2.00716 0.289972 0
M  V30 5320 C 507.089 1.2034 1.5242 0
M  V30 5321 O 506.364 0.283579 1.92422 0
M  V30 5322 C 506.647 3.54507 0.632196 0
M  V30 5323 C 506.5 4.45615 -0.61218 0
M  V30 5324 C 507.819 4.15421 1.45305 0
M  V30 5325 H 504.938 0.729637 0.10392 0
M  V30 5326 H 507.58 1.8506 -0.430427 0
M  V30 5327 H 505.73 3.67979 1.24595 0
M  V30 5328 H 507.402 4.44026 -1.25053 0
M  V30 5329 H 505.645 4.15621 -1.24264 0
M  V30 5330 H 506.316 5.51022 -0.328379 0
M  V30 5331 H 508.792 4.05474 0.934331 0
M  V30 5332 H 507.668 5.23157 1.66127 0
M  V30 5333 H 507.929 3.68223 2.44671 0
M  V30 5334 N 506.988 0.0434614 1.5754 0
M  V30 5335 C 507.918 -0.931651 2.14109 0
M  V30 5336 C 508.899 -1.32971 1.06079 0
M  V30 5337 O 510.084 -1.40579 1.33982 0
M  V30 5338 C 507.214 -2.20914 2.67982 0
M  V30 5339 C 506.168 -1.95139 3.80926 0
M  V30 5340 C 505.494 -3.29276 4.21285 0
M  V30 5341 C 506.794 -1.27913 5.06395 0
M  V30 5342 H 508.488 -0.460497 2.95837 0
M  V30 5343 H 506.034 -0.220058 1.42309 0
M  V30 5344 H 507.987 -2.89522 3.06194 0
M  V30 5345 H 506.711 -2.70221 1.83434 0
M  V30 5346 H 505.37 -1.28945 3.43175 0
M  V30 5347 H 505.018 -3.76369 3.33699 0
M  V30 5348 H 504.718 -3.12831 4.97404 0
M  V30 5349 H 506.242 -3.99129 4.62091 0
M  V30 5350 H 507.656 -1.86544 5.42102 0
M  V30 5351 H 506.053 -1.2182 5.87605 0
M  V30 5352 H 507.123 -0.254066 4.84234 0
M  V30 5353 N 508.466 -1.55915 -0.229846 0
M  V30 5354 C 509.714 -1.7819 -0.953565 0
M  V30 5355 C 510.035 -0.610504 -1.85197 0
M  V30 5356 O 509.305 0.372988 -1.92316 0
M  V30 5357 H 507.885 -0.657208 -0.355087 0
M  V30 5358 H 510.547 -1.9337 -0.243693 0
M  V30 5359 H 509.643 -2.70011 -1.56527 0
M  V30 5360 N 509.944 0.496216 -1.49584 0
M  V30 5361 C 511.172 1.27394 -1.63029 0
M  V30 5362 C 511.587 1.86344 -0.303569 0
M  V30 5363 O 510.944 1.68057 0.711547 0
M  V30 5364 C 510.995 2.40077 -2.70269 0
M  V30 5365 O 510.716 1.83549 -3.97796 0
M  V30 5366 C 512.217 3.31372 -2.94462 0
M  V30 5367 H 509.437 0.386211 -0.54871 0
M  V30 5368 H 511.981 0.595163 -1.95648 0
M  V30 5369 H 510.136 3.03775 -2.40415 0
M  V30 5370 H 510.55 2.57561 -4.56905 0
M  V30 5371 H 512.024 4.06707 -3.73221 0
M  V30 5372 H 512.501 3.88654 -2.0456 0
M  V30 5373 H 513.107 2.73435 -3.25751 0
M  V30 5374 N 511.423 1.38739 0.74761 0
M  V30 5375 C 512.663 1.36695 1.51966 0
M  V30 5376 C 513.027 -0.0411889 1.91956 0
M  V30 5377 O 514.228 -0.186543 2.68152 0
M  V30 5378 C 512.499 2.30119 2.73459 0
M  V30 5379 S 514.058 2.4615 3.63257 0
M  V30 5380 H 510.876 0.484929 0.519966 0
M  V30 5381 H 513.478 1.7472 0.877104 0
M  V30 5382 H 512.182 3.31312 2.422 0
M  V30 5383 H 511.713 1.93265 3.42655 0
M  V30 5384 H 513.728 1.69001 4.66533 0
M  V30 5385 N 512.901 -0.976442 1.23707 0
M  V30 5386 C 514.149 -1.71487 1.06942 0
M  V30 5387 C 514.47 -1.9098 -0.393897 0
M  V30 5388 O 513.74 -1.48128 -1.28198 0
M  V30 5389 H 512.32 -0.635425 0.392739 0
M  V30 5390 H 514.982 -1.17515 1.55487 0
M  V30 5391 H 514.078 -2.70286 1.56051 0
M  V30 5392 N 514.379 -1.04941 -1.1758 0
M  V30 5393 C 515.625 -0.759112 -1.88057 0
M  V30 5394 C 515.958 0.711918 -1.8068 0
M  V30 5395 O 515.233 1.52035 -1.21308 0
M  V30 5396 C 515.516 -1.237 -3.38187 0
M  V30 5397 C 515.369 -2.77078 -3.54327 0
M  V30 5398 C 516.688 -0.834014 -4.32125 0
M  V30 5399 H 513.807 -0.277237 -0.682868 0
M  V30 5400 H 516.449 -1.30296 -1.38286 0
M  V30 5401 H 514.599 -0.774337 -3.80705 0
M  V30 5402 H 516.271 -3.31449 -3.20842 0
M  V30 5403 H 514.514 -3.16477 -2.96689 0
M  V30 5404 H 515.185 -3.05577 -4.59703 0
M  V30 5405 H 517.661 -1.23228 -3.97434 0
M  V30 5406 H 516.537 -1.19603 -5.35711 0
M  V30 5407 H 516.798 0.262195 -4.41322 0
M  V30 5408 N 515.857 1.33968 -0.830081 0
M  V30 5409 C 517.104 1.98063 -0.421566 0
M  V30 5410 C 517.432 1.65787 1.0171 0
M  V30 5411 O 516.687 0.925348 1.72441 0
M  V30 5412 C 516.986 3.52679 -0.57898 0
M  V30 5413 C 516.652 4.04884 -1.98443 0
M  V30 5414 C 515.314 4.18852 -2.36888 0
M  V30 5415 C 517.666 4.32879 -2.90285 0
M  V30 5416 C 514.994 4.58145 -3.66497 0
M  V30 5417 C 517.346 4.7362 -4.19364 0
M  V30 5418 C 516.01 4.85794 -4.57778 0
M  V30 5419 H 515.28 0.724765 -0.154262 0
M  V30 5420 H 517.927 1.59792 -1.05541 0
M  V30 5421 H 516.232 3.91556 0.138219 0
M  V30 5422 H 517.929 4.00261 -0.243317 0
M  V30 5423 H 514.519 3.9448 -1.67581 0
M  V30 5424 H 518.703 4.21619 -2.61823 0
M  V30 5425 H 513.959 4.65762 -3.96075 0
M  V30 5426 H 518.133 4.9424 -4.90612 0
M  V30 5427 H 515.76 5.15998 -5.58256 0
M  V30 5428 N 517.335 0.585699 1.46312 0
M  V30 5429 C 518.245 -0.148236 2.34131 0
M  V30 5430 C 519.261 -0.882972 1.49932 0
M  V30 5431 O 520.437 -0.845484 1.82794 0
M  V30 5432 C 517.502 -1.14714 3.27172 0
M  V30 5433 C 516.563 -0.416746 4.27272 0
M  V30 5434 C 515.796 -1.36806 5.15868 0
M  V30 5435 O 516.019 -2.60475 5.07454 0
M  V30 5436 O 514.953 -0.877018 5.95476 0
M  V30 5437 H 518.779 0.572882 2.98248 0
M  V30 5438 H 516.364 0.346082 1.45336 0
M  V30 5439 H 518.246 -1.72303 3.84564 0
M  V30 5440 H 516.921 -1.84967 2.65648 0
M  V30 5441 H 515.828 0.201061 3.73559 0
M  V30 5442 H 517.161 0.244872 4.9159 0
M  V30 5443 N 518.813 -1.54241 0.323641 0
M  V30 5444 C 519.723 -2.28033 -0.551205 0
M  V30 5445 C 520.739 -1.32388 -1.12913 0
M  V30 5446 O 521.915 -1.65403 -1.14908 0
M  V30 5447 C 518.98 -3.02382 -1.69606 0
M  V30 5448 C 518.041 -4.13612 -1.14993 0
M  V30 5449 C 517.274 -4.84407 -2.24022 0
M  V30 5450 O 517.497 -4.54716 -3.44368 0
M  V30 5451 O 516.431 -5.71312 -1.89436 0
M  V30 5452 H 520.257 -3.03662 0.048066 0
M  V30 5453 H 517.842 -1.49133 0.0893289 0
M  V30 5454 H 519.724 -3.48941 -2.36259 0
M  V30 5455 H 518.399 -2.29628 -2.28151 0
M  V30 5456 H 517.306 -3.71402 -0.448484 0
M  V30 5457 H 518.639 -4.8841 -0.609608 0
M  V30 5458 N 520.291 -0.0518155 -1.57515 0
M  V30 5459 C 521.537 0.622745 -1.93002 0
M  V30 5460 C 521.87 1.70456 -0.930499 0
M  V30 5461 O 521.145 1.94452 0.0434086 0
M  V30 5462 C 521.428 1.21824 -3.38867 0
M  V30 5463 C 521.281 0.144434 -4.49568 0
M  V30 5464 C 522.6 2.12968 -3.8514 0
M  V30 5465 H 519.719 0.22491 -0.701844 0
M  V30 5466 H 522.361 -0.113711 -1.89659 0
M  V30 5467 H 520.511 1.8459 -3.41846 0
M  V30 5468 H 522.183 -0.48753 -4.58717 0
M  V30 5469 H 520.426 -0.527424 -4.30582 0
M  V30 5470 H 521.097 0.601127 -5.48717 0
M  V30 5471 H 523.573 1.60163 -3.8404 0
M  V30 5472 H 522.449 2.51578 -4.87852 0
M  V30 5473 H 522.71 3.03004 -3.21934 0
M  V30 5474 N 521.769 1.56035 0.221574 0
M  V30 5475 C 522.701 1.889 1.29805 0
M  V30 5476 C 523.714 0.777269 1.43047 0
M  V30 5477 O 524.903 1.05557 1.43945 0
M  V30 5478 C 522.003 2.0825 2.67367 0
M  V30 5479 C 521.176 3.39267 2.76073 0
M  V30 5480 C 520.235 3.48049 3.94649 0
M  V30 5481 O 519.261 4.2108 3.82988 0
M  V30 5482 N 520.463 2.79191 5.08953 0
M  V30 5483 H 523.228 2.81831 1.01938 0
M  V30 5484 H 520.789 1.5658 0.411612 0
M  V30 5485 H 522.781 2.11441 3.45072 0
M  V30 5486 H 521.351 1.21944 2.87834 0
M  V30 5487 H 520.571 3.48175 1.84846 0
M  V30 5488 H 521.859 4.25575 2.7886 0
M  V30 5489 H 521.257 2.19635 5.21322 0
M  V30 5490 H 519.814 2.88043 5.84701 0
M  V30 5491 N 523.247 -0.488276 1.49845 0
M  V30 5492 C 524.496 -1.23826 1.59217 0
M  V30 5493 C 524.809 -1.93439 0.289966 0
M  V30 5494 O 526.015 -2.70229 0.262382 0
M  V30 5495 C 524.471 -2.24902 2.80976 0
M  V30 5496 C 524.079 -1.6117 4.18005 0
M  V30 5497 C 525.823 -3.00648 2.99685 0
M  V30 5498 C 523.73 -2.60431 5.3097 0
M  V30 5499 H 522.66 -0.465858 0.592868 0
M  V30 5500 H 525.311 -0.510645 1.76252 0
M  V30 5501 H 523.693 -3.0088 2.57463 0
M  V30 5502 H 524.867 -0.910968 4.51706 0
M  V30 5503 H 523.182 -0.97767 4.0476 0
M  V30 5504 H 525.779 -3.74903 3.81251 0
M  V30 5505 H 526.122 -3.5902 2.10738 0
M  V30 5506 H 526.655 -2.31784 3.23297 0
M  V30 5507 H 523.394 -2.06823 6.22017 0
M  V30 5508 H 522.914 -3.28707 5.01709 0
M  V30 5509 H 524.593 -3.22606 5.60834 0
M  V30 5510 N 524.725 -1.39134 -0.740242 0
M  V30 5511 C 525.973 -1.35803 -1.49673 0
M  V30 5512 C 526.294 0.0470897 -1.94943 0
M  V30 5513 O 525.564 0.997347 -1.68611 0
M  V30 5514 H 524.144 -0.499736 -0.555224 0
M  V30 5515 H 526.806 -1.73947 -0.879107 0
M  V30 5516 H 525.902 -2.0174 -2.38133 0
M  V30 5517 N 526.204 0.969867 -1.24223 0
M  V30 5518 C 527.152 2.08535 -1.03034 0
M  V30 5519 C 528.146 1.69366 0.0340379 0
M  V30 5520 O 529.352 1.79597 -0.12034 0
M  V30 5521 H 525.727 0.682313 -0.316154 0
M  V30 5522 H 527.698 2.23569 -1.97635 0
M  V30 5523 C 526.447 3.4158 -0.649509 0
M  V30 5524 H 525.77 3.72177 -1.46028 0
M  V30 5525 H 527.21 4.20536 -0.540841 0
M  V30 5526 C 525.669 3.30703 0.643194 0
M  V30 5527 O 526.199 3.64443 1.68951 0
M  V30 5528 N 524.405 2.83841 0.623095 0
M  V30 5529 H 523.952 2.56583 -0.228719 0
M  V30 5530 H 523.91 2.76946 1.48823 0
M  V30 5531 N 527.682 1.05563 1.17022 0
M  V30 5532 C 528.592 0.670758 2.24807 0
M  V30 5533 C 529.608 -0.309865 1.71219 0
M  V30 5534 O 530.784 -0.161025 2.00755 0
M  V30 5535 C 527.849 0.055337 3.46656 0
M  V30 5536 C 526.91 1.08688 4.15314 0
M  V30 5537 C 526.143 0.500736 5.31346 0
M  V30 5538 O 526.366 -0.688718 5.66227 0
M  V30 5539 O 525.3 1.23683 5.89055 0
M  V30 5540 H 529.126 1.56914 2.60023 0
M  V30 5541 H 526.711 0.827428 1.24395 0
M  V30 5542 H 528.593 -0.286492 4.20425 0
M  V30 5543 H 527.268 -0.816638 3.13229 0
M  V30 5544 H 526.175 1.48077 3.43546 0
M  V30 5545 H 527.508 1.93014 4.52777 0
M  V30 5546 N 529.16 -1.33526 0.837174 0
M  V30 5547 C 530.576 -1.50727 0.524743 0
M  V30 5548 C 530.776 -1.77792 -0.948279 0
M  V30 5549 O 529.832 -1.83719 -1.73216 0
M  V30 5550 C 531.145 -2.66299 1.39661 0
M  V30 5551 C 532.693 -2.80183 1.39521 0
M  V30 5552 C 533.168 -3.98815 2.25189 0
M  V30 5553 N 534.659 -4.06047 2.2289 0
M  V30 5554 C 535.394 -4.97032 2.85915 0
M  V30 5555 N 534.89 -5.93143 3.57985 0
M  V30 5556 N 536.683 -4.90015 2.75394 0
M  V30 5557 H 528.834 -1.1422 1.79074 0
M  V30 5558 H 531.097 -0.561399 0.763894 0
M  V30 5559 H 530.803 -2.52974 2.4433 0
M  V30 5560 H 530.677 -3.61663 1.07145 0
M  V30 5561 H 533.064 -2.92942 0.356253 0
M  V30 5562 H 533.145 -1.85586 1.76044 0
M  V30 5563 H 532.789 -3.86817 3.29143 0
M  V30 5564 H 532.719 -4.92654 1.86009 0
M  V30 5565 H 535.21 -3.37262 1.70478 0
M  V30 5566 H 535.523 -6.59227 4.03286 0
M  V30 5567 H 533.868 -5.93223 3.62093 0
M  V30 5568 H 537.059 -4.13894 2.18654 0
M  V30 5569 H 537.232 -5.60724 3.24796 0
M  V30 5570 N 530.638 -0.59345 -1.46 0
M  V30 5571 C 531.868 -0.0889642 -2.06408 0
M  V30 5572 C 532.276 1.22597 -1.44106 0
M  V30 5573 O 531.619 1.75448 -0.544398 0
M  V30 5574 C 531.681 0.139902 -3.59228 0
M  V30 5575 C 531.345 -1.09107 -4.43784 0
M  V30 5576 C 532.342 -2.00577 -4.79651 0
M  V30 5577 C 530.027 -1.31593 -4.84756 0
M  V30 5578 C 532.021 -3.12873 -5.55328 0
M  V30 5579 C 529.708 -2.44192 -5.60191 0
M  V30 5580 C 530.706 -3.34661 -5.95392 0
M  V30 5581 O 530.394 -4.45302 -6.69299 0
M  V30 5582 H 530.126 -0.0594613 -0.67338 0
M  V30 5583 H 532.68 -0.817 -1.88452 0
M  V30 5584 H 530.91 0.922672 -3.75531 0
M  V30 5585 H 532.599 0.594228 -4.01527 0
M  V30 5586 H 533.365 -1.84425 -4.48567 0
M  V30 5587 H 529.244 -0.620801 -4.56801 0
M  V30 5588 H 532.788 -3.83511 -5.82722 0
M  V30 5589 H 528.685 -2.60303 -5.90688 0
M  V30 5590 H 529.453 -4.43805 -6.87735 0
M  V30 5591 N 532.116 1.54067 -0.331816 0
M  V30 5592 C 533.064 2.26105 0.54582 0
M  V30 5593 C 534.058 1.27816 1.11173 0
M  V30 5594 O 535.264 1.45565 1.05882 0
M  V30 5595 H 531.639 0.726363 0.194683 0
M  V30 5596 H 533.61 2.98282 -0.083931 0
M  V30 5597 C 532.359 3.03814 1.69092 0
M  V30 5598 H 531.682 3.79269 1.26473 0
M  V30 5599 H 533.122 3.57453 2.28043 0
M  V30 5600 C 531.581 2.12606 2.61343 0
M  V30 5601 O 532.111 1.71437 3.6328 0
M  V30 5602 N 530.317 1.77925 2.29763 0
M  V30 5603 H 529.864 2.11602 1.46909 0
M  V30 5604 H 529.822 1.1718 2.91747 0
M  V30 5605 N 533.594 0.0601682 1.57485 0
M  V30 5606 C 534.843 -0.611101 1.9222 0
M  V30 5607 C 535.156 -1.71469 0.941159 0
M  V30 5608 O 536.362 -2.44473 1.18089 0
M  V30 5609 C 534.818 -1.13832 3.41424 0
M  V30 5610 C 534.426 -0.0663596 4.47951 0
M  V30 5611 C 536.17 -1.78432 3.85178 0
M  V30 5612 C 534.077 -0.606965 5.88277 0
M  V30 5613 H 533.007 -0.232033 0.71741 0
M  V30 5614 H 535.658 0.130518 1.83035 0
M  V30 5615 H 534.04 -1.93254 3.45643 0
M  V30 5616 H 535.214 0.707682 4.55333 0
M  V30 5617 H 533.529 0.482715 4.13593 0
M  V30 5618 H 536.126 -2.1989 4.87394 0
M  V30 5619 H 536.469 -2.63966 3.21913 0
M  V30 5620 H 537.002 -1.05651 3.83514 0
M  V30 5621 H 533.741 0.21095 6.5516 0
M  V30 5622 H 533.261 -1.34879 5.84438 0
M  V30 5623 H 534.94 -1.08704 6.37803 0
M  V30 5624 N 535.072 -1.5615 -0.213296 0
M  V30 5625 C 536.319 -1.79546 -0.936462 0
M  V30 5626 C 536.647 -0.630337 -1.84003 0
M  V30 5627 O 535.902 0.384883 -1.91878 0
M  V30 5628 C 536.201 -3.08772 -1.79985 0
M  V30 5629 C 535.867 -4.38532 -1.04882 0
M  V30 5630 C 534.529 -4.73787 -0.841393 0
M  V30 5631 C 536.881 -5.18609 -0.51907 0
M  V30 5632 C 534.209 -5.86627 -0.0924403 0
M  V30 5633 C 536.561 -6.32229 0.216581 0
M  V30 5634 C 535.225 -6.6608 0.435191 0
M  V30 5635 H 534.495 -0.657004 -0.342676 0
M  V30 5636 H 537.142 -1.9041 -0.204051 0
M  V30 5637 H 535.447 -2.93065 -2.60038 0
M  V30 5638 H 537.144 -3.24077 -2.36168 0
M  V30 5639 H 533.734 -4.10855 -1.22048 0
M  V30 5640 H 537.918 -4.91801 -0.666775 0
M  V30 5641 H 533.174 -6.11338 0.087081 0
M  V30 5642 H 537.348 -6.93503 0.634538 0
M  V30 5643 H 534.975 -7.5336 1.01746 0
M  V30 5644 N 536.55 0.480323 -1.50102 0
M  V30 5645 C 537.497 1.57946 -1.6829 0
M  V30 5646 C 538.467 1.57611 -0.524223 0
M  V30 5647 O 539.652 1.75282 -0.753709 0
M  V30 5648 C 536.792 2.95978 -1.77457 0
M  V30 5649 C 535.905 3.06173 -3.04766 0
M  V30 5650 C 535.04 4.35063 -3.04784 0
M  V30 5651 C 534.079 4.38966 -4.26586 0
M  V30 5652 N 533.216 5.59314 -4.24396 0
M  V30 5653 H 538.056 1.41743 -2.62131 0
M  V30 5654 H 535.593 0.689304 -1.2995 0
M  V30 5655 H 537.551 3.76011 -1.80752 0
M  V30 5656 H 536.181 3.10837 -0.870637 0
M  V30 5657 H 535.233 2.19071 -3.10986 0
M  V30 5658 H 536.545 3.04916 -3.9475 0
M  V30 5659 H 535.699 5.23436 -3.06757 0
M  V30 5660 H 534.438 4.38915 -2.12614 0
M  V30 5661 H 533.443 3.48992 -4.24835 0
M  V30 5662 H 534.668 4.36813 -5.19972 0
M  V30 5663 H 532.614 5.63969 -3.35074 0
M  V30 5664 H 532.531 5.5976 -5.08138 0
M  V30 5665 H 533.799 6.49837 -4.30502 0
M  V30 5666 N 538.028 1.39524 0.732853 0
M  V30 5667 C 538.938 1.40695 1.87729 0
M  V30 5668 C 539.954 0.301496 1.71368 0
M  V30 5669 O 541.13 0.543313 1.93933 0
M  V30 5670 C 538.195 1.25098 3.23344 0
M  V30 5671 C 537.256 2.45634 3.52083 0
M  V30 5672 C 536.489 2.30772 4.81228 0
M  V30 5673 O 536.712 1.31233 5.55098 0
M  V30 5674 O 535.646 3.19799 5.09914 0
M  V30 5675 H 539.472 2.37168 1.89697 0
M  V30 5676 H 537.057 1.20663 0.880959 0
M  V30 5677 H 538.939 1.18541 4.04383 0
M  V30 5678 H 537.614 0.317209 3.22142 0
M  V30 5679 H 536.521 2.57767 2.71122 0
M  V30 5680 H 537.854 3.37712 3.58066 0
M  V30 5681 N 539.506 -0.963266 1.24736 0
M  V30 5682 C 540.746 -1.72172 1.10165 0
M  V30 5683 C 541.11 -1.88731 -0.352784 0
M  V30 5684 O 542.311 -2.61549 -0.620107 0
M  V30 5685 C 540.582 -3.0724 1.82589 0
M  V30 5686 S 542.141 -3.98449 1.83803 0
M  V30 5687 H 538.959 -0.591901 0.393922 0
M  V30 5688 H 541.561 -1.14955 1.58132 0
M  V30 5689 H 540.265 -2.92851 2.87518 0
M  V30 5690 H 539.796 -3.69521 1.34973 0
M  V30 5691 H 541.811 -4.87805 0.908883 0
M  V30 5692 N 540.985 -1.06182 -1.16461 0
M  V30 5693 C 541.915 -0.692861 -2.22984 0
M  V30 5694 C 542.896 0.314122 -1.67174 0
M  V30 5695 O 544.081 0.189499 -1.93273 0
M  V30 5696 C 541.211 -0.07732 -3.47214 0
M  V30 5697 C 540.165 -1.01015 -4.15909 0
M  V30 5698 C 539.491 -0.257973 -5.34077 0
M  V30 5699 C 540.791 -2.33868 -4.67015 0
M  V30 5700 H 542.485 -1.58343 -2.54102 0
M  V30 5701 H 540.031 -0.76279 -1.22137 0
M  V30 5702 H 541.984 0.19266 -4.20959 0
M  V30 5703 H 540.708 0.848254 -3.15392 0
M  V30 5704 H 539.367 -1.26486 -3.44088 0
M  V30 5705 H 539.015 0.670684 -4.98509 0
M  V30 5706 H 538.715 -0.879638 -5.80979 0
M  V30 5707 H 540.239 0.00448788 -6.106 0
M  V30 5708 H 541.653 -2.1279 -5.32347 0
M  V30 5709 H 540.05 -2.91522 -5.24533 0
M  V30 5710 H 541.12 -2.97019 -3.83286 0
M  V30 5711 N 542.463 1.3308 -0.844243 0
M  V30 5712 C 543.41 2.29104 -0.279323 0
M  V30 5713 C 544.38 1.54577 0.607882 0
M  V30 5714 O 545.565 1.8285 0.545009 0
M  V30 5715 C 542.705 3.40927 0.53508 0
M  V30 5716 C 541.818 4.30354 -0.376749 0
M  V30 5717 C 540.953 5.29297 0.449276 0
M  V30 5718 C 539.992 6.10365 -0.460606 0
M  V30 5719 N 539.129 7.01335 0.327612 0
M  V30 5720 H 543.969 2.76817 -1.10346 0
M  V30 5721 H 541.506 1.36203 -0.555611 0
M  V30 5722 H 543.464 4.04469 1.02278 0
M  V30 5723 H 542.094 2.94391 1.32414 0
M  V30 5724 H 541.146 3.67485 -0.982791 0
M  V30 5725 H 542.458 4.87067 -1.07549 0
M  V30 5726 H 541.612 5.98392 1.00058 0
M  V30 5727 H 540.351 4.73174 1.18143 0
M  V30 5728 H 539.356 5.40182 -1.02388 0
M  V30 5729 H 540.581 6.68571 -1.1912 0
M  V30 5730 H 538.527 6.47655 1.04305 0
M  V30 5731 H 538.444 7.55355 -0.3123 0
M  V30 5732 H 539.712 7.74731 0.86098 0
M  V30 5733 N 543.941 0.601185 1.45683 0
M  V30 5734 C 545.169 0.100054 2.06658 0
M  V30 5735 C 545.584 -1.21285 1.44691 0
M  V30 5736 O 544.941 -1.73735 0.558772 0
M  V30 5737 C 544.992 -0.0528579 3.61461 0
M  V30 5738 O 544.713 1.20809 4.21114 0
M  V30 5739 C 546.214 -0.586193 4.39407 0
M  V30 5740 H 543.434 0.065905 0.667756 0
M  V30 5741 H 545.978 0.827101 1.87028 0
M  V30 5742 H 544.133 -0.730203 3.80456 0
M  V30 5743 H 544.547 1.03368 5.14213 0
M  V30 5744 H 546.021 -0.642297 5.4825 0
M  V30 5745 H 546.498 -1.60713 4.0874 0
M  V30 5746 H 547.104 0.0568935 4.25262 0
M  V30 5747 N 545.419 -1.53889 0.339982 0
M  V30 5748 C 546.366 -2.24902 -0.518452 0
M  V30 5749 C 547.336 -1.24593 -1.09844 0
M  V30 5750 O 548.521 -1.53317 -1.13572 0
M  V30 5751 C 545.661 -3.02262 -1.66529 0
M  V30 5752 C 544.774 -4.17418 -1.11295 0
M  V30 5753 C 543.909 -4.82273 -2.2268 0
M  V30 5754 C 542.948 -5.89503 -1.6478 0
M  V30 5755 N 542.085 -6.48153 -2.69893 0
M  V30 5756 H 546.925 -2.97853 0.0936579 0
M  V30 5757 H 544.462 -1.46986 0.0579924 0
M  V30 5758 H 546.42 -3.45371 -2.3404 0
M  V30 5759 H 545.05 -2.31614 -2.24844 0
M  V30 5760 H 544.102 -3.78976 -0.328886 0
M  V30 5761 H 545.414 -4.94554 -0.649414 0
M  V30 5762 H 544.568 -5.28435 -2.98063 0
M  V30 5763 H 543.307 -4.04552 -2.72376 0
M  V30 5764 H 542.312 -5.42728 -0.879004 0
M  V30 5765 H 543.537 -6.6913 -1.1594 0
M  V30 5766 H 541.483 -5.73298 -3.1885 0
M  V30 5767 H 541.4 -7.20752 -2.28151 0
M  V30 5768 H 542.668 -6.98968 -3.45056 0
M  V30 5769 N 546.897 -0.0685191 -1.57451 0
M  V30 5770 C 548.122 0.613919 -1.98106 0
M  V30 5771 C 548.547 1.62551 -0.946501 0
M  V30 5772 O 547.905 1.81085 0.0882824 0
M  V30 5773 C 547.953 1.26189 -3.378 0
M  V30 5774 O 547.057 2.37773 -3.36954 0
M  V30 5775 H 546.398 0.158163 -0.644888 0
M  V30 5776 H 548.928 -0.142063 -2.04106 0
M  V30 5777 H 548.938 1.60951 -3.74912 0
M  V30 5778 H 547.613 0.520625 -4.12629 0
M  V30 5779 H 546.19 2.04829 -3.11608 0
M  V30 5780 N 548.375 1.56261 0.205012 0
M  V30 5781 C 549.621 1.80306 0.9283 0
M  V30 5782 C 549.954 0.640932 1.83319 0
M  V30 5783 O 549.229 -0.359032 1.91158 0
M  V30 5784 C 549.512 3.14547 1.75306 0
M  V30 5785 C 549.365 4.41236 0.873562 0
M  V30 5786 C 550.684 3.45382 2.72762 0
M  V30 5787 H 547.803 0.655929 0.336044 0
M  V30 5788 H 550.445 1.88984 0.196211 0
M  V30 5789 H 548.595 3.0728 2.37721 0
M  V30 5790 H 550.267 4.60539 0.264887 0
M  V30 5791 H 548.51 4.33427 0.179773 0
M  V30 5792 H 549.181 5.31639 1.48541 0
M  V30 5793 H 551.657 3.52884 2.20481 0
M  V30 5794 H 550.533 4.40449 3.2756 0
M  V30 5795 H 550.794 2.68377 3.51321 0
M  V30 5796 N 549.853 -0.472356 1.50355 0
M  V30 5797 C 551.081 -1.24784 1.65035 0
M  V30 5798 C 551.496 -1.85837 0.333176 0
M  V30 5799 O 550.853 -1.69168 -0.68472 0
M  V30 5800 C 550.904 -2.35747 2.74054 0
M  V30 5801 O 550.625 -1.77197 4.00665 0
M  V30 5802 C 552.126 -3.26645 2.99696 0
M  V30 5803 H 549.346 -0.377432 0.554785 0
M  V30 5804 H 551.89 -0.563962 1.9657 0
M  V30 5805 H 550.045 -2.99912 2.45217 0
M  V30 5806 H 550.459 -2.5026 4.60945 0
M  V30 5807 H 551.933 -4.00718 3.79644 0
M  V30 5808 H 552.41 -3.8535 2.10718 0
M  V30 5809 H 553.016 -2.68218 3.3006 0
M  V30 5810 N 551.331 -1.39911 -0.725443 0
M  V30 5811 C 552.58 -1.36963 -1.48068 0
M  V30 5812 C 552.893 0.0284478 -1.95579 0
M  V30 5813 O 554.099 0.180535 -2.70899 0
M  V30 5814 C 552.555 -2.40664 -2.67598 0
M  V30 5815 C 552.163 -3.86234 -2.26997 0
M  V30 5816 C 553.907 -2.46807 -3.45379 0
M  V30 5817 C 551.814 -4.81554 -3.43307 0
M  V30 5818 H 550.744 -0.509223 -0.556065 0
M  V30 5819 H 553.395 -1.65602 -0.790454 0
M  V30 5820 H 551.777 -2.05109 -3.38742 0
M  V30 5821 H 552.951 -4.3088 -1.63337 0
M  V30 5822 H 551.266 -3.83475 -1.62284 0
M  V30 5823 H 553.863 -3.15213 -4.31909 0
M  V30 5824 H 554.206 -1.49552 -3.8851 0
M  V30 5825 H 554.739 -2.81303 -2.81271 0
M  V30 5826 H 551.478 -5.80106 -3.05217 0
M  V30 5827 H 550.998 -4.4158 -4.05915 0
M  V30 5828 H 552.677 -5.0091 -4.0951 0
M  V30 5829 N 552.809 0.956637 -1.25245 0
M  V30 5830 C 554.058 1.69537 -1.0927 0
M  V30 5831 C 554.371 1.92136 0.366503 0
M  V30 5832 O 555.577 2.63687 0.64665 0
M  V30 5833 C 554.033 3.05211 -1.9072 0
M  V30 5834 C 553.641 2.90416 -3.41119 0
M  V30 5835 C 555.385 3.82882 -1.83308 0
M  V30 5836 C 553.292 4.21468 -4.14872 0
M  V30 5837 H 552.222 0.635804 -0.405302 0
M  V30 5838 H 554.873 1.06513 -1.49423 0
M  V30 5839 H 553.255 3.69128 -1.43389 0
M  V30 5840 H 554.429 2.35444 -3.9611 0
M  V30 5841 H 552.744 2.26203 -3.49602 0
M  V30 5842 H 555.341 4.79944 -2.35706 0
M  V30 5843 H 555.684 4.0853 -0.800572 0
M  V30 5844 H 556.217 3.25711 -2.28379 0
M  V30 5845 H 552.956 4.01009 -5.18529 0
M  V30 5846 H 552.476 4.76213 -3.64665 0
M  V30 5847 H 554.155 4.90022 -4.22478 0
M  V30 5848 N 554.287 1.06798 1.15896 0
M  V30 5849 C 555.217 0.704677 2.22613 0
M  V30 5850 C 556.198 -0.305252 1.67339 0
M  V30 5851 O 557.383 -0.179247 1.93371 0
M  V30 5852 C 554.513 0.0957325 3.47168 0
M  V30 5853 C 553.467 1.0322 4.15367 0
M  V30 5854 C 552.793 0.286293 5.33933 0
M  V30 5855 C 554.093 2.36341 4.65768 0
M  V30 5856 H 555.787 1.59688 2.53259 0
M  V30 5857 H 553.333 0.769257 1.21731 0
M  V30 5858 H 555.286 -0.170333 4.21056 0
M  V30 5859 H 554.01 -0.831516 3.15838 0
M  V30 5860 H 552.669 1.28309 3.43413 0
M  V30 5861 H 552.317 -0.644237 4.98857 0
M  V30 5862 H 552.017 0.910436 5.80504 0
M  V30 5863 H 553.541 0.0278938 6.10594 0
M  V30 5864 H 554.955 2.1561 5.31211 0
M  V30 5865 H 553.352 2.94299 5.2298 0
M  V30 5866 H 554.422 2.99047 3.81705 0
M  V30 5867 N 555.766 -1.3263 0.851289 0
M  V30 5868 C 557.182 -1.50162 0.5407 0
M  V30 5869 C 557.382 -1.78788 -0.929369 0
M  V30 5870 O 556.438 -1.85545 -1.71258 0
M  V30 5871 C 557.751 -2.64803 1.42478 0
M  V30 5872 C 559.299 -2.78688 1.42485 0
M  V30 5873 C 559.774 -3.96405 2.29407 0
M  V30 5874 N 561.265 -4.0366 2.27184 0
M  V30 5875 C 562 -4.93971 2.9117 0
M  V30 5876 N 561.496 -5.89313 3.64256 0
M  V30 5877 N 563.289 -4.87066 2.80576 0
M  V30 5878 H 555.44 -1.12315 1.80275 0
M  V30 5879 H 557.703 -0.553266 0.769806 0
M  V30 5880 H 557.409 -2.50368 2.46999 0
M  V30 5881 H 557.283 -3.60506 1.10974 0
M  V30 5882 H 559.67 -2.92547 0.387304 0
M  V30 5883 H 559.751 -1.83708 1.78002 0
M  V30 5884 H 559.395 -3.83304 3.33228 0
M  V30 5885 H 559.325 -4.90654 1.91224 0
M  V30 5886 H 561.816 -3.35435 1.74045 0
M  V30 5887 H 562.129 -6.54913 4.10255 0
M  V30 5888 H 560.474 -5.8935 3.68364 0
M  V30 5889 H 563.665 -4.11552 2.23031 0
M  V30 5890 H 563.838 -5.57248 3.30725 0
M  V30 5891 N 557.244 -0.608902 -1.45362 0
M  V30 5892 C 558.492 -0.104401 -2.0183 0
M  V30 5893 C 558.813 1.27007 -1.47967 0
M  V30 5894 O 558.083 1.83924 -0.674455 0
M  V30 5895 H 556.663 -0.0356042 -0.746151 0
M  V30 5896 H 559.325 -0.790596 -1.78145 0
M  V30 5897 H 558.421 -0.0551793 -3.12051 0
M  V30 5898 N 558.722 1.53707 -0.348139 0
M  V30 5899 C 559.97 2.00591 0.246478 0
M  V30 5900 C 560.291 1.23753 1.50699 0
M  V30 5901 O 559.561 0.345964 1.92821 0
M  V30 5902 H 558.141 0.741053 0.0940679 0
M  V30 5903 H 560.803 1.89139 -0.470354 0
M  V30 5904 H 559.899 3.08297 0.485714 0
M  V30 5905 N 560.2 0.0768682 1.57412 0
M  V30 5906 C 561.163 -0.873949 2.11884 0
M  V30 5907 C 562.163 -1.22301 1.04398 0
M  V30 5908 O 563.353 -1.15545 1.30365 0
M  V30 5909 C 560.485 -2.17575 2.62438 0
M  V30 5910 H 561.678 -0.401278 2.97203 0
M  V30 5911 H 559.231 -0.171904 1.55352 0
M  V30 5912 H 559.966 -2.69368 1.80587 0
M  V30 5913 H 559.751 -1.93534 3.41009 0
M  V30 5914 H 561.241 -2.85631 3.04639 0
M  V30 5915 N 561.678 -1.56367 -0.196722 0
M  V30 5916 C 562.625 -1.94417 -1.24382 0
M  V30 5917 C 563.595 -0.804543 -1.45315 0
M  V30 5918 O 564.78 -1.06256 -1.58475 0
M  V30 5919 C 561.92 -2.28757 -2.58388 0
M  V30 5920 C 561.033 -3.55775 -2.45047 0
M  V30 5921 C 560.168 -3.79445 -3.71746 0
M  V30 5922 C 559.207 -4.99894 -3.53231 0
M  V30 5923 N 558.344 -5.19826 -4.71938 0
M  V30 5924 H 563.184 -2.83691 -0.912338 0
M  V30 5925 H 560.721 -1.40392 -0.439135 0
M  V30 5926 H 562.679 -2.46682 -3.36457 0
M  V30 5927 H 561.309 -1.42625 -2.89582 0
M  V30 5928 H 560.361 -3.45905 -1.58284 0
M  V30 5929 H 561.673 -4.44 -2.27299 0
M  V30 5930 H 560.827 -3.97601 -4.58256 0
M  V30 5931 H 559.566 -2.89546 -3.92446 0
M  V30 5932 H 558.571 -4.81662 -2.65107 0
M  V30 5933 H 559.796 -5.913 -3.33978 0
M  V30 5934 H 557.742 -4.32875 -4.92905 0
M  V30 5935 H 557.659 -6.02228 -4.57009 0
M  V30 5936 H 558.927 -5.42439 -5.59803 0
M  V30 5937 N 563.156 0.464375 -1.50603 0
M  V30 5938 C 564.088 1.57916 -1.66118 0
M  V30 5939 C 565.101 1.53497 -0.54246 0
M  V30 5940 O 566.29 1.58763 -0.815877 0
M  V30 5941 C 563.39 2.96809 -1.63577 0
M  V30 5942 C 562.563 3.26026 -2.91592 0
M  V30 5943 C 561.622 4.44506 -2.81604 0
M  V30 5944 O 560.648 4.44484 -3.55559 0
M  V30 5945 N 561.85 5.46549 -1.95614 0
M  V30 5946 H 564.615 1.45022 -2.62276 0
M  V30 5947 H 562.176 0.652903 -1.48151 0
M  V30 5948 H 564.168 3.74048 -1.54499 0
M  V30 5949 H 562.738 3.03438 -0.751262 0
M  V30 5950 H 561.958 2.37337 -3.14746 0
M  V30 5951 H 563.246 3.42361 -3.76386 0
M  V30 5952 H 562.644 5.49391 -1.34854 0
M  V30 5953 H 561.201 6.22746 -1.92435 0
M  V30 5954 N 564.634 1.40294 0.718013 0
M  V30 5955 C 565.881 1.3844 1.47786 0
M  V30 5956 C 566.209 -0.0140838 1.94495 0
M  V30 5957 O 565.464 -0.998165 1.68331 0
M  V30 5958 C 565.763 2.31814 2.72024 0
M  V30 5959 C 565.429 3.79117 2.44093 0
M  V30 5960 C 564.091 4.19249 2.36185 0
M  V30 5961 C 566.443 4.72212 2.20602 0
M  V30 5962 C 563.771 5.50516 2.02851 0
M  V30 5963 C 566.123 6.03775 1.88781 0
M  V30 5964 C 564.787 6.42953 1.79354 0
M  V30 5965 H 564.057 0.506588 0.540786 0
M  V30 5966 H 566.704 1.72929 0.822663 0
M  V30 5967 H 565.009 1.90501 3.42369 0
M  V30 5968 H 566.706 2.27664 3.30106 0
M  V30 5969 H 563.296 3.47318 2.51133 0
M  V30 5970 H 567.48 4.42026 2.25669 0
M  V30 5971 H 562.736 5.79776 1.94088 0
M  V30 5972 H 566.91 6.75428 1.69617 0
M  V30 5973 H 564.537 7.44584 1.53291 0
M  V30 5974 N 566.112 -0.949982 1.2575 0
M  V30 5975 C 567.361 -1.68956 1.10168 0
M  V30 5976 C 567.674 -1.92327 -0.356309 0
M  V30 5977 O 568.88 -2.64026 -0.632657 0
M  V30 5978 C 567.336 -3.04196 1.92336 0
M  V30 5979 C 566.944 -2.88603 3.42655 0
M  V30 5980 C 568.688 -3.81904 1.85336 0
M  V30 5981 C 566.595 -4.19262 4.17101 0
M  V30 5982 H 565.525 -0.633645 0.408668 0
M  V30 5983 H 568.176 -1.05719 1.49986 0
M  V30 5984 H 566.558 -3.68363 1.45344 0
M  V30 5985 H 567.732 -2.3334 3.97353 0
M  V30 5986 H 566.047 -2.24345 3.50796 0
M  V30 5987 H 568.644 -4.78688 2.38248 0
M  V30 5988 H 568.987 -4.08099 0.822226 0
M  V30 5989 H 569.52 -3.24495 2.30104 0
M  V30 5990 H 566.259 -3.98254 5.20648 0
M  V30 5991 H 565.779 -4.74273 3.67186 0
M  V30 5992 H 567.458 -4.87775 4.25071 0
M  V30 5993 N 567.59 -1.07411 -1.15328 0
M  V30 5994 C 568.5 -0.706438 -2.23711 0
M  V30 5995 C 569.516 0.282586 -1.7169 0
M  V30 5996 O 570.692 0.129066 -2.00986 0
M  V30 5997 C 567.757 -0.11048 -3.46524 0
M  V30 5998 C 566.818 -1.15282 -4.13532 0
M  V30 5999 C 566.051 -0.585205 -5.30482 0
M  V30 6000 O 566.274 0.598549 -5.67251 0
M  V30 6001 O 565.208 -1.33039 -5.87013 0
M  V30 6002 H 569.034 -1.61031 -2.57493 0
M  V30 6003 H 566.619 -0.847113 -1.23062 0
M  V30 6004 H 568.501 0.21957 -4.20828 0
M  V30 6005 H 567.176 0.766703 -3.14489 0
M  V30 6006 H 566.083 -1.53523 -3.41147 0
M  V30 6007 H 567.416 -2.00192 -4.49649 0
M  V30 6008 N 569.068 1.32177 -0.85831 0
M  V30 6009 C 569.978 2.32561 -0.308606 0
M  V30 6010 C 570.994 1.64209 0.575462 0
M  V30 6011 O 572.17 1.95719 0.474961 0
M  V30 6012 C 569.235 3.43207 0.490909 0
M  V30 6013 C 568.296 4.27243 -0.419733 0
M  V30 6014 C 567.529 5.32605 0.341719 0
M  V30 6015 O 567.752 5.48332 1.57125 0
M  V30 6016 O 566.686 6.0118 -0.294379 0
M  V30 6017 H 570.512 2.81477 -1.14037 0
M  V30 6018 H 568.097 1.35866 -0.621349 0
M  V30 6019 H 569.979 4.10677 0.944574 0
M  V30 6020 H 568.654 2.96474 1.29941 0
M  V30 6021 H 567.561 3.62569 -0.921652 0
M  V30 6022 H 568.894 4.7751 -1.19352 0
M  V30 6023 N 570.547 0.616602 1.45037 0
M  V30 6024 C 571.793 0.115501 2.02471 0
M  V30 6025 C 572.126 -1.25406 1.4828 0
M  V30 6026 O 571.401 -1.82922 0.661051 0
M  V30 6027 C 571.684 0.0863588 3.59996 0
M  V30 6028 C 571.537 1.48723 4.24501 0
M  V30 6029 C 572.856 -0.596762 4.36035 0
M  V30 6030 H 569.975 0.0434461 0.735718 0
M  V30 6031 H 572.617 0.7903 1.72784 0
M  V30 6032 H 570.767 -0.488277 3.85419 0
M  V30 6033 H 572.439 2.10964 4.10234 0
M  V30 6034 H 570.682 2.04534 3.82555 0
M  V30 6035 H 571.353 1.419 5.3345 0
M  V30 6036 H 573.829 -0.10824 4.15959 0
M  V30 6037 H 572.705 -0.586289 5.4576 0
M  V30 6038 H 572.966 -1.66451 4.09569 0
M  V30 6039 N 572.025 -1.5352 0.356285 0
M  V30 6040 C 572.935 -2.29151 -0.502712 0
M  V30 6041 C 573.951 -1.34753 -1.1008 0
M  V30 6042 O 575.127 -1.67803 -1.11374 0
M  V30 6043 C 572.192 -3.05911 -1.63154 0
M  V30 6044 C 571.253 -4.15958 -1.06194 0
M  V30 6045 C 570.486 -4.8905 -2.13696 0
M  V30 6046 O 570.709 -4.61919 -3.34645 0
M  V30 6047 O 569.643 -5.75202 -1.77275 0
M  V30 6048 H 573.469 -3.03492 0.112466 0
M  V30 6049 H 571.054 -1.4891 0.120942 0
M  V30 6050 H 572.936 -3.53874 -2.28804 0
M  V30 6051 H 571.611 -2.34415 -2.23229 0
M  V30 6052 H 570.518 -3.7227 -0.369603 0
M  V30 6053 H 571.851 -4.89593 -0.505872 0
M  V30 6054 N 573.503 -0.0852151 -1.57369 0
M  V30 6055 C 574.919 0.271436 -1.57275 0
M  V30 6056 C 575.119 1.69109 -1.09565 0
M  V30 6057 O 574.175 2.40549 -0.767611 0
M  V30 6058 C 575.488 0.0688638 -3.00621 0
M  V30 6059 C 577.036 0.137373 -3.12698 0
M  V30 6060 C 577.511 -0.0370832 -4.57985 0
M  V30 6061 N 579.002 0.0180794 -4.63196 0
M  V30 6062 C 579.737 -0.0922953 -5.73326 0
M  V30 6063 N 579.233 -0.256948 -6.92323 0
M  V30 6064 N 581.026 -0.0342702 -5.6209 0
M  V30 6065 H 573.177 -1.01288 -1.86693 0
M  V30 6066 H 575.44 -0.396138 -0.861266 0
M  V30 6067 H 575.146 -0.911277 -3.39689 0
M  V30 6068 H 575.02 0.815442 -3.6828 0
M  V30 6069 H 577.407 1.10801 -2.73509 0
M  V30 6070 H 577.488 -0.640532 -2.47651 0
M  V30 6071 H 577.132 -1.00455 -4.97867 0
M  V30 6072 H 577.062 0.760392 -5.21081 0
M  V30 6073 H 579.553 0.143202 -3.77629 0
M  V30 6074 H 579.866 -0.332949 -7.72082 0
M  V30 6075 H 578.211 -0.292487 -6.94384 0
M  V30 6076 H 581.402 0.0931605 -4.68007 0
M  V30 6077 H 581.575 -0.12374 -6.47882 0
M  V30 6078 N 574.981 1.5647 0.188427 0
M  V30 6079 C 576.206 1.85486 0.927891 0
M  V30 6080 C 576.631 0.669575 1.75779 0
M  V30 6081 O 575.989 -0.381573 1.77239 0
M  V30 6082 C 576.037 3.12784 1.7944 0
M  V30 6083 O 575.141 2.93805 2.894 0
M  V30 6084 H 574.482 0.610585 0.260925 0
M  V30 6085 H 577.012 2.037 0.191729 0
M  V30 6086 H 577.022 3.43749 2.19774 0
M  V30 6087 H 575.697 3.98671 1.18468 0
M  V30 6088 H 574.274 2.74153 2.52774 0
M  V30 6089 N 576.459 -0.456382 1.50847 0
M  V30 6090 C 577.708 -1.2042 1.61808 0
M  V30 6091 C 578.021 -1.9278 0.330932 0
M  V30 6092 O 579.227 -2.69612 0.319643 0
M  V30 6093 C 577.683 -2.18891 2.85683 0
M  V30 6094 C 577.291 -1.52267 4.2133 0
M  V30 6095 C 579.035 -2.94224 3.05994 0
M  V30 6096 C 576.942 -2.4911 5.36375 0
M  V30 6097 H 575.872 -0.453177 0.602616 0
M  V30 6098 H 578.523 -0.473144 1.77295 0
M  V30 6099 H 576.905 -2.95351 2.63787 0
M  V30 6100 H 578.079 -0.814949 4.53536 0
M  V30 6101 H 576.394 -0.891594 4.06743 0
M  V30 6102 H 578.991 -3.66732 3.89117 0
M  V30 6103 H 579.334 -3.54469 2.18306 0
M  V30 6104 H 579.867 -2.24874 3.28141 0
M  V30 6105 H 576.606 -1.93582 6.26264 0
M  V30 6106 H 576.126 -3.17991 5.08569 0
M  V30 6107 H 577.805 -3.10637 5.67551 0
M  V30 6108 N 577.937 -1.40673 -0.710563 0
M  V30 6109 C 578.885 -1.41517 -1.84596 0
M  V30 6110 C 579.879 -0.295043 -1.66811 0
M  V30 6111 O 581.085 -0.466331 -1.73854 0
M  V30 6112 H 577.46 -0.442467 -0.608052 0
M  V30 6113 H 579.431 -2.37238 -1.80999 0
M  V30 6114 C 578.18 -1.29957 -3.225 0
M  V30 6115 H 577.503 -2.15429 -3.36794 0
M  V30 6116 H 578.943 -1.34608 -4.02066 0
M  V30 6117 C 577.402 -0.0103164 -3.36898 0
M  V30 6118 O 577.932 0.950707 -3.90288 0
M  V30 6119 N 576.138 0.0608409 -2.90536 0
M  V30 6120 H 575.685 -0.721943 -2.47277 0
M  V30 6121 H 575.643 0.92292 -3.00549 0
M  V30 6122 N 579.415 0.9433 -1.26252 0
M  V30 6123 C 580.692 1.66639 -1.02424 0
M  V30 6124 C 581.072 2.06335 0.446006 0
M  V30 6125 O 580.42 1.78551 1.42589 0
M  V30 6126 C 580.63 2.88019 -1.97094 0
M  V30 6127 C 581.978 3.59718 -2.25584 0
M  V30 6128 O 583.002 2.9812 -1.94943 0
M  V30 6129 O 581.861 4.7066 -2.77743 0
M  V30 6130 H 578.955 0.729643 -0.389294 0
M  V30 6131 H 581.501 0.995218 -1.37454 0
M  V30 6132 H 580.273 2.5556 -2.96319 0
M  V30 6133 H 579.896 3.62863 -1.62532 0
M  V30 6134 N 580.893 1.08022 1.14757 0
M  V30 6135 C 581.856 0.71048 2.1791 0
M  V30 6136 C 582.856 -0.252731 1.58801 0
M  V30 6137 O 584.046 -0.0327915 1.74169 0
M  V30 6138 C 581.178 0.0483203 3.40866 0
M  V30 6139 H 582.371 1.62384 2.52134 0
M  V30 6140 H 579.924 0.877595 1.29337 0
M  V30 6141 H 580.659 -0.876959 3.12218 0
M  V30 6142 H 580.444 0.741189 3.85031 0
M  V30 6143 H 581.934 -0.195471 4.17142 0
M  V30 6144 N 582.371 -1.3172 0.865308 0
M  V30 6145 C 583.62 -1.96145 0.470098 0
M  V30 6146 C 583.933 -1.69182 -0.981674 0
M  V30 6147 O 585.139 -2.27431 -1.48281 0
M  V30 6148 C 583.595 -3.51129 0.789732 0
M  V30 6149 C 583.203 -3.86938 2.25795 0
M  V30 6150 C 584.947 -4.2197 0.462765 0
M  V30 6151 C 582.854 -5.35012 2.52024 0
M  V30 6152 H 581.784 -0.734105 0.172065 0
M  V30 6153 H 584.435 -1.49959 1.05757 0
M  V30 6154 H 582.817 -3.95781 0.131571 0
M  V30 6155 H 583.991 -3.5326 2.95879 0
M  V30 6156 H 582.306 -3.29149 2.55049 0
M  V30 6157 H 584.903 -5.30904 0.636019 0
M  V30 6158 H 585.246 -4.12005 -0.59645 0
M  V30 6159 H 585.779 -3.82936 1.07727 0
M  V30 6160 H 582.518 -5.50008 3.56611 0
M  V30 6161 H 582.038 -5.70058 1.8653 0
M  V30 6162 H 583.717 -6.0222 2.36515 0
M  V30 6163 N 583.85 -0.624285 -1.44708 0
M  V30 6164 C 584.783 0.133905 -2.27807 0
M  V30 6165 C 585.76 0.857794 -1.38133 0
M  V30 6166 O 586.945 0.863277 -1.6757 0
M  V30 6167 C 584.072 1.19541 -3.16903 0
M  V30 6168 C 583.118 0.572813 -4.22636 0
M  V30 6169 S 583.951 -0.631953 -5.31758 0
M  V30 6170 C 585.106 0.429733 -6.24423 0
M  V30 6171 H 585.34 -0.571072 -2.91764 0
M  V30 6172 H 582.873 -0.412261 -1.48794 0
M  V30 6173 H 584.831 1.80293 -3.68788 0
M  V30 6174 H 583.492 1.87255 -2.5218 0
M  V30 6175 H 582.685 1.37205 -4.84965 0
M  V30 6176 H 582.287 0.0400641 -3.73979 0
M  V30 6177 H 584.579 1.30421 -6.64828 0
M  V30 6178 H 585.522 -0.157804 -7.07924 0
M  V30 6179 H 585.93 0.75256 -5.59461 0
M  V30 6180 N 585.328 1.53329 -0.364422 0
M  V30 6181 C 586.577 2.00421 0.226747 0
M  V30 6182 C 586.89 1.25581 1.49963 0
M  V30 6183 O 588.096 1.63256 2.16933 0
M  V30 6184 C 586.552 3.57017 0.454618 0
M  V30 6185 C 586.16 4.40734 -0.803568 0
M  V30 6186 C 587.904 4.12468 1.00351 0
M  V30 6187 C 585.811 5.8888 -0.545345 0
M  V30 6188 H 584.741 0.748787 0.0885082 0
M  V30 6189 H 587.392 1.7703 -0.482983 0
M  V30 6190 H 585.774 3.76558 1.22558 0
M  V30 6191 H 586.948 4.32967 -1.57723 0
M  V30 6192 H 585.263 3.96381 -1.27559 0
M  V30 6193 H 587.86 5.20783 1.212 0
M  V30 6194 H 588.203 3.6699 1.9653 0
M  V30 6195 H 588.736 3.96721 0.29274 0
M  V30 6196 H 585.475 6.38633 -1.47743 0
M  V30 6197 H 584.995 5.99499 0.189842 0
M  V30 6198 H 586.674 6.46776 -0.170425 0
M  V30 6199 N 586.806 0.0935595 1.57322 0
M  V30 6200 C 588.052 -0.571355 1.94585 0
M  V30 6201 C 588.385 -1.67929 0.975366 0
M  V30 6202 O 587.66 -1.94498 0.00816206 0
M  V30 6203 C 587.943 -1.12797 3.41978 0
M  V30 6204 C 587.796 -0.0251881 4.49793 0
M  V30 6205 C 589.115 -2.02682 3.90651 0
M  V30 6206 H 586.234 -0.206223 0.70756 0
M  V30 6207 H 588.876 0.163956 1.89291 0
M  V30 6208 H 587.026 -1.75461 3.4662 0
M  V30 6209 H 588.698 0.608979 4.57263 0
M  V30 6210 H 586.941 0.641399 4.29032 0
M  V30 6211 H 587.612 -0.455433 5.50118 0
M  V30 6212 H 590.088 -1.49925 3.88152 0
M  V30 6213 H 588.964 -2.38555 4.94351 0
M  V30 6214 H 589.225 -2.94362 3.29854 0
M  V30 6215 N 588.284 -1.56567 -0.180126 0
M  V30 6216 C 589.214 -1.98753 -1.22553 0
M  V30 6217 C 590.195 -0.86175 -1.46656 0
M  V30 6218 O 591.38 -1.12719 -1.58139 0
M  V30 6219 C 588.51 -2.33988 -2.56645 0
M  V30 6220 C 587.464 -3.49445 -2.47128 0
M  V30 6221 C 586.79 -3.70397 -3.8563 0
M  V30 6222 C 588.09 -4.83171 -1.98352 0
M  V30 6223 H 589.784 -2.86332 -0.874896 0
M  V30 6224 H 587.33 -1.37757 -0.419414 0
M  V30 6225 H 589.283 -2.62097 -3.29974 0
M  V30 6226 H 588.007 -1.43309 -2.93479 0
M  V30 6227 H 586.666 -3.2145 -1.76254 0
M  V30 6228 H 586.314 -2.77023 -4.19842 0
M  V30 6229 H 586.014 -4.48077 -3.80132 0
M  V30 6230 H 587.538 -4.00897 -4.60558 0
M  V30 6231 H 588.952 -5.10213 -2.61449 0
M  V30 6232 H 587.349 -5.64425 -2.03823 0
M  V30 6233 H 588.419 -4.75753 -0.937402 0
M  V30 6234 N 589.762 0.448376 -1.51087 0
M  V30 6235 C 591.178 0.783984 -1.39017 0
M  V30 6236 C 591.378 1.96087 -0.463904 0
M  V30 6237 O 590.434 2.52357 0.0850534 0
M  V30 6238 C 591.747 1.07471 -2.80839 0
M  V30 6239 C 593.295 1.17981 -2.89913 0
M  V30 6240 C 593.77 1.50354 -4.32617 0
M  V30 6241 N 595.261 1.57301 -4.35673 0
M  V30 6242 C 595.996 1.839 -5.4311 0
M  V30 6243 N 595.492 2.08365 -6.60724 0
M  V30 6244 N 597.285 1.8559 -5.30578 0
M  V30 6245 H 589.436 -0.326881 -2.0987 0
M  V30 6246 H 591.699 -0.0838006 -0.944289 0
M  V30 6247 H 591.405 0.282768 -3.50561 0
M  V30 6248 H 591.279 2.00519 -3.19487 0
M  V30 6249 H 593.666 1.9624 -2.20395 0
M  V30 6250 H 593.747 0.228603 -2.54776 0
M  V30 6251 H 593.391 0.726273 -5.0268 0
M  V30 6252 H 593.321 2.46663 -4.65258 0
M  V30 6253 H 595.812 1.40342 -3.50874 0
M  V30 6254 H 596.125 2.27999 -7.38401 0
M  V30 6255 H 594.47 2.0571 -6.63859 0
M  V30 6256 H 597.661 1.65989 -4.37682 0
M  V30 6257 H 597.834 2.05983 -6.1439 0
M  V30 6258 N 591.24 1.41047 0.703093 0
M  V30 6259 C 592.48 1.41461 1.4754 0
M  V30 6260 C 592.844 0.0199013 1.9199 0
M  V30 6261 O 594.045 -0.101138 2.6861 0
M  V30 6262 C 592.316 2.38703 2.66 0
M  V30 6263 S 593.875 2.57582 3.55242 0
M  V30 6264 H 590.693 0.501226 0.504275 0
M  V30 6265 H 593.295 1.77422 0.821074 0
M  V30 6266 H 591.999 3.3885 2.31536 0
M  V30 6267 H 591.53 2.04069 3.36333 0
M  V30 6268 H 593.545 1.83758 4.6092 0
M  V30 6269 N 592.718 -0.936591 1.26751 0
M  V30 6270 C 593.967 -1.67778 1.11953 0
M  V30 6271 C 594.28 -1.92694 -0.33589 0
M  V30 6272 O 595.486 -2.64682 -0.604618 0
M  V30 6273 C 593.942 -3.02138 1.95551 0
M  V30 6274 C 593.55 -2.84953 3.45696 0
M  V30 6275 C 595.294 -3.79917 1.89377 0
M  V30 6276 C 593.201 -4.14814 4.21525 0
M  V30 6277 H 592.131 -0.629275 0.415366 0
M  V30 6278 H 594.782 -1.04122 1.51099 0
M  V30 6279 H 593.164 -3.668 1.49243 0
M  V30 6280 H 594.338 -2.29112 3.99805 0
M  V30 6281 H 592.653 -2.20612 3.53156 0
M  V30 6282 H 595.25 -4.76134 2.43312 0
M  V30 6283 H 595.593 -4.07204 0.865464 0
M  V30 6284 H 596.126 -3.22037 2.33532 0
M  V30 6285 H 592.865 -3.92709 5.24843 0
M  V30 6286 H 592.385 -4.70352 3.72195 0
M  V30 6287 H 594.064 -4.83239 4.3022 0
M  V30 6288 N 594.196 -1.08629 -1.14182 0
M  V30 6289 C 595.424 -0.838889 -1.8913 0
M  V30 6290 C 595.839 0.609153 -1.78703 0
M  V30 6291 O 595.196 1.41876 -1.14794 0
M  V30 6292 C 595.247 -1.25477 -3.39025 0
M  V30 6293 O 594.968 -2.64601 -3.49167 0
M  V30 6294 C 596.469 -1.03856 -4.30963 0
M  V30 6295 H 593.689 -0.302377 -0.599007 0
M  V30 6296 H 596.233 -1.44615 -1.44592 0
M  V30 6297 H 594.388 -0.691571 -3.81177 0
M  V30 6298 H 594.802 -2.81922 -4.42289 0
M  V30 6299 H 596.276 -1.37892 -5.345 0
M  V30 6300 H 596.753 0.0242522 -4.39193 0
M  V30 6301 H 597.359 -1.58731 -3.94569 0
M  V30 6302 N 595.674 1.31259 -0.872281 0
M  V30 6303 C 596.622 2.30404 -0.318897 0
M  V30 6304 C 597.616 1.5962 0.567267 0
M  V30 6305 O 598.822 1.74204 0.453111 0
M  V30 6306 H 595.197 0.747243 -0.0844474 0
M  V30 6307 H 597.168 2.74549 -1.16899 0
M  V30 6308 C 595.917 3.44608 0.462683 0
M  V30 6309 H 595.24 3.99248 -0.209936 0
M  V30 6310 H 596.68 4.1609 0.815187 0
M  V30 6311 C 595.139 2.93456 1.65485 0
M  V30 6312 O 595.669 2.92418 2.75417 0
M  V30 6313 N 593.875 2.49628 1.48776 0
M  V30 6314 H 593.422 2.50671 0.593452 0
M  V30 6315 H 593.38 2.15759 2.28682 0
M  V30 6316 N 597.152 0.631951 1.44375 0
M  V30 6317 C 598.377 0.142146 2.06912 0
M  V30 6318 C 598.802 -1.17456 1.4692 0
M  V30 6319 O 598.16 -1.72074 0.570975 0
M  V30 6320 C 598.208 0.0417952 3.60576 0
M  V30 6321 O 597.312 -1.00194 4.00044 0
M  V30 6322 H 596.653 0.0851491 0.658518 0
M  V30 6323 H 599.183 0.868863 1.85235 0
M  V30 6324 H 599.193 -0.148517 4.0773 0
M  V30 6325 H 597.868 1.0031 4.03622 0
M  V30 6326 H 596.445 -0.786131 3.64519 0
M  V30 6327 N 598.631 -1.53133 0.372548 0
M  V30 6328 C 599.541 -2.29671 -0.478379 0
M  V30 6329 C 600.557 -1.35913 -1.08644 0
M  V30 6330 O 601.733 -1.68975 -1.09588 0
M  V30 6331 C 598.798 -3.07625 -1.599 0
M  V30 6332 C 597.859 -4.17061 -1.01776 0
M  V30 6333 C 597.092 -4.91289 -2.08497 0
M  V30 6334 O 597.315 -4.65442 -3.29727 0
M  V30 6335 O 596.249 -5.7705 -1.71164 0
M  V30 6336 H 600.075 -3.03355 0.144649 0
M  V30 6337 H 597.66 -1.48773 0.136729 0
M  V30 6338 H 599.542 -3.56281 -2.25038 0
M  V30 6339 H 598.217 -2.3677 -2.2073 0
M  V30 6340 H 597.124 -3.72641 -0.330098 0
M  V30 6341 H 598.457 -4.90102 -0.453915 0
M  V30 6342 N 600.109 -0.101901 -1.5727 0
M  V30 6343 C 601.358 0.559922 -1.93772 0
M  V30 6344 C 601.671 1.68913 -0.98629 0
M  V30 6345 O 602.877 2.41256 -1.24529 0
M  V30 6346 C 601.333 1.04739 -3.44322 0
M  V30 6347 C 600.941 -0.05243 -4.47969 0
M  V30 6348 C 602.685 1.68157 -3.89774 0
M  V30 6349 C 600.592 0.450781 -5.8968 0
M  V30 6350 H 599.522 0.212931 -0.723309 0
M  V30 6351 H 602.173 -0.179001 -1.82625 0
M  V30 6352 H 600.555 1.84021 -3.50645 0
M  V30 6353 H 601.729 -0.828157 -4.53297 0
M  V30 6354 H 600.044 -0.592202 -4.12167 0
M  V30 6355 H 602.641 2.0689 -4.93052 0
M  V30 6356 H 602.984 2.55338 -3.28798 0
M  V30 6357 H 603.517 0.954453 -3.8618 0
M  V30 6358 H 600.256 -0.38458 -6.54371 0
M  V30 6359 H 599.776 1.19336 -5.87809 0
M  V30 6360 H 601.455 0.917555 -6.40461 0
M  V30 6361 N 601.587 1.56661 0.17182 0
M  V30 6362 C 602.833 1.82235 0.889845 0
M  V30 6363 C 603.166 0.679673 1.81918 0
M  V30 6364 O 602.441 -0.318404 1.91876 0
M  V30 6365 C 602.724 3.18195 1.68595 0
M  V30 6366 C 602.577 4.42989 0.779773 0
M  V30 6367 C 603.896 3.5109 2.65375 0
M  V30 6368 H 601.015 0.66291 0.322056 0
M  V30 6369 H 603.657 1.89358 0.15608 0
M  V30 6370 H 601.807 3.12253 2.3115 0
M  V30 6371 H 603.479 4.60997 0.16714 0
M  V30 6372 H 601.722 4.33711 0.0877964 0
M  V30 6373 H 602.393 5.3467 1.3723 0
M  V30 6374 H 604.869 3.57482 2.12946 0
M  V30 6375 H 603.745 4.47298 3.18144 0
M  V30 6376 H 604.006 2.75768 3.45549 0
M  V30 6377 N 603.065 -0.440357 1.51323 0
M  V30 6378 C 604.476 -1.02032 1.56353 0
M  V30 6379 C 604.827 -1.92382 0.385197 0
M  V30 6380 O 603.952 -2.10583 -0.498373 0
M  V30 6381 C 604.547 -1.85723 2.83359 0
M  V30 6382 C 603.106 -2.38774 2.90971 0
M  V30 6383 C 602.253 -1.17908 2.50984 0
M  V30 6384 H 605.204 -0.221744 1.57143 0
M  V30 6385 H 605.225 -2.71141 2.66951 0
M  V30 6386 H 604.737 -1.19939 3.69102 0
M  V30 6387 H 602.838 -3.08021 2.09651 0
M  V30 6388 H 602.951 -2.71778 3.94555 0
M  V30 6389 H 601.315 -1.52347 2.04114 0
M  V30 6390 H 602.098 -0.537393 3.39068 0
M  V30 6391 N 604.543 -1.41418 -0.695603 0
M  V30 6392 C 605.791 -1.40496 -1.45277 0
M  V30 6393 C 606.112 -0.0149538 -1.94994 0
M  V30 6394 O 605.382 0.9432 -1.71699 0
M  V30 6395 H 603.962 -0.517147 -0.539044 0
M  V30 6396 H 606.624 -1.76656 -0.823321 0
M  V30 6397 H 605.72 -2.09214 -2.31595 0
M  V30 6398 N 606.021 0.929856 -1.27246 0
M  V30 6399 C 606.984 2.01172 -1.09829 0
M  V30 6400 C 607.984 1.60743 -0.0429687 0
M  V30 6401 O 609.174 1.71813 -0.287373 0
M  V30 6402 C 606.306 3.34191 -0.673003 0
M  V30 6403 H 607.499 2.18054 -2.05895 0
M  V30 6404 H 605.052 1.11036 -1.10003 0
M  V30 6405 H 605.787 3.23009 0.289134 0
M  V30 6406 H 605.572 3.64892 -1.43515 0
M  V30 6407 H 607.062 4.13646 -0.573323 0
M  V30 6408 N 607.499 1.09233 1.13605 0
M  V30 6409 C 608.747 0.825525 1.84471 0
M  V30 6410 C 609.068 -0.650702 1.83823 0
M  V30 6411 O 608.338 -1.47204 1.29259 0
M  V30 6412 H 606.918 0.3024 0.683054 0
M  V30 6413 H 609.58 1.38006 1.37624 0
M  V30 6414 H 608.676 1.17727 2.89045 0
M  V30 6415 N 608.977 -1.30795 0.87923 0
M  V30 6416 C 610.202 -2.01063 0.508769 0
M  V30 6417 C 610.627 -1.65508 -0.893803 0
M  V30 6418 O 609.985 -0.868616 -1.59138 0
M  V30 6419 C 610.033 -3.54054 0.683991 0
M  V30 6420 O 609.137 -4.11498 -0.272654 0
M  V30 6421 H 608.478 -0.632786 0.201191 0
M  V30 6422 H 611.008 -1.66776 1.18519 0
M  V30 6423 H 611.018 -4.03845 0.580798 0
M  V30 6424 H 609.693 -3.79271 1.70665 0
M  V30 6425 H 608.27 -3.72695 -0.12364 0
M  V30 6426 N 610.455 -0.639598 -1.44038 0
M  V30 6427 C 611.704 -0.144885 -2.01179 0
M  V30 6428 C 612.017 1.24372 -1.50967 0
M  V30 6429 O 613.223 1.83291 -2.00292 0
M  V30 6430 C 611.679 -0.208244 -3.59297 0
M  V30 6431 C 611.287 -1.59869 -4.18504 0
M  V30 6432 C 613.031 0.229568 -4.23879 0
M  V30 6433 C 610.938 -1.61671 -5.68873 0
M  V30 6434 H 609.868 -0.0504005 -0.752314 0
M  V30 6435 H 612.519 -0.799639 -1.65161 0
M  V30 6436 H 610.901 0.513767 -3.92653 0
M  V30 6437 H 612.075 -2.34496 -3.96671 0
M  V30 6438 H 610.39 -1.98131 -3.66242 0
M  V30 6439 H 612.987 0.235758 -5.3418 0
M  V30 6440 H 613.33 1.25848 -3.96822 0
M  V30 6441 H 613.863 -0.440233 -3.95357 0
M  V30 6442 H 610.602 -2.62427 -6.00677 0
M  V30 6443 H 610.122 -0.913489 -5.92803 0
M  V30 6444 H 611.801 -1.35439 -6.32665 0
M  V30 6445 N 611.933 1.52934 -0.380664 0
M  V30 6446 C 612.843 2.29921 0.466192 0
M  V30 6447 C 613.859 1.36488 1.07922 0
M  V30 6448 O 615.035 1.69553 1.0869 0
M  V30 6449 C 612.1 3.08468 1.58266 0
M  V30 6450 C 611.161 4.17595 0.995627 0
M  V30 6451 C 610.394 4.92387 2.05889 0
M  V30 6452 O 610.617 4.67184 3.27254 0
M  V30 6453 O 609.551 5.77949 1.68102 0
M  V30 6454 H 613.377 3.03274 -0.160735 0
M  V30 6455 H 610.962 1.48698 -0.144617 0
M  V30 6456 H 612.844 3.57469 2.23145 0
M  V30 6457 H 611.519 2.37937 2.19471 0
M  V30 6458 H 610.426 3.72811 0.310332 0
M  V30 6459 H 611.759 4.90336 0.427918 0
M  V30 6460 N 613.412 0.11024 1.57214 0
M  V30 6461 C 614.345 -0.880224 2.1054 0
M  V30 6462 C 615.323 -1.26658 1.01964 0
M  V30 6463 O 616.507 -1.36917 1.29561 0
M  V30 6464 C 613.634 -2.17676 2.59489 0
M  V30 6465 C 612.68 -1.93914 3.79868 0
M  V30 6466 S 613.513 -1.16336 5.2271 0
M  V30 6467 C 614.669 -2.47188 5.75021 0
M  V30 6468 H 614.902 -0.426614 2.94223 0
M  V30 6469 H 612.435 -0.10336 1.54054 0
M  V30 6470 H 614.393 -2.92175 2.88347 0
M  V30 6471 H 613.054 -2.60156 1.76005 0
M  V30 6472 H 612.247 -2.8996 4.12236 0
M  V30 6473 H 611.849 -1.27539 3.51582 0
M  V30 6474 H 614.141 -3.43079 5.84211 0
M  V30 6475 H 615.084 -2.19377 6.7326 0
M  V30 6476 H 615.492 -2.56154 5.03036 0
M  V30 6477 N 614.89 -1.56749 -0.16351 0
M  V30 6478 C 615.822 -1.93587 -1.22705 0
M  V30 6479 C 616.835 -0.829824 -1.40063 0
M  V30 6480 O 618.024 -1.10826 -1.39928 0
M  V30 6481 C 615.124 -2.1803 -2.59454 0
M  V30 6482 C 614.297 -3.4928 -2.63292 0
M  V30 6483 C 613.356 -3.62457 -3.8146 0
M  V30 6484 O 612.382 -4.35004 -3.67096 0
M  V30 6485 N 613.584 -2.97888 -4.9824 0
M  V30 6486 H 616.349 -2.8542 -0.914081 0
M  V30 6487 H 613.91 -1.58 -0.353214 0
M  V30 6488 H 615.902 -2.24102 -3.36987 0
M  V30 6489 H 614.472 -1.32543 -2.8311 0
M  V30 6490 H 613.692 -3.54795 -1.71796 0
M  V30 6491 H 614.98 -4.35632 -2.62873 0
M  V30 6492 H 614.378 -2.38833 -5.12811 0
M  V30 6493 H 612.935 -3.09545 -5.73607 0
M  V30 6494 N 616.368 0.432326 -1.51554 0
M  V30 6495 C 617.298 1.53242 -1.76179 0
M  V30 6496 C 618.279 1.58717 -0.611801 0
M  V30 6497 O 619.464 1.74364 -0.855033 0
M  V30 6498 C 616.594 2.91278 -1.89141 0
M  V30 6499 C 615.548 3.00663 -3.04608 0
M  V30 6500 C 614.874 4.40728 -3.02759 0
M  V30 6501 C 616.174 2.74281 -4.44485 0
M  V30 6502 H 617.868 1.32886 -2.68294 0
M  V30 6503 H 615.414 0.637841 -1.29103 0
M  V30 6504 H 617.367 3.68203 -2.04951 0
M  V30 6505 H 616.091 3.12877 -0.936785 0
M  V30 6506 H 614.75 2.26179 -2.88511 0
M  V30 6507 H 614.398 4.59301 -2.05065 0
M  V30 6508 H 614.098 4.47936 -3.80299 0
M  V30 6509 H 615.622 5.19619 -3.20669 0
M  V30 6510 H 617.036 3.40936 -4.60907 0
M  V30 6511 H 615.433 2.92893 -5.23769 0
M  V30 6512 H 616.503 1.69856 -4.54177 0
M  V30 6513 N 617.846 1.41785 0.688094 0
M  V30 6514 C 619.071 1.45117 1.48175 0
M  V30 6515 C 619.496 0.060129 1.88004 0
M  V30 6516 O 618.854 -0.938385 1.55126 0
M  V30 6517 C 618.902 2.37224 2.71583 0
M  V30 6518 O 618.006 1.83443 3.69354 0
M  V30 6519 H 617.347 0.492208 0.445676 0
M  V30 6520 H 619.877 1.86329 0.845145 0
M  V30 6521 H 619.887 2.53353 3.19806 0
M  V30 6522 H 618.562 3.38293 2.41931 0
M  V30 6523 H 617.139 1.76802 3.28322 0
M  V30 6524 N 619.324 -0.923095 1.27737 0
M  V30 6525 C 620.271 -2.02432 1.1086 0
M  V30 6526 C 621.241 -1.66098 0.00835195 0
M  V30 6527 O 622.426 -1.90027 0.171542 0
M  V30 6528 C 619.566 -3.36476 0.766671 0
M  V30 6529 C 618.679 -3.85737 1.94501 0
M  V30 6530 C 617.814 -5.08249 1.54455 0
M  V30 6531 C 616.853 -5.49818 2.6901 0
M  V30 6532 N 615.99 -6.63524 2.29521 0
M  V30 6533 H 620.83 -2.16201 2.05089 0
M  V30 6534 H 618.367 -1.05909 1.02087 0
M  V30 6535 H 620.325 -4.13569 0.549223 0
M  V30 6536 H 618.955 -3.22502 -0.13867 0
M  V30 6537 H 618.007 -3.04883 2.27487 0
M  V30 6538 H 619.319 -4.12513 2.80419 0
M  V30 6539 H 618.473 -5.92857 1.28862 0
M  V30 6540 H 617.212 -4.83261 0.656534 0
M  V30 6541 H 616.217 -4.63757 2.95313 0
M  V30 6542 H 617.442 -5.76799 3.5844 0
M  V30 6543 H 615.388 -6.40185 1.43177 0
M  V30 6544 H 615.305 -6.89978 3.08977 0
M  V30 6545 H 616.573 -7.51461 2.07187 0
M  V30 6546 N 620.802 -1.09834 -1.13024 0
M  V30 6547 C 622.032 -0.857657 -1.87957 0
M  V30 6548 C 622.44 0.595008 -1.796 0
M  V30 6549 O 621.783 1.42158 -1.16347 0
M  V30 6550 C 621.845 -1.21949 -3.38185 0
M  V30 6551 C 621.509 -2.67791 -3.7032 0
M  V30 6552 C 622.506 -3.66036 -3.69207 0
M  V30 6553 C 620.191 -3.04019 -3.99847 0
M  V30 6554 C 622.185 -4.98533 -3.9717 0
M  V30 6555 C 619.872 -4.36706 -4.27471 0
M  V30 6556 C 620.87 -5.33772 -4.26118 0
M  V30 6557 O 620.558 -6.64072 -4.53061 0
M  V30 6558 H 620.29 -0.308009 -0.601753 0
M  V30 6559 H 622.844 -1.46496 -1.43973 0
M  V30 6560 H 621.074 -0.555249 -3.82693 0
M  V30 6561 H 622.763 -0.957281 -3.9445 0
M  V30 6562 H 623.529 -3.39392 -3.46465 0
M  V30 6563 H 619.408 -2.29096 -4.00045 0
M  V30 6564 H 622.952 -5.74288 -3.96029 0
M  V30 6565 H 618.849 -4.63091 -4.49685 0
M  V30 6566 H 619.617 -6.69608 -4.7071 0
M  V30 6567 N 622.28 1.30327 -0.886154 0
M  V30 6568 C 623.21 2.30549 -0.370028 0
M  V30 6569 C 624.191 1.61039 0.547751 0
M  V30 6570 O 625.376 1.8864 0.461353 0
M  V30 6571 C 622.506 3.44808 0.415275 0
M  V30 6572 C 621.46 4.26024 -0.41085 0
M  V30 6573 C 620.786 5.32347 0.501128 0
M  V30 6574 C 622.086 4.95433 -1.65359 0
M  V30 6575 H 623.78 2.73969 -1.20754 0
M  V30 6576 H 621.326 1.3171 -0.582097 0
M  V30 6577 H 623.279 4.13986 0.78699 0
M  V30 6578 H 622.003 3.00197 1.28644 0
M  V30 6579 H 620.662 3.58535 -0.764719 0
M  V30 6580 H 620.31 4.83982 1.37004 0
M  V30 6581 H 620.01 5.87581 -0.0478356 0
M  V30 6582 H 621.534 6.0438 0.869333 0
M  V30 6583 H 622.948 5.5712 -1.35239 0
M  V30 6584 H 621.345 5.60537 -2.14284 0
M  V30 6585 H 622.415 4.21493 -2.39733 0
M  V30 6586 N 623.758 0.647228 1.43697 0
M  V30 6587 C 625.174 0.314256 1.56476 0
M  V30 6588 C 625.374 -1.18191 1.63196 0
M  V30 6589 O 624.43 -1.96655 1.58376 0
M  V30 6590 C 625.743 1.02034 2.82859 0
M  V30 6591 C 627.291 1.00002 2.96595 0
M  V30 6592 C 627.766 1.68689 4.25803 0
M  V30 6593 N 629.257 1.65424 4.32654 0
M  V30 6594 C 629.992 2.1545 5.31384 0
M  V30 6595 N 629.488 2.73738 6.36427 0
M  V30 6596 N 631.281 2.05985 5.22998 0
M  V30 6597 H 623.432 1.61821 1.37578 0
M  V30 6598 H 625.695 0.680184 0.660344 0
M  V30 6599 H 625.401 2.07542 2.83935 0
M  V30 6600 H 625.275 0.568146 3.72897 0
M  V30 6601 H 627.662 -0.0466319 2.95063 0
M  V30 6602 H 627.743 1.49086 2.07863 0
M  V30 6603 H 627.387 2.73308 4.28095 0
M  V30 6604 H 627.317 1.17076 5.13421 0
M  V30 6605 H 629.808 1.22884 3.57363 0
M  V30 6606 H 630.121 3.09602 7.08072 0
M  V30 6607 H 628.466 2.77796 6.37067 0
M  V30 6608 H 631.657 1.60157 4.39849 0
M  V30 6609 H 631.83 2.45281 5.99784 0
M  V30 6610 N 625.236 -1.5273 0.388769 0
M  V30 6611 C 626.485 -2.00757 -0.194833 0
M  V30 6612 C 626.798 -1.27951 -1.47946 0
M  V30 6613 O 628.004 -1.66686 -2.14308 0
M  V30 6614 C 626.46 -3.57695 -0.397762 0
M  V30 6615 C 626.068 -4.394 0.873583 0
M  V30 6616 C 627.812 -4.14012 -0.937759 0
M  V30 6617 C 625.719 -5.87938 0.638962 0
M  V30 6618 H 624.649 -0.750101 -0.0765845 0
M  V30 6619 H 627.3 -1.76239 0.511086 0
M  V30 6620 H 625.682 -3.7846 -1.16552 0
M  V30 6621 H 626.856 -4.30403 1.64591 0
M  V30 6622 H 625.171 -3.94301 1.33849 0
M  V30 6623 H 627.768 -5.22645 -1.12899 0
M  V30 6624 H 628.111 -3.7007 -1.90666 0
M  V30 6625 H 628.644 -3.97137 -0.229588 0
M  V30 6626 H 625.383 -6.36202 1.57885 0
M  V30 6627 H 624.903 -5.99726 -0.094443 0
M  V30 6628 H 626.582 -6.46423 0.273299 0
M  V30 6629 N 626.714 -0.118576 -1.57153 0
M  V30 6630 C 627.944 0.546466 -1.99242 0
M  V30 6631 C 628.352 1.60791 -0.997148 0
M  V30 6632 O 627.695 1.83691 0.0181745 0
M  V30 6633 C 627.757 1.23167 -3.37743 0
M  V30 6634 C 627.421 0.318226 -4.55891 0
M  V30 6635 C 628.418 -0.442988 -5.18009 0
M  V30 6636 C 626.103 0.229421 -5.01776 0
M  V30 6637 C 628.097 -1.28074 -6.244 0
M  V30 6638 C 625.784 -0.611966 -6.08028 0
M  V30 6639 C 626.782 -1.36568 -6.69207 0
M  V30 6640 O 626.47 -2.1931 -7.73407 0
M  V30 6641 H 626.202 0.149297 -0.659307 0
M  V30 6642 H 628.756 -0.201603 -2.04408 0
M  V30 6643 H 626.986 2.0268 -3.29329 0
M  V30 6644 H 628.675 1.79358 -3.64123 0
M  V30 6645 H 629.441 -0.38425 -4.83475 0
M  V30 6646 H 625.32 0.805771 -4.53903 0
M  V30 6647 H 628.864 -1.86952 -6.72082 0
M  V30 6648 H 624.761 -0.6721 -6.41991 0
M  V30 6649 H 625.529 -2.12247 -7.90502 0
M  V30 6650 N 628.193 1.56834 0.155195 0
M  V30 6651 C 629.418 1.87412 0.888337 0
M  V30 6652 C 629.843 0.70671 1.74319 0
M  V30 6653 O 629.201 -0.343892 1.78009 0
M  V30 6654 C 629.249 3.1652 1.72765 0
M  V30 6655 O 628.353 2.99877 2.83103 0
M  V30 6656 H 627.694 0.615983 0.247914 0
M  V30 6657 H 630.224 2.04061 0.148478 0
M  V30 6658 H 630.234 3.48334 2.12433 0
M  V30 6659 H 628.909 4.01094 1.09985 0
M  V30 6660 H 627.486 2.79453 2.46902 0
M  V30 6661 N 629.671 -0.424282 1.51781 0
M  V30 6662 C 631.087 -0.761768 1.40247 0
M  V30 6663 C 631.287 -1.95324 0.495041 0
M  V30 6664 O 630.343 -2.5246 -0.0448949 0
M  V30 6665 C 631.656 -1.0299 2.82513 0
M  V30 6666 C 633.204 -1.13354 2.91753 0
M  V30 6667 C 633.679 -1.43453 4.34954 0
M  V30 6668 N 635.17 -1.5035 4.3812 0
M  V30 6669 C 635.905 -1.75236 5.45967 0
M  V30 6670 N 635.401 -1.97827 6.63955 0
M  V30 6671 N 637.194 -1.77126 5.33463 0
M  V30 6672 H 629.345 0.360228 2.09323 0
M  V30 6673 H 631.608 0.0988128 0.942836 0
M  V30 6674 H 631.314 -0.226961 3.50967 0
M  V30 6675 H 631.188 -1.95411 3.22637 0
M  V30 6676 H 633.575 -1.92709 2.23489 0
M  V30 6677 H 633.656 -0.188041 2.55108 0
M  V30 6678 H 633.3 -0.646209 5.03772 0
M  V30 6679 H 633.23 -2.3923 4.69123 0
M  V30 6680 H 635.721 -1.34742 3.53062 0
M  V30 6681 H 636.034 -2.16223 7.41935 0
M  V30 6682 H 634.379 -1.95123 6.67047 0
M  V30 6683 H 637.57 -1.59005 4.40267 0
M  V30 6684 H 637.743 -1.96182 6.17589 0
M  V30 6685 N 631.149 -1.42148 -0.680565 0
M  V30 6686 C 632.374 -1.45901 -1.47403 0
M  V30 6687 C 632.799 -0.0700985 -1.87969 0
M  V30 6688 O 632.157 0.930145 -1.55621 0
M  V30 6689 C 632.205 -2.38661 -2.70321 0
M  V30 6690 O 631.309 -1.85399 -3.68376 0
M  V30 6691 H 630.65 -0.494565 -0.443059 0
M  V30 6692 H 633.18 -1.86774 -0.835251 0
M  V30 6693 H 633.19 -2.55046 -3.18458 0
M  V30 6694 H 631.865 -3.39571 -2.40134 0
M  V30 6695 H 630.442 -1.78541 -3.2738 0
M  V30 6696 N 632.627 0.916307 -1.28225 0
M  V30 6697 C 633.876 1.65975 -1.14608 0
M  V30 6698 C 634.189 1.93204 0.305191 0
M  V30 6699 O 635.395 2.65611 0.562432 0
M  V30 6700 C 633.851 2.98989 -2.00333 0
M  V30 6701 C 633.459 2.79417 -3.50186 0
M  V30 6702 C 635.203 3.76856 -1.95397 0
M  V30 6703 C 633.11 4.08056 -4.28071 0
M  V30 6704 H 632.04 0.622587 -0.425324 0
M  V30 6705 H 634.691 1.01705 -1.52736 0
M  V30 6706 H 633.073 3.6438 -1.5506 0
M  V30 6707 H 634.247 2.22723 -4.034 0
M  V30 6708 H 632.562 2.14966 -3.56621 0
M  V30 6709 H 635.159 4.72203 -2.50856 0
M  V30 6710 H 635.502 4.05776 -0.930137 0
M  V30 6711 H 636.035 3.1828 -2.38626 0
M  V30 6712 H 632.774 3.8431 -5.31024 0
M  V30 6713 H 632.294 4.64371 -3.79631 0
M  V30 6714 H 633.973 4.76333 -4.37854 0
M  V30 6715 N 634.105 1.10431 1.1244 0
M  V30 6716 C 635.345 0.856518 1.85589 0
M  V30 6717 C 635.709 -0.606905 1.82156 0
M  V30 6718 O 636.91 -0.97105 2.50647 0
M  V30 6719 C 635.181 1.38977 3.29272 0
M  V30 6720 S 636.74 1.27739 4.19795 0
M  V30 6721 H 633.558 0.309509 0.640098 0
M  V30 6722 H 636.16 1.40975 1.35449 0
M  V30 6723 H 634.864 2.44887 3.2933 0
M  V30 6724 H 634.395 0.833112 3.84477 0
M  V30 6725 H 636.41 0.235051 4.95643 0
M  V30 6726 N 635.583 -1.29855 0.893053 0
M  V30 6727 C 636.531 -2.29867 0.355512 0
M  V30 6728 C 637.525 -1.60502 -0.541801 0
M  V30 6729 O 638.731 -1.74902 -0.425339 0
M  V30 6730 H 635.106 -0.745805 0.0963247 0
M  V30 6731 H 637.077 -2.72655 1.21252 0
M  V30 6732 C 635.826 -3.453 -0.407801 0
M  V30 6733 H 635.149 -3.98864 0.273426 0
M  V30 6734 H 636.589 -4.17334 -0.748887 0
M  V30 6735 C 635.048 -2.96051 -1.60795 0
M  V30 6736 O 635.578 -2.96763 -2.7073 0
M  V30 6737 N 633.784 -2.51963 -1.44786 0
M  V30 6738 H 633.331 -2.51583 -0.553498 0
M  V30 6739 H 633.289 -2.1937 -2.2522 0
M  V30 6740 N 637.061 -0.65484 -1.43351 0
M  V30 6741 C 638.008 0.0357713 -2.30772 0
M  V30 6742 C 638.978 0.813035 -1.44841 0
M  V30 6743 O 640.163 0.789314 -1.73708 0
M  V30 6744 C 637.303 0.995084 -3.30442 0
M  V30 6745 C 636.416 0.21375 -4.31471 0
M  V30 6746 C 635.551 1.16701 -5.18222 0
M  V30 6747 C 634.59 0.376201 -6.10943 0
M  V30 6748 N 633.727 1.28113 -6.90313 0
M  V30 6749 H 638.567 -0.71559 -2.89281 0
M  V30 6750 H 636.104 -0.364645 -1.42509 0
M  V30 6751 H 638.062 1.5649 -3.86739 0
M  V30 6752 H 636.692 1.7133 -2.7358 0
M  V30 6753 H 635.744 -0.472377 -3.77456 0
M  V30 6754 H 637.056 -0.401103 -4.97185 0
M  V30 6755 H 636.21 1.8074 -5.79153 0
M  V30 6756 H 634.949 1.81577 -4.52638 0
M  V30 6757 H 633.954 -0.277534 -5.49099 0
M  V30 6758 H 635.179 -0.268178 -6.7857 0
M  V30 6759 H 633.125 1.91666 -6.27376 0
M  V30 6760 H 633.042 0.720879 -7.52555 0
M  V30 6761 H 634.31 1.90962 -7.55747 0
M  V30 6762 N 638.539 1.52521 -0.396863 0
M  V30 6763 C 639.449 2.30403 0.44178 0
M  V30 6764 C 640.465 1.37625 1.06468 0
M  V30 6765 O 641.641 1.70697 1.06886 0
M  V30 6766 C 638.706 3.1013 1.54986 0
M  V30 6767 C 637.767 4.18628 0.951279 0
M  V30 6768 C 637 4.94543 2.00655 0
M  V30 6769 O 637.223 4.70629 3.22281 0
M  V30 6770 O 636.157 5.797 1.61962 0
M  V30 6771 H 639.983 3.03087 -0.192892 0
M  V30 6772 H 637.568 1.48537 -0.16038 0
M  V30 6773 H 639.45 3.59816 2.19341 0
M  V30 6774 H 638.125 2.40251 2.16935 0
M  V30 6775 H 637.032 3.73119 0.270773 0
M  V30 6776 H 638.365 4.90763 0.375887 0
M  V30 6777 N 640.017 0.126909 1.57088 0
M  V30 6778 C 640.949 -0.850973 2.12817 0
M  V30 6779 C 641.962 -1.22457 1.07276 0
M  V30 6780 O 643.151 -1.17215 1.34622 0
M  V30 6781 C 640.251 -2.15039 2.61938 0
M  V30 6782 C 639.424 -1.94726 3.91664 0
M  V30 6783 C 638.483 -3.0847 4.26301 0
M  V30 6784 O 637.509 -2.81038 4.94981 0
M  V30 6785 N 638.711 -4.35116 3.84259 0
M  V30 6786 H 641.476 -0.3748 2.97347 0
M  V30 6787 H 639.037 -0.0572793 1.61799 0
M  V30 6788 H 641.029 -2.90141 2.82135 0
M  V30 6789 H 639.599 -2.5398 1.82244 0
M  V30 6790 H 638.819 -1.03772 3.80296 0
M  V30 6791 H 640.107 -1.78469 4.76473 0
M  V30 6792 H 639.505 -4.60276 3.2888 0
M  V30 6793 H 638.062 -5.07064 4.09548 0
M  V30 6794 N 641.495 -1.56914 -0.146875 0
M  V30 6795 C 642.744 -1.82546 -0.857898 0
M  V30 6796 C 643.057 -0.708169 -1.8233 0
M  V30 6797 O 644.263 -0.850093 -2.57848 0
M  V30 6798 C 642.719 -3.23548 -1.57623 0
M  V30 6799 C 642.327 -4.43212 -0.653224 0
M  V30 6800 C 644.071 -3.58453 -2.27402 0
M  V30 6801 C 641.978 -5.75237 -1.37318 0
M  V30 6802 H 640.908 -0.680786 -0.32411 0
M  V30 6803 H 643.559 -1.83166 -0.110639 0
M  V30 6804 H 641.941 -3.17315 -2.36912 0
M  V30 6805 H 643.115 -4.60682 0.104452 0
M  V30 6806 H 641.43 -4.16351 -0.0638336 0
M  V30 6807 H 644.027 -4.54349 -2.81907 0
M  V30 6808 H 644.37 -2.84516 -3.03901 0
M  V30 6809 H 644.903 -3.66347 -1.55032 0
M  V30 6810 H 641.642 -6.52269 -0.650041 0
M  V30 6811 H 641.162 -5.61703 -2.10357 0
M  V30 6812 H 642.841 -6.18039 -1.91406 0
M  V30 6813 N 642.974 0.416227 -1.52004 0
M  V30 6814 C 644.22 1.16555 -1.6596 0
M  V30 6815 C 644.553 1.90347 -0.384906 0
M  V30 6816 O 643.828 1.84474 0.616405 0
M  V30 6817 C 644.111 2.1657 -2.87696 0
M  V30 6818 C 643.964 1.46722 -4.25197 0
M  V30 6819 C 645.283 3.17321 -3.04951 0
M  V30 6820 H 642.402 0.422369 -0.603965 0
M  V30 6821 H 645.044 0.452141 -1.84542 0
M  V30 6822 H 643.194 2.77411 -2.71985 0
M  V30 6823 H 644.866 0.89056 -4.52622 0
M  V30 6824 H 643.109 0.769263 -4.26925 0
M  V30 6825 H 643.78 2.19665 -5.0641 0
M  V30 6826 H 646.256 2.66552 -3.19514 0
M  V30 6827 H 645.132 3.84573 -3.91656 0
M  V30 6828 H 645.393 3.84643 -2.17951 0
M  V30 6829 N 644.452 1.42507 0.673017 0
M  V30 6830 C 645.382 1.48916 1.79851 0
M  V30 6831 C 646.363 0.345566 1.66553 0
M  V30 6832 O 647.548 0.560116 1.85947 0
M  V30 6833 C 644.678 1.39258 3.18158 0
M  V30 6834 C 643.632 2.51662 3.46194 0
M  V30 6835 C 642.958 2.27062 4.84094 0
M  V30 6836 C 644.258 3.93968 3.42909 0
M  V30 6837 H 645.952 2.43114 1.74745 0
M  V30 6838 H 643.498 1.17013 0.839288 0
M  V30 6839 H 645.451 1.42349 3.96629 0
M  V30 6840 H 644.175 0.415542 3.23946 0
M  V30 6841 H 642.834 2.47891 2.70084 0
M  V30 6842 H 642.482 1.27648 4.86534 0
M  V30 6843 H 642.182 3.02398 5.03815 0
M  V30 6844 H 643.706 2.31905 5.64847 0
M  V30 6845 H 645.12 3.99332 4.11347 0
M  V30 6846 H 643.517 4.6917 3.74165 0
M  V30 6847 H 644.587 4.20512 2.41449 0
M  V30 6848 N 645.93 -0.909495 1.28709 0
M  V30 6849 C 647.177 -1.65905 1.16111 0
M  V30 6850 C 647.505 -1.92334 -0.289436 0
M  V30 6851 O 646.76 -1.52495 -1.22653 0
M  V30 6852 C 647.059 -3.02117 1.90945 0
M  V30 6853 C 646.725 -2.95332 3.40719 0
M  V30 6854 C 645.387 -2.93189 3.81567 0
M  V30 6855 C 647.739 -2.85264 4.36204 0
M  V30 6856 C 645.067 -2.78784 5.16233 0
M  V30 6857 C 647.419 -2.724 5.70948 0
M  V30 6858 C 646.083 -2.68617 6.11066 0
M  V30 6859 H 645.353 -0.60709 0.42488 0
M  V30 6860 H 648 -1.05932 1.59533 0
M  V30 6861 H 646.305 -3.65901 1.40085 0
M  V30 6862 H 648.002 -3.59026 1.7861 0
M  V30 6863 H 644.592 -2.97797 3.08245 0
M  V30 6864 H 648.776 -2.86005 4.05605 0
M  V30 6865 H 644.032 -2.74254 5.46438 0
M  V30 6866 H 648.206 -2.63579 6.44592 0
M  V30 6867 H 645.833 -2.57213 7.15364 0
M  V30 6868 N 647.408 -1.11026 -1.11852 0
M  V30 6869 C 648.633 -0.879064 -1.87849 0
M  V30 6870 C 649.058 0.565406 -1.79401 0
M  V30 6871 O 648.416 1.39886 -1.15333 0
M  V30 6872 C 648.464 -1.33985 -3.34784 0
M  V30 6873 O 647.568 -0.508803 -4.09249 0
M  V30 6874 H 646.909 -0.316992 -0.583448 0
M  V30 6875 H 649.439 -1.47863 -1.41413 0
M  V30 6876 H 649.449 -1.33248 -3.85628 0
M  V30 6877 H 648.124 -2.39172 -3.40249 0
M  V30 6878 H 646.701 -0.581913 -3.68332 0
M  V30 6879 N 648.886 1.2938 -0.899927 0
M  V30 6880 C 650.133 1.9555 -0.525963 0
M  V30 6881 C 650.461 1.70945 0.927789 0
M  V30 6882 O 649.716 1.01545 1.67293 0
M  V30 6883 C 650.015 3.49114 -0.765113 0
M  V30 6884 C 649.681 3.93796 -2.19626 0
M  V30 6885 C 648.343 4.05707 -2.58758 0
M  V30 6886 C 650.695 4.16883 -3.12823 0
M  V30 6887 C 648.023 4.38074 -3.90267 0
M  V30 6888 C 650.375 4.50725 -4.4388 0
M  V30 6889 C 649.039 4.60845 -4.82885 0
M  V30 6890 H 648.309 0.715569 -0.192463 0
M  V30 6891 H 650.956 1.53972 -1.13863 0
M  V30 6892 H 649.261 3.91738 -0.069531 0
M  V30 6893 H 650.958 3.98409 -0.455144 0
M  V30 6894 H 647.548 3.85042 -1.88256 0
M  V30 6895 H 651.732 4.07147 -2.83804 0
M  V30 6896 H 646.988 4.44112 -4.20207 0
M  V30 6897 H 651.162 4.67538 -5.16121 0
M  V30 6898 H 648.789 4.85681 -5.84823 0
M  V30 6899 N 650.364 0.662433 1.43002 0
M  V30 6900 C 651.327 -0.0142016 2.29196 0
M  V30 6901 C 652.327 -0.741394 1.42688 0
M  V30 6902 O 653.517 -0.581257 1.64216 0
M  V30 6903 C 650.649 -1.03084 3.24941 0
M  V30 6904 H 651.842 0.7443 2.90517 0
M  V30 6905 H 649.395 0.424133 1.50435 0
M  V30 6906 H 650.13 -1.81826 2.68533 0
M  V30 6907 H 649.915 -0.512946 3.8873 0
M  V30 6908 H 651.405 -1.50308 3.89612 0
M  V30 6909 N 651.842 -1.52309 0.404946 0
M  V30 6910 C 652.789 -2.26898 -0.422597 0
M  V30 6911 C 653.759 -1.2914 -1.04461 0
M  V30 6912 O 654.944 -1.57996 -1.06967 0
M  V30 6913 C 652.084 -3.09053 -1.53559 0
M  V30 6914 C 651.197 -4.21762 -0.934908 0
M  V30 6915 C 650.332 -4.91283 -2.02025 0
M  V30 6916 C 649.371 -5.95962 -1.39628 0
M  V30 6917 N 648.508 -6.59017 -2.42159 0
M  V30 6918 H 653.348 -2.97188 0.219903 0
M  V30 6919 H 650.885 -1.46607 0.120282 0
M  V30 6920 H 652.843 -3.54987 -2.19181 0
M  V30 6921 H 651.473 -2.40942 -2.14818 0
M  V30 6922 H 650.525 -3.80029 -0.167854 0
M  V30 6923 H 651.837 -4.96864 -0.439073 0
M  V30 6924 H 650.991 -5.40601 -2.75383 0
M  V30 6925 H 649.73 -4.15741 -2.54973 0
M  V30 6926 H 648.735 -5.45968 -0.648023 0
M  V30 6927 H 649.96 -6.73445 -0.874553 0
M  V30 6928 H 647.906 -5.86306 -2.94247 0
M  V30 6929 H 647.823 -7.2978 -1.97376 0
M  V30 6930 H 649.091 -7.12974 -3.15099 0
M  V30 6931 N 653.32 -0.135238 -1.57019 0
M  V30 6932 C 654.283 0.794707 -2.14981 0
M  V30 6933 C 655.283 1.18342 -1.08866 0
M  V30 6934 O 656.473 1.10627 -1.34563 0
M  V30 6935 C 653.605 2.07685 -2.70333 0
M  V30 6936 H 654.798 0.290696 -2.98488 0
M  V30 6937 H 652.351 0.114128 -1.55883 0
M  V30 6938 H 653.086 2.6248 -1.9046 0
M  V30 6939 H 652.871 1.80745 -3.47957 0
M  V30 6940 H 654.361 2.74127 -3.1503 0
M  V30 6941 N 654.798 1.5699 0.138552 0
M  V30 6942 C 655.728 2.01933 1.17241 0
M  V30 6943 C 656.709 0.90033 1.44319 0
M  V30 6944 O 657.894 1.16872 1.55095 0
M  V30 6945 C 655.024 2.40711 2.50351 0
M  V30 6946 C 653.978 3.55874 2.37776 0
M  V30 6947 C 653.304 3.80491 3.75674 0
M  V30 6948 C 654.604 4.8826 1.85472 0
M  V30 6949 H 656.298 2.88551 0.798672 0
M  V30 6950 H 653.844 1.3882 0.382743 0
M  V30 6951 H 655.797 2.70754 3.22909 0
M  V30 6952 H 654.521 1.5104 2.89576 0
M  V30 6953 H 653.18 3.2601 1.67669 0
M  V30 6954 H 652.828 2.88057 4.12349 0
M  V30 6955 H 652.528 4.57998 3.68119 0
M  V30 6956 H 654.052 4.12967 4.49767 0
M  V30 6957 H 655.466 5.16965 2.4783 0
M  V30 6958 H 653.863 5.69631 1.88787 0
M  V30 6959 H 654.933 4.78071 0.810935 0
M  V30 6960 N 656.276 -0.40816 1.52223 0
M  V30 6961 C 657.186 -1.52202 1.78526 0
M  V30 6962 C 658.202 -1.60546 0.670892 0
M  V30 6963 O 659.378 -1.77242 0.956404 0
M  V30 6964 C 656.443 -2.87928 1.93128 0
M  V30 6965 C 655.504 -2.89463 3.17033 0
M  V30 6966 C 654.737 -4.18715 3.30929 0
M  V30 6967 O 654.96 -5.12662 2.50067 0
M  V30 6968 O 653.894 -4.27125 4.24084 0
M  V30 6969 H 657.72 -1.32911 2.73072 0
M  V30 6970 H 655.305 -0.594112 1.37079 0
M  V30 6971 H 657.187 -3.68426 2.04549 0
M  V30 6972 H 655.862 -3.07285 1.01772 0
M  V30 6973 H 654.769 -2.07815 3.11069 0
M  V30 6974 H 656.102 -2.75055 4.08174 0
M  V30 6975 N 657.755 -1.42862 -0.66545 0
M  V30 6976 C 658.98 -1.47456 -1.45848 0
M  V30 6977 C 659.405 -0.0900312 -1.87884 0
M  V30 6978 O 658.763 0.913587 -1.56599 0
M  V30 6979 C 658.811 -2.41514 -2.67774 0
M  V30 6980 O 657.915 -1.89296 -3.66389 0
M  V30 6981 H 657.256 -0.499236 -0.437789 0
M  V30 6982 H 659.786 -1.8765 -0.815394 0
M  V30 6983 H 659.796 -2.58409 -3.15735 0
M  V30 6984 H 658.471 -3.42099 -2.36519 0
M  V30 6985 H 657.048 -1.82003 -3.25468 0
M  V30 6986 N 659.233 0.902656 -1.29189 0
M  V30 6987 C 660.482 1.6475 -1.16362 0
M  V30 6988 C 660.795 1.93517 0.284682 0
M  V30 6989 O 662.001 2.66192 0.534229 0
M  V30 6990 C 660.457 2.96848 -2.03493 0
M  V30 6991 C 660.065 2.75687 -3.5313 0
M  V30 6992 C 661.809 3.74762 -1.99383 0
M  V30 6993 C 659.716 4.03492 -4.32375 0
M  V30 6994 H 658.646 0.618041 -0.431904 0
M  V30 6995 H 661.297 1.0008 -1.53806 0
M  V30 6996 H 659.679 3.62715 -1.58916 0
M  V30 6997 H 660.853 2.18431 -4.05739 0
M  V30 6998 H 659.168 2.11171 -3.58881 0
M  V30 6999 H 661.765 4.69515 -2.5585 0
M  V30 7000 H 662.108 4.04767 -0.973123 0
M  V30 7001 H 662.641 3.15732 -2.41988 0
M  V30 7002 H 659.38 3.78656 -5.3507 0
M  V30 7003 H 658.9 4.60318 -3.84535 0
M  V30 7004 H 660.579 4.71662 -4.42881 0
M  V30 7005 N 660.711 1.11618 1.11262 0
M  V30 7006 C 662.122 0.881942 1.64556 0
M  V30 7007 C 662.473 -0.585442 1.87262 0
M  V30 7008 O 661.598 -1.44795 1.60821 0
M  V30 7009 C 662.193 1.59446 2.98935 0
M  V30 7010 C 660.752 1.40661 3.4913 0
M  V30 7011 C 659.899 1.63593 2.23903 0
M  V30 7012 H 662.85 1.27217 0.94877 0
M  V30 7013 H 662.871 1.04054 3.65996 0
M  V30 7014 H 662.383 2.66241 2.82378 0
M  V30 7015 H 660.484 0.360835 3.70849 0
M  V30 7016 H 660.597 2.15693 4.27801 0
M  V30 7017 H 658.961 1.05944 2.3162 0
M  V30 7018 H 659.744 2.71666 2.09886 0
M  V30 7019 N 662.189 -1.289 0.906776 0
M  V30 7020 C 663.605 -1.47733 0.603902 0
M  V30 7021 C 663.805 -1.82568 -0.852702 0
M  V30 7022 O 662.861 -1.92642 -1.63234 0
M  V30 7023 C 664.174 -2.58522 1.53581 0
M  V30 7024 C 665.722 -2.72394 1.54177 0
M  V30 7025 C 666.197 -3.86318 2.46013 0
M  V30 7026 N 667.688 -3.93661 2.441 0
M  V30 7027 C 668.423 -4.81177 3.11859 0
M  V30 7028 N 667.919 -5.73333 3.88923 0
M  V30 7029 N 669.712 -4.74728 3.00981 0
M  V30 7030 H 661.863 -1.04567 1.84877 0
M  V30 7031 H 664.126 -0.520118 0.792579 0
M  V30 7032 H 663.832 -2.39667 2.57396 0
M  V30 7033 H 663.706 -3.55475 1.26165 0
M  V30 7034 H 666.093 -2.90641 0.511034 0
M  V30 7035 H 666.174 -1.75993 1.85634 0
M  V30 7036 H 665.818 -3.68826 3.49185 0
M  V30 7037 H 665.748 -4.82102 2.11862 0
M  V30 7038 H 668.239 -3.27751 1.88115 0
M  V30 7039 H 668.552 -6.36923 4.37663 0
M  V30 7040 H 666.897 -5.73196 3.93029 0
M  V30 7041 H 670.088 -4.01722 2.40286 0
M  V30 7042 H 670.261 -5.42719 3.54062 0
M  V30 7043 N 663.667 -0.670007 -1.42649 0
M  V30 7044 C 664.617 0.0339546 -2.27975 0
M  V30 7045 C 665.601 0.778295 -1.40824 0
M  V30 7046 O 666.793 0.657997 -1.64315 0
M  V30 7047 C 663.922 0.987899 -3.28779 0
M  V30 7048 C 663.008 0.241153 -4.23414 0
M  V30 7049 N 663.399 -0.751392 -5.00188 0
M  V30 7050 C 661.697 0.480269 -4.43407 0
M  V30 7051 C 662.398 -1.19615 -5.69269 0
M  V30 7052 N 661.374 -0.527045 -5.41039 0
M  V30 7053 H 665.176 -0.727425 -2.84756 0
M  V30 7054 H 662.69 -0.498673 -1.54554 0
M  V30 7055 H 664.687 1.50716 -3.88703 0
M  V30 7056 H 663.347 1.74916 -2.73559 0
M  V30 7057 H 664.358 -1.13075 -5.05405 0
M  V30 7058 H 661.035 1.2214 -3.99234 0
M  V30 7059 H 662.425 -2.01836 -6.40868 0
M  V30 7060 N 665.145 1.52092 -0.413018 0
M  V30 7061 C 666.075 2.30021 0.401567 0
M  V30 7062 C 667.056 1.34395 1.04269 0
M  V30 7063 O 668.241 1.63304 1.05097 0
M  V30 7064 C 665.371 3.12447 1.51638 0
M  V30 7065 C 664.325 4.16153 1.00005 0
M  V30 7066 C 663.651 4.86948 2.20875 0
M  V30 7067 C 664.951 5.22275 0.0513757 0
M  V30 7068 H 666.645 2.98365 -0.248704 0
M  V30 7069 H 664.191 1.4349 -0.121052 0
M  V30 7070 H 666.144 3.65733 2.09326 0
M  V30 7071 H 664.868 2.41879 2.19458 0
M  V30 7072 H 663.527 3.63882 0.445549 0
M  V30 7073 H 663.175 4.12905 2.8726 0
M  V30 7074 H 662.875 5.57057 1.86978 0
M  V30 7075 H 664.399 5.43048 2.79162 0
M  V30 7076 H 665.813 5.70778 0.537176 0
M  V30 7077 H 664.21 5.9977 -0.198977 0
M  V30 7078 H 665.28 4.76611 -0.892736 0
M  V30 7079 N 666.623 0.143563 1.56945 0
M  V30 7080 C 667.848 -0.518701 2.00809 0
M  V30 7081 C 668.273 -1.5785 1.02298 0
M  V30 7082 O 667.631 -1.813 -0.0017839 0
M  V30 7083 C 667.679 -1.09929 3.43436 0
M  V30 7084 O 666.783 -2.21425 3.47915 0
M  V30 7085 H 666.124 -0.127215 0.6517 0
M  V30 7086 H 668.654 0.239283 2.03196 0
M  V30 7087 H 668.664 -1.4288 3.82164 0
M  V30 7088 H 667.339 -0.323162 4.14643 0
M  V30 7089 H 665.916 -1.89728 3.21026 0
M  V30 7090 N 668.101 -1.57061 -0.130224 0
M  V30 7091 C 669.051 -1.95941 -1.16582 0
M  V30 7092 C 670.035 -0.832858 -1.37667 0
M  V30 7093 O 671.227 -1.09647 -1.38948 0
M  V30 7094 C 668.356 -2.35777 -2.49528 0
M  V30 7095 C 667.442 -3.5504 -2.31964 0
M  V30 7096 N 667.833 -4.71071 -1.84189 0
M  V30 7097 C 666.131 -3.60453 -2.62659 0
M  V30 7098 C 666.832 -5.53128 -1.80068 0
M  V30 7099 N 665.808 -4.95303 -2.24001 0
M  V30 7100 H 669.61 -2.83117 -0.788806 0
M  V30 7101 H 667.124 -1.58842 -0.3381 0
M  V30 7102 H 669.121 -2.61843 -3.24413 0
M  V30 7103 H 667.781 -1.49961 -2.87996 0
M  V30 7104 H 668.792 -4.94504 -1.53903 0
M  V30 7105 H 665.469 -2.85217 -3.0489 0
M  V30 7106 H 666.859 -6.56182 -1.4448 0
M  V30 7107 N 669.579 0.400081 -1.52437 0
M  V30 7108 C 670.527 1.50851 -1.7705 0
M  V30 7109 C 671.521 1.56928 -0.637969 0
M  V30 7110 O 672.727 1.60226 -0.820212 0
M  V30 7111 H 669.102 0.50186 -0.560036 0
M  V30 7112 H 671.073 1.27281 -2.69893 0
M  V30 7113 C 669.822 2.88117 -1.94638 0
M  V30 7114 H 669.145 2.84187 -2.81208 0
M  V30 7115 H 670.585 3.64942 -2.15855 0
M  V30 7116 C 669.044 3.29206 -0.715899 0
M  V30 7117 O 669.574 4.01544 0.111944 0
M  V30 7118 N 667.78 2.85363 -0.549191 0
M  V30 7119 H 667.327 2.26664 -1.22397 0
M  V30 7120 H 667.285 3.13214 0.27278 0
M  V30 7121 N 671.057 1.43213 0.657864 0
M  V30 7122 C 672.02 1.47687 1.75275 0
M  V30 7123 C 673.02 0.362179 1.56668 0
M  V30 7124 O 674.21 0.623734 1.62651 0
M  V30 7125 C 671.342 1.32497 3.14098 0
M  V30 7126 H 672.535 2.4519 1.7269 0
M  V30 7127 H 670.088 1.2991 0.869087 0
M  V30 7128 H 670.823 0.359831 3.22298 0
M  V30 7129 H 670.608 2.13299 3.29008 0
M  V30 7130 H 672.098 1.38549 3.93946 0
M  V30 7131 N 672.536 -0.895792 1.29666 0
M  V30 7132 C 673.784 -1.64339 1.17631 0
M  V30 7133 C 674.105 -1.93099 -0.271643 0
M  V30 7134 O 673.375 -1.55981 -1.18518 0
M  V30 7135 H 671.955 -0.609162 0.432354 0
M  V30 7136 H 674.617 -1.07389 1.62646 0
M  V30 7137 H 673.713 -2.59815 1.72924 0
M  V30 7138 N 674.014 -1.12206 -1.10668 0
M  V30 7139 C 675.244 -0.897332 -1.86095 0
M  V30 7140 C 675.652 0.556778 -1.80822 0
M  V30 7141 O 674.995 1.39658 -1.19337 0
M  V30 7142 C 675.057 -1.29095 -3.35522 0
M  V30 7143 C 674.721 -2.75586 -3.64556 0
M  V30 7144 C 675.718 -3.73785 -3.6136 0
M  V30 7145 C 673.403 -3.12432 -3.93309 0
M  V30 7146 C 675.397 -5.06845 -3.86506 0
M  V30 7147 C 673.084 -4.45675 -4.18111 0
M  V30 7148 C 674.082 -5.42691 -4.147 0
M  V30 7149 O 673.77 -6.73532 -4.38873 0
M  V30 7150 H 673.502 -0.320704 -0.595084 0
M  V30 7151 H 676.056 -1.49517 -1.40833 0
M  V30 7152 H 674.286 -0.636299 -3.81429 0
M  V30 7153 H 675.975 -1.04073 -3.92331 0
M  V30 7154 H 676.741 -3.46664 -3.39189 0
M  V30 7155 H 672.62 -2.3753 -3.95096 0
M  V30 7156 H 676.164 -5.82559 -3.83758 0
M  V30 7157 H 672.061 -4.72526 -4.39761 0
M  V30 7158 H 672.829 -6.79442 -4.564 0
M  V30 7159 N 675.492 1.28418 -0.913599 0
M  V30 7160 C 676.769 1.89977 -0.465619 0
M  V30 7161 C 677.149 1.82813 1.05559 0
M  V30 7162 O 676.497 1.26397 1.90358 0
M  V30 7163 C 676.707 3.34492 -0.995813 0
M  V30 7164 C 678.055 4.11468 -1.04782 0
M  V30 7165 O 679.079 3.43451 -0.944445 0
M  V30 7166 O 677.938 5.33046 -1.20518 0
M  V30 7167 H 675.032 0.813734 -0.147532 0
M  V30 7168 H 677.578 1.36786 -1.00437 0
M  V30 7169 H 676.35 3.33929 -2.03978 0
M  V30 7170 H 675.973 3.95181 -0.437878 0
M  V30 7171 N 676.97 0.677563 1.42291 0
M  V30 7172 C 678.195 0.207901 2.06355 0
M  V30 7173 C 678.62 -1.12723 1.50583 0
M  V30 7174 O 677.978 -1.70171 0.62543 0
M  V30 7175 C 678.026 0.156489 3.6026 0
M  V30 7176 O 677.13 -0.874162 4.03029 0
M  V30 7177 H 676.471 0.106056 0.655475 0
M  V30 7178 H 679.001 0.927354 1.82377 0
M  V30 7179 H 679.011 -0.0187258 4.07996 0
M  V30 7180 H 677.686 1.13101 4.00226 0
M  V30 7181 H 676.263 -0.669764 3.66836 0
M  V30 7182 N 678.448 -1.51871 0.421078 0
M  V30 7183 C 679.676 -2.06356 -0.14994 0
M  V30 7184 C 680.091 -1.29006 -1.37851 0
M  V30 7185 O 679.448 -0.345139 -1.79207 0
M  V30 7186 C 679.499 -3.58185 -0.488454 0
M  V30 7187 O 679.22 -4.32611 0.691341 0
M  V30 7188 C 680.721 -4.29129 -1.11191 0
M  V30 7189 H 677.941 -0.67083 -0.0151186 0
M  V30 7190 H 680.485 -1.95638 0.595476 0
M  V30 7191 H 678.64 -3.68871 -1.18376 0
M  V30 7192 H 679.054 -5.22927 0.405906 0
M  V30 7193 H 680.528 -5.36501 -1.29889 0
M  V30 7194 H 681.005 -3.86371 -2.0884 0
M  V30 7195 H 681.611 -4.22843 -0.456458 0
M  V30 7196 N 679.926 -0.151884 -1.56866 0
M  V30 7197 C 681.203 0.543328 -1.87902 0
M  V30 7198 C 681.583 1.82636 -1.05864 0
M  V30 7199 O 680.931 2.28028 -0.146868 0
M  V30 7200 C 681.141 0.804056 -3.39611 0
M  V30 7201 C 682.489 1.14267 -4.08935 0
M  V30 7202 O 683.513 0.893248 -3.44818 0
M  V30 7203 O 682.372 1.61229 -5.22176 0
M  V30 7204 H 679.466 0.277724 -0.778973 0
M  V30 7205 H 682.012 -0.188862 -1.68646 0
M  V30 7206 H 680.784 -0.103772 -3.91162 0
M  V30 7207 H 680.407 1.59025 -3.64413 0
M  V30 7208 N 681.404 1.57128 0.121893 0
M  V30 7209 C 682.653 1.83888 0.828748 0
M  V30 7210 C 682.966 0.737087 1.81181 0
M  V30 7211 O 684.172 0.891007 2.56463 0
M  V30 7212 C 682.628 3.26014 1.52455 0
M  V30 7213 C 682.236 4.44195 0.58263 0
M  V30 7214 C 683.98 3.62025 2.21671 0
M  V30 7215 C 681.887 5.77349 1.28149 0
M  V30 7216 H 680.817 0.685856 0.313238 0
M  V30 7217 H 683.468 1.83319 0.0814851 0
M  V30 7218 H 681.85 3.21044 2.31834 0
M  V30 7219 H 683.024 4.60457 -0.177729 0
M  V30 7220 H 681.339 4.164 -0.00241228 0
M  V30 7221 H 683.936 4.58776 2.74643 0
M  V30 7222 H 684.279 2.89315 2.99337 0
M  V30 7223 H 684.812 3.68767 1.49184 0
M  V30 7224 H 681.551 6.53221 0.546189 0
M  V30 7225 H 681.071 5.64978 2.01394 0
M  V30 7226 H 682.75 6.21006 1.81549 0
M  V30 7227 N 682.882 -0.391992 1.52647 0
M  V30 7228 C 683.812 -1.48517 1.8018 0
M  V30 7229 C 684.793 -1.57039 0.653667 0
M  V30 7230 O 685.978 -1.72036 0.900962 0
M  V30 7231 C 683.108 -2.86161 1.96797 0
M  V30 7232 C 682.062 -2.92481 3.12472 0
M  V30 7233 C 681.388 -4.32546 3.14338 0
M  V30 7234 C 682.688 -2.624 4.51601 0
M  V30 7235 H 684.382 -1.25726 2.71723 0
M  V30 7236 H 681.928 -0.603387 1.30749 0
M  V30 7237 H 683.881 -3.62639 2.14641 0
M  V30 7238 H 682.605 -3.10283 1.01941 0
M  V30 7239 H 681.264 -2.18451 2.94406 0
M  V30 7240 H 680.912 -4.53703 2.1717 0
M  V30 7241 H 680.612 -4.37695 3.92042 0
M  V30 7242 H 682.136 -5.10934 3.34333 0
M  V30 7243 H 683.55 -3.28596 4.69785 0
M  V30 7244 H 681.947 -2.78903 5.3135 0
M  V30 7245 H 683.017 -1.57754 4.58521 0
M  V30 7246 N 684.36 -1.4356 -0.65026 0
M  V30 7247 C 685.308 -1.49219 -1.78427 0
M  V30 7248 C 686.302 -0.365528 -1.65409 0
M  V30 7249 O 687.508 -0.539649 -1.7172 0
M  V30 7250 H 683.883 -0.467858 -0.588738 0
M  V30 7251 H 685.854 -2.44701 -1.70774 0
M  V30 7252 C 684.603 -1.43519 -3.16698 0
M  V30 7253 H 683.926 -2.2952 -3.27354 0
M  V30 7254 H 685.366 -1.5154 -3.95995 0
M  V30 7255 C 683.825 -0.153197 -3.36552 0
M  V30 7256 O 684.355 0.784317 -3.93969 0
M  V30 7257 N 682.561 -0.0624402 -2.90533 0
M  V30 7258 H 682.108 -0.826172 -2.43992 0
M  V30 7259 H 682.066 0.794616 -3.04193 0
M  V30 7260 N 685.838 0.888903 -1.30139 0
M  V30 7261 C 686.785 1.99422 -1.16188 0
M  V30 7262 C 687.755 1.66017 -0.0523869 0
M  V30 7263 O 688.94 1.89506 -0.221864 0
M  V30 7264 C 686.08 3.34325 -0.855612 0
M  V30 7265 C 685.193 3.80445 -2.0466 0
M  V30 7266 C 684.328 5.03975 -1.67876 0
M  V30 7267 C 683.367 5.42492 -2.83493 0
M  V30 7268 N 682.504 6.57206 -2.47032 0
M  V30 7269 H 687.344 2.10687 -2.10749 0
M  V30 7270 H 684.881 1.03165 -1.04859 0
M  V30 7271 H 686.839 4.11968 -0.658681 0
M  V30 7272 H 685.469 3.22756 0.0531155 0
M  V30 7273 H 684.521 2.98745 -2.3549 0
M  V30 7274 H 685.833 4.04933 -2.91257 0
M  V30 7275 H 684.987 5.89232 -1.44535 0
M  V30 7276 H 683.726 4.8135 -0.784431 0
M  V30 7277 H 682.731 4.55764 -3.07505 0
M  V30 7278 H 683.956 5.67093 -3.73607 0
M  V30 7279 H 681.902 6.36164 -1.601 0
M  V30 7280 H 681.819 6.81543 -3.27161 0
M  V30 7281 H 683.087 7.45704 -2.27038 0
M  V30 7282 N 687.317 1.12792 1.10072 0
M  V30 7283 C 688.247 0.821688 2.18565 0
M  V30 7284 C 689.228 -0.21612 1.68721 0
M  V30 7285 O 690.413 -0.0764932 1.94049 0
M  V30 7286 C 687.543 0.279624 3.46172 0
M  V30 7287 C 686.497 1.25092 4.09312 0
M  V30 7288 C 685.823 0.568916 5.31665 0
M  V30 7289 C 687.123 2.60699 4.52585 0
M  V30 7290 H 688.817 1.72888 2.44438 0
M  V30 7291 H 686.363 0.832702 1.17482 0
M  V30 7292 H 688.316 0.053099 4.21367 0
M  V30 7293 H 687.04 -0.662929 3.19801 0
M  V30 7294 H 685.699 1.46332 3.36129 0
M  V30 7295 H 685.347 -0.378898 5.01571 0
M  V30 7296 H 685.047 1.21687 5.74862 0
M  V30 7297 H 686.571 0.351517 6.09587 0
M  V30 7298 H 687.985 2.43465 5.19035 0
M  V30 7299 H 686.382 3.21608 5.06644 0
M  V30 7300 H 687.452 3.1886 3.65317 0
M  V30 7301 N 688.795 -1.27931 0.920396 0
M  V30 7302 C 690.211 -1.47085 0.619537 0
M  V30 7303 C 690.411 -1.83463 -0.833291 0
M  V30 7304 O 689.467 -1.94363 -1.61181 0
M  V30 7305 C 690.78 -2.56878 1.56314 0
M  V30 7306 C 692.328 -2.70743 1.57058 0
M  V30 7307 C 692.803 -3.83687 2.50097 0
M  V30 7308 N 694.294 -3.9105 2.48262 0
M  V30 7309 C 695.029 -4.77842 3.16945 0
M  V30 7310 N 694.525 -5.69176 3.94982 0
M  V30 7311 N 696.318 -4.71509 3.06 0
M  V30 7312 H 688.469 -1.02601 1.85975 0
M  V30 7313 H 690.732 -0.511682 0.798051 0
M  V30 7314 H 690.438 -2.36923 2.59923 0
M  V30 7315 H 690.312 -3.54117 1.29928 0
M  V30 7316 H 692.699 -2.90083 0.541832 0
M  V30 7317 H 692.78 -1.74015 1.8749 0
M  V30 7318 H 692.424 -3.65101 3.53077 0
M  V30 7319 H 692.354 -4.79827 2.16964 0
M  V30 7320 H 694.845 -3.25738 1.91581 0
M  V30 7321 H 695.158 -6.32245 4.44394 0
M  V30 7322 H 693.503 -5.68995 3.99086 0
M  V30 7323 H 696.694 -3.99151 2.44533 0
M  V30 7324 H 696.867 -5.38933 3.59799 0
M  V30 7325 N 690.273 -0.685099 -1.4193 0
M  V30 7326 C 691.22 -0.0131869 -2.30796 0
M  V30 7327 C 692.19 0.782129 -1.46533 0
M  V30 7328 O 693.375 0.75229 -1.75343 0
M  V30 7329 C 690.515 0.924768 -3.32479 0
M  V30 7330 C 689.628 0.122181 -4.31827 0
M  V30 7331 C 688.763 1.05682 -5.20581 0
M  V30 7332 C 687.802 0.246526 -6.11603 0
M  V30 7333 N 686.939 1.13442 -6.92875 0
M  V30 7334 H 691.779 -0.776789 -2.87698 0
M  V30 7335 H 689.316 -0.394791 -1.41703 0
M  V30 7336 H 691.274 1.48251 -3.89971 0
M  V30 7337 H 689.904 1.65488 -2.77152 0
M  V30 7338 H 688.956 -0.552335 -3.76369 0
M  V30 7339 H 690.268 -0.506473 -4.96222 0
M  V30 7340 H 689.422 1.68415 -5.82856 0
M  V30 7341 H 688.161 1.71935 -4.56388 0
M  V30 7342 H 687.166 -0.393944 -5.48387 0
M  V30 7343 H 688.391 -0.412053 -6.77849 0
M  V30 7344 H 686.337 1.78316 -6.313 0
M  V30 7345 H 686.254 0.561089 -7.53915 0
M  V30 7346 H 687.522 1.74889 -7.59628 0
M  V30 7347 N 691.751 1.51645 -0.429126 0
M  V30 7348 C 692.698 2.27542 0.386446 0
M  V30 7349 C 693.668 1.30786 1.02393 0
M  V30 7350 O 694.853 1.59678 1.0444 0
M  V30 7351 C 691.993 3.11457 1.48623 0
M  V30 7352 C 691.106 4.23196 0.867691 0
M  V30 7353 C 690.241 4.94435 1.94183 0
M  V30 7354 C 689.28 5.98108 1.30129 0
M  V30 7355 N 688.417 6.62786 2.31644 0
M  V30 7356 H 693.257 2.968 -0.267155 0
M  V30 7357 H 690.794 1.46397 -0.143591 0
M  V30 7358 H 692.752 3.58429 2.13506 0
M  V30 7359 H 691.382 2.44329 2.10957 0
M  V30 7360 H 690.434 3.80248 0.107373 0
M  V30 7361 H 691.746 4.97499 0.35997 0
M  V30 7362 H 690.9 5.44914 2.66747 0
M  V30 7363 H 689.639 4.19744 2.48326 0
M  V30 7364 H 688.644 5.4693 0.561082 0
M  V30 7365 H 689.869 6.74751 0.767303 0
M  V30 7366 H 687.815 5.90913 2.84883 0
M  V30 7367 H 687.732 7.32828 1.85741 0
M  V30 7368 H 689 7.17897 3.03717 0
M  V30 7369 N 693.229 0.160201 1.56784 0
M  V30 7370 C 694.179 -0.786461 2.14007 0
M  V30 7371 C 695.163 -1.20046 1.07134 0
M  V30 7372 O 696.355 -1.16468 1.33283 0
M  V30 7373 C 693.484 -2.02024 2.77563 0
M  V30 7374 C 692.57 -1.62874 3.91578 0
M  V30 7375 N 692.961 -0.946176 4.96871 0
M  V30 7376 C 691.259 -1.92054 4.02531 0
M  V30 7377 C 691.96 -0.755084 5.76778 0
M  V30 7378 N 690.936 -1.29307 5.27997 0
M  V30 7379 H 694.738 -0.255879 2.92784 0
M  V30 7380 H 692.252 -0.0408778 1.62349 0
M  V30 7381 H 694.249 -2.70855 3.16928 0
M  V30 7382 H 692.909 -2.55587 2.00263 0
M  V30 7383 H 693.92 -0.605455 5.14349 0
M  V30 7384 H 690.597 -2.47374 3.36322 0
M  V30 7385 H 691.987 -0.216138 6.71552 0
M  V30 7386 N 694.707 -1.5719 -0.113559 0
M  V30 7387 C 695.932 -1.89702 -0.838336 0
M  V30 7388 C 696.357 -0.752679 -1.72384 0
M  V30 7389 O 695.715 0.296575 -1.78858 0
M  V30 7390 C 695.763 -3.20989 -1.64312 0
M  V30 7391 O 694.867 -3.07278 -2.75053 0
M  V30 7392 H 694.208 -0.622339 -0.231496 0
M  V30 7393 H 696.738 -2.04382 -0.0943228 0
M  V30 7394 H 696.748 -3.53843 -2.03123 0
M  V30 7395 H 695.423 -4.03869 -0.993119 0
M  V30 7396 H 694 -2.85901 -2.39406 0
M  V30 7397 N 696.185 0.383891 -1.52853 0
M  V30 7398 C 697.095 1.49343 -1.80925 0
M  V30 7399 C 698.111 1.59458 -0.696348 0
M  V30 7400 O 699.287 1.75698 -0.984481 0
M  V30 7401 C 696.352 2.84819 -1.97684 0
M  V30 7402 C 695.413 2.84382 -3.21598 0
M  V30 7403 C 694.646 4.13397 -3.37548 0
M  V30 7404 O 694.869 5.08619 -2.58192 0
M  V30 7405 O 693.803 4.20325 -4.30826 0
M  V30 7406 H 697.629 1.2855 -2.75152 0
M  V30 7407 H 695.214 0.572229 -1.38007 0
M  V30 7408 H 697.096 3.65125 -2.10385 0
M  V30 7409 H 695.771 3.05627 -1.06647 0
M  V30 7410 H 694.678 2.0284 -3.14336 0
M  V30 7411 H 696.011 2.68526 -4.12498 0
M  V30 7412 N 697.663 1.43903 0.642637 0
M  V30 7413 C 698.595 1.45857 1.768 0
M  V30 7414 C 699.608 0.353358 1.58919 0
M  V30 7415 O 700.797 0.618426 1.67445 0
M  V30 7416 C 697.897 1.26583 3.14372 0
M  V30 7417 C 697.07 2.50139 3.58817 0
M  V30 7418 C 696.129 2.25933 4.75227 0
M  V30 7419 O 695.155 2.99351 4.84125 0
M  V30 7420 N 696.357 1.28263 5.66153 0
M  V30 7421 H 699.122 2.42869 1.75598 0
M  V30 7422 H 696.683 1.39194 0.826832 0
M  V30 7423 H 698.675 1.08255 3.89953 0
M  V30 7424 H 697.245 0.37978 3.10284 0
M  V30 7425 H 696.465 2.83821 2.73568 0
M  V30 7426 H 697.753 3.32344 3.8526 0
M  V30 7427 H 697.151 0.676041 5.61646 0
M  V30 7428 H 695.708 1.15916 6.4141 0
M  V30 7429 N 699.141 -0.881989 1.30609 0
M  V30 7430 C 700.369 -1.66711 1.22536 0
M  V30 7431 C 700.784 -1.87614 -0.2113 0
M  V30 7432 O 700.141 -1.42576 -1.13923 0
M  V30 7433 C 700.192 -3.04182 1.95335 0
M  V30 7434 O 699.913 -2.8422 3.33393 0
M  V30 7435 C 701.414 -3.98617 1.93956 0
M  V30 7436 H 698.634 -0.520124 0.423925 0
M  V30 7437 H 701.178 -1.10174 1.72285 0
M  V30 7438 H 699.333 -3.57442 1.49378 0
M  V30 7439 H 699.747 -3.71452 3.70302 0
M  V30 7440 H 701.221 -4.92433 2.49426 0
M  V30 7441 H 701.698 -4.29473 0.919198 0
M  V30 7442 H 702.304 -3.51292 2.39738 0
M  V30 7443 N 700.619 -1.13374 -1.09472 0
M  V30 7444 C 701.844 -0.918711 -1.85942 0
M  V30 7445 C 702.269 0.527225 -1.8056 0
M  V30 7446 O 701.627 1.37408 -1.18274 0
M  V30 7447 C 701.675 -1.41056 -3.31867 0
M  V30 7448 O 700.779 -0.595496 -4.08078 0
M  V30 7449 H 700.12 -0.329297 -0.576593 0
M  V30 7450 H 702.65 -1.50829 -1.38245 0
M  V30 7451 H 702.66 -1.41398 -3.82715 0
M  V30 7452 H 701.335 -2.46335 -3.35099 0
M  V30 7453 H 699.912 -0.659911 -3.67014 0
M  V30 7454 N 702.098 1.27442 -0.927168 0
M  V30 7455 C 703.375 1.89473 -0.485742 0
M  V30 7456 C 703.755 1.83922 1.03614 0
M  V30 7457 O 703.103 1.28409 1.89007 0
M  V30 7458 C 703.313 3.33417 -1.03123 0
M  V30 7459 C 704.661 4.10333 -1.0914 0
M  V30 7460 O 705.685 3.4243 -0.98082 0
M  V30 7461 O 704.544 5.31737 -1.26165 0
M  V30 7462 H 701.638 0.812124 -0.156154 0
M  V30 7463 H 704.184 1.35713 -1.01882 0
M  V30 7464 H 702.956 3.31747 -2.07508 0
M  V30 7465 H 702.579 3.94695 -0.479767 0
M  V30 7466 N 703.576 0.692616 1.41565 0
M  V30 7467 C 704.825 0.219452 2.00503 0
M  V30 7468 C 705.138 -1.18683 1.55479 0
M  V30 7469 O 706.344 -1.75731 2.06956 0
M  V30 7470 C 704.8 0.341451 3.58277 0
M  V30 7471 C 704.408 1.75291 4.12283 0
M  V30 7472 C 706.152 -0.0720899 4.24439 0
M  V30 7473 C 704.059 1.82673 5.62481 0
M  V30 7474 H 702.989 0.0782874 0.749925 0
M  V30 7475 H 705.64 0.860386 1.62079 0
M  V30 7476 H 704.022 -0.367683 3.94289 0
M  V30 7477 H 705.196 2.49057 3.87695 0
M  V30 7478 H 703.511 2.11587 3.58636 0
M  V30 7479 H 706.108 -0.0373385 5.34687 0
M  V30 7480 H 706.451 -1.11034 4.0122 0
M  V30 7481 H 706.984 0.586663 3.9345 0
M  V30 7482 H 703.723 2.84539 5.90523 0
M  V30 7483 H 703.243 1.13288 5.89004 0
M  V30 7484 H 704.922 1.58827 6.27203 0
M  V30 7485 N 705.054 -1.51416 0.437162 0
M  V30 7486 C 706.3 -2.03035 -0.121818 0
M  V30 7487 C 706.655 -1.31551 -1.404 0
M  V30 7488 O 705.948 -0.421623 -1.86903 0
M  V30 7489 C 706.142 -3.55203 -0.39564 0
M  V30 7490 C 705.971 -4.4143 0.858452 0
M  V30 7491 C 704.741 -4.85751 1.39192 0
M  V30 7492 C 706.939 -4.83808 1.74454 0
M  V30 7493 N 704.921 -5.5619 2.59857 0
M  V30 7494 C 706.292 -5.53312 2.79724 0
M  V30 7495 C 708.347 -4.65795 1.75897 0
M  V30 7496 C 707.05 -6.06713 3.86383 0
M  V30 7497 C 709.076 -5.20112 2.81492 0
M  V30 7498 C 708.438 -5.89562 3.85482 0
M  V30 7499 H 704.537 -0.781981 -0.00541671 0
M  V30 7500 H 707.121 -1.85296 0.597792 0
M  V30 7501 H 705.292 -3.72958 -1.08429 0
M  V30 7502 H 707.024 -3.93489 -0.945963 0
M  V30 7503 H 703.779 -4.64058 0.945879 0
M  V30 7504 H 704.203 -5.96037 3.21044 0
M  V30 7505 H 708.845 -4.11562 0.968306 0
M  V30 7506 H 706.563 -6.6 4.66288 0
M  V30 7507 H 710.149 -5.08026 2.83551 0
M  V30 7508 H 709.029 -6.30838 4.65847 0
M  V30 7509 N 706.532 -0.168513 -1.56696 0
M  V30 7510 C 707.762 0.482802 -2.0088 0
M  V30 7511 C 708.17 1.57537 -1.0478 0
M  V30 7512 O 707.513 1.83656 -0.0402746 0
M  V30 7513 C 707.575 1.1236 -3.4149 0
M  V30 7514 C 707.239 0.173027 -4.56672 0
M  V30 7515 C 708.236 -0.607565 -5.16338 0
M  V30 7516 C 705.921 0.0696691 -5.02252 0
M  V30 7517 C 707.915 -1.47874 -6.2001 0
M  V30 7518 C 705.602 -0.805096 -6.05773 0
M  V30 7519 C 706.6 -1.57789 -6.64524 0
M  V30 7520 O 706.288 -2.43804 -7.66038 0
M  V30 7521 H 706.02 0.128246 -0.663723 0
M  V30 7522 H 708.574 -0.266532 -2.03663 0
M  V30 7523 H 706.804 1.921 -3.35611 0
M  V30 7524 H 708.493 1.67683 -3.69645 0
M  V30 7525 H 709.259 -0.53787 -4.82008 0
M  V30 7526 H 705.138 0.660957 -4.56237 0
M  V30 7527 H 708.682 -2.0824 -6.65794 0
M  V30 7528 H 704.579 -0.876005 -6.39528 0
M  V30 7529 H 705.347 -2.37289 -7.83349 0
M  V30 7530 N 708.01 1.57248 0.105221 0
M  V30 7531 C 709.258 1.85204 0.808951 0
M  V30 7532 C 709.579 0.75574 1.7976 0
M  V30 7533 O 708.849 -0.218984 1.94672 0
M  V30 7534 H 707.429 0.683346 0.301739 0
M  V30 7535 H 710.091 1.94695 0.0892605 0
M  V30 7536 H 709.187 2.81595 1.34575 0
M  V30 7537 N 709.488 -0.375779 1.53054 0
M  V30 7538 C 710.734 -1.12114 1.68992 0
M  V30 7539 C 711.067 -1.8926 0.435238 0
M  V30 7540 O 710.342 -1.86044 -0.567278 0
M  V30 7541 C 710.625 -2.08867 2.93337 0
M  V30 7542 C 710.478 -1.35397 4.28938 0
M  V30 7543 C 711.797 -3.09124 3.13257 0
M  V30 7544 H 708.916 -0.406207 0.614951 0
M  V30 7545 H 711.558 -0.403054 1.85676 0
M  V30 7546 H 709.708 -2.70102 2.79244 0
M  V30 7547 H 711.38 -0.770242 4.54824 0
M  V30 7548 H 709.623 -0.655801 4.28814 0
M  V30 7549 H 710.294 -2.06161 5.12056 0
M  V30 7550 H 712.77 -2.57987 3.26469 0
M  V30 7551 H 711.646 -3.74054 4.01715 0
M  V30 7552 H 711.907 -3.78729 2.28072 0
M  V30 7553 N 710.966 -1.44241 -0.634997 0
M  V30 7554 C 712.243 -1.37296 -1.39317 0
M  V30 7555 C 712.623 -0.0297532 -2.11079 0
M  V30 7556 O 711.971 0.987524 -2.06059 0
M  V30 7557 C 712.181 -2.56853 -2.36279 0
M  V30 7558 C 713.529 -3.00747 -2.99728 0
M  V30 7559 O 714.553 -2.5703 -2.46605 0
M  V30 7560 O 713.412 -3.76533 -3.96087 0
M  V30 7561 H 710.506 -0.543503 -0.623325 0
M  V30 7562 H 713.052 -1.56324 -0.660376 0
M  V30 7563 H 711.824 -3.46228 -1.82324 0
M  V30 7564 H 711.447 -2.40019 -3.16981 0
M  V30 7565 N 712.444 0.87505 -1.31075 0
M  V30 7566 C 713.684 1.64174 -1.21763 0
M  V30 7567 C 714.048 1.90713 0.221933 0
M  V30 7568 O 715.249 2.652 0.438458 0
M  V30 7569 C 713.52 2.93932 -2.0332 0
M  V30 7570 S 715.079 3.84841 -2.10815 0
M  V30 7571 H 711.897 0.563358 -0.433761 0
M  V30 7572 H 714.499 1.03788 -1.65675 0
M  V30 7573 H 713.203 2.72349 -3.07009 0
M  V30 7574 H 712.734 3.59345 -1.60108 0
M  V30 7575 H 714.749 4.80385 -1.24276 0
M  V30 7576 N 713.922 1.13953 1.08869 0
M  V30 7577 C 714.855 0.765765 2.14968 0
M  V30 7578 C 715.833 -0.250689 1.60656 0
M  V30 7579 O 717.017 -0.140852 1.87973 0
M  V30 7580 C 714.144 0.136146 3.38426 0
M  V30 7581 C 713.19 1.12201 4.11477 0
M  V30 7582 S 714.023 2.65711 4.64928 0
M  V30 7583 C 715.179 2.04125 5.91679 0
M  V30 7584 H 715.412 1.66444 2.46341 0
M  V30 7585 H 712.945 0.960263 1.20906 0
M  V30 7586 H 714.903 -0.220712 4.09906 0
M  V30 7587 H 713.564 -0.739887 3.05261 0
M  V30 7588 H 712.757 0.629398 5.00055 0
M  V30 7589 H 712.359 1.42262 3.45886 0
M  V30 7590 H 714.651 1.39381 6.63008 0
M  V30 7591 H 715.594 2.90808 6.45629 0
M  V30 7592 H 716.002 1.4905 5.44467 0
M  V30 7593 N 715.4 -1.26948 0.933913 0
M  V30 7594 C 716.31 -2.30366 0.443671 0
M  V30 7595 C 717.326 -1.67284 -0.478745 0
M  V30 7596 O 718.502 -1.98156 -0.360043 0
M  V30 7597 C 715.567 -3.45485 -0.289974 0
M  V30 7598 C 714.628 -4.24069 0.668114 0
M  V30 7599 C 713.861 -5.33691 -0.0306138 0
M  V30 7600 O 714.084 -5.5656 -1.24888 0
M  V30 7601 O 713.018 -5.98441 0.644384 0
M  V30 7602 H 716.844 -2.74349 1.30254 0
M  V30 7603 H 714.429 -1.32012 0.699506 0
M  V30 7604 H 716.311 -4.15486 -0.70353 0
M  V30 7605 H 714.986 -3.03546 -1.12435 0
M  V30 7606 H 713.893 -3.56579 1.13147 0
M  V30 7607 H 715.226 -4.69739 1.46989 0
M  V30 7608 N 716.879 -0.700114 -1.41195 0
M  V30 7609 C 718.127 -0.232546 -2.00758 0
M  V30 7610 C 718.448 1.1734 -1.55745 0
M  V30 7611 O 717.718 1.79262 -0.790058 0
M  V30 7612 H 716.298 -0.0829845 -0.742376 0
M  V30 7613 H 718.96 -0.902289 -1.72756 0
M  V30 7614 H 718.056 -0.253521 -3.11069 0
M  V30 7615 N 718.357 1.51182 -0.445186 0
M  V30 7616 C 719.634 1.9478 0.178965 0
M  V30 7617 C 720.014 1.38428 1.59376 0
M  V30 7618 O 719.362 0.574552 2.21159 0
M  V30 7619 C 719.572 3.48683 0.148711 0
M  V30 7620 C 720.92 4.23152 0.35042 0
M  V30 7621 O 721.944 3.55479 0.226474 0
M  V30 7622 O 720.803 5.4322 0.597893 0
M  V30 7623 H 717.897 0.817387 0.12573 0
M  V30 7624 H 720.443 1.62051 -0.503729 0
M  V30 7625 H 719.215 3.82176 -0.84009 0
M  V30 7626 H 718.838 3.87875 0.873979 0
M  V30 7627 N 719.835 0.176821 1.56605 0
M  V30 7628 C 721.084 -0.466833 1.96223 0
M  V30 7629 C 721.397 -1.64015 1.06576 0
M  V30 7630 O 722.603 -2.3504 1.35898 0
M  V30 7631 C 721.059 -0.881921 3.48927 0
M  V30 7632 C 720.667 0.266102 4.47209 0
M  V30 7633 C 722.411 -1.49368 3.97353 0
M  V30 7634 C 720.318 -0.168923 5.91159 0
M  V30 7635 H 719.248 -0.178178 0.732645 0
M  V30 7636 H 721.899 0.265929 1.81563 0
M  V30 7637 H 720.281 -1.67082 3.59026 0
M  V30 7638 H 721.455 1.04349 4.4883 0
M  V30 7639 H 719.77 0.788178 4.08872 0
M  V30 7640 H 722.367 -1.8313 5.02362 0
M  V30 7641 H 722.71 -2.3936 3.40606 0
M  V30 7642 H 723.243 -0.769114 3.90294 0
M  V30 7643 H 719.982 0.696351 6.51791 0
M  V30 7644 H 719.502 -0.911552 5.92833 0
M  V30 7645 H 721.181 -0.610938 6.44109 0
M  V30 7646 N 721.313 -1.57302 -0.09688 0
M  V30 7647 C 722.562 -1.85183 -0.799388 0
M  V30 7648 C 722.875 -0.765818 -1.79985 0
M  V30 7649 O 724.081 -0.931696 -2.55013 0
M  V30 7650 C 722.537 -3.28399 -1.47249 0
M  V30 7651 C 722.145 -4.45066 -0.511888 0
M  V30 7652 C 723.889 -3.65506 -2.15883 0
M  V30 7653 C 721.796 -5.79315 -1.18948 0
M  V30 7654 H 720.726 -0.690752 -0.302287 0
M  V30 7655 H 723.377 -1.83425 -0.0523104 0
M  V30 7656 H 721.759 -3.24692 -2.26697 0
M  V30 7657 H 722.933 -4.60116 0.250962 0
M  V30 7658 H 721.248 -4.16343 0.0686576 0
M  V30 7659 H 723.845 -4.63087 -2.67309 0
M  V30 7660 H 724.188 -2.94041 -2.94696 0
M  V30 7661 H 724.721 -3.71094 -1.43298 0
M  V30 7662 H 721.46 -6.54007 -0.442198 0
M  V30 7663 H 720.98 -5.68111 -1.9238 0
M  V30 7664 H 722.659 -6.23816 -1.71646 0
M  V30 7665 N 722.791 0.367657 -1.53252 0
M  V30 7666 C 723.739 1.47061 -1.8021 0
M  V30 7667 C 724.733 1.55539 -0.671112 0
M  V30 7668 O 725.939 1.58451 -0.854014 0
M  V30 7669 H 722.314 0.489868 -0.570555 0
M  V30 7670 H 724.285 1.21527 -2.72532 0
M  V30 7671 C 723.034 2.83924 -2.00706 0
M  V30 7672 H 722.357 2.78158 -2.87172 0
M  V30 7673 H 723.797 3.60281 -2.23547 0
M  V30 7674 C 722.256 3.27613 -0.785568 0
M  V30 7675 O 722.786 4.01691 0.0267459 0
M  V30 7676 N 720.992 2.84134 -0.609597 0
M  V30 7677 H 720.539 2.24017 -1.27178 0
M  V30 7678 H 720.497 3.13723 0.206281 0
M  V30 7679 N 724.269 1.44576 0.627338 0
M  V30 7680 C 725.232 1.51372 1.72102 0
M  V30 7681 C 726.232 0.395329 1.55865 0
M  V30 7682 O 727.422 0.658094 1.61291 0
M  V30 7683 C 724.554 1.39129 3.11217 0
M  V30 7684 H 725.747 2.48798 1.6745 0
M  V30 7685 H 723.3 1.31724 0.841336 0
M  V30 7686 H 724.035 0.428114 3.21462 0
M  V30 7687 H 723.82 2.20229 3.24409 0
M  V30 7688 H 725.31 1.46874 3.90919 0
M  V30 7689 N 725.747 -0.868086 1.31537 0
M  V30 7690 C 726.977 -1.65162 1.24118 0
M  V30 7691 C 727.385 -1.88187 -0.195558 0
M  V30 7692 O 726.728 -1.44154 -1.13866 0
M  V30 7693 C 726.79 -3.04119 1.91708 0
M  V30 7694 C 726.454 -3.04194 3.4105 0
M  V30 7695 C 727.451 -2.82016 4.36764 0
M  V30 7696 C 725.136 -3.25256 3.82772 0
M  V30 7697 C 727.13 -2.80881 5.72175 0
M  V30 7698 C 724.817 -3.23749 5.18295 0
M  V30 7699 C 725.815 -3.01589 6.12808 0
M  V30 7700 O 725.503 -2.9993 7.45853 0
M  V30 7701 H 725.235 -0.521597 0.430015 0
M  V30 7702 H 727.789 -1.09165 1.73989 0
M  V30 7703 H 726.019 -3.61849 1.36389 0
M  V30 7704 H 727.708 -3.64701 1.78179 0
M  V30 7705 H 728.474 -2.65525 4.05859 0
M  V30 7706 H 724.353 -3.41534 3.09638 0
M  V30 7707 H 727.897 -2.63503 6.45919 0
M  V30 7708 H 723.794 -3.39781 5.48834 0
M  V30 7709 H 724.562 -3.15979 7.55049 0
M  V30 7710 N 727.225 -1.14528 -1.08264 0
M  V30 7711 C 728.502 -0.825185 -1.77342 0
M  V30 7712 C 728.882 0.681037 -1.99813 0
M  V30 7713 O 728.23 1.62234 -1.60912 0
M  V30 7714 C 728.44 -1.62556 -3.08831 0
M  V30 7715 C 729.788 -1.82585 -3.83338 0
M  V30 7716 O 730.812 -1.59254 -3.18617 0
M  V30 7717 O 729.671 -2.21598 -4.99556 0
M  V30 7718 H 726.765 -0.302531 -0.769678 0
M  V30 7719 H 729.311 -1.25056 -1.14713 0
M  V30 7720 H 728.083 -2.64862 -2.88035 0
M  V30 7721 H 727.706 -1.1959 -3.79189 0
M  V30 7722 N 728.703 1.26451 -0.940633 0
M  V30 7723 C 729.651 2.28389 -0.440581 0
M  V30 7724 C 730.645 1.62402 0.481859 0
M  V30 7725 O 731.851 1.76361 0.360132 0
M  V30 7726 H 728.226 0.741716 -0.123938 0
M  V30 7727 H 730.197 2.67967 -1.31288 0
M  V30 7728 C 728.946 3.46576 0.279364 0
M  V30 7729 H 728.269 3.97574 -0.421274 0
M  V30 7730 H 729.709 4.19826 0.59348 0
M  V30 7731 C 728.168 3.01815 1.49697 0
M  V30 7732 O 728.698 3.06607 2.59529 0
M  V30 7733 N 726.904 2.57163 1.35334 0
M  V30 7734 H 726.451 2.53464 0.459743 0
M  V30 7735 H 726.409 2.27578 2.16923 0
M  V30 7736 N 730.181 0.707592 1.40822 0
M  V30 7737 C 731.421 0.247986 2.0289 0
M  V30 7738 C 731.785 -1.13484 1.54872 0
M  V30 7739 O 732.986 -1.69098 2.08948 0
M  V30 7740 C 731.257 0.316326 3.55997 0
M  V30 7741 S 732.816 -0.0674698 4.38748 0
M  V30 7742 H 729.634 0.09895 0.704081 0
M  V30 7743 H 732.236 0.928039 1.72069 0
M  V30 7744 H 730.94 1.32453 3.88438 0
M  V30 7745 H 730.471 -0.382474 3.91536 0
M  V30 7746 H 732.486 -1.29182 4.79089 0
M  V30 7747 N 731.66 -1.50943 0.453197 0
M  V30 7748 C 732.909 -2.01402 -0.10951 0
M  V30 7749 C 733.222 -1.3411 -1.42386 0
M  V30 7750 O 734.428 -1.75626 -2.07045 0
M  V30 7751 C 732.884 -3.5906 -0.245693 0
M  V30 7752 C 732.492 -4.353 1.05916 0
M  V30 7753 C 734.236 -4.17617 -0.761318 0
M  V30 7754 C 732.143 -5.84699 0.887752 0
M  V30 7755 H 731.073 -0.752674 -0.0447013 0
M  V30 7756 H 733.724 -1.73913 0.585375 0
M  V30 7757 H 732.106 -3.83062 -1.00395 0
M  V30 7758 H 733.28 -4.23034 1.82698 0
M  V30 7759 H 731.595 -3.88269 1.50452 0
M  V30 7760 H 734.192 -5.26963 -0.906306 0
M  V30 7761 H 734.535 -3.77824 -1.74799 0
M  V30 7762 H 735.068 -3.97753 -0.0609416 0
M  V30 7763 H 731.807 -6.28933 1.84726 0
M  V30 7764 H 731.327 -5.99587 0.160006 0
M  V30 7765 H 733.006 -6.44682 0.547223 0
M  V30 7766 N 733.138 -0.185124 -1.56509 0
M  V30 7767 C 734.385 0.456258 -1.97293 0
M  V30 7768 C 734.713 1.62314 -1.07165 0
M  V30 7769 O 733.968 1.95398 -0.108621 0
M  V30 7770 C 734.267 0.967977 -3.44042 0
M  V30 7771 C 733.933 -0.084476 -4.50821 0
M  V30 7772 C 732.595 -0.373689 -4.79747 0
M  V30 7773 C 734.947 -0.79812 -5.15053 0
M  V30 7774 C 732.275 -1.3817 -5.70198 0
M  V30 7775 C 734.627 -1.79521 -6.06593 0
M  V30 7776 C 733.291 -2.09172 -6.3388 0
M  V30 7777 H 732.561 0.166957 -0.721946 0
M  V30 7778 H 735.208 -0.279992 -1.89442 0
M  V30 7779 H 733.513 1.78231 -3.48914 0
M  V30 7780 H 735.21 1.47347 -3.72948 0
M  V30 7781 H 731.8 0.15111 -4.28334 0
M  V30 7782 H 735.984 -0.587903 -4.92806 0
M  V30 7783 H 731.24 -1.61745 -5.89617 0
M  V30 7784 H 735.414 -2.35347 -6.55427 0
M  V30 7785 H 733.041 -2.87427 -7.03768 0
M  V30 7786 N 734.616 1.57351 0.0885366 0
M  V30 7787 C 735.526 2.05858 1.12516 0
M  V30 7788 C 736.542 0.984758 1.43452 0
M  V30 7789 O 737.718 1.29836 1.53963 0
M  V30 7790 C 734.783 2.47882 2.42395 0
M  V30 7791 C 733.844 3.69487 2.18582 0
M  V30 7792 C 733.077 4.09497 3.42268 0
M  V30 7793 O 733.3 3.49536 4.50755 0
M  V30 7794 O 732.234 5.02406 3.31469 0
M  V30 7795 H 736.06 2.94467 0.743146 0
M  V30 7796 H 733.645 1.46326 0.301507 0
M  V30 7797 H 735.527 2.75509 3.18862 0
M  V30 7798 H 734.202 1.62408 2.8001 0
M  V30 7799 H 733.109 3.46967 1.39875 0
M  V30 7800 H 734.442 4.55761 1.85857 0
M  V30 7801 N 736.094 -0.359525 1.53444 0
M  V30 7802 C 737.34 -1.10315 1.70172 0
M  V30 7803 C 737.673 -1.88788 0.455287 0
M  V30 7804 O 736.948 -1.86635 -0.547514 0
M  V30 7805 C 737.231 -2.05744 2.95536 0
M  V30 7806 C 737.084 -1.3084 4.3035 0
M  V30 7807 C 738.403 -3.05784 3.16518 0
M  V30 7808 H 735.522 -0.399662 0.619225 0
M  V30 7809 H 738.164 -0.383338 1.86093 0
M  V30 7810 H 736.314 -2.67125 2.82093 0
M  V30 7811 H 737.986 -0.721959 4.55615 0
M  V30 7812 H 736.229 -0.610283 4.29486 0
M  V30 7813 H 736.9 -2.00718 5.14214 0
M  V30 7814 H 739.376 -2.5451 3.29187 0
M  V30 7815 H 738.252 -3.69772 4.05659 0
M  V30 7816 H 738.513 -3.76289 2.32076 0
M  V30 7817 N 737.572 -1.44907 -0.619662 0
M  V30 7818 C 738.8 -1.51795 -1.40591 0
M  V30 7819 C 739.215 -0.146553 -1.8823 0
M  V30 7820 O 738.572 0.849698 -1.61513 0
M  V30 7821 C 738.623 -2.49229 -2.61853 0
M  V30 7822 O 738.344 -3.81039 -2.16197 0
M  V30 7823 C 739.845 -2.65696 -3.54853 0
M  V30 7824 H 737.065 -0.514463 -0.430777 0
M  V30 7825 H 739.609 -1.8998 -0.756813 0
M  V30 7826 H 737.764 -2.14149 -3.2283 0
M  V30 7827 H 738.178 -4.33747 -2.94896 0
M  V30 7828 H 739.652 -3.37874 -4.36515 0
M  V30 7829 H 740.129 -1.71316 -4.0441 0
M  V30 7830 H 740.735 -3.01724 -2.99737 0
M  V30 7831 N 739.05 0.861098 -1.31996 0
M  V30 7832 C 739.997 1.96912 -1.20392 0
M  V30 7833 C 740.967 1.65869 -0.0875899 0
M  V30 7834 O 742.152 1.88992 -0.262011 0
M  V30 7835 C 739.292 3.32435 -0.926335 0
M  V30 7836 C 738.405 3.76018 -2.12684 0
M  V30 7837 C 737.54 5.00301 -1.78529 0
M  V30 7838 C 736.579 5.36357 -2.94937 0
M  V30 7839 N 735.716 6.51818 -2.60917 0
M  V30 7840 H 740.556 2.06169 -2.1517 0
M  V30 7841 H 738.093 1.00917 -1.07024 0
M  V30 7842 H 740.051 4.10478 -0.745917 0
M  V30 7843 H 738.681 3.22796 -0.0153578 0
M  V30 7844 H 737.733 2.93683 -2.41774 0
M  V30 7845 H 739.045 3.98664 -2.99781 0
M  V30 7846 H 738.199 5.86034 -1.57001 0
M  V30 7847 H 736.938 4.79578 -0.886356 0
M  V30 7848 H 735.943 4.49139 -3.17103 0
M  V30 7849 H 737.168 5.59041 -3.85552 0
M  V30 7850 H 735.114 6.32624 -1.73558 0
M  V30 7851 H 735.031 6.7445 -3.41544 0
M  V30 7852 H 736.299 7.4072 -2.42804 0
M  V30 7853 N 740.528 1.15101 1.07655 0
M  V30 7854 C 741.777 0.918528 1.79572 0
M  V30 7855 C 742.09 -0.555922 1.87534 0
M  V30 7856 O 743.296 -0.905893 2.55941 0
M  V30 7857 C 741.752 1.59394 3.22679 0
M  V30 7858 C 741.36 3.1052 3.22927 0
M  V30 7859 C 743.104 1.44289 3.99225 0
M  V30 7860 C 741.011 3.70862 4.60668 0
M  V30 7861 H 739.941 0.340006 0.672987 0
M  V30 7862 H 742.592 1.38079 1.20857 0
M  V30 7863 H 740.974 1.05936 3.81567 0
M  V30 7864 H 742.148 3.70708 2.737 0
M  V30 7865 H 740.463 3.25351 2.59876 0
M  V30 7866 H 743.06 1.86766 5.01022 0
M  V30 7867 H 743.403 0.389975 4.14469 0
M  V30 7868 H 743.936 1.94826 3.46825 0
M  V30 7869 H 740.675 4.7604 4.50628 0
M  V30 7870 H 740.195 3.15456 5.10145 0
M  V30 7871 H 741.874 3.71607 5.29639 0
M  V30 7872 N 742.006 -1.2595 0.947325 0
M  V30 7873 C 742.953 -2.26159 0.460497 0
M  V30 7874 C 743.923 -1.58919 -0.483125 0
M  V30 7875 O 745.108 -1.86603 -0.397983 0
M  V30 7876 C 742.248 -3.441 -0.26247 0
M  V30 7877 C 741.361 -4.25999 0.717539 0
M  V30 7878 C 740.496 -5.31193 -0.0272486 0
M  V30 7879 C 739.535 -6.04774 0.944177 0
M  V30 7880 N 738.672 -7.01721 0.230741 0
M  V30 7881 H 743.512 -2.67173 1.31995 0
M  V30 7882 H 741.049 -1.31358 0.662088 0
M  V30 7883 H 743.007 -4.11317 -0.698137 0
M  V30 7884 H 741.637 -3.03983 -1.08602 0
M  V30 7885 H 740.689 -3.58513 1.27171 0
M  V30 7886 H 742.001 -4.76981 1.45913 0
M  V30 7887 H 741.155 -6.04451 -0.521903 0
M  V30 7888 H 739.894 -4.81066 -0.801682 0
M  V30 7889 H 738.899 -5.30338 1.4499 0
M  V30 7890 H 740.124 -6.56991 1.71872 0
M  V30 7891 H 738.07 -6.53895 -0.525088 0
M  V30 7892 H 737.987 -7.50484 0.911556 0
M  V30 7893 H 739.255 -7.79122 -0.242616 0
M  V30 7894 N 743.484 -0.715051 -1.40445 0
M  V30 7895 C 744.9 -0.388555 -1.54798 0
M  V30 7896 C 745.1 1.10271 -1.68649 0
M  V30 7897 O 744.156 1.88875 -1.67578 0
M  V30 7898 C 745.469 -1.15414 -2.77669 0
M  V30 7899 C 747.017 -1.14039 -2.91486 0
M  V30 7900 C 747.492 -1.88812 -4.1727 0
M  V30 7901 N 748.983 -1.85878 -4.24268 0
M  V30 7902 C 749.718 -2.40558 -5.20499 0
M  V30 7903 N 749.214 -3.03791 -6.22642 0
M  V30 7904 N 751.007 -2.30703 -5.12574 0
M  V30 7905 H 743.158 -1.68201 -1.297 0
M  V30 7906 H 745.421 -0.710915 -0.627139 0
M  V30 7907 H 745.127 -2.20853 -2.7371 0
M  V30 7908 H 745.001 -0.745412 -3.69761 0
M  V30 7909 H 747.388 -0.0941996 -2.9495 0
M  V30 7910 H 747.469 -1.58834 -2.00513 0
M  V30 7911 H 747.113 -2.93422 -4.14568 0
M  V30 7912 H 747.043 -1.41438 -5.0725 0
M  V30 7913 H 749.534 -1.39794 -3.51093 0
M  V30 7914 H 749.847 -3.43032 -6.92495 0
M  V30 7915 H 748.192 -3.07875 -6.23087 0
M  V30 7916 H 751.383 -1.80961 -4.31707 0
M  V30 7917 H 751.556 -2.73618 -5.87398 0
M  V30 7918 N 744.962 1.50701 -0.461195 0
M  V30 7919 C 745.91 2.29918 0.352231 0
M  V30 7920 C 746.904 1.36778 0.999403 0
M  V30 7921 O 748.11 1.54015 0.931639 0
M  V30 7922 H 744.485 0.740249 0.132423 0
M  V30 7923 H 746.456 2.96497 -0.336424 0
M  V30 7924 C 745.205 3.17052 1.42736 0
M  V30 7925 H 744.528 3.88623 0.938747 0
M  V30 7926 H 745.968 3.75493 1.96928 0
M  V30 7927 C 744.427 2.3399 2.42384 0
M  V30 7928 O 744.957 2.01608 3.47444 0
M  V30 7929 N 743.163 1.96758 2.13857 0
M  V30 7930 H 742.71 2.23292 1.28447 0
M  V30 7931 H 742.668 1.41484 2.80766 0
M  V30 7932 N 746.441 0.193421 1.56409 0
M  V30 7933 C 747.687 -0.446449 1.97825 0
M  V30 7934 C 748.02 -1.61386 1.08019 0
M  V30 7935 O 747.295 -1.94053 0.131839 0
M  V30 7936 C 747.578 -0.908199 3.48459 0
M  V30 7937 C 747.431 0.260914 4.49043 0
M  V30 7938 C 748.75 -1.77428 4.0275 0
M  V30 7939 H 745.869 -0.160807 0.719243 0
M  V30 7940 H 748.511 0.284006 1.87865 0
M  V30 7941 H 746.661 -1.53062 3.57077 0
M  V30 7942 H 748.333 0.898548 4.52464 0
M  V30 7943 H 746.576 0.912949 4.24085 0
M  V30 7944 H 747.247 -0.104657 5.51901 0
M  V30 7945 H 749.723 -1.24936 3.96901 0
M  V30 7946 H 748.599 -2.06633 5.08521 0
M  V30 7947 H 748.86 -2.72788 3.47907 0
M  V30 7948 N 747.919 -1.57396 -0.0801906 0
M  V30 7949 C 749.168 -1.8602 -0.779702 0
M  V30 7950 C 749.481 -0.784864 -1.79163 0
M  V30 7951 O 750.687 -0.958691 -2.54011 0
M  V30 7952 C 749.143 -3.29942 -1.43758 0
M  V30 7953 C 748.751 -4.45584 -0.464654 0
M  V30 7954 C 750.495 -3.67775 -2.11995 0
M  V30 7955 C 748.402 -5.80544 -1.12797 0
M  V30 7956 H 747.332 -0.69392 -0.294943 0
M  V30 7957 H 749.983 -1.83471 -0.0328527 0
M  V30 7958 H 748.365 -3.27078 -2.2324 0
M  V30 7959 H 749.539 -4.59824 0.299749 0
M  V30 7960 H 747.854 -4.16247 0.112813 0
M  V30 7961 H 750.451 -4.65896 -2.62383 0
M  V30 7962 H 750.794 -2.9715 -2.91561 0
M  V30 7963 H 751.327 -3.72593 -1.39354 0
M  V30 7964 H 748.066 -6.54439 -0.372807 0
M  V30 7965 H 747.586 -5.70119 -1.86344 0
M  V30 7966 H 749.265 -6.25602 -1.6502 0
M  V30 7967 N 749.397 0.351382 -1.53633 0
M  V30 7968 C 750.627 1.11113 -1.74176 0
M  V30 7969 C 751.035 1.83084 -0.477154 0
M  V30 7970 O 750.378 1.74941 0.560483 0
M  V30 7971 C 750.44 2.17521 -2.86225 0
M  V30 7972 C 750.104 1.65193 -4.26099 0
M  V30 7973 C 751.101 1.10842 -5.07947 0
M  V30 7974 C 748.786 1.70277 -4.72558 0
M  V30 7975 C 750.78 0.622689 -6.34351 0
M  V30 7976 C 748.467 1.21316 -5.98937 0
M  V30 7977 C 749.465 0.674033 -6.79666 0
M  V30 7978 O 749.153 0.191696 -8.03671 0
M  V30 7979 H 748.885 0.33756 -0.585687 0
M  V30 7980 H 751.439 0.411786 -2.0123 0
M  V30 7981 H 749.669 2.90991 -2.54678 0
M  V30 7982 H 751.358 2.78999 -2.94812 0
M  V30 7983 H 752.124 1.06243 -4.7322 0
M  V30 7984 H 748.003 2.11181 -4.09785 0
M  V30 7985 H 751.547 0.201216 -6.9731 0
M  V30 7986 H 747.444 1.25613 -6.3316 0
M  V30 7987 H 748.212 0.309712 -8.17914 0
M  V30 7988 N 750.875 1.45233 0.611969 0
M  V30 7989 C 752.1 1.52767 1.40274 0
M  V30 7990 C 752.525 0.159701 1.87421 0
M  V30 7991 O 751.883 -0.854837 1.59882 0
M  V30 7992 C 751.931 2.51286 2.58626 0
M  V30 7993 O 751.035 2.02764 3.59111 0
M  V30 7994 H 750.376 0.515141 0.418958 0
M  V30 7995 H 752.906 1.90547 0.745188 0
M  V30 7996 H 752.916 2.69949 3.05927 0
M  V30 7997 H 751.591 3.50641 2.23659 0
M  V30 7998 H 750.168 1.93957 3.18489 0
M  V30 7999 N 752.353 -0.854086 1.3245 0
M  V30 8000 C 753.316 -1.94427 1.21371 0
M  V30 8001 C 754.316 -1.60219 0.136613 0
M  V30 8002 O 755.506 -1.69846 0.387057 0
M  V30 8003 C 752.638 -3.29698 0.866701 0
M  V30 8004 H 753.831 -2.05679 2.18257 0
M  V30 8005 H 751.384 -1.04434 1.1629 0
M  V30 8006 H 752.119 -3.24145 -0.100319 0
M  V30 8007 H 751.904 -3.55903 1.64545 0
M  V30 8008 H 753.394 -4.09599 0.813515 0
M  V30 8009 N 753.831 -1.1567 -1.07043 0
M  V30 8010 C 755.059 -0.957471 -1.83412 0
M  V30 8011 C 755.474 0.494271 -1.82215 0
M  V30 8012 O 754.831 1.34288 -1.23584 0
M  V30 8013 C 754.882 -1.46784 -3.30359 0
M  V30 8014 O 754.603 -2.86271 -3.31633 0
M  V30 8015 C 756.104 -1.31054 -4.23485 0
M  V30 8016 H 753.324 -0.33986 -0.578564 0
M  V30 8017 H 755.868 -1.53518 -1.35102 0
M  V30 8018 H 754.023 -0.932586 -3.76007 0
M  V30 8019 H 754.437 -3.0948 -4.23465 0
M  V30 8020 H 755.911 -1.71605 -5.24648 0
M  V30 8021 H 756.388 -0.255107 -4.38458 0
M  V30 8022 H 756.994 -1.83503 -3.83676 0
M  V30 8023 N 755.309 1.25446 -0.953992 0
M  V30 8024 C 756.219 2.29632 -0.480264 0
M  V30 8025 C 757.235 1.68025 0.452071 0
M  V30 8026 O 758.411 1.98703 0.328472 0
M  V30 8027 C 755.476 3.45903 0.234974 0
M  V30 8028 C 754.537 4.22953 -0.735495 0
M  V30 8029 C 753.77 5.33672 -0.0542957 0
M  V30 8030 O 753.993 5.58477 1.16018 0
M  V30 8031 O 752.927 5.9734 -0.739509 0
M  V30 8032 H 756.753 2.72242 -1.34602 0
M  V30 8033 H 754.338 1.30883 -0.720419 0
M  V30 8034 H 756.22 4.16552 0.637341 0
M  V30 8035 H 754.895 3.05296 1.07592 0
M  V30 8036 H 753.802 3.54734 -1.18806 0
M  V30 8037 H 755.135 4.67341 -1.54444 0
M  V30 8038 N 756.787 0.722489 1.40064 0
M  V30 8039 C 757.75 0.0830209 2.2905 0
M  V30 8040 C 758.75 -0.680208 1.45705 0
M  V30 8041 O 759.94 -0.511084 1.66534 0
M  V30 8042 C 757.072 -0.892092 3.29021 0
M  V30 8043 H 758.265 0.866848 2.87099 0
M  V30 8044 H 755.818 0.487556 1.48501 0
M  V30 8045 H 756.553 -1.70273 2.76003 0
M  V30 8046 H 756.338 -0.34761 3.90556 0
M  V30 8047 H 757.828 -1.33648 3.95636 0
M  V30 8048 N 758.265 -1.50454 0.469181 0
M  V30 8049 C 759.228 -2.2703 -0.314643 0
M  V30 8050 C 760.228 -1.31734 -0.922111 0
M  V30 8051 O 761.418 -1.55176 -0.791588 0
M  V30 8052 C 758.55 -3.08616 -1.44806 0
M  V30 8053 H 759.743 -2.97769 0.356892 0
M  V30 8054 H 757.296 -1.54698 0.223191 0
M  V30 8055 H 758.031 -2.42369 -2.1547 0
M  V30 8056 H 757.816 -3.78647 -1.01829 0
M  V30 8057 H 759.306 -3.66536 -2.00103 0
M  V30 8058 N 759.743 -0.201713 -1.56304 0
M  V30 8059 C 760.983 0.437395 -1.99665 0
M  V30 8060 C 761.347 1.58341 -1.08592 0
M  V30 8061 O 762.548 2.28716 -1.41217 0
M  V30 8062 C 760.819 0.879572 -3.46408 0
M  V30 8063 S 762.378 1.51558 -4.11795 0
M  V30 8064 H 759.196 0.139621 -0.697156 0
M  V30 8065 H 761.798 -0.306337 -1.93085 0
M  V30 8066 H 760.502 0.0355295 -4.10385 0
M  V30 8067 H 760.033 1.65661 -3.56819 0
M  V30 8068 H 762.048 2.80445 -4.09347 0
M  V30 8069 N 761.222 1.57436 0.0718424 0
M  V30 8070 C 762.152 2.06724 1.08571 0
M  V30 8071 C 763.133 0.960731 1.40371 0
M  V30 8072 O 764.318 1.23345 1.49999 0
M  V30 8073 C 761.448 2.51112 2.39916 0
M  V30 8074 C 760.402 3.65639 2.22469 0
M  V30 8075 C 759.728 3.96082 3.59198 0
M  V30 8076 C 761.028 4.95687 1.64596 0
M  V30 8077 H 762.722 2.91679 0.675569 0
M  V30 8078 H 760.268 1.40319 0.32352 0
M  V30 8079 H 762.221 2.84206 3.11135 0
M  V30 8080 H 760.945 1.63186 2.8291 0
M  V30 8081 H 759.604 3.32828 1.53691 0
M  V30 8082 H 759.252 3.05287 3.99761 0
M  V30 8083 H 758.952 4.73199 3.48362 0
M  V30 8084 H 760.476 4.31672 4.31847 0
M  V30 8085 H 761.89 5.27011 2.25681 0
M  V30 8086 H 760.287 5.77126 1.64457 0
M  V30 8087 H 761.357 4.8108 0.60744 0
M  V30 8088 N 762.7 -0.34323 1.53817 0
M  V30 8089 C 763.949 -1.08086 1.70295 0
M  V30 8090 C 764.262 -1.89794 0.47302 0
M  V30 8091 O 765.468 -2.66498 0.518754 0
M  V30 8092 C 763.924 -1.97097 3.01133 0
M  V30 8093 C 763.532 -1.20594 4.31464 0
M  V30 8094 C 765.276 -2.70715 3.26976 0
M  V30 8095 C 763.183 -2.08636 5.53376 0
M  V30 8096 H 762.113 -0.407228 0.634572 0
M  V30 8097 H 764.764 -0.340328 1.80316 0
M  V30 8098 H 763.146 -2.74971 2.84969 0
M  V30 8099 H 764.32 -0.476282 4.58332 0
M  V30 8100 H 762.635 -0.587426 4.12236 0
M  V30 8101 H 765.232 -3.36857 4.15248 0
M  V30 8102 H 765.575 -3.37299 2.43998 0
M  V30 8103 H 766.108 -1.99914 3.43917 0
M  V30 8104 H 762.847 -1.46594 6.38898 0
M  V30 8105 H 762.367 -2.7939 5.30755 0
M  V30 8106 H 764.046 -2.67682 5.89029 0
M  V30 8107 N 764.178 -1.45556 -0.604258 0
M  V30 8108 C 765.108 -1.57327 -1.72541 0
M  V30 8109 C 766.089 -0.424637 -1.64714 0
M  V30 8110 O 767.274 -0.648196 -1.83063 0
M  V30 8111 C 764.404 -1.54279 -3.11152 0
M  V30 8112 C 763.358 -2.67893 -3.33792 0
M  V30 8113 C 762.684 -2.499 -4.72709 0
M  V30 8114 C 763.984 -4.0988 -3.23722 0
M  V30 8115 H 765.678 -2.51175 -1.62947 0
M  V30 8116 H 763.224 -1.20884 -0.782504 0
M  V30 8117 H 765.177 -1.6111 -3.89386 0
M  V30 8118 H 763.901 -0.569627 -3.21594 0
M  V30 8119 H 762.56 -2.60495 -2.57949 0
M  V30 8120 H 762.208 -1.50715 -4.79889 0
M  V30 8121 H 761.908 -3.26091 -4.88813 0
M  V30 8122 H 763.432 -2.5859 -5.5314 0
M  V30 8123 H 764.846 -4.18503 -3.91826 0
M  V30 8124 H 763.243 -4.86487 -3.51355 0
M  V30 8125 H 764.313 -4.31553 -2.21111 0
M  V30 8126 N 765.656 0.84705 -1.32902 0
M  V30 8127 C 766.881 1.63925 -1.27056 0
M  V30 8128 C 767.306 1.87443 0.157136 0
M  V30 8129 O 766.664 1.43266 1.11106 0
M  V30 8130 C 766.712 2.97134 -2.04313 0
M  V30 8131 O 765.816 3.88049 -1.39614 0
M  V30 8132 H 765.157 0.499477 -0.437514 0
M  V30 8133 H 767.687 1.05443 -1.75336 0
M  V30 8134 H 767.697 3.46896 -2.14772 0
M  V30 8135 H 766.372 2.79339 -3.08128 0
M  V30 8136 H 764.949 3.46525 -1.3775 0
M  V30 8137 N 767.134 1.16236 1.06428 0
M  V30 8138 C 768.383 0.937523 1.78587 0
M  V30 8139 C 768.696 -0.536 1.88113 0
M  V30 8140 O 769.902 -0.878697 2.56887 0
M  V30 8141 C 768.358 1.62808 3.2097 0
M  V30 8142 C 767.966 3.13927 3.19615 0
M  V30 8143 C 769.71 1.48515 3.97673 0
M  V30 8144 C 767.617 3.75727 4.56709 0
M  V30 8145 H 766.547 0.347125 0.669343 0
M  V30 8146 H 769.198 1.39353 1.19385 0
M  V30 8147 H 767.58 1.09977 3.80422 0
M  V30 8148 H 768.754 3.7359 2.69753 0
M  V30 8149 H 767.069 3.28089 2.56411 0
M  V30 8150 H 769.666 1.92069 4.99013 0
M  V30 8151 H 770.009 0.433913 4.14032 0
M  V30 8152 H 770.542 1.98494 3.44739 0
M  V30 8153 H 767.281 4.80793 4.45554 0
M  V30 8154 H 766.801 3.20849 5.0677 0
M  V30 8155 H 768.48 3.77203 5.25668 0
M  V30 8156 N 768.612 -1.24939 0.960631 0
M  V30 8157 C 769.889 -1.88118 0.535807 0
M  V30 8158 C 770.269 -1.86605 -0.987009 0
M  V30 8159 O 769.617 -1.33375 -1.85536 0
M  V30 8160 C 769.827 -3.30565 1.11927 0
M  V30 8161 C 771.175 -4.07296 1.19981 0
M  V30 8162 O 772.199 -3.39709 1.07126 0
M  V30 8163 O 771.058 -5.28206 1.40218 0
M  V30 8164 H 768.152 -0.807698 0.177631 0
M  V30 8165 H 770.698 -1.32964 1.05445 0
M  V30 8166 H 769.47 -3.26128 2.16231 0
M  V30 8167 H 769.093 -3.93284 0.584245 0
M  V30 8168 N 770.09 -0.729906 -1.39679 0
M  V30 8169 C 771 -0.0880322 -2.34435 0
M  V30 8170 C 772.016 0.727674 -1.58053 0
M  V30 8171 O 773.192 0.657321 -1.90371 0
M  V30 8172 C 770.257 0.812211 -3.37052 0
M  V30 8173 C 769.318 -0.0151681 -4.29297 0
M  V30 8174 C 768.551 0.842202 -5.27013 0
M  V30 8175 O 768.774 2.08108 -5.31081 0
M  V30 8176 O 767.708 0.27357 -6.01278 0
M  V30 8177 H 771.534 -0.869989 -2.90972 0
M  V30 8178 H 769.119 -0.490522 -1.41118 0
M  V30 8179 H 771.001 1.32745 -3.99946 0
M  V30 8180 H 769.676 1.57307 -2.82907 0
M  V30 8181 H 768.583 -0.575811 -3.69642 0
M  V30 8182 H 769.916 -0.738129 -4.86634 0
M  V30 8183 N 771.568 1.50203 -0.477153 0
M  V30 8184 C 772.796 2.0677 0.0732489 0
M  V30 8185 C 773.211 1.34033 1.32968 0
M  V30 8186 O 772.568 0.411412 1.77802 0
M  V30 8187 C 772.619 3.59751 0.35518 0
M  V30 8188 O 772.34 4.29747 -0.851425 0
M  V30 8189 C 773.841 4.3296 0.951877 0
M  V30 8190 H 771.061 0.670929 -0.00978923 0
M  V30 8191 H 773.605 1.93293 -0.667676 0
M  V30 8192 H 771.76 3.7301 1.04605 0
M  V30 8193 H 772.174 5.2106 -0.599708 0
M  V30 8194 H 773.648 5.40952 1.09888 0
M  V30 8195 H 774.125 3.93856 1.94356 0
M  V30 8196 H 774.731 4.24246 0.299208 0
M  V30 8197 N 773.046 0.209999 1.56195 0
M  V30 8198 C 774.295 -0.425106 1.97169 0
M  V30 8199 C 774.608 -1.61718 1.10031 0
M  V30 8200 O 775.814 -2.32105 1.40853 0
M  V30 8201 C 774.27 -0.80771 3.50719 0
M  V30 8202 C 773.878 0.360902 4.46544 0
M  V30 8203 C 775.622 -1.40906 4.00432 0
M  V30 8204 C 773.529 -0.0434919 5.91384 0
M  V30 8205 H 772.459 -0.162598 0.736259 0
M  V30 8206 H 775.11 0.304382 1.80958 0
M  V30 8207 H 773.492 -1.59429 3.62489 0
M  V30 8208 H 774.666 1.13846 4.46515 0
M  V30 8209 H 772.981 0.874729 4.07109 0
M  V30 8210 H 775.578 -1.72433 5.06133 0
M  V30 8211 H 775.921 -2.32081 3.45607 0
M  V30 8212 H 776.454 -0.686154 3.91838 0
M  V30 8213 H 773.193 0.834448 6.50167 0
M  V30 8214 H 772.713 -0.785598 5.94633 0
M  V30 8215 H 774.392 -0.474176 6.4526 0
M  V30 8216 N 774.524 -1.57472 -0.0634922 0
M  V30 8217 C 775.471 -2.04258 -1.07457 0
M  V30 8218 C 776.441 -0.924804 -1.37973 0
M  V30 8219 O 777.626 -1.19305 -1.48899 0
M  V30 8220 C 774.766 -2.49832 -2.38071 0
M  V30 8221 C 773.879 -3.75263 -2.14014 0
M  V30 8222 C 773.014 -4.09585 -3.38251 0
M  V30 8223 C 772.053 -5.28032 -3.09594 0
M  V30 8224 N 771.19 -5.57953 -4.26185 0
M  V30 8225 H 776.03 -2.90402 -0.668626 0
M  V30 8226 H 773.567 -1.43609 -0.318572 0
M  V30 8227 H 775.525 -2.7431 -3.14341 0
M  V30 8228 H 774.155 -1.66654 -2.76453 0
M  V30 8229 H 773.207 -3.58075 -1.28399 0
M  V30 8230 H 774.519 -4.61667 -1.88852 0
M  V30 8231 H 773.673 -4.35008 -4.2291 0
M  V30 8232 H 772.412 -3.21765 -3.66495 0
M  V30 8233 H 771.417 -5.02397 -2.23332 0
M  V30 8234 H 772.642 -6.17477 -2.82663 0
M  V30 8235 H 770.588 -4.73092 -4.54445 0
M  V30 8236 H 770.505 -6.38793 -4.04326 0
M  V30 8237 H 771.773 -5.87931 -5.11817 0
M  V30 8238 N 776.003 0.335068 -1.53997 0
M  V30 8239 C 776.951 1.43206 -1.83289 0
M  V30 8240 C 777.945 1.54081 -0.703953 0
M  V30 8241 O 779.151 1.56603 -0.887432 0
M  V30 8242 H 775.526 0.477655 -0.580818 0
M  V30 8243 H 777.497 1.15719 -2.75049 0
M  V30 8244 C 776.246 2.79602 -2.06683 0
M  V30 8245 H 775.569 2.72004 -2.93008 0
M  V30 8246 H 777.009 3.55459 -2.31139 0
M  V30 8247 C 775.468 3.25873 -0.854883 0
M  V30 8248 O 775.998 4.01657 -0.0584648 0
M  V30 8249 N 774.204 2.82777 -0.669729 0
M  V30 8250 H 773.751 2.21269 -1.31901 0
M  V30 8251 H 773.709 3.1409 0.13969 0
M  V30 8252 N 777.481 1.45874 0.596531 0
M  V30 8253 C 778.892 1.44798 1.17857 0
M  V30 8254 C 779.243 0.181443 1.95359 0
M  V30 8255 O 778.368 -0.716336 2.042 0
M  V30 8256 C 778.963 2.62333 2.14398 0
M  V30 8257 C 777.522 2.64342 2.67955 0
M  V30 8258 C 776.669 2.37244 1.43564 0
M  V30 8259 H 779.62 1.53954 0.385222 0
M  V30 8260 H 779.641 2.37063 2.97626 0
M  V30 8261 H 779.153 3.54499 1.57963 0
M  V30 8262 H 777.254 1.76213 3.28298 0
M  V30 8263 H 777.367 3.63897 3.11634 0
M  V30 8264 H 775.731 1.87022 1.72901 0
M  V30 8265 H 776.514 3.31568 0.889805 0
M  V30 8266 N 778.959 -0.83999 1.33349 0
M  V30 8267 C 780.184 -1.63249 1.27924 0
M  V30 8268 C 780.609 -1.87523 -0.147193 0
M  V30 8269 O 779.967 -1.43853 -1.10345 0
M  V30 8270 C 780.015 -2.96046 2.05886 0
M  V30 8271 O 779.119 -3.87303 1.4167 0
M  V30 8272 H 778.46 -0.49715 0.440157 0
M  V30 8273 H 780.99 -1.04512 1.75893 0
M  V30 8274 H 781 -3.45752 2.16609 0
M  V30 8275 H 779.675 -2.77701 3.09605 0
M  V30 8276 H 778.252 -3.45789 1.39585 0
M  V30 8277 N 780.437 -1.16799 -1.0581 0
M  V30 8278 C 781.662 -0.977402 -1.82925 0
M  V30 8279 C 782.087 0.469514 -1.82146 0
M  V30 8280 O 781.445 1.33576 -1.22585 0
M  V30 8281 C 781.493 -1.51543 -3.27211 0
M  V30 8282 O 780.597 -0.725021 -4.05977 0
M  V30 8283 H 779.938 -0.347474 -0.565825 0
M  V30 8284 H 782.468 -1.55151 -1.33376 0
M  V30 8285 H 782.478 -1.53502 -3.78023 0
M  V30 8286 H 781.153 -2.56872 -3.27093 0
M  V30 8287 H 779.73 -0.77634 -3.64729 0
M  V30 8288 N 781.915 1.24427 -0.967243 0
M  V30 8289 C 782.878 2.23637 -0.501927 0
M  V30 8290 C 783.878 1.55712 0.401283 0
M  V30 8291 O 785.068 1.73085 0.196808 0
M  V30 8292 C 782.2 3.39804 0.273176 0
M  V30 8293 H 783.393 2.66317 -1.37897 0
M  V30 8294 H 780.946 1.37033 -0.751783 0
M  V30 8295 H 781.681 3.02562 1.16733 0
M  V30 8296 H 781.466 3.90303 -0.37498 0
M  V30 8297 H 782.956 4.13443 0.587776 0
M  V30 8298 N 783.393 0.737304 1.3929 0
M  V30 8299 C 784.356 0.10731 2.28949 0
M  V30 8300 C 785.356 -0.664716 1.46418 0
M  V30 8301 O 786.546 -0.493392 1.67067 0
M  V30 8302 C 783.678 -0.857145 3.29948 0
M  V30 8303 H 784.871 0.89725 2.86163 0
M  V30 8304 H 782.424 0.503279 1.47976 0
M  V30 8305 H 783.159 -1.67336 2.77794 0
M  V30 8306 H 782.944 -0.306167 3.90903 0
M  V30 8307 H 784.434 -1.29444 3.97031 0
M  V30 8308 N 784.871 -1.49948 0.485112 0
M  V30 8309 C 786.119 -2.01996 -0.0648775 0
M  V30 8310 C 786.44 -1.36819 -1.38945 0
M  V30 8311 O 785.71 -0.518163 -1.88923 0
M  V30 8312 H 784.29 -0.746513 -0.0269662 0
M  V30 8313 H 786.952 -1.84136 0.638733 0
M  V30 8314 H 786.048 -3.11418 -0.20617 0
M  V30 8315 N 786.349 -0.21828 -1.56081 0
M  V30 8316 C 787.577 0.419258 -2.02608 0
M  V30 8317 C 787.992 1.53578 -1.09814 0
M  V30 8318 O 787.349 1.82185 -0.107149 0
M  V30 8319 C 787.4 0.953955 -3.48686 0
M  V30 8320 O 787.121 -0.11805 -4.37941 0
M  V30 8321 C 788.622 1.66506 -4.10841 0
M  V30 8322 H 785.842 0.10296 -0.663054 0
M  V30 8323 H 788.386 -0.333776 -2.01758 0
M  V30 8324 H 786.541 1.65727 -3.50162 0
M  V30 8325 H 786.955 0.283359 -5.23734 0
M  V30 8326 H 788.429 1.99123 -5.14834 0
M  V30 8327 H 788.906 2.57705 -3.55647 0
M  V30 8328 H 789.512 1.00703 -4.13206 0
M  V30 8329 N 787.827 1.57504 0.0551401 0
M  V30 8330 C 788.759 2.0158 1.09078 0
M  V30 8331 C 789.772 0.92434 1.34014 0
M  V30 8332 O 790.961 1.20202 1.31961 0
M  V30 8333 C 788.061 2.35385 2.43818 0
M  V30 8334 C 787.234 3.66588 2.38605 0
M  V30 8335 C 786.293 3.87874 3.55585 0
M  V30 8336 O 785.319 4.59259 3.36258 0
M  V30 8337 N 786.521 3.31503 4.76536 0
M  V30 8338 H 789.286 2.91039 0.71529 0
M  V30 8339 H 786.847 1.60058 0.243532 0
M  V30 8340 H 788.839 2.46784 3.20749 0
M  V30 8341 H 787.409 1.51731 2.73307 0
M  V30 8342 H 786.629 3.65787 1.46947 0
M  V30 8343 H 787.917 4.52706 2.32239 0
M  V30 8344 H 787.315 2.73592 4.9514 0
M  V30 8345 H 785.872 3.48324 5.50921 0
M  V30 8346 N 789.305 -0.326896 1.54172 0
M  V30 8347 C 790.721 -0.671034 1.44808 0
M  V30 8348 C 790.921 -1.91781 0.618258 0
M  V30 8349 O 789.977 -2.52235 0.115751 0
M  V30 8350 C 791.29 -0.848147 2.88491 0
M  V30 8351 C 792.838 -0.945702 2.98371 0
M  V30 8352 C 793.313 -1.15501 4.43197 0
M  V30 8353 N 794.804 -1.22183 4.46795 0
M  V30 8354 C 795.539 -1.4016 5.56006 0
M  V30 8355 N 795.035 -1.55202 6.75192 0
M  V30 8356 N 796.828 -1.42841 5.43648 0
M  V30 8357 H 788.979 0.49262 2.06608 0
M  V30 8358 H 791.242 0.158574 0.934643 0
M  V30 8359 H 790.948 -0.00329969 3.517 0
M  V30 8360 H 790.822 -1.74497 3.34411 0
M  V30 8361 H 793.209 -1.78106 2.35292 0
M  V30 8362 H 793.29 -0.0254215 2.55787 0
M  V30 8363 H 792.934 -0.324521 5.06862 0
M  V30 8364 H 792.864 -2.08911 4.83388 0
M  V30 8365 H 795.355 -1.12016 3.60917 0
M  V30 8366 H 795.668 -1.68601 7.54184 0
M  V30 8367 H 794.013 -1.52306 6.78106 0
M  V30 8368 H 797.204 -1.30683 4.49488 0
M  V30 8369 H 797.377 -1.56509 6.28816 0
M  V30 8370 N 790.784 -1.46188 -0.588786 0
M  V30 8371 C 792.009 -1.5498 -1.37826 0
M  V30 8372 C 792.434 -0.189498 -1.87143 0
M  V30 8373 O 791.792 0.829293 -1.61222 0
M  V30 8374 C 791.84 -2.55369 -2.54596 0
M  V30 8375 O 790.944 -2.08452 -3.55839 0
M  V30 8376 H 790.285 -0.521741 -0.41071 0
M  V30 8377 H 792.815 -1.91708 -0.714779 0
M  V30 8378 H 792.825 -2.74782 -3.01594 0
M  V30 8379 H 791.5 -3.54155 -2.18052 0
M  V30 8380 H 790.077 -1.98999 -3.15363 0
M  V30 8381 N 792.262 0.832906 -1.33792 0
M  V30 8382 C 793.673 1.40489 -1.22963 0
M  V30 8383 C 794.024 1.95633 0.149026 0
M  V30 8384 O 793.149 1.8928 1.04891 0
M  V30 8385 C 793.744 2.55387 -2.22627 0
M  V30 8386 C 792.303 3.08522 -2.15618 0
M  V30 8387 C 791.45 1.81347 -2.09782 0
M  V30 8388 H 794.401 0.638156 -1.45304 0
M  V30 8389 H 794.422 3.33193 -1.83746 0
M  V30 8390 H 793.934 2.15222 -3.22957 0
M  V30 8391 H 792.035 3.53217 -1.18611 0
M  V30 8392 H 792.148 3.6829 -3.0643 0
M  V30 8393 H 790.512 2.01839 -1.55349 0
M  V30 8394 H 791.295 1.43369 -3.1193 0
M  V30 8395 N 793.74 1.17359 1.05189 0
M  V30 8396 C 794.97 0.985099 1.81602 0
M  V30 8397 C 795.378 -0.469872 1.83273 0
M  V30 8398 O 794.721 -1.33806 1.25864 0
M  V30 8399 C 794.783 1.44956 3.2898 0
M  V30 8400 C 794.447 2.92666 3.50993 0
M  V30 8401 C 795.444 3.906 3.43115 0
M  V30 8402 C 793.129 3.30841 3.77954 0
M  V30 8403 C 795.123 5.24709 3.61883 0
M  V30 8404 C 792.81 4.65116 3.96371 0
M  V30 8405 C 793.808 5.61859 3.88335 0
M  V30 8406 O 793.496 6.93704 4.06238 0
M  V30 8407 H 793.228 0.348731 0.579105 0
M  V30 8408 H 795.782 1.56066 1.33539 0
M  V30 8409 H 794.012 0.817559 3.77959 0
M  V30 8410 H 795.701 1.22674 3.86919 0
M  V30 8411 H 796.467 3.62453 3.22262 0
M  V30 8412 H 792.346 2.5611 3.83313 0
M  V30 8413 H 795.89 6.00205 3.55527 0
M  V30 8414 H 791.787 4.92969 4.16715 0
M  V30 8415 H 792.555 7.00443 4.23463 0
M  V30 8416 N 795.218 -1.23913 0.973828 0
M  V30 8417 C 796.443 -1.96735 0.656511 0
M  V30 8418 C 796.868 -1.71682 -0.768571 0
M  V30 8419 O 796.226 -0.984267 -1.52256 0
M  V30 8420 C 796.274 -3.48004 0.944735 0
M  V30 8421 O 795.378 -4.12387 0.0333357 0
M  V30 8422 H 794.719 -0.616119 0.247575 0
M  V30 8423 H 797.249 -1.57525 1.30564 0
M  V30 8424 H 797.259 -3.98424 0.87876 0
M  V30 8425 H 795.934 -3.65567 1.98328 0
M  V30 8426 H 794.511 -3.72585 0.153157 0
M  V30 8427 O 796.735 -0.882192 -1.35276 0
M  V30 8428 H 797.426 -0.486499 -1.87491 0
M  V30 END ATOM
M  V30 BEGIN BOND
M  V30 END BOND
M  V30 END CTAB
M  END
$$$$
