drugbank_target|O85361 B-N-acetylhexosaminidase (DB03747)
 OpenBabel12092120283D

  0  0  0     0  0            999 V3000
M  V30 BEGIN CTAB
M  V30 COUNTS 7694 7810 0 0 0
M  V30 BEGIN ATOM
M  V30 1 H -0.908 1.98254 -0.117106 0
M  V30 2 N 0 1.576 0 0
M  V30 3 C 0.933 2.03868 1.02534 0
M  V30 4 C 1.911 0.928543 1.3348 0
M  V30 5 O 3.095 1.19667 1.45644 0
M  V30 6 C 0.222 2.43627 2.35294 0
M  V30 7 C -0.732 3.65373 2.2001 0
M  V30 8 S 0.101 5.13292 1.52614 0
M  V30 9 C 1.257 5.56322 2.86805 0
M  V30 10 H 1.49 2.90518 0.631377 0
M  V30 11 H -0.977 1.52953 0.210867 0
M  V30 12 H 0.981 2.67203 3.11629 0
M  V30 13 H -0.358 1.57376 2.7183 0
M  V30 14 H -1.165 3.90944 3.18086 0
M  V30 15 H -1.563 3.418 1.51819 0
M  V30 16 H 0.729 5.58782 3.83104 0
M  V30 17 H 1.672 6.56266 2.65933 0
M  V30 18 H 2.08 4.83886 2.90714 0
M  V30 19 N 1.4781 -0.272755 1.55222 0
M  V30 20 C 2.7061 -1.02255 1.79865 0
M  V30 21 C 3.1211 -1.79924 0.572088 0
M  V30 22 O 2.4781 -1.76638 -0.458842 0
M  V30 23 C 2.5291 -1.98094 3.02392 0
M  V30 24 O 2.2501 -1.23572 4.20311 0
M  V30 25 C 3.7511 -2.84884 3.39641 0
M  V30 26 H 0.9711 -0.302057 0.599168 0
M  V30 27 H 3.5151 -0.303465 2.02236 0
M  V30 28 H 1.6701 -2.65465 2.82147 0
M  V30 29 H 2.0841 -1.88172 4.89583 0
M  V30 30 H 3.5581 -3.47927 4.28545 0
M  V30 31 H 4.0351 -3.54665 2.59055 0
M  V30 32 H 4.6411 -2.23003 3.62146 0
M  V30 33 N 2.9562 -1.48159 -0.537278 0
M  V30 34 C 4.1842 -1.59454 -1.31841 0
M  V30 35 C 4.5992 -0.252065 -1.8711 0
M  V30 36 O 3.9562 0.757621 -1.66031 0
M  V30 37 C 4.0072 -2.63546 -2.47439 0
M  V30 38 O 3.7282 -3.92583 -1.94449 0
M  V30 39 C 5.2292 -2.85212 -3.39366 0
M  V30 40 H 2.4492 -0.53785 -0.401196 0
M  V30 41 H 4.9932 -1.93932 -0.648891 0
M  V30 42 H 3.1482 -2.31946 -3.1029 0
M  V30 43 H 3.5622 -4.49629 -2.70063 0
M  V30 44 H 5.0362 -3.61863 -4.16844 0
M  V30 45 H 5.5132 -1.93765 -3.94147 0
M  V30 46 H 6.1192 -3.18086 -2.82314 0
M  V30 47 N 4.4343 0.785586 -1.36625 0
M  V30 48 C 5.6823 1.54057 -1.30808 0
M  V30 49 C 6.0033 1.94683 0.111157 0
M  V30 50 O 5.2733 1.65241 1.05224 0
M  V30 51 H 3.8533 0.571354 -0.481211 0
M  V30 52 H 6.5153 0.935821 -1.70963 0
M  V30 53 H 5.6113 2.44637 -1.93801 0
M  V30 54 N 5.9124 1.20967 1.01018 0
M  V30 55 C 6.8754 0.965918 2.07853 0
M  V30 56 C 7.8754 -0.0610545 1.60684 0
M  V30 57 O 9.0654 0.175681 1.73312 0
M  V30 58 C 6.1974 0.455513 3.37843 0
M  V30 59 H 7.3904 1.91365 2.3091 0
M  V30 60 H 4.9434 1.02594 1.17916 0
M  V30 61 H 5.6784 -0.497381 3.20463 0
M  V30 62 H 5.4634 1.19622 3.73407 0
M  V30 63 H 6.9534 0.304667 4.16487 0
M  V30 64 N 7.3905 -1.2043 1.01659 0
M  V30 65 C 8.3535 -2.21433 0.591616 0
M  V30 66 C 9.3535 -1.57203 -0.338226 0
M  V30 67 O 10.5435 -1.73737 -0.126918 0
M  V30 68 C 7.6755 -3.40628 -0.136058 0
M  V30 69 H 8.8685 -2.60545 1.48514 0
M  V30 70 H 6.4215 -1.33893 0.806379 0
M  V30 71 H 7.1565 -3.07019 -1.04449 0
M  V30 72 H 6.9415 -3.88475 0.531917 0
M  V30 73 H 8.4315 -4.15475 -0.420735 0
M  V30 74 N 8.8686 -0.792821 -1.36206 0
M  V30 75 C 10.2796 -0.429513 -1.81692 0
M  V30 76 C 10.6306 1.04695 -1.65932 0
M  V30 77 O 9.7556 1.81256 -1.18218 0
M  V30 78 C 10.3506 -0.772831 -3.29868 0
M  V30 79 C 8.9096 -0.462307 -3.7355 0
M  V30 80 C 8.0566 -1.00569 -2.5842 0
M  V30 81 H 11.0076 -0.985672 -1.24379 0
M  V30 82 H 11.0286 -0.0651928 -3.80444 0
M  V30 83 H 10.5406 -1.84747 -3.41307 0
M  V30 84 H 8.6416 0.604158 -3.67669 0
M  V30 85 H 8.7546 -0.985299 -4.68859 0
M  V30 86 H 7.1186 -0.428734 -2.51066 0
M  V30 87 H 7.9016 -2.08616 -2.72643 0
M  V30 88 N 10.3467 1.47872 -0.545128 0
M  V30 89 C 11.6237 1.9554 0.0485222 0
M  V30 90 C 12.0037 1.4876 1.49779 0
M  V30 91 O 11.3517 0.720925 2.16829 0
M  V30 92 C 11.5617 3.48898 -0.084417 0
M  V30 93 C 12.9097 4.24547 0.0671239 0
M  V30 94 O 13.9337 3.56198 -0.0113649 0
M  V30 95 O 12.7927 5.45999 0.233882 0
M  V30 96 H 9.8867 0.823957 0.0708773 0
M  V30 97 H 12.4327 1.58327 -0.610798 0
M  V30 98 H 11.2047 3.75714 -1.09337 0
M  V30 99 H 10.8277 3.92845 0.613066 0
M  V30 100 N 11.8248 0.280983 1.55075 0
M  V30 101 C 13.2408 -0.0729964 1.59433 0
M  V30 102 C 13.4408 -1.5411 1.29817 0
M  V30 103 O 12.4968 -2.29086 1.06187 0
M  V30 104 C 13.8098 0.306921 2.9913 0
M  V30 105 C 15.3578 0.254023 3.11968 0
M  V30 106 C 15.8328 0.608467 4.5394 0
M  V30 107 N 17.3238 0.560241 4.59799 0
M  V30 108 C 18.0588 0.80722 5.6769 0
M  V30 109 N 17.5548 1.11912 6.83701 0
M  V30 110 N 19.3478 0.735623 5.57266 0
M  V30 111 H 11.4988 1.238 1.7259 0
M  V30 112 H 13.7618 0.500547 0.805082 0
M  V30 113 H 13.4678 1.32816 3.25657 0
M  V30 114 H 13.3418 -0.349363 3.75579 0
M  V30 115 H 15.7288 -0.75794 2.852 0
M  V30 116 H 15.8098 0.944649 2.37718 0
M  V30 117 H 15.4538 1.61814 4.81434 0
M  V30 118 H 15.3838 -0.104013 5.26497 0
M  V30 119 H 17.8748 0.329288 3.76463 0
M  V30 120 H 18.1878 1.29409 7.61888 0
M  V30 121 H 16.5328 1.15695 6.85303 0
M  V30 122 H 19.7238 0.491752 4.6551 0
M  V30 123 H 19.8968 0.931482 6.4127 0
M  V30 124 N 13.3029 -1.57598 0.00835791 0
M  V30 125 C 14.2499 -2.08945 -0.980346 0
M  V30 126 C 15.2199 -0.986738 -1.33614 0
M  V30 127 O 16.4049 -1.25968 -1.43306 0
M  V30 128 C 13.5449 -2.60425 -2.26435 0
M  V30 129 C 12.6579 -3.84628 -1.96685 0
M  V30 130 C 11.7929 -4.24579 -3.19228 0
M  V30 131 C 10.8319 -5.41596 -2.85202 0
M  V30 132 N 9.9689 -5.768 -4.00307 0
M  V30 133 H 14.8089 -2.93148 -0.535551 0
M  V30 134 H 12.3459 -1.44912 -0.252776 0
M  V30 135 H 14.3039 -2.88354 -3.01509 0
M  V30 136 H 12.9339 -1.79083 -2.68568 0
M  V30 137 H 11.9859 -3.63556 -1.11942 0
M  V30 138 H 13.2979 -4.69796 -1.67611 0
M  V30 139 H 12.4519 -4.53834 -4.02641 0
M  V30 140 H 11.1909 -3.38137 -3.51447 0
M  V30 141 H 10.1959 -5.12056 -2.00198 0
M  V30 142 H 11.4209 -6.29721 -2.54222 0
M  V30 143 H 9.3669 -4.93316 -4.32407 0
M  V30 144 H 9.2839 -6.5656 -3.74786 0
M  V30 145 H 10.5519 -6.10652 -4.84484 0
M  V30 146 N 14.781 0.264519 -1.55364 0
M  V30 147 C 15.744 1.31046 -1.88042 0
M  V30 148 C 16.744 1.41943 -0.755569 0
M  V30 149 O 17.934 1.40947 -1.02369 0
M  V30 150 C 15.066 2.69067 -2.09323 0
M  V30 151 H 16.259 1.03297 -2.81549 0
M  V30 152 H 13.812 0.502989 -1.47986 0
M  V30 153 H 14.547 3.01982 -1.18226 0
M  V30 154 H 14.332 2.62542 -2.91229 0
M  V30 155 H 15.822 3.44623 -2.35848 0
M  V30 156 N 16.2591 1.48442 0.529413 0
M  V30 157 C 17.6701 1.5002 1.11134 0
M  V30 158 C 18.0211 0.27031 1.94329 0
M  V30 159 O 17.1461 -0.622507 2.07253 0
M  V30 160 C 17.7411 2.71834 2.02217 0
M  V30 161 C 16.3001 2.76283 2.55627 0
M  V30 162 C 15.4471 2.43542 1.326 0
M  V30 163 H 18.3981 1.5555 0.314641 0
M  V30 164 H 18.4191 2.50384 2.8651 0
M  V30 165 H 17.9311 3.61331 1.41639 0
M  V30 166 H 16.0321 1.90995 3.19924 0
M  V30 167 H 16.1451 3.77725 2.94721 0
M  V30 168 H 14.5091 1.94709 1.64196 0
M  V30 169 H 15.2921 3.3528 0.737734 0
M  V30 170 N 17.7372 -0.778329 1.37039 0
M  V30 171 C 18.9832 -1.53892 1.32079 0
M  V30 172 C 19.3162 -1.9396 -0.0965386 0
M  V30 173 O 18.5912 -1.63568 -1.05242 0
M  V30 174 C 18.8742 -2.80847 2.25382 0
M  V30 175 C 18.7272 -2.47076 3.75864 0
M  V30 176 C 20.0462 -3.82741 2.1725 0
M  V30 177 H 17.1652 -0.558303 0.48111 0
M  V30 178 H 19.8072 -0.893397 1.67685 0
M  V30 179 H 17.9572 -3.35931 1.95148 0
M  V30 180 H 19.6292 -1.97957 4.16666 0
M  V30 181 H 17.8722 -1.79863 3.94755 0
M  V30 182 H 18.5432 -3.37798 4.36574 0
M  V30 183 H 21.0192 -3.37133 2.43887 0
M  V30 184 H 19.8952 -4.69303 2.84686 0
M  V30 185 H 20.1562 -4.2652 1.16331 0
M  V30 186 N 19.2153 -1.21501 -1.00376 0
M  V30 187 C 20.6313 -0.972629 -1.26539 0
M  V30 188 C 20.8313 0.340257 -1.98606 0
M  V30 189 O 19.8873 1.06561 -2.28913 0
M  V30 190 C 21.2003 -2.16404 -2.08781 0
M  V30 191 C 22.7483 -2.20643 -2.22004 0
M  V30 192 C 23.2233 -3.39306 -3.07629 0
M  V30 193 N 24.7143 -3.39401 -3.15217 0
M  V30 194 C 25.4493 -4.27867 -3.81729 0
M  V30 195 N 24.9453 -5.26533 -4.5026 0
M  V30 196 N 26.7383 -4.15672 -3.78382 0
M  V30 197 H 18.8893 -2.05929 -0.520281 0
M  V30 198 H 21.1523 -0.901803 -0.292328 0
M  V30 199 H 20.8583 -3.11554 -1.63178 0
M  V30 200 H 20.7323 -2.15567 -3.09533 0
M  V30 201 H 23.1193 -1.26048 -2.66825 0
M  V30 202 H 23.2003 -2.25523 -1.20718 0
M  V30 203 H 22.8443 -4.34195 -2.63509 0
M  V30 204 H 22.7743 -3.31665 -4.09031 0
M  V30 205 H 25.2653 -2.67997 -2.66432 0
M  V30 206 H 25.5783 -5.90337 -4.98721 0
M  V30 207 H 23.9233 -5.30457 -4.49044 0
M  V30 208 H 27.1143 -3.3785 -3.23998 0
M  V30 209 H 27.2873 -4.84825 -4.2994 0
M  V30 210 N 20.6934 1.19889 -1.02296 0
M  V30 211 C 22.1044 1.71124 -0.746568 0
M  V30 212 C 22.4554 1.81939 0.734335 0
M  V30 213 O 21.5804 1.48639 1.57275 0
M  V30 214 C 22.1754 3.10804 -1.34857 0
M  V30 215 C 20.7344 3.59323 -1.1209 0
M  V30 216 C 19.8814 2.3635 -1.45031 0
M  V30 217 H 22.8324 1.04813 -1.19163 0
M  V30 218 H 22.8534 3.73186 -0.742437 0
M  V30 219 H 22.3654 3.029 -2.42638 0
M  V30 220 H 20.4664 3.7255 -0.0610337 0
M  V30 221 H 20.5794 4.4378 -1.80544 0
M  V30 222 H 18.9434 2.39399 -0.869487 0
M  V30 223 H 19.7264 2.31081 -2.53883 0
M  V30 224 N 22.1715 0.800033 1.35784 0
M  V30 225 C 23.3995 0.389606 2.03199 0
M  V30 226 C 23.8145 -0.997375 1.60306 0
M  V30 227 O 23.1715 -1.64154 0.797481 0
M  V30 228 C 23.2225 0.455855 3.58614 0
M  V30 229 O 22.9435 1.78815 3.99946 0
M  V30 230 C 24.4445 0.0374032 4.43284 0
M  V30 231 H 21.6645 0.159132 0.651857 0
M  V30 232 H 24.2085 1.08183 1.73541 0
M  V30 233 H 22.3635 -0.188057 3.86943 0
M  V30 234 H 22.7775 1.74636 4.94573 0
M  V30 235 H 24.2515 0.134882 5.51835 0
M  V30 236 H 24.7285 -1.01651 4.27275 0
M  V30 237 H 25.3345 0.654215 4.20238 0
M  V30 238 N 23.6496 -1.47581 0.552962 0
M  V30 239 C 25.0606 -1.86324 0.118463 0
M  V30 240 C 25.4116 -1.46006 -1.3106 0
M  V30 241 O 24.5366 -0.861182 -1.98526 0
M  V30 242 C 25.1316 -3.3816 0.20821 0
M  V30 243 C 23.6906 -3.7601 -0.171226 0
M  V30 244 C 22.8376 -2.71634 0.557686 0
M  V30 245 H 25.7886 -1.39159 0.762928 0
M  V30 246 H 25.8096 -3.76141 -0.574278 0
M  V30 247 H 25.3216 -3.67473 1.24841 0
M  V30 248 H 23.4226 -3.52313 -1.21269 0
M  V30 249 H 23.5356 -4.78745 0.184379 0
M  V30 250 H 21.8996 -2.547 0.00125792 0
M  V30 251 H 22.6826 -3.0379 1.59896 0
M  V30 252 N 25.1277 -0.289203 -1.54924 0
M  V30 253 C 26.0577 0.58549 -2.2604 0
M  V30 254 C 27.0387 1.14753 -1.25562 0
M  V30 255 O 28.2237 1.17906 -1.54311 0
M  V30 256 C 25.3537 1.76305 -2.99222 0
M  V30 257 C 24.3077 1.33191 -4.06748 0
M  V30 258 C 23.6337 2.5937 -4.6758 0
M  V30 259 C 24.9337 0.471775 -5.20165 0
M  V30 260 H 26.6277 -0.00763532 -2.99399 0
M  V30 261 H 24.1737 -0.00511229 -1.43999 0
M  V30 262 H 26.1267 2.38097 -3.47689 0
M  V30 263 H 24.8507 2.38223 -2.23422 0
M  V30 264 H 23.5097 0.737121 -3.59113 0
M  V30 265 H 23.1577 3.19576 -3.88433 0
M  V30 266 H 22.8577 2.31228 -5.40192 0
M  V30 267 H 24.3817 3.21985 -5.18804 0
M  V30 268 H 25.7957 0.995056 -5.64599 0
M  V30 269 H 24.1927 0.284639 -5.99425 0
M  V30 270 H 25.2627 -0.506041 -4.82252 0
M  V30 271 N 26.6058 1.57591 -0.0167156 0
M  V30 272 C 27.8828 1.82547 0.702564 0
M  V30 273 C 28.2628 0.898018 1.91047 0
M  V30 274 O 27.6108 -0.0493456 2.28447 0
M  V30 275 C 27.8208 3.31459 1.09251 0
M  V30 276 C 29.1688 3.97622 1.48937 0
M  V30 277 O 30.1928 3.35881 1.18584 0
M  V30 278 O 29.0518 5.06415 2.05442 0
M  V30 279 H 26.1458 0.752268 0.343544 0
M  V30 280 H 28.6918 1.69644 -0.0434495 0
M  V30 281 H 27.4638 3.9061 0.23227 0
M  V30 282 H 27.0868 3.49422 1.89709 0
M  V30 283 N 28.0839 -0.256276 1.55502 0
M  V30 284 C 29.4999 -0.604325 1.47716 0
M  V30 285 C 29.6999 -1.88763 0.705039 0
M  V30 286 O 28.7559 -2.51445 0.230613 0
M  V30 287 C 30.0689 -0.715756 2.92057 0
M  V30 288 C 31.6169 -0.808706 3.02372 0
M  V30 289 C 32.0919 -0.951777 4.48001 0
M  V30 290 N 33.5829 -1.01688 4.519 0
M  V30 291 C 34.3179 -1.14668 5.61817 0
M  V30 292 N 33.8139 -1.24261 6.81565 0
M  V30 293 N 35.6069 -1.1791 5.49594 0
M  V30 294 H 27.7579 0.586291 2.04148 0
M  V30 295 H 30.0209 0.201015 0.926443 0
M  V30 296 H 29.7269 0.157027 3.51349 0
M  V30 297 H 29.6009 -1.59071 3.42018 0
M  V30 298 H 31.9879 -1.67195 2.43166 0
M  V30 299 H 32.0689 0.0912063 2.55637 0
M  V30 300 H 31.7129 -0.0931291 5.07815 0
M  V30 301 H 31.6429 -1.86659 4.92408 0
M  V30 302 H 34.1339 -0.954468 3.65648 0
M  V30 303 H 34.4469 -1.34046 7.61086 0
M  V30 304 H 32.7919 -1.21236 6.84344 0
M  V30 305 H 35.9829 -1.10057 4.54978 0
M  V30 306 H 36.1559 -1.27681 6.35296 0
M  V30 307 N 29.562 -1.4872 -0.521534 0
M  V30 308 C 30.808 -1.574 -1.27879 0
M  V30 309 C 31.141 -0.250817 -1.92573 0
M  V30 310 O 30.416 0.743934 -1.79711 0
M  V30 311 C 30.699 -2.71843 -2.36164 0
M  V30 312 C 30.552 -4.13893 -1.76105 0
M  V30 313 C 31.871 -2.82008 -3.37875 0
M  V30 314 H 28.99 -0.572941 -0.463581 0
M  V30 315 H 31.632 -1.80927 -0.580119 0
M  V30 316 H 29.782 -2.51914 -2.95756 0
M  V30 317 H 31.454 -4.45284 -1.20499 0
M  V30 318 H 29.697 -4.20498 -1.06601 0
M  V30 319 H 30.368 -4.89804 -2.5455 0
M  V30 320 H 32.844 -3.00086 -2.88249 0
M  V30 321 H 31.72 -3.63796 -4.11028 0
M  V30 322 H 31.981 -1.90511 -3.98946 0
M  V30 323 N 31.0401 0.771051 -1.3745 0
M  V30 324 C 32.2891 1.52491 -1.3202 0
M  V30 325 C 32.6021 1.9538 0.0927347 0
M  V30 326 O 33.8081 2.70159 0.269503 0
M  V30 327 C 32.2641 2.75366 -2.31736 0
M  V30 328 C 31.8721 2.39573 -3.78562 0
M  V30 329 C 33.6161 3.53307 -2.35318 0
M  V30 330 C 31.5231 3.58954 -4.70007 0
M  V30 331 H 30.4531 0.572506 -0.490666 0
M  V30 332 H 33.1041 0.844474 -1.62914 0
M  V30 333 H 31.4861 3.45303 -1.93861 0
M  V30 334 H 32.6601 1.77415 -4.25277 0
M  V30 335 H 30.9751 1.74805 -3.77932 0
M  V30 336 H 33.5721 4.42039 -3.00842 0
M  V30 337 H 33.9151 3.93217 -1.36698 0
M  V30 338 H 34.4481 2.90367 -2.71904 0
M  V30 339 H 31.1871 3.24125 -5.69757 0
M  V30 340 H 30.7071 4.20214 -4.27996 0
M  V30 341 H 32.3861 4.25758 -4.87175 0
M  V30 342 N 32.5182 1.22032 0.997298 0
M  V30 343 C 33.9292 1.0397 1.55071 0
M  V30 344 C 34.2802 -0.398192 1.92117 0
M  V30 345 O 33.4052 -1.28254 1.74298 0
M  V30 346 C 34.0002 1.88109 2.81781 0
M  V30 347 C 32.5592 1.74357 3.33581 0
M  V30 348 C 31.7062 1.84846 2.06706 0
M  V30 349 H 34.6572 1.35941 0.818883 0
M  V30 350 H 34.6782 1.39589 3.53971 0
M  V30 351 H 34.1902 2.92754 2.54787 0
M  V30 352 H 32.2912 0.72427 3.65493 0
M  V30 353 H 32.4042 2.56772 4.04481 0
M  V30 354 H 30.7682 1.28238 2.20062 0
M  V30 355 H 31.5512 2.91014 1.82114 0
M  V30 356 N 33.9963 -1.19345 1.0293 0
M  V30 357 C 34.9593 -2.20793 0.615069 0
M  V30 358 C 35.9593 -1.57553 -0.321533 0
M  V30 359 O 37.1493 -1.73862 -0.108483 0
M  V30 360 C 34.2813 -3.40754 -0.0999222 0
M  V30 361 H 35.4743 -2.58955 1.51269 0
M  V30 362 H 33.0273 -1.3303 0.820534 0
M  V30 363 H 33.7623 -3.0811 -1.01187 0
M  V30 364 H 33.5473 -3.87889 0.57309 0
M  V30 365 H 35.0373 -4.15898 -0.376645 0
M  V30 366 N 35.4744 -0.807222 -1.35358 0
M  V30 367 C 36.8854 -0.44876 -1.81226 0
M  V30 368 C 37.2364 1.02929 -1.67033 0
M  V30 369 O 36.3614 1.79991 -1.20133 0
M  V30 370 C 36.9564 -0.807774 -3.2903 0
M  V30 371 C 35.5154 -0.501901 -3.73039 0
M  V30 372 C 34.6624 -1.03304 -2.57339 0
M  V30 373 H 37.6134 -0.998808 -1.23327 0
M  V30 374 H 37.6344 -0.10554 -3.80354 0
M  V30 375 H 37.1464 -1.88357 -3.39328 0
M  V30 376 H 35.2474 0.565128 -3.68289 0
M  V30 377 H 35.3604 -1.03497 -4.67787 0
M  V30 378 H 33.7244 -0.455339 -2.50597 0
M  V30 379 H 34.5074 -2.11496 -2.70415 0
M  V30 380 N 36.9525 1.47285 -0.560781 0
M  V30 381 C 37.9155 2.28535 0.174488 0
M  V30 382 C 38.9155 1.37153 0.839388 0
M  V30 383 O 40.1055 1.59748 0.694702 0
M  V30 384 C 37.2375 3.16934 1.25561 0
M  V30 385 H 38.4305 2.95012 -0.539262 0
M  V30 386 H 35.9835 1.53034 -0.317865 0
M  V30 387 H 36.7185 2.55157 2.00164 0
M  V30 388 H 36.5035 3.8419 0.783604 0
M  V30 389 H 37.9935 3.78143 1.77193 0
M  V30 390 N 38.4306 0.297415 1.54768 0
M  V30 391 C 39.6556 -0.318435 2.04941 0
M  V30 392 C 40.0806 -1.4701 1.17345 0
M  V30 393 O 39.4386 -1.80436 0.176758 0
M  V30 394 C 39.4866 -0.755749 3.52592 0
M  V30 395 O 38.5906 -1.86088 3.68028 0
M  V30 396 H 37.9316 -0.062421 0.661059 0
M  V30 397 H 40.4616 0.438215 1.99852 0
M  V30 398 H 40.4716 -1.04552 3.94376 0
M  V30 399 H 39.1466 0.0867233 4.1581 0
M  V30 400 H 37.7236 -1.57193 3.38149 0
M  V30 401 N 39.9087 -1.5758 0.0250728 0
M  V30 402 C 41.1547 -1.91917 -0.655413 0
M  V30 403 C 41.4877 -0.901433 -1.72011 0
M  V30 404 O 40.7627 0.0764069 -1.9435 0
M  V30 405 C 41.0457 -3.36751 -1.27558 0
M  V30 406 C 40.8987 -4.49258 -0.220719 0
M  V30 407 C 42.2177 -3.81469 -2.19475 0
M  V30 408 H 39.3367 -0.697925 -0.23679 0
M  V30 409 H 41.9787 -1.89825 0.0815036 0
M  V30 410 H 40.1287 -3.38664 -1.90365 0
M  V30 411 H 41.8007 -4.59478 0.409601 0
M  V30 412 H 40.0437 -4.31415 0.454264 0
M  V30 413 H 40.7147 -5.47618 -0.694175 0
M  V30 414 H 43.1907 -3.81266 -1.66659 0
M  V30 415 H 42.0667 -4.83512 -2.59822 0
M  V30 416 H 42.3277 -3.16744 -3.08424 0
M  V30 417 N 41.3868 0.248026 -1.55636 0
M  V30 418 C 42.6638 0.998988 -1.68165 0
M  V30 419 C 43.0438 2.03409 -0.564621 0
M  V30 420 O 42.3918 2.24378 0.432076 0
M  V30 421 C 42.6018 1.63334 -3.0842 0
M  V30 422 C 43.9498 2.13562 -3.66983 0
M  V30 423 O 44.9738 1.73277 -3.11213 0
M  V30 424 O 43.8328 2.87526 -4.64749 0
M  V30 425 H 40.9268 0.464933 -0.683935 0
M  V30 426 H 43.4728 0.241902 -1.67967 0
M  V30 427 H 42.2448 0.884583 -3.8117 0
M  V30 428 H 41.8678 2.45666 -3.12624 0
M  V30 429 N 42.8649 1.48995 0.513639 0
M  V30 430 C 44.2759 1.5119 1.09537 0
M  V30 431 C 44.6269 0.290906 1.94031 0
M  V30 432 O 43.7519 -0.60049 2.07902 0
M  V30 433 C 44.3469 2.73964 1.99322 0
M  V30 434 C 42.9059 2.78978 2.52682 0
M  V30 435 C 42.0529 2.44934 1.30009 0
M  V30 436 H 45.0039 1.55875 0.298125 0
M  V30 437 H 45.0249 2.53409 2.83838 0
M  V30 438 H 44.5369 3.62813 1.37799 0
M  V30 439 H 42.6379 1.94378 3.1788 0
M  V30 440 H 42.7509 3.8083 2.90698 0
M  V30 441 H 41.1149 1.9644 1.62122 0
M  V30 442 H 41.8979 3.36043 0.702131 0
M  V30 443 N 44.343 -0.763751 1.37857 0
M  V30 444 C 45.591 -1.51957 1.33243 0
M  V30 445 C 45.912 -1.94835 -0.0801709 0
M  V30 446 O 45.182 -1.66894 -1.02582 0
M  V30 447 H 43.762 -0.563626 0.49024 0
M  V30 448 H 46.424 -0.908504 1.7243 0
M  V30 449 H 45.52 -2.41523 1.97669 0
M  V30 450 N 45.8211 -1.22559 -0.990812 0
M  V30 451 C 47.0691 -1.04933 -1.72724 0
M  V30 452 C 47.3901 0.416158 -1.90508 0
M  V30 453 O 46.6601 1.29918 -1.46622 0
M  V30 454 H 45.2401 -0.385296 -0.639965 0
M  V30 455 H 47.9021 -1.54105 -1.19322 0
M  V30 456 H 46.9981 -1.52886 -2.72089 0
M  V30 457 N 47.2992 1.18797 -1.03562 0
M  V30 458 C 48.2622 2.20464 -0.626769 0
M  V30 459 C 49.2622 1.57721 0.313173 0
M  V30 460 O 50.4522 1.73917 0.0992615 0
M  V30 461 C 47.5842 3.40802 0.0818498 0
M  V30 462 H 48.7772 2.58149 -1.5264 0
M  V30 463 H 46.3302 1.32593 -0.827578 0
M  V30 464 H 47.0652 3.08642 0.995518 0
M  V30 465 H 46.8502 3.8758 -0.593652 0
M  V30 466 H 48.3402 4.16092 0.354584 0
M  V30 467 N 48.7773 0.814389 1.34928 0
M  V30 468 C 50.1883 0.458364 1.80986 0
M  V30 469 C 50.5393 -1.02042 1.67577 0
M  V30 470 O 49.6643 -1.79352 1.21086 0
M  V30 471 C 50.2593 0.825212 3.28597 0
M  V30 472 C 48.8183 0.521677 3.72767 0
M  V30 473 C 47.9653 1.04668 2.56788 0
M  V30 474 H 50.9163 1.00533 1.22795 0
M  V30 475 H 50.9373 0.12571 3.80292 0
M  V30 476 H 50.4493 1.90154 3.38324 0
M  V30 477 H 48.5503 -0.545589 3.68584 0
M  V30 478 H 48.6633 1.05977 4.67232 0
M  V30 479 H 47.0273 0.468622 2.50352 0
M  V30 480 H 47.8103 2.12927 2.6929 0
M  V30 481 N 50.2554 -1.46986 0.568584 0
M  V30 482 C 51.4854 -2.0653 0.0539173 0
M  V30 483 C 51.8934 -1.42004 -1.25026 0
M  V30 484 O 51.2364 -0.514541 -1.76347 0
M  V30 485 C 51.2984 -3.58938 -0.200854 0
M  V30 486 C 50.9624 -4.45572 1.01559 0
M  V30 487 C 51.9594 -4.82986 1.92407 0
M  V30 488 C 49.6444 -4.8692 1.23346 0
M  V30 489 C 51.6384 -5.60559 3.03402 0
M  V30 490 C 49.3254 -5.64255 2.34649 0
M  V30 491 C 50.3234 -6.00986 3.24507 0
M  V30 492 O 50.0114 -6.76761 4.33878 0
M  V30 493 H 49.7434 -0.674292 0.0480234 0
M  V30 494 H 52.2974 -1.89812 0.784896 0
M  V30 495 H 50.5274 -3.73911 -0.986279 0
M  V30 496 H 52.2164 -4.0046 -0.662294 0
M  V30 497 H 52.9824 -4.51633 1.76785 0
M  V30 498 H 48.8614 -4.57789 0.543178 0
M  V30 499 H 52.4054 -5.89147 3.73565 0
M  V30 500 H 48.3024 -5.95021 2.5024 0
M  V30 501 H 49.0704 -6.95168 4.32068 0
M  V30 502 N 51.7335 -0.305618 -1.54608 0
M  V30 503 C 53.1495 0.0476228 -1.59529 0
M  V30 504 C 53.3495 1.52025 -1.32252 0
M  V30 505 O 52.4055 2.27368 -1.09818 0
M  V30 506 C 53.7185 -0.354471 -2.98603 0
M  V30 507 C 55.2665 -0.303622 -3.11524 0
M  V30 508 C 55.7415 -0.680608 -4.52915 0
M  V30 509 N 57.2325 -0.63332 -4.5885 0
M  V30 510 C 57.9675 -0.897432 -5.66334 0
M  V30 511 N 57.4635 -1.22775 -6.81834 0
M  V30 512 N 59.2565 -0.824186 -5.56025 0
M  V30 513 H 51.4075 -1.2653 -1.70599 0
M  V30 514 H 53.6705 -0.513291 -0.797017 0
M  V30 515 H 53.3765 -1.3798 -3.23503 0
M  V30 516 H 53.2505 0.289568 -3.76087 0
M  V30 517 H 55.6375 0.712472 -2.8637 0
M  V30 518 H 55.7185 -0.982348 -2.36185 0
M  V30 519 H 55.3625 -1.69453 -4.78799 0
M  V30 520 H 55.2925 0.0202385 -5.26596 0
M  V30 521 H 57.7835 -0.389138 -3.75891 0
M  V30 522 H 58.0965 -1.41513 -7.59733 0
M  V30 523 H 56.4415 -1.26583 -6.83375 0
M  V30 524 H 59.6325 -0.565748 -4.64669 0
M  V30 525 H 59.8055 -1.03338 -6.39707 0
M  V30 526 N 53.2116 1.57565 -0.0334293 0
M  V30 527 C 54.4606 1.91155 0.643639 0
M  V30 528 C 54.7736 0.91192 1.73042 0
M  V30 529 O 55.9796 1.13923 2.46442 0
M  V30 530 C 54.4356 3.39443 1.1961 0
M  V30 531 C 54.0436 4.47774 0.142381 0
M  V30 532 C 55.7876 3.82094 1.84944 0
M  V30 533 C 53.6946 5.87162 0.706727 0
M  V30 534 H 52.6246 0.713368 0.244176 0
M  V30 535 H 55.2756 1.8323 -0.0994323 0
M  V30 536 H 53.6576 3.42313 1.99092 0
M  V30 537 H 54.8316 4.56469 -0.630296 0
M  V30 538 H 53.1466 4.14352 -0.412446 0
M  V30 539 H 55.7436 4.83591 2.2813 0
M  V30 540 H 56.0866 3.17386 2.69392 0
M  V30 541 H 56.6196 3.81665 1.12145 0
M  V30 542 H 53.3586 6.55424 -0.0997178 0
M  V30 543 H 52.8786 5.82064 1.44779 0
M  V30 544 H 54.5576 6.35866 1.19514 0
M  V30 545 N 54.6897 -0.239769 1.55765 0
M  V30 546 C 55.9177 -0.98417 1.81994 0
M  V30 547 C 56.3327 -1.7867 0.610124 0
M  V30 548 O 55.6897 -1.77571 -0.421271 0
M  V30 549 C 55.7407 -1.91635 3.06526 0
M  V30 550 O 55.4617 -1.14629 4.22838 0
M  V30 551 C 56.9627 -2.77616 3.45607 0
M  V30 552 H 54.1827 -0.28928 0.605441 0
M  V30 553 H 56.7267 -0.260499 2.02834 0
M  V30 554 H 54.8817 -2.5942 2.87715 0
M  V30 555 H 55.2957 -1.77745 4.93464 0
M  V30 556 H 56.7697 -3.38759 4.35828 0
M  V30 557 H 57.2467 -3.4909 2.6652 0
M  V30 558 H 57.8527 -2.15271 3.66795 0
M  V30 559 N 56.1678 -1.49265 -0.50573 0
M  V30 560 C 57.5838 -1.35923 -0.836486 0
M  V30 561 C 57.7838 -0.388704 -1.97715 0
M  V30 562 O 56.8398 0.181336 -2.51848 0
M  V30 563 C 58.1528 -2.76531 -1.18115 0
M  V30 564 C 59.7008 -2.85197 -1.28964 0
M  V30 565 C 60.1758 -4.26561 -1.66761 0
M  V30 566 N 61.6668 -4.2935 -1.73819 0
M  V30 567 C 62.4018 -5.35693 -2.045 0
M  V30 568 N 61.8978 -6.52287 -2.33438 0
M  V30 569 N 63.6908 -5.23105 -2.05711 0
M  V30 570 H 55.8418 -2.10965 0.246519 0
M  V30 571 H 58.1048 -0.9468 0.0476887 0
M  V30 572 H 57.8108 -3.49226 -0.416398 0
M  V30 573 H 57.6848 -3.11599 -2.1257 0
M  V30 574 H 60.0718 -2.12742 -2.04511 0
M  V30 575 H 60.1528 -2.53718 -0.325704 0
M  V30 576 H 59.7968 -4.99541 -0.917656 0
M  V30 577 H 59.7268 -4.55502 -2.64246 0
M  V30 578 H 62.2178 -3.4526 -1.53635 0
M  V30 579 H 62.5308 -7.29158 -2.56024 0
M  V30 580 H 60.8758 -6.55521 -2.30905 0
M  V30 581 H 64.0668 -4.31026 -1.82577 0
M  V30 582 H 64.2398 -6.06078 -2.29289 0
M  V30 583 N 57.6459 0.756429 -1.3826 0
M  V30 584 C 58.8939 1.51248 -1.34047 0
M  V30 585 C 59.2149 1.94875 0.0698372 0
M  V30 586 O 58.4849 1.67436 1.01696 0
M  V30 587 H 57.0649 0.561018 -0.493222 0
M  V30 588 H 59.7269 0.899347 -1.7291 0
M  V30 589 H 58.8229 2.40472 -1.98947 0
M  V30 590 N 59.124 1.23083 0.984299 0
M  V30 591 C 60.352 1.08714 1.76037 0
M  V30 592 C 60.767 -0.361691 1.85303 0
M  V30 593 O 60.124 -1.25034 1.32939 0
M  V30 594 C 60.175 1.70206 3.18923 0
M  V30 595 O 59.896 3.09423 3.10144 0
M  V30 596 C 61.397 1.61227 4.12941 0
M  V30 597 H 58.617 0.380664 0.552572 0
M  V30 598 H 61.161 1.62853 1.23689 0
M  V30 599 H 59.316 1.20109 3.6831 0
M  V30 600 H 59.73 3.39188 4.00065 0
M  V30 601 H 61.204 2.08962 5.10919 0
M  V30 602 H 61.681 0.570375 4.35481 0
M  V30 603 H 62.287 2.10671 3.69456 0
M  V30 604 N 60.6021 -1.18246 1.0419 0
M  V30 605 C 61.5521 -2.19843 0.604392 0
M  V30 606 C 62.5361 -1.56962 -0.353814 0
M  V30 607 O 63.7281 -1.76156 -0.17267 0
M  V30 608 C 60.8571 -3.43287 -0.0298975 0
M  V30 609 C 59.9431 -4.13288 0.951531 0
M  V30 610 N 60.3341 -4.59271 2.11906 0
M  V30 611 C 58.6321 -4.39165 0.7778 0
M  V30 612 C 59.3331 -5.13173 2.73912 0
M  V30 613 N 58.3091 -5.04763 2.01779 0
M  V30 614 H 62.1111 -2.53089 1.4941 0
M  V30 615 H 59.6251 -1.34465 0.910658 0
M  V30 616 H 61.6221 -4.15334 -0.361037 0
M  V30 617 H 60.2821 -3.11537 -0.915127 0
M  V30 618 H 61.2931 -4.5368 2.49789 0
M  V30 619 H 57.9701 -4.17461 -0.0572331 0
M  V30 620 H 59.3601 -5.58947 3.72864 0
M  V30 621 N 62.0802 -0.821533 -1.34494 0
M  V30 622 C 63.3292 -0.405355 -1.97585 0
M  V30 623 C 63.6422 1.03677 -1.65863 0
M  V30 624 O 64.8482 1.55679 -2.22433 0
M  V30 625 C 63.3042 -0.673861 -3.53535 0
M  V30 626 C 62.9122 -2.12951 -3.94152 0
M  V30 627 C 64.6562 -0.32378 -4.23263 0
M  V30 628 C 62.5632 -2.34298 -5.43009 0
M  V30 629 H 61.4932 -0.147836 -0.739365 0
M  V30 630 H 64.1442 -1.00769 -1.53355 0
M  V30 631 H 62.5262 -0.00137554 -3.96 0
M  V30 632 H 63.7002 -2.84104 -3.62797 0
M  V30 633 H 62.0152 -2.44089 -3.37356 0
M  V30 634 H 64.6122 -0.461126 -5.32708 0
M  V30 635 H 64.9552 0.731586 -4.09821 0
M  V30 636 H 65.4882 -0.950786 -3.8627 0
M  V30 637 H 62.2272 -3.38335 -5.61435 0
M  V30 638 H 61.7472 -1.67687 -5.75883 0
M  V30 639 H 63.4262 -2.16588 -6.09671 0
M  V30 640 N 63.5583 1.46682 -0.576371 0
M  V30 641 C 64.9743 1.57822 -0.237562 0
M  V30 642 C 65.1743 1.57237 1.26011 0
M  V30 643 O 64.2303 1.48596 2.04146 0
M  V30 644 C 65.5433 2.87499 -0.881168 0
M  V30 645 C 67.0913 3.01119 -0.85417 0
M  V30 646 C 67.5663 4.33524 -1.4772 0
M  V30 647 N 69.0573 4.40207 -1.44125 0
M  V30 648 C 69.7923 5.4126 -1.89276 0
M  V30 649 N 69.2883 6.49021 -2.42371 0
M  V30 650 N 71.0813 5.32422 -1.80231 0
M  V30 651 H 63.2323 1.45306 -1.54919 0
M  V30 652 H 65.4953 0.692733 -0.647167 0
M  V30 653 H 65.2013 2.9372 -1.93447 0
M  V30 654 H 65.0753 3.75224 -0.385592 0
M  V30 655 H 67.4623 2.94485 0.190491 0
M  V30 656 H 67.5433 2.14887 -1.3877 0
M  V30 657 H 67.1873 4.40916 -2.52103 0
M  V30 658 H 67.1173 5.1852 -0.918947 0
M  V30 659 H 69.6083 3.62931 -1.05307 0
M  V30 660 H 69.9213 7.2233 -2.74698 0
M  V30 661 H 68.2663 6.49858 -2.46393 0
M  V30 662 H 71.4573 4.47137 -1.38514 0
M  V30 663 H 71.6303 6.11034 -2.15735 0
M  V30 664 N 65.0364 0.313813 1.54444 0
M  V30 665 C 66.2824 -0.292108 2.00685 0
M  V30 666 C 66.6154 -1.52548 1.20177 0
M  V30 667 O 65.8904 -1.92452 0.281531 0
M  V30 668 C 66.1734 -0.635968 3.5444 0
M  V30 669 C 66.0264 0.607437 4.4568 0
M  V30 670 C 67.3454 -1.45747 4.15266 0
M  V30 671 H 64.4644 -0.104697 0.729526 0
M  V30 672 H 67.1064 0.428457 1.85106 0
M  V30 673 H 65.2564 -1.24986 3.67846 0
M  V30 674 H 66.9284 1.24581 4.44159 0
M  V30 675 H 65.1714 1.23822 4.15753 0
M  V30 676 H 65.8424 0.322515 5.51057 0
M  V30 677 H 68.3184 -0.938645 4.05375 0
M  V30 678 H 67.1944 -1.66683 5.2298 0
M  V30 679 H 67.4554 -2.45063 3.67963 0
M  V30 680 N 66.5145 -1.57545 0.0417849 0
M  V30 681 C 67.7915 -1.83642 -0.673433 0
M  V30 682 C 68.1715 -0.928298 -1.89594 0
M  V30 683 O 67.5195 0.0129955 -2.28496 0
M  V30 684 C 67.7295 -3.33155 -1.03964 0
M  V30 685 C 69.0775 -3.99941 -1.42592 0
M  V30 686 O 70.1015 -3.37725 -1.13226 0
M  V30 687 O 68.9605 -5.09619 -1.9736 0
M  V30 688 H 66.0545 -0.757638 -0.331533 0
M  V30 689 H 68.6005 -1.69554 0.070433 0
M  V30 690 H 67.3725 -3.9093 -0.170098 0
M  V30 691 H 66.9955 -3.52396 -1.84126 0
M  V30 692 N 67.9926 0.231505 -1.5589 0
M  V30 693 C 69.2696 0.981096 -1.69215 0
M  V30 694 C 69.6496 2.02799 -0.586164 0
M  V30 695 O 68.9976 2.24823 0.408253 0
M  V30 696 C 69.2076 1.60054 -3.10135 0
M  V30 697 C 70.5556 2.09658 -3.69227 0
M  V30 698 O 71.5796 1.69967 -3.13033 0
M  V30 699 O 70.4386 2.8258 -4.67772 0
M  V30 700 H 67.5326 0.457653 -0.688827 0
M  V30 701 H 70.0786 0.224073 -1.68214 0
M  V30 702 H 68.8506 0.844105 -3.82087 0
M  V30 703 H 68.4736 2.42336 -3.15212 0
M  V30 704 N 69.4707 1.49531 0.497807 0
M  V30 705 C 70.6957 1.63159 1.28039 0
M  V30 706 C 71.1207 0.30418 1.85624 0
M  V30 707 O 70.4787 -0.728618 1.66015 0
M  V30 708 C 70.5267 2.70537 2.38416 0
M  V30 709 O 69.6307 2.29931 3.42353 0
M  V30 710 H 68.9717 0.546001 0.377861 0
M  V30 711 H 71.5017 1.9574 0.59558 0
M  V30 712 H 71.5117 2.92802 2.84132 0
M  V30 713 H 70.1867 3.6689 1.95869 0
M  V30 714 H 68.7637 2.18009 3.02533 0
M  V30 715 N 70.9488 -0.749086 1.3866 0
M  V30 716 C 72.3648 -1.05276 1.19955 0
M  V30 717 C 72.5648 -2.01435 0.05134 0
M  V30 718 O 71.6208 -2.45232 -0.60147 0
M  V30 719 C 72.9338 -1.62853 2.52783 0
M  V30 720 C 74.4818 -1.75002 2.59506 0
M  V30 721 C 74.9568 -2.35991 3.92521 0
M  V30 722 N 76.4478 -2.43416 3.94085 0
M  V30 723 C 77.1828 -2.91511 4.9377 0
M  V30 724 N 76.6788 -3.39608 6.03853 0
M  V30 725 N 78.4718 -2.90592 4.81157 0
M  V30 726 H 70.6228 -0.111066 2.12109 0
M  V30 727 H 72.8858 -0.111901 0.941373 0
M  V30 728 H 72.5918 -0.99664 3.37283 0
M  V30 729 H 72.4658 -2.61854 2.715 0
M  V30 730 H 74.8528 -2.37317 1.75398 0
M  V30 731 H 74.9338 -0.74693 2.44652 0
M  V30 732 H 74.5778 -1.74308 4.77053 0
M  V30 733 H 74.5078 -3.3695 4.04688 0
M  V30 734 H 76.9988 -2.09405 3.14576 0
M  V30 735 H 77.3118 -3.74775 6.75843 0
M  V30 736 H 75.6568 -3.37653 6.07466 0
M  V30 737 H 78.8478 -2.52332 3.94267 0
M  V30 738 H 79.0208 -3.27762 5.58996 0
M  V30 739 N 72.4269 -1.23603 -0.977757 0
M  V30 740 C 73.3369 -1.03632 -2.1047 0
M  V30 741 C 74.3529 0.0199435 -1.73989 0
M  V30 742 O 75.5289 -0.176076 -2.00629 0
M  V30 743 C 72.5939 -0.63276 -3.40877 0
M  V30 744 C 71.6549 -1.76437 -3.91367 0
M  V30 745 C 70.8879 -1.37997 -5.15551 0
M  V30 746 O 71.1109 -0.265357 -5.69782 0
M  V30 747 O 70.0449 -2.20201 -5.60174 0
M  V30 748 H 73.8709 -1.98086 -2.30208 0
M  V30 749 H 71.4559 -1.02332 -1.08851 0
M  V30 750 H 73.3379 -0.418761 -4.19314 0
M  V30 751 H 72.0129 0.282754 -3.22463 0
M  V30 752 H 70.9199 -2.03304 -3.14036 0
M  V30 753 H 72.2529 -2.6583 -4.14241 0
M  V30 754 N 73.905 1.17692 -1.04816 0
M  V30 755 C 74.868 2.19787 -0.650117 0
M  V30 756 C 75.868 1.58044 0.296427 0
M  V30 757 O 77.058 1.74012 0.0808097 0
M  V30 758 C 74.19 3.40869 0.0456987 0
M  V30 759 H 75.383 2.56516 -1.5537 0
M  V30 760 H 72.936 1.31708 -0.841594 0
M  V30 761 H 73.671 3.09681 0.962726 0
M  V30 762 H 73.456 3.86928 -0.634727 0
M  V30 763 H 74.946 4.16445 0.310432 0
M  V30 764 N 75.3831 0.828654 1.34056 0
M  V30 765 C 76.7991 0.515135 1.51058 0
M  V30 766 C 76.9991 -0.959581 1.77184 0
M  V30 767 O 76.0551 -1.74382 1.82612 0
M  V30 768 C 77.3681 1.37963 2.67183 0
M  V30 769 C 78.9161 1.37735 2.81066 0
M  V30 770 C 79.3911 2.22645 4.00241 0
M  V30 771 N 80.8821 2.203 4.07458 0
M  V30 772 C 81.6171 2.82744 4.98842 0
M  V30 773 N 81.1131 3.54201 5.9541 0
M  V30 774 N 82.9061 2.72268 4.91759 0
M  V30 775 H 75.0571 1.78343 1.15358 0
M  V30 776 H 77.3201 0.760304 0.566252 0
M  V30 777 H 77.0261 2.42714 2.54525 0
M  V30 778 H 76.9001 1.0484 3.62338 0
M  V30 779 H 79.2871 0.337593 2.93163 0
M  V30 780 H 79.3681 1.74859 1.86703 0
M  V30 781 H 79.0121 3.26674 3.88905 0
M  V30 782 H 78.9421 1.82869 4.93829 0
M  V30 783 H 81.4331 1.68327 3.38341 0
M  V30 784 H 81.7461 3.9908 6.61782 0
M  V30 785 H 80.0911 3.58308 5.95517 0
M  V30 786 H 83.2821 2.16014 4.15278 0
M  V30 787 H 83.4551 3.21219 5.62781 0
M  V30 788 N 76.8612 -1.46375 0.584142 0
M  V30 789 C 78.2772 -1.57694 0.245929 0
M  V30 790 C 78.4772 -1.57903 -1.25175 0
M  V30 791 O 77.5332 -1.49676 -2.03355 0
M  V30 792 C 78.8462 -2.87028 0.896402 0
M  V30 793 C 80.3942 -3.00662 0.870127 0
M  V30 794 C 80.8692 -4.32734 1.50017 0
M  V30 795 N 82.3602 -4.39436 1.46458 0
M  V30 796 C 83.0952 -5.40248 1.92144 0
M  V30 797 N 82.5912 -6.47726 2.4581 0
M  V30 798 N 84.3842 -5.31459 1.83052 0
M  V30 799 H 76.5352 -1.44483 1.55687 0
M  V30 800 H 78.7982 -0.689291 0.650831 0
M  V30 801 H 78.5042 -2.9269 1.95002 0
M  V30 802 H 78.3782 -3.75014 0.405486 0
M  V30 803 H 80.7652 -2.94581 -0.174871 0
M  V30 804 H 80.8462 -2.14148 1.39908 0
M  V30 805 H 80.4902 -4.39573 2.54437 0
M  V30 806 H 80.4202 -5.18025 0.946432 0
M  V30 807 H 82.9112 -3.62367 1.07231 0
M  V30 808 H 83.2242 -7.20863 2.78525 0
M  V30 809 H 81.5692 -6.48542 2.49836 0
M  V30 810 H 84.7602 -4.46396 1.40883 0
M  V30 811 H 84.9332 -6.09881 2.18973 0
M  V30 812 N 78.3393 -0.321999 -1.54275 0
M  V30 813 C 79.5853 0.281461 -2.00837 0
M  V30 814 C 79.9183 1.51909 -1.20985 0
M  V30 815 O 79.1933 1.923 -0.291733 0
M  V30 816 C 79.4763 0.617162 -3.54772 0
M  V30 817 C 79.3293 -0.631064 -4.45351 0
M  V30 818 C 80.6483 1.43542 -4.16033 0
M  V30 819 H 77.7673 0.100826 -0.730071 0
M  V30 820 H 80.4093 -0.438268 -1.84876 0
M  V30 821 H 78.5593 1.23034 -3.68504 0
M  V30 822 H 80.2313 -1.26934 -4.43492 0
M  V30 823 H 78.4743 -1.26025 -4.15091 0
M  V30 824 H 79.1453 -0.351735 -5.50878 0
M  V30 825 H 81.6213 0.917134 -4.05867 0
M  V30 826 H 80.4973 1.63907 -5.23856 0
M  V30 827 H 80.7583 2.43108 -3.69257 0
M  V30 828 N 79.8174 1.5752 -0.0501392 0
M  V30 829 C 81.0654 1.9227 0.622642 0
M  V30 830 C 81.3864 0.929083 1.71444 0
M  V30 831 O 80.6564 -0.0262186 1.95882 0
M  V30 832 H 79.2364 0.709739 0.232981 0
M  V30 833 H 81.8984 1.94628 -0.102898 0
M  V30 834 H 80.9944 2.93479 1.06191 0
M  V30 835 N 81.2955 -0.223234 1.56011 0
M  V30 836 C 82.5725 -0.972108 1.69733 0
M  V30 837 C 82.9525 -2.02485 0.59691 0
M  V30 838 O 82.3005 -2.25037 -0.396324 0
M  V30 839 C 82.5105 -1.58407 3.10979 0
M  V30 840 C 83.8585 -2.07696 3.70334 0
M  V30 841 O 84.8825 -1.68304 3.1393 0
M  V30 842 O 83.7415 -2.80096 4.69264 0
M  V30 843 H 80.8355 -0.453993 0.691245 0
M  V30 844 H 83.3815 -0.215149 1.68331 0
M  V30 845 H 82.1535 -0.823831 3.82529 0
M  V30 846 H 81.7765 -2.40661 3.16493 0
M  V30 847 N 82.7736 -1.49793 -0.48987 0
M  V30 848 C 84.0036 -1.6333 -1.26518 0
M  V30 849 C 84.4116 -0.308392 -1.8667 0
M  V30 850 O 83.7546 0.717512 -1.69108 0
M  V30 851 C 83.8166 -2.6522 -2.4269 0
M  V30 852 C 83.4806 -4.09279 -2.03321 0
M  V30 853 C 84.4776 -4.95738 -1.56652 0
M  V30 854 C 82.1626 -4.55082 -2.12616 0
M  V30 855 C 84.1566 -6.26041 -1.19795 0
M  V30 856 C 81.8436 -5.85396 -1.75371 0
M  V30 857 C 82.8416 -6.707 -1.29036 0
M  V30 858 O 82.5296 -7.98584 -0.92299 0
M  V30 859 H 82.2616 -0.552502 -0.389509 0
M  V30 860 H 84.8156 -1.96642 -0.593381 0
M  V30 861 H 83.0456 -2.27112 -3.12981 0
M  V30 862 H 84.7346 -2.68171 -3.04695 0
M  V30 863 H 85.5006 -4.61575 -1.48908 0
M  V30 864 H 81.3796 -3.88844 -2.47631 0
M  V30 865 H 84.9236 -6.92578 -0.835582 0
M  V30 866 H 80.8206 -6.19085 -1.82768 0
M  V30 867 H 81.5886 -8.11692 -1.05349 0
M  V30 868 N 84.2517 0.741722 -1.39055 0
M  V30 869 C 85.1817 1.869 -1.39966 0
M  V30 870 C 86.1627 1.6804 -0.26392 0
M  V30 871 O 87.3477 1.88458 -0.468755 0
M  V30 872 C 84.4777 3.24572 -1.23574 0
M  V30 873 C 83.4317 3.58056 -2.34477 0
M  V30 874 C 82.7577 4.94593 -2.0318 0
M  V30 875 C 84.0577 3.61716 -3.76774 0
M  V30 876 H 85.7517 1.86395 -2.34302 0
M  V30 877 H 83.2977 0.895361 -1.1278 0
M  V30 878 H 85.2507 4.031 -1.22834 0
M  V30 879 H 83.9747 3.25587 -0.257045 0
M  V30 880 H 82.6337 2.81854 -2.34423 0
M  V30 881 H 82.2817 4.92181 -1.03765 0
M  V30 882 H 81.9817 5.17964 -2.77465 0
M  V30 883 H 83.5057 5.75486 -2.04079 0
M  V30 884 H 84.9197 4.30335 -3.78794 0
M  V30 885 H 83.3167 3.96603 -4.50362 0
M  V30 886 H 84.3867 2.61672 -4.08235 0
M  V30 887 N 85.7298 1.2412 0.971189 0
M  V30 888 C 86.6928 1.03156 2.04674 0
M  V30 889 C 87.6928 -0.00990322 1.60797 0
M  V30 890 O 88.8828 0.230729 1.72665 0
M  V30 891 C 86.0148 0.562765 3.36223 0
M  V30 892 H 87.2078 1.98614 2.24705 0
M  V30 893 H 84.7608 1.06293 1.14593 0
M  V30 894 H 85.4958 -0.395176 3.21883 0
M  V30 895 H 85.2808 1.31441 3.69413 0
M  V30 896 H 86.7708 0.437015 4.15307 0
M  V30 897 N 87.2079 -1.17134 1.05439 0
M  V30 898 C 88.4849 -1.83411 0.679699 0
M  V30 899 C 88.8649 -1.9368 -0.839726 0
M  V30 900 O 88.2129 -1.47325 -1.74664 0
M  V30 901 C 88.4229 -3.20918 1.37159 0
M  V30 902 C 89.7709 -3.96796 1.51123 0
M  V30 903 O 90.7949 -3.30406 1.3308 0
M  V30 904 O 89.6539 -5.15778 1.80651 0
M  V30 905 H 86.7479 -0.79154 0.239569 0
M  V30 906 H 89.2939 -1.24411 1.15413 0
M  V30 907 H 88.0659 -3.08428 2.40807 0
M  V30 908 H 87.6889 -3.87587 0.886674 0
M  V30 909 N 88.686 -0.835752 -1.33615 0
M  V30 910 C 89.616 -0.281739 -2.31794 0
M  V30 911 C 90.597 0.608833 -1.58831 0
M  V30 912 O 91.782 0.533035 -1.86741 0
M  V30 913 C 88.912 0.546612 -3.42971 0
M  V30 914 C 87.866 -0.247904 -4.27281 0
M  V30 915 C 87.192 0.704001 -5.30045 0
M  V30 916 C 88.492 -1.46324 -5.01385 0
M  V30 917 H 90.186 -1.10206 -2.78379 0
M  V30 918 H 87.732 -0.531388 -1.33837 0
M  V30 919 H 89.685 0.944467 -4.1068 0
M  V30 920 H 88.409 1.40011 -2.95067 0
M  V30 921 H 87.068 -0.627281 -3.61194 0
M  V30 922 H 86.716 1.55381 -4.78399 0
M  V30 923 H 86.416 0.176524 -5.87335 0
M  V30 924 H 87.94 1.09944 -6.0062 0
M  V30 925 H 89.354 -1.13871 -5.61877 0
M  V30 926 H 87.751 -1.92728 -5.6831 0
M  V30 927 H 88.821 -2.23467 -4.30338 0
M  V30 928 N 90.1641 1.46063 -0.591896 0
M  V30 929 C 91.0941 2.33172 0.123673 0
M  V30 930 C 92.0751 1.45897 0.87453 0
M  V30 931 O 93.2601 1.74698 0.848181 0
M  V30 932 C 90.3901 3.28336 1.13194 0
M  V30 933 C 89.3441 4.25124 0.495324 0
M  V30 934 C 88.6701 5.09863 1.61071 0
M  V30 935 C 89.9701 5.19143 -0.573425 0
M  V30 936 H 91.6641 2.93252 -0.603646 0
M  V30 937 H 89.2101 1.41014 -0.291741 0
M  V30 938 H 91.1631 3.88137 1.64097 0
M  V30 939 H 89.8871 2.66383 1.88965 0
M  V30 940 H 88.5461 3.66599 0.00729452 0
M  V30 941 H 88.1941 4.44288 2.35832 0
M  V30 942 H 87.8941 5.75417 1.19035 0
M  V30 943 H 89.4181 5.72529 2.12233 0
M  V30 944 H 90.8321 5.73106 -0.1491 0
M  V30 945 H 89.2291 5.93089 -0.914636 0
M  V30 946 H 90.2991 4.62519 -1.45617 0
M  V30 947 N 91.6422 0.330177 1.54103 0
M  V30 948 C 93.0582 -0.0222371 1.59585 0
M  V30 949 C 93.2582 -1.49902 1.34654 0
M  V30 950 O 92.3142 -2.25592 1.13421 0
M  V30 951 C 93.6272 0.401932 2.98002 0
M  V30 952 C 95.1752 0.353145 3.11001 0
M  V30 953 C 95.6502 0.752576 4.51775 0
M  V30 954 N 97.1412 0.706239 4.57784 0
M  V30 955 C 97.8762 0.987417 5.64834 0
M  V30 956 N 97.3722 1.33607 6.79795 0
M  V30 957 N 99.1652 0.91254 5.54643 0
M  V30 958 H 91.3162 1.29228 1.68564 0
M  V30 959 H 93.5792 0.525906 0.78875 0
M  V30 960 H 93.2852 1.4311 3.21267 0
M  V30 961 H 93.1592 -0.229699 3.765 0
M  V30 962 H 95.5462 -0.666822 2.87467 0
M  V30 963 H 95.6272 1.0198 2.34593 0
M  V30 964 H 95.2712 1.77049 4.76042 0
M  V30 965 H 95.2012 0.0635409 5.26562 0
M  V30 966 H 97.6922 0.44889 3.75224 0
M  V30 967 H 98.0052 1.53582 7.57385 0
M  V30 968 H 96.3502 1.37439 6.81275 0
M  V30 969 H 99.5412 0.639601 4.6371 0
M  V30 970 H 99.7142 1.13503 6.37982 0
M  V30 971 N 93.1203 -1.57491 0.0584922 0
M  V30 972 C 94.5313 -1.80526 -0.476138 0
M  V30 973 C 94.8823 -0.971334 -1.70469 0
M  V30 974 O 94.0073 -0.190012 -2.15564 0
M  V30 975 C 94.6023 -3.27424 -0.870587 0
M  V30 976 C 93.1613 -3.51351 -1.35015 0
M  V30 977 C 92.3083 -2.75343 -0.32887 0
M  V30 978 H 95.2593 -1.56133 0.284312 0
M  V30 979 H 95.2803 -3.38745 -1.73299 0
M  V30 980 H 94.7923 -3.88093 0.0237627 0
M  V30 981 H 92.8933 -2.95971 -2.26345 0
M  V30 982 H 93.0063 -4.60059 -1.33726 0
M  V30 983 H 91.3703 -2.417 -0.803321 0
M  V30 984 H 92.1533 -3.38743 0.557521 0
M  V30 985 N 94.5984 0.214957 -1.56127 0
M  V30 986 C 95.5614 1.24997 -1.92116 0
M  V30 987 C 96.5614 1.39467 -0.800344 0
M  V30 988 O 97.7514 1.37619 -1.06802 0
M  V30 989 C 94.8834 2.62271 -2.17777 0
M  V30 990 H 96.0764 0.942875 -2.84693 0
M  V30 991 H 93.6294 0.455654 -1.49511 0
M  V30 992 H 94.3644 2.98068 -1.27773 0
M  V30 993 H 94.1494 2.53143 -2.99434 0
M  V30 994 H 95.6394 3.36946 -2.46693 0
M  V30 995 N 96.0765 1.50051 0.48192 0
M  V30 996 C 97.3045 1.64237 1.25832 0
M  V30 997 C 97.7195 0.321336 1.86045 0
M  V30 998 O 97.0765 -0.695478 1.68729 0
M  V30 999 C 97.1275 2.72548 2.37487 0
M  V30 1000 O 96.8485 3.99529 1.79745 0
M  V30 1001 C 98.3495 2.9761 3.28547 0
M  V30 1002 H 95.5695 0.55237 0.380957 0
M  V30 1003 H 98.1135 1.96207 0.576467 0
M  V30 1004 H 96.2685 2.43303 3.01467 0
M  V30 1005 H 96.6825 4.59342 2.5319 0
M  V30 1006 H 98.1565 3.77084 4.03127 0
M  V30 1007 H 98.6335 2.0826 3.86684 0
M  V30 1008 H 99.2395 3.28345 2.70314 0
M  V30 1009 N 97.5546 -0.734337 1.39446 0
M  V30 1010 C 98.8026 -1.49096 1.36436 0
M  V30 1011 C 99.1236 -1.94961 -0.0388255 0
M  V30 1012 O 98.3936 -1.69033 -0.990191 0
M  V30 1013 H 96.9736 -0.5531 0.502085 0
M  V30 1014 H 99.6356 -0.871725 1.74319 0
M  V30 1015 H 98.7316 -2.37276 2.02747 0
M  V30 1016 N 99.0327 -1.24633 -0.964593 0
M  V30 1017 C 100.263 -1.11339 -1.74032 0
M  V30 1018 C 100.671 0.336593 -1.86182 0
M  V30 1019 O 100.014 1.24389 -1.35178 0
M  V30 1020 C 100.076 -1.68284 -3.1768 0
M  V30 1021 C 99.7397 -3.17196 -3.28992 0
M  V30 1022 C 100.737 -4.14308 -3.14078 0
M  V30 1023 C 98.4217 -3.57215 -3.53133 0
M  V30 1024 C 100.416 -5.4942 -3.23135 0
M  V30 1025 C 98.1027 -4.92468 -3.61827 0
M  V30 1026 C 99.1007 -5.8838 -3.46841 0
M  V30 1027 O 98.7887 -7.21173 -3.55197 0
M  V30 1028 H 98.5207 -0.389551 -0.552472 0
M  V30 1029 H 101.075 -1.65282 -1.21946 0
M  V30 1030 H 99.3047 -1.08777 -3.71085 0
M  V30 1031 H 100.994 -1.50234 -3.77074 0
M  V30 1032 H 101.76 -3.84731 -2.95308 0
M  V30 1033 H 97.6387 -2.83063 -3.63863 0
M  V30 1034 H 101.183 -6.24263 -3.11355 0
M  V30 1035 H 97.0797 -5.21714 -3.80111 0
M  V30 1036 H 97.8477 -7.29135 -3.71892 0
M  V30 1037 N 100.511 1.16574 -1.06058 0
M  V30 1038 C 101.927 1.3904 -0.783585 0
M  V30 1039 C 102.127 1.91784 0.618145 0
M  V30 1040 O 101.183 2.11511 1.37911 0
M  V30 1041 C 102.496 2.37329 -1.84649 0
M  V30 1042 C 104.044 2.51018 -1.86973 0
M  V30 1043 C 104.519 3.52588 -2.92311 0
M  V30 1044 N 106.01 3.60113 -2.91329 0
M  V30 1045 C 106.745 4.38486 -3.69482 0
M  V30 1046 N 106.241 5.20302 -4.57447 0
M  V30 1047 N 108.034 4.33446 -3.57885 0
M  V30 1048 H 100.185 0.806725 -1.96483 0
M  V30 1049 H 102.448 0.417117 -0.851303 0
M  V30 1050 H 102.154 2.05663 -2.85299 0
M  V30 1051 H 102.028 3.36946 -1.6955 0
M  V30 1052 H 104.415 2.81989 -0.869827 0
M  V30 1053 H 104.496 1.51445 -2.0615 0
M  V30 1054 H 104.14 3.22354 -3.92492 0
M  V30 1055 H 104.07 4.51886 -2.70383 0
M  V30 1056 H 106.561 3.01707 -2.27555 0
M  V30 1057 H 106.874 5.77311 -5.13743 0
M  V30 1058 H 105.219 5.19653 -4.61503 0
M  V30 1059 H 108.41 3.68586 -2.88551 0
M  V30 1060 H 108.583 4.94279 -4.19037 0
M  V30 1061 N 101.989 0.842826 1.3317 0
M  V30 1062 C 102.919 0.294028 2.31641 0
M  V30 1063 C 103.9 -0.600401 1.59151 0
M  V30 1064 O 105.085 -0.523124 1.87022 0
M  V30 1065 C 102.215 -0.528416 3.43257 0
M  V30 1066 C 101.169 0.27056 4.27144 0
M  V30 1067 C 100.495 -0.675881 5.30411 0
M  V30 1068 C 101.795 1.48981 5.00602 0
M  V30 1069 H 103.489 1.11681 2.77791 0
M  V30 1070 H 101.035 0.538478 1.33553 0
M  V30 1071 H 102.988 -0.922674 4.11175 0
M  V30 1072 H 101.712 -1.38445 2.95805 0
M  V30 1073 H 100.371 0.646427 3.60856 0
M  V30 1074 H 100.019 -1.52842 4.79216 0
M  V30 1075 H 99.7189 -0.145374 5.8742 0
M  V30 1076 H 101.243 -1.06757 6.01195 0
M  V30 1077 H 102.657 1.16849 5.61266 0
M  V30 1078 H 101.054 1.95739 5.6728 0
M  V30 1079 H 102.124 2.25746 4.29147 0
M  V30 1080 N 103.467 -1.45747 0.599634 0
M  V30 1081 C 104.878 -1.85853 0.177681 0
M  V30 1082 C 105.229 -1.50102 -1.26348 0
M  V30 1083 O 104.354 -0.923905 -1.95686 0
M  V30 1084 C 104.949 -3.37326 0.315688 0
M  V30 1085 C 103.508 -3.76365 -0.0515144 0
M  V30 1086 C 102.655 -2.69722 0.643822 0
M  V30 1087 H 105.606 -1.36661 0.806814 0
M  V30 1088 H 105.627 -3.77778 -0.454321 0
M  V30 1089 H 105.139 -3.63315 1.36468 0
M  V30 1090 H 103.24 -3.55993 -1.09999 0
M  V30 1091 H 103.353 -4.77916 0.336594 0
M  V30 1092 H 101.717 -2.54567 0.0822881 0
M  V30 1093 H 102.5 -2.98549 1.6948 0
M  V30 1094 N 104.945 -0.338344 -1.53925 0
M  V30 1095 C 106.191 0.260143 -2.01125 0
M  V30 1096 C 106.524 1.50617 -1.22589 0
M  V30 1097 O 105.799 1.91979 -0.312113 0
M  V30 1098 C 106.082 0.579499 -3.55407 0
M  V30 1099 C 105.935 -0.678264 -4.44657 0
M  V30 1100 C 107.254 1.39122 -4.17532 0
M  V30 1101 H 104.373 0.0930772 -0.731099 0
M  V30 1102 H 107.015 -0.457852 -1.84401 0
M  V30 1103 H 105.165 1.19118 -3.69788 0
M  V30 1104 H 106.837 -1.31631 -4.42121 0
M  V30 1105 H 105.08 -1.3042 -4.13731 0
M  V30 1106 H 105.751 -0.410143 -5.50474 0
M  V30 1107 H 108.227 0.874035 -4.06817 0
M  V30 1108 H 107.103 1.58342 -5.25565 0
M  V30 1109 H 107.364 2.39178 -3.71815 0
M  V30 1110 N 106.423 1.57458 -0.0668435 0
M  V30 1111 C 107.651 1.97624 0.612565 0
M  V30 1112 C 108.066 0.94502 1.63447 0
M  V30 1113 O 107.423 -0.0689276 1.8237 0
M  V30 1114 C 107.474 3.37869 1.28555 0
M  V30 1115 O 107.195 4.3704 0.304557 0
M  V30 1116 C 108.696 3.92882 2.05325 0
M  V30 1117 H 105.916 0.650045 0.166381 0
M  V30 1118 H 108.46 2.04035 -0.137782 0
M  V30 1119 H 106.615 3.3256 1.98702 0
M  V30 1120 H 107.029 5.18565 0.786779 0
M  V30 1121 H 108.503 4.93247 2.47812 0
M  V30 1122 H 108.98 3.29156 2.9078 0
M  V30 1123 H 109.586 4.01577 1.40056 0
M  V30 1124 N 107.901 -0.206675 1.56239 0
M  V30 1125 C 108.864 -1.23976 1.92776 0
M  V30 1126 C 109.864 -1.39041 0.807729 0
M  V30 1127 O 111.054 -1.37051 1.0753 0
M  V30 1128 C 108.186 -2.61112 2.19165 0
M  V30 1129 H 109.379 -0.927764 2.85189 0
M  V30 1130 H 106.932 -0.447718 1.4975 0
M  V30 1131 H 107.667 -2.97386 1.29352 0
M  V30 1132 H 107.452 -2.51552 3.00772 0
M  V30 1133 H 108.942 -3.35633 2.48476 0
M  V30 1134 N 109.379 -1.50304 -0.473955 0
M  V30 1135 C 110.329 -1.65347 -1.56985 0
M  V30 1136 C 111.313 -0.508176 -1.52664 0
M  V30 1137 O 112.505 -0.762446 -1.59737 0
M  V30 1138 C 109.634 -1.74832 -2.95447 0
M  V30 1139 C 108.72 -2.95028 -3.04662 0
M  V30 1140 N 109.111 -4.18747 -2.83698 0
M  V30 1141 C 107.409 -2.93527 -3.35795 0
M  V30 1142 C 108.11 -4.99687 -2.97805 0
M  V30 1143 N 107.086 -4.33585 -3.2788 0
M  V30 1144 H 110.888 -2.58698 -1.39472 0
M  V30 1145 H 108.402 -1.47449 -0.680629 0
M  V30 1146 H 110.399 -1.83712 -3.7424 0
M  V30 1147 H 109.059 -0.826376 -3.14008 0
M  V30 1148 H 110.07 -4.48291 -2.59337 0
M  V30 1149 H 106.747 -2.10821 -3.60362 0
M  V30 1150 H 108.137 -6.08057 -2.85861 0
M  V30 1151 N 110.857 0.726932 -1.39834 0
M  V30 1152 C 112.105 1.4837 -1.37225 0
M  V30 1153 C 112.426 1.94979 0.0284857 0
M  V30 1154 O 111.696 1.69555 0.981213 0
M  V30 1155 H 110.276 0.55043 -0.505011 0
M  V30 1156 H 112.938 0.862468 -1.74778 0
M  V30 1157 H 112.034 2.36198 -2.04003 0
M  V30 1158 N 112.336 1.25143 0.95797 0
M  V30 1159 C 113.286 1.01924 2.0395 0
M  V30 1160 C 114.27 -0.0427175 1.60843 0
M  V30 1161 O 115.462 0.17221 1.7616 0
M  V30 1162 C 112.591 0.636373 3.3735 0
M  V30 1163 C 111.677 1.73492 3.8699 0
M  V30 1164 N 112.068 2.96945 4.0946 0
M  V30 1165 C 110.366 1.61467 4.15746 0
M  V30 1166 C 111.067 3.68228 4.50315 0
M  V30 1167 N 110.043 2.95833 4.56053 0
M  V30 1168 H 113.845 1.95653 2.19311 0
M  V30 1169 H 111.359 1.15413 1.14253 0
M  V30 1170 H 113.356 0.451233 4.14451 0
M  V30 1171 H 112.016 -0.293621 3.2337 0
M  V30 1172 H 113.027 3.33025 3.96629 0
M  V30 1173 H 109.704 0.753394 4.10646 0
M  V30 1174 H 111.094 4.74178 4.76031 0
M  V30 1175 N 113.814 -1.1601 1.06675 0
M  V30 1176 C 115.062 -1.86264 0.784229 0
M  V30 1177 C 115.383 -1.82328 -0.691488 0
M  V30 1178 O 114.653 -1.25947 -1.50047 0
M  V30 1179 H 113.233 -0.689621 0.28711 0
M  V30 1180 H 115.895 -1.40664 1.34906 0
M  V30 1181 H 114.991 -2.91595 1.11259 0
M  V30 1182 N 115.292 -0.849877 -1.32721 0
M  V30 1183 C 116.54 -0.450032 -1.97026 0
M  V30 1184 C 116.861 0.996604 -1.67609 0
M  V30 1185 O 116.131 1.6958 -0.980786 0
M  V30 1186 H 114.711 -0.163426 -0.728904 0
M  V30 1187 H 117.373 -1.08526 -1.6189 0
M  V30 1188 H 116.469 -0.591146 -3.0645 0
M  V30 1189 N 116.77 1.45427 -0.607355 0
M  V30 1190 C 118.019 2.01452 -0.100036 0
M  V30 1191 C 118.332 1.48159 1.27704 0
M  V30 1192 O 119.538 1.96159 1.87707 0
M  V30 1193 C 117.994 3.59672 -0.128158 0
M  V30 1194 C 117.602 4.21962 -1.50507 0
M  V30 1195 C 119.346 4.23262 0.323932 0
M  V30 1196 C 117.253 5.72333 -1.48959 0
M  V30 1197 H 116.183 0.75325 -0.0336299 0
M  V30 1198 H 118.834 1.66901 -0.76265 0
M  V30 1199 H 117.216 3.91411 0.601105 0
M  V30 1200 H 118.39 4.01796 -2.25602 0
M  V30 1201 H 116.705 3.70565 -1.89923 0
M  V30 1202 H 119.302 5.33522 0.354691 0
M  V30 1203 H 119.645 3.93921 1.34656 0
M  V30 1204 H 120.178 3.96239 -0.352056 0
M  V30 1205 H 116.917 6.06373 -2.48981 0
M  V30 1206 H 116.437 5.94691 -0.781214 0
M  V30 1207 H 118.116 6.35525 -1.21313 0
M  V30 1208 N 118.248 0.346503 1.53744 0
M  V30 1209 C 119.664 -0.00530975 1.59599 0
M  V30 1210 C 119.864 -1.48465 1.36236 0
M  V30 1211 O 118.92 -2.24376 1.15808 0
M  V30 1212 C 120.233 0.433516 2.97559 0
M  V30 1213 C 121.781 0.386111 3.10609 0
M  V30 1214 C 122.256 0.800451 4.50951 0
M  V30 1215 N 123.747 0.754753 4.5701 0
M  V30 1216 C 124.482 1.04727 5.63755 0
M  V30 1217 N 123.978 1.4081 6.7834 0
M  V30 1218 N 125.771 0.971316 5.53644 0
M  V30 1219 H 117.922 1.31009 1.67184 0
M  V30 1220 H 120.185 0.534242 0.783128 0
M  V30 1221 H 119.891 1.46509 3.19731 0
M  V30 1222 H 119.765 -0.189753 3.76722 0
M  V30 1223 H 122.152 -0.636295 2.88158 0
M  V30 1224 H 122.233 1.04462 2.33498 0
M  V30 1225 H 121.877 1.82088 4.74137 0
M  V30 1226 H 121.807 0.119386 5.26465 0
M  V30 1227 H 124.298 0.488662 3.74727 0
M  V30 1228 H 124.611 1.61607 7.55714 0
M  V30 1229 H 122.956 1.44657 6.79779 0
M  V30 1230 H 126.147 0.688748 4.63005 0
M  V30 1231 H 126.32 1.20263 6.36742 0
M  V30 1232 N 119.726 -1.57421 0.075193 0
M  V30 1233 C 120.656 -2.15942 -0.888324 0
M  V30 1234 C 121.637 -1.08737 -1.30806 0
M  V30 1235 O 122.822 -1.36787 -1.37851 0
M  V30 1236 C 119.952 -2.72379 -2.1547 0
M  V30 1237 C 118.906 -3.8478 -1.87425 0
M  V30 1238 C 118.232 -4.27834 -3.20721 0
M  V30 1239 C 119.532 -5.08869 -1.17684 0
M  V30 1240 H 121.226 -2.96705 -0.400799 0
M  V30 1241 H 118.772 -1.42723 -0.191342 0
M  V30 1242 H 120.725 -3.11965 -2.83295 0
M  V30 1243 H 119.449 -1.88841 -2.6647 0
M  V30 1244 H 118.108 -3.45703 -1.22004 0
M  V30 1245 H 117.756 -3.41214 -3.6957 0
M  V30 1246 H 117.456 -5.03605 -3.02746 0
M  V30 1247 H 118.98 -4.70039 -3.89738 0
M  V30 1248 H 120.394 -5.4575 -1.75584 0
M  V30 1249 H 118.791 -5.8994 -1.09956 0
M  V30 1250 H 119.861 -4.84648 -0.156453 0
M  V30 1251 N 121.204 0.198386 -1.56346 0
M  V30 1252 C 122.62 0.549085 -1.49857 0
M  V30 1253 C 122.82 1.86016 -0.774611 0
M  V30 1254 O 121.876 2.50416 -0.323776 0
M  V30 1255 C 123.189 0.606868 -2.94512 0
M  V30 1256 C 124.737 0.695925 -3.05165 0
M  V30 1257 C 125.212 0.784848 -4.51225 0
M  V30 1258 N 126.703 0.848463 -4.55363 0
M  V30 1259 C 127.438 0.937378 -5.65686 0
M  V30 1260 N 126.934 0.9888 -6.85707 0
M  V30 1261 N 128.727 0.974312 -5.53592 0
M  V30 1262 H 120.878 -0.661655 -2.01831 0
M  V30 1263 H 123.141 -0.235261 -0.918344 0
M  V30 1264 H 122.847 -0.28732 -3.50524 0
M  V30 1265 H 122.721 1.46268 -3.47686 0
M  V30 1266 H 125.108 1.58055 -2.49204 0
M  V30 1267 H 125.189 -0.186022 -2.55123 0
M  V30 1268 H 124.833 -0.0954072 -5.0781 0
M  V30 1269 H 124.763 1.68255 -4.98997 0
M  V30 1270 H 127.254 0.818103 -3.68938 0
M  V30 1271 H 127.567 1.05707 -7.65536 0
M  V30 1272 H 125.912 0.957534 -6.88372 0
M  V30 1273 H 129.103 0.930954 -4.58749 0
M  V30 1274 H 129.276 1.04015 -6.39597 0
M  V30 1275 N 122.682 1.50554 0.465978 0
M  V30 1276 C 123.612 1.72722 1.57128 0
M  V30 1277 C 124.593 0.576294 1.6004 0
M  V30 1278 O 125.778 0.81598 1.76225 0
M  V30 1279 C 122.908 1.82605 2.95419 0
M  V30 1280 C 121.862 2.97835 3.07373 0
M  V30 1281 C 121.188 2.92867 4.47363 0
M  V30 1282 C 122.488 4.38265 2.84114 0
M  V30 1283 H 124.182 2.65267 1.38829 0
M  V30 1284 H 121.728 1.2765 0.666441 0
M  V30 1285 H 123.681 1.96698 3.72677 0
M  V30 1286 H 122.405 0.866858 3.14886 0
M  V30 1287 H 121.064 2.83401 2.3255 0
M  V30 1288 H 120.712 1.94783 4.63755 0
M  V30 1289 H 120.412 3.70227 4.56296 0
M  V30 1290 H 121.936 3.09015 5.26633 0
M  V30 1291 H 123.35 4.53198 3.51118 0
M  V30 1292 H 121.747 5.17115 3.04487 0
M  V30 1293 H 122.817 4.50281 1.7993 0
M  V30 1294 N 124.16 -0.719506 1.40217 0
M  V30 1295 C 125.123 -1.8153 1.39927 0
M  V30 1296 C 126.123 -1.58095 0.293723 0
M  V30 1297 O 127.313 -1.65209 0.552429 0
M  V30 1298 C 124.445 -3.19561 1.18716 0
M  V30 1299 H 125.638 -1.83186 2.37451 0
M  V30 1300 H 123.191 -0.924746 1.26008 0
M  V30 1301 H 123.926 -3.23557 0.219366 0
M  V30 1302 H 123.711 -3.3797 1.98793 0
M  V30 1303 H 125.201 -3.99598 1.21291 0
M  V30 1304 N 125.638 -1.25649 -0.95132 0
M  V30 1305 C 126.886 -1.10375 -1.69298 0
M  V30 1306 C 127.207 0.355339 -1.91735 0
M  V30 1307 O 126.477 1.25188 -1.50681 0
M  V30 1308 H 125.057 -0.405461 -0.627384 0
M  V30 1309 H 127.719 -1.57823 -1.14358 0
M  V30 1310 H 126.815 -1.61465 -2.67087 0
M  V30 1311 N 127.117 1.15442 -1.07289 0
M  V30 1312 C 128.365 1.85845 -0.794096 0
M  V30 1313 C 128.686 1.82692 0.681809 0
M  V30 1314 O 127.956 1.26741 1.49377 0
M  V30 1315 H 126.536 0.688089 -0.290763 0
M  V30 1316 H 129.198 1.39947 -1.3565 0
M  V30 1317 H 128.294 2.91001 -1.12804 0
M  V30 1318 N 128.595 0.856903 1.32268 0
M  V30 1319 C 130.006 0.515711 1.79436 0
M  V30 1320 C 130.357 -0.966586 1.70738 0
M  V30 1321 O 129.482 -1.75409 1.26731 0
M  V30 1322 C 130.077 0.929335 3.25805 0
M  V30 1323 C 128.636 0.640006 3.70919 0
M  V30 1324 C 127.783 1.12784 2.53328 0
M  V30 1325 H 130.734 1.04389 1.19535 0
M  V30 1326 H 130.755 0.246633 3.797 0
M  V30 1327 H 130.267 2.00821 3.32103 0
M  V30 1328 H 128.368 -0.428051 3.70133 0
M  V30 1329 H 128.481 1.20788 4.63624 0
M  V30 1330 H 126.845 0.548033 2.48734 0
M  V30 1331 H 127.628 2.21387 2.62379 0
M  V30 1332 N 130.073 -1.45103 0.615059 0
M  V30 1333 C 131.303 -2.06254 0.119596 0
M  V30 1334 C 131.711 -1.4591 -1.20445 0
M  V30 1335 O 131.054 -0.570384 -1.7462 0
M  V30 1336 C 131.116 -3.59396 -0.0865591 0
M  V30 1337 C 130.78 -4.42116 1.15683 0
M  V30 1338 C 131.777 -4.7662 2.07676 0
M  V30 1339 C 129.462 -4.82749 1.38775 0
M  V30 1340 C 131.456 -5.50622 3.21082 0
M  V30 1341 C 129.143 -5.56504 2.52481 0
M  V30 1342 C 130.141 -5.90358 3.43463 0
M  V30 1343 O 129.829 -6.62615 4.55189 0
M  V30 1344 H 129.561 -0.672423 0.0694512 0
M  V30 1345 H 132.115 -1.87219 0.844885 0
M  V30 1346 H 130.345 -3.76859 -0.866823 0
M  V30 1347 H 132.034 -4.02365 -0.534555 0
M  V30 1348 H 132.8 -4.4578 1.91063 0
M  V30 1349 H 128.679 -4.55829 0.688545 0
M  V30 1350 H 132.223 -5.76965 3.92119 0
M  V30 1351 H 128.12 -5.86759 2.69043 0
M  V30 1352 H 128.888 -6.81071 4.53966 0
M  V30 1353 N 131.551 -0.354651 -1.53558 0
M  V30 1354 C 132.799 0.237972 -2.00694 0
M  V30 1355 C 133.12 1.50173 -1.24391 0
M  V30 1356 O 132.39 1.92673 -0.354135 0
M  V30 1357 H 130.97 0.0909256 -0.741446 0
M  V30 1358 H 133.632 -0.478368 -1.88938 0
M  V30 1359 H 132.728 0.47264 -3.085 0
M  V30 1360 N 133.029 1.57378 -0.0835403 0
M  V30 1361 C 134.306 1.85363 0.624507 0
M  V30 1362 C 134.686 0.978239 1.87066 0
M  V30 1363 O 134.034 0.0475908 2.2845 0
M  V30 1364 C 134.244 3.35795 0.950947 0
M  V30 1365 C 135.592 4.03581 1.31939 0
M  V30 1366 O 136.616 3.40609 1.04232 0
M  V30 1367 O 135.475 5.14672 1.83779 0
M  V30 1368 H 132.569 0.766162 0.311329 0
M  V30 1369 H 135.115 1.69307 -0.115362 0
M  V30 1370 H 133.887 3.91244 0.0663899 0
M  V30 1371 H 133.51 3.57154 1.74719 0
M  V30 1372 N 134.507 -0.190092 1.56449 0
M  V30 1373 C 135.417 -1.25591 1.98152 0
M  V30 1374 C 136.433 -1.49519 0.889944 0
M  V30 1375 O 137.609 -1.62036 1.19609 0
M  V30 1376 C 134.674 -2.57916 2.3169 0
M  V30 1377 C 133.735 -2.42015 3.5458 0
M  V30 1378 C 132.968 -3.6803 3.8651 0
M  V30 1379 O 133.191 -4.72413 3.1966 0
M  V30 1380 O 132.125 -3.6326 4.79923 0
M  V30 1381 H 135.951 -0.931988 2.89046 0
M  V30 1382 H 133.536 -0.395488 1.4407 0
M  V30 1383 H 135.418 -3.36008 2.54316 0
M  V30 1384 H 134.093 -2.89925 1.43963 0
M  V30 1385 H 133 -1.62017 3.37196 0
M  V30 1386 H 134.333 -2.14937 4.4279 0
M  V30 1387 N 135.985 -1.50799 -0.457987 0
M  V30 1388 C 137.233 -1.62121 -1.2067 0
M  V30 1389 C 137.554 -0.329793 -1.92191 0
M  V30 1390 O 136.824 0.653409 -1.84682 0
M  V30 1391 H 135.404 -0.597441 -0.448411 0
M  V30 1392 H 138.066 -1.87637 -0.527096 0
M  V30 1393 H 137.162 -2.43882 -1.94751 0
M  V30 1394 N 137.463 0.71206 -1.40597 0
M  V30 1395 C 138.693 1.49894 -1.42181 0
M  V30 1396 C 139.101 1.89189 -0.0208078 0
M  V30 1397 O 138.444 1.56223 0.966436 0
M  V30 1398 C 138.506 2.80215 -2.25211 0
M  V30 1399 C 138.17 2.63221 -3.73582 0
M  V30 1400 C 139.167 2.30249 -4.66135 0
M  V30 1401 C 136.852 2.79376 -4.17438 0
M  V30 1402 C 138.846 2.13645 -6.00529 0
M  V30 1403 C 136.533 2.6239 -5.51901 0
M  V30 1404 C 137.531 2.29573 -6.43262 0
M  V30 1405 O 137.219 2.12719 -7.75246 0
M  V30 1406 H 136.951 0.469031 -0.486812 0
M  V30 1407 H 139.505 0.88564 -1.85326 0
M  V30 1408 H 137.735 3.4389 -1.76852 0
M  V30 1409 H 139.424 3.41947 -2.18694 0
M  V30 1410 H 140.19 2.17398 -4.33547 0
M  V30 1411 H 136.069 3.03906 -3.46644 0
M  V30 1412 H 139.613 1.87953 -6.71803 0
M  V30 1413 H 135.51 2.74826 -5.84073 0
M  V30 1414 H 136.278 2.27611 -7.86216 0
M  V30 1415 N 138.941 1.26152 0.944643 0
M  V30 1416 C 140.357 1.03189 1.21754 0
M  V30 1417 C 140.557 -0.245112 2.00004 0
M  V30 1418 O 139.613 -0.955176 2.33736 0
M  V30 1419 C 140.926 2.26119 1.98219 0
M  V30 1420 C 142.474 2.30984 2.11224 0
M  V30 1421 C 142.949 3.53597 2.91089 0
M  V30 1422 N 144.44 3.54053 2.98664 0
M  V30 1423 C 145.175 4.45593 3.60881 0
M  V30 1424 N 144.671 5.47416 4.24626 0
M  V30 1425 N 146.464 4.33252 3.58119 0
M  V30 1426 H 138.615 2.08177 0.421437 0
M  V30 1427 H 140.878 0.914723 0.248969 0
M  V30 1428 H 140.584 3.18984 1.48128 0
M  V30 1429 H 140.458 2.3009 2.98895 0
M  V30 1430 H 142.845 1.38635 2.60508 0
M  V30 1431 H 142.926 2.31026 1.09821 0
M  V30 1432 H 142.57 4.46273 2.42493 0
M  V30 1433 H 142.5 3.50802 3.92741 0
M  V30 1434 H 144.991 2.80403 2.53343 0
M  V30 1435 H 145.304 6.13459 4.69987 0
M  V30 1436 H 143.649 5.51278 4.23223 0
M  V30 1437 H 146.84 3.52924 3.0751 0
M  V30 1438 H 147.013 5.04786 4.06319 0
M  V30 1439 N 140.419 -1.14872 1.07899 0
M  V30 1440 C 141.349 -2.2193 0.725887 0
M  V30 1441 C 142.33 -1.67622 -0.28927 0
M  V30 1442 O 143.515 -1.93533 -0.160787 0
M  V30 1443 C 140.645 -3.47061 0.128856 0
M  V30 1444 C 139.599 -4.14363 1.07178 0
M  V30 1445 C 138.925 -5.33636 0.337229 0
M  V30 1446 C 140.225 -4.63492 2.40775 0
M  V30 1447 H 141.919 -2.51724 1.62097 0
M  V30 1448 H 139.465 -1.20991 0.780838 0
M  V30 1449 H 141.418 -4.21199 -0.130147 0
M  V30 1450 H 140.142 -3.16617 -0.80134 0
M  V30 1451 H 138.801 -3.42173 1.3158 0
M  V30 1452 H 138.449 -4.99449 -0.596606 0
M  V30 1453 H 138.149 -5.79609 0.965788 0
M  V30 1454 H 139.673 -6.10539 0.0861567 0
M  V30 1455 H 141.087 -5.2913 2.20669 0
M  V30 1456 H 139.484 -5.20148 2.99276 0
M  V30 1457 H 140.554 -3.78834 3.02676 0
M  V30 1458 N 141.898 -0.863906 -1.31812 0
M  V30 1459 C 143.175 -0.39275 -1.91616 0
M  V30 1460 C 143.555 1.12461 -1.7865 0
M  V30 1461 O 142.903 1.95045 -1.19037 0
M  V30 1462 C 143.113 -0.867385 -3.38049 0
M  V30 1463 C 144.461 -0.889966 -4.15168 0
M  V30 1464 O 145.485 -0.812635 -3.46806 0
M  V30 1465 O 144.344 -1.00079 -5.37258 0
M  V30 1466 H 141.438 -0.116358 -0.818773 0
M  V30 1467 H 143.984 -0.951418 -1.40521 0
M  V30 1468 H 142.756 -1.91081 -3.41473 0
M  V30 1469 H 142.379 -0.286687 -3.96565 0
M  V30 1470 N 143.376 1.44774 -0.622745 0
M  V30 1471 C 144.601 2.06999 -0.128968 0
M  V30 1472 C 145.026 1.4617 1.1839 0
M  V30 1473 O 144.384 0.560007 1.72434 0
M  V30 1474 C 144.432 3.60595 -0.0188351 0
M  V30 1475 O 143.536 3.99398 1.02739 0
M  V30 1476 H 142.877 0.659047 -0.0809544 0
M  V30 1477 H 145.407 1.85784 -0.85705 0
M  V30 1478 H 145.417 4.07627 0.174476 0
M  V30 1479 H 144.092 4.04252 -0.977384 0
M  V30 1480 H 142.669 3.64011 0.809326 0
M  V30 1481 N 144.854 0.36279 1.53368 0
M  V30 1482 C 146.102 -0.227326 2.00817 0
M  V30 1483 C 146.423 -1.49511 1.25186 0
M  V30 1484 O 145.693 -1.92482 0.364348 0
M  V30 1485 H 144.273 -0.0869923 0.741917 0
M  V30 1486 H 146.935 0.488381 1.88682 0
M  V30 1487 H 146.031 -0.456273 3.08747 0
M  V30 1488 N 146.332 -1.57332 0.0918853 0
M  V30 1489 C 147.743 -1.81496 -0.437739 0
M  V30 1490 C 148.094 -1.00727 -1.6837 0
M  V30 1491 O 147.219 -0.235694 -2.15113 0
M  V30 1492 C 147.814 -3.29197 -0.800939 0
M  V30 1493 C 146.373 -3.54136 -1.27532 0
M  V30 1494 C 145.52 -2.75979 -0.270392 0
M  V30 1495 H 148.471 -1.55494 0.317366 0
M  V30 1496 H 148.492 -3.42344 -1.66074 0
M  V30 1497 H 148.004 -3.87955 0.106078 0
M  V30 1498 H 146.105 -3.00705 -2.20016 0
M  V30 1499 H 146.218 -4.62792 -1.23938 0
M  V30 1500 H 144.582 -2.43349 -0.751872 0
M  V30 1501 H 145.365 -3.37484 0.629248 0
M  V30 1502 N 147.81 0.181792 -1.56548 0
M  V30 1503 C 148.773 1.20894 -1.94724 0
M  V30 1504 C 149.773 1.37738 -0.829747 0
M  V30 1505 O 150.963 1.35323 -1.09697 0
M  V30 1506 C 148.095 2.57593 -2.23291 0
M  V30 1507 H 149.288 0.882275 -2.86629 0
M  V30 1508 H 146.841 0.423838 -1.50444 0
M  V30 1509 H 147.576 2.95291 -1.34067 0
M  V30 1510 H 147.361 2.46735 -3.04736 0
M  V30 1511 H 148.851 3.31637 -2.53785 0
M  V30 1512 N 149.288 1.51039 0.449983 0
M  V30 1513 C 150.536 1.62759 1.19808 0
M  V30 1514 C 150.857 0.339981 1.92013 0
M  V30 1515 O 150.127 -0.643606 1.85026 0
M  V30 1516 H 148.707 0.599811 0.445237 0
M  V30 1517 H 151.369 1.87914 0.517138 0
M  V30 1518 H 150.465 2.44911 1.93455 0
M  V30 1519 N 150.766 -0.704594 1.40972 0
M  V30 1520 C 152.012 -1.46675 1.40051 0
M  V30 1521 C 152.345 -1.94199 0.00641102 0
M  V30 1522 O 151.62 -1.68916 -0.964235 0
M  V30 1523 C 151.903 -2.68505 2.39952 0
M  V30 1524 C 151.756 -2.26805 3.88432 0
M  V30 1525 C 153.075 -3.70686 2.37233 0
M  V30 1526 H 150.194 -0.532015 0.510028 0
M  V30 1527 H 152.836 -0.803255 1.72185 0
M  V30 1528 H 150.986 -3.25114 2.1268 0
M  V30 1529 H 152.658 -1.75592 4.26574 0
M  V30 1530 H 150.901 -1.58685 4.03734 0
M  V30 1531 H 151.572 -3.14181 4.53866 0
M  V30 1532 H 154.048 -3.23731 2.61415 0
M  V30 1533 H 152.924 -4.53553 3.09162 0
M  V30 1534 H 153.185 -4.19754 1.38777 0
M  V30 1535 N 152.244 -1.26651 -0.937939 0
M  V30 1536 C 153.472 -1.15173 -1.7188 0
M  V30 1537 C 153.887 0.292668 -1.86518 0
M  V30 1538 O 153.244 1.20014 -1.37488 0
M  V30 1539 C 153.295 -1.81925 -3.12387 0
M  V30 1540 O 153.016 -3.2072 -2.98446 0
M  V30 1541 C 154.517 -1.76442 -4.06673 0
M  V30 1542 H 151.737 -0.400911 -0.538063 0
M  V30 1543 H 154.281 -1.67332 -1.1756 0
M  V30 1544 H 152.436 -1.33696 -3.63599 0
M  V30 1545 H 152.85 -3.53802 -3.872 0
M  V30 1546 H 154.324 -2.27781 -5.02812 0
M  V30 1547 H 154.801 -0.731608 -4.33064 0
M  V30 1548 H 155.407 -2.24238 -3.61382 0
M  V30 1549 N 153.722 1.14298 -1.08507 0
M  V30 1550 C 154.971 1.84708 -0.810305 0
M  V30 1551 C 155.284 1.83903 0.666271 0
M  V30 1552 O 156.49 2.50112 1.05624 0
M  V30 1553 C 154.946 3.31572 -1.39957 0
M  V30 1554 C 154.554 3.40791 -2.90801 0
M  V30 1555 C 156.298 4.07087 -1.20334 0
M  V30 1556 C 154.205 4.81872 -3.4286 0
M  V30 1557 H 153.135 0.691985 -0.299454 0
M  V30 1558 H 155.786 1.28841 -1.30661 0
M  V30 1559 H 154.168 3.87183 -0.830976 0
M  V30 1560 H 155.342 2.95225 -3.53806 0
M  V30 1561 H 153.657 2.78732 -3.0935 0
M  V30 1562 H 156.254 5.11225 -1.56693 0
M  V30 1563 H 156.597 4.16054 -0.143237 0
M  V30 1564 H 157.13 3.57779 -1.73893 0
M  V30 1565 H 153.869 4.78094 -4.48449 0
M  V30 1566 H 153.389 5.27972 -2.84615 0
M  V30 1567 H 155.068 5.50765 -3.39509 0
M  V30 1568 N 155.201 0.870884 1.31352 0
M  V30 1569 C 156.429 0.49677 2.00848 0
M  V30 1570 C 156.844 -0.910998 1.65367 0
M  V30 1571 O 156.201 -1.59696 0.883374 0
M  V30 1572 C 156.252 0.645308 3.55694 0
M  V30 1573 O 155.973 1.99764 3.89905 0
M  V30 1574 C 157.474 0.272326 4.42463 0
M  V30 1575 H 154.694 0.193462 0.642506 0
M  V30 1576 H 157.238 1.1723 1.67563 0
M  V30 1577 H 155.393 0.0173176 3.87396 0
M  V30 1578 H 155.807 2.00607 4.84621 0
M  V30 1579 H 157.281 0.427208 5.50344 0
M  V30 1580 H 157.758 -0.788587 4.32062 0
M  V30 1581 H 158.364 0.876054 4.1618 0
M  V30 1582 N 156.679 -1.44442 0.630414 0
M  V30 1583 C 157.642 -2.29107 -0.0652523 0
M  V30 1584 C 158.642 -1.41002 -0.772995 0
M  V30 1585 O 159.832 -1.62881 -0.617692 0
M  V30 1586 C 156.964 -3.22564 -1.10296 0
M  V30 1587 H 158.157 -2.92103 0.679401 0
M  V30 1588 H 155.71 -1.51343 0.390517 0
M  V30 1589 H 156.445 -2.64416 -1.87762 0
M  V30 1590 H 156.23 -3.87491 -0.59941 0
M  V30 1591 H 157.72 -3.86167 -1.5895 0
M  V30 1592 N 158.157 -0.370918 -1.53173 0
M  V30 1593 C 159.573 -0.0200818 -1.59587 0
M  V30 1594 C 159.773 1.46279 -1.38581 0
M  V30 1595 O 158.829 2.22506 -1.19363 0
M  V30 1596 C 160.142 -0.4808 -2.96831 0
M  V30 1597 C 161.69 -0.435477 -3.09956 0
M  V30 1598 C 162.165 -0.872092 -4.4962 0
M  V30 1599 N 163.656 -0.827364 -4.55751 0
M  V30 1600 C 164.391 -1.13683 -5.62018 0
M  V30 1601 N 163.887 -1.51584 -6.76014 0
M  V30 1602 N 165.68 -1.05927 -5.52029 0
M  V30 1603 H 157.831 -1.33652 -1.65079 0
M  V30 1604 H 160.094 -0.546634 -0.774529 0
M  V30 1605 H 159.8 -1.51577 -3.1736 0
M  V30 1606 H 159.674 0.129796 -3.76977 0
M  V30 1607 H 162.061 0.590371 -2.89134 0
M  V30 1608 H 162.142 -1.08164 -2.31806 0
M  V30 1609 H 161.786 -1.89608 -4.71181 0
M  V30 1610 H 161.716 -0.203127 -5.26208 0
M  V30 1611 H 164.207 -0.548216 -3.73902 0
M  V30 1612 H 164.52 -1.73609 -7.53047 0
M  V30 1613 H 162.865 -1.55454 -6.77391 0
M  V30 1614 H 166.056 -0.762321 -4.61851 0
M  V30 1615 H 166.229 -1.30378 -6.34749 0
M  V30 1616 N 159.635 1.57281 -0.100228 0
M  V30 1617 C 160.582 2.14305 0.856858 0
M  V30 1618 C 161.552 1.06296 1.27634 0
M  V30 1619 O 162.737 1.34109 1.35718 0
M  V30 1620 C 159.877 2.73184 2.10866 0
M  V30 1621 C 158.99 3.95442 1.73925 0
M  V30 1622 C 158.125 4.42468 2.93931 0
M  V30 1623 C 157.164 5.57303 2.5314 0
M  V30 1624 N 156.301 5.99158 3.65997 0
M  V30 1625 H 161.141 2.95772 0.363726 0
M  V30 1626 H 158.678 1.46139 0.167858 0
M  V30 1627 H 160.636 3.05442 2.84185 0
M  V30 1628 H 159.266 1.94437 2.57671 0
M  V30 1629 H 158.318 3.69464 0.905554 0
M  V30 1630 H 159.63 4.78769 1.39935 0
M  V30 1631 H 158.784 4.76537 3.75496 0
M  V30 1632 H 157.523 3.58052 3.31134 0
M  V30 1633 H 156.528 5.22857 1.70003 0
M  V30 1634 H 157.753 6.43471 2.17075 0
M  V30 1635 H 155.699 5.17687 4.02909 0
M  V30 1636 H 155.616 6.77295 3.35869 0
M  V30 1637 H 156.884 6.3786 4.48057 0
M  V30 1638 N 161.113 -0.173488 1.56642 0
M  V30 1639 C 162.076 -1.19859 1.95362 0
M  V30 1640 C 163.076 -1.37296 0.83704 0
M  V30 1641 O 164.266 -1.34739 1.10413 0
M  V30 1642 C 161.398 -2.56405 2.24654 0
M  V30 1643 H 162.591 -0.867062 2.87092 0
M  V30 1644 H 160.144 -0.415853 1.50666 0
M  V30 1645 H 160.879 -2.94576 1.35631 0
M  V30 1646 H 160.664 -2.45115 3.06041 0
M  V30 1647 H 162.154 -3.30287 2.5554 0
M  V30 1648 N 162.591 -1.51276 -0.441967 0
M  V30 1649 C 163.554 -1.7167 -1.51862 0
M  V30 1650 C 164.554 -0.586793 -1.49711 0
M  V30 1651 O 165.744 -0.854276 -1.51815 0
M  V30 1652 C 162.876 -1.76889 -2.91416 0
M  V30 1653 H 164.069 -2.67754 -1.35084 0
M  V30 1654 H 161.622 -1.41196 -0.670333 0
M  V30 1655 H 162.357 -0.826026 -3.13604 0
M  V30 1656 H 162.142 -2.59001 -2.94382 0
M  V30 1657 H 163.632 -1.94522 -3.69528 0
M  V30 1658 N 164.069 0.697108 -1.41344 0
M  V30 1659 C 165.317 1.45426 -1.40341 0
M  V30 1660 C 165.638 1.94996 -0.0128787 0
M  V30 1661 O 164.908 1.71599 0.945027 0
M  V30 1662 H 163.488 0.539594 -0.516573 0
M  V30 1663 H 166.15 0.825201 -1.76569 0
M  V30 1664 H 165.246 2.31817 -2.08967 0
M  V30 1665 N 165.547 1.27147 0.931209 0
M  V30 1666 C 166.477 1.12081 2.04842 0
M  V30 1667 C 167.458 0.0232364 1.70084 0
M  V30 1668 O 168.643 0.197085 1.93197 0
M  V30 1669 C 165.773 0.76354 3.38803 0
M  V30 1670 C 164.727 1.81396 3.87659 0
M  V30 1671 C 164.053 1.31075 5.18385 0
M  V30 1672 C 165.353 3.21739 4.11438 0
M  V30 1673 H 167.047 2.05537 2.17703 0
M  V30 1674 H 164.593 0.989603 1.04608 0
M  V30 1675 H 166.546 0.644982 4.16435 0
M  V30 1676 H 165.27 -0.206727 3.25945 0
M  V30 1677 H 163.929 1.92136 3.12217 0
M  V30 1678 H 163.577 0.330037 5.01916 0
M  V30 1679 H 163.277 2.013 5.52044 0
M  V30 1680 H 164.801 1.20506 5.98591 0
M  V30 1681 H 166.215 3.14019 4.79651 0
M  V30 1682 H 164.612 3.89644 4.56397 0
M  V30 1683 H 165.682 3.67054 3.16859 0
M  V30 1684 N 167.025 -1.13721 1.09112 0
M  V30 1685 C 168.272 -1.84924 0.825192 0
M  V30 1686 C 168.6 -1.83347 -0.649151 0
M  V30 1687 O 167.855 -1.26449 -1.49362 0
M  V30 1688 C 168.154 -3.32861 1.30146 0
M  V30 1689 C 167.82 -3.54621 2.78486 0
M  V30 1690 C 166.482 -3.60268 3.18999 0
M  V30 1691 C 168.834 -3.62855 3.74146 0
M  V30 1692 C 166.162 -3.71679 4.53951 0
M  V30 1693 C 168.514 -3.75793 5.08883 0
M  V30 1694 C 167.178 -3.79692 5.4899 0
M  V30 1695 H 166.448 -0.676684 0.301959 0
M  V30 1696 H 169.095 -1.3428 1.36533 0
M  V30 1697 H 167.4 -3.85835 0.681064 0
M  V30 1698 H 169.097 -3.86395 1.07236 0
M  V30 1699 H 165.687 -3.50879 2.46134 0
M  V30 1700 H 169.871 -3.57775 3.43963 0
M  V30 1701 H 165.127 -3.72963 4.84467 0
M  V30 1702 H 169.301 -3.81107 5.82864 0
M  V30 1703 H 166.928 -3.88287 6.53558 0
M  V30 1704 N 168.503 -0.877838 -1.30888 0
M  V30 1705 C 169.453 -0.310872 -2.25871 0
M  V30 1706 C 170.437 0.556596 -1.50966 0
M  V30 1707 O 171.629 0.402187 -1.7237 0
M  V30 1708 C 168.758 0.479821 -3.3993 0
M  V30 1709 C 167.844 -0.401333 -4.22197 0
M  V30 1710 N 168.235 -1.49848 -4.83093 0
M  V30 1711 C 166.533 -0.195167 -4.45573 0
M  V30 1712 C 167.234 -2.0425 -5.44662 0
M  V30 1713 N 166.21 -1.33843 -5.26865 0
M  V30 1714 H 170.012 -1.1493 -2.70496 0
M  V30 1715 H 167.526 -0.726458 -1.45246 0
M  V30 1716 H 169.523 0.902582 -4.07012 0
M  V30 1717 H 168.183 1.31577 -2.96846 0
M  V30 1718 H 169.194 -1.88137 -4.82519 0
M  V30 1719 H 165.871 0.604192 -4.13105 0
M  V30 1720 H 167.261 -2.96345 -6.03017 0
M  V30 1721 N 169.982 1.44106 -0.638065 0
M  V30 1722 C 171.23 2.01579 -0.145043 0
M  V30 1723 C 171.551 1.50496 1.24 0
M  V30 1724 O 170.821 0.711374 1.82527 0
M  V30 1725 H 169.401 0.745282 -0.05063 0
M  V30 1726 H 172.063 1.76516 -0.826327 0
M  V30 1727 H 171.159 3.11877 -0.118039 0
M  V30 1728 N 171.46 0.379036 1.52974 0
M  V30 1729 C 172.706 -0.206727 2.01744 0
M  V30 1730 C 173.039 -1.47314 1.26539 0
M  V30 1731 O 172.314 -1.91084 0.362903 0
M  V30 1732 C 172.597 -0.485066 3.56818 0
M  V30 1733 C 172.45 0.795919 4.42702 0
M  V30 1734 C 173.769 -1.28003 4.21074 0
M  V30 1735 H 170.888 -0.0736607 0.73331 0
M  V30 1736 H 173.53 0.506581 1.83122 0
M  V30 1737 H 171.68 -1.09272 3.72816 0
M  V30 1738 H 173.352 1.43307 4.38476 0
M  V30 1739 H 171.595 1.41344 4.10127 0
M  V30 1740 H 172.266 0.555947 5.49193 0
M  V30 1741 H 174.742 -0.765867 4.08991 0
M  V30 1742 H 173.618 -1.44352 5.29579 0
M  V30 1743 H 173.879 -2.29236 3.78026 0
M  V30 1744 N 172.938 -1.57226 0.108567 0
M  V30 1745 C 173.87 -2.11809 -0.875752 0
M  V30 1746 C 174.883 -1.05839 -1.23701 0
M  V30 1747 O 176.072 -1.33245 -1.18778 0
M  V30 1748 C 173.172 -2.59411 -2.18081 0
M  V30 1749 C 172.345 -3.89364 -1.99284 0
M  V30 1750 C 171.404 -4.22672 -3.13424 0
M  V30 1751 O 170.43 -4.91668 -2.86795 0
M  V30 1752 N 171.632 -3.79154 -4.3957 0
M  V30 1753 H 174.397 -2.9689 -0.409477 0
M  V30 1754 H 171.958 -1.61721 -0.076158 0
M  V30 1755 H 173.95 -2.7873 -2.93414 0
M  V30 1756 H 172.52 -1.79268 -2.5609 0
M  V30 1757 H 171.74 -3.79059 -1.08203 0
M  V30 1758 H 173.028 -4.74358 -1.84017 0
M  V30 1759 H 172.426 -3.23486 -4.64083 0
M  V30 1760 H 170.983 -4.03602 -5.11809 0
M  V30 1761 N 174.416 0.165178 -1.56732 0
M  V30 1762 C 175.644 0.896218 -1.86482 0
M  V30 1763 C 176.059 1.75555 -0.694675 0
M  V30 1764 O 175.416 1.79379 0.33607 0
M  V30 1765 C 175.467 1.76792 -3.1532 0
M  V30 1766 O 175.188 0.943239 -4.27825 0
M  V30 1767 C 176.689 2.6081 -3.58459 0
M  V30 1768 H 173.909 0.260064 -0.618553 0
M  V30 1769 H 176.453 0.163428 -2.03846 0
M  V30 1770 H 174.608 2.45398 -2.99764 0
M  V30 1771 H 175.022 1.53998 -5.01383 0
M  V30 1772 H 176.496 3.17579 -4.51495 0
M  V30 1773 H 176.973 3.35977 -2.82872 0
M  V30 1774 H 177.579 1.97526 -3.76648 0
M  V30 1775 N 175.894 1.51508 0.433938 0
M  V30 1776 C 176.824 1.76016 1.53429 0
M  V30 1777 C 177.805 0.610112 1.58782 0
M  V30 1778 O 178.99 0.853177 1.74455 0
M  V30 1779 C 176.12 1.88831 2.9148 0
M  V30 1780 C 175.074 3.04288 3.00987 0
M  V30 1781 C 174.4 3.0229 4.4105 0
M  V30 1782 C 175.7 4.44193 2.74754 0
M  V30 1783 H 177.394 2.68152 1.33171 0
M  V30 1784 H 174.94 1.29035 0.639214 0
M  V30 1785 H 176.893 2.04559 3.6842 0
M  V30 1786 H 175.617 0.933455 3.12976 0
M  V30 1787 H 174.276 2.8827 2.26486 0
M  V30 1788 H 173.924 2.04576 4.59519 0
M  V30 1789 H 173.624 3.79822 4.4834 0
M  V30 1790 H 175.148 3.20116 5.1996 0
M  V30 1791 H 176.562 4.60544 3.41426 0
M  V30 1792 H 174.959 5.23457 2.9345 0
M  V30 1793 H 176.029 4.53996 1.70339 0
M  V30 1794 N 177.372 -0.689602 1.41712 0
M  V30 1795 C 178.788 -1.00093 1.24312 0
M  V30 1796 C 178.988 -2.01036 0.136729 0
M  V30 1797 O 178.044 -2.47562 -0.496918 0
M  V30 1798 C 179.357 -1.51985 2.59463 0
M  V30 1799 C 180.905 -1.63838 2.66695 0
M  V30 1800 C 181.38 -2.1913 4.02177 0
M  V30 1801 N 182.871 -2.26483 4.04054 0
M  V30 1802 C 183.606 -2.70306 5.0569 0
M  V30 1803 N 183.102 -3.13691 6.17713 0
M  V30 1804 N 184.895 -2.69923 4.9305 0
M  V30 1805 H 177.046 -0.0210029 2.1239 0
M  V30 1806 H 179.309 -0.0718733 0.945272 0
M  V30 1807 H 179.015 -0.85269 3.41207 0
M  V30 1808 H 178.889 -2.50103 2.82362 0
M  V30 1809 H 181.276 -2.29664 1.85306 0
M  V30 1810 H 181.357 -0.642492 2.476 0
M  V30 1811 H 181.001 -1.53918 4.84016 0
M  V30 1812 H 180.931 -3.19482 4.18615 0
M  V30 1813 H 183.422 -1.95874 3.23174 0
M  V30 1814 H 183.735 -3.45773 6.9113 0
M  V30 1815 H 182.08 -3.11585 6.21241 0
M  V30 1816 H 185.271 -2.35382 4.04614 0
M  V30 1817 H 185.444 -3.03758 5.72394 0
M  V30 1818 N 178.85 -1.27639 -0.924453 0
M  V30 1819 C 179.782 -1.06442 -2.02985 0
M  V30 1820 C 180.795 -0.0194771 -1.62788 0
M  V30 1821 O 181.984 -0.261388 -1.76576 0
M  V30 1822 C 179.084 -0.59327 -3.33667 0
M  V30 1823 C 178.257 -1.71123 -4.02537 0
M  V30 1824 C 177.316 -1.23527 -5.11495 0
M  V30 1825 O 176.342 -1.93553 -5.35281 0
M  V30 1826 N 177.544 -0.0926678 -5.80426 0
M  V30 1827 H 180.309 -2.01633 -2.2173 0
M  V30 1828 H 177.87 -1.19248 -1.09505 0
M  V30 1829 H 179.862 -0.258686 -4.03872 0
M  V30 1830 H 178.432 0.265502 -3.1147 0
M  V30 1831 H 177.652 -2.21593 -3.26022 0
M  V30 1832 H 178.94 -2.46145 -4.45298 0
M  V30 1833 H 178.338 0.491741 -5.63559 0
M  V30 1834 H 176.895 0.182714 -6.51544 0
M  V30 1835 N 180.328 1.1314 -1.09713 0
M  V30 1836 C 181.258 2.20748 -0.761102 0
M  V30 1837 C 182.239 1.68061 0.262566 0
M  V30 1838 O 183.424 1.93765 0.129977 0
M  V30 1839 C 180.554 3.46812 -0.184054 0
M  V30 1840 C 179.508 4.12606 -1.13757 0
M  V30 1841 C 178.834 5.33031 -0.422083 0
M  V30 1842 C 180.134 4.59603 -2.48118 0
M  V30 1843 H 181.828 2.49113 -1.66082 0
M  V30 1844 H 179.374 1.19734 -0.799987 0
M  V30 1845 H 181.327 4.21353 0.0631215 0
M  V30 1846 H 180.051 3.17851 0.750868 0
M  V30 1847 H 178.71 3.40036 -1.37007 0
M  V30 1848 H 178.358 5.00335 0.517072 0
M  V30 1849 H 178.058 5.77999 -1.05788 0
M  V30 1850 H 179.582 6.10325 -0.183277 0
M  V30 1851 H 180.996 5.25552 -2.29059 0
M  V30 1852 H 179.393 5.15321 -3.07514 0
M  V30 1853 H 180.463 3.73971 -3.08665 0
M  V30 1854 N 181.806 0.884767 1.30421 0
M  V30 1855 C 182.736 0.367574 2.30589 0
M  V30 1856 C 183.717 -0.549464 1.60981 0
M  V30 1857 O 184.902 -0.46336 1.88591 0
M  V30 1858 C 182.032 -0.418944 3.44764 0
M  V30 1859 C 180.986 0.406316 4.26067 0
M  V30 1860 C 180.312 -0.506793 5.32293 0
M  V30 1861 C 181.612 1.64832 4.95608 0
M  V30 1862 H 183.306 1.20462 2.74097 0
M  V30 1863 H 180.852 0.580695 1.31772 0
M  V30 1864 H 182.805 -0.791395 4.13902 0
M  V30 1865 H 181.529 -1.28964 3.0006 0
M  V30 1866 H 180.188 0.760903 3.58617 0
M  V30 1867 H 179.836 -1.37519 4.83836 0
M  V30 1868 H 179.536 0.0415828 5.87585 0
M  V30 1869 H 181.06 -0.875764 6.04287 0
M  V30 1870 H 182.474 1.34646 5.57264 0
M  V30 1871 H 180.871 2.13688 5.60765 0
M  V30 1872 H 181.941 2.39284 4.21748 0
M  V30 1873 N 183.284 -1.43765 0.645699 0
M  V30 1874 C 184.695 -1.85193 0.236719 0
M  V30 1875 C 185.046 -1.54045 -1.21509 0
M  V30 1876 O 184.171 -0.985694 -1.92647 0
M  V30 1877 C 184.766 -3.36151 0.422845 0
M  V30 1878 C 183.325 -3.76338 0.0682492 0
M  V30 1879 C 182.472 -2.67538 0.729306 0
M  V30 1880 H 185.423 -1.34025 0.849883 0
M  V30 1881 H 185.444 -3.79032 -0.333904 0
M  V30 1882 H 184.956 -3.5879 1.47958 0
M  V30 1883 H 183.057 -3.59312 -0.986179 0
M  V30 1884 H 183.17 -4.76603 0.488469 0
M  V30 1885 H 181.534 -2.54176 0.163235 0
M  V30 1886 H 182.317 -2.93006 1.78892 0
M  V30 1887 N 184.763 -0.387143 -1.52771 0
M  V30 1888 C 186.174 0.0873634 -1.86495 0
M  V30 1889 C 186.525 1.46336 -1.30691 0
M  V30 1890 O 185.65 2.068 -0.637409 0
M  V30 1891 C 186.245 0.165305 -3.38396 0
M  V30 1892 C 184.804 0.584101 -3.7184 0
M  V30 1893 C 183.951 -0.255279 -2.76122 0
M  V30 1894 H 186.902 -0.605104 -1.46711 0
M  V30 1895 H 186.923 0.984848 -3.67534 0
M  V30 1896 H 186.435 -0.836301 -3.78982 0
M  V30 1897 H 184.536 1.59315 -3.36823 0
M  V30 1898 H 184.649 0.343749 -4.77865 0
M  V30 1899 H 183.013 0.279126 -2.53166 0
M  V30 1900 H 183.796 -1.25482 -3.19545 0
M  V30 1901 N 186.241 1.57166 -0.116904 0
M  V30 1902 C 187.204 2.14039 0.819742 0
M  V30 1903 C 188.204 1.07477 1.19605 0
M  V30 1904 O 189.394 1.33263 1.1219 0
M  V30 1905 C 186.526 2.67891 2.10826 0
M  V30 1906 H 187.719 2.98128 0.325511 0
M  V30 1907 H 185.272 1.55739 0.132312 0
M  V30 1908 H 186.007 1.87384 2.64685 0
M  V30 1909 H 185.792 3.45823 1.84793 0
M  V30 1910 H 187.282 3.11809 2.77785 0
M  V30 1911 N 187.719 -0.156864 1.56817 0
M  V30 1912 C 188.965 -0.872416 1.83076 0
M  V30 1913 C 189.298 -1.81261 0.697001 0
M  V30 1914 O 188.573 -1.92171 -0.30008 0
M  V30 1915 C 188.856 -1.65551 3.19789 0
M  V30 1916 C 188.709 -0.737467 4.43713 0
M  V30 1917 C 190.028 -2.62012 3.53606 0
M  V30 1918 H 187.147 -0.315715 0.665953 0
M  V30 1919 H 189.789 -0.138004 1.89498 0
M  V30 1920 H 187.939 -2.28159 3.14445 0
M  V30 1921 H 189.611 -0.123143 4.61136 0
M  V30 1922 H 187.854 -0.0464067 4.33775 0
M  V30 1923 H 188.525 -1.32122 5.35955 0
M  V30 1924 H 191.001 -2.09525 3.59497 0
M  V30 1925 H 189.877 -3.13861 4.50314 0
M  V30 1926 H 190.138 -3.42902 2.79053 0
M  V30 1927 N 189.197 -1.51736 -0.425897 0
M  V30 1928 C 190.107 -1.76738 -1.54275 0
M  V30 1929 C 191.123 -0.65211 -1.61318 0
M  V30 1930 O 192.299 -0.935654 -1.78346 0
M  V30 1931 C 189.364 -1.89755 -2.90162 0
M  V30 1932 C 188.425 -3.13633 -2.93143 0
M  V30 1933 C 187.658 -3.2602 -4.22548 0
M  V30 1934 O 187.881 -2.44067 -5.15546 0
M  V30 1935 O 186.815 -4.19071 -4.32046 0
M  V30 1936 H 190.641 -2.71502 -1.36089 0
M  V30 1937 H 188.226 -1.36376 -0.610069 0
M  V30 1938 H 190.108 -2.00236 -3.70788 0
M  V30 1939 H 188.783 -0.981785 -3.08452 0
M  V30 1940 H 187.69 -3.08622 -2.11431 0
M  V30 1941 H 189.023 -4.04936 -2.798 0
M  V30 1942 N 190.675 0.682077 -1.42076 0
M  V30 1943 C 191.622 1.79578 -1.44984 0
M  V30 1944 C 192.592 1.6332 -0.302614 0
M  V30 1945 O 193.777 1.83978 -0.505633 0
M  V30 1946 C 190.917 3.1756 -1.35091 0
M  V30 1947 C 190.03 3.45156 -2.59791 0
M  V30 1948 C 189.165 4.72826 -2.42093 0
M  V30 1949 C 188.204 4.93433 -3.62202 0
M  V30 1950 N 187.341 6.12338 -3.43491 0
M  V30 1951 H 192.181 1.76427 -2.40161 0
M  V30 1952 H 189.718 0.861376 -1.19242 0
M  V30 1953 H 191.676 3.97287 -1.27354 0
M  V30 1954 H 190.306 3.19854 -0.435133 0
M  V30 1955 H 189.358 2.59736 -2.77923 0
M  V30 1956 H 190.67 3.5628 -3.49094 0
M  V30 1957 H 189.824 5.60631 -2.319 0
M  V30 1958 H 188.563 4.63973 -1.50268 0
M  V30 1959 H 187.568 4.04073 -3.72834 0
M  V30 1960 H 188.793 5.04136 -4.54998 0
M  V30 1961 H 186.739 6.04672 -2.54377 0
M  V30 1962 H 186.656 6.2429 -4.26377 0
M  V30 1963 H 187.924 7.02841 -3.37097 0
M  V30 1964 N 192.153 1.28127 0.917671 0
M  V30 1965 C 193.43 1.05761 1.64542 0
M  V30 1966 C 193.81 -0.404344 2.07191 0
M  V30 1967 O 193.158 -1.38963 1.81388 0
M  V30 1968 C 193.368 2.02857 2.83989 0
M  V30 1969 C 194.716 2.32786 3.551 0
M  V30 1970 O 195.74 2.0091 2.94132 0
M  V30 1971 O 194.599 2.87169 4.64969 0
M  V30 1972 H 191.693 0.403916 0.721652 0
M  V30 1973 H 194.239 1.39431 0.967322 0
M  V30 1974 H 193.011 3.01407 2.49538 0
M  V30 1975 H 192.634 1.69809 3.59514 0
M  V30 1976 N 193.631 -1.12557 1.10312 0
M  V30 1977 C 194.856 -1.88405 0.867085 0
M  V30 1978 C 195.281 -1.79038 -0.576817 0
M  V30 1979 O 194.639 -1.14439 -1.40618 0
M  V30 1980 C 194.687 -3.3563 1.31851 0
M  V30 1981 O 193.791 -4.09565 0.482734 0
M  V30 1982 H 193.132 -0.585455 0.313271 0
M  V30 1983 H 195.662 -1.42352 1.4696 0
M  V30 1984 H 195.672 -3.86469 1.3079 0
M  V30 1985 H 194.347 -3.41765 2.37001 0
M  V30 1986 H 192.924 -3.68695 0.558448 0
M  V30 1987 N 195.109 -0.891671 -1.2995 0
M  V30 1988 C 196.072 -0.36828 -2.26222 0
M  V30 1989 C 197.072 0.493014 -1.53056 0
M  V30 1990 O 198.262 0.299213 -1.71611 0
M  V30 1991 C 195.394 0.47442 -3.37583 0
M  V30 1992 H 196.587 -1.21844 -2.74033 0
M  V30 1993 H 194.14 -0.669107 -1.41254 0
M  V30 1994 H 194.875 1.34489 -2.95099 0
M  V30 1995 H 194.66 -0.142615 -3.91841 0
M  V30 1996 H 196.15 0.83218 -4.09224 0
M  V30 1997 N 196.587 1.43421 -0.653314 0
M  V30 1998 C 197.519 2.29071 0.0769134 0
M  V30 1999 C 198.532 1.42513 0.787017 0
M  V30 2000 O 199.721 1.66449 0.644757 0
M  V30 2001 C 196.821 3.19436 1.13199 0
M  V30 2002 C 195.994 4.34533 0.500006 0
M  V30 2003 C 195.053 5.05771 1.45198 0
M  V30 2004 O 194.079 5.61037 0.960538 0
M  V30 2005 N 195.281 5.0928 2.78594 0
M  V30 2006 H 198.046 2.92382 -0.658235 0
M  V30 2007 H 195.607 1.54112 -0.496104 0
M  V30 2008 H 197.599 3.63958 1.76964 0
M  V30 2009 H 196.169 2.57724 1.7691 0
M  V30 2010 H 195.389 3.92925 -0.316738 0
M  V30 2011 H 196.677 5.08766 0.0588345 0
M  V30 2012 H 196.075 4.65751 3.2108 0
M  V30 2013 H 194.632 5.57519 3.37662 0
M  V30 2014 N 198.065 0.39524 1.52563 0
M  V30 2015 C 199.476 -0.0774719 1.86539 0
M  V30 2016 C 199.827 -1.45641 1.31466 0
M  V30 2017 O 198.952 -2.06459 0.648367 0
M  V30 2018 C 199.547 -0.147356 3.38479 0
M  V30 2019 C 198.106 -0.564373 3.72145 0
M  V30 2020 C 197.253 0.269919 2.75983 0
M  V30 2021 H 200.204 0.612876 1.46388 0
M  V30 2022 H 200.225 -0.965343 3.68051 0
M  V30 2023 H 199.737 0.856387 3.78534 0
M  V30 2024 H 197.838 -1.57527 3.37663 0
M  V30 2025 H 197.951 -0.318402 4.78041 0
M  V30 2026 H 196.315 -0.265696 2.5331 0
M  V30 2027 H 197.098 1.27175 3.18875 0
M  V30 2028 N 199.544 -1.57102 0.125237 0
M  V30 2029 C 200.792 -1.95021 -0.530198 0
M  V30 2030 C 201.113 -1.00982 -1.66816 0
M  V30 2031 O 200.383 -0.0672693 -1.95784 0
M  V30 2032 H 198.963 -0.720046 -0.198853 0
M  V30 2033 H 201.625 -1.93916 0.19564 0
M  V30 2034 H 200.721 -2.98211 -0.920681 0
M  V30 2035 N 201.022 0.148545 -1.56898 0
M  V30 2036 C 202.433 0.708766 -1.72723 0
M  V30 2037 C 202.784 1.81734 -0.739395 0
M  V30 2038 O 201.909 2.16194 0.0943169 0
M  V30 2039 C 202.504 1.29245 -3.13179 0
M  V30 2040 C 201.063 1.79925 -3.30611 0
M  V30 2041 C 200.21 0.687111 -2.68652 0
M  V30 2042 H 203.161 -0.0771063 -1.58513 0
M  V30 2043 H 203.182 2.16224 -3.13093 0
M  V30 2044 H 202.694 0.485382 -3.85053 0
M  V30 2045 H 200.795 2.63203 -2.63732 0
M  V30 2046 H 200.908 1.92903 -4.38549 0
M  V30 2047 H 199.272 1.11335 -2.29078 0
M  V30 2048 H 200.055 -0.108483 -3.43129 0
M  V30 2049 N 202.5 1.5196 0.417844 0
M  V30 2050 C 203.746 1.66793 1.16411 0
M  V30 2051 C 204.101 0.388758 1.88432 0
M  V30 2052 O 203.394 -0.616409 1.81414 0
M  V30 2053 C 203.588 2.82269 2.19223 0
M  V30 2054 C 203.417 4.21293 1.57297 0
M  V30 2055 C 202.187 4.86948 1.34944 0
M  V30 2056 C 204.385 5.03704 1.03858 0
M  V30 2057 N 202.367 6.1003 0.688195 0
M  V30 2058 C 203.738 6.1795 0.503742 0
M  V30 2059 C 205.793 4.89095 0.932203 0
M  V30 2060 C 204.496 7.19188 -0.127034 0
M  V30 2061 C 206.522 5.90559 0.315293 0
M  V30 2062 C 205.884 7.0409 -0.208906 0
M  V30 2063 H 201.983 0.66407 0.412959 0
M  V30 2064 H 204.567 1.89242 0.457772 0
M  V30 2065 H 202.738 2.61451 2.87225 0
M  V30 2066 H 204.47 2.86183 2.86149 0
M  V30 2067 H 201.225 4.45156 1.61657 0
M  V30 2068 H 201.649 6.75964 0.374449 0
M  V30 2069 H 206.291 4.01557 1.32332 0
M  V30 2070 H 204.009 8.06359 -0.530231 0
M  V30 2071 H 207.595 5.81327 0.234625 0
M  V30 2072 H 206.475 7.81257 -0.67875 0
M  V30 2073 N 203.978 -0.674533 1.42435 0
M  V30 2074 C 204.908 -1.80009 1.48724 0
M  V30 2075 C 205.889 -1.6659 0.343793 0
M  V30 2076 O 207.074 -1.86007 0.558137 0
M  V30 2077 C 204.204 -3.18306 1.38919 0
M  V30 2078 C 203.158 -3.46461 2.51294 0
M  V30 2079 C 202.484 -4.84335 2.26547 0
M  V30 2080 C 203.784 -3.43328 3.93603 0
M  V30 2081 H 205.478 -1.75004 2.42928 0
M  V30 2082 H 203.024 -0.840533 1.16923 0
M  V30 2083 H 204.977 -3.9678 1.41927 0
M  V30 2084 H 203.701 -3.2399 0.412094 0
M  V30 2085 H 202.36 -2.70348 2.47604 0
M  V30 2086 H 202.008 -4.86669 1.2713 0
M  V30 2087 H 201.708 -5.04136 3.01861 0
M  V30 2088 H 203.232 -5.65094 2.31304 0
M  V30 2089 H 204.646 -4.11772 3.98894 0
M  V30 2090 H 203.043 -3.74664 4.68771 0
M  V30 2091 H 204.113 -2.41897 4.20255 0
M  V30 2092 N 205.456 -1.28612 -0.910864 0
M  V30 2093 C 206.702 -1.16106 -1.66274 0
M  V30 2094 C 207.035 0.289113 -1.92036 0
M  V30 2095 O 206.31 1.21 -1.52281 0
M  V30 2096 C 206.593 -1.96309 -3.01885 0
M  V30 2097 C 206.446 -3.49405 -2.8326 0
M  V30 2098 C 207.765 -1.78076 -4.02463 0
M  V30 2099 H 204.884 -0.423152 -0.603417 0
M  V30 2100 H 207.526 -1.57961 -1.05586 0
M  V30 2101 H 205.676 -1.60742 -3.53687 0
M  V30 2102 H 207.348 -3.94894 -2.38446 0
M  V30 2103 H 205.591 -3.74893 -2.18261 0
M  V30 2104 H 206.262 -4.00784 -3.79574 0
M  V30 2105 H 208.738 -2.0912 -3.59733 0
M  V30 2106 H 207.614 -2.36561 -4.95308 0
M  V30 2107 H 207.875 -0.733008 -4.35981 0
M  V30 2108 N 206.934 1.1197 -1.10907 0
M  V30 2109 C 207.897 2.16031 -0.765707 0
M  V30 2110 C 208.897 1.59393 0.212235 0
M  V30 2111 O 210.087 1.74196 -0.0115441 0
M  V30 2112 C 207.219 3.40632 -0.135053 0
M  V30 2113 H 208.412 2.47919 -1.68748 0
M  V30 2114 H 205.965 1.27061 -0.910226 0
M  V30 2115 H 206.7 3.14348 0.797218 0
M  V30 2116 H 206.485 3.8302 -0.838937 0
M  V30 2117 H 207.975 4.17505 0.0892469 0
M  V30 2118 N 208.412 0.89855 1.29475 0
M  V30 2119 C 209.66 0.522847 1.9522 0
M  V30 2120 C 209.981 -0.93371 1.71192 0
M  V30 2121 O 209.251 -1.65823 1.04305 0
M  V30 2122 H 207.831 0.190366 0.722336 0
M  V30 2123 H 210.493 1.14459 1.5775 0
M  V30 2124 H 209.589 0.704476 3.04045 0
M  V30 2125 N 209.89 -1.43072 0.660911 0
M  V30 2126 C 211.138 -2.01323 0.177094 0
M  V30 2127 C 211.459 -1.5245 -1.2159 0
M  V30 2128 O 210.729 -0.740322 -1.81373 0
M  V30 2129 H 209.309 -0.744382 0.0624804 0
M  V30 2130 H 211.971 -1.75179 0.854305 0
M  V30 2131 H 211.067 -3.11649 0.167641 0
M  V30 2132 N 211.368 -0.403325 -1.52352 0
M  V30 2133 C 212.596 0.174012 -2.06167 0
M  V30 2134 C 213.011 1.39347 -1.27388 0
M  V30 2135 O 212.368 1.79597 -0.324201 0
M  V30 2136 C 212.419 0.530223 -3.5759 0
M  V30 2137 O 212.14 -0.640806 -4.33388 0
M  V30 2138 C 213.641 1.16192 -4.27802 0
M  V30 2139 H 210.861 0.0229464 -0.670608 0
M  V30 2140 H 213.405 -0.572604 -1.9632 0
M  V30 2141 H 211.56 1.22673 -3.67464 0
M  V30 2142 H 211.974 -0.344851 -5.23365 0
M  V30 2143 H 213.448 1.36141 -5.34948 0
M  V30 2144 H 213.925 2.13335 -3.83907 0
M  V30 2145 H 214.531 0.505775 -4.22282 0
M  V30 2146 N 212.846 1.57033 -0.133567 0
M  V30 2147 C 214.095 1.94861 0.520768 0
M  V30 2148 C 214.408 1.02012 1.66892 0
M  V30 2149 O 215.614 1.29365 2.38699 0
M  V30 2150 C 214.07 3.46362 0.977809 0
M  V30 2151 C 213.678 4.47773 -0.142674 0
M  V30 2152 C 215.422 3.93083 1.60269 0
M  V30 2153 C 213.329 5.90468 0.331883 0
M  V30 2154 H 212.259 0.727453 0.198315 0
M  V30 2155 H 214.91 1.82227 -0.215759 0
M  V30 2156 H 213.292 3.54282 1.7692 0
M  V30 2157 H 214.466 4.51536 -0.919317 0
M  V30 2158 H 212.781 4.10891 -0.675124 0
M  V30 2159 H 215.378 4.97121 1.96914 0
M  V30 2160 H 215.721 3.33876 2.48662 0
M  V30 2161 H 216.254 3.88025 0.876453 0
M  V30 2162 H 212.993 6.53463 -0.516341 0
M  V30 2163 H 212.513 5.90094 1.07469 0
M  V30 2164 H 214.192 6.42179 0.788332 0
M  V30 2165 N 214.325 -0.140222 1.56975 0
M  V30 2166 C 215.235 -1.19223 2.02047 0
M  V30 2167 C 216.251 -1.46612 0.937062 0
M  V30 2168 O 217.427 -1.58148 1.24704 0
M  V30 2169 C 214.492 -2.50414 2.39778 0
M  V30 2170 C 213.553 -2.30612 3.621 0
M  V30 2171 C 212.786 -3.55547 3.98023 0
M  V30 2172 O 213.009 -4.62004 3.34528 0
M  V30 2173 O 211.943 -3.47808 4.91237 0
M  V30 2174 H 215.769 -0.839559 2.91865 0
M  V30 2175 H 213.354 -0.349453 1.45256 0
M  V30 2176 H 215.236 -3.27747 2.64877 0
M  V30 2177 H 213.911 -2.85198 1.53114 0
M  V30 2178 H 212.818 -1.51207 3.4218 0
M  V30 2179 H 214.151 -2.00741 4.49404 0
M  V30 2180 N 215.803 -1.52179 -0.40978 0
M  V30 2181 C 217.08 -1.56769 -1.16974 0
M  V30 2182 C 217.46 -0.348322 -2.08206 0
M  V30 2183 O 216.808 0.664862 -2.18613 0
M  V30 2184 C 217.018 -2.89603 -1.9476 0
M  V30 2185 C 218.366 -3.42579 -2.50849 0
M  V30 2186 O 219.39 -2.91338 -2.04941 0
M  V30 2187 O 218.249 -4.32054 -3.34652 0
M  V30 2188 H 215.343 -0.631439 -0.534054 0
M  V30 2189 H 217.889 -1.64507 -0.416613 0
M  V30 2190 H 216.661 -3.698 -1.27921 0
M  V30 2191 H 216.284 -2.85155 -2.77079 0
M  V30 2192 N 217.281 0.66697 -1.42791 0
M  V30 2193 C 218.509 1.45505 -1.47091 0
M  V30 2194 C 218.924 1.8861 -0.0845873 0
M  V30 2195 O 218.281 1.58632 0.90234 0
M  V30 2196 C 218.332 2.69906 -2.40485 0
M  V30 2197 O 218.053 2.28608 -3.73725 0
M  V30 2198 C 219.554 3.63396 -2.53886 0
M  V30 2199 H 216.774 0.447459 -0.500022 0
M  V30 2200 H 219.318 0.818866 -1.8739 0
M  V30 2201 H 217.473 3.29696 -2.03419 0
M  V30 2202 H 217.887 3.08997 -4.23817 0
M  V30 2203 H 219.361 4.47387 -3.2334 0
M  V30 2204 H 219.838 4.09824 -1.57927 0
M  V30 2205 H 220.444 3.09495 -2.91706 0
M  V30 2206 N 218.759 1.29093 0.90403 0
M  V30 2207 C 220.17 1.15186 1.46932 0
M  V30 2208 C 220.521 -0.254587 1.94541 0
M  V30 2209 O 219.646 -1.14972 1.83332 0
M  V30 2210 C 220.241 2.08492 2.67051 0
M  V30 2211 C 218.8 1.98621 3.19729 0
M  V30 2212 C 217.947 1.9967 1.92425 0
M  V30 2213 H 220.898 1.41641 0.715789 0
M  V30 2214 H 220.919 1.65461 3.42641 0
M  V30 2215 H 220.431 3.10847 2.3237 0
M  V30 2216 H 218.532 0.993389 3.59114 0
M  V30 2217 H 218.645 2.86068 3.8432 0
M  V30 2218 H 217.009 1.44208 2.09943 0
M  V30 2219 H 217.792 3.03721 1.60026 0
M  V30 2220 N 220.237 -1.11381 1.11499 0
M  V30 2221 C 221.653 -1.35143 0.849031 0
M  V30 2222 C 221.853 -1.94515 -0.525938 0
M  V30 2223 O 220.909 -2.1785 -1.27662 0
M  V30 2224 C 222.222 -2.28249 1.95762 0
M  V30 2225 C 223.77 -2.41812 1.98736 0
M  V30 2226 C 224.245 -3.3824 3.088 0
M  V30 2227 N 225.736 -3.45803 3.08179 0
M  V30 2228 C 226.471 -4.20358 3.89982 0
M  V30 2229 N 225.967 -4.97884 4.8175 0
M  V30 2230 N 227.76 -4.15877 3.78157 0
M  V30 2231 H 219.911 -0.712062 2.00109 0
M  V30 2232 H 222.174 -0.376025 0.870235 0
M  V30 2233 H 221.88 -1.91817 2.94787 0
M  V30 2234 H 221.754 -3.28473 1.85433 0
M  V30 2235 H 224.141 -2.77518 1.00338 0
M  V30 2236 H 224.222 -1.41437 2.13141 0
M  V30 2237 H 223.866 -3.03261 4.07425 0
M  V30 2238 H 223.796 -4.38471 2.91635 0
M  V30 2239 H 226.287 -2.90506 2.41691 0
M  V30 2240 H 226.6 -5.52142 5.40702 0
M  V30 2241 H 224.945 -4.97043 4.85771 0
M  V30 2242 H 228.136 -3.544 3.05808 0
M  V30 2243 H 228.309 -4.73723 4.42143 0
M  V30 2244 N 221.715 -0.905404 -1.28997 0
M  V30 2245 C 222.945 -0.549049 -1.99171 0
M  V30 2246 C 223.353 0.87203 -1.67906 0
M  V30 2247 O 222.696 1.58796 -0.923561 0
M  V30 2248 C 222.758 -0.668306 -3.53234 0
M  V30 2249 C 222.422 -2.0574 -4.08069 0
M  V30 2250 C 223.419 -3.0292 -4.22534 0
M  V30 2251 C 221.104 -2.36833 -4.42962 0
M  V30 2252 C 223.098 -4.29314 -4.71135 0
M  V30 2253 C 220.785 -3.63467 -4.91258 0
M  V30 2254 C 221.783 -4.59522 -5.053 0
M  V30 2255 O 221.471 -5.83907 -5.52546 0
M  V30 2256 H 221.203 -0.208784 -0.64295 0
M  V30 2257 H 223.757 -1.21836 -1.65363 0
M  V30 2258 H 221.987 0.0580547 -3.86656 0
M  V30 2259 H 223.676 -0.320273 -4.04634 0
M  V30 2260 H 224.442 -2.80216 -3.95859 0
M  V30 2261 H 220.321 -1.62824 -4.31288 0
M  V30 2262 H 223.865 -5.04293 -4.8201 0
M  V30 2263 H 219.762 -3.86 -5.17372 0
M  V30 2264 H 220.53 -5.86578 -5.70849 0
M  V30 2265 N 223.193 1.4272 -0.668489 0
M  V30 2266 C 224.156 2.292 0.00448567 0
M  V30 2267 C 225.156 1.43001 0.735339 0
M  V30 2268 O 226.346 1.64461 0.57429 0
M  V30 2269 C 223.478 3.25375 1.01705 0
M  V30 2270 H 224.671 2.90199 -0.756608 0
M  V30 2271 H 222.224 1.50254 -0.430506 0
M  V30 2272 H 222.959 2.69301 1.80686 0
M  V30 2273 H 222.744 3.88944 0.496463 0
M  V30 2274 H 224.234 3.90245 1.48655 0
M  V30 2275 N 224.671 0.411399 1.52136 0
M  V30 2276 C 225.917 -0.156262 2.02799 0
M  V30 2277 C 226.272 -1.42613 1.29149 0
M  V30 2278 O 225.565 -1.87592 0.389839 0
M  V30 2279 C 225.759 -0.455872 3.54481 0
M  V30 2280 C 225.588 0.783404 4.42824 0
M  V30 2281 C 224.358 1.30928 4.88043 0
M  V30 2282 C 226.556 1.66217 4.86699 0
M  V30 2283 N 224.538 2.5038 5.6052 0
M  V30 2284 C 225.909 2.70292 5.5798 0
M  V30 2285 C 227.964 1.67966 4.68713 0
M  V30 2286 C 226.667 3.7603 6.13184 0
M  V30 2287 C 228.693 2.72624 5.24815 0
M  V30 2288 C 228.055 3.7542 5.9602 0
M  V30 2289 H 224.154 -0.0186886 0.781777 0
M  V30 2290 H 226.738 0.566255 1.86284 0
M  V30 2291 H 224.909 -1.14743 3.71064 0
M  V30 2292 H 226.641 -1.01261 3.91827 0
M  V30 2293 H 223.396 0.866977 4.65597 0
M  V30 2294 H 223.82 3.10881 6.014 0
M  V30 2295 H 228.462 0.898312 4.13147 0
M  V30 2296 H 226.18 4.55019 6.6782 0
M  V30 2297 H 229.766 2.74887 5.12765 0
M  V30 2298 H 228.646 4.55073 6.38654 0
M  V30 2299 N 226.149 -1.5696 0.141893 0
M  V30 2300 C 227.565 -1.58151 -0.21456 0
M  V30 2301 C 227.765 -1.1559 -1.65049 0
M  V30 2302 O 226.821 -0.853832 -2.37626 0
M  V30 2303 C 228.134 -3.00674 0.0395576 0
M  V30 2304 C 229.682 -3.1299 -0.0245529 0
M  V30 2305 C 230.157 -4.57554 0.202167 0
M  V30 2306 N 231.648 -4.62961 0.148919 0
M  V30 2307 C 232.383 -5.7262 0.298924 0
M  V30 2308 N 231.879 -6.90947 0.50637 0
M  V30 2309 N 233.672 -5.61601 0.236886 0
M  V30 2310 H 225.823 -1.8292 1.07953 0
M  V30 2311 H 228.086 -0.846425 0.42693 0
M  V30 2312 H 227.792 -3.36183 1.03315 0
M  V30 2313 H 227.666 -3.70981 -0.682143 0
M  V30 2314 H 230.053 -2.77326 -1.00869 0
M  V30 2315 H 230.134 -2.4518 0.729396 0
M  V30 2316 H 229.778 -4.93922 1.18338 0
M  V30 2317 H 229.708 -5.23484 -0.572044 0
M  V30 2318 H 232.199 -3.77899 -0.00697015 0
M  V30 2319 H 232.512 -7.7038 0.611076 0
M  V30 2320 H 230.857 -6.92878 0.542628 0
M  V30 2321 H 234.048 -4.68039 0.0756209 0
M  V30 2322 H 234.221 -6.47015 0.357227 0
M  V30 2323 N 227.627 0.131896 -1.57047 0
M  V30 2324 C 228.852 0.860418 -1.8871 0
M  V30 2325 C 229.277 1.73251 -0.73251 0
M  V30 2326 O 228.635 1.785 0.317429 0
M  V30 2327 C 228.683 1.68047 -3.19049 0
M  V30 2328 O 227.787 2.7862 -3.04047 0
M  V30 2329 H 227.128 0.238743 -0.619595 0
M  V30 2330 H 229.658 0.118169 -2.04258 0
M  V30 2331 H 229.668 2.07238 -3.51449 0
M  V30 2332 H 228.343 1.04018 -4.02682 0
M  V30 2333 H 226.92 2.42726 -2.83088 0
M  V30 2334 N 229.106 1.52395 0.401703 0
M  V30 2335 C 230.069 1.75636 1.47257 0
M  V30 2336 C 231.069 0.62628 1.48103 0
M  V30 2337 O 232.259 0.894227 1.49497 0
M  V30 2338 C 229.391 1.84553 2.86624 0
M  V30 2339 H 230.584 2.71241 1.27938 0
M  V30 2340 H 228.137 1.42923 0.632662 0
M  V30 2341 H 228.872 0.908882 3.11303 0
M  V30 2342 H 228.657 2.66715 2.87412 0
M  V30 2343 H 230.147 2.04251 3.64241 0
M  V30 2344 N 230.584 -0.659388 1.43143 0
M  V30 2345 C 231.517 -1.78425 1.42267 0
M  V30 2346 C 232.495 -1.60085 0.284894 0
M  V30 2347 O 233.679 -1.82351 0.477527 0
M  V30 2348 C 230.806 -3.15642 1.22833 0
M  V30 2349 C 229.852 -3.52698 2.39806 0
M  V30 2350 S 230.685 -3.53372 4.02353 0
M  V30 2351 C 231.841 -4.93256 3.85291 0
M  V30 2352 H 232.074 -1.78897 2.37452 0
M  V30 2353 H 229.607 -0.831469 1.301 0
M  V30 2354 H 231.565 -3.94838 1.12308 0
M  V30 2355 H 230.226 -3.12739 0.29207 0
M  V30 2356 H 229.419 -4.52475 2.21996 0
M  V30 2357 H 229.021 -2.80899 2.46925 0
M  V30 2358 H 231.313 -5.81751 3.47235 0
M  V30 2359 H 232.256 -5.16115 4.84799 0
M  V30 2360 H 232.664 -4.665 3.17865 0
M  V30 2361 N 232.062 -1.29571 -0.897171 0
M  V30 2362 C 232.992 -1.17473 -2.01798 0
M  V30 2363 C 233.973 -0.068323 -1.69963 0
M  V30 2364 O 235.158 -0.248239 -1.92607 0
M  V30 2365 C 232.288 -0.853099 -3.36659 0
M  V30 2366 C 231.242 -1.9161 -3.82713 0
M  V30 2367 C 230.568 -1.44773 -5.14728 0
M  V30 2368 C 231.868 -3.32535 -4.02763 0
M  V30 2369 H 233.562 -2.11237 -2.12177 0
M  V30 2370 H 231.108 -1.01699 -1.01948 0
M  V30 2371 H 233.061 -0.755165 -4.14578 0
M  V30 2372 H 231.785 0.120236 -3.26379 0
M  V30 2373 H 230.444 -2.00346 -3.07013 0
M  V30 2374 H 230.092 -0.462995 -5.00865 0
M  V30 2375 H 229.792 -2.15865 -5.46513 0
M  V30 2376 H 231.316 -1.36334 -5.95185 0
M  V30 2377 H 232.73 -3.26626 -4.71156 0
M  V30 2378 H 231.127 -4.01607 -4.45905 0
M  V30 2379 H 232.197 -3.75326 -3.07016 0
M  V30 2380 N 233.54 1.10788 -1.12088 0
M  V30 2381 C 234.817 1.79136 -0.785476 0
M  V30 2382 C 235.197 1.98246 0.725377 0
M  V30 2383 O 234.545 1.57258 1.65778 0
M  V30 2384 C 234.755 3.12375 -1.55636 0
M  V30 2385 C 236.103 3.8731 -1.74001 0
M  V30 2386 O 237.127 3.22085 -1.52117 0
M  V30 2387 O 235.986 5.04369 -2.10415 0
M  V30 2388 H 233.08 0.776226 -0.285311 0
M  V30 2389 H 235.626 1.1747 -1.2247 0
M  V30 2390 H 234.398 2.93863 -2.5838 0
M  V30 2391 H 234.021 3.81758 -1.11114 0
M  V30 2392 N 235.018 0.912232 1.28515 0
M  V30 2393 C 236.264 0.545405 1.95328 0
M  V30 2394 C 236.597 -0.908313 1.71649 0
M  V30 2395 O 235.872 -1.64575 1.03659 0
M  V30 2396 C 236.155 0.853483 3.4984 0
M  V30 2397 C 236.008 2.35982 3.82926 0
M  V30 2398 C 237.327 0.348589 4.38717 0
M  V30 2399 H 234.446 0.199626 0.709449 0
M  V30 2400 H 237.088 1.1412 1.5191 0
M  V30 2401 H 235.238 0.34643 3.86952 0
M  V30 2402 H 236.91 2.93738 3.55691 0
M  V30 2403 H 235.153 2.81543 3.30024 0
M  V30 2404 H 235.824 2.52593 4.90816 0
M  V30 2405 H 238.3 0.78294 4.08668 0
M  V30 2406 H 237.176 0.593242 5.45685 0
M  V30 2407 H 237.437 -0.751049 4.35674 0
M  V30 2408 N 236.496 -1.42363 0.676048 0
M  V30 2409 C 237.721 -2.06377 0.205705 0
M  V30 2410 C 238.146 -1.50463 -1.12883 0
M  V30 2411 O 237.504 -0.623619 -1.70237 0
M  V30 2412 C 237.552 -3.60277 0.152655 0
M  V30 2413 O 236.656 -4.02935 -0.87845 0
M  V30 2414 H 235.997 -0.655588 0.105359 0
M  V30 2415 H 238.527 -1.82475 0.925412 0
M  V30 2416 H 238.537 -4.07993 -0.0230675 0
M  V30 2417 H 237.212 -4.00346 1.12675 0
M  V30 2418 H 235.789 -3.66764 -0.673668 0
M  V30 2419 N 237.974 -0.419461 -1.51915 0
M  V30 2420 C 239.39 -0.0708431 -1.59443 0
M  V30 2421 C 239.59 1.41796 -1.43164 0
M  V30 2422 O 238.646 2.18596 -1.26381 0
M  V30 2423 C 239.959 -0.574991 -2.95151 0
M  V30 2424 C 241.507 -0.533867 -3.08413 0
M  V30 2425 C 241.982 -1.01469 -4.46618 0
M  V30 2426 N 243.473 -0.971939 -4.52888 0
M  V30 2427 C 244.208 -1.31505 -5.58116 0
M  V30 2428 N 243.704 -1.73014 -6.70849 0
M  V30 2429 N 245.497 -1.23436 -5.48379 0
M  V30 2430 H 237.648 -1.38836 -1.60743 0
M  V30 2431 H 239.911 -0.570998 -0.756747 0
M  V30 2432 H 239.617 -1.61597 -3.12377 0
M  V30 2433 H 239.491 0.00979777 -3.77199 0
M  V30 2434 H 241.878 0.498086 -2.90866 0
M  V30 2435 H 241.959 -1.15484 -2.28248 0
M  V30 2436 H 241.603 -2.04502 -4.6491 0
M  V30 2437 H 241.533 -0.370433 -5.25295 0
M  V30 2438 H 244.024 -0.666893 -3.71969 0
M  V30 2439 H 244.337 -1.97479 -7.47143 0
M  V30 2440 H 242.682 -1.76926 -6.72103 0
M  V30 2441 H 245.873 -0.908869 -4.59192 0
M  V30 2442 H 246.046 -1.50506 -6.30279 0
M  V30 2443 N 239.452 1.56882 -0.150215 0
M  V30 2444 C 240.402 2.13501 0.800071 0
M  V30 2445 C 241.386 1.06368 1.20726 0
M  V30 2446 O 242.578 1.32538 1.17314 0
M  V30 2447 C 239.707 2.76271 2.03787 0
M  V30 2448 C 238.793 3.90533 1.65364 0
M  V30 2449 N 239.184 4.96259 0.977794 0
M  V30 2450 C 237.482 4.013 1.94613 0
M  V30 2451 C 238.183 5.76286 0.791794 0
M  V30 2452 N 237.159 5.27163 1.32666 0
M  V30 2453 H 240.961 2.92615 0.274517 0
M  V30 2454 H 238.475 1.62319 0.0512144 0
M  V30 2455 H 240.472 3.15197 2.72867 0
M  V30 2456 H 239.132 1.98631 2.56857 0
M  V30 2457 H 240.143 5.13953 0.638193 0
M  V30 2458 H 236.82 3.3474 2.4951 0
M  V30 2459 H 238.21 6.71401 0.258894 0
M  V30 2460 N 240.93 -0.123565 1.57115 0
M  V30 2461 C 242.177 -0.832153 1.84612 0
M  V30 2462 C 242.505 -1.80093 0.734627 0
M  V30 2463 O 241.76 -1.93766 -0.27442 0
M  V30 2464 C 242.059 -1.62016 3.18568 0
M  V30 2465 C 241.725 -0.796084 4.43817 0
M  V30 2466 C 240.387 -0.568816 4.77826 0
M  V30 2467 C 242.739 -0.221364 5.2073 0
M  V30 2468 C 240.067 0.243499 5.86194 0
M  V30 2469 C 242.419 0.578117 6.29953 0
M  V30 2470 C 241.083 0.815744 6.62497 0
M  V30 2471 H 240.353 -0.304507 0.675542 0
M  V30 2472 H 243 -0.0947248 1.91266 0
M  V30 2473 H 241.305 -2.42837 3.0747 0
M  V30 2474 H 243.002 -2.17231 3.37064 0
M  V30 2475 H 239.592 -0.983307 4.17168 0
M  V30 2476 H 243.776 -0.384173 4.94811 0
M  V30 2477 H 239.032 0.436871 6.09837 0
M  V30 2478 H 243.206 1.03046 6.88734 0
M  V30 2479 H 240.833 1.44701 7.46301 0
M  V30 2480 N 242.408 -1.52605 -0.393616 0
M  V30 2481 C 243.655 -1.67424 -1.1391 0
M  V30 2482 C 243.983 -0.411859 -1.90089 0
M  V30 2483 O 243.238 0.605626 -1.86093 0
M  V30 2484 C 243.537 -2.85721 -2.14705 0
M  V30 2485 C 243.203 -4.23342 -1.55218 0
M  V30 2486 C 241.865 -4.60771 -1.3872 0
M  V30 2487 C 244.217 -5.09041 -1.11924 0
M  V30 2488 C 241.545 -5.81563 -0.774689 0
M  V30 2489 C 243.897 -6.30452 -0.520853 0
M  V30 2490 C 242.561 -6.66617 -0.343134 0
M  V30 2491 H 241.831 -0.612648 -0.416826 0
M  V30 2492 H 244.478 -1.8674 -0.424315 0
M  V30 2493 H 242.783 -2.60803 -2.92385 0
M  V30 2494 H 244.48 -2.94382 -2.72288 0
M  V30 2495 H 241.07 -3.93855 -1.69045 0
M  V30 2496 H 245.254 -4.80695 -1.23473 0
M  V30 2497 H 240.51 -6.08196 -0.625154 0
M  V30 2498 H 244.684 -6.96175 -0.177065 0
M  V30 2499 H 242.311 -7.60083 0.133571 0
M  V30 2500 N 243.887 0.651787 -1.4349 0
M  V30 2501 C 245.135 1.40888 -1.44897 0
M  V30 2502 C 245.456 1.94856 -0.0749086 0
M  V30 2503 O 244.726 1.74518 0.889956 0
M  V30 2504 H 243.306 0.522887 -0.533478 0
M  V30 2505 H 245.968 0.768609 -1.79104 0
M  V30 2506 H 245.064 2.25052 -2.16236 0
M  V30 2507 N 245.365 1.30045 0.890287 0
M  V30 2508 C 246.611 1.18737 1.64406 0
M  V30 2509 C 246.944 -0.258525 1.92472 0
M  V30 2510 O 246.219 -1.18562 1.54186 0
M  V30 2511 C 246.502 2.01087 2.98724 0
M  V30 2512 C 246.355 3.53867 2.77665 0
M  V30 2513 C 247.674 1.84457 3.9958 0
M  V30 2514 H 244.793 0.432698 0.596608 0
M  V30 2515 H 247.435 1.5962 1.0306 0
M  V30 2516 H 245.585 1.66349 3.51084 0
M  V30 2517 H 247.257 3.98637 2.32133 0
M  V30 2518 H 245.5 3.78318 2.12269 0
M  V30 2519 H 246.171 4.06772 3.7315 0
M  V30 2520 H 248.647 2.14817 3.56361 0
M  V30 2521 H 247.523 2.44411 4.91482 0
M  V30 2522 H 247.784 0.802276 4.3476 0
M  V30 2523 N 246.843 -1.10192 1.12674 0
M  V30 2524 C 248.12 -1.78717 0.794965 0
M  V30 2525 C 248.5 -1.98628 -0.714853 0
M  V30 2526 O 247.848 -1.58135 -1.64941 0
M  V30 2527 C 248.058 -3.11546 1.5729 0
M  V30 2528 C 249.406 -3.86382 1.76052 0
M  V30 2529 O 250.43 -3.21274 1.53823 0
M  V30 2530 O 249.289 -5.03246 2.13087 0
M  V30 2531 H 246.383 -0.774702 0.289423 0
M  V30 2532 H 248.929 -1.16819 1.23091 0
M  V30 2533 H 247.701 -2.92489 2.59935 0
M  V30 2534 H 247.324 -3.81164 1.13137 0
M  V30 2535 N 248.321 -0.919034 -1.28029 0
M  V30 2536 C 249.231 -0.416756 -2.30869 0
M  V30 2537 C 250.247 0.498235 -1.66714 0
M  V30 2538 O 251.423 0.383144 -1.97722 0
M  V30 2539 C 248.488 0.330274 -3.45123 0
M  V30 2540 C 247.549 -0.618578 -4.2482 0
M  V30 2541 C 246.782 0.0928959 -5.33619 0
M  V30 2542 O 247.005 1.31375 -5.55065 0
M  V30 2543 O 245.939 -0.574499 -5.99152 0
M  V30 2544 H 249.765 -1.27043 -2.75851 0
M  V30 2545 H 247.35 -0.684052 -1.3282 0
M  V30 2546 H 249.232 0.751972 -4.14636 0
M  V30 2547 H 247.907 1.1597 -3.02213 0
M  V30 2548 H 246.814 -1.08978 -3.57875 0
M  V30 2549 H 248.147 -1.41497 -4.71423 0
M  V30 2550 N 249.799 1.42003 -0.683588 0
M  V30 2551 C 251.045 2.01712 -0.209825 0
M  V30 2552 C 251.378 1.53968 1.18353 0
M  V30 2553 O 250.653 0.745661 1.79639 0
M  V30 2554 C 250.936 3.59202 -0.254197 0
M  V30 2555 C 250.789 4.17102 -1.68363 0
M  V30 2556 C 252.108 4.38344 0.392709 0
M  V30 2557 H 249.227 0.732891 -0.0777189 0
M  V30 2558 H 251.869 1.68909 -0.87004 0
M  V30 2559 H 250.019 3.87278 0.307954 0
M  V30 2560 H 251.691 3.99946 -2.29871 0
M  V30 2561 H 249.934 3.72597 -2.22157 0
M  V30 2562 H 250.605 5.26249 -1.6663 0
M  V30 2563 H 253.081 4.16011 -0.0859162 0
M  V30 2564 H 251.957 5.47901 0.331063 0
M  V30 2565 H 252.218 4.16887 1.47164 0
M  V30 2566 N 251.277 0.427512 1.51691 0
M  V30 2567 C 252.224 -0.388867 2.275 0
M  V30 2568 C 253.194 -1.02532 1.30677 0
M  V30 2569 O 254.379 -1.0461 1.59566 0
M  V30 2570 C 251.519 -1.48954 3.11298 0
M  V30 2571 C 250.632 -0.872194 4.23104 0
M  V30 2572 C 249.767 -1.94709 4.94228 0
M  V30 2573 C 248.806 -1.30766 5.97969 0
M  V30 2574 N 247.943 -2.32349 6.62539 0
M  V30 2575 H 252.783 0.263997 2.96828 0
M  V30 2576 H 250.32 0.142033 1.46413 0
M  V30 2577 H 252.278 -2.13887 3.58201 0
M  V30 2578 H 250.908 -2.11217 2.44105 0
M  V30 2579 H 249.96 -0.111419 3.80237 0
M  V30 2580 H 251.272 -0.365264 4.97461 0
M  V30 2581 H 250.426 -2.67327 5.44629 0
M  V30 2582 H 249.165 -2.48773 4.1948 0
M  V30 2583 H 248.17 -0.566902 5.4687 0
M  V30 2584 H 249.395 -0.774483 6.74669 0
M  V30 2585 H 247.341 -2.85511 5.90609 0
M  V30 2586 H 247.258 -1.8652 7.3263 0
M  V30 2587 H 248.526 -3.04481 7.17574 0
M  V30 2588 N 252.755 -1.56801 0.158532 0
M  V30 2589 C 254.171 -1.5837 -0.197774 0
M  V30 2590 C 254.371 -1.17334 -1.63814 0
M  V30 2591 O 253.427 -0.878988 -2.36707 0
M  V30 2592 C 254.74 -3.00615 0.0714459 0
M  V30 2593 C 256.288 -3.12999 0.00864533 0
M  V30 2594 C 256.763 -4.57313 0.250685 0
M  V30 2595 N 258.254 -4.62777 0.198014 0
M  V30 2596 C 258.989 -5.72271 0.359642 0
M  V30 2597 N 258.485 -6.90371 0.579625 0
M  V30 2598 N 260.278 -5.61318 0.296438 0
M  V30 2599 H 252.429 -1.81765 1.09887 0
M  V30 2600 H 254.692 -0.841849 0.435884 0
M  V30 2601 H 254.398 -3.35068 1.06874 0
M  V30 2602 H 254.272 -3.71683 -0.642757 0
M  V30 2603 H 256.659 -2.7838 -0.979217 0
M  V30 2604 H 256.74 -2.44393 0.755359 0
M  V30 2605 H 256.384 -4.92639 1.2357 0
M  V30 2606 H 256.314 -5.24061 -0.516489 0
M  V30 2607 H 258.805 -3.77885 0.0331115 0
M  V30 2608 H 259.118 -7.69689 0.69275 0
M  V30 2609 H 257.463 -6.92264 0.616087 0
M  V30 2610 H 260.654 -4.67932 0.125258 0
M  V30 2611 H 260.827 -6.46599 0.425831 0
M  V30 2612 N 254.233 0.115231 -1.57178 0
M  V30 2613 C 255.463 0.835224 -1.88964 0
M  V30 2614 C 255.871 1.73774 -0.74829 0
M  V30 2615 O 255.214 1.81401 0.289739 0
M  V30 2616 C 255.276 1.7178 -3.15804 0
M  V30 2617 C 254.94 0.989198 -4.46166 0
M  V30 2618 C 255.937 0.328263 -5.18863 0
M  V30 2619 C 253.622 0.969256 -4.9286 0
M  V30 2620 C 255.616 -0.342873 -6.36477 0
M  V30 2621 C 253.303 0.294324 -6.10391 0
M  V30 2622 C 254.301 -0.360582 -6.82048 0
M  V30 2623 O 253.989 -1.02474 -7.97342 0
M  V30 2624 H 253.721 0.245197 -0.629964 0
M  V30 2625 H 256.275 0.10303 -2.05141 0
M  V30 2626 H 254.505 2.49173 -2.95719 0
M  V30 2627 H 256.194 2.31255 -3.33581 0
M  V30 2628 H 256.96 0.335263 -4.8384 0
M  V30 2629 H 252.839 1.46844 -4.36987 0
M  V30 2630 H 256.383 -0.854629 -6.92345 0
M  V30 2631 H 252.28 0.285099 -6.4487 0
M  V30 2632 H 253.048 -0.929594 -8.13204 0
M  V30 2633 N 255.711 1.52812 0.385517 0
M  V30 2634 C 256.96 1.67249 1.12741 0
M  V30 2635 C 257.273 0.4205 1.91027 0
M  V30 2636 O 258.479 0.445064 2.67827 0
M  V30 2637 C 256.935 2.95583 2.05326 0
M  V30 2638 C 256.543 4.27974 1.32447 0
M  V30 2639 C 258.287 3.19386 2.7963 0
M  V30 2640 C 256.194 5.47412 2.23818 0
M  V30 2641 H 255.124 0.6231 0.424573 0
M  V30 2642 H 257.775 1.79309 0.389924 0
M  V30 2643 H 256.157 2.77277 2.82725 0
M  V30 2644 H 257.331 4.56844 0.602495 0
M  V30 2645 H 255.646 4.10459 0.700885 0
M  V30 2646 H 258.243 4.05801 3.48181 0
M  V30 2647 H 258.586 2.34604 3.43899 0
M  V30 2648 H 259.119 3.38274 2.09322 0
M  V30 2649 H 255.858 6.34612 1.64157 0
M  V30 2650 H 255.378 5.22849 2.93921 0
M  V30 2651 H 257.057 5.81423 2.83824 0
M  V30 2652 N 257.189 -0.644168 1.43834 0
M  V30 2653 C 258.466 -1.40188 1.36406 0
M  V30 2654 C 258.846 -2.11094 0.0163124 0
M  V30 2655 O 258.194 -2.05426 -1.00062 0
M  V30 2656 C 258.404 -2.3791 2.55343 0
M  V30 2657 C 259.752 -3.01637 2.98832 0
M  V30 2658 O 260.776 -2.48237 2.55455 0
M  V30 2659 O 259.635 -3.98477 3.74003 0
M  V30 2660 H 256.729 -0.626773 0.539523 0
M  V30 2661 H 259.275 -0.670317 1.559 0
M  V30 2662 H 258.047 -1.84525 3.4506 0
M  V30 2663 H 257.67 -3.18503 2.37995 0
M  V30 2664 N 258.668 -1.30515 -0.883378 0
M  V30 2665 C 260.084 -1.08881 -1.16692 0
M  V30 2666 C 260.284 0.149409 -2.00945 0
M  V30 2667 O 259.34 0.84257 -2.38027 0
M  V30 2668 C 260.653 -2.35319 -1.87204 0
M  V30 2669 C 262.201 -2.40799 -1.99962 0
M  V30 2670 C 262.676 -3.67083 -2.73887 0
M  V30 2671 N 264.167 -3.679 -2.81432 0
M  V30 2672 C 264.902 -4.62303 -3.3921 0
M  V30 2673 N 264.398 -5.67052 -3.98025 0
M  V30 2674 N 266.191 -4.49845 -3.3704 0
M  V30 2675 H 258.342 -2.09951 -0.321633 0
M  V30 2676 H 260.605 -0.92556 -0.205043 0
M  V30 2677 H 260.311 -3.25689 -1.3274 0
M  V30 2678 H 260.185 -2.44089 -2.87577 0
M  V30 2679 H 262.572 -1.50907 -2.53597 0
M  V30 2680 H 262.653 -2.36003 -0.98673 0
M  V30 2681 H 262.297 -4.57334 -2.20925 0
M  V30 2682 H 262.227 -3.69141 -3.75556 0
M  V30 2683 H 264.718 -2.92171 -2.39676 0
M  V30 2684 H 265.031 -6.35184 -4.40183 0
M  V30 2685 H 263.376 -5.70842 -3.96439 0
M  V30 2686 H 266.567 -3.67194 -2.90321 0
M  V30 2687 H 266.74 -5.23597 -3.81772 0
M  V30 2688 N 260.146 1.09593 -1.13257 0
M  V30 2689 C 261.392 1.82003 -0.89458 0
M  V30 2690 C 261.725 1.85402 0.577906 0
M  V30 2691 O 261 1.32099 1.42759 0
M  V30 2692 C 261.283 3.28237 -1.48096 0
M  V30 2693 C 261.136 3.3312 -3.02244 0
M  V30 2694 C 262.455 4.24871 -1.14774 0
M  V30 2695 H 259.574 0.66077 -0.326424 0
M  V30 2696 H 262.216 1.28389 -1.40058 0
M  V30 2697 H 260.366 3.74024 -1.05062 0
M  V30 2698 H 262.038 2.95748 -3.54021 0
M  V30 2699 H 260.281 2.72756 -3.37323 0
M  V30 2700 H 260.952 4.3613 -3.38371 0
M  V30 2701 H 263.428 3.87361 -1.51957 0
M  V30 2702 H 262.304 5.25532 -1.58452 0
M  V30 2703 H 262.565 4.42058 -0.0611849 0
M  V30 2704 N 261.624 0.925811 1.2754 0
M  V30 2705 C 262.587 0.428129 2.25166 0
M  V30 2706 C 263.587 -0.452261 1.54309 0
M  V30 2707 O 264.777 -0.253608 1.72344 0
M  V30 2708 C 261.909 -0.384749 3.38722 0
M  V30 2709 H 263.102 1.29066 2.70706 0
M  V30 2710 H 260.655 0.706323 1.3943 0
M  V30 2711 H 261.39 -1.26618 2.98561 0
M  V30 2712 H 261.175 0.246454 3.91325 0
M  V30 2713 H 262.665 -0.723389 4.11287 0
M  V30 2714 N 263.102 -1.41638 0.69111 0
M  V30 2715 C 264.518 -1.55435 0.362224 0
M  V30 2716 C 264.718 -1.66754 -1.13117 0
M  V30 2717 O 263.774 -1.64348 -1.91692 0
M  V30 2718 C 265.087 -2.79588 1.10684 0
M  V30 2719 C 266.635 -2.9338 1.09075 0
M  V30 2720 C 267.11 -4.20414 1.81703 0
M  V30 2721 N 268.601 -4.27362 1.7865 0
M  V30 2722 C 269.336 -5.24507 2.31689 0
M  V30 2723 N 268.832 -6.27708 2.93179 0
M  V30 2724 N 270.625 -5.16416 2.2197 0
M  V30 2725 H 262.776 -1.32536 1.65976 0
M  V30 2726 H 265.039 -0.639115 0.700168 0
M  V30 2727 H 264.745 -2.77419 2.16175 0
M  V30 2728 H 264.619 -3.70973 0.682545 0
M  V30 2729 H 267.006 -2.95067 0.0441238 0
M  V30 2730 H 267.087 -2.0318 1.55407 0
M  V30 2731 H 266.731 -4.19488 2.86343 0
M  V30 2732 H 266.661 -5.09578 1.32808 0
M  V30 2733 H 269.152 -3.53415 1.33815 0
M  V30 2734 H 269.465 -6.98217 3.31229 0
M  V30 2735 H 267.81 -6.28223 2.97255 0
M  V30 2736 H 271.001 -4.34716 1.73607 0
M  V30 2737 H 271.174 -5.91958 2.63609 0
M  V30 2738 N 264.58 -0.43555 -1.51462 0
M  V30 2739 C 265.81 0.130053 -2.0619 0
M  V30 2740 C 266.218 1.37164 -1.30317 0
M  V30 2741 O 265.561 1.80225 -0.355598 0
M  V30 2742 C 265.623 0.519418 -3.55728 0
M  V30 2743 C 265.287 -0.615119 -4.52841 0
M  V30 2744 C 266.284 -1.48671 -4.9819 0
M  V30 2745 C 263.969 -0.795341 -4.95963 0
M  V30 2746 C 265.963 -2.52324 -5.8533 0
M  V30 2747 C 263.65 -1.83514 -5.82894 0
M  V30 2748 C 264.648 -2.69748 -6.27475 0
M  V30 2749 O 264.336 -3.71944 -7.1268 0
M  V30 2750 H 264.068 0.0121612 -0.675891 0
M  V30 2751 H 266.622 -0.6129 -1.96043 0
M  V30 2752 H 264.852 1.31505 -3.63653 0
M  V30 2753 H 266.541 1.01597 -3.92979 0
M  V30 2754 H 267.307 -1.359 -4.65571 0
M  V30 2755 H 263.186 -0.133713 -4.60806 0
M  V30 2756 H 266.73 -3.19665 -6.20048 0
M  V30 2757 H 262.627 -1.96306 -6.14926 0
M  V30 2758 H 263.395 -3.68503 -7.30854 0
M  V30 2759 N 266.058 1.56714 -0.166846 0
M  V30 2760 C 267.005 2.17746 0.765193 0
M  V30 2761 C 267.975 1.11614 1.23011 0
M  V30 2762 O 269.16 1.39745 1.29908 0
M  V30 2763 C 266.3 2.81882 1.9909 0
M  V30 2764 C 265.413 4.02462 1.56997 0
M  V30 2765 C 264.548 4.54537 2.749 0
M  V30 2766 C 263.587 5.67538 2.29275 0
M  V30 2767 N 262.724 6.14142 3.40255 0
M  V30 2768 H 267.564 2.97048 0.237952 0
M  V30 2769 H 265.101 1.4672 0.105725 0
M  V30 2770 H 267.059 3.17221 2.70974 0
M  V30 2771 H 265.689 2.05191 2.49192 0
M  V30 2772 H 264.741 3.72973 0.748037 0
M  V30 2773 H 266.053 4.84273 1.19503 0
M  V30 2774 H 265.207 4.92035 3.54946 0
M  V30 2775 H 263.946 3.71774 3.1565 0
M  V30 2776 H 262.951 5.29597 1.47674 0
M  V30 2777 H 264.176 6.52099 1.89588 0
M  V30 2778 H 262.122 5.3431 3.8059 0
M  V30 2779 H 262.039 6.9093 3.06841 0
M  V30 2780 H 263.307 6.56289 4.206 0
M  V30 2781 N 267.536 -0.106894 1.57237 0
M  V30 2782 C 268.766 -0.825191 1.89405 0
M  V30 2783 C 269.174 -1.73374 0.757496 0
M  V30 2784 O 268.517 -1.81552 -0.280115 0
M  V30 2785 C 268.579 -1.70102 3.1671 0
M  V30 2786 C 268.243 -0.965523 4.46684 0
M  V30 2787 C 269.24 -0.300741 5.19029 0
M  V30 2788 C 266.925 -0.943105 4.93367 0
M  V30 2789 C 268.919 0.376622 6.36286 0
M  V30 2790 C 266.606 -0.261949 6.10538 0
M  V30 2791 C 267.604 0.396748 6.81847 0
M  V30 2792 O 267.292 1.06701 7.96787 0
M  V30 2793 H 267.024 -0.241852 0.631255 0
M  V30 2794 H 269.578 -0.0921491 2.05193 0
M  V30 2795 H 267.808 -2.47601 2.97036 0
M  V30 2796 H 269.497 -2.29483 3.34802 0
M  V30 2797 H 270.263 -0.309599 4.84011 0
M  V30 2798 H 266.142 -1.44524 4.3776 0
M  V30 2799 H 269.686 0.891334 6.91882 0
M  V30 2800 H 265.583 -0.250896 6.45012 0
M  V30 2801 H 266.351 0.972707 8.127 0
M  V30 2802 N 269.014 -1.53014 -0.377408 0
M  V30 2803 C 269.962 -1.7927 -1.48206 0
M  V30 2804 C 270.956 -0.661195 -1.55963 0
M  V30 2805 O 272.162 -0.843908 -1.58991 0
M  V30 2806 H 268.537 -0.567425 -0.493491 0
M  V30 2807 H 270.508 -2.71753 -1.2326 0
M  V30 2808 C 269.257 -1.98894 -2.85196 0
M  V30 2809 H 268.58 -2.85395 -2.79981 0
M  V30 2810 H 270.02 -2.21249 -3.61698 0
M  V30 2811 C 268.479 -0.764691 -3.28107 0
M  V30 2812 O 269.009 0.0523226 -4.01666 0
M  V30 2813 N 267.215 -0.591493 -2.84517 0
M  V30 2814 H 266.762 -1.25749 -2.24822 0
M  V30 2815 H 266.72 0.226253 -3.13585 0
M  V30 2816 N 270.492 0.636531 -1.44174 0
M  V30 2817 C 271.439 1.74875 -1.50624 0
M  V30 2818 C 272.409 1.62275 -0.35442 0
M  V30 2819 O 273.594 1.82276 -0.563908 0
M  V30 2820 C 270.734 3.13102 -1.45125 0
M  V30 2821 C 269.847 3.36717 -2.7064 0
M  V30 2822 C 268.982 4.64885 -2.57013 0
M  V30 2823 C 268.021 4.8166 -3.77717 0
M  V30 2824 N 267.158 6.01101 -3.62798 0
M  V30 2825 H 271.998 1.68697 -2.45653 0
M  V30 2826 H 269.535 0.823004 -1.21922 0
M  V30 2827 H 271.493 3.93034 -1.39929 0
M  V30 2828 H 270.123 3.18308 -0.536671 0
M  V30 2829 H 269.175 2.50763 -2.86046 0
M  V30 2830 H 270.487 3.44993 -3.60252 0
M  V30 2831 H 269.641 5.52969 -2.49619 0
M  V30 2832 H 268.38 4.58957 -1.64953 0
M  V30 2833 H 267.385 3.92007 -3.85501 0
M  V30 2834 H 268.61 4.89406 -4.70807 0
M  V30 2835 H 266.556 5.96273 -2.73486 0
M  V30 2836 H 266.473 6.10409 -4.46023 0
M  V30 2837 H 267.741 6.91761 -3.59286 0
M  V30 2838 N 271.97 1.30982 0.876444 0
M  V30 2839 C 272.9 1.20668 1.99903 0
M  V30 2840 C 273.881 0.095354 1.69833 0
M  V30 2841 O 275.066 0.27885 1.92188 0
M  V30 2842 C 272.196 0.90655 3.3526 0
M  V30 2843 C 271.15 1.97675 3.79617 0
M  V30 2844 C 270.476 1.52943 5.1236 0
M  V30 2845 C 271.776 3.389 3.97422 0
M  V30 2846 H 273.47 2.14586 2.0879 0
M  V30 2847 H 271.016 1.03308 1.00317 0
M  V30 2848 H 272.969 0.821025 4.13324 0
M  V30 2849 H 271.693 -0.0682969 3.26529 0
M  V30 2850 H 270.352 2.05205 3.03787 0
M  V30 2851 H 270 0.54262 5.00065 0
M  V30 2852 H 269.7 2.24532 5.43009 0
M  V30 2853 H 271.224 1.45786 5.92941 0
M  V30 2854 H 272.638 3.34081 4.659 0
M  V30 2855 H 271.035 4.0865 4.3946 0
M  V30 2856 H 272.105 3.80163 3.01006 0
M  V30 2857 N 273.449 -1.08991 1.13837 0
M  V30 2858 C 274.399 -2.1393 0.788535 0
M  V30 2859 C 275.383 -1.59396 -0.219516 0
M  V30 2860 O 276.575 -1.76985 -0.0227557 0
M  V30 2861 C 273.704 -3.42305 0.261147 0
M  V30 2862 C 272.79 -4.03736 1.29837 0
M  V30 2863 N 273.181 -4.39659 2.50067 0
M  V30 2864 C 271.479 -4.30993 1.1472 0
M  V30 2865 C 272.18 -4.88113 3.16419 0
M  V30 2866 N 271.156 -4.85846 2.43832 0
M  V30 2867 H 274.958 -2.39516 1.70322 0
M  V30 2868 H 272.472 -1.26263 1.02134 0
M  V30 2869 H 274.469 -4.16899 -0.0077405 0
M  V30 2870 H 273.129 -3.18172 -0.647805 0
M  V30 2871 H 274.14 -4.30878 2.8734 0
M  V30 2872 H 270.817 -4.16444 0.296773 0
M  V30 2873 H 272.207 -5.25336 4.18894 0
M  V30 2874 N 274.927 -0.932562 -1.27047 0
M  V30 2875 C 275.857 -0.452902 -2.29066 0
M  V30 2876 C 276.838 0.489338 -1.62909 0
M  V30 2877 O 278.023 0.393046 -1.90181 0
M  V30 2878 C 275.153 0.290698 -3.46081 0
M  V30 2879 C 274.107 -0.564168 -4.24265 0
M  V30 2880 C 273.433 0.308886 -5.33807 0
M  V30 2881 C 274.733 -1.83112 -4.89149 0
M  V30 2882 H 276.427 -1.30552 -2.69437 0
M  V30 2883 H 273.973 -0.629201 -1.29526 0
M  V30 2884 H 275.926 0.637233 -4.16554 0
M  V30 2885 H 274.65 1.17738 -3.0464 0
M  V30 2886 H 273.309 -0.893477 -3.55545 0
M  V30 2887 H 272.957 1.19467 -4.88607 0
M  V30 2888 H 272.657 -0.259633 -5.87026 0
M  V30 2889 H 274.181 0.650884 -6.07121 0
M  V30 2890 H 275.595 -1.55236 -5.51883 0
M  V30 2891 H 273.992 -2.34353 -5.52448 0
M  V30 2892 H 275.062 -2.54772 -4.12576 0
M  V30 2893 N 276.405 1.4127 -0.698611 0
M  V30 2894 C 277.355 2.27997 -0.0119836 0
M  V30 2895 C 278.339 1.42363 0.749765 0
M  V30 2896 O 279.531 1.65607 0.624758 0
M  V30 2897 C 276.66 3.30702 0.921458 0
M  V30 2898 C 275.746 4.23814 0.155796 0
M  V30 2899 N 276.137 4.98572 -0.852015 0
M  V30 2900 C 274.435 4.44284 0.390836 0
M  V30 2901 C 275.136 5.66744 -1.3106 0
M  V30 2902 N 274.112 5.39867 -0.635944 0
M  V30 2903 H 277.914 2.83232 -0.784649 0
M  V30 2904 H 275.428 1.53518 -0.529711 0
M  V30 2905 H 277.425 3.91661 1.42854 0
M  V30 2906 H 276.085 2.77028 1.69369 0
M  V30 2907 H 277.096 5.03024 -1.23235 0
M  V30 2908 H 273.773 4.01614 1.14071 0
M  V30 2909 H 275.163 6.36672 -2.14707 0
M  V30 2910 N 277.883 0.443576 1.51229 0
M  V30 2911 C 278.813 -0.355142 2.30783 0
M  V30 2912 C 279.794 -1.0154 1.36468 0
M  V30 2913 O 280.979 -1.01785 1.65389 0
M  V30 2914 C 278.109 -1.45312 3.15439 0
M  V30 2915 C 277.063 -0.916002 4.18083 0
M  V30 2916 C 276.389 -2.1102 4.91299 0
M  V30 2917 C 277.689 0.0538602 5.22272 0
M  V30 2918 H 279.383 0.308767 2.97804 0
M  V30 2919 H 276.929 0.149937 1.43217 0
M  V30 2920 H 278.882 -2.01914 3.69876 0
M  V30 2921 H 277.606 -2.14541 2.46252 0
M  V30 2922 H 276.265 -0.372145 3.64706 0
M  V30 2923 H 275.913 -2.78882 4.18609 0
M  V30 2924 H 275.613 -1.75717 5.60712 0
M  V30 2925 H 277.137 -2.68164 5.48562 0
M  V30 2926 H 278.551 -0.422069 5.71744 0
M  V30 2927 H 276.948 0.319776 5.99247 0
M  V30 2928 H 278.018 0.98858 4.74716 0
M  V30 2929 N 279.361 -1.56624 0.175154 0
M  V30 2930 C 280.586 -2.01813 -0.478137 0
M  V30 2931 C 281.011 -1.05457 -1.55757 0
M  V30 2932 O 280.369 -0.0347439 -1.81267 0
M  V30 2933 C 280.417 -3.45581 -1.02987 0
M  V30 2934 O 279.521 -3.52305 -2.14371 0
M  V30 2935 H 278.862 -0.65413 -0.114059 0
M  V30 2936 H 281.392 -2.02673 0.280173 0
M  V30 2937 H 281.402 -3.84965 -1.35151 0
M  V30 2938 H 280.077 -4.1521 -0.239556 0
M  V30 2939 H 278.654 -3.24783 -1.83222 0
M  V30 2940 N 280.839 0.0985539 -1.57292 0
M  V30 2941 C 282.116 0.834155 -1.76921 0
M  V30 2942 C 282.496 1.97101 -0.755928 0
M  V30 2943 O 281.844 2.27474 0.216245 0
M  V30 2944 C 282.054 1.33194 -3.22584 0
M  V30 2945 C 283.402 1.77611 -3.85668 0
M  V30 2946 O 284.426 1.42825 -3.26312 0
M  V30 2947 O 283.285 2.4192 -4.90038 0
M  V30 2948 H 280.379 0.397628 -0.725135 0
M  V30 2949 H 282.925 0.0807044 -1.69508 0
M  V30 2950 H 281.697 0.517248 -3.87866 0
M  V30 2951 H 281.32 2.1475 -3.34616 0
M  V30 2952 N 282.317 1.53212 0.369288 0
M  V30 2953 C 283.594 1.59815 1.12776 0
M  V30 2954 C 283.974 0.403402 2.0721 0
M  V30 2955 O 283.322 -0.606667 2.20299 0
M  V30 2956 C 283.532 2.94664 1.87013 0
M  V30 2957 C 284.88 3.49109 2.41677 0
M  V30 2958 O 285.904 2.96669 1.97144 0
M  V30 2959 O 284.763 4.40775 3.23079 0
M  V30 2960 H 281.857 0.645376 0.517125 0
M  V30 2961 H 284.403 1.65553 0.37285 0
M  V30 2962 H 283.175 3.73061 1.18071 0
M  V30 2963 H 282.798 2.92401 2.69421 0
M  V30 2964 N 283.795 -0.628877 1.44509 0
M  V30 2965 C 284.727 -1.754 1.47538 0
M  V30 2966 C 285.74 -1.58575 0.368506 0
M  V30 2967 O 286.929 -1.66847 0.634376 0
M  V30 2968 C 284.029 -3.1315 1.29577 0
M  V30 2969 C 283.202 -3.56413 2.53551 0
M  V30 2970 C 282.261 -4.7305 2.30457 0
M  V30 2971 O 281.287 -4.81247 3.03957 0
M  V30 2972 N 282.489 -5.64903 1.3366 0
M  V30 2973 H 285.254 -1.73272 2.44534 0
M  V30 2974 H 282.815 -0.813512 1.39977 0
M  V30 2975 H 284.807 -3.88902 1.11971 0
M  V30 2976 H 283.377 -3.09908 0.409371 0
M  V30 2977 H 282.597 -2.70847 2.86419 0
M  V30 2978 H 283.885 -3.82071 3.36005 0
M  V30 2979 H 283.283 -5.60975 0.729604 0
M  V30 2980 H 281.84 -6.40275 1.22032 0
M  V30 2981 N 285.273 -1.31445 -0.869486 0
M  V30 2982 C 286.521 -1.20918 -1.61936 0
M  V30 2983 C 286.842 0.232683 -1.93607 0
M  V30 2984 O 286.112 1.15352 -1.58338 0
M  V30 2985 H 284.692 -0.44454 -0.600328 0
M  V30 2986 H 287.354 -1.64776 -1.0409 0
M  V30 2987 H 286.45 -1.78124 -2.56278 0
M  V30 2988 N 286.751 1.08385 -1.14413 0
M  V30 2989 C 287.997 1.81212 -0.923793 0
M  V30 2990 C 288.352 1.84555 0.543814 0
M  V30 2991 O 287.645 1.31056 1.39767 0
M  V30 2992 C 287.839 3.26273 -1.45879 0
M  V30 2993 C 287.668 3.37063 -2.97689 0
M  V30 2994 C 286.438 3.4824 -3.66138 0
M  V30 2995 C 288.636 3.28698 -3.95553 0
M  V30 2996 N 286.618 3.47824 -5.05858 0
M  V30 2997 C 287.989 3.35276 -5.21527 0
M  V30 2998 C 290.044 3.12437 -3.8767 0
M  V30 2999 C 288.747 3.27267 -6.40538 0
M  V30 3000 C 290.773 3.05757 -5.06228 0
M  V30 3001 C 290.135 3.12938 -6.3107 0
M  V30 3002 H 286.234 0.6769 -0.391574 0
M  V30 3003 H 288.818 1.29455 -1.45429 0
M  V30 3004 H 286.989 3.76474 -0.95507 0
M  V30 3005 H 288.721 3.87165 -1.17835 0
M  V30 3006 H 285.476 3.52141 -3.16692 0
M  V30 3007 H 285.9 3.51171 -5.78798 0
M  V30 3008 H 290.542 3.05747 -2.92025 0
M  V30 3009 H 288.26 3.32718 -7.36427 0
M  V30 3010 H 291.846 2.94295 -5.01878 0
M  V30 3011 H 290.726 3.078 -7.21269 0
M  V30 3012 N 288.23 0.939286 1.26551 0
M  V30 3013 C 289.646 0.641304 1.46149 0
M  V30 3014 C 289.846 -0.805964 1.84679 0
M  V30 3015 O 288.902 -1.58278 1.96734 0
M  V30 3016 C 290.215 1.6011 2.54529 0
M  V30 3017 C 291.763 1.6106 2.68382 0
M  V30 3018 C 292.238 2.55765 3.79932 0
M  V30 3019 N 293.729 2.5404 3.87322 0
M  V30 3020 C 294.464 3.24004 4.73085 0
M  V30 3021 N 293.96 4.03388 5.63249 0
M  V30 3022 N 295.753 3.12965 4.66914 0
M  V30 3023 H 287.904 1.87478 0.998285 0
M  V30 3024 H 290.167 0.805559 0.499779 0
M  V30 3025 H 289.873 2.63412 2.33039 0
M  V30 3026 H 289.747 1.35171 3.52149 0
M  V30 3027 H 292.134 0.584835 2.89247 0
M  V30 3028 H 292.215 1.90053 1.71212 0
M  V30 3029 H 291.859 3.58458 3.5982 0
M  V30 3030 H 291.789 2.24063 4.76554 0
M  V30 3031 H 294.28 1.96396 3.22858 0
M  V30 3032 H 294.593 4.5373 6.25579 0
M  V30 3033 H 292.938 4.07489 5.63008 0
M  V30 3034 H 296.129 2.50432 3.95476 0
M  V30 3035 H 296.302 3.67759 5.33533 0
M  V30 3036 N 289.708 -1.40897 0.706093 0
M  V30 3037 C 290.957 -2.00284 0.238574 0
M  V30 3038 C 291.27 -1.56604 -1.17194 0
M  V30 3039 O 292.476 -2.08624 -1.73748 0
M  V30 3040 C 290.932 -3.57934 0.375623 0
M  V30 3041 C 290.54 -4.10591 1.79217 0
M  V30 3042 C 292.284 -4.24488 -0.0315857 0
M  V30 3043 C 290.191 -5.60712 1.88032 0
M  V30 3044 H 289.121 -0.749144 0.0854398 0
M  V30 3045 H 291.772 -1.61251 0.875813 0
M  V30 3046 H 290.154 -3.94622 -0.330042 0
M  V30 3047 H 291.328 -3.85301 2.52745 0
M  V30 3048 H 289.643 -3.56601 2.15 0
M  V30 3049 H 292.24 -5.34698 0.0136842 0
M  V30 3050 H 292.583 -4.02261 -1.072 0
M  V30 3051 H 293.116 -3.92873 0.624181 0
M  V30 3052 H 289.855 -5.87781 2.90161 0
M  V30 3053 H 289.375 -5.87896 1.18903 0
M  V30 3054 H 291.054 -6.25658 1.64805 0
M  V30 3055 N 291.186 -0.45159 -1.50991 0
M  V30 3056 C 292.149 0.341117 -2.26647 0
M  V30 3057 C 293.149 0.937422 -1.30649 0
M  V30 3058 O 294.339 0.809644 -1.54241 0
M  V30 3059 C 291.471 1.48398 -3.06905 0
M  V30 3060 H 292.664 -0.322117 -2.98165 0
M  V30 3061 H 290.217 -0.205122 -1.54948 0
M  V30 3062 H 290.952 2.18284 -2.39838 0
M  V30 3063 H 290.737 1.06241 -3.77432 0
M  V30 3064 H 292.227 2.04367 -3.64176 0
M  V30 3065 N 292.664 1.56529 -0.183458 0
M  V30 3066 C 293.913 1.96419 0.458511 0
M  V30 3067 C 294.226 1.0727 1.63562 0
M  V30 3068 O 295.432 1.36893 2.34462 0
M  V30 3069 C 293.888 3.49298 0.867122 0
M  V30 3070 C 293.496 4.47092 -0.285057 0
M  V30 3071 C 295.24 3.97983 1.47683 0
M  V30 3072 C 293.147 5.91225 0.143862 0
M  V30 3073 H 292.077 0.733394 0.175071 0
M  V30 3074 H 294.728 1.81448 -0.273624 0
M  V30 3075 H 293.11 3.59731 1.65559 0
M  V30 3076 H 294.284 4.48383 -1.0625 0
M  V30 3077 H 292.599 4.08535 -0.805503 0
M  V30 3078 H 295.196 5.03134 1.80999 0
M  V30 3079 H 295.539 3.41618 2.37914 0
M  V30 3080 H 296.072 3.90617 0.752562 0
M  V30 3081 H 292.811 6.5149 -0.723974 0
M  V30 3082 H 292.331 5.93214 0.886413 0
M  V30 3083 H 294.01 6.44362 0.583628 0
M  V30 3084 N 294.142 -0.090211 1.57342 0
M  V30 3085 C 295.419 -0.824761 1.77361 0
M  V30 3086 C 295.799 -1.96698 0.76637 0
M  V30 3087 O 295.147 -2.27586 -0.204179 0
M  V30 3088 C 295.357 -1.31481 3.23286 0
M  V30 3089 C 296.705 -1.75563 3.86604 0
M  V30 3090 O 297.729 -1.41093 3.27065 0
M  V30 3091 O 296.588 -2.39317 4.91314 0
M  V30 3092 H 293.682 -0.393776 0.727234 0
M  V30 3093 H 296.228 -0.0717138 1.69548 0
M  V30 3094 H 295 -0.496671 3.88135 0
M  V30 3095 H 294.623 -2.12973 3.35751 0
M  V30 3096 N 295.62 -1.53406 -0.361157 0
M  V30 3097 C 296.845 -1.74024 -1.12829 0
M  V30 3098 C 297.27 -0.470069 -1.82132 0
M  V30 3099 O 296.628 0.57619 -1.719 0
M  V30 3100 C 296.676 -2.90903 -2.13091 0
M  V30 3101 O 295.78 -2.59821 -3.20261 0
M  V30 3102 H 295.121 -0.577804 -0.327168 0
M  V30 3103 H 297.651 -2.00307 -0.41693 0
M  V30 3104 H 297.661 -3.17194 -2.56616 0
M  V30 3105 H 296.336 -3.83034 -1.62042 0
M  V30 3106 H 294.913 -2.44362 -2.81677 0
M  V30 3107 N 297.098 0.621204 -1.44841 0
M  V30 3108 C 298.344 1.38073 -1.49357 0
M  V30 3109 C 298.699 1.91973 -0.128115 0
M  V30 3110 O 297.992 1.71311 0.858087 0
M  V30 3111 C 298.186 2.55675 -2.4973 0
M  V30 3112 C 298.015 2.13289 -3.95901 0
M  V30 3113 C 296.785 2.001 -4.63991 0
M  V30 3114 C 298.983 1.7159 -4.84831 0
M  V30 3115 N 296.965 1.51381 -5.94943 0
M  V30 3116 C 298.336 1.34188 -6.05304 0
M  V30 3117 C 300.391 1.59059 -4.7181 0
M  V30 3118 C 299.094 0.855085 -7.14199 0
M  V30 3119 C 301.12 1.11784 -5.8074 0
M  V30 3120 C 300.482 0.753385 -7.0036 0
M  V30 3121 H 296.581 0.499675 -0.601539 0
M  V30 3122 H 299.165 0.711609 -1.8123 0
M  V30 3123 H 297.336 3.20201 -2.19832 0
M  V30 3124 H 299.068 3.22509 -2.4448 0
M  V30 3125 H 295.823 2.20863 -4.18947 0
M  V30 3126 H 296.247 1.29293 -6.64539 0
M  V30 3127 H 300.889 1.85865 -3.79755 0
M  V30 3128 H 298.607 0.574552 -8.06055 0
M  V30 3129 H 302.193 1.02533 -5.72694 0
M  V30 3130 H 301.073 0.393183 -7.83214 0
M  V30 3131 N 298.576 1.31904 0.862503 0
M  V30 3132 C 299.987 1.19803 1.43193 0
M  V30 3133 C 300.338 -0.192567 1.95253 0
M  V30 3134 O 299.463 -1.09081 1.86896 0
M  V30 3135 C 300.058 2.16883 2.60283 0
M  V30 3136 C 298.617 2.08692 3.13248 0
M  V30 3137 C 297.764 2.05691 1.85975 0
M  V30 3138 H 300.715 1.43846 0.670365 0
M  V30 3139 H 300.736 1.76278 3.37204 0
M  V30 3140 H 300.248 3.18083 2.22363 0
M  V30 3141 H 298.349 1.10713 3.55771 0
M  V30 3142 H 298.462 2.9815 3.75025 0
M  V30 3143 H 296.826 1.50814 2.05249 0
M  V30 3144 H 297.609 3.08659 1.50282 0
M  V30 3145 N 300.054 -1.07777 1.14986 0
M  V30 3146 C 301.47 -1.32373 0.891596 0
M  V30 3147 C 301.67 -1.9609 -0.463788 0
M  V30 3148 O 300.726 -2.21801 -1.20667 0
M  V30 3149 C 302.039 -2.21905 2.02925 0
M  V30 3150 C 303.587 -2.35367 2.06329 0
M  V30 3151 C 304.062 -3.28245 3.19405 0
M  V30 3152 N 305.553 -3.35824 3.19024 0
M  V30 3153 C 306.288 -4.07739 4.03158 0
M  V30 3154 N 305.784 -4.82306 4.97346 0
M  V30 3155 N 307.577 -4.03635 3.91197 0
M  V30 3156 H 299.728 -0.648039 2.02273 0
M  V30 3157 H 301.991 -0.348149 0.881757 0
M  V30 3158 H 301.697 -1.82342 3.0074 0
M  V30 3159 H 301.571 -3.22407 1.95789 0
M  V30 3160 H 303.958 -2.74186 1.09116 0
M  V30 3161 H 304.039 -1.34585 2.17533 0
M  V30 3162 H 303.683 -2.90146 4.16867 0
M  V30 3163 H 303.613 -4.28971 3.05437 0
M  V30 3164 H 306.104 -2.8267 2.50811 0
M  V30 3165 H 306.417 -5.34661 5.57994 0
M  V30 3166 H 304.762 -4.81337 5.01338 0
M  V30 3167 H 307.953 -3.44491 3.16928 0
M  V30 3168 H 308.126 -4.59417 4.5699 0
M  V30 3169 N 301.532 -0.945985 -1.26051 0
M  V30 3170 C 302.462 -0.477172 -2.28572 0
M  V30 3171 C 303.443 0.472032 -1.63419 0
M  V30 3172 O 304.628 0.372853 -1.90587 0
M  V30 3173 C 301.758 0.253975 -3.4637 0
M  V30 3174 C 300.712 -0.609135 -4.23643 0
M  V30 3175 C 300.038 0.252252 -5.34105 0
M  V30 3176 C 301.338 -1.8829 -4.8718 0
M  V30 3177 H 303.032 -1.33402 -2.68038 0
M  V30 3178 H 300.578 -0.642904 -1.28852 0
M  V30 3179 H 302.531 0.593016 -4.17207 0
M  V30 3180 H 301.255 1.145 -3.05871 0
M  V30 3181 H 299.914 -0.931138 -3.54578 0
M  V30 3182 H 299.562 1.14278 -4.89846 0
M  V30 3183 H 299.262 -0.32188 -5.86718 0
M  V30 3184 H 300.786 0.586454 -6.07777 0
M  V30 3185 H 302.2 -1.61081 -5.50205 0
M  V30 3186 H 300.597 -2.40199 -5.49931 0
M  V30 3187 H 301.667 -2.59134 -4.09851 0
M  V30 3188 N 303.011 1.40521 -0.713556 0
M  V30 3189 C 303.974 2.29098 -0.0684347 0
M  V30 3190 C 304.974 1.45268 0.689472 0
M  V30 3191 O 306.164 1.66205 0.521677 0
M  V30 3192 C 303.296 3.28446 0.913024 0
M  V30 3193 H 304.489 2.87645 -0.84855 0
M  V30 3194 H 302.042 1.48809 -0.47809 0
M  V30 3195 H 302.777 2.74913 1.72027 0
M  V30 3196 H 302.562 3.90327 0.372472 0
M  V30 3197 H 304.052 3.94777 1.36165 0
M  V30 3198 N 304.489 0.459591 1.5075 0
M  V30 3199 C 305.717 -0.0973749 2.06671 0
M  V30 3200 C 306.132 -1.34524 1.32472 0
M  V30 3201 O 305.489 -1.7827 0.390634 0
M  V30 3202 C 305.54 -0.39714 3.59312 0
M  V30 3203 O 305.261 0.801214 4.30711 0
M  V30 3204 C 306.762 -1.00234 4.31819 0
M  V30 3205 H 303.982 0.00195854 0.670997 0
M  V30 3206 H 306.526 0.645072 1.94059 0
M  V30 3207 H 304.681 -1.08951 3.71764 0
M  V30 3208 H 305.095 0.538857 5.21725 0
M  V30 3209 H 306.569 -1.16193 5.39632 0
M  V30 3210 H 307.046 -1.98939 3.91561 0
M  V30 3211 H 307.652 -0.348699 4.23868 0
M  V30 3212 N 305.967 -1.56429 0.191757 0
M  V30 3213 C 307.197 -2.01574 -0.452928 0
M  V30 3214 C 307.605 -1.07107 -1.55964 0
M  V30 3215 O 306.948 -0.067534 -1.83576 0
M  V30 3216 C 307.01 -3.43121 -1.07278 0
M  V30 3217 C 306.674 -4.56879 -0.105214 0
M  V30 3218 C 307.671 -5.15379 0.684149 0
M  V30 3219 C 305.356 -5.023 0.00489824 0
M  V30 3220 C 307.35 -6.17746 1.57062 0
M  V30 3221 C 305.037 -6.04511 0.894935 0
M  V30 3222 C 306.035 -6.62108 1.67637 0
M  V30 3223 O 305.723 -7.62335 2.55149 0
M  V30 3224 H 305.455 -0.665554 -0.118379 0
M  V30 3225 H 308.009 -2.03245 0.296737 0
M  V30 3226 H 306.239 -3.38425 -1.87097 0
M  V30 3227 H 307.928 -3.72093 -1.62177 0
M  V30 3228 H 308.694 -4.81157 0.609365 0
M  V30 3229 H 304.573 -4.57168 -0.593156 0
M  V30 3230 H 308.117 -6.6263 2.181 0
M  V30 3231 H 304.014 -6.38157 0.970847 0
M  V30 3232 H 304.782 -7.79741 2.48892 0
M  V30 3233 N 307.445 0.0818655 -1.57387 0
M  V30 3234 C 308.693 0.781368 -1.86384 0
M  V30 3235 C 309.014 1.78618 -0.782342 0
M  V30 3236 O 308.284 1.94976 0.190061 0
M  V30 3237 H 306.864 0.291562 -0.687751 0
M  V30 3238 H 309.526 0.060348 -1.94807 0
M  V30 3239 H 308.622 1.3038 -2.83562 0
M  V30 3240 N 308.923 1.53595 0.353017 0
M  V30 3241 C 310.171 1.70049 1.09215 0
M  V30 3242 C 310.492 0.461406 1.89463 0
M  V30 3243 O 309.762 -0.524633 1.88744 0
M  V30 3244 H 308.342 0.626912 0.40619 0
M  V30 3245 H 311.004 1.90822 0.396585 0
M  V30 3246 H 310.1 2.56718 1.77488 0
M  V30 3247 N 310.401 -0.613514 1.45168 0
M  V30 3248 C 311.626 -1.40437 1.52618 0
M  V30 3249 C 312.051 -1.87438 0.157707 0
M  V30 3250 O 311.409 -1.59791 -0.856537 0
M  V30 3251 C 311.457 -2.58894 2.51011 0
M  V30 3252 O 310.561 -3.59326 2.02382 0
M  V30 3253 H 309.902 -0.419506 0.514695 0
M  V30 3254 H 312.432 -0.747215 1.90467 0
M  V30 3255 H 312.442 -3.06214 2.69624 0
M  V30 3256 H 311.117 -2.24032 3.50403 0
M  V30 3257 H 309.694 -3.18695 1.93618 0
M  V30 3258 N 311.879 -1.3236 -0.855495 0
M  V30 3259 C 313.107 -1.2587 -1.64208 0
M  V30 3260 C 313.522 0.173457 -1.88002 0
M  V30 3261 O 312.879 1.11027 -1.44842 0
M  V30 3262 C 312.93 -2.01424 -3.00184 0
M  V30 3263 O 312.651 -3.39051 -2.77445 0
M  V30 3264 C 314.152 -2.01948 -3.94629 0
M  V30 3265 H 311.372 -0.434318 -0.511477 0
M  V30 3266 H 313.916 -1.74469 -1.0668 0
M  V30 3267 H 312.071 -1.56549 -3.5436 0
M  V30 3268 H 312.485 -3.77711 -3.63916 0
M  V30 3269 H 313.959 -2.59297 -4.87308 0
M  V30 3270 H 314.436 -1.00554 -4.27534 0
M  V30 3271 H 315.042 -2.46767 -3.4639 0
M  V30 3272 N 313.357 1.07166 -1.15556 0
M  V30 3273 C 314.267 2.17947 -0.868116 0
M  V30 3274 C 315.283 1.73297 0.156297 0
M  V30 3275 O 316.459 2.01392 -0.0182327 0
M  V30 3276 C 313.524 3.44789 -0.36355 0
M  V30 3277 C 312.585 4.03996 -1.45209 0
M  V30 3278 C 311.818 5.24783 -0.971508 0
M  V30 3279 O 312.041 5.70109 0.182194 0
M  V30 3280 O 310.975 5.75715 -1.75603 0
M  V30 3281 H 314.801 2.4503 -1.79427 0
M  V30 3282 H 312.386 1.16539 -0.934824 0
M  V30 3283 H 314.268 4.21307 -0.0887113 0
M  V30 3284 H 312.943 3.19253 0.534708 0
M  V30 3285 H 311.85 3.29009 -1.78056 0
M  V30 3286 H 313.183 4.33808 -2.32533 0
M  V30 3287 N 314.835 0.952656 1.25548 0
M  V30 3288 C 316.081 0.607272 1.93494 0
M  V30 3289 C 316.414 -0.853245 1.74452 0
M  V30 3290 O 315.689 -1.61194 1.08843 0
M  V30 3291 C 315.972 0.96435 3.46947 0
M  V30 3292 C 315.825 2.48045 3.75225 0
M  V30 3293 C 317.144 0.487987 4.37386 0
M  V30 3294 H 314.263 0.222096 0.702739 0
M  V30 3295 H 316.905 1.18895 1.48203 0
M  V30 3296 H 315.055 0.469361 3.85654 0
M  V30 3297 H 316.727 3.04905 3.46166 0
M  V30 3298 H 314.97 2.919 3.209 0
M  V30 3299 H 315.641 2.6808 4.82532 0
M  V30 3300 H 318.117 0.912558 4.0597 0
M  V30 3301 H 316.993 0.766547 5.43521 0
M  V30 3302 H 317.254 -0.612063 4.37843 0
M  V30 3303 N 316.313 -1.40141 0.720998 0
M  V30 3304 C 317.561 -2.0039 0.262323 0
M  V30 3305 C 317.882 -1.57469 -1.15015 0
M  V30 3306 O 317.152 -0.816582 -1.78069 0
M  V30 3307 H 315.732 -0.741063 0.093996 0
M  V30 3308 H 318.394 -1.71398 0.927835 0
M  V30 3309 H 317.49 -3.10658 0.299671 0
M  V30 3310 N 317.792 -0.46758 -1.50504 0
M  V30 3311 C 319.04 0.0884469 -2.01906 0
M  V30 3312 C 319.361 1.40532 -1.35188 0
M  V30 3313 O 318.631 1.89515 -0.496079 0
M  V30 3314 H 317.211 0.0356765 -0.746148 0
M  V30 3315 H 319.873 -0.6172 -1.84869 0
M  V30 3316 H 318.969 0.2425 -3.11156 0
M  V30 3317 N 319.27 1.56325 -0.20005 0
M  V30 3318 C 320.518 1.97329 0.436547 0
M  V30 3319 C 320.839 1.08826 1.61808 0
M  V30 3320 O 320.109 0.160604 1.95241 0
M  V30 3321 H 318.689 0.728714 0.164272 0
M  V30 3322 H 321.351 1.92761 -0.287937 0
M  V30 3323 H 320.447 3.02264 0.777353 0
M  V30 3324 N 320.748 -0.0735177 1.57428 0
M  V30 3325 C 322.159 -0.625551 1.75908 0
M  V30 3326 C 322.51 -1.78 0.825261 0
M  V30 3327 O 321.635 -2.16398 0.00893964 0
M  V30 3328 C 322.23 -1.14155 3.18989 0
M  V30 3329 C 320.789 -1.63946 3.38819 0
M  V30 3330 C 319.936 -0.558151 2.71625 0
M  V30 3331 H 322.887 0.152647 1.57964 0
M  V30 3332 H 322.908 -2.0104 3.23053 0
M  V30 3333 H 322.42 -0.301116 3.8693 0
M  V30 3334 H 320.521 -2.50321 2.7599 0
M  V30 3335 H 320.634 -1.71759 4.47253 0
M  V30 3336 H 318.998 -1.00278 2.34129 0
M  V30 3337 H 319.781 0.272071 3.4222 0
M  V30 3338 N 322.226 -1.5378 -0.344866 0
M  V30 3339 C 323.474 -1.70625 -1.08311 0
M  V30 3340 C 323.795 -0.471447 -1.89215 0
M  V30 3341 O 323.065 0.514616 -1.8902 0
M  V30 3342 H 321.645 -0.629058 -0.402859 0
M  V30 3343 H 324.307 -1.9103 -0.386459 0
M  V30 3344 H 323.403 -2.57656 -1.76124 0
M  V30 3345 N 323.704 0.605807 -1.45491 0
M  V30 3346 C 324.952 1.36207 -1.49305 0
M  V30 3347 C 325.273 1.94519 -0.136863 0
M  V30 3348 O 324.543 1.77261 0.833983 0
M  V30 3349 H 323.123 0.50565 -0.549843 0
M  V30 3350 H 325.785 0.711239 -1.81459 0
M  V30 3351 H 324.881 2.18058 -2.23287 0
M  V30 3352 N 325.182 1.32811 0.848464 0
M  V30 3353 C 326.412 1.26556 1.63301 0
M  V30 3354 C 326.82 -0.1676 1.88456 0
M  V30 3355 O 326.163 -1.11713 1.45828 0
M  V30 3356 C 326.225 1.96202 3.01239 0
M  V30 3357 C 325.889 3.45528 2.99098 0
M  V30 3358 C 326.886 4.40903 2.75501 0
M  V30 3359 C 324.571 3.87558 3.19537 0
M  V30 3360 C 326.565 5.76282 2.72356 0
M  V30 3361 C 324.252 5.23044 3.16019 0
M  V30 3362 C 325.25 6.17217 2.92458 0
M  V30 3363 O 324.938 7.50223 2.88825 0
M  V30 3364 H 324.67 0.43771 0.515156 0
M  V30 3365 H 327.224 1.7559 1.0657 0
M  V30 3366 H 325.454 1.41746 3.59785 0
M  V30 3367 H 327.143 1.83573 3.62016 0
M  V30 3368 H 327.909 4.09756 2.5947 0
M  V30 3369 H 323.788 3.14674 3.369 0
M  V30 3370 H 327.332 6.4976 2.53886 0
M  V30 3371 H 323.229 5.53818 3.31596 0
M  V30 3372 H 323.997 7.59657 3.04735 0
M  V30 3373 N 326.66 -1.06551 1.16123 0
M  V30 3374 C 327.89 -1.8274 0.963838 0
M  V30 3375 C 328.298 -1.82712 -0.491228 0
M  V30 3376 O 327.641 -1.24294 -1.35265 0
M  V30 3377 C 327.703 -3.3065 1.41106 0
M  V30 3378 C 327.367 -3.54384 2.88549 0
M  V30 3379 C 328.364 -3.4765 3.86569 0
M  V30 3380 C 326.049 -3.81789 3.26408 0
M  V30 3381 C 328.043 -3.67982 5.2045 0
M  V30 3382 C 325.73 -4.01772 4.60459 0
M  V30 3383 C 326.728 -3.94866 5.57288 0
M  V30 3384 O 326.416 -4.14306 6.88916 0
M  V30 3385 H 326.148 -0.583136 0.341948 0
M  V30 3386 H 328.702 -1.35351 1.54497 0
M  V30 3387 H 326.932 -3.78887 0.773394 0
M  V30 3388 H 328.621 -3.88324 1.1815 0
M  V30 3389 H 329.387 -3.2647 3.58667 0
M  V30 3390 H 325.266 -3.86276 2.51619 0
M  V30 3391 H 328.81 -3.62507 5.96015 0
M  V30 3392 H 324.707 -4.2244 4.88072 0
M  V30 3393 H 325.475 -4.31609 6.95454 0
M  V30 3394 N 328.138 -0.959301 -1.25041 0
M  V30 3395 C 329.366 -0.633949 -1.96948 0
M  V30 3396 C 329.781 0.794916 -1.7125 0
M  V30 3397 O 329.138 1.53231 -0.991287 0
M  V30 3398 C 329.189 -0.888805 -3.50403 0
M  V30 3399 O 328.91 -2.26149 -3.75218 0
M  V30 3400 C 330.411 -0.576482 -4.39536 0
M  V30 3401 H 327.631 -0.237263 -0.627652 0
M  V30 3402 H 330.175 -1.28495 -1.59089 0
M  V30 3403 H 328.33 -0.284145 -3.86357 0
M  V30 3404 H 328.744 -2.33514 -4.6965 0
M  V30 3405 H 330.218 -0.805314 -5.46094 0
M  V30 3406 H 330.695 0.489075 -4.36468 0
M  V30 3407 H 331.301 -1.16067 -4.09156 0
M  V30 3408 N 329.616 1.39756 -0.72842 0
M  V30 3409 C 330.563 2.30647 -0.0841519 0
M  V30 3410 C 331.533 1.48869 0.7367 0
M  V30 3411 O 332.718 1.77574 0.698015 0
M  V30 3412 C 329.858 3.35165 0.822091 0
M  V30 3413 C 328.971 4.31999 -0.0106663 0
M  V30 3414 C 328.106 5.23585 0.896241 0
M  V30 3415 C 327.145 6.12072 0.0583381 0
M  V30 3416 N 326.282 6.96035 0.920818 0
M  V30 3417 H 331.122 2.85173 -0.864891 0
M  V30 3418 H 328.659 1.40422 -0.438179 0
M  V30 3419 H 330.617 3.94345 1.36189 0
M  V30 3420 H 329.247 2.8211 1.56888 0
M  V30 3421 H 328.299 3.74492 -0.66781 0
M  V30 3422 H 329.611 4.9443 -0.658825 0
M  V30 3423 H 328.765 5.87759 1.50412 0
M  V30 3424 H 327.504 4.61459 1.57819 0
M  V30 3425 H 326.509 5.46916 -0.562389 0
M  V30 3426 H 327.734 6.76261 -0.6203 0
M  V30 3427 H 325.68 6.36485 1.58818 0
M  V30 3428 H 325.597 7.55284 0.32899 0
M  V30 3429 H 326.865 7.64646 1.51447 0
M  V30 3430 N 331.094 0.475555 1.50254 0
M  V30 3431 C 332.057 -0.305016 2.27161 0
M  V30 3432 C 333.057 -0.916519 1.32123 0
M  V30 3433 O 334.247 -0.785003 1.5551 0
M  V30 3434 C 331.379 -1.43496 3.09227 0
M  V30 3435 H 332.572 0.369511 2.97615 0
M  V30 3436 H 330.125 0.229747 1.54602 0
M  V30 3437 H 330.86 -2.14441 2.43281 0
M  V30 3438 H 330.645 -1.00223 3.79075 0
M  V30 3439 H 332.135 -1.98548 3.67381 0
M  V30 3440 N 332.573 -1.56217 0.208337 0
M  V30 3441 C 333.483 -2.23316 -0.718836 0
M  V30 3442 C 334.499 -1.23648 -1.22422 0
M  V30 3443 O 335.675 -1.56423 -1.26861 0
M  V30 3444 C 332.74 -2.88968 -1.91568 0
M  V30 3445 C 331.801 -4.03943 -1.45357 0
M  V30 3446 C 331.034 -4.66455 -2.59337 0
M  V30 3447 O 331.257 -4.27919 -3.77149 0
M  V30 3448 O 330.191 -5.55686 -2.31293 0
M  V30 3449 H 334.017 -3.03182 -0.177315 0
M  V30 3450 H 331.602 -1.49384 -0.0215402 0
M  V30 3451 H 333.484 -3.30455 -2.61491 0
M  V30 3452 H 332.159 -2.12071 -2.44556 0
M  V30 3453 H 331.066 -3.67052 -0.722746 0
M  V30 3454 H 332.399 -4.82543 -0.970219 0
M  V30 3455 N 334.051 0.0651679 -1.57465 0
M  V30 3456 C 335.281 0.774683 -1.91526 0
M  V30 3457 C 335.689 1.71305 -0.803196 0
M  V30 3458 O 335.032 1.82231 0.231881 0
M  V30 3459 C 335.094 1.61645 -3.21109 0
M  V30 3460 C 334.758 0.846753 -4.49087 0
M  V30 3461 C 335.755 0.163024 -5.19644 0
M  V30 3462 C 333.44 0.811966 -4.95694 0
M  V30 3463 C 335.434 -0.54519 -6.35064 0
M  V30 3464 C 333.121 0.0999836 -6.11018 0
M  V30 3465 C 334.119 -0.577388 -6.80555 0
M  V30 3466 O 333.807 -1.27789 -7.93678 0
M  V30 3467 H 333.539 0.225031 -0.637446 0
M  V30 3468 H 336.093 0.0377134 -2.05365 0
M  V30 3469 H 334.323 2.39638 -3.03497 0
M  V30 3470 H 336.012 2.20525 -3.40769 0
M  V30 3471 H 336.778 0.181163 -4.84662 0
M  V30 3472 H 332.657 1.32867 -4.41438 0
M  V30 3473 H 336.201 -1.07446 -6.89276 0
M  V30 3474 H 332.098 0.0797945 -6.45451 0
M  V30 3475 H 332.866 -1.18784 -8.09835 0
M  V30 3476 N 335.529 1.53961 0.336706 0
M  V30 3477 C 336.476 1.82428 1.41381 0
M  V30 3478 C 337.446 0.670444 1.51968 0
M  V30 3479 O 338.631 0.915565 1.67398 0
M  V30 3480 C 335.771 2.04564 2.77934 0
M  V30 3481 C 334.884 3.32267 2.76084 0
M  V30 3482 C 334.019 3.44434 4.04399 0
M  V30 3483 C 333.058 4.66061 3.96804 0
M  V30 3484 N 332.195 4.75224 5.16823 0
M  V30 3485 H 337.035 2.74324 1.16405 0
M  V30 3486 H 334.572 1.35869 0.563752 0
M  V30 3487 H 336.53 2.15388 3.57301 0
M  V30 3488 H 335.16 1.15974 3.01247 0
M  V30 3489 H 334.212 3.3025 1.88784 0
M  V30 3490 H 335.524 4.21733 2.66351 0
M  V30 3491 H 334.678 3.54728 4.92192 0
M  V30 3492 H 333.417 2.53037 4.16921 0
M  V30 3493 H 332.422 4.55838 3.07396 0
M  V30 3494 H 333.647 5.58829 3.85858 0
M  V30 3495 H 331.593 3.86739 5.29876 0
M  V30 3496 H 331.51 5.58636 5.09374 0
M  V30 3497 H 332.778 4.89835 6.06367 0
M  V30 3498 N 337.007 -0.598083 1.45811 0
M  V30 3499 C 337.917 -1.73632 1.57763 0
M  V30 3500 C 338.933 -1.67763 0.461676 0
M  V30 3501 O 340.109 -1.87949 0.723685 0
M  V30 3502 C 337.174 -3.10114 1.55018 0
M  V30 3503 C 336.235 -3.27364 2.77726 0
M  V30 3504 C 335.468 -4.57334 2.75102 0
M  V30 3505 O 335.691 -5.40258 1.8297 0
M  V30 3506 O 334.625 -4.77502 3.66437 0
M  V30 3507 H 338.451 -1.66498 2.53992 0
M  V30 3508 H 336.036 -0.763308 1.28429 0
M  V30 3509 H 337.918 -3.9141 1.56129 0
M  V30 3510 H 336.593 -3.17718 0.619431 0
M  V30 3511 H 335.5 -2.45619 2.82174 0
M  V30 3512 H 336.833 -3.24641 3.69958 0
M  V30 3513 N 338.485 -1.33259 -0.841409 0
M  V30 3514 C 339.734 -1.23921 -1.59143 0
M  V30 3515 C 340.047 0.1941 -1.94635 0
M  V30 3516 O 341.253 0.409474 -2.68394 0
M  V30 3517 C 339.709 -2.17119 -2.87032 0
M  V30 3518 C 339.317 -3.65606 -2.58914 0
M  V30 3519 C 341.061 -2.16648 -3.65053 0
M  V30 3520 C 338.968 -4.50726 -3.82884 0
M  V30 3521 H 337.898 -0.460264 -0.597221 0
M  V30 3522 H 340.549 -1.58307 -0.927959 0
M  V30 3523 H 338.931 -1.75663 -3.54906 0
M  V30 3524 H 340.105 -4.15487 -1.99267 0
M  V30 3525 H 338.42 -3.68341 -1.942 0
M  V30 3526 H 341.017 -2.77474 -4.57069 0
M  V30 3527 H 341.36 -1.16088 -3.99787 0
M  V30 3528 H 341.893 -2.56453 -3.041 0
M  V30 3529 H 338.632 -5.52151 -3.53283 0
M  V30 3530 H 338.152 -4.0559 -4.41879 0
M  V30 3531 H 339.831 -4.64401 -4.50489 0
M  V30 3532 N 339.963 1.05934 -1.16686 0
M  V30 3533 C 341.209 1.79065 -0.95203 0
M  V30 3534 C 341.542 1.87147 0.518629 0
M  V30 3535 O 340.817 1.36574 1.38484 0
M  V30 3536 C 341.1 3.23359 -1.58464 0
M  V30 3537 C 340.953 3.23336 -3.12689 0
M  V30 3538 C 342.272 4.21004 -1.28232 0
M  V30 3539 H 339.391 0.65005 -0.34728 0
M  V30 3540 H 342.033 1.23868 -1.44072 0
M  V30 3541 H 340.183 3.70493 -1.16908 0
M  V30 3542 H 341.855 2.84336 -3.6325 0
M  V30 3543 H 340.098 2.61886 -3.4583 0
M  V30 3544 H 340.769 4.25144 -3.52075 0
M  V30 3545 H 343.245 3.8233 -1.64203 0
M  V30 3546 H 342.121 5.20225 -1.75092 0
M  V30 3547 H 342.382 4.41639 -0.201791 0
M  V30 3548 N 341.441 0.965919 1.2453 0
M  V30 3549 C 342.857 0.67216 1.44756 0
M  V30 3550 C 343.057 -0.766609 1.86347 0
M  V30 3551 O 342.113 -1.5407 2.00047 0
M  V30 3552 C 343.426 1.65473 2.51076 0
M  V30 3553 C 344.974 1.66716 2.64905 0
M  V30 3554 C 345.449 2.63766 3.74421 0
M  V30 3555 N 346.94 2.62198 3.81846 0
M  V30 3556 C 347.675 3.33966 4.66106 0
M  V30 3557 N 347.171 4.15245 5.54566 0
M  V30 3558 N 348.964 3.22799 4.60171 0
M  V30 3559 H 341.115 1.89553 0.958293 0
M  V30 3560 H 343.378 0.815979 0.482579 0
M  V30 3561 H 343.084 2.68296 2.27399 0
M  V30 3562 H 342.958 1.4261 3.49202 0
M  V30 3563 H 345.345 0.646057 2.87941 0
M  V30 3564 H 345.426 1.93642 1.67142 0
M  V30 3565 H 345.07 3.6601 3.52135 0
M  V30 3566 H 345 2.34121 4.71694 0
M  V30 3567 H 347.491 2.032 3.18619 0
M  V30 3568 H 347.804 4.66898 6.15814 0
M  V30 3569 H 346.149 4.1934 5.54237 0
M  V30 3570 H 349.34 2.58764 3.90075 0
M  V30 3571 H 349.513 3.78994 5.25612 0
M  V30 3572 N 342.919 -1.39368 0.735821 0
M  V30 3573 C 344.149 -2.04498 0.293967 0
M  V30 3574 C 344.557 -1.55593 -1.07645 0
M  V30 3575 O 343.9 -0.716324 -1.69158 0
M  V30 3576 C 343.962 -3.58836 0.218342 0
M  V30 3577 C 343.626 -4.30721 1.52736 0
M  V30 3578 C 344.623 -4.57305 2.47322 0
M  V30 3579 C 342.308 -4.69251 1.79189 0
M  V30 3580 C 344.302 -5.21429 3.66593 0
M  V30 3581 C 341.989 -5.33104 2.98737 0
M  V30 3582 C 342.987 -5.59125 3.9226 0
M  V30 3583 O 342.675 -6.21653 5.09708 0
M  V30 3584 H 342.407 -0.664118 0.126189 0
M  V30 3585 H 344.961 -1.79385 1.00051 0
M  V30 3586 H 343.191 -3.8285 -0.544314 0
M  V30 3587 H 344.88 -4.05447 -0.191626 0
M  V30 3588 H 345.646 -4.27983 2.28156 0
M  V30 3589 H 341.525 -4.48354 1.07239 0
M  V30 3590 H 345.069 -5.41656 4.39607 0
M  V30 3591 H 340.966 -5.61846 3.17803 0
M  V30 3592 H 341.734 -6.40146 5.10054 0
M  V30 3593 N 344.397 -0.483516 -1.5 0
M  V30 3594 C 345.36 0.292965 -2.2732 0
M  V30 3595 C 346.36 0.909499 -1.32608 0
M  V30 3596 O 347.55 0.776745 -1.55924 0
M  V30 3597 C 344.682 1.41854 -3.09984 0
M  V30 3598 H 345.875 -0.385289 -2.97415 0
M  V30 3599 H 343.428 -0.237942 -1.54478 0
M  V30 3600 H 344.163 2.13148 -2.44414 0
M  V30 3601 H 343.948 0.982114 -3.79601 0
M  V30 3602 H 345.438 1.96597 -3.68429 0
M  V30 3603 N 345.875 1.56104 -0.216619 0
M  V30 3604 C 346.838 2.18819 0.681962 0
M  V30 3605 C 347.838 1.14866 1.12528 0
M  V30 3606 O 349.028 1.40128 1.03488 0
M  V30 3607 C 346.16 2.80756 1.93362 0
M  V30 3608 H 347.353 2.99595 0.135254 0
M  V30 3609 H 344.906 1.56265 0.0330003 0
M  V30 3610 H 345.641 2.03837 2.52232 0
M  V30 3611 H 345.426 3.56876 1.62426 0
M  V30 3612 H 346.916 3.28844 2.57393 0
M  V30 3613 N 347.353 -0.0568162 1.57498 0
M  V30 3614 C 348.578 -0.769402 1.92601 0
M  V30 3615 C 349.003 -1.69559 0.814336 0
M  V30 3616 O 348.361 -1.79811 -0.231903 0
M  V30 3617 C 348.409 -1.52634 3.26704 0
M  V30 3618 O 347.513 -2.63797 3.16994 0
M  V30 3619 H 346.854 -0.208909 0.63028 0
M  V30 3620 H 349.384 -0.0205798 2.0459 0
M  V30 3621 H 349.394 -1.90234 3.60936 0
M  V30 3622 H 348.069 -0.846875 4.07186 0
M  V30 3623 H 346.646 -2.28943 2.94346 0
M  V30 3624 N 348.832 -1.54138 -0.328536 0
M  V30 3625 C 350.248 -1.44736 -0.672574 0
M  V30 3626 C 350.448 -0.616217 -1.91846 0
M  V30 3627 O 349.504 -0.113067 -2.52247 0
M  V30 3628 C 350.817 -2.884 -0.851217 0
M  V30 3629 C 352.365 -2.98271 -0.948877 0
M  V30 3630 C 352.84 -4.43074 -1.15973 0
M  V30 3631 N 354.331 -4.46665 -1.22658 0
M  V30 3632 C 355.066 -5.55857 -1.40751 0
M  V30 3633 N 354.562 -6.75026 -1.5592 0
M  V30 3634 N 356.355 -5.43495 -1.4342 0
M  V30 3635 H 348.506 -2.06661 0.490421 0
M  V30 3636 H 350.769 -0.934812 0.157579 0
M  V30 3637 H 350.475 -3.51699 -0.00704236 0
M  V30 3638 H 350.349 -3.34225 -1.74853 0
M  V30 3639 H 352.736 -2.35102 -1.78356 0
M  V30 3640 H 352.817 -2.55785 -0.0281435 0
M  V30 3641 H 352.461 -5.06827 -0.329915 0
M  V30 3642 H 352.391 -4.83165 -2.09426 0
M  V30 3643 H 354.882 -3.60797 -1.124 0
M  V30 3644 H 355.195 -7.54004 -1.69404 0
M  V30 3645 H 353.54 -6.77944 -1.53027 0
M  V30 3646 H 356.731 -4.49349 -1.31162 0
M  V30 3647 H 356.904 -6.28649 -1.57178 0
M  V30 3648 N 350.31 0.590341 -1.46126 0
M  V30 3649 C 351.26 1.69466 -1.5253 0
M  V30 3650 C 352.244 1.56179 -0.386917 0
M  V30 3651 O 353.436 1.65223 -0.634858 0
M  V30 3652 C 350.565 3.08245 -1.5113 0
M  V30 3653 C 349.651 3.26856 -2.70233 0
M  V30 3654 N 350.042 3.15657 -3.95214 0
M  V30 3655 C 348.34 3.57775 -2.66296 0
M  V30 3656 C 349.041 3.36066 -4.74799 0
M  V30 3657 N 348.017 3.60865 -4.06543 0
M  V30 3658 H 351.819 1.59326 -2.46966 0
M  V30 3659 H 349.333 0.79414 -1.41659 0
M  V30 3660 H 351.33 3.87492 -1.53804 0
M  V30 3661 H 349.99 3.19521 -0.577636 0
M  V30 3662 H 351.001 2.93686 -4.26578 0
M  V30 3663 H 347.678 3.75782 -1.81918 0
M  V30 3664 H 349.068 3.32655 -5.83772 0
M  V30 3665 N 351.788 1.33704 0.83433 0
M  V30 3666 C 352.718 1.26967 1.95963 0
M  V30 3667 C 353.699 0.149337 1.69443 0
M  V30 3668 O 354.884 0.339852 1.91203 0
M  V30 3669 C 352.014 1.01275 3.32206 0
M  V30 3670 C 350.968 2.09652 3.73136 0
M  V30 3671 C 350.294 1.69166 5.07235 0
M  V30 3672 C 351.594 3.51372 3.86439 0
M  V30 3673 H 353.288 2.2112 2.01857 0
M  V30 3674 H 350.834 1.06447 0.969793 0
M  V30 3675 H 352.787 0.952106 4.10503 0
M  V30 3676 H 351.511 0.0356203 3.26581 0
M  V30 3677 H 350.17 2.14766 2.97104 0
M  V30 3678 H 349.818 0.701437 4.98085 0
M  V30 3679 H 349.518 2.41694 5.35591 0
M  V30 3680 H 351.042 1.64576 5.88003 0
M  V30 3681 H 352.456 3.48734 4.55036 0
M  V30 3682 H 350.853 4.22425 4.26236 0
M  V30 3683 H 351.923 3.89546 2.88759 0
M  V30 3684 N 353.266 -1.05314 1.17247 0
M  V30 3685 C 354.176 -2.16538 0.90268 0
M  V30 3686 C 355.192 -1.73523 -0.128707 0
M  V30 3687 O 356.368 -2.01337 0.0502701 0
M  V30 3688 C 353.433 -3.44167 0.418356 0
M  V30 3689 C 352.494 -4.01635 1.51618 0
M  V30 3690 C 351.727 -5.23171 1.05487 0
M  V30 3691 O 351.95 -5.70327 -0.0914715 0
M  V30 3692 O 350.884 -5.72848 1.8474 0
M  V30 3693 H 354.71 -2.42145 1.83302 0
M  V30 3694 H 352.295 -1.15037 0.953246 0
M  V30 3695 H 354.177 -4.21112 0.155726 0
M  V30 3696 H 352.852 -3.20063 -0.48385 0
M  V30 3697 H 351.759 -3.26135 1.83268 0
M  V30 3698 H 353.092 -4.30053 2.39405 0
M  V30 3699 N 354.744 -0.972509 -1.24016 0
M  V30 3700 C 355.99 -0.637978 -1.92504 0
M  V30 3701 C 356.323 0.825383 -1.75787 0
M  V30 3702 O 355.598 1.59442 -1.11393 0
M  V30 3703 C 355.881 -1.01942 -3.45369 0
M  V30 3704 C 355.734 -2.53983 -3.71231 0
M  V30 3705 C 357.053 -0.55751 -4.36555 0
M  V30 3706 H 354.172 -0.233248 -0.699117 0
M  V30 3707 H 356.814 -1.21238 -1.46292 0
M  V30 3708 H 354.964 -0.530656 -3.84859 0
M  V30 3709 H 356.636 -3.10374 -3.41271 0
M  V30 3710 H 354.879 -2.96968 -3.16216 0
M  V30 3711 H 355.55 -2.75723 -4.78206 0
M  V30 3712 H 358.026 -0.977029 -4.04467 0
M  V30 3713 H 356.902 -0.85292 -5.42233 0
M  V30 3714 H 357.163 0.542328 -4.38761 0
M  V30 3715 N 356.222 1.38976 -0.743202 0
M  V30 3716 C 357.468 2.0064 -0.295189 0
M  V30 3717 C 357.801 1.5885 1.11716 0
M  V30 3718 O 357.076 0.821181 1.76315 0
M  V30 3719 C 357.359 3.578 -0.406318 0
M  V30 3720 C 357.212 4.09586 -1.85903 0
M  V30 3721 C 358.531 4.39616 0.206439 0
M  V30 3722 H 355.65 0.728935 -0.108733 0
M  V30 3723 H 358.292 1.65067 -0.940897 0
M  V30 3724 H 356.442 3.88235 0.143419 0
M  V30 3725 H 358.114 3.89837 -2.46627 0
M  V30 3726 H 356.357 3.6284 -2.3776 0
M  V30 3727 H 357.028 5.18708 -1.888 0
M  V30 3728 H 359.504 4.15273 -0.262283 0
M  V30 3729 H 358.38 5.48812 0.0983819 0
M  V30 3730 H 358.641 4.22754 1.2935 0
M  V30 3731 N 357.7 0.491464 1.49741 0
M  V30 3732 C 359.111 0.0413169 1.86654 0
M  V30 3733 C 359.462 -1.36985 1.40462 0
M  V30 3734 O 358.587 -2.01917 0.778354 0
M  V30 3735 C 359.182 0.0682023 3.38731 0
M  V30 3736 C 357.741 -0.32656 3.74981 0
M  V30 3737 C 356.888 0.444888 2.73708 0
M  V30 3738 H 359.839 0.704733 1.42194 0
M  V30 3739 H 359.86 -0.729322 3.73445 0
M  V30 3740 H 359.372 1.09539 3.72321 0
M  V30 3741 H 357.473 -1.35734 3.46997 0
M  V30 3742 H 357.586 -0.013741 4.79098 0
M  V30 3743 H 355.95 -0.104062 2.54487 0
M  V30 3744 H 356.733 1.47197 3.10142 0
M  V30 3745 N 359.178 -1.55987 0.224894 0
M  V30 3746 C 360.088 -2.24066 -0.69511 0
M  V30 3747 C 361.104 -1.24939 -1.21104 0
M  V30 3748 O 362.28 -1.5776 -1.25195 0
M  V30 3749 C 359.345 -2.90983 -1.88493 0
M  V30 3750 C 358.406 -4.05462 -1.41064 0
M  V30 3751 C 357.639 -4.69179 -2.54375 0
M  V30 3752 O 357.862 -4.31895 -3.72589 0
M  V30 3753 O 356.796 -5.58108 -2.25386 0
M  V30 3754 H 360.622 -3.03353 -0.145149 0
M  V30 3755 H 358.207 -1.49399 -0.00569476 0
M  V30 3756 H 360.089 -3.33209 -2.57972 0
M  V30 3757 H 358.764 -2.14653 -2.42293 0
M  V30 3758 H 357.671 -3.67798 -0.683774 0
M  V30 3759 H 359.004 -4.83545 -0.918985 0
M  V30 3760 N 360.656 0.0484629 -1.57525 0
M  V30 3761 C 361.905 0.742065 -1.87553 0
M  V30 3762 C 362.218 1.77545 -0.820802 0
M  V30 3763 O 363.424 2.52027 -1.00967 0
M  V30 3764 C 361.88 1.37081 -3.32771 0
M  V30 3765 C 361.488 0.374786 -4.4643 0
M  V30 3766 C 363.232 2.04542 -3.71972 0
M  V30 3767 C 361.139 1.01077 -5.82698 0
M  V30 3768 H 360.069 0.280903 -0.699721 0
M  V30 3769 H 362.72 -0.00411877 -1.835 0
M  V30 3770 H 361.102 2.16605 -3.31509 0
M  V30 3771 H 362.276 -0.392331 -4.59127 0
M  V30 3772 H 360.591 -0.196653 -4.15935 0
M  V30 3773 H 363.188 2.52943 -4.71088 0
M  V30 3774 H 363.531 2.85515 -3.02964 0
M  V30 3775 H 364.064 1.31819 -3.75325 0
M  V30 3776 H 360.803 0.240878 -6.55057 0
M  V30 3777 H 360.323 1.74819 -5.73758 0
M  V30 3778 H 362.002 1.52383 -6.28799 0
M  V30 3779 N 362.134 1.5431 0.320358 0
M  V30 3780 C 363.411 1.63322 1.07635 0
M  V30 3781 C 363.791 0.46912 2.05821 0
M  V30 3782 O 363.139 -0.536274 2.22118 0
M  V30 3783 C 363.349 3.00465 1.77544 0
M  V30 3784 C 364.697 3.56621 2.30449 0
M  V30 3785 O 365.721 3.02791 1.87606 0
M  V30 3786 O 364.58 4.5083 3.08892 0
M  V30 3787 H 361.674 0.661502 0.496331 0
M  V30 3788 H 364.22 1.66656 0.319992 0
M  V30 3789 H 362.992 3.76629 1.06143 0
M  V30 3790 H 362.615 3.00824 2.59982 0
M  V30 3791 N 363.613 -0.582584 1.46437 0
M  V30 3792 C 364.546 -1.70633 1.51524 0
M  V30 3793 C 365.524 -1.58349 0.369351 0
M  V30 3794 O 366.708 -1.79563 0.573516 0
M  V30 3795 C 363.835 -3.08687 1.39392 0
M  V30 3796 C 362.881 -3.3949 2.58164 0
M  V30 3797 S 363.714 -3.31548 4.20519 0
M  V30 3798 C 364.87 -4.72139 4.10896 0
M  V30 3799 H 365.103 -1.66058 2.46601 0
M  V30 3800 H 362.636 -0.761337 1.34324 0
M  V30 3801 H 364.594 -3.8833 1.33079 0
M  V30 3802 H 363.255 -3.10751 0.457436 0
M  V30 3803 H 362.448 -4.40071 2.45669 0
M  V30 3804 H 362.05 -2.67415 2.61468 0
M  V30 3805 H 364.342 -5.62527 3.77584 0
M  V30 3806 H 365.285 -4.89692 5.11476 0
M  V30 3807 H 365.693 -4.48995 3.42146 0
M  V30 3808 N 365.091 -1.34144 -0.827227 0
M  V30 3809 C 366.502 -1.23557 -1.39966 0
M  V30 3810 C 366.853 0.140731 -1.95695 0
M  V30 3811 O 365.978 1.04087 -1.89723 0
M  V30 3812 C 366.573 -2.23708 -2.54441 0
M  V30 3813 C 365.132 -2.16924 -3.07605 0
M  V30 3814 C 364.279 -2.10549 -1.80456 0
M  V30 3815 H 367.23 -1.45573 -0.631991 0
M  V30 3816 H 367.251 -1.85157 -3.32411 0
M  V30 3817 H 366.763 -3.23866 -2.13851 0
M  V30 3818 H 364.864 -1.20107 -3.52711 0
M  V30 3819 H 364.977 -3.07988 -3.66988 0
M  V30 3820 H 363.341 -1.56203 -2.01178 0
M  V30 3821 H 364.124 -3.12535 -1.42046 0
M  V30 3822 N 366.569 1.04691 -1.17803 0
M  V30 3823 C 367.817 1.7743 -0.967617 0
M  V30 3824 C 368.138 1.88359 0.504574 0
M  V30 3825 O 367.408 1.40402 1.36617 0
M  V30 3826 H 365.988 0.657242 -0.355024 0
M  V30 3827 H 368.65 1.2638 -1.48371 0
M  V30 3828 H 367.746 2.78924 -1.40027 0
M  V30 3829 N 368.047 0.979072 1.23499 0
M  V30 3830 C 368.997 0.489378 2.22686 0
M  V30 3831 C 369.981 -0.434871 1.54912 0
M  V30 3832 O 371.173 -0.263941 1.75021 0
M  V30 3833 C 368.302 -0.208178 3.42668 0
M  V30 3834 C 367.388 0.735563 4.17672 0
M  V30 3835 N 367.779 1.87763 4.69658 0
M  V30 3836 C 366.077 0.548625 4.42613 0
M  V30 3837 C 366.778 2.46886 5.26709 0
M  V30 3838 N 365.754 1.75287 5.14563 0
M  V30 3839 H 369.556 1.36062 2.60508 0
M  V30 3840 H 367.07 0.83958 1.39014 0
M  V30 3841 H 369.067 -0.576295 4.12898 0
M  V30 3842 H 367.727 -1.07572 3.06363 0
M  V30 3843 H 368.738 2.25885 4.66043 0
M  V30 3844 H 365.415 -0.274006 4.166 0
M  V30 3845 H 366.805 3.43326 5.77561 0
M  V30 3846 N 369.525 -1.3858 0.750561 0
M  V30 3847 C 370.753 -2.04471 0.316098 0
M  V30 3848 C 371.168 -1.56606 -1.05452 0
M  V30 3849 O 370.525 -0.737784 -1.66922 0
M  V30 3850 C 370.576 -3.60025 0.326275 0
M  V30 3851 O 370.297 -4.06133 1.6428 0
M  V30 3852 C 371.798 -4.43131 -0.122429 0
M  V30 3853 H 369.018 -0.65717 0.135528 0
M  V30 3854 H 371.562 -1.77329 1.01857 0
M  V30 3855 H 369.717 -3.86014 -0.327431 0
M  V30 3856 H 370.131 -5.00547 1.56693 0
M  V30 3857 H 371.605 -5.51963 -0.0641473 0
M  V30 3858 H 372.082 -4.23333 -1.16988 0
M  V30 3859 H 372.688 -4.22323 0.50229 0
M  V30 3860 N 371.003 -0.499398 -1.49478 0
M  V30 3861 C 371.951 0.293604 -2.3074 0
M  V30 3862 C 372.945 0.96427 -1.39277 0
M  V30 3863 O 374.151 0.892141 -1.56336 0
M  V30 3864 H 370.526 0.113541 -0.743379 0
M  V30 3865 H 372.497 -0.411772 -2.95545 0
M  V30 3866 C 371.246 1.3462 -3.20582 0
M  V30 3867 H 370.569 0.83954 -3.90886 0
M  V30 3868 H 372.009 1.87308 -3.80384 0
M  V30 3869 C 370.468 2.36351 -2.40083 0
M  V30 3870 O 370.998 3.422 -2.10385 0
M  V30 3871 N 369.204 2.0878 -2.02137 0
M  V30 3872 H 368.751 1.22723 -2.26488 0
M  V30 3873 H 368.709 2.77075 -1.48583 0
M  V30 3874 N 372.481 1.55866 -0.233164 0
M  V30 3875 C 373.444 2.1953 0.658715 0
M  V30 3876 C 374.444 1.16053 1.11303 0
M  V30 3877 O 375.634 1.41218 1.01996 0
M  V30 3878 C 372.766 2.82791 1.90373 0
M  V30 3879 H 373.959 2.99721 0.10347 0
M  V30 3880 H 371.512 1.56291 0.0164245 0
M  V30 3881 H 372.247 2.06501 2.50056 0
M  V30 3882 H 372.032 3.58578 1.58632 0
M  V30 3883 H 373.522 3.31556 2.53891 0
M  V30 3884 N 373.959 -0.0401083 1.57549 0
M  V30 3885 C 374.922 -1.02871 2.04817 0
M  V30 3886 C 375.922 -1.29708 0.950388 0
M  V30 3887 O 377.112 -1.24897 1.21435 0
M  V30 3888 C 374.244 -2.36443 2.45576 0
M  V30 3889 H 375.437 -0.620631 2.93408 0
M  V30 3890 H 372.99 -0.286667 1.53649 0
M  V30 3891 H 373.725 -2.82021 1.60108 0
M  V30 3892 H 373.51 -2.18296 3.25713 0
M  V30 3893 H 375 -3.07441 2.82612 0
M  V30 3894 N 375.437 -1.54477 -0.31217 0
M  V30 3895 C 376.367 -1.87652 -1.38957 0
M  V30 3896 C 377.348 -0.734358 -1.53431 0
M  V30 3897 O 378.533 -0.98911 -1.67123 0
M  V30 3898 C 375.663 -2.11396 -2.75552 0
M  V30 3899 C 374.617 -3.27243 -2.75855 0
M  V30 3900 C 373.943 -3.36382 -4.15633 0
M  V30 3901 C 375.243 -4.64622 -2.38587 0
M  V30 3902 H 376.937 -2.77887 -1.11442 0
M  V30 3903 H 374.483 -1.33707 -0.534655 0
M  V30 3904 H 376.436 -2.33189 -3.51 0
M  V30 3905 H 375.16 -1.17921 -3.04569 0
M  V30 3906 H 373.819 -3.05356 -2.02863 0
M  V30 3907 H 373.467 -2.40445 -4.41809 0
M  V30 3908 H 373.167 -4.14249 -4.1674 0
M  V30 3909 H 374.691 -3.60422 -4.92877 0
M  V30 3910 H 376.105 -4.86219 -3.03749 0
M  V30 3911 H 374.502 -5.45121 -2.50925 0
M  V30 3912 H 375.572 -4.66097 -1.33723 0
M  V30 3913 N 376.915 0.57481 -1.46744 0
M  V30 3914 C 377.878 1.66533 -1.57478 0
M  V30 3915 C 378.878 1.54338 -0.451263 0
M  V30 3916 O 380.068 1.58814 -0.715813 0
M  V30 3917 C 377.2 3.05999 -1.50259 0
M  V30 3918 H 378.393 1.58372 -2.54673 0
M  V30 3919 H 375.946 0.793301 -1.34672 0
M  V30 3920 H 376.681 3.19709 -0.543725 0
M  V30 3921 H 376.466 3.16259 -2.31781 0
M  V30 3922 H 377.956 3.8537 -1.60872 0
M  V30 3923 N 378.394 1.34581 0.820102 0
M  V30 3924 C 379.619 1.30333 1.61332 0
M  V30 3925 C 380.044 -0.119339 1.87721 0
M  V30 3926 O 379.402 -1.08197 1.45475 0
M  V30 3927 C 379.45 2.10258 2.92957 0
M  V30 3928 O 378.554 1.47404 3.85157 0
M  V30 3929 H 377.895 0.447488 0.490561 0
M  V30 3930 H 380.425 1.77425 1.01889 0
M  V30 3931 H 380.435 2.21718 3.42498 0
M  V30 3932 H 379.11 3.13693 2.73074 0
M  V30 3933 H 377.687 1.44703 3.43679 0
M  V30 3934 N 379.872 -1.04064 1.18357 0
M  V30 3935 C 381.102 -1.80654 1.00238 0
M  V30 3936 C 381.51 -1.83713 -0.452362 0
M  V30 3937 O 380.853 -1.27135 -1.32599 0
M  V30 3938 C 380.915 -3.27582 1.48088 0
M  V30 3939 C 380.579 -3.48184 2.96002 0
M  V30 3940 C 381.576 -3.39372 3.93856 0
M  V30 3941 C 379.261 -3.7478 3.34433 0
M  V30 3942 C 381.255 -3.5686 5.28138 0
M  V30 3943 C 378.942 -3.91915 4.68877 0
M  V30 3944 C 379.94 -3.82956 5.65539 0
M  V30 3945 O 379.628 -3.996 6.97549 0
M  V30 3946 H 379.36 -0.575751 0.354241 0
M  V30 3947 H 381.914 -1.32044 1.57333 0
M  V30 3948 H 380.144 -3.77161 0.853588 0
M  V30 3949 H 381.833 -3.8573 1.2636 0
M  V30 3950 H 382.599 -3.18789 3.65511 0
M  V30 3951 H 378.478 -3.80852 2.59756 0
M  V30 3952 H 382.022 -3.49783 6.03571 0
M  V30 3953 H 377.919 -4.11992 4.96923 0
M  V30 3954 H 378.687 -4.1676 7.04452 0
M  V30 3955 N 381.35 -0.985608 -1.22978 0
M  V30 3956 C 382.313 -0.535071 -2.22867 0
M  V30 3957 C 383.313 0.378123 -1.56291 0
M  V30 3958 O 384.503 0.171092 -1.73358 0
M  V30 3959 C 381.635 0.222702 -3.40172 0
M  V30 3960 H 382.828 -1.41835 -2.6424 0
M  V30 3961 H 380.381 -0.772042 -1.35901 0
M  V30 3962 H 381.116 1.12229 -3.04262 0
M  V30 3963 H 380.901 -0.43288 -3.89703 0
M  V30 3964 H 382.391 0.526335 -4.1427 0
M  V30 3965 N 382.828 1.3818 -0.7579 0
M  V30 3966 C 383.738 2.3421 -0.135247 0
M  V30 3967 C 384.754 1.59487 0.695683 0
M  V30 3968 O 385.93 1.91657 0.618832 0
M  V30 3969 C 382.995 3.3862 0.744139 0
M  V30 3970 C 382.056 4.2918 -0.101658 0
M  V30 3971 C 381.289 5.28603 0.735851 0
M  V30 3972 O 381.512 5.35166 1.97366 0
M  V30 3973 O 380.446 6.01707 0.152372 0
M  V30 3974 H 384.272 2.8916 -0.928436 0
M  V30 3975 H 381.857 1.40101 -0.518855 0
M  V30 3976 H 383.739 4.02539 1.2466 0
M  V30 3977 H 382.414 2.86019 1.51575 0
M  V30 3978 H 381.321 3.68407 -0.650167 0
M  V30 3979 H 382.654 4.85048 -0.836024 0
M  V30 3980 N 384.306 0.507319 1.49211 0
M  V30 3981 C 385.236 -0.256939 2.32082 0
M  V30 3982 C 386.217 -0.956609 1.40652 0
M  V30 3983 O 387.402 -0.946788 1.69557 0
M  V30 3984 C 384.532 -1.31802 3.21318 0
M  V30 3985 C 383.486 -0.737855 4.21592 0
M  V30 3986 C 382.812 -1.89992 4.99807 0
M  V30 3987 C 384.112 0.275325 5.21574 0
M  V30 3988 H 385.806 0.434798 2.96226 0
M  V30 3989 H 383.352 0.210546 1.42452 0
M  V30 3990 H 385.305 -1.86045 3.78107 0
M  V30 3991 H 384.029 -2.03903 2.5513 0
M  V30 3992 H 382.688 -0.217126 3.65956 0
M  V30 3993 H 382.336 -2.60877 4.30061 0
M  V30 3994 H 382.036 -1.51777 5.6766 0
M  V30 3995 H 383.56 -2.44657 5.59442 0
M  V30 3996 H 384.974 -0.179193 5.7302 0
M  V30 3997 H 383.371 0.573649 5.97352 0
M  V30 3998 H 384.441 1.18903 4.70096 0
M  V30 3999 N 385.784 -1.5574 0.241426 0
M  V30 4000 C 386.732 -2.22538 -0.676718 0
M  V30 4001 C 387.726 -1.21117 -1.18436 0
M  V30 4002 O 388.932 -1.39144 -1.14188 0
M  V30 4003 H 385.307 -0.713776 -0.236701 0
M  V30 4004 H 387.278 -2.98264 -0.0901187 0
M  V30 4005 C 386.027 -2.93439 -1.86518 0
M  V30 4006 H 385.35 -3.7125 -1.4837 0
M  V30 4007 H 386.79 -3.43549 -2.48495 0
M  V30 4008 C 385.249 -1.97008 -2.73294 0
M  V30 4009 O 385.779 -1.49965 -3.72657 0
M  V30 4010 N 383.985 -1.64227 -2.39745 0
M  V30 4011 H 383.532 -2.02677 -1.58996 0
M  V30 4012 H 383.49 -0.999708 -2.98083 0
M  V30 4013 N 387.262 0.0317525 -1.57568 0
M  V30 4014 C 388.502 0.727979 -1.90997 0
M  V30 4015 C 388.866 1.72664 -0.839708 0
M  V30 4016 O 390.067 2.47092 -1.05825 0
M  V30 4017 C 388.338 1.38239 -3.29583 0
M  V30 4018 S 389.897 2.10814 -3.84841 0
M  V30 4019 H 386.715 0.241226 -0.668828 0
M  V30 4020 H 389.317 -0.0173037 -1.95492 0
M  V30 4021 H 388.021 0.642288 -4.05343 0
M  V30 4022 H 387.552 2.16628 -3.28384 0
M  V30 4023 H 389.567 3.3792 -3.63352 0
M  V30 4024 N 388.74 1.54641 0.303973 0
M  V30 4025 C 390.017 1.64455 1.05896 0
M  V30 4026 C 390.397 0.490923 2.05312 0
M  V30 4027 O 389.745 -0.512685 2.22674 0
M  V30 4028 C 389.955 3.02331 1.74347 0
M  V30 4029 C 391.303 3.59045 2.26653 0
M  V30 4030 O 392.327 3.04764 1.84384 0
M  V30 4031 O 391.186 4.54081 3.04093 0
M  V30 4032 H 388.28 0.666729 0.489287 0
M  V30 4033 H 390.826 1.66986 0.302298 0
M  V30 4034 H 389.598 3.77734 1.02142 0
M  V30 4035 H 389.221 3.03565 2.56777 0
M  V30 4036 N 390.218 -0.567019 1.47046 0
M  V30 4037 C 391.466 -1.322 1.52864 0
M  V30 4038 C 391.787 -1.94088 0.188388 0
M  V30 4039 O 391.057 -1.7941 -0.786693 0
M  V30 4040 H 389.637 -0.490894 0.563056 0
M  V30 4041 H 392.299 -0.662879 1.83281 0
M  V30 4042 H 391.395 -2.12062 2.2899 0
M  V30 4043 N 391.696 -1.35014 -0.812953 0
M  V30 4044 C 392.942 -1.2812 -1.57204 0
M  V30 4045 C 393.275 0.145869 -1.93651 0
M  V30 4046 O 392.55 1.0937 -1.60836 0
M  V30 4047 C 392.833 -2.18162 -2.86492 0
M  V30 4048 C 392.686 -3.69454 -2.56561 0
M  V30 4049 C 394.005 -2.07439 -3.88145 0
M  V30 4050 H 391.124 -0.466746 -0.570366 0
M  V30 4051 H 393.766 -1.65357 -0.935783 0
M  V30 4052 H 391.916 -1.86535 -3.40789 0
M  V30 4053 H 393.588 -4.11493 -2.08497 0
M  V30 4054 H 391.831 -3.9005 -1.89851 0
M  V30 4055 H 392.502 -4.27835 -3.48799 0
M  V30 4056 H 394.978 -2.35228 -3.4323 0
M  V30 4057 H 393.854 -2.7265 -4.76396 0
M  V30 4058 H 394.115 -1.05439 -4.29343 0
M  V30 4059 N 393.175 1.03435 -1.18907 0
M  V30 4060 C 394.138 2.09756 -0.923844 0
M  V30 4061 C 395.138 1.60528 0.093416 0
M  V30 4062 O 396.328 1.73631 -0.140727 0
M  V30 4063 C 393.46 3.38692 -0.387354 0
M  V30 4064 H 394.653 2.34719 -1.86674 0
M  V30 4065 H 392.206 1.19959 -1.00197 0
M  V30 4066 H 392.941 3.19396 0.561845 0
M  V30 4067 H 392.726 3.75742 -1.12074 0
M  V30 4068 H 394.216 4.17016 -0.220694 0
M  V30 4069 N 394.653 0.992116 1.22453 0
M  V30 4070 C 396.064 0.702776 1.72968 0
M  V30 4071 C 396.415 -0.780399 1.80012 0
M  V30 4072 O 395.54 -1.61007 1.44589 0
M  V30 4073 C 396.135 1.26903 3.14135 0
M  V30 4074 C 394.694 1.02909 3.62059 0
M  V30 4075 C 393.841 1.38969 2.39964 0
M  V30 4076 H 396.792 1.16457 1.07812 0
M  V30 4077 H 396.813 0.647223 3.74955 0
M  V30 4078 H 396.325 2.34851 3.08977 0
M  V30 4079 H 394.426 -0.0337979 3.72585 0
M  V30 4080 H 394.539 1.69191 4.48231 0
M  V30 4081 H 392.903 0.808279 2.41535 0
M  V30 4082 H 393.686 2.4792 2.37467 0
M  V30 4083 N 396.131 -1.37776 0.765217 0
M  V30 4084 C 397.542 -1.82521 0.392819 0
M  V30 4085 C 397.893 -1.63789 -1.08017 0
M  V30 4086 O 397.018 -1.14542 -1.83601 0
M  V30 4087 C 397.613 -3.31358 0.706214 0
M  V30 4088 C 396.172 -3.74406 0.386952 0
M  V30 4089 C 395.319 -2.60394 0.953422 0
M  V30 4090 H 398.27 -1.2634 0.960412 0
M  V30 4091 H 398.291 -3.80498 -0.0114706 0
M  V30 4092 H 397.803 -3.44959 1.77833 0
M  V30 4093 H 395.904 -3.66377 -0.678112 0
M  V30 4094 H 396.017 -4.70749 0.890636 0
M  V30 4095 H 394.381 -2.51878 0.378064 0
M  V30 4096 H 395.164 -2.76791 2.03081 0
M  V30 4097 N 397.609 -0.515225 -1.4894 0
M  V30 4098 C 398.539 0.244628 -2.32215 0
M  V30 4099 C 399.52 0.949136 -1.41157 0
M  V30 4100 O 400.705 0.937783 -1.70057 0
M  V30 4101 C 397.835 1.30096 -3.22013 0
M  V30 4102 C 396.789 0.715486 -4.21977 0
M  V30 4103 C 396.115 1.87339 -5.00808 0
M  V30 4104 C 397.415 -0.302982 -5.2142 0
M  V30 4105 H 399.109 -0.450501 -2.95991 0
M  V30 4106 H 396.655 -0.218098 -1.42339 0
M  V30 4107 H 398.608 1.84037 -3.79089 0
M  V30 4108 H 397.332 2.02547 -2.56207 0
M  V30 4109 H 395.991 0.197715 -3.66066 0
M  V30 4110 H 395.639 2.58592 -4.31438 0
M  V30 4111 H 395.339 1.48764 -5.68457 0
M  V30 4112 H 396.863 2.41686 -5.60732 0
M  V30 4113 H 398.277 0.148802 -5.73107 0
M  V30 4114 H 396.674 -0.60532 -5.97039 0
M  V30 4115 H 397.744 -1.21395 -4.69459 0
M  V30 4116 N 399.087 1.5561 -0.249682 0
M  V30 4117 C 400.317 2.03116 0.377803 0
M  V30 4118 C 400.725 1.12822 1.51881 0
M  V30 4119 O 400.068 0.13562 1.83199 0
M  V30 4120 C 400.13 3.46866 0.944693 0
M  V30 4121 C 399.794 4.56955 -0.0644259 0
M  V30 4122 C 400.791 5.12485 -0.874957 0
M  V30 4123 C 398.476 5.01936 -0.19132 0
M  V30 4124 C 400.47 6.11491 -1.79881 0
M  V30 4125 C 398.157 6.00773 -1.11868 0
M  V30 4126 C 399.155 6.5543 -1.92095 0
M  V30 4127 O 398.843 7.5234 -2.83267 0
M  V30 4128 H 398.575 0.669489 0.0935961 0
M  V30 4129 H 401.129 2.02004 -0.371966 0
M  V30 4130 H 399.359 3.45136 1.74407 0
M  V30 4131 H 401.048 3.77856 1.48255 0
M  V30 4132 H 401.814 4.78564 -0.787523 0
M  V30 4133 H 397.693 4.59055 0.423072 0
M  V30 4134 H 401.237 6.54078 -2.42543 0
M  V30 4135 H 397.134 6.34114 -1.20703 0
M  V30 4136 H 397.902 7.69966 -2.7766 0
M  V30 4137 N 400.565 -0.0233959 1.57583 0
M  V30 4138 C 401.793 -0.724682 1.93794 0
M  V30 4139 C 402.208 -1.68588 0.849912 0
M  V30 4140 O 401.565 -1.81676 -0.173204 0
M  V30 4141 C 401.616 -1.47684 3.29957 0
M  V30 4142 O 401.337 -0.554222 4.3458 0
M  V30 4143 C 402.838 -2.27477 3.80485 0
M  V30 4144 H 400.058 -0.203317 0.639455 0
M  V30 4145 H 402.602 0.0207653 2.04489 0
M  V30 4146 H 400.757 -2.17412 3.20641 0
M  V30 4147 H 401.171 -1.08232 5.13212 0
M  V30 4148 H 402.645 -2.7564 4.78254 0
M  V30 4149 H 403.122 -3.09144 3.11972 0
M  V30 4150 H 403.728 -1.62813 3.92902 0
M  V30 4151 N 402.043 -1.548 -0.295768 0
M  V30 4152 C 403.291 -1.73985 -1.02828 0
M  V30 4153 C 403.612 -0.531406 -1.87619 0
M  V30 4154 O 402.882 0.454221 -1.90561 0
M  V30 4155 H 401.462 -0.641556 -0.382642 0
M  V30 4156 H 404.124 -1.92163 -0.325489 0
M  V30 4157 H 403.22 -2.63129 -1.67838 0
M  V30 4158 N 403.521 0.559213 -1.47345 0
M  V30 4159 C 404.749 1.34194 -1.57479 0
M  V30 4160 C 405.164 1.87463 -0.224261 0
M  V30 4161 O 404.521 1.64888 0.782185 0
M  V30 4162 C 404.572 2.51324 -2.59843 0
M  V30 4163 O 404.293 2.00256 -3.89653 0
M  V30 4164 C 405.794 3.43563 -2.80142 0
M  V30 4165 H 403.014 0.409136 -0.531835 0
M  V30 4166 H 405.558 0.677609 -1.92947 0
M  V30 4167 H 403.713 3.13699 -2.27314 0
M  V30 4168 H 404.127 2.76708 -4.4557 0
M  V30 4169 H 405.601 4.2217 -3.55635 0
M  V30 4170 H 406.078 3.9698 -1.87892 0
M  V30 4171 H 406.684 2.87005 -3.1386 0
M  V30 4172 N 404.999 1.35443 0.805782 0
M  V30 4173 C 405.946 1.28431 1.91766 0
M  V30 4174 C 406.916 0.156102 1.65365 0
M  V30 4175 O 408.101 0.339936 1.87747 0
M  V30 4176 C 405.241 1.06301 3.2832 0
M  V30 4177 C 404.354 2.2805 3.66902 0
M  V30 4178 C 403.489 1.99064 4.92491 0
M  V30 4179 C 402.528 3.16863 5.23703 0
M  V30 4180 N 401.665 2.87647 6.40471 0
M  V30 4181 H 406.505 2.23511 1.97096 0
M  V30 4182 H 404.042 1.11105 0.964054 0
M  V30 4183 H 406 0.915012 4.07042 0
M  V30 4184 H 404.63 0.148822 3.22457 0
M  V30 4185 H 403.682 2.53711 2.83434 0
M  V30 4186 H 404.994 3.1601 3.85927 0
M  V30 4187 H 404.148 1.81099 5.7904 0
M  V30 4188 H 402.887 1.0839 4.75503 0
M  V30 4189 H 401.892 3.35404 4.35642 0
M  V30 4190 H 403.117 4.08339 5.4262 0
M  V30 4191 H 401.063 1.99568 6.24907 0
M  V30 4192 H 400.98 3.69141 6.59751 0
M  V30 4193 H 402.248 2.73226 7.30047 0
M  V30 4194 N 406.477 -1.02803 1.19454 0
M  V30 4195 C 407.723 -1.76478 0.999171 0
M  V30 4196 C 408.056 -1.88456 -0.468828 0
M  V30 4197 O 407.331 -1.40198 -1.34814 0
M  V30 4198 C 407.614 -3.19044 1.66981 0
M  V30 4199 C 407.467 -3.14932 3.21151 0
M  V30 4200 C 408.786 -4.17456 1.39349 0
M  V30 4201 H 405.905 -0.640614 0.364393 0
M  V30 4202 H 408.547 -1.20005 1.47305 0
M  V30 4203 H 406.697 -3.67263 1.2669 0
M  V30 4204 H 408.369 -2.74605 3.70661 0
M  V30 4205 H 406.612 -2.52625 3.52652 0
M  V30 4206 H 407.283 -4.1566 3.63223 0
M  V30 4207 H 409.759 -3.77842 1.74283 0
M  V30 4208 H 408.635 -5.154 1.88823 0
M  V30 4209 H 408.896 -4.40949 0.318813 0
M  V30 4210 N 407.956 -0.998596 -1.21925 0
M  V30 4211 C 409.204 -0.676325 -1.90448 0
M  V30 4212 C 409.525 0.794719 -1.78071 0
M  V30 4213 O 408.795 1.5701 -1.17152 0
M  V30 4214 H 407.375 -0.247165 -0.704925 0
M  V30 4215 H 410.037 -1.26633 -1.48156 0
M  V30 4216 H 409.133 -0.943858 -2.97486 0
M  V30 4217 N 409.434 1.37368 -0.772513 0
M  V30 4218 C 410.681 1.99673 -0.337182 0
M  V30 4219 C 411.009 1.61324 1.0865 0
M  V30 4220 O 410.264 0.851377 1.7621 0
M  V30 4221 C 410.563 3.54817 -0.428876 0
M  V30 4222 C 410.229 4.12936 -1.81092 0
M  V30 4223 C 408.891 4.28523 -2.1891 0
M  V30 4224 C 411.243 4.44801 -2.71664 0
M  V30 4225 C 408.571 4.73277 -3.46735 0
M  V30 4226 C 410.923 4.90981 -3.98899 0
M  V30 4227 C 409.587 5.04773 -4.36761 0
M  V30 4228 H 408.857 0.730656 -0.123384 0
M  V30 4229 H 411.504 1.64124 -0.986686 0
M  V30 4230 H 409.809 3.90618 0.304167 0
M  V30 4231 H 411.506 4.00933 -0.0733334 0
M  V30 4232 H 408.096 4.01233 -1.50699 0
M  V30 4233 H 412.28 4.32344 -2.43706 0
M  V30 4234 H 407.536 4.82142 -3.75964 0
M  V30 4235 H 411.71 5.14603 -4.69208 0
M  V30 4236 H 409.337 5.39211 -5.35868 0
M  V30 4237 N 410.912 0.523116 1.48665 0
M  V30 4238 C 412.137 -0.0117284 2.07397 0
M  V30 4239 C 412.562 -1.28031 1.37803 0
M  V30 4240 O 411.92 -1.75836 0.441762 0
M  V30 4241 C 411.968 -0.225786 3.59892 0
M  V30 4242 O 411.072 -1.29592 3.91509 0
M  V30 4243 H 410.413 0.0360673 0.66302 0
M  V30 4244 H 412.943 0.729066 1.9117 0
M  V30 4245 H 412.953 -0.450552 4.05505 0
M  V30 4246 H 411.628 0.700944 4.09951 0
M  V30 4247 H 410.205 -1.05436 3.57684 0
M  V30 4248 N 412.39 -1.55475 0.257931 0
M  V30 4249 C 413.615 -2.04064 -0.370488 0
M  V30 4250 C 414.04 -1.13565 -1.49948 0
M  V30 4251 O 413.398 -0.130781 -1.80828 0
M  V30 4252 C 413.446 -3.50554 -0.845237 0
M  V30 4253 O 412.55 -3.63173 -1.95394 0
M  V30 4254 H 411.891 -0.659257 -0.0792243 0
M  V30 4255 H 414.421 -2.00903 0.387212 0
M  V30 4256 H 414.431 -3.91588 -1.14555 0
M  V30 4257 H 413.106 -4.15896 -0.0191259 0
M  V30 4258 H 411.683 -3.34039 -1.65748 0
M  V30 4259 N 413.868 0.0150385 -1.57593 0
M  V30 4260 C 414.798 1.01047 -2.10503 0
M  V30 4261 C 415.779 1.36816 -1.01071 0
M  V30 4262 O 416.964 1.45455 -1.28672 0
M  V30 4263 C 414.094 2.30708 -2.59598 0
M  V30 4264 C 413.048 2.09142 -3.73421 0
M  V30 4265 C 412.374 3.44685 -4.08774 0
M  V30 4266 C 413.674 1.46619 -5.01298 0
M  V30 4267 H 415.368 0.569978 -2.93925 0
M  V30 4268 H 412.914 0.272724 -1.41394 0
M  V30 4269 H 414.867 3.00687 -2.95238 0
M  V30 4270 H 413.591 2.76843 -1.73279 0
M  V30 4271 H 412.25 1.41592 -3.38153 0
M  V30 4272 H 411.898 3.88495 -3.195 0
M  V30 4273 H 411.598 3.31077 -4.8545 0
M  V30 4274 H 413.122 4.16004 -4.4696 0
M  V30 4275 H 414.536 2.06535 -5.34805 0
M  V30 4276 H 412.933 1.43544 -5.82679 0
M  V30 4277 H 414.003 0.433611 -4.82957 0
M  V30 4278 N 415.346 1.54954 0.287554 0
M  V30 4279 C 416.586 1.76617 1.02887 0
M  V30 4280 C 416.95 0.547759 1.84021 0
M  V30 4281 O 418.151 0.642365 2.61012 0
M  V30 4282 C 416.422 3.02717 1.89993 0
M  V30 4283 S 417.981 3.45438 2.70588 0
M  V30 4284 H 414.799 0.6207 0.346775 0
M  V30 4285 H 417.401 1.93172 0.30082 0
M  V30 4286 H 416.105 3.89503 1.29287 0
M  V30 4287 H 415.636 2.88787 2.67144 0
M  V30 4288 H 417.651 3.03566 3.92508 0
M  V30 4289 N 416.824 -0.551391 1.4764 0
M  V30 4290 C 418.07 -1.31024 1.54792 0
M  V30 4291 C 418.403 -1.9304 0.211967 0
M  V30 4292 O 417.678 -1.78175 -0.77999 0
M  V30 4293 C 417.961 -2.41593 2.67029 0
M  V30 4294 C 417.814 -1.84408 4.10261 0
M  V30 4295 C 419.133 -3.43488 2.75143 0
M  V30 4296 H 416.252 -0.475031 0.563485 0
M  V30 4297 H 418.894 -0.616454 1.79722 0
M  V30 4298 H 417.044 -3.00772 2.45904 0
M  V30 4299 H 418.716 -1.29445 4.42766 0
M  V30 4300 H 416.959 -1.15051 4.18265 0
M  V30 4301 H 417.63 -2.64367 4.84576 0
M  V30 4302 H 420.106 -2.94236 2.94218 0
M  V30 4303 H 418.982 -4.18274 3.55441 0
M  V30 4304 H 419.243 -4.02703 1.82435 0
M  V30 4305 N 418.302 -1.35869 -0.798587 0
M  V30 4306 C 419.579 -1.20145 -1.54352 0
M  V30 4307 C 419.959 0.216161 -2.0999 0
M  V30 4308 O 419.307 1.22068 -1.93162 0
M  V30 4309 C 419.517 -2.27602 -2.64572 0
M  V30 4310 C 420.865 -2.63811 -3.32699 0
M  V30 4311 O 421.889 -2.26576 -2.74849 0
M  V30 4312 O 420.748 -3.27866 -4.37226 0
M  V30 4313 H 417.842 -0.467248 -0.682355 0
M  V30 4314 H 420.388 -1.47574 -0.837859 0
M  V30 4315 H 419.16 -3.2265 -2.21388 0
M  V30 4316 H 418.783 -2.01488 -3.42766 0
M  V30 4317 N 419.78 1.02168 -1.19998 0
M  V30 4318 C 420.727 2.10601 -0.944228 0
M  V30 4319 C 421.697 1.65639 0.123664 0
M  V30 4320 O 422.882 1.9079 -0.0199941 0
M  V30 4321 C 420.022 3.41504 -0.496865 0
M  V30 4322 C 419.135 3.99973 -1.63234 0
M  V30 4323 C 418.27 5.18915 -1.13579 0
M  V30 4324 C 417.309 5.69456 -2.24468 0
M  V30 4325 N 416.446 6.79665 -1.76068 0
M  V30 4326 H 421.286 2.31814 -1.8726 0
M  V30 4327 H 418.823 1.13686 -0.933483 0
M  V30 4328 H 420.781 4.16626 -0.218843 0
M  V30 4329 H 419.411 3.2038 0.394508 0
M  V30 4330 H 418.463 3.21997 -2.0254 0
M  V30 4331 H 419.775 4.33492 -2.46752 0
M  V30 4332 H 418.929 6.01222 -0.813429 0
M  V30 4333 H 417.668 4.8695 -0.270434 0
M  V30 4334 H 416.673 4.85757 -2.57526 0
M  V30 4335 H 417.898 6.03459 -3.11472 0
M  V30 4336 H 415.844 6.49538 -0.918516 0
M  V30 4337 H 415.761 7.12349 -2.5317 0
M  V30 4338 H 417.029 7.65549 -1.46817 0
M  V30 4339 N 421.258 1.00505 1.21394 0
M  V30 4340 C 422.535 0.603277 1.86064 0
M  V30 4341 C 422.915 -0.919095 1.90042 0
M  V30 4342 O 422.263 -1.80607 1.39977 0
M  V30 4343 C 422.473 1.23772 3.26315 0
M  V30 4344 C 423.821 1.34586 4.02705 0
M  V30 4345 O 424.845 1.19304 3.35626 0
M  V30 4346 O 423.704 1.59169 5.22807 0
M  V30 4347 H 420.798 0.206634 0.800769 0
M  V30 4348 H 423.344 1.1017 1.29076 0
M  V30 4349 H 422.116 2.27848 3.18121 0
M  V30 4350 H 421.739 0.725648 3.90922 0
M  V30 4351 N 422.737 -1.36956 0.779787 0
M  V30 4352 C 423.983 -1.99787 0.348281 0
M  V30 4353 C 424.316 -1.61756 -1.07465 0
M  V30 4354 O 423.591 -0.867639 -1.74075 0
M  V30 4355 C 423.874 -3.56597 0.50104 0
M  V30 4356 C 423.727 -4.04513 1.96697 0
M  V30 4357 C 425.046 -4.40008 -0.0898097 0
M  V30 4358 H 422.165 -0.725796 0.128022 0
M  V30 4359 H 424.807 -1.62514 0.984331 0
M  V30 4360 H 422.957 -3.88479 -0.0404347 0
M  V30 4361 H 424.629 -3.83161 2.56876 0
M  V30 4362 H 422.872 -3.56408 2.47297 0
M  V30 4363 H 423.543 -5.1352 2.02486 0
M  V30 4364 H 426.019 -4.14431 0.372293 0
M  V30 4365 H 424.895 -5.4888 0.0471605 0
M  V30 4366 H 425.156 -4.26035 -1.18096 0
M  V30 4367 N 424.215 -0.530993 -1.48385 0
M  V30 4368 C 425.443 -0.00134122 -2.069 0
M  V30 4369 C 425.858 1.2805 -1.3874 0
M  V30 4370 O 425.215 1.76204 -0.475244 0
M  V30 4371 C 425.266 0.225256 -3.60798 0
M  V30 4372 O 424.987 -1.0058 -4.26398 0
M  V30 4373 C 426.488 0.795172 -4.3611 0
M  V30 4374 H 423.708 -0.0339704 -0.67014 0
M  V30 4375 H 426.252 -0.736926 -1.90761 0
M  V30 4376 H 424.407 0.910891 -3.76539 0
M  V30 4377 H 424.821 -0.787165 -5.1856 0
M  V30 4378 H 426.295 0.903143 -5.44562 0
M  V30 4379 H 426.772 1.80031 -4.00606 0
M  V30 4380 H 427.378 0.146069 -4.25049 0
M  V30 4381 N 425.693 1.55336 -0.266172 0
M  V30 4382 C 426.923 2.03506 0.356239 0
M  V30 4383 C 427.331 1.14426 1.50676 0
M  V30 4384 O 426.674 0.155043 1.83045 0
M  V30 4385 C 426.736 3.47848 0.90785 0
M  V30 4386 C 426.4 4.56861 -0.112888 0
M  V30 4387 C 427.397 5.11528 -0.929264 0
M  V30 4388 C 425.082 5.01704 -0.244546 0
M  V30 4389 C 427.076 6.09549 -1.86357 0
M  V30 4390 C 424.763 5.99553 -1.18234 0
M  V30 4391 C 425.761 6.53356 -1.99036 0
M  V30 4392 O 425.449 7.49293 -2.91231 0
M  V30 4393 H 425.181 0.670444 0.08649 0
M  V30 4394 H 427.735 2.01598 -0.39337 0
M  V30 4395 H 425.965 3.46967 1.70737 0
M  V30 4396 H 427.654 3.79407 1.44239 0
M  V30 4397 H 428.42 4.77701 -0.838237 0
M  V30 4398 H 424.299 4.59477 0.374359 0
M  V30 4399 H 427.843 6.51469 -2.49467 0
M  V30 4400 H 423.74 6.32799 -1.27421 0
M  V30 4401 H 424.508 7.66978 -2.8581 0
M  V30 4402 N 427.171 -0.0066808 1.57599 0
M  V30 4403 C 428.448 -0.729586 1.81484 0
M  V30 4404 C 428.828 -1.92359 0.869558 0
M  V30 4405 O 428.176 -2.28348 -0.0832533 0
M  V30 4406 C 428.386 -1.1416 3.29801 0
M  V30 4407 C 429.734 -1.54823 3.95367 0
M  V30 4408 O 430.758 -1.23558 3.34084 0
M  V30 4409 O 429.617 -2.12937 5.03309 0
M  V30 4410 H 426.711 -0.354674 0.747085 0
M  V30 4411 H 429.257 0.0182609 1.6969 0
M  V30 4412 H 428.029 -0.290231 3.90222 0
M  V30 4413 H 427.652 -1.94876 3.46568 0
M  V30 4414 N 428.649 -1.55105 -0.279332 0
M  V30 4415 C 429.896 -1.75412 -1.01177 0
M  V30 4416 C 430.224 -0.551728 -1.86511 0
M  V30 4417 O 429.479 0.465919 -1.90073 0
M  V30 4418 C 429.778 -3.0086 -1.92919 0
M  V30 4419 C 429.444 -4.33689 -1.23387 0
M  V30 4420 C 428.106 -4.69792 -1.04159 0
M  V30 4421 C 430.458 -5.15941 -0.738562 0
M  V30 4422 C 427.786 -5.85707 -0.341166 0
M  V30 4423 C 430.138 -6.32579 -0.0517636 0
M  V30 4424 C 428.802 -6.67326 0.152292 0
M  V30 4425 H 428.072 -0.641879 -0.370233 0
M  V30 4426 H 430.719 -1.89373 -0.284627 0
M  V30 4427 H 429.024 -2.81773 -2.72234 0
M  V30 4428 H 430.721 -3.13768 -2.49701 0
M  V30 4429 H 427.311 -4.05309 -1.39364 0
M  V30 4430 H 431.495 -4.8853 -0.874764 0
M  V30 4431 H 426.751 -6.11157 -0.172287 0
M  V30 4432 H 430.925 -6.9557 0.339828 0
M  V30 4433 H 428.552 -7.56998 0.697014 0
M  V30 4434 N 430.127 0.543554 -1.4793 0
M  V30 4435 C 431.373 1.30201 -1.55485 0
M  V30 4436 C 431.706 1.92925 -0.222201 0
M  V30 4437 O 430.981 1.78586 0.77053 0
M  V30 4438 C 431.264 2.40174 -2.68307 0
M  V30 4439 C 431.117 1.8223 -4.11233 0
M  V30 4440 C 432.436 3.42024 -2.76961 0
M  V30 4441 H 429.555 0.472036 -0.565996 0
M  V30 4442 H 432.197 0.606914 -1.80046 0
M  V30 4443 H 430.347 2.99463 -2.47495 0
M  V30 4444 H 432.019 1.27096 -4.43446 0
M  V30 4445 H 430.262 1.12832 -4.18869 0
M  V30 4446 H 430.933 2.61793 -4.85972 0
M  V30 4447 H 433.409 2.92672 -2.95774 0
M  V30 4448 H 432.285 4.16383 -3.57654 0
M  V30 4449 H 432.546 4.0173 -1.84568 0
M  V30 4450 N 431.605 1.3629 0.791371 0
M  V30 4451 C 432.882 1.20962 1.53712 0
M  V30 4452 C 433.262 -0.205021 2.10102 0
M  V30 4453 O 432.61 -1.21042 1.93807 0
M  V30 4454 C 432.82 2.29002 2.63361 0
M  V30 4455 C 434.168 2.65572 3.31295 0
M  V30 4456 O 435.192 2.2803 2.73643 0
M  V30 4457 O 434.051 3.3018 4.35481 0
M  V30 4458 H 431.145 0.47086 0.679867 0
M  V30 4459 H 433.691 1.48016 0.830021 0
M  V30 4460 H 432.463 3.2382 2.19674 0
M  V30 4461 H 432.086 2.03303 3.41692 0
M  V30 4462 N 433.083 -1.0153 1.20538 0
M  V30 4463 C 434.36 -1.72327 0.925343 0
M  V30 4464 C 434.74 -2.03383 -0.565547 0
M  V30 4465 O 434.088 -1.69934 -1.52757 0
M  V30 4466 C 434.298 -2.9902 1.79967 0
M  V30 4467 C 435.646 -3.72258 2.04228 0
M  V30 4468 O 436.67 -3.08979 1.77231 0
M  V30 4469 O 435.529 -4.86053 2.4983 0
M  V30 4470 H 432.623 -0.751099 0.346092 0
M  V30 4471 H 435.169 -1.07366 1.31417 0
M  V30 4472 H 433.941 -2.72402 2.80915 0
M  V30 4473 H 433.564 -3.71721 1.41099 0
M  V30 4474 N 434.561 -1.01147 -1.20859 0
M  V30 4475 C 435.807 -0.698899 -1.90377 0
M  V30 4476 C 436.14 0.76904 -1.78324 0
M  V30 4477 O 435.415 1.55817 -1.16409 0
M  V30 4478 C 435.698 -1.12878 -3.41951 0
M  V30 4479 C 435.551 -2.65665 -3.62963 0
M  V30 4480 C 436.87 -0.696114 -4.3456 0
M  V30 4481 H 433.989 -0.255372 -0.691342 0
M  V30 4482 H 436.631 -1.25831 -1.42361 0
M  V30 4483 H 434.781 -0.652827 -3.82976 0
M  V30 4484 H 436.453 -3.21074 -3.31224 0
M  V30 4485 H 434.696 -3.06878 -3.06608 0
M  V30 4486 H 435.367 -2.90797 -4.69192 0
M  V30 4487 H 437.843 -1.10521 -4.01154 0
M  V30 4488 H 436.719 -1.025 -5.39245 0
M  V30 4489 H 436.98 0.402465 -4.40264 0
M  V30 4490 N 436.039 1.36541 -0.78704 0
M  V30 4491 C 437.288 1.98552 -0.35494 0
M  V30 4492 C 437.601 1.63171 1.07864 0
M  V30 4493 O 438.807 2.18399 1.61289 0
M  V30 4494 C 437.263 3.55136 -0.583671 0
M  V30 4495 C 436.871 3.99444 -2.02851 0
M  V30 4496 C 438.615 4.2395 -0.215957 0
M  V30 4497 C 436.522 5.48796 -2.20403 0
M  V30 4498 H 435.452 0.742888 -0.128972 0
M  V30 4499 H 438.103 1.5587 -0.968337 0
M  V30 4500 H 436.485 3.95875 0.0994046 0
M  V30 4501 H 437.659 3.6991 -2.74779 0
M  V30 4502 H 435.974 3.43459 -2.35425 0
M  V30 4503 H 438.571 5.33709 -0.325405 0
M  V30 4504 H 438.914 4.07827 0.835646 0
M  V30 4505 H 439.447 3.88565 -0.852175 0
M  V30 4506 H 436.186 5.69864 -3.23937 0
M  V30 4507 H 435.706 5.79964 -1.52977 0
M  V30 4508 H 437.385 6.14986 -2.01002 0
M  V30 4509 N 437.518 0.538854 1.48102 0
M  V30 4510 C 438.766 0.00798599 2.02098 0
M  V30 4511 C 439.087 -1.33922 1.41739 0
M  V30 4512 O 438.357 -1.86932 0.585934 0
M  V30 4513 H 436.937 -3.62179e-05 0.747 0
M  V30 4514 H 439.599 0.7047 1.81714 0
M  V30 4515 H 438.695 -0.0937672 3.11959 0
M  V30 4516 N 438.996 -1.55193 0.274407 0
M  V30 4517 C 439.906 -2.26164 -0.623473 0
M  V30 4518 C 440.922 -1.28729 -1.17068 0
M  V30 4519 O 442.098 -1.61663 -1.20112 0
M  V30 4520 C 439.163 -2.96833 -1.7914 0
M  V30 4521 C 438.224 -4.09745 -1.28093 0
M  V30 4522 C 437.457 -4.77034 -2.3932 0
M  V30 4523 O 437.68 -4.4353 -3.5866 0
M  V30 4524 O 436.614 -5.64996 -2.07516 0
M  V30 4525 H 440.44 -3.03661 -0.0485661 0
M  V30 4526 H 438.025 -1.49341 0.0418382 0
M  V30 4527 H 439.907 -3.41248 -2.4724 0
M  V30 4528 H 438.582 -2.22253 -2.35341 0
M  V30 4529 H 437.489 -3.69787 -0.566416 0
M  V30 4530 H 438.822 -4.86224 -0.764683 0
M  V30 4531 N 440.474 -0.00167713 -1.576 0
M  V30 4532 C 441.404 0.988091 -2.11563 0
M  V30 4533 C 442.385 1.35736 -1.02517 0
M  V30 4534 O 443.57 1.44082 -1.30208 0
M  V30 4535 C 440.7 2.27941 -2.62031 0
M  V30 4536 C 439.654 2.0517 -3.75619 0
M  V30 4537 C 438.98 3.4033 -4.12407 0
M  V30 4538 C 440.28 1.41294 -5.02825 0
M  V30 4539 H 441.974 0.538771 -2.94513 0
M  V30 4540 H 439.52 0.257712 -1.41675 0
M  V30 4541 H 441.473 2.97539 -2.9841 0
M  V30 4542 H 440.197 2.74989 -1.76205 0
M  V30 4543 H 438.856 1.37998 -3.39635 0
M  V30 4544 H 438.504 3.85085 -3.23603 0
M  V30 4545 H 438.204 3.25909 -4.88935 0
M  V30 4546 H 439.728 4.1124 -4.51347 0
M  V30 4547 H 441.142 2.00851 -5.36965 0
M  V30 4548 H 439.539 1.37356 -5.84169 0
M  V30 4549 H 440.609 0.382362 -4.8339 0
M  V30 4550 N 441.952 1.55251 0.271103 0
M  V30 4551 C 442.915 1.87484 1.31842 0
M  V30 4552 C 443.915 0.749545 1.42262 0
M  V30 4553 O 445.105 1.01771 1.4138 0
M  V30 4554 C 442.237 2.0818 2.69951 0
M  V30 4555 H 443.43 2.81108 1.0449 0
M  V30 4556 H 440.983 1.47771 0.509258 0
M  V30 4557 H 441.718 1.16944 3.02481 0
M  V30 4558 H 441.503 2.90114 2.63774 0
M  V30 4559 H 442.993 2.34385 3.4562 0
M  V30 4560 N 443.43 -0.535701 1.48216 0
M  V30 4561 C 444.393 -1.623 1.61838 0
M  V30 4562 C 445.393 -1.53087 0.492024 0
M  V30 4563 O 446.583 -1.5686 0.757668 0
M  V30 4564 C 443.715 -3.01907 1.58319 0
M  V30 4565 H 444.908 -1.51564 2.58783 0
M  V30 4566 H 442.461 -0.757317 1.36727 0
M  V30 4567 H 443.196 -3.18155 0.628299 0
M  V30 4568 H 442.981 -3.10003 2.40085 0
M  V30 4569 H 444.471 -3.80969 1.71033 0
M  V30 4570 N 444.908 -1.36708 -0.784132 0
M  V30 4571 C 445.838 -1.34153 -1.91116 0
M  V30 4572 C 446.819 -0.212121 -1.68772 0
M  V30 4573 O 448.004 -0.410581 -1.8981 0
M  V30 4574 C 445.134 -1.13535 -3.28218 0
M  V30 4575 C 444.088 -2.23356 -3.65097 0
M  V30 4576 C 443.414 -1.87875 -5.00607 0
M  V30 4577 C 444.714 -3.65473 -3.73131 0
M  V30 4578 H 446.408 -2.28459 -1.93512 0
M  V30 4579 H 443.954 -1.09973 -0.929618 0
M  V30 4580 H 445.907 -1.10381 -4.06687 0
M  V30 4581 H 444.631 -0.156804 -3.26223 0
M  V30 4582 H 443.29 -2.25645 -2.88929 0
M  V30 4583 H 442.938 -0.885814 -4.95139 0
M  V30 4584 H 442.638 -2.61406 -5.26252 0
M  V30 4585 H 444.162 -1.86286 -5.81489 0
M  V30 4586 H 445.576 -3.65382 -4.41779 0
M  V30 4587 H 443.973 -4.37953 -4.10265 0
M  V30 4588 H 445.043 -3.99995 -2.74102 0
M  V30 4589 N 446.386 1.0089 -1.21074 0
M  V30 4590 C 447.614 1.78191 -1.05145 0
M  V30 4591 C 448.029 1.84537 0.398952 0
M  V30 4592 O 447.386 1.30393 1.27687 0
M  V30 4593 C 447.437 3.22288 -1.63746 0
M  V30 4594 O 447.158 3.16315 -3.03111 0
M  V30 4595 C 448.659 4.16106 -1.52875 0
M  V30 4596 H 445.879 0.560129 -0.369454 0
M  V30 4597 H 448.423 1.26945 -1.60328 0
M  V30 4598 H 446.578 3.70655 -1.12664 0
M  V30 4599 H 446.992 4.06817 -3.31059 0
M  V30 4600 H 448.466 5.15026 -1.98626 0
M  V30 4601 H 448.943 4.36541 -0.482521 0
M  V30 4602 H 449.549 3.73625 -2.03185 0
M  V30 4603 N 447.864 1.01787 1.20321 0
M  V30 4604 C 449.275 0.739307 1.71438 0
M  V30 4605 C 449.626 -0.742041 1.81627 0
M  V30 4606 O 448.751 -1.57903 1.47971 0
M  V30 4607 C 449.346 1.33538 3.11373 0
M  V30 4608 C 447.905 1.10566 3.59795 0
M  V30 4609 C 447.052 1.44028 2.36962 0
M  V30 4610 H 450.003 1.18718 1.05317 0
M  V30 4611 H 450.024 0.726611 3.73498 0
M  V30 4612 H 449.536 2.41352 3.03926 0
M  V30 4613 H 447.637 0.0452405 3.72573 0
M  V30 4614 H 447.75 1.78661 4.44542 0
M  V30 4615 H 446.114 0.85933 2.39766 0
M  V30 4616 H 446.897 2.52901 2.32155 0
M  V30 4617 N 449.342 -1.36122 0.79427 0
M  V30 4618 C 450.59 -1.98718 0.368177 0
M  V30 4619 C 450.911 -1.63345 -1.06506 0
M  V30 4620 O 450.181 -0.909825 -1.73491 0
M  V30 4621 H 448.761 -0.735038 0.133146 0
M  V30 4622 H 451.423 -1.66239 1.01739 0
M  V30 4623 H 450.519 -3.08633 0.463923 0
M  V30 4624 N 450.82 -0.546701 -1.47814 0
M  V30 4625 C 452.236 -0.205717 -1.58269 0
M  V30 4626 C 452.436 1.29153 -1.54667 0
M  V30 4627 O 451.492 2.07098 -1.44453 0
M  V30 4628 C 452.805 -0.823065 -2.89216 0
M  V30 4629 C 454.353 -0.793328 -3.02779 0
M  V30 4630 C 454.828 -1.38955 -4.36412 0
M  V30 4631 N 456.319 -1.35227 -4.43021 0
M  V30 4632 C 457.054 -1.78333 -5.44963 0
M  V30 4633 N 456.55 -2.29246 -6.53772 0
M  V30 4634 N 458.343 -1.69467 -5.35945 0
M  V30 4635 H 450.494 -1.5196 -1.48398 0
M  V30 4636 H 452.757 -0.633078 -0.705632 0
M  V30 4637 H 452.463 -1.8749 -2.97558 0
M  V30 4638 H 452.337 -0.309915 -3.75925 0
M  V30 4639 H 454.724 0.249784 -2.94041 0
M  V30 4640 H 454.805 -1.34412 -2.17639 0
M  V30 4641 H 454.449 -2.43168 -4.45906 0
M  V30 4642 H 454.379 -0.814291 -5.20266 0
M  V30 4643 H 456.87 -0.979739 -3.64979 0
M  V30 4644 H 457.183 -2.60089 -7.27718 0
M  V30 4645 H 455.528 -2.3325 -6.5469 0
M  V30 4646 H 458.719 -1.29477 -4.49837 0
M  V30 4647 H 458.892 -2.03381 -6.15256 0
M  V30 4648 N 452.299 1.55045 -0.282633 0
M  V30 4649 C 453.529 2.03872 0.334635 0
M  V30 4650 C 453.937 1.16018 1.49454 0
M  V30 4651 O 453.28 0.174449 1.8287 0
M  V30 4652 C 453.342 3.48791 0.870905 0
M  V30 4653 C 453.006 4.56715 -0.161338 0
M  V30 4654 C 454.003 5.10513 -0.983466 0
M  V30 4655 C 451.688 5.01417 -0.297745 0
M  V30 4656 C 453.682 6.07538 -1.92811 0
M  V30 4657 C 451.369 5.98265 -1.24586 0
M  V30 4658 C 452.367 6.51208 -2.05954 0
M  V30 4659 O 452.055 7.46162 -2.99162 0
M  V30 4660 H 451.787 0.671324 0.0793742 0
M  V30 4661 H 454.341 2.01169 -0.41473 0
M  V30 4662 H 452.571 3.48758 1.67047 0
M  V30 4663 H 454.26 3.80916 1.40207 0
M  V30 4664 H 455.026 4.76785 -0.888856 0
M  V30 4665 H 450.905 4.59849 0.325604 0
M  V30 4666 H 454.449 6.48787 -2.56363 0
M  V30 4667 H 450.346 6.31412 -1.34126 0
M  V30 4668 H 451.114 7.63903 -2.93929 0
M  V30 4669 N 453.777 0.010035 1.57597 0
M  V30 4670 C 454.707 -0.976857 2.12084 0
M  V30 4671 C 455.688 -1.35191 1.03235 0
M  V30 4672 O 456.873 -1.43389 1.3097 0
M  V30 4673 C 454.003 -2.26548 2.63236 0
M  V30 4674 C 452.957 -2.03175 3.76701 0
M  V30 4675 C 452.283 -3.38138 4.14206 0
M  V30 4676 C 453.583 -1.38625 5.03568 0
M  V30 4677 H 455.277 -0.523145 2.94794 0
M  V30 4678 H 452.823 -0.250195 1.4181 0
M  V30 4679 H 454.776 -2.95952 2.99984 0
M  V30 4680 H 453.5 -2.74051 1.77661 0
M  V30 4681 H 452.159 -1.36195 3.40362 0
M  V30 4682 H 451.807 -3.83363 3.25641 0
M  V30 4683 H 451.507 -3.23312 4.90656 0
M  V30 4684 H 453.031 -4.08841 4.53521 0
M  V30 4685 H 454.445 -1.98 5.38023 0
M  V30 4686 H 452.842 -1.34256 5.84889 0
M  V30 4687 H 453.912 -0.356722 4.83586 0
M  V30 4688 N 455.255 -1.55392 -0.262866 0
M  V30 4689 C 456.205 -1.85355 -1.32768 0
M  V30 4690 C 457.189 -0.713188 -1.44231 0
M  V30 4691 O 458.381 -0.974765 -1.47741 0
M  V30 4692 C 455.51 -2.13781 -2.68612 0
M  V30 4693 C 454.596 -3.34104 -2.61219 0
M  V30 4694 N 454.987 -4.53766 -2.2345 0
M  V30 4695 C 453.285 -3.36895 -2.92263 0
M  V30 4696 C 453.986 -5.35877 -2.26298 0
M  V30 4697 N 452.962 -4.74536 -2.65172 0
M  V30 4698 H 456.764 -2.75413 -1.02591 0
M  V30 4699 H 454.278 -1.55405 -0.471503 0
M  V30 4700 H 456.275 -2.33407 -3.45437 0
M  V30 4701 H 454.935 -1.25013 -2.99669 0
M  V30 4702 H 455.946 -4.79682 -1.95258 0
M  V30 4703 H 452.623 -2.58351 -3.27965 0
M  V30 4704 H 454.013 -6.41577 -1.99572 0
M  V30 4705 N 456.733 0.527833 -1.48498 0
M  V30 4706 C 457.982 1.28003 -1.55878 0
M  V30 4707 C 458.295 1.9414 -0.238577 0
M  V30 4708 O 459.501 2.7083 -0.190643 0
M  V30 4709 C 457.957 2.32272 -2.74914 0
M  V30 4710 C 457.565 1.72196 -4.13585 0
M  V30 4711 C 459.309 3.08488 -2.91608 0
M  V30 4712 C 457.216 2.74417 -5.23879 0
M  V30 4713 H 456.146 0.481413 -0.580308 0
M  V30 4714 H 458.797 0.557195 -1.74836 0
M  V30 4715 H 457.179 3.07601 -2.49395 0
M  V30 4716 H 458.353 1.03041 -4.49132 0
M  V30 4717 H 456.668 1.08464 -4.02025 0
M  V30 4718 H 459.265 3.84879 -3.71177 0
M  V30 4719 H 459.608 3.64481 -2.01145 0
M  V30 4720 H 460.141 2.40274 -3.17038 0
M  V30 4721 H 456.88 2.23242 -6.16314 0
M  V30 4722 H 456.4 3.41893 -4.92818 0
M  V30 4723 H 458.079 3.37362 -5.52083 0
M  V30 4724 N 458.211 1.37122 0.776871 0
M  V30 4725 C 459.459 1.31787 1.53221 0
M  V30 4726 C 459.78 -0.0987589 1.9475 0
M  V30 4727 O 459.05 -1.0417 1.65908 0
M  V30 4728 H 457.63 0.484839 0.568278 0
M  V30 4729 H 460.292 1.71556 0.924917 0
M  V30 4730 H 459.388 1.95355 2.43398 0
M  V30 4731 N 459.689 -1.00246 1.21608 0
M  V30 4732 C 460.937 -1.73717 1.0328 0
M  V30 4733 C 461.258 -1.90102 -0.434318 0
M  V30 4734 O 460.528 -1.45376 -1.31311 0
M  V30 4735 H 459.108 -0.643613 0.379172 0
M  V30 4736 H 461.77 -1.20787 1.52959 0
M  V30 4737 H 460.866 -2.73535 1.50283 0
M  V30 4738 N 461.167 -1.02423 -1.1978 0
M  V30 4739 C 462.444 -0.632802 -1.85081 0
M  V30 4740 C 462.824 0.888745 -1.9148 0
M  V30 4741 O 462.172 1.78357 -1.42832 0
M  V30 4742 C 462.382 -1.28947 -3.24305 0
M  V30 4743 C 463.73 -1.40976 -4.00513 0
M  V30 4744 O 464.754 -1.24628 -3.33686 0
M  V30 4745 O 463.613 -1.67467 -5.20209 0
M  V30 4746 H 460.707 -0.219348 -0.79738 0
M  V30 4747 H 463.253 -1.12209 -1.27307 0
M  V30 4748 H 462.025 -2.3288 -3.14456 0
M  V30 4749 H 461.648 -0.787748 -3.89718 0
M  V30 4750 N 462.645 1.35699 -0.801477 0
M  V30 4751 C 463.555 2.33661 -0.209691 0
M  V30 4752 C 464.571 1.6162 0.644591 0
M  V30 4753 O 465.747 1.93529 0.557545 0
M  V30 4754 C 462.812 3.40816 0.636033 0
M  V30 4755 C 461.873 4.28639 -0.238147 0
M  V30 4756 C 461.106 5.30676 0.567307 0
M  V30 4757 O 461.329 5.41174 1.8024 0
M  V30 4758 O 460.263 6.01887 -0.0391336 0
M  V30 4759 H 464.089 2.8606 -1.01996 0
M  V30 4760 H 461.674 1.38379 -0.563164 0
M  V30 4761 H 463.556 4.06301 1.11791 0
M  V30 4762 H 462.231 2.90696 1.42399 0
M  V30 4763 H 461.138 3.66152 -0.767044 0
M  V30 4764 H 462.471 4.82143 -0.989915 0
M  V30 4765 N 464.123 0.554532 1.47522 0
M  V30 4766 C 465.086 -0.184174 2.28459 0
M  V30 4767 C 466.086 -0.845195 1.36796 0
M  V30 4768 O 467.276 -0.701467 1.59452 0
M  V30 4769 C 464.408 -1.26903 3.16399 0
M  V30 4770 H 465.601 0.526751 2.95238 0
M  V30 4771 H 463.154 0.311375 1.53167 0
M  V30 4772 H 463.889 -2.01244 2.54306 0
M  V30 4773 H 463.674 -0.799883 3.83854 0
M  V30 4774 H 465.164 -1.78794 3.77389 0
M  V30 4775 N 465.601 -1.54893 0.290851 0
M  V30 4776 C 466.551 -2.19838 -0.604599 0
M  V30 4777 C 467.535 -1.16805 -1.10659 0
M  V30 4778 O 468.727 -1.42562 -1.04905 0
M  V30 4779 C 465.856 -2.93497 -1.78086 0
M  V30 4780 C 464.942 -4.03835 -1.29531 0
M  V30 4781 N 465.333 -5.03047 -0.527024 0
M  V30 4782 C 463.631 -4.17192 -1.57693 0
M  V30 4783 C 464.332 -5.81074 -0.269728 0
M  V30 4784 N 463.308 -5.36966 -0.846651 0
M  V30 4785 H 467.11 -2.93898 -0.00995032 0
M  V30 4786 H 464.624 -1.62121 0.0951353 0
M  V30 4787 H 466.621 -3.38484 -2.43381 0
M  V30 4788 H 465.281 -2.2095 -2.37931 0
M  V30 4789 H 466.292 -5.17611 -0.172872 0
M  V30 4790 H 462.969 -3.55845 -2.18359 0
M  V30 4791 H 464.359 -6.71005 0.346643 0
M  V30 4792 N 467.08 -0.0183926 -1.57589 0
M  V30 4793 C 468.305 0.676634 -1.96052 0
M  V30 4794 C 468.73 1.6548 -0.894307 0
M  V30 4795 O 468.088 1.80712 0.145849 0
M  V30 4796 C 468.136 1.36872 -3.33614 0
M  V30 4797 O 467.24 2.48372 -3.29219 0
M  V30 4798 H 466.581 0.1786 -0.63953 0
M  V30 4799 H 469.111 -0.077056 -2.04455 0
M  V30 4800 H 469.121 1.72797 -3.69601 0
M  V30 4801 H 467.796 0.651636 -4.10763 0
M  V30 4802 H 466.373 2.14639 -3.04934 0
M  V30 4803 N 468.558 1.5553 0.254621 0
M  V30 4804 C 469.786 1.81046 1.00149 0
M  V30 4805 C 470.201 0.593047 1.79244 0
M  V30 4806 O 469.558 -0.438196 1.77161 0
M  V30 4807 C 469.609 3.04684 1.94551 0
M  V30 4808 O 469.33 4.21725 1.18658 0
M  V30 4809 C 470.831 3.42943 2.80901 0
M  V30 4810 H 468.051 0.602653 0.295044 0
M  V30 4811 H 470.595 2.02576 0.279842 0
M  V30 4812 H 468.75 2.85226 2.62154 0
M  V30 4813 H 469.164 4.91746 1.82445 0
M  V30 4814 H 470.638 4.32576 3.42902 0
M  V30 4815 H 471.115 2.63176 3.51617 0
M  V30 4816 H 471.721 3.64724 2.18762 0
M  V30 4817 N 470.036 -0.519951 1.48776 0
M  V30 4818 C 471.447 -1.10177 1.50725 0
M  V30 4819 C 471.798 -1.94153 0.282678 0
M  V30 4820 O 470.923 -2.07645 -0.609298 0
M  V30 4821 C 471.518 -2.00482 2.73116 0
M  V30 4822 C 470.077 -2.53862 2.77905 0
M  V30 4823 C 469.224 -1.31047 2.44381 0
M  V30 4824 H 472.175 -0.30473 1.55747 0
M  V30 4825 H 472.196 -2.8491 2.52203 0
M  V30 4826 H 471.708 -1.39335 3.62225 0
M  V30 4827 H 469.809 -3.18702 1.93029 0
M  V30 4828 H 469.922 -2.9231 3.79594 0
M  V30 4829 H 468.286 -1.62953 1.95751 0
M  V30 4830 H 469.069 -0.71637 3.35743 0
M  V30 4831 N 471.514 -1.37532 -0.769588 0
M  V30 4832 C 472.461 -1.3347 -1.88293 0
M  V30 4833 C 473.431 -0.199891 -1.64893 0
M  V30 4834 O 474.616 -0.389594 -1.8678 0
M  V30 4835 C 471.756 -1.14968 -3.25387 0
M  V30 4836 C 470.869 -2.37698 -3.60727 0
M  V30 4837 C 470.004 -2.12051 -4.8704 0
M  V30 4838 C 469.043 -3.30636 -5.15117 0
M  V30 4839 N 468.18 -3.04527 -6.3262 0
M  V30 4840 H 473.02 -2.28658 -1.911 0
M  V30 4841 H 470.557 -1.13622 -0.934257 0
M  V30 4842 H 472.515 -1.02261 -4.04473 0
M  V30 4843 H 471.145 -0.234263 -3.21949 0
M  V30 4844 H 470.197 -2.61137 -2.76608 0
M  V30 4845 H 471.509 -3.26131 -3.77413 0
M  V30 4846 H 470.663 -1.96388 -5.74035 0
M  V30 4847 H 469.402 -1.20959 -4.72462 0
M  V30 4848 H 468.407 -3.46836 -4.26597 0
M  V30 4849 H 469.632 -4.22582 -5.31603 0
M  V30 4850 H 467.578 -2.16067 -6.19396 0
M  V30 4851 H 467.495 -3.86503 -6.49732 0
M  V30 4852 H 468.763 -2.92485 -7.22546 0
M  V30 4853 N 472.992 0.995999 -1.22138 0
M  V30 4854 C 473.955 2.06711 -0.990109 0
M  V30 4855 C 474.955 1.60744 0.0422978 0
M  V30 4856 O 476.145 1.73095 -0.195895 0
M  V30 4857 C 473.277 3.37288 -0.49491 0
M  V30 4858 H 474.47 2.28661 -1.94047 0
M  V30 4859 H 472.023 1.16711 -1.03963 0
M  V30 4860 H 472.758 3.21022 0.459948 0
M  V30 4861 H 472.543 3.71986 -1.23971 0
M  V30 4862 H 474.033 4.16103 -0.353253 0
M  V30 4863 N 474.47 1.03057 1.19235 0
M  V30 4864 C 475.747 0.642608 1.84743 0
M  V30 4865 C 476.127 -0.878577 1.91948 0
M  V30 4866 O 475.475 -1.77597 1.43776 0
M  V30 4867 C 475.685 1.30665 3.23616 0
M  V30 4868 C 477.033 1.43098 3.9976 0
M  V30 4869 O 478.057 1.26396 3.3302 0
M  V30 4870 O 476.916 1.70223 5.19313 0
M  V30 4871 H 474.01 0.223573 0.796206 0
M  V30 4872 H 476.556 1.12883 1.26711 0
M  V30 4873 H 475.328 2.34544 3.13217 0
M  V30 4874 H 474.951 0.808405 3.89295 0
M  V30 4875 N 475.948 -1.35272 0.808662 0
M  V30 4876 C 477.195 -1.98709 0.390003 0
M  V30 4877 C 477.523 -1.64148 -1.04335 0
M  V30 4878 O 476.778 -0.897797 -1.73891 0
M  V30 4879 C 477.077 -3.53556 0.522798 0
M  V30 4880 C 476.743 -4.0799 1.91977 0
M  V30 4881 C 475.405 -4.22568 2.30195 0
M  V30 4882 C 477.757 -4.37442 2.83361 0
M  V30 4883 C 475.085 -4.63918 3.59162 0
M  V30 4884 C 477.437 -4.80232 4.11776 0
M  V30 4885 C 476.101 -4.93016 4.49991 0
M  V30 4886 H 475.371 -0.727127 0.142712 0
M  V30 4887 H 478.018 -1.6145 1.02985 0
M  V30 4888 H 476.323 -3.91287 -0.200494 0
M  V30 4889 H 478.02 -4.00598 0.179608 0
M  V30 4890 H 474.61 -3.97096 1.61284 0
M  V30 4891 H 478.794 -4.25731 2.55083 0
M  V30 4892 H 474.05 -4.72005 3.88615 0
M  V30 4893 H 478.224 -5.01982 4.82687 0
M  V30 4894 H 475.851 -5.24814 5.49976 0
M  V30 4895 N 477.426 -0.562348 -1.47226 0
M  V30 4896 C 478.672 -0.0402761 -2.0276 0
M  V30 4897 C 479.005 1.30823 -1.43523 0
M  V30 4898 O 478.28 1.85249 -0.592705 0
M  V30 4899 C 478.563 0.047311 -3.60069 0
M  V30 4900 C 478.416 -1.32865 -4.29729 0
M  V30 4901 C 479.735 0.758182 -4.3352 0
M  V30 4902 H 476.854 -0.0161105 -0.736824 0
M  V30 4903 H 479.496 -0.725628 -1.75598 0
M  V30 4904 H 477.646 0.630986 -3.83342 0
M  V30 4905 H 479.318 -1.95593 -4.17781 0
M  V30 4906 H 477.561 -1.90195 -3.89882 0
M  V30 4907 H 478.232 -1.22004 -5.38349 0
M  V30 4908 H 480.708 0.262546 -4.15271 0
M  V30 4909 H 479.584 0.78844 -5.43208 0
M  V30 4910 H 479.845 1.81537 -4.03109 0
M  V30 4911 N 478.904 1.54736 -0.299062 0
M  V30 4912 C 479.867 2.22127 0.565012 0
M  V30 4913 C 480.867 1.20669 1.06281 0
M  V30 4914 O 482.057 1.45417 0.959145 0
M  V30 4915 C 479.189 2.90611 1.78208 0
M  V30 4916 H 480.382 2.99891 -0.0237448 0
M  V30 4917 H 477.935 1.5622 -0.0498788 0
M  V30 4918 H 478.67 2.16921 2.41072 0
M  V30 4919 H 478.455 3.64984 1.43281 0
M  V30 4920 H 479.945 3.42026 2.396 0
M  V30 4921 N 480.382 0.0267497 1.57577 0
M  V30 4922 C 481.629 -0.652404 1.91703 0
M  V30 4923 C 481.957 -1.72271 0.902936 0
M  V30 4924 O 481.212 -1.955 -0.0884843 0
M  V30 4925 C 481.511 -1.30914 3.3256 0
M  V30 4926 C 481.177 -0.369441 4.49384 0
M  V30 4927 C 479.839 -0.110791 4.81072 0
M  V30 4928 C 482.191 0.275971 5.20469 0
M  V30 4929 C 479.519 0.801116 5.81205 0
M  V30 4930 C 481.871 1.17592 6.21575 0
M  V30 4931 C 480.535 1.44348 6.51705 0
M  V30 4932 H 479.805 -0.238732 0.70149 0
M  V30 4933 H 482.452 0.0880091 1.91298 0
M  V30 4934 H 480.757 -2.12425 3.29216 0
M  V30 4935 H 482.454 -1.84115 3.56234 0
M  V30 4936 H 479.044 -0.581211 4.24641 0
M  V30 4937 H 483.228 0.0892 4.9622 0
M  V30 4938 H 478.484 1.01614 6.02897 0
M  V30 4939 H 482.658 1.68223 6.75777 0
M  V30 4940 H 480.285 2.15176 7.29111 0
M  V30 4941 N 481.861 -1.55662 -0.24637 0
M  V30 4942 C 482.794 -1.85332 -1.33143 0
M  V30 4943 C 483.772 -0.708464 -1.46354 0
M  V30 4944 O 484.956 -0.954274 -1.6256 0
M  V30 4945 C 482.083 -2.0385 -2.70487 0
M  V30 4946 C 481.129 -3.26488 -2.74423 0
M  V30 4947 S 481.962 -4.83124 -2.30979 0
M  V30 4948 C 483.118 -5.04647 -3.70246 0
M  V30 4949 H 483.351 -2.77077 -1.07777 0
M  V30 4950 H 480.884 -1.47776 -0.44738 0
M  V30 4951 H 482.842 -2.15202 -3.49569 0
M  V30 4952 H 481.503 -1.12947 -2.9309 0
M  V30 4953 H 480.696 -3.36413 -3.7529 0
M  V30 4954 H 480.298 -3.13864 -2.03385 0
M  V30 4955 H 482.59 -4.92023 -4.65746 0
M  V30 4956 H 483.533 -6.06625 -3.65255 0
M  V30 4957 H 483.941 -4.32491 -3.62784 0
M  V30 4958 N 483.339 0.512053 -1.4905 0
M  V30 4959 C 484.286 1.6148 -1.64902 0
M  V30 4960 C 485.256 1.58687 -0.490673 0
M  V30 4961 O 486.441 1.76842 -0.71636 0
M  V30 4962 C 483.581 2.99676 -1.71139 0
M  V30 4963 C 482.694 3.12568 -2.98203 0
M  V30 4964 C 481.829 4.4143 -2.95487 0
M  V30 4965 C 480.868 4.47916 -4.17179 0
M  V30 4966 N 480.005 5.68191 -4.12437 0
M  V30 4967 H 484.845 1.47271 -2.59066 0
M  V30 4968 H 482.382 0.716713 -1.28459 0
M  V30 4969 H 484.34 3.79761 -1.72736 0
M  V30 4970 H 482.97 3.12614 -0.804508 0
M  V30 4971 H 482.022 2.25618 -3.06269 0
M  V30 4972 H 483.334 3.1322 -3.88194 0
M  V30 4973 H 482.488 5.29825 -2.95585 0
M  V30 4974 H 481.227 4.43326 -2.03256 0
M  V30 4975 H 480.232 3.57925 -4.17337 0
M  V30 4976 H 481.457 4.47744 -5.1059 0
M  V30 4977 H 479.403 5.7095 -3.23036 0
M  V30 4978 H 479.32 5.70413 -4.96151 0
M  V30 4979 H 480.588 6.58823 -4.16621 0
M  V30 4980 N 484.817 1.37938 0.762283 0
M  V30 4981 C 486.233 1.18945 1.06415 0
M  V30 4982 C 486.433 0.0321163 2.01474 0
M  V30 4983 O 485.489 -0.624844 2.44647 0
M  V30 4984 C 486.802 2.51218 1.65258 0
M  V30 4985 C 488.35 2.57824 1.7747 0
M  V30 4986 C 488.825 3.90251 2.39725 0
M  V30 4987 N 490.316 3.91744 2.47166 0
M  V30 4988 C 491.051 4.90966 2.96209 0
M  V30 4989 N 490.547 6.00585 3.45354 0
M  V30 4990 N 492.34 4.78363 2.9517 0
M  V30 4991 H 484.491 2.11994 0.131301 0
M  V30 4992 H 486.754 0.940262 0.120879 0
M  V30 4993 H 486.46 3.36317 1.02878 0
M  V30 4994 H 486.334 2.68989 2.64433 0
M  V30 4995 H 488.721 1.73126 2.3898 0
M  V30 4996 H 488.802 2.43928 0.770241 0
M  V30 4997 H 488.446 4.75368 1.78852 0
M  V30 4998 H 488.376 4.01454 3.40796 0
M  V30 4999 H 490.867 3.12563 2.12397 0
M  V30 5000 H 491.18 6.72236 3.81207 0
M  V30 5001 H 489.525 6.04217 3.43434 0
M  V30 5002 H 492.716 3.91841 2.56082 0
M  V30 5003 H 492.889 5.55843 3.33081 0
M  V30 5004 N 486.295 -0.989507 1.22664 0
M  V30 5005 C 487.541 -1.7321 1.05481 0
M  V30 5006 C 487.874 -1.89852 -0.408635 0
M  V30 5007 O 487.149 -1.44416 -1.30285 0
M  V30 5008 C 487.432 -3.1357 1.77047 0
M  V30 5009 C 487.285 -3.04555 3.31008 0
M  V30 5010 C 488.604 -4.12812 1.5256 0
M  V30 5011 H 485.723 -0.628697 0.384589 0
M  V30 5012 H 488.365 -1.15258 1.51049 0
M  V30 5013 H 486.515 -3.63046 1.3831 0
M  V30 5014 H 488.187 -2.62674 3.7921 0
M  V30 5015 H 486.43 -2.41278 3.6051 0
M  V30 5016 H 487.101 -4.03894 3.76263 0
M  V30 5017 H 489.577 -3.72106 1.86215 0
M  V30 5018 H 488.453 -5.09132 2.05124 0
M  V30 5019 H 488.714 -4.39711 0.458936 0
M  V30 5020 N 487.773 -1.03688 -1.18687 0
M  V30 5021 C 488.705 -0.582696 -2.21669 0
M  V30 5022 C 489.718 0.345656 -1.59088 0
M  V30 5023 O 490.907 0.140776 -1.77944 0
M  V30 5024 C 488.007 0.169204 -3.38477 0
M  V30 5025 C 487.18 -0.766079 -4.30639 0
M  V30 5026 C 486.239 -0.0581541 -5.26168 0
M  V30 5027 O 485.265 -0.687346 -5.65035 0
M  V30 5028 N 486.467 1.20981 -5.67753 0
M  V30 5029 H 489.232 -1.46843 -2.61261 0
M  V30 5030 H 486.793 -0.916896 -1.33434 0
M  V30 5031 H 488.785 0.652543 -3.99405 0
M  V30 5032 H 487.355 0.956435 -2.97609 0
M  V30 5033 H 486.575 -1.42935 -3.67373 0
M  V30 5034 H 487.863 -1.40146 -4.89118 0
M  V30 5035 H 487.261 1.74159 -5.38224 0
M  V30 5036 H 485.818 1.6375 -6.30896 0
M  V30 5037 N 489.251 1.34841 -0.815825 0
M  V30 5038 C 490.662 1.80937 -0.46029 0
M  V30 5039 C 491.013 1.67685 1.01863 0
M  V30 5040 O 490.138 1.21277 1.79223 0
M  V30 5041 C 490.733 3.28509 -0.828708 0
M  V30 5042 C 489.292 3.72712 -0.525644 0
M  V30 5043 C 488.439 2.56676 -1.04941 0
M  V30 5044 H 491.39 1.22688 -1.00664 0
M  V30 5045 H 491.411 3.80279 -0.129757 0
M  V30 5046 H 490.923 3.38122 -1.90513 0
M  V30 5047 H 489.024 3.68642 0.541666 0
M  V30 5048 H 489.137 4.67119 -1.06474 0
M  V30 5049 H 487.501 2.50302 -0.471286 0
M  V30 5050 H 488.284 2.69063 -2.13214 0
M  V30 5051 N 490.729 0.570148 1.46925 0
M  V30 5052 C 491.978 0.0487352 2.01641 0
M  V30 5053 C 492.291 -1.31433 1.44861 0
M  V30 5054 O 493.497 -1.92638 1.91318 0
M  V30 5055 C 491.953 0.0365817 3.59881 0
M  V30 5056 C 491.561 1.39719 4.25655 0
M  V30 5057 C 493.305 -0.431545 4.22301 0
M  V30 5058 C 491.212 1.34345 5.75939 0
M  V30 5059 H 490.142 0.0144492 0.753862 0
M  V30 5060 H 492.793 0.719928 1.68788 0
M  V30 5061 H 491.175 -0.700522 3.89755 0
M  V30 5062 H 492.349 2.15303 4.07408 0
M  V30 5063 H 490.664 1.80431 3.75278 0
M  V30 5064 H 493.261 -0.490354 5.32447 0
M  V30 5065 H 493.604 -1.44638 3.90366 0
M  V30 5066 H 494.137 0.251102 3.97007 0
M  V30 5067 H 490.876 2.33469 6.12513 0
M  V30 5068 H 490.396 0.629615 5.96486 0
M  V30 5069 H 492.075 1.051 6.38407 0
M  V30 5070 N 492.207 -1.54576 0.307264 0
M  V30 5071 C 493.453 -2.0056 -0.300612 0
M  V30 5072 C 493.786 -1.1953 -1.53057 0
M  V30 5073 O 493.061 -0.27337 -1.92569 0
M  V30 5074 C 493.344 -3.54167 -0.650987 0
M  V30 5075 C 493.197 -4.45933 0.588539 0
M  V30 5076 C 494.516 -4.14645 -1.47506 0
M  V30 5077 H 491.635 -0.729075 -0.107788 0
M  V30 5078 H 494.277 -1.85286 0.420606 0
M  V30 5079 H 492.427 -3.67313 -1.26544 0
M  V30 5080 H 494.099 -4.44683 1.22697 0
M  V30 5081 H 492.342 -4.16274 1.22058 0
M  V30 5082 H 493.013 -5.51189 0.299153 0
M  V30 5083 H 495.489 -4.04973 -0.955821 0
M  V30 5084 H 494.365 -5.22269 -1.68899 0
M  V30 5085 H 494.626 -3.66921 -2.4662 0
M  V30 5086 N 493.685 -0.035106 -1.57561 0
M  V30 5087 C 494.648 0.929819 -2.09492 0
M  V30 5088 C 495.648 1.25026 -1.01119 0
M  V30 5089 O 496.838 1.18961 -1.27255 0
M  V30 5090 C 493.97 2.24457 -2.56577 0
M  V30 5091 H 495.163 0.479935 -2.96035 0
M  V30 5092 H 492.716 0.213033 -1.54841 0
M  V30 5093 H 493.451 2.74061 -1.73382 0
M  V30 5094 H 493.236 2.02508 -3.35757 0
M  V30 5095 H 494.726 2.93607 -2.96959 0
M  V30 5096 N 495.163 1.55791 0.238111 0
M  V30 5097 C 496.11 1.9105 1.29493 0
M  V30 5098 C 497.08 0.765733 1.47397 0
M  V30 5099 O 498.265 1.02017 1.61236 0
M  V30 5100 C 495.405 2.21826 2.64362 0
M  V30 5101 C 494.518 3.49153 2.54394 0
M  V30 5102 C 493.653 3.69455 3.81676 0
M  V30 5103 C 492.692 4.90353 3.66361 0
M  V30 5104 N 491.829 5.07131 4.85554 0
M  V30 5105 H 496.669 2.81172 0.987233 0
M  V30 5106 H 494.206 1.39179 0.476203 0
M  V30 5107 H 496.164 2.37675 3.4288 0
M  V30 5108 H 494.794 1.34897 2.93262 0
M  V30 5109 H 493.846 3.41587 1.67399 0
M  V30 5110 H 495.158 4.37818 2.38991 0
M  V30 5111 H 494.312 3.85311 4.68636 0
M  V30 5112 H 493.051 2.7904 3.99985 0
M  V30 5113 H 492.056 4.74464 2.77784 0
M  V30 5114 H 493.281 5.82237 3.49538 0
M  V30 5115 H 491.227 4.19654 5.04209 0
M  V30 5116 H 491.144 5.89899 4.72816 0
M  V30 5117 H 492.412 5.27407 5.73988 0
M  V30 5118 N 496.642 -0.504142 1.49319 0
M  V30 5119 C 497.872 -1.28071 1.62116 0
M  V30 5120 C 498.28 -1.86955 0.290566 0
M  V30 5121 O 497.623 -1.68415 -0.733616 0
M  V30 5122 C 497.685 -2.4521 2.62893 0
M  V30 5123 C 497.349 -2.07218 4.0732 0
M  V30 5124 C 498.346 -1.61375 4.94221 0
M  V30 5125 C 496.031 -2.16949 4.53033 0
M  V30 5126 C 498.025 -1.25763 6.2487 0
M  V30 5127 C 495.712 -1.80949 5.83696 0
M  V30 5128 C 496.71 -1.3543 6.69438 0
M  V30 5129 O 496.398 -0.99915 7.97667 0
M  V30 5130 H 496.13 -0.394763 0.54876 0
M  V30 5131 H 498.684 -0.612118 1.96067 0
M  V30 5132 H 496.914 -3.15134 2.24115 0
M  V30 5133 H 498.603 -3.0724 2.65252 0
M  V30 5134 H 499.369 -1.53306 4.60133 0
M  V30 5135 H 495.248 -2.5133 3.86463 0
M  V30 5136 H 498.792 -0.901631 6.91749 0
M  V30 5137 H 494.689 -1.88667 6.17313 0
M  V30 5138 H 495.457 -1.13089 8.1065 0
M  V30 5139 N 498.12 -1.38341 -0.754957 0
M  V30 5140 C 499.368 -1.34208 -1.51105 0
M  V30 5141 C 499.689 0.0677634 -1.94882 0
M  V30 5142 O 498.959 1.01517 -1.67544 0
M  V30 5143 H 497.539 -0.493819 -0.560493 0
M  V30 5144 H 500.201 -1.73005 -0.897507 0
M  V30 5145 H 499.297 -1.99203 -2.4026 0
M  V30 5146 N 499.598 0.982988 -1.23187 0
M  V30 5147 C 500.545 2.07491 -1.01075 0
M  V30 5148 C 501.515 1.65949 0.070905 0
M  V30 5149 O 502.7 1.90629 -0.0806822 0
M  V30 5150 C 499.84 3.39751 -0.605261 0
M  V30 5151 C 498.953 3.94578 -1.75876 0
M  V30 5152 C 498.088 5.15039 -1.3003 0
M  V30 5153 C 497.127 5.62027 -2.42472 0
M  V30 5154 N 496.264 6.73719 -1.97602 0
M  V30 5155 H 501.104 2.25739 -1.9454 0
M  V30 5156 H 498.641 1.10659 -0.969179 0
M  V30 5157 H 500.599 4.15719 -0.351279 0
M  V30 5158 H 499.229 3.21473 0.292382 0
M  V30 5159 H 498.281 3.1539 -2.12681 0
M  V30 5160 H 499.593 4.25422 -2.60418 0
M  V30 5161 H 498.747 5.9833 -1.00429 0
M  V30 5162 H 497.486 4.85843 -0.425216 0
M  V30 5163 H 496.491 4.77318 -2.7285 0
M  V30 5164 H 497.716 5.93244 -3.30512 0
M  V30 5165 H 495.662 6.46287 -1.1247 0
M  V30 5166 H 495.579 7.03934 -2.75705 0
M  V30 5167 H 496.847 7.6049 -1.71098 0
M  V30 5168 N 501.076 1.04316 1.18135 0
M  V30 5169 C 502.304 0.768117 1.92113 0
M  V30 5170 C 502.719 -0.675057 1.76319 0
M  V30 5171 O 502.076 -1.46038 1.09449 0
M  V30 5172 C 502.127 1.12808 3.43448 0
M  V30 5173 O 501.848 2.5146 3.58747 0
M  V30 5174 C 503.349 0.8779 4.3452 0
M  V30 5175 H 500.569 0.279937 0.609817 0
M  V30 5176 H 503.113 1.39149 1.49859 0
M  V30 5177 H 501.268 0.549623 3.83481 0
M  V30 5178 H 501.682 2.65313 4.52448 0
M  V30 5179 H 503.156 1.17959 5.39249 0
M  V30 5180 H 503.633 -0.187239 4.38801 0
M  V30 5181 H 504.239 1.43977 4.00188 0
M  V30 5182 N 502.554 -1.34406 0.822964 0
M  V30 5183 C 503.8 -1.98578 0.411666 0
M  V30 5184 C 504.133 -1.65093 -1.02264 0
M  V30 5185 O 503.408 -0.92258 -1.71227 0
M  V30 5186 C 503.691 -3.54823 0.614235 0
M  V30 5187 C 503.544 -3.9805 2.09466 0
M  V30 5188 C 504.863 -4.40071 0.050221 0
M  V30 5189 H 501.982 -0.721355 0.151047 0
M  V30 5190 H 504.624 -1.59301 1.03554 0
M  V30 5191 H 502.774 -3.88411 0.0831774 0
M  V30 5192 H 504.446 -3.74795 2.68936 0
M  V30 5193 H 502.689 -3.4836 2.5851 0
M  V30 5194 H 503.36 -5.06819 2.18721 0
M  V30 5195 H 505.836 -4.13037 0.503953 0
M  V30 5196 H 504.712 -5.48452 0.221759 0
M  V30 5197 H 504.973 -4.29576 -1.04482 0
M  V30 5198 N 504.032 -0.577932 -1.46621 0
M  V30 5199 C 505.278 -0.0617793 -2.02706 0
M  V30 5200 C 505.611 1.29294 -1.44903 0
M  V30 5201 O 504.886 1.8461 -0.61232 0
M  V30 5202 C 505.169 0.00911824 -3.60099 0
M  V30 5203 C 505.022 -1.37416 -4.28295 0
M  V30 5204 C 506.341 0.712159 -4.343 0
M  V30 5205 H 503.46 -0.0239246 -0.736612 0
M  V30 5206 H 506.102 -0.744211 -1.74818 0
M  V30 5207 H 504.252 0.590292 -3.83989 0
M  V30 5208 H 505.924 -2.00013 -4.15683 0
M  V30 5209 H 504.167 -1.94319 -3.87843 0
M  V30 5210 H 504.838 -1.27707 -5.37024 0
M  V30 5211 H 507.314 0.218486 -4.15526 0
M  V30 5212 H 506.19 0.730782 -5.44014 0
M  V30 5213 H 506.451 1.77251 -4.05012 0
M  V30 5214 N 505.51 1.54411 -0.315457 0
M  V30 5215 C 506.758 2.00023 0.288971 0
M  V30 5216 C 507.079 1.20529 1.5329 0
M  V30 5217 O 506.349 0.304986 1.93511 0
M  V30 5218 H 504.929 0.738891 0.109766 0
M  V30 5219 H 507.591 1.90094 -0.430129 0
M  V30 5220 H 506.687 3.07198 0.550999 0
M  V30 5221 N 506.988 0.0434614 1.5754 0
M  V30 5222 C 508.234 -0.627109 1.93491 0
M  V30 5223 C 508.589 -1.68904 0.921362 0
M  V30 5224 O 507.882 -1.91504 -0.0605799 0
M  V30 5225 C 508.076 -1.2738 3.3393 0
M  V30 5226 C 507.905 -0.27603 4.48852 0
M  V30 5227 C 506.675 0.129244 5.05135 0
M  V30 5228 C 508.873 0.475462 5.12098 0
M  V30 5229 N 506.855 1.12068 6.03584 0
M  V30 5230 C 508.226 1.32021 6.05781 0
M  V30 5231 C 510.281 0.534611 4.95022 0
M  V30 5232 C 508.984 2.2188 6.84223 0
M  V30 5233 C 511.01 1.42059 5.74085 0
M  V30 5234 C 510.372 2.25309 6.67394 0
M  V30 5235 H 506.471 -0.201354 0.755633 0
M  V30 5236 H 509.055 0.113991 1.94366 0
M  V30 5237 H 507.226 -1.98496 3.33847 0
M  V30 5238 H 508.958 -1.90255 3.57191 0
M  V30 5239 H 505.713 -0.248145 4.72949 0
M  V30 5240 H 506.137 1.61306 6.57502 0
M  V30 5241 H 510.779 -0.0947817 4.22694 0
M  V30 5242 H 508.497 2.85868 7.55847 0
M  V30 5243 H 512.083 1.47083 5.62901 0
M  V30 5244 H 510.963 2.92754 7.27506 0
M  V30 5245 N 508.466 -1.55915 -0.229846 0
M  V30 5246 C 509.416 -1.8813 -1.28807 0
M  V30 5247 C 510.4 -0.743621 -1.42685 0
M  V30 5248 O 511.592 -1.00588 -1.4564 0
M  V30 5249 C 508.721 -2.19431 -2.64017 0
M  V30 5250 C 507.807 -3.39569 -2.54074 0
M  V30 5251 N 508.198 -4.58404 -2.13774 0
M  V30 5252 C 506.496 -3.43019 -2.85051 0
M  V30 5253 C 507.197 -5.40557 -2.1488 0
M  V30 5254 N 506.173 -4.80054 -2.55047 0
M  V30 5255 H 509.975 -2.77527 -0.967261 0
M  V30 5256 H 507.489 -1.5637 -0.438433 0
M  V30 5257 H 509.486 -2.40681 -3.40409 0
M  V30 5258 H 508.146 -1.31341 -2.9695 0
M  V30 5259 H 509.157 -4.83716 -1.8504 0
M  V30 5260 H 505.834 -2.65249 -3.22411 0
M  V30 5261 H 507.224 -6.45666 -1.85918 0
M  V30 5262 N 509.944 0.496216 -1.49584 0
M  V30 5263 C 510.876 1.61404 -1.62731 0
M  V30 5264 C 511.889 1.54613 -0.50978 0
M  V30 5265 O 513.078 1.60458 -0.782017 0
M  V30 5266 C 510.178 3.00212 -1.57245 0
M  V30 5267 C 509.351 3.32138 -2.84611 0
M  V30 5268 C 508.41 4.5038 -2.72112 0
M  V30 5269 O 507.436 4.51926 -3.46051 0
M  V30 5270 N 508.638 5.50575 -1.83977 0
M  V30 5271 H 511.403 1.50552 -2.59141 0
M  V30 5272 H 508.964 0.684182 -1.46733 0
M  V30 5273 H 510.956 3.77241 -1.4653 0
M  V30 5274 H 509.526 3.04964 -0.686729 0
M  V30 5275 H 508.746 2.4396 -3.09641 0
M  V30 5276 H 510.034 3.50268 -3.69039 0
M  V30 5277 H 509.432 5.52128 -1.23171 0
M  V30 5278 H 507.989 6.26687 -1.79182 0
M  V30 5279 N 511.423 1.38739 0.74761 0
M  V30 5280 C 512.353 1.39173 1.87492 0
M  V30 5281 C 513.334 0.256794 1.6815 0
M  V30 5282 O 514.519 0.460762 1.88655 0
M  V30 5283 C 511.649 1.22197 3.25093 0
M  V30 5284 C 510.603 2.32957 3.59047 0
M  V30 5285 C 509.929 2.01082 4.95449 0
M  V30 5286 C 511.229 3.75237 3.6331 0
M  V30 5287 H 512.923 2.3351 1.87386 0
M  V30 5288 H 510.469 1.12399 0.900134 0
M  V30 5289 H 512.422 1.21124 4.03617 0
M  V30 5290 H 511.146 0.243241 3.25693 0
M  V30 5291 H 509.805 2.33226 2.82845 0
M  V30 5292 H 509.453 1.01678 4.92616 0
M  V30 5293 H 509.153 2.75267 5.19136 0
M  V30 5294 H 510.677 2.01638 5.76346 0
M  V30 5295 H 512.091 3.76966 4.31937 0
M  V30 5296 H 510.488 4.48677 3.98509 0
M  V30 5297 H 511.558 4.07122 2.634 0
M  V30 5298 N 512.901 -0.976442 1.23707 0
M  V30 5299 C 513.864 -2.0511 1.02287 0
M  V30 5300 C 514.864 -1.60791 -0.0167195 0
M  V30 5301 O 516.054 -1.72761 0.223408 0
M  V30 5302 C 513.186 -3.36458 0.548507 0
M  V30 5303 H 514.379 -2.25545 1.9766 0
M  V30 5304 H 511.932 -1.15042 1.05806 0
M  V30 5305 H 512.667 -3.21713 -0.408818 0
M  V30 5306 H 512.452 -3.69967 1.29874 0
M  V30 5307 H 513.942 -4.15489 0.419406 0
M  V30 5308 N 514.379 -1.04941 -1.1758 0
M  V30 5309 C 515.627 -0.756492 -1.87408 0
M  V30 5310 C 515.948 0.718478 -1.81281 0
M  V30 5311 O 515.218 1.519 -1.23706 0
M  V30 5312 H 513.798 -0.276841 -0.693807 0
M  V30 5313 H 516.46 -1.32803 -1.42652 0
M  V30 5314 H 515.556 -1.06918 -2.93215 0
M  V30 5315 N 515.857 1.33968 -0.830081 0
M  V30 5316 C 516.82 2.27694 -0.26235 0
M  V30 5317 C 517.82 1.50589 0.563876 0
M  V30 5318 O 519.01 1.70028 0.378941 0
M  V30 5319 C 516.142 3.35002 0.63138 0
M  V30 5320 H 517.335 2.79419 -1.08928 0
M  V30 5321 H 514.888 1.44221 -0.602486 0
M  V30 5322 H 515.623 2.88504 1.48109 0
M  V30 5323 H 515.408 3.92079 0.0403276 0
M  V30 5324 H 516.898 4.04897 1.02217 0
M  V30 5325 N 517.335 0.585699 1.46312 0
M  V30 5326 C 518.245 -0.148236 2.34131 0
M  V30 5327 C 519.261 -0.882972 1.49932 0
M  V30 5328 O 520.437 -0.845484 1.82794 0
M  V30 5329 C 517.502 -1.14714 3.27172 0
M  V30 5330 C 516.563 -0.416746 4.27272 0
M  V30 5331 C 515.796 -1.36806 5.15868 0
M  V30 5332 O 516.019 -2.60475 5.07454 0
M  V30 5333 O 514.953 -0.877018 5.95476 0
M  V30 5334 H 518.779 0.572882 2.98248 0
M  V30 5335 H 516.364 0.346082 1.45336 0
M  V30 5336 H 518.246 -1.72303 3.84564 0
M  V30 5337 H 516.921 -1.84967 2.65648 0
M  V30 5338 H 515.828 0.201061 3.73559 0
M  V30 5339 H 517.161 0.244872 4.9159 0
M  V30 5340 N 518.813 -1.54241 0.323641 0
M  V30 5341 C 520.224 -1.85975 -0.164405 0
M  V30 5342 C 520.575 -1.24529 -1.51615 0
M  V30 5343 O 519.7 -0.551351 -2.09258 0
M  V30 5344 C 520.295 -3.37424 -0.305091 0
M  V30 5345 C 518.854 -3.69107 -0.737358 0
M  V30 5346 C 518.001 -2.76942 0.140884 0
M  V30 5347 H 520.952 -1.49088 0.543922 0
M  V30 5348 H 520.973 -3.63147 -1.13598 0
M  V30 5349 H 520.485 -3.82116 0.678876 0
M  V30 5350 H 518.586 -3.29947 -1.73107 0
M  V30 5351 H 518.699 -4.76035 -0.541053 0
M  V30 5352 H 517.063 -2.51795 -0.383572 0
M  V30 5353 H 517.846 -3.24461 1.12162 0
M  V30 5354 N 520.291 -0.0518155 -1.57515 0
M  V30 5355 C 521.537 0.622745 -1.93002 0
M  V30 5356 C 521.87 1.70456 -0.930499 0
M  V30 5357 O 521.145 1.94452 0.0434086 0
M  V30 5358 C 521.428 1.21824 -3.38867 0
M  V30 5359 C 521.281 0.144434 -4.49568 0
M  V30 5360 C 522.6 2.12968 -3.8514 0
M  V30 5361 H 519.719 0.22491 -0.701844 0
M  V30 5362 H 522.361 -0.113711 -1.89659 0
M  V30 5363 H 520.511 1.8459 -3.41846 0
M  V30 5364 H 522.183 -0.48753 -4.58717 0
M  V30 5365 H 520.426 -0.527424 -4.30582 0
M  V30 5366 H 521.097 0.601127 -5.48717 0
M  V30 5367 H 523.573 1.60163 -3.8404 0
M  V30 5368 H 522.449 2.51578 -4.87852 0
M  V30 5369 H 522.71 3.03004 -3.21934 0
M  V30 5370 N 521.769 1.56035 0.221574 0
M  V30 5371 C 522.679 1.95581 1.29558 0
M  V30 5372 C 523.695 0.859639 1.51282 0
M  V30 5373 O 524.871 1.16321 1.64413 0
M  V30 5374 C 521.936 2.26447 2.62531 0
M  V30 5375 C 520.997 3.49632 2.4911 0
M  V30 5376 C 520.23 3.79017 3.75742 0
M  V30 5377 O 520.453 3.10077 4.78757 0
M  V30 5378 O 519.387 4.72507 3.72855 0
M  V30 5379 H 523.213 2.8711 0.990035 0
M  V30 5380 H 520.798 1.43244 0.424434 0
M  V30 5381 H 522.68 2.47494 3.41064 0
M  V30 5382 H 521.355 1.38092 2.92766 0
M  V30 5383 H 520.262 3.33864 1.68777 0
M  V30 5384 H 521.595 4.3837 2.23814 0
M  V30 5385 N 523.247 -0.488276 1.49845 0
M  V30 5386 C 524.495 -1.23911 1.59657 0
M  V30 5387 C 524.816 -1.92816 0.291005 0
M  V30 5388 O 524.086 -1.83328 -0.690485 0
M  V30 5389 H 522.666 -0.460357 0.588286 0
M  V30 5390 H 525.328 -0.564794 1.86537 0
M  V30 5391 H 524.424 -1.99625 2.39909 0
M  V30 5392 N 524.725 -1.39134 -0.740242 0
M  V30 5393 C 525.688 -1.37217 -1.83587 0
M  V30 5394 C 526.688 -0.270221 -1.58513 0
M  V30 5395 O 527.878 -0.527843 -1.6601 0
M  V30 5396 C 525.01 -1.13959 -3.21288 0
M  V30 5397 H 526.203 -2.34705 -1.86691 0
M  V30 5398 H 523.756 -1.24622 -0.94335 0
M  V30 5399 H 524.491 -0.17131 -3.23847 0
M  V30 5400 H 524.276 -1.93754 -3.40884 0
M  V30 5401 H 525.766 -1.15346 -4.01354 0
M  V30 5402 N 526.204 0.969867 -1.24223 0
M  V30 5403 C 527.134 2.08191 -1.05729 0
M  V30 5404 C 528.115 1.70075 0.0290765 0
M  V30 5405 O 529.3 1.93712 -0.137583 0
M  V30 5406 C 526.43 3.40991 -0.658995 0
M  V30 5407 C 525.384 3.93054 -1.69389 0
M  V30 5408 C 524.71 5.22171 -1.15072 0
M  V30 5409 C 526.01 4.21137 -3.08935 0
M  V30 5410 H 527.704 2.23921 -1.98746 0
M  V30 5411 H 525.25 1.07602 -0.956967 0
M  V30 5412 H 527.203 4.18221 -0.51662 0
M  V30 5413 H 525.927 3.25155 0.30686 0
M  V30 5414 H 524.586 3.17977 -1.82444 0
M  V30 5415 H 524.234 5.02694 -0.175539 0
M  V30 5416 H 523.934 5.57973 -1.84229 0
M  V30 5417 H 525.458 6.02013 -1.02042 0
M  V30 5418 H 526.872 4.8908 -2.99121 0
M  V30 5419 H 525.269 4.68163 -3.75425 0
M  V30 5420 H 526.339 3.27996 -3.57137 0
M  V30 5421 N 527.682 1.05563 1.17022 0
M  V30 5422 C 528.928 0.769074 1.87652 0
M  V30 5423 C 529.261 -0.702326 1.81055 0
M  V30 5424 O 528.536 -1.5139 1.22112 0
M  V30 5425 C 528.819 1.25492 3.37526 0
M  V30 5426 C 528.672 2.78953 3.52853 0
M  V30 5427 C 529.991 0.856919 4.31677 0
M  V30 5428 H 527.11 0.280854 0.681388 0
M  V30 5429 H 529.752 1.31027 1.37593 0
M  V30 5430 H 527.902 0.794516 3.80289 0
M  V30 5431 H 529.574 3.33146 3.19079 0
M  V30 5432 H 527.817 3.18046 2.95007 0
M  V30 5433 H 528.488 3.08011 4.58076 0
M  V30 5434 H 530.964 1.25334 3.96775 0
M  V30 5435 H 529.84 1.22443 5.35069 0
M  V30 5436 H 530.101 -0.238787 4.41455 0
M  V30 5437 N 529.16 -1.33526 0.837174 0
M  V30 5438 C 530.092 -2.28077 0.226579 0
M  V30 5439 C 531.105 -1.51666 -0.591717 0
M  V30 5440 O 532.294 -1.73511 -0.419064 0
M  V30 5441 C 529.394 -3.31597 -0.69978 0
M  V30 5442 C 528.567 -4.37329 0.0788067 0
M  V30 5443 C 527.626 -5.20526 -0.770637 0
M  V30 5444 O 526.652 -5.68811 -0.210453 0
M  V30 5445 N 527.854 -5.41639 -2.08825 0
M  V30 5446 H 530.619 -2.81115 1.03897 0
M  V30 5447 H 528.18 -1.46201 0.695476 0
M  V30 5448 H 530.172 -3.84158 -1.27298 0
M  V30 5449 H 528.742 -2.78848 -1.41288 0
M  V30 5450 H 527.962 -3.8529 0.833381 0
M  V30 5451 H 529.25 -5.05079 0.614238 0
M  V30 5452 H 528.648 -5.04108 -2.56693 0
M  V30 5453 H 527.205 -5.97263 -2.60998 0
M  V30 5454 N 530.638 -0.59345 -1.46 0
M  V30 5455 C 531.868 -0.0889642 -2.06408 0
M  V30 5456 C 532.276 1.22597 -1.44106 0
M  V30 5457 O 531.619 1.75448 -0.544398 0
M  V30 5458 C 531.681 0.139902 -3.59228 0
M  V30 5459 C 531.345 -1.09107 -4.43784 0
M  V30 5460 C 532.342 -2.00577 -4.79651 0
M  V30 5461 C 530.027 -1.31593 -4.84756 0
M  V30 5462 C 532.021 -3.12873 -5.55328 0
M  V30 5463 C 529.708 -2.44192 -5.60191 0
M  V30 5464 C 530.706 -3.34661 -5.95392 0
M  V30 5465 O 530.394 -4.45302 -6.69299 0
M  V30 5466 H 530.126 -0.0594613 -0.67338 0
M  V30 5467 H 532.68 -0.817 -1.88452 0
M  V30 5468 H 530.91 0.922672 -3.75531 0
M  V30 5469 H 532.599 0.594228 -4.01527 0
M  V30 5470 H 533.365 -1.84425 -4.48567 0
M  V30 5471 H 529.244 -0.620801 -4.56801 0
M  V30 5472 H 532.788 -3.83511 -5.82722 0
M  V30 5473 H 528.685 -2.60303 -5.90688 0
M  V30 5474 H 529.453 -4.43805 -6.87735 0
M  V30 5475 N 532.116 1.54067 -0.331816 0
M  V30 5476 C 533.362 2.01713 0.261395 0
M  V30 5477 C 533.717 1.21566 1.49129 0
M  V30 5478 O 533.01 0.291867 1.89364 0
M  V30 5479 C 533.204 3.51634 0.639392 0
M  V30 5480 C 533.033 4.46295 -0.552321 0
M  V30 5481 C 531.803 4.94185 -1.05399 0
M  V30 5482 C 534.001 4.94677 -1.40711 0
M  V30 5483 N 531.983 5.7277 -2.20925 0
M  V30 5484 C 533.354 5.71267 -2.40943 0
M  V30 5485 C 535.409 4.76805 -1.43392 0
M  V30 5486 C 534.112 6.31889 -3.4367 0
M  V30 5487 C 536.138 5.38268 -2.44994 0
M  V30 5488 C 535.5 6.14716 -3.43952 0
M  V30 5489 H 531.599 0.77975 0.0592729 0
M  V30 5490 H 534.183 1.88974 -0.468726 0
M  V30 5491 H 532.354 3.64603 1.33863 0
M  V30 5492 H 534.086 3.86038 1.21478 0
M  V30 5493 H 530.841 4.69472 -0.623952 0
M  V30 5494 H 531.265 6.16737 -2.79222 0
M  V30 5495 H 535.907 4.17255 -0.682489 0
M  V30 5496 H 533.625 6.90554 -4.19715 0
M  V30 5497 H 537.211 5.26352 -2.4788 0
M  V30 5498 H 536.091 6.6143 -4.21283 0
M  V30 5499 N 533.594 0.0601682 1.57485 0
M  V30 5500 C 534.842 -0.610386 1.92662 0
M  V30 5501 C 535.163 -1.70849 0.939981 0
M  V30 5502 O 534.433 -1.95895 -0.0137455 0
M  V30 5503 H 533.013 -0.228457 0.711208 0
M  V30 5504 H 535.675 0.115288 1.94559 0
M  V30 5505 H 534.771 -1.0432 2.94149 0
M  V30 5506 N 535.072 -1.5615 -0.213296 0
M  V30 5507 C 536.002 -1.96109 -1.26742 0
M  V30 5508 C 536.983 -0.830448 -1.48451 0
M  V30 5509 O 538.168 -1.09339 -1.60495 0
M  V30 5510 C 535.298 -2.28492 -2.61551 0
M  V30 5511 C 534.252 -3.44124 -2.54485 0
M  V30 5512 C 533.578 -3.62134 -3.93399 0
M  V30 5513 C 534.878 -4.78855 -2.08556 0
M  V30 5514 H 536.572 -2.84412 -0.935434 0
M  V30 5515 H 534.118 -1.36836 -0.44854 0
M  V30 5516 H 536.071 -2.55039 -3.3546 0
M  V30 5517 H 534.795 -1.37052 -2.96453 0
M  V30 5518 H 533.454 -3.17639 -1.83033 0
M  V30 5519 H 533.102 -2.68055 -4.25623 0
M  V30 5520 H 532.802 -4.39913 -3.89551 0
M  V30 5521 H 534.326 -3.91038 -4.68958 0
M  V30 5522 H 535.74 -5.04552 -2.72213 0
M  V30 5523 H 534.137 -5.59975 -2.1575 0
M  V30 5524 H 535.207 -4.73657 -1.03811 0
M  V30 5525 N 536.55 0.480323 -1.50102 0
M  V30 5526 C 537.827 1.24159 -1.51142 0
M  V30 5527 C 538.207 2.09605 -0.250818 0
M  V30 5528 O 537.555 2.15274 0.766118 0
M  V30 5529 C 537.765 2.08057 -2.80202 0
M  V30 5530 C 539.113 2.66556 -3.30504 0
M  V30 5531 O 540.137 2.18308 -2.81461 0
M  V30 5532 O 538.996 3.54442 -4.15973 0
M  V30 5533 H 536.09 0.562928 -0.605839 0
M  V30 5534 H 538.636 0.492899 -1.62384 0
M  V30 5535 H 537.408 1.45032 -3.6343 0
M  V30 5536 H 537.031 2.90079 -2.71919 0
M  V30 5537 N 538.028 1.39524 0.732853 0
M  V30 5538 C 539.444 1.21176 1.03868 0
M  V30 5539 C 539.644 0.0748448 2.01361 0
M  V30 5540 O 538.7 -0.57281 2.45917 0
M  V30 5541 C 540.013 2.54667 1.59892 0
M  V30 5542 C 541.561 2.6153 1.71962 0
M  V30 5543 C 542.036 3.95248 2.31394 0
M  V30 5544 N 543.527 3.96899 2.38801 0
M  V30 5545 C 544.262 4.97138 2.85729 0
M  V30 5546 N 543.758 6.07775 3.32537 0
M  V30 5547 N 545.551 4.84516 2.84957 0
M  V30 5548 H 537.702 2.12225 0.086304 0
M  V30 5549 H 539.965 0.942614 0.100907 0
M  V30 5550 H 539.671 3.38423 0.95721 0
M  V30 5551 H 539.545 2.74538 2.58668 0
M  V30 5552 H 541.932 1.78156 2.35254 0
M  V30 5553 H 542.013 2.45507 0.718327 0
M  V30 5554 H 541.657 4.79054 1.68729 0
M  V30 5555 H 541.587 4.08593 3.32204 0
M  V30 5556 H 544.078 3.16998 2.05719 0
M  V30 5557 H 544.391 6.8017 3.66862 0
M  V30 5558 H 542.736 6.11366 3.30541 0
M  V30 5559 H 545.927 3.97185 2.47713 0
M  V30 5560 H 546.1 5.62783 3.21215 0
M  V30 5561 N 539.506 -0.963266 1.24736 0
M  V30 5562 C 540.734 -1.74166 1.11686 0
M  V30 5563 C 541.149 -1.8589 -0.330187 0
M  V30 5564 O 540.506 -1.35042 -1.2276 0
M  V30 5565 C 540.557 -3.15989 1.75595 0
M  V30 5566 O 540.278 -3.04847 3.14642 0
M  V30 5567 C 541.779 -4.10145 1.68213 0
M  V30 5568 H 538.999 -0.546031 0.389989 0
M  V30 5569 H 541.543 -1.20907 1.64929 0
M  V30 5570 H 539.698 -3.66219 1.26343 0
M  V30 5571 H 540.112 -3.9425 3.4593 0
M  V30 5572 H 541.586 -5.07299 2.17604 0
M  V30 5573 H 542.063 -4.3445 0.644208 0
M  V30 5574 H 542.669 -3.65827 2.16912 0
M  V30 5575 N 540.985 -1.06182 -1.16461 0
M  V30 5576 C 542.233 -0.776326 -1.86595 0
M  V30 5577 C 542.554 0.69921 -1.82033 0
M  V30 5578 O 541.824 1.50579 -1.2531 0
M  V30 5579 H 540.404 -0.284184 -0.690832 0
M  V30 5580 H 543.066 -1.34308 -1.41235 0
M  V30 5581 H 542.162 -1.10022 -2.92064 0
M  V30 5582 N 542.463 1.3308 -0.844243 0
M  V30 5583 C 543.74 1.92178 -0.364261 0
M  V30 5584 C 544.12 1.76961 1.15101 0
M  V30 5585 O 543.468 1.16128 1.9679 0
M  V30 5586 C 543.678 3.393 -0.817106 0
M  V30 5587 C 545.026 4.16444 -0.828236 0
M  V30 5588 O 546.05 3.47975 -0.761062 0
M  V30 5589 O 544.909 5.38685 -0.920926 0
M  V30 5590 H 542.003 0.820411 -0.10419 0
M  V30 5591 H 544.549 1.41918 -0.930453 0
M  V30 5592 H 543.321 3.44272 -1.85991 0
M  V30 5593 H 542.944 3.96947 -0.227785 0
M  V30 5594 N 543.941 0.601185 1.45683 0
M  V30 5595 C 544.904 -0.111398 2.28929 0
M  V30 5596 C 545.904 -0.801246 1.39416 0
M  V30 5597 O 547.094 -0.650383 1.61603 0
M  V30 5598 C 544.226 -1.16773 3.20276 0
M  V30 5599 H 545.419 0.620412 2.93413 0
M  V30 5600 H 542.972 0.359946 1.52099 0
M  V30 5601 H 543.707 -1.93051 2.60579 0
M  V30 5602 H 543.492 -0.677358 3.86205 0
M  V30 5603 H 544.982 -1.66698 3.82886 0
M  V30 5604 N 545.419 -1.53889 0.339982 0
M  V30 5605 C 546.329 -2.28604 -0.526988 0
M  V30 5606 C 547.345 -1.33578 -1.11503 0
M  V30 5607 O 548.521 -1.66612 -1.13148 0
M  V30 5608 C 545.586 -3.04164 -1.66389 0
M  V30 5609 C 544.647 -4.14809 -1.10599 0
M  V30 5610 C 543.88 -4.86756 -2.18871 0
M  V30 5611 O 544.103 -4.58343 -3.39526 0
M  V30 5612 O 543.037 -5.73289 -1.83366 0
M  V30 5613 H 546.863 -3.03594 0.0802707 0
M  V30 5614 H 544.448 -1.4903 0.105141 0
M  V30 5615 H 546.33 -3.51427 -2.32544 0
M  V30 5616 H 545.005 -2.32035 -2.25703 0
M  V30 5617 H 543.912 -3.71857 -0.409067 0
M  V30 5618 H 545.245 -4.89029 -0.557771 0
M  V30 5619 N 546.897 -0.0685191 -1.57451 0
M  V30 5620 C 547.844 0.899861 -2.12535 0
M  V30 5621 C 548.814 1.29749 -1.03703 0
M  V30 5622 O 549.999 1.38392 -1.31348 0
M  V30 5623 C 547.139 2.16328 -2.6888 0
M  V30 5624 C 546.252 1.81857 -3.91857 0
M  V30 5625 C 545.387 3.02786 -4.36457 0
M  V30 5626 C 544.426 2.64317 -5.5209 0
M  V30 5627 N 543.563 3.77994 -5.91663 0
M  V30 5628 H 548.403 0.423243 -2.94979 0
M  V30 5629 H 545.94 0.197268 -1.45771 0
M  V30 5630 H 547.898 2.90281 -2.99655 0
M  V30 5631 H 546.528 2.61536 -1.89206 0
M  V30 5632 H 545.58 0.979808 -3.67565 0
M  V30 5633 H 546.892 1.49553 -4.75852 0
M  V30 5634 H 546.046 3.85021 -4.68875 0
M  V30 5635 H 544.785 3.38281 -3.51308 0
M  V30 5636 H 543.79 1.80503 -5.19325 0
M  V30 5637 H 545.015 2.29995 -6.38967 0
M  V30 5638 H 542.961 4.13258 -5.09464 0
M  V30 5639 H 542.878 3.49447 -6.7039 0
M  V30 5640 H 544.146 4.60818 -6.28703 0
M  V30 5641 N 548.375 1.56261 0.205012 0
M  V30 5642 C 549.338 1.92908 1.23771 0
M  V30 5643 C 550.338 0.809208 1.38955 0
M  V30 5644 O 551.528 1.07676 1.36936 0
M  V30 5645 C 548.66 2.19442 2.60879 0
M  V30 5646 H 549.853 2.85287 0.924728 0
M  V30 5647 H 547.406 1.49798 0.446125 0
M  V30 5648 H 548.141 1.29668 2.97248 0
M  V30 5649 H 547.926 3.0104 2.51232 0
M  V30 5650 H 549.416 2.48833 3.35368 0
M  V30 5651 N 549.853 -0.472356 1.50355 0
M  V30 5652 C 550.763 -1.59637 1.7191 0
M  V30 5653 C 551.779 -1.63247 0.602195 0
M  V30 5654 O 552.955 -1.81139 0.880369 0
M  V30 5655 C 550.02 -2.9586 1.80742 0
M  V30 5656 C 549.081 -3.02649 3.04471 0
M  V30 5657 C 548.314 -4.32374 3.12872 0
M  V30 5658 O 548.537 -5.22807 2.28099 0
M  V30 5659 O 547.471 -4.44728 4.05587 0
M  V30 5660 H 551.297 -1.44373 2.67189 0
M  V30 5661 H 548.882 -0.651717 1.34436 0
M  V30 5662 H 550.764 -3.7677 1.88739 0
M  V30 5663 H 549.439 -3.11325 0.88647 0
M  V30 5664 H 548.346 -2.20821 3.01975 0
M  V30 5665 H 549.679 -2.92119 3.9614 0
M  V30 5666 N 551.331 -1.39911 -0.725443 0
M  V30 5667 C 552.577 -1.37858 -1.48738 0
M  V30 5668 C 552.91 0.0224187 -1.94187 0
M  V30 5669 O 552.185 0.989204 -1.67466 0
M  V30 5670 C 552.468 -2.3594 -2.72038 0
M  V30 5671 C 552.321 -3.85023 -2.32546 0
M  V30 5672 C 553.64 -2.31704 -3.74167 0
M  V30 5673 H 550.759 -0.502074 -0.539528 0
M  V30 5674 H 553.401 -1.70974 -0.828728 0
M  V30 5675 H 551.551 -2.0783 -3.28236 0
M  V30 5676 H 553.223 -4.2392 -1.81905 0
M  V30 5677 H 551.466 -4.01334 -1.64661 0
M  V30 5678 H 552.137 -4.49152 -3.20884 0
M  V30 5679 H 554.613 -2.5658 -3.27576 0
M  V30 5680 H 553.489 -3.02395 -4.58092 0
M  V30 5681 H 553.75 -1.3253 -4.21768 0
M  V30 5682 N 552.809 0.956637 -1.25245 0
M  V30 5683 C 553.772 2.03457 -1.05537 0
M  V30 5684 C 554.772 1.60798 -0.00886317 0
M  V30 5685 O 555.962 1.72384 -0.250865 0
M  V30 5686 C 553.094 3.35543 -0.601965 0
M  V30 5687 H 554.287 2.22372 -2.01223 0
M  V30 5688 H 551.84 1.13344 -1.07623 0
M  V30 5689 H 552.575 3.22323 0.357584 0
M  V30 5690 H 552.36 3.67854 -1.35743 0
M  V30 5691 H 553.85 4.14769 -0.485454 0
M  V30 5692 N 554.287 1.06798 1.15896 0
M  V30 5693 C 555.197 0.694564 2.24083 0
M  V30 5694 C 556.213 -0.291687 1.71538 0
M  V30 5695 O 557.389 -0.139723 2.00915 0
M  V30 5696 C 554.454 0.0921014 3.46578 0
M  V30 5697 C 553.515 1.13087 4.14137 0
M  V30 5698 C 552.748 0.557064 5.30785 0
M  V30 5699 O 552.971 -0.628623 5.66925 0
M  V30 5700 O 551.905 1.29924 5.8771 0
M  V30 5701 H 555.731 1.59663 2.58344 0
M  V30 5702 H 553.316 0.840575 1.2351 0
M  V30 5703 H 555.198 -0.241884 4.20705 0
M  V30 5704 H 553.873 -0.78337 3.14078 0
M  V30 5705 H 552.78 1.51712 3.41957 0
M  V30 5706 H 554.113 1.97805 4.50704 0
M  V30 5707 N 555.766 -1.3263 0.851289 0
M  V30 5708 C 556.729 -2.27247 0.298541 0
M  V30 5709 C 557.729 -1.51467 -0.539847 0
M  V30 5710 O 558.919 -1.7061 -0.351843 0
M  V30 5711 C 556.051 -3.35964 -0.578004 0
M  V30 5712 H 557.244 -2.7765 1.13359 0
M  V30 5713 H 554.797 -1.43245 0.625354 0
M  V30 5714 H 555.532 -2.90823 -1.435 0
M  V30 5715 H 555.317 -3.92094 0.0220539 0
M  V30 5716 H 556.807 -4.06472 -0.957626 0
M  V30 5717 N 557.244 -0.608902 -1.45362 0
M  V30 5718 C 558.207 0.0992563 -2.28985 0
M  V30 5719 C 559.207 0.793841 -1.39838 0
M  V30 5720 O 560.397 0.641804 -1.61946 0
M  V30 5721 C 557.529 1.15073 -3.20891 0
M  V30 5722 H 558.722 -0.635964 -2.93079 0
M  V30 5723 H 556.275 -0.368007 -1.51906 0
M  V30 5724 H 557.01 1.91667 -2.616 0
M  V30 5725 H 556.795 0.656867 -3.86559 0
M  V30 5726 H 558.285 1.64665 -3.83765 0
M  V30 5727 N 558.722 1.53707 -0.348139 0
M  V30 5728 C 560.138 1.596 0.00361134 0
M  V30 5729 C 560.338 1.36394 1.4832 0
M  V30 5730 O 559.394 1.16046 2.24253 0
M  V30 5731 C 560.707 2.97512 -0.436682 0
M  V30 5732 C 562.255 3.10568 -0.389416 0
M  V30 5733 C 562.73 4.50866 -0.805249 0
M  V30 5734 N 564.221 4.56929 -0.759616 0
M  V30 5735 C 564.956 5.63643 -1.05327 0
M  V30 5736 N 564.452 6.78189 -1.41531 0
M  V30 5737 N 566.245 5.5354 -0.977207 0
M  V30 5738 H 558.396 1.67044 -1.31187 0
M  V30 5739 H 560.659 0.782559 -0.535075 0
M  V30 5740 H 560.365 3.19575 -1.46849 0
M  V30 5741 H 560.239 3.76742 0.185744 0
M  V30 5742 H 562.626 2.88226 0.633228 0
M  V30 5743 H 562.707 2.33387 -1.04711 0
M  V30 5744 H 562.351 4.73943 -1.82593 0
M  V30 5745 H 562.281 5.26452 -0.124989 0
M  V30 5746 H 564.772 3.74675 -0.49265 0
M  V30 5747 H 565.085 7.55541 -1.62411 0
M  V30 5748 H 563.43 6.79624 -1.45381 0
M  V30 5749 H 566.621 4.62932 -0.693675 0
M  V30 5750 H 566.794 6.36614 -1.2094 0
M  V30 5751 N 560.2 0.0768682 1.57412 0
M  V30 5752 C 561.148 -0.906229 2.1422 0
M  V30 5753 C 562.142 -1.30477 1.08037 0
M  V30 5754 O 563.348 -1.28143 1.2641 0
M  V30 5755 H 559.723 -0.310207 0.685037 0
M  V30 5756 H 561.694 -0.402228 2.95677 0
M  V30 5757 C 560.443 -2.16245 2.72274 0
M  V30 5758 H 559.766 -1.86463 3.53655 0
M  V30 5759 H 561.206 -2.83134 3.15613 0
M  V30 5760 C 559.665 -2.92437 1.67279 0
M  V30 5761 O 560.195 -3.86322 1.10081 0
M  V30 5762 N 558.401 -2.55637 1.38195 0
M  V30 5763 H 557.948 -1.79363 1.84897 0
M  V30 5764 H 557.906 -3.06919 0.681787 0
M  V30 5765 N 561.678 -1.56367 -0.196722 0
M  V30 5766 C 562.926 -1.80172 -0.915554 0
M  V30 5767 C 563.247 -0.649649 -1.8386 0
M  V30 5768 O 562.517 0.332111 -1.93064 0
M  V30 5769 H 561.097 -0.664592 -0.341067 0
M  V30 5770 H 563.759 -1.93844 -0.202622 0
M  V30 5771 H 562.855 -2.7327 -1.50764 0
M  V30 5772 N 563.156 0.464375 -1.50603 0
M  V30 5773 C 564.384 1.23907 -1.65695 0
M  V30 5774 C 564.799 1.85658 -0.343027 0
M  V30 5775 O 564.156 1.69529 0.675739 0
M  V30 5776 C 564.207 2.3429 -2.75301 0
M  V30 5777 O 563.928 1.7507 -4.01599 0
M  V30 5778 C 565.429 3.25051 -3.01424 0
M  V30 5779 H 562.649 0.374485 -0.556778 0
M  V30 5780 H 565.193 0.55353 -1.96866 0
M  V30 5781 H 563.348 2.98607 -2.46804 0
M  V30 5782 H 563.762 2.47812 -4.62266 0
M  V30 5783 H 565.236 3.98699 -3.81763 0
M  V30 5784 H 565.713 3.84227 -2.12758 0
M  V30 5785 H 566.319 2.66463 -3.31477 0
M  V30 5786 N 564.634 1.40294 0.718013 0
M  V30 5787 C 565.882 1.38167 1.47494 0
M  V30 5788 C 566.203 -0.01607 1.94993 0
M  V30 5789 O 565.473 -0.970396 1.70177 0
M  V30 5790 H 564.053 0.508505 0.547203 0
M  V30 5791 H 566.715 1.75324 0.851322 0
M  V30 5792 H 565.811 2.05503 2.34894 0
M  V30 5793 N 566.112 -0.949982 1.2575 0
M  V30 5794 C 567.042 -2.06483 1.09028 0
M  V30 5795 C 568.023 -1.701 -0.00201532 0
M  V30 5796 O 569.208 -1.93469 0.168383 0
M  V30 5797 C 566.338 -3.39899 0.71316 0
M  V30 5798 C 565.292 -3.90309 1.75621 0
M  V30 5799 C 564.618 -5.20274 1.23365 0
M  V30 5800 C 565.918 -4.16169 3.15596 0
M  V30 5801 H 567.612 -2.20731 2.02283 0
M  V30 5802 H 565.158 -1.06066 0.973964 0
M  V30 5803 H 567.111 -4.17346 0.58309 0
M  V30 5804 H 565.835 -3.25602 -0.255091 0
M  V30 5805 H 564.494 -3.15035 1.8748 0
M  V30 5806 H 564.142 -5.02351 0.255491 0
M  V30 5807 H 563.842 -5.54971 1.93082 0
M  V30 5808 H 565.366 -6.00314 1.11607 0
M  V30 5809 H 566.78 -4.84259 3.06864 0
M  V30 5810 H 565.177 -4.62131 3.82825 0
M  V30 5811 H 566.247 -3.22273 3.6231 0
M  V30 5812 N 567.59 -1.07411 -1.15328 0
M  V30 5813 C 568.839 -0.792643 -1.85473 0
M  V30 5814 C 569.152 0.683789 -1.83259 0
M  V30 5815 O 570.358 1.08005 -2.49093 0
M  V30 5816 C 568.814 -1.36787 -3.32892 0
M  V30 5817 C 568.422 -2.87536 -3.43551 0
M  V30 5818 C 570.166 -1.16444 -4.08217 0
M  V30 5819 C 568.073 -3.38247 -4.85122 0
M  V30 5820 H 567.003 -0.292838 -0.694811 0
M  V30 5821 H 569.654 -1.29426 -1.30082 0
M  V30 5822 H 568.036 -0.793993 -3.87958 0
M  V30 5823 H 569.21 -3.50973 -2.98588 0
M  V30 5824 H 567.525 -3.06676 -2.81672 0
M  V30 5825 H 570.122 -1.51808 -5.12697 0
M  V30 5826 H 570.465 -0.10353 -4.16171 0
M  V30 5827 H 570.998 -1.70472 -3.59422 0
M  V30 5828 H 567.737 -4.43866 -4.82351 0
M  V30 5829 H 567.257 -2.79564 -5.30664 0
M  V30 5830 H 568.936 -3.34238 -5.5398 0
M  V30 5831 N 569.068 1.32177 -0.85831 0
M  V30 5832 C 569.998 2.31282 -0.321041 0
M  V30 5833 C 570.979 1.59841 0.581786 0
M  V30 5834 O 572.164 1.87619 0.501262 0
M  V30 5835 C 569.294 3.4385 0.48832 0
M  V30 5836 C 568.248 4.26799 -0.320391 0
M  V30 5837 C 567.574 5.31164 0.613934 0
M  V30 5838 C 568.874 4.98829 -1.54813 0
M  V30 5839 H 570.568 2.76469 -1.14915 0
M  V30 5840 H 568.114 1.32916 -0.554028 0
M  V30 5841 H 570.067 4.12224 0.874626 0
M  V30 5842 H 568.791 2.97401 1.34983 0
M  V30 5843 H 567.45 3.60077 -0.688497 0
M  V30 5844 H 567.098 4.80967 1.47239 0
M  V30 5845 H 566.798 5.8755 0.0768097 0
M  V30 5846 H 568.322 6.024 0.997336 0
M  V30 5847 H 569.736 5.59864 -1.23392 0
M  V30 5848 H 568.133 5.64957 -2.02346 0
M  V30 5849 H 569.203 4.26483 -2.30739 0
M  V30 5850 N 570.547 0.616602 1.45037 0
M  V30 5851 C 571.772 0.120192 2.07051 0
M  V30 5852 C 572.197 -1.19008 1.45666 0
M  V30 5853 O 571.555 -1.7267 0.552692 0
M  V30 5854 C 571.603 0.00354901 3.606 0
M  V30 5855 O 570.707 -1.04431 3.98958 0
M  V30 5856 H 570.048 0.0781599 0.659384 0
M  V30 5857 H 572.578 0.849167 1.86146 0
M  V30 5858 H 572.588 -0.191754 4.07549 0
M  V30 5859 H 571.263 0.960239 4.04663 0
M  V30 5860 H 569.84 -0.824749 3.63665 0
M  V30 5861 N 572.025 -1.5352 0.356285 0
M  V30 5862 C 573.436 -1.86282 -0.12492 0
M  V30 5863 C 573.787 -1.27717 -1.48939 0
M  V30 5864 O 572.912 -0.595614 -2.08042 0
M  V30 5865 C 573.507 -3.37995 -0.23345 0
M  V30 5866 C 572.066 -3.70588 -0.658899 0
M  V30 5867 C 571.213 -2.76581 0.199596 0
M  V30 5868 H 574.164 -1.47901 0.575423 0
M  V30 5869 H 574.185 -3.65475 -1.0587 0
M  V30 5870 H 573.697 -3.8059 0.759776 0
M  V30 5871 H 571.798 -3.33544 -1.66069 0
M  V30 5872 H 571.911 -4.77076 -0.439957 0
M  V30 5873 H 570.275 -2.52552 -0.330076 0
M  V30 5874 H 571.058 -3.22008 1.19019 0
M  V30 5875 N 573.503 -0.0852151 -1.57369 0
M  V30 5876 C 574.466 0.8627 -2.12344 0
M  V30 5877 C 575.466 1.21746 -1.05046 0
M  V30 5878 O 576.656 1.14852 -1.30976 0
M  V30 5879 C 573.788 2.1618 -2.63589 0
M  V30 5880 H 574.981 0.385511 -2.97412 0
M  V30 5881 H 572.534 0.163663 -1.55441 0
M  V30 5882 H 573.269 2.68406 -1.82013 0
M  V30 5883 H 573.054 1.91723 -3.4203 0
M  V30 5884 H 574.544 2.84011 -3.06149 0
M  V30 5885 N 574.981 1.5647 0.188427 0
M  V30 5886 C 576.258 1.71857 0.934058 0
M  V30 5887 C 576.638 0.641867 2.01105 0
M  V30 5888 O 575.986 -0.346098 2.25864 0
M  V30 5889 C 576.196 3.14431 1.5144 0
M  V30 5890 C 577.544 3.74869 1.99396 0
M  V30 5891 O 578.568 3.17601 1.61269 0
M  V30 5892 O 577.427 4.75387 2.69573 0
M  V30 5893 H 574.521 0.701186 0.438483 0
M  V30 5894 H 577.067 1.68768 0.177599 0
M  V30 5895 H 575.839 3.8427 0.738416 0
M  V30 5896 H 575.462 3.21775 2.33552 0
M  V30 5897 N 576.459 -0.456382 1.50847 0
M  V30 5898 C 577.875 -0.791345 1.386 0
M  V30 5899 C 578.075 -1.9633 0.453498 0
M  V30 5900 O 577.131 -2.52308 -0.0984353 0
M  V30 5901 C 578.444 -1.08959 2.80265 0
M  V30 5902 C 579.992 -1.19517 2.89283 0
M  V30 5903 C 580.467 -1.52647 4.31814 0
M  V30 5904 N 581.958 -1.59609 4.34832 0
M  V30 5905 C 582.693 -1.86777 5.42127 0
M  V30 5906 N 582.189 -2.11866 6.59609 0
M  V30 5907 N 583.982 -1.88402 5.29586 0
M  V30 5908 H 576.133 0.315746 2.1004 0
M  V30 5909 H 578.396 0.0787916 0.94472 0
M  V30 5910 H 578.102 -0.301355 3.50407 0
M  V30 5911 H 577.976 -2.02211 3.18419 0
M  V30 5912 H 580.363 -1.97406 2.19351 0
M  V30 5913 H 580.444 -0.242111 2.54652 0
M  V30 5914 H 580.088 -0.752922 5.02288 0
M  V30 5915 H 580.018 -2.49127 4.63943 0
M  V30 5916 H 582.509 -1.42201 3.50125 0
M  V30 5917 H 582.822 -2.31912 7.37182 0
M  V30 5918 H 581.167 -2.09228 6.62758 0
M  V30 5919 H 584.358 -1.68307 4.36795 0
M  V30 5920 H 584.531 -2.09238 6.13289 0
M  V30 5921 N 577.937 -1.40673 -0.710563 0
M  V30 5922 C 579.165 -1.42547 -1.4996 0
M  V30 5923 C 579.58 -0.0265485 -1.88781 0
M  V30 5924 O 578.937 0.950694 -1.55782 0
M  V30 5925 C 578.988 -2.32071 -2.77173 0
M  V30 5926 O 578.709 -3.66518 -2.39992 0
M  V30 5927 C 580.21 -2.42591 -3.71032 0
M  V30 5928 H 577.43 -0.486025 -0.462623 0
M  V30 5929 H 579.974 -1.84783 -0.876102 0
M  V30 5930 H 578.129 -1.93184 -3.35795 0
M  V30 5931 H 578.543 -4.14115 -3.21884 0
M  V30 5932 H 580.017 -3.09429 -4.57119 0
M  V30 5933 H 580.494 -1.4525 -4.14486 0
M  V30 5934 H 581.1 -2.82051 -3.18319 0
M  V30 5935 N 579.415 0.9433 -1.26252 0
M  V30 5936 C 580.645 1.72117 -1.14277 0
M  V30 5937 C 581.053 1.86726 0.304944 0
M  V30 5938 O 580.396 1.3727 1.22076 0
M  V30 5939 C 580.458 3.14778 -1.73651 0
M  V30 5940 C 580.122 3.23561 -3.22734 0
M  V30 5941 C 581.119 3.07001 -4.19579 0
M  V30 5942 C 578.804 3.47019 -3.63157 0
M  V30 5943 C 580.798 3.13763 -5.54826 0
M  V30 5944 C 578.485 3.53416 -4.98538 0
M  V30 5945 C 579.483 3.36804 -5.94182 0
M  V30 5946 O 579.171 3.42906 -7.27098 0
M  V30 5947 H 578.903 0.545781 -0.398873 0
M  V30 5948 H 581.457 1.19123 -1.67328 0
M  V30 5949 H 579.687 3.69186 -1.1506 0
M  V30 5950 H 581.376 3.74469 -1.56613 0
M  V30 5951 H 582.142 2.88736 -3.89688 0
M  V30 5952 H 578.021 3.59006 -2.89199 0
M  V30 5953 H 581.565 3.00714 -6.29458 0
M  V30 5954 H 577.462 3.71201 -5.28091 0
M  V30 5955 H 578.23 3.59463 -7.35342 0
M  V30 5956 N 580.893 1.08022 1.14757 0
M  V30 5957 C 581.823 0.728248 2.21853 0
M  V30 5958 C 582.804 -0.287486 1.67653 0
M  V30 5959 O 583.989 -0.158727 1.9355 0
M  V30 5960 C 581.119 0.132549 3.47047 0
M  V30 5961 C 580.073 1.07619 4.14249 0
M  V30 5962 C 579.399 0.342907 5.33599 0
M  V30 5963 C 580.699 2.41268 4.63235 0
M  V30 5964 H 582.393 1.62365 2.51551 0
M  V30 5965 H 579.939 0.782125 1.20908 0
M  V30 5966 H 581.892 -0.125665 4.21213 0
M  V30 5967 H 580.616 -0.797971 3.16702 0
M  V30 5968 H 579.275 1.31944 3.42033 0
M  V30 5969 H 578.923 -0.59129 4.99513 0
M  V30 5970 H 578.623 0.971955 5.79506 0
M  V30 5971 H 580.147 0.0926538 6.1053 0
M  V30 5972 H 581.561 2.21232 5.28894 0
M  V30 5973 H 579.958 2.9983 5.19829 0
M  V30 5974 H 581.028 3.03079 3.78512 0
M  V30 5975 N 582.371 -1.3172 0.865308 0
M  V30 5976 C 583.648 -1.91574 0.394789 0
M  V30 5977 C 584.028 -1.78769 -1.12271 0
M  V30 5978 O 583.376 -1.19245 -1.94918 0
M  V30 5979 C 583.586 -3.37957 0.870982 0
M  V30 5980 C 584.934 -4.15073 0.894384 0
M  V30 5981 O 585.958 -3.4672 0.816325 0
M  V30 5982 O 584.817 -5.37151 1.00651 0
M  V30 5983 H 581.911 -0.818649 0.117229 0
M  V30 5984 H 584.457 -1.4042 0.952913 0
M  V30 5985 H 583.229 -3.41269 1.91444 0
M  V30 5986 H 582.852 -3.96534 0.290907 0
M  V30 5987 N 583.85 -0.624285 -1.44708 0
M  V30 5988 C 584.783 0.133905 -2.27807 0
M  V30 5989 C 585.76 0.857794 -1.38133 0
M  V30 5990 O 586.945 0.863277 -1.6757 0
M  V30 5991 C 584.072 1.19541 -3.16903 0
M  V30 5992 C 583.118 0.572813 -4.22636 0
M  V30 5993 S 583.951 -0.631953 -5.31758 0
M  V30 5994 C 585.106 0.429733 -6.24423 0
M  V30 5995 H 585.34 -0.571072 -2.91764 0
M  V30 5996 H 582.873 -0.412261 -1.48794 0
M  V30 5997 H 584.831 1.80293 -3.68788 0
M  V30 5998 H 583.492 1.87255 -2.5218 0
M  V30 5999 H 582.685 1.37205 -4.84965 0
M  V30 6000 H 582.287 0.0400641 -3.73979 0
M  V30 6001 H 584.579 1.30421 -6.64828 0
M  V30 6002 H 585.522 -0.157804 -7.07924 0
M  V30 6003 H 585.93 0.75256 -5.59461 0
M  V30 6004 N 585.328 1.53329 -0.364422 0
M  V30 6005 C 586.275 2.25698 0.482607 0
M  V30 6006 C 587.245 1.26325 1.07848 0
M  V30 6007 O 588.43 1.55104 1.11119 0
M  V30 6008 C 585.57 3.04873 1.61699 0
M  V30 6009 C 584.683 4.19135 1.0464 0
M  V30 6010 C 583.818 4.85754 2.14979 0
M  V30 6011 C 582.857 5.9205 1.5538 0
M  V30 6012 N 581.994 6.52365 2.59547 0
M  V30 6013 H 586.834 2.97666 -0.141032 0
M  V30 6014 H 584.371 1.46875 -0.0813692 0
M  V30 6015 H 586.329 3.49051 2.28516 0
M  V30 6016 H 584.959 2.35162 2.2113 0
M  V30 6017 H 584.011 3.79451 0.268553 0
M  V30 6018 H 585.323 4.95525 0.570653 0
M  V30 6019 H 584.477 5.3311 2.89619 0
M  V30 6020 H 583.216 4.08834 2.65906 0
M  V30 6021 H 582.221 5.44058 0.792549 0
M  V30 6022 H 583.446 6.7089 1.0528 0
M  V30 6023 H 581.392 5.78298 3.09689 0
M  V30 6024 H 581.309 7.2429 2.16655 0
M  V30 6025 H 582.577 7.0437 3.33892 0
M  V30 6026 N 586.806 0.0935595 1.57322 0
M  V30 6027 C 588.036 -0.578095 1.98347 0
M  V30 6028 C 588.444 -1.62357 0.971441 0
M  V30 6029 O 587.787 -1.83639 -0.0473959 0
M  V30 6030 C 587.849 -1.28525 3.3574 0
M  V30 6031 C 587.513 -0.390714 4.55327 0
M  V30 6032 C 588.51 0.360522 5.18648 0
M  V30 6033 C 586.195 -0.309221 5.01347 0
M  V30 6034 C 588.189 1.18125 6.26359 0
M  V30 6035 C 585.876 0.515157 6.08925 0
M  V30 6036 C 586.874 1.25904 6.71295 0
M  V30 6037 O 586.562 2.06978 7.76798 0
M  V30 6038 H 586.294 -0.159767 0.656849 0
M  V30 6039 H 588.848 0.169058 2.04703 0
M  V30 6040 H 587.078 -2.07894 3.26063 0
M  V30 6041 H 588.767 -1.85128 3.61223 0
M  V30 6042 H 589.533 0.307285 4.84026 0
M  V30 6043 H 585.412 -0.877881 4.52564 0
M  V30 6044 H 588.956 1.76236 6.74971 0
M  V30 6045 H 584.853 0.56988 6.42979 0
M  V30 6046 H 585.621 1.99644 7.93779 0
M  V30 6047 N 588.284 -1.56567 -0.180126 0
M  V30 6048 C 589.512 -1.85618 -0.913972 0
M  V30 6049 C 589.927 -0.677892 -1.7621 0
M  V30 6050 O 589.284 0.353171 -1.7905 0
M  V30 6051 C 589.335 -3.13619 -1.79793 0
M  V30 6052 O 589.056 -4.26906 -0.98402 0
M  V30 6053 C 590.557 -3.55954 -2.64219 0
M  V30 6054 H 587.777 -0.616043 -0.265954 0
M  V30 6055 H 590.321 -2.03681 -0.182872 0
M  V30 6056 H 588.476 -2.97409 -2.48247 0
M  V30 6057 H 588.89 -4.9989 -1.58776 0
M  V30 6058 H 590.364 -4.48444 -3.21873 0
M  V30 6059 H 590.841 -2.79653 -3.38661 0
M  V30 6060 H 591.447 -3.74746 -2.01111 0
M  V30 6061 N 589.762 0.448376 -1.51087 0
M  V30 6062 C 590.709 1.54341 -1.71603 0
M  V30 6063 C 591.679 1.56463 -0.557536 0
M  V30 6064 O 592.864 1.73644 -0.79072 0
M  V30 6065 C 590.004 2.92148 -1.83695 0
M  V30 6066 C 589.117 2.99639 -3.11192 0
M  V30 6067 C 588.252 4.285 -3.13944 0
M  V30 6068 C 587.291 4.29819 -4.35801 0
M  V30 6069 N 586.428 5.50186 -4.36164 0
M  V30 6070 H 591.268 1.36151 -2.65079 0
M  V30 6071 H 588.805 0.661585 -1.31383 0
M  V30 6072 H 590.763 3.72093 -1.88687 0
M  V30 6073 H 589.393 3.0892 -0.936374 0
M  V30 6074 H 588.445 2.12425 -3.15562 0
M  V30 6075 H 589.757 2.96474 -4.01129 0
M  V30 6076 H 588.911 5.16811 -3.17791 0
M  V30 6077 H 587.65 4.34307 -2.21876 0
M  V30 6078 H 586.655 3.39902 -4.32142 0
M  V30 6079 H 587.88 4.25685 -5.29121 0
M  V30 6080 H 585.826 5.56735 -3.46961 0
M  V30 6081 H 585.743 5.48856 -5.19897 0
M  V30 6082 H 587.011 6.40559 -4.44189 0
M  V30 6083 N 591.24 1.41047 0.703093 0
M  V30 6084 C 592.517 1.30493 1.45708 0
M  V30 6085 C 592.897 -0.0709892 2.10981 0
M  V30 6086 O 592.245 -1.08471 2.01113 0
M  V30 6087 C 592.455 2.45287 2.48265 0
M  V30 6088 C 593.803 2.86104 3.13735 0
M  V30 6089 O 594.827 2.44971 2.58587 0
M  V30 6090 O 593.686 3.57206 4.13601 0
M  V30 6091 H 590.78 0.513144 0.648546 0
M  V30 6092 H 593.326 1.52995 0.734208 0
M  V30 6093 H 592.098 3.37135 1.98635 0
M  V30 6094 H 591.721 2.24622 3.28071 0
M  V30 6095 N 592.718 -0.936591 1.26751 0
M  V30 6096 C 593.946 -1.71758 1.15355 0
M  V30 6097 C 594.361 -1.86549 -0.290683 0
M  V30 6098 O 593.718 -1.37616 -1.19868 0
M  V30 6099 C 593.769 -3.12193 1.82258 0
M  V30 6100 O 593.49 -2.98105 3.21038 0
M  V30 6101 C 594.991 -4.06485 1.76875 0
M  V30 6102 H 592.211 -0.537636 0.401483 0
M  V30 6103 H 594.755 -1.17382 1.67457 0
M  V30 6104 H 592.91 -3.63456 1.34083 0
M  V30 6105 H 593.324 -3.86824 3.54214 0
M  V30 6106 H 594.798 -5.02569 2.28316 0
M  V30 6107 H 595.275 -4.32986 0.736216 0
M  V30 6108 H 595.881 -3.61144 2.24623 0
M  V30 6109 N 594.196 -1.08629 -1.14182 0
M  V30 6110 C 595.607 -0.838003 -1.66836 0
M  V30 6111 C 595.958 0.634885 -1.85644 0
M  V30 6112 O 595.083 1.49008 -1.56926 0
M  V30 6113 C 595.678 -1.51465 -3.03058 0
M  V30 6114 C 594.237 -1.31355 -3.52736 0
M  V30 6115 C 593.384 -1.57599 -2.28162 0
M  V30 6116 H 596.335 -1.24656 -0.982165 0
M  V30 6117 H 596.356 -0.943134 -3.68626 0
M  V30 6118 H 595.868 -2.58661 -2.89337 0
M  V30 6119 H 593.969 -0.262384 -3.71675 0
M  V30 6120 H 594.082 -2.04275 -4.33369 0
M  V30 6121 H 592.446 -0.997659 -2.34348 0
M  V30 6122 H 593.229 -2.66006 -2.17015 0
M  V30 6123 N 595.674 1.31259 -0.872281 0
M  V30 6124 C 596.604 2.30929 -0.345554 0
M  V30 6125 C 597.585 1.60449 0.5648 0
M  V30 6126 O 598.77 1.8814 0.481335 0
M  V30 6127 C 595.9 3.44348 0.451823 0
M  V30 6128 C 594.854 4.26435 -0.365641 0
M  V30 6129 C 594.18 5.31785 0.557562 0
M  V30 6130 C 595.48 4.97159 -1.60095 0
M  V30 6131 H 597.174 2.75234 -1.17841 0
M  V30 6132 H 594.72 1.3232 -0.568094 0
M  V30 6133 H 596.673 4.13128 0.830854 0
M  V30 6134 H 595.397 2.98816 1.31821 0
M  V30 6135 H 594.056 3.59326 -0.726649 0
M  V30 6136 H 593.704 4.82502 1.4213 0
M  V30 6137 H 593.404 5.87598 0.0144878 0
M  V30 6138 H 594.928 6.03424 0.933387 0
M  V30 6139 H 596.342 5.58523 -1.29323 0
M  V30 6140 H 594.739 5.62779 -2.08327 0
M  V30 6141 H 595.809 4.24012 -2.35249 0
M  V30 6142 N 597.152 0.631951 1.44375 0
M  V30 6143 C 598.4 0.136497 2.01639 0
M  V30 6144 C 598.721 -1.24637 1.49969 0
M  V30 6145 O 597.991 -1.82827 0.70363 0
M  V30 6146 H 596.571 0.0474703 0.74549 0
M  V30 6147 H 599.233 0.818837 1.76865 0
M  V30 6148 H 598.329 0.104817 3.11924 0
M  V30 6149 N 598.631 -1.53133 0.372548 0
M  V30 6150 C 599.561 -2.28876 -0.462412 0
M  V30 6151 C 600.542 -1.31583 -1.07796 0
M  V30 6152 O 601.727 -1.60461 -1.09389 0
M  V30 6153 C 598.857 -3.08317 -1.59868 0
M  V30 6154 C 597.811 -4.13355 -1.11003 0
M  V30 6155 C 597.137 -4.8092 -2.33708 0
M  V30 6156 C 598.437 -5.21955 -0.18983 0
M  V30 6157 H 600.131 -2.9892 0.169511 0
M  V30 6158 H 597.677 -1.43761 0.0829658 0
M  V30 6159 H 599.63 -3.60055 -2.18949 0
M  V30 6160 H 598.354 -2.35976 -2.25794 0
M  V30 6161 H 597.013 -3.62573 -0.541869 0
M  V30 6162 H 596.661 -4.05144 -2.98106 0
M  V30 6163 H 596.361 -5.51904 -2.01682 0
M  V30 6164 H 597.885 -5.35455 -2.93462 0
M  V30 6165 H 599.299 -5.69153 -0.688319 0
M  V30 6166 H 597.696 -6.00087 0.0398887 0
M  V30 6167 H 598.766 -4.78811 0.766057 0
M  V30 6168 N 600.109 -0.101901 -1.5727 0
M  V30 6169 C 601.334 0.571759 -1.99363 0
M  V30 6170 C 601.759 1.60507 -0.980768 0
M  V30 6171 O 601.117 1.81231 0.0498517 0
M  V30 6172 C 601.165 1.18996 -3.404 0
M  V30 6173 O 600.269 2.30572 -3.41922 0
M  V30 6174 H 599.61 0.144449 -0.648098 0
M  V30 6175 H 602.14 -0.185325 -2.03759 0
M  V30 6176 H 602.15 1.52962 -3.78241 0
M  V30 6177 H 600.825 0.432984 -4.1364 0
M  V30 6178 H 599.402 1.98173 -3.15883 0
M  V30 6179 N 601.587 1.56661 0.17182 0
M  V30 6180 C 602.833 1.8313 0.88516 0
M  V30 6181 C 603.188 0.682376 1.79893 0
M  V30 6182 O 602.481 -0.321215 1.88888 0
M  V30 6183 C 602.675 3.13435 1.71736 0
M  V30 6184 C 602.504 4.40892 0.885659 0
M  V30 6185 C 601.274 5.02177 0.560939 0
M  V30 6186 C 603.472 5.13797 0.227454 0
M  V30 6187 N 601.454 6.13229 -0.286953 0
M  V30 6188 C 602.825 6.18127 -0.481625 0
M  V30 6189 C 604.88 4.97687 0.145567 0
M  V30 6190 C 603.583 7.08092 -1.26482 0
M  V30 6191 C 605.609 5.88096 -0.624298 0
M  V30 6192 C 604.971 6.91888 -1.32174 0
M  V30 6193 H 601.07 0.721107 0.302536 0
M  V30 6194 H 603.654 1.94104 0.152178 0
M  V30 6195 H 601.825 3.03653 2.42176 0
M  V30 6196 H 603.557 3.27903 2.37196 0
M  V30 6197 H 600.312 4.65145 0.890902 0
M  V30 6198 H 600.736 6.73359 -0.701193 0
M  V30 6199 H 605.378 4.17451 0.670426 0
M  V30 6200 H 603.096 7.87774 -1.80103 0
M  V30 6201 H 606.682 5.77702 -0.689321 0
M  V30 6202 H 605.562 7.60637 -1.90791 0
M  V30 6203 N 603.065 -0.440357 1.51323 0
M  V30 6204 C 604.028 -1.51679 1.71832 0
M  V30 6205 C 605.028 -1.49648 0.588386 0
M  V30 6206 O 606.218 -1.51724 0.855891 0
M  V30 6207 C 603.35 -2.91228 1.77199 0
M  V30 6208 H 604.543 -1.34799 2.67898 0
M  V30 6209 H 602.096 -0.66883 1.41267 0
M  V30 6210 H 602.831 -3.13516 0.829363 0
M  V30 6211 H 602.616 -2.94107 2.59314 0
M  V30 6212 H 604.106 -3.69321 1.94915 0
M  V30 6213 N 604.543 -1.41418 -0.695603 0
M  V30 6214 C 605.791 -1.40496 -1.45277 0
M  V30 6215 C 606.112 -0.0149538 -1.94994 0
M  V30 6216 O 605.382 0.9432 -1.71699 0
M  V30 6217 H 603.962 -0.517147 -0.539044 0
M  V30 6218 H 606.624 -1.76656 -0.823321 0
M  V30 6219 H 605.72 -2.09214 -2.31595 0
M  V30 6220 N 606.021 0.929856 -1.27246 0
M  V30 6221 C 607.251 1.70895 -1.16096 0
M  V30 6222 C 607.659 1.87039 0.285122 0
M  V30 6223 O 607.002 1.38557 1.20614 0
M  V30 6224 C 607.064 3.12919 -1.7698 0
M  V30 6225 C 606.728 3.2012 -3.26148 0
M  V30 6226 C 607.725 3.02533 -4.22812 0
M  V30 6227 C 605.41 3.43148 -3.66817 0
M  V30 6228 C 607.404 3.07861 -5.58122 0
M  V30 6229 C 605.091 3.48109 -5.02258 0
M  V30 6230 C 606.089 3.30483 -5.97721 0
M  V30 6231 O 605.777 3.35175 -7.30694 0
M  V30 6232 H 605.509 0.54152 -0.404639 0
M  V30 6233 H 608.063 1.17342 -1.68582 0
M  V30 6234 H 606.293 3.67945 -1.18969 0
M  V30 6235 H 607.982 3.72787 -1.60576 0
M  V30 6236 H 608.748 2.84586 -3.92728 0
M  V30 6237 H 604.627 3.55918 -2.9299 0
M  V30 6238 H 608.171 2.94021 -6.32612 0
M  V30 6239 H 604.068 3.65579 -5.31998 0
M  V30 6240 H 604.836 3.51644 -7.39114 0
M  V30 6241 N 607.499 1.09233 1.13605 0
M  V30 6242 C 608.745 0.828385 1.8511 0
M  V30 6243 C 609.078 -0.64437 1.83198 0
M  V30 6244 O 608.353 -1.47428 1.26867 0
M  V30 6245 C 608.636 1.36167 3.33363 0
M  V30 6246 C 608.489 2.90038 3.438 0
M  V30 6247 C 609.808 0.993819 4.28732 0
M  V30 6248 H 606.927 0.30239 0.672108 0
M  V30 6249 H 609.569 1.35339 1.33355 0
M  V30 6250 H 607.719 0.9151 3.77569 0
M  V30 6251 H 609.391 3.43128 3.08319 0
M  V30 6252 H 607.634 3.27271 2.84739 0
M  V30 6253 H 608.305 3.22428 4.48045 0
M  V30 6254 H 610.781 1.37893 3.92587 0
M  V30 6255 H 609.657 1.39403 5.30903 0
M  V30 6256 H 609.918 -0.0982206 4.41991 0
M  V30 6257 N 608.977 -1.30795 0.87923 0
M  V30 6258 C 609.887 -2.32041 0.345565 0
M  V30 6259 C 610.903 -1.65103 -0.549265 0
M  V30 6260 O 612.079 -1.9645 -0.443763 0
M  V30 6261 C 609.144 -3.43944 -0.436245 0
M  V30 6262 C 608.205 -4.26521 0.48765 0
M  V30 6263 C 607.438 -5.33081 -0.256943 0
M  V30 6264 O 607.661 -5.50762 -1.48381 0
M  V30 6265 O 606.595 -6.00635 0.389985 0
M  V30 6266 H 610.421 -2.79627 1.18501 0
M  V30 6267 H 608.006 -1.3486 0.642885 0
M  V30 6268 H 609.888 -4.12128 -0.879119 0
M  V30 6269 H 608.563 -2.98504 -1.25208 0
M  V30 6270 H 607.47 -3.61057 0.979216 0
M  V30 6271 H 608.803 -4.75551 1.26933 0
M  V30 6272 N 610.455 -0.639598 -1.44038 0
M  V30 6273 C 611.701 -0.147698 -2.02261 0
M  V30 6274 C 612.034 1.23031 -1.50256 0
M  V30 6275 O 611.309 1.81847 -0.690068 0
M  V30 6276 C 611.592 -0.14362 -3.59813 0
M  V30 6277 C 611.445 -1.55458 -4.22082 0
M  V30 6278 C 612.764 0.527317 -4.36929 0
M  V30 6279 H 609.883 -0.0551453 -0.734934 0
M  V30 6280 H 612.525 -0.817688 -1.71505 0
M  V30 6281 H 610.675 0.426898 -3.86147 0
M  V30 6282 H 612.347 -2.17464 -4.06826 0
M  V30 6283 H 610.59 -2.10594 -3.79253 0
M  V30 6284 H 611.261 -1.50369 -5.31124 0
M  V30 6285 H 613.737 0.0420504 -4.16079 0
M  V30 6286 H 612.613 0.499389 -5.46624 0
M  V30 6287 H 612.874 1.59914 -4.12165 0
M  V30 6288 N 611.933 1.52934 -0.380664 0
M  V30 6289 C 612.865 2.23822 0.493581 0
M  V30 6290 C 613.878 1.25761 1.03383 0
M  V30 6291 O 615.067 1.5189 0.937633 0
M  V30 6292 C 612.167 2.9342 1.69582 0
M  V30 6293 C 611.34 4.18115 1.28445 0
M  V30 6294 C 610.399 4.70788 2.35042 0
M  V30 6295 O 609.425 5.34093 1.96807 0
M  V30 6296 N 610.627 4.49899 3.66839 0
M  V30 6297 H 613.392 2.99484 -0.11371 0
M  V30 6298 H 610.953 1.60577 -0.206587 0
M  V30 6299 H 612.945 3.2556 2.40401 0
M  V30 6300 H 611.515 2.21119 2.20965 0
M  V30 6301 H 610.735 3.92109 0.405503 0
M  V30 6302 H 612.023 4.99152 0.986132 0
M  V30 6303 H 611.421 3.99349 4.0067 0
M  V30 6304 H 609.978 4.86551 4.33718 0
M  V30 6305 N 613.412 0.11024 1.57214 0
M  V30 6306 C 614.828 -0.24638 1.57687 0
M  V30 6307 C 615.028 -1.67344 1.12241 0
M  V30 6308 O 614.084 -2.39298 0.805783 0
M  V30 6309 C 615.397 -0.0210288 3.00693 0
M  V30 6310 C 616.945 -0.0876077 3.12877 0
M  V30 6311 C 617.42 0.10994 4.57868 0
M  V30 6312 N 618.911 0.0556135 4.63167 0
M  V30 6313 C 619.646 0.183495 5.73106 0
M  V30 6314 N 619.142 0.367058 6.91827 0
M  V30 6315 N 620.935 0.123689 5.61964 0
M  V30 6316 H 613.086 1.04246 1.85058 0
M  V30 6317 H 615.349 0.40979 0.854854 0
M  V30 6318 H 615.055 0.965203 3.38196 0
M  V30 6319 H 614.929 -0.756748 3.69531 0
M  V30 6320 H 617.316 -1.06436 2.75237 0
M  V30 6321 H 617.397 0.67985 2.466 0
M  V30 6322 H 617.041 1.08362 4.96206 0
M  V30 6323 H 616.971 -0.677397 5.22225 0
M  V30 6324 H 619.462 -0.0831062 3.77809 0
M  V30 6325 H 619.775 0.455739 7.71455 0
M  V30 6326 H 618.12 0.40292 6.93831 0
M  V30 6327 H 621.311 -0.0186928 4.68096 0
M  V30 6328 H 621.484 0.226797 6.47603 0
M  V30 6329 N 614.89 -1.56749 -0.16351 0
M  V30 6330 C 616.115 -1.86938 -0.898264 0
M  V30 6331 C 616.54 -0.697456 -1.74692 0
M  V30 6332 O 615.898 0.353327 -1.77824 0
M  V30 6333 C 615.946 -3.15599 -1.74441 0
M  V30 6334 O 615.05 -2.98371 -2.8469 0
M  V30 6335 H 614.391 -0.614659 -0.251178 0
M  V30 6336 H 616.921 -2.03979 -0.159298 0
M  V30 6337 H 616.931 -3.47202 -2.14277 0
M  V30 6338 H 615.606 -4.00505 -1.1211 0
M  V30 6339 H 614.183 -2.7814 -2.4838 0
M  V30 6340 N 616.368 0.432326 -1.51554 0
M  V30 6341 C 617.598 1.2019 -1.68042 0
M  V30 6342 C 618.006 1.85356 -0.379434 0
M  V30 6343 O 617.349 1.71724 0.652427 0
M  V30 6344 C 617.411 2.32387 -2.74292 0
M  V30 6345 C 617.075 1.87548 -4.16743 0
M  V30 6346 C 618.072 1.37611 -5.01357 0
M  V30 6347 C 615.757 1.95087 -4.62868 0
M  V30 6348 C 617.751 0.958069 -6.30159 0
M  V30 6349 C 615.438 1.52894 -5.91664 0
M  V30 6350 C 616.436 1.03336 -6.75137 0
M  V30 6351 O 616.124 0.617435 -8.01525 0
M  V30 6352 H 615.856 0.368132 -0.56697 0
M  V30 6353 H 618.41 0.517875 -1.98764 0
M  V30 6354 H 616.64 3.04082 -2.38895 0
M  V30 6355 H 618.329 2.94235 -2.79608 0
M  V30 6356 H 619.095 1.31178 -4.66923 0
M  V30 6357 H 614.974 2.32606 -3.98015 0
M  V30 6358 H 618.518 0.570562 -6.95263 0
M  V30 6359 H 614.415 1.58999 -6.25611 0
M  V30 6360 H 615.183 0.742835 -8.15122 0
M  V30 6361 N 617.846 1.41785 0.688094 0
M  V30 6362 C 619.123 1.32031 1.44316 0
M  V30 6363 C 619.503 -0.0486079 2.11044 0
M  V30 6364 O 618.851 -1.06332 2.02252 0
M  V30 6365 C 619.061 2.47906 2.45649 0
M  V30 6366 C 620.409 2.89415 3.10683 0
M  V30 6367 O 621.433 2.477 2.55975 0
M  V30 6368 O 620.292 3.61573 4.09789 0
M  V30 6369 H 617.386 0.519994 0.643067 0
M  V30 6370 H 619.932 1.53765 0.71794 0
M  V30 6371 H 618.704 3.39222 1.95048 0
M  V30 6372 H 618.327 2.28089 3.25671 0
M  V30 6373 N 619.324 -0.923095 1.27737 0
M  V30 6374 C 620.57 -1.67409 1.15524 0
M  V30 6375 C 620.925 -1.90124 -0.295072 0
M  V30 6376 O 620.218 -1.48382 -1.21216 0
M  V30 6377 C 620.412 -3.04125 1.8773 0
M  V30 6378 C 620.241 -2.94752 3.39634 0
M  V30 6379 C 619.011 -2.96783 4.0896 0
M  V30 6380 C 621.209 -2.73524 4.35533 0
M  V30 6381 N 619.191 -2.779 5.47398 0
M  V30 6382 C 620.562 -2.63391 5.61271 0
M  V30 6383 C 622.617 -2.58447 4.2557 0
M  V30 6384 C 621.32 -2.3972 6.78179 0
M  V30 6385 C 623.346 -2.36154 5.42204 0
M  V30 6386 C 622.708 -2.26768 6.669 0
M  V30 6387 H 618.807 -0.619196 0.477619 0
M  V30 6388 H 621.391 -1.09094 1.61266 0
M  V30 6389 H 619.562 -3.60545 1.44436 0
M  V30 6390 H 621.294 -3.6819 1.67982 0
M  V30 6391 H 618.049 -3.07186 3.60463 0
M  V30 6392 H 618.473 -2.71576 6.20141 0
M  V30 6393 H 623.115 -2.6446 3.2988 0
M  V30 6394 H 620.833 -2.32447 7.73947 0
M  V30 6395 H 624.419 -2.25367 5.36378 0
M  V30 6396 H 623.299 -2.09751 7.55628 0
M  V30 6397 N 620.802 -1.09834 -1.13024 0
M  V30 6398 C 622.079 -0.749225 -1.80682 0
M  V30 6399 C 622.459 0.765171 -1.96744 0
M  V30 6400 O 621.807 1.68912 -1.53886 0
M  V30 6401 C 622.017 -1.49311 -3.15448 0
M  V30 6402 C 623.365 -1.66162 -3.90737 0
M  V30 6403 O 624.389 -1.45597 -3.25085 0
M  V30 6404 O 623.248 -2.00211 -5.08505 0
M  V30 6405 H 620.342 -0.269614 -0.781817 0
M  V30 6406 H 622.888 -1.20078 -1.19914 0
M  V30 6407 H 621.66 -2.52407 -2.99009 0
M  V30 6408 H 621.283 -1.034 -3.8392 0
M  V30 6409 N 622.28 1.30327 -0.886154 0
M  V30 6410 C 623.691 1.78243 -0.555554 0
M  V30 6411 C 624.042 1.72849 0.928314 0
M  V30 6412 O 623.167 1.30607 1.72542 0
M  V30 6413 C 623.762 3.23654 -1.00168 0
M  V30 6414 C 622.321 3.69401 -0.722471 0
M  V30 6415 C 621.468 2.50753 -1.18399 0
M  V30 6416 H 624.419 1.1718 -1.07026 0
M  V30 6417 H 624.44 3.79056 -0.331152 0
M  V30 6418 H 623.952 3.27548 -2.08169 0
M  V30 6419 H 622.053 3.70995 0.345496 0
M  V30 6420 H 622.166 4.60818 -1.31085 0
M  V30 6421 H 620.53 2.47452 -0.603303 0
M  V30 6422 H 621.313 2.57383 -2.27176 0
M  V30 6423 N 623.758 0.647228 1.43697 0
M  V30 6424 C 624.721 -0.0385101 2.29168 0
M  V30 6425 C 625.721 -0.756487 1.41894 0
M  V30 6426 O 626.911 -0.598641 1.63591 0
M  V30 6427 C 624.043 -1.06524 3.23829 0
M  V30 6428 H 625.236 0.713445 2.9129 0
M  V30 6429 H 622.789 0.408153 1.50877 0
M  V30 6430 H 623.524 -1.84664 2.66589 0
M  V30 6431 H 623.309 -0.554147 3.88164 0
M  V30 6432 H 624.799 -1.54432 3.87996 0
M  V30 6433 N 625.236 -1.5273 0.388769 0
M  V30 6434 C 626.484 -2.01174 -0.193208 0
M  V30 6435 C 626.805 -1.27705 -1.47365 0
M  V30 6436 O 626.075 -0.396966 -1.91836 0
M  V30 6437 H 624.655 -0.743287 -0.0743871 0
M  V30 6438 H 627.317 -1.87826 0.520336 0
M  V30 6439 H 626.413 -3.09477 -0.403803 0
M  V30 6440 N 626.714 -0.118576 -1.57153 0
M  V30 6441 C 627.944 0.546466 -1.99242 0
M  V30 6442 C 628.352 1.60791 -0.997148 0
M  V30 6443 O 627.695 1.83691 0.0181745 0
M  V30 6444 C 627.757 1.23167 -3.37743 0
M  V30 6445 C 627.421 0.318226 -4.55891 0
M  V30 6446 C 628.418 -0.442988 -5.18009 0
M  V30 6447 C 626.103 0.229421 -5.01776 0
M  V30 6448 C 628.097 -1.28074 -6.244 0
M  V30 6449 C 625.784 -0.611966 -6.08028 0
M  V30 6450 C 626.782 -1.36568 -6.69207 0
M  V30 6451 O 626.47 -2.1931 -7.73407 0
M  V30 6452 H 626.202 0.149297 -0.659307 0
M  V30 6453 H 628.756 -0.201603 -2.04408 0
M  V30 6454 H 626.986 2.0268 -3.29329 0
M  V30 6455 H 628.675 1.79358 -3.64123 0
M  V30 6456 H 629.441 -0.38425 -4.83475 0
M  V30 6457 H 625.32 0.805771 -4.53903 0
M  V30 6458 H 628.864 -1.86952 -6.72082 0
M  V30 6459 H 624.761 -0.6721 -6.41991 0
M  V30 6460 H 625.529 -2.12247 -7.90502 0
M  V30 6461 N 628.193 1.56834 0.155195 0
M  V30 6462 C 629.123 2.00678 1.19376 0
M  V30 6463 C 630.104 0.884973 1.45266 0
M  V30 6464 O 631.289 1.1522 1.56326 0
M  V30 6465 C 628.419 2.38042 2.5289 0
M  V30 6466 C 627.373 3.53332 2.41538 0
M  V30 6467 C 626.699 3.76485 3.79688 0
M  V30 6468 C 627.999 4.86265 1.9064 0
M  V30 6469 H 629.693 2.87688 0.829232 0
M  V30 6470 H 627.239 1.38407 0.397445 0
M  V30 6471 H 629.192 2.67314 3.25763 0
M  V30 6472 H 627.916 1.4796 2.91162 0
M  V30 6473 H 626.575 3.24213 1.71117 0
M  V30 6474 H 626.223 2.83667 4.15382 0
M  V30 6475 H 625.923 4.54068 3.72956 0
M  V30 6476 H 627.447 4.08174 4.54122 0
M  V30 6477 H 628.861 5.14308 2.53299 0
M  V30 6478 H 627.258 5.67597 1.94818 0
M  V30 6479 H 628.328 4.77184 0.861596 0
M  V30 6480 N 629.671 -0.424282 1.51781 0
M  V30 6481 C 631.082 -1.00368 1.57427 0
M  V30 6482 C 631.433 -1.91962 0.40558 0
M  V30 6483 O 630.558 -2.111 -0.47601 0
M  V30 6484 C 631.153 -1.82707 2.85313 0
M  V30 6485 C 629.712 -2.35675 2.93487 0
M  V30 6486 C 628.859 -1.1524 2.5222 0
M  V30 6487 H 631.81 -0.205064 1.5737 0
M  V30 6488 H 631.831 -2.68294 2.69812 0
M  V30 6489 H 631.343 -1.16017 3.70353 0
M  V30 6490 H 629.444 -3.05781 2.12906 0
M  V30 6491 H 629.557 -2.67578 3.97415 0
M  V30 6492 H 627.921 -1.50174 2.05718 0
M  V30 6493 H 628.704 -0.5014 3.39619 0
M  V30 6494 N 631.149 -1.42148 -0.680565 0
M  V30 6495 C 632.397 -1.42029 -1.43779 0
M  V30 6496 C 632.718 -0.0356347 -1.94967 0
M  V30 6497 O 631.988 0.924936 -1.7269 0
M  V30 6498 H 630.568 -0.522835 -0.533529 0
M  V30 6499 H 633.23 -1.7752 -0.804538 0
M  V30 6500 H 632.326 -2.11658 -2.29363 0
M  V30 6501 N 632.627 0.916307 -1.28225 0
M  V30 6502 C 633.59 1.99996 -1.11957 0
M  V30 6503 C 634.59 1.60688 -0.0600152 0
M  V30 6504 O 635.78 1.71499 -0.30558 0
M  V30 6505 C 632.912 3.33458 -0.708411 0
M  V30 6506 H 634.105 2.15858 -2.08196 0
M  V30 6507 H 631.658 1.09863 -1.11175 0
M  V30 6508 H 632.393 3.23297 0.254859 0
M  V30 6509 H 632.178 3.63349 -1.47377 0
M  V30 6510 H 633.668 4.13014 -0.617164 0
M  V30 6511 N 634.105 1.10431 1.1244 0
M  V30 6512 C 635.516 0.864439 1.65482 0
M  V30 6513 C 635.867 -0.60527 1.8663 0
M  V30 6514 O 634.992 -1.46492 1.59276 0
M  V30 6515 C 635.587 1.56267 3.0061 0
M  V30 6516 C 634.146 1.3695 3.50602 0
M  V30 6517 C 633.293 1.61209 2.25626 0
M  V30 6518 H 636.244 1.26203 0.962209 0
M  V30 6519 H 636.265 1.00166 3.67079 0
M  V30 6520 H 635.777 2.63231 2.85186 0
M  V30 6521 H 633.878 0.321481 3.71211 0
M  V30 6522 H 633.991 2.11143 4.30064 0
M  V30 6523 H 632.355 1.03482 2.32731 0
M  V30 6524 H 633.138 2.69425 2.12756 0
M  V30 6525 N 635.583 -1.29855 0.893053 0
M  V30 6526 C 636.546 -2.26183 0.370687 0
M  V30 6527 C 637.546 -1.53108 -0.491385 0
M  V30 6528 O 638.736 -1.71643 -0.297386 0
M  V30 6529 C 635.868 -3.37633 -0.470827 0
M  V30 6530 H 637.061 -2.73903 1.22135 0
M  V30 6531 H 634.614 -1.41183 0.67061 0
M  V30 6532 H 635.349 -2.95241 -1.34175 0
M  V30 6533 H 635.134 -3.91825 0.146784 0
M  V30 6534 H 636.624 -4.09313 -0.827825 0
M  V30 6535 N 637.061 -0.65484 -1.43351 0
M  V30 6536 C 638.338 -0.0987371 -1.95351 0
M  V30 6537 C 638.718 1.38161 -1.59608 0
M  V30 6538 O 638.066 2.10791 -0.882021 0
M  V30 6539 C 638.276 -0.346684 -3.47274 0
M  V30 6540 C 639.624 -0.25249 -4.23849 0
M  V30 6541 O 640.648 -0.279332 -3.55103 0
M  V30 6542 O 639.507 -0.177584 -5.46211 0
M  V30 6543 H 636.601 0.0086829 -0.826954 0
M  V30 6544 H 639.147 -0.728189 -1.53282 0
M  V30 6545 H 637.919 -1.37296 -3.66423 0
M  V30 6546 H 637.542 0.315757 -3.96344 0
M  V30 6547 N 638.539 1.52521 -0.396863 0
M  V30 6548 C 639.502 2.2527 0.422604 0
M  V30 6549 C 640.502 1.27184 0.983913 0
M  V30 6550 O 641.692 1.51222 0.864723 0
M  V30 6551 C 638.824 3.01356 1.59365 0
M  V30 6552 H 640.017 2.99133 -0.214416 0
M  V30 6553 H 637.57 1.55587 -0.149128 0
M  V30 6554 H 638.305 2.31813 2.26789 0
M  V30 6555 H 638.09 3.73357 1.19779 0
M  V30 6556 H 639.58 3.56571 2.17363 0
M  V30 6557 N 640.017 0.126909 1.57088 0
M  V30 6558 C 641.263 -0.529952 1.95753 0
M  V30 6559 C 641.596 -1.65823 1.01077 0
M  V30 6560 O 640.871 -1.94437 0.0494162 0
M  V30 6561 C 641.154 -1.05517 3.44294 0
M  V30 6562 C 641.007 0.0702253 4.49745 0
M  V30 6563 C 642.326 -1.9435 3.94862 0
M  V30 6564 H 639.445 -0.191168 0.711775 0
M  V30 6565 H 642.087 0.204071 1.88901 0
M  V30 6566 H 640.237 -1.68069 3.50264 0
M  V30 6567 H 641.909 0.705834 4.55868 0
M  V30 6568 H 640.152 0.732259 4.27575 0
M  V30 6569 H 640.823 -0.338642 5.5096 0
M  V30 6570 H 643.299 -1.41658 3.91244 0
M  V30 6571 H 642.175 -2.28015 4.993 0
M  V30 6572 H 642.436 -2.87299 3.36024 0
M  V30 6573 N 641.495 -1.56914 -0.146875 0
M  V30 6574 C 642.911 -1.51582 -0.499518 0
M  V30 6575 C 643.111 -0.83535 -1.83369 0
M  V30 6576 O 642.167 -0.405932 -2.49216 0
M  V30 6577 C 643.48 -2.96349 -0.509711 0
M  V30 6578 C 645.028 -3.07288 -0.595217 0
M  V30 6579 C 645.503 -4.53562 -0.636071 0
M  V30 6580 N 646.994 -4.57906 -0.69829 0
M  V30 6581 C 647.729 -5.68462 -0.750886 0
M  V30 6582 N 647.225 -6.88588 -0.76282 0
M  V30 6583 N 649.018 -5.56496 -0.791777 0
M  V30 6584 H 641.169 -1.99547 0.727656 0
M  V30 6585 H 643.432 -0.910113 0.265327 0
M  V30 6586 H 643.138 -3.4939 0.402409 0
M  V30 6587 H 643.012 -3.52307 -1.34758 0
M  V30 6588 H 645.399 -2.54266 -1.49776 0
M  V30 6589 H 645.48 -2.54373 0.2698 0
M  V30 6590 H 645.124 -5.07222 0.262313 0
M  V30 6591 H 645.054 -5.04259 -1.51758 0
M  V30 6592 H 647.545 -3.71429 -0.696362 0
M  V30 6593 H 647.858 -7.68598 -0.804804 0
M  V30 6594 H 646.203 -6.91148 -0.730694 0
M  V30 6595 H 649.394 -4.61562 -0.779624 0
M  V30 6596 H 649.567 -6.42671 -0.829301 0
M  V30 6597 N 642.974 0.416227 -1.52004 0
M  V30 6598 C 644.222 1.16153 -1.65387 0
M  V30 6599 C 644.543 1.91208 -0.382669 0
M  V30 6600 O 643.813 1.86413 0.602231 0
M  V30 6601 H 642.393 0.431765 -0.60958 0
M  V30 6602 H 645.055 0.475151 -1.89019 0
M  V30 6603 H 644.151 1.87952 -2.4916 0
M  V30 6604 N 644.452 1.42507 0.673017 0
M  V30 6605 C 645.698 1.43284 1.43519 0
M  V30 6606 C 646.031 0.049668 1.94136 0
M  V30 6607 O 645.306 -0.926369 1.71022 0
M  V30 6608 C 645.589 2.45874 2.63093 0
M  V30 6609 C 645.442 3.93388 2.18096 0
M  V30 6610 C 646.761 2.45431 3.6531 0
M  V30 6611 H 643.88 0.521752 0.520522 0
M  V30 6612 H 646.522 1.73932 0.764701 0
M  V30 6613 H 644.672 2.19869 3.20296 0
M  V30 6614 H 646.344 4.30379 1.66046 0
M  V30 6615 H 644.587 4.07169 1.49652 0
M  V30 6616 H 645.258 4.60752 3.03993 0
M  V30 6617 H 647.734 2.68561 3.17827 0
M  V30 6618 H 646.61 3.19189 4.46553 0
M  V30 6619 H 646.871 1.48092 4.16559 0
M  V30 6620 N 645.93 -0.909495 1.28709 0
M  V30 6621 C 646.84 -2.04558 1.14861 0
M  V30 6622 C 647.856 -1.73842 0.0741621 0
M  V30 6623 O 649.032 -1.99383 0.2843 0
M  V30 6624 C 646.097 -3.36957 0.816148 0
M  V30 6625 C 645.158 -3.81255 1.97341 0
M  V30 6626 C 644.391 -5.07335 1.65671 0
M  V30 6627 O 644.614 -5.67514 0.573053 0
M  V30 6628 O 643.548 -5.47449 2.50167 0
M  V30 6629 H 647.374 -2.19161 2.10243 0
M  V30 6630 H 644.959 -1.03159 1.08068 0
M  V30 6631 H 646.841 -4.16436 0.644873 0
M  V30 6632 H 645.516 -3.2352 -0.107983 0
M  V30 6633 H 644.423 -3.02584 2.19986 0
M  V30 6634 H 645.756 -3.99261 2.87839 0
M  V30 6635 N 647.408 -1.11026 -1.11852 0
M  V30 6636 C 648.371 -0.768006 -2.1595 0
M  V30 6637 C 649.371 0.210538 -1.59416 0
M  V30 6638 O 650.561 -0.0133978 -1.74195 0
M  V30 6639 C 647.693 -0.138678 -3.40618 0
M  V30 6640 H 648.886 -1.69012 -2.4774 0
M  V30 6641 H 646.439 -0.911578 -1.26964 0
M  V30 6642 H 647.174 0.793872 -3.14433 0
M  V30 6643 H 646.959 -0.843012 -3.8293 0
M  V30 6644 H 648.449 0.0848039 -4.17514 0
M  V30 6645 N 648.886 1.2938 -0.899927 0
M  V30 6646 C 650.297 1.77644 -0.574427 0
M  V30 6647 C 650.648 1.73824 0.909928 0
M  V30 6648 O 649.773 1.32429 1.71147 0
M  V30 6649 C 650.368 3.22573 -1.03595 0
M  V30 6650 C 648.927 3.68614 -0.76161 0
M  V30 6651 C 648.074 2.49483 -1.21052 0
M  V30 6652 H 651.025 1.16038 -1.08263 0
M  V30 6653 H 651.046 3.78684 -0.371337 0
M  V30 6654 H 650.558 3.25321 -2.11631 0
M  V30 6655 H 648.659 3.7134 0.306127 0
M  V30 6656 H 648.772 4.59402 -1.35965 0
M  V30 6657 H 647.136 2.46798 -0.629515 0
M  V30 6658 H 647.919 2.54959 -2.29893 0
M  V30 6659 N 650.364 0.662433 1.43002 0
M  V30 6660 C 651.294 -0.00979809 2.33498 0
M  V30 6661 C 652.275 -0.802329 1.49989 0
M  V30 6662 O 653.46 -0.761964 1.78627 0
M  V30 6663 C 650.59 -0.970446 3.33466 0
M  V30 6664 C 649.544 -0.287383 4.27034 0
M  V30 6665 C 648.87 -1.36012 5.17112 0
M  V30 6666 C 650.17 0.82595 5.15728 0
M  V30 6667 H 651.864 0.745959 2.89958 0
M  V30 6668 H 649.41 0.360172 1.39423 0
M  V30 6669 H 651.363 -1.44971 3.95679 0
M  V30 6670 H 650.087 -1.75748 2.75282 0
M  V30 6671 H 648.746 0.17152 3.66199 0
M  V30 6672 H 648.394 -2.13882 4.55262 0
M  V30 6673 H 648.094 -0.908276 5.80538 0
M  V30 6674 H 649.618 -1.84056 5.82199 0
M  V30 6675 H 651.032 0.42845 5.71697 0
M  V30 6676 H 649.429 1.20282 5.87922 0
M  V30 6677 H 650.499 1.68003 4.54866 0
M  V30 6678 N 651.842 -1.52309 0.404946 0
M  V30 6679 C 653.088 -2.02731 -0.164857 0
M  V30 6680 C 653.443 -1.28543 -1.43159 0
M  V30 6681 O 652.736 -0.381883 -1.87756 0
M  V30 6682 C 652.93 -3.54284 -0.470895 0
M  V30 6683 C 652.759 -4.43152 0.764625 0
M  V30 6684 C 651.529 -4.88594 1.28858 0
M  V30 6685 C 653.727 -4.874 1.64152 0
M  V30 6686 N 651.709 -5.61577 2.48001 0
M  V30 6687 C 653.08 -5.59121 2.67924 0
M  V30 6688 C 655.135 -4.69421 1.65978 0
M  V30 6689 C 653.838 -6.14772 3.73427 0
M  V30 6690 C 655.864 -5.25966 2.70396 0
M  V30 6691 C 655.226 -5.97606 3.7289 0
M  V30 6692 H 651.325 -0.78169 -0.0220025 0
M  V30 6693 H 653.909 -1.86522 0.558354 0
M  V30 6694 H 652.08 -3.70574 -1.16315 0
M  V30 6695 H 653.812 -3.91394 -1.02921 0
M  V30 6696 H 650.567 -4.6596 0.847232 0
M  V30 6697 H 650.991 -6.02712 3.08329 0
M  V30 6698 H 655.633 -4.13524 0.88079 0
M  V30 6699 H 653.351 -6.69743 4.52184 0
M  V30 6700 H 656.937 -5.13926 2.72711 0
M  V30 6701 H 655.817 -6.40577 4.52361 0
M  V30 6702 N 653.32 -0.135238 -1.57019 0
M  V30 6703 C 654.548 0.526066 -2.001 0
M  V30 6704 C 654.963 1.59184 -1.01519 0
M  V30 6705 O 654.32 1.82497 -0.0104258 0
M  V30 6706 C 654.371 1.13744 -3.43139 0
M  V30 6707 O 654.092 0.114259 -4.37951 0
M  V30 6708 C 655.593 1.8805 -4.01438 0
M  V30 6709 H 652.813 0.137962 -0.656664 0
M  V30 6710 H 655.357 -0.226359 -2.03243 0
M  V30 6711 H 653.512 1.84056 -3.40885 0
M  V30 6712 H 653.926 0.56058 -5.21496 0
M  V30 6713 H 655.4 2.26133 -5.03555 0
M  V30 6714 H 655.877 2.76194 -3.41487 0
M  V30 6715 H 656.483 1.22464 -4.07287 0
M  V30 6716 N 654.798 1.5699 0.138552 0
M  V30 6717 C 655.708 2.02174 1.19008 0
M  V30 6718 C 656.724 0.938622 1.46512 0
M  V30 6719 O 657.9 1.24872 1.58016 0
M  V30 6720 C 654.965 2.40045 2.50159 0
M  V30 6721 C 654.026 3.62346 2.30226 0
M  V30 6722 C 653.259 3.98401 3.55123 0
M  V30 6723 O 653.482 3.35019 4.61647 0
M  V30 6724 O 652.416 4.91606 3.47285 0
M  V30 6725 H 656.242 2.91954 0.836452 0
M  V30 6726 H 653.827 1.45293 0.347907 0
M  V30 6727 H 655.709 2.65225 3.27465 0
M  V30 6728 H 654.384 1.53417 2.85035 0
M  V30 6729 H 653.291 3.42341 1.50843 0
M  V30 6730 H 654.624 4.49617 2.00262 0
M  V30 6731 N 656.276 -0.40816 1.52223 0
M  V30 6732 C 657.504 -1.17672 1.70179 0
M  V30 6733 C 657.919 -1.84257 0.411696 0
M  V30 6734 O 657.276 -1.7192 -0.612354 0
M  V30 6735 C 657.327 -2.23911 2.83806 0
M  V30 6736 O 657.048 -1.60044 4.0782 0
M  V30 6737 C 658.549 -3.1364 3.13281 0
M  V30 6738 H 655.769 -0.353562 0.570293 0
M  V30 6739 H 658.313 -0.480083 1.98785 0
M  V30 6740 H 656.468 -2.89242 2.57717 0
M  V30 6741 H 656.882 -2.30484 4.71145 0
M  V30 6742 H 658.356 -3.84255 3.96298 0
M  V30 6743 H 658.833 -3.76066 2.26872 0
M  V30 6744 H 659.439 -2.53977 3.41139 0
M  V30 6745 N 657.755 -1.42862 -0.66545 0
M  V30 6746 C 658.685 -1.49867 -1.79059 0
M  V30 6747 C 659.666 -0.354394 -1.66367 0
M  V30 6748 O 660.851 -0.569969 -1.85647 0
M  V30 6749 C 657.981 -1.40943 -3.17415 0
M  V30 6750 C 656.935 -2.53495 -3.44854 0
M  V30 6751 C 656.261 -2.29626 -4.82883 0
M  V30 6752 C 657.561 -3.95781 -3.40815 0
M  V30 6753 H 659.255 -2.44037 -1.73453 0
M  V30 6754 H 656.801 -1.17456 -0.833071 0
M  V30 6755 H 658.754 -1.4445 -3.95869 0
M  V30 6756 H 657.478 -0.432716 -3.23721 0
M  V30 6757 H 656.137 -2.4932 -2.68766 0
M  V30 6758 H 655.785 -1.30226 -4.8585 0
M  V30 6759 H 655.485 -3.05065 -5.02204 0
M  V30 6760 H 657.009 -2.34897 -5.63609 0
M  V30 6761 H 658.423 -4.01508 -4.09224 0
M  V30 6762 H 656.82 -4.71148 -3.71672 0
M  V30 6763 H 657.89 -4.21786 -2.39216 0
M  V30 6764 N 659.233 0.902656 -1.29189 0
M  V30 6765 C 660.458 1.69167 -1.19989 0
M  V30 6766 C 660.883 1.86607 0.236495 0
M  V30 6767 O 660.241 1.38425 1.17082 0
M  V30 6768 C 660.289 3.05532 -1.91527 0
M  V30 6769 O 659.393 3.93621 -1.2303 0
M  V30 6770 H 658.734 0.517584 -0.415936 0
M  V30 6771 H 661.264 1.12785 -1.70706 0
M  V30 6772 H 661.274 3.55693 -1.99866 0
M  V30 6773 H 659.949 2.92156 -2.96003 0
M  V30 6774 H 658.526 3.52055 -1.22928 0
M  V30 6775 N 660.711 1.11618 1.11262 0
M  V30 6776 C 661.988 0.777876 1.79467 0
M  V30 6777 C 662.368 -0.733774 1.97937 0
M  V30 6778 O 661.716 -1.66443 1.56554 0
M  V30 6779 C 661.926 1.5431 3.13032 0
M  V30 6780 C 663.274 1.72357 3.88044 0
M  V30 6781 O 664.298 1.5075 3.22727 0
M  V30 6782 O 663.157 2.08276 5.05256 0
M  V30 6783 H 660.251 0.282018 0.777428 0
M  V30 6784 H 662.797 1.21971 1.17988 0
M  V30 6785 H 661.569 2.57132 2.94956 0
M  V30 6786 H 661.192 1.09495 3.82226 0
M  V30 6787 N 662.189 -1.289 0.906776 0
M  V30 6788 C 663.6 -1.77336 0.58384 0
M  V30 6789 C 663.951 -1.74304 -0.900697 0
M  V30 6790 O 663.076 -1.33335 -1.70443 0
M  V30 6791 C 663.671 -3.22019 1.05304 0
M  V30 6792 C 662.23 -3.68205 0.781148 0
M  V30 6793 C 661.377 -2.48837 1.22373 0
M  V30 6794 H 664.328 -1.15462 1.08877 0
M  V30 6795 H 664.349 -3.78481 0.391414 0
M  V30 6796 H 663.861 -3.24194 2.13353 0
M  V30 6797 H 661.962 -3.71497 -0.28643 0
M  V30 6798 H 662.075 -4.58675 1.384 0
M  V30 6799 H 660.439 -2.46461 0.642594 0
M  V30 6800 H 661.222 -2.53736 2.31242 0
M  V30 6801 N 663.667 -0.670007 -1.42649 0
M  V30 6802 C 664.944 -0.119451 -1.95235 0
M  V30 6803 C 665.324 1.36461 -1.61064 0
M  V30 6804 O 664.672 2.09843 -0.904329 0
M  V30 6805 C 664.882 -0.383498 -3.46887 0
M  V30 6806 C 666.23 -0.297431 -4.23557 0
M  V30 6807 O 667.254 -0.31698 -3.54787 0
M  V30 6808 O 666.113 -0.235507 -5.45992 0
M  V30 6809 H 663.207 -8.85474e-05 -0.827 0
M  V30 6810 H 665.753 -0.744406 -1.52501 0
M  V30 6811 H 664.525 -1.41174 -3.64946 0
M  V30 6812 H 664.148 0.273702 -3.96657 0
M  V30 6813 N 665.145 1.52092 -0.413018 0
M  V30 6814 C 666.077 2.24819 0.445994 0
M  V30 6815 C 667.09 1.27925 1.00692 0
M  V30 6816 O 668.279 1.53845 0.905204 0
M  V30 6817 C 665.379 2.96951 1.6332 0
M  V30 6818 C 664.552 4.20746 1.19548 0
M  V30 6819 C 663.611 4.75668 2.25003 0
M  V30 6820 O 662.637 5.38148 1.85434 0
M  V30 6821 N 663.839 4.57579 3.57214 0
M  V30 6822 H 666.604 2.99176 -0.177209 0
M  V30 6823 H 664.165 1.60102 -0.240601 0
M  V30 6824 H 666.157 3.30586 2.33441 0
M  V30 6825 H 664.727 2.25756 2.16225 0
M  V30 6826 H 663.947 3.92881 0.32224 0
M  V30 6827 H 665.235 5.01132 0.880033 0
M  V30 6828 H 664.633 4.07758 3.92109 0
M  V30 6829 H 663.19 4.95642 4.23299 0
M  V30 6830 N 666.623 0.143563 1.56945 0
M  V30 6831 C 667.553 -0.7936 2.196 0
M  V30 6832 C 668.534 -1.25955 1.14321 0
M  V30 6833 O 669.719 -1.31773 1.42651 0
M  V30 6834 C 666.849 -2.03424 2.81489 0
M  V30 6835 C 665.803 -1.70519 3.92565 0
M  V30 6836 C 665.129 -3.01817 4.41373 0
M  V30 6837 C 666.429 -0.95449 5.13504 0
M  V30 6838 H 668.123 -0.271423 2.98167 0
M  V30 6839 H 665.669 -0.12911 1.4342 0
M  V30 6840 H 667.622 -2.69463 3.23987 0
M  V30 6841 H 666.346 -2.58008 2.00248 0
M  V30 6842 H 665.005 -1.06859 3.5068 0
M  V30 6843 H 664.653 -3.54386 3.56959 0
M  V30 6844 H 664.353 -2.80565 5.16292 0
M  V30 6845 H 665.877 -3.68934 4.86539 0
M  V30 6846 H 667.291 -1.5169 5.52868 0
M  V30 6847 H 665.688 -0.842035 5.94163 0
M  V30 6848 H 666.758 0.0544033 4.84869 0
M  V30 6849 N 668.101 -1.57061 -0.130224 0
M  V30 6850 C 669.378 -1.75205 -0.869631 0
M  V30 6851 C 669.758 -0.716063 -1.98584 0
M  V30 6852 O 669.106 0.262032 -2.26993 0
M  V30 6853 C 669.316 -3.19835 -1.39666 0
M  V30 6854 C 670.664 -3.82011 -1.85345 0
M  V30 6855 O 671.688 -3.23368 -1.49371 0
M  V30 6856 O 670.547 -4.85064 -2.51744 0
M  V30 6857 H 667.641 -0.716977 -0.412157 0
M  V30 6858 H 670.187 -1.69311 -0.11484 0
M  V30 6859 H 668.959 -3.86745 -0.595288 0
M  V30 6860 H 668.582 -3.30222 -2.21448 0
M  V30 6861 N 669.579 0.400081 -1.52437 0
M  V30 6862 C 670.809 1.16598 -1.70553 0
M  V30 6863 C 671.217 1.8451 -0.418665 0
M  V30 6864 O 670.56 1.73069 0.615855 0
M  V30 6865 C 670.622 2.26517 -2.7916 0
M  V30 6866 C 670.286 1.78666 -4.20628 0
M  V30 6867 C 671.283 1.26946 -5.04163 0
M  V30 6868 C 668.968 1.85225 -4.66902 0
M  V30 6869 C 670.962 0.824187 -6.32049 0
M  V30 6870 C 668.649 1.40309 -5.94774 0
M  V30 6871 C 669.647 0.889922 -6.77178 0
M  V30 6872 O 669.335 0.447281 -8.02655 0
M  V30 6873 H 669.067 0.356023 -0.574651 0
M  V30 6874 H 671.621 0.475598 -1.99818 0
M  V30 6875 H 669.851 2.98946 -2.45292 0
M  V30 6876 H 671.54 2.88237 -2.85787 0
M  V30 6877 H 672.306 1.21244 -4.69601 0
M  V30 6878 H 668.185 2.24111 -4.02859 0
M  V30 6879 H 671.729 0.422958 -6.96317 0
M  V30 6880 H 667.626 1.45693 -6.28843 0
M  V30 6881 H 668.394 0.569768 -8.16514 0
M  V30 6882 N 671.057 1.43213 0.657864 0
M  V30 6883 C 671.99 1.42456 1.78273 0
M  V30 6884 C 672.968 0.286598 1.60054 0
M  V30 6885 O 674.152 0.479467 1.823 0
M  V30 6886 C 671.279 1.23169 3.15511 0
M  V30 6887 C 670.325 2.40181 3.52442 0
M  V30 6888 S 671.158 4.02729 3.52944 0
M  V30 6889 C 672.314 3.85816 4.92846 0
M  V30 6890 H 672.547 2.37642 1.78644 0
M  V30 6891 H 670.08 1.30188 0.830084 0
M  V30 6892 H 672.038 1.12728 3.94719 0
M  V30 6893 H 670.699 0.295398 3.12708 0
M  V30 6894 H 669.892 2.22478 4.52239 0
M  V30 6895 H 669.494 2.47224 2.80636 0
M  V30 6896 H 671.786 3.47853 5.81381 0
M  V30 6897 H 672.729 4.85348 5.15599 0
M  V30 6898 H 673.137 3.18361 4.66162 0
M  V30 6899 N 672.536 -0.895792 1.29666 0
M  V30 6900 C 673.499 -1.98189 1.15124 0
M  V30 6901 C 674.499 -1.60572 0.0855717 0
M  V30 6902 O 675.689 -1.70991 0.332826 0
M  V30 6903 C 672.821 -3.32289 0.761372 0
M  V30 6904 H 674.014 -2.12518 2.11603 0
M  V30 6905 H 671.567 -1.0808 1.12908 0
M  V30 6906 H 672.302 -3.23662 -0.203393 0
M  V30 6907 H 672.087 -3.60958 1.53139 0
M  V30 6908 H 673.577 -4.1198 0.682792 0
M  V30 6909 N 674.014 -1.12206 -1.10668 0
M  V30 6910 C 675.261 -0.875875 -1.82578 0
M  V30 6911 C 675.589 0.598342 -1.85068 0
M  V30 6912 O 674.844 1.45818 -1.3052 0
M  V30 6913 C 675.143 -1.39276 -3.29146 0
M  V30 6914 C 674.809 -2.8816 -3.46806 0
M  V30 6915 C 673.471 -3.28813 -3.51334 0
M  V30 6916 C 675.823 -3.8401 -3.52399 0
M  V30 6917 C 673.151 -4.64028 -3.59019 0
M  V30 6918 C 675.503 -5.19053 -3.61617 0
M  V30 6919 C 674.167 -5.59252 -3.64408 0
M  V30 6920 H 673.437 -0.320505 -0.6681 0
M  V30 6921 H 676.084 -1.40184 -1.30464 0
M  V30 6922 H 674.389 -0.787207 -3.8381 0
M  V30 6923 H 676.086 -1.17851 -3.83291 0
M  V30 6924 H 672.676 -2.55716 -3.43958 0
M  V30 6925 H 676.86 -3.53698 -3.48154 0
M  V30 6926 H 672.116 -4.94568 -3.59461 0
M  V30 6927 H 676.29 -5.93152 -3.64889 0
M  V30 6928 H 673.917 -6.64017 -3.70116 0
M  V30 6929 N 675.492 1.28418 -0.913599 0
M  V30 6930 C 676.903 1.77024 -0.593237 0
M  V30 6931 C 677.254 1.74779 0.891441 0
M  V30 6932 O 676.379 1.34237 1.69733 0
M  V30 6933 C 676.974 3.21456 -1.07011 0
M  V30 6934 C 675.533 3.67786 -0.800664 0
M  V30 6935 C 674.68 2.48185 -1.23691 0
M  V30 6936 H 677.631 1.14883 -1.09487 0
M  V30 6937 H 677.652 3.78269 -0.411481 0
M  V30 6938 H 677.164 3.23058 -2.1507 0
M  V30 6939 H 675.265 3.71644 0.266725 0
M  V30 6940 H 675.378 4.57934 -1.4083 0
M  V30 6941 H 673.742 2.46116 -0.655655 0
M  V30 6942 H 674.525 2.52506 -2.32585 0
M  V30 6943 N 676.97 0.677563 1.42291 0
M  V30 6944 C 678.386 0.347376 1.55774 0
M  V30 6945 C 678.586 -1.14703 1.65667 0
M  V30 6946 O 677.642 -1.93252 1.62512 0
M  V30 6947 C 678.955 1.08011 2.80631 0
M  V30 6948 C 680.503 1.06271 2.94407 0
M  V30 6949 C 680.978 1.77683 4.22129 0
M  V30 6950 N 682.469 1.74564 4.29047 0
M  V30 6951 C 683.204 2.26673 5.26694 0
M  V30 6952 N 682.7 2.87176 6.30477 0
M  V30 6953 N 684.493 2.17032 5.18511 0
M  V30 6954 H 676.644 1.64703 1.34114 0
M  V30 6955 H 678.907 0.694038 0.645768 0
M  V30 6956 H 678.613 2.13518 2.79469 0
M  V30 6957 H 678.487 0.647115 3.71608 0
M  V30 6958 H 680.874 0.0159658 2.95096 0
M  V30 6959 H 680.955 1.53461 2.04654 0
M  V30 6960 H 680.599 2.82327 4.22201 0
M  V30 6961 H 680.529 1.2794 5.10822 0
M  V30 6962 H 683.02 1.30436 3.54676 0
M  V30 6963 H 683.333 3.24551 7.01346 0
M  V30 6964 H 681.678 2.91247 6.31031 0
M  V30 6965 H 684.869 1.69451 4.36353 0
M  V30 6966 H 685.042 2.57948 5.94446 0
M  V30 6967 N 678.448 -1.51871 0.421078 0
M  V30 6968 C 679.378 -2.30231 -0.389363 0
M  V30 6969 C 680.359 -1.34946 -1.03555 0
M  V30 6970 O 681.544 -1.63859 -1.04229 0
M  V30 6971 C 678.674 -3.13247 -1.49979 0
M  V30 6972 C 677.628 -4.16677 -0.977966 0
M  V30 6973 C 676.954 -4.88112 -2.1829 0
M  V30 6974 C 678.254 -5.22295 -0.0236775 0
M  V30 6975 H 679.948 -2.98229 0.264524 0
M  V30 6976 H 677.494 -1.43424 0.12866 0
M  V30 6977 H 679.447 -3.66838 -2.07383 0
M  V30 6978 H 678.171 -2.4304 -2.18173 0
M  V30 6979 H 676.83 -3.64114 -0.426245 0
M  V30 6980 H 676.478 -4.14423 -2.85066 0
M  V30 6981 H 676.178 -5.58041 -1.84021 0
M  V30 6982 H 677.702 -5.44521 -2.76278 0
M  V30 6983 H 679.116 -5.71055 -0.506899 0
M  V30 6984 H 677.513 -5.99656 0.230782 0
M  V30 6985 H 678.583 -4.76131 0.917999 0
M  V30 6986 N 679.926 -0.151884 -1.56866 0
M  V30 6987 C 681.337 0.368128 -1.83035 0
M  V30 6988 C 681.688 1.64402 -1.07082 0
M  V30 6989 O 680.813 2.14056 -0.317647 0
M  V30 6990 C 681.408 0.674676 -3.32014 0
M  V30 6991 C 679.967 1.13919 -3.58747 0
M  V30 6992 C 679.114 0.164833 -2.7681 0
M  V30 6993 H 682.065 -0.376499 -1.54169 0
M  V30 6994 H 682.086 1.52883 -3.48435 0
M  V30 6995 H 681.598 -0.254113 -3.87267 0
M  V30 6996 H 679.699 2.08375 -3.08886 0
M  V30 6997 H 679.812 1.06179 -4.67186 0
M  V30 6998 H 678.176 0.658419 -2.46043 0
M  V30 6999 H 678.959 -0.757633 -3.34836 0
M  V30 7000 N 681.404 1.57128 0.121893 0
M  V30 7001 C 682.652 1.84335 0.828548 0
M  V30 7002 C 682.973 0.736632 1.80551 0
M  V30 7003 O 682.243 -0.23962 1.94429 0
M  V30 7004 H 680.823 0.680108 0.30897 0
M  V30 7005 H 683.485 1.9459 0.109906 0
M  V30 7006 H 682.581 2.80152 1.37554 0
M  V30 7007 N 682.882 -0.391992 1.52647 0
M  V30 7008 C 684.128 -1.139 1.67793 0
M  V30 7009 C 684.461 -1.89711 0.41514 0
M  V30 7010 O 683.736 -1.85431 -0.586979 0
M  V30 7011 C 684.019 -2.11966 2.91105 0
M  V30 7012 C 683.872 -1.39939 4.27478 0
M  V30 7013 C 685.191 -3.1243 3.09961 0
M  V30 7014 H 682.31 -0.412707 0.610608 0
M  V30 7015 H 684.952 -0.422725 1.85238 0
M  V30 7016 H 683.102 -2.73048 2.76364 0
M  V30 7017 H 684.774 -0.818439 4.53982 0
M  V30 7018 H 683.017 -0.701246 4.28095 0
M  V30 7019 H 683.688 -2.1158 5.09841 0
M  V30 7020 H 686.164 -2.61435 3.23714 0
M  V30 7021 H 685.04 -3.78294 3.97725 0
M  V30 7022 H 685.301 -3.81127 2.24042 0
M  V30 7023 N 684.36 -1.4356 -0.65026 0
M  V30 7024 C 685.323 -1.48615 -1.74489 0
M  V30 7025 C 686.323 -0.370483 -1.56474 0
M  V30 7026 O 687.513 -0.632351 -1.62317 0
M  V30 7027 C 684.645 -1.34161 -3.13391 0
M  V30 7028 H 685.838 -2.46103 -1.71387 0
M  V30 7029 H 683.391 -1.30369 -0.862186 0
M  V30 7030 H 684.126 -0.376918 -3.22102 0
M  V30 7031 H 683.911 -2.1504 -3.27872 0
M  V30 7032 H 685.401 -1.40637 -3.93206 0
M  V30 7033 N 685.838 0.888903 -1.30139 0
M  V30 7034 C 686.748 2.02705 -1.18101 0
M  V30 7035 C 687.764 1.73702 -0.101809 0
M  V30 7036 O 688.94 1.98906 -0.315984 0
M  V30 7037 C 686.005 3.35616 -0.869651 0
M  V30 7038 C 685.066 3.78067 -2.03381 0
M  V30 7039 C 684.299 5.04635 -1.73721 0
M  V30 7040 O 684.522 5.66531 -0.663267 0
M  V30 7041 O 683.456 5.43399 -2.58845 0
M  V30 7042 H 687.282 2.15788 -2.13704 0
M  V30 7043 H 684.867 1.01426 -1.09695 0
M  V30 7044 H 686.749 4.15358 -0.711043 0
M  V30 7045 H 685.424 3.23651 0.0565002 0
M  V30 7046 H 684.331 2.99046 -2.24772 0
M  V30 7047 H 685.664 3.94631 -2.94155 0
M  V30 7048 N 687.317 1.12792 1.10072 0
M  V30 7049 C 688.247 0.821688 2.18565 0
M  V30 7050 C 689.228 -0.21612 1.68721 0
M  V30 7051 O 690.413 -0.0764932 1.94049 0
M  V30 7052 C 687.543 0.279624 3.46172 0
M  V30 7053 C 686.497 1.25092 4.09312 0
M  V30 7054 C 685.823 0.568916 5.31665 0
M  V30 7055 C 687.123 2.60699 4.52585 0
M  V30 7056 H 688.817 1.72888 2.44438 0
M  V30 7057 H 686.363 0.832702 1.17482 0
M  V30 7058 H 688.316 0.053099 4.21367 0
M  V30 7059 H 687.04 -0.662929 3.19801 0
M  V30 7060 H 685.699 1.46332 3.36129 0
M  V30 7061 H 685.347 -0.378898 5.01571 0
M  V30 7062 H 685.047 1.21687 5.74862 0
M  V30 7063 H 686.571 0.351517 6.09587 0
M  V30 7064 H 687.985 2.43465 5.19035 0
M  V30 7065 H 686.382 3.21608 5.06644 0
M  V30 7066 H 687.452 3.1886 3.65317 0
M  V30 7067 N 688.795 -1.27931 0.920396 0
M  V30 7068 C 690.043 -1.94304 0.555906 0
M  V30 7069 C 690.364 -1.72753 -0.904519 0
M  V30 7070 O 689.634 -1.07104 -1.64029 0
M  V30 7071 H 688.214 -0.719001 0.202599 0
M  V30 7072 H 690.876 -1.55785 1.1712 0
M  V30 7073 H 689.972 -3.02806 0.755981 0
M  V30 7074 N 690.273 -0.685099 -1.4193 0
M  V30 7075 C 691.519 -0.220688 -2.02199 0
M  V30 7076 C 691.874 1.16329 -1.5325 0
M  V30 7077 O 691.167 1.77175 -0.729345 0
M  V30 7078 C 691.361 -0.206154 -3.56805 0
M  V30 7079 C 691.19 -1.58718 -4.2076 0
M  V30 7080 C 689.96 -2.18747 -4.55497 0
M  V30 7081 C 692.158 -2.53182 -4.47664 0
M  V30 7082 N 690.14 -3.49523 -5.04685 0
M  V30 7083 C 691.511 -3.68625 -4.98514 0
M  V30 7084 C 693.566 -2.51582 -4.29664 0
M  V30 7085 C 692.269 -4.82734 -5.33255 0
M  V30 7086 C 694.295 -3.64795 -4.65487 0
M  V30 7087 C 693.657 -4.78967 -5.16498 0
M  V30 7088 H 689.756 -0.12591 -0.771797 0
M  V30 7089 H 692.34 -0.900316 -1.72634 0
M  V30 7090 H 690.511 0.442923 -3.85866 0
M  V30 7091 H 692.243 0.272103 -4.03784 0
M  V30 7092 H 688.998 -1.71135 -4.41599 0
M  V30 7093 H 689.422 -4.1653 -5.33696 0
M  V30 7094 H 694.064 -1.64535 -3.89472 0
M  V30 7095 H 691.782 -5.7045 -5.72375 0
M  V30 7096 H 695.368 -3.64796 -4.53227 0
M  V30 7097 H 694.248 -5.6512 -5.437 0
M  V30 7098 N 691.751 1.51645 -0.429126 0
M  V30 7099 C 692.976 2.06917 0.141399 0
M  V30 7100 C 693.401 1.29527 1.36398 0
M  V30 7101 O 692.759 0.33094 1.78254 0
M  V30 7102 C 692.807 3.57776 0.4504 0
M  V30 7103 O 691.911 3.82639 1.53821 0
M  V30 7104 H 691.252 0.663978 0.0054647 0
M  V30 7105 H 693.782 1.95355 -0.608093 0
M  V30 7106 H 693.792 4.01894 0.703249 0
M  V30 7107 H 692.467 4.13532 -0.443213 0
M  V30 7108 H 691.044 3.5039 1.27597 0
M  V30 7109 N 693.229 0.160201 1.56784 0
M  V30 7110 C 694.64 -0.358417 1.83227 0
M  V30 7111 C 694.991 -1.63831 1.07952 0
M  V30 7112 O 694.116 -2.13885 0.328995 0
M  V30 7113 C 694.711 -0.657058 3.32368 0
M  V30 7114 C 693.27 -1.12015 3.59346 0
M  V30 7115 C 692.417 -0.15015 2.76893 0
M  V30 7116 H 695.368 0.384669 1.53967 0
M  V30 7117 H 695.389 -1.51033 3.49241 0
M  V30 7118 H 694.901 0.274647 3.87127 0
M  V30 7119 H 693.002 -2.06734 3.09987 0
M  V30 7120 H 693.115 -1.037 4.67743 0
M  V30 7121 H 691.479 -0.645361 2.46388 0
M  V30 7122 H 692.262 0.775379 3.34429 0
M  V30 7123 N 694.707 -1.5719 -0.113559 0
M  V30 7124 C 695.67 -1.99796 -1.12314 0
M  V30 7125 C 696.67 -0.888847 -1.34001 0
M  V30 7126 O 697.86 -1.15476 -1.30426 0
M  V30 7127 C 694.992 -2.34279 -2.47641 0
M  V30 7128 H 696.185 -2.90193 -0.756825 0
M  V30 7129 H 693.738 -1.52144 -0.358029 0
M  V30 7130 H 694.473 -1.46778 -2.89183 0
M  V30 7131 H 694.258 -3.15175 -2.33253 0
M  V30 7132 H 695.748 -2.67963 -3.2029 0
M  V30 7133 N 696.185 0.383891 -1.52853 0
M  V30 7134 C 697.41 1.154 -1.7233 0
M  V30 7135 C 697.835 1.82809 -0.44298 0
M  V30 7136 O 697.193 1.71026 0.601645 0
M  V30 7137 C 697.241 2.17386 -2.87708 0
M  V30 7138 O 696.345 3.24082 -2.55038 0
M  V30 7139 H 695.686 0.335709 -0.572883 0
M  V30 7140 H 698.216 0.44662 -1.99666 0
M  V30 7141 H 698.226 2.61296 -3.1335 0
M  V30 7142 H 696.901 1.6771 -3.80587 0
M  V30 7143 H 695.478 2.85273 -2.40153 0
M  V30 7144 N 697.663 1.43903 0.642637 0
M  V30 7145 C 698.891 1.4954 1.42988 0
M  V30 7146 C 699.306 0.116588 1.8844 0
M  V30 7147 O 698.663 -0.875285 1.60141 0
M  V30 7148 C 698.714 2.45031 2.65785 0
M  V30 7149 O 698.435 3.77551 2.22232 0
M  V30 7150 C 699.936 2.60017 3.59035 0
M  V30 7151 H 697.156 0.507544 0.438907 0
M  V30 7152 H 699.7 1.88752 0.786942 0
M  V30 7153 H 697.855 2.08985 3.26196 0
M  V30 7154 H 698.269 4.29001 3.01759 0
M  V30 7155 H 699.743 3.30887 4.41835 0
M  V30 7156 H 700.22 1.64861 4.07084 0
M  V30 7157 H 700.826 2.96918 3.045 0
M  V30 7158 N 699.141 -0.881989 1.30609 0
M  V30 7159 C 700.091 -1.97539 1.13852 0
M  V30 7160 C 701.075 -1.60813 0.0528428 0
M  V30 7161 O 702.267 -1.74827 0.276484 0
M  V30 7162 C 699.396 -3.32977 0.835519 0
M  V30 7163 C 698.482 -3.76008 1.96159 0
M  V30 7164 N 698.873 -3.91109 3.20729 0
M  V30 7165 C 697.171 -4.05427 1.85863 0
M  V30 7166 C 697.872 -4.27661 3.94311 0
M  V30 7167 N 696.848 -4.37686 3.22385 0
M  V30 7168 H 700.65 -2.07309 2.08327 0
M  V30 7169 H 698.164 -1.072 1.21992 0
M  V30 7170 H 700.161 -4.11041 0.696477 0
M  V30 7171 H 698.821 -3.24542 -0.101135 0
M  V30 7172 H 699.832 -3.7616 3.55984 0
M  V30 7173 H 696.509 -4.05449 0.995847 0
M  V30 7174 H 697.899 -4.47042 5.01601 0
M  V30 7175 N 700.619 -1.13374 -1.09472 0
M  V30 7176 C 701.896 -0.806329 -1.78207 0
M  V30 7177 C 702.276 0.702191 -1.99079 0
M  V30 7178 O 701.624 1.63931 -1.59182 0
M  V30 7179 C 701.834 -1.59271 -3.10538 0
M  V30 7180 C 703.182 -1.78509 -3.85253 0
M  V30 7181 O 704.206 -1.55866 -3.20288 0
M  V30 7182 O 703.065 -2.16287 -5.01879 0
M  V30 7183 H 700.159 -0.29435 -0.772843 0
M  V30 7184 H 702.705 -1.23833 -1.16033 0
M  V30 7185 H 701.477 -2.61792 -2.90828 0
M  V30 7186 H 701.1 -1.15562 -3.80436 0
M  V30 7187 N 702.098 1.27442 -0.927168 0
M  V30 7188 C 703.344 1.95025 -0.577651 0
M  V30 7189 C 703.699 1.71534 0.871421 0
M  V30 7190 O 702.992 1.03354 1.61333 0
M  V30 7191 C 703.186 3.47413 -0.838994 0
M  V30 7192 C 703.015 3.85721 -2.31192 0
M  V30 7193 C 701.785 4.09199 -2.96452 0
M  V30 7194 C 703.983 3.95352 -3.28939 0
M  V30 7195 N 701.965 4.34283 -4.33903 0
M  V30 7196 C 703.336 4.24805 -4.51598 0
M  V30 7197 C 705.391 3.77926 -3.24155 0
M  V30 7198 C 704.094 4.38645 -5.70073 0
M  V30 7199 C 706.12 3.9299 -4.41942 0
M  V30 7200 C 705.482 4.22829 -5.63379 0
M  V30 7201 H 701.581 0.736983 -0.261495 0
M  V30 7202 H 704.165 1.53816 -1.19368 0
M  V30 7203 H 702.336 3.87581 -0.252129 0
M  V30 7204 H 704.068 4.02166 -0.452158 0
M  V30 7205 H 700.823 4.04013 -2.47125 0
M  V30 7206 H 701.247 4.50883 -5.05008 0
M  V30 7207 H 705.889 3.53897 -2.31337 0
M  V30 7208 H 703.607 4.615 -6.63358 0
M  V30 7209 H 707.193 3.80926 -4.39757 0
M  V30 7210 H 706.073 4.34234 -6.53001 0
M  V30 7211 N 703.576 0.692616 1.41565 0
M  V30 7212 C 704.853 0.150496 1.9502 0
M  V30 7213 C 705.233 -1.33881 1.63215 0
M  V30 7214 O 704.581 -2.08378 0.937598 0
M  V30 7215 C 704.791 0.438636 3.46233 0
M  V30 7216 C 706.139 0.364777 4.2303 0
M  V30 7217 O 707.163 0.373383 3.54238 0
M  V30 7218 O 706.022 0.32234 5.45549 0
M  V30 7219 H 703.116 0.0132454 0.826894 0
M  V30 7220 H 705.662 0.768574 1.51298 0
M  V30 7221 H 704.434 1.46962 3.62654 0
M  V30 7222 H 704.057 -0.210562 3.97042 0
M  V30 7223 N 705.054 -1.51416 0.437162 0
M  V30 7224 C 706.282 -2.06503 -0.128045 0
M  V30 7225 C 706.697 -1.30461 -1.36475 0
M  V30 7226 O 706.054 -0.364127 -1.78831 0
M  V30 7227 C 706.105 -3.58683 -0.450437 0
M  V30 7228 O 705.826 -4.31853 0.737186 0
M  V30 7229 C 707.327 -4.30284 -1.06633 0
M  V30 7230 H 704.547 -0.670952 -0.00800269 0
M  V30 7231 H 707.091 -1.94996 0.616193 0
M  V30 7232 H 705.246 -3.70106 -1.14457 0
M  V30 7233 H 705.66 -5.22467 0.461347 0
M  V30 7234 H 707.134 -5.37848 -1.24191 0
M  V30 7235 H 707.611 -3.88564 -2.0473 0
M  V30 7236 H 708.217 -4.23304 -0.411585 0
M  V30 7237 N 706.532 -0.168513 -1.56696 0
M  V30 7238 C 707.762 0.482802 -2.0088 0
M  V30 7239 C 708.17 1.57537 -1.0478 0
M  V30 7240 O 707.513 1.83656 -0.0402746 0
M  V30 7241 C 707.575 1.1236 -3.4149 0
M  V30 7242 C 707.239 0.173027 -4.56672 0
M  V30 7243 C 708.236 -0.607565 -5.16338 0
M  V30 7244 C 705.921 0.0696691 -5.02252 0
M  V30 7245 C 707.915 -1.47874 -6.2001 0
M  V30 7246 C 705.602 -0.805096 -6.05773 0
M  V30 7247 C 706.6 -1.57789 -6.64524 0
M  V30 7248 O 706.288 -2.43804 -7.66038 0
M  V30 7249 H 706.02 0.128246 -0.663723 0
M  V30 7250 H 708.574 -0.266532 -2.03663 0
M  V30 7251 H 706.804 1.921 -3.35611 0
M  V30 7252 H 708.493 1.67683 -3.69645 0
M  V30 7253 H 709.259 -0.53787 -4.82008 0
M  V30 7254 H 705.138 0.660957 -4.56237 0
M  V30 7255 H 708.682 -2.0824 -6.65794 0
M  V30 7256 H 704.579 -0.876005 -6.39528 0
M  V30 7257 H 705.347 -2.37289 -7.83349 0
M  V30 7258 N 708.01 1.57248 0.105221 0
M  V30 7259 C 708.957 2.01338 1.12835 0
M  V30 7260 C 709.927 0.887897 1.40377 0
M  V30 7261 O 711.112 1.15315 1.5201 0
M  V30 7262 C 708.252 2.43432 2.44611 0
M  V30 7263 C 707.365 3.69457 2.23888 0
M  V30 7264 C 706.5 4.00473 3.48991 0
M  V30 7265 C 705.539 5.19638 3.23485 0
M  V30 7266 N 704.676 5.46457 4.40828 0
M  V30 7267 H 709.516 2.88527 0.745386 0
M  V30 7268 H 707.053 1.42714 0.356535 0
M  V30 7269 H 709.011 2.65879 3.21503 0
M  V30 7270 H 707.641 1.59266 2.80774 0
M  V30 7271 H 706.693 3.54545 1.37847 0
M  V30 7272 H 708.005 4.56497 2.01026 0
M  V30 7273 H 707.159 4.23642 4.34295 0
M  V30 7274 H 705.898 3.11935 3.74897 0
M  V30 7275 H 704.903 4.96299 2.36574 0
M  V30 7276 H 706.128 6.09766 2.98935 0
M  V30 7277 H 704.074 4.60876 4.66829 0
M  V30 7278 H 703.991 6.27849 4.2112 0
M  V30 7279 H 705.259 5.74155 5.27225 0
M  V30 7280 N 709.488 -0.375779 1.53054 0
M  V30 7281 C 710.734 -1.12114 1.68992 0
M  V30 7282 C 711.067 -1.8926 0.435238 0
M  V30 7283 O 710.342 -1.86044 -0.567278 0
M  V30 7284 C 710.625 -2.08867 2.93337 0
M  V30 7285 C 710.478 -1.35397 4.28938 0
M  V30 7286 C 711.797 -3.09124 3.13257 0
M  V30 7287 H 708.916 -0.406207 0.614951 0
M  V30 7288 H 711.558 -0.403054 1.85676 0
M  V30 7289 H 709.708 -2.70102 2.79244 0
M  V30 7290 H 711.38 -0.770242 4.54824 0
M  V30 7291 H 709.623 -0.655801 4.28814 0
M  V30 7292 H 710.294 -2.06161 5.12056 0
M  V30 7293 H 712.77 -2.57987 3.26469 0
M  V30 7294 H 711.646 -3.74054 4.01715 0
M  V30 7295 H 711.907 -3.78729 2.28072 0
M  V30 7296 N 710.966 -1.44241 -0.634997 0
M  V30 7297 C 712.382 -1.28043 -0.952742 0
M  V30 7298 C 712.582 -0.21338 -2.00367 0
M  V30 7299 O 711.638 0.402042 -2.49279 0
M  V30 7300 C 712.951 -2.65076 -1.41968 0
M  V30 7301 C 714.499 -2.72755 -1.53537 0
M  V30 7302 C 714.974 -4.10249 -2.03616 0
M  V30 7303 N 716.465 -4.12406 -2.10892 0
M  V30 7304 C 717.2 -5.15641 -2.50803 0
M  V30 7305 N 716.696 -6.29239 -2.89879 0
M  V30 7306 N 718.489 -5.02995 -2.50903 0
M  V30 7307 H 710.64 -2.12315 0.060098 0
M  V30 7308 H 712.903 -0.947326 -0.0357325 0
M  V30 7309 H 712.609 -3.44213 -0.721804 0
M  V30 7310 H 712.483 -2.91704 -2.39141 0
M  V30 7311 H 714.87 -1.93939 -2.22422 0
M  V30 7312 H 714.951 -2.49872 -0.547496 0
M  V30 7313 H 714.595 -4.8954 -1.35327 0
M  V30 7314 H 714.525 -4.30507 -3.03268 0
M  V30 7315 H 717.016 -3.30417 -1.83393 0
M  V30 7316 H 717.329 -7.03827 -3.19135 0
M  V30 7317 H 715.674 -6.32683 -2.8764 0
M  V30 7318 H 718.865 -4.13306 -2.19763 0
M  V30 7319 H 719.038 -5.83574 -2.81683 0
M  V30 7320 N 712.444 0.87505 -1.31075 0
M  V30 7321 C 713.374 1.99775 -1.20881 0
M  V30 7322 C 714.355 1.69822 -0.0971612 0
M  V30 7323 O 715.54 1.92158 -0.280895 0
M  V30 7324 C 712.67 3.35163 -0.910118 0
M  V30 7325 C 711.624 3.79406 -1.98078 0
M  V30 7326 C 710.95 5.12197 -1.53488 0
M  V30 7327 C 712.25 3.97061 -3.39323 0
M  V30 7328 H 713.944 2.08562 -2.14808 0
M  V30 7329 H 711.49 1.00207 -1.03415 0
M  V30 7330 H 713.443 4.13237 -0.825423 0
M  V30 7331 H 712.167 3.26536 0.064822 0
M  V30 7332 H 710.826 3.03568 -2.05528 0
M  V30 7333 H 710.474 5.00007 -0.547941 0
M  V30 7334 H 710.174 5.4277 -2.2511 0
M  V30 7335 H 711.698 5.92785 -1.46417 0
M  V30 7336 H 713.112 4.65545 -3.34576 0
M  V30 7337 H 711.509 4.39025 -4.09118 0
M  V30 7338 H 712.579 3.00601 -3.80483 0
M  V30 7339 N 713.922 1.13953 1.08869 0
M  V30 7340 C 714.885 0.824991 2.13838 0
M  V30 7341 C 715.885 -0.168198 1.59918 0
M  V30 7342 O 717.075 0.0595778 1.74098 0
M  V30 7343 C 714.207 0.228938 3.4013 0
M  V30 7344 H 715.4 1.75521 2.43171 0
M  V30 7345 H 712.953 0.94492 1.24503 0
M  V30 7346 H 713.688 -0.710227 3.16427 0
M  V30 7347 H 713.473 0.944243 3.80561 0
M  V30 7348 H 714.963 0.0259223 4.17592 0
M  V30 7349 N 715.4 -1.26948 0.933913 0
M  V30 7350 C 716.363 -2.24889 0.442457 0
M  V30 7351 C 717.363 -1.54594 -0.442426 0
M  V30 7352 O 718.553 -1.72502 -0.242629 0
M  V30 7353 C 715.685 -3.3896 -0.363173 0
M  V30 7354 H 716.878 -2.69879 1.30787 0
M  V30 7355 H 714.431 -1.38978 0.715187 0
M  V30 7356 H 715.166 -2.99361 -1.24714 0
M  V30 7357 H 714.951 -3.9116 0.271366 0
M  V30 7358 H 716.441 -4.11739 -0.697186 0
M  V30 7359 N 716.879 -0.700114 -1.41195 0
M  V30 7360 C 717.811 0.00155823 -2.292 0
M  V30 7361 C 718.824 0.739736 -1.45023 0
M  V30 7362 O 720.013 0.589684 -1.68478 0
M  V30 7363 C 717.113 1.02635 -3.22985 0
M  V30 7364 C 716.286 0.356871 -4.35942 0
M  V30 7365 C 715.345 1.28491 -5.10271 0
M  V30 7366 O 714.371 0.775562 -5.63892 0
M  V30 7367 N 715.573 2.61699 -5.18164 0
M  V30 7368 H 718.338 -0.754008 -2.9006 0
M  V30 7369 H 715.899 -0.546504 -1.52397 0
M  V30 7370 H 717.891 1.64902 -3.6958 0
M  V30 7371 H 716.461 1.68341 -2.63401 0
M  V30 7372 H 715.681 -0.445753 -3.91672 0
M  V30 7373 H 716.969 -0.108469 -5.08684 0
M  V30 7374 H 716.367 3.05594 -4.76056 0
M  V30 7375 H 714.924 3.19149 -5.6832 0
M  V30 7376 N 718.357 1.51182 -0.445186 0
M  V30 7377 C 719.32 2.26501 0.350722 0
M  V30 7378 C 720.32 1.3025 0.942952 0
M  V30 7379 O 721.51 1.53897 0.816175 0
M  V30 7380 C 718.642 3.06274 1.49697 0
M  V30 7381 H 719.835 2.98299 -0.309474 0
M  V30 7382 H 717.388 1.55034 -0.198551 0
M  V30 7383 H 718.123 2.38911 2.19299 0
M  V30 7384 H 717.908 3.76979 1.0784 0
M  V30 7385 H 719.398 3.63306 2.05909 0
M  V30 7386 N 719.835 0.176821 1.56605 0
M  V30 7387 C 721.246 -0.338963 1.83597 0
M  V30 7388 C 721.597 -1.62677 1.09684 0
M  V30 7389 O 720.722 -2.13524 0.351661 0
M  V30 7390 C 721.317 -0.62177 3.33046 0
M  V30 7391 C 719.876 -1.08198 3.60514 0
M  V30 7392 C 719.023 -0.120774 2.77037 0
M  V30 7393 H 721.974 0.400978 1.53551 0
M  V30 7394 H 721.995 -1.47321 3.50823 0
M  V30 7395 H 721.507 0.315692 3.86814 0
M  V30 7396 H 719.608 -2.03435 3.12162 0
M  V30 7397 H 719.721 -0.987329 4.68816 0
M  V30 7398 H 718.085 -0.619192 2.47059 0
M  V30 7399 H 718.868 0.810806 3.33588 0
M  V30 7400 N 721.313 -1.57302 -0.09688 0
M  V30 7401 C 722.543 -1.89926 -0.813114 0
M  V30 7402 C 722.951 -0.76852 -1.72888 0
M  V30 7403 O 722.294 0.268549 -1.81726 0
M  V30 7404 C 722.356 -3.17787 -1.68082 0
M  V30 7405 C 722.02 -4.4729 -0.937061 0
M  V30 7406 C 723.017 -5.1921 -0.267687 0
M  V30 7407 C 720.702 -4.93957 -0.911671 0
M  V30 7408 C 722.696 -6.36034 0.417129 0
M  V30 7409 C 720.383 -6.10693 -0.223068 0
M  V30 7410 C 721.381 -6.8158 0.440155 0
M  V30 7411 O 721.069 -7.96092 1.11772 0
M  V30 7412 H 720.801 -0.632783 -0.237828 0
M  V30 7413 H 723.355 -2.05248 -0.0790818 0
M  V30 7414 H 721.585 -2.98607 -2.45705 0
M  V30 7415 H 723.274 -3.36257 -2.27346 0
M  V30 7416 H 724.04 -4.84198 -0.278774 0
M  V30 7417 H 719.919 -4.38671 -1.41734 0
M  V30 7418 H 723.463 -6.91301 0.93537 0
M  V30 7419 H 719.36 -6.45159 -0.209821 0
M  V30 7420 H 720.128 -8.12064 1.02443 0
M  V30 7421 N 722.791 0.367657 -1.53252 0
M  V30 7422 C 724.037 1.10864 -1.70531 0
M  V30 7423 C 724.392 1.87051 -0.4505 0
M  V30 7424 O 723.685 1.83342 0.556431 0
M  V30 7425 C 723.879 2.09825 -2.89324 0
M  V30 7426 C 723.708 1.43361 -4.26237 0
M  V30 7427 C 722.478 1.18861 -4.91121 0
M  V30 7428 C 724.676 0.872409 -5.06847 0
M  V30 7429 N 722.658 0.487258 -6.11963 0
M  V30 7430 C 724.029 0.300301 -6.19272 0
M  V30 7431 C 726.084 0.770895 -4.91896 0
M  V30 7432 C 724.787 -0.363419 -7.18381 0
M  V30 7433 C 726.813 0.12096 -5.91276 0
M  V30 7434 C 726.175 -0.440283 -7.03023 0
M  V30 7435 H 722.274 0.390902 -0.677288 0
M  V30 7436 H 724.858 0.395305 -1.90645 0
M  V30 7437 H 723.029 2.78473 -2.70753 0
M  V30 7438 H 724.761 2.76585 -2.95436 0
M  V30 7439 H 721.516 1.46934 -4.5023 0
M  V30 7440 H 721.94 0.152005 -6.76829 0
M  V30 7441 H 726.582 1.19058 -4.05691 0
M  V30 7442 H 724.3 -0.795057 -8.04179 0
M  V30 7443 H 727.886 0.0433702 -5.81784 0
M  V30 7444 H 726.766 -0.935244 -7.78603 0
M  V30 7445 N 724.269 1.44576 0.627338 0
M  V30 7446 C 725.179 1.54232 1.76776 0
M  V30 7447 C 726.195 0.427782 1.6866 0
M  V30 7448 O 727.371 0.685671 1.89369 0
M  V30 7449 C 724.436 1.48738 3.13174 0
M  V30 7450 C 723.497 2.71074 3.32893 0
M  V30 7451 C 722.73 2.65832 4.62784 0
M  V30 7452 O 722.953 1.72048 5.43834 0
M  V30 7453 O 721.887 3.56742 4.84787 0
M  V30 7454 H 725.713 2.50586 1.71582 0
M  V30 7455 H 723.298 1.26865 0.789028 0
M  V30 7456 H 725.18 1.48211 3.94476 0
M  V30 7457 H 723.855 0.555292 3.18902 0
M  V30 7458 H 722.762 2.77168 2.51254 0
M  V30 7459 H 724.095 3.63342 3.32029 0
M  V30 7460 N 725.747 -0.868086 1.31537 0
M  V30 7461 C 726.71 -1.95703 1.19302 0
M  V30 7462 C 727.71 -1.60355 0.119612 0
M  V30 7463 O 728.9 -1.70247 0.36902 0
M  V30 7464 C 726.032 -3.30599 0.831684 0
M  V30 7465 H 727.225 -2.07982 2.16064 0
M  V30 7466 H 724.778 -1.05661 1.15176 0
M  V30 7467 H 725.513 -3.2402 -0.134694 0
M  V30 7468 H 725.298 -3.57629 1.60761 0
M  V30 7469 H 726.788 -4.10439 0.770026 0
M  V30 7470 N 727.225 -1.14528 -1.08264 0
M  V30 7471 C 728.188 -0.83632 -2.13397 0
M  V30 7472 C 729.188 0.159715 -1.60005 0
M  V30 7473 O 730.378 -0.0688098 -1.74064 0
M  V30 7474 C 727.51 -0.246973 -3.40004 0
M  V30 7475 H 728.703 -1.76808 -2.42237 0
M  V30 7476 H 726.256 -0.951509 -1.24 0
M  V30 7477 H 726.991 0.693436 -3.168 0
M  V30 7478 H 726.776 -0.964412 -3.80055 0
M  V30 7479 H 728.266 -0.0480679 -4.17572 0
M  V30 7480 N 728.703 1.26451 -0.940633 0
M  V30 7481 C 729.951 1.93395 -0.586748 0
M  V30 7482 C 730.272 1.7417 0.876921 0
M  V30 7483 O 729.542 1.097 1.62304 0
M  V30 7484 H 728.122 0.715687 -0.214012 0
M  V30 7485 H 730.784 1.53902 -1.19584 0
M  V30 7486 H 729.88 3.01565 -0.804059 0
M  V30 7487 N 730.181 0.707592 1.40822 0
M  V30 7488 C 731.43 0.240705 2.00259 0
M  V30 7489 C 731.743 -1.17027 1.56729 0
M  V30 7490 O 732.949 -1.73526 2.08809 0
M  V30 7491 C 731.405 0.379432 3.57894 0
M  V30 7492 C 731.013 1.79654 4.104 0
M  V30 7493 C 732.757 -0.0270684 4.24491 0
M  V30 7494 C 730.664 1.88628 5.60512 0
M  V30 7495 H 729.594 0.0862369 0.749052 0
M  V30 7496 H 732.245 0.877528 1.61157 0
M  V30 7497 H 730.627 -0.325842 3.94657 0
M  V30 7498 H 731.801 2.53155 3.85032 0
M  V30 7499 H 730.116 2.15379 3.56372 0
M  V30 7500 H 732.713 0.0193743 5.34696 0
M  V30 7501 H 733.056 -1.06772 4.02375 0
M  V30 7502 H 733.589 0.628361 3.92806 0
M  V30 7503 H 730.328 2.90787 5.87472 0
M  V30 7504 H 729.848 1.19528 5.8777 0
M  V30 7505 H 731.527 1.6547 6.25483 0
M  V30 7506 N 731.66 -1.50943 0.453197 0
M  V30 7507 C 732.937 -1.94872 -0.168633 0
M  V30 7508 C 733.317 -1.39272 -1.5864 0
M  V30 7509 O 732.665 -0.586272 -2.20851 0
M  V30 7510 C 732.875 -3.48757 -0.130217 0
M  V30 7511 C 734.223 -4.23331 -0.327975 0
M  V30 7512 O 735.247 -3.55594 -0.207619 0
M  V30 7513 O 734.106 -5.43529 -0.569077 0
M  V30 7514 H 731.2 -0.818042 -0.121394 0
M  V30 7515 H 733.746 -1.61782 0.512316 0
M  V30 7516 H 732.518 -3.81725 0.860346 0
M  V30 7517 H 732.141 -3.88333 -0.853397 0
M  V30 7518 N 733.138 -0.185124 -1.56509 0
M  V30 7519 C 734.385 0.456258 -1.97293 0
M  V30 7520 C 734.713 1.62314 -1.07165 0
M  V30 7521 O 733.968 1.95398 -0.108621 0
M  V30 7522 C 734.267 0.967977 -3.44042 0
M  V30 7523 C 733.933 -0.084476 -4.50821 0
M  V30 7524 C 732.595 -0.373689 -4.79747 0
M  V30 7525 C 734.947 -0.79812 -5.15053 0
M  V30 7526 C 732.275 -1.3817 -5.70198 0
M  V30 7527 C 734.627 -1.79521 -6.06593 0
M  V30 7528 C 733.291 -2.09172 -6.3388 0
M  V30 7529 H 732.561 0.166957 -0.721946 0
M  V30 7530 H 735.208 -0.279992 -1.89442 0
M  V30 7531 H 733.513 1.78231 -3.48914 0
M  V30 7532 H 735.21 1.47347 -3.72948 0
M  V30 7533 H 731.8 0.15111 -4.28334 0
M  V30 7534 H 735.984 -0.587903 -4.92806 0
M  V30 7535 H 731.24 -1.61745 -5.89617 0
M  V30 7536 H 735.414 -2.35347 -6.55427 0
M  V30 7537 H 733.041 -2.87427 -7.03768 0
M  V30 7538 N 734.616 1.57351 0.0885366 0
M  V30 7539 C 735.846 1.90355 0.80303 0
M  V30 7540 C 736.254 0.777678 1.72478 0
M  V30 7541 O 735.597 -0.258908 1.81866 0
M  V30 7542 C 735.659 3.18674 1.66395 0
M  V30 7543 C 735.323 4.4778 0.913327 0
M  V30 7544 C 736.32 5.19345 0.240148 0
M  V30 7545 C 734.005 4.94434 0.885462 0
M  V30 7546 C 735.999 6.35803 -0.450854 0
M  V30 7547 C 733.686 6.10802 0.190679 0
M  V30 7548 C 734.684 6.81337 -0.476295 0
M  V30 7549 O 734.372 7.95488 -1.15992 0
M  V30 7550 H 734.104 0.634035 0.234469 0
M  V30 7551 H 736.658 2.05287 0.0681959 0
M  V30 7552 H 734.888 2.99906 2.44117 0
M  V30 7553 H 736.577 3.37458 2.2556 0
M  V30 7554 H 737.343 4.84339 0.253092 0
M  V30 7555 H 733.222 4.39417 1.39406 0
M  V30 7556 H 736.766 6.90795 -0.972019 0
M  V30 7557 H 732.663 6.45261 0.175603 0
M  V30 7558 H 733.431 8.11509 -1.06749 0
M  V30 7559 N 736.094 -0.359525 1.53444 0
M  V30 7560 C 737.51 -0.701599 1.43352 0
M  V30 7561 C 737.71 -1.93049 0.577439 0
M  V30 7562 O 736.766 -2.52423 0.0622224 0
M  V30 7563 C 738.079 -0.90915 2.86627 0
M  V30 7564 C 739.627 -1.00878 2.96298 0
M  V30 7565 C 740.102 -1.24876 4.40647 0
M  V30 7566 N 741.593 -1.31632 4.44103 0
M  V30 7567 C 742.328 -1.51922 5.52908 0
M  V30 7568 N 741.824 -1.69489 6.71748 0
M  V30 7569 N 743.617 -1.54341 5.40496 0
M  V30 7570 H 735.768 0.448685 2.07607 0
M  V30 7571 H 738.031 0.138713 0.937797 0
M  V30 7572 H 737.737 -0.0778997 3.51614 0
M  V30 7573 H 737.611 -1.81551 3.30634 0
M  V30 7574 H 739.998 -1.83057 2.31461 0
M  V30 7575 H 740.079 -0.0796721 2.55676 0
M  V30 7576 H 739.723 -0.431961 5.0606 0
M  V30 7577 H 739.653 -2.19118 4.78848 0
M  V30 7578 H 742.144 -1.19646 3.5846 0
M  V30 7579 H 742.457 -1.84561 7.50438 0
M  V30 7580 H 740.802 -1.66655 6.74723 0
M  V30 7581 H 743.993 -1.40188 4.46615 0
M  V30 7582 H 744.166 -1.69812 6.25354 0
M  V30 7583 N 737.572 -1.44907 -0.619662 0
M  V30 7584 C 738.797 -1.52021 -1.41083 0
M  V30 7585 C 739.222 -0.14976 -1.87503 0
M  V30 7586 O 738.58 0.863303 -1.59426 0
M  V30 7587 C 738.628 -2.49911 -2.59955 0
M  V30 7588 O 737.732 -2.00857 -3.60181 0
M  V30 7589 H 737.073 -0.512912 -0.421684 0
M  V30 7590 H 739.603 -1.90149 -0.755282 0
M  V30 7591 H 739.613 -2.68323 -3.07354 0
M  V30 7592 H 738.288 -3.4945 -2.25516 0
M  V30 7593 H 736.865 -1.92265 -3.19513 0
M  V30 7594 N 739.05 0.861098 -1.31996 0
M  V30 7595 C 740.461 1.43065 -1.19955 0
M  V30 7596 C 740.812 1.95273 0.190489 0
M  V30 7597 O 739.937 1.87012 1.08882 0
M  V30 7598 C 740.532 2.60052 -2.1716 0
M  V30 7599 C 739.091 3.13026 -2.09026 0
M  V30 7600 C 738.238 1.85756 -2.05888 0
M  V30 7601 H 741.189 0.668834 -1.43918 0
M  V30 7602 H 741.21 3.37016 -1.76637 0
M  V30 7603 H 740.722 2.22024 -3.18319 0
M  V30 7604 H 738.823 3.55653 -1.11092 0
M  V30 7605 H 738.936 3.74707 -2.98549 0
M  V30 7606 H 737.3 2.05088 -1.51033 0
M  V30 7607 H 738.083 1.49954 -3.08818 0
M  V30 7608 N 740.528 1.15101 1.07655 0
M  V30 7609 C 741.46 0.802722 2.14684 0
M  V30 7610 C 742.473 -0.183874 1.61758 0
M  V30 7611 O 743.662 0.0389349 1.78458 0
M  V30 7612 C 740.762 0.172135 3.38463 0
M  V30 7613 C 739.935 1.19538 4.20749 0
M  V30 7614 C 738.994 0.58714 5.22914 0
M  V30 7615 O 738.02 1.25224 5.55255 0
M  V30 7616 N 739.222 -0.632566 5.77043 0
M  V30 7617 H 741.987 1.72379 2.45164 0
M  V30 7618 H 739.548 1.04647 1.23534 0
M  V30 7619 H 741.54 -0.247465 4.03943 0
M  V30 7620 H 740.11 -0.652214 3.0572 0
M  V30 7621 H 739.33 1.79165 3.51132 0
M  V30 7622 H 740.618 1.88636 4.7254 0
M  V30 7623 H 740.016 -1.19135 5.53013 0
M  V30 7624 H 738.573 -0.994566 6.44167 0
M  V30 7625 N 742.006 -1.2595 0.947325 0
M  V30 7626 C 743.252 -1.9375 0.599064 0
M  V30 7627 C 743.585 -1.74088 -0.860632 0
M  V30 7628 O 742.86 -1.08158 -1.61654 0
M  V30 7629 C 743.143 -3.47353 0.949634 0
M  V30 7630 C 742.996 -3.76273 2.46452 0
M  V30 7631 C 744.315 -4.37589 0.469442 0
M  V30 7632 H 741.434 -0.703674 0.219115 0
M  V30 7633 H 744.076 -1.48705 1.18266 0
M  V30 7634 H 742.226 -3.8585 0.453008 0
M  V30 7635 H 743.898 -3.47455 3.03435 0
M  V30 7636 H 742.141 -3.22135 2.90537 0
M  V30 7637 H 742.812 -4.83664 2.66032 0
M  V30 7638 H 745.288 -4.06353 0.89534 0
M  V30 7639 H 744.164 -5.43841 0.7435 0
M  V30 7640 H 744.425 -4.37579 -0.630618 0
M  V30 7641 N 743.484 -0.715051 -1.40445 0
M  V30 7642 C 744.895 -0.326763 -1.83818 0
M  V30 7643 C 745.246 1.13851 -1.59789 0
M  V30 7644 O 744.371 1.87611 -1.07848 0
M  V30 7645 C 744.966 -0.586297 -3.33688 0
M  V30 7646 C 743.525 -0.251724 -3.75557 0
M  V30 7647 C 742.672 -0.858928 -2.63662 0
M  V30 7648 H 745.623 -0.914241 -1.2972 0
M  V30 7649 H 745.644 0.148636 -3.8021 0
M  V30 7650 H 745.156 -1.65281 -3.51146 0
M  V30 7651 H 743.257 0.809754 -3.63695 0
M  V30 7652 H 743.37 -0.720348 -4.73654 0
M  V30 7653 H 741.734 -0.287013 -2.53078 0
M  V30 7654 H 742.517 -1.9297 -2.83932 0
M  V30 7655 N 744.962 1.50701 -0.461195 0
M  V30 7656 C 746.208 2.03203 0.0895017 0
M  V30 7657 C 746.563 1.33768 1.38289 0
M  V30 7658 O 745.856 0.451304 1.86209 0
M  V30 7659 C 746.05 3.55788 0.33908 0
M  V30 7660 C 745.879 4.40009 -0.928571 0
M  V30 7661 C 744.649 4.83475 -1.46903 0
M  V30 7662 C 746.847 4.80972 -1.82129 0
M  V30 7663 N 744.829 5.51985 -2.68673 0
M  V30 7664 C 746.2 5.48792 -2.88491 0
M  V30 7665 C 748.255 4.62937 -1.83285 0
M  V30 7666 C 746.958 6.00489 -3.95987 0
M  V30 7667 C 748.984 5.15568 -2.89731 0
M  V30 7668 C 748.346 5.83355 -3.94812 0
M  V30 7669 H 744.445 0.781968 -0.00702462 0
M  V30 7670 H 747.029 1.84321 -0.627195 0
M  V30 7671 H 745.2 3.74636 1.02481 0
M  V30 7672 H 746.932 3.94944 0.883242 0
M  V30 7673 H 743.687 4.62495 -1.01959 0
M  V30 7674 H 744.111 5.90854 -3.30486 0
M  V30 7675 H 748.753 4.0997 -1.03366 0
M  V30 7676 H 746.471 6.52499 -4.7673 0
M  V30 7677 H 750.057 5.0345 -2.91597 0
M  V30 7678 H 748.937 6.23347 -4.75824 0
M  V30 7679 N 746.441 0.193421 1.56409 0
M  V30 7680 C 747.669 -0.451438 2.01915 0
M  V30 7681 C 748.084 -1.55306 1.07357 0
M  V30 7682 O 747.441 -1.82333 0.0781512 0
M  V30 7683 C 747.492 -1.00931 3.47124 0
M  V30 7684 O 747.213 0.0483623 4.38073 0
M  V30 7685 C 748.714 -1.73021 4.0814 0
M  V30 7686 H 745.934 -0.113495 0.661332 0
M  V30 7687 H 748.478 0.301636 2.02263 0
M  V30 7688 H 746.633 -1.71277 3.47481 0
M  V30 7689 H 747.047 -0.366644 5.23217 0
M  V30 7690 H 748.521 -2.07289 5.11601 0
M  V30 7691 H 748.998 -2.6333 3.51502 0
M  V30 7692 H 749.604 -1.07264 4.11551 0
M  V30 7693 O 747.958 -1.61402 0.0562482 0
M  V30 7694 H 748.649 -1.85658 -0.552338 0
M  V30 END ATOM
M  V30 BEGIN BOND
M  V30 END BOND
M  V30 END CTAB
M  END
$$$$
