drugbank_target|O87696 Cobalt-precorrin-4 C(11)-methyltransferase (DB01752)
 OpenBabel12092119533D

  0  0  0     0  0            999 V3000
M  V30 BEGIN CTAB
M  V30 COUNTS 4062 4096 0 0 0
M  V30 BEGIN ATOM
M  V30 1 H -0.908 1.98254 -0.117106 0
M  V30 2 N 0 1.576 0 0
M  V30 3 C 0.933 2.03868 1.02534 0
M  V30 4 C 1.911 0.928543 1.3348 0
M  V30 5 O 3.095 1.19667 1.45644 0
M  V30 6 C 0.222 2.43627 2.35294 0
M  V30 7 C -0.732 3.65373 2.2001 0
M  V30 8 S 0.101 5.13292 1.52614 0
M  V30 9 C 1.257 5.56322 2.86805 0
M  V30 10 H 1.49 2.90518 0.631377 0
M  V30 11 H -0.977 1.52953 0.210867 0
M  V30 12 H 0.981 2.67203 3.11629 0
M  V30 13 H -0.358 1.57376 2.7183 0
M  V30 14 H -1.165 3.90944 3.18086 0
M  V30 15 H -1.563 3.418 1.51819 0
M  V30 16 H 0.729 5.58782 3.83104 0
M  V30 17 H 1.672 6.56266 2.65933 0
M  V30 18 H 2.08 4.83886 2.90714 0
M  V30 19 N 1.4781 -0.272755 1.55222 0
M  V30 20 C 2.4251 -1.33716 1.88119 0
M  V30 21 C 3.3951 -1.49066 0.73271 0
M  V30 22 O 4.5801 -1.63469 0.984002 0
M  V30 23 C 1.7201 -2.69238 2.15882 0
M  V30 24 C 0.8331 -2.62108 3.43399 0
M  V30 25 C -0.0319 -3.89811 3.60861 0
M  V30 26 C -0.9929 -3.77193 4.8207 0
M  V30 27 N -1.8559 -4.9673 4.96189 0
M  V30 28 H 2.9841 -1.04962 2.78903 0
M  V30 29 H 0.5211 -0.507088 1.38083 0
M  V30 30 H 2.4791 -3.48089 2.29978 0
M  V30 31 H 1.1091 -2.96194 1.28331 0
M  V30 32 H 0.1611 -1.74967 3.37773 0
M  V30 33 H 1.4731 -2.48685 4.32386 0
M  V30 34 H 0.6271 -4.77103 3.74777 0
M  V30 35 H -0.6339 -4.06102 2.7006 0
M  V30 36 H -1.6289 -2.88284 4.68159 0
M  V30 37 H -0.4039 -3.62421 5.74307 0
M  V30 38 H -2.4579 -5.13431 4.08319 0
M  V30 39 H -2.5409 -4.85839 5.79221 0
M  V30 40 H -1.2729 -5.85594 5.1449 0
M  V30 41 N 2.9562 -1.48159 -0.537278 0
M  V30 42 C 3.8862 -1.65029 -1.6519 0
M  V30 43 C 4.8672 -0.499281 -1.62607 0
M  V30 44 O 6.0522 -0.730972 -1.79918 0
M  V30 45 C 3.1822 -1.68303 -3.03795 0
M  V30 46 C 2.1362 -2.8283 -3.21234 0
M  V30 47 C 1.4622 -2.71189 -4.60826 0
M  V30 48 C 2.7622 -4.24211 -3.04701 0
M  V30 49 H 4.4562 -2.58341 -1.51328 0
M  V30 50 H 2.0022 -1.24325 -0.726585 0
M  V30 51 H 3.9552 -1.78693 -3.81637 0
M  V30 52 H 2.6792 -0.715635 -3.18663 0
M  V30 53 H 1.3382 -2.71983 -2.45807 0
M  V30 54 H 0.9862 -1.72435 -4.7252 0
M  V30 55 H 0.6862 -3.48035 -4.7344 0
M  V30 56 H 2.2102 -2.83537 -5.40777 0
M  V30 57 H 3.6242 -4.3593 -3.72341 0
M  V30 58 H 2.0212 -5.01998 -3.28813 0
M  V30 59 H 3.0912 -4.41184 -2.01209 0
M  V30 60 N 4.4343 0.785586 -1.36625 0
M  V30 61 C 5.6643 1.5722 -1.34036 0
M  V30 62 C 6.0723 1.89033 0.0795062 0
M  V30 63 O 5.4153 1.50881 1.04789 0
M  V30 64 C 5.4773 2.91759 -2.10041 0
M  V30 65 C 5.1413 2.82654 -3.59104 0
M  V30 66 C 6.1383 2.54634 -4.53274 0
M  V30 67 C 3.8233 3.01111 -4.02042 0
M  V30 68 C 5.8173 2.45177 -5.88359 0
M  V30 69 C 3.5043 2.91276 -5.37216 0
M  V30 70 C 4.5023 2.63348 -6.30188 0
M  V30 71 O 4.1903 2.53514 -7.6288 0
M  V30 72 H 3.9223 0.494177 -0.461265 0
M  V30 73 H 6.4763 0.982632 -1.8037 0
M  V30 74 H 4.7063 3.52781 -1.58375 0
M  V30 75 H 6.3953 3.53059 -2.00261 0
M  V30 76 H 7.1613 2.40073 -4.21414 0
M  V30 77 H 3.0403 3.21854 -3.30047 0
M  V30 78 H 6.5843 2.23299 -6.60896 0
M  V30 79 H 2.4813 3.054 -5.68684 0
M  V30 80 H 3.2493 2.68967 -7.73045 0
M  V30 81 N 5.9124 1.20967 1.01018 0
M  V30 82 C 7.1614 1.01796 1.74128 0
M  V30 83 C 7.4744 -0.449691 1.90361 0
M  V30 84 O 8.6804 -0.76068 2.60626 0
M  V30 85 C 7.1364 1.7727 3.13215 0
M  V30 86 C 6.7444 3.28171 3.04972 0
M  V30 87 C 8.4884 1.66489 3.90489 0
M  V30 88 C 6.3954 3.96156 4.39107 0
M  V30 89 H 5.3254 0.377276 0.652824 0
M  V30 90 H 7.9764 1.44651 1.12909 0
M  V30 91 H 6.3584 1.27205 3.75013 0
M  V30 92 H 7.5324 3.85499 2.52443 0
M  V30 93 H 5.8474 3.39437 2.41188 0
M  V30 94 H 8.4444 2.14617 4.89738 0
M  V30 95 H 8.7874 0.6222 4.11624 0
M  V30 96 H 9.3204 2.14003 3.35332 0
M  V30 97 H 6.0594 5.00604 4.23174 0
M  V30 98 H 5.5794 3.43617 4.91617 0
M  V30 99 H 7.2584 4.00774 5.07926 0
M  V30 100 N 7.3905 -1.2043 1.01659 0
M  V30 101 C 8.6395 -1.89118 0.701237 0
M  V30 102 C 8.9525 -1.79705 -0.772358 0
M  V30 103 O 10.1585 -2.43528 -1.20026 0
M  V30 104 C 8.6145 -3.39168 1.20388 0
M  V30 105 C 8.2225 -3.57166 2.70438 0
M  V30 106 C 9.9665 -4.1341 0.963953 0
M  V30 107 C 7.8735 -5.01042 3.14183 0
M  V30 108 H 6.8035 -0.708267 0.2586 0
M  V30 109 H 9.4545 -1.36239 1.22927 0
M  V30 110 H 7.8365 -3.91369 0.603824 0
M  V30 111 H 9.0105 -3.15351 3.35992 0
M  V30 112 H 7.3255 -2.96294 2.92572 0
M  V30 113 H 9.9225 -5.19491 1.26621 0
M  V30 114 H 10.2655 -4.16181 -0.099578 0
M  V30 115 H 10.7985 -3.67309 1.52738 0
M  V30 116 H 7.5375 -5.03426 4.19812 0
M  V30 117 H 7.0575 -5.43668 2.53348 0
M  V30 118 H 8.7365 -5.69623 3.0682 0
M  V30 119 N 8.8686 -0.792821 -1.36206 0
M  V30 120 C 10.1166 -0.366062 -1.98757 0
M  V30 121 C 10.4376 1.0668 -1.63231 0
M  V30 122 O 9.7076 1.73587 -0.907978 0
M  V30 123 H 8.2876 -0.132364 -0.735179 0
M  V30 124 H 10.9496 -1.01562 -1.66347 0
M  V30 125 H 10.0456 -0.460638 -3.08682 0
M  V30 126 N 10.3467 1.47872 -0.545128 0
M  V30 127 C 11.3097 2.28337 0.198717 0
M  V30 128 C 12.3097 1.36255 0.853888 0
M  V30 129 O 13.4997 1.59003 0.711606 0
M  V30 130 C 10.6317 3.15585 1.28915 0
M  V30 131 H 11.8247 2.95567 -0.507941 0
M  V30 132 H 9.3777 1.53362 -0.301616 0
M  V30 133 H 10.1127 2.53019 2.02859 0
M  V30 134 H 9.8977 3.83337 0.824309 0
M  V30 135 H 11.3877 3.76243 1.81194 0
M  V30 136 N 11.8248 0.280983 1.55075 0
M  V30 137 C 13.0728 -0.333455 1.9933 0
M  V30 138 C 13.3938 -1.55937 1.17085 0
M  V30 139 O 12.6638 -1.94143 0.261805 0
M  V30 140 H 11.2438 -0.126197 0.736263 0
M  V30 141 H 13.9058 0.387678 1.91005 0
M  V30 142 H 13.0018 -0.619292 3.05894 0
M  V30 143 N 13.3029 -1.57598 0.00835791 0
M  V30 144 C 14.7139 -1.7892 -0.53333 0
M  V30 145 C 15.0649 -0.916609 -1.73473 0
M  V30 146 O 14.1899 -0.121336 -2.1606 0
M  V30 147 C 14.7849 -3.24488 -0.974313 0
M  V30 148 C 13.3439 -3.46878 -1.46125 0
M  V30 149 C 12.4909 -2.74157 -0.416302 0
M  V30 150 H 15.4419 -1.56958 0.234495 0
M  V30 151 H 15.4629 -3.3306 -1.83988 0
M  V30 152 H 14.9749 -3.87972 -0.099718 0
M  V30 153 H 13.0759 -2.8862 -2.35646 0
M  V30 154 H 13.1889 -4.55572 -1.48295 0
M  V30 155 H 11.5529 -2.39022 -0.87981 0
M  V30 156 H 12.3359 -3.40345 0.44947 0
M  V30 157 N 14.781 0.264519 -1.55364 0
M  V30 158 C 16.029 0.993021 -1.76021 0
M  V30 159 C 16.35 1.86511 -0.569099 0
M  V30 160 O 15.62 1.91438 0.415735 0
M  V30 161 H 14.2 0.369639 -0.649135 0
M  V30 162 H 16.862 0.286707 -1.9278 0
M  V30 163 H 15.958 1.62502 -2.66457 0
M  V30 164 N 16.2591 1.48442 0.529413 0
M  V30 165 C 17.5361 1.46978 1.29062 0
M  V30 166 C 17.9161 0.181769 2.10316 0
M  V30 167 O 17.2641 -0.836481 2.12639 0
M  V30 168 C 17.4741 2.7321 2.17157 0
M  V30 169 C 18.8221 3.21562 2.77278 0
M  V30 170 O 19.8461 2.74131 2.27444 0
M  V30 171 O 18.7051 4.04094 3.67927 0
M  V30 172 H 15.7991 0.587003 0.582543 0
M  V30 173 H 18.3451 1.60676 0.546021 0
M  V30 174 H 17.1171 3.58465 1.56903 0
M  V30 175 H 16.7401 2.62235 2.98862 0
M  V30 176 N 17.7372 -0.778329 1.37039 0
M  V30 177 C 19.1482 -1.35421 1.28523 0
M  V30 178 C 19.4992 -1.96075 -0.0700901 0
M  V30 179 O 18.6242 -1.93352 -0.971801 0
M  V30 180 C 19.2192 -2.46211 2.32735 0
M  V30 181 C 17.7782 -2.99585 2.27873 0
M  V30 182 C 16.9252 -1.72748 2.16918 0
M  V30 183 H 19.8762 -0.5791 1.47757 0
M  V30 184 H 19.8972 -3.2552 1.9702 0
M  V30 185 H 19.4092 -2.02036 3.31365 0
M  V30 186 H 17.5102 -3.48152 1.32745 0
M  V30 187 H 17.6232 -3.55646 3.21018 0
M  V30 188 H 15.9872 -1.95416 1.63354 0
M  V30 189 H 16.7702 -1.30686 3.17452 0
M  V30 190 N 19.2153 -1.21501 -1.00376 0
M  V30 191 C 20.4923 -0.941745 -1.71437 0
M  V30 192 C 20.8723 0.546114 -2.03914 0
M  V30 193 O 20.2203 1.51128 -1.71384 0
M  V30 194 C 20.4303 -1.82812 -2.97289 0
M  V30 195 C 21.7783 -2.07771 -3.70292 0
M  V30 196 O 22.8023 -1.80171 -3.07273 0
M  V30 197 O 21.6613 -2.54456 -4.83647 0
M  V30 198 H 18.7553 -0.353243 -0.747762 0
M  V30 199 H 21.3013 -1.32436 -1.06108 0
M  V30 200 H 20.0733 -2.83501 -2.69709 0
M  V30 201 H 19.6963 -1.4464 -3.70358 0
M  V30 202 N 20.6934 1.19889 -1.02296 0
M  V30 203 C 21.6234 2.25141 -0.619174 0
M  V30 204 C 22.6044 1.66051 0.368915 0
M  V30 205 O 23.7894 1.92546 0.252941 0
M  V30 206 C 20.9194 3.4728 0.0368783 0
M  V30 207 C 19.8734 4.19005 -0.872865 0
M  V30 208 C 19.1994 5.34637 -0.0822402 0
M  V30 209 C 20.4994 4.74452 -2.18387 0
M  V30 210 H 22.1934 2.59171 -1.49903 0
M  V30 211 H 19.7394 1.24579 -0.722222 0
M  V30 212 H 21.6924 4.20098 0.330958 0
M  V30 213 H 20.4164 3.12433 0.95149 0
M  V30 214 H 19.0754 3.48061 -1.15105 0
M  V30 215 H 18.7234 4.96034 0.83422 0
M  V30 216 H 18.4234 5.83557 -0.688149 0
M  V30 217 H 19.9474 6.10255 0.205238 0
M  V30 218 H 21.3614 5.39055 -1.95172 0
M  V30 219 H 19.7584 5.33834 -2.74119 0
M  V30 220 H 20.8284 3.92844 -2.84257 0
M  V30 221 N 22.1715 0.800033 1.35784 0
M  V30 222 C 23.4205 0.37387 1.98205 0
M  V30 223 C 23.7335 -1.06302 1.64193 0
M  V30 224 O 24.9395 -1.59198 2.19928 0
M  V30 225 C 23.3955 0.617532 3.54562 0
M  V30 226 C 23.0035 2.06654 3.9749 0
M  V30 227 C 24.7475 0.256401 4.23725 0
M  V30 228 C 22.6545 2.2563 5.46667 0
M  V30 229 H 21.5845 0.136055 0.741623 0
M  V30 230 H 24.2355 0.983166 1.54939 0
M  V30 231 H 22.6175 -0.0616248 3.95952 0
M  V30 232 H 23.7915 2.78296 3.67271 0
M  V30 233 H 22.1065 2.38691 3.41197 0
M  V30 234 H 24.7035 0.376318 5.33374 0
M  V30 235 H 25.0465 -0.796692 4.08606 0
M  V30 236 H 25.5795 0.889214 3.87734 0
M  V30 237 H 22.3185 3.2936 5.66747 0
M  V30 238 H 21.8385 1.58504 5.78478 0
M  V30 239 H 23.5175 2.06861 6.1304 0
M  V30 240 N 23.6496 -1.47581 0.552962 0
M  V30 241 C 24.8776 -2.06875 0.0320556 0
M  V30 242 C 25.2926 -1.40625 -1.25976 0
M  V30 243 O 24.6496 -0.501349 -1.75479 0
M  V30 244 C 24.7006 -3.61092 -0.17167 0
M  V30 245 O 24.4216 -4.24858 1.06899 0
M  V30 246 C 25.9226 -4.37242 -0.730344 0
M  V30 247 H 23.1426 -0.669561 0.043915 0
M  V30 248 H 25.6866 -1.89646 0.765163 0
M  V30 249 H 23.8416 -3.7785 -0.854894 0
M  V30 250 H 24.2556 -5.17334 0.864059 0
M  V30 251 H 25.7296 -5.45842 -0.822203 0
M  V30 252 H 26.2066 -4.03235 -1.74064 0
M  V30 253 H 26.8126 -4.25219 -0.0829543 0
M  V30 254 N 25.1277 -0.289203 -1.54924 0
M  V30 255 C 26.3737 0.323998 -2.00195 0
M  V30 256 C 26.7067 1.54441 -1.17735 0
M  V30 257 O 25.9817 1.92875 -0.250878 0
M  V30 258 C 26.2647 0.692276 -3.53383 0
M  V30 259 C 26.1177 -0.536457 -4.46589 0
M  V30 260 C 27.4367 1.52335 -4.12895 0
M  V30 261 H 24.5557 0.116289 -0.727768 0
M  V30 262 H 27.1977 -0.398954 -1.85764 0
M  V30 263 H 25.3477 1.30822 -3.65811 0
M  V30 264 H 27.0197 -1.17499 -4.46085 0
M  V30 265 H 25.2627 -1.17192 -4.1767 0
M  V30 266 H 25.9337 -0.234806 -5.515 0
M  V30 267 H 28.4097 1.00302 -4.0383 0
M  V30 268 H 27.2857 1.74982 -5.20262 0
M  V30 269 H 27.5467 2.50886 -3.64018 0
M  V30 270 N 26.6058 1.57591 -0.0167156 0
M  V30 271 C 27.5528 2.09462 0.969251 0
M  V30 272 C 28.5228 0.99381 1.33089 0
M  V30 273 O 29.7078 1.26726 1.42636 0
M  V30 274 C 26.8478 2.61622 2.25051 0
M  V30 275 C 25.9608 3.85666 1.94642 0
M  V30 276 C 25.0958 4.26266 3.16972 0
M  V30 277 C 24.1348 5.43101 2.82326 0
M  V30 278 N 23.2718 5.78915 3.97243 0
M  V30 279 H 28.1118 2.93428 0.519997 0
M  V30 280 H 25.6488 1.45044 0.245087 0
M  V30 281 H 27.6068 2.89949 2.99976 0
M  V30 282 H 26.2368 1.80505 2.67615 0
M  V30 283 H 25.2888 3.64145 1.10013 0
M  V30 284 H 26.6008 4.70678 1.65117 0
M  V30 285 H 25.7548 4.55963 4.00228 0
M  V30 286 H 24.4938 3.39996 3.49648 0
M  V30 287 H 23.4988 5.1311 1.97479 0
M  V30 288 H 24.7238 6.3106 2.50879 0
M  V30 289 H 22.6698 4.95602 4.29785 0
M  V30 290 H 22.5868 6.58539 3.71299 0
M  V30 291 H 23.8548 6.13212 4.81239 0
M  V30 292 N 28.0839 -0.256276 1.55502 0
M  V30 293 C 29.3319 -0.983672 1.76545 0
M  V30 294 C 29.6529 -1.86206 0.578982 0
M  V30 295 O 28.9229 -1.91656 -0.405577 0
M  V30 296 H 27.5029 -0.366191 0.651086 0
M  V30 297 H 30.1649 -0.276479 1.92929 0
M  V30 298 H 29.2609 -1.61087 2.67315 0
M  V30 299 N 29.562 -1.4872 -0.521534 0
M  V30 300 C 30.492 -1.66771 -1.63431 0
M  V30 301 C 31.473 -0.516499 -1.62069 0
M  V30 302 O 32.658 -0.750013 -1.79132 0
M  V30 303 C 29.788 -1.71515 -3.01993 0
M  V30 304 C 28.742 -2.86222 -3.18216 0
M  V30 305 C 28.068 -2.76061 -4.57924 0
M  V30 306 C 29.368 -4.27419 -3.00184 0
M  V30 307 H 31.062 -2.59932 -1.48579 0
M  V30 308 H 28.608 -1.25089 -0.713358 0
M  V30 309 H 30.561 -1.82731 -3.7972 0
M  V30 310 H 29.285 -0.749393 -3.17886 0
M  V30 311 H 27.944 -2.74575 -2.42908 0
M  V30 312 H 27.592 -1.77437 -4.70665 0
M  V30 313 H 27.292 -3.53037 -4.69722 0
M  V30 314 H 28.816 -2.89256 -5.37739 0
M  V30 315 H 30.23 -4.39855 -3.67697 0
M  V30 316 H 28.627 -5.05458 -3.2347 0
M  V30 317 H 29.697 -4.43293 -1.96518 0
M  V30 318 N 31.0401 0.771051 -1.3745 0
M  V30 319 C 31.9871 1.88435 -1.3327 0
M  V30 320 C 32.9571 1.64914 -0.198136 0
M  V30 321 O 34.1421 1.86821 -0.387606 0
M  V30 322 C 31.2821 3.25509 -1.14622 0
M  V30 323 C 30.3951 3.60979 -2.37314 0
M  V30 324 C 29.5301 4.87265 -2.11533 0
M  V30 325 C 28.5691 5.15469 -3.30088 0
M  V30 326 N 27.7061 6.32944 -3.03853 0
M  V30 327 H 32.5461 1.91344 -2.28455 0
M  V30 328 H 30.0831 0.935466 -1.13523 0
M  V30 329 H 32.0411 4.04582 -1.01831 0
M  V30 330 H 30.6711 3.21974 -0.230837 0
M  V30 331 H 29.7231 2.76885 -2.60842 0
M  V30 332 H 31.0351 3.77759 -3.25729 0
M  V30 333 H 30.1891 5.74244 -1.95777 0
M  V30 334 H 28.9281 4.7259 -1.20457 0
M  V30 335 H 27.9331 4.26966 -3.46382 0
M  V30 336 H 29.1581 5.32052 -4.22016 0
M  V30 337 H 27.1041 6.19625 -2.15407 0
M  V30 338 H 27.0211 6.50143 -3.85812 0
M  V30 339 H 28.2891 7.22857 -2.91716 0
M  V30 340 N 32.5182 1.22032 0.997298 0
M  V30 341 C 33.4482 1.01065 2.10495 0
M  V30 342 C 34.4292 -0.0669542 1.69968 0
M  V30 343 O 35.6142 0.0943987 1.9397 0
M  V30 344 C 32.7442 0.582874 3.42374 0
M  V30 345 C 31.6982 1.60592 3.96729 0
M  V30 346 C 31.0242 1.03412 5.24605 0
M  V30 347 C 32.3242 2.99478 4.27914 0
M  V30 348 H 34.0182 1.93708 2.28292 0
M  V30 349 H 31.5642 0.932761 1.09707 0
M  V30 350 H 33.5172 0.423332 4.19268 0
M  V30 351 H 32.2412 -0.379213 3.24391 0
M  V30 352 H 30.9002 1.75316 3.21963 0
M  V30 353 H 30.5482 0.063518 5.0296 0
M  V30 354 H 30.2482 1.71754 5.61938 0
M  V30 355 H 31.7722 0.886066 6.04137 0
M  V30 356 H 33.1862 2.88153 4.95622 0
M  V30 357 H 31.5832 3.64903 4.76409 0
M  V30 358 H 32.6532 3.49742 3.3587 0
M  V30 359 N 33.9963 -1.19345 1.0293 0
M  V30 360 C 34.9263 -2.2481 0.631105 0
M  V30 361 C 35.9073 -1.66245 -0.360104 0
M  V30 362 O 37.0923 -1.92677 -0.242726 0
M  V30 363 C 34.2223 -3.47295 -0.0184607 0
M  V30 364 C 33.1763 -4.18536 0.895073 0
M  V30 365 C 32.5023 -5.34586 0.110592 0
M  V30 366 C 33.8023 -4.73287 2.209 0
M  V30 367 H 35.4963 -2.58372 1.51275 0
M  V30 368 H 33.0423 -1.24194 0.728818 0
M  V30 369 H 34.9953 -4.20268 -0.308675 0
M  V30 370 H 33.7193 -3.12933 -0.934907 0
M  V30 371 H 32.3783 -3.47446 1.16949 0
M  V30 372 H 32.0263 -4.96469 -0.807902 0
M  V30 373 H 31.7263 -5.83183 0.719087 0
M  V30 374 H 33.2503 -6.10355 -0.172871 0
M  V30 375 H 34.6643 -5.38013 1.98028 0
M  V30 376 H 33.0613 -5.32373 2.76946 0
M  V30 377 H 34.1313 -3.91331 2.86336 0
M  V30 378 N 35.4744 -0.807222 -1.35358 0
M  V30 379 C 36.4064 -0.175717 -2.28525 0
M  V30 380 C 37.4194 0.625354 -1.5031 0
M  V30 381 O 38.6084 0.457611 -1.72535 0
M  V30 382 C 35.7084 0.773471 -3.29956 0
M  V30 383 C 34.8814 0.0186296 -4.37396 0
M  V30 384 C 33.9404 0.886395 -5.18681 0
M  V30 385 O 32.9664 0.337106 -5.68201 0
M  V30 386 N 34.1684 2.20839 -5.36852 0
M  V30 387 H 36.9334 -0.976091 -2.83359 0
M  V30 388 H 34.4944 -0.662737 -1.47714 0
M  V30 389 H 36.4864 1.35824 -3.81227 0
M  V30 390 H 35.0564 1.47465 -2.75632 0
M  V30 391 H 34.2764 -0.747349 -3.87051 0
M  V30 392 H 35.5644 -0.501577 -5.06322 0
M  V30 393 H 34.9624 2.67858 -4.98265 0
M  V30 394 H 33.5194 2.74237 -5.91301 0
M  V30 395 N 36.9525 1.47285 -0.560781 0
M  V30 396 C 37.8845 2.28118 0.222438 0
M  V30 397 C 38.8975 1.37219 0.876056 0
M  V30 398 O 40.0865 1.62011 0.749307 0
M  V30 399 C 37.1865 3.1159 1.33285 0
M  V30 400 C 36.3595 4.30473 0.77534 0
M  V30 401 C 35.4185 4.95513 1.77069 0
M  V30 402 O 34.4445 5.53792 1.31539 0
M  V30 403 N 35.6465 4.90531 3.10418 0
M  V30 404 H 38.4115 2.95976 -0.470958 0
M  V30 405 H 35.9725 1.56955 -0.39709 0
M  V30 406 H 37.9645 3.51967 1.99752 0
M  V30 407 H 36.5345 2.45951 1.92943 0
M  V30 408 H 35.7545 3.94144 -0.0662113 0
M  V30 409 H 37.0425 5.07362 0.382272 0
M  V30 410 H 36.4405 4.44389 3.5005 0
M  V30 411 H 34.9975 5.34917 3.72434 0
M  V30 412 N 38.4306 0.297415 1.54768 0
M  V30 413 C 39.3936 -0.567375 2.22066 0
M  V30 414 C 40.3936 -1.06409 1.20556 0
M  V30 415 O 41.5836 -0.960691 1.45315 0
M  V30 416 C 38.7156 -1.78517 2.90421 0
M  V30 417 H 39.9086 0.0205534 2.99893 0
M  V30 418 H 37.4616 0.0482163 1.56226 0
M  V30 419 H 38.1966 -2.41303 2.16664 0
M  V30 420 H 37.9816 -1.43669 3.64831 0
M  V30 421 H 39.4716 -2.39964 3.41771 0
M  V30 422 N 39.9087 -1.5758 0.0250728 0
M  V30 423 C 41.1857 -1.82917 -0.692873 0
M  V30 424 C 41.5657 -0.908137 -1.90568 0
M  V30 425 O 40.9137 0.0372298 -2.2847 0
M  V30 426 C 41.1237 -3.32034 -1.07492 0
M  V30 427 C 42.4717 -3.98406 -1.46826 0
M  V30 428 O 43.4957 -3.36505 -1.16801 0
M  V30 429 O 42.3547 -5.07497 -2.02754 0
M  V30 430 H 39.4487 -0.754079 -0.33955 0
M  V30 431 H 41.9947 -1.69619 0.0524456 0
M  V30 432 H 40.7667 -3.90728 -0.211552 0
M  V30 433 H 40.3897 -3.50424 -1.87854 0
M  V30 434 N 41.3868 0.248026 -1.55636 0
M  V30 435 C 42.6328 0.97767 -1.77678 0
M  V30 436 C 42.9658 1.85016 -0.590135 0
M  V30 437 O 42.2408 1.90095 0.411611 0
M  V30 438 C 42.5238 1.83914 -3.09593 0
M  V30 439 C 42.3768 0.99491 -4.38659 0
M  V30 440 C 43.6958 2.82183 -3.37729 0
M  V30 441 H 40.8148 0.354005 -0.646413 0
M  V30 442 H 43.4568 0.248253 -1.88371 0
M  V30 443 H 41.6068 2.46104 -3.00608 0
M  V30 444 H 43.2788 0.391789 -4.59633 0
M  V30 445 H 41.5218 0.299231 -4.32767 0
M  V30 446 H 42.1928 1.63145 -5.2734 0
M  V30 447 H 44.6688 2.30129 -3.4667 0
M  V30 448 H 43.5448 3.39582 -4.31249 0
M  V30 449 H 43.8058 3.58588 -2.58586 0
M  V30 450 N 42.8649 1.48995 0.513639 0
M  V30 451 C 44.1109 1.58076 1.27042 0
M  V30 452 C 44.4439 0.261026 1.92438 0
M  V30 453 O 43.7189 -0.734393 1.80103 0
M  V30 454 C 44.0019 2.73091 2.34719 0
M  V30 455 C 43.8549 4.14821 1.73907 0
M  V30 456 C 45.1739 2.83796 3.36375 0
M  V30 457 H 42.2929 0.575391 0.460536 0
M  V30 458 H 44.9349 1.81232 0.570516 0
M  V30 459 H 43.0849 2.53479 2.94416 0
M  V30 460 H 44.7569 4.45917 1.18135 0
M  V30 461 H 42.9999 4.21058 1.0437 0
M  V30 462 H 43.6709 4.91147 2.51949 0
M  V30 463 H 46.1469 3.01611 2.86653 0
M  V30 464 H 45.0229 3.65971 4.09093 0
M  V30 465 H 45.2839 1.92624 3.9793 0
M  V30 466 N 44.343 -0.763751 1.37857 0
M  V30 467 C 45.273 -1.89103 1.36975 0
M  V30 468 C 46.254 -1.68439 0.237152 0
M  V30 469 O 47.439 -1.8918 0.438713 0
M  V30 470 C 44.569 -3.26496 1.18395 0
M  V30 471 C 43.523 -3.61741 2.28751 0
M  V30 472 C 42.849 -4.97762 1.95286 0
M  V30 473 C 44.149 -3.67665 3.70972 0
M  V30 474 H 45.843 -1.90099 2.31307 0
M  V30 475 H 43.389 -0.91319 1.11341 0
M  V30 476 H 45.342 -4.05003 1.16406 0
M  V30 477 H 44.066 -3.25955 0.205215 0
M  V30 478 H 42.725 -2.85547 2.29909 0
M  V30 479 H 42.373 -4.93769 0.959221 0
M  V30 480 H 42.073 -5.22313 2.69189 0
M  V30 481 H 43.597 -5.7866 1.94898 0
M  V30 482 H 45.011 -4.36307 3.719 0
M  V30 483 H 43.408 -4.03718 4.43995 0
M  V30 484 H 44.478 -2.68134 4.0402 0
M  V30 485 N 45.8211 -1.22559 -0.990812 0
M  V30 486 C 47.0511 -1.07623 -1.76355 0
M  V30 487 C 47.4591 0.37601 -1.85426 0
M  V30 488 O 46.8021 1.27228 -1.32509 0
M  V30 489 C 46.8641 -1.61507 -3.21179 0
M  V30 490 C 46.5281 -3.10146 -3.35646 0
M  V30 491 C 47.5251 -4.07553 -3.22796 0
M  V30 492 C 45.2101 -3.49644 -3.60631 0
M  V30 493 C 47.2041 -5.42442 -3.34716 0
M  V30 494 C 44.8911 -4.84682 -3.72192 0
M  V30 495 C 45.8891 -5.8089 -3.59243 0
M  V30 496 O 45.5771 -7.13476 -3.70415 0
M  V30 497 H 45.3091 -0.377745 -0.560611 0
M  V30 498 H 47.8631 -1.62658 -1.25425 0
M  V30 499 H 46.0931 -1.00881 -3.73309 0
M  V30 500 H 47.7821 -1.42202 -3.80175 0
M  V30 501 H 48.5481 -3.78381 -3.03403 0
M  V30 502 H 44.4271 -2.75282 -3.69785 0
M  V30 503 H 47.9711 -6.17518 -3.24526 0
M  V30 504 H 43.8681 -5.13534 -3.91092 0
M  V30 505 H 44.6361 -7.21083 -3.87275 0
M  V30 506 N 47.2992 1.18797 -1.03562 0
M  V30 507 C 48.2622 2.20464 -0.626769 0
M  V30 508 C 49.2622 1.57721 0.313173 0
M  V30 509 O 50.4522 1.73917 0.0992615 0
M  V30 510 C 47.5842 3.40802 0.0818498 0
M  V30 511 H 48.7772 2.58149 -1.5264 0
M  V30 512 H 46.3302 1.32593 -0.827578 0
M  V30 513 H 47.0652 3.08642 0.995518 0
M  V30 514 H 46.8502 3.8758 -0.593652 0
M  V30 515 H 48.3402 4.16092 0.354584 0
M  V30 516 N 48.7773 0.814389 1.34928 0
M  V30 517 C 50.0543 0.321363 1.92942 0
M  V30 518 C 50.4343 -1.19014 1.74353 0
M  V30 519 O 49.7823 -1.99328 1.11716 0
M  V30 520 C 49.9923 0.741323 3.41036 0
M  V30 521 C 51.3403 0.735266 4.18185 0
M  V30 522 O 52.3643 0.68336 3.49584 0
M  V30 523 O 51.2233 0.800703 5.40602 0
M  V30 524 H 48.3173 0.0858893 0.822528 0
M  V30 525 H 50.8633 0.898609 1.43955 0
M  V30 526 H 49.6353 1.78276 3.4833 0
M  V30 527 H 49.2583 0.139307 3.97356 0
M  V30 528 N 50.2554 -1.46986 0.568584 0
M  V30 529 C 51.4804 -2.07335 0.0520528 0
M  V30 530 C 51.9054 -1.41675 -1.23733 0
M  V30 531 O 51.2634 -0.495623 -1.74394 0
M  V30 532 C 51.3114 -3.60417 -0.11501 0
M  V30 533 O 50.4154 -3.95309 -1.17492 0
M  V30 534 H 49.7564 -0.661597 0.0564385 0
M  V30 535 H 52.2864 -1.88837 0.787507 0
M  V30 536 H 52.2964 -4.06698 -0.325644 0
M  V30 537 H 50.9714 -4.07601 0.826675 0
M  V30 538 H 49.5484 -3.60757 -0.943869 0
M  V30 539 N 51.7335 -0.305618 -1.54608 0
M  V30 540 C 52.6635 0.561482 -2.26649 0
M  V30 541 C 53.6445 1.13415 -1.26772 0
M  V30 542 O 54.8295 1.16262 -1.55553 0
M  V30 543 C 51.9595 1.73122 -3.01075 0
M  V30 544 C 50.9135 1.2887 -4.08138 0
M  V30 545 C 50.2395 2.54396 -4.70305 0
M  V30 546 C 51.5395 0.416578 -5.20636 0
M  V30 547 H 53.2335 -0.0393902 -2.99374 0
M  V30 548 H 50.7795 -0.020385 -1.43986 0
M  V30 549 H 52.7325 2.34396 -3.50195 0
M  V30 550 H 51.4565 2.3584 -2.25936 0
M  V30 551 H 50.1155 0.698991 -3.59875 0
M  V30 552 H 49.7635 3.15439 -3.918 0
M  V30 553 H 49.4635 2.25486 -5.42614 0
M  V30 554 H 50.9875 3.16464 -5.2219 0
M  V30 555 H 52.4015 0.935116 -5.65622 0
M  V30 556 H 50.7985 0.221046 -5.99693 0
M  V30 557 H 51.8685 -0.557162 -4.81688 0
M  V30 558 N 53.2116 1.57565 -0.0334293 0
M  V30 559 C 54.4576 1.92262 0.645226 0
M  V30 560 C 54.7906 0.910543 1.71531 0
M  V30 561 O 54.0656 -0.066099 1.94388 0
M  V30 562 C 54.3486 3.37422 1.2577 0
M  V30 563 C 54.2016 4.49369 0.196891 0
M  V30 564 C 55.5206 3.82628 2.17449 0
M  V30 565 H 52.6396 0.699171 0.233085 0
M  V30 566 H 55.2816 1.89779 -0.0915694 0
M  V30 567 H 53.4316 3.39669 1.88566 0
M  V30 568 H 55.1036 4.59254 -0.433962 0
M  V30 569 H 53.3466 4.31168 -0.477137 0
M  V30 570 H 54.0176 5.47978 0.665124 0
M  V30 571 H 56.4936 3.82145 1.64634 0
M  V30 572 H 55.3696 4.84883 2.57254 0
M  V30 573 H 55.6306 3.18376 3.0674 0
M  V30 574 N 54.6897 -0.239769 1.55765 0
M  V30 575 C 55.9147 -0.988373 1.82335 0
M  V30 576 C 56.3397 -1.77886 0.611421 0
M  V30 577 O 55.6977 -1.75889 -0.439639 0
M  V30 578 C 55.7457 -1.89627 3.06715 0
M  V30 579 O 54.8497 -2.98904 2.84131 0
M  V30 580 H 54.1907 -0.280858 0.601677 0
M  V30 581 H 56.7207 -0.258597 2.02959 0
M  V30 582 H 56.7307 -2.30957 3.36338 0
M  V30 583 H 55.4057 -1.31511 3.9456 0
M  V30 584 H 53.9827 -2.61651 2.65694 0
M  V30 585 N 56.1678 -1.49265 -0.50573 0
M  V30 586 C 57.0998 -1.617 -1.62437 0
M  V30 587 C 58.1128 -0.499924 -1.54934 0
M  V30 588 O 59.3018 -0.771785 -1.60953 0
M  V30 589 C 56.4018 -1.5533 -3.01207 0
M  V30 590 C 55.5748 -2.8249 -3.33943 0
M  V30 591 C 54.6338 -2.69238 -4.52103 0
M  V30 592 O 53.6598 -3.43167 -4.5412 0
M  V30 593 N 54.8618 -1.80468 -5.51735 0
M  V30 594 H 57.6268 -2.58177 -1.52199 0
M  V30 595 H 55.1878 -1.46294 -0.693511 0
M  V30 596 H 57.1798 -1.44125 -3.78167 0
M  V30 597 H 55.7498 -0.667297 -3.05395 0
M  V30 598 H 54.9698 -3.08081 -2.45926 0
M  V30 599 H 56.2578 -3.66802 -3.5261 0
M  V30 600 H 55.6558 -1.19653 -5.52901 0
M  V30 601 H 54.2128 -1.75188 -6.27816 0
M  V30 602 N 57.6459 0.756429 -1.3826 0
M  V30 603 C 58.9229 1.50584 -1.24835 0
M  V30 604 C 59.3029 2.10556 0.151485 0
M  V30 605 O 58.6509 1.96825 1.1607 0
M  V30 606 C 58.8609 2.57448 -2.3563 0
M  V30 607 C 60.2089 3.24429 -2.73917 0
M  V30 608 O 61.2329 2.67751 -2.34921 0
M  V30 609 O 60.0919 4.26937 -3.41156 0
M  V30 610 H 57.1859 0.667664 -0.48801 0
M  V30 611 H 59.7319 0.792083 -1.5008 0
M  V30 612 H 58.5039 2.11362 -3.29305 0
M  V30 613 H 58.1269 3.36408 -2.11933 0
M  V30 614 N 59.124 1.23083 0.984299 0
M  V30 615 C 60.054 1.03292 2.09411 0
M  V30 616 C 61.035 -0.048923 1.7003 0
M  V30 617 O 62.22 0.114967 1.93859 0
M  V30 618 C 59.35 0.619155 3.41736 0
M  V30 619 C 58.304 1.64791 3.95004 0
M  V30 620 C 57.63 1.0897 5.23478 0
M  V30 621 C 58.93 3.03999 4.24714 0
M  V30 622 H 60.624 1.96119 2.26225 0
M  V30 623 H 58.17 0.944344 1.08711 0
M  V30 624 H 60.123 0.467777 4.18796 0
M  V30 625 H 58.847 -0.344786 3.24775 0
M  V30 626 H 57.506 1.78721 3.20085 0
M  V30 627 H 57.154 0.11686 5.02864 0
M  V30 628 H 56.854 1.77704 5.60085 0
M  V30 629 H 58.378 0.950093 6.03163 0
M  V30 630 H 59.792 2.93393 4.92538 0
M  V30 631 H 58.189 3.69936 4.72512 0
M  V30 632 H 59.259 3.53285 3.32142 0
M  V30 633 N 60.6021 -1.18246 1.0419 0
M  V30 634 C 61.8511 -1.87588 0.741194 0
M  V30 635 C 62.1641 -1.81303 -0.734066 0
M  V30 636 O 63.3701 -2.46019 -1.14834 0
M  V30 637 C 61.8261 -3.36538 1.27555 0
M  V30 638 C 61.4341 -3.51349 2.77953 0
M  V30 639 C 63.1781 -4.11273 1.05143 0
M  V30 640 C 61.0851 -4.94265 3.2474 0
M  V30 641 H 60.0151 -0.702622 0.273565 0
M  V30 642 H 62.6661 -1.33601 1.25789 0
M  V30 643 H 61.0481 -3.9 0.686703 0
M  V30 644 H 62.2221 -3.08153 3.42605 0
M  V30 645 H 60.5371 -2.90022 2.98791 0
M  V30 646 H 63.1341 -5.16689 1.37611 0
M  V30 647 H 63.4771 -4.16298 -0.0112774 0
M  V30 648 H 64.0101 -3.63987 1.60495 0
M  V30 649 H 60.7491 -4.94408 4.30396 0
M  V30 650 H 60.2691 -5.38172 2.64823 0
M  V30 651 H 61.9481 -5.62987 3.18834 0
M  V30 652 N 62.0802 -0.821533 -1.34494 0
M  V30 653 C 63.0432 -0.247847 -2.27856 0
M  V30 654 C 64.0432 0.573453 -1.50227 0
M  V30 655 O 65.2332 0.389759 -1.69784 0
M  V30 656 C 62.3652 0.652698 -3.34593 0
M  V30 657 H 63.5582 -1.07146 -2.80107 0
M  V30 658 H 61.1112 -0.593291 -1.44602 0
M  V30 659 H 61.8462 1.49943 -2.87555 0
M  V30 660 H 61.6312 0.065292 -3.92046 0
M  V30 661 H 63.1212 1.04793 -4.04238 0
M  V30 662 N 63.5583 1.46682 -0.576371 0
M  V30 663 C 64.5053 2.30241 0.160499 0
M  V30 664 C 65.4753 1.40233 0.890162 0
M  V30 665 O 66.6603 1.69186 0.882084 0
M  V30 666 C 63.8003 3.24578 1.1723 0
M  V30 667 C 62.9133 4.29684 0.446736 0
M  V30 668 C 62.0483 5.11154 1.44551 0
M  V30 669 C 61.0873 6.08015 0.70599 0
M  V30 670 N 60.2243 6.82376 1.65251 0
M  V30 671 H 65.0643 2.92727 -0.558127 0
M  V30 672 H 62.6013 1.44272 -0.287056 0
M  V30 673 H 64.5593 3.77711 1.77172 0
M  V30 674 H 63.1893 2.63916 1.85872 0
M  V30 675 H 62.2413 3.79458 -0.267594 0
M  V30 676 H 63.5533 4.98626 -0.131686 0
M  V30 677 H 62.7073 5.68533 2.11791 0
M  V30 678 H 61.4463 4.42158 2.05786 0
M  V30 679 H 60.4513 5.49796 0.0197725 0
M  V30 680 H 61.6763 6.79028 0.09912 0
M  V30 681 H 59.6223 6.16094 2.25308 0
M  V30 682 H 59.5393 7.47556 1.12673 0
M  V30 683 H 60.8073 7.44316 2.31546 0
M  V30 684 N 65.0364 0.313813 1.54444 0
M  V30 685 C 66.2614 -0.296681 2.05267 0
M  V30 686 C 66.6864 -1.45757 1.18897 0
M  V30 687 O 66.0444 -1.80239 0.195886 0
M  V30 688 C 66.0924 -0.71831 3.53373 0
M  V30 689 O 65.1964 -1.82175 3.69981 0
M  V30 690 H 64.5374 -0.0554061 0.661684 0
M  V30 691 H 67.0674 0.459387 1.99376 0
M  V30 692 H 67.0774 -1.00364 3.95463 0
M  V30 693 H 65.7524 0.130821 4.15694 0
M  V30 694 H 64.3294 -1.53598 3.39797 0
M  V30 695 N 66.5145 -1.57545 0.0417849 0
M  V30 696 C 67.4615 -2.10977 -0.935805 0
M  V30 697 C 68.4315 -1.01486 -1.31491 0
M  V30 698 O 69.6165 -1.2898 -1.40602 0
M  V30 699 C 66.7565 -2.65169 -2.2086 0
M  V30 700 C 65.8695 -3.88714 -1.88482 0
M  V30 701 C 65.0045 -4.31254 -3.1015 0
M  V30 702 C 64.0435 -5.47524 -2.7365 0
M  V30 703 N 63.1805 -5.85162 -3.87982 0
M  V30 704 H 68.0205 -2.94218 -0.473249 0
M  V30 705 H 65.5575 -1.45415 -0.221981 0
M  V30 706 H 67.5155 -2.94685 -2.95325 0
M  V30 707 H 66.1455 -1.8474 -2.64709 0
M  V30 708 H 65.1975 -3.65849 -1.04205 0
M  V30 709 H 66.5095 -4.73245 -1.57608 0
M  V30 710 H 65.6635 -4.62273 -3.92923 0
M  V30 711 H 64.4025 -3.45516 -3.44195 0
M  V30 712 H 63.4075 -5.16187 -1.89291 0
M  V30 713 H 64.6325 -6.34971 -2.40807 0
M  V30 714 H 62.5785 -5.02377 -4.21846 0
M  V30 715 H 62.4955 -6.64362 -3.60775 0
M  V30 716 H 63.7635 -6.20791 -4.71422 0
M  V30 717 N 67.9926 0.231505 -1.5589 0
M  V30 718 C 69.4036 0.799327 -1.68724 0
M  V30 719 C 69.7546 1.85398 -0.642022 0
M  V30 720 O 68.8796 2.1539 0.208784 0
M  V30 721 C 69.4746 1.45664 -3.05888 0
M  V30 722 C 68.0336 1.97197 -3.20609 0
M  V30 723 C 67.1806 0.828552 -2.64632 0
M  V30 724 H 70.1316 0.00702616 -1.58698 0
M  V30 725 H 70.1526 2.32517 -3.01191 0
M  V30 726 H 69.6646 0.688808 -3.81939 0
M  V30 727 H 67.7656 2.76813 -2.4941 0
M  V30 728 H 67.8786 2.15878 -4.27707 0
M  V30 729 H 66.2426 1.23321 -2.22854 0
M  V30 730 H 67.0256 0.0735544 -3.43221 0
M  V30 731 N 69.4707 1.49531 0.497807 0
M  V30 732 C 70.7187 1.58865 1.24926 0
M  V30 733 C 71.0397 0.278721 1.92998 0
M  V30 734 O 70.3097 -0.702144 1.82885 0
M  V30 735 H 68.8897 0.585343 0.464094 0
M  V30 736 H 71.5517 1.86174 0.57666 0
M  V30 737 H 70.6477 2.38633 2.01149 0
M  V30 738 N 70.9488 -0.749086 1.3866 0
M  V30 739 C 71.9118 -1.84457 1.36045 0
M  V30 740 C 72.9118 -1.58682 0.260122 0
M  V30 741 O 74.1018 -1.66343 0.517261 0
M  V30 742 C 71.2338 -3.22008 1.11911 0
M  V30 743 H 72.4268 -1.88182 2.33512 0
M  V30 744 H 69.9798 -0.951266 1.24019 0
M  V30 745 H 70.7148 -3.2395 0.150686 0
M  V30 746 H 70.4998 -3.42111 1.91579 0
M  V30 747 H 71.9898 -4.0208 1.12788 0
M  V30 748 N 72.4269 -1.23603 -0.977757 0
M  V30 749 C 73.3369 -1.03632 -2.1047 0
M  V30 750 C 74.3529 0.0199435 -1.73989 0
M  V30 751 O 75.5289 -0.176076 -2.00629 0
M  V30 752 C 72.5939 -0.63276 -3.40877 0
M  V30 753 C 71.6549 -1.76437 -3.91367 0
M  V30 754 C 70.8879 -1.37997 -5.15551 0
M  V30 755 O 71.1109 -0.265357 -5.69782 0
M  V30 756 O 70.0449 -2.20201 -5.60174 0
M  V30 757 H 73.8709 -1.98086 -2.30208 0
M  V30 758 H 71.4559 -1.02332 -1.08851 0
M  V30 759 H 73.3379 -0.418761 -4.19314 0
M  V30 760 H 72.0129 0.282754 -3.22463 0
M  V30 761 H 70.9199 -2.03304 -3.14036 0
M  V30 762 H 72.2529 -2.6583 -4.14241 0
M  V30 763 N 73.905 1.17692 -1.04816 0
M  V30 764 C 75.151 1.88137 -0.75711 0
M  V30 765 C 75.484 1.80604 0.713841 0
M  V30 766 O 74.759 1.21146 1.52164 0
M  V30 767 C 75.042 3.38318 -1.2334 0
M  V30 768 C 74.895 3.54622 -2.76701 0
M  V30 769 C 76.214 4.32214 -0.829415 0
M  V30 770 H 73.333 0.683163 -0.27651 0
M  V30 771 H 75.975 1.38424 -1.30149 0
M  V30 772 H 74.125 3.80787 -0.770286 0
M  V30 773 H 75.797 3.21194 -3.31107 0
M  V30 774 H 74.04 2.97026 -3.16161 0
M  V30 775 H 74.711 4.60028 -3.05088 0
M  V30 776 H 77.187 3.97565 -1.22805 0
M  V30 777 H 76.063 5.35838 -1.19033 0
M  V30 778 H 76.324 4.41294 0.266891 0
M  V30 779 N 75.3831 0.828654 1.34056 0
M  V30 780 C 76.3131 0.269443 2.3194 0
M  V30 781 C 77.2941 -0.617247 1.58506 0
M  V30 782 O 78.4791 -0.542931 1.86456 0
M  V30 783 C 75.6091 -0.564793 3.42677 0
M  V30 784 C 74.5631 0.225241 4.27407 0
M  V30 785 C 73.8891 -0.7321 5.29664 0
M  V30 786 C 75.1891 1.43663 5.02154 0
M  V30 787 H 76.8831 1.08728 2.7896 0
M  V30 788 H 74.4291 0.524283 1.34117 0
M  V30 789 H 76.3821 -0.966233 4.10173 0
M  V30 790 H 75.1061 -1.41574 2.9432 0
M  V30 791 H 73.7651 0.608117 3.61521 0
M  V30 792 H 73.4131 -1.57916 4.77568 0
M  V30 793 H 73.1131 -0.20767 5.87233 0
M  V30 794 H 74.6371 -1.13128 6.00029 0
M  V30 795 H 76.0511 1.1089 5.62473 0
M  V30 796 H 74.4481 1.89711 5.69324 0
M  V30 797 H 75.5181 2.21181 4.31517 0
M  V30 798 N 76.8612 -1.46375 0.584142 0
M  V30 799 C 77.8082 -2.30323 -0.148286 0
M  V30 800 C 78.7782 -1.40703 -0.882713 0
M  V30 801 O 79.9632 -1.69651 -0.873099 0
M  V30 802 C 77.1032 -3.25196 -1.15507 0
M  V30 803 C 76.2162 -4.29915 -0.423943 0
M  V30 804 C 75.3512 -5.11914 -1.41838 0
M  V30 805 C 74.3902 -6.08381 -0.673736 0
M  V30 806 N 73.5272 -6.83242 -1.6163 0
M  V30 807 H 78.3672 -2.92427 0.573644 0
M  V30 808 H 75.9042 -1.44118 0.294703 0
M  V30 809 H 77.8622 -3.78646 -1.75166 0
M  V30 810 H 76.4922 -2.64898 -1.8447 0
M  V30 811 H 75.5442 -3.7931 0.287714 0
M  V30 812 H 76.8562 -4.98549 0.158128 0
M  V30 813 H 76.0102 -5.69648 -2.08773 0
M  V30 814 H 74.7492 -4.43243 -2.03438 0
M  V30 815 H 73.7542 -5.49799 0.00938483 0
M  V30 816 H 74.9792 -6.79071 -0.0631082 0
M  V30 817 H 72.9252 -6.1728 -2.22038 0
M  V30 818 H 72.8422 -7.48144 -1.08707 0
M  V30 819 H 74.1102 -7.45534 -2.27596 0
M  V30 820 N 78.3393 -0.321999 -1.54275 0
M  V30 821 C 79.5673 0.283052 -2.04955 0
M  V30 822 C 79.9823 1.45904 -1.19823 0
M  V30 823 O 79.3393 1.81063 -0.228545 0
M  V30 824 C 79.3903 0.719028 -3.54277 0
M  V30 825 O 79.1113 -0.410175 -4.36176 0
M  V30 826 C 80.6123 1.38705 -4.21041 0
M  V30 827 H 77.8323 0.0584616 -0.668448 0
M  V30 828 H 80.3763 -0.467734 -1.99079 0
M  V30 829 H 78.5313 1.41979 -3.60445 0
M  V30 830 H 78.9453 -0.0669416 -5.24457 0
M  V30 831 H 80.4193 1.64306 -5.2698 0
M  V30 832 H 80.8963 2.33385 -3.72059 0
M  V30 833 H 81.5023 0.728906 -4.19007 0
M  V30 834 N 79.8174 1.5752 -0.0501392 0
M  V30 835 C 80.7804 2.1037 0.909786 0
M  V30 836 C 81.7804 1.02308 1.24056 0
M  V30 837 O 82.9704 1.28385 1.17741 0
M  V30 838 C 80.1024 2.58708 2.21998 0
M  V30 839 H 81.2954 2.96479 0.451665 0
M  V30 840 H 78.8484 1.55038 0.198248 0
M  V30 841 H 79.5834 1.75989 2.72394 0
M  V30 842 H 79.3684 3.37675 1.99295 0
M  V30 843 H 80.8584 2.99747 2.9076 0
M  V30 844 N 81.2955 -0.223234 1.56011 0
M  V30 845 C 82.5435 -0.946003 1.78592 0
M  V30 846 C 82.8645 -1.84936 0.618349 0
M  V30 847 O 82.1345 -1.92473 -0.364833 0
M  V30 848 H 80.7145 -0.352298 0.658707 0
M  V30 849 H 83.3765 -0.235494 1.93472 0
M  V30 850 H 82.4725 -1.55381 2.70672 0
M  V30 851 N 82.7736 -1.49793 -0.48987 0
M  V30 852 C 83.7066 -1.61898 -1.60823 0
M  V30 853 C 84.6846 -0.467651 -1.5573 0
M  V30 854 O 85.8686 -0.684682 -1.75626 0
M  V30 855 C 82.9956 -1.58422 -2.99366 0
M  V30 856 C 82.0416 -2.78889 -3.22682 0
M  V30 857 S 82.8746 -4.40429 -3.04602 0
M  V30 858 C 84.0306 -4.39617 -4.4552 0
M  V30 859 H 84.2636 -2.56502 -1.50312 0
M  V30 860 H 81.7966 -1.38822 -0.675849 0
M  V30 861 H 83.7546 -1.57103 -3.79248 0
M  V30 862 H 82.4156 -0.650866 -3.07283 0
M  V30 863 H 81.6086 -2.72708 -4.23847 0
M  V30 864 H 81.2106 -2.77678 -2.50541 0
M  V30 865 H 83.5026 -4.12022 -5.37814 0
M  V30 866 H 84.4456 -5.41097 -4.56749 0
M  V30 867 H 84.8536 -3.69554 -4.2672 0
M  V30 868 N 84.2517 0.741722 -1.39055 0
M  V30 869 C 85.2017 1.84661 -1.33732 0
M  V30 870 C 86.1857 1.59397 -0.219401 0
M  V30 871 O 87.3777 1.71015 -0.456375 0
M  V30 872 C 84.5067 3.22512 -1.17647 0
M  V30 873 C 83.5927 3.53628 -2.34112 0
M  V30 874 N 83.9837 3.55723 -3.59576 0
M  V30 875 C 82.2817 3.83956 -2.26923 0
M  V30 876 C 82.9827 3.84443 -4.36553 0
M  V30 877 N 81.9587 4.01877 -3.66055 0
M  V30 878 H 85.7607 1.84576 -2.28711 0
M  V30 879 H 83.2747 0.939647 -1.32455 0
M  V30 880 H 85.2717 4.01597 -1.11917 0
M  V30 881 H 83.9317 3.2384 -0.236124 0
M  V30 882 H 84.9427 3.37196 -3.93089 0
M  V30 883 H 81.6197 3.92929 -1.41113 0
M  V30 884 H 83.0097 3.92588 -5.45274 0
M  V30 885 N 85.7298 1.2412 0.971189 0
M  V30 886 C 86.6598 1.05508 2.08304 0
M  V30 887 C 87.6408 -0.0308864 1.70072 0
M  V30 888 O 88.8258 0.135521 1.93727 0
M  V30 889 C 85.9558 0.655365 3.4106 0
M  V30 890 C 84.9098 1.68971 3.93234 0
M  V30 891 C 84.2358 1.14516 5.22293 0
M  V30 892 C 85.5358 3.08487 4.21465 0
M  V30 893 H 87.2298 1.98507 2.24132 0
M  V30 894 H 84.7758 0.955821 1.07704 0
M  V30 895 H 86.7288 0.51217 4.18276 0
M  V30 896 H 85.4528 -0.31032 3.25122 0
M  V30 897 H 84.1118 1.82106 3.18171 0
M  V30 898 H 83.7598 0.170189 5.02712 0
M  V30 899 H 83.4598 1.83635 5.58168 0
M  V30 900 H 84.9838 1.01401 6.02121 0
M  V30 901 H 86.3978 2.98601 4.89398 0
M  V30 902 H 84.7948 3.74926 4.68562 0
M  V30 903 H 85.8648 3.56787 3.28376 0
M  V30 904 N 87.2079 -1.17134 1.05439 0
M  V30 905 C 88.1179 -2.24878 0.668365 0
M  V30 906 C 89.1339 -1.71186 -0.311687 0
M  V30 907 O 90.3099 -2.00738 -0.163161 0
M  V30 908 C 87.3749 -3.46662 0.051648 0
M  V30 909 C 86.4359 -4.15429 1.08246 0
M  V30 910 C 85.6689 -5.31399 0.495082 0
M  V30 911 O 85.8919 -5.66153 -0.694743 0
M  V30 912 O 84.8259 -5.89187 1.23056 0
M  V30 913 H 88.6519 -2.60189 1.56637 0
M  V30 914 H 86.2369 -1.24482 0.826104 0
M  V30 915 H 88.1189 -4.20394 -0.290966 0
M  V30 916 H 86.7939 -3.13142 -0.819971 0
M  V30 917 H 85.7009 -3.43704 1.47711 0
M  V30 918 H 87.0339 -4.52982 1.92532 0
M  V30 919 N 88.686 -0.835752 -1.33615 0
M  V30 920 C 89.596 -0.269088 -2.33052 0
M  V30 921 C 90.612 0.603251 -1.63208 0
M  V30 922 O 91.788 0.508112 -1.94885 0
M  V30 923 C 88.853 0.549091 -3.42324 0
M  V30 924 C 87.914 -0.347156 -4.27894 0
M  V30 925 C 87.147 0.43207 -5.31948 0
M  V30 926 O 87.37 1.66409 -5.45586 0
M  V30 927 O 86.304 -0.192298 -6.01593 0
M  V30 928 H 90.13 -1.09243 -2.83372 0
M  V30 929 H 87.715 -0.598198 -1.36901 0
M  V30 930 H 89.597 1.01414 -4.09015 0
M  V30 931 H 88.272 1.34955 -2.94226 0
M  V30 932 H 87.179 -0.859979 -3.64081 0
M  V30 933 H 88.512 -1.1123 -4.79467 0
M  V30 934 N 90.1641 1.46063 -0.591896 0
M  V30 935 C 91.0971 2.27452 0.184617 0
M  V30 936 C 92.0751 1.36188 0.888351 0
M  V30 937 O 93.2591 1.65606 0.90039 0
M  V30 938 C 90.3861 3.14162 1.26571 0
M  V30 939 C 89.4321 4.21255 0.666814 0
M  V30 940 S 90.2651 5.33034 -0.513345 0
M  V30 941 C 91.4211 6.23311 0.56872 0
M  V30 942 H 91.6541 2.92963 -0.505939 0
M  V30 943 H 89.1871 1.49676 -0.379014 0
M  V30 944 H 91.1451 3.6468 1.88463 0
M  V30 945 H 89.8061 2.47946 1.92826 0
M  V30 946 H 88.9991 4.81788 1.47974 0
M  V30 947 H 88.6011 3.73797 0.123359 0
M  V30 948 H 90.8931 6.61758 1.45198 0
M  V30 949 H 91.8361 7.081 -7.23824e-05 0
M  V30 950 H 92.2441 5.57646 0.876996 0
M  V30 951 N 91.6422 0.330177 1.54103 0
M  V30 952 C 92.8882 -0.270806 2.00984 0
M  V30 953 C 93.2212 -1.51265 1.21789 0
M  V30 954 O 92.4962 -1.92142 0.301927 0
M  V30 955 C 92.7792 -0.598339 3.55094 0
M  V30 956 C 92.6322 0.654674 4.4501 0
M  V30 957 C 93.9512 -1.41334 4.16789 0
M  V30 958 H 91.0702 -0.0969531 0.730595 0
M  V30 959 H 93.7122 0.448066 1.84641 0
M  V30 960 H 91.8622 -1.21078 3.69151 0
M  V30 961 H 93.5342 1.29285 4.42813 0
M  V30 962 H 91.7772 1.28224 4.14416 0
M  V30 963 H 92.4482 0.380944 5.50684 0
M  V30 964 H 94.9242 -0.895597 4.06347 0
M  V30 965 H 93.8002 -1.61127 5.24718 0
M  V30 966 H 94.0612 -2.41146 3.70541 0
M  V30 967 N 93.1203 -1.57491 0.0584922 0
M  V30 968 C 94.3683 -1.92597 -0.612436 0
M  V30 969 C 94.6893 -0.938162 -1.70949 0
M  V30 970 O 93.9593 0.0158301 -1.95894 0
M  V30 971 H 92.5393 -0.710964 -0.229214 0
M  V30 972 H 95.2013 -1.94571 0.113218 0
M  V30 973 H 94.2973 -2.94038 -1.04633 0
M  V30 974 N 94.5984 0.214957 -1.56127 0
M  V30 975 C 95.8264 0.955092 -1.83536 0
M  V30 976 C 96.2414 1.77677 -0.638472 0
M  V30 977 O 95.5984 1.78219 0.392968 0
M  V30 978 C 95.6494 1.86734 -3.09536 0
M  V30 979 O 95.3704 1.07887 -4.24608 0
M  V30 980 C 96.8714 2.72082 -3.4998 0
M  V30 981 H 94.0914 0.279611 -0.609966 0
M  V30 982 H 96.6354 0.228197 -2.03223 0
M  V30 983 H 94.7904 2.5481 -2.91806 0
M  V30 984 H 95.2044 1.69872 -4.9623 0
M  V30 985 H 96.6784 3.31782 -4.41163 0
M  V30 986 H 97.1554 3.44806 -2.7204 0
M  V30 987 H 97.7614 2.09409 -3.70173 0
M  V30 988 N 96.0765 1.50051 0.48192 0
M  V30 989 C 97.0095 1.62749 1.59963 0
M  V30 990 C 97.9875 0.475903 1.5548 0
M  V30 991 O 99.1715 0.693986 1.7526 0
M  V30 992 C 96.2985 1.60008 2.98522 0
M  V30 993 C 95.3445 2.80596 3.21198 0
M  V30 994 S 96.1775 4.42038 3.02262 0
M  V30 995 C 97.3335 4.41973 4.43182 0
M  V30 996 H 97.5665 2.57296 1.4895 0
M  V30 997 H 95.0995 1.39179 0.668477 0
M  V30 998 H 97.0575 1.59112 3.78409 0
M  V30 999 H 95.7185 0.667153 3.06933 0
M  V30 1000 H 94.9115 2.74952 4.22395 0
M  V30 1001 H 94.5135 2.79003 2.49065 0
M  V30 1002 H 96.8055 4.14868 5.35622 0
M  V30 1003 H 97.7485 5.43512 4.53873 0
M  V30 1004 H 98.1565 3.71812 4.24755 0
M  V30 1005 N 97.5546 -0.734337 1.39446 0
M  V30 1006 C 98.4846 -1.86155 1.40955 0
M  V30 1007 C 99.4656 -1.67898 0.272827 0
M  V30 1008 O 100.651 -1.88207 0.478743 0
M  V30 1009 C 97.7806 -3.23912 1.25294 0
M  V30 1010 C 96.7346 -3.56808 2.36373 0
M  V30 1011 C 96.0606 -4.93508 2.058 0
M  V30 1012 C 97.3606 -3.59713 3.78687 0
M  V30 1013 H 99.0546 -1.8515 2.35287 0
M  V30 1014 H 96.6006 -0.889367 1.13253 0
M  V30 1015 H 98.5536 -4.02443 1.2497 0
M  V30 1016 H 97.2776 -3.25446 0.274308 0
M  V30 1017 H 95.9366 -2.80606 2.35914 0
M  V30 1018 H 95.5846 -4.91623 1.06374 0
M  V30 1019 H 95.2846 -5.16486 2.80208 0
M  V30 1020 H 96.8086 -5.74396 2.07128 0
M  V30 1021 H 98.2226 -4.2832 3.81071 0
M  V30 1022 H 96.6196 -3.94209 4.52459 0
M  V30 1023 H 97.6896 -2.59504 4.09617 0
M  V30 1024 N 99.0327 -1.24633 -0.964593 0
M  V30 1025 C 100.31 -0.995809 -1.68354 0
M  V30 1026 C 100.69 0.480964 -2.05548 0
M  V30 1027 O 100.038 1.45599 -1.76105 0
M  V30 1028 C 100.248 -1.92177 -2.91323 0
M  V30 1029 C 101.596 -2.19446 -3.63495 0
M  V30 1030 O 102.62 -1.89855 -3.01386 0
M  V30 1031 O 101.479 -2.69714 -4.75307 0
M  V30 1032 H 98.5727 -0.376854 -0.736146 0
M  V30 1033 H 101.119 -1.35745 -1.0184 0
M  V30 1034 H 99.8907 -2.91938 -2.60553 0
M  V30 1035 H 99.5137 -1.56349 -3.65569 0
M  V30 1036 N 100.511 1.16574 -1.06058 0
M  V30 1037 C 101.927 1.3904 -0.783585 0
M  V30 1038 C 102.127 1.91784 0.618145 0
M  V30 1039 O 101.183 2.11511 1.37911 0
M  V30 1040 C 102.496 2.37329 -1.84649 0
M  V30 1041 C 104.044 2.51018 -1.86973 0
M  V30 1042 C 104.519 3.52588 -2.92311 0
M  V30 1043 N 106.01 3.60113 -2.91329 0
M  V30 1044 C 106.745 4.38486 -3.69482 0
M  V30 1045 N 106.241 5.20302 -4.57447 0
M  V30 1046 N 108.034 4.33446 -3.57885 0
M  V30 1047 H 100.185 0.806725 -1.96483 0
M  V30 1048 H 102.448 0.417117 -0.851303 0
M  V30 1049 H 102.154 2.05663 -2.85299 0
M  V30 1050 H 102.028 3.36946 -1.6955 0
M  V30 1051 H 104.415 2.81989 -0.869827 0
M  V30 1052 H 104.496 1.51445 -2.0615 0
M  V30 1053 H 104.14 3.22354 -3.92492 0
M  V30 1054 H 104.07 4.51886 -2.70383 0
M  V30 1055 H 106.561 3.01707 -2.27555 0
M  V30 1056 H 106.874 5.77311 -5.13743 0
M  V30 1057 H 105.219 5.19653 -4.61503 0
M  V30 1058 H 108.41 3.68586 -2.88551 0
M  V30 1059 H 108.583 4.94279 -4.19037 0
M  V30 1060 N 101.989 0.842826 1.3317 0
M  V30 1061 C 102.922 0.223862 2.27099 0
M  V30 1062 C 103.9 -0.631311 1.49844 0
M  V30 1063 O 105.084 -0.590708 1.79005 0
M  V30 1064 C 102.211 -0.685313 3.31694 0
M  V30 1065 C 101.257 0.094919 4.26394 0
M  V30 1066 S 102.09 1.45546 5.15341 0
M  V30 1067 C 103.246 0.551685 6.23464 0
M  V30 1068 H 103.479 1.02015 2.79249 0
M  V30 1069 H 101.012 0.639797 1.4052 0
M  V30 1070 H 102.97 -1.20426 3.92438 0
M  V30 1071 H 101.631 -1.4553 2.78352 0
M  V30 1072 H 100.824 -0.597059 5.00451 0
M  V30 1073 H 100.426 0.545054 3.70007 0
M  V30 1074 H 102.718 -0.248877 6.77043 0
M  V30 1075 H 103.661 1.26253 6.96754 0
M  V30 1076 H 104.069 0.131275 5.64347 0
M  V30 1077 N 103.467 -1.45747 0.599634 0
M  V30 1078 C 104.883 -1.57424 0.26264 0
M  V30 1079 C 105.083 -1.59222 -1.23493 0
M  V30 1080 O 104.139 -1.51825 -2.01756 0
M  V30 1081 C 105.452 -2.86061 0.926795 0
M  V30 1082 C 107 -2.99722 0.901967 0
M  V30 1083 C 107.475 -4.31119 1.54598 0
M  V30 1084 N 108.966 -4.37858 1.5111 0
M  V30 1085 C 109.701 -5.3818 1.97863 0
M  V30 1086 N 109.197 -6.45083 2.52666 0
M  V30 1087 N 110.99 -5.29487 1.88679 0
M  V30 1088 H 103.141 -1.42823 1.57211 0
M  V30 1089 H 105.404 -0.68235 0.658105 0
M  V30 1090 H 105.11 -2.90605 1.98095 0
M  V30 1091 H 104.984 -3.74563 0.445238 0
M  V30 1092 H 107.371 -2.9475 -0.143617 0
M  V30 1093 H 107.452 -2.12652 1.42171 0
M  V30 1094 H 107.096 -4.36849 2.59085 0
M  V30 1095 H 107.026 -5.16992 1.00132 0
M  V30 1096 H 109.517 -3.61209 1.11068 0
M  V30 1097 H 109.83 -7.17869 2.86155 0
M  V30 1098 H 108.175 -6.45856 2.56701 0
M  V30 1099 H 111.366 -4.44877 1.4561 0
M  V30 1100 H 111.539 -6.07524 2.25429 0
M  V30 1101 N 104.945 -0.338344 -1.53925 0
M  V30 1102 C 105.855 0.529421 -2.28548 0
M  V30 1103 C 106.871 1.11645 -1.3346 0
M  V30 1104 O 108.047 1.13325 -1.66492 0
M  V30 1105 C 105.112 1.66713 -3.03987 0
M  V30 1106 C 104.173 1.11041 -4.14691 0
M  V30 1107 C 103.406 2.19389 -4.86522 0
M  V30 1108 O 103.629 3.40013 -4.57982 0
M  V30 1109 O 102.563 1.83976 -5.73094 0
M  V30 1110 H 106.389 -0.0770399 -3.03602 0
M  V30 1111 H 103.974 -0.103555 -1.49041 0
M  V30 1112 H 105.856 2.32918 -3.5118 0
M  V30 1113 H 104.531 2.25949 -2.31794 0
M  V30 1114 H 103.438 0.413024 -3.71813 0
M  V30 1115 H 104.771 0.562975 -4.8897 0
M  V30 1116 N 106.423 1.57458 -0.0668435 0
M  V30 1117 C 107.671 1.92919 0.602214 0
M  V30 1118 C 107.992 0.947215 1.70449 0
M  V30 1119 O 107.262 -0.00544117 1.95899 0
M  V30 1120 H 105.842 0.71217 0.22544 0
M  V30 1121 H 108.504 1.94508 -0.123535 0
M  V30 1122 H 107.6 2.94589 1.03073 0
M  V30 1123 N 107.901 -0.206675 1.56239 0
M  V30 1124 C 108.848 -1.25617 1.93621 0
M  V30 1125 C 109.818 -1.45824 0.795274 0
M  V30 1126 O 111.003 -1.59148 1.05245 0
M  V30 1127 C 108.143 -2.59839 2.27107 0
M  V30 1128 C 107.256 -2.47308 3.54207 0
M  V30 1129 C 106.391 -3.74155 3.7707 0
M  V30 1130 C 105.43 -3.56407 4.97635 0
M  V30 1131 N 104.567 -4.75238 5.1681 0
M  V30 1132 H 109.407 -0.930383 2.83104 0
M  V30 1133 H 106.944 -0.448065 1.4011 0
M  V30 1134 H 108.902 -3.38021 2.44535 0
M  V30 1135 H 107.532 -2.90485 1.40778 0
M  V30 1136 H 106.584 -1.60483 3.4489 0
M  V30 1137 H 107.896 -2.30122 4.42544 0
M  V30 1138 H 107.05 -4.60778 3.94675 0
M  V30 1139 H 105.789 -3.94282 2.87042 0
M  V30 1140 H 104.794 -2.68168 4.79964 0
M  V30 1141 H 106.019 -3.37736 5.89161 0
M  V30 1142 H 103.965 -4.95651 4.29728 0
M  V30 1143 H 103.882 -4.60835 5.99306 0
M  V30 1144 H 105.15 -5.63246 5.38864 0
M  V30 1145 N 109.379 -1.50304 -0.473955 0
M  V30 1146 C 110.312 -1.63595 -1.59097 0
M  V30 1147 C 111.29 -0.484142 -1.55225 0
M  V30 1148 O 112.474 -0.703271 -1.7489 0
M  V30 1149 C 109.601 -1.61589 -2.97669 0
M  V30 1150 C 108.647 -2.82295 -3.19705 0
M  V30 1151 S 109.48 -4.43635 -2.99913 0
M  V30 1152 C 110.636 -4.44317 -4.40832 0
M  V30 1153 H 110.869 -2.58082 -1.47583 0
M  V30 1154 H 108.402 -1.39531 -0.661087 0
M  V30 1155 H 110.36 -1.61116 -3.7756 0
M  V30 1156 H 109.021 -0.683421 -3.06575 0
M  V30 1157 H 108.214 -2.77188 -4.20931 0
M  V30 1158 H 107.816 -2.8032 -2.47582 0
M  V30 1159 H 110.108 -4.17703 -5.33414 0
M  V30 1160 H 111.051 -5.45911 -4.50984 0
M  V30 1161 H 111.459 -3.74059 -4.22777 0
M  V30 1162 N 110.857 0.726932 -1.39834 0
M  V30 1163 C 112.103 1.48884 -1.377 0
M  V30 1164 C 112.436 1.94185 0.0244852 0
M  V30 1165 O 111.711 1.67361 0.990986 0
M  V30 1166 C 111.994 2.72288 -2.3565 0
M  V30 1167 C 111.847 2.32956 -3.84775 0
M  V30 1168 C 113.166 3.74414 -2.31306 0
M  V30 1169 H 110.285 0.540062 -0.5015 0
M  V30 1170 H 112.927 0.830547 -1.70886 0
M  V30 1171 H 111.077 3.28457 -2.07481 0
M  V30 1172 H 112.749 1.82356 -4.23726 0
M  V30 1173 H 110.992 1.65088 -4.01159 0
M  V30 1174 H 111.663 3.21362 -4.4881 0
M  V30 1175 H 114.139 3.27849 -2.56231 0
M  V30 1176 H 113.015 4.58414 -3.01907 0
M  V30 1177 H 113.276 4.21909 -1.32081 0
M  V30 1178 N 112.336 1.25143 0.95797 0
M  V30 1179 C 113.582 1.09855 1.70469 0
M  V30 1180 C 113.915 -0.360187 1.90831 0
M  V30 1181 O 113.19 -1.26568 1.47685 0
M  V30 1182 C 113.473 1.8497 3.08963 0
M  V30 1183 C 113.326 3.38652 2.96032 0
M  V30 1184 C 114.645 1.63016 4.08795 0
M  V30 1185 H 111.764 0.400465 0.618706 0
M  V30 1186 H 114.406 1.53933 1.11376 0
M  V30 1187 H 112.556 1.47505 3.59409 0
M  V30 1188 H 114.228 3.85772 2.52938 0
M  V30 1189 H 112.471 3.66534 2.32025 0
M  V30 1190 H 113.142 3.8642 3.94187 0
M  V30 1191 H 115.618 1.95625 3.67247 0
M  V30 1192 H 114.494 2.18015 5.03747 0
M  V30 1193 H 114.755 0.570692 4.38401 0
M  V30 1194 N 113.814 -1.1601 1.06675 0
M  V30 1195 C 115.23 -1.38622 0.790948 0
M  V30 1196 C 115.43 -1.92109 -0.607965 0
M  V30 1197 O 114.486 -2.12239 -1.36787 0
M  V30 1198 C 115.799 -2.36347 1.85905 0
M  V30 1199 C 117.347 -2.50023 1.88301 0
M  V30 1200 C 117.822 -3.51033 2.94176 0
M  V30 1201 N 119.313 -3.58563 2.93235 0
M  V30 1202 C 120.048 -4.36521 3.71803 0
M  V30 1203 N 119.544 -5.17869 4.602 0
M  V30 1204 N 121.337 -4.31541 3.60178 0
M  V30 1205 H 113.488 -0.796294 1.96908 0
M  V30 1206 H 115.751 -0.412597 0.853503 0
M  V30 1207 H 115.457 -2.04147 2.86386 0
M  V30 1208 H 115.331 -3.36042 1.71334 0
M  V30 1209 H 117.718 -2.81524 0.884769 0
M  V30 1210 H 117.799 -1.5035 2.06951 0
M  V30 1211 H 117.443 -3.20268 3.94196 0
M  V30 1212 H 117.373 -4.50445 2.72776 0
M  V30 1213 H 119.864 -3.00496 2.29152 0
M  V30 1214 H 120.177 -5.74578 5.16797 0
M  V30 1215 H 118.522 -5.17199 4.64253 0
M  V30 1216 H 121.713 -3.67051 2.90502 0
M  V30 1217 H 121.886 -4.9205 4.21653 0
M  V30 1218 N 115.292 -0.849877 -1.32721 0
M  V30 1219 C 116.538 -0.451591 -1.97708 0
M  V30 1220 C 116.871 0.989175 -1.6712 0
M  V30 1221 O 116.146 1.69334 -0.956891 0
M  V30 1222 C 116.429 -0.685598 -3.53513 0
M  V30 1223 C 116.282 -2.17444 -3.93749 0
M  V30 1224 C 117.601 -0.138874 -4.39881 0
M  V30 1225 H 114.72 -0.16555 -0.718166 0
M  V30 1226 H 117.362 -1.06742 -1.57182 0
M  V30 1227 H 115.512 -0.161416 -3.88165 0
M  V30 1228 H 117.184 -2.76433 -3.693 0
M  V30 1229 H 115.427 -2.65476 -3.43081 0
M  V30 1230 H 116.098 -2.28888 -5.02309 0
M  V30 1231 H 118.574 -0.587068 -4.11938 0
M  V30 1232 H 117.45 -0.332213 -5.47894 0
M  V30 1233 H 117.711 0.95806 -4.31594 0
M  V30 1234 N 116.77 1.45427 -0.607355 0
M  V30 1235 C 117.72 2.27612 0.133038 0
M  V30 1236 C 118.704 1.37307 0.838785 0
M  V30 1237 O 119.896 1.61299 0.728813 0
M  V30 1238 C 117.025 3.24173 1.12991 0
M  V30 1239 C 116.111 4.21965 0.425011 0
M  V30 1240 N 116.502 5.02982 -0.533217 0
M  V30 1241 C 114.8 4.40899 0.672593 0
M  V30 1242 C 115.501 5.73931 -0.947518 0
M  V30 1243 N 114.477 5.42819 -0.291321 0
M  V30 1244 H 118.279 2.87649 -0.602935 0
M  V30 1245 H 115.793 1.56576 -0.431006 0
M  V30 1246 H 117.79 3.81783 1.67473 0
M  V30 1247 H 116.45 2.65696 1.86644 0
M  V30 1248 H 117.461 5.09843 -0.90995 0
M  V30 1249 H 114.138 3.93547 1.39382 0
M  V30 1250 H 115.528 6.49037 -1.73782 0
M  V30 1251 N 118.248 0.346503 1.53744 0
M  V30 1252 C 119.476 -0.25041 2.05379 0
M  V30 1253 C 119.891 -1.43979 1.22129 0
M  V30 1254 O 119.248 -1.80677 0.257321 0
M  V30 1255 C 119.299 -0.662575 3.55376 0
M  V30 1256 O 119.02 0.479515 4.35468 0
M  V30 1257 C 120.521 -1.31989 4.23195 0
M  V30 1258 H 117.741 -0.0478198 0.669294 0
M  V30 1259 H 120.285 0.499346 1.9831 0
M  V30 1260 H 118.44 -1.36227 3.62658 0
M  V30 1261 H 118.854 0.15037 5.24284 0
M  V30 1262 H 120.328 -1.55902 5.29527 0
M  V30 1263 H 120.805 -2.27436 3.75725 0
M  V30 1264 H 121.411 -0.662154 4.20114 0
M  V30 1265 N 119.726 -1.57421 0.075193 0
M  V30 1266 C 120.974 -1.93236 -0.591974 0
M  V30 1267 C 121.295 -0.956241 -1.69944 0
M  V30 1268 O 120.565 -0.00494792 -1.95899 0
M  V30 1269 H 119.145 -0.713355 -0.22166 0
M  V30 1270 H 121.807 -1.9444 0.133848 0
M  V30 1271 H 120.903 -2.95131 -1.01509 0
M  V30 1272 N 121.204 0.198386 -1.56346 0
M  V30 1273 C 122.481 0.944982 -1.71258 0
M  V30 1274 C 122.861 2.0151 -0.629048 0
M  V30 1275 O 122.209 2.25639 0.360473 0
M  V30 1276 C 122.419 1.5344 -3.1346 0
M  V30 1277 C 123.767 2.01778 -3.73591 0
M  V30 1278 O 124.791 1.63288 -3.16568 0
M  V30 1279 O 123.65 2.72594 -4.73661 0
M  V30 1280 H 120.744 0.442939 -0.69838 0
M  V30 1281 H 123.29 0.188342 -1.68652 0
M  V30 1282 H 122.062 0.762869 -3.83792 0
M  V30 1283 H 121.685 2.35596 -3.20282 0
M  V30 1284 N 122.682 1.50554 0.465978 0
M  V30 1285 C 124.093 1.54599 1.04671 0
M  V30 1286 C 124.444 0.352488 1.93008 0
M  V30 1287 O 123.569 -0.534044 2.09707 0
M  V30 1288 C 124.164 2.80166 1.90505 0
M  V30 1289 C 122.723 2.86876 2.43678 0
M  V30 1290 C 121.87 2.48947 1.22151 0
M  V30 1291 H 124.821 1.56744 0.248384 0
M  V30 1292 H 124.842 2.62311 2.75633 0
M  V30 1293 H 124.354 3.67013 1.26186 0
M  V30 1294 H 122.455 2.04393 3.11536 0
M  V30 1295 H 122.568 3.89885 2.78436 0
M  V30 1296 H 120.932 2.01498 1.5579 0
M  V30 1297 H 121.715 3.38107 0.594866 0
M  V30 1298 N 124.16 -0.719506 1.40217 0
M  V30 1299 C 125.123 -1.8153 1.39927 0
M  V30 1300 C 126.123 -1.58095 0.293723 0
M  V30 1301 O 127.313 -1.65209 0.552429 0
M  V30 1302 C 124.445 -3.19561 1.18716 0
M  V30 1303 H 125.638 -1.83186 2.37451 0
M  V30 1304 H 123.191 -0.924746 1.26008 0
M  V30 1305 H 123.926 -3.23557 0.219366 0
M  V30 1306 H 123.711 -3.3797 1.98793 0
M  V30 1307 H 125.201 -3.99598 1.21291 0
M  V30 1308 N 125.638 -1.25649 -0.95132 0
M  V30 1309 C 126.571 -1.00644 -2.04807 0
M  V30 1310 C 127.549 0.0654271 -1.62468 0
M  V30 1311 O 128.733 -0.074911 -1.88351 0
M  V30 1312 C 125.86 -0.522052 -3.34653 0
M  V30 1313 C 124.906 -1.58495 -3.95957 0
M  V30 1314 S 125.739 -3.17108 -4.31512 0
M  V30 1315 C 126.895 -2.70412 -5.64471 0
M  V30 1316 H 127.128 -1.93508 -2.25703 0
M  V30 1317 H 124.661 -1.09216 -1.09139 0
M  V30 1318 H 126.619 -0.24923 -4.09743 0
M  V30 1319 H 125.28 0.386146 -3.11717 0
M  V30 1320 H 124.473 -1.1968 -4.89584 0
M  V30 1321 H 124.075 -1.80862 -3.2736 0
M  V30 1322 H 126.367 -2.14245 -6.42733 0
M  V30 1323 H 127.31 -3.62693 -6.08161 0
M  V30 1324 H 127.718 -2.10302 -5.23864 0
M  V30 1325 N 127.117 1.15442 -1.07289 0
M  V30 1326 C 128.347 1.89821 -0.815576 0
M  V30 1327 C 128.755 1.7823 0.634867 0
M  V30 1328 O 128.098 1.13152 1.44715 0
M  V30 1329 C 128.16 3.40817 -1.14385 0
M  V30 1330 C 127.824 3.76193 -2.59476 0
M  V30 1331 C 128.821 3.77269 -3.57721 0
M  V30 1332 C 126.506 4.0652 -2.95037 0
M  V30 1333 C 128.5 4.08176 -4.89562 0
M  V30 1334 C 126.187 4.37092 -4.27076 0
M  V30 1335 C 127.185 4.37902 -5.24148 0
M  V30 1336 O 126.873 4.67741 -6.53815 0
M  V30 1337 H 126.605 0.608465 -0.294528 0
M  V30 1338 H 129.159 1.472 -1.43252 0
M  V30 1339 H 127.389 3.83835 -0.469865 0
M  V30 1340 H 129.078 3.96485 -0.869179 0
M  V30 1341 H 129.844 3.5394 -3.3159 0
M  V30 1342 H 125.723 4.05049 -2.20128 0
M  V30 1343 H 129.267 4.08723 -5.65324 0
M  V30 1344 H 125.164 4.59889 -4.5296 0
M  V30 1345 H 125.932 4.85509 -6.58957 0
M  V30 1346 N 128.595 0.856903 1.32268 0
M  V30 1347 C 129.843 0.460474 1.96784 0
M  V30 1348 C 130.164 -0.987701 1.68135 0
M  V30 1349 O 129.434 -1.69058 0.989765 0
M  V30 1350 H 128.014 0.167289 0.728027 0
M  V30 1351 H 130.676 1.09383 1.61312 0
M  V30 1352 H 129.772 0.60739 3.06133 0
M  V30 1353 N 130.073 -1.45103 0.615059 0
M  V30 1354 C 131.036 -2.29025 -0.0895485 0
M  V30 1355 C 132.036 -1.40174 -0.787906 0
M  V30 1356 O 133.226 -1.62217 -0.634933 0
M  V30 1357 C 130.358 -3.21376 -1.13711 0
M  V30 1358 H 131.551 -2.92807 0.648382 0
M  V30 1359 H 129.104 -1.51749 0.374444 0
M  V30 1360 H 129.839 -2.6241 -1.90556 0
M  V30 1361 H 129.624 -3.86834 -0.640475 0
M  V30 1362 H 131.114 -3.84459 -1.63036 0
M  V30 1363 N 131.551 -0.354651 -1.53558 0
M  V30 1364 C 132.8 0.239504 -2.00273 0
M  V30 1365 C 133.113 1.50759 -1.24623 0
M  V30 1366 O 134.319 2.17968 -1.61871 0
M  V30 1367 C 132.775 0.477341 -3.5672 0
M  V30 1368 C 132.383 -0.775488 -4.41237 0
M  V30 1369 C 134.127 1.02975 -4.11821 0
M  V30 1370 C 132.034 -0.507838 -5.89216 0
M  V30 1371 H 130.964 0.0932743 -0.748208 0
M  V30 1372 H 133.615 -0.471701 -1.77334 0
M  V30 1373 H 131.997 1.24953 -3.7577 0
M  V30 1374 H 133.171 -1.54963 -4.33962 0
M  V30 1375 H 131.486 -1.25033 -3.97185 0
M  V30 1376 H 134.083 1.24513 -5.2 0
M  V30 1377 H 134.426 1.98862 -3.65731 0
M  V30 1378 H 134.959 0.317994 -3.96527 0
M  V30 1379 H 131.698 -1.43674 -6.39561 0
M  V30 1380 H 131.218 0.228011 -5.99366 0
M  V30 1381 H 132.897 -0.129238 -6.46871 0
M  V30 1382 N 133.029 1.57378 -0.0835403 0
M  V30 1383 C 133.962 2.09016 0.915833 0
M  V30 1384 C 134.94 0.997993 1.2837 0
M  V30 1385 O 136.124 1.27219 1.39096 0
M  V30 1386 C 133.251 2.55757 2.22049 0
M  V30 1387 C 132.297 3.76522 2.00333 0
M  V30 1388 S 133.13 5.20661 1.25191 0
M  V30 1389 C 134.286 5.70743 2.56912 0
M  V30 1390 H 134.519 2.93457 0.476492 0
M  V30 1391 H 132.052 1.53856 0.129493 0
M  V30 1392 H 134.01 2.83346 2.97027 0
M  V30 1393 H 132.671 1.71564 2.63106 0
M  V30 1394 H 131.864 4.07256 2.96916 0
M  V30 1395 H 131.466 3.49367 1.33488 0
M  V30 1396 H 133.758 5.78304 3.52946 0
M  V30 1397 H 134.701 6.6944 2.30772 0
M  V30 1398 H 135.109 4.98616 2.64655 0
M  V30 1399 N 134.507 -0.190092 1.56449 0
M  V30 1400 C 135.417 -1.25591 1.98152 0
M  V30 1401 C 136.433 -1.49519 0.889944 0
M  V30 1402 O 137.609 -1.62036 1.19609 0
M  V30 1403 C 134.674 -2.57916 2.3169 0
M  V30 1404 C 133.735 -2.42015 3.5458 0
M  V30 1405 C 132.968 -3.6803 3.8651 0
M  V30 1406 O 133.191 -4.72413 3.1966 0
M  V30 1407 O 132.125 -3.6326 4.79923 0
M  V30 1408 H 135.951 -0.931988 2.89046 0
M  V30 1409 H 133.536 -0.395488 1.4407 0
M  V30 1410 H 135.418 -3.36008 2.54316 0
M  V30 1411 H 134.093 -2.89925 1.43963 0
M  V30 1412 H 133 -1.62017 3.37196 0
M  V30 1413 H 134.333 -2.14937 4.4279 0
M  V30 1414 N 135.985 -1.50799 -0.457987 0
M  V30 1415 C 136.917 -1.66786 -1.57211 0
M  V30 1416 C 137.93 -0.548962 -1.53265 0
M  V30 1417 O 139.119 -0.8226 -1.58416 0
M  V30 1418 C 136.219 -1.64834 -2.96113 0
M  V30 1419 C 135.392 -2.92971 -3.24787 0
M  V30 1420 C 134.451 -2.83485 -4.43309 0
M  V30 1421 O 133.477 -3.5744 -4.42973 0
M  V30 1422 N 134.679 -1.97929 -5.45714 0
M  V30 1423 H 137.444 -2.62889 -1.43909 0
M  V30 1424 H 135.005 -1.48427 -0.646617 0
M  V30 1425 H 136.997 -1.56084 -3.7339 0
M  V30 1426 H 135.567 -0.764118 -3.03117 0
M  V30 1427 H 134.787 -3.15749 -2.36 0
M  V30 1428 H 136.075 -3.77834 -3.40762 0
M  V30 1429 H 135.473 -1.37182 -5.48815 0
M  V30 1430 H 134.03 -1.95073 -6.21924 0
M  V30 1431 N 137.463 0.71206 -1.40597 0
M  V30 1432 C 138.396 1.83582 -1.35546 0
M  V30 1433 C 139.374 1.61032 -0.225284 0
M  V30 1434 O 140.558 1.83998 -0.409519 0
M  V30 1435 C 137.685 3.19983 -1.11034 0
M  V30 1436 C 136.731 3.61355 -2.2655 0
M  V30 1437 S 137.564 3.68062 -3.88961 0
M  V30 1438 C 138.72 5.07216 -3.66719 0
M  V30 1439 H 138.953 1.87586 -2.30648 0
M  V30 1440 H 136.486 0.879182 -1.26924 0
M  V30 1441 H 138.444 3.98734 -0.975761 0
M  V30 1442 H 137.105 3.13608 -0.175798 0
M  V30 1443 H 136.298 4.60403 -2.0505 0
M  V30 1444 H 135.9 2.8987 -2.36329 0
M  V30 1445 H 138.192 5.94238 -3.25404 0
M  V30 1446 H 139.135 5.33753 -4.6531 0
M  V30 1447 H 139.543 4.77976 -3.00332 0
M  V30 1448 N 138.941 1.26152 0.944643 0
M  V30 1449 C 140.187 1.11657 1.69294 0
M  V30 1450 C 140.52 -0.339926 1.91202 0
M  V30 1451 O 139.795 -1.24994 1.49019 0
M  V30 1452 C 140.078 1.88236 3.06984 0
M  V30 1453 C 139.931 3.41772 2.92424 0
M  V30 1454 C 141.25 1.67343 4.07043 0
M  V30 1455 H 138.369 0.407004 0.614424 0
M  V30 1456 H 141.011 1.55106 1.09737 0
M  V30 1457 H 139.161 1.51308 3.57824 0
M  V30 1458 H 140.833 3.88433 2.48832 0
M  V30 1459 H 139.076 3.68974 2.28124 0
M  V30 1460 H 139.747 3.90579 3.90067 0
M  V30 1461 H 142.223 1.99509 3.65151 0
M  V30 1462 H 141.099 2.23346 5.01406 0
M  V30 1463 H 141.36 0.617158 4.37771 0
M  V30 1464 N 140.419 -1.14872 1.07899 0
M  V30 1465 C 141.349 -2.2193 0.725887 0
M  V30 1466 C 142.33 -1.67622 -0.28927 0
M  V30 1467 O 143.515 -1.93533 -0.160787 0
M  V30 1468 C 140.645 -3.47061 0.128856 0
M  V30 1469 C 139.599 -4.14363 1.07178 0
M  V30 1470 C 138.925 -5.33636 0.337229 0
M  V30 1471 C 140.225 -4.63492 2.40775 0
M  V30 1472 H 141.919 -2.51724 1.62097 0
M  V30 1473 H 139.465 -1.20991 0.780838 0
M  V30 1474 H 141.418 -4.21199 -0.130147 0
M  V30 1475 H 140.142 -3.16617 -0.80134 0
M  V30 1476 H 138.801 -3.42173 1.3158 0
M  V30 1477 H 138.449 -4.99449 -0.596606 0
M  V30 1478 H 138.149 -5.79609 0.965788 0
M  V30 1479 H 139.673 -6.10539 0.0861567 0
M  V30 1480 H 141.087 -5.2913 2.20669 0
M  V30 1481 H 139.484 -5.20148 2.99276 0
M  V30 1482 H 140.554 -3.78834 3.02676 0
M  V30 1483 N 141.898 -0.863906 -1.31812 0
M  V30 1484 C 142.828 -0.330843 -2.31144 0
M  V30 1485 C 143.809 0.575005 -1.60087 0
M  V30 1486 O 144.994 0.493304 -1.8783 0
M  V30 1487 C 142.124 0.47374 -3.44054 0
M  V30 1488 C 141.078 -0.338481 -4.26659 0
M  V30 1489 C 140.404 0.591412 -5.31419 0
M  V30 1490 C 141.704 -1.56926 -4.98168 0
M  V30 1491 H 143.398 -1.16086 -2.75979 0
M  V30 1492 H 140.944 -0.559657 -1.32679 0
M  V30 1493 H 142.897 0.857143 -4.12591 0
M  V30 1494 H 141.621 1.33721 -2.9797 0
M  V30 1495 H 140.28 -0.703754 -3.59782 0
M  V30 1496 H 139.928 1.45199 -4.81587 0
M  V30 1497 H 139.628 0.0519022 -5.87577 0
M  V30 1498 H 141.152 0.97179 -6.02817 0
M  V30 1499 H 142.566 -1.25764 -5.59336 0
M  V30 1500 H 140.963 -2.04739 -5.64094 0
M  V30 1501 H 142.033 -2.32544 -4.25501 0
M  V30 1502 N 143.376 1.44774 -0.622745 0
M  V30 1503 C 144.323 2.30635 0.0871679 0
M  V30 1504 C 145.293 1.42994 0.845097 0
M  V30 1505 O 146.478 1.71907 0.827812 0
M  V30 1506 C 143.618 3.28144 1.06844 0
M  V30 1507 C 142.731 4.30888 0.309809 0
M  V30 1508 C 141.866 5.15494 1.28215 0
M  V30 1509 C 140.905 6.09953 0.512198 0
M  V30 1510 N 140.042 6.87287 1.43458 0
M  V30 1511 H 144.882 2.90803 -0.650974 0
M  V30 1512 H 142.419 1.43286 -0.33281 0
M  V30 1513 H 144.377 3.83157 1.65066 0
M  V30 1514 H 143.007 2.69695 1.77382 0
M  V30 1515 H 142.059 3.78414 -0.388181 0
M  V30 1516 H 143.371 4.97955 -0.290254 0
M  V30 1517 H 142.525 5.74983 1.93596 0
M  V30 1518 H 141.264 4.48481 1.91614 0
M  V30 1519 H 140.269 5.49581 -0.155151 0
M  V30 1520 H 141.494 6.78999 -0.116958 0
M  V30 1521 H 139.44 6.2295 2.05594 0
M  V30 1522 H 139.357 7.50763 0.888335 0
M  V30 1523 H 140.625 7.51306 2.07749 0
M  V30 1524 N 144.854 0.36279 1.53368 0
M  V30 1525 C 146.27 0.0116182 1.59596 0
M  V30 1526 C 146.47 -1.47012 1.37803 0
M  V30 1527 O 145.526 -2.23136 1.18181 0
M  V30 1528 C 146.839 0.465052 2.97082 0
M  V30 1529 C 148.387 0.419033 3.10182 0
M  V30 1530 C 148.862 0.848235 4.50077 0
M  V30 1531 N 150.353 0.803183 4.56183 0
M  V30 1532 C 151.088 1.107 5.62613 0
M  V30 1533 N 150.584 1.47996 6.76808 0
M  V30 1534 N 152.377 1.02998 5.52583 0
M  V30 1535 H 144.528 1.32775 1.65785 0
M  V30 1536 H 146.791 0.542518 0.777417 0
M  V30 1537 H 146.497 1.49892 3.18159 0
M  V30 1538 H 146.371 -0.149786 3.76902 0
M  V30 1539 H 148.758 -0.605696 2.88817 0
M  V30 1540 H 148.839 1.06933 2.32377 0
M  V30 1541 H 148.483 1.87107 4.7218 0
M  V30 1542 H 148.413 0.175218 5.26308 0
M  V30 1543 H 150.904 0.52838 3.74188 0
M  V30 1544 H 151.217 1.69613 7.53957 0
M  V30 1545 H 149.562 1.51859 6.78206 0
M  V30 1546 H 152.753 0.737817 4.62249 0
M  V30 1547 H 152.926 1.2701 6.35431 0
M  V30 1548 N 146.332 -1.57332 0.0918853 0
M  V30 1549 C 147.242 -2.17368 -0.882505 0
M  V30 1550 C 148.258 -1.14226 -1.31257 0
M  V30 1551 O 149.434 -1.46582 -1.38115 0
M  V30 1552 C 146.499 -2.73962 -2.12476 0
M  V30 1553 C 145.56 -3.92048 -1.7492 0
M  V30 1554 C 144.793 -4.45933 -2.93223 0
M  V30 1555 O 145.016 -3.98764 -4.07852 0
M  V30 1556 O 143.95 -5.36999 -2.71875 0
M  V30 1557 H 147.776 -3.01031 -0.40172 0
M  V30 1558 H 145.361 -1.48813 -0.132291 0
M  V30 1559 H 147.243 -3.10147 -2.85283 0
M  V30 1560 H 145.918 -1.93347 -2.59613 0
M  V30 1561 H 144.825 -3.6068 -0.993025 0
M  V30 1562 H 146.158 -4.74017 -1.32548 0
M  V30 1563 N 147.81 0.181792 -1.56548 0
M  V30 1564 C 149.058 0.89832 -1.81038 0
M  V30 1565 C 149.379 1.83232 -0.667164 0
M  V30 1566 O 148.649 1.93372 0.313673 0
M  V30 1567 H 147.229 0.33471 -0.667816 0
M  V30 1568 H 149.891 0.184116 -1.94028 0
M  V30 1569 H 148.987 1.4815 -2.74696 0
M  V30 1570 N 149.288 1.51039 0.449983 0
M  V30 1571 C 150.534 1.63322 1.20223 0
M  V30 1572 C 150.867 0.34241 1.91158 0
M  V30 1573 O 150.142 -0.657344 1.83055 0
M  V30 1574 C 150.425 2.82801 2.22925 0
M  V30 1575 C 150.278 4.21823 1.56157 0
M  V30 1576 C 151.597 2.97807 3.24035 0
M  V30 1577 H 148.716 0.594407 0.435718 0
M  V30 1578 H 151.358 1.83489 0.493136 0
M  V30 1579 H 149.508 2.65738 2.834 0
M  V30 1580 H 151.18 4.50526 0.991162 0
M  V30 1581 H 149.423 4.25105 0.864172 0
M  V30 1582 H 150.094 5.01391 2.30891 0
M  V30 1583 H 152.57 3.13497 2.73603 0
M  V30 1584 H 151.446 3.82992 3.93202 0
M  V30 1585 H 151.707 2.09328 3.89402 0
M  V30 1586 N 150.766 -0.704594 1.40972 0
M  V30 1587 C 152.043 -1.45847 1.30338 0
M  V30 1588 C 152.423 -2.10973 -0.0732344 0
M  V30 1589 O 151.771 -2.00997 -1.08685 0
M  V30 1590 C 151.981 -2.48525 2.45023 0
M  V30 1591 C 153.329 -3.1404 2.8577 0
M  V30 1592 O 154.353 -2.58848 2.44696 0
M  V30 1593 O 153.212 -4.13981 3.56766 0
M  V30 1594 H 150.306 -0.649092 0.512454 0
M  V30 1595 H 152.852 -0.735836 1.52917 0
M  V30 1596 H 151.624 -1.98994 3.36923 0
M  V30 1597 H 151.247 -3.2831 2.24272 0
M  V30 1598 N 152.244 -1.26651 -0.937939 0
M  V30 1599 C 153.493 -1.11775 -1.67897 0
M  V30 1600 C 153.806 0.33794 -1.92659 0
M  V30 1601 O 155.012 0.607434 -2.64618 0
M  V30 1602 C 153.468 -1.9523 -3.02346 0
M  V30 1603 C 153.076 -3.45393 -2.8532 0
M  V30 1604 C 154.82 -1.88972 -3.80118 0
M  V30 1605 C 152.727 -4.21083 -4.15263 0
M  V30 1606 H 151.657 -0.414696 -0.629717 0
M  V30 1607 H 154.308 -1.50988 -1.04283 0
M  V30 1608 H 152.69 -1.48853 -3.66959 0
M  V30 1609 H 153.864 -3.99561 -2.29537 0
M  V30 1610 H 152.179 -3.52921 -2.20988 0
M  V30 1611 H 154.776 -2.42805 -4.76392 0
M  V30 1612 H 155.119 -0.86113 -4.07296 0
M  V30 1613 H 155.652 -2.33189 -3.22285 0
M  V30 1614 H 152.391 -5.24425 -3.93267 0
M  V30 1615 H 151.911 -3.71695 -4.70747 0
M  V30 1616 H 153.59 -4.29706 -4.83696 0
M  V30 1617 N 153.722 1.14298 -1.08507 0
M  V30 1618 C 154.632 2.23027 -0.727753 0
M  V30 1619 C 155.648 1.71952 0.26619 0
M  V30 1620 O 156.824 2.011 0.109882 0
M  V30 1621 C 153.889 3.46403 -0.143541 0
M  V30 1622 C 152.95 4.12413 -1.19223 0
M  V30 1623 C 152.183 5.29899 -0.635798 0
M  V30 1624 O 152.406 5.67796 0.544393 0
M  V30 1625 O 151.34 5.85717 -1.38634 0
M  V30 1626 H 155.166 2.55945 -1.63481 0
M  V30 1627 H 152.751 1.22248 -0.858817 0
M  V30 1628 H 154.633 4.21018 0.179404 0
M  V30 1629 H 153.308 3.15206 0.736659 0
M  V30 1630 H 152.215 3.39667 -1.56772 0
M  V30 1631 H 153.548 4.47718 -2.04474 0
M  V30 1632 N 155.201 0.870884 1.31352 0
M  V30 1633 C 156.45 0.478408 1.95944 0
M  V30 1634 C 156.763 -0.974493 1.69597 0
M  V30 1635 O 157.969 -1.47316 2.28058 0
M  V30 1636 C 156.425 0.804609 3.50791 0
M  V30 1637 C 156.033 2.27433 3.85977 0
M  V30 1638 C 157.777 0.480648 4.2177 0
M  V30 1639 C 155.684 2.5429 5.33939 0
M  V30 1640 H 154.614 0.175175 0.733369 0
M  V30 1641 H 157.265 1.06391 1.4951 0
M  V30 1642 H 155.647 0.148347 3.95722 0
M  V30 1643 H 156.821 2.97373 3.52002 0
M  V30 1644 H 155.136 2.56442 3.28065 0
M  V30 1645 H 157.733 0.658519 5.30629 0
M  V30 1646 H 158.076 -0.578979 4.12254 0
M  V30 1647 H 158.609 1.09349 3.82476 0
M  V30 1648 H 155.348 3.58939 5.48491 0
M  V30 1649 H 154.868 1.88945 5.69263 0
M  V30 1650 H 156.547 2.39066 6.01212 0
M  V30 1651 N 156.679 -1.44442 0.630414 0
M  V30 1652 C 157.925 -2.02351 0.134816 0
M  V30 1653 C 158.258 -1.4947 -1.23986 0
M  V30 1654 O 157.533 -0.678475 -1.82283 0
M  V30 1655 C 157.816 -3.59898 0.120707 0
M  V30 1656 C 157.669 -4.23063 1.52767 0
M  V30 1657 C 158.988 -4.36585 -0.555127 0
M  V30 1658 H 156.107 -0.73527 0.0504646 0
M  V30 1659 H 158.749 -1.72022 0.806751 0
M  V30 1660 H 156.899 -3.85868 -0.451477 0
M  V30 1661 H 158.571 -4.08202 2.14869 0
M  V30 1662 H 156.814 -3.80586 2.08175 0
M  V30 1663 H 157.485 -5.32071 1.46984 0
M  V30 1664 H 159.961 -4.16044 -0.0685429 0
M  V30 1665 H 158.837 -5.46294 -0.534185 0
M  V30 1666 H 159.098 -4.11138 -1.62535 0
M  V30 1667 N 158.157 -0.370918 -1.53173 0
M  V30 1668 C 159.568 0.107139 -1.86392 0
M  V30 1669 C 159.919 1.47714 -1.29132 0
M  V30 1670 O 159.044 2.07464 -0.615439 0
M  V30 1671 C 159.639 0.201187 -3.38202 0
M  V30 1672 C 158.198 0.623507 -3.712 0
M  V30 1673 C 157.345 -0.225978 -2.76378 0
M  V30 1674 H 160.296 -0.58951 -1.47345 0
M  V30 1675 H 160.317 1.02377 -3.66468 0
M  V30 1676 H 159.829 -0.796058 -3.79848 0
M  V30 1677 H 157.93 1.62879 -3.35114 0
M  V30 1678 H 158.043 0.394414 -4.77474 0
M  V30 1679 H 156.407 0.305962 -2.52856 0
M  V30 1680 H 157.19 -1.22086 -3.20858 0
M  V30 1681 N 159.635 1.57281 -0.100228 0
M  V30 1682 C 160.883 1.94153 0.561157 0
M  V30 1683 C 161.204 0.983157 1.68401 0
M  V30 1684 O 160.474 0.0361132 1.95867 0
M  V30 1685 H 159.054 0.716791 0.210283 0
M  V30 1686 H 161.716 1.94202 -0.164765 0
M  V30 1687 H 160.812 2.96709 0.968008 0
M  V30 1688 N 161.113 -0.173488 1.56642 0
M  V30 1689 C 162.359 -0.891784 1.8214 0
M  V30 1690 C 162.692 -1.8199 0.677736 0
M  V30 1691 O 161.967 -1.91842 -0.320446 0
M  V30 1692 C 162.25 -1.68933 3.18015 0
M  V30 1693 C 162.103 -0.784487 4.42906 0
M  V30 1694 C 163.422 -2.65748 3.50808 0
M  V30 1695 H 160.541 -0.322761 0.662567 0
M  V30 1696 H 163.183 -0.158095 1.89341 0
M  V30 1697 H 161.333 -2.31482 3.12007 0
M  V30 1698 H 163.005 -0.172046 4.60979 0
M  V30 1699 H 161.248 -0.0924117 4.33702 0
M  V30 1700 H 161.919 -1.37799 5.34524 0
M  V30 1701 H 164.395 -2.13327 3.57255 0
M  V30 1702 H 163.271 -3.18619 4.4696 0
M  V30 1703 H 163.532 -3.45842 2.75401 0
M  V30 1704 N 162.591 -1.51276 -0.441967 0
M  V30 1705 C 163.819 -1.67516 -1.21434 0
M  V30 1706 C 164.234 -0.37055 -1.85128 0
M  V30 1707 O 163.591 0.650498 -1.70513 0
M  V30 1708 C 163.642 -2.78748 -2.30177 0
M  V30 1709 O 163.363 -4.04154 -1.69089 0
M  V30 1710 C 164.864 -3.06217 -3.20541 0
M  V30 1711 H 162.084 -0.562276 -0.366178 0
M  V30 1712 H 164.628 -1.97666 -0.524244 0
M  V30 1713 H 162.783 -2.5121 -2.94911 0
M  V30 1714 H 163.197 -4.65894 -2.40922 0
M  V30 1715 H 164.671 -3.8764 -3.92987 0
M  V30 1716 H 165.148 -2.18439 -3.81026 0
M  V30 1717 H 165.754 -3.35397 -2.61513 0
M  V30 1718 N 164.069 0.697108 -1.41344 0
M  V30 1719 C 165.294 1.49096 -1.44171 0
M  V30 1720 C 165.719 1.88038 -0.0481568 0
M  V30 1721 O 165.077 1.54525 0.948243 0
M  V30 1722 C 165.125 2.73088 -2.3549 0
M  V30 1723 O 164.229 3.70514 -1.81088 0
M  V30 1724 H 163.57 0.448801 -0.489361 0
M  V30 1725 H 166.1 0.856992 -1.85787 0
M  V30 1726 H 166.11 3.21413 -2.51312 0
M  V30 1727 H 164.785 2.44081 -3.36745 0
M  V30 1728 H 163.362 3.29441 -1.74708 0
M  V30 1729 N 165.547 1.27147 0.931209 0
M  V30 1730 C 166.793 1.13446 1.68101 0
M  V30 1731 C 167.126 -0.319628 1.91552 0
M  V30 1732 O 166.401 -1.23407 1.50336 0
M  V30 1733 C 166.684 1.91482 3.0497 0
M  V30 1734 C 166.537 3.44855 2.88782 0
M  V30 1735 C 167.856 1.71651 4.05246 0
M  V30 1736 H 164.975 0.413498 0.610072 0
M  V30 1737 H 167.617 1.56261 1.08086 0
M  V30 1738 H 165.767 1.55095 3.56199 0
M  V30 1739 H 167.439 3.9105 2.44698 0
M  V30 1740 H 165.682 3.71373 2.24198 0
M  V30 1741 H 166.353 3.94694 3.85902 0
M  V30 1742 H 168.829 2.0337 3.63015 0
M  V30 1743 H 167.705 2.28651 4.99009 0
M  V30 1744 H 167.966 0.663555 4.37092 0
M  V30 1745 N 167.025 -1.13721 1.09112 0
M  V30 1746 C 168.272 -1.84924 0.825192 0
M  V30 1747 C 168.6 -1.83347 -0.649151 0
M  V30 1748 O 167.855 -1.26449 -1.49362 0
M  V30 1749 C 168.154 -3.32861 1.30146 0
M  V30 1750 C 167.82 -3.54621 2.78486 0
M  V30 1751 C 166.482 -3.60268 3.18999 0
M  V30 1752 C 168.834 -3.62855 3.74146 0
M  V30 1753 C 166.162 -3.71679 4.53951 0
M  V30 1754 C 168.514 -3.75793 5.08883 0
M  V30 1755 C 167.178 -3.79692 5.4899 0
M  V30 1756 H 166.448 -0.676684 0.301959 0
M  V30 1757 H 169.095 -1.3428 1.36533 0
M  V30 1758 H 167.4 -3.85835 0.681064 0
M  V30 1759 H 169.097 -3.86395 1.07236 0
M  V30 1760 H 165.687 -3.50879 2.46134 0
M  V30 1761 H 169.871 -3.57775 3.43963 0
M  V30 1762 H 165.127 -3.72963 4.84467 0
M  V30 1763 H 169.301 -3.81107 5.82864 0
M  V30 1764 H 166.928 -3.88287 6.53558 0
M  V30 1765 N 168.503 -0.877838 -1.30888 0
M  V30 1766 C 169.466 -0.344265 -2.266 0
M  V30 1767 C 170.466 0.50922 -1.52524 0
M  V30 1768 O 171.656 0.317398 -1.71284 0
M  V30 1769 C 168.788 0.510198 -3.37061 0
M  V30 1770 H 169.981 -1.1893 -2.7531 0
M  V30 1771 H 167.534 -0.654088 -1.41956 0
M  V30 1772 H 168.269 1.37612 -2.93655 0
M  V30 1773 H 168.054 -0.101047 -3.9197 0
M  V30 1774 H 169.544 0.875537 -4.08319 0
M  V30 1775 N 169.982 1.44106 -0.638065 0
M  V30 1776 C 170.945 2.29138 0.0531013 0
M  V30 1777 C 171.945 1.41409 0.765506 0
M  V30 1778 O 173.135 1.63206 0.609046 0
M  V30 1779 C 170.267 3.23144 1.08584 0
M  V30 1780 H 171.46 2.91739 -0.694883 0
M  V30 1781 H 169.013 1.51134 -0.398538 0
M  V30 1782 H 169.748 2.65408 1.86357 0
M  V30 1783 H 169.533 3.87804 0.578852 0
M  V30 1784 H 171.023 3.87004 1.56899 0
M  V30 1785 N 171.46 0.379036 1.52974 0
M  V30 1786 C 172.423 -0.448865 2.24762 0
M  V30 1787 C 173.423 -0.998689 1.26027 0
M  V30 1788 O 174.613 -0.882313 1.50203 0
M  V30 1789 C 171.745 -1.62872 2.99476 0
M  V30 1790 H 172.938 0.179491 2.99362 0
M  V30 1791 H 170.491 0.13096 1.5575 0
M  V30 1792 H 171.226 -2.29479 2.29151 0
M  V30 1793 H 171.011 -1.24128 3.71934 0
M  V30 1794 H 172.501 -2.2151 3.5401 0
M  V30 1795 N 172.938 -1.57226 0.108567 0
M  V30 1796 C 173.901 -2.13602 -0.831082 0
M  V30 1797 C 174.901 -1.06841 -1.20173 0
M  V30 1798 O 176.091 -1.32666 -1.12895 0
M  V30 1799 C 173.223 -2.66769 -2.12243 0
M  V30 1800 H 174.416 -2.97951 -0.341317 0
M  V30 1801 H 171.969 -1.55667 -0.14057 0
M  V30 1802 H 172.704 -1.85977 -2.65675 0
M  V30 1803 H 172.489 -3.44839 -1.86625 0
M  V30 1804 H 173.979 -3.10332 -2.79435 0
M  V30 1805 N 174.416 0.165178 -1.56732 0
M  V30 1806 C 175.379 1.18822 -1.95995 0
M  V30 1807 C 176.379 1.3685 -0.84431 0
M  V30 1808 O 177.569 1.34152 -1.11126 0
M  V30 1809 C 174.701 2.5521 -2.26011 0
M  V30 1810 H 175.894 0.851825 -2.87548 0
M  V30 1811 H 173.447 0.407857 -1.50885 0
M  V30 1812 H 174.182 2.93852 -1.37191 0
M  V30 1813 H 173.967 2.43489 -3.07336 0
M  V30 1814 H 175.457 3.28927 -2.57288 0
M  V30 1815 N 175.894 1.51508 0.433938 0
M  V30 1816 C 176.857 1.72473 1.50949 0
M  V30 1817 C 177.857 0.594725 1.49398 0
M  V30 1818 O 179.047 0.862315 1.5136 0
M  V30 1819 C 176.179 1.78431 2.90474 0
M  V30 1820 H 177.372 2.68467 1.33662 0
M  V30 1821 H 174.925 1.41549 0.662836 0
M  V30 1822 H 175.66 0.842645 3.13161 0
M  V30 1823 H 175.445 2.60558 2.93005 0
M  V30 1824 H 176.935 1.96479 3.68491 0
M  V30 1825 N 177.372 -0.689602 1.41712 0
M  V30 1826 C 178.282 -1.83314 1.46401 0
M  V30 1827 C 179.298 -1.7036 0.35405 0
M  V30 1828 O 180.474 -1.92171 0.602692 0
M  V30 1829 C 177.539 -3.19344 1.34982 0
M  V30 1830 C 176.6 -3.44363 2.56344 0
M  V30 1831 C 175.833 -4.73904 2.45461 0
M  V30 1832 O 176.056 -5.508 1.48241 0
M  V30 1833 O 174.99 -4.99839 3.35328 0
M  V30 1834 H 178.816 -1.82314 2.42889 0
M  V30 1835 H 176.401 -0.843438 1.23315 0
M  V30 1836 H 178.283 -4.00547 1.3092 0
M  V30 1837 H 176.958 -3.21014 0.41612 0
M  V30 1838 H 175.865 -2.63067 2.65982 0
M  V30 1839 H 177.198 -3.47512 3.48563 0
M  V30 1840 N 178.85 -1.27639 -0.924453 0
M  V30 1841 C 179.813 -1.10681 -2.00705 0
M  V30 1842 C 180.813 -0.0497823 -1.60723 0
M  V30 1843 O 182.003 -0.294654 -1.7169 0
M  V30 1844 C 179.135 -0.687164 -3.33902 0
M  V30 1845 H 180.328 -2.06817 -2.17179 0
M  V30 1846 H 177.881 -1.10473 -1.10569 0
M  V30 1847 H 178.616 0.275439 -3.23128 0
M  V30 1848 H 178.401 -1.45061 -3.6428 0
M  V30 1849 H 179.891 -0.590853 -4.13399 0
M  V30 1850 N 180.328 1.1314 -1.09713 0
M  V30 1851 C 181.238 2.22242 -0.751367 0
M  V30 1852 C 182.254 1.72224 0.247938 0
M  V30 1853 O 183.43 2.01205 0.0885463 0
M  V30 1854 C 180.495 3.46231 -0.180274 0
M  V30 1855 C 179.556 4.11125 -1.2359 0
M  V30 1856 C 178.789 5.29195 -0.691966 0
M  V30 1857 O 179.012 5.68342 0.48414 0
M  V30 1858 O 177.946 5.84214 -1.44838 0
M  V30 1859 H 181.772 2.54197 -1.66186 0
M  V30 1860 H 179.357 1.21331 -0.871735 0
M  V30 1861 H 181.239 4.21185 0.134739 0
M  V30 1862 H 179.914 3.1597 0.703185 0
M  V30 1863 H 178.821 3.37985 -1.60366 0
M  V30 1864 H 180.154 4.45524 -2.09211 0
M  V30 1865 N 181.806 0.884767 1.30421 0
M  V30 1866 C 182.736 0.367574 2.30589 0
M  V30 1867 C 183.717 -0.549464 1.60981 0
M  V30 1868 O 184.902 -0.46336 1.88591 0
M  V30 1869 C 182.032 -0.418944 3.44764 0
M  V30 1870 C 180.986 0.406316 4.26067 0
M  V30 1871 C 180.312 -0.506793 5.32293 0
M  V30 1872 C 181.612 1.64832 4.95608 0
M  V30 1873 H 183.306 1.20462 2.74097 0
M  V30 1874 H 180.852 0.580695 1.31772 0
M  V30 1875 H 182.805 -0.791395 4.13902 0
M  V30 1876 H 181.529 -1.28964 3.0006 0
M  V30 1877 H 180.188 0.760903 3.58617 0
M  V30 1878 H 179.836 -1.37519 4.83836 0
M  V30 1879 H 179.536 0.0415828 5.87585 0
M  V30 1880 H 181.06 -0.875764 6.04287 0
M  V30 1881 H 182.474 1.34646 5.57264 0
M  V30 1882 H 180.871 2.13688 5.60765 0
M  V30 1883 H 181.941 2.39284 4.21748 0
M  V30 1884 N 183.284 -1.43765 0.645699 0
M  V30 1885 C 184.512 -2.06253 0.163556 0
M  V30 1886 C 184.927 -1.48352 -1.16778 0
M  V30 1887 O 184.284 -0.611932 -1.71935 0
M  V30 1888 C 184.335 -3.61453 0.0583186 0
M  V30 1889 O 184.056 -4.172 1.33702 0
M  V30 1890 C 185.557 -4.41002 -0.450795 0
M  V30 1891 H 182.777 -0.665413 0.0864077 0
M  V30 1892 H 185.321 -1.84396 0.884222 0
M  V30 1893 H 183.476 -3.82522 -0.612865 0
M  V30 1894 H 183.89 -5.10791 1.19131 0
M  V30 1895 H 185.364 -5.49966 -0.473403 0
M  V30 1896 H 185.841 -4.13488 -1.48068 0
M  V30 1897 H 186.447 -4.24886 0.187637 0
M  V30 1898 N 184.763 -0.387143 -1.52771 0
M  V30 1899 C 186.012 0.19697 -2.00736 0
M  V30 1900 C 186.325 1.48082 -1.27793 0
M  V30 1901 O 187.531 2.14485 -1.66458 0
M  V30 1902 C 185.987 0.401568 -3.57653 0
M  V30 1903 C 185.595 -0.868907 -4.39493 0
M  V30 1904 C 187.339 0.942164 -4.13912 0
M  V30 1905 C 185.246 -0.632705 -5.88006 0
M  V30 1906 H 184.176 0.0773827 -0.750019 0
M  V30 1907 H 186.827 -0.50921 -1.76293 0
M  V30 1908 H 185.209 1.16954 -3.78335 0
M  V30 1909 H 186.383 -1.64133 -4.30577 0
M  V30 1910 H 184.698 -1.33429 -3.94443 0
M  V30 1911 H 187.295 1.13455 -5.22525 0
M  V30 1912 H 187.638 1.9106 -3.69867 0
M  V30 1913 H 188.171 0.233814 -3.97112 0
M  V30 1914 H 184.91 -1.57208 -6.36369 0
M  V30 1915 H 184.43 0.100825 -5.99715 0
M  V30 1916 H 186.109 -0.26642 -6.46451 0
M  V30 1917 N 186.241 1.57166 -0.116904 0
M  V30 1918 C 187.652 1.82169 0.408809 0
M  V30 1919 C 188.003 1.03393 1.66746 0
M  V30 1920 O 187.128 0.269886 2.1471 0
M  V30 1921 C 187.723 3.30429 0.748466 0
M  V30 1922 C 186.282 3.5612 1.21882 0
M  V30 1923 C 185.429 2.76374 0.226452 0
M  V30 1924 H 188.38 1.5497 -0.342063 0
M  V30 1925 H 188.401 3.44943 1.60607 0
M  V30 1926 H 187.913 3.87737 -0.167784 0
M  V30 1927 H 186.014 3.04168 2.15204 0
M  V30 1928 H 186.127 4.64705 1.16559 0
M  V30 1929 H 184.491 2.44515 0.713063 0
M  V30 1930 H 185.274 3.3644 -0.682859 0
M  V30 1931 N 187.719 -0.156864 1.56817 0
M  V30 1932 C 188.996 -0.899244 1.73704 0
M  V30 1933 C 189.376 -1.99771 0.682254 0
M  V30 1934 O 188.724 -2.26515 -0.300522 0
M  V30 1935 C 188.934 -1.45075 3.17418 0
M  V30 1936 C 190.282 -1.91802 3.7881 0
M  V30 1937 O 191.306 -1.54838 3.20786 0
M  V30 1938 O 190.165 -2.5994 4.80722 0
M  V30 1939 H 187.259 -0.424267 0.709878 0
M  V30 1940 H 189.805 -0.143561 1.69092 0
M  V30 1941 H 188.577 -0.660846 3.85679 0
M  V30 1942 H 188.2 -2.27021 3.26416 0
M  V30 1943 N 189.197 -1.51736 -0.425897 0
M  V30 1944 C 190.127 -1.76827 -1.52494 0
M  V30 1945 C 191.108 -0.618524 -1.58456 0
M  V30 1946 O 192.293 -0.862416 -1.74 0
M  V30 1947 C 189.423 -1.90374 -2.90474 0
M  V30 1948 C 188.377 -3.0588 -2.99369 0
M  V30 1949 C 187.703 -3.04625 -4.3944 0
M  V30 1950 C 189.003 -4.45644 -2.72394 0
M  V30 1951 H 190.697 -2.68855 -1.31748 0
M  V30 1952 H 188.243 -1.29372 -0.632362 0
M  V30 1953 H 190.196 -2.0651 -3.6733 0
M  V30 1954 H 188.92 -0.95004 -3.12477 0
M  V30 1955 H 187.579 -2.89467 -2.24954 0
M  V30 1956 H 187.227 -2.0701 -4.58428 0
M  V30 1957 H 186.927 -3.82195 -4.46319 0
M  V30 1958 H 188.451 -3.22869 -5.18255 0
M  V30 1959 H 189.865 -4.62348 -3.38979 0
M  V30 1960 H 188.262 -5.25006 -2.9067 0
M  V30 1961 H 189.332 -4.54893 -1.67929 0
M  V30 1962 N 190.675 0.682077 -1.42076 0
M  V30 1963 C 191.903 1.47057 -1.4554 0
M  V30 1964 C 192.318 1.8869 -0.0645779 0
M  V30 1965 O 191.675 1.57666 0.919115 0
M  V30 1966 C 191.726 2.72442 -2.37609 0
M  V30 1967 O 191.447 2.32559 -3.71279 0
M  V30 1968 C 192.948 3.66069 -2.50017 0
M  V30 1969 H 190.168 0.452737 -0.495248 0
M  V30 1970 H 192.712 0.838695 -1.8651 0
M  V30 1971 H 190.867 3.31835 -1.9991 0
M  V30 1972 H 191.281 3.13475 -4.20516 0
M  V30 1973 H 192.755 4.50792 -3.18576 0
M  V30 1974 H 193.232 4.11476 -1.53572 0
M  V30 1975 H 193.838 3.12572 -2.88407 0
M  V30 1976 N 192.153 1.28127 0.917671 0
M  V30 1977 C 193.085 1.07517 2.02417 0
M  V30 1978 C 194.098 0.0281099 1.62776 0
M  V30 1979 O 195.287 0.270748 1.76435 0
M  V30 1980 C 192.387 0.610957 3.33347 0
M  V30 1981 C 191.56 1.73255 4.01624 0
M  V30 1982 C 190.619 1.26238 5.10833 0
M  V30 1983 O 189.645 1.96389 5.34247 0
M  V30 1984 N 190.847 0.123448 5.80369 0
M  V30 1985 H 193.612 2.02806 2.20658 0
M  V30 1986 H 191.173 1.19827 1.08871 0
M  V30 1987 H 193.165 0.280101 4.0373 0
M  V30 1988 H 191.735 -0.24898 3.11607 0
M  V30 1989 H 190.955 2.23319 3.24842 0
M  V30 1990 H 192.243 2.48503 4.43986 0
M  V30 1991 H 191.641 -0.461847 5.63812 0
M  V30 1992 H 190.198 -0.148158 6.51632 0
M  V30 1993 N 193.631 -1.12557 1.10312 0
M  V30 1994 C 194.859 -1.87864 0.866873 0
M  V30 1995 C 195.274 -1.79588 -0.582557 0
M  V30 1996 O 194.631 -1.16887 -1.40156 0
M  V30 1997 C 194.682 -3.37125 1.30496 0
M  V30 1998 O 194.403 -3.45201 2.69755 0
M  V30 1999 C 195.904 -4.29373 1.10243 0
M  V30 2000 H 193.124 -0.594452 0.311236 0
M  V30 2001 H 195.668 -1.42429 1.46745 0
M  V30 2002 H 193.823 -3.80109 0.748081 0
M  V30 2003 H 194.237 -4.38056 2.88457 0
M  V30 2004 H 195.711 -5.32394 1.45811 0
M  V30 2005 H 196.188 -4.39181 0.0409492 0
M  V30 2006 H 196.794 -3.92169 1.64571 0
M  V30 2007 N 195.109 -0.891671 -1.2995 0
M  V30 2008 C 196.355 -0.514261 -1.96171 0
M  V30 2009 C 196.688 0.935506 -1.70182 0
M  V30 2010 O 195.963 1.66204 -1.01028 0
M  V30 2011 C 196.246 -0.797719 -3.51153 0
M  V30 2012 C 196.099 -2.2986 -3.86632 0
M  V30 2013 C 197.418 -0.278749 -4.39216 0
M  V30 2014 H 194.537 -0.188314 -0.712535 0
M  V30 2015 H 197.179 -1.11689 -1.53706 0
M  V30 2016 H 195.329 -0.284826 -3.87455 0
M  V30 2017 H 197.001 -2.88042 -3.60319 0
M  V30 2018 H 195.244 -2.76257 -3.34462 0
M  V30 2019 H 195.915 -2.44753 -4.94773 0
M  V30 2020 H 198.391 -0.717825 -4.09862 0
M  V30 2021 H 197.267 -0.506353 -5.46559 0
M  V30 2022 H 197.528 0.820266 -4.34424 0
M  V30 2023 N 196.587 1.43421 -0.653314 0
M  V30 2024 C 197.836 2.01032 -0.164076 0
M  V30 2025 C 198.149 1.52147 1.22926 0
M  V30 2026 O 199.355 2.02031 1.81371 0
M  V30 2027 C 197.811 3.59082 -0.24252 0
M  V30 2028 C 197.419 4.1696 -1.63855 0
M  V30 2029 C 199.163 4.24079 0.18911 0
M  V30 2030 C 197.07 5.67304 -1.67092 0
M  V30 2031 H 196 0.751798 -0.0575769 0
M  V30 2032 H 198.651 1.6439 -0.815362 0
M  V30 2033 H 197.033 3.93125 0.476276 0
M  V30 2034 H 198.207 3.94416 -2.38271 0
M  V30 2035 H 196.522 3.64335 -2.01616 0
M  V30 2036 H 199.119 5.34381 0.184775 0
M  V30 2037 H 199.462 3.98005 1.22056 0
M  V30 2038 H 199.995 3.94918 -0.477938 0
M  V30 2039 H 196.734 5.98145 -2.68146 0
M  V30 2040 H 196.254 5.91904 -0.970014 0
M  V30 2041 H 197.933 6.31344 -1.4147 0
M  V30 2042 N 198.065 0.39524 1.52563 0
M  V30 2043 C 198.995 -0.428384 2.29537 0
M  V30 2044 C 199.976 -1.05831 1.33169 0
M  V30 2045 O 201.161 -1.06995 1.62067 0
M  V30 2046 C 198.291 -1.55274 3.10656 0
M  V30 2047 C 197.245 -1.04855 4.14957 0
M  V30 2048 C 196.571 -2.26543 4.84337 0
M  V30 2049 C 197.871 -0.112324 5.22179 0
M  V30 2050 H 199.565 0.213867 2.98635 0
M  V30 2051 H 197.111 0.104298 1.43622 0
M  V30 2052 H 199.064 -2.1358 3.63265 0
M  V30 2053 H 197.788 -2.22266 2.39302 0
M  V30 2054 H 196.447 -0.487985 3.63338 0
M  V30 2055 H 196.095 -2.92059 4.09525 0
M  V30 2056 H 195.795 -1.93466 5.54837 0
M  V30 2057 H 197.319 -2.85481 5.39753 0
M  V30 2058 H 198.733 -0.603752 5.70112 0
M  V30 2059 H 197.13 0.128968 5.99961 0
M  V30 2060 H 198.2 0.837052 4.77621 0
M  V30 2061 N 199.544 -1.57102 0.125237 0
M  V30 2062 C 200.772 -1.99761 -0.538797 0
M  V30 2063 C 201.187 -1.00503 -1.59827 0
M  V30 2064 O 200.544 0.00119474 -1.825 0
M  V30 2065 C 200.595 -3.42408 -1.15927 0
M  V30 2066 O 200.316 -4.37869 -0.142143 0
M  V30 2067 C 201.817 -4.00232 -1.90602 0
M  V30 2068 H 199.037 -0.655772 -0.14214 0
M  V30 2069 H 201.581 -2.03383 0.213413 0
M  V30 2070 H 199.736 -3.39706 -1.86223 0
M  V30 2071 H 200.15 -5.21128 -0.593775 0
M  V30 2072 H 201.624 -5.02105 -2.29335 0
M  V30 2073 H 202.101 -3.39721 -2.78363 0
M  V30 2074 H 202.707 -4.06499 -1.25055 0
M  V30 2075 N 201.022 0.148545 -1.56898 0
M  V30 2076 C 202.438 0.501131 -1.51528 0
M  V30 2077 C 202.638 1.83458 -0.833399 0
M  V30 2078 O 201.694 2.49259 -0.40328 0
M  V30 2079 C 203.007 0.512864 -2.96294 0
M  V30 2080 C 204.555 0.598487 -3.07225 0
M  V30 2081 C 205.03 0.640897 -4.53494 0
M  V30 2082 N 206.521 0.703163 -4.57832 0
M  V30 2083 C 207.256 0.756935 -5.68382 0
M  V30 2084 N 206.752 0.770147 -6.88506 0
M  V30 2085 N 208.545 0.797698 -5.56411 0
M  V30 2086 H 200.696 -0.725532 -1.99624 0
M  V30 2087 H 202.959 -0.264358 -0.910395 0
M  V30 2088 H 202.665 -0.398691 -3.49433 0
M  V30 2089 H 202.539 1.35133 -3.52163 0
M  V30 2090 H 204.926 1.50046 -2.54106 0
M  V30 2091 H 205.007 -0.267093 -2.54402 0
M  V30 2092 H 204.651 -0.256915 -5.0725 0
M  V30 2093 H 204.581 1.52295 -5.04097 0
M  V30 2094 H 207.072 0.700314 -3.71354 0
M  V30 2095 H 207.385 0.812983 -7.68512 0
M  V30 2096 H 205.73 0.738049 -6.9107 0
M  V30 2097 H 208.921 0.784535 -4.61479 0
M  V30 2098 H 209.094 0.83614 -6.42583 0
M  V30 2099 N 202.5 1.5196 0.417844 0
M  V30 2100 C 203.463 1.74065 1.49111 0
M  V30 2101 C 204.463 0.610537 1.48758 0
M  V30 2102 O 205.653 0.87832 1.50437 0
M  V30 2103 C 202.785 1.81502 2.88565 0
M  V30 2104 H 203.978 2.69869 1.30807 0
M  V30 2105 H 201.531 1.42244 0.647785 0
M  V30 2106 H 202.266 0.875813 3.1225 0
M  V30 2107 H 202.051 2.63651 2.90225 0
M  V30 2108 H 203.541 2.00376 3.66387 0
M  V30 2109 N 203.978 -0.674533 1.42435 0
M  V30 2110 C 204.888 -1.81751 1.48337 0
M  V30 2111 C 205.904 -1.69975 0.372099 0
M  V30 2112 O 207.08 -1.91521 0.62304 0
M  V30 2113 C 204.145 -3.17895 1.38361 0
M  V30 2114 C 203.206 -3.41625 2.59982 0
M  V30 2115 C 202.439 -4.71274 2.50473 0
M  V30 2116 O 202.662 -5.49197 1.54075 0
M  V30 2117 O 201.596 -4.96254 3.4061 0
M  V30 2118 H 205.422 -1.79728 2.44809 0
M  V30 2119 H 203.007 -0.830312 1.24202 0
M  V30 2120 H 204.889 -3.99136 1.35161 0
M  V30 2121 H 203.564 -3.20555 0.450144 0
M  V30 2122 H 202.471 -2.60231 2.68757 0
M  V30 2123 H 203.804 -3.43796 3.52229 0
M  V30 2124 N 205.456 -1.28612 -0.910864 0
M  V30 2125 C 206.704 -1.15705 -1.65701 0
M  V30 2126 C 207.025 0.29416 -1.92769 0
M  V30 2127 O 206.295 1.20331 -1.54588 0
M  V30 2128 H 204.875 -0.425216 -0.614167 0
M  V30 2129 H 207.537 -1.61381 -1.0928 0
M  V30 2130 H 206.633 -1.6988 -2.61815 0
M  V30 2131 N 206.934 1.1197 -1.10907 0
M  V30 2132 C 208.35 1.35591 -0.841852 0
M  V30 2133 C 208.55 1.94233 0.536246 0
M  V30 2134 O 207.606 2.1717 1.28816 0
M  V30 2135 C 208.919 2.29284 -1.94549 0
M  V30 2136 C 210.467 2.42862 -1.97451 0
M  V30 2137 C 210.942 3.39873 -3.07002 0
M  V30 2138 N 212.433 3.47433 -3.06341 0
M  V30 2139 C 213.168 4.22421 -3.87748 0
M  V30 2140 N 212.664 5.00432 -4.79103 0
M  V30 2141 N 214.457 4.17876 -3.75946 0
M  V30 2142 H 206.608 0.722664 -1.99728 0
M  V30 2143 H 208.871 0.380635 -0.868229 0
M  V30 2144 H 208.577 1.93378 -2.93765 0
M  V30 2145 H 208.451 3.29452 -1.83688 0
M  V30 2146 H 210.838 2.78046 -0.988645 0
M  V30 2147 H 210.919 1.42566 -2.12388 0
M  V30 2148 H 210.563 3.05417 -4.05811 0
M  V30 2149 H 210.493 4.40011 -2.89306 0
M  V30 2150 H 212.984 2.91784 -2.40147 0
M  V30 2151 H 213.297 5.55002 -5.37766 0
M  V30 2152 H 211.642 4.99612 -4.83128 0
M  V30 2153 H 214.833 3.56016 -3.03924 0
M  V30 2154 H 215.006 4.76061 -4.39624 0
M  V30 2155 N 208.412 0.89855 1.29475 0
M  V30 2156 C 209.64 0.539261 1.99749 0
M  V30 2157 C 210.055 -0.875716 1.67262 0
M  V30 2158 O 209.412 -1.57786 0.917049 0
M  V30 2159 C 209.463 0.72061 3.54245 0
M  V30 2160 O 209.184 2.07989 3.8558 0
M  V30 2161 C 210.685 0.366118 4.41786 0
M  V30 2162 H 207.905 0.207047 0.638258 0
M  V30 2163 H 210.449 1.20758 1.65039 0
M  V30 2164 H 208.604 0.0994862 3.87272 0
M  V30 2165 H 209.018 2.10841 4.80257 0
M  V30 2166 H 210.492 0.543848 5.49314 0
M  V30 2167 H 210.969 -0.696763 4.33638 0
M  V30 2168 H 211.575 0.964135 4.14228 0
M  V30 2169 N 209.89 -1.43072 0.660911 0
M  V30 2170 C 211.301 -1.84932 0.256348 0
M  V30 2171 C 211.652 -1.55325 -1.19868 0
M  V30 2172 O 210.777 -1.00607 -1.91591 0
M  V30 2173 C 211.372 -3.35684 0.458475 0
M  V30 2174 C 209.931 -3.76245 0.108161 0
M  V30 2175 C 209.078 -2.66749 0.757641 0
M  V30 2176 H 212.029 -1.33116 0.864051 0
M  V30 2177 H 212.05 -3.79365 -0.293683 0
M  V30 2178 H 211.562 -3.572 1.51755 0
M  V30 2179 H 209.663 -3.60338 -0.948014 0
M  V30 2180 H 209.776 -4.76058 0.538992 0
M  V30 2181 H 208.14 -2.53989 0.190185 0
M  V30 2182 H 208.923 -2.91092 1.81989 0
M  V30 2183 N 211.368 -0.403325 -1.52352 0
M  V30 2184 C 212.614 0.174605 -2.02047 0
M  V30 2185 C 212.947 1.45282 -1.28867 0
M  V30 2186 O 212.222 1.90483 -0.393257 0
M  V30 2187 C 212.505 0.428238 -3.57545 0
M  V30 2188 C 212.358 -0.866248 -4.4138 0
M  V30 2189 C 213.677 1.21287 -4.23057 0
M  V30 2190 H 210.796 0.0619851 -0.734389 0
M  V30 2191 H 213.438 -0.53565 -1.82293 0
M  V30 2192 H 211.588 1.03327 -3.74507 0
M  V30 2193 H 213.26 -1.50265 -4.3614 0
M  V30 2194 H 211.503 -1.47851 -4.07827 0
M  V30 2195 H 212.174 -0.643249 -5.48239 0
M  V30 2196 H 214.65 0.700703 -4.10158 0
M  V30 2197 H 213.526 1.35909 -5.31808 0
M  V30 2198 H 213.787 2.23193 -3.81625 0
M  V30 2199 N 212.846 1.57033 -0.133567 0
M  V30 2200 C 214.257 1.82593 0.389464 0
M  V30 2201 C 214.608 1.05156 1.6564 0
M  V30 2202 O 213.733 0.292644 2.14412 0
M  V30 2203 C 214.328 3.31204 0.713377 0
M  V30 2204 C 212.887 3.57393 1.18098 0
M  V30 2205 C 212.034 2.76598 0.197126 0
M  V30 2206 H 214.985 1.54598 -0.358481 0
M  V30 2207 H 215.006 3.46627 1.56939 0
M  V30 2208 H 214.518 3.87537 -0.2089 0
M  V30 2209 H 212.619 3.06433 2.11966 0
M  V30 2210 H 212.732 4.65915 1.11624 0
M  V30 2211 H 211.096 2.45257 0.687088 0
M  V30 2212 H 211.879 3.35697 -0.718504 0
M  V30 2213 N 214.325 -0.140222 1.56975 0
M  V30 2214 C 215.235 -1.19223 2.02047 0
M  V30 2215 C 216.251 -1.46612 0.937062 0
M  V30 2216 O 217.427 -1.58148 1.24704 0
M  V30 2217 C 214.492 -2.50414 2.39778 0
M  V30 2218 C 213.553 -2.30612 3.621 0
M  V30 2219 C 212.786 -3.55547 3.98023 0
M  V30 2220 O 213.009 -4.62004 3.34528 0
M  V30 2221 O 211.943 -3.47808 4.91237 0
M  V30 2222 H 215.769 -0.839559 2.91865 0
M  V30 2223 H 213.354 -0.349453 1.45256 0
M  V30 2224 H 215.236 -3.27747 2.64877 0
M  V30 2225 H 213.911 -2.85198 1.53114 0
M  V30 2226 H 212.818 -1.51207 3.4218 0
M  V30 2227 H 214.151 -2.00741 4.49404 0
M  V30 2228 N 215.803 -1.52179 -0.40978 0
M  V30 2229 C 217.05 -1.66206 -1.15679 0
M  V30 2230 C 217.378 -0.391674 -1.90516 0
M  V30 2231 O 216.633 0.62533 -1.8544 0
M  V30 2232 C 216.932 -2.83428 -2.17723 0
M  V30 2233 C 216.598 -4.21672 -1.59699 0
M  V30 2234 C 215.26 -4.59274 -1.43599 0
M  V30 2235 C 217.612 -5.07825 -1.17317 0
M  V30 2236 C 214.94 -5.80709 -0.836328 0
M  V30 2237 C 217.292 -6.29864 -0.587691 0
M  V30 2238 C 215.956 -6.66216 -0.413818 0
M  V30 2239 H 215.226 -0.608192 -0.423301 0
M  V30 2240 H 217.873 -1.86279 -0.444097 0
M  V30 2241 H 216.178 -2.57687 -2.95135 0
M  V30 2242 H 217.875 -2.91477 -2.75394 0
M  V30 2243 H 214.465 -3.9204 -1.73213 0
M  V30 2244 H 218.649 -4.79359 -1.28565 0
M  V30 2245 H 213.905 -6.07498 -0.689626 0
M  V30 2246 H 218.079 -6.95948 -0.250894 0
M  V30 2247 H 215.706 -7.60182 0.0529471 0
M  V30 2248 N 217.281 0.66697 -1.42791 0
M  V30 2249 C 218.191 1.80962 -1.49299 0
M  V30 2250 C 219.207 1.69775 -0.381108 0
M  V30 2251 O 220.383 1.91188 -0.633188 0
M  V30 2252 C 217.448 3.17156 -1.40045 0
M  V30 2253 C 216.509 3.40242 -2.6179 0
M  V30 2254 C 215.742 4.69939 -2.52969 0
M  V30 2255 O 215.965 5.48372 -1.56985 0
M  V30 2256 O 214.899 4.94441 -3.43237 0
M  V30 2257 H 218.725 1.78427 -2.45759 0
M  V30 2258 H 216.31 0.823713 -1.24641 0
M  V30 2259 H 218.192 3.98413 -1.37276 0
M  V30 2260 H 216.867 3.20312 -0.467138 0
M  V30 2261 H 215.774 2.58802 -2.70134 0
M  V30 2262 H 217.107 3.41923 -3.54047 0
M  V30 2263 N 218.759 1.29093 0.90403 0
M  V30 2264 C 219.706 1.13853 2.00764 0
M  V30 2265 C 220.676 0.0330084 1.66067 0
M  V30 2266 O 221.861 0.199733 1.89752 0
M  V30 2267 C 219.001 0.816537 3.35301 0
M  V30 2268 C 218.114 2.00206 3.82807 0
M  V30 2269 C 217.249 1.61983 5.059 0
M  V30 2270 C 216.288 2.77143 5.45764 0
M  V30 2271 N 215.425 2.39346 6.60044 0
M  V30 2272 H 220.265 2.08276 2.13132 0
M  V30 2273 H 217.802 1.03648 1.04381 0
M  V30 2274 H 219.76 0.610557 4.12708 0
M  V30 2275 H 218.39 -0.090779 3.22672 0
M  V30 2276 H 217.442 2.31988 3.01473 0
M  V30 2277 H 218.754 2.86512 4.08304 0
M  V30 2278 H 217.908 1.37649 5.90879 0
M  V30 2279 H 216.647 0.728202 4.82233 0
M  V30 2280 H 215.652 3.02165 4.59322 0
M  V30 2281 H 216.877 3.66964 5.71414 0
M  V30 2282 H 214.823 1.52665 6.37989 0
M  V30 2283 H 214.74 3.19185 6.85315 0
M  V30 2284 H 216.008 2.1832 7.48303 0
M  V30 2285 N 220.237 -1.11381 1.11499 0
M  V30 2286 C 221.167 -2.19509 0.796125 0
M  V30 2287 C 222.148 -1.68458 -0.235796 0
M  V30 2288 O 223.333 -1.93947 -0.0991344 0
M  V30 2289 C 220.463 -3.46475 0.239205 0
M  V30 2290 C 219.417 -4.10744 1.20307 0
M  V30 2291 C 218.743 -5.32293 0.50683 0
M  V30 2292 C 220.043 -4.55597 2.55399 0
M  V30 2293 H 221.737 -2.46439 1.70024 0
M  V30 2294 H 219.283 -1.18446 0.818935 0
M  V30 2295 H 221.236 -4.214 0.00392006 0
M  V30 2296 H 219.96 -3.19006 -0.700206 0
M  V30 2297 H 218.619 -3.37813 1.42399 0
M  V30 2298 H 218.267 -5.01095 -0.437408 0
M  V30 2299 H 217.967 -5.76243 1.1497 0
M  V30 2300 H 219.491 -6.09956 0.280351 0
M  V30 2301 H 220.905 -5.21841 2.37391 0
M  V30 2302 H 219.302 -5.10363 3.15673 0
M  V30 2303 H 220.372 -3.69013 3.14575 0
M  V30 2304 N 221.715 -0.905404 -1.28997 0
M  V30 2305 C 222.943 -0.549846 -1.9946 0
M  V30 2306 C 223.358 0.866834 -1.67724 0
M  V30 2307 O 222.715 1.57298 -0.925404 0
M  V30 2308 C 222.766 -0.739387 -3.53858 0
M  V30 2309 O 222.487 -2.10031 -3.84472 0
M  V30 2310 C 223.988 -0.389541 -4.41585 0
M  V30 2311 H 221.208 -0.210429 -0.637151 0
M  V30 2312 H 223.752 -1.21632 -1.64396 0
M  V30 2313 H 221.907 -0.120023 -3.87214 0
M  V30 2314 H 222.321 -2.13385 -4.79132 0
M  V30 2315 H 223.795 -0.572972 -5.49018 0
M  V30 2316 H 224.272 0.673756 -4.34001 0
M  V30 2317 H 224.878 -0.986089 -4.1371 0
M  V30 2318 N 223.193 1.4272 -0.668489 0
M  V30 2319 C 224.47 1.95248 -0.117373 0
M  V30 2320 C 224.85 1.60919 1.36632 0
M  V30 2321 O 224.198 0.902095 2.09939 0
M  V30 2322 C 224.408 3.46927 -0.379806 0
M  V30 2323 C 225.756 4.23588 -0.292923 0
M  V30 2324 O 226.78 3.5482 -0.313204 0
M  V30 2325 O 225.639 5.46017 -0.229697 0
M  V30 2326 H 222.733 0.827 0.00079152 0
M  V30 2327 H 225.279 1.52581 -0.742783 0
M  V30 2328 H 224.051 3.65096 -1.40786 0
M  V30 2329 H 223.674 3.96627 0.277923 0
M  V30 2330 N 224.671 0.411399 1.52136 0
M  V30 2331 C 225.601 -0.404015 2.29978 0
M  V30 2332 C 226.582 -1.04412 1.34284 0
M  V30 2333 O 227.767 -1.0527 1.63192 0
M  V30 2334 C 224.897 -1.5197 3.12286 0
M  V30 2335 C 223.851 -1.00448 4.16046 0
M  V30 2336 C 223.177 -2.21393 4.86712 0
M  V30 2337 C 224.477 -0.0569336 5.22269 0
M  V30 2338 H 226.171 0.245529 2.98392 0
M  V30 2339 H 223.717 0.119525 1.43503 0
M  V30 2340 H 225.67 -2.09715 3.6551 0
M  V30 2341 H 224.394 -2.19716 2.41646 0
M  V30 2342 H 223.053 -0.449421 3.63835 0
M  V30 2343 H 222.701 -2.87699 4.12599 0
M  V30 2344 H 222.401 -1.87571 5.56858 0
M  V30 2345 H 223.925 -2.7974 5.4275 0
M  V30 2346 H 225.339 -0.54325 5.7072 0
M  V30 2347 H 223.736 0.192594 5.99791 0
M  V30 2348 H 224.806 0.887663 4.76706 0
M  V30 2349 N 226.149 -1.5696 0.141893 0
M  V30 2350 C 227.112 -2.15316 -0.785587 0
M  V30 2351 C 228.112 -1.09366 -1.1788 0
M  V30 2352 O 229.302 -1.35031 -1.10056 0
M  V30 2353 C 226.434 -2.71211 -2.06537 0
M  V30 2354 H 227.627 -2.98608 -0.278041 0
M  V30 2355 H 225.18 -1.5593 -0.107519 0
M  V30 2356 H 225.915 -1.91571 -2.6167 0
M  V30 2357 H 225.7 -3.4872 -1.79268 0
M  V30 2358 H 227.19 -3.16189 -2.72789 0
M  V30 2359 N 227.627 0.131896 -1.57047 0
M  V30 2360 C 228.574 1.16236 -1.99393 0
M  V30 2361 C 229.544 1.41863 -0.863943 0
M  V30 2362 O 230.729 1.53946 -1.12718 0
M  V30 2363 C 227.869 2.48708 -2.39245 0
M  V30 2364 C 226.982 2.30127 -3.65603 0
M  V30 2365 C 226.117 3.55738 -3.94492 0
M  V30 2366 C 225.156 3.32259 -5.14073 0
M  V30 2367 N 224.293 4.50039 -5.38896 0
M  V30 2368 H 229.133 0.794251 -2.87221 0
M  V30 2369 H 226.67 0.380707 -1.42088 0
M  V30 2370 H 228.628 3.25969 -2.60384 0
M  V30 2371 H 227.258 2.83437 -1.54478 0
M  V30 2372 H 226.31 1.43845 -3.52154 0
M  V30 2373 H 227.622 2.08746 -4.5302 0
M  V30 2374 H 226.776 4.41423 -4.1621 0
M  V30 2375 H 225.515 3.80138 -3.05526 0
M  V30 2376 H 224.52 2.44963 -4.92212 0
M  V30 2377 H 225.745 3.09242 -6.04604 0
M  V30 2378 H 223.691 4.74584 -4.52886 0
M  V30 2379 H 223.608 4.31716 -6.2061 0
M  V30 2380 H 224.876 5.36895 -5.65123 0
M  V30 2381 N 229.106 1.52395 0.401703 0
M  V30 2382 C 230.056 1.72649 1.48917 0
M  V30 2383 C 231.04 0.580436 1.50066 0
M  V30 2384 O 232.232 0.83779 1.55917 0
M  V30 2385 C 229.361 1.88729 2.86769 0
M  V30 2386 C 228.447 3.09228 2.90239 0
M  V30 2387 N 228.838 4.31805 2.63396 0
M  V30 2388 C 227.136 3.09214 3.21408 0
M  V30 2389 C 227.837 5.13326 2.73625 0
M  V30 2390 N 226.813 4.48735 3.06819 0
M  V30 2391 H 230.615 2.65058 1.26971 0
M  V30 2392 H 228.129 1.50528 0.609504 0
M  V30 2393 H 230.126 2.01358 3.65049 0
M  V30 2394 H 228.786 0.975252 3.09708 0
M  V30 2395 H 229.797 4.60154 2.37653 0
M  V30 2396 H 226.474 2.27774 3.49893 0
M  V30 2397 H 227.864 6.21003 2.56524 0
M  V30 2398 N 230.584 -0.659388 1.43143 0
M  V30 2399 C 231.531 -1.77249 1.47822 0
M  V30 2400 C 232.501 -1.62818 0.328558 0
M  V30 2401 O 233.686 -1.83151 0.534838 0
M  V30 2402 C 230.826 -3.15371 1.40126 0
M  V30 2403 C 229.939 -3.4098 2.65249 0
M  V30 2404 C 229.074 -4.68915 2.49584 0
M  V30 2405 C 228.113 -4.87608 3.70006 0
M  V30 2406 N 227.25 -6.06796 3.53189 0
M  V30 2407 H 232.09 -1.72584 2.42938 0
M  V30 2408 H 229.627 -0.842297 1.20598 0
M  V30 2409 H 231.585 -3.9521 1.33659 0
M  V30 2410 H 230.215 -3.19121 0.485964 0
M  V30 2411 H 229.267 -2.55282 2.8202 0
M  V30 2412 H 230.579 -3.50681 3.54717 0
M  V30 2413 H 229.733 -5.56871 2.4079 0
M  V30 2414 H 228.472 -4.61524 1.5763 0
M  V30 2415 H 227.477 -3.9809 3.79215 0
M  V30 2416 H 228.702 -4.96834 4.62961 0
M  V30 2417 H 226.648 -6.00549 2.63965 0
M  V30 2418 H 226.565 -6.17428 4.36255 0
M  V30 2419 H 227.833 -6.9739 3.48236 0
M  V30 2420 N 232.062 -1.29571 -0.897171 0
M  V30 2421 C 233.302 -1.18959 -1.66217 0
M  V30 2422 C 233.666 0.254271 -1.90309 0
M  V30 2423 O 234.867 0.483407 -2.64417 0
M  V30 2424 C 233.138 -1.98302 -2.9734 0
M  V30 2425 S 234.697 -2.04253 -3.88364 0
M  V30 2426 H 231.515 -0.424137 -0.570639 0
M  V30 2427 H 234.117 -1.6389 -1.06585 0
M  V30 2428 H 232.821 -3.02342 -2.77521 0
M  V30 2429 H 232.352 -1.53986 -3.62011 0
M  V30 2430 H 234.367 -1.16105 -4.82425 0
M  V30 2431 N 233.54 1.10788 -1.12088 0
M  V30 2432 C 234.768 1.86461 -0.896651 0
M  V30 2433 C 235.183 1.80492 0.553912 0
M  V30 2434 O 234.54 1.19102 1.38278 0
M  V30 2435 C 234.591 3.35006 -1.35843 0
M  V30 2436 O 234.312 3.40866 -2.75213 0
M  V30 2437 C 235.813 4.27565 -1.1706 0
M  V30 2438 H 233.033 0.589425 -0.320654 0
M  V30 2439 H 235.577 1.40076 -1.48993 0
M  V30 2440 H 233.732 3.7887 -0.808458 0
M  V30 2441 H 234.146 4.33411 -2.9539 0
M  V30 2442 H 235.62 5.30007 -1.54263 0
M  V30 2443 H 236.097 4.3906 -0.110814 0
M  V30 2444 H 236.703 3.89501 -1.70789 0
M  V30 2445 N 235.018 0.912232 1.28515 0
M  V30 2446 C 236.267 0.540504 1.94323 0
M  V30 2447 C 236.58 -0.920044 1.72611 0
M  V30 2448 O 237.786 -1.39986 2.32629 0
M  V30 2449 C 236.242 0.915803 3.48053 0
M  V30 2450 C 235.85 2.39598 3.78546 0
M  V30 2451 C 237.594 0.614588 4.20027 0
M  V30 2452 C 235.501 2.71148 5.25578 0
M  V30 2453 H 234.431 0.198418 0.727424 0
M  V30 2454 H 237.082 1.11094 1.46049 0
M  V30 2455 H 235.464 0.274168 3.9505 0
M  V30 2456 H 236.638 3.08422 3.42364 0
M  V30 2457 H 234.953 2.66749 3.1974 0
M  V30 2458 H 237.55 0.827002 5.28266 0
M  V30 2459 H 237.893 -0.447531 4.13887 0
M  V30 2460 H 238.426 1.21462 3.78803 0
M  V30 2461 H 235.165 3.76207 5.36794 0
M  V30 2462 H 234.685 2.0696 5.62963 0
M  V30 2463 H 236.364 2.58072 5.93302 0
M  V30 2464 N 236.496 -1.42363 0.676048 0
M  V30 2465 C 237.459 -2.29199 0.00766941 0
M  V30 2466 C 238.459 -1.43389 -0.727745 0
M  V30 2467 O 239.649 -1.64764 -0.56556 0
M  V30 2468 C 236.781 -3.2591 -0.999785 0
M  V30 2469 H 237.974 -2.89794 0.771988 0
M  V30 2470 H 235.527 -1.50024 0.438468 0
M  V30 2471 H 236.262 -2.70256 -1.79255 0
M  V30 2472 H 236.047 -3.89202 -0.475829 0
M  V30 2473 H 237.537 -3.91028 -1.46583 0
M  V30 2474 N 237.974 -0.419461 -1.51915 0
M  V30 2475 C 238.904 0.391813 -2.30189 0
M  V30 2476 C 239.885 1.03699 -1.34836 0
M  V30 2477 O 241.07 1.04403 -1.63748 0
M  V30 2478 C 238.2 1.50312 -3.13087 0
M  V30 2479 C 237.154 0.9824 -4.16573 0
M  V30 2480 C 236.48 2.18809 -4.8788 0
M  V30 2481 C 237.78 0.0292356 -5.22292 0
M  V30 2482 H 239.474 -0.26135 -2.98257 0
M  V30 2483 H 237.02 -0.127134 -1.43438 0
M  V30 2484 H 238.973 2.07773 -3.66617 0
M  V30 2485 H 237.697 2.18431 -2.42807 0
M  V30 2486 H 236.356 0.430119 -3.64068 0
M  V30 2487 H 236.004 2.85507 -4.14119 0
M  V30 2488 H 235.704 1.84615 -5.57845 0
M  V30 2489 H 237.228 2.76858 -5.44226 0
M  V30 2490 H 238.642 0.512976 -5.71 0
M  V30 2491 H 237.039 -0.2244 -5.9968 0
M  V30 2492 H 238.109 -0.912931 -4.76228 0
M  V30 2493 N 239.452 1.56882 -0.150215 0
M  V30 2494 C 240.699 1.96228 0.500093 0
M  V30 2495 C 241.027 1.03522 1.64661 0
M  V30 2496 O 240.282 0.0650683 1.95592 0
M  V30 2497 C 240.581 3.41801 1.04437 0
M  V30 2498 C 240.247 4.50897 0.0159671 0
M  V30 2499 C 238.909 4.8046 -0.266731 0
M  V30 2500 C 241.261 5.16703 -0.683192 0
M  V30 2501 C 238.589 5.73135 -1.25434 0
M  V30 2502 C 240.941 6.10441 -1.65964 0
M  V30 2503 C 239.605 6.38382 -1.95 0
M  V30 2504 H 238.875 0.718048 0.182997 0
M  V30 2505 H 241.522 1.90019 -0.237724 0
M  V30 2506 H 239.827 3.44857 1.85959 0
M  V30 2507 H 241.524 3.69573 1.55618 0
M  V30 2508 H 238.114 4.27891 0.246485 0
M  V30 2509 H 242.298 4.93993 -0.477983 0
M  V30 2510 H 237.554 5.93074 -1.48571 0
M  V30 2511 H 241.728 6.60507 -2.20689 0
M  V30 2512 H 239.355 7.09996 -2.71679 0
M  V30 2513 N 240.93 -0.123565 1.57115 0
M  V30 2514 C 241.86 -1.15309 2.03042 0
M  V30 2515 C 242.841 -1.43454 0.914061 0
M  V30 2516 O 244.026 -1.53973 1.18347 0
M  V30 2517 C 241.156 -2.48043 2.43089 0
M  V30 2518 C 240.11 -2.3437 3.58127 0
M  V30 2519 C 239.436 -3.72026 3.84059 0
M  V30 2520 C 240.736 -1.80804 4.90007 0
M  V30 2521 H 242.43 -0.771102 2.893 0
M  V30 2522 H 239.976 -0.369479 1.39179 0
M  V30 2523 H 241.929 -3.20311 2.73823 0
M  V30 2524 H 240.653 -2.88122 1.53796 0
M  V30 2525 H 239.312 -1.64551 3.27595 0
M  V30 2526 H 238.96 -4.09582 2.91979 0
M  V30 2527 H 238.66 -3.63732 4.6149 0
M  V30 2528 H 240.184 -4.45806 4.1724 0
M  V30 2529 H 241.598 -2.42886 5.19307 0
M  V30 2530 H 239.995 -1.83343 5.71407 0
M  V30 2531 H 241.065 -0.76528 4.78823 0
M  V30 2532 N 242.408 -1.52605 -0.393616 0
M  V30 2533 C 243.633 -1.71592 -1.16495 0
M  V30 2534 C 244.058 -0.43133 -1.83088 0
M  V30 2535 O 243.416 0.612523 -1.7064 0
M  V30 2536 C 243.464 -2.86318 -2.19213 0
M  V30 2537 O 242.568 -2.52969 -3.257 0
M  V30 2538 H 241.909 -0.570734 -0.33935 0
M  V30 2539 H 244.439 -1.99377 -0.459324 0
M  V30 2540 H 244.449 -3.1168 -2.63286 0
M  V30 2541 H 243.124 -3.79511 -1.7013 0
M  V30 2542 H 241.701 -2.38332 -2.86797 0
M  V30 2543 N 243.887 0.651787 -1.4349 0
M  V30 2544 C 244.85 1.74647 -1.48429 0
M  V30 2545 C 245.85 1.56513 -0.368817 0
M  V30 2546 O 247.04 1.62385 -0.630623 0
M  V30 2547 C 244.172 3.13533 -1.33827 0
M  V30 2548 H 245.365 1.71649 -2.4592 0
M  V30 2549 H 242.918 0.863573 -1.30277 0
M  V30 2550 H 243.653 3.22142 -0.37349 0
M  V30 2551 H 243.438 3.28101 -2.14691 0
M  V30 2552 H 244.928 3.93356 -1.40218 0
M  V30 2553 N 245.365 1.30045 0.890287 0
M  V30 2554 C 246.593 1.21472 1.67487 0
M  V30 2555 C 247.008 -0.223241 1.87476 0
M  V30 2556 O 246.365 -1.14828 1.41847 0
M  V30 2557 C 246.416 1.93394 3.05419 0
M  V30 2558 O 246.137 3.31576 2.86337 0
M  V30 2559 C 247.638 1.91414 3.99844 0
M  V30 2560 H 244.858 0.420604 0.522813 0
M  V30 2561 H 247.402 1.7158 1.11268 0
M  V30 2562 H 245.557 1.47099 3.58386 0
M  V30 2563 H 245.971 3.67929 3.73802 0
M  V30 2564 H 247.445 2.46285 4.94012 0
M  V30 2565 H 247.922 0.891833 4.3005 0
M  V30 2566 H 248.528 2.37496 3.52811 0
M  V30 2567 N 246.843 -1.10192 1.12674 0
M  V30 2568 C 247.773 -2.18652 0.819362 0
M  V30 2569 C 248.754 -1.68698 -0.217915 0
M  V30 2570 O 249.939 -1.94041 -0.0785581 0
M  V30 2571 C 247.069 -3.46202 0.27594 0
M  V30 2572 C 246.023 -4.09444 1.24656 0
M  V30 2573 C 245.349 -5.31725 0.563258 0
M  V30 2574 C 246.649 -4.52863 2.60217 0
M  V30 2575 H 248.343 -2.44622 1.72628 0
M  V30 2576 H 245.889 -1.17571 0.831451 0
M  V30 2577 H 247.842 -4.21372 0.0486149 0
M  V30 2578 H 246.566 -3.1973 -0.666331 0
M  V30 2579 H 245.225 -3.36284 1.45974 0
M  V30 2580 H 244.873 -5.0153 -0.384235 0
M  V30 2581 H 244.573 -5.74991 1.21075 0
M  V30 2582 H 246.097 -6.09624 0.34503 0
M  V30 2583 H 247.511 -5.19294 2.42913 0
M  V30 2584 H 245.908 -5.06986 3.21068 0
M  V30 2585 H 246.978 -3.65656 3.18471 0
M  V30 2586 N 248.321 -0.919034 -1.28029 0
M  V30 2587 C 249.549 -0.570971 -1.98866 0
M  V30 2588 C 249.964 0.848996 -1.68634 0
M  V30 2589 O 249.321 1.56307 -0.942036 0
M  V30 2590 C 249.372 -0.776876 -3.53054 0
M  V30 2591 O 249.093 -2.14097 -3.82222 0
M  V30 2592 C 250.594 -0.436356 -4.41147 0
M  V30 2593 H 247.814 -0.217175 -0.634883 0
M  V30 2594 H 250.358 -1.23368 -1.63097 0
M  V30 2595 H 248.513 -0.161085 -3.87065 0
M  V30 2596 H 248.927 -2.18455 -4.76841 0
M  V30 2597 H 250.401 -0.63117 -5.4838 0
M  V30 2598 H 250.878 0.627686 -4.34692 0
M  V30 2599 H 251.484 -1.02991 -4.12641 0
M  V30 2600 N 249.799 1.42003 -0.683588 0
M  V30 2601 C 250.746 2.30798 -0.0107309 0
M  V30 2602 C 251.716 1.4645 0.783688 0
M  V30 2603 O 252.901 1.75263 0.754156 0
M  V30 2604 C 250.041 3.3238 0.928306 0
M  V30 2605 C 249.154 4.31814 0.126776 0
M  V30 2606 C 248.289 5.20468 1.06236 0
M  V30 2607 C 247.328 6.11577 0.253035 0
M  V30 2608 N 246.465 6.92754 1.14179 0
M  V30 2609 H 251.305 2.8778 -0.773727 0
M  V30 2610 H 248.842 1.41745 -0.393283 0
M  V30 2611 H 250.8 3.89813 1.48666 0
M  V30 2612 H 249.43 2.76976 1.65783 0
M  V30 2613 H 248.482 3.76427 -0.54833 0
M  V30 2614 H 249.794 4.96276 -0.501192 0
M  V30 2615 H 248.948 5.82677 1.69035 0
M  V30 2616 H 247.687 4.56204 1.7242 0
M  V30 2617 H 246.692 5.48428 -0.388108 0
M  V30 2618 H 247.917 6.77892 -0.404839 0
M  V30 2619 H 245.863 6.3111 1.78987 0
M  V30 2620 H 245.78 7.53855 0.569111 0
M  V30 2621 H 247.048 7.59441 1.75697 0
M  V30 2622 N 251.277 0.427512 1.51691 0
M  V30 2623 C 252.224 -0.388867 2.275 0
M  V30 2624 C 253.194 -1.02532 1.30677 0
M  V30 2625 O 254.379 -1.0461 1.59566 0
M  V30 2626 C 251.519 -1.48954 3.11298 0
M  V30 2627 C 250.632 -0.872194 4.23104 0
M  V30 2628 C 249.767 -1.94709 4.94228 0
M  V30 2629 C 248.806 -1.30766 5.97969 0
M  V30 2630 N 247.943 -2.32349 6.62539 0
M  V30 2631 H 252.783 0.263997 2.96828 0
M  V30 2632 H 250.32 0.142033 1.46413 0
M  V30 2633 H 252.278 -2.13887 3.58201 0
M  V30 2634 H 250.908 -2.11217 2.44105 0
M  V30 2635 H 249.96 -0.111419 3.80237 0
M  V30 2636 H 251.272 -0.365264 4.97461 0
M  V30 2637 H 250.426 -2.67327 5.44629 0
M  V30 2638 H 249.165 -2.48773 4.1948 0
M  V30 2639 H 248.17 -0.566902 5.4687 0
M  V30 2640 H 249.395 -0.774483 6.74669 0
M  V30 2641 H 247.341 -2.85511 5.90609 0
M  V30 2642 H 247.258 -1.8652 7.3263 0
M  V30 2643 H 248.526 -3.04481 7.17574 0
M  V30 2644 N 252.755 -1.56801 0.158532 0
M  V30 2645 C 254.001 -1.96781 -0.490405 0
M  V30 2646 C 254.334 -1.04397 -1.63753 0
M  V30 2647 O 253.609 -0.0885805 -1.94298 0
M  V30 2648 C 253.892 -3.4635 -0.985594 0
M  V30 2649 C 253.745 -4.49512 0.160824 0
M  V30 2650 C 255.064 -3.98697 -1.86355 0
M  V30 2651 H 252.183 -0.715482 -0.176788 0
M  V30 2652 H 254.825 -1.88451 0.242088 0
M  V30 2653 H 252.975 -3.53579 -1.60978 0
M  V30 2654 H 254.647 -4.54353 0.797537 0
M  V30 2655 H 252.89 -4.26013 0.818256 0
M  V30 2656 H 253.561 -5.51531 -0.227569 0
M  V30 2657 H 256.037 -3.94019 -1.33746 0
M  V30 2658 H 254.913 -5.03792 -2.17909 0
M  V30 2659 H 255.174 -3.41744 -2.8047 0
M  V30 2660 N 254.233 0.115231 -1.57178 0
M  V30 2661 C 255.166 1.17166 -1.95825 0
M  V30 2662 C 256.144 1.39912 -0.828463 0
M  V30 2663 O 257.328 1.54004 -1.08697 0
M  V30 2664 C 254.455 2.52478 -2.25771 0
M  V30 2665 C 253.501 2.46136 -3.48309 0
M  V30 2666 S 254.334 1.89736 -5.0076 0
M  V30 2667 C 255.49 3.26713 -5.33863 0
M  V30 2668 H 255.723 0.842103 -2.85124 0
M  V30 2669 H 253.256 0.322136 -1.51002 0
M  V30 2670 H 255.214 3.30332 -2.43702 0
M  V30 2671 H 253.875 2.82609 -1.37079 0
M  V30 2672 H 253.068 3.45819 -3.66641 0
M  V30 2673 H 252.67 1.76404 -3.29784 0
M  V30 2674 H 254.962 4.22935 -5.29275 0
M  V30 2675 H 255.905 3.13205 -6.35065 0
M  V30 2676 H 256.313 3.25316 -4.61335 0
M  V30 2677 N 255.711 1.52812 0.385517 0
M  V30 2678 C 256.658 1.77838 1.47113 0
M  V30 2679 C 257.628 0.621757 1.54024 0
M  V30 2680 O 258.813 0.861846 1.70226 0
M  V30 2681 C 255.953 1.95618 2.84302 0
M  V30 2682 C 255.066 3.23316 2.86515 0
M  V30 2683 C 254.201 3.31394 4.15152 0
M  V30 2684 C 253.24 4.53201 4.1143 0
M  V30 2685 N 252.377 4.58542 5.3168 0
M  V30 2686 H 257.217 2.70482 1.25073 0
M  V30 2687 H 254.754 1.34006 0.606692 0
M  V30 2688 H 256.712 2.03912 3.63972 0
M  V30 2689 H 255.342 1.06331 3.04784 0
M  V30 2690 H 254.394 3.24076 1.99195 0
M  V30 2691 H 255.706 4.13045 2.79634 0
M  V30 2692 H 254.86 3.3889 5.03228 0
M  V30 2693 H 253.599 2.39645 4.24761 0
M  V30 2694 H 252.604 4.45827 3.21742 0
M  V30 2695 H 253.829 5.46271 4.03442 0
M  V30 2696 H 251.775 3.69686 5.41912 0
M  V30 2697 H 251.692 5.42148 5.26889 0
M  V30 2698 H 252.96 4.70296 6.21644 0
M  V30 2699 N 257.189 -0.644168 1.43834 0
M  V30 2700 C 258.099 -1.78563 1.52159 0
M  V30 2701 C 259.115 -1.69147 0.408069 0
M  V30 2702 O 260.291 -1.90156 0.663524 0
M  V30 2703 C 257.356 -3.14888 1.45073 0
M  V30 2704 C 256.417 -3.36034 2.6717 0
M  V30 2705 C 255.65 -4.65855 2.60413 0
M  V30 2706 O 255.873 -5.45805 1.65689 0
M  V30 2707 O 254.807 -4.88918 3.5106 0
M  V30 2708 H 258.633 -1.74494 2.48567 0
M  V30 2709 H 256.218 -0.80378 1.25935 0
M  V30 2710 H 258.1 -3.96179 1.43597 0
M  V30 2711 H 256.775 -3.19528 0.518037 0
M  V30 2712 H 255.682 -2.54472 2.74217 0
M  V30 2713 H 257.015 -3.36247 3.59442 0
M  V30 2714 N 258.668 -1.30515 -0.883378 0
M  V30 2715 C 259.915 -1.1943 -1.63532 0
M  V30 2716 C 260.243 0.250627 -1.92878 0
M  V30 2717 O 259.498 1.19556 -1.54935 0
M  V30 2718 C 259.797 -1.96994 -2.98209 0
M  V30 2719 C 259.463 -3.466 -2.88408 0
M  V30 2720 C 258.125 -3.87397 -2.85442 0
M  V30 2721 C 260.477 -4.41863 -2.76418 0
M  V30 2722 C 257.805 -5.21745 -2.68327 0
M  V30 2723 C 260.157 -5.7632 -2.60841 0
M  V30 2724 C 258.821 -6.16354 -2.56251 0
M  V30 2725 H 258.091 -0.437025 -0.598406 0
M  V30 2726 H 260.738 -1.61635 -1.02696 0
M  V30 2727 H 259.043 -1.47429 -3.63004 0
M  V30 2728 H 260.74 -1.85808 -3.55354 0
M  V30 2729 H 257.33 -3.14182 -2.91527 0
M  V30 2730 H 261.514 -4.11285 -2.77775 0
M  V30 2731 H 256.77 -5.51853 -2.63189 0
M  V30 2732 H 260.944 -6.49772 -2.50538 0
M  V30 2733 H 258.571 -7.20401 -2.42748 0
M  V30 2734 N 260.146 1.09593 -1.13257 0
M  V30 2735 C 261.395 1.81105 -0.887917 0
M  V30 2736 C 261.708 1.86563 0.587672 0
M  V30 2737 O 262.914 2.54367 0.949204 0
M  V30 2738 C 261.37 3.25338 -1.53895 0
M  V30 2739 C 260.978 3.28151 -3.04994 0
M  V30 2740 C 262.722 4.01617 -1.37492 0
M  V30 2741 C 260.629 4.66897 -3.6299 0
M  V30 2742 H 259.559 0.678661 -0.328534 0
M  V30 2743 H 262.21 1.23183 -1.36008 0
M  V30 2744 H 260.592 3.8331 -0.994446 0
M  V30 2745 H 261.766 2.79953 -3.66009 0
M  V30 2746 H 260.081 2.65361 -3.20893 0
M  V30 2747 H 262.678 5.04119 -1.78235 0
M  V30 2748 H 263.021 4.15072 -0.31957 0
M  V30 2749 H 263.554 3.50082 -1.88912 0
M  V30 2750 H 260.293 4.58643 -4.68323 0
M  V30 2751 H 259.813 5.15426 -3.06752 0
M  V30 2752 H 261.492 5.3587 -3.62563 0
M  V30 2753 N 261.624 0.925811 1.2754 0
M  V30 2754 C 262.572 0.413897 2.28888 0
M  V30 2755 C 263.566 -0.500779 1.61829 0
M  V30 2756 O 264.772 -0.38069 1.75928 0
M  V30 2757 H 261.147 0.115274 0.743112 0
M  V30 2758 H 263.118 1.28151 2.69481 0
M  V30 2759 C 261.867 -0.319792 3.46226 0
M  V30 2760 H 261.19 0.374846 3.98039 0
M  V30 2761 H 262.63 -0.642435 4.19105 0
M  V30 2762 C 261.089 -1.53209 3.00048 0
M  V30 2763 O 261.619 -2.6309 3.03557 0
M  V30 2764 N 259.825 -1.38326 2.55566 0
M  V30 2765 H 259.372 -0.489292 2.5291 0
M  V30 2766 H 259.33 -2.19564 2.25031 0
M  V30 2767 N 263.102 -1.41638 0.69111 0
M  V30 2768 C 264.065 -2.29178 0.0319786 0
M  V30 2769 C 265.065 -1.44153 -0.712496 0
M  V30 2770 O 266.255 -1.65354 -0.548053 0
M  V30 2771 C 263.387 -3.26952 -0.965161 0
M  V30 2772 H 264.58 -2.88959 0.802681 0
M  V30 2773 H 262.133 -1.4955 0.454356 0
M  V30 2774 H 262.868 -2.72142 -1.76378 0
M  V30 2775 H 262.653 -3.89685 -0.434522 0
M  V30 2776 H 264.143 -3.92561 -1.42428 0
M  V30 2777 N 264.58 -0.43555 -1.51462 0
M  V30 2778 C 265.828 0.131254 -2.01673 0
M  V30 2779 C 266.149 1.43368 -1.32177 0
M  V30 2780 O 265.419 1.90524 -0.455769 0
M  V30 2781 H 263.999 0.0514954 -0.745223 0
M  V30 2782 H 266.661 -0.577847 -1.86137 0
M  V30 2783 H 265.757 0.308446 -3.10572 0
M  V30 2784 N 266.058 1.56714 -0.166846 0
M  V30 2785 C 267.304 1.97813 0.473473 0
M  V30 2786 C 267.659 1.05095 1.61161 0
M  V30 2787 O 266.952 0.0897541 1.9139 0
M  V30 2788 C 267.146 3.42889 1.00806 0
M  V30 2789 C 266.975 4.49635 -0.0767392 0
M  V30 2790 C 265.745 5.02566 -0.524894 0
M  V30 2791 C 267.943 5.06793 -0.875504 0
M  V30 2792 N 265.925 5.9294 -1.59047 0
M  V30 2793 C 267.296 5.93565 -1.79111 0
M  V30 2794 C 269.351 4.89306 -0.921083 0
M  V30 2795 C 268.054 6.64721 -2.74843 0
M  V30 2796 C 270.08 5.61179 -1.86633 0
M  V30 2797 C 269.442 6.47675 -2.76942 0
M  V30 2798 H 265.541 0.769093 0.141489 0
M  V30 2799 H 268.125 1.92874 -0.266031 0
M  V30 2800 H 266.296 3.48382 1.7171 0
M  V30 2801 H 268.028 3.71008 1.61664 0
M  V30 2802 H 264.783 4.73439 -0.123432 0
M  V30 2803 H 265.207 6.42831 -2.12361 0
M  V30 2804 H 269.849 4.22136 -0.23692 0
M  V30 2805 H 267.567 7.31107 -3.44249 0
M  V30 2806 H 271.153 5.49636 -1.90764 0
M  V30 2807 H 270.033 7.02313 -3.48893 0
M  V30 2808 N 267.536 -0.106894 1.57237 0
M  V30 2809 C 268.761 -0.830287 1.90055 0
M  V30 2810 C 269.186 -1.72064 0.75998 0
M  V30 2811 O 268.544 -1.78982 -0.288991 0
M  V30 2812 C 268.592 -1.6295 3.21683 0
M  V30 2813 O 267.696 -2.73748 3.08441 0
M  V30 2814 H 267.037 -0.228855 0.623315 0
M  V30 2815 H 269.567 -0.085658 2.04421 0
M  V30 2816 H 269.577 -2.01621 3.54701 0
M  V30 2817 H 268.252 -0.975989 4.04286 0
M  V30 2818 H 266.829 -2.38192 2.86913 0
M  V30 2819 N 269.014 -1.53014 -0.377408 0
M  V30 2820 C 269.924 -1.81557 -1.48574 0
M  V30 2821 C 270.94 -0.703102 -1.59162 0
M  V30 2822 O 272.116 -0.99192 -1.75279 0
M  V30 2823 C 269.181 -1.9889 -2.83978 0
M  V30 2824 C 268.242 -3.22801 -2.83016 0
M  V30 2825 C 267.475 -3.39298 -4.11962 0
M  V30 2826 O 267.698 -2.60345 -5.0752 0
M  V30 2827 O 266.632 -4.32604 -4.18494 0
M  V30 2828 H 270.458 -2.75695 -1.27382 0
M  V30 2829 H 268.043 -1.38248 -0.566373 0
M  V30 2830 H 269.925 -2.11931 -3.6423 0
M  V30 2831 H 268.6 -1.07942 -3.05172 0
M  V30 2832 H 267.507 -3.15193 -2.01505 0
M  V30 2833 H 268.84 -4.13632 -2.66775 0
M  V30 2834 N 270.492 0.636531 -1.44174 0
M  V30 2835 C 271.769 1.39463 -1.37148 0
M  V30 2836 C 272.149 2.11082 -0.027507 0
M  V30 2837 O 271.497 2.05954 0.989716 0
M  V30 2838 C 271.707 2.36552 -2.56601 0
M  V30 2839 C 273.055 3.00048 -3.00427 0
M  V30 2840 O 274.079 2.46878 -2.56767 0
M  V30 2841 O 272.938 3.96488 -3.76111 0
M  V30 2842 H 270.032 0.623903 -0.542839 0
M  V30 2843 H 272.578 0.662039 -1.56253 0
M  V30 2844 H 271.35 1.82692 -3.46034 0
M  V30 2845 H 270.973 3.17236 -2.39681 0
M  V30 2846 N 271.97 1.30982 0.876444 0
M  V30 2847 C 273.198 1.23242 1.6619 0
M  V30 2848 C 273.613 -0.203345 1.87702 0
M  V30 2849 O 272.97 -1.13317 1.43057 0
M  V30 2850 C 273.021 1.96623 3.03351 0
M  V30 2851 O 272.742 3.34594 2.82804 0
M  V30 2852 C 274.243 1.95644 3.97792 0
M  V30 2853 H 271.463 0.426126 0.518322 0
M  V30 2854 H 274.007 1.7275 1.09442 0
M  V30 2855 H 272.162 1.50892 3.56806 0
M  V30 2856 H 272.576 3.71873 3.69879 0
M  V30 2857 H 274.05 2.51511 4.91372 0
M  V30 2858 H 274.527 0.937395 4.2908 0
M  V30 2859 H 275.133 2.41225 3.50272 0
M  V30 2860 N 273.449 -1.08991 1.13837 0
M  V30 2861 C 274.86 -1.62746 0.914917 0
M  V30 2862 C 275.211 -1.88403 -0.547594 0
M  V30 2863 O 274.336 -1.63706 -1.41525 0
M  V30 2864 C 274.931 -2.95662 1.65437 0
M  V30 2865 C 273.49 -3.46225 1.47666 0
M  V30 2866 C 272.637 -2.20562 1.6807 0
M  V30 2867 H 275.588 -0.922946 1.29102 0
M  V30 2868 H 275.609 -3.63825 1.11407 0
M  V30 2869 H 275.121 -2.76956 2.71877 0
M  V30 2870 H 273.222 -3.70046 0.435478 0
M  V30 2871 H 273.335 -4.23368 2.24268 0
M  V30 2872 H 271.699 -2.29439 1.10589 0
M  V30 2873 H 272.482 -2.0437 2.7584 0
M  V30 2874 N 274.927 -0.932562 -1.27047 0
M  V30 2875 C 276.173 -0.576412 -1.94436 0
M  V30 2876 C 276.506 0.880891 -1.73072 0
M  V30 2877 O 275.781 1.62905 -1.06264 0
M  V30 2878 C 276.064 -0.909031 -3.48437 0
M  V30 2879 C 275.917 -2.42044 -3.79123 0
M  V30 2880 C 277.236 -0.418341 -4.38107 0
M  V30 2881 H 274.355 -0.210888 -0.706184 0
M  V30 2882 H 276.997 -1.16522 -1.50075 0
M  V30 2883 H 275.147 -0.407947 -3.86352 0
M  V30 2884 H 276.819 -2.99359 -3.50973 0
M  V30 2885 H 275.062 -2.86758 -3.25503 0
M  V30 2886 H 275.733 -2.6037 -4.86736 0
M  V30 2887 H 278.209 -0.847856 -4.0737 0
M  V30 2888 H 277.085 -0.679981 -5.44672 0
M  V30 2889 H 277.346 0.681642 -4.36814 0
M  V30 2890 N 276.405 1.4127 -0.698611 0
M  V30 2891 C 277.651 2.01478 -0.231207 0
M  V30 2892 C 277.984 1.55215 1.16713 0
M  V30 2893 O 277.259 0.764672 1.78838 0
M  V30 2894 C 277.542 3.58912 -0.292281 0
M  V30 2895 C 277.395 4.15293 -1.72778 0
M  V30 2896 C 278.714 4.38736 0.346194 0
M  V30 2897 H 275.833 0.732025 -0.0854878 0
M  V30 2898 H 278.475 1.67977 -0.887906 0
M  V30 2899 H 276.625 3.87582 0.26686 0
M  V30 2900 H 278.297 3.97486 -2.341 0
M  V30 2901 H 276.54 3.7022 -2.26096 0
M  V30 2902 H 277.211 5.24452 -1.72202 0
M  V30 2903 H 279.687 4.15897 -0.130035 0
M  V30 2904 H 278.563 5.48221 0.272932 0
M  V30 2905 H 278.824 4.18425 1.42734 0
M  V30 2906 N 277.883 0.443576 1.51229 0
M  V30 2907 C 279.129 -0.120975 2.02439 0
M  V30 2908 C 279.462 -1.41815 1.32674 0
M  V30 2909 O 278.737 -1.89373 0.443622 0
M  V30 2910 C 279.02 -0.333291 3.58554 0
M  V30 2911 C 278.873 0.982968 4.38928 0
M  V30 2912 C 280.192 -1.10028 4.26124 0
M  V30 2913 H 277.311 -0.0424923 0.735774 0
M  V30 2914 H 279.953 0.583794 1.80809 0
M  V30 2915 H 278.103 -0.933614 3.77115 0
M  V30 2916 H 279.775 1.61775 4.32003 0
M  V30 2917 H 278.018 1.58611 4.03763 0
M  V30 2918 H 278.689 0.788379 5.46341 0
M  V30 2919 H 281.165 -0.591711 4.11871 0
M  V30 2920 H 280.041 -1.21761 5.35225 0
M  V30 2921 H 280.302 -2.12996 3.87408 0
M  V30 2922 N 279.361 -1.56624 0.175154 0
M  V30 2923 C 280.607 -1.9729 -0.469506 0
M  V30 2924 C 280.94 -1.06128 -1.62636 0
M  V30 2925 O 280.215 -0.109183 -1.94193 0
M  V30 2926 C 280.498 -3.47375 -0.948804 0
M  V30 2927 C 280.351 -4.49317 0.208491 0
M  V30 2928 C 281.67 -4.00652 -1.82116 0
M  V30 2929 H 278.789 -0.717317 -0.16919 0
M  V30 2930 H 281.431 -1.88184 0.262062 0
M  V30 2931 H 279.581 -3.55267 -1.57219 0
M  V30 2932 H 281.253 -4.53482 0.845682 0
M  V30 2933 H 279.496 -4.25121 0.863395 0
M  V30 2934 H 280.167 -5.51741 -0.169059 0
M  V30 2935 H 282.643 -3.95416 -1.2956 0
M  V30 2936 H 281.519 -5.06075 -2.12554 0
M  V30 2937 H 281.78 -3.44699 -2.7683 0
M  V30 2938 N 280.839 0.0985539 -1.57292 0
M  V30 2939 C 282.069 0.815135 -1.8984 0
M  V30 2940 C 282.477 1.7297 -0.766679 0
M  V30 2941 O 281.82 1.81698 0.270483 0
M  V30 2942 C 281.882 1.6842 -3.17608 0
M  V30 2943 C 281.546 0.94182 -4.4719 0
M  V30 2944 C 282.543 0.273212 -5.19182 0
M  V30 2945 C 280.228 0.916927 -4.9386 0
M  V30 2946 C 282.222 -0.410361 -6.36078 0
M  V30 2947 C 279.909 0.229567 -6.10669 0
M  V30 2948 C 280.907 -0.432902 -6.81627 0
M  V30 2949 O 280.595 -1.10925 -7.9621 0
M  V30 2950 H 280.327 0.238501 -0.632529 0
M  V30 2951 H 282.881 0.0812659 -2.05239 0
M  V30 2952 H 281.111 2.46022 -2.98345 0
M  V30 2953 H 282.8 2.27704 -3.36015 0
M  V30 2954 H 283.566 0.283927 -4.84168 0
M  V30 2955 H 279.445 1.42201 -4.3852 0
M  V30 2956 H 282.989 -0.928013 -6.914 0
M  V30 2957 H 278.886 0.216686 -6.45136 0
M  V30 2958 H 279.654 -1.01579 -8.12172 0
M  V30 2959 N 282.317 1.53212 0.369288 0
M  V30 2960 C 283.264 1.79388 1.45219 0
M  V30 2961 C 284.234 0.638059 1.53356 0
M  V30 2962 O 285.419 0.879852 1.69302 0
M  V30 2963 C 282.559 1.98623 2.82211 0
M  V30 2964 C 281.672 3.26337 2.8307 0
M  V30 2965 C 280.807 3.35779 4.11614 0
M  V30 2966 C 279.846 4.5754 4.06601 0
M  V30 2967 N 278.983 4.64155 5.26787 0
M  V30 2968 H 283.823 2.71794 1.22198 0
M  V30 2969 H 281.36 1.34642 0.592444 0
M  V30 2970 H 283.318 2.07761 3.61789 0
M  V30 2971 H 281.948 1.09558 3.03639 0
M  V30 2972 H 281 3.26171 1.95747 0
M  V30 2973 H 282.312 4.15988 2.75237 0
M  V30 2974 H 281.466 3.44208 4.99606 0
M  V30 2975 H 280.205 2.44137 4.22195 0
M  V30 2976 H 279.21 4.49215 3.16996 0
M  V30 2977 H 280.435 5.50519 3.97625 0
M  V30 2978 H 278.381 3.75413 5.3796 0
M  V30 2979 H 278.298 5.47706 5.21109 0
M  V30 2980 H 279.566 4.76863 6.16621 0
M  V30 2981 N 283.795 -0.628877 1.44509 0
M  V30 2982 C 284.758 -1.72263 1.51188 0
M  V30 2983 C 285.758 -1.55907 0.39367 0
M  V30 2984 O 286.948 -1.61361 0.656377 0
M  V30 2985 C 284.08 -3.11365 1.38798 0
M  V30 2986 H 285.273 -1.67714 2.4862 0
M  V30 2987 H 282.826 -0.842737 1.31634 0
M  V30 2988 H 283.561 -3.21507 0.424693 0
M  V30 2989 H 283.346 -3.24644 2.19884 0
M  V30 2990 H 284.836 -3.91075 1.46458 0
M  V30 2991 N 285.273 -1.31445 -0.869486 0
M  V30 2992 C 286.501 -1.24122 -1.65534 0
M  V30 2993 C 286.916 0.193387 -1.87807 0
M  V30 2994 O 286.273 1.12557 -1.43656 0
M  V30 2995 C 286.324 -1.98229 -3.02304 0
M  V30 2996 O 286.045 -3.3609 -2.81026 0
M  V30 2997 C 287.546 -1.97751 -3.96749 0
M  V30 2998 H 284.766 -0.428868 -0.516055 0
M  V30 2999 H 287.31 -1.73328 -1.08525 0
M  V30 3000 H 285.465 -1.52782 -3.56001 0
M  V30 3001 H 285.879 -3.7383 -3.67902 0
M  V30 3002 H 287.353 -2.54114 -4.90031 0
M  V30 3003 H 287.83 -0.960137 -4.28577 0
M  V30 3004 H 288.436 -2.43079 -3.48988 0
M  V30 3005 N 286.751 1.08385 -1.14413 0
M  V30 3006 C 287.997 1.81212 -0.923793 0
M  V30 3007 C 288.352 1.84555 0.543814 0
M  V30 3008 O 287.645 1.31056 1.39767 0
M  V30 3009 C 287.839 3.26273 -1.45879 0
M  V30 3010 C 287.668 3.37063 -2.97689 0
M  V30 3011 C 286.438 3.4824 -3.66138 0
M  V30 3012 C 288.636 3.28698 -3.95553 0
M  V30 3013 N 286.618 3.47824 -5.05858 0
M  V30 3014 C 287.989 3.35276 -5.21527 0
M  V30 3015 C 290.044 3.12437 -3.8767 0
M  V30 3016 C 288.747 3.27267 -6.40538 0
M  V30 3017 C 290.773 3.05757 -5.06228 0
M  V30 3018 C 290.135 3.12938 -6.3107 0
M  V30 3019 H 286.234 0.6769 -0.391574 0
M  V30 3020 H 288.818 1.29455 -1.45429 0
M  V30 3021 H 286.989 3.76474 -0.95507 0
M  V30 3022 H 288.721 3.87165 -1.17835 0
M  V30 3023 H 285.476 3.52141 -3.16692 0
M  V30 3024 H 285.9 3.51171 -5.78798 0
M  V30 3025 H 290.542 3.05747 -2.92025 0
M  V30 3026 H 288.26 3.32718 -7.36427 0
M  V30 3027 H 291.846 2.94295 -5.01878 0
M  V30 3028 H 290.726 3.078 -7.21269 0
M  V30 3029 N 288.23 0.939286 1.26551 0
M  V30 3030 C 289.641 0.628782 1.75793 0
M  V30 3031 C 289.992 -0.856046 1.7654 0
M  V30 3032 O 289.117 -1.66994 1.3763 0
M  V30 3033 C 289.712 1.13465 3.19235 0
M  V30 3034 C 288.271 0.874601 3.66098 0
M  V30 3035 C 287.418 1.28667 2.45642 0
M  V30 3036 H 290.369 1.1178 1.12654 0
M  V30 3037 H 290.39 0.487609 3.77363 0
M  V30 3038 H 289.902 2.21535 3.1866 0
M  V30 3039 H 288.003 -0.191793 3.72106 0
M  V30 3040 H 288.116 1.50028 4.55004 0
M  V30 3041 H 286.48 0.705109 2.44745 0
M  V30 3042 H 287.263 2.37625 2.47769 0
M  V30 3043 N 289.708 -1.40897 0.706093 0
M  V30 3044 C 290.985 -1.94868 0.169099 0
M  V30 3045 C 291.365 -1.64485 -1.32318 0
M  V30 3046 O 290.713 -0.95744 -2.07474 0
M  V30 3047 C 290.923 -3.45798 0.471654 0
M  V30 3048 C 292.271 -4.22663 0.405127 0
M  V30 3049 O 293.295 -3.53865 0.407168 0
M  V30 3050 O 292.154 -5.45216 0.374383 0
M  V30 3051 H 289.248 -0.82673 0.0211352 0
M  V30 3052 H 291.794 -1.50558 0.782976 0
M  V30 3053 H 290.566 -3.61235 1.50416 0
M  V30 3054 H 290.189 -3.97225 -0.172666 0
M  V30 3055 N 291.186 -0.45159 -1.50991 0
M  V30 3056 C 292.096 0.358431 -2.31846 0
M  V30 3057 C 293.112 1.01438 -1.41373 0
M  V30 3058 O 294.288 1.00663 -1.74439 0
M  V30 3059 C 291.353 1.43704 -3.15515 0
M  V30 3060 C 290.414 0.799742 -4.21785 0
M  V30 3061 C 289.647 1.82696 -5.01456 0
M  V30 3062 O 289.87 3.05105 -4.81941 0
M  V30 3063 O 288.804 1.40958 -5.85162 0
M  V30 3064 H 292.63 -0.302032 -3.02194 0
M  V30 3065 H 290.215 -0.213825 -1.47862 0
M  V30 3066 H 292.097 2.06227 -3.67489 0
M  V30 3067 H 290.772 2.08133 -2.47916 0
M  V30 3068 H 289.679 0.136084 -3.73852 0
M  V30 3069 H 291.012 0.198718 -4.91799 0
M  V30 3070 N 292.664 1.56529 -0.183458 0
M  V30 3071 C 293.611 2.18546 0.742055 0
M  V30 3072 C 294.581 1.12912 1.2182 0
M  V30 3073 O 295.766 1.41115 1.28418 0
M  V30 3074 C 292.906 2.83977 1.96089 0
M  V30 3075 C 292.019 4.04105 1.52719 0
M  V30 3076 C 291.154 4.57427 2.70063 0
M  V30 3077 C 290.193 5.69938 2.23243 0
M  V30 3078 N 289.33 6.17717 3.33722 0
M  V30 3079 H 294.17 2.97284 0.206432 0
M  V30 3080 H 291.707 1.46823 0.0901571 0
M  V30 3081 H 293.665 3.20077 2.67594 0
M  V30 3082 H 292.295 2.07822 2.47002 0
M  V30 3083 H 291.347 3.73745 0.708436 0
M  V30 3084 H 292.659 4.85513 1.1436 0
M  V30 3085 H 291.813 4.95772 3.49708 0
M  V30 3086 H 290.552 3.75101 3.11689 0
M  V30 3087 H 289.557 5.31133 1.42048 0
M  V30 3088 H 290.782 6.54073 1.82661 0
M  V30 3089 H 288.728 5.38317 3.74902 0
M  V30 3090 H 288.645 6.94146 2.99495 0
M  V30 3091 H 289.913 6.60713 4.13616 0
M  V30 3092 N 294.142 -0.090211 1.57342 0
M  V30 3093 C 295.391 -0.791531 1.8552 0
M  V30 3094 C 295.704 -1.79659 0.773441 0
M  V30 3095 O 296.91 -2.54616 0.942497 0
M  V30 3096 C 295.366 -1.45856 3.2902 0
M  V30 3097 C 294.974 -0.493017 4.45279 0
M  V30 3098 C 296.718 -2.14332 3.66418 0
M  V30 3099 C 294.625 -1.16491 5.79814 0
M  V30 3100 H 293.555 -0.299356 0.692027 0
M  V30 3101 H 296.206 -0.0445343 1.83446 0
M  V30 3102 H 294.588 -2.25318 3.2565 0
M  V30 3103 H 295.762 0.270464 4.60006 0
M  V30 3104 H 294.077 0.0863061 4.16311 0
M  V30 3105 H 296.674 -2.65344 4.64216 0
M  V30 3106 H 297.017 -2.93447 2.95287 0
M  V30 3107 H 297.55 -1.41724 3.71698 0
M  V30 3108 H 294.289 -0.41447 6.54188 0
M  V30 3109 H 293.809 -1.8997 5.68921 0
M  V30 3110 H 295.488 -1.69001 6.24538 0
M  V30 3111 N 295.62 -1.53406 -0.361157 0
M  V30 3112 C 296.866 -1.70054 -1.10496 0
M  V30 3113 C 297.199 -0.453278 -1.88836 0
M  V30 3114 O 296.474 0.5495 -1.86576 0
M  V30 3115 C 296.757 -2.95317 -2.06058 0
M  V30 3116 C 296.61 -4.3021 -1.31298 0
M  V30 3117 C 297.929 -3.16193 -3.06121 0
M  V30 3118 H 295.048 -0.618799 -0.400321 0
M  V30 3119 H 297.69 -1.86052 -0.385318 0
M  V30 3120 H 295.84 -2.81809 -2.67425 0
M  V30 3121 H 297.512 -4.55538 -0.726807 0
M  V30 3122 H 295.755 -4.29421 -0.614853 0
M  V30 3123 H 296.426 -5.14 -2.01265 0
M  V30 3124 H 298.902 -3.28916 -2.5486 0
M  V30 3125 H 297.778 -4.05266 -3.70204 0
M  V30 3126 H 298.039 -2.31676 -3.76535 0
M  V30 3127 N 297.098 0.621204 -1.44841 0
M  V30 3128 C 298.514 0.94048 -1.28946 0
M  V30 3129 C 298.714 2.00154 -0.23249 0
M  V30 3130 O 297.77 2.49651 0.378237 0
M  V30 3131 C 299.083 1.39433 -2.66419 0
M  V30 3132 C 300.631 1.50927 -2.74208 0
M  V30 3133 C 301.106 1.99692 -4.12174 0
M  V30 3134 N 302.597 2.06947 -4.144 0
M  V30 3135 C 303.332 2.45871 -5.1801 0
M  V30 3136 N 302.828 2.83862 -6.31977 0
M  V30 3137 N 304.621 2.46092 -5.05366 0
M  V30 3138 H 296.772 -0.0803548 -2.12248 0
M  V30 3139 H 299.035 0.0266913 -0.947624 0
M  V30 3140 H 298.741 0.688925 -3.44887 0
M  V30 3141 H 298.615 2.36347 -2.93973 0
M  V30 3142 H 301.002 2.20561 -1.96053 0
M  V30 3143 H 301.083 0.523627 -2.50383 0
M  V30 3144 H 300.727 1.30649 -4.90809 0
M  V30 3145 H 300.657 2.99146 -4.33381 0
M  V30 3146 H 303.148 1.80232 -3.32152 0
M  V30 3147 H 303.461 3.12405 -7.0684 0
M  V30 3148 H 301.806 2.8159 -6.35399 0
M  V30 3149 H 304.997 2.1581 -4.15384 0
M  V30 3150 H 305.17 2.76102 -5.86235 0
M  V30 3151 N 298.576 1.31904 0.862503 0
M  V30 3152 C 299.804 1.24998 1.64873 0
M  V30 3153 C 300.219 -0.183425 1.87907 0
M  V30 3154 O 299.576 -1.11794 1.44251 0
M  V30 3155 C 299.627 1.99829 3.01248 0
M  V30 3156 O 299.348 3.37575 2.79239 0
M  V30 3157 C 300.849 1.99852 3.95694 0
M  V30 3158 H 298.069 0.431599 0.513773 0
M  V30 3159 H 300.613 1.73901 1.07604 0
M  V30 3160 H 298.768 1.54668 3.55185 0
M  V30 3161 H 299.182 3.75776 3.65914 0
M  V30 3162 H 300.656 2.56709 4.88676 0
M  V30 3163 H 301.133 0.982852 4.28062 0
M  V30 3164 H 301.739 2.44926 3.47694 0
M  V30 3165 N 300.054 -1.07777 1.14986 0
M  V30 3166 C 301.282 -1.84018 0.945773 0
M  V30 3167 C 301.697 -1.81897 -0.505863 0
M  V30 3168 O 301.054 -1.22726 -1.35072 0
M  V30 3169 C 301.105 -3.31287 1.44677 0
M  V30 3170 O 300.826 -3.33449 2.84154 0
M  V30 3171 C 302.327 -4.24311 1.28355 0
M  V30 3172 H 299.547 -0.580716 0.336169 0
M  V30 3173 H 302.091 -1.36077 1.52654 0
M  V30 3174 H 300.246 -3.76594 0.908625 0
M  V30 3175 H 300.66 -4.25427 3.06777 0
M  V30 3176 H 302.134 -5.2573 1.68261 0
M  V30 3177 H 302.611 -4.38612 0.227184 0
M  V30 3178 H 303.217 -3.84836 1.81056 0
M  V30 3179 N 301.532 -0.945985 -1.26051 0
M  V30 3180 C 302.778 -0.597002 -1.93814 0
M  V30 3181 C 303.111 0.862484 -1.73997 0
M  V30 3182 O 302.386 1.61769 -1.07986 0
M  V30 3183 C 302.669 -0.945937 -3.47454 0
M  V30 3184 C 302.522 -2.46052 -3.76535 0
M  V30 3185 C 303.841 -0.464785 -4.37639 0
M  V30 3186 H 300.96 -0.218366 -0.703907 0
M  V30 3187 H 303.602 -1.18107 -1.48831 0
M  V30 3188 H 301.752 -0.448902 -3.85898 0
M  V30 3189 H 303.424 -3.03065 -3.47778 0
M  V30 3190 H 301.667 -2.90194 -3.22444 0
M  V30 3191 H 302.338 -2.65517 -4.83947 0
M  V30 3192 H 304.814 -0.891016 -4.06448 0
M  V30 3193 H 303.69 -0.737712 -5.4392 0
M  V30 3194 H 303.951 0.635274 -4.37512 0
M  V30 3195 N 303.011 1.40521 -0.713556 0
M  V30 3196 C 303.958 2.30723 -0.059684 0
M  V30 3197 C 304.928 1.48079 0.752448 0
M  V30 3198 O 306.113 1.76823 0.71681 0
M  V30 3199 C 303.253 3.34274 0.857594 0
M  V30 3200 C 302.366 4.31986 0.0351536 0
M  V30 3201 C 301.501 5.22605 0.951724 0
M  V30 3202 C 300.54 6.11976 0.123253 0
M  V30 3203 N 299.677 6.9502 0.99459 0
M  V30 3204 H 304.517 2.86074 -0.834596 0
M  V30 3205 H 302.054 1.40879 -0.42326 0
M  V30 3206 H 304.012 3.92879 1.40364 0
M  V30 3207 H 302.642 2.8043 1.59871 0
M  V30 3208 H 301.694 3.7518 -0.628052 0
M  V30 3209 H 303.006 4.95101 -0.606347 0
M  V30 3210 H 302.16 5.86131 1.56638 0
M  V30 3211 H 300.899 4.59759 1.62705 0
M  V30 3212 H 299.904 5.47482 -0.50435 0
M  V30 3213 H 301.129 6.76881 -0.548539 0
M  V30 3214 H 299.075 6.34764 1.6556 0
M  V30 3215 H 298.992 7.54892 0.40908 0
M  V30 3216 H 300.26 7.62997 1.59549 0
M  V30 3217 N 304.489 0.459591 1.5075 0
M  V30 3218 C 305.766 -0.160371 1.94941 0
M  V30 3219 C 306.146 -1.58048 1.39943 0
M  V30 3220 O 305.494 -2.206 0.595629 0
M  V30 3221 C 305.704 -0.115432 3.48809 0
M  V30 3222 C 307.052 -0.310026 4.23467 0
M  V30 3223 O 308.076 -0.192543 3.55679 0
M  V30 3224 O 306.935 -0.546031 5.43765 0
M  V30 3225 H 304.029 -0.117925 0.818549 0
M  V30 3226 H 306.575 0.519169 1.61563 0
M  V30 3227 H 305.347 0.87652 3.81357 0
M  V30 3228 H 304.97 -0.836928 3.88692 0
M  V30 3229 N 305.967 -1.56429 0.191757 0
M  V30 3230 C 306.897 -2.21937 -0.725696 0
M  V30 3231 C 307.878 -1.1814 -1.2238 0
M  V30 3232 O 309.063 -1.46636 -1.27325 0
M  V30 3233 C 306.193 -2.87611 -1.94672 0
M  V30 3234 C 305.147 -3.97623 -1.58366 0
M  V30 3235 C 304.473 -4.50446 -2.88102 0
M  V30 3236 C 305.773 -5.16197 -0.796133 0
M  V30 3237 H 307.467 -2.98861 -0.179606 0
M  V30 3238 H 305.013 -1.43749 -0.0849464 0
M  V30 3239 H 306.966 -3.3212 -2.59373 0
M  V30 3240 H 305.69 -2.08087 -2.51728 0
M  V30 3241 H 304.349 -3.53801 -0.960247 0
M  V30 3242 H 303.997 -3.67688 -3.43241 0
M  V30 3243 H 303.697 -5.24675 -2.64556 0
M  V30 3244 H 305.221 -4.97654 -3.53798 0
M  V30 3245 H 306.635 -5.57271 -1.34618 0
M  V30 3246 H 305.032 -5.96471 -0.658928 0
M  V30 3247 H 306.102 -4.84473 0.203478 0
M  V30 3248 N 307.445 0.0818655 -1.57387 0
M  V30 3249 C 308.722 0.815343 -1.77796 0
M  V30 3250 C 309.102 1.96289 -0.77679 0
M  V30 3251 O 308.45 2.27691 0.192106 0
M  V30 3252 C 308.66 1.29765 -3.23978 0
M  V30 3253 C 310.008 1.7351 -3.8753 0
M  V30 3254 O 311.032 1.39356 -3.27808 0
M  V30 3255 O 309.891 2.36708 -4.92576 0
M  V30 3256 H 306.985 0.389914 -0.729312 0
M  V30 3257 H 309.531 0.0627213 -1.69584 0
M  V30 3258 H 308.303 0.47608 -3.88393 0
M  V30 3259 H 307.926 2.11189 -3.36875 0
M  V30 3260 N 308.923 1.53595 0.353017 0
M  V30 3261 C 310.2 1.61002 1.11075 0
M  V30 3262 C 310.58 0.425356 2.0677 0
M  V30 3263 O 309.928 -0.583267 2.2093 0
M  V30 3264 C 310.138 2.96631 1.83877 0
M  V30 3265 C 311.486 3.51653 2.37961 0
M  V30 3266 O 312.51 2.98743 1.93987 0
M  V30 3267 O 311.369 4.44177 3.18386 0
M  V30 3268 H 308.463 0.650825 0.510251 0
M  V30 3269 H 311.009 1.6594 0.35527 0
M  V30 3270 H 309.781 3.74293 1.14108 0
M  V30 3271 H 309.404 2.95242 2.66304 0
M  V30 3272 N 310.401 -0.613514 1.45168 0
M  V30 3273 C 311.364 -1.7065 1.53007 0
M  V30 3274 C 312.364 -1.5548 0.410184 0
M  V30 3275 O 313.554 -1.60656 0.673455 0
M  V30 3276 C 310.686 -3.09875 1.42093 0
M  V30 3277 H 311.879 -1.65068 2.50385 0
M  V30 3278 H 309.432 -0.828728 1.32521 0
M  V30 3279 H 310.167 -3.21039 0.458769 0
M  V30 3280 H 309.952 -3.22293 2.23315 0
M  V30 3281 H 311.442 -3.895 1.50598 0
M  V30 3282 N 311.879 -1.3236 -0.855495 0
M  V30 3283 C 312.812 -1.15559 -1.96777 0
M  V30 3284 C 313.79 -0.0552681 -1.62506 0
M  V30 3285 O 314.974 -0.214419 -1.87277 0
M  V30 3286 C 312.101 -0.768851 -3.29858 0
M  V30 3287 C 311.147 -1.87429 -3.83109 0
M  V30 3288 S 311.98 -3.48243 -4.06801 0
M  V30 3289 C 313.136 -3.11539 -5.42858 0
M  V30 3290 H 313.369 -2.09717 -2.10727 0
M  V30 3291 H 310.902 -1.17011 -1.00737 0
M  V30 3292 H 312.86 -0.55248 -4.06765 0
M  V30 3293 H 311.521 0.153857 -3.13723 0
M  V30 3294 H 310.714 -1.55667 -4.79358 0
M  V30 3295 H 310.316 -2.04647 -3.13042 0
M  V30 3296 H 312.608 -2.61331 -6.2507 0
M  V30 3297 H 313.551 -4.06806 -5.79582 0
M  V30 3298 H 313.959 -2.48582 -5.06821 0
M  V30 3299 N 313.357 1.07166 -1.15556 0
M  V30 3300 C 314.773 1.31899 -0.898603 0
M  V30 3301 C 314.973 1.96333 0.453383 0
M  V30 3302 O 314.029 2.22438 1.19489 0
M  V30 3303 C 315.342 2.20826 -2.04099 0
M  V30 3304 C 316.89 2.34269 -2.07574 0
M  V30 3305 C 317.365 3.26546 -3.21141 0
M  V30 3306 N 318.856 3.34127 -3.20801 0
M  V30 3307 C 319.591 4.05595 -4.05315 0
M  V30 3308 N 319.087 4.79661 -4.99897 0
M  V30 3309 N 320.88 4.01555 -3.93332 0
M  V30 3310 H 313.031 0.637302 -2.02613 0
M  V30 3311 H 315.294 0.343468 -0.883591 0
M  V30 3312 H 315 1.80744 -3.01703 0
M  V30 3313 H 314.874 3.21364 -1.97496 0
M  V30 3314 H 317.261 2.73603 -1.10568 0
M  V30 3315 H 317.342 1.33429 -2.18244 0
M  V30 3316 H 316.986 2.87931 -4.184 0
M  V30 3317 H 316.916 4.27345 -3.07708 0
M  V30 3318 H 319.407 2.81336 -2.52306 0
M  V30 3319 H 319.72 5.31694 -5.60822 0
M  V30 3320 H 318.065 4.78671 -5.03884 0
M  V30 3321 H 321.256 3.42806 -3.18751 0
M  V30 3322 H 321.429 4.56987 -4.5942 0
M  V30 3323 N 314.835 0.952656 1.25548 0
M  V30 3324 C 316.063 0.623496 1.97282 0
M  V30 3325 C 316.478 -0.803987 1.70826 0
M  V30 3326 O 315.835 -1.53755 0.983147 0
M  V30 3327 C 315.886 0.870209 3.5087 0
M  V30 3328 O 315.607 2.24156 3.76412 0
M  V30 3329 C 317.108 0.553164 4.39835 0
M  V30 3330 H 314.328 0.233931 0.628902 0
M  V30 3331 H 316.872 1.27649 1.59768 0
M  V30 3332 H 315.027 0.263652 3.86502 0
M  V30 3333 H 315.441 2.31021 4.70882 0
M  V30 3334 H 316.915 0.776342 5.46513 0
M  V30 3335 H 317.392 -0.512215 4.36203 0
M  V30 3336 H 317.998 1.13896 4.09766 0
M  V30 3337 N 316.313 -1.40141 0.720998 0
M  V30 3338 C 317.261 -2.3252 0.0608547 0
M  V30 3339 C 318.255 -1.52326 -0.741152 0
M  V30 3340 O 319.461 -1.68089 -0.643911 0
M  V30 3341 H 315.836 -0.751999 0.000876664 0
M  V30 3342 H 317.807 -2.8584 0.856614 0
M  V30 3343 C 316.556 -3.37331 -0.842809 0
M  V30 3344 H 315.879 -3.99108 -0.235084 0
M  V30 3345 H 317.319 -4.04452 -1.27257 0
M  V30 3346 C 315.778 -2.73246 -1.97074 0
M  V30 3347 O 316.308 -2.59998 -3.06209 0
M  V30 3348 N 314.514 -2.31547 -1.75597 0
M  V30 3349 H 314.061 -2.42522 -0.868368 0
M  V30 3350 H 314.019 -1.89007 -2.51244 0
M  V30 3351 N 317.792 -0.46758 -1.50504 0
M  V30 3352 C 319.04 0.0884469 -2.01906 0
M  V30 3353 C 319.361 1.40532 -1.35188 0
M  V30 3354 O 318.631 1.89515 -0.496079 0
M  V30 3355 H 317.211 0.0356765 -0.746148 0
M  V30 3356 H 319.873 -0.6172 -1.84869 0
M  V30 3357 H 318.969 0.2425 -3.11156 0
M  V30 3358 N 319.27 1.56325 -0.20005 0
M  V30 3359 C 320.519 1.96895 0.437652 0
M  V30 3360 C 320.832 1.08999 1.62415 0
M  V30 3361 O 322.038 1.39372 2.32997 0
M  V30 3362 C 320.494 3.50198 0.830025 0
M  V30 3363 C 320.102 4.46765 -0.332461 0
M  V30 3364 C 321.846 3.99526 1.43453 0
M  V30 3365 C 319.753 5.91344 0.0811468 0
M  V30 3366 H 318.683 0.735209 0.167282 0
M  V30 3367 H 321.334 1.81148 -0.292853 0
M  V30 3368 H 319.716 3.61467 1.61734 0
M  V30 3369 H 320.89 4.47231 -1.11 0
M  V30 3370 H 319.205 4.07657 -0.848789 0
M  V30 3371 H 321.802 5.05025 1.75652 0
M  V30 3372 H 322.145 3.44122 2.34277 0
M  V30 3373 H 322.678 3.91393 0.71109 0
M  V30 3374 H 319.417 6.50685 -0.793033 0
M  V30 3375 H 318.937 5.94121 0.823445 0
M  V30 3376 H 320.616 6.44945 0.515252 0
M  V30 3377 N 320.748 -0.0735177 1.57428 0
M  V30 3378 C 322.164 -0.428264 1.53747 0
M  V30 3379 C 322.364 -1.79272 0.91998 0
M  V30 3380 O 321.42 -2.47051 0.521745 0
M  V30 3381 C 322.733 -0.370914 2.98404 0
M  V30 3382 C 324.281 -0.451224 3.0973 0
M  V30 3383 C 324.756 -0.4238 4.56035 0
M  V30 3384 N 326.247 -0.483925 4.60665 0
M  V30 3385 C 326.982 -0.484891 5.71346 0
M  V30 3386 N 326.478 -0.440775 6.91396 0
M  V30 3387 N 328.271 -0.531319 5.59583 0
M  V30 3388 H 320.422 0.819949 1.95935 0
M  V30 3389 H 322.685 0.307493 0.896745 0
M  V30 3390 H 322.391 0.564956 3.47133 0
M  V30 3391 H 322.265 -1.18176 3.5821 0
M  V30 3392 H 324.652 -1.37752 2.60976 0
M  V30 3393 H 324.733 0.388167 2.52838 0
M  V30 3394 H 324.377 0.498638 5.05446 0
M  V30 3395 H 324.307 -1.2807 5.10789 0
M  V30 3396 H 326.798 -0.522338 3.74273 0
M  V30 3397 H 327.111 -0.44539 7.71515 0
M  V30 3398 H 325.456 -0.40749 6.93804 0
M  V30 3399 H 328.647 -0.563464 4.64696 0
M  V30 3400 H 328.82 -0.528603 6.4584 0
M  V30 3401 N 322.226 -1.5378 -0.344866 0
M  V30 3402 C 323.173 -1.81676 -1.42346 0
M  V30 3403 C 324.143 -0.662376 -1.52321 0
M  V30 3404 O 325.328 -0.906675 -1.67881 0
M  V30 3405 C 322.468 -2.03087 -2.79015 0
M  V30 3406 C 321.581 -3.30799 -2.77842 0
M  V30 3407 C 320.716 -3.42285 -4.0622 0
M  V30 3408 C 319.755 -4.6395 -3.9927 0
M  V30 3409 N 318.892 -4.72477 -5.19336 0
M  V30 3410 H 323.732 -2.73703 -1.17858 0
M  V30 3411 H 321.269 -1.35568 -0.570949 0
M  V30 3412 H 323.227 -2.1349 -3.58438 0
M  V30 3413 H 321.857 -1.14375 -3.01858 0
M  V30 3414 H 320.909 -3.29244 -1.90533 0
M  V30 3415 H 322.221 -4.20314 -2.68584 0
M  V30 3416 H 321.375 -3.52113 -4.94066 0
M  V30 3417 H 320.114 -2.50823 -4.18258 0
M  V30 3418 H 319.119 -4.54201 -3.09809 0
M  V30 3419 H 320.344 -5.56775 -3.88817 0
M  V30 3420 H 318.29 -3.83924 -5.3192 0
M  V30 3421 H 318.207 -5.55927 -5.12329 0
M  V30 3422 H 319.475 -4.86613 -6.08957 0
M  V30 3423 N 323.704 0.605807 -1.45491 0
M  V30 3424 C 324.636 1.73031 -1.5031 0
M  V30 3425 C 325.649 1.57968 -0.393687 0
M  V30 3426 O 326.838 1.65817 -0.660839 0
M  V30 3427 C 323.938 3.11049 -1.34543 0
M  V30 3428 C 323.111 3.52334 -2.59189 0
M  V30 3429 C 322.17 4.69323 -2.37954 0
M  V30 3430 O 321.196 4.7635 -3.11575 0
M  V30 3431 N 322.398 5.62705 -1.4263 0
M  V30 3432 H 325.163 1.6936 -2.4726 0
M  V30 3433 H 322.724 0.79114 -1.41254 0
M  V30 3434 H 324.716 3.87071 -1.18144 0
M  V30 3435 H 323.286 3.09217 -0.458623 0
M  V30 3436 H 322.506 2.66256 -2.90691 0
M  V30 3437 H 323.794 3.76677 -3.42041 0
M  V30 3438 H 323.192 5.59744 -0.818758 0
M  V30 3439 H 321.749 6.38252 -1.32202 0
M  V30 3440 N 325.182 1.32811 0.848464 0
M  V30 3441 C 326.145 1.22194 1.9391 0
M  V30 3442 C 327.145 0.143404 1.60159 0
M  V30 3443 O 328.335 0.394253 1.6968 0
M  V30 3444 C 325.467 0.88067 3.29328 0
M  V30 3445 H 326.66 2.19127 2.04752 0
M  V30 3446 H 324.213 1.16731 1.0394 0
M  V30 3447 H 324.948 -0.0865776 3.24184 0
M  V30 3448 H 324.733 1.66052 3.55203 0
M  V30 3449 H 326.223 0.830871 4.09251 0
M  V30 3450 N 326.66 -1.06551 1.16123 0
M  V30 3451 C 327.593 -2.13382 0.80892 0
M  V30 3452 C 328.571 -1.61128 -0.21827 0
M  V30 3453 O 329.755 -1.88219 -0.102952 0
M  V30 3454 C 326.882 -3.38083 0.204303 0
M  V30 3455 C 325.928 -4.09133 1.20469 0
M  V30 3456 S 326.761 -4.5948 2.75024 0
M  V30 3457 C 327.917 -5.87446 2.16005 0
M  V30 3458 H 328.15 -2.42937 1.71373 0
M  V30 3459 H 325.683 -1.18947 0.984428 0
M  V30 3460 H 327.641 -4.10268 -0.138081 0
M  V30 3461 H 326.302 -3.0669 -0.678234 0
M  V30 3462 H 325.495 -4.98685 0.730019 0
M  V30 3463 H 325.097 -3.4295 1.49202 0
M  V30 3464 H 327.389 -6.60065 1.5271 0
M  V30 3465 H 328.332 -6.39639 3.03756 0
M  V30 3466 H 328.74 -5.41354 1.59989 0
M  V30 3467 N 328.138 -0.959301 -1.25041 0
M  V30 3468 C 329.387 -0.612254 -1.92183 0
M  V30 3469 C 329.7 0.855347 -1.75907 0
M  V30 3470 O 330.906 1.31256 -2.37664 0
M  V30 3471 C 329.362 -1.04435 -3.44414 0
M  V30 3472 C 328.97 -2.53482 -3.69393 0
M  V30 3473 C 330.714 -0.770055 -4.17457 0
M  V30 3474 C 328.621 -2.90468 -5.15153 0
M  V30 3475 H 327.551 -0.225279 -0.719559 0
M  V30 3476 H 330.202 -1.16438 -1.41825 0
M  V30 3477 H 328.584 -0.4206 -3.9376 0
M  V30 3478 H 329.758 -3.20916 -3.30681 0
M  V30 3479 H 328.073 -2.78432 -3.0962 0
M  V30 3480 H 330.67 -1.02249 -5.24832 0
M  V30 3481 H 331.013 0.293611 -4.15263 0
M  V30 3482 H 331.546 -1.35437 -3.74034 0
M  V30 3483 H 328.285 -3.95871 -5.22462 0
M  V30 3484 H 327.805 -2.27711 -5.54894 0
M  V30 3485 H 329.484 -2.79914 -5.83315 0
M  V30 3486 N 329.616 1.39756 -0.72842 0
M  V30 3487 C 330.546 2.33289 -0.0991354 0
M  V30 3488 C 331.527 1.53568 0.731489 0
M  V30 3489 O 332.712 1.81987 0.677807 0
M  V30 3490 C 329.842 3.3763 0.813834 0
M  V30 3491 C 328.796 4.2791 0.0878663 0
M  V30 3492 C 328.122 5.22894 1.11741 0
M  V30 3493 C 329.422 5.11314 -1.06563 0
M  V30 3494 H 331.116 2.86163 -0.880408 0
M  V30 3495 H 328.662 1.37591 -0.424819 0
M  V30 3496 H 330.615 4.0201 1.26355 0
M  V30 3497 H 329.339 2.83181 1.62715 0
M  V30 3498 H 327.998 3.65 -0.342159 0
M  V30 3499 H 327.646 4.64744 1.92412 0
M  V30 3500 H 327.346 5.84143 0.636477 0
M  V30 3501 H 328.87 5.90151 1.56697 0
M  V30 3502 H 330.284 5.69076 -0.694671 0
M  V30 3503 H 328.681 5.81671 -1.47577 0
M  V30 3504 H 329.751 4.46534 -1.89038 0
M  V30 3505 N 331.094 0.475555 1.50254 0
M  V30 3506 C 332.057 -0.305016 2.27161 0
M  V30 3507 C 333.057 -0.916519 1.32123 0
M  V30 3508 O 334.247 -0.785003 1.5551 0
M  V30 3509 C 331.379 -1.43496 3.09227 0
M  V30 3510 H 332.572 0.369511 2.97615 0
M  V30 3511 H 330.125 0.229747 1.54602 0
M  V30 3512 H 330.86 -2.14441 2.43281 0
M  V30 3513 H 330.645 -1.00223 3.79075 0
M  V30 3514 H 332.135 -1.98548 3.67381 0
M  V30 3515 N 332.573 -1.56217 0.208337 0
M  V30 3516 C 333.821 -1.97558 -0.426076 0
M  V30 3517 C 334.142 -1.09683 -1.61229 0
M  V30 3518 O 333.412 -0.170956 -1.95153 0
M  V30 3519 H 331.992 -0.729575 -0.160405 0
M  V30 3520 H 334.654 -1.92606 0.298155 0
M  V30 3521 H 333.75 -3.02672 -0.761312 0
M  V30 3522 N 334.051 0.0651679 -1.57465 0
M  V30 3523 C 335.297 0.758912 -1.88712 0
M  V30 3524 C 335.652 1.7485 -0.802819 0
M  V30 3525 O 334.945 1.90632 0.192359 0
M  V30 3526 C 335.139 1.50081 -3.24362 0
M  V30 3527 C 334.968 0.584579 -4.45884 0
M  V30 3528 C 333.738 0.219039 -5.04825 0
M  V30 3529 C 335.936 -0.121559 -5.14156 0
M  V30 3530 N 333.918 -0.702222 -6.09871 0
M  V30 3531 C 335.289 -0.899767 -6.13436 0
M  V30 3532 C 337.344 -0.192331 -4.97528 0
M  V30 3533 C 336.047 -1.74218 -6.97883 0
M  V30 3534 C 338.073 -1.02174 -5.82507 0
M  V30 3535 C 337.435 -1.78798 -6.8133 0
M  V30 3536 H 333.534 0.25293 -0.739967 0
M  V30 3537 H 336.118 0.0201744 -1.9469 0
M  V30 3538 H 334.289 2.21023 -3.1938 0
M  V30 3539 H 336.021 2.14409 -3.43236 0
M  V30 3540 H 332.776 0.57336 -4.70117 0
M  V30 3541 H 333.2 -1.15629 -6.67052 0
M  V30 3542 H 337.842 0.385741 -4.21037 0
M  V30 3543 H 335.56 -2.3312 -7.73745 0
M  V30 3544 H 339.146 -1.07957 -5.71696 0
M  V30 3545 H 338.026 -2.41942 -7.45945 0
M  V30 3546 N 335.529 1.53961 0.336706 0
M  V30 3547 C 336.492 1.81724 1.39675 0
M  V30 3548 C 337.492 0.688532 1.45313 0
M  V30 3549 O 338.682 0.956829 1.45569 0
M  V30 3550 C 335.814 1.96543 2.78538 0
M  V30 3551 H 337.007 2.76424 1.16318 0
M  V30 3552 H 334.56 1.45478 0.571474 0
M  V30 3553 H 335.295 1.0401 3.07168 0
M  V30 3554 H 335.08 2.78665 2.75841 0
M  V30 3555 H 336.57 2.19516 3.5525 0
M  V30 3556 N 337.007 -0.598083 1.45811 0
M  V30 3557 C 337.937 -1.71873 1.58057 0
M  V30 3558 C 338.918 -1.64533 0.431615 0
M  V30 3559 O 340.103 -1.82787 0.65595 0
M  V30 3560 C 337.233 -3.10495 1.55597 0
M  V30 3561 C 336.187 -3.32654 2.69305 0
M  V30 3562 C 335.513 -4.71646 2.51902 0
M  V30 3563 C 336.813 -3.21981 4.11248 0
M  V30 3564 H 338.507 -1.61881 2.51863 0
M  V30 3565 H 336.053 -0.777372 1.21214 0
M  V30 3566 H 338.006 -3.88699 1.6276 0
M  V30 3567 H 336.73 -3.2135 0.583255 0
M  V30 3568 H 335.389 -2.56843 2.61586 0
M  V30 3569 H 335.037 -4.79246 1.52748 0
M  V30 3570 H 334.737 -4.87426 3.2816 0
M  V30 3571 H 336.261 -5.52038 2.60933 0
M  V30 3572 H 337.675 -3.90049 4.20161 0
M  V30 3573 H 336.072 -3.49289 4.87972 0
M  V30 3574 H 337.142 -2.1928 4.32486 0
M  V30 3575 N 338.485 -1.33259 -0.841409 0
M  V30 3576 C 339.762 -1.15174 -1.58096 0
M  V30 3577 C 340.142 0.282858 -2.09196 0
M  V30 3578 O 339.49 1.28151 -1.89181 0
M  V30 3579 C 339.7 -2.1907 -2.71679 0
M  V30 3580 C 341.048 -2.53093 -3.40924 0
M  V30 3581 O 342.072 -2.17717 -2.81918 0
M  V30 3582 O 340.931 -3.1379 -4.47435 0
M  V30 3583 H 338.025 -0.445303 -0.696875 0
M  V30 3584 H 340.571 -1.44833 -0.884385 0
M  V30 3585 H 339.343 -3.15443 -2.31541 0
M  V30 3586 H 338.966 -1.90481 -3.49002 0
M  V30 3587 N 339.963 1.05934 -1.16686 0
M  V30 3588 C 341.374 1.60263 -0.957745 0
M  V30 3589 C 341.725 1.89789 0.49745 0
M  V30 3590 O 340.85 1.67401 1.37135 0
M  V30 3591 C 341.445 2.91172 -1.73218 0
M  V30 3592 C 340.004 3.42188 -1.56794 0
M  V30 3593 C 339.151 2.16028 -1.73859 0
M  V30 3594 H 342.102 0.888392 -1.31504 0
M  V30 3595 H 342.123 3.60744 -1.21014 0
M  V30 3596 H 341.635 2.6965 -2.79124 0
M  V30 3597 H 339.736 3.68762 -0.533437 0
M  V30 3598 H 339.849 4.17273 -2.35414 0
M  V30 3599 H 338.213 2.26426 -1.16633 0
M  V30 3600 H 338.996 1.96985 -2.81161 0
M  V30 3601 N 341.441 0.965919 1.2453 0
M  V30 3602 C 342.391 0.465731 2.23193 0
M  V30 3603 C 343.375 -0.451277 1.54442 0
M  V30 3604 O 344.567 -0.282489 1.74731 0
M  V30 3605 C 341.696 -0.244511 3.42428 0
M  V30 3606 C 340.782 0.691222 4.18429 0
M  V30 3607 N 341.173 1.82771 4.71623 0
M  V30 3608 C 339.471 0.501649 4.4317 0
M  V30 3609 C 340.172 2.41285 5.29298 0
M  V30 3610 N 339.148 1.69819 5.16394 0
M  V30 3611 H 342.95 1.33291 2.61937 0
M  V30 3612 H 340.464 0.824789 1.39896 0
M  V30 3613 H 342.461 -0.620056 4.12263 0
M  V30 3614 H 341.121 -1.10815 3.05205 0
M  V30 3615 H 342.132 2.20929 4.68413 0
M  V30 3616 H 338.809 -0.318177 4.16286 0
M  V30 3617 H 340.199 3.37181 5.8117 0
M  V30 3618 N 342.919 -1.39368 0.735821 0
M  V30 3619 C 344.168 -1.99733 0.281004 0
M  V30 3620 C 344.481 -1.59055 -1.13846 0
M  V30 3621 O 345.687 -2.12262 -1.69284 0
M  V30 3622 C 344.143 -3.57057 0.451462 0
M  V30 3623 C 343.751 -4.06697 1.87886 0
M  V30 3624 C 345.495 -4.2446 0.0584616 0
M  V30 3625 C 343.402 -5.56598 1.99883 0
M  V30 3626 H 342.332 -0.747163 0.101311 0
M  V30 3627 H 344.983 -1.59357 0.909819 0
M  V30 3628 H 343.365 -3.95234 -0.246263 0
M  V30 3629 H 344.539 -3.79853 2.60861 0
M  V30 3630 H 342.854 -3.5196 2.22515 0
M  V30 3631 H 345.451 -5.34549 0.127099 0
M  V30 3632 H 345.794 -4.04444 -0.986433 0
M  V30 3633 H 346.327 -3.9146 0.707374 0
M  V30 3634 H 343.066 -5.81494 3.02564 0
M  V30 3635 H 342.586 -5.85242 1.31346 0
M  V30 3636 H 344.265 -6.22022 1.78039 0
M  V30 3637 N 344.397 -0.483516 -1.5 0
M  V30 3638 C 345.347 0.32306 -2.257 0
M  V30 3639 C 346.331 0.950755 -1.29805 0
M  V30 3640 O 347.523 0.861247 -1.54634 0
M  V30 3641 C 344.652 1.39724 -3.13579 0
M  V30 3642 C 343.738 0.776663 -4.16928 0
M  V30 3643 N 344.129 -0.1104 -5.0568 0
M  V30 3644 C 342.427 1.03922 -4.33724 0
M  V30 3645 C 343.128 -0.46387 -5.79848 0
M  V30 3646 N 342.104 0.163987 -5.43353 0
M  V30 3647 H 345.906 -0.360086 -2.91686 0
M  V30 3648 H 343.42 -0.298456 -1.59634 0
M  V30 3649 H 345.417 1.98837 -3.66428 0
M  V30 3650 H 344.077 2.08225 -2.49143 0
M  V30 3651 H 345.088 -0.480069 -5.1567 0
M  V30 3652 H 341.765 1.71829 -3.80501 0
M  V30 3653 H 343.155 -1.18854 -6.61304 0
M  V30 3654 N 345.875 1.56104 -0.216619 0
M  V30 3655 C 347.152 1.89988 0.465165 0
M  V30 3656 C 347.532 1.13326 1.78102 0
M  V30 3657 O 346.88 0.241033 2.27225 0
M  V30 3658 C 347.09 3.42646 0.662939 0
M  V30 3659 C 348.438 4.13311 0.972602 0
M  V30 3660 O 349.462 3.48217 0.749901 0
M  V30 3661 O 348.321 5.28396 1.39499 0
M  V30 3662 H 345.415 0.78979 0.245276 0
M  V30 3663 H 347.961 1.67721 -0.258436 0
M  V30 3664 H 346.733 3.90399 -0.26543 0
M  V30 3665 H 346.356 3.70677 1.43821 0
M  V30 3666 N 347.353 -0.0568162 1.57498 0
M  V30 3667 C 348.3 -1.06591 2.04712 0
M  V30 3668 C 349.27 -1.3758 0.930644 0
M  V30 3669 O 350.455 -1.48392 1.19935 0
M  V30 3670 C 347.595 -2.3701 2.50839 0
M  V30 3671 C 346.708 -2.12421 3.76167 0
M  V30 3672 C 345.843 -3.36511 4.11015 0
M  V30 3673 C 344.882 -3.07353 5.2934 0
M  V30 3674 N 344.019 -4.23816 5.59754 0
M  V30 3675 H 348.859 -0.65631 2.90683 0
M  V30 3676 H 346.396 -0.312481 1.43743 0
M  V30 3677 H 348.354 -3.13175 2.7564 0
M  V30 3678 H 346.984 -2.75744 1.67825 0
M  V30 3679 H 346.036 -1.2688 3.58616 0
M  V30 3680 H 347.348 -1.86894 4.62463 0
M  V30 3681 H 346.502 -4.21062 4.36797 0
M  V30 3682 H 345.241 -3.65128 3.23315 0
M  V30 3683 H 344.246 -2.212 5.03339 0
M  V30 3684 H 345.471 -2.80043 6.1867 0
M  V30 3685 H 343.417 -4.52436 4.75014 0
M  V30 3686 H 343.334 -4.01614 6.40501 0
M  V30 3687 H 344.602 -5.0932 5.90096 0
M  V30 3688 N 348.832 -1.54138 -0.328536 0
M  V30 3689 C 350.109 -1.62749 -1.08499 0
M  V30 3690 C 350.489 -0.458198 -2.06067 0
M  V30 3691 O 349.837 0.548046 -2.2183 0
M  V30 3692 C 350.047 -2.99519 -1.79135 0
M  V30 3693 C 351.395 -3.55394 -2.32337 0
M  V30 3694 O 352.419 -3.01792 -1.89209 0
M  V30 3695 O 351.278 -4.49186 -3.11279 0
M  V30 3696 H 348.372 -0.65886 -0.499832 0
M  V30 3697 H 350.918 -1.66484 -0.328826 0
M  V30 3698 H 349.69 -3.76061 -1.08139 0
M  V30 3699 H 349.313 -2.99441 -2.61574 0
M  V30 3700 N 350.31 0.590341 -1.46126 0
M  V30 3701 C 351.54 1.37304 -1.54373 0
M  V30 3702 C 351.948 1.88332 -0.181071 0
M  V30 3703 O 351.291 1.63852 0.830559 0
M  V30 3704 C 351.353 2.6012 -2.48149 0
M  V30 3705 C 351.017 2.30613 -3.94546 0
M  V30 3706 C 352.014 1.89915 -4.83971 0
M  V30 3707 C 349.699 2.42993 -4.39613 0
M  V30 3708 C 351.693 1.61981 -6.16475 0
M  V30 3709 C 349.38 2.14672 -5.72153 0
M  V30 3710 C 350.378 1.7423 -6.60404 0
M  V30 3711 O 350.066 1.46251 -7.90485 0
M  V30 3712 H 349.798 0.426086 -0.524811 0
M  V30 3713 H 352.352 0.72539 -1.92165 0
M  V30 3714 H 350.582 3.27664 -2.05361 0
M  V30 3715 H 352.271 3.22182 -2.46887 0
M  V30 3716 H 353.037 1.79872 -4.50412 0
M  V30 3717 H 348.916 2.73435 -3.71153 0
M  V30 3718 H 352.46 1.30341 -6.85315 0
M  V30 3719 H 348.357 2.24337 -6.05263 0
M  V30 3720 H 349.125 1.6016 -8.02677 0
M  V30 3721 N 351.788 1.33704 0.83433 0
M  V30 3722 C 353.204 1.13137 1.12571 0
M  V30 3723 C 353.404 -0.0747261 2.01361 0
M  V30 3724 O 352.46 -0.753647 2.4099 0
M  V30 3725 C 353.773 2.42105 1.78342 0
M  V30 3726 C 355.321 2.48054 1.90888 0
M  V30 3727 C 355.796 3.76995 2.60075 0
M  V30 3728 N 357.287 3.78092 2.67584 0
M  V30 3729 C 358.022 4.74574 3.21818 0
M  V30 3730 N 357.518 5.81434 3.76705 0
M  V30 3731 N 359.311 4.62044 3.20112 0
M  V30 3732 H 351.462 2.11 0.243489 0
M  V30 3733 H 353.725 0.932532 0.17055 0
M  V30 3734 H 353.431 3.30391 1.20561 0
M  V30 3735 H 353.305 2.54594 2.7832 0
M  V30 3736 H 355.692 1.60215 2.47821 0
M  V30 3737 H 355.773 2.39502 0.898459 0
M  V30 3738 H 355.417 4.65219 2.03799 0
M  V30 3739 H 355.347 3.82825 3.61597 0
M  V30 3740 H 357.838 3.00865 2.28667 0
M  V30 3741 H 358.151 6.51084 4.16305 0
M  V30 3742 H 356.496 5.85163 3.7498 0
M  V30 3743 H 359.687 3.77716 2.76493 0
M  V30 3744 H 359.86 5.37406 3.62076 0
M  V30 3745 N 353.266 -1.05314 1.17247 0
M  V30 3746 C 354.491 -1.82509 0.985148 0
M  V30 3747 C 354.916 -1.82343 -0.461788 0
M  V30 3748 O 354.274 -1.23151 -1.33055 0
M  V30 3749 C 354.322 -3.26566 1.52929 0
M  V30 3750 O 353.426 -4.05666 0.742225 0
M  V30 3751 H 352.767 -0.564347 0.349869 0
M  V30 3752 H 355.297 -1.32718 1.55715 0
M  V30 3753 H 355.307 -3.77369 1.55103 0
M  V30 3754 H 353.982 -3.26001 2.58256 0
M  V30 3755 H 352.559 -3.64397 0.791794 0
M  V30 3756 N 354.744 -0.972509 -1.24016 0
M  V30 3757 C 355.691 -0.505969 -2.25186 0
M  V30 3758 C 356.661 0.451009 -1.5986 0
M  V30 3759 O 357.846 0.360307 -1.87367 0
M  V30 3760 C 354.986 0.193089 -3.44559 0
M  V30 3761 C 354.099 -0.803222 -4.24467 0
M  V30 3762 C 353.234 -0.0797793 -5.3114 0
M  V30 3763 C 352.273 -1.06583 -6.02749 0
M  V30 3764 N 351.41 -0.372074 -7.01113 0
M  V30 3765 H 356.25 -1.37351 -2.64459 0
M  V30 3766 H 353.787 -0.688419 -1.29997 0
M  V30 3767 H 355.745 0.615125 -4.1264 0
M  V30 3768 H 354.375 1.02455 -3.06109 0
M  V30 3769 H 353.427 -1.34368 -3.55878 0
M  V30 3770 H 354.739 -1.55494 -4.73944 0
M  V30 3771 H 353.893 0.400015 -6.0538 0
M  V30 3772 H 352.632 0.704597 -4.82583 0
M  V30 3773 H 351.637 -1.55645 -5.27309 0
M  V30 3774 H 352.862 -1.85074 -6.53395 0
M  V30 3775 H 350.808 0.393238 -6.5482 0
M  V30 3776 H 350.725 -1.06258 -7.48495 0
M  V30 3777 H 351.993 0.0855932 -7.79453 0
M  V30 3778 N 356.222 1.38976 -0.743202 0
M  V30 3779 C 357.152 2.33171 -0.123873 0
M  V30 3780 C 358.133 1.54336 0.71516 0
M  V30 3781 O 359.318 1.82696 0.658467 0
M  V30 3782 C 356.448 3.38474 0.777978 0
M  V30 3783 C 355.402 4.27979 0.0424758 0
M  V30 3784 C 354.728 5.2405 1.06189 0
M  V30 3785 C 356.028 5.10155 -1.1198 0
M  V30 3786 H 357.722 2.85213 -0.910709 0
M  V30 3787 H 355.268 1.37133 -0.439388 0
M  V30 3788 H 357.221 4.03328 1.22084 0
M  V30 3789 H 355.945 2.84891 1.59702 0
M  V30 3790 H 354.604 3.64616 -0.380853 0
M  V30 3791 H 354.252 4.66758 1.87472 0
M  V30 3792 H 353.952 5.84785 0.574485 0
M  V30 3793 H 355.476 5.9178 1.50428 0
M  V30 3794 H 356.89 5.68307 -0.75499 0
M  V30 3795 H 355.287 5.80073 -1.53738 0
M  V30 3796 H 356.357 4.44504 -1.93764 0
M  V30 3797 N 357.7 0.491464 1.49741 0
M  V30 3798 C 358.93 -0.0534375 2.06531 0
M  V30 3799 C 359.338 -1.32233 1.35318 0
M  V30 3800 O 358.681 -1.78781 0.422243 0
M  V30 3801 C 358.743 -0.387034 3.57411 0
M  V30 3802 C 358.407 0.782764 4.50246 0
M  V30 3803 C 359.404 1.67059 4.92329 0
M  V30 3804 C 357.089 0.978866 4.9267 0
M  V30 3805 C 359.083 2.73874 5.75562 0
M  V30 3806 C 356.77 2.05022 5.75682 0
M  V30 3807 C 357.768 2.92851 6.17031 0
M  V30 3808 O 357.456 3.98138 6.98385 0
M  V30 3809 H 357.188 0.0129324 0.675876 0
M  V30 3810 H 359.742 0.685238 1.93633 0
M  V30 3811 H 357.972 -1.17918 3.68283 0
M  V30 3812 H 359.661 -0.869419 3.96479 0
M  V30 3813 H 360.427 1.53086 4.60206 0
M  V30 3814 H 356.306 0.304646 4.59992 0
M  V30 3815 H 359.85 3.42458 6.07757 0
M  V30 3816 H 355.747 2.18993 6.07217 0
M  V30 3817 H 356.515 3.95374 7.16674 0
M  V30 3818 N 359.178 -1.55987 0.224894 0
M  V30 3819 C 360.455 -1.90232 -0.455083 0
M  V30 3820 C 360.835 -1.14269 -1.77499 0
M  V30 3821 O 360.183 -0.253079 -2.27094 0
M  V30 3822 C 360.393 -3.42993 -0.644758 0
M  V30 3823 C 361.741 -4.13821 -0.950669 0
M  V30 3824 O 362.765 -3.4861 -0.731423 0
M  V30 3825 O 361.624 -5.29128 -1.36695 0
M  V30 3826 H 358.718 -0.79108 -0.241084 0
M  V30 3827 H 361.264 -1.67581 0.267327 0
M  V30 3828 H 360.036 -3.90252 0.28613 0
M  V30 3829 H 359.659 -3.71434 -1.41853 0
M  V30 3830 N 360.656 0.0484629 -1.57525 0
M  V30 3831 C 361.603 1.05504 -2.05275 0
M  V30 3832 C 362.573 1.37084 -0.937927 0
M  V30 3833 O 363.758 1.47754 -1.2072 0
M  V30 3834 C 360.898 2.35676 -2.52093 0
M  V30 3835 C 360.011 2.10423 -3.77288 0
M  V30 3836 C 359.146 3.34327 -4.12794 0
M  V30 3837 C 358.185 3.04542 -5.30962 0
M  V30 3838 N 357.322 4.20841 -5.61994 0
M  V30 3839 H 362.162 0.640885 -2.91027 0
M  V30 3840 H 359.699 0.304854 -1.43906 0
M  V30 3841 H 361.657 3.11709 -2.77297 0
M  V30 3842 H 360.287 2.7485 -1.69285 0
M  V30 3843 H 359.339 1.24976 -3.59284 0
M  V30 3844 H 360.651 1.84438 -4.63448 0
M  V30 3845 H 359.805 4.1874 -4.39024 0
M  V30 3846 H 358.544 3.63408 -3.25247 0
M  V30 3847 H 357.549 2.18528 -5.04505 0
M  V30 3848 H 358.774 2.76758 -6.20146 0
M  V30 3849 H 356.72 4.4991 -4.77406 0
M  V30 3850 H 356.637 3.98212 -6.42622 0
M  V30 3851 H 357.905 5.06184 -5.92789 0
M  V30 3852 N 362.134 1.5431 0.320358 0
M  V30 3853 C 363.362 1.76636 1.07738 0
M  V30 3854 C 363.777 0.51649 1.81598 0
M  V30 3855 O 363.134 -0.512942 1.75143 0
M  V30 3856 C 363.185 2.96158 2.07299 0
M  V30 3857 O 362.906 4.16313 1.36438 0
M  V30 3858 C 364.407 3.3072 2.95193 0
M  V30 3859 H 361.627 0.589597 0.320339 0
M  V30 3860 H 364.171 2.01207 0.36551 0
M  V30 3861 H 362.326 2.73851 2.74016 0
M  V30 3862 H 362.74 4.83565 2.03138 0
M  V30 3863 H 364.214 4.17643 3.60941 0
M  V30 3864 H 364.691 2.48026 3.62463 0
M  V30 3865 H 365.297 3.55117 2.34034 0
M  V30 3866 N 363.613 -0.582584 1.46437 0
M  V30 3867 C 364.86 -1.34079 1.51753 0
M  V30 3868 C 365.188 -1.93762 0.169299 0
M  V30 3869 O 364.443 -1.76989 -0.835062 0
M  V30 3870 C 364.742 -2.48964 2.56421 0
M  V30 3871 C 364.408 -2.07273 4.00436 0
M  V30 3872 C 363.07 -1.95618 4.39644 0
M  V30 3873 C 365.422 -1.75111 4.90903 0
M  V30 3874 C 362.75 -1.5006 5.67185 0
M  V30 3875 C 365.102 -1.31032 6.18881 0
M  V30 3876 C 363.766 -1.17954 6.56996 0
M  V30 3877 H 363.036 -0.49063 0.555304 0
M  V30 3878 H 365.683 -0.656007 1.79913 0
M  V30 3879 H 363.988 -3.22889 2.21923 0
M  V30 3880 H 365.685 -3.07178 2.57765 0
M  V30 3881 H 362.275 -2.17279 3.69443 0
M  V30 3882 H 366.459 -1.83001 4.61329 0
M  V30 3883 H 361.715 -1.38577 5.95488 0
M  V30 3884 H 365.889 -1.052 6.88408 0
M  V30 3885 H 363.516 -0.824279 7.55718 0
M  V30 3886 N 365.091 -1.34144 -0.827227 0
M  V30 3887 C 366.319 -1.29325 -1.61501 0
M  V30 3888 C 366.734 0.13354 -1.88327 0
M  V30 3889 O 366.091 1.0793 -1.47164 0
M  V30 3890 C 366.142 -2.07746 -2.95844 0
M  V30 3891 O 365.863 -3.4486 -2.70191 0
M  V30 3892 C 367.364 -2.10273 -3.90256 0
M  V30 3893 H 364.584 -0.445069 -0.50215 0
M  V30 3894 H 367.128 -1.76693 -1.02955 0
M  V30 3895 H 365.283 -1.6403 -3.5096 0
M  V30 3896 H 365.697 -3.85345 -3.55822 0
M  V30 3897 H 367.171 -2.69575 -4.81698 0
M  V30 3898 H 367.648 -1.096 -4.25305 0
M  V30 3899 H 368.254 -2.54059 -3.41078 0
M  V30 3900 N 366.569 1.04691 -1.17803 0
M  V30 3901 C 367.519 2.10856 -0.867391 0
M  V30 3902 C 368.503 1.601 0.160206 0
M  V30 3903 O 369.695 1.76948 -0.042947 0
M  V30 3904 C 366.824 3.411 -0.388012 0
M  V30 3905 C 365.91 3.9864 -1.44732 0
M  V30 3906 N 366.301 4.30075 -2.66212 0
M  V30 3907 C 364.599 4.26439 -1.30637 0
M  V30 3908 C 365.3 4.76033 -3.34317 0
M  V30 3909 N 364.276 4.76462 -2.61696 0
M  V30 3910 H 368.078 2.33029 -1.79094 0
M  V30 3911 H 365.592 1.22386 -1.0675 0
M  V30 3912 H 367.589 4.16641 -0.146994 0
M  V30 3913 H 366.249 3.20357 0.529271 0
M  V30 3914 H 367.26 4.19917 -3.03134 0
M  V30 3915 H 363.937 4.15056 -0.451129 0
M  V30 3916 H 365.327 5.09427 -4.38103 0
M  V30 3917 N 368.047 0.979072 1.23499 0
M  V30 3918 C 369.295 0.645941 1.91499 0
M  V30 3919 C 369.616 -0.822948 1.76784 0
M  V30 3920 O 368.886 -1.58854 1.14639 0
M  V30 3921 H 367.466 0.235919 0.708767 0
M  V30 3922 H 370.128 1.2426 1.50152 0
M  V30 3923 H 369.224 0.896411 2.9895 0
M  V30 3924 N 369.525 -1.3858 0.750561 0
M  V30 3925 C 370.772 -2.00184 0.305373 0
M  V30 3926 C 371.1 -1.59575 -1.11203 0
M  V30 3927 O 370.355 -0.823236 -1.77542 0
M  V30 3928 C 370.654 -3.55455 0.372373 0
M  V30 3929 C 370.32 -4.15765 1.745 0
M  V30 3930 C 368.982 -4.31951 2.12065 0
M  V30 3931 C 371.334 -4.49067 2.64553 0
M  V30 3932 C 368.662 -4.78734 3.39162 0
M  V30 3933 C 371.014 -4.97265 3.91038 0
M  V30 3934 C 369.678 -5.11658 4.28676 0
M  V30 3935 H 368.948 -0.732526 0.111744 0
M  V30 3936 H 371.595 -1.65673 0.960451 0
M  V30 3937 H 369.9 -3.90084 -0.366272 0
M  V30 3938 H 371.597 -4.00999 0.00953918 0
M  V30 3939 H 368.187 -4.03579 1.44297 0
M  V30 3940 H 372.371 -4.36166 2.36796 0
M  V30 3941 H 367.627 -4.88062 3.68246 0
M  V30 3942 H 371.801 -5.22003 4.60962 0
M  V30 3943 H 369.428 -5.47668 5.27222 0
M  V30 3944 N 371.003 -0.499398 -1.49478 0
M  V30 3945 C 372.419 -0.155261 -1.58843 0
M  V30 3946 C 372.619 1.34008 -1.50479 0
M  V30 3947 O 371.675 2.11589 -1.37791 0
M  V30 3948 C 372.988 -0.730636 -2.91689 0
M  V30 3949 C 374.536 -0.696599 -3.0515 0
M  V30 3950 C 375.011 -1.25001 -4.40612 0
M  V30 3951 N 376.502 -1.21064 -4.47099 0
M  V30 3952 C 377.237 -1.60905 -5.50361 0
M  V30 3953 N 376.733 -2.08331 -6.60735 0
M  V30 3954 N 378.526 -1.52331 -5.41065 0
M  V30 3955 H 370.677 -1.47162 -1.53158 0
M  V30 3956 H 372.94 -0.610309 -0.725415 0
M  V30 3957 H 372.646 -1.77928 -3.03372 0
M  V30 3958 H 372.52 -0.190161 -3.7672 0
M  V30 3959 H 374.907 0.343204 -2.93097 0
M  V30 3960 H 374.988 -1.2742 -2.21806 0
M  V30 3961 H 374.632 -2.28859 -4.53416 0
M  V30 3962 H 374.562 -0.64836 -5.22593 0
M  V30 3963 H 377.053 -0.863128 -3.67911 0
M  V30 3964 H 377.366 -2.36805 -7.35624 0
M  V30 3965 H 375.711 -2.12304 -6.6178 0
M  V30 3966 H 378.902 -1.151 -4.53729 0
M  V30 3967 H 379.075 -1.83704 -6.21415 0
M  V30 3968 N 372.481 1.55866 -0.233164 0
M  V30 3969 C 373.428 2.20796 0.67215 0
M  V30 3970 C 374.398 1.16731 1.18166 0
M  V30 3971 O 375.583 1.45129 1.23864 0
M  V30 3972 C 372.723 2.90072 1.86955 0
M  V30 3973 C 371.836 4.08759 1.39786 0
M  V30 3974 C 370.971 4.65787 2.55374 0
M  V30 3975 C 370.01 5.76752 2.04998 0
M  V30 3976 N 369.147 6.28021 3.13901 0
M  V30 3977 H 373.987 2.9779 0.111749 0
M  V30 3978 H 371.524 1.47036 0.0434007 0
M  V30 3979 H 373.482 3.28428 2.57276 0
M  V30 3980 H 372.112 2.15575 2.40265 0
M  V30 3981 H 371.164 3.7581 0.589173 0
M  V30 3982 H 372.476 4.88906 0.98856 0
M  V30 3983 H 371.63 5.06646 3.33758 0
M  V30 3984 H 370.369 3.84828 2.99598 0
M  V30 3985 H 369.374 5.35383 1.25079 0
M  V30 3986 H 370.599 6.59553 1.61759 0
M  V30 3987 H 368.545 5.49971 3.57586 0
M  V30 3988 H 368.462 7.03323 2.7726 0
M  V30 3989 H 369.73 6.73538 3.92386 0
M  V30 3990 N 373.959 -0.0401083 1.57549 0
M  V30 3991 C 375.207 -0.731677 1.8839 0
M  V30 3992 C 375.528 -1.76481 0.829425 0
M  V30 3993 O 374.798 -1.95411 -0.1383 0
M  V30 3994 H 373.378 -0.273225 0.695239 0
M  V30 3995 H 376.04 -0.00867725 1.94898 0
M  V30 3996 H 375.136 -1.22816 2.86919 0
M  V30 3997 N 375.437 -1.54477 -0.31217 0
M  V30 3998 C 376.683 -1.73483 -1.0503 0
M  V30 3999 C 377.016 -0.513125 -1.87298 0
M  V30 4000 O 376.291 0.489864 -1.8823 0
M  V30 4001 C 376.574 -3.01723 -1.96558 0
M  V30 4002 C 376.427 -4.3417 -1.17545 0
M  V30 4003 C 377.746 -3.25772 -2.95907 0
M  V30 4004 H 374.865 -0.631222 -0.380432 0
M  V30 4005 H 377.507 -1.87184 -0.325932 0
M  V30 4006 H 375.657 -2.90174 -2.58324 0
M  V30 4007 H 377.329 -4.5762 -0.581513 0
M  V30 4008 H 375.572 -4.31159 -0.477925 0
M  V30 4009 H 376.243 -5.20143 -1.84811 0
M  V30 4010 H 378.719 -3.36857 -2.44267 0
M  V30 4011 H 377.595 -4.16838 -3.57123 0
M  V30 4012 H 377.856 -2.43537 -3.68974 0
M  V30 4013 N 376.915 0.57481 -1.46744 0
M  V30 4014 C 377.862 1.68329 -1.57905 0
M  V30 4015 C 378.832 1.60625 -0.422927 0
M  V30 4016 O 380.017 1.79721 -0.640711 0
M  V30 4017 C 377.157 3.06665 -1.58274 0
M  V30 4018 C 376.27 3.24935 -2.84678 0
M  V30 4019 C 375.405 4.53566 -2.76499 0
M  V30 4020 C 374.444 4.65207 -3.97806 0
M  V30 4021 N 373.581 5.85172 -3.87967 0
M  V30 4022 H 378.421 1.58127 -2.52587 0
M  V30 4023 H 375.958 0.770552 -1.25303 0
M  V30 4024 H 377.916 3.86745 -1.56473 0
M  V30 4025 H 376.546 3.15745 -0.671194 0
M  V30 4026 H 375.598 2.38405 -2.96424 0
M  V30 4027 H 376.91 3.29403 -3.7456 0
M  V30 4028 H 376.064 5.41885 -2.72848 0
M  V30 4029 H 374.803 4.51548 -1.8427 0
M  V30 4030 H 373.808 3.75304 -4.0178 0
M  V30 4031 H 375.033 4.68997 -4.9114 0
M  V30 4032 H 372.979 5.84137 -2.98529 0
M  V30 4033 H 372.896 5.90943 -4.71511 0
M  V30 4034 H 374.164 6.759 -3.88303 0
M  V30 4035 N 378.394 1.34581 0.820102 0
M  V30 4036 C 379.619 1.30333 1.61332 0
M  V30 4037 C 380.044 -0.119339 1.87721 0
M  V30 4038 O 379.402 -1.08197 1.45475 0
M  V30 4039 C 379.45 2.10258 2.92957 0
M  V30 4040 O 378.554 1.47404 3.85157 0
M  V30 4041 H 377.895 0.447488 0.490561 0
M  V30 4042 H 380.425 1.77425 1.01889 0
M  V30 4043 H 380.435 2.21718 3.42498 0
M  V30 4044 H 379.11 3.13693 2.73074 0
M  V30 4045 H 377.687 1.44703 3.43679 0
M  V30 4046 N 379.872 -1.04064 1.18357 0
M  V30 4047 C 380.782 -2.15569 0.925596 0
M  V30 4048 C 381.798 -1.7365 -0.110295 0
M  V30 4049 O 382.974 -2.01273 0.0716218 0
M  V30 4050 C 380.039 -3.43704 0.454836 0
M  V30 4051 C 379.1 -4.00004 1.55869 0
M  V30 4052 C 378.333 -5.22023 1.1103 0
M  V30 4053 O 378.556 -5.70392 -0.0309756 0
M  V30 4054 O 377.49 -5.70856 1.90805 0
M  V30 4055 H 381.316 -2.40187 1.8586 0
M  V30 4056 H 378.901 -1.1402 0.965394 0
M  V30 4057 H 380.783 -4.20923 0.200382 0
M  V30 4058 H 379.458 -3.20559 -0.449876 0
M  V30 4059 H 378.365 -3.24172 1.86716 0
M  V30 4060 H 379.698 -4.2749 2.43953 0
M  V30 4061 O 381.389 -1.11421 -1.16909 0
M  V30 4062 H 382.08 -0.820425 -1.75467 0
M  V30 END ATOM
M  V30 BEGIN BOND
M  V30 END BOND
M  V30 END CTAB
M  END
$$$$
