drugbank_target|O91734 Genome polyprotein (DB08231)
 OpenBabel12092120493D

  0  0  0     0  0            999 V3000
M  V30 BEGIN CTAB
M  V30 COUNTS 33984 34406 0 0 0
M  V30 BEGIN ATOM
M  V30 1 H -0.908 1.98254 -0.117106 0
M  V30 2 N 0 1.576 0 0
M  V30 3 C 0.933 2.03868 1.02534 0
M  V30 4 C 1.911 0.928543 1.3348 0
M  V30 5 O 3.095 1.19667 1.45644 0
M  V30 6 C 0.222 2.43627 2.35294 0
M  V30 7 C -0.732 3.65373 2.2001 0
M  V30 8 S 0.101 5.13292 1.52614 0
M  V30 9 C 1.257 5.56322 2.86805 0
M  V30 10 H 1.49 2.90518 0.631377 0
M  V30 11 H -0.977 1.52953 0.210867 0
M  V30 12 H 0.981 2.67203 3.11629 0
M  V30 13 H -0.358 1.57376 2.7183 0
M  V30 14 H -1.165 3.90944 3.18086 0
M  V30 15 H -1.563 3.418 1.51819 0
M  V30 16 H 0.729 5.58782 3.83104 0
M  V30 17 H 1.672 6.56266 2.65933 0
M  V30 18 H 2.08 4.83886 2.90714 0
M  V30 19 N 1.4781 -0.272755 1.55222 0
M  V30 20 C 2.7261 -1.00234 1.75492 0
M  V30 21 C 3.0471 -1.8681 0.5592 0
M  V30 22 O 2.3171 -1.91215 -0.425882 0
M  V30 23 H 0.8971 -0.373076 0.647166 0
M  V30 24 H 3.5591 -0.296926 1.92625 0
M  V30 25 H 2.6551 -1.63913 2.65592 0
M  V30 26 N 2.9562 -1.48159 -0.537278 0
M  V30 27 C 3.9192 -1.61665 -1.62472 0
M  V30 28 C 4.9192 -0.490395 -1.5314 0
M  V30 29 O 6.1092 -0.755998 -1.5694 0
M  V30 30 C 3.2412 -1.57997 -3.02076 0
M  V30 31 H 4.4342 -2.58621 -1.51839 0
M  V30 32 H 1.9872 -1.36647 -0.758771 0
M  V30 33 H 2.7222 -0.624913 -3.18222 0
M  V30 34 H 2.5072 -2.39755 -3.10258 0
M  V30 35 H 3.9972 -1.70627 -3.81151 0
M  V30 36 N 4.4343 0.785586 -1.36625 0
M  V30 37 C 5.3663 1.90711 -1.2713 0
M  V30 38 C 6.3793 1.61688 -0.189986 0
M  V30 39 O 7.5683 1.72864 -0.445014 0
M  V30 40 C 4.6683 3.25611 -0.939713 0
M  V30 41 C 3.8413 3.82385 -2.12369 0
M  V30 42 C 2.9003 4.95732 -1.76456 0
M  V30 43 O 1.9263 5.12047 -2.48589 0
M  V30 44 N 3.1283 5.76258 -0.700492 0
M  V30 45 H 5.8933 1.99376 -2.23762 0
M  V30 46 H 3.4543 0.964041 -1.30069 0
M  V30 47 H 5.4463 3.98937 -0.680554 0
M  V30 48 H 4.0163 3.12538 -0.0624074 0
M  V30 49 H 3.2363 3.01001 -2.54543 0
M  V30 50 H 4.5243 4.17047 -2.9146 0
M  V30 51 H 3.9223 5.65609 -0.101624 0
M  V30 52 H 2.4793 6.4987 -0.501165 0
M  V30 53 N 5.9124 1.20967 1.01018 0
M  V30 54 C 7.1584 1.02526 1.74975 0
M  V30 55 C 7.4914 -0.4408 1.89131 0
M  V30 56 O 6.7664 -1.32718 1.42184 0
M  V30 57 C 7.0494 1.71699 3.1653 0
M  V30 58 C 6.9024 3.25791 3.10129 0
M  V30 59 C 8.2214 1.45531 4.15342 0
M  V30 60 H 5.3404 0.373863 0.635134 0
M  V30 61 H 7.9824 1.49071 1.17805 0
M  V30 62 H 6.1324 1.32128 3.65341 0
M  V30 63 H 7.8044 3.74697 2.69072 0
M  V30 64 H 6.0474 3.56363 2.47362 0
M  V30 65 H 6.7184 3.69353 4.10222 0
M  V30 66 H 9.1944 1.79872 3.75213 0
M  V30 67 H 8.0704 1.96453 5.1254 0
M  V30 68 H 8.3314 0.384237 4.40427 0
M  V30 69 N 7.3905 -1.2043 1.01659 0
M  V30 70 C 8.6155 -1.94318 0.724942 0
M  V30 71 C 9.0405 -1.74266 -0.708034 0
M  V30 72 O 8.3985 -1.03694 -1.48719 0
M  V30 73 C 8.4465 -3.44486 1.06591 0
M  V30 74 O 7.5505 -4.12017 0.177599 0
M  V30 75 H 6.8915 -0.60708 0.26898 0
M  V30 76 H 9.4215 -1.52861 1.35995 0
M  V30 77 H 9.4315 -3.95106 1.01762 0
M  V30 78 H 8.1065 -3.58404 2.10997 0
M  V30 79 H 6.6835 -3.71821 0.283421 0
M  V30 80 N 8.8686 -0.792821 -1.36206 0
M  V30 81 C 10.0966 -0.378825 -2.03402 0
M  V30 82 C 10.5116 1.00586 -1.59774 0
M  V30 83 O 9.8686 1.64574 -0.788764 0
M  V30 84 C 9.9196 -0.43683 -3.58851 0
M  V30 85 O 9.6406 -1.76691 -4.00889 0
M  V30 86 C 11.1416 -0.0138943 -4.43298 0
M  V30 87 H 8.3616 -0.155673 -0.652692 0
M  V30 88 H 10.9056 -1.07261 -1.74113 0
M  V30 89 H 9.0606 0.208575 -3.86838 0
M  V30 90 H 9.4746 -1.72011 -4.95492 0
M  V30 91 H 10.9486 -0.105615 -5.51899 0
M  V30 92 H 11.4256 1.03915 -4.2673 0
M  V30 93 H 12.0316 -0.63192 -4.20579 0
M  V30 94 N 10.3467 1.47872 -0.545128 0
M  V30 95 C 11.2787 2.27869 0.246621 0
M  V30 96 C 12.2917 1.36282 0.890561 0
M  V30 97 O 13.4807 1.61207 0.766449 0
M  V30 98 C 10.5807 3.10159 1.36582 0
M  V30 99 C 9.7537 4.29627 0.820954 0
M  V30 100 C 8.8127 4.93607 1.82314 0
M  V30 101 O 7.8387 5.52366 1.37406 0
M  V30 102 N 9.0407 4.87211 3.15603 0
M  V30 103 H 11.8057 2.96459 -0.439539 0
M  V30 104 H 9.3667 1.57367 -0.380421 0
M  V30 105 H 11.3587 3.49829 2.03474 0
M  V30 106 H 9.9287 2.43891 1.9554 0
M  V30 107 H 9.1487 3.94192 -0.0244032 0
M  V30 108 H 10.4367 5.06928 0.436063 0
M  V30 109 H 9.8347 4.40651 3.54744 0
M  V30 110 H 8.3917 5.30937 3.78087 0
M  V30 111 N 11.8248 0.280983 1.55075 0
M  V30 112 C 12.7718 -0.603937 2.22758 0
M  V30 113 C 13.7418 -1.1452 1.20309 0
M  V30 114 O 14.9268 -1.19343 1.48869 0
M  V30 115 C 12.0668 -1.77947 2.95684 0
M  V30 116 C 11.1798 -1.2715 4.12864 0
M  V30 117 C 10.3148 -2.4093 4.7342 0
M  V30 118 C 9.3538 -1.87165 5.82783 0
M  V30 119 N 8.4908 -2.94441 6.37377 0
M  V30 120 H 13.3308 -0.020124 2.97993 0
M  V30 121 H 10.8678 0.00183425 1.471 0
M  V30 122 H 12.8258 -2.47055 3.36184 0
M  V30 123 H 11.4558 -2.33522 2.22861 0
M  V30 124 H 10.5078 -0.473331 3.77444 0
M  V30 125 H 11.8198 -0.837751 4.91715 0
M  V30 126 H 10.9738 -3.18021 5.1667 0
M  V30 127 H 9.7128 -2.87623 3.93859 0
M  V30 128 H 8.7178 -1.08556 5.38976 0
M  V30 129 H 9.9428 -1.41401 6.64216 0
M  V30 130 H 7.8888 -3.40505 5.60707 0
M  V30 131 H 7.8058 -2.55501 7.11516 0
M  V30 132 H 9.0738 -3.71489 6.85285 0
M  V30 133 N 13.3029 -1.57598 0.00835791 0
M  V30 134 C 14.5309 -1.95214 -0.68549 0
M  V30 135 C 14.9459 -0.883706 -1.66841 0
M  V30 136 O 14.3029 0.136565 -1.81988 0
M  V30 137 C 14.3539 -3.32865 -1.41007 0
M  V30 138 O 14.0749 -4.35609 -0.466552 0
M  V30 139 C 15.5759 -3.84991 -2.19765 0
M  V30 140 H 12.7959 -0.643422 -0.190392 0
M  V30 141 H 15.3399 -2.04406 0.0619607 0
M  V30 142 H 13.4949 -3.24956 -2.10908 0
M  V30 143 H 13.9089 -5.15288 -0.978699 0
M  V30 144 H 15.3829 -4.8371 -2.65948 0
M  V30 145 H 15.8599 -3.18137 -3.02796 0
M  V30 146 H 16.4659 -3.96103 -1.54864 0
M  V30 147 N 14.781 0.264519 -1.55364 0
M  V30 148 C 16.029 0.993021 -1.76021 0
M  V30 149 C 16.35 1.86511 -0.569099 0
M  V30 150 O 15.62 1.91438 0.415735 0
M  V30 151 H 14.2 0.369639 -0.649135 0
M  V30 152 H 16.862 0.286707 -1.9278 0
M  V30 153 H 15.958 1.62502 -2.66457 0
M  V30 154 N 16.2591 1.48442 0.529413 0
M  V30 155 C 17.2221 1.62524 1.61612 0
M  V30 156 C 18.2221 0.498509 1.52877 0
M  V30 157 O 19.4121 0.76431 1.56537 0
M  V30 158 C 16.5441 1.59597 3.01233 0
M  V30 159 H 17.7371 2.59423 1.50465 0
M  V30 160 H 15.2901 1.37047 0.751514 0
M  V30 161 H 16.0251 0.641781 3.17886 0
M  V30 162 H 15.8101 2.41397 3.08982 0
M  V30 163 H 17.3001 1.72646 3.80241 0
M  V30 164 N 17.7372 -0.778329 1.37039 0
M  V30 165 C 18.6872 -1.88142 1.28789 0
M  V30 166 C 19.6712 -1.59923 0.177063 0
M  V30 167 O 20.8632 -1.72165 0.410873 0
M  V30 168 C 17.9922 -3.25518 1.09055 0
M  V30 169 C 17.0782 -3.5971 2.24654 0
M  V30 170 N 17.4692 -3.65131 3.50018 0
M  V30 171 C 15.7672 -3.89837 2.16663 0
M  V30 172 C 16.4682 -3.95882 4.26207 0
M  V30 173 N 15.4442 -4.11441 3.55271 0
M  V30 174 H 19.2462 -1.90575 2.23737 0
M  V30 175 H 16.7602 -0.974435 1.29917 0
M  V30 176 H 18.7572 -4.04423 1.0123 0
M  V30 177 H 17.4172 -3.24353 0.15018 0
M  V30 178 H 18.4282 -3.475 3.84011 0
M  V30 179 H 15.1052 -3.96533 1.30645 0
M  V30 180 H 16.4952 -4.06907 5.34674 0
M  V30 181 N 19.2153 -1.21501 -1.00376 0
M  V30 182 C 20.1253 -0.991447 -2.12621 0
M  V30 183 C 21.1413 0.0568446 -1.73907 0
M  V30 184 O 22.3173 -0.13348 -2.00957 0
M  V30 185 C 19.3823 -0.560312 -3.42142 0
M  V30 186 C 18.4433 -1.68096 -3.95022 0
M  V30 187 C 17.6763 -1.2703 -5.18362 0
M  V30 188 O 17.8993 -0.144438 -5.70217 0
M  V30 189 O 16.8333 -2.08269 -5.64719 0
M  V30 190 H 20.6593 -1.93158 -2.34358 0
M  V30 191 H 18.2443 -0.999999 -1.10997 0
M  V30 192 H 20.1263 -0.329724 -4.20108 0
M  V30 193 H 18.8013 0.351089 -3.2179 0
M  V30 194 H 17.7083 -1.96597 -3.18278 0
M  V30 195 H 19.0413 -2.56983 -4.19786 0
M  V30 196 N 20.6934 1.19889 -1.02296 0
M  V30 197 C 21.9214 1.9339 -0.735399 0
M  V30 198 C 22.3364 1.75148 0.704887 0
M  V30 199 O 21.6934 1.06954 1.47875 0
M  V30 200 C 21.7444 3.45313 -1.06962 0
M  V30 201 O 21.4654 3.62964 -2.45334 0
M  V30 202 C 22.9664 4.35948 -0.804021 0
M  V30 203 H 20.1864 0.61448 -0.269546 0
M  V30 204 H 22.7304 1.522 -1.36585 0
M  V30 205 H 20.8854 3.84359 -0.484455 0
M  V30 206 H 21.2994 4.56886 -2.57595 0
M  V30 207 H 22.7734 5.41174 -1.0879 0
M  V30 208 H 23.2504 4.3842 0.261691 0
M  V30 209 H 23.8564 4.02574 -1.37164 0
M  V30 210 N 22.1715 0.800033 1.35784 0
M  V30 211 C 23.3965 0.388511 2.03729 0
M  V30 212 C 23.8215 -0.990481 1.5991 0
M  V30 213 O 23.1795 -1.64013 0.772612 0
M  V30 214 C 23.2275 0.4726 3.5749 0
M  V30 215 O 22.3315 -0.51646 4.09153 0
M  V30 216 H 21.6725 0.163271 0.643614 0
M  V30 217 H 24.2025 1.0841 1.73518 0
M  V30 218 H 24.2125 0.34003 4.06581 0
M  V30 219 H 22.8875 1.47848 3.88734 0
M  V30 220 H 21.4645 -0.344673 3.71304 0
M  V30 221 N 23.6496 -1.47581 0.552962 0
M  V30 222 C 24.5796 -2.32762 -0.185451 0
M  V30 223 C 25.5606 -1.43527 -0.912905 0
M  V30 224 O 26.7456 -1.72388 -0.894201 0
M  V30 225 C 23.8756 -3.25219 -1.21859 0
M  V30 226 C 22.8296 -4.23661 -0.607864 0
M  V30 227 C 22.1556 -5.05413 -1.74533 0
M  V30 228 C 23.4556 -5.20481 0.435582 0
M  V30 229 H 25.1496 -2.94749 0.525684 0
M  V30 230 H 22.6956 -1.41738 0.254251 0
M  V30 231 H 24.6486 -3.8365 -1.7433 0
M  V30 232 H 23.3726 -2.61279 -1.95961 0
M  V30 233 H 22.0316 -3.66451 -0.104489 0
M  V30 234 H 21.6796 -4.3788 -2.47529 0
M  V30 235 H 21.3796 -5.72059 -1.34249 0
M  V30 236 H 22.9036 -5.66701 -2.27338 0
M  V30 237 H 24.3176 -5.733 -0.00290157 0
M  V30 238 H 22.7146 -5.95305 0.757067 0
M  V30 239 H 23.7846 -4.66217 1.33303 0
M  V30 240 N 25.1277 -0.289203 -1.54924 0
M  V30 241 C 26.3527 0.329299 -2.04769 0
M  V30 242 C 26.7777 1.4763 -1.16564 0
M  V30 243 O 26.1357 1.80527 -0.167186 0
M  V30 244 C 26.1837 0.774438 -3.52186 0
M  V30 245 O 25.2877 1.88038 -3.67036 0
M  V30 246 H 24.6287 0.0659259 -0.660719 0
M  V30 247 H 27.1587 -0.42761 -2.00082 0
M  V30 248 H 27.1687 1.06642 -3.93816 0
M  V30 249 H 25.8437 -0.0646707 -4.1585 0
M  V30 250 H 24.4207 1.58985 -3.3731 0
M  V30 251 N 26.6058 1.57591 -0.0167156 0
M  V30 252 C 27.5688 2.08393 0.954204 0
M  V30 253 C 28.5688 0.996531 1.26198 0
M  V30 254 O 29.7588 1.25858 1.20438 0
M  V30 255 C 26.8908 2.5394 2.27436 0
M  V30 256 H 28.0838 2.95455 0.514451 0
M  V30 257 H 25.6368 1.54582 0.231089 0
M  V30 258 H 26.3718 1.70171 2.76066 0
M  V30 259 H 26.1568 3.33371 2.06412 0
M  V30 260 H 27.6468 2.93512 2.97053 0
M  V30 261 N 28.0839 -0.256276 1.55502 0
M  V30 262 C 29.3119 -1.00342 1.8094 0
M  V30 263 C 29.7269 -1.79307 0.59114 0
M  V30 264 O 29.0839 -1.77114 -0.440081 0
M  V30 265 C 29.1349 -1.94875 3.04476 0
M  V30 266 O 28.8559 -1.19107 4.21598 0
M  V30 267 C 30.3569 -2.81266 3.42644 0
M  V30 268 H 27.5769 -0.295685 0.602338 0
M  V30 269 H 30.1209 -0.281998 2.02546 0
M  V30 270 H 28.2759 -2.62457 2.84947 0
M  V30 271 H 28.6899 -1.82969 4.91551 0
M  V30 272 H 30.1639 -3.43362 4.32211 0
M  V30 273 H 30.6409 -3.51897 2.62802 0
M  V30 274 H 31.2469 -2.1915 3.64491 0
M  V30 275 N 29.562 -1.4872 -0.521534 0
M  V30 276 C 30.81 -1.56857 -1.27437 0
M  V30 277 C 31.131 -0.247982 -1.93417 0
M  V30 278 O 30.401 0.731151 -1.81744 0
M  V30 279 H 28.981 -0.577885 -0.473347 0
M  V30 280 H 31.643 -1.85233 -0.606205 0
M  V30 281 H 30.739 -2.35402 -2.0492 0
M  V30 282 N 31.0401 0.771051 -1.3745 0
M  V30 283 C 31.9881 1.90574 -1.33358 0
M  V30 284 C 32.9821 1.67936 -0.22224 0
M  V30 285 O 34.1881 1.75717 -0.390304 0
M  V30 286 H 30.5631 0.626714 -0.415612 0
M  V30 287 H 32.5341 1.91142 -2.29144 0
M  V30 288 C 31.2831 3.27845 -1.15813 0
M  V30 289 H 30.6061 3.45842 -2.00583 0
M  V30 290 H 32.0461 4.07538 -1.17 0
M  V30 291 C 30.5051 3.36625 0.136165 0
M  V30 292 O 31.0351 3.85785 1.11949 0
M  V30 293 N 29.2411 2.89997 0.187099 0
M  V30 294 H 28.7881 2.50182 -0.613753 0
M  V30 295 H 28.7461 2.96252 1.05272 0
M  V30 296 N 32.5182 1.22032 0.997298 0
M  V30 297 C 33.7432 1.06921 1.77715 0
M  V30 298 C 34.1682 -0.376226 1.84299 0
M  V30 299 O 33.5262 -1.27165 1.29223 0
M  V30 300 C 33.5742 1.67996 3.19076 0
M  V30 301 O 32.6782 0.930653 4.01762 0
M  V30 302 H 32.0192 0.375814 0.547412 0
M  V30 303 H 34.5492 1.61737 1.25309 0
M  V30 304 H 34.5592 1.72538 3.69723 0
M  V30 305 H 33.2342 2.73182 3.13599 0
M  V30 306 H 31.8112 0.960917 3.60307 0
M  V30 307 N 33.9963 -1.19345 1.0293 0
M  V30 308 C 35.2453 -1.88363 0.721256 0
M  V30 309 C 35.5583 -1.80514 -0.753254 0
M  V30 310 O 36.7643 -2.44788 -1.17436 0
M  V30 311 C 35.2203 -3.37872 1.23978 0
M  V30 312 C 34.8283 -3.54278 2.74211 0
M  V30 313 C 36.5723 -4.12365 1.00775 0
M  V30 314 C 34.4793 -4.97682 3.19479 0
M  V30 315 H 33.4093 -0.705484 0.266098 0
M  V30 316 H 36.0603 -1.34928 1.24365 0
M  V30 317 H 34.4423 -3.90707 0.6453 0
M  V30 318 H 35.6163 -3.11769 3.39318 0
M  V30 319 H 33.9313 -2.93174 2.95699 0
M  V30 320 H 36.5283 -5.18119 1.32123 0
M  V30 321 H 36.8713 -4.16263 -0.0554308 0
M  V30 322 H 37.4043 -3.65668 1.56625 0
M  V30 323 H 34.1433 -4.98945 4.25128 0
M  V30 324 H 33.6633 -5.4095 2.591 0
M  V30 325 H 35.3423 -5.66337 3.12845 0
M  V30 326 N 35.4744 -0.807222 -1.35358 0
M  V30 327 C 36.7234 -0.384376 -1.98004 0
M  V30 328 C 37.0364 1.0543 -1.64754 0
M  V30 329 O 38.2424 1.58029 -2.20769 0
M  V30 330 C 36.6984 -0.636326 -3.5423 0
M  V30 331 C 36.3064 -2.08759 -3.96388 0
M  V30 332 C 38.0504 -0.278869 -4.23583 0
M  V30 333 C 35.9574 -2.28525 -5.45463 0
M  V30 334 H 34.8874 -0.139986 -0.740891 0
M  V30 335 H 37.5384 -0.991369 -1.54415 0
M  V30 336 H 35.9204 0.0406256 -3.95979 0
M  V30 337 H 37.0944 -2.8024 -3.6579 0
M  V30 338 H 35.4094 -2.40497 -3.39926 0
M  V30 339 H 38.0064 -0.404599 -5.33167 0
M  V30 340 H 38.3494 0.775012 -4.09022 0
M  V30 341 H 38.8824 -0.909764 -3.87257 0
M  V30 342 H 35.6214 -3.32361 -5.64992 0
M  V30 343 H 35.1414 -1.61569 -5.77629 0
M  V30 344 H 36.8204 -2.10109 -6.11934 0
M  V30 345 N 36.9525 1.47285 -0.560781 0
M  V30 346 C 37.9025 2.27073 0.205384 0
M  V30 347 C 38.8865 1.34569 0.882044 0
M  V30 348 O 40.0785 1.58899 0.77976 0
M  V30 349 C 37.2075 3.20414 1.23247 0
M  V30 350 C 36.2935 4.20399 0.559041 0
M  V30 351 N 36.6845 5.04423 -0.372927 0
M  V30 352 C 34.9825 4.38536 0.812522 0
M  V30 353 C 35.6835 5.76655 -0.764446 0
M  V30 354 N 34.6595 5.43471 -0.11848 0
M  V30 355 H 38.4615 2.89422 -0.511117 0
M  V30 356 H 35.9755 1.57868 -0.380975 0
M  V30 357 H 37.9725 3.76262 1.79534 0
M  V30 358 H 36.6325 2.59623 1.95002 0
M  V30 359 H 37.6435 5.1248 -0.747287 0
M  V30 360 H 34.3205 3.88913 1.51832 0
M  V30 361 H 35.7105 6.54238 -1.53045 0
M  V30 362 N 38.4306 0.297415 1.54768 0
M  V30 363 C 39.6606 -0.315165 2.04182 0
M  V30 364 C 40.0686 -1.4834 1.17439 0
M  V30 365 O 39.4116 -1.82695 0.191891 0
M  V30 366 C 39.4736 -0.837583 3.49607 0
M  V30 367 C 39.1376 0.204912 4.5654 0
M  V30 368 C 40.1346 1.03214 5.09552 0
M  V30 369 C 37.8196 0.345578 5.0111 0
M  V30 370 C 39.8136 1.986 6.05671 0
M  V30 371 C 37.5006 1.30289 5.97049 0
M  V30 372 C 38.4986 2.12159 6.49213 0
M  V30 373 O 38.1866 3.06268 7.43273 0
M  V30 374 H 37.9186 -0.0729646 0.672051 0
M  V30 375 H 40.4726 0.433907 2.00765 0
M  V30 376 H 38.7026 -1.63712 3.50336 0
M  V30 377 H 40.3916 -1.36566 3.82236 0
M  V30 378 H 41.1576 0.934312 4.75916 0
M  V30 379 H 37.0366 -0.28171 4.60138 0
M  V30 380 H 40.5806 2.62542 6.46311 0
M  V30 381 H 36.4776 1.40145 6.30103 0
M  V30 382 H 37.2456 3.01205 7.61064 0
M  V30 383 N 39.9087 -1.5758 0.0250728 0
M  V30 384 C 41.1367 -1.9593 -0.664747 0
M  V30 385 C 41.5517 -0.901352 -1.65895 0
M  V30 386 O 40.9087 0.117255 -1.82123 0
M  V30 387 C 40.9597 -3.34342 -1.37468 0
M  V30 388 O 40.6807 -4.36079 -0.420324 0
M  V30 389 C 42.1817 -3.873 -2.1567 0
M  V30 390 H 39.4017 -0.645405 -0.183557 0
M  V30 391 H 41.9457 -2.04329 0.0836372 0
M  V30 392 H 40.1007 -3.27175 -2.0745 0
M  V30 393 H 40.5147 -5.16297 -0.923991 0
M  V30 394 H 41.9887 -4.86504 -2.60803 0
M  V30 395 H 42.4657 -3.21331 -2.99405 0
M  V30 396 H 43.0717 -3.97723 -1.50654 0
M  V30 397 N 41.3868 0.248026 -1.55636 0
M  V30 398 C 42.3348 1.32683 -1.91045 0
M  V30 399 C 43.3288 1.49883 -0.789401 0
M  V30 400 O 44.5348 1.51371 -0.974007 0
M  V30 401 H 40.9098 0.444272 -0.606734 0
M  V30 402 H 42.8808 1.00085 -2.81115 0
M  V30 403 C 41.6298 2.6755 -2.22064 0
M  V30 404 H 40.9528 2.55114 -3.07826 0
M  V30 405 H 42.3928 3.41912 -2.50743 0
M  V30 406 C 40.8518 3.20556 -1.0366 0
M  V30 407 O 41.3818 4.00695 -0.284016 0
M  V30 408 N 39.5878 2.78568 -0.82753 0
M  V30 409 H 39.1348 2.1351 -1.44123 0
M  V30 410 H 39.0928 3.14378 -0.0369803 0
M  V30 411 N 42.8649 1.48995 0.513639 0
M  V30 412 C 44.1139 1.57093 1.2651 0
M  V30 413 C 44.4269 0.257091 1.93903 0
M  V30 414 O 45.6329 0.216478 2.70636 0
M  V30 415 C 44.0889 2.77118 2.29638 0
M  V30 416 C 43.6969 4.15209 1.68241 0
M  V30 417 C 45.4409 2.94538 3.05692 0
M  V30 418 C 43.3479 5.26474 2.69406 0
M  V30 419 H 42.2779 0.584876 0.475854 0
M  V30 420 H 44.9289 1.7536 0.540487 0
M  V30 421 H 43.3109 2.52319 3.05207 0
M  V30 422 H 44.4849 4.50094 0.987505 0
M  V30 423 H 42.7999 4.03042 1.04623 0
M  V30 424 H 45.3969 3.74832 3.8132 0
M  V30 425 H 45.7399 2.04614 3.62545 0
M  V30 426 H 46.2729 3.19316 2.37238 0
M  V30 427 H 43.0119 6.18417 2.17351 0
M  V30 428 H 42.5319 4.96058 3.37175 0
M  V30 429 H 44.2109 5.55277 3.32078 0
M  V30 430 N 44.343 -0.763751 1.37857 0
M  V30 431 C 45.291 -1.89864 1.34367 0
M  V30 432 C 46.285 -1.67816 0.231143 0
M  V30 433 O 47.491 -1.75508 0.399617 0
M  V30 434 H 43.866 -0.624501 0.41893 0
M  V30 435 H 45.837 -1.89925 2.30155 0
M  V30 436 C 44.586 -3.27227 1.1755 0
M  V30 437 H 43.909 -3.44773 2.02414 0
M  V30 438 H 45.349 -4.06911 1.1916 0
M  V30 439 C 43.808 -3.36692 -0.118311 0
M  V30 440 O 44.338 -3.86374 -1.09902 0
M  V30 441 N 42.544 -2.90092 -0.171717 0
M  V30 442 H 42.091 -2.49853 0.627012 0
M  V30 443 H 42.049 -2.96806 -1.03699 0
M  V30 444 N 45.8211 -1.22559 -0.990812 0
M  V30 445 C 47.0511 -1.07623 -1.76355 0
M  V30 446 C 47.4591 0.37601 -1.85426 0
M  V30 447 O 46.8021 1.27228 -1.32509 0
M  V30 448 C 46.8641 -1.61507 -3.21179 0
M  V30 449 C 46.5281 -3.10146 -3.35646 0
M  V30 450 C 47.5251 -4.07553 -3.22796 0
M  V30 451 C 45.2101 -3.49644 -3.60631 0
M  V30 452 C 47.2041 -5.42442 -3.34716 0
M  V30 453 C 44.8911 -4.84682 -3.72192 0
M  V30 454 C 45.8891 -5.8089 -3.59243 0
M  V30 455 O 45.5771 -7.13476 -3.70415 0
M  V30 456 H 45.3091 -0.377745 -0.560611 0
M  V30 457 H 47.8631 -1.62658 -1.25425 0
M  V30 458 H 46.0931 -1.00881 -3.73309 0
M  V30 459 H 47.7821 -1.42202 -3.80175 0
M  V30 460 H 48.5481 -3.78381 -3.03403 0
M  V30 461 H 44.4271 -2.75282 -3.69785 0
M  V30 462 H 47.9711 -6.17518 -3.24526 0
M  V30 463 H 43.8681 -5.13534 -3.91092 0
M  V30 464 H 44.6361 -7.21083 -3.87275 0
M  V30 465 N 47.2992 1.18797 -1.03562 0
M  V30 466 C 48.5292 1.92319 -0.754773 0
M  V30 467 C 48.9372 1.7612 0.691248 0
M  V30 468 O 48.2802 1.08491 1.48241 0
M  V30 469 C 48.3422 3.44284 -1.03484 0
M  V30 470 C 48.0062 3.84258 -2.47376 0
M  V30 471 C 49.0032 3.88459 -3.45537 0
M  V30 472 C 46.6882 4.15701 -2.81954 0
M  V30 473 C 48.6822 4.23545 -4.76328 0
M  V30 474 C 46.3692 4.50458 -4.12954 0
M  V30 475 C 47.3672 4.54356 -5.09951 0
M  V30 476 O 47.0552 4.88305 -6.38603 0
M  V30 477 H 46.7872 0.617527 -0.275021 0
M  V30 478 H 49.3412 1.51683 -1.38497 0
M  V30 479 H 47.5712 3.85135 -0.347513 0
M  V30 480 H 49.2602 3.99049 -0.7426 0
M  V30 481 H 50.0262 3.6431 -3.20162 0
M  V30 482 H 45.9052 4.11847 -2.0713 0
M  V30 483 H 49.4492 4.26502 -5.52035 0
M  V30 484 H 45.3462 4.74067 -4.38099 0
M  V30 485 H 46.1142 5.06227 -6.43177 0
M  V30 486 N 48.7773 0.814389 1.34928 0
M  V30 487 C 49.7243 0.22822 2.29669 0
M  V30 488 C 50.6943 -0.642164 1.53184 0
M  V30 489 O 51.8793 -0.585605 1.81591 0
M  V30 490 C 49.0193 -0.61089 3.3965 0
M  V30 491 C 48.1323 0.280792 4.31086 0
M  V30 492 C 47.2673 -0.567067 5.28165 0
M  V30 493 C 46.3063 0.324531 6.11239 0
M  V30 494 N 45.4433 -0.483756 7.00431 0
M  V30 495 H 50.2833 1.04153 2.79206 0
M  V30 496 H 47.8203 0.525133 1.37407 0
M  V30 497 H 49.7783 -1.11263 4.0209 0
M  V30 498 H 48.4083 -1.38939 2.91369 0
M  V30 499 H 47.4603 0.900688 3.69583 0
M  V30 500 H 48.7723 0.966723 4.89342 0
M  V30 501 H 47.9263 -1.13363 5.96015 0
M  V30 502 H 46.6653 -1.28654 4.70425 0
M  V30 503 H 45.6703 0.903298 5.42329 0
M  V30 504 H 46.8953 1.04198 6.71059 0
M  V30 505 H 44.8413 -1.18706 6.45171 0
M  V30 506 H 44.7583 0.143965 7.55863 0
M  V30 507 H 46.0263 -1.03334 7.7262 0
M  V30 508 N 50.2554 -1.46986 0.568584 0
M  V30 509 C 51.5324 -1.95592 -0.0174074 0
M  V30 510 C 51.9124 -1.51124 -1.47393 0
M  V30 511 O 51.2604 -0.755329 -2.15655 0
M  V30 512 C 51.4704 -3.48719 0.139913 0
M  V30 513 C 52.8184 -4.246 0.000426376 0
M  V30 514 O 53.8424 -3.56135 0.0680316 0
M  V30 515 O 52.7014 -5.46302 -0.146988 0
M  V30 516 H 49.7954 -0.82498 -0.0577599 0
M  V30 517 H 52.3414 -1.57335 0.635909 0
M  V30 518 H 51.1134 -3.73927 1.15301 0
M  V30 519 H 50.7364 -3.93771 -0.550491 0
M  V30 520 N 51.7335 -0.305618 -1.54608 0
M  V30 521 C 52.6965 0.555591 -2.22364 0
M  V30 522 C 53.6965 1.05768 -1.21119 0
M  V30 523 O 54.8865 0.952972 -1.45822 0
M  V30 524 C 52.0185 1.76974 -2.91364 0
M  V30 525 H 53.2115 -0.0364572 -2.99878 0
M  V30 526 H 50.7645 -0.0565007 -1.56198 0
M  V30 527 H 51.4995 2.40151 -2.17941 0
M  V30 528 H 51.2845 1.41732 -3.65588 0
M  V30 529 H 52.7745 2.38148 -3.43038 0
M  V30 530 N 53.2116 1.57565 -0.0334293 0
M  V30 531 C 54.1746 2.09393 0.932048 0
M  V30 532 C 55.1746 1.00986 1.25134 0
M  V30 533 O 56.3646 1.27129 1.19096 0
M  V30 534 C 53.4966 2.56338 2.2473 0
M  V30 535 H 54.6896 2.95984 0.483085 0
M  V30 536 H 52.2426 1.54819 0.21468 0
M  V30 537 H 52.9776 1.7309 2.74245 0
M  V30 538 H 52.7626 3.35542 2.02865 0
M  V30 539 H 54.2526 2.96646 2.93923 0
M  V30 540 N 54.6897 -0.239769 1.55765 0
M  V30 541 C 55.9147 -0.988373 1.82335 0
M  V30 542 C 56.3397 -1.77886 0.611421 0
M  V30 543 O 55.6977 -1.75889 -0.439639 0
M  V30 544 C 55.7457 -1.89627 3.06715 0
M  V30 545 O 54.8497 -2.98904 2.84131 0
M  V30 546 H 54.1907 -0.280858 0.601677 0
M  V30 547 H 56.7207 -0.258597 2.02959 0
M  V30 548 H 56.7307 -2.30957 3.36338 0
M  V30 549 H 55.4057 -1.31511 3.9456 0
M  V30 550 H 53.9827 -2.61651 2.65694 0
M  V30 551 N 56.1678 -1.49265 -0.50573 0
M  V30 552 C 57.1158 -1.66065 -1.62866 0
M  V30 553 C 58.1098 -0.526636 -1.61006 0
M  V30 554 O 59.3158 -0.706126 -1.65571 0
M  V30 555 H 55.6908 -0.52356 -0.539805 0
M  V30 556 H 57.6618 -2.60329 -1.45848 0
M  V30 557 C 56.4108 -1.74008 -3.01026 0
M  V30 558 H 55.7338 -2.6064 -3.03161 0
M  V30 559 H 57.1738 -1.89798 -3.79147 0
M  V30 560 C 55.6328 -0.483868 -3.33407 0
M  V30 561 O 56.1628 0.392548 -3.99777 0
M  V30 562 N 54.3688 -0.348236 -2.88506 0
M  V30 563 H 53.9158 -1.06242 -2.34671 0
M  V30 564 H 53.8738 0.491204 -3.10539 0
M  V30 565 N 57.6459 0.756429 -1.3826 0
M  V30 566 C 58.8709 1.55077 -1.37717 0
M  V30 567 C 59.2959 1.88073 0.03164 0
M  V30 568 O 58.6539 1.50364 1.01293 0
M  V30 569 C 58.7019 2.8283 -2.23695 0
M  V30 570 O 57.8059 3.77862 -1.6521 0
M  V30 571 H 57.1469 0.469152 -0.469885 0
M  V30 572 H 59.6769 0.935019 -1.81985 0
M  V30 573 H 59.6869 3.31783 -2.37453 0
M  V30 574 H 58.3619 2.58144 -3.2609 0
M  V30 575 H 56.9389 3.36555 -1.60578 0
M  V30 576 N 59.124 1.23083 0.984299 0
M  V30 577 C 60.087 1.00979 2.05757 0
M  V30 578 C 61.087 -0.0269573 1.60777 0
M  V30 579 O 62.277 0.212403 1.729 0
M  V30 580 C 59.409 0.527072 3.36801 0
M  V30 581 H 60.602 1.9622 2.26799 0
M  V30 582 H 58.155 1.05072 1.15714 0
M  V30 583 H 58.89 -0.429294 3.21446 0
M  V30 584 H 58.675 1.27515 3.70786 0
M  V30 585 H 60.165 0.392942 4.15747 0
M  V30 586 N 60.6021 -1.18246 1.0419 0
M  V30 587 C 61.5501 -2.23968 0.627792 0
M  V30 588 C 62.5441 -1.65828 -0.346019 0
M  V30 589 O 63.7501 -1.78733 -0.213175 0
M  V30 590 H 60.1251 -0.728939 0.184802 0
M  V30 591 H 62.0961 -2.56202 1.52981 0
M  V30 592 C 60.8451 -3.47699 0.00796591 0
M  V30 593 H 60.1681 -3.92734 0.748347 0
M  V30 594 H 61.6081 -4.23294 -0.24455 0
M  V30 595 C 60.0671 -3.13153 -1.24246 0
M  V30 596 O 60.5971 -3.27003 -2.33307 0
M  V30 597 N 58.8031 -2.67467 -1.13622 0
M  V30 598 H 58.3501 -2.56396 -0.248734 0
M  V30 599 H 58.3081 -2.44724 -1.97377 0
M  V30 600 N 62.0802 -0.821533 -1.34494 0
M  V30 601 C 63.4962 -0.507117 -1.51329 0
M  V30 602 C 63.6962 0.968964 -1.76673 0
M  V30 603 O 62.7522 1.75348 -1.81685 0
M  V30 604 C 64.0652 -1.36544 -2.67911 0
M  V30 605 C 65.6132 -1.36242 -2.81793 0
M  V30 606 C 66.0882 -2.2052 -4.01416 0
M  V30 607 N 67.5792 -2.18136 -4.08621 0
M  V30 608 C 68.3142 -2.80095 -5.00334 0
M  V30 609 N 67.8102 -3.51039 -5.9728 0
M  V30 610 N 69.6032 -2.69656 -4.93196 0
M  V30 611 H 61.7542 -1.77729 -1.16302 0
M  V30 612 H 64.0172 -0.757291 -0.570276 0
M  V30 613 H 63.7232 -2.41361 -2.55808 0
M  V30 614 H 63.5972 -1.02917 -3.62888 0
M  V30 615 H 65.9842 -0.322041 -2.93338 0
M  V30 616 H 66.0652 -1.73866 -1.87628 0
M  V30 617 H 65.7092 -3.24607 -3.90631 0
M  V30 618 H 65.6392 -1.80247 -4.94791 0
M  V30 619 H 68.1302 -1.6653 -3.39229 0
M  V30 620 H 68.4432 -3.95565 -6.63889 0
M  V30 621 H 66.7882 -3.55145 -5.97409 0
M  V30 622 H 69.9792 -2.13808 -4.16418 0
M  V30 623 H 70.1522 -3.1823 -5.64476 0
M  V30 624 N 63.5583 1.46682 -0.576371 0
M  V30 625 C 64.4903 2.28341 0.198231 0
M  V30 626 C 65.5033 1.38141 0.861453 0
M  V30 627 O 66.6923 1.62797 0.732082 0
M  V30 628 C 63.7923 3.12986 1.29972 0
M  V30 629 C 62.9653 4.31271 0.729639 0
M  V30 630 C 62.0243 4.97363 1.71803 0
M  V30 631 O 61.0503 5.55156 1.25658 0
M  V30 632 N 62.2523 4.93796 3.05198 0
M  V30 633 H 65.0173 2.9546 -0.502324 0
M  V30 634 H 62.5783 1.56525 -0.413715 0
M  V30 635 H 64.5703 3.54066 1.96008 0
M  V30 636 H 63.1403 2.47984 1.90323 0
M  V30 637 H 62.3603 3.94052 -0.108012 0
M  V30 638 H 63.6483 5.07739 0.328438 0
M  V30 639 H 63.0463 4.48077 3.45317 0
M  V30 640 H 61.6033 5.38837 3.6674 0
M  V30 641 N 65.0364 0.313813 1.54444 0
M  V30 642 C 66.3134 -0.345447 1.92525 0
M  V30 643 C 66.6934 -1.70667 1.24242 0
M  V30 644 O 66.0414 -2.25273 0.382654 0
M  V30 645 C 66.2514 -0.44737 3.46121 0
M  V30 646 C 67.5994 -0.712238 4.18584 0
M  V30 647 O 68.6234 -0.530678 3.52225 0
M  V30 648 O 67.4824 -1.06183 5.36085 0
M  V30 649 H 64.5764 -0.195407 0.803583 0
M  V30 650 H 67.1224 0.362813 1.65776 0
M  V30 651 H 65.8944 0.509043 3.87975 0
M  V30 652 H 65.5174 -1.20359 3.78945 0
M  V30 653 N 66.5145 -1.57545 0.0417849 0
M  V30 654 C 67.7615 -1.92317 -0.634082 0
M  V30 655 C 68.0895 -0.919334 -1.71402 0
M  V30 656 O 67.3445 0.0698253 -1.95575 0
M  V30 657 C 67.6435 -3.33794 -1.27735 0
M  V30 658 C 67.3095 -4.49716 -0.326543 0
M  V30 659 C 65.9715 -4.81156 -0.0648814 0
M  V30 660 C 68.3235 -5.20182 0.325623 0
M  V30 661 C 65.6515 -5.80414 0.856539 0
M  V30 662 C 68.0035 -6.20424 1.23518 0
M  V30 663 C 66.6675 -6.50298 1.5056 0
M  V30 664 H 65.9375 -0.703736 -0.232027 0
M  V30 665 H 68.5845 -1.91205 0.106259 0
M  V30 666 H 66.8895 -3.31228 -2.09274 0
M  V30 667 H 68.5865 -3.57975 -1.80707 0
M  V30 668 H 65.1765 -4.25176 -0.540665 0
M  V30 669 H 69.3605 -4.96112 0.136546 0
M  V30 670 H 64.6165 -6.019 1.07363 0
M  V30 671 H 68.7905 -6.74141 1.74664 0
M  V30 672 H 66.4175 -7.27025 2.22123 0
M  V30 673 N 67.9926 0.231505 -1.5589 0
M  V30 674 C 69.2206 0.974505 -1.82513 0
M  V30 675 C 69.6356 1.78344 -0.619591 0
M  V30 676 O 68.9926 1.77792 0.411848 0
M  V30 677 C 69.0436 1.90007 -3.07538 0
M  V30 678 O 68.7646 1.12385 -4.2344 0
M  V30 679 C 70.2656 2.75779 -3.47075 0
M  V30 680 H 67.4856 0.286065 -0.606966 0
M  V30 681 H 70.0296 0.249739 -2.02969 0
M  V30 682 H 68.1846 2.57891 -2.89086 0
M  V30 683 H 68.5986 1.75125 -4.944 0
M  V30 684 H 70.0726 3.36443 -4.37619 0
M  V30 685 H 70.5496 3.47672 -2.68367 0
M  V30 686 H 71.1556 2.13323 -3.67931 0
M  V30 687 N 69.4707 1.49531 0.497807 0
M  V30 688 C 70.4027 1.62559 1.61578 0
M  V30 689 C 71.4157 0.508134 1.54667 0
M  V30 690 O 72.6047 0.780309 1.60541 0
M  V30 691 C 69.7047 1.56925 3.00379 0
M  V30 692 C 68.8777 2.84257 3.3244 0
M  V30 693 C 67.9367 2.71632 4.50669 0
M  V30 694 O 66.9627 3.4557 4.52294 0
M  V30 695 N 68.1647 1.83391 5.5077 0
M  V30 696 H 70.9297 2.58981 1.50828 0
M  V30 697 H 68.4907 1.4666 0.685743 0
M  V30 698 H 70.4827 1.46129 3.77397 0
M  V30 699 H 69.0527 0.683483 3.05037 0
M  V30 700 H 68.2727 3.09381 2.44289 0
M  V30 701 H 69.5607 3.68666 3.5066 0
M  V30 702 H 68.9587 1.22583 5.52259 0
M  V30 703 H 67.5157 1.78515 6.26878 0
M  V30 704 N 70.9488 -0.749086 1.3866 0
M  V30 705 C 72.2258 -1.4992 1.25632 0
M  V30 706 C 72.6058 -2.10633 -0.140317 0
M  V30 707 O 71.9538 -1.97437 -1.15025 0
M  V30 708 C 72.1638 -2.56195 2.36992 0
M  V30 709 C 73.5118 -3.22972 2.75634 0
M  V30 710 O 74.5358 -2.66502 2.36337 0
M  V30 711 O 73.3948 -4.25122 3.43415 0
M  V30 712 H 70.4888 -0.665067 0.491544 0
M  V30 713 H 73.0348 -0.784113 1.50498 0
M  V30 714 H 71.8068 -2.09612 3.30422 0
M  V30 715 H 71.4298 -3.35279 2.13714 0
M  V30 716 N 72.4269 -1.23603 -0.977757 0
M  V30 717 C 73.8379 -1.06424 -1.53398 0
M  V30 718 C 74.1889 0.367578 -1.92726 0
M  V30 719 O 73.3139 1.25465 -1.76316 0
M  V30 720 C 73.9089 -1.92568 -2.78753 0
M  V30 721 C 72.4679 -1.79642 -3.30765 0
M  V30 722 C 71.6149 -1.88111 -2.03739 0
M  V30 723 H 74.5659 -1.37227 -0.797152 0
M  V30 724 H 74.5869 -1.45203 -3.51705 0
M  V30 725 H 74.0989 -2.96771 -2.50098 0
M  V30 726 H 72.1999 -0.782325 -3.64294 0
M  V30 727 H 72.3129 -2.63174 -4.00345 0
M  V30 728 H 70.6769 -1.31723 -2.17994 0
M  V30 729 H 71.4599 -2.93875 -1.77461 0
M  V30 730 N 73.905 1.17692 -1.04816 0
M  V30 731 C 75.153 1.87488 -0.754497 0
M  V30 732 C 75.474 1.81205 0.720407 0
M  V30 733 O 74.744 1.23544 1.52032 0
M  V30 734 H 73.324 0.694101 -0.276102 0
M  V30 735 H 75.986 1.42793 -1.32651 0
M  V30 736 H 75.082 2.93328 -1.06606 0
M  V30 737 N 75.3831 0.828654 1.34056 0
M  V30 738 C 76.3301 0.252567 2.29414 0
M  V30 739 C 77.3001 -0.62588 1.53857 0
M  V30 740 O 78.4851 -0.566312 1.82202 0
M  V30 741 C 75.6251 -0.574831 3.40279 0
M  V30 742 C 74.7381 0.326499 4.30764 0
M  V30 743 C 73.8731 -0.511016 5.28736 0
M  V30 744 C 72.9121 0.389342 6.1086 0
M  V30 745 N 72.0491 -0.409439 7.00905 0
M  V30 746 H 76.8891 1.07108 2.78086 0
M  V30 747 H 74.4261 0.539677 1.36843 0
M  V30 748 H 76.3841 -1.06992 4.03248 0
M  V30 749 H 75.0141 -1.35841 2.92826 0
M  V30 750 H 74.0661 0.939837 3.68607 0
M  V30 751 H 75.3781 1.01857 4.88289 0
M  V30 752 H 74.5321 -1.07035 5.97184 0
M  V30 753 H 73.2711 -1.23657 4.71763 0
M  V30 754 H 72.2761 0.960769 5.4134 0
M  V30 755 H 73.5011 1.1131 6.69916 0
M  V30 756 H 71.4471 -1.11856 6.46393 0
M  V30 757 H 71.3641 0.224126 7.55668 0
M  V30 758 H 72.6321 -0.951336 7.73673 0
M  V30 759 N 76.8612 -1.46375 0.584142 0
M  V30 760 C 78.1082 -2.02378 0.0702675 0
M  V30 761 C 78.4362 -1.45545 -1.29023 0
M  V30 762 O 77.6912 -0.610967 -1.85918 0
M  V30 763 C 77.9902 -3.57373 -0.0439342 0
M  V30 764 C 77.6562 -4.33252 1.24915 0
M  V30 765 C 76.3182 -4.53701 1.60341 0
M  V30 766 C 78.6702 -4.7681 2.1048 0
M  V30 767 C 75.9982 -5.1496 2.81128 0
M  V30 768 C 78.3502 -5.39404 3.30494 0
M  V30 769 C 77.0142 -5.5808 3.66201 0
M  V30 770 H 76.2842 -0.740554 0.0257127 0
M  V30 771 H 78.9312 -1.75727 0.761065 0
M  V30 772 H 77.2362 -3.83169 -0.817869 0
M  V30 773 H 78.9332 -3.98384 -0.457318 0
M  V30 774 H 75.5232 -4.17633 0.963364 0
M  V30 775 H 79.7072 -4.60766 1.84414 0
M  V30 776 H 74.9632 -5.27611 3.08928 0
M  V30 777 H 79.1372 -5.72114 3.97063 0
M  V30 778 H 76.7642 -6.05318 4.59885 0
M  V30 779 N 78.3393 -0.321999 -1.54275 0
M  V30 780 C 79.5673 0.283052 -2.04955 0
M  V30 781 C 79.9823 1.45904 -1.19823 0
M  V30 782 O 79.3393 1.81063 -0.228545 0
M  V30 783 C 79.3903 0.719028 -3.54277 0
M  V30 784 O 79.1113 -0.410175 -4.36176 0
M  V30 785 C 80.6123 1.38705 -4.21041 0
M  V30 786 H 77.8323 0.0584616 -0.668448 0
M  V30 787 H 80.3763 -0.467734 -1.99079 0
M  V30 788 H 78.5313 1.41979 -3.60445 0
M  V30 789 H 78.9453 -0.0669416 -5.24457 0
M  V30 790 H 80.4193 1.64306 -5.2698 0
M  V30 791 H 80.8963 2.33385 -3.72059 0
M  V30 792 H 81.5023 0.728906 -4.19007 0
M  V30 793 N 79.8174 1.5752 -0.0501392 0
M  V30 794 C 80.7274 2.14952 0.939827 0
M  V30 795 C 81.7434 1.10706 1.34239 0
M  V30 796 O 82.9194 1.42869 1.41952 0
M  V30 797 C 79.9844 2.68232 2.19665 0
M  V30 798 C 79.0454 3.87272 1.85253 0
M  V30 799 C 78.2784 4.38002 3.04943 0
M  V30 800 O 78.5014 3.87811 4.18281 0
M  V30 801 O 77.4354 5.29602 2.86017 0
M  V30 802 H 81.2614 2.9986 0.481392 0
M  V30 803 H 78.8464 1.4841 0.171699 0
M  V30 804 H 80.7284 3.02475 2.93406 0
M  V30 805 H 79.4034 1.86395 2.64648 0
M  V30 806 H 78.3104 3.5792 1.0883 0
M  V30 807 H 79.6434 4.70336 1.4507 0
M  V30 808 N 81.2955 -0.223234 1.56011 0
M  V30 809 C 82.7065 -0.790368 1.69145 0
M  V30 810 C 83.0575 -1.85055 0.651845 0
M  V30 811 O 82.1825 -2.15498 -0.197359 0
M  V30 812 C 82.7775 -1.4404 3.06656 0
M  V30 813 C 81.3365 -1.95494 3.2165 0
M  V30 814 C 80.4835 -0.814506 2.65068 0
M  V30 815 H 83.4345 0.00139011 1.587 0
M  V30 816 H 83.4555 -2.30916 3.0242 0
M  V30 817 H 82.9675 -0.668543 3.82298 0
M  V30 818 H 81.0685 -2.75487 2.50874 0
M  V30 819 H 81.1815 -2.13607 4.28846 0
M  V30 820 H 79.5455 -1.22137 2.23505 0
M  V30 821 H 80.3285 -0.0553515 3.43255 0
M  V30 822 N 82.7736 -1.49793 -0.48987 0
M  V30 823 C 83.7066 -1.61898 -1.60823 0
M  V30 824 C 84.6846 -0.467651 -1.5573 0
M  V30 825 O 85.8686 -0.684682 -1.75626 0
M  V30 826 C 82.9956 -1.58422 -2.99366 0
M  V30 827 C 82.0416 -2.78889 -3.22682 0
M  V30 828 S 82.8746 -4.40429 -3.04602 0
M  V30 829 C 84.0306 -4.39617 -4.4552 0
M  V30 830 H 84.2636 -2.56502 -1.50312 0
M  V30 831 H 81.7966 -1.38822 -0.675849 0
M  V30 832 H 83.7546 -1.57103 -3.79248 0
M  V30 833 H 82.4156 -0.650866 -3.07283 0
M  V30 834 H 81.6086 -2.72708 -4.23847 0
M  V30 835 H 81.2106 -2.77678 -2.50541 0
M  V30 836 H 83.5026 -4.12022 -5.37814 0
M  V30 837 H 84.4456 -5.41097 -4.56749 0
M  V30 838 H 84.8536 -3.69554 -4.2672 0
M  V30 839 N 84.2517 0.741722 -1.39055 0
M  V30 840 C 85.1987 1.85566 -1.37237 0
M  V30 841 C 86.1687 1.64457 -0.233072 0
M  V30 842 O 87.3537 1.85957 -0.427147 0
M  V30 843 C 84.4937 3.23004 -1.215 0
M  V30 844 C 83.6067 3.55864 -2.44918 0
M  V30 845 C 82.7417 4.82669 -2.21821 0
M  V30 846 C 81.7807 5.08351 -3.40948 0
M  V30 847 N 80.9177 6.26356 -3.17211 0
M  V30 848 H 85.7577 1.86455 -2.32462 0
M  V30 849 H 83.2947 0.911176 -1.15482 0
M  V30 850 H 85.2527 4.02331 -1.10389 0
M  V30 851 H 83.8827 3.21411 -0.29908 0
M  V30 852 H 82.9347 2.7129 -2.66657 0
M  V30 853 H 84.2467 3.70765 -3.33668 0
M  V30 854 H 83.4007 5.69962 -2.07914 0
M  V30 855 H 82.1397 4.69929 -1.30454 0
M  V30 856 H 81.1447 4.19522 -3.55361 0
M  V30 857 H 82.3697 5.22981 -4.33207 0
M  V30 858 H 80.3157 6.14917 -2.28502 0
M  V30 859 H 80.2327 6.41813 -3.99515 0
M  V30 860 H 81.5007 7.16506 -3.06984 0
M  V30 861 N 85.7298 1.2412 0.971189 0
M  V30 862 C 87.0068 0.986867 1.6888 0
M  V30 863 C 87.3868 -0.491857 2.0529 0
M  V30 864 O 86.7348 -1.46531 1.75331 0
M  V30 865 C 86.9448 1.9063 2.92338 0
M  V30 866 C 88.2928 2.17515 3.64654 0
M  V30 867 O 89.3168 1.88254 3.02388 0
M  V30 868 O 88.1758 2.6719 4.7673 0
M  V30 869 H 85.2698 0.372944 0.738134 0
M  V30 870 H 87.8158 1.35203 1.02559 0
M  V30 871 H 86.5878 2.90552 2.62097 0
M  V30 872 H 86.2108 1.54408 3.66393 0
M  V30 873 N 87.2079 -1.17134 1.05439 0
M  V30 874 C 88.4539 -1.87733 0.767077 0
M  V30 875 C 88.7869 -1.8098 -0.704253 0
M  V30 876 O 88.0619 -1.21951 -1.5152 0
M  V30 877 C 88.3449 -3.37659 1.25133 0
M  V30 878 C 88.1979 -3.53149 2.78578 0
M  V30 879 C 89.5169 -4.31768 0.852324 0
M  V30 880 H 86.6359 -0.681687 0.280129 0
M  V30 881 H 89.2779 -1.37732 1.30881 0
M  V30 882 H 87.4279 -3.80373 0.790469 0
M  V30 883 H 89.0999 -3.19434 3.32806 0
M  V30 884 H 87.3429 -2.95345 3.17732 0
M  V30 885 H 88.0139 -4.58403 3.07523 0
M  V30 886 H 90.4899 -3.96909 1.24911 0
M  V30 887 H 89.3659 -5.35199 1.21873 0
M  V30 888 H 89.6269 -4.41429 -0.243485 0
M  V30 889 N 88.686 -0.835752 -1.33615 0
M  V30 890 C 89.619 -0.211815 -2.27215 0
M  V30 891 C 90.597 0.639249 -1.49507 0
M  V30 892 O 91.781 0.600193 -1.78689 0
M  V30 893 C 88.908 0.702893 -3.31326 0
M  V30 894 C 87.954 -0.0723049 -4.26439 0
M  V30 895 S 88.787 -1.42811 -5.16106 0
M  V30 896 C 89.943 -0.518613 -6.23748 0
M  V30 897 H 90.176 -1.00533 -2.79786 0
M  V30 898 H 87.709 -0.632336 -1.40858 0
M  V30 899 H 89.667 1.22505 -3.91794 0
M  V30 900 H 88.328 1.47004 -2.77576 0
M  V30 901 H 87.521 0.62359 -5.00127 0
M  V30 902 H 87.123 -0.525424 -3.70291 0
M  V30 903 H 89.415 0.284778 -6.76901 0
M  V30 904 H 90.358 -1.22556 -6.97413 0
M  V30 905 H 90.766 -0.101344 -5.64409 0
M  V30 906 N 90.1641 1.46063 -0.591896 0
M  V30 907 C 91.4131 2.01547 -0.0786637 0
M  V30 908 C 91.7261 1.46796 1.29268 0
M  V30 909 O 92.9321 1.94157 1.89777 0
M  V30 910 C 91.3881 3.59787 -0.0900024 0
M  V30 911 C 90.9961 4.23534 -1.46023 0
M  V30 912 C 92.7401 4.22895 0.368806 0
M  V30 913 C 90.6471 5.73881 -1.4288 0
M  V30 914 H 89.5771 0.753564 -0.0256388 0
M  V30 915 H 92.2281 1.677 -0.744905 0
M  V30 916 H 90.6101 3.90752 0.642586 0
M  V30 917 H 91.7841 4.04167 -2.21328 0
M  V30 918 H 90.0991 3.72558 -1.85982 0
M  V30 919 H 92.6961 5.33116 0.411258 0
M  V30 920 H 93.0391 3.9247 1.38827 0
M  V30 921 H 93.5721 3.9659 -0.31001 0
M  V30 922 H 90.3111 6.0898 -2.42536 0
M  V30 923 H 89.8311 5.95486 -0.718095 0
M  V30 924 H 91.5101 6.36776 -1.14565 0
M  V30 925 N 91.6422 0.330177 1.54103 0
M  V30 926 C 92.5892 -0.532762 2.24567 0
M  V30 927 C 93.5592 -1.10635 1.23892 0
M  V30 928 O 94.7442 -1.14546 1.5259 0
M  V30 929 C 91.8842 -1.6845 3.01195 0
M  V30 930 C 90.9972 -1.13951 4.167 0
M  V30 931 C 90.1322 -2.25746 4.80845 0
M  V30 932 C 89.1712 -1.6853 5.88442 0
M  V30 933 N 88.3082 -2.74014 6.46421 0
M  V30 934 H 93.1482 0.0746905 2.97906 0
M  V30 935 H 90.6852 0.048632 1.4702 0
M  V30 936 H 92.6432 -2.36234 3.43874 0
M  V30 937 H 91.2732 -2.26314 2.30178 0
M  V30 938 H 90.3252 -0.35301 3.78758 0
M  V30 939 H 91.6372 -0.680892 4.94131 0
M  V30 940 H 90.7912 -3.01422 5.26526 0
M  V30 941 H 89.5302 -2.74947 4.0281 0
M  V30 942 H 88.5352 -0.913543 5.42157 0
M  V30 943 H 89.7602 -1.20198 6.68378 0
M  V30 944 H 87.7062 -3.22494 5.71256 0
M  V30 945 H 87.6232 -2.32735 7.19285 0
M  V30 946 H 88.8912 -3.49499 6.96757 0
M  V30 947 N 93.1203 -1.57491 0.0584922 0
M  V30 948 C 94.3483 -1.97296 -0.623037 0
M  V30 949 C 94.7633 -0.936338 -1.63946 0
M  V30 950 O 94.1203 0.0785981 -1.82331 0
M  V30 951 C 94.1713 -3.37183 -1.30345 0
M  V30 952 O 93.8923 -4.36872 -0.32773 0
M  V30 953 C 95.3933 -3.91788 -2.07406 0
M  V30 954 H 92.6133 -0.649153 -0.169826 0
M  V30 955 H 95.1573 -2.04106 0.12696 0
M  V30 956 H 93.3123 -3.31502 -2.00463 0
M  V30 957 H 93.7263 -5.18141 -0.814269 0
M  V30 958 H 95.2003 -4.91926 -2.50425 0
M  V30 959 H 95.6773 -3.27609 -2.92521 0
M  V30 960 H 96.2833 -4.00829 -1.42184 0
M  V30 961 N 94.5984 0.214957 -1.56127 0
M  V30 962 C 95.5284 1.2695 -1.95974 0
M  V30 963 C 96.5094 1.48539 -0.828868 0
M  V30 964 O 97.6944 1.60611 -1.09168 0
M  V30 965 C 94.8244 2.61794 -2.28214 0
M  V30 966 C 93.7784 2.54851 -3.43853 0
M  V30 967 C 93.1044 3.93785 -3.61715 0
M  V30 968 C 94.4044 2.09065 -4.78632 0
M  V30 969 H 96.0984 0.93846 -2.84312 0
M  V30 970 H 93.6444 0.449996 -1.36788 0
M  V30 971 H 95.5974 3.35731 -2.54682 0
M  V30 972 H 94.3214 2.96599 -1.36736 0
M  V30 973 H 92.9804 1.8337 -3.17444 0
M  V30 974 H 92.6284 4.25908 -2.67602 0
M  V30 975 H 92.3284 3.90019 -4.39498 0
M  V30 976 H 93.8524 4.69374 -3.90539 0
M  V30 977 H 95.2664 2.7275 -5.04262 0
M  V30 978 H 93.6634 2.16346 -5.59745 0
M  V30 979 H 94.7334 1.04315 -4.73547 0
M  V30 980 N 96.0765 1.50051 0.48192 0
M  V30 981 C 97.4875 1.5348 1.06305 0
M  V30 982 C 97.8385 0.331997 1.93371 0
M  V30 983 O 96.9635 -0.556256 2.09129 0
M  V30 984 C 97.5585 2.7813 1.93466 0
M  V30 985 C 96.1175 2.84275 2.46707 0
M  V30 986 C 95.2645 2.47637 1.24785 0
M  V30 987 H 98.2155 1.56472 0.264995 0
M  V30 988 H 98.2365 2.59372 2.78399 0
M  V30 989 H 97.7485 3.65654 1.30072 0
M  V30 990 H 95.8495 2.01077 3.13686 0
M  V30 991 H 95.9625 3.8691 2.82555 0
M  V30 992 H 94.3265 1.99835 1.57918 0
M  V30 993 H 95.1095 3.37457 0.630694 0
M  V30 994 N 97.5546 -0.734337 1.39446 0
M  V30 995 C 98.5176 -1.83004 1.37994 0
M  V30 996 C 99.5176 -1.58397 0.276938 0
M  V30 997 O 100.708 -1.65785 0.534875 0
M  V30 998 C 97.8396 -3.20802 1.1532 0
M  V30 999 H 99.0326 -1.85694 2.35494 0
M  V30 1000 H 96.5856 -0.938059 1.25021 0
M  V30 1001 H 97.3206 -3.23772 0.185036 0
M  V30 1002 H 97.1056 -3.4006 1.95197 0
M  V30 1003 H 98.5956 -4.00862 1.17046 0
M  V30 1004 N 99.0327 -1.24633 -0.964593 0
M  V30 1005 C 99.9627 -1.06611 -2.07741 0
M  V30 1006 C 100.944 0.0218666 -1.70086 0
M  V30 1007 O 102.129 -0.145793 -1.93652 0
M  V30 1008 C 99.2587 -0.673444 -3.40708 0
M  V30 1009 C 98.2127 -1.71054 -3.92332 0
M  V30 1010 C 97.5387 -1.17285 -5.21678 0
M  V30 1011 C 98.8387 -3.10718 -4.19824 0
M  V30 1012 H 100.533 -1.99693 -2.23076 0
M  V30 1013 H 98.0787 -0.96152 -1.07195 0
M  V30 1014 H 100.032 -0.534345 -4.17998 0
M  V30 1015 H 98.7557 0.293073 -3.25282 0
M  V30 1016 H 97.4147 -1.83791 -3.17201 0
M  V30 1017 H 97.0627 -0.196847 -5.02615 0
M  V30 1018 H 96.7627 -1.86592 -5.57187 0
M  V30 1019 H 98.2867 -1.04593 -6.01575 0
M  V30 1020 H 99.7007 -3.01192 -4.87808 0
M  V30 1021 H 98.0977 -3.77406 -4.66567 0
M  V30 1022 H 99.1677 -3.58524 -3.26479 0
M  V30 1023 N 100.511 1.16574 -1.06058 0
M  V30 1024 C 101.459 2.22941 -0.663343 0
M  V30 1025 C 102.453 1.66358 0.319593 0
M  V30 1026 O 103.659 1.7905 0.184713 0
M  V30 1027 H 100.034 0.725907 -0.196376 0
M  V30 1028 H 102.005 2.53736 -1.57037 0
M  V30 1029 C 100.754 3.47642 -0.0632808 0
M  V30 1030 H 100.077 3.91493 -0.810733 0
M  V30 1031 H 101.517 4.2363 0.177177 0
M  V30 1032 C 99.9758 3.1509 1.19248 0
M  V30 1033 O 100.506 3.30673 2.28075 0
M  V30 1034 N 98.7118 2.6924 1.09353 0
M  V30 1035 H 98.2588 2.5676 0.207912 0
M  V30 1036 H 98.2168 2.47833 1.93458 0
M  V30 1037 N 101.989 0.842826 1.3317 0
M  V30 1038 C 103.214 0.453129 2.02389 0
M  V30 1039 C 103.639 -0.939105 1.6298 0
M  V30 1040 O 102.997 -1.61472 0.8244 0
M  V30 1041 C 103.045 0.586094 3.55805 0
M  V30 1042 O 102.149 -0.386029 4.10589 0
M  V30 1043 H 101.49 0.183664 0.638094 0
M  V30 1044 H 104.02 1.13875 1.69981 0
M  V30 1045 H 104.03 0.469209 4.05293 0
M  V30 1046 H 102.705 1.6014 3.83833 0
M  V30 1047 H 101.282 -0.226371 3.72212 0
M  V30 1048 N 103.467 -1.45747 0.599634 0
M  V30 1049 C 104.878 -1.85853 0.177681 0
M  V30 1050 C 105.229 -1.50102 -1.26348 0
M  V30 1051 O 104.354 -0.923905 -1.95686 0
M  V30 1052 C 104.949 -3.37326 0.315688 0
M  V30 1053 C 103.508 -3.76365 -0.0515144 0
M  V30 1054 C 102.655 -2.69722 0.643822 0
M  V30 1055 H 105.606 -1.36661 0.806814 0
M  V30 1056 H 105.627 -3.77778 -0.454321 0
M  V30 1057 H 105.139 -3.63315 1.36468 0
M  V30 1058 H 103.24 -3.55993 -1.09999 0
M  V30 1059 H 103.353 -4.77916 0.336594 0
M  V30 1060 H 101.717 -2.54567 0.0822881 0
M  V30 1061 H 102.5 -2.98549 1.6948 0
M  V30 1062 N 104.945 -0.338344 -1.53925 0
M  V30 1063 C 106.173 0.261298 -2.05243 0
M  V30 1064 C 106.588 1.44625 -1.21363 0
M  V30 1065 O 105.945 1.80811 -0.247736 0
M  V30 1066 C 105.996 0.681412 -3.5502 0
M  V30 1067 O 105.717 -0.456414 -4.35716 0
M  V30 1068 C 107.218 1.34232 -4.22489 0
M  V30 1069 H 104.438 0.0513685 -0.669031 0
M  V30 1070 H 106.982 -0.488822 -1.98572 0
M  V30 1071 H 105.137 1.38148 -3.61931 0
M  V30 1072 H 105.551 -0.122564 -5.24357 0
M  V30 1073 H 107.025 1.58708 -5.28693 0
M  V30 1074 H 107.502 2.29426 -3.74514 0
M  V30 1075 H 108.108 0.684424 -4.19757 0
M  V30 1076 N 106.423 1.57458 -0.0668435 0
M  V30 1077 C 107.669 1.93587 0.6043 0
M  V30 1078 C 108.002 0.946722 1.69561 0
M  V30 1079 O 107.277 -0.0248516 1.94484 0
M  V30 1080 C 107.56 3.40014 1.18585 0
M  V30 1081 C 107.413 4.49685 0.101529 0
M  V30 1082 C 108.732 3.87154 2.09284 0
M  V30 1083 H 105.851 0.703958 0.218202 0
M  V30 1084 H 108.493 1.89542 -0.131804 0
M  V30 1085 H 106.643 3.43592 1.81319 0
M  V30 1086 H 108.315 4.5823 -0.531279 0
M  V30 1087 H 106.558 4.30059 -0.568487 0
M  V30 1088 H 107.229 5.49266 0.54874 0
M  V30 1089 H 109.705 3.85551 1.56491 0
M  V30 1090 H 108.581 4.90231 2.46911 0
M  V30 1091 H 108.842 3.2481 2.99918 0
M  V30 1092 N 107.901 -0.206675 1.56239 0
M  V30 1093 C 108.811 -1.27686 1.96808 0
M  V30 1094 C 109.827 -1.50455 0.874035 0
M  V30 1095 O 111.003 -1.63295 1.17884 0
M  V30 1096 C 108.068 -2.60358 2.28942 0
M  V30 1097 C 107.129 -2.45762 3.51994 0
M  V30 1098 C 106.362 -3.72108 3.82585 0
M  V30 1099 O 106.585 -4.75776 3.14631 0
M  V30 1100 O 105.519 -3.6833 4.76043 0
M  V30 1101 H 109.345 -0.962593 2.88041 0
M  V30 1102 H 106.93 -0.410746 1.43643 0
M  V30 1103 H 108.812 -3.38687 2.50737 0
M  V30 1104 H 107.487 -2.91435 1.4088 0
M  V30 1105 H 106.394 -1.65584 3.35459 0
M  V30 1106 H 107.727 -2.19621 4.40486 0
M  V30 1107 N 109.379 -1.50304 -0.473955 0
M  V30 1108 C 110.289 -1.7174 -1.5982 0
M  V30 1109 C 111.305 -0.600457 -1.63311 0
M  V30 1110 O 112.481 -0.878441 -1.81233 0
M  V30 1111 C 109.546 -1.80427 -2.96052 0
M  V30 1112 C 108.607 -3.04148 -3.02972 0
M  V30 1113 C 107.84 -3.12411 -4.32706 0
M  V30 1114 O 108.063 -2.27542 -5.23049 0
M  V30 1115 O 106.997 -4.05113 -4.45159 0
M  V30 1116 H 110.823 -2.67035 -1.44657 0
M  V30 1117 H 108.408 -1.34366 -0.653148 0
M  V30 1118 H 110.29 -1.88338 -3.7697 0
M  V30 1119 H 108.965 -0.883156 -3.11419 0
M  V30 1120 H 107.872 -3.0174 -2.21142 0
M  V30 1121 H 109.205 -3.95829 -2.92541 0
M  V30 1122 N 110.857 0.726932 -1.39834 0
M  V30 1123 C 112.097 1.4992 -1.38936 0
M  V30 1124 C 112.461 1.91996 0.0126883 0
M  V30 1125 O 113.662 2.68399 0.146715 0
M  V30 1126 C 111.933 2.70013 -2.34153 0
M  V30 1127 S 113.492 3.59563 -2.51515 0
M  V30 1128 H 110.31 0.51271 -0.492595 0
M  V30 1129 H 112.912 0.85107 -1.76003 0
M  V30 1130 H 111.616 2.37254 -3.34871 0
M  V30 1131 H 111.147 3.39748 -1.98331 0
M  V30 1132 H 113.162 4.63973 -1.75909 0
M  V30 1133 N 112.336 1.25143 0.95797 0
M  V30 1134 C 113.584 1.09476 1.69881 0
M  V30 1135 C 113.905 -0.365502 1.91544 0
M  V30 1136 O 113.175 -1.25985 1.50015 0
M  V30 1137 H 111.755 0.402128 0.629525 0
M  V30 1138 H 114.417 1.57214 1.15194 0
M  V30 1139 H 113.513 1.60046 2.6794 0
M  V30 1140 N 113.814 -1.1601 1.06675 0
M  V30 1141 C 115.044 -1.90251 0.805497 0
M  V30 1142 C 115.452 -1.77891 -0.64431 0
M  V30 1143 O 114.795 -1.12383 -1.45313 0
M  V30 1144 C 114.857 -3.41419 1.12576 0
M  V30 1145 C 114.521 -3.77564 2.57477 0
M  V30 1146 C 115.518 -3.79161 3.55715 0
M  V30 1147 C 113.203 -4.08079 2.92877 0
M  V30 1148 C 115.197 -4.10767 4.8739 0
M  V30 1149 C 112.884 -4.39351 4.24751 0
M  V30 1150 C 113.882 -4.40675 5.21818 0
M  V30 1151 O 113.57 -4.71202 6.51325 0
M  V30 1152 H 113.302 -0.610018 0.291297 0
M  V30 1153 H 115.856 -1.47958 1.4247 0
M  V30 1154 H 114.086 -3.84079 0.449503 0
M  V30 1155 H 115.775 -3.9694 0.84814 0
M  V30 1156 H 116.541 -3.55693 3.29708 0
M  V30 1157 H 112.42 -4.06211 2.17976 0
M  V30 1158 H 115.964 -4.11715 5.63148 0
M  V30 1159 H 111.861 -4.62285 4.50514 0
M  V30 1160 H 112.629 -4.88996 6.56373 0
M  V30 1161 N 115.292 -0.849877 -1.32721 0
M  V30 1162 C 116.517 -0.463856 -2.02146 0
M  V30 1163 C 116.942 0.930449 -1.63476 0
M  V30 1164 O 116.3 1.61033 -0.832952 0
M  V30 1165 C 116.348 -0.604955 -3.55489 0
M  V30 1166 O 115.452 0.36425 -4.10788 0
M  V30 1167 H 114.793 -0.187046 -0.637111 0
M  V30 1168 H 117.323 -1.14775 -1.69375 0
M  V30 1169 H 117.333 -0.490696 -4.05038 0
M  V30 1170 H 116.008 -1.62174 -3.82978 0
M  V30 1171 H 114.585 0.206628 -3.72327 0
M  V30 1172 N 116.77 1.45427 -0.607355 0
M  V30 1173 C 118.047 1.9557 -0.0344566 0
M  V30 1174 C 118.427 1.54979 1.43334 0
M  V30 1175 O 117.775 0.812241 2.13576 0
M  V30 1176 C 117.985 3.48226 -0.232321 0
M  V30 1177 C 119.333 4.2445 -0.113001 0
M  V30 1178 O 120.357 3.55829 -0.162431 0
M  V30 1179 O 119.216 5.465 0.00209442 0
M  V30 1180 H 116.31 0.826222 0.0358667 0
M  V30 1181 H 118.856 1.55594 -0.6774 0
M  V30 1182 H 117.628 3.70739 -1.25174 0
M  V30 1183 H 117.251 3.95092 0.445896 0
M  V30 1184 N 118.248 0.346503 1.53744 0
M  V30 1185 C 119.664 -0.00530975 1.59599 0
M  V30 1186 C 119.864 -1.48465 1.36236 0
M  V30 1187 O 118.92 -2.24376 1.15808 0
M  V30 1188 C 120.233 0.433516 2.97559 0
M  V30 1189 C 121.781 0.386111 3.10609 0
M  V30 1190 C 122.256 0.800451 4.50951 0
M  V30 1191 N 123.747 0.754753 4.5701 0
M  V30 1192 C 124.482 1.04727 5.63755 0
M  V30 1193 N 123.978 1.4081 6.7834 0
M  V30 1194 N 125.771 0.971316 5.53644 0
M  V30 1195 H 117.922 1.31009 1.67184 0
M  V30 1196 H 120.185 0.534242 0.783128 0
M  V30 1197 H 119.891 1.46509 3.19731 0
M  V30 1198 H 119.765 -0.189753 3.76722 0
M  V30 1199 H 122.152 -0.636295 2.88158 0
M  V30 1200 H 122.233 1.04462 2.33498 0
M  V30 1201 H 121.877 1.82088 4.74137 0
M  V30 1202 H 121.807 0.119386 5.26465 0
M  V30 1203 H 124.298 0.488662 3.74727 0
M  V30 1204 H 124.611 1.61607 7.55714 0
M  V30 1205 H 122.956 1.44657 6.79779 0
M  V30 1206 H 126.147 0.688748 4.63005 0
M  V30 1207 H 126.32 1.20263 6.36742 0
M  V30 1208 N 119.726 -1.57421 0.075193 0
M  V30 1209 C 120.972 -1.93905 -0.594025 0
M  V30 1210 C 121.305 -0.955701 -1.69056 0
M  V30 1211 O 120.58 0.0145373 -1.94495 0
M  V30 1212 C 120.863 -3.40638 -1.1678 0
M  V30 1213 C 120.716 -4.49733 -0.0776792 0
M  V30 1214 C 122.035 -3.88259 -2.07228 0
M  V30 1215 H 119.154 -0.705105 -0.214466 0
M  V30 1216 H 121.796 -1.8947 0.141854 0
M  V30 1217 H 119.946 -3.44549 -1.79494 0
M  V30 1218 H 121.618 -4.57942 0.555573 0
M  V30 1219 H 119.861 -4.29751 0.591286 0
M  V30 1220 H 120.532 -5.49549 -0.519603 0
M  V30 1221 H 123.008 -3.86376 -1.54445 0
M  V30 1222 H 121.884 -4.91533 -2.44308 0
M  V30 1223 H 122.145 -3.26396 -2.98191 0
M  V30 1224 N 121.204 0.198386 -1.56346 0
M  V30 1225 C 122.62 0.549085 -1.49857 0
M  V30 1226 C 122.82 1.86016 -0.774611 0
M  V30 1227 O 121.876 2.50416 -0.323776 0
M  V30 1228 C 123.189 0.606868 -2.94512 0
M  V30 1229 C 124.737 0.695925 -3.05165 0
M  V30 1230 C 125.212 0.784848 -4.51225 0
M  V30 1231 N 126.703 0.848463 -4.55363 0
M  V30 1232 C 127.438 0.937378 -5.65686 0
M  V30 1233 N 126.934 0.9888 -6.85707 0
M  V30 1234 N 128.727 0.974312 -5.53592 0
M  V30 1235 H 120.878 -0.661655 -2.01831 0
M  V30 1236 H 123.141 -0.235261 -0.918344 0
M  V30 1237 H 122.847 -0.28732 -3.50524 0
M  V30 1238 H 122.721 1.46268 -3.47686 0
M  V30 1239 H 125.108 1.58055 -2.49204 0
M  V30 1240 H 125.189 -0.186022 -2.55123 0
M  V30 1241 H 124.833 -0.0954072 -5.0781 0
M  V30 1242 H 124.763 1.68255 -4.98997 0
M  V30 1243 H 127.254 0.818103 -3.68938 0
M  V30 1244 H 127.567 1.05707 -7.65536 0
M  V30 1245 H 125.912 0.957534 -6.88372 0
M  V30 1246 H 129.103 0.930954 -4.58749 0
M  V30 1247 H 129.276 1.04015 -6.39597 0
M  V30 1248 N 122.682 1.50554 0.465978 0
M  V30 1249 C 123.907 1.65838 1.24549 0
M  V30 1250 C 124.332 0.343486 1.84937 0
M  V30 1251 O 123.69 -0.69324 1.67523 0
M  V30 1252 C 123.738 2.75533 2.32624 0
M  V30 1253 O 122.842 2.37142 3.37398 0
M  V30 1254 H 122.183 0.553893 0.366194 0
M  V30 1255 H 124.713 1.96959 0.553927 0
M  V30 1256 H 124.723 2.98763 2.77857 0
M  V30 1257 H 123.398 3.70962 1.88043 0
M  V30 1258 H 121.975 2.24377 2.97841 0
M  V30 1259 N 124.16 -0.719506 1.40217 0
M  V30 1260 C 125.409 -1.47486 1.37589 0
M  V30 1261 C 125.722 -1.9559 -0.0201568 0
M  V30 1262 O 126.928 -2.70973 -0.169049 0
M  V30 1263 C 125.384 -2.66575 2.41796 0
M  V30 1264 C 124.992 -2.25358 3.87192 0
M  V30 1265 C 126.736 -3.4433 2.48269 0
M  V30 1266 C 124.643 -3.41262 4.83005 0
M  V30 1267 H 123.573 -0.553901 0.511576 0
M  V30 1268 H 126.224 -0.783427 1.65936 0
M  V30 1269 H 124.606 -3.3787 2.06543 0
M  V30 1270 H 125.78 -1.61509 4.31569 0
M  V30 1271 H 124.095 -1.60657 3.84159 0
M  V30 1272 H 126.692 -4.30569 3.17041 0
M  V30 1273 H 127.035 -3.87872 1.51198 0
M  V30 1274 H 127.568 -2.80076 2.82493 0
M  V30 1275 H 124.307 -3.02755 5.81394 0
M  V30 1276 H 123.827 -4.0404 4.43297 0
M  V30 1277 H 125.506 -4.07383 5.02641 0
M  V30 1278 N 125.638 -1.25649 -0.95132 0
M  V30 1279 C 126.866 -1.13343 -1.73092 0
M  V30 1280 C 127.281 0.312434 -1.86197 0
M  V30 1281 O 126.638 1.21465 -1.36207 0
M  V30 1282 C 126.689 -1.78602 -3.14299 0
M  V30 1283 O 126.41 -3.17537 -3.01831 0
M  V30 1284 C 127.911 -1.72119 -4.08522 0
M  V30 1285 H 125.131 -0.395181 -0.542285 0
M  V30 1286 H 127.675 -1.66076 -1.19328 0
M  V30 1287 H 125.83 -1.29832 -3.64996 0
M  V30 1288 H 126.244 -3.49676 -3.90931 0
M  V30 1289 H 127.718 -2.22435 -5.052 0
M  V30 1290 H 128.195 -0.685635 -4.33815 0
M  V30 1291 H 128.801 -2.20393 -3.63741 0
M  V30 1292 N 127.117 1.15442 -1.07289 0
M  V30 1293 C 128.047 2.22312 -0.714107 0
M  V30 1294 C 129.028 1.67467 0.298155 0
M  V30 1295 O 130.213 1.93445 0.171048 0
M  V30 1296 C 127.343 3.47124 -0.110448 0
M  V30 1297 C 126.297 4.14926 -1.04979 0
M  V30 1298 C 125.623 5.33807 -0.308924 0
M  V30 1299 C 126.923 4.64762 -2.38314 0
M  V30 1300 H 128.617 2.5258 -1.6076 0
M  V30 1301 H 126.163 1.21404 -0.77441 0
M  V30 1302 H 128.116 4.21124 0.152482 0
M  V30 1303 H 126.84 3.16187 0.81812 0
M  V30 1304 H 125.499 3.42866 -1.29764 0
M  V30 1305 H 125.147 4.99126 0.623084 0
M  V30 1306 H 124.847 5.80113 -0.935036 0
M  V30 1307 H 126.371 6.10576 -0.0537771 0
M  V30 1308 H 127.785 5.30292 -2.1786 0
M  V30 1309 H 126.182 5.21728 -2.96514 0
M  V30 1310 H 127.252 3.80434 -3.00663 0
M  V30 1311 N 128.595 0.856903 1.32268 0
M  V30 1312 C 129.843 0.460474 1.96784 0
M  V30 1313 C 130.164 -0.987701 1.68135 0
M  V30 1314 O 129.434 -1.69058 0.989765 0
M  V30 1315 H 128.014 0.167289 0.728027 0
M  V30 1316 H 130.676 1.09383 1.61312 0
M  V30 1317 H 129.772 0.60739 3.06133 0
M  V30 1318 N 130.073 -1.45103 0.615059 0
M  V30 1319 C 131.021 -2.32331 -0.111791 0
M  V30 1320 C 132.015 -1.46409 -0.852102 0
M  V30 1321 O 133.221 -1.62849 -0.766821 0
M  V30 1322 H 129.596 -0.749993 -0.0549072 0
M  V30 1323 H 131.567 -2.91407 0.642225 0
M  V30 1324 C 130.316 -3.3015 -1.09071 0
M  V30 1325 H 129.639 -3.96265 -0.530485 0
M  V30 1326 H 131.079 -3.93898 -1.56908 0
M  V30 1327 C 129.538 -2.57875 -2.168 0
M  V30 1328 O 130.068 -2.36567 -3.24652 0
M  V30 1329 N 128.274 -2.17884 -1.92289 0
M  V30 1330 H 127.821 -2.35413 -1.04587 0
M  V30 1331 H 127.779 -1.6985 -2.64572 0
M  V30 1332 N 131.551 -0.354651 -1.53558 0
M  V30 1333 C 132.776 0.242153 -2.05981 0
M  V30 1334 C 133.201 1.42553 -1.2272 0
M  V30 1335 O 132.559 1.79656 -0.243604 0
M  V30 1336 C 132.607 0.624367 -3.55154 0
M  V30 1337 O 131.711 1.72301 -3.74681 0
M  V30 1338 H 131.052 0.0378432 -0.662921 0
M  V30 1339 H 133.582 -0.512087 -1.98088 0
M  V30 1340 H 133.592 0.898433 -3.97985 0
M  V30 1341 H 132.267 -0.240989 -4.15201 0
M  V30 1342 H 130.844 1.44535 -3.4375 0
M  V30 1343 N 133.029 1.57378 -0.0835403 0
M  V30 1344 C 134.257 1.98263 0.59157 0
M  V30 1345 C 134.672 0.962302 1.62435 0
M  V30 1346 O 134.029 -0.049581 1.82433 0
M  V30 1347 C 134.08 3.39214 1.24965 0
M  V30 1348 O 133.801 4.37339 0.258186 0
M  V30 1349 C 135.302 3.95038 2.01147 0
M  V30 1350 H 132.522 0.651773 0.159477 0
M  V30 1351 H 135.066 2.03878 -0.159415 0
M  V30 1352 H 133.221 3.34649 1.95164 0
M  V30 1353 H 133.635 5.19371 0.731734 0
M  V30 1354 H 135.109 4.95848 2.42567 0
M  V30 1355 H 135.586 3.32222 2.87272 0
M  V30 1356 H 136.192 4.0304 1.35789 0
M  V30 1357 N 134.507 -0.190092 1.56449 0
M  V30 1358 C 135.756 -0.907912 1.80111 0
M  V30 1359 C 136.069 -1.84214 0.657619 0
M  V30 1360 O 137.275 -2.60094 0.778663 0
M  V30 1361 C 135.731 -1.66485 3.19078 0
M  V30 1362 C 135.339 -0.7752 4.41242 0
M  V30 1363 C 137.083 -2.37201 3.52045 0
M  V30 1364 C 134.99 -1.53129 5.71231 0
M  V30 1365 H 133.92 -0.34276 0.671589 0
M  V30 1366 H 136.571 -0.161109 1.82791 0
M  V30 1367 H 134.953 -2.45572 3.10661 0
M  V30 1368 H 136.127 -0.0226298 4.60794 0
M  V30 1369 H 134.442 -0.178627 4.16017 0
M  V30 1370 H 137.039 -2.94329 4.46402 0
M  V30 1371 H 137.382 -3.11632 2.76028 0
M  V30 1372 H 137.915 -1.65075 3.61932 0
M  V30 1373 H 134.654 -0.82967 6.50228 0
M  V30 1374 H 134.174 -2.25767 5.55688 0
M  V30 1375 H 135.853 -2.08377 6.12526 0
M  V30 1376 N 135.985 -1.50799 -0.457987 0
M  V30 1377 C 137.213 -1.66218 -1.23203 0
M  V30 1378 C 137.628 -0.350894 -1.85511 0
M  V30 1379 O 136.985 0.668546 -1.69814 0
M  V30 1380 C 137.036 -2.76291 -2.33121 0
M  V30 1381 O 136.757 -4.02338 -1.73366 0
M  V30 1382 C 138.258 -3.028 -3.2377 0
M  V30 1383 H 135.478 -0.558361 -0.372121 0
M  V30 1384 H 138.022 -1.97099 -0.545179 0
M  V30 1385 H 136.177 -2.48068 -2.97558 0
M  V30 1386 H 136.591 -4.63312 -2.4585 0
M  V30 1387 H 138.065 -3.8345 -3.97077 0
M  V30 1388 H 138.542 -2.14385 -3.83322 0
M  V30 1389 H 139.148 -3.32604 -2.65056 0
M  V30 1390 N 137.463 0.71206 -1.40597 0
M  V30 1391 C 138.691 1.50111 -1.42388 0
M  V30 1392 C 139.106 1.88784 -0.0245395 0
M  V30 1393 O 138.463 1.55681 0.952351 0
M  V30 1394 C 138.514 2.7742 -2.31776 0
M  V30 1395 O 138.235 2.40382 -3.66262 0
M  V30 1396 C 139.736 3.7129 -2.42196 0
M  V30 1397 H 136.956 0.46314 -0.485533 0
M  V30 1398 H 139.5 0.878068 -1.8469 0
M  V30 1399 H 137.655 3.36001 -1.92827 0
M  V30 1400 H 138.069 3.22324 -4.13772 0
M  V30 1401 H 139.543 4.57448 -3.08943 0
M  V30 1402 H 140.02 4.14641 -1.44809 0
M  V30 1403 H 140.626 3.18619 -2.81712 0
M  V30 1404 N 138.941 1.26152 0.944643 0
M  V30 1405 C 139.873 1.03199 2.04652 0
M  V30 1406 C 140.886 -0.00642356 1.62799 0
M  V30 1407 O 142.075 0.233263 1.76969 0
M  V30 1408 C 139.175 0.540111 3.34568 0
M  V30 1409 C 138.348 1.64697 4.05208 0
M  V30 1410 C 137.407 1.15374 5.13396 0
M  V30 1411 O 136.433 1.85013 5.38293 0
M  V30 1412 N 137.635 0.00031529 5.805 0
M  V30 1413 H 140.4 1.9808 2.2491 0
M  V30 1414 H 137.961 1.17491 1.11389 0
M  V30 1415 H 139.953 0.194401 4.04233 0
M  V30 1416 H 138.523 -0.315021 3.11009 0
M  V30 1417 H 137.743 2.16379 3.29506 0
M  V30 1418 H 139.031 2.3903 4.49157 0
M  V30 1419 H 138.429 -0.581336 5.62705 0
M  V30 1420 H 136.986 -0.286346 6.51171 0
M  V30 1421 N 140.419 -1.14872 1.07899 0
M  V30 1422 C 141.329 -2.2341 0.715915 0
M  V30 1423 C 142.345 -1.71808 -0.275306 0
M  V30 1424 O 143.521 -2.01039 -0.120545 0
M  V30 1425 C 140.586 -3.46474 0.125168 0
M  V30 1426 C 139.647 -4.13039 1.17034 0
M  V30 1427 C 138.88 -5.30229 0.607688 0
M  V30 1428 O 139.103 -5.675 -0.574497 0
M  V30 1429 O 138.037 -5.86444 1.35526 0
M  V30 1430 H 141.863 -2.56808 1.62121 0
M  V30 1431 H 139.448 -1.22702 0.852322 0
M  V30 1432 H 141.33 -4.20917 -0.201729 0
M  V30 1433 H 140.005 -3.14811 -0.753364 0
M  V30 1434 H 138.912 -3.40493 1.54968 0
M  V30 1435 H 140.245 -4.48796 2.02097 0
M  V30 1436 N 141.898 -0.863906 -1.31812 0
M  V30 1437 C 143.138 -0.47825 -1.98726 0
M  V30 1438 C 143.502 0.950397 -1.66828 0
M  V30 1439 O 144.703 1.44109 -2.26905 0
M  V30 1440 C 142.974 -0.721134 -3.50049 0
M  V30 1441 S 144.533 -0.434432 -4.36644 0
M  V30 1442 H 141.351 -0.178773 -0.688158 0
M  V30 1443 H 143.953 -1.11862 -1.60334 0
M  V30 1444 H 142.657 -1.75981 -3.70755 0
M  V30 1445 H 142.188 -0.0675315 -3.93342 0
M  V30 1446 H 144.203 0.735786 -4.90714 0
M  V30 1447 N 143.376 1.44774 -0.622745 0
M  V30 1448 C 144.339 2.29069 0.0774015 0
M  V30 1449 C 145.339 1.4059 0.780461 0
M  V30 1450 O 146.529 1.62551 0.626322 0
M  V30 1451 C 143.661 3.21974 1.12006 0
M  V30 1452 H 144.854 2.92459 -0.663901 0
M  V30 1453 H 142.407 1.51548 -0.382486 0
M  V30 1454 H 143.142 2.63417 1.89162 0
M  V30 1455 H 142.927 3.87168 0.619951 0
M  V30 1456 H 144.417 3.85318 1.60995 0
M  V30 1457 N 144.854 0.36279 1.53368 0
M  V30 1458 C 145.802 -0.500155 2.27159 0
M  V30 1459 C 146.796 -1.08575 1.3003 0
M  V30 1460 O 148.002 -1.02927 1.47668 0
M  V30 1461 H 144.377 -0.180009 0.730138 0
M  V30 1462 H 146.348 0.14401 2.98052 0
M  V30 1463 C 145.097 -1.62937 3.07159 0
M  V30 1464 H 144.42 -1.18806 3.8174 0
M  V30 1465 H 145.86 -2.20795 3.61975 0
M  V30 1466 C 144.319 -2.57007 2.17829 0
M  V30 1467 O 144.849 -3.59752 1.78721 0
M  V30 1468 N 143.055 -2.26131 1.82518 0
M  V30 1469 H 142.602 -1.42616 2.14519 0
M  V30 1470 H 142.56 -2.89327 1.23034 0
M  V30 1471 N 146.332 -1.57332 0.0918853 0
M  V30 1472 C 147.578 -1.94524 -0.573425 0
M  V30 1473 C 147.911 -0.973578 -1.68033 0
M  V30 1474 O 147.186 -0.00609226 -1.94499 0
M  V30 1475 C 147.469 -3.41858 -1.13161 0
M  V30 1476 C 147.322 -4.4979 -0.0299747 0
M  V30 1477 C 148.641 -3.90435 -2.03098 0
M  V30 1478 H 145.76 -0.70734 -0.206975 0
M  V30 1479 H 148.402 -1.89309 0.161942 0
M  V30 1480 H 146.552 -3.46433 -1.7583 0
M  V30 1481 H 148.224 -4.57327 0.604112 0
M  V30 1482 H 146.467 -4.291 0.636833 0
M  V30 1483 H 147.138 -5.50069 -0.461287 0
M  V30 1484 H 149.614 -3.87992 -1.50338 0
M  V30 1485 H 148.49 -4.94097 -2.39081 0
M  V30 1486 H 148.751 -3.29541 -2.94712 0
M  V30 1487 N 147.81 0.181792 -1.56548 0
M  V30 1488 C 149.056 0.901431 -1.81665 0
M  V30 1489 C 149.389 1.82347 -0.668075 0
M  V30 1490 O 148.664 1.91669 0.330615 0
M  V30 1491 C 148.947 1.70618 -3.17115 0
M  V30 1492 C 148.8 0.807964 -4.42484 0
M  V30 1493 C 150.119 2.67605 -3.49393 0
M  V30 1494 H 147.238 0.32627 -0.660846 0
M  V30 1495 H 149.88 0.168134 -1.89255 0
M  V30 1496 H 148.03 2.33133 -3.10775 0
M  V30 1497 H 149.702 0.19649 -4.60881 0
M  V30 1498 H 147.945 0.115411 -4.33646 0
M  V30 1499 H 148.616 1.40632 -5.33785 0
M  V30 1500 H 151.092 2.15218 -3.56118 0
M  V30 1501 H 149.968 3.20985 -4.45264 0
M  V30 1502 H 150.229 3.47298 -2.73563 0
M  V30 1503 N 149.288 1.51039 0.449983 0
M  V30 1504 C 150.534 1.63322 1.20223 0
M  V30 1505 C 150.867 0.34241 1.91158 0
M  V30 1506 O 150.142 -0.657344 1.83055 0
M  V30 1507 C 150.425 2.82801 2.22925 0
M  V30 1508 C 150.278 4.21823 1.56157 0
M  V30 1509 C 151.597 2.97807 3.24035 0
M  V30 1510 H 148.716 0.594407 0.435718 0
M  V30 1511 H 151.358 1.83489 0.493136 0
M  V30 1512 H 149.508 2.65738 2.834 0
M  V30 1513 H 151.18 4.50526 0.991162 0
M  V30 1514 H 149.423 4.25105 0.864172 0
M  V30 1515 H 150.094 5.01391 2.30891 0
M  V30 1516 H 152.57 3.13497 2.73603 0
M  V30 1517 H 151.446 3.82992 3.93202 0
M  V30 1518 H 151.707 2.09328 3.89402 0
M  V30 1519 N 150.766 -0.704594 1.40972 0
M  V30 1520 C 152.014 -1.46169 1.39568 0
M  V30 1521 C 152.335 -1.95 0.00253745 0
M  V30 1522 O 151.605 -1.71095 -0.954114 0
M  V30 1523 H 150.185 -0.542326 0.513704 0
M  V30 1524 H 152.847 -0.834553 1.76128 0
M  V30 1525 H 151.943 -2.32922 2.07735 0
M  V30 1526 N 152.244 -1.26651 -0.937939 0
M  V30 1527 C 153.474 -1.15006 -1.71631 0
M  V30 1528 C 153.882 0.297026 -1.86854 0
M  V30 1529 O 153.225 1.21493 -1.37786 0
M  V30 1530 C 153.287 -1.74984 -3.14039 0
M  V30 1531 C 152.951 -3.24103 -3.2219 0
M  V30 1532 C 153.948 -4.20877 -3.05219 0
M  V30 1533 C 151.633 -3.64625 -3.45476 0
M  V30 1534 C 153.627 -5.56151 -3.11408 0
M  V30 1535 C 151.314 -5.00032 -3.513 0
M  V30 1536 C 152.312 -5.95604 -3.34282 0
M  V30 1537 O 152 -7.28545 -3.3982 0
M  V30 1538 H 151.732 -0.401183 -0.544085 0
M  V30 1539 H 154.286 -1.67832 -1.18413 0
M  V30 1540 H 152.516 -1.16624 -3.68695 0
M  V30 1541 H 154.205 -1.58199 -3.73802 0
M  V30 1542 H 154.971 -3.90908 -2.87081 0
M  V30 1543 H 150.85 -2.90718 -3.57777 0
M  V30 1544 H 154.394 -6.30727 -2.98043 0
M  V30 1545 H 150.291 -5.29659 -3.68959 0
M  V30 1546 H 151.059 -7.3686 -3.56343 0
M  V30 1547 N 153.722 1.14298 -1.08507 0
M  V30 1548 C 154.97 1.84993 -0.813763 0
M  V30 1549 C 155.291 1.83405 0.662393 0
M  V30 1550 O 154.561 1.28319 1.48024 0
M  V30 1551 H 153.141 0.684966 -0.298045 0
M  V30 1552 H 155.803 1.385 -1.37126 0
M  V30 1553 H 154.899 2.89788 -1.15884 0
M  V30 1554 N 155.201 0.870884 1.31352 0
M  V30 1555 C 156.111 0.330783 2.32256 0
M  V30 1556 C 157.127 -0.559767 1.6475 0
M  V30 1557 O 158.303 -0.456263 1.96164 0
M  V30 1558 C 155.368 -0.458137 3.4366 0
M  V30 1559 C 154.429 0.460482 4.26823 0
M  V30 1560 C 153.662 -0.290881 5.32907 0
M  V30 1561 O 153.885 -1.51885 5.49806 0
M  V30 1562 O 152.819 0.351732 6.00871 0
M  V30 1563 H 156.645 1.16718 2.80376 0
M  V30 1564 H 154.23 0.634285 1.35267 0
M  V30 1565 H 156.112 -0.905343 4.1156 0
M  V30 1566 H 154.787 -1.27106 2.97701 0
M  V30 1567 H 153.694 0.956207 3.61673 0
M  V30 1568 H 155.027 1.23903 4.7635 0
M  V30 1569 N 156.679 -1.44442 0.630414 0
M  V30 1570 C 157.925 -2.02894 0.143332 0
M  V30 1571 C 158.28 -1.48697 -1.22094 0
M  V30 1572 O 157.573 -0.661171 -1.79831 0
M  V30 1573 C 157.767 -3.57332 0.0697835 0
M  V30 1574 C 157.596 -4.26512 1.42539 0
M  V30 1575 C 156.366 -4.63516 2.01198 0
M  V30 1576 C 158.564 -4.57004 2.35907 0
M  V30 1577 N 156.546 -5.17661 3.30001 0
M  V30 1578 C 157.917 -5.12223 3.49324 0
M  V30 1579 C 159.972 -4.38955 2.34995 0
M  V30 1580 C 158.675 -5.51295 4.62024 0
M  V30 1581 C 160.701 -4.79075 3.46758 0
M  V30 1582 C 160.063 -5.34407 4.58899 0
M  V30 1583 H 156.162 -0.776041 0.0963523 0
M  V30 1584 H 158.746 -1.75945 0.833752 0
M  V30 1585 H 156.917 -3.83894 -0.589915 0
M  V30 1586 H 158.649 -4.02451 -0.42606 0
M  V30 1587 H 155.404 -4.47811 1.54151 0
M  V30 1588 H 155.828 -5.4921 3.95851 0
M  V30 1589 H 160.47 -3.95469 1.49545 0
M  V30 1590 H 158.188 -5.93736 5.48182 0
M  V30 1591 H 161.774 -4.66824 3.47227 0
M  V30 1592 H 160.654 -5.64878 5.4395 0
M  V30 1593 N 158.157 -0.370918 -1.53173 0
M  V30 1594 C 159.568 0.107139 -1.86392 0
M  V30 1595 C 159.919 1.47714 -1.29132 0
M  V30 1596 O 159.044 2.07464 -0.615439 0
M  V30 1597 C 159.639 0.201187 -3.38202 0
M  V30 1598 C 158.198 0.623507 -3.712 0
M  V30 1599 C 157.345 -0.225978 -2.76378 0
M  V30 1600 H 160.296 -0.58951 -1.47345 0
M  V30 1601 H 160.317 1.02377 -3.66468 0
M  V30 1602 H 159.829 -0.796058 -3.79848 0
M  V30 1603 H 157.93 1.62879 -3.35114 0
M  V30 1604 H 158.043 0.394414 -4.77474 0
M  V30 1605 H 156.407 0.305962 -2.52856 0
M  V30 1606 H 157.19 -1.22086 -3.20858 0
M  V30 1607 N 159.635 1.57281 -0.100228 0
M  V30 1608 C 160.545 2.17833 0.870965 0
M  V30 1609 C 161.561 1.14921 1.30649 0
M  V30 1610 O 162.737 1.47313 1.37335 0
M  V30 1611 C 159.802 2.75085 2.1102 0
M  V30 1612 C 158.863 3.9297 1.72838 0
M  V30 1613 C 158.096 4.47482 2.90854 0
M  V30 1614 O 158.319 4.00922 4.05731 0
M  V30 1615 O 157.253 5.38433 2.69023 0
M  V30 1616 H 161.079 3.0124 0.38575 0
M  V30 1617 H 158.664 1.48881 0.124397 0
M  V30 1618 H 160.546 3.11656 2.83634 0
M  V30 1619 H 159.221 1.94721 2.58584 0
M  V30 1620 H 158.128 3.61201 0.973883 0
M  V30 1621 H 159.461 4.74713 1.30033 0
M  V30 1622 N 161.113 -0.173488 1.56642 0
M  V30 1623 C 162.343 -0.904781 1.85734 0
M  V30 1624 C 162.751 -1.76431 0.68328 0
M  V30 1625 O 162.094 -1.802 -0.356865 0
M  V30 1626 C 162.156 -1.83382 3.09211 0
M  V30 1627 C 161.82 -1.15411 4.42187 0
M  V30 1628 C 162.817 -0.520609 5.17287 0
M  V30 1629 C 160.502 -1.15151 4.88923 0
M  V30 1630 C 162.496 0.106412 6.37311 0
M  V30 1631 C 160.183 -0.520664 6.08878 0
M  V30 1632 C 161.181 0.107196 6.82916 0
M  V30 1633 O 160.869 0.728102 8.00596 0
M  V30 1634 H 160.601 -0.268408 0.62043 0
M  V30 1635 H 163.155 -0.179096 2.04618 0
M  V30 1636 H 161.385 -2.59976 2.86268 0
M  V30 1637 H 163.074 -2.43476 3.24768 0
M  V30 1638 H 163.84 -0.514606 4.82262 0
M  V30 1639 H 159.719 -1.62961 4.31236 0
M  V30 1640 H 163.263 0.597081 6.9504 0
M  V30 1641 H 159.16 -0.524242 6.43368 0
M  V30 1642 H 159.928 0.627138 8.16094 0
M  V30 1643 N 162.591 -1.51276 -0.441967 0
M  V30 1644 C 163.521 -1.752 -1.54361 0
M  V30 1645 C 164.502 -0.601682 -1.59103 0
M  V30 1646 O 165.687 -0.843913 -1.74905 0
M  V30 1647 C 162.817 -1.87282 -2.92477 0
M  V30 1648 C 161.771 -3.02687 -3.02596 0
M  V30 1649 C 161.097 -2.99947 -4.42647 0
M  V30 1650 C 162.397 -4.4273 -2.77106 0
M  V30 1651 H 164.091 -2.67442 -1.34592 0
M  V30 1652 H 161.637 -1.28694 -0.646048 0
M  V30 1653 H 163.59 -2.02602 -3.695 0
M  V30 1654 H 162.314 -0.916844 -3.13467 0
M  V30 1655 H 160.973 -2.87065 -2.28012 0
M  V30 1656 H 160.621 -2.02136 -4.60597 0
M  V30 1657 H 160.321 -3.77439 -4.50348 0
M  V30 1658 H 161.845 -3.17354 -5.2165 0
M  V30 1659 H 163.259 -4.58727 -3.43864 0
M  V30 1660 H 161.656 -5.21893 -2.96222 0
M  V30 1661 H 162.726 -4.53087 -1.72744 0
M  V30 1662 N 164.069 0.697108 -1.41344 0
M  V30 1663 C 165.294 1.49096 -1.44171 0
M  V30 1664 C 165.719 1.88038 -0.0481568 0
M  V30 1665 O 165.077 1.54525 0.948243 0
M  V30 1666 C 165.125 2.73088 -2.3549 0
M  V30 1667 O 164.229 3.70514 -1.81088 0
M  V30 1668 H 163.57 0.448801 -0.489361 0
M  V30 1669 H 166.1 0.856992 -1.85787 0
M  V30 1670 H 166.11 3.21413 -2.51312 0
M  V30 1671 H 164.785 2.44081 -3.36745 0
M  V30 1672 H 163.362 3.29441 -1.74708 0
M  V30 1673 N 165.547 1.27147 0.931209 0
M  V30 1674 C 166.824 1.0401 1.65654 0
M  V30 1675 C 167.204 -0.426297 2.06751 0
M  V30 1676 O 166.552 -1.40879 1.79904 0
M  V30 1677 C 166.762 1.99834 2.86125 0
M  V30 1678 C 168.11 2.29007 3.57549 0
M  V30 1679 O 169.134 1.97779 2.96246 0
M  V30 1680 O 167.993 2.82222 4.67989 0
M  V30 1681 H 165.087 0.396239 0.725895 0
M  V30 1682 H 167.633 1.38397 0.982056 0
M  V30 1683 H 166.405 2.98744 2.52721 0
M  V30 1684 H 166.028 1.65987 3.61295 0
M  V30 1685 N 167.025 -1.13721 1.09112 0
M  V30 1686 C 167.973 -2.21103 0.722219 0
M  V30 1687 C 168.967 -1.67147 -0.275374 0
M  V30 1688 O 170.173 -1.79477 -0.137176 0
M  V30 1689 H 166.548 -0.720445 0.215553 0
M  V30 1690 H 168.519 -2.49483 1.63709 0
M  V30 1691 C 167.268 -3.47352 0.15543 0
M  V30 1692 H 166.591 -3.89206 0.914246 0
M  V30 1693 H 168.031 -4.2395 -0.0647967 0
M  V30 1694 C 166.49 -3.1814 -1.10852 0
M  V30 1695 O 167.02 -3.36604 -2.19227 0
M  V30 1696 N 165.226 -2.72045 -1.02176 0
M  V30 1697 H 164.773 -2.57221 -0.139764 0
M  V30 1698 H 164.731 -2.52875 -1.8682 0
M  V30 1699 N 168.503 -0.877838 -1.30888 0
M  V30 1700 C 169.413 -0.343096 -2.32078 0
M  V30 1701 C 170.429 0.551022 -1.65045 0
M  V30 1702 O 171.605 0.445854 -1.96403 0
M  V30 1703 C 168.67 0.439905 -3.43898 0
M  V30 1704 C 167.731 -0.483111 -4.26573 0
M  V30 1705 C 166.964 0.262616 -5.33053 0
M  V30 1706 O 167.187 1.48967 -5.50604 0
M  V30 1707 O 166.121 -0.383593 -6.00676 0
M  V30 1708 H 169.947 -1.18203 -2.79753 0
M  V30 1709 H 167.532 -0.64145 -1.34929 0
M  V30 1710 H 169.414 0.883504 -4.12034 0
M  V30 1711 H 168.089 1.25526 -2.98371 0
M  V30 1712 H 166.996 -0.975374 -3.61161 0
M  V30 1713 H 168.329 -1.26427 -4.75686 0
M  V30 1714 N 169.982 1.44106 -0.638065 0
M  V30 1715 C 170.945 2.29138 0.0531013 0
M  V30 1716 C 171.945 1.41409 0.765506 0
M  V30 1717 O 173.135 1.63206 0.609046 0
M  V30 1718 C 170.267 3.23144 1.08584 0
M  V30 1719 H 171.46 2.91739 -0.694883 0
M  V30 1720 H 169.013 1.51134 -0.398538 0
M  V30 1721 H 169.748 2.65408 1.86357 0
M  V30 1722 H 169.533 3.87804 0.578852 0
M  V30 1723 H 171.023 3.87004 1.56899 0
M  V30 1724 N 171.46 0.379036 1.52974 0
M  V30 1725 C 172.688 -0.20679 2.05864 0
M  V30 1726 C 173.103 -1.41356 1.25155 0
M  V30 1727 O 172.46 -1.8009 0.295588 0
M  V30 1728 C 172.511 -0.587045 3.56702 0
M  V30 1729 O 172.232 0.571776 4.34353 0
M  V30 1730 C 173.733 -1.22983 4.25899 0
M  V30 1731 H 170.953 -0.0336123 0.670158 0
M  V30 1732 H 173.497 0.541298 1.97206 0
M  V30 1733 H 171.652 -1.28504 3.65466 0
M  V30 1734 H 172.066 0.261544 5.23847 0
M  V30 1735 H 173.54 -1.44635 5.32715 0
M  V30 1736 H 174.017 -2.19416 3.80465 0
M  V30 1737 H 174.623 -0.572892 4.21424 0
M  V30 1738 N 172.938 -1.57226 0.108567 0
M  V30 1739 C 173.901 -2.13602 -0.831082 0
M  V30 1740 C 174.901 -1.06841 -1.20173 0
M  V30 1741 O 176.091 -1.32666 -1.12895 0
M  V30 1742 C 173.223 -2.66769 -2.12243 0
M  V30 1743 H 174.416 -2.97951 -0.341317 0
M  V30 1744 H 171.969 -1.55667 -0.14057 0
M  V30 1745 H 172.704 -1.85977 -2.65675 0
M  V30 1746 H 172.489 -3.44839 -1.86625 0
M  V30 1747 H 173.979 -3.10332 -2.79435 0
M  V30 1748 N 174.416 0.165178 -1.56732 0
M  V30 1749 C 175.326 1.22423 -2.00125 0
M  V30 1750 C 176.342 1.48084 -0.913619 0
M  V30 1751 O 177.518 1.60112 -1.22172 0
M  V30 1752 C 174.583 2.54197 -2.35764 0
M  V30 1753 C 173.644 2.36343 -3.58386 0
M  V30 1754 C 172.877 3.61834 -3.92316 0
M  V30 1755 O 173.1 4.67267 -3.27135 0
M  V30 1756 O 172.034 3.55579 -4.85641 0
M  V30 1757 H 175.86 0.885886 -2.90492 0
M  V30 1758 H 173.445 0.372518 -1.44681 0
M  V30 1759 H 175.327 3.3192 -2.59629 0
M  V30 1760 H 174.002 2.87598 -1.48557 0
M  V30 1761 H 172.909 1.56632 -3.39731 0
M  V30 1762 H 174.242 2.07865 -4.46154 0
M  V30 1763 N 175.894 1.51508 0.433938 0
M  V30 1764 C 177.171 1.54888 1.19453 0
M  V30 1765 C 177.551 0.315154 2.08734 0
M  V30 1766 O 176.899 -0.699558 2.17528 0
M  V30 1767 C 177.109 2.86467 1.99342 0
M  V30 1768 C 178.457 3.38545 2.56267 0
M  V30 1769 O 179.481 2.88041 2.0955 0
M  V30 1770 O 178.34 4.26675 3.41483 0
M  V30 1771 H 175.434 0.622863 0.544032 0
M  V30 1772 H 177.98 1.63823 0.442732 0
M  V30 1773 H 176.752 3.67718 1.33788 0
M  V30 1774 H 176.375 2.8071 2.8158 0
M  V30 1775 N 177.372 -0.689602 1.41712 0
M  V30 1776 C 178.304 -1.815 1.39966 0
M  V30 1777 C 179.317 -1.59995 0.300917 0
M  V30 1778 O 180.506 -1.69387 0.563039 0
M  V30 1779 C 177.606 -3.18364 1.16179 0
M  V30 1780 C 176.779 -3.66847 2.38206 0
M  V30 1781 C 175.838 -4.82398 2.10186 0
M  V30 1782 O 174.864 -4.93706 2.83272 0
M  V30 1783 N 176.066 -5.70064 1.0958 0
M  V30 1784 H 178.831 -1.83488 2.36965 0
M  V30 1785 H 176.392 -0.872149 1.36401 0
M  V30 1786 H 178.384 -3.93301 0.953756 0
M  V30 1787 H 176.954 -3.11365 0.27756 0
M  V30 1788 H 176.174 -2.82751 2.74673 0
M  V30 1789 H 177.462 -3.95978 3.19498 0
M  V30 1790 H 176.86 -5.63565 0.491019 0
M  V30 1791 H 175.417 -6.44874 0.947656 0
M  V30 1792 N 178.85 -1.27639 -0.924453 0
M  V30 1793 C 180.261 -1.12834 -1.48746 0
M  V30 1794 C 180.612 0.285505 -1.94112 0
M  V30 1795 O 179.737 1.17874 -1.81479 0
M  V30 1796 C 180.332 -2.04217 -2.70334 0
M  V30 1797 C 178.891 -1.93509 -3.22848 0
M  V30 1798 C 178.038 -1.96583 -1.95577 0
M  V30 1799 H 180.989 -1.40484 -0.738233 0
M  V30 1800 H 181.01 -1.59989 -3.4523 0
M  V30 1801 H 180.522 -3.07111 -2.37285 0
M  V30 1802 H 178.623 -0.936131 -3.60649 0
M  V30 1803 H 178.736 -2.79917 -3.88823 0
M  V30 1804 H 177.1 -1.4085 -2.12211 0
M  V30 1805 H 177.883 -3.01137 -1.64837 0
M  V30 1806 N 180.328 1.1314 -1.09713 0
M  V30 1807 C 181.556 1.88321 -0.856898 0
M  V30 1808 C 181.971 1.79276 0.592073 0
M  V30 1809 O 181.328 1.16142 1.40774 0
M  V30 1810 C 181.379 3.37812 -1.28706 0
M  V30 1811 O 181.1 3.46627 -2.67921 0
M  V30 1812 C 182.601 4.29952 -1.07964 0
M  V30 1813 H 179.821 0.596094 -0.308079 0
M  V30 1814 H 182.365 1.43205 -1.45988 0
M  V30 1815 H 180.52 3.805 -0.727912 0
M  V30 1816 H 180.934 4.39579 -2.8613 0
M  V30 1817 H 182.408 5.33159 -1.42986 0
M  V30 1818 H 182.885 4.39196 -0.0176577 0
M  V30 1819 H 183.491 3.93036 -1.62489 0
M  V30 1820 N 181.806 0.884767 1.30421 0
M  V30 1821 C 182.738 0.308655 2.27112 0
M  V30 1822 C 183.751 -0.536655 1.53701 0
M  V30 1823 O 184.94 -0.35624 1.74909 0
M  V30 1824 C 182.04 -0.579782 3.33904 0
M  V30 1825 C 181.213 0.236417 4.36761 0
M  V30 1826 C 180.272 -0.582482 5.22966 0
M  V30 1827 O 179.298 -0.00525502 5.692 0
M  V30 1828 N 180.5 -1.89163 5.48815 0
M  V30 1829 H 183.265 1.13964 2.77186 0
M  V30 1830 H 180.826 0.747731 1.43599 0
M  V30 1831 H 182.818 -1.13366 3.88497 0
M  V30 1832 H 181.388 -1.31144 2.83761 0
M  V30 1833 H 180.608 0.97174 3.82035 0
M  V30 1834 H 181.896 0.795924 5.02536 0
M  V30 1835 H 181.294 -2.38352 5.13035 0
M  V30 1836 H 179.851 -2.39296 6.06284 0
M  V30 1837 N 183.284 -1.43765 0.645699 0
M  V30 1838 C 184.695 -1.85193 0.236719 0
M  V30 1839 C 185.046 -1.54045 -1.21509 0
M  V30 1840 O 184.171 -0.985694 -1.92647 0
M  V30 1841 C 184.766 -3.36151 0.422845 0
M  V30 1842 C 183.325 -3.76338 0.0682492 0
M  V30 1843 C 182.472 -2.67538 0.729306 0
M  V30 1844 H 185.423 -1.34025 0.849883 0
M  V30 1845 H 185.444 -3.79032 -0.333904 0
M  V30 1846 H 184.956 -3.5879 1.47958 0
M  V30 1847 H 183.057 -3.59312 -0.986179 0
M  V30 1848 H 183.17 -4.76603 0.488469 0
M  V30 1849 H 181.534 -2.54176 0.163235 0
M  V30 1850 H 182.317 -2.93006 1.78892 0
M  V30 1851 N 184.763 -0.387143 -1.52771 0
M  V30 1852 C 186.04 0.253197 -1.93954 0
M  V30 1853 C 186.42 1.64545 -1.32243 0
M  V30 1854 O 185.768 2.23191 -0.489699 0
M  V30 1855 C 185.978 0.281722 -3.47861 0
M  V30 1856 C 187.326 0.511715 -4.21505 0
M  V30 1857 O 188.35 0.362023 -3.54356 0
M  V30 1858 O 187.209 0.804847 -5.40541 0
M  V30 1859 H 184.303 0.156845 -0.811991 0
M  V30 1860 H 186.849 -0.441494 -1.63856 0
M  V30 1861 H 185.621 -0.693571 -3.85104 0
M  V30 1862 H 185.244 1.02142 -3.84256 0
M  V30 1863 N 186.241 1.57166 -0.116904 0
M  V30 1864 C 187.487 1.95412 0.542405 0
M  V30 1865 C 187.82 1.00019 1.66463 0
M  V30 1866 O 187.095 0.0370346 1.94465 0
M  V30 1867 C 187.378 3.43615 1.07708 0
M  V30 1868 C 187.231 4.49781 -0.0415868 0
M  V30 1869 C 188.55 3.93616 1.96861 0
M  V30 1870 H 185.669 0.710543 0.195696 0
M  V30 1871 H 188.311 1.89027 -0.192038 0
M  V30 1872 H 186.461 3.49187 1.70296 0
M  V30 1873 H 188.133 4.56308 -0.676793 0
M  V30 1874 H 186.376 4.28033 -0.705019 0
M  V30 1875 H 187.047 5.50733 0.373717 0
M  V30 1876 H 189.523 3.90335 1.44146 0
M  V30 1877 H 188.399 4.97838 2.3119 0
M  V30 1878 H 188.66 3.34188 2.89432 0
M  V30 1879 N 187.719 -0.156864 1.56817 0
M  V30 1880 C 188.682 -1.17781 1.96622 0
M  V30 1881 C 189.682 -1.36401 0.851555 0
M  V30 1882 O 190.872 -1.33561 1.11836 0
M  V30 1883 C 188.004 -2.54008 2.27361 0
M  V30 1884 H 189.197 -0.836564 2.87996 0
M  V30 1885 H 186.75 -0.39985 1.51099 0
M  V30 1886 H 187.485 -2.9312 1.38748 0
M  V30 1887 H 187.27 -2.41856 3.08623 0
M  V30 1888 H 188.76 -3.27558 2.59029 0
M  V30 1889 N 189.197 -1.51736 -0.425897 0
M  V30 1890 C 190.425 -1.68794 -1.1965 0
M  V30 1891 C 190.84 -0.390164 -1.84725 0
M  V30 1892 O 190.197 0.632376 -1.71194 0
M  V30 1893 C 190.248 -2.81174 -2.27208 0
M  V30 1894 O 189.969 -4.05925 -1.64793 0
M  V30 1895 C 191.47 -3.09599 -3.17275 0
M  V30 1896 H 188.69 -0.566128 -0.360194 0
M  V30 1897 H 191.234 -1.98211 -0.503249 0
M  V30 1898 H 189.389 -2.54324 -2.9223 0
M  V30 1899 H 189.803 -4.68423 -2.35967 0
M  V30 1900 H 191.277 -3.91786 -3.88854 0
M  V30 1901 H 191.754 -2.22468 -3.78688 0
M  V30 1902 H 192.36 -3.38151 -2.57941 0
M  V30 1903 N 190.675 0.682077 -1.42076 0
M  V30 1904 C 191.915 1.45424 -1.43636 0
M  V30 1905 C 192.279 1.91939 -0.0484001 0
M  V30 1906 O 193.48 2.6873 0.0612514 0
M  V30 1907 C 191.751 2.62427 -2.42625 0
M  V30 1908 S 193.31 3.51379 -2.62827 0
M  V30 1909 H 190.128 0.496779 -0.508657 0
M  V30 1910 H 192.73 0.794645 -1.78621 0
M  V30 1911 H 191.434 2.26481 -3.42249 0
M  V30 1912 H 190.965 3.33266 -2.09039 0
M  V30 1913 H 192.98 4.58141 -1.9058 0
M  V30 1914 N 192.153 1.28127 0.917671 0
M  V30 1915 C 193.569 1.05749 1.19538 0
M  V30 1916 C 193.769 -0.202633 2.00479 0
M  V30 1917 O 192.825 -0.905382 2.3571 0
M  V30 1918 C 194.138 2.30273 1.93378 0
M  V30 1919 C 195.686 2.35412 2.06277 0
M  V30 1920 C 196.161 3.59692 2.83524 0
M  V30 1921 N 197.652 3.60309 2.91087 0
M  V30 1922 C 198.387 4.53147 3.51348 0
M  V30 1923 N 197.883 5.563 4.12919 0
M  V30 1924 N 199.676 4.40751 3.48849 0
M  V30 1925 H 191.827 2.09024 0.377184 0
M  V30 1926 H 194.09 0.919798 0.22951 0
M  V30 1927 H 193.796 3.22055 1.41328 0
M  V30 1928 H 193.67 2.36378 2.93947 0
M  V30 1929 H 196.057 1.4413 2.57508 0
M  V30 1930 H 196.138 2.33304 1.04895 0
M  V30 1931 H 195.782 4.51316 2.32973 0
M  V30 1932 H 195.712 3.59054 3.85211 0
M  V30 1933 H 198.203 2.85714 2.47338 0
M  V30 1934 H 198.516 6.2329 4.56869 0
M  V30 1935 H 196.861 5.60131 4.11435 0
M  V30 1936 H 200.052 3.59367 2.99955 0
M  V30 1937 H 200.225 5.13291 3.9552 0
M  V30 1938 N 193.631 -1.12557 1.10312 0
M  V30 1939 C 194.878 -1.84038 0.844759 0
M  V30 1940 C 195.206 -1.84026 -0.629668 0
M  V30 1941 O 194.461 -1.28026 -1.48013 0
M  V30 1942 C 194.76 -3.31462 1.33669 0
M  V30 1943 C 194.426 -3.51647 2.82232 0
M  V30 1944 C 193.088 -3.56864 3.22802 0
M  V30 1945 C 195.44 -3.58867 3.77974 0
M  V30 1946 C 192.768 -3.66844 4.57867 0
M  V30 1947 C 195.12 -3.70375 5.1284 0
M  V30 1948 C 193.784 -3.73848 5.52986 0
M  V30 1949 H 193.054 -0.673444 0.309119 0
M  V30 1950 H 195.701 -1.32824 1.37949 0
M  V30 1951 H 194.006 -3.85091 0.721949 0
M  V30 1952 H 195.703 -3.85236 1.11329 0
M  V30 1953 H 192.293 -3.48249 2.49842 0
M  V30 1954 H 196.477 -3.54107 3.47738 0
M  V30 1955 H 191.733 -3.67804 4.88396 0
M  V30 1956 H 195.907 -3.74904 5.86873 0
M  V30 1957 H 193.534 -3.81333 6.57639 0
M  V30 1958 N 195.109 -0.891671 -1.2995 0
M  V30 1959 C 196.339 -0.527893 -1.99742 0
M  V30 1960 C 196.747 0.88979 -1.66971 0
M  V30 1961 O 196.09 1.59766 -0.906667 0
M  V30 1962 C 196.152 -0.630804 -3.53922 0
M  V30 1963 C 195.816 -2.01401 -4.10228 0
M  V30 1964 C 196.813 -2.98422 -4.25724 0
M  V30 1965 C 194.498 -2.32121 -4.45449 0
M  V30 1966 C 196.492 -4.24293 -4.75662 0
M  V30 1967 C 194.179 -3.58237 -4.95086 0
M  V30 1968 C 195.177 -4.54137 -5.10146 0
M  V30 1969 O 194.865 -5.78014 -5.58708 0
M  V30 1970 H 194.597 -0.201953 -0.645129 0
M  V30 1971 H 197.151 -1.20076 -1.66646 0
M  V30 1972 H 195.381 0.0990616 -3.86573 0
M  V30 1973 H 197.07 -0.277338 -4.04951 0
M  V30 1974 H 197.836 -2.76001 -3.98809 0
M  V30 1975 H 193.715 -1.5824 -4.32991 0
M  V30 1976 H 197.259 -4.99153 -4.87332 0
M  V30 1977 H 193.156 -3.80491 -5.21437 0
M  V30 1978 H 193.924 -5.8049 -5.77039 0
M  V30 1979 N 196.587 1.43421 -0.653314 0
M  V30 1980 C 197.815 2.06163 -0.174491 0
M  V30 1981 C 198.23 1.48969 1.1599 0
M  V30 1982 O 197.587 0.621042 1.71608 0
M  V30 1983 C 197.638 3.61417 -0.0774865 0
M  V30 1984 O 197.359 4.16485 -1.35912 0
M  V30 1985 C 198.86 4.41235 0.427402 0
M  V30 1986 H 196.08 0.664946 -0.0899353 0
M  V30 1987 H 198.624 1.83924 -0.893988 0
M  V30 1988 H 196.779 3.82841 0.59257 0
M  V30 1989 H 197.193 5.10153 -1.21839 0
M  V30 1990 H 198.667 5.5021 0.44423 0
M  V30 1991 H 199.144 4.14268 1.45873 0
M  V30 1992 H 199.75 4.2478 -0.210167 0
M  V30 1993 N 198.065 0.39524 1.52563 0
M  V30 1994 C 198.995 -0.428384 2.29537 0
M  V30 1995 C 199.976 -1.05831 1.33169 0
M  V30 1996 O 201.161 -1.06995 1.62067 0
M  V30 1997 C 198.291 -1.55274 3.10656 0
M  V30 1998 C 197.245 -1.04855 4.14957 0
M  V30 1999 C 196.571 -2.26543 4.84337 0
M  V30 2000 C 197.871 -0.112324 5.22179 0
M  V30 2001 H 199.565 0.213867 2.98635 0
M  V30 2002 H 197.111 0.104298 1.43622 0
M  V30 2003 H 199.064 -2.1358 3.63265 0
M  V30 2004 H 197.788 -2.22266 2.39302 0
M  V30 2005 H 196.447 -0.487985 3.63338 0
M  V30 2006 H 196.095 -2.92059 4.09525 0
M  V30 2007 H 195.795 -1.93466 5.54837 0
M  V30 2008 H 197.319 -2.85481 5.39753 0
M  V30 2009 H 198.733 -0.603752 5.70112 0
M  V30 2010 H 197.13 0.128968 5.99961 0
M  V30 2011 H 198.2 0.837052 4.77621 0
M  V30 2012 N 199.544 -1.57102 0.125237 0
M  V30 2013 C 200.821 -1.86953 -0.575142 0
M  V30 2014 C 201.201 -1.02749 -1.84407 0
M  V30 2015 O 200.549 -0.108144 -2.28244 0
M  V30 2016 C 200.759 -3.38198 -0.861583 0
M  V30 2017 C 202.107 -4.06937 -1.21192 0
M  V30 2018 O 203.131 -3.43252 -0.951645 0
M  V30 2019 O 201.99 -5.19364 -1.70068 0
M  V30 2020 H 199.084 -0.774147 -0.290906 0
M  V30 2021 H 201.63 -1.68942 0.160211 0
M  V30 2022 H 200.402 -3.91282 0.0373647 0
M  V30 2023 H 200.025 -3.61661 -1.65188 0
M  V30 2024 N 201.022 0.148545 -1.56898 0
M  V30 2025 C 202.247 0.880385 -1.87787 0
M  V30 2026 C 202.672 1.74018 -0.714093 0
M  V30 2027 O 202.03 1.78153 0.336343 0
M  V30 2028 C 202.078 1.71422 -3.17249 0
M  V30 2029 O 201.182 2.8183 -3.01074 0
M  V30 2030 H 200.523 0.245301 -0.617028 0
M  V30 2031 H 203.053 0.139826 -2.04122 0
M  V30 2032 H 203.063 2.10954 -3.49231 0
M  V30 2033 H 201.738 1.08284 -4.01556 0
M  V30 2034 H 200.315 2.45715 -2.80497 0
M  V30 2035 N 202.5 1.5196 0.417844 0
M  V30 2036 C 203.746 1.65836 1.16732 0
M  V30 2037 C 204.079 0.382881 1.90388 0
M  V30 2038 O 203.354 -0.618368 1.84408 0
M  V30 2039 C 203.637 2.87466 2.16876 0
M  V30 2040 C 203.49 4.25041 1.47174 0
M  V30 2041 C 204.809 3.04613 3.17646 0
M  V30 2042 H 201.928 0.603515 0.423011 0
M  V30 2043 H 204.57 1.84494 0.454105 0
M  V30 2044 H 202.72 2.71689 2.777 0
M  V30 2045 H 204.392 4.52527 0.895376 0
M  V30 2046 H 202.635 4.26843 0.773806 0
M  V30 2047 H 203.306 5.06176 2.20204 0
M  V30 2048 H 205.782 3.1923 2.66892 0
M  V30 2049 H 204.658 3.91247 3.8499 0
M  V30 2050 H 204.919 2.17541 3.84874 0
M  V30 2051 N 203.978 -0.674533 1.42435 0
M  V30 2052 C 204.91 -1.80005 1.41883 0
M  V30 2053 C 205.923 -1.59667 0.31787 0
M  V30 2054 O 207.112 -1.68781 0.580973 0
M  V30 2055 C 204.212 -3.17114 1.19549 0
M  V30 2056 C 203.385 -3.64299 2.42084 0
M  V30 2057 C 202.444 -4.80142 2.15291 0
M  V30 2058 O 201.47 -4.90673 2.88493 0
M  V30 2059 N 202.672 -5.68869 1.1562 0
M  V30 2060 H 205.437 -1.80964 2.38898 0
M  V30 2061 H 202.998 -0.857633 1.37318 0
M  V30 2062 H 204.99 -3.92267 0.995417 0
M  V30 2063 H 203.56 -3.11053 0.310569 0
M  V30 2064 H 202.78 -2.79822 2.77657 0
M  V30 2065 H 204.068 -3.92567 3.23679 0
M  V30 2066 H 203.466 -5.63012 0.550765 0
M  V30 2067 H 202.023 -6.43833 1.016 0
M  V30 2068 N 205.456 -1.28612 -0.910864 0
M  V30 2069 C 206.702 -1.17116 -1.66299 0
M  V30 2070 C 207.057 0.276917 -1.90397 0
M  V30 2071 O 206.35 1.19795 -1.49532 0
M  V30 2072 C 206.544 -1.90624 -3.0232 0
M  V30 2073 C 206.373 -3.42431 -2.91498 0
M  V30 2074 C 205.143 -4.11773 -2.92867 0
M  V30 2075 C 207.341 -4.38124 -2.69355 0
M  V30 2076 N 205.323 -5.50025 -2.72664 0
M  V30 2077 C 206.694 -5.63759 -2.58023 0
M  V30 2078 C 208.749 -4.28016 -2.54375 0
M  V30 2079 C 207.452 -6.80436 -2.33238 0
M  V30 2080 C 209.478 -5.44433 -2.30969 0
M  V30 2081 C 208.84 -6.69034 -2.20394 0
M  V30 2082 H 204.939 -0.483506 -0.61461 0
M  V30 2083 H 207.523 -1.62299 -1.0755 0
M  V30 2084 H 205.694 -1.4787 -3.5915 0
M  V30 2085 H 207.426 -1.71488 -3.66571 0
M  V30 2086 H 204.181 -3.63378 -3.03732 0
M  V30 2087 H 204.605 -6.22705 -2.65646 0
M  V30 2088 H 209.247 -3.32388 -2.613 0
M  V30 2089 H 206.965 -7.7613 -2.25051 0
M  V30 2090 H 210.551 -5.38504 -2.20238 0
M  V30 2091 H 209.431 -7.57595 -2.02531 0
M  V30 2092 N 206.934 1.1197 -1.10907 0
M  V30 2093 C 207.844 2.21433 -0.774896 0
M  V30 2094 C 208.86 1.72478 0.229657 0
M  V30 2095 O 210.036 2.01288 0.0672008 0
M  V30 2096 C 207.101 3.4602 -0.216986 0
M  V30 2097 C 206.162 4.09791 -1.27944 0
M  V30 2098 C 205.395 5.28431 -0.748055 0
M  V30 2099 O 205.618 5.68823 0.423833 0
M  V30 2100 O 204.552 5.82644 -1.51027 0
M  V30 2101 H 208.378 2.5242 -1.68873 0
M  V30 2102 H 205.963 1.20399 -0.884555 0
M  V30 2103 H 207.845 4.21304 0.090059 0
M  V30 2104 H 206.52 3.16698 0.669633 0
M  V30 2105 H 205.427 3.36265 -1.63941 0
M  V30 2106 H 206.76 4.4328 -2.13925 0
M  V30 2107 N 208.412 0.89855 1.29475 0
M  V30 2108 C 209.36 0.365253 2.29714 0
M  V30 2109 C 210.354 -0.534993 1.6073 0
M  V30 2110 O 211.56 -0.417921 1.75081 0
M  V30 2111 H 207.935 0.0994853 0.74539 0
M  V30 2112 H 209.906 1.22406 2.72138 0
M  V30 2113 C 208.655 -0.393159 3.4547 0
M  V30 2114 H 207.978 0.290332 3.98744 0
M  V30 2115 H 209.418 -0.731189 4.17648 0
M  V30 2116 C 207.877 -1.59539 2.9673 0
M  V30 2117 O 208.407 -2.69469 2.97908 0
M  V30 2118 N 206.613 -1.43716 2.52575 0
M  V30 2119 H 206.16 -0.542828 2.51816 0
M  V30 2120 H 206.118 -2.24288 2.20323 0
M  V30 2121 N 209.89 -1.43072 0.660911 0
M  V30 2122 C 211.138 -2.01323 0.177094 0
M  V30 2123 C 211.459 -1.5245 -1.2159 0
M  V30 2124 O 210.729 -0.740322 -1.81373 0
M  V30 2125 H 209.309 -0.744382 0.0624804 0
M  V30 2126 H 211.971 -1.75179 0.854305 0
M  V30 2127 H 211.067 -3.11649 0.167641 0
M  V30 2128 N 211.368 -0.403325 -1.52352 0
M  V30 2129 C 212.593 0.176499 -2.06648 0
M  V30 2130 C 213.018 1.38577 -1.27193 0
M  V30 2131 O 212.376 1.7879 -0.300637 0
M  V30 2132 C 212.424 0.511061 -3.5696 0
M  V30 2133 O 211.528 1.60294 -3.79973 0
M  V30 2134 H 210.869 0.0167337 -0.663789 0
M  V30 2135 H 213.399 -0.574848 -1.96359 0
M  V30 2136 H 213.409 0.771362 -4.00642 0
M  V30 2137 H 212.084 -0.37296 -4.14224 0
M  V30 2138 H 210.661 1.33526 -3.48174 0
M  V30 2139 N 212.846 1.57033 -0.133567 0
M  V30 2140 C 214.257 1.82593 0.389464 0
M  V30 2141 C 214.608 1.05156 1.6564 0
M  V30 2142 O 213.733 0.292644 2.14412 0
M  V30 2143 C 214.328 3.31204 0.713377 0
M  V30 2144 C 212.887 3.57393 1.18098 0
M  V30 2145 C 212.034 2.76598 0.197126 0
M  V30 2146 H 214.985 1.54598 -0.358481 0
M  V30 2147 H 215.006 3.46627 1.56939 0
M  V30 2148 H 214.518 3.87537 -0.2089 0
M  V30 2149 H 212.619 3.06433 2.11966 0
M  V30 2150 H 212.732 4.65915 1.11624 0
M  V30 2151 H 211.096 2.45257 0.687088 0
M  V30 2152 H 211.879 3.35697 -0.718504 0
M  V30 2153 N 214.325 -0.140222 1.56975 0
M  V30 2154 C 215.573 -0.850005 1.83356 0
M  V30 2155 C 215.894 -1.81399 0.71551 0
M  V30 2156 O 215.164 -1.94136 -0.262294 0
M  V30 2157 H 213.744 -0.316886 0.676456 0
M  V30 2158 H 216.406 -0.132608 1.94448 0
M  V30 2159 H 215.502 -1.40814 2.78528 0
M  V30 2160 N 215.803 -1.52179 -0.40978 0
M  V30 2161 C 217.049 -1.67408 -1.15525 0
M  V30 2162 C 217.404 -0.398746 -1.88223 0
M  V30 2163 O 216.697 0.60678 -1.81738 0
M  V30 2164 C 216.891 -2.83428 -2.17723 0
M  V30 2165 C 216.72 -4.22121 -1.55061 0
M  V30 2166 C 215.49 -4.87657 -1.3236 0
M  V30 2167 C 217.688 -5.04248 -1.01185 0
M  V30 2168 N 215.67 -6.10387 -0.655834 0
M  V30 2169 C 217.041 -6.18209 -0.470963 0
M  V30 2170 C 219.096 -4.89583 -0.906252 0
M  V30 2171 C 217.799 -7.1911 0.165172 0
M  V30 2172 C 219.825 -5.90718 -0.28397 0
M  V30 2173 C 219.187 -7.03969 0.246243 0
M  V30 2174 H 215.286 -0.666251 -0.409431 0
M  V30 2175 H 217.87 -1.89482 -0.447729 0
M  V30 2176 H 216.041 -2.6297 -2.85834 0
M  V30 2177 H 217.773 -2.87697 -2.84627 0
M  V30 2178 H 214.528 -4.46007 -1.59294 0
M  V30 2179 H 214.952 -6.76153 -0.338596 0
M  V30 2180 H 219.594 -4.02253 -1.302 0
M  V30 2181 H 217.312 -8.06066 0.572986 0
M  V30 2182 H 220.898 -5.81443 -0.203792 0
M  V30 2183 H 219.778 -7.80886 0.720173 0
M  V30 2184 N 217.281 0.66697 -1.42791 0
M  V30 2185 C 218.527 1.42754 -1.44889 0
M  V30 2186 C 218.882 1.92283 -0.0669755 0
M  V30 2187 O 218.175 1.68494 0.912154 0
M  V30 2188 C 218.369 2.6349 -2.4147 0
M  V30 2189 C 218.198 2.25776 -3.88915 0
M  V30 2190 C 216.968 2.1476 -4.57391 0
M  V30 2191 C 219.166 1.86927 -4.79127 0
M  V30 2192 N 217.148 1.70232 -5.89826 0
M  V30 2193 C 218.519 1.53378 -6.00729 0
M  V30 2194 C 220.574 1.73989 -4.66511 0
M  V30 2195 C 219.277 1.08187 -7.11117 0
M  V30 2196 C 221.303 1.30203 -5.76889 0
M  V30 2197 C 220.665 0.975818 -6.97608 0
M  V30 2198 H 216.764 0.518559 -0.585338 0
M  V30 2199 H 219.348 0.768906 -1.78874 0
M  V30 2200 H 217.519 3.27033 -2.09533 0
M  V30 2201 H 219.251 3.30123 -2.34096 0
M  V30 2202 H 216.006 2.3408 -4.11708 0
M  V30 2203 H 216.43 1.50369 -6.6009 0
M  V30 2204 H 221.072 1.97853 -3.7365 0
M  V30 2205 H 218.79 0.830701 -8.03819 0
M  V30 2206 H 222.376 1.20701 -5.69142 0
M  V30 2207 H 221.256 0.642157 -7.81566 0
M  V30 2208 N 218.759 1.29093 0.90403 0
M  V30 2209 C 220.005 1.17996 1.65676 0
M  V30 2210 C 220.36 -0.266816 1.90541 0
M  V30 2211 O 219.653 -1.19 1.50165 0
M  V30 2212 C 219.847 1.92224 3.01305 0
M  V30 2213 C 219.676 3.43972 2.89678 0
M  V30 2214 C 218.446 4.1332 2.90679 0
M  V30 2215 C 220.644 4.39546 2.67028 0
M  V30 2216 N 218.626 5.51463 2.69743 0
M  V30 2217 C 219.997 5.65119 2.5503 0
M  V30 2218 C 222.052 4.29359 2.52101 0
M  V30 2219 C 220.755 6.81663 2.29626 0
M  V30 2220 C 222.781 5.4565 2.28079 0
M  V30 2221 C 222.143 6.70193 2.16843 0
M  V30 2222 H 218.242 0.486759 0.612037 0
M  V30 2223 H 220.826 1.62868 1.06688 0
M  V30 2224 H 218.997 1.49773 3.58361 0
M  V30 2225 H 220.729 1.73429 3.65656 0
M  V30 2226 H 217.484 3.64984 3.01801 0
M  V30 2227 H 217.908 6.24105 2.6234 0
M  V30 2228 H 222.55 3.33769 2.59534 0
M  V30 2229 H 220.268 7.77313 2.20932 0
M  V30 2230 H 223.854 5.39664 2.1738 0
M  V30 2231 H 222.734 7.58659 1.98511 0
M  V30 2232 N 220.237 -1.11381 1.11499 0
M  V30 2233 C 221.184 -2.17439 0.773887 0
M  V30 2234 C 222.154 -1.64132 -0.254899 0
M  V30 2235 O 223.339 -1.90345 -0.13168 0
M  V30 2236 C 220.479 -3.44373 0.223917 0
M  V30 2237 C 219.592 -4.1168 1.30934 0
M  V30 2238 C 218.727 -5.263 0.71984 0
M  V30 2239 C 217.766 -5.85493 1.78507 0
M  V30 2240 N 216.903 -6.91507 1.21502 0
M  V30 2241 H 221.743 -2.45962 1.68246 0
M  V30 2242 H 219.28 -1.20744 0.840191 0
M  V30 2243 H 221.238 -4.17047 -0.112921 0
M  V30 2244 H 219.868 -3.16232 -0.647851 0
M  V30 2245 H 218.92 -3.37073 1.76312 0
M  V30 2246 H 220.232 -4.51729 2.11524 0
M  V30 2247 H 219.386 -6.05785 0.333094 0
M  V30 2248 H 218.125 -4.87559 -0.117377 0
M  V30 2249 H 217.13 -5.04686 2.18111 0
M  V30 2250 H 218.355 -6.26301 2.62533 0
M  V30 2251 H 216.301 -6.54783 0.399455 0
M  V30 2252 H 216.218 -7.30214 1.95763 0
M  V30 2253 H 217.486 -7.74795 0.855181 0
M  V30 2254 N 221.715 -0.905404 -1.28997 0
M  V30 2255 C 222.962 -0.534248 -1.95325 0
M  V30 2256 C 223.29 0.920535 -1.71337 0
M  V30 2257 O 222.545 1.66861 -1.02254 0
M  V30 2258 C 222.844 -0.779906 -3.48787 0
M  V30 2259 C 222.51 -2.21293 -3.92861 0
M  V30 2260 C 221.172 -2.60475 -4.04606 0
M  V30 2261 C 223.524 -3.14587 -4.15553 0
M  V30 2262 C 220.852 -3.9212 -4.36416 0
M  V30 2263 C 223.204 -4.45787 -4.48839 0
M  V30 2264 C 221.868 -4.84834 -4.58794 0
M  V30 2265 H 221.138 -0.195495 -0.714747 0
M  V30 2266 H 223.785 -1.14514 -1.53488 0
M  V30 2267 H 222.09 -0.0861365 -3.91705 0
M  V30 2268 H 223.787 -0.472029 -3.98212 0
M  V30 2269 H 220.377 -1.89887 -3.84241 0
M  V30 2270 H 224.561 -2.85528 -4.0594 0
M  V30 2271 H 219.817 -4.22086 -4.42327 0
M  V30 2272 H 223.991 -5.18098 -4.65346 0
M  V30 2273 H 221.618 -5.86877 -4.83197 0
M  V30 2274 N 223.193 1.4272 -0.668489 0
M  V30 2275 C 224.604 1.84793 -0.266151 0
M  V30 2276 C 224.955 1.55959 1.19043 0
M  V30 2277 O 224.08 1.01622 1.91055 0
M  V30 2278 C 224.675 3.35436 -0.476271 0
M  V30 2279 C 223.234 3.76182 -0.128113 0
M  V30 2280 C 222.381 2.66344 -0.771777 0
M  V30 2281 H 225.332 1.32656 -0.871098 0
M  V30 2282 H 225.353 3.79515 0.273561 0
M  V30 2283 H 224.865 3.5639 -1.53647 0
M  V30 2284 H 222.966 3.60836 0.928891 0
M  V30 2285 H 223.079 4.75766 -0.564231 0
M  V30 2286 H 221.443 2.53885 -0.203652 0
M  V30 2287 H 222.226 2.90123 -1.83531 0
M  V30 2288 N 224.671 0.411399 1.52136 0
M  V30 2289 C 225.948 -0.222308 1.94333 0
M  V30 2290 C 226.328 -1.6242 1.34844 0
M  V30 2291 O 225.676 -2.22384 0.525145 0
M  V30 2292 C 225.886 -0.226345 3.48265 0
M  V30 2293 C 227.234 -0.444592 4.22266 0
M  V30 2294 O 228.258 -0.305602 3.54887 0
M  V30 2295 O 227.117 -0.718749 5.41753 0
M  V30 2296 H 224.211 -0.143907 0.814383 0
M  V30 2297 H 226.757 0.467506 1.63133 0
M  V30 2298 H 225.529 0.75475 3.83952 0
M  V30 2299 H 225.152 -0.960163 3.85832 0
M  V30 2300 N 226.149 -1.5696 0.141893 0
M  V30 2301 C 227.112 -2.15316 -0.785587 0
M  V30 2302 C 228.112 -1.09366 -1.1788 0
M  V30 2303 O 229.302 -1.35031 -1.10056 0
M  V30 2304 C 226.434 -2.71211 -2.06537 0
M  V30 2305 H 227.627 -2.98608 -0.278041 0
M  V30 2306 H 225.18 -1.5593 -0.107519 0
M  V30 2307 H 225.915 -1.91571 -2.6167 0
M  V30 2308 H 225.7 -3.4872 -1.79268 0
M  V30 2309 H 227.19 -3.16189 -2.72789 0
M  V30 2310 N 227.627 0.131896 -1.57047 0
M  V30 2311 C 228.557 1.16384 -2.02428 0
M  V30 2312 C 229.538 1.43936 -0.90644 0
M  V30 2313 O 230.723 1.54599 -1.17528 0
M  V30 2314 C 227.853 2.49328 -2.4177 0
M  V30 2315 C 226.807 2.36266 -3.56879 0
M  V30 2316 C 226.133 3.74057 -3.8208 0
M  V30 2317 C 227.433 1.834 -4.89042 0
M  V30 2318 H 229.127 0.786433 -2.88887 0
M  V30 2319 H 226.673 0.376855 -1.38981 0
M  V30 2320 H 228.626 3.21759 -2.7212 0
M  V30 2321 H 227.35 2.88934 -1.52266 0
M  V30 2322 H 226.009 1.66286 -3.26718 0
M  V30 2323 H 225.657 4.11125 -2.89803 0
M  V30 2324 H 225.357 3.66174 -4.59554 0
M  V30 2325 H 226.881 4.48012 -4.1487 0
M  V30 2326 H 228.295 2.45636 -5.18011 0
M  V30 2327 H 226.692 1.8637 -5.70426 0
M  V30 2328 H 227.762 0.790662 -4.7841 0
M  V30 2329 N 229.106 1.52395 0.401703 0
M  V30 2330 C 230.522 1.41363 0.740864 0
M  V30 2331 C 230.722 0.523982 1.94568 0
M  V30 2332 O 229.778 -0.00741204 2.52499 0
M  V30 2333 C 231.091 2.84011 0.987847 0
M  V30 2334 C 232.639 2.93404 1.09011 0
M  V30 2335 C 233.114 4.37036 1.3698 0
M  V30 2336 N 234.605 4.40304 1.43829 0
M  V30 2337 C 235.34 5.48508 1.67112 0
M  V30 2338 N 234.836 6.66819 1.87949 0
M  V30 2339 N 236.629 5.36034 1.69187 0
M  V30 2340 H 228.78 2.08765 -0.391262 0
M  V30 2341 H 231.043 0.941265 -0.112798 0
M  V30 2342 H 230.749 3.51265 0.174835 0
M  V30 2343 H 230.623 3.25502 1.906 0
M  V30 2344 H 233.01 2.26325 1.8937 0
M  V30 2345 H 233.091 2.55359 0.15015 0
M  V30 2346 H 232.735 5.04676 0.571353 0
M  V30 2347 H 232.665 4.72623 2.3224 0
M  V30 2348 H 235.156 3.55024 1.29486 0
M  V30 2349 H 235.469 7.45063 2.05185 0
M  V30 2350 H 233.814 6.6987 1.85199 0
M  V30 2351 H 237.005 4.42579 1.52451 0
M  V30 2352 H 237.178 6.20434 1.86993 0
M  V30 2353 N 230.584 -0.659388 1.43143 0
M  V30 2354 C 231.861 -1.41627 1.34912 0
M  V30 2355 C 232.241 -2.11099 -0.00607785 0
M  V30 2356 O 231.589 -2.04353 -1.02236 0
M  V30 2357 C 231.799 -2.40604 2.52805 0
M  V30 2358 C 233.147 -3.04789 2.95616 0
M  V30 2359 O 234.171 -2.50932 2.52807 0
M  V30 2360 O 233.03 -4.02421 3.69756 0
M  V30 2361 H 230.124 -0.63246 0.532844 0
M  V30 2362 H 232.67 -0.686814 1.5518 0
M  V30 2363 H 231.442 -1.88174 3.43083 0
M  V30 2364 H 231.065 -3.21009 2.34604 0
M  V30 2365 N 232.062 -1.29571 -0.897171 0
M  V30 2366 C 232.995 -1.0924 -2.00354 0
M  V30 2367 C 233.973 -0.00354011 -1.626 0
M  V30 2368 O 235.157 -0.15473 -1.87864 0
M  V30 2369 C 232.284 -0.66352 -3.32137 0
M  V30 2370 C 231.33 -1.75146 -3.88878 0
M  V30 2371 S 232.163 -3.35124 -4.17674 0
M  V30 2372 C 233.319 -2.9411 -5.52494 0
M  V30 2373 H 233.552 -2.02907 -2.17292 0
M  V30 2374 H 231.085 -1.13746 -1.04408 0
M  V30 2375 H 233.043 -0.422791 -4.08317 0
M  V30 2376 H 231.704 0.253588 -3.13075 0
M  V30 2377 H 230.897 -1.40337 -4.84068 0
M  V30 2378 H 230.499 -1.94584 -3.19395 0
M  V30 2379 H 232.791 -2.41312 -6.33068 0
M  V30 2380 H 233.734 -3.88161 -5.9223 0
M  V30 2381 H 234.142 -2.32332 -5.14473 0
M  V30 2382 N 233.54 1.10788 -1.12088 0
M  V30 2383 C 234.788 1.8231 -0.872205 0
M  V30 2384 C 235.109 1.85419 0.603709 0
M  V30 2385 O 234.379 1.32963 1.43867 0
M  V30 2386 H 232.959 0.675137 -0.319686 0
M  V30 2387 H 235.621 1.34068 -1.41463 0
M  V30 2388 H 234.717 2.85955 -1.25045 0
M  V30 2389 N 235.018 0.912232 1.28515 0
M  V30 2390 C 235.948 0.416403 2.29757 0
M  V30 2391 C 236.929 -0.515194 1.6211 0
M  V30 2392 O 238.114 -0.423253 1.89532 0
M  V30 2393 C 235.244 -0.34572 3.45575 0
M  V30 2394 C 234.198 0.496599 4.25109 0
M  V30 2395 C 233.524 -0.393771 5.33248 0
M  V30 2396 C 234.824 1.75307 4.92001 0
M  V30 2397 H 236.518 1.26249 2.7148 0
M  V30 2398 H 234.064 0.608515 1.30511 0
M  V30 2399 H 236.017 -0.703422 4.15488 0
M  V30 2400 H 234.741 -1.2257 3.02728 0
M  V30 2401 H 233.4 0.8368 3.56922 0
M  V30 2402 H 233.048 -1.27225 4.86644 0
M  V30 2403 H 232.748 0.166209 5.87365 0
M  V30 2404 H 234.272 -0.747389 6.06009 0
M  V30 2405 H 235.686 1.46437 5.54283 0
M  V30 2406 H 234.083 2.25534 5.56106 0
M  V30 2407 H 235.153 2.48176 4.16577 0
M  V30 2408 N 236.496 -1.42363 0.676048 0
M  V30 2409 C 237.743 -2.01522 0.19883 0
M  V30 2410 C 238.071 -1.53456 -1.19505 0
M  V30 2411 O 237.326 -0.727967 -1.81657 0
M  V30 2412 C 237.625 -3.56929 0.183431 0
M  V30 2413 C 237.291 -4.24431 1.52215 0
M  V30 2414 C 235.953 -4.42585 1.8887 0
M  V30 2415 C 238.305 -4.62459 2.40377 0
M  V30 2416 C 235.633 -4.96039 3.13309 0
M  V30 2417 C 237.985 -5.17294 3.64129 0
M  V30 2418 C 236.649 -5.33661 4.00951 0
M  V30 2419 H 235.919 -0.737419 0.0727571 0
M  V30 2420 H 238.566 -1.70531 0.871281 0
M  V30 2421 H 236.871 -3.87594 -0.572532 0
M  V30 2422 H 238.568 -4.00486 -0.203035 0
M  V30 2423 H 235.158 -4.10661 1.22701 0
M  V30 2424 H 239.342 -4.48105 2.13343 0
M  V30 2425 H 234.598 -5.06896 3.41857 0
M  V30 2426 H 238.772 -5.45704 4.32644 0
M  V30 2427 H 236.399 -5.74845 4.9745 0
M  V30 2428 N 237.974 -0.419461 -1.51915 0
M  V30 2429 C 239.222 0.152637 -2.01523 0
M  V30 2430 C 239.543 1.44762 -1.30649 0
M  V30 2431 O 238.813 1.90997 -0.435535 0
M  V30 2432 H 237.393 0.0593966 -0.744635 0
M  V30 2433 H 240.055 -0.558073 -1.86739 0
M  V30 2434 H 239.151 0.341369 -3.10227 0
M  V30 2435 N 239.452 1.56882 -0.150215 0
M  V30 2436 C 240.384 2.14057 0.819286 0
M  V30 2437 C 241.397 1.09082 1.20851 0
M  V30 2438 O 242.586 1.36347 1.15203 0
M  V30 2439 C 239.686 2.65102 2.11127 0
M  V30 2440 C 238.859 3.94511 1.88891 0
M  V30 2441 C 237.918 4.30834 3.02107 0
M  V30 2442 O 236.944 4.99099 2.73659 0
M  V30 2443 N 238.146 3.90676 4.29363 0
M  V30 2444 H 240.911 2.97871 0.330618 0
M  V30 2445 H 238.472 1.61866 0.0332538 0
M  V30 2446 H 240.464 2.86411 2.85921 0
M  V30 2447 H 239.034 1.85994 2.51247 0
M  V30 2448 H 238.254 3.81795 0.981152 0
M  V30 2449 H 239.542 4.7907 1.71376 0
M  V30 2450 H 238.94 3.35677 4.55343 0
M  V30 2451 H 237.497 4.1703 5.00928 0
M  V30 2452 N 240.93 -0.123565 1.57115 0
M  V30 2453 C 241.878 -1.17082 2.00984 0
M  V30 2454 C 242.872 -1.43136 0.906009 0
M  V30 2455 O 244.078 -1.43152 1.09121 0
M  V30 2456 H 240.453 -0.394653 0.64012 0
M  V30 2457 H 242.424 -0.774292 2.88179 0
M  V30 2458 C 241.173 -2.49057 2.42623 0
M  V30 2459 H 240.496 -2.29846 3.27125 0
M  V30 2460 H 241.936 -3.20906 2.7712 0
M  V30 2461 C 240.395 -3.11305 1.28805 0
M  V30 2462 O 240.925 -3.97171 0.60153 0
M  V30 2463 N 239.131 -2.71111 1.04628 0
M  V30 2464 H 238.678 -2.01382 1.60634 0
M  V30 2465 H 238.636 -3.1309 0.286685 0
M  V30 2466 N 242.408 -1.52605 -0.393616 0
M  V30 2467 C 243.341 -1.71798 -1.50202 0
M  V30 2468 C 244.319 -0.565743 -1.52441 0
M  V30 2469 O 245.503 -0.794987 -1.70916 0
M  V30 2470 C 242.63 -1.7714 -2.88685 0
M  V30 2471 C 241.676 -2.98845 -3.04292 0
M  V30 2472 S 242.509 -4.58909 -2.75976 0
M  V30 2473 C 243.665 -4.6706 -4.1666 0
M  V30 2474 H 243.898 -2.65542 -1.33696 0
M  V30 2475 H 241.431 -1.42839 -0.586195 0
M  V30 2476 H 243.389 -1.80903 -3.68489 0
M  V30 2477 H 242.05 -0.844969 -3.02521 0
M  V30 2478 H 241.243 -2.99111 -4.05646 0
M  V30 2479 H 240.845 -2.9305 -2.32374 0
M  V30 2480 H 243.137 -4.45391 -5.10523 0
M  V30 2481 H 244.08 -5.6905 -4.21412 0
M  V30 2482 H 244.488 -3.95944 -4.02354 0
M  V30 2483 N 243.887 0.651787 -1.4349 0
M  V30 2484 C 245.117 1.43728 -1.48411 0
M  V30 2485 C 245.525 1.8893 -0.10103 0
M  V30 2486 O 244.868 1.60182 0.899307 0
M  V30 2487 C 244.93 2.70411 -2.36893 0
M  V30 2488 C 244.594 2.4714 -3.8441 0
M  V30 2489 C 245.591 2.10271 -4.75481 0
M  V30 2490 C 243.276 2.6142 -4.28912 0
M  V30 2491 C 245.27 1.87982 -6.0905 0
M  V30 2492 C 242.957 2.38746 -5.62533 0
M  V30 2493 C 243.955 2.02083 -6.5242 0
M  V30 2494 O 243.643 1.79647 -7.8357 0
M  V30 2495 H 243.375 0.447962 -0.506267 0
M  V30 2496 H 245.929 0.80624 -1.88915 0
M  V30 2497 H 244.159 3.36079 -1.91278 0
M  V30 2498 H 245.848 3.32364 -2.33 0
M  V30 2499 H 246.614 1.98814 -4.42378 0
M  V30 2500 H 242.493 2.88931 -3.59222 0
M  V30 2501 H 246.037 1.5929 -6.7917 0
M  V30 2502 H 241.934 2.49806 -5.95203 0
M  V30 2503 H 242.702 1.9406 -7.95162 0
M  V30 2504 N 245.365 1.30045 0.890287 0
M  V30 2505 C 246.595 1.21296 1.67245 0
M  V30 2506 C 247.003 -0.227471 1.87828 0
M  V30 2507 O 246.346 -1.16296 1.422 0
M  V30 2508 C 246.408 1.86519 3.07329 0
M  V30 2509 C 246.072 3.35837 3.09939 0
M  V30 2510 C 247.069 4.31915 2.89389 0
M  V30 2511 C 244.754 3.77196 3.31706 0
M  V30 2512 C 246.748 5.67325 2.90552 0
M  V30 2513 C 244.435 5.12725 3.32499 0
M  V30 2514 C 245.433 6.076 3.11947 0
M  V30 2515 O 245.121 7.40655 3.12547 0
M  V30 2516 H 244.853 0.4211 0.528821 0
M  V30 2517 H 247.407 1.72111 1.12103 0
M  V30 2518 H 245.637 1.30228 3.64112 0
M  V30 2519 H 247.326 1.71963 3.67673 0
M  V30 2520 H 248.092 4.01294 2.72375 0
M  V30 2521 H 243.971 3.03796 3.4674 0
M  V30 2522 H 247.515 6.41354 2.74429 0
M  V30 2523 H 243.412 5.42988 3.49047 0
M  V30 2524 H 244.18 7.49577 3.28749 0
M  V30 2525 N 246.843 -1.10192 1.12674 0
M  V30 2526 C 247.793 -2.14754 0.765801 0
M  V30 2527 C 248.777 -1.59154 -0.236409 0
M  V30 2528 O 249.969 -1.76951 -0.0415261 0
M  V30 2529 C 247.098 -3.42563 0.224827 0
M  V30 2530 C 246.184 -4.05091 1.25548 0
M  V30 2531 N 246.575 -4.42287 2.4539 0
M  V30 2532 C 244.873 -4.32186 1.10142 0
M  V30 2533 C 245.574 -4.91441 3.11224 0
M  V30 2534 N 244.55 -4.88405 2.38666 0
M  V30 2535 H 248.352 -2.41309 1.67772 0
M  V30 2536 H 245.866 -1.27339 1.00789 0
M  V30 2537 H 247.863 -4.16868 -0.0519578 0
M  V30 2538 H 246.523 -3.17467 -0.681515 0
M  V30 2539 H 247.534 -4.33902 2.82754 0
M  V30 2540 H 244.211 -4.16735 0.252587 0
M  V30 2541 H 245.601 -5.29749 4.13298 0
M  V30 2542 N 248.321 -0.919034 -1.28029 0
M  V30 2543 C 249.551 -0.570143 -1.98577 0
M  V30 2544 C 249.959 0.854172 -1.68821 0
M  V30 2545 O 249.302 1.57807 -0.940351 0
M  V30 2546 C 249.364 -0.705734 -3.52505 0
M  V30 2547 C 249.028 -2.10057 -4.05863 0
M  V30 2548 C 250.025 -3.07385 -4.19298 0
M  V30 2549 C 247.71 -2.41517 -4.40426 0
M  V30 2550 C 249.704 -4.34287 -4.66555 0
M  V30 2551 C 247.391 -3.68657 -4.87376 0
M  V30 2552 C 248.389 -4.64856 -5.00398 0
M  V30 2553 O 248.077 -5.89735 -5.46322 0
M  V30 2554 H 247.809 -0.215592 -0.6407 0
M  V30 2555 H 250.363 -1.23583 -1.64062 0
M  V30 2556 H 248.593 0.0170414 -3.86696 0
M  V30 2557 H 250.282 -0.363172 -4.04272 0
M  V30 2558 H 251.048 -2.84398 -3.92865 0
M  V30 2559 H 246.927 -1.67389 -4.29537 0
M  V30 2560 H 250.471 -5.09377 -4.76635 0
M  V30 2561 H 246.368 -3.91466 -5.13249 0
M  V30 2562 H 247.136 -5.92599 -5.64596 0
M  V30 2563 N 249.799 1.42003 -0.683588 0
M  V30 2564 C 250.729 2.33487 -0.024866 0
M  V30 2565 C 251.71 1.51163 0.779975 0
M  V30 2566 O 252.895 1.79739 0.735362 0
M  V30 2567 C 250.025 3.3487 0.920836 0
M  V30 2568 C 248.979 4.27414 0.223958 0
M  V30 2569 C 248.305 5.19074 1.2832 0
M  V30 2570 C 249.605 5.14445 -0.90242 0
M  V30 2571 H 251.299 2.88819 -0.788921 0
M  V30 2572 H 248.845 1.38873 -0.38083 0
M  V30 2573 H 250.798 3.97787 1.39081 0
M  V30 2574 H 249.522 2.77861 1.71642 0
M  V30 2575 H 248.181 3.65904 -0.225864 0
M  V30 2576 H 247.829 4.58387 2.071 0
M  V30 2577 H 247.529 5.81822 0.821995 0
M  V30 2578 H 249.053 5.84867 1.75392 0
M  V30 2579 H 250.467 5.70998 -0.513272 0
M  V30 2580 H 248.864 5.86072 -1.28997 0
M  V30 2581 H 249.934 4.52322 -1.74737 0
M  V30 2582 N 251.277 0.427512 1.51691 0
M  V30 2583 C 252.525 -0.141948 2.01601 0
M  V30 2584 C 252.846 -1.44067 1.31414 0
M  V30 2585 O 252.116 -1.90763 0.445658 0
M  V30 2586 H 250.696 -0.0554468 0.744939 0
M  V30 2587 H 253.358 0.567968 1.86441 0
M  V30 2588 H 252.454 -0.324913 3.10404 0
M  V30 2589 N 252.755 -1.56801 0.158532 0
M  V30 2590 C 254.171 -1.5837 -0.197774 0
M  V30 2591 C 254.371 -1.17334 -1.63814 0
M  V30 2592 O 253.427 -0.878988 -2.36707 0
M  V30 2593 C 254.74 -3.00615 0.0714459 0
M  V30 2594 C 256.288 -3.12999 0.00864533 0
M  V30 2595 C 256.763 -4.57313 0.250685 0
M  V30 2596 N 258.254 -4.62777 0.198014 0
M  V30 2597 C 258.989 -5.72271 0.359642 0
M  V30 2598 N 258.485 -6.90371 0.579625 0
M  V30 2599 N 260.278 -5.61318 0.296438 0
M  V30 2600 H 252.429 -1.81765 1.09887 0
M  V30 2601 H 254.692 -0.841849 0.435884 0
M  V30 2602 H 254.398 -3.35068 1.06874 0
M  V30 2603 H 254.272 -3.71683 -0.642757 0
M  V30 2604 H 256.659 -2.7838 -0.979217 0
M  V30 2605 H 256.74 -2.44393 0.755359 0
M  V30 2606 H 256.384 -4.92639 1.2357 0
M  V30 2607 H 256.314 -5.24061 -0.516489 0
M  V30 2608 H 258.805 -3.77885 0.0331115 0
M  V30 2609 H 259.118 -7.69689 0.69275 0
M  V30 2610 H 257.463 -6.92264 0.616087 0
M  V30 2611 H 260.654 -4.67932 0.125258 0
M  V30 2612 H 260.827 -6.46599 0.425831 0
M  V30 2613 N 254.233 0.115231 -1.57178 0
M  V30 2614 C 255.196 1.12526 -1.99676 0
M  V30 2615 C 256.196 1.34095 -0.88742 0
M  V30 2616 O 257.386 1.30548 -1.15337 0
M  V30 2617 C 254.518 2.4789 -2.34015 0
M  V30 2618 H 255.711 0.759912 -2.90113 0
M  V30 2619 H 253.264 0.359648 -1.52106 0
M  V30 2620 H 253.999 2.89339 -1.4647 0
M  V30 2621 H 253.784 2.33588 -3.14927 0
M  V30 2622 H 255.274 3.20575 -2.67622 0
M  V30 2623 N 255.711 1.52812 0.385517 0
M  V30 2624 C 256.959 1.67694 1.12797 0
M  V30 2625 C 257.28 0.421115 1.90399 0
M  V30 2626 O 256.55 -0.564551 1.87589 0
M  V30 2627 H 255.13 0.618155 0.419396 0
M  V30 2628 H 257.792 1.89938 0.436972 0
M  V30 2629 H 256.888 2.52896 1.82894 0
M  V30 2630 N 257.189 -0.644168 1.43834 0
M  V30 2631 C 258.419 -1.42939 1.49171 0
M  V30 2632 C 258.827 -1.88874 0.111048 0
M  V30 2633 O 258.17 -1.60656 -0.8908 0
M  V30 2634 C 258.232 -2.69151 2.38324 0
M  V30 2635 C 257.896 -2.45097 3.85715 0
M  V30 2636 C 258.893 -2.07747 4.76589 0
M  V30 2637 C 256.578 -2.59141 4.30292 0
M  V30 2638 C 258.572 -1.8475 6.10038 0
M  V30 2639 C 256.259 -2.35759 5.63792 0
M  V30 2640 C 257.257 -1.9862 6.53482 0
M  V30 2641 O 256.945 -1.75489 7.84512 0
M  V30 2642 H 256.677 -0.445271 0.508635 0
M  V30 2643 H 259.231 -0.79621 1.8934 0
M  V30 2644 H 257.461 -3.3506 1.93058 0
M  V30 2645 H 259.15 -3.31123 2.3476 0
M  V30 2646 H 259.916 -1.96465 4.43426 0
M  V30 2647 H 255.795 -2.87022 3.60749 0
M  V30 2648 H 259.339 -1.55686 6.80006 0
M  V30 2649 H 255.236 -2.46646 5.9652 0
M  V30 2650 H 256.004 -1.89841 7.9618 0
M  V30 2651 N 258.668 -1.30515 -0.883378 0
M  V30 2652 C 259.896 -1.22359 -1.66841 0
M  V30 2653 C 260.311 0.213296 -1.87591 0
M  V30 2654 O 259.668 1.14075 -1.42454 0
M  V30 2655 C 259.719 -1.95011 -3.04389 0
M  V30 2656 O 259.44 -3.3309 -2.84575 0
M  V30 2657 C 260.941 -1.93532 -3.98824 0
M  V30 2658 H 258.161 -0.423371 -0.520575 0
M  V30 2659 H 260.705 -1.72167 -1.10357 0
M  V30 2660 H 258.86 -1.48997 -3.57601 0
M  V30 2661 H 259.274 -3.69907 -3.71846 0
M  V30 2662 H 260.748 -2.48902 -4.92699 0
M  V30 2663 H 261.225 -0.914627 -4.29571 0
M  V30 2664 H 261.831 -2.39364 -3.51547 0
M  V30 2665 N 260.146 1.09593 -1.13257 0
M  V30 2666 C 261.395 1.81105 -0.887917 0
M  V30 2667 C 261.708 1.86563 0.587672 0
M  V30 2668 O 262.914 2.54367 0.949204 0
M  V30 2669 C 261.37 3.25338 -1.53895 0
M  V30 2670 C 260.978 3.28151 -3.04994 0
M  V30 2671 C 262.722 4.01617 -1.37492 0
M  V30 2672 C 260.629 4.66897 -3.6299 0
M  V30 2673 H 259.559 0.678661 -0.328534 0
M  V30 2674 H 262.21 1.23183 -1.36008 0
M  V30 2675 H 260.592 3.8331 -0.994446 0
M  V30 2676 H 261.766 2.79953 -3.66009 0
M  V30 2677 H 260.081 2.65361 -3.20893 0
M  V30 2678 H 262.678 5.04119 -1.78235 0
M  V30 2679 H 263.021 4.15072 -0.31957 0
M  V30 2680 H 263.554 3.50082 -1.88912 0
M  V30 2681 H 260.293 4.58643 -4.68323 0
M  V30 2682 H 259.813 5.15426 -3.06752 0
M  V30 2683 H 261.492 5.3587 -3.62563 0
M  V30 2684 N 261.624 0.925811 1.2754 0
M  V30 2685 C 262.574 0.394488 2.24561 0
M  V30 2686 C 263.558 -0.500183 1.52928 0
M  V30 2687 O 264.75 -0.337936 1.73744 0
M  V30 2688 C 261.879 -0.353328 3.41477 0
M  V30 2689 C 260.965 0.557752 4.20416 0
M  V30 2690 N 261.356 1.67674 4.77199 0
M  V30 2691 C 259.654 0.360404 4.44541 0
M  V30 2692 C 260.355 2.24324 5.36706 0
M  V30 2693 N 259.331 1.53305 5.21535 0
M  V30 2694 H 263.133 1.2489 2.66045 0
M  V30 2695 H 260.647 0.779864 1.4245 0
M  V30 2696 H 262.644 -0.7509 4.10082 0
M  V30 2697 H 261.304 -1.20469 3.01525 0
M  V30 2698 H 262.315 2.05915 4.75204 0
M  V30 2699 H 258.992 -0.450454 4.15063 0
M  V30 2700 H 260.382 3.18521 5.91603 0
M  V30 2701 N 263.102 -1.41638 0.69111 0
M  V30 2702 C 264.348 -2.01598 0.220519 0
M  V30 2703 C 264.681 -1.54594 -1.17535 0
M  V30 2704 O 263.956 -0.755177 -1.79241 0
M  V30 2705 C 264.239 -3.59062 0.273243 0
M  V30 2706 C 264.092 -4.16203 1.70573 0
M  V30 2707 C 265.411 -4.38546 -0.369457 0
M  V30 2708 H 262.53 -0.732468 0.0816045 0
M  V30 2709 H 265.172 -1.68445 0.878986 0
M  V30 2710 H 263.322 -3.87435 -0.287411 0
M  V30 2711 H 264.994 -3.98722 2.31989 0
M  V30 2712 H 263.237 -3.71414 2.2413 0
M  V30 2713 H 263.908 -5.25358 1.69419 0
M  V30 2714 H 266.384 -4.1596 0.107977 0
M  V30 2715 H 265.26 -5.48069 -0.302002 0
M  V30 2716 H 265.521 -4.17662 -1.44951 0
M  V30 2717 N 264.58 -0.43555 -1.51462 0
M  V30 2718 C 265.512 0.41257 -2.25456 0
M  V30 2719 C 266.525 0.987822 -1.29406 0
M  V30 2720 O 267.714 0.882266 -1.55172 0
M  V30 2721 C 264.814 1.58894 -2.99342 0
M  V30 2722 C 263.987 1.13288 -4.22474 0
M  V30 2723 C 263.046 2.17917 -4.78956 0
M  V30 2724 O 262.072 1.77425 -5.40841 0
M  V30 2725 N 263.274 3.50382 -4.62832 0
M  V30 2726 H 266.039 -0.221603 -2.9888 0
M  V30 2727 H 263.6 -0.264342 -1.59727 0
M  V30 2728 H 265.592 2.28508 -3.34015 0
M  V30 2729 H 264.162 2.12849 -2.28941 0
M  V30 2730 H 263.382 0.263881 -3.93316 0
M  V30 2731 H 264.67 0.805542 -5.02383 0
M  V30 2732 H 264.068 3.86013 -4.13534 0
M  V30 2733 H 262.625 4.15895 -5.01871 0
M  V30 2734 N 266.058 1.56714 -0.166846 0
M  V30 2735 C 267.298 1.98641 0.481763 0
M  V30 2736 C 267.662 1.05038 1.6072 0
M  V30 2737 O 268.863 1.36087 2.31805 0
M  V30 2738 C 267.134 3.44362 0.956517 0
M  V30 2739 S 268.693 4.08317 1.60694 0
M  V30 2740 H 265.511 0.693873 0.155116 0
M  V30 2741 H 268.113 1.93719 -0.263251 0
M  V30 2742 H 266.817 4.10204 0.126936 0
M  V30 2743 H 266.348 3.53041 1.73568 0
M  V30 2744 H 268.363 4.02999 2.89494 0
M  V30 2745 N 267.536 -0.106894 1.57237 0
M  V30 2746 C 268.484 -1.14944 2.02215 0
M  V30 2747 C 269.478 -1.42167 0.92114 0
M  V30 2748 O 270.684 -1.41987 1.10634 0
M  V30 2749 H 267.059 -0.387841 0.64427 0
M  V30 2750 H 269.03 -0.743683 2.88984 0
M  V30 2751 C 267.779 -2.4647 2.4525 0
M  V30 2752 H 267.102 -2.26363 3.29545 0
M  V30 2753 H 268.542 -3.17948 2.80508 0
M  V30 2754 C 267.001 -3.09921 1.321 0
M  V30 2755 O 267.531 -3.9651 0.643622 0
M  V30 2756 N 265.737 -2.69986 1.07497 0
M  V30 2757 H 265.284 -1.99667 1.62761 0
M  V30 2758 H 265.242 -3.12769 0.319876 0
M  V30 2759 N 269.014 -1.53014 -0.377408 0
M  V30 2760 C 269.977 -1.77957 -1.44444 0
M  V30 2761 C 270.977 -0.649763 -1.47087 0
M  V30 2762 O 272.167 -0.917897 -1.48055 0
M  V30 2763 C 269.299 -1.89089 -2.83651 0
M  V30 2764 H 270.492 -2.73243 -1.23606 0
M  V30 2765 H 268.045 -1.43912 -0.609844 0
M  V30 2766 H 268.78 -0.958293 -3.09818 0
M  V30 2767 H 268.565 -2.71254 -2.83132 0
M  V30 2768 H 270.055 -2.1002 -3.60945 0
M  V30 2769 N 270.492 0.636531 -1.44174 0
M  V30 2770 C 271.717 1.42847 -1.50364 0
M  V30 2771 C 272.142 1.87665 -0.127867 0
M  V30 2772 O 271.5 1.58408 0.88185 0
M  V30 2773 C 271.548 2.62854 -2.4686 0
M  V30 2774 O 270.652 3.62501 -1.9664 0
M  V30 2775 H 269.993 0.427642 -0.507955 0
M  V30 2776 H 272.523 0.777422 -1.89255 0
M  V30 2777 H 272.533 3.10465 -2.64718 0
M  V30 2778 H 271.208 2.29578 -3.46795 0
M  V30 2779 H 269.785 3.21735 -1.88523 0
M  V30 2780 N 271.97 1.30982 0.876444 0
M  V30 2781 C 272.917 1.18085 1.98304 0
M  V30 2782 C 273.887 0.0682263 1.6596 0
M  V30 2783 O 275.072 0.239937 1.89285 0
M  V30 2784 C 272.212 0.887475 3.33493 0
M  V30 2785 C 271.325 2.08281 3.78475 0
M  V30 2786 C 270.46 1.72678 5.0235 0
M  V30 2787 C 269.499 2.88657 5.39762 0
M  V30 2788 N 268.636 2.53292 6.54819 0
M  V30 2789 H 273.476 2.1275 2.08666 0
M  V30 2790 H 271.013 1.05839 1.02159 0
M  V30 2791 H 272.971 0.697961 4.1132 0
M  V30 2792 H 271.601 -0.022315 3.22792 0
M  V30 2793 H 270.653 2.3833 2.96484 0
M  V30 2794 H 271.965 2.95108 4.02135 0
M  V30 2795 H 271.119 1.50151 5.87826 0
M  V30 2796 H 269.858 0.830327 4.8058 0
M  V30 2797 H 268.863 3.1184 4.52809 0
M  V30 2798 H 270.088 3.79002 5.63502 0
M  V30 2799 H 268.034 1.66163 6.34607 0
M  V30 2800 H 267.951 3.3365 6.7839 0
M  V30 2801 H 269.219 2.34143 7.43503 0
M  V30 2802 N 273.449 -1.08991 1.13837 0
M  V30 2803 C 274.696 -1.81258 0.902882 0
M  V30 2804 C 275.024 -1.85936 -0.570803 0
M  V30 2805 O 274.279 -1.3267 -1.43865 0
M  V30 2806 C 274.578 -3.27042 1.44147 0
M  V30 2807 C 274.244 -3.4249 2.93276 0
M  V30 2808 C 272.906 -3.46414 3.33992 0
M  V30 2809 C 275.258 -3.4666 3.892 0
M  V30 2810 C 272.586 -3.52091 4.69307 0
M  V30 2811 C 274.938 -3.53872 5.24364 0
M  V30 2812 C 273.602 -3.56066 5.646 0
M  V30 2813 H 272.872 -0.663268 0.330388 0
M  V30 2814 H 275.519 -1.28368 1.42105 0
M  V30 2815 H 273.824 -3.82599 0.844097 0
M  V30 2816 H 275.521 -3.81499 1.23528 0
M  V30 2817 H 272.111 -3.40124 2.60794 0
M  V30 2818 H 276.295 -3.42865 3.58828 0
M  V30 2819 H 271.551 -3.52079 4.9985 0
M  V30 2820 H 275.725 -3.56043 5.98503 0
M  V30 2821 H 273.352 -3.60218 6.69438 0
M  V30 2822 N 274.927 -0.932562 -1.27047 0
M  V30 2823 C 275.877 -0.406392 -2.24349 0
M  V30 2824 C 276.861 0.492066 -1.53191 0
M  V30 2825 O 278.053 0.328717 -1.73921 0
M  V30 2826 C 275.182 0.335214 -3.41659 0
M  V30 2827 C 274.268 -0.58004 -4.20115 0
M  V30 2828 N 274.659 -1.70203 -4.76303 0
M  V30 2829 C 272.957 -0.383974 -4.44344 0
M  V30 2830 C 273.658 -2.27167 -5.35509 0
M  V30 2831 N 272.634 -1.56068 -5.20715 0
M  V30 2832 H 276.436 -1.26299 -2.65378 0
M  V30 2833 H 273.95 -0.787408 -1.42034 0
M  V30 2834 H 275.947 0.729142 -4.10474 0
M  V30 2835 H 274.607 1.18868 -3.0216 0
M  V30 2836 H 275.618 -2.08433 -4.74106 0
M  V30 2837 H 272.295 0.428436 -4.15296 0
M  V30 2838 H 273.685 -3.21654 -5.89905 0
M  V30 2839 N 276.405 1.4127 -0.698611 0
M  V30 2840 C 277.337 2.292 0.00399731 0
M  V30 2841 C 278.35 1.44944 0.741279 0
M  V30 2842 O 279.539 1.68416 0.591477 0
M  V30 2843 C 276.639 3.22875 1.02979 0
M  V30 2844 C 275.812 4.35904 0.36151 0
M  V30 2845 C 274.871 5.10134 1.29033 0
M  V30 2846 O 273.897 5.63809 0.781562 0
M  V30 2847 N 275.099 5.17885 2.6225 0
M  V30 2848 H 277.864 2.9014 -0.750921 0
M  V30 2849 H 275.425 1.52455 -0.544882 0
M  V30 2850 H 277.417 3.69404 1.65296 0
M  V30 2851 H 275.987 2.63221 1.68622 0
M  V30 2852 H 275.207 3.91719 -0.441584 0
M  V30 2853 H 276.495 5.08696 -0.103055 0
M  V30 2854 H 275.893 4.7573 3.061 0
M  V30 2855 H 274.45 5.6798 3.19754 0
M  V30 2856 N 277.883 0.443576 1.51229 0
M  V30 2857 C 279.131 -0.120557 2.0174 0
M  V30 2858 C 279.452 -1.42665 1.32935 0
M  V30 2859 O 278.722 -1.9028 0.465866 0
M  V30 2860 H 277.302 -0.0475426 0.745486 0
M  V30 2861 H 279.964 0.587711 1.85828 0
M  V30 2862 H 279.06 -0.291972 3.10731 0
M  V30 2863 N 279.361 -1.56624 0.175154 0
M  V30 2864 C 280.601 -1.98894 -0.471221 0
M  V30 2865 C 280.965 -1.05889 -1.60161 0
M  V30 2866 O 282.166 -1.37315 -2.3108 0
M  V30 2867 C 280.437 -3.44865 -0.938241 0
M  V30 2868 S 281.996 -4.09164 -1.58526 0
M  V30 2869 H 278.814 -0.694686 -0.151434 0
M  V30 2870 H 281.416 -1.93577 0.27352 0
M  V30 2871 H 280.12 -4.10265 -0.10518 0
M  V30 2872 H 279.651 -3.53956 -1.71693 0
M  V30 2873 H 281.666 -4.04528 -2.87352 0
M  V30 2874 N 280.839 0.0985539 -1.57292 0
M  V30 2875 C 282.088 0.801358 -1.85098 0
M  V30 2876 C 282.401 1.80066 -0.763902 0
M  V30 2877 O 283.607 2.55112 -0.928981 0
M  V30 2878 C 282.063 1.47599 -3.28242 0
M  V30 2879 C 281.671 0.516624 -4.45011 0
M  V30 2880 C 283.415 2.16272 -3.65276 0
M  V30 2881 C 281.322 1.19564 -5.79188 0
M  V30 2882 H 280.252 0.303022 -0.69043 0
M  V30 2883 H 282.903 0.0542623 -1.8342 0
M  V30 2884 H 281.285 2.27042 -3.2445 0
M  V30 2885 H 282.459 -0.246065 -4.60143 0
M  V30 2886 H 280.774 -0.064227 -4.1635 0
M  V30 2887 H 283.371 2.67802 -4.62803 0
M  V30 2888 H 283.714 2.95009 -2.93727 0
M  V30 2889 H 284.247 1.43693 -3.70941 0
M  V30 2890 H 280.986 0.449157 -6.53959 0
M  V30 2891 H 280.506 1.92984 -5.67906 0
M  V30 2892 H 282.185 1.7231 -6.23633 0
M  V30 2893 N 282.317 1.53212 0.369288 0
M  V30 2894 C 283.247 1.82365 1.45826 0
M  V30 2895 C 284.228 0.676907 1.56051 0
M  V30 2896 O 285.413 0.926401 1.70679 0
M  V30 2897 C 282.543 2.01023 2.83208 0
M  V30 2898 C 281.497 3.1678 2.8781 0
M  V30 2899 C 280.823 3.20724 4.27832 0
M  V30 2900 C 282.123 4.55447 2.55667 0
M  V30 2901 H 283.817 2.73559 1.21678 0
M  V30 2902 H 281.363 1.3163 0.583911 0
M  V30 2903 H 283.316 2.20001 3.59413 0
M  V30 2904 H 282.04 1.06536 3.08736 0
M  V30 2905 H 280.699 2.97616 2.14056 0
M  V30 2906 H 280.347 2.23882 4.50429 0
M  V30 2907 H 280.047 3.98496 4.31827 0
M  V30 2908 H 281.571 3.41881 5.05915 0
M  V30 2909 H 282.985 4.74611 3.21586 0
M  V30 2910 H 281.382 5.35432 2.70984 0
M  V30 2911 H 282.452 4.60812 1.5093 0
M  V30 2912 N 283.795 -0.628877 1.44509 0
M  V30 2913 C 285.041 -1.39045 1.47629 0
M  V30 2914 C 285.374 -1.93892 0.109343 0
M  V30 2915 O 284.649 -1.7379 -0.87334 0
M  V30 2916 C 284.932 -2.55408 2.53848 0
M  V30 2917 C 284.785 -2.05896 3.99909 0
M  V30 2918 C 286.104 -3.5759 2.56549 0
M  V30 2919 H 283.223 -0.504232 0.537512 0
M  V30 2920 H 285.865 -0.710854 1.76201 0
M  V30 2921 H 284.015 -3.13384 2.29615 0
M  V30 2922 H 285.687 -1.52734 4.35282 0
M  V30 2923 H 283.93 -1.37061 4.11578 0
M  V30 2924 H 284.601 -2.89681 4.69882 0
M  V30 2925 H 287.077 -3.09419 2.78207 0
M  V30 2926 H 285.953 -4.36527 3.32769 0
M  V30 2927 H 286.214 -4.11808 1.60832 0
M  V30 2928 N 285.273 -1.31445 -0.869486 0
M  V30 2929 C 286.519 -1.21337 -1.62496 0
M  V30 2930 C 286.852 0.227872 -1.92858 0
M  V30 2931 O 286.127 1.16094 -1.56053 0
M  V30 2932 C 286.41 -2.05814 -2.95487 0
M  V30 2933 C 286.263 -3.5824 -2.72 0
M  V30 2934 C 287.582 -1.9079 -3.96594 0
M  V30 2935 H 284.701 -0.442135 -0.589649 0
M  V30 2936 H 287.343 -1.6124 -1.00507 0
M  V30 2937 H 285.493 -1.71913 -3.48394 0
M  V30 2938 H 287.165 -4.0228 -2.25762 0
M  V30 2939 H 285.408 -3.81647 -2.06224 0
M  V30 2940 H 286.079 -4.12657 -3.66631 0
M  V30 2941 H 288.555 -2.20459 -3.52898 0
M  V30 2942 H 287.431 -2.52199 -4.87531 0
M  V30 2943 H 287.692 -0.871341 -4.33428 0
M  V30 2944 N 286.751 1.08385 -1.14413 0
M  V30 2945 C 287.991 1.8238 -0.922868 0
M  V30 2946 C 288.355 1.84225 0.540842 0
M  V30 2947 O 289.556 2.53985 0.880058 0
M  V30 2948 C 287.827 3.24048 -1.50757 0
M  V30 2949 S 289.386 4.14917 -1.4279 0
M  V30 2950 H 286.204 0.628524 -0.332384 0
M  V30 2951 H 288.806 1.30278 -1.45766 0
M  V30 2952 H 287.51 3.20288 -2.56601 0
M  V30 2953 H 287.041 3.81224 -0.971178 0
M  V30 2954 H 289.056 4.94473 -0.413582 0
M  V30 2955 N 288.23 0.939286 1.26551 0
M  V30 2956 C 289.476 0.586715 1.94128 0
M  V30 2957 C 289.809 -0.8717 1.73537 0
M  V30 2958 O 289.084 -1.62339 1.07127 0
M  V30 2959 C 289.367 0.927497 3.4795 0
M  V30 2960 C 289.22 2.44052 3.77834 0
M  V30 2961 C 290.539 0.441569 4.37879 0
M  V30 2962 H 287.658 0.21463 0.705055 0
M  V30 2963 H 290.3 1.17316 1.49455 0
M  V30 2964 H 288.45 0.428431 3.8613 0
M  V30 2965 H 290.122 3.01216 3.4938 0
M  V30 2966 H 288.365 2.8848 3.23978 0
M  V30 2967 H 289.036 2.62947 4.85348 0
M  V30 2968 H 291.512 0.869448 4.06915 0
M  V30 2969 H 290.388 0.708856 5.44304 0
M  V30 2970 H 290.649 -0.658467 4.37169 0
M  V30 2971 N 289.708 -1.40897 0.706093 0
M  V30 2972 C 291.119 -1.84023 0.315052 0
M  V30 2973 C 291.47 -1.5906 -1.14866 0
M  V30 2974 O 290.595 -1.06651 -1.88293 0
M  V30 2975 C 291.19 -3.34055 0.565038 0
M  V30 2976 C 289.749 -3.7571 0.227806 0
M  V30 2977 C 288.896 -2.64204 0.842122 0
M  V30 2978 H 291.847 -1.303 0.905963 0
M  V30 2979 H 291.868 -3.80107 -0.172843 0
M  V30 2980 H 291.38 -3.52192 1.63042 0
M  V30 2981 H 289.481 -3.63172 -0.832895 0
M  V30 2982 H 289.594 -4.74103 0.690174 0
M  V30 2983 H 287.958 -2.53255 0.270893 0
M  V30 2984 H 288.741 -2.85155 1.91158 0
M  V30 2985 N 291.186 -0.45159 -1.50991 0
M  V30 2986 C 292.096 0.358431 -2.31846 0
M  V30 2987 C 293.112 1.01438 -1.41373 0
M  V30 2988 O 294.288 1.00663 -1.74439 0
M  V30 2989 C 291.353 1.43704 -3.15515 0
M  V30 2990 C 290.414 0.799742 -4.21785 0
M  V30 2991 C 289.647 1.82696 -5.01456 0
M  V30 2992 O 289.87 3.05105 -4.81941 0
M  V30 2993 O 288.804 1.40958 -5.85162 0
M  V30 2994 H 292.63 -0.302032 -3.02194 0
M  V30 2995 H 290.215 -0.213825 -1.47862 0
M  V30 2996 H 292.097 2.06227 -3.67489 0
M  V30 2997 H 290.772 2.08133 -2.47916 0
M  V30 2998 H 289.679 0.136084 -3.73852 0
M  V30 2999 H 291.012 0.198718 -4.91799 0
M  V30 3000 N 292.664 1.56529 -0.183458 0
M  V30 3001 C 293.627 2.17324 0.728223 0
M  V30 3002 C 294.627 1.12453 1.14939 0
M  V30 3003 O 295.817 1.37902 1.06437 0
M  V30 3004 C 292.949 2.76591 1.99274 0
M  V30 3005 H 294.142 2.99241 0.198772 0
M  V30 3006 H 291.695 1.5616 0.0661391 0
M  V30 3007 H 292.43 1.98441 2.56499 0
M  V30 3008 H 292.215 3.5335 1.69959 0
M  V30 3009 H 293.705 3.23311 2.6431 0
M  V30 3010 N 294.142 -0.090211 1.57342 0
M  V30 3011 C 295.052 -1.12735 2.05738 0
M  V30 3012 C 296.068 -1.43557 0.983231 0
M  V30 3013 O 297.244 -1.54101 1.29672 0
M  V30 3014 C 294.309 -2.42659 2.47624 0
M  V30 3015 C 293.37 -2.18975 3.69254 0
M  V30 3016 C 292.603 -3.42704 4.09133 0
M  V30 3017 O 292.826 -4.51127 3.49057 0
M  V30 3018 O 291.76 -3.32003 5.02053 0
M  V30 3019 H 295.586 -0.746279 2.94388 0
M  V30 3020 H 293.171 -0.303064 1.46294 0
M  V30 3021 H 295.053 -3.19155 2.7517 0
M  V30 3022 H 293.728 -2.80182 1.62109 0
M  V30 3023 H 292.635 -1.40244 3.46818 0
M  V30 3024 H 293.968 -1.86342 4.55563 0
M  V30 3025 N 295.62 -1.53406 -0.361157 0
M  V30 3026 C 296.553 -1.74946 -1.46524 0
M  V30 3027 C 297.531 -0.59795 -1.51206 0
M  V30 3028 O 298.715 -0.831062 -1.69191 0
M  V30 3029 C 295.842 -1.83224 -2.84863 0
M  V30 3030 C 294.888 -3.05233 -2.97885 0
M  V30 3031 S 295.721 -4.6466 -2.66179 0
M  V30 3032 C 296.877 -4.75793 -4.06659 0
M  V30 3033 H 297.11 -2.68319 -1.28033 0
M  V30 3034 H 294.643 -1.44051 -0.555764 0
M  V30 3035 H 296.601 -1.88679 -3.64569 0
M  V30 3036 H 295.262 -0.908948 -3.00661 0
M  V30 3037 H 294.455 -3.07648 -3.9921 0
M  V30 3038 H 294.057 -2.97913 -2.26106 0
M  V30 3039 H 296.349 -4.5612 -5.0096 0
M  V30 3040 H 297.292 -5.7786 -4.09247 0
M  V30 3041 H 297.7 -4.04389 -3.93865 0
M  V30 3042 N 297.098 0.621204 -1.44841 0
M  V30 3043 C 298.346 1.37783 -1.47852 0
M  V30 3044 C 298.667 1.94653 -0.116224 0
M  V30 3045 O 297.937 1.76367 0.852737 0
M  V30 3046 H 296.517 0.511453 -0.544449 0
M  V30 3047 H 299.179 0.730446 -1.80694 0
M  V30 3048 H 298.275 2.20414 -2.20961 0
M  V30 3049 N 298.576 1.31904 0.862503 0
M  V30 3050 C 299.801 1.25135 1.65397 0
M  V30 3051 C 300.226 -0.179 1.87246 0
M  V30 3052 O 299.584 -1.1277 1.4196 0
M  V30 3053 C 299.632 2.00832 2.99498 0
M  V30 3054 O 298.736 1.35075 3.89652 0
M  V30 3055 H 298.077 0.431655 0.504549 0
M  V30 3056 H 300.607 1.74094 1.07483 0
M  V30 3057 H 300.617 2.10709 3.49379 0
M  V30 3058 H 299.292 3.04847 2.82916 0
M  V30 3059 H 297.869 1.33696 3.48109 0
M  V30 3060 N 300.054 -1.07777 1.14986 0
M  V30 3061 C 301.017 -2.13041 0.845358 0
M  V30 3062 C 302.017 -1.60071 -0.152931 0
M  V30 3063 O 303.207 -1.74033 0.0761879 0
M  V30 3064 C 300.339 -3.39896 0.261383 0
M  V30 3065 H 301.532 -2.41485 1.77834 0
M  V30 3066 H 299.085 -1.23595 0.956757 0
M  V30 3067 H 299.82 -3.17091 -0.68 0
M  V30 3068 H 299.605 -3.79642 0.980514 0
M  V30 3069 H 301.095 -4.17548 0.0657687 0
M  V30 3070 N 301.532 -0.945985 -1.26051 0
M  V30 3071 C 302.464 -0.416662 -2.25381 0
M  V30 3072 C 303.477 0.462712 -1.56086 0
M  V30 3073 O 304.666 0.272383 -1.7641 0
M  V30 3074 C 301.766 0.419812 -3.3629 0
M  V30 3075 C 300.939 -0.444531 -4.35135 0
M  V30 3076 C 299.998 0.332305 -5.2515 0
M  V30 3077 O 299.024 -0.266324 -5.68577 0
M  V30 3078 N 300.226 1.62763 -5.57215 0
M  V30 3079 H 302.991 -1.27059 -2.71433 0
M  V30 3080 H 300.552 -0.815392 -1.39868 0
M  V30 3081 H 302.544 0.947013 -3.93464 0
M  V30 3082 H 301.114 1.17456 -2.89694 0
M  V30 3083 H 300.334 -1.15291 -3.76964 0
M  V30 3084 H 301.622 -1.03478 -4.98166 0
M  V30 3085 H 301.02 2.13603 -5.23823 0
M  V30 3086 H 299.577 2.10097 -6.17011 0
M  V30 3087 N 303.011 1.40521 -0.713556 0
M  V30 3088 C 304.239 2.05237 -0.261775 0
M  V30 3089 C 304.654 1.53755 1.09567 0
M  V30 3090 O 304.011 0.693268 1.6882 0
M  V30 3091 C 304.062 3.60763 -0.230706 0
M  V30 3092 O 303.783 4.10345 -1.53455 0
M  V30 3093 C 305.284 4.42651 0.239874 0
M  V30 3094 H 302.504 0.660533 -0.118057 0
M  V30 3095 H 305.048 1.79967 -0.971192 0
M  V30 3096 H 303.203 3.8501 0.429661 0
M  V30 3097 H 303.617 5.04526 -1.43366 0
M  V30 3098 H 305.091 5.51599 0.210468 0
M  V30 3099 H 305.568 4.20082 1.28171 0
M  V30 3100 H 306.174 4.23507 -0.390142 0
M  V30 3101 N 304.489 0.459591 1.5075 0
M  V30 3102 C 305.714 -0.0996819 2.0716 0
M  V30 3103 C 306.139 -1.33761 1.32249 0
M  V30 3104 O 305.497 -1.77551 0.366786 0
M  V30 3105 C 305.545 -0.378226 3.58611 0
M  V30 3106 O 304.649 -1.46081 3.85661 0
M  V30 3107 H 303.99 0.00791392 0.663953 0
M  V30 3108 H 306.52 0.647329 1.9409 0
M  V30 3109 H 306.53 -0.622135 4.03229 0
M  V30 3110 H 305.205 0.526439 4.12555 0
M  V30 3111 H 303.782 -1.20511 3.5289 0
M  V30 3112 N 305.967 -1.56429 0.191757 0
M  V30 3113 C 307.215 -1.97095 -0.447006 0
M  V30 3114 C 307.536 -1.07967 -1.62383 0
M  V30 3115 O 306.806 -0.150248 -1.95323 0
M  V30 3116 H 305.386 -0.727832 -0.168135 0
M  V30 3117 H 308.048 -1.92911 0.27771 0
M  V30 3118 H 307.144 -3.01848 -0.793371 0
M  V30 3119 N 307.445 0.0818655 -1.57387 0
M  V30 3120 C 308.691 0.784074 -1.8703 0
M  V30 3121 C 309.024 1.77729 -0.782689 0
M  V30 3122 O 308.299 1.93384 0.208051 0
M  V30 3123 C 308.582 1.50105 -3.27323 0
M  V30 3124 C 308.435 0.524925 -4.46727 0
M  V30 3125 C 309.754 2.44843 -3.65705 0
M  V30 3126 H 306.873 0.283582 -0.680257 0
M  V30 3127 H 309.515 0.0474352 -1.89941 0
M  V30 3128 H 307.665 2.12897 -3.24972 0
M  V30 3129 H 309.337 -0.0970111 -4.61198 0
M  V30 3130 H 307.58 -0.160606 -4.33503 0
M  V30 3131 H 308.251 1.064 -5.41648 0
M  V30 3132 H 310.727 1.92135 -3.69085 0
M  V30 3133 H 309.603 2.92018 -4.64776 0
M  V30 3134 H 309.864 3.29197 -2.95096 0
M  V30 3135 N 308.923 1.53595 0.353017 0
M  V30 3136 C 310.169 1.70638 1.09593 0
M  V30 3137 C 310.502 0.463286 1.88593 0
M  V30 3138 O 309.777 -0.539597 1.86865 0
M  V30 3139 C 310.06 2.96406 2.04489 0
M  V30 3140 C 309.913 4.30901 1.29014 0
M  V30 3141 C 311.232 3.17812 3.0444 0
M  V30 3142 H 308.351 0.620913 0.397034 0
M  V30 3143 H 310.993 1.86254 0.375446 0
M  V30 3144 H 309.143 2.83223 2.65927 0
M  V30 3145 H 310.815 4.55917 0.702638 0
M  V30 3146 H 309.058 4.29741 0.592071 0
M  V30 3147 H 309.729 5.1506 1.98537 0
M  V30 3148 H 312.205 3.30263 2.53112 0
M  V30 3149 H 311.081 4.07223 3.6805 0
M  V30 3150 H 311.342 2.33669 3.75301 0
M  V30 3151 N 310.401 -0.613514 1.45168 0
M  V30 3152 C 311.349 -1.74572 1.53712 0
M  V30 3153 C 312.343 -1.64426 0.407505 0
M  V30 3154 O 313.549 -1.70291 0.583176 0
M  V30 3155 H 309.924 -0.576641 0.48269 0
M  V30 3156 H 311.895 -1.64492 2.48968 0
M  V30 3157 C 310.644 -3.12943 1.51532 0
M  V30 3158 H 309.967 -3.21407 2.37776 0
M  V30 3159 H 311.407 -3.9201 1.61569 0
M  V30 3160 C 309.866 -3.36053 0.238798 0
M  V30 3161 O 310.396 -3.95837 -0.6838 0
M  V30 3162 N 308.602 -2.9028 0.136359 0
M  V30 3163 H 308.149 -2.41811 0.887999 0
M  V30 3164 H 308.107 -3.06116 -0.716944 0
M  V30 3165 N 311.879 -1.3236 -0.855495 0
M  V30 3166 C 313.109 -1.25688 -1.6397 0
M  V30 3167 C 313.517 0.177592 -1.88365 0
M  V30 3168 O 312.86 1.12485 -1.45234 0
M  V30 3169 C 312.922 -1.94602 -3.02275 0
M  V30 3170 C 312.586 -3.43937 -3.00926 0
M  V30 3171 C 313.583 -4.39435 -2.77835 0
M  V30 3172 C 311.268 -3.85858 -3.21588 0
M  V30 3173 C 313.262 -5.74829 -2.75409 0
M  V30 3174 C 310.949 -5.21361 -3.18789 0
M  V30 3175 C 311.947 -6.15658 -2.95727 0
M  V30 3176 O 311.635 -7.48681 -2.928 0
M  V30 3177 H 311.367 -0.434972 -0.51747 0
M  V30 3178 H 313.921 -1.75023 -1.075 0
M  V30 3179 H 312.151 -1.39836 -3.60531 0
M  V30 3180 H 313.84 -1.81651 -3.62985 0
M  V30 3181 H 314.606 -4.08374 -2.6164 0
M  V30 3182 H 310.485 -3.12883 -3.38564 0
M  V30 3183 H 314.029 -6.48404 -2.57328 0
M  V30 3184 H 309.926 -5.52052 -3.34528 0
M  V30 3185 H 310.694 -7.5803 -3.0876 0
M  V30 3186 N 313.357 1.07166 -1.15556 0
M  V30 3187 C 314.267 2.17947 -0.868116 0
M  V30 3188 C 315.283 1.73297 0.156297 0
M  V30 3189 O 316.459 2.01392 -0.0182327 0
M  V30 3190 C 313.524 3.44789 -0.36355 0
M  V30 3191 C 312.585 4.03996 -1.45209 0
M  V30 3192 C 311.818 5.24783 -0.971508 0
M  V30 3193 O 312.041 5.70109 0.182194 0
M  V30 3194 O 310.975 5.75715 -1.75603 0
M  V30 3195 H 314.801 2.4503 -1.79427 0
M  V30 3196 H 312.386 1.16539 -0.934824 0
M  V30 3197 H 314.268 4.21307 -0.0887113 0
M  V30 3198 H 312.943 3.19253 0.534708 0
M  V30 3199 H 311.85 3.29009 -1.78056 0
M  V30 3200 H 313.183 4.33808 -2.32533 0
M  V30 3201 N 314.835 0.952656 1.25548 0
M  V30 3202 C 315.785 0.442033 2.23674 0
M  V30 3203 C 316.769 -0.467632 1.53955 0
M  V30 3204 O 317.961 -0.301006 1.74422 0
M  V30 3205 C 315.09 -0.280816 3.4215 0
M  V30 3206 C 314.176 0.646803 4.19139 0
M  V30 3207 N 314.567 1.77759 4.73535 0
M  V30 3208 C 312.865 0.454617 4.43677 0
M  V30 3209 C 313.566 2.35658 5.31827 0
M  V30 3210 N 312.542 1.64333 5.18166 0
M  V30 3211 H 316.344 1.30505 2.63336 0
M  V30 3212 H 313.858 0.809904 1.40763 0
M  V30 3213 H 315.855 -0.663747 4.11582 0
M  V30 3214 H 314.515 -1.14046 3.04012 0
M  V30 3215 H 315.526 2.15949 4.7073 0
M  V30 3216 H 312.203 -0.362312 4.15925 0
M  V30 3217 H 313.593 3.30998 5.84713 0
M  V30 3218 N 316.313 -1.40141 0.720998 0
M  V30 3219 C 317.562 -2.0002 0.259804 0
M  V30 3220 C 317.875 -1.57839 -1.15526 0
M  V30 3221 O 319.081 -2.10455 -1.71525 0
M  V30 3222 C 317.537 -3.57516 0.413566 0
M  V30 3223 C 317.145 -4.08667 1.83562 0
M  V30 3224 C 318.889 -4.24498 0.0134387 0
M  V30 3225 C 316.796 -5.58686 1.93968 0
M  V30 3226 H 315.726 -0.748195 0.0933806 0
M  V30 3227 H 318.377 -1.60313 0.892866 0
M  V30 3228 H 316.759 -3.9495 -0.288169 0
M  V30 3229 H 317.933 -3.82598 2.56817 0
M  V30 3230 H 316.248 -3.543 2.1877 0
M  V30 3231 H 318.845 -5.34654 0.0703954 0
M  V30 3232 H 319.188 -4.03375 -1.02927 0
M  V30 3233 H 319.721 -3.92188 0.665815 0
M  V30 3234 H 316.46 -5.8467 2.96379 0
M  V30 3235 H 315.98 -5.86602 1.25131 0
M  V30 3236 H 317.659 -6.23875 1.71431 0
M  V30 3237 N 317.792 -0.46758 -1.50504 0
M  V30 3238 C 319.017 0.0886943 -2.0721 0
M  V30 3239 C 319.442 1.33057 -1.32956 0
M  V30 3240 O 318.8 1.77354 -0.376197 0
M  V30 3241 C 318.848 0.359202 -3.58806 0
M  V30 3242 O 317.952 1.44034 -3.8643 0
M  V30 3243 H 317.293 -0.0114349 -0.663902 0
M  V30 3244 H 319.823 -0.657613 -1.93744 0
M  V30 3245 H 319.833 0.600742 -4.03553 0
M  V30 3246 H 318.508 -0.548311 -4.1227 0
M  V30 3247 H 317.085 1.18638 -3.53524 0
M  V30 3248 N 319.27 1.56325 -0.20005 0
M  V30 3249 C 320.217 2.1932 0.718833 0
M  V30 3250 C 321.187 1.14198 1.20615 0
M  V30 3251 O 322.372 1.42469 1.26914 0
M  V30 3252 C 319.512 2.86041 1.93066 0
M  V30 3253 C 318.625 4.05702 1.48425 0
M  V30 3254 C 317.76 4.60266 2.65196 0
M  V30 3255 C 316.799 5.72273 2.17185 0
M  V30 3256 N 315.936 6.21221 3.27152 0
M  V30 3257 H 320.776 2.97486 0.17489 0
M  V30 3258 H 318.313 1.46911 0.0745794 0
M  V30 3259 H 320.271 3.22897 2.64184 0
M  V30 3260 H 318.901 2.1043 2.44783 0
M  V30 3261 H 317.953 3.74475 0.668755 0
M  V30 3262 H 319.265 4.86699 1.09204 0
M  V30 3263 H 318.419 4.99453 3.4443 0
M  V30 3264 H 317.158 3.78386 3.07693 0
M  V30 3265 H 316.163 5.3261 1.36407 0
M  V30 3266 H 317.388 6.55974 1.75713 0
M  V30 3267 H 315.334 5.42263 3.69171 0
M  V30 3268 H 315.251 6.97284 2.92116 0
M  V30 3269 H 316.519 6.65063 4.06585 0
M  V30 3270 N 320.748 -0.0735177 1.57428 0
M  V30 3271 C 321.996 -0.771472 1.86796 0
M  V30 3272 C 322.317 -1.78201 0.791804 0
M  V30 3273 O 321.587 -1.95074 -0.179718 0
M  V30 3274 H 320.167 -0.28791 0.689287 0
M  V30 3275 H 322.829 -0.0500161 1.94836 0
M  V30 3276 H 321.925 -1.28874 2.8425 0
M  V30 3277 N 322.226 -1.5378 -0.344866 0
M  V30 3278 C 323.136 -1.84667 -1.4469 0
M  V30 3279 C 324.152 -0.736704 -1.57635 0
M  V30 3280 O 325.328 -1.02888 -1.73136 0
M  V30 3281 C 322.393 -2.04869 -2.79696 0
M  V30 3282 C 321.454 -3.28731 -2.76106 0
M  V30 3283 C 320.687 -3.4796 -4.04673 0
M  V30 3284 O 320.91 -2.71052 -5.01883 0
M  V30 3285 O 319.844 -4.41383 -4.09224 0
M  V30 3286 H 323.67 -2.78334 -1.21506 0
M  V30 3287 H 321.255 -1.39418 -0.536921 0
M  V30 3288 H 323.137 -2.19609 -3.59652 0
M  V30 3289 H 321.812 -1.14391 -3.02814 0
M  V30 3290 H 320.719 -3.19396 -1.94774 0
M  V30 3291 H 322.052 -4.19198 -2.57941 0
M  V30 3292 N 323.704 0.605807 -1.45491 0
M  V30 3293 C 324.953 1.36086 -1.48874 0
M  V30 3294 C 325.266 1.95131 -0.135333 0
M  V30 3295 O 326.472 2.7146 -0.0468144 0
M  V30 3296 C 324.928 2.46518 -2.62215 0
M  V30 3297 C 324.536 1.93877 -4.03876 0
M  V30 3298 C 326.28 3.23512 -2.74846 0
M  V30 3299 C 324.187 3.01801 -5.08596 0
M  V30 3300 H 323.117 0.511497 -0.553974 0
M  V30 3301 H 325.768 0.649089 -1.71636 0
M  V30 3302 H 324.15 3.20388 -2.32739 0
M  V30 3303 H 325.324 1.26704 -4.43038 0
M  V30 3304 H 323.639 1.29622 -3.95711 0
M  V30 3305 H 326.236 4.04013 -3.50253 0
M  V30 3306 H 326.579 3.74631 -1.81542 0
M  V30 3307 H 327.112 2.56742 -3.03856 0
M  V30 3308 H 323.851 2.55597 -6.03614 0
M  V30 3309 H 323.371 3.67535 -4.74002 0
M  V30 3310 H 325.05 3.66152 -5.33424 0
M  V30 3311 N 325.182 1.32811 0.848464 0
M  V30 3312 C 326.145 1.22194 1.9391 0
M  V30 3313 C 327.145 0.143404 1.60159 0
M  V30 3314 O 328.335 0.394253 1.6968 0
M  V30 3315 C 325.467 0.88067 3.29328 0
M  V30 3316 H 326.66 2.19127 2.04752 0
M  V30 3317 H 324.213 1.16731 1.0394 0
M  V30 3318 H 324.948 -0.0865776 3.24184 0
M  V30 3319 H 324.733 1.66052 3.55203 0
M  V30 3320 H 326.223 0.830871 4.09251 0
M  V30 3321 N 326.66 -1.06551 1.16123 0
M  V30 3322 C 327.885 -1.83544 0.965735 0
M  V30 3323 C 328.31 -1.81843 -0.481102 0
M  V30 3324 O 327.668 -1.21732 -1.34354 0
M  V30 3325 C 327.716 -3.28169 1.49457 0
M  V30 3326 O 326.82 -4.0643 0.699157 0
M  V30 3327 H 326.161 -0.568026 0.343864 0
M  V30 3328 H 328.691 -1.34362 1.54299 0
M  V30 3329 H 328.701 -3.78992 1.51092 0
M  V30 3330 H 327.376 -3.28722 2.54784 0
M  V30 3331 H 325.953 -3.65216 0.7531 0
M  V30 3332 N 328.138 -0.959301 -1.25041 0
M  V30 3333 C 329.554 -0.664474 -1.4511 0
M  V30 3334 C 329.754 0.776481 -1.85938 0
M  V30 3335 O 328.81 1.55128 -1.99227 0
M  V30 3336 C 330.123 -1.64139 -2.5195 0
M  V30 3337 C 331.671 -1.65309 -2.65786 0
M  V30 3338 C 332.146 -2.61777 -3.75815 0
M  V30 3339 N 333.637 -2.60169 -3.83231 0
M  V30 3340 C 334.372 -3.31489 -4.6787 0
M  V30 3341 N 333.868 -4.12298 -5.56761 0
M  V30 3342 N 335.661 -3.20354 -4.61876 0
M  V30 3343 H 327.812 -1.89043 -0.968332 0
M  V30 3344 H 330.075 -0.813408 -0.4869 0
M  V30 3345 H 329.781 -2.67086 -2.28819 0
M  V30 3346 H 329.655 -1.40756 -3.49954 0
M  V30 3347 H 332.042 -0.630778 -2.8828 0
M  V30 3348 H 332.123 -1.92753 -1.68167 0
M  V30 3349 H 331.767 -3.64137 -3.54071 0
M  V30 3350 H 331.697 -2.31616 -4.72929 0
M  V30 3351 H 334.188 -2.01507 -3.19692 0
M  V30 3352 H 334.501 -4.63625 -6.18281 0
M  V30 3353 H 332.846 -4.16395 -5.56454 0
M  V30 3354 H 336.037 -2.56692 -3.91442 0
M  V30 3355 H 336.21 -3.76201 -5.27614 0
M  V30 3356 N 329.616 1.39756 -0.72842 0
M  V30 3357 C 330.863 2.00645 -0.273487 0
M  V30 3358 C 331.191 1.57786 1.13727 0
M  V30 3359 O 330.446 0.794886 1.7883 0
M  V30 3360 C 330.745 3.56002 -0.315776 0
M  V30 3361 C 330.411 4.18489 -1.67863 0
M  V30 3362 C 329.073 4.3527 -2.05166 0
M  V30 3363 C 331.425 4.53219 -2.57375 0
M  V30 3364 C 328.753 4.84069 -3.31503 0
M  V30 3365 C 331.105 5.03423 -3.83077 0
M  V30 3366 C 329.769 5.18413 -4.20481 0
M  V30 3367 H 329.039 0.734211 -0.100076 0
M  V30 3368 H 331.686 1.6718 -0.933972 0
M  V30 3369 H 329.991 3.89452 0.428285 0
M  V30 3370 H 331.688 4.00963 0.0542575 0
M  V30 3371 H 328.278 4.05824 -1.37858 0
M  V30 3372 H 332.462 4.39878 -2.29827 0
M  V30 3373 H 327.718 4.93859 -3.60435 0
M  V30 3374 H 331.892 5.2927 -4.52599 0
M  V30 3375 H 329.519 5.55987 -5.18443 0
M  V30 3376 N 331.094 0.475555 1.50254 0
M  V30 3377 C 332.322 -0.0754493 2.06762 0
M  V30 3378 C 332.737 -1.33111 1.33891 0
M  V30 3379 O 332.094 -1.77846 0.40952 0
M  V30 3380 C 332.145 -0.359008 3.59713 0
M  V30 3381 O 331.866 0.846851 4.29837 0
M  V30 3382 C 333.367 -0.956484 4.32858 0
M  V30 3383 H 330.587 0.00907525 0.670939 0
M  V30 3384 H 333.131 0.665618 1.93364 0
M  V30 3385 H 331.286 -1.05001 3.72899 0
M  V30 3386 H 331.7 0.594162 5.21124 0
M  V30 3387 H 333.174 -1.10463 5.40834 0
M  V30 3388 H 333.651 -1.94775 3.93649 0
M  V30 3389 H 334.257 -0.303723 4.24214 0
M  V30 3390 N 332.573 -1.56217 0.208337 0
M  V30 3391 C 333.801 -2.02337 -0.43215 0
M  V30 3392 C 334.216 -1.08834 -1.54275 0
M  V30 3393 O 333.573 -0.0955462 -1.8225 0
M  V30 3394 C 333.624 -3.48072 -0.976138 0
M  V30 3395 O 333.345 -4.38007 0.0901621 0
M  V30 3396 C 334.846 -4.09773 -1.69119 0
M  V30 3397 H 332.066 -0.662385 -0.10718 0
M  V30 3398 H 334.61 -2.01966 0.320923 0
M  V30 3399 H 332.765 -3.49099 -1.67954 0
M  V30 3400 H 333.179 -5.23543 -0.316701 0
M  V30 3401 H 334.653 -5.13556 -2.02397 0
M  V30 3402 H 335.13 -3.53999 -2.59964 0
M  V30 3403 H 335.736 -4.12556 -1.03332 0
M  V30 3404 N 334.051 0.0651679 -1.57465 0
M  V30 3405 C 335.279 0.775808 -1.91804 0
M  V30 3406 C 335.694 1.70782 -0.804916 0
M  V30 3407 O 335.051 1.81153 0.221311 0
M  V30 3408 C 335.102 1.56381 -3.25925 0
M  V30 3409 O 334.823 0.669248 -4.32958 0
M  V30 3410 C 336.324 2.37485 -3.7432 0
M  V30 3411 H 333.544 0.2202 -0.63384 0
M  V30 3412 H 336.088 0.0334587 -2.04473 0
M  V30 3413 H 334.243 2.25837 -3.14764 0
M  V30 3414 H 334.657 1.21801 -5.10162 0
M  V30 3415 H 336.131 2.88223 -4.70778 0
M  V30 3416 H 336.608 3.17307 -3.03666 0
M  V30 3417 H 337.214 1.73173 -3.88447 0
M  V30 3418 N 335.529 1.53961 0.336706 0
M  V30 3419 C 336.757 1.75483 1.09605 0
M  V30 3420 C 337.172 0.4972 1.82136 0
M  V30 3421 O 336.529 -0.53149 1.74589 0
M  V30 3422 C 336.58 2.93943 2.10428 0
M  V30 3423 O 336.301 4.14842 1.40846 0
M  V30 3424 C 337.802 3.27571 2.98684 0
M  V30 3425 H 335.022 0.586166 0.326574 0
M  V30 3426 H 337.566 2.00808 0.38683 0
M  V30 3427 H 335.721 2.70929 2.76905 0
M  V30 3428 H 336.135 4.81383 2.08255 0
M  V30 3429 H 337.609 4.13791 3.6535 0
M  V30 3430 H 338.086 2.44168 3.65074 0
M  V30 3431 H 338.692 3.52615 2.37787 0
M  V30 3432 N 337.007 -0.598083 1.45811 0
M  V30 3433 C 338.235 -1.38322 1.53866 0
M  V30 3434 C 338.65 -1.87992 0.174479 0
M  V30 3435 O 338.007 -1.62756 -0.825627 0
M  V30 3436 C 338.058 -2.58125 2.53089 0
M  V30 3437 O 337.779 -2.10516 3.84206 0
M  V30 3438 C 339.28 -3.50869 2.70935 0
M  V30 3439 H 336.5 -0.423093 0.520801 0
M  V30 3440 H 339.044 -0.728527 1.91083 0
M  V30 3441 H 337.199 -3.19615 2.18917 0
M  V30 3442 H 337.613 -2.88425 4.38077 0
M  V30 3443 H 339.087 -4.31451 3.44317 0
M  V30 3444 H 339.564 -4.01822 1.77301 0
M  V30 3445 H 340.17 -2.95225 3.06141 0
M  V30 3446 N 338.485 -1.33259 -0.841409 0
M  V30 3447 C 339.448 -1.23221 -1.9326 0
M  V30 3448 C 340.448 -0.151895 -1.60081 0
M  V30 3449 O 341.638 -0.403246 -1.69468 0
M  V30 3450 C 338.77 -0.898123 -3.28856 0
M  V30 3451 H 339.963 -2.2021 -2.03587 0
M  V30 3452 H 337.516 -1.17281 -1.03319 0
M  V30 3453 H 338.251 0.0693841 -3.24226 0
M  V30 3454 H 338.036 -1.67934 -3.54317 0
M  V30 3455 H 339.526 -0.852563 -4.08805 0
M  V30 3456 N 339.963 1.05934 -1.16686 0
M  V30 3457 C 340.873 2.17014 -0.891183 0
M  V30 3458 C 341.889 1.73453 0.137907 0
M  V30 3459 O 343.065 2.01361 -0.039592 0
M  V30 3460 C 340.13 3.44384 -0.400099 0
M  V30 3461 C 339.191 4.02433 -1.49486 0
M  V30 3462 C 338.424 5.23723 -1.02711 0
M  V30 3463 O 338.647 5.7027 0.121716 0
M  V30 3464 O 337.581 5.7382 -1.81699 0
M  V30 3465 H 341.407 2.43113 -1.82015 0
M  V30 3466 H 338.992 1.15541 -0.947132 0
M  V30 3467 H 340.874 4.21189 -0.133392 0
M  V30 3468 H 339.549 3.19802 0.500817 0
M  V30 3469 H 338.456 3.27102 -1.81535 0
M  V30 3470 H 339.789 4.31317 -2.37121 0
M  V30 3471 N 341.441 0.965919 1.2453 0
M  V30 3472 C 342.718 0.543777 1.87889 0
M  V30 3473 C 343.098 -0.97909 1.87021 0
M  V30 3474 O 342.446 -1.84969 1.3416 0
M  V30 3475 C 342.656 1.13327 3.30088 0
M  V30 3476 C 344.004 1.21707 4.06783 0
M  V30 3477 O 345.028 1.08566 3.39252 0
M  V30 3478 O 343.887 1.42456 5.27606 0
M  V30 3479 H 340.981 0.181054 0.806938 0
M  V30 3480 H 343.527 1.06007 1.32516 0
M  V30 3481 H 342.299 2.17612 3.25209 0
M  V30 3482 H 341.922 0.600911 3.93033 0
M  V30 3483 N 342.919 -1.39368 0.735821 0
M  V30 3484 C 343.869 -2.27885 0.0724287 0
M  V30 3485 C 344.853 -1.44301 -0.711756 0
M  V30 3486 O 346.045 -1.67206 -0.58063 0
M  V30 3487 C 343.174 -3.33029 -0.833454 0
M  V30 3488 C 342.26 -4.24078 -0.0433749 0
M  V30 3489 N 342.651 -4.96138 0.983903 0
M  V30 3490 C 340.949 -4.45164 -0.272905 0
M  V30 3491 C 341.65 -5.63069 1.4604 0
M  V30 3492 N 340.626 -5.37991 0.778857 0
M  V30 3493 H 344.428 -2.81052 0.859467 0
M  V30 3494 H 341.942 -1.5206 0.570227 0
M  V30 3495 H 343.939 -3.95311 -1.32419 0
M  V30 3496 H 342.599 -2.81421 -1.61964 0
M  V30 3497 H 343.61 -4.9958 1.36528 0
M  V30 3498 H 340.287 -4.04497 -1.03383 0
M  V30 3499 H 341.677 -6.30755 2.31511 0
M  V30 3500 N 344.397 -0.483516 -1.5 0
M  V30 3501 C 345.645 0.067027 -2.01989 0
M  V30 3502 C 345.966 1.3909 -1.36671 0
M  V30 3503 O 345.236 1.88978 -0.516152 0
M  V30 3504 H 343.816 0.0277606 -0.746484 0
M  V30 3505 H 346.478 -0.636773 -1.84204 0
M  V30 3506 H 345.574 0.209484 -3.11396 0
M  V30 3507 N 345.875 1.56104 -0.216619 0
M  V30 3508 C 347.121 1.98466 0.417033 0
M  V30 3509 C 347.454 1.10403 1.59765 0
M  V30 3510 O 346.729 0.160632 1.93836 0
M  V30 3511 C 347.012 3.49769 0.85637 0
M  V30 3512 C 346.865 4.48606 -0.327546 0
M  V30 3513 C 348.184 4.05339 1.7143 0
M  V30 3514 H 345.303 0.721551 0.150112 0
M  V30 3515 H 347.945 1.87423 -0.311864 0
M  V30 3516 H 346.095 3.5931 1.47745 0
M  V30 3517 H 347.767 4.5108 -0.965618 0
M  V30 3518 H 346.01 4.22682 -0.975805 0
M  V30 3519 H 346.681 5.51995 0.0227149 0
M  V30 3520 H 349.157 3.98712 1.19031 0
M  V30 3521 H 348.033 5.11533 1.99061 0
M  V30 3522 H 348.294 3.51918 2.67593 0
M  V30 3523 N 347.353 -0.0568162 1.57498 0
M  V30 3524 C 348.285 -1.09292 2.01464 0
M  V30 3525 C 349.298 -1.34112 0.922913 0
M  V30 3526 O 350.487 -1.32089 1.20062 0
M  V30 3527 C 347.587 -2.44068 2.35125 0
M  V30 3528 C 346.76 -2.38995 3.66333 0
M  V30 3529 C 345.819 -3.55997 3.87495 0
M  V30 3530 O 344.845 -3.36746 4.58901 0
M  V30 3531 N 346.047 -4.76888 3.30996 0
M  V30 3532 H 348.812 -0.718386 2.90963 0
M  V30 3533 H 346.373 -0.245235 1.60032 0
M  V30 3534 H 348.365 -3.21011 2.46443 0
M  V30 3535 H 346.935 -2.73468 1.5144 0
M  V30 3536 H 346.155 -1.47336 3.65631 0
M  V30 3537 H 347.443 -2.3272 4.52458 0
M  V30 3538 H 346.841 -4.95431 2.73065 0
M  V30 3539 H 345.398 -5.51291 3.47738 0
M  V30 3540 N 348.832 -1.54138 -0.328536 0
M  V30 3541 C 349.795 -1.82462 -1.38709 0
M  V30 3542 C 350.795 -0.696229 -1.44946 0
M  V30 3543 O 351.985 -0.964535 -1.4506 0
M  V30 3544 C 349.117 -1.98018 -2.77492 0
M  V30 3545 H 350.31 -2.77037 -1.14851 0
M  V30 3546 H 347.863 -1.45779 -0.563751 0
M  V30 3547 H 348.598 -1.05637 -3.06613 0
M  V30 3548 H 348.383 -2.80124 -2.74359 0
M  V30 3549 H 349.873 -2.21396 -3.54081 0
M  V30 3550 N 350.31 0.590341 -1.46126 0
M  V30 3551 C 351.273 1.68194 -1.55703 0
M  V30 3552 C 352.273 1.54808 -0.434868 0
M  V30 3553 O 353.463 1.59564 -0.698928 0
M  V30 3554 C 350.595 3.07575 -1.47005 0
M  V30 3555 H 351.788 1.61064 -2.52979 0
M  V30 3556 H 349.341 0.807541 -1.33823 0
M  V30 3557 H 350.076 3.20268 -0.509785 0
M  V30 3558 H 349.861 3.187 -2.28414 0
M  V30 3559 H 351.351 3.87055 -1.56776 0
M  V30 3560 N 351.788 1.33704 0.83433 0
M  V30 3561 C 353.034 1.25603 1.59222 0
M  V30 3562 C 353.367 -0.176659 1.93395 0
M  V30 3563 O 352.642 -1.11915 1.59076 0
M  V30 3564 C 352.925 2.13576 2.89926 0
M  V30 3565 C 352.778 3.65326 2.62406 0
M  V30 3566 C 354.097 2.01238 3.91397 0
M  V30 3567 H 351.216 0.457613 0.577719 0
M  V30 3568 H 353.858 1.63848 0.961972 0
M  V30 3569 H 352.008 1.8109 3.43713 0
M  V30 3570 H 353.68 4.08124 2.15017 0
M  V30 3571 H 351.923 3.8698 1.96033 0
M  V30 3572 H 352.594 4.22232 3.55562 0
M  V30 3573 H 355.07 2.29738 3.46929 0
M  V30 3574 H 353.946 2.65036 4.80673 0
M  V30 3575 H 354.207 0.985951 4.30966 0
M  V30 3576 N 353.266 -1.05314 1.17247 0
M  V30 3577 C 354.512 -1.78699 0.971513 0
M  V30 3578 C 354.867 -1.85932 -0.494692 0
M  V30 3579 O 354.16 -1.34716 -1.36243 0
M  V30 3580 C 354.354 -3.2229 1.54479 0
M  V30 3581 C 354.183 -3.29052 3.06521 0
M  V30 3582 C 352.953 -3.3841 3.75242 0
M  V30 3583 C 355.151 -3.18095 4.04129 0
M  V30 3584 N 353.133 -3.34289 5.14902 0
M  V30 3585 C 354.504 -3.21331 5.30232 0
M  V30 3586 C 356.559 -3.02049 3.95817 0
M  V30 3587 C 355.262 -3.10169 6.4899 0
M  V30 3588 C 357.288 -2.92228 5.14156 0
M  V30 3589 C 356.65 -2.96096 6.39145 0
M  V30 3590 H 352.749 -0.66628 0.409383 0
M  V30 3591 H 355.333 -1.25553 1.4881 0
M  V30 3592 H 353.504 -3.7381 1.05455 0
M  V30 3593 H 355.236 -3.83905 1.28059 0
M  V30 3594 H 351.991 -3.43621 3.25917 0
M  V30 3595 H 352.415 -3.35702 5.87906 0
M  V30 3596 H 357.057 -2.97897 3.00029 0
M  V30 3597 H 354.775 -3.13076 7.44989 0
M  V30 3598 H 358.361 -2.80885 5.09505 0
M  V30 3599 H 357.241 -2.88568 7.29176 0
M  V30 3600 N 354.744 -0.972509 -1.24016 0
M  V30 3601 C 355.692 -0.498562 -2.27194 0
M  V30 3602 C 356.686 0.440372 -1.63576 0
M  V30 3603 O 357.892 0.315133 -1.7722 0
M  V30 3604 H 354.267 -0.142775 -0.738322 0
M  V30 3605 H 356.238 -1.38065 -2.64539 0
M  V30 3606 C 354.987 0.191072 -3.47175 0
M  V30 3607 H 354.31 -0.522318 -3.96373 0
M  V30 3608 H 355.75 0.486445 -4.212 0
M  V30 3609 C 354.209 1.41967 -3.05527 0
M  V30 3610 O 354.739 2.51642 -3.13112 0
M  V30 3611 N 352.945 1.28746 -2.60524 0
M  V30 3612 H 352.492 0.395089 -2.54552 0
M  V30 3613 H 352.45 2.11061 -2.33025 0
M  V30 3614 N 356.222 1.38976 -0.743202 0
M  V30 3615 C 357.185 2.28901 -0.117014 0
M  V30 3616 C 358.185 1.46698 0.658503 0
M  V30 3617 O 359.375 1.67274 0.486305 0
M  V30 3618 C 356.507 3.30309 0.84315 0
M  V30 3619 H 357.7 2.8578 -0.909373 0
M  V30 3620 H 355.253 1.47761 -0.509547 0
M  V30 3621 H 355.988 2.785 1.66157 0
M  V30 3622 H 355.773 3.91029 0.289594 0
M  V30 3623 H 357.263 3.97577 1.2776 0
M  V30 3624 N 357.7 0.491464 1.49741 0
M  V30 3625 C 358.948 -0.0563141 2.02022 0
M  V30 3626 C 359.269 -1.38363 1.37407 0
M  V30 3627 O 358.539 -1.88702 0.526166 0
M  V30 3628 H 357.119 -0.0238014 0.746621 0
M  V30 3629 H 359.781 0.646533 1.83864 0
M  V30 3630 H 358.877 -0.192967 3.11503 0
M  V30 3631 N 359.178 -1.55987 0.224894 0
M  V30 3632 C 360.111 -2.16413 -0.723929 0
M  V30 3633 C 361.089 -1.10952 -1.18863 0
M  V30 3634 O 362.273 -1.39225 -1.27077 0
M  V30 3635 C 359.4 -2.74711 -1.98121 0
M  V30 3636 C 358.446 -3.9303 -1.6562 0
M  V30 3637 S 359.279 -5.29817 -0.778058 0
M  V30 3638 C 360.435 -5.91555 -2.04483 0
M  V30 3639 H 360.668 -2.96555 -0.210347 0
M  V30 3640 H 358.201 -1.54397 0.00955457 0
M  V30 3641 H 360.159 -3.08938 -2.70311 0
M  V30 3642 H 358.82 -1.94555 -2.46591 0
M  V30 3643 H 358.013 -4.32334 -2.59043 0
M  V30 3644 H 357.615 -3.59966 -1.01491 0
M  V30 3645 H 359.907 -6.07732 -2.99446 0
M  V30 3646 H 360.85 -6.87498 -1.69563 0
M  V30 3647 H 361.258 -5.20419 -2.18688 0
M  V30 3648 N 360.656 0.0484629 -1.57525 0
M  V30 3649 C 361.904 0.741657 -1.88 0
M  V30 3650 C 362.225 1.76918 -0.820054 0
M  V30 3651 O 361.495 1.95335 0.148661 0
M  V30 3652 H 360.075 0.276908 -0.69378 0
M  V30 3653 H 362.737 0.019013 -1.94891 0
M  V30 3654 H 361.833 1.24336 -2.86264 0
M  V30 3655 N 362.134 1.5431 0.320358 0
M  V30 3656 C 363.38 1.72924 1.05949 0
M  V30 3657 C 363.713 0.503185 1.87568 0
M  V30 3658 O 362.988 -0.499839 1.87968 0
M  V30 3659 C 363.271 3.00676 1.98156 0
M  V30 3660 C 363.124 4.3354 1.19845 0
M  V30 3661 C 364.443 3.24198 2.9763 0
M  V30 3662 H 361.562 0.629195 0.383774 0
M  V30 3663 H 364.204 1.87008 0.335854 0
M  V30 3664 H 362.354 2.888 2.59859 0
M  V30 3665 H 364.026 4.57305 0.605773 0
M  V30 3666 H 362.269 4.309 0.500784 0
M  V30 3667 H 362.94 5.19156 1.87567 0
M  V30 3668 H 365.416 3.35557 2.4605 0
M  V30 3669 H 364.292 4.14938 3.59329 0
M  V30 3670 H 364.553 2.41577 3.7026 0
M  V30 3671 N 363.613 -0.582584 1.46437 0
M  V30 3672 C 364.861 -1.33814 1.51453 0
M  V30 3673 C 365.182 -1.94277 0.167792 0
M  V30 3674 O 364.452 -1.78566 -0.805677 0
M  V30 3675 H 363.032 -0.496838 0.557818 0
M  V30 3676 H 365.694 -0.682281 1.82568 0
M  V30 3677 H 364.79 -2.14479 2.26728 0
M  V30 3678 N 365.091 -1.34144 -0.827227 0
M  V30 3679 C 366.337 -1.26446 -1.58554 0
M  V30 3680 C 366.67 0.1664 -1.93486 0
M  V30 3681 O 365.945 1.1107 -1.59667 0
M  V30 3682 C 366.228 -2.15111 -2.8879 0
M  V30 3683 C 366.081 -3.66712 -2.60465 0
M  V30 3684 C 367.4 -2.03311 -3.90324 0
M  V30 3685 H 364.519 -0.46067 -0.575284 0
M  V30 3686 H 367.161 -1.64356 -0.953269 0
M  V30 3687 H 365.311 -1.8291 -3.42748 0
M  V30 3688 H 366.983 -4.09259 -2.1285 0
M  V30 3689 H 365.226 -3.88014 -1.93978 0
M  V30 3690 H 365.897 -4.24112 -3.53317 0
M  V30 3691 H 368.373 -2.31574 -3.45706 0
M  V30 3692 H 367.249 -2.67582 -4.79261 0
M  V30 3693 H 367.51 -1.00879 -4.30437 0
M  V30 3694 N 366.569 1.04691 -1.17803 0
M  V30 3695 C 367.817 1.7743 -0.967617 0
M  V30 3696 C 368.138 1.88359 0.504574 0
M  V30 3697 O 367.408 1.40402 1.36617 0
M  V30 3698 H 365.988 0.657242 -0.355024 0
M  V30 3699 H 368.65 1.2638 -1.48371 0
M  V30 3700 H 367.746 2.78924 -1.40027 0
M  V30 3701 N 368.047 0.979072 1.23499 0
M  V30 3702 C 368.995 0.510604 2.26926 0
M  V30 3703 C 369.989 -0.431691 1.63807 0
M  V30 3704 O 371.195 -0.30573 1.77385 0
M  V30 3705 H 367.57 0.146688 0.737554 0
M  V30 3706 H 369.541 1.39466 2.63803 0
M  V30 3707 C 368.29 -0.172658 3.47271 0
M  V30 3708 H 367.613 0.543331 3.96091 0
M  V30 3709 H 369.053 -0.464101 4.21452 0
M  V30 3710 C 367.512 -1.40345 3.06276 0
M  V30 3711 O 368.042 -2.49978 3.14442 0
M  V30 3712 N 366.248 -1.27362 2.61203 0
M  V30 3713 H 365.795 -0.381584 2.54758 0
M  V30 3714 H 365.753 -2.09822 2.34141 0
M  V30 3715 N 369.525 -1.3858 0.750561 0
M  V30 3716 C 370.455 -2.33102 0.136237 0
M  V30 3717 C 371.436 -1.54713 -0.706965 0
M  V30 3718 O 372.621 -1.83043 -0.648769 0
M  V30 3719 C 369.751 -3.38882 -0.760017 0
M  V30 3720 C 368.705 -4.27995 -0.0197785 0
M  V30 3721 C 368.031 -5.24605 -1.03408 0
M  V30 3722 C 369.331 -5.09554 1.14684 0
M  V30 3723 H 371.025 -2.84726 0.925822 0
M  V30 3724 H 368.571 -1.36898 0.446654 0
M  V30 3725 H 370.524 -4.0397 -1.19943 0
M  V30 3726 H 369.248 -2.85734 -1.58189 0
M  V30 3727 H 367.907 -3.64409 0.400184 0
M  V30 3728 H 367.555 -4.67746 -1.84994 0
M  V30 3729 H 367.255 -5.85081 -0.543464 0
M  V30 3730 H 368.779 -5.9257 -1.47288 0
M  V30 3731 H 370.193 -5.67899 0.785118 0
M  V30 3732 H 368.59 -5.7925 1.56812 0
M  V30 3733 H 369.66 -4.4347 1.96118 0
M  V30 3734 N 371.003 -0.499398 -1.49478 0
M  V30 3735 C 372.231 0.0425456 -2.06856 0
M  V30 3736 C 372.646 1.30964 -1.35992 0
M  V30 3737 O 372.003 1.77172 -0.437762 0
M  V30 3738 C 372.054 0.301735 -3.60239 0
M  V30 3739 O 371.775 -0.915127 -4.28436 0
M  V30 3740 C 373.276 0.887499 -4.34325 0
M  V30 3741 H 370.496 -0.0197482 -0.670709 0
M  V30 3742 H 373.04 -0.696297 -1.92281 0
M  V30 3743 H 371.195 0.990556 -3.74522 0
M  V30 3744 H 371.609 -0.676993 -5.20113 0
M  V30 3745 H 373.083 1.01845 -5.42523 0
M  V30 3746 H 373.56 1.88488 -3.96698 0
M  V30 3747 H 374.166 0.236196 -4.24644 0
M  V30 3748 N 372.481 1.55866 -0.233164 0
M  V30 3749 C 373.73 1.97779 0.39579 0
M  V30 3750 C 374.043 1.12419 1.60066 0
M  V30 3751 O 375.249 1.44283 2.29988 0
M  V30 3752 C 373.705 3.5188 0.755556 0
M  V30 3753 C 373.313 4.45959 -0.427152 0
M  V30 3754 C 375.057 4.02479 1.34946 0
M  V30 3755 C 372.964 5.91383 -0.0443043 0
M  V30 3756 H 371.894 0.738592 0.15165 0
M  V30 3757 H 374.545 1.80486 -0.331212 0
M  V30 3758 H 372.927 3.64816 1.5403 0
M  V30 3759 H 374.101 4.44776 -1.20462 0
M  V30 3760 H 372.416 4.05765 -0.935068 0
M  V30 3761 H 375.013 5.08637 1.649 0
M  V30 3762 H 375.356 3.49014 2.26925 0
M  V30 3763 H 375.889 3.92813 0.62791 0
M  V30 3764 H 372.628 6.48857 -0.930874 0
M  V30 3765 H 372.148 5.95734 0.697238 0
M  V30 3766 H 373.827 6.45893 0.378334 0
M  V30 3767 N 373.959 -0.0401083 1.57549 0
M  V30 3768 C 375.206 -0.733125 1.88763 0
M  V30 3769 C 375.534 -1.75946 0.829058 0
M  V30 3770 O 374.789 -1.94949 -0.171323 0
M  V30 3771 C 375.088 -1.44902 3.26708 0
M  V30 3772 C 374.754 -0.559707 4.47413 0
M  V30 3773 C 373.416 -0.314731 4.8017 0
M  V30 3774 C 375.768 0.0549743 5.21171 0
M  V30 3775 C 373.096 0.553886 5.8408 0
M  V30 3776 C 375.448 0.911229 6.26003 0
M  V30 3777 C 374.112 1.16577 6.57241 0
M  V30 3778 H 373.382 -0.268269 0.690733 0
M  V30 3779 H 376.029 0.00679408 1.91499 0
M  V30 3780 H 374.334 -2.26197 3.1991 0
M  V30 3781 H 376.031 -1.99058 3.48105 0
M  V30 3782 H 372.621 -0.760793 4.21794 0
M  V30 3783 H 376.805 -0.121344 4.96152 0
M  V30 3784 H 372.061 0.759518 6.06664 0
M  V30 3785 H 376.235 1.3941 6.82303 0
M  V30 3786 H 373.862 1.84058 7.37582 0
M  V30 3787 N 375.437 -1.54477 -0.31217 0
M  V30 3788 C 376.848 -1.64344 -0.885891 0
M  V30 3789 C 377.199 -0.54485 -1.88483 0
M  V30 3790 O 376.324 0.320387 -2.14015 0
M  V30 3791 C 376.919 -2.97908 -1.61357 0
M  V30 3792 C 375.478 -3.09933 -2.13585 0
M  V30 3793 C 374.625 -2.59971 -0.964897 0
M  V30 3794 H 377.576 -1.58448 -0.0894528 0
M  V30 3795 H 377.597 -2.88706 -2.47848 0
M  V30 3796 H 377.109 -3.77845 -0.886277 0
M  V30 3797 H 375.21 -2.34694 -2.89395 0
M  V30 3798 H 375.323 -4.15916 -2.37804 0
M  V30 3799 H 373.687 -2.16147 -1.34731 0
M  V30 3800 H 374.47 -3.42376 -0.251742 0
M  V30 3801 N 376.915 0.57481 -1.46744 0
M  V30 3802 C 377.865 1.67838 -1.54319 0
M  V30 3803 C 378.849 1.55759 -0.40346 0
M  V30 3804 O 380.041 1.6454 -0.652347 0
M  V30 3805 C 377.17 3.06624 -1.5439 0
M  V30 3806 C 376.256 3.23971 -2.73685 0
M  V30 3807 N 376.647 3.11447 -3.9854 0
M  V30 3808 C 374.945 3.5493 -2.70075 0
M  V30 3809 C 375.646 3.31011 -4.78337 0
M  V30 3810 N 374.622 3.56533 -4.10348 0
M  V30 3811 H 378.424 1.56698 -2.48642 0
M  V30 3812 H 375.938 0.779071 -1.42493 0
M  V30 3813 H 377.935 3.85839 -1.57905 0
M  V30 3814 H 376.595 3.1889 -0.611493 0
M  V30 3815 H 377.606 2.89145 -4.29669 0
M  V30 3816 H 374.283 3.73832 -1.85893 0
M  V30 3817 H 375.673 3.26445 -5.87268 0
M  V30 3818 N 378.394 1.34581 0.820102 0
M  V30 3819 C 379.326 1.22236 1.93884 0
M  V30 3820 C 380.339 0.148776 1.62119 0
M  V30 3821 O 381.528 0.400877 1.7394 0
M  V30 3822 C 378.628 0.856542 3.27897 0
M  V30 3823 C 377.801 2.02569 3.87666 0
M  V30 3824 C 376.86 1.63782 5.00062 0
M  V30 3825 O 375.886 2.35477 5.18208 0
M  V30 3826 N 377.088 0.553611 5.77854 0
M  V30 3827 H 379.853 2.18615 2.05006 0
M  V30 3828 H 377.414 1.27573 0.99683 0
M  V30 3829 H 379.406 0.578806 4.0054 0
M  V30 3830 H 377.976 -0.0171518 3.12595 0
M  V30 3831 H 377.196 2.468 3.07382 0
M  V30 3832 H 378.484 2.80752 4.24329 0
M  V30 3833 H 377.882 -0.0423528 5.65684 0
M  V30 3834 H 376.439 0.335614 6.50935 0
M  V30 3835 N 379.872 -1.04064 1.18357 0
M  V30 3836 C 381.118 -1.77658 0.990412 0
M  V30 3837 C 381.473 -1.86446 -0.474944 0
M  V30 3838 O 380.766 -1.36153 -1.34807 0
M  V30 3839 C 380.96 -3.20634 1.57888 0
M  V30 3840 C 380.789 -3.25782 3.09994 0
M  V30 3841 C 379.559 -3.34411 3.7881 0
M  V30 3842 C 381.757 -3.13791 4.0748 0
M  V30 3843 N 379.739 -3.28809 5.18418 0
M  V30 3844 C 381.11 -3.15689 5.33611 0
M  V30 3845 C 383.165 -2.97833 3.98998 0
M  V30 3846 C 381.868 -3.03268 6.52243 0
M  V30 3847 C 383.894 -2.86759 5.17227 0
M  V30 3848 C 383.256 -2.893 6.4225 0
M  V30 3849 H 379.355 -0.661901 0.416427 0
M  V30 3850 H 381.939 -1.23968 1.50133 0
M  V30 3851 H 380.11 -3.7267 1.09414 0
M  V30 3852 H 381.842 -3.82525 1.32124 0
M  V30 3853 H 378.597 -3.40144 3.29543 0
M  V30 3854 H 379.021 -3.29448 5.91433 0
M  V30 3855 H 383.663 -2.94698 3.03171 0
M  V30 3856 H 381.381 -3.05156 7.48268 0
M  V30 3857 H 384.967 -2.75465 5.12455 0
M  V30 3858 H 383.847 -2.80818 7.32196 0
M  V30 3859 N 381.35 -0.985608 -1.22978 0
M  V30 3860 C 382.599 -0.652881 -1.90841 0
M  V30 3861 C 382.912 0.817842 -1.77681 0
M  V30 3862 O 384.118 1.26185 -2.40395 0
M  V30 3863 C 382.574 -1.11717 -3.42122 0
M  V30 3864 C 382.182 -2.6126 -3.63933 0
M  V30 3865 C 383.926 -0.85843 -4.1573 0
M  V30 3866 C 381.833 -3.0133 -5.08876 0
M  V30 3867 H 380.763 -0.240491 -0.714619 0
M  V30 3868 H 383.414 -1.1942 -1.39324 0
M  V30 3869 H 381.796 -0.504027 -3.92779 0
M  V30 3870 H 382.97 -3.27858 -3.23799 0
M  V30 3871 H 381.285 -2.84937 -3.03644 0
M  V30 3872 H 383.882 -1.13359 -5.22546 0
M  V30 3873 H 384.225 0.205461 -4.15793 0
M  V30 3874 H 384.758 -1.43341 -3.71077 0
M  V30 3875 H 381.497 -4.06864 -5.13947 0
M  V30 3876 H 381.017 -2.3943 -5.49939 0
M  V30 3877 H 382.696 -2.92224 -5.77247 0
M  V30 3878 N 382.828 1.3818 -0.7579 0
M  V30 3879 C 383.776 2.32277 -0.122482 0
M  V30 3880 C 384.77 1.54238 0.700505 0
M  V30 3881 O 385.976 1.69737 0.599119 0
M  V30 3882 H 382.351 0.751712 -0.0208143 0
M  V30 3883 H 384.322 2.83469 -0.932099 0
M  V30 3884 C 383.071 3.39447 0.753076 0
M  V30 3885 H 382.394 3.99591 0.129184 0
M  V30 3886 H 383.834 4.07684 1.16489 0
M  V30 3887 C 382.293 2.78375 1.8976 0
M  V30 3888 O 382.823 2.68025 2.99208 0
M  V30 3889 N 381.029 2.36121 1.69397 0
M  V30 3890 H 380.576 2.4474 0.803762 0
M  V30 3891 H 380.534 1.95602 2.46145 0
M  V30 3892 N 384.306 0.507319 1.49211 0
M  V30 3893 C 385.236 -0.256939 2.32082 0
M  V30 3894 C 386.217 -0.956609 1.40652 0
M  V30 3895 O 387.402 -0.946788 1.69557 0
M  V30 3896 C 384.532 -1.31802 3.21318 0
M  V30 3897 C 383.486 -0.737855 4.21592 0
M  V30 3898 C 382.812 -1.89992 4.99807 0
M  V30 3899 C 384.112 0.275325 5.21574 0
M  V30 3900 H 385.806 0.434798 2.96226 0
M  V30 3901 H 383.352 0.210546 1.42452 0
M  V30 3902 H 385.305 -1.86045 3.78107 0
M  V30 3903 H 384.029 -2.03903 2.5513 0
M  V30 3904 H 382.688 -0.217126 3.65956 0
M  V30 3905 H 382.336 -2.60877 4.30061 0
M  V30 3906 H 382.036 -1.51777 5.6766 0
M  V30 3907 H 383.56 -2.44657 5.59442 0
M  V30 3908 H 384.974 -0.179193 5.7302 0
M  V30 3909 H 383.371 0.573649 5.97352 0
M  V30 3910 H 384.441 1.18903 4.70096 0
M  V30 3911 N 385.784 -1.5574 0.241426 0
M  V30 3912 C 387.2 -1.59196 -0.113548 0
M  V30 3913 C 387.4 -1.25852 -1.57364 0
M  V30 3914 O 386.456 -1.00322 -2.31715 0
M  V30 3915 C 387.769 -2.99814 0.230695 0
M  V30 3916 C 389.317 -3.12513 0.174547 0
M  V30 3917 C 389.792 -4.55342 0.492744 0
M  V30 3918 N 391.283 -4.61076 0.443043 0
M  V30 3919 C 392.018 -5.6956 0.662484 0
M  V30 3920 N 391.514 -6.86328 0.944761 0
M  V30 3921 N 393.307 -5.58957 0.593564 0
M  V30 3922 H 385.458 -1.75685 1.19368 0
M  V30 3923 H 387.721 -0.81756 0.479896 0
M  V30 3924 H 387.427 -3.28932 1.24485 0
M  V30 3925 H 387.301 -3.74568 -0.444833 0
M  V30 3926 H 389.688 -2.83179 -0.830277 0
M  V30 3927 H 389.769 -2.40045 0.883845 0
M  V30 3928 H 389.413 -4.85396 1.4951 0
M  V30 3929 H 389.343 -5.26062 -0.23797 0
M  V30 3930 H 391.834 -3.77179 0.233374 0
M  V30 3931 H 392.147 -7.64935 1.09977 0
M  V30 3932 H 390.492 -6.88025 0.982175 0
M  V30 3933 H 393.683 -4.66611 0.373123 0
M  V30 3934 H 393.856 -6.43433 0.767981 0
M  V30 3935 N 387.262 0.0317525 -1.57568 0
M  V30 3936 C 388.49 0.734949 -1.93407 0
M  V30 3937 C 388.905 1.69036 -0.84096 0
M  V30 3938 O 388.262 1.81582 0.182836 0
M  V30 3939 C 388.313 1.49432 -3.29169 0
M  V30 3940 O 388.034 0.577261 -4.3428 0
M  V30 3941 C 389.535 2.29492 -3.79273 0
M  V30 3942 H 386.755 0.206706 -0.638368 0
M  V30 3943 H 389.299 -0.00992046 -2.04498 0
M  V30 3944 H 387.454 2.1911 -3.19483 0
M  V30 3945 H 387.868 1.10952 -5.1263 0
M  V30 3946 H 389.342 2.78172 -4.76785 0
M  V30 3947 H 389.819 3.10794 -3.10328 0
M  V30 3948 H 390.425 1.64894 -3.92033 0
M  V30 3949 N 388.74 1.54641 0.303973 0
M  V30 3950 C 389.688 1.86137 1.39484 0
M  V30 3951 C 390.682 0.734854 1.52631 0
M  V30 3952 O 391.888 0.918803 1.54784 0
M  V30 3953 H 388.263 0.590324 0.465856 0
M  V30 3954 H 390.234 2.77324 1.10154 0
M  V30 3955 C 388.983 2.12274 2.75382 0
M  V30 3956 H 388.306 2.98429 2.66046 0
M  V30 3957 H 389.746 2.38254 3.5073 0
M  V30 3958 C 388.205 0.920365 3.24085 0
M  V30 3959 O 388.735 0.139377 4.01458 0
M  V30 3960 N 386.941 0.726566 2.81371 0
M  V30 3961 H 386.488 1.36332 2.18567 0
M  V30 3962 H 386.446 -0.0763799 3.14307 0
M  V30 3963 N 390.218 -0.567019 1.47046 0
M  V30 3964 C 391.166 -1.69593 1.59188 0
M  V30 3965 C 392.16 -1.63046 0.459609 0
M  V30 3966 O 393.366 -1.6835 0.637058 0
M  V30 3967 H 389.741 -0.560993 0.500791 0
M  V30 3968 H 391.712 -1.56488 2.54075 0
M  V30 3969 C 390.461 -3.07964 1.61411 0
M  V30 3970 H 389.784 -3.13679 2.47881 0
M  V30 3971 H 391.224 -3.86671 1.73958 0
M  V30 3972 C 389.683 -3.35123 0.34559 0
M  V30 3973 O 390.213 -3.97812 -0.557521 0
M  V30 3974 N 388.419 -2.89699 0.22864 0
M  V30 3975 H 387.966 -2.38863 0.964479 0
M  V30 3976 H 387.924 -3.08242 -0.619192 0
M  V30 3977 N 391.696 -1.35014 -0.812953 0
M  V30 3978 C 392.921 -1.31187 -1.60639 0
M  V30 3979 C 393.346 0.109382 -1.87782 0
M  V30 3980 O 392.704 1.07424 -1.46047 0
M  V30 3981 C 392.752 -2.11809 -2.91838 0
M  V30 3982 O 391.856 -1.49444 -3.8437 0
M  V30 3983 H 391.197 -0.450084 -0.488181 0
M  V30 3984 H 393.727 -1.77963 -1.00947 0
M  V30 3985 H 393.737 -2.23531 -3.41318 0
M  V30 3986 H 392.412 -3.15137 -2.71407 0
M  V30 3987 H 390.989 -1.46524 -3.42907 0
M  V30 3988 N 393.175 1.03435 -1.18907 0
M  V30 3989 C 394.138 2.09756 -0.923844 0
M  V30 3990 C 395.138 1.60528 0.093416 0
M  V30 3991 O 396.328 1.73631 -0.140727 0
M  V30 3992 C 393.46 3.38692 -0.387354 0
M  V30 3993 H 394.653 2.34719 -1.86674 0
M  V30 3994 H 392.206 1.19959 -1.00197 0
M  V30 3995 H 392.941 3.19396 0.561845 0
M  V30 3996 H 392.726 3.75742 -1.12074 0
M  V30 3997 H 394.216 4.17016 -0.220694 0
M  V30 3998 N 394.653 0.992116 1.22453 0
M  V30 3999 C 395.881 0.685944 1.95198 0
M  V30 4000 C 396.296 -0.749233 1.73297 0
M  V30 4001 O 395.653 -1.50549 1.03156 0
M  V30 4002 C 395.704 0.981395 3.47924 0
M  V30 4003 O 395.425 2.36018 3.6909 0
M  V30 4004 C 396.926 0.692815 4.37853 0
M  V30 4005 H 394.146 0.253821 0.621141 0
M  V30 4006 H 396.69 1.32668 1.55626 0
M  V30 4007 H 394.845 0.386481 3.85467 0
M  V30 4008 H 395.259 2.45884 4.63294 0
M  V30 4009 H 396.733 0.949818 5.43767 0
M  V30 4010 H 397.21 -0.373181 4.37612 0
M  V30 4011 H 397.816 1.26874 4.05935 0
M  V30 4012 N 396.131 -1.37776 0.765217 0
M  V30 4013 C 397.38 -1.99092 0.323307 0
M  V30 4014 C 397.693 -1.61434 -1.10446 0
M  V30 4015 O 398.899 -2.15805 -1.64743 0
M  V30 4016 C 397.355 -3.56019 0.527098 0
M  V30 4017 C 396.963 -4.0262 1.96471 0
M  V30 4018 C 398.707 -4.2424 0.148483 0
M  V30 4019 C 396.614 -5.52233 2.11644 0
M  V30 4020 H 395.544 -0.744846 0.117137 0
M  V30 4021 H 398.195 -1.57391 0.943417 0
M  V30 4022 H 396.577 -3.95667 -0.162372 0
M  V30 4023 H 397.751 -3.74234 2.68859 0
M  V30 4024 H 396.066 -3.47161 2.29931 0
M  V30 4025 H 398.663 -5.34159 0.240456 0
M  V30 4026 H 399.006 -4.06446 -0.900422 0
M  V30 4027 H 399.539 -3.89872 0.79025 0
M  V30 4028 H 396.278 -5.74945 3.1483 0
M  V30 4029 H 395.798 -5.82324 1.4373 0
M  V30 4030 H 397.477 -6.18106 1.91193 0
M  V30 4031 N 397.609 -0.515225 -1.4894 0
M  V30 4032 C 398.855 0.0242508 -2.02785 0
M  V30 4033 C 399.188 1.35323 -1.39289 0
M  V30 4034 O 398.463 1.87041 -0.533469 0
M  V30 4035 C 398.746 0.16184 -3.59736 0
M  V30 4036 C 398.599 -1.19127 -4.33738 0
M  V30 4037 C 399.918 0.895719 -4.30888 0
M  V30 4038 H 397.037 0.00733914 -0.736963 0
M  V30 4039 H 399.679 -0.669395 -1.77818 0
M  V30 4040 H 397.829 0.752624 -3.8114 0
M  V30 4041 H 399.501 -1.82202 -4.23792 0
M  V30 4042 H 397.744 -1.77695 -3.95736 0
M  V30 4043 H 398.415 -1.04815 -5.41957 0
M  V30 4044 H 400.891 0.394528 -4.14225 0
M  V30 4045 H 399.767 0.960859 -5.40425 0
M  V30 4046 H 400.028 1.9427 -3.97129 0
M  V30 4047 N 399.087 1.5561 -0.249682 0
M  V30 4048 C 400.02 2.17537 0.689408 0
M  V30 4049 C 400.998 1.12829 1.17083 0
M  V30 4050 O 402.182 1.41229 1.24846 0
M  V30 4051 C 399.309 2.77828 1.93725 0
M  V30 4052 C 398.355 3.95615 1.59346 0
M  V30 4053 S 399.188 5.30988 0.69367 0
M  V30 4054 C 400.344 5.94734 1.95046 0
M  V30 4055 H 400.577 2.96852 0.163142 0
M  V30 4056 H 398.11 1.54362 -0.0341166 0
M  V30 4057 H 400.068 3.13199 2.65361 0
M  V30 4058 H 398.729 1.98454 2.43465 0
M  V30 4059 H 397.922 4.364 2.52132 0
M  V30 4060 H 397.524 3.61535 0.957512 0
M  V30 4061 H 399.816 6.12419 2.89739 0
M  V30 4062 H 400.759 6.90109 1.58604 0
M  V30 4063 H 401.167 5.23832 2.10381 0
M  V30 4064 N 400.565 -0.0233959 1.57583 0
M  V30 4065 C 401.976 -0.56927 1.77809 0
M  V30 4066 C 402.327 -1.75284 0.881472 0
M  V30 4067 O 401.452 -2.1626 0.0777805 0
M  V30 4068 C 402.047 -1.03949 3.22459 0
M  V30 4069 C 400.606 -1.53084 3.43864 0
M  V30 4070 C 399.753 -0.471454 2.73263 0
M  V30 4071 H 402.704 0.202825 1.57399 0
M  V30 4072 H 402.725 -1.90661 3.29285 0
M  V30 4073 H 402.237 -0.177865 3.87692 0
M  V30 4074 H 400.338 -2.41414 2.83814 0
M  V30 4075 H 400.451 -1.57443 4.52491 0
M  V30 4076 H 398.815 -0.927788 2.37201 0
M  V30 4077 H 399.598 0.380808 3.41181 0
M  V30 4078 N 402.043 -1.548 -0.295768 0
M  V30 4079 C 403.273 -1.78069 -1.04762 0
M  V30 4080 C 403.681 -0.542847 -1.81245 0
M  V30 4081 O 403.024 0.497051 -1.76848 0
M  V30 4082 C 403.086 -2.93881 -2.07061 0
M  V30 4083 C 402.75 -4.31777 -1.49725 0
M  V30 4084 C 403.747 -5.11613 -0.924581 0
M  V30 4085 C 401.432 -4.78389 -1.5313 0
M  V30 4086 C 403.426 -6.36184 -0.393594 0
M  V30 4087 C 401.113 -6.02921 -0.996447 0
M  V30 4088 C 402.111 -6.81654 -0.428569 0
M  V30 4089 O 401.799 -8.0384 0.0981593 0
M  V30 4090 H 401.531 -0.597475 -0.316226 0
M  V30 4091 H 404.085 -2.02584 -0.338973 0
M  V30 4092 H 402.315 -2.65003 -2.81621 0
M  V30 4093 H 404.004 -3.04679 -2.6819 0
M  V30 4094 H 404.77 -4.76743 -0.891136 0
M  V30 4095 H 400.649 -4.17132 -1.9627 0
M  V30 4096 H 404.193 -6.97582 0.0503014 0
M  V30 4097 H 400.09 -6.37277 -1.02706 0
M  V30 4098 H 400.858 -8.18499 -0.0146455 0
M  V30 4099 N 403.521 0.559213 -1.47345 0
M  V30 4100 C 404.767 1.31843 -1.54095 0
M  V30 4101 C 405.1 1.93149 -0.201726 0
M  V30 4102 O 404.375 1.77759 0.789428 0
M  V30 4103 C 404.658 2.43006 -2.65744 0
M  V30 4104 C 404.511 1.86581 -4.09277 0
M  V30 4105 C 405.83 3.44943 -2.73318 0
M  V30 4106 H 402.949 0.478012 -0.560957 0
M  V30 4107 H 405.591 0.625977 -1.79392 0
M  V30 4108 H 403.741 3.02072 -2.44305 0
M  V30 4109 H 405.413 1.31792 -4.42073 0
M  V30 4110 H 403.656 1.17268 -4.17649 0
M  V30 4111 H 404.327 2.66933 -4.83168 0
M  V30 4112 H 406.803 2.95793 -2.92653 0
M  V30 4113 H 405.679 4.20153 -3.53218 0
M  V30 4114 H 405.94 4.03665 -1.80296 0
M  V30 4115 N 404.999 1.35443 0.805782 0
M  V30 4116 C 405.947 1.28465 1.93906 0
M  V30 4117 C 406.941 0.17943 1.68447 0
M  V30 4118 O 408.147 0.345459 1.76654 0
M  V30 4119 H 404.522 0.399528 0.637088 0
M  V30 4120 H 406.493 2.24206 1.96912 0
M  V30 4121 C 405.242 1.07432 3.30687 0
M  V30 4122 H 404.565 1.91716 3.50835 0
M  V30 4123 H 406.005 1.06591 4.10383 0
M  V30 4124 C 404.464 -0.22179 3.36169 0
M  V30 4125 O 404.994 -1.21731 3.82811 0
M  V30 4126 N 403.2 -0.260841 2.89427 0
M  V30 4127 H 402.747 0.549884 2.51663 0
M  V30 4128 H 402.705 -1.12777 2.93477 0
M  V30 4129 N 406.477 -1.02803 1.19454 0
M  V30 4130 C 407.702 -1.80378 1.02364 0
M  V30 4131 C 408.127 -1.83282 -0.423007 0
M  V30 4132 O 407.485 -1.25945 -1.30413 0
M  V30 4133 C 407.533 -3.23248 1.59821 0
M  V30 4134 O 406.637 -4.04 0.828105 0
M  V30 4135 H 405.978 -0.556799 0.361761 0
M  V30 4136 H 408.508 -1.29385 1.58495 0
M  V30 4137 H 408.518 -3.73994 1.63073 0
M  V30 4138 H 407.193 -3.2045 2.65113 0
M  V30 4139 H 405.77 -3.62635 0.86891 0
M  V30 4140 N 407.956 -0.998596 -1.21925 0
M  V30 4141 C 409.202 -0.678667 -1.91107 0
M  V30 4142 C 409.535 0.78791 -1.77498 0
M  V30 4143 O 408.81 1.57043 -1.1475 0
M  V30 4144 C 409.093 -1.09245 -3.43129 0
M  V30 4145 C 408.946 -2.61801 -3.6576 0
M  V30 4146 C 410.265 -0.649984 -4.35274 0
M  V30 4147 H 407.384 -0.248025 -0.694012 0
M  V30 4148 H 410.026 -1.24314 -1.43688 0
M  V30 4149 H 408.176 -0.612171 -3.83647 0
M  V30 4150 H 409.848 -3.17543 -3.34611 0
M  V30 4151 H 408.091 -3.03609 -3.09845 0
M  V30 4152 H 408.762 -2.85804 -4.7225 0
M  V30 4153 H 411.238 -1.0626 -4.02303 0
M  V30 4154 H 410.114 -0.967743 -5.40302 0
M  V30 4155 H 410.375 0.449139 -4.39813 0
M  V30 4156 N 409.434 1.37368 -0.772513 0
M  V30 4157 C 410.845 1.8231 -0.402493 0
M  V30 4158 C 411.196 1.6436 1.07146 0
M  V30 4159 O 410.321 1.15514 1.82991 0
M  V30 4160 C 410.916 3.30979 -0.723776 0
M  V30 4161 C 409.475 3.74195 -0.406802 0
M  V30 4162 C 408.622 2.59885 -0.967218 0
M  V30 4163 H 411.573 1.25829 -0.967099 0
M  V30 4164 H 411.594 3.80499 -0.00870832 0
M  V30 4165 H 411.106 3.44011 -1.7966 0
M  V30 4166 H 409.207 3.66732 0.658673 0
M  V30 4167 H 409.32 4.7027 -0.915588 0
M  V30 4168 H 407.684 2.51674 -0.391416 0
M  V30 4169 H 408.467 2.7571 -2.04546 0
M  V30 4170 N 410.912 0.523116 1.48665 0
M  V30 4171 C 411.845 -0.290518 2.26343 0
M  V30 4172 C 412.823 -0.950913 1.31895 0
M  V30 4173 O 414.007 -0.976662 1.61225 0
M  V30 4174 C 411.134 -1.41088 3.07915 0
M  V30 4175 C 410.18 -0.862597 4.17686 0
M  V30 4176 S 411.013 0.264135 5.34848 0
M  V30 4177 C 412.169 -0.858864 6.19979 0
M  V30 4178 H 412.402 0.368726 2.95005 0
M  V30 4179 H 409.935 0.30878 1.51281 0
M  V30 4180 H 411.893 -2.0527 3.55492 0
M  V30 4181 H 410.554 -2.04182 2.38681 0
M  V30 4182 H 409.747 -1.70287 4.74361 0
M  V30 4183 H 409.349 -0.297595 3.72814 0
M  V30 4184 H 411.641 -1.7591 6.54264 0
M  V30 4185 H 412.584 -0.330244 7.07329 0
M  V30 4186 H 412.992 -1.13617 5.52948 0
M  V30 4187 N 412.39 -1.55475 0.257931 0
M  V30 4188 C 413.667 -1.91155 -0.414629 0
M  V30 4189 C 414.047 -1.18008 -1.75035 0
M  V30 4190 O 413.395 -0.301193 -2.26506 0
M  V30 4191 C 413.605 -3.44283 -0.571859 0
M  V30 4192 C 414.953 -4.15744 -0.862678 0
M  V30 4193 O 415.977 -3.50083 -0.657314 0
M  V30 4194 O 414.836 -5.31909 -1.2544 0
M  V30 4195 H 411.93 -0.796016 -0.22425 0
M  V30 4196 H 414.476 -1.66976 0.302814 0
M  V30 4197 H 413.248 -3.89558 0.368844 0
M  V30 4198 H 412.871 -3.7436 -1.33943 0
M  V30 4199 N 413.868 0.0150385 -1.57593 0
M  V30 4200 C 414.816 1.02958 -2.08572 0
M  V30 4201 C 415.81 1.36554 -1.00246 0
M  V30 4202 O 417.016 1.35295 -1.18724 0
M  V30 4203 H 413.391 0.349619 -0.665786 0
M  V30 4204 H 415.362 0.573932 -2.92829 0
M  V30 4205 C 414.111 2.31752 -2.59203 0
M  V30 4206 H 413.434 2.06765 -3.42182 0
M  V30 4207 H 414.874 3.01053 -2.98568 0
M  V30 4208 C 413.333 3.01692 -1.49945 0
M  V30 4209 O 413.863 3.92083 -0.873704 0
M  V30 4210 N 412.069 2.6326 -1.23056 0
M  V30 4211 H 411.616 1.89838 -1.74125 0
M  V30 4212 H 411.574 3.10372 -0.501685 0
M  V30 4213 N 415.346 1.54954 0.287554 0
M  V30 4214 C 416.279 1.81737 1.3801 0
M  V30 4215 C 417.257 0.669412 1.48181 0
M  V30 4216 O 418.441 0.910839 1.65033 0
M  V30 4217 C 415.568 1.96606 2.75796 0
M  V30 4218 C 414.614 3.19098 2.82982 0
M  V30 4219 S 415.447 4.7683 2.43707 0
M  V30 4220 C 416.603 4.94653 3.83496 0
M  V30 4221 H 416.836 2.74122 1.15085 0
M  V30 4222 H 414.369 1.46538 0.486403 0
M  V30 4223 H 416.327 2.05858 3.55152 0
M  V30 4224 H 414.988 1.05136 2.95982 0
M  V30 4225 H 414.181 3.26344 3.84077 0
M  V30 4226 H 413.783 3.08361 2.11635 0
M  V30 4227 H 416.075 4.79502 4.78628 0
M  V30 4228 H 417.018 5.96728 3.8121 0
M  V30 4229 H 417.426 4.2272 3.74123 0
M  V30 4230 N 416.824 -0.551391 1.4764 0
M  V30 4231 C 418.054 -1.33163 1.57959 0
M  V30 4232 C 418.462 -1.87785 0.23094 0
M  V30 4233 O 417.805 -1.65996 -0.786825 0
M  V30 4234 C 417.867 -2.53449 2.54958 0
M  V30 4235 C 417.531 -2.20071 4.00522 0
M  V30 4236 C 418.528 -1.77017 4.88836 0
M  V30 4237 C 416.213 -2.31252 4.45901 0
M  V30 4238 C 418.207 -1.4558 6.20552 0
M  V30 4239 C 415.894 -1.99427 5.77644 0
M  V30 4240 C 416.892 -1.56659 6.64791 0
M  V30 4241 O 416.58 -1.25242 7.94084 0
M  V30 4242 H 416.312 -0.412022 0.535923 0
M  V30 4243 H 418.866 -0.674186 1.9402 0
M  V30 4244 H 417.096 -3.22104 2.13976 0
M  V30 4245 H 418.785 -3.15523 2.55343 0
M  V30 4246 H 419.551 -1.67867 4.55023 0
M  V30 4247 H 415.43 -2.63498 3.78272 0
M  V30 4248 H 418.974 -1.12125 6.8853 0
M  V30 4249 H 414.871 -2.08211 6.10998 0
M  V30 4250 H 415.639 -1.38822 8.06642 0
M  V30 4251 N 418.302 -1.35869 -0.798587 0
M  V30 4252 C 419.718 -1.16082 -1.09532 0
M  V30 4253 C 419.918 0.0213124 -2.01489 0
M  V30 4254 O 418.974 0.689488 -2.42904 0
M  V30 4255 C 420.287 -2.46748 -1.7186 0
M  V30 4256 C 421.835 -2.53028 -1.84244 0
M  V30 4257 C 422.31 -3.83758 -2.49988 0
M  V30 4258 N 423.801 -3.85053 -2.57465 0
M  V30 4259 C 424.536 -4.8294 -3.09122 0
M  V30 4260 N 424.032 -5.91217 -3.61157 0
M  V30 4261 N 425.825 -4.70369 -3.0775 0
M  V30 4262 H 417.976 -2.11571 -0.187461 0
M  V30 4263 H 420.239 -0.936726 -0.145765 0
M  V30 4264 H 419.945 -3.33471 -1.11759 0
M  V30 4265 H 419.819 -2.61883 -2.71472 0
M  V30 4266 H 422.206 -1.66729 -2.43486 0
M  V30 4267 H 422.287 -2.418 -0.834643 0
M  V30 4268 H 421.931 -4.70459 -1.91393 0
M  V30 4269 H 421.861 -3.92278 -3.5132 0
M  V30 4270 H 424.352 -3.06822 -2.20609 0
M  V30 4271 H 424.665 -6.61892 -3.98896 0
M  V30 4272 H 423.01 -5.94899 -3.59333 0
M  V30 4273 H 426.201 -3.84914 -2.66381 0
M  V30 4274 H 426.374 -5.46816 -3.47701 0
M  V30 4275 N 419.78 1.02168 -1.19998 0
M  V30 4276 C 420.73 2.08969 -0.911921 0
M  V30 4277 C 421.714 1.60404 0.12621 0
M  V30 4278 O 422.906 1.76817 -0.0804706 0
M  V30 4279 C 420.035 3.402 -0.460277 0
M  V30 4280 C 419.121 3.9548 -1.53155 0
M  V30 4281 N 419.512 4.24332 -2.75275 0
M  V30 4282 C 417.81 4.23572 -1.39653 0
M  V30 4283 C 418.511 4.68834 -3.44339 0
M  V30 4284 N 417.487 4.70804 -2.71744 0
M  V30 4285 H 421.289 2.29178 -1.83997 0
M  V30 4286 H 418.803 1.20094 -1.09322 0
M  V30 4287 H 420.8 4.16235 -0.235337 0
M  V30 4288 H 419.46 3.21408 0.4612 0
M  V30 4289 H 420.471 4.13393 -3.11973 0
M  V30 4290 H 417.148 4.14005 -0.539067 0
M  V30 4291 H 418.538 5.00019 -4.4881 0
M  V30 4292 N 421.258 1.00505 1.21394 0
M  V30 4293 C 422.208 0.536503 2.21598 0
M  V30 4294 C 423.192 -0.401914 1.55799 0
M  V30 4295 O 424.384 -0.226757 1.75541 0
M  V30 4296 C 421.513 -0.135446 3.43033 0
M  V30 4297 C 420.599 0.823992 4.16018 0
M  V30 4298 N 420.99 1.97683 4.6557 0
M  V30 4299 C 419.288 0.642387 4.4135 0
M  V30 4300 C 419.989 2.58003 5.21354 0
M  V30 4301 N 418.965 1.86162 5.1073 0
M  V30 4302 H 422.767 1.41557 2.57563 0
M  V30 4303 H 420.281 0.868878 1.37202 0
M  V30 4304 H 422.278 -0.488584 4.14027 0
M  V30 4305 H 420.938 -1.01049 3.08576 0
M  V30 4306 H 421.949 2.3572 4.61147 0
M  V30 4307 H 418.626 -0.185578 4.17087 0
M  V30 4308 H 420.016 3.555 5.70149 0
M  V30 4309 N 422.737 -1.36956 0.779787 0
M  V30 4310 C 423.685 -2.32053 0.15942 0
M  V30 4311 C 424.679 -1.55333 -0.675878 0
M  V30 4312 O 425.885 -1.70668 -0.57204 0
M  V30 4313 H 422.26 -0.751286 0.0327707 0
M  V30 4314 H 424.231 -2.8195 0.977078 0
M  V30 4315 C 422.98 -3.40602 -0.698977 0
M  V30 4316 H 422.303 -3.99746 -0.0655966 0
M  V30 4317 H 423.743 -4.09486 -1.09989 0
M  V30 4318 C 422.202 -2.81359 -1.85307 0
M  V30 4319 O 422.732 -2.72751 -2.94906 0
M  V30 4320 N 420.938 -2.38786 -1.65619 0
M  V30 4321 H 420.485 -2.45987 -0.764725 0
M  V30 4322 H 420.443 -1.99493 -2.43002 0
M  V30 4323 N 424.215 -0.530993 -1.48385 0
M  V30 4324 C 425.462 0.0027373 -2.025 0
M  V30 4325 C 425.79 1.34186 -1.40799 0
M  V30 4326 O 425.045 1.88 -0.543544 0
M  V30 4327 C 425.344 0.172742 -3.56982 0
M  V30 4328 C 425.01 -1.09215 -4.37473 0
M  V30 4329 C 423.672 -1.43881 -4.59186 0
M  V30 4330 C 426.024 -1.93153 -4.84088 0
M  V30 4331 C 423.352 -2.62381 -5.2476 0
M  V30 4332 C 425.704 -3.10833 -5.50968 0
M  V30 4333 C 424.368 -3.45843 -5.70919 0
M  V30 4334 H 423.638 0.00100165 -0.740999 0
M  V30 4335 H 426.285 -0.697219 -1.78357 0
M  V30 4336 H 424.59 0.955473 -3.79971 0
M  V30 4337 H 426.287 0.600642 -3.96476 0
M  V30 4338 H 422.877 -0.812177 -4.20834 0
M  V30 4339 H 427.061 -1.67683 -4.67115 0
M  V30 4340 H 422.317 -2.89707 -5.38405 0
M  V30 4341 H 426.491 -3.7618 -5.86056 0
M  V30 4342 H 424.118 -4.37764 -6.21503 0
M  V30 4343 N 425.693 1.55336 -0.266172 0
M  V30 4344 C 426.921 2.03801 0.356756 0
M  V30 4345 C 427.336 1.14485 1.50129 0
M  V30 4346 O 426.693 0.163121 1.8177 0
M  V30 4347 C 426.744 3.51455 0.846281 0
M  V30 4348 O 426.465 4.37371 -0.252663 0
M  V30 4349 C 427.966 4.15767 1.53794 0
M  V30 4350 H 425.186 0.665906 0.0825218 0
M  V30 4351 H 427.73 2.00636 -0.39566 0
M  V30 4352 H 425.885 3.55092 1.54881 0
M  V30 4353 H 426.299 5.24358 0.122173 0
M  V30 4354 H 427.773 5.20714 1.83198 0
M  V30 4355 H 428.25 3.63404 2.46646 0
M  V30 4356 H 428.856 4.16107 0.879488 0
M  V30 4357 N 427.171 -0.0066808 1.57599 0
M  V30 4358 C 428.101 -0.999296 2.11036 0
M  V30 4359 C 429.082 -1.36278 1.01795 0
M  V30 4360 O 430.267 -1.4477 1.29442 0
M  V30 4361 C 427.397 -2.29328 2.60818 0
M  V30 4362 C 426.351 -2.07159 3.74525 0
M  V30 4363 C 425.677 -3.42512 4.10596 0
M  V30 4364 C 426.977 -1.43959 5.02069 0
M  V30 4365 H 428.671 -0.554382 2.94223 0
M  V30 4366 H 426.217 -0.265221 1.41536 0
M  V30 4367 H 428.17 -2.99117 2.96828 0
M  V30 4368 H 426.894 -2.7592 1.74745 0
M  V30 4369 H 425.553 -1.39797 3.38899 0
M  V30 4370 H 425.201 -3.86795 3.21556 0
M  V30 4371 H 424.901 -3.28498 4.87199 0
M  V30 4372 H 426.425 -4.13628 4.4916 0
M  V30 4373 H 427.839 -2.03696 5.35893 0
M  V30 4374 H 426.236 -1.40452 5.83432 0
M  V30 4375 H 427.306 -0.407992 4.83181 0
M  V30 4376 N 428.649 -1.55105 -0.279332 0
M  V30 4377 C 429.582 -1.82467 -1.37044 0
M  V30 4378 C 430.56 -0.677261 -1.47824 0
M  V30 4379 O 431.744 -0.919578 -1.64548 0
M  V30 4380 C 428.871 -1.98066 -2.7475 0
M  V30 4381 C 427.917 -3.20594 -2.81286 0
M  V30 4382 S 428.75 -4.78116 -2.41175 0
M  V30 4383 C 429.906 -4.9668 -3.80867 0
M  V30 4384 H 430.139 -2.74728 -1.1363 0
M  V30 4385 H 427.672 -1.46794 -0.478625 0
M  V30 4386 H 429.63 -2.07739 -3.54055 0
M  V30 4387 H 428.291 -1.06704 -2.9542 0
M  V30 4388 H 427.484 -3.28376 -3.82341 0
M  V30 4389 H 427.086 -3.09479 -2.09996 0
M  V30 4390 H 429.378 -4.82033 -4.76078 0
M  V30 4391 H 430.321 -5.98741 -3.78041 0
M  V30 4392 H 430.729 -4.24698 -3.71876 0
M  V30 4393 N 430.127 0.543554 -1.4793 0
M  V30 4394 C 431.376 1.29649 -1.54512 0
M  V30 4395 C 431.689 1.94382 -0.217973 0
M  V30 4396 O 432.895 2.71017 -0.161908 0
M  V30 4397 C 431.351 2.35175 -2.72435 0
M  V30 4398 C 430.959 1.76572 -4.11736 0
M  V30 4399 C 432.703 3.11564 -2.8832 0
M  V30 4400 C 430.61 2.79958 -5.20939 0
M  V30 4401 H 429.54 0.487541 -0.57517 0
M  V30 4402 H 432.191 0.575708 -1.74235 0
M  V30 4403 H 430.573 3.10229 -2.46118 0
M  V30 4404 H 431.747 1.07799 -4.48013 0
M  V30 4405 H 430.062 1.12722 -4.00852 0
M  V30 4406 H 432.659 3.88794 -3.67074 0
M  V30 4407 H 433.002 3.66594 -1.97268 0
M  V30 4408 H 433.535 2.43623 -3.14472 0
M  V30 4409 H 430.274 2.29766 -6.13912 0
M  V30 4410 H 429.794 3.47101 -4.89164 0
M  V30 4411 H 431.473 3.43198 -5.48474 0
M  V30 4412 N 431.605 1.3629 0.791371 0
M  V30 4413 C 432.854 1.29742 1.54434 0
M  V30 4414 C 433.167 -0.121729 1.95221 0
M  V30 4415 O 434.373 -0.309579 2.69729 0
M  V30 4416 C 432.829 2.27623 2.78776 0
M  V30 4417 C 432.437 3.74963 2.45166 0
M  V30 4418 C 434.181 2.30047 3.56761 0
M  V30 4419 C 432.088 4.64626 3.65891 0
M  V30 4420 H 431.018 0.482113 0.579727 0
M  V30 4421 H 433.669 1.61642 0.868565 0
M  V30 4422 H 432.051 1.88714 3.48142 0
M  V30 4423 H 433.225 4.22596 1.83709 0
M  V30 4424 H 431.54 3.75295 1.80396 0
M  V30 4425 H 434.137 2.94247 4.46456 0
M  V30 4426 H 434.48 1.30846 3.95203 0
M  V30 4427 H 435.013 2.67563 2.94372 0
M  V30 4428 H 431.752 5.64883 3.32547 0
M  V30 4429 H 431.272 4.2171 4.26521 0
M  V30 4430 H 432.951 4.80801 4.32943 0
M  V30 4431 N 433.083 -1.0153 1.20538 0
M  V30 4432 C 434.494 -1.56598 1.01657 0
M  V30 4433 C 434.845 -1.91505 -0.426668 0
M  V30 4434 O 433.97 -1.72375 -1.30827 0
M  V30 4435 C 434.565 -2.84542 1.83905 0
M  V30 4436 C 433.124 -3.36133 1.69386 0
M  V30 4437 C 432.271 -2.09427 1.81757 0
M  V30 4438 H 435.222 -0.838974 1.34711 0
M  V30 4439 H 435.243 -3.56004 1.34319 0
M  V30 4440 H 434.755 -2.59105 2.8894 0
M  V30 4441 H 432.856 -3.66528 0.669933 0
M  V30 4442 H 432.969 -4.08248 2.50739 0
M  V30 4443 H 431.333 -2.21941 1.24957 0
M  V30 4444 H 432.116 -1.86414 2.88279 0
M  V30 4445 N 434.561 -1.01147 -1.20859 0
M  V30 4446 C 435.808 -0.697865 -1.90095 0
M  V30 4447 C 436.136 0.772014 -1.78522 0
M  V30 4448 O 435.391 1.57595 -1.16027 0
M  V30 4449 C 435.69 -1.0727 -3.40922 0
M  V30 4450 C 435.356 -2.53792 -3.72693 0
M  V30 4451 C 434.018 -2.93829 -3.81075 0
M  V30 4452 C 436.37 -3.48674 -3.87397 0
M  V30 4453 C 433.698 -4.27696 -4.01613 0
M  V30 4454 C 436.05 -4.82223 -4.09444 0
M  V30 4455 C 434.714 -5.21973 -4.16054 0
M  V30 4456 H 433.984 -0.255367 -0.695607 0
M  V30 4457 H 436.631 -1.27111 -1.43231 0
M  V30 4458 H 434.936 -0.417799 -3.89566 0
M  V30 4459 H 436.633 -0.807818 -3.92779 0
M  V30 4460 H 433.223 -2.21768 -3.66765 0
M  V30 4461 H 437.407 -3.18904 -3.80281 0
M  V30 4462 H 432.663 -4.58055 -4.04964 0
M  V30 4463 H 436.837 -5.55672 -4.19763 0
M  V30 4464 H 434.464 -6.25717 -4.31721 0
M  V30 4465 N 436.039 1.36541 -0.78704 0
M  V30 4466 C 437.285 1.99599 -0.358872 0
M  V30 4467 C 437.618 1.62323 1.06606 0
M  V30 4468 O 436.893 0.876858 1.73613 0
M  V30 4469 C 437.176 3.56327 -0.519944 0
M  V30 4470 C 437.029 4.03464 -1.98839 0
M  V30 4471 C 438.348 4.4005 0.0664737 0
M  V30 4472 H 435.467 0.725107 -0.131869 0
M  V30 4473 H 438.109 1.6199 -0.992936 0
M  V30 4474 H 436.259 3.88495 0.0198321 0
M  V30 4475 H 437.931 3.81793 -2.58905 0
M  V30 4476 H 436.174 3.55092 -2.49183 0
M  V30 4477 H 436.845 5.12439 -2.05207 0
M  V30 4478 H 439.321 4.14228 -0.394267 0
M  V30 4479 H 438.197 5.48847 -0.0762682 0
M  V30 4480 H 438.458 4.26655 1.15835 0
M  V30 4481 N 437.518 0.538854 1.48102 0
M  V30 4482 C 438.929 0.100679 1.86428 0
M  V30 4483 C 439.28 -1.32447 1.44749 0
M  V30 4484 O 438.405 -1.99339 0.842199 0
M  V30 4485 C 439 0.175933 3.38343 0
M  V30 4486 C 437.559 -0.207098 3.7583 0
M  V30 4487 C 436.706 0.531741 2.72154 0
M  V30 4488 H 439.657 0.749614 1.3988 0
M  V30 4489 H 439.678 -0.610144 3.75576 0
M  V30 4490 H 439.19 1.21328 3.68648 0
M  V30 4491 H 437.291 -1.24626 3.5114 0
M  V30 4492 H 437.404 0.138687 4.78899 0
M  V30 4493 H 435.768 -0.0230462 2.5469 0
M  V30 4494 H 436.551 1.56989 3.05302 0
M  V30 4495 N 438.996 -1.55193 0.274407 0
M  V30 4496 C 439.926 -2.25471 -0.607032 0
M  V30 4497 C 440.907 -1.24461 -1.15946 0
M  V30 4498 O 442.092 -1.53179 -1.19373 0
M  V30 4499 C 439.222 -2.97526 -1.79153 0
M  V30 4500 C 438.176 -4.05459 -1.37067 0
M  V30 4501 C 437.502 -4.65084 -2.6382 0
M  V30 4502 C 438.802 -5.19691 -0.521389 0
M  V30 4503 H 440.496 -2.99393 -0.0209343 0
M  V30 4504 H 438.042 -1.43997 -0.00862866 0
M  V30 4505 H 439.995 -3.45402 -2.41404 0
M  V30 4506 H 438.719 -2.21138 -2.40344 0
M  V30 4507 H 437.378 -3.58393 -0.771355 0
M  V30 4508 H 437.026 -3.85365 -3.23268 0
M  V30 4509 H 436.726 -5.37961 -2.36372 0
M  V30 4510 H 438.25 -5.15708 -3.26921 0
M  V30 4511 H 439.664 -5.63623 -1.04889 0
M  V30 4512 H 438.061 -5.99126 -0.341825 0
M  V30 4513 H 439.131 -4.82713 0.46 0
M  V30 4514 N 440.474 -0.00167713 -1.576 0
M  V30 4515 C 441.751 0.719951 -1.81868 0
M  V30 4516 C 442.131 1.91895 -0.879747 0
M  V30 4517 O 441.479 2.28389 0.0711423 0
M  V30 4518 C 441.689 1.12409 -3.30402 0
M  V30 4519 C 443.037 1.52724 -3.96182 0
M  V30 4520 O 444.061 1.21784 -3.34734 0
M  V30 4521 O 442.92 2.10265 -5.04431 0
M  V30 4522 H 440.014 0.350707 -0.748955 0
M  V30 4523 H 442.56 -0.0272597 -1.69678 0
M  V30 4524 H 441.332 0.269532 -3.90371 0
M  V30 4525 H 440.955 1.93035 -3.47596 0
M  V30 4526 N 441.952 1.55251 0.271103 0
M  V30 4527 C 443.199 1.75946 1.00245 0
M  V30 4528 C 443.527 0.561611 1.86215 0
M  V30 4529 O 442.782 -0.455832 1.90317 0
M  V30 4530 C 443.081 3.01879 1.91321 0
M  V30 4531 C 442.747 4.34337 1.21086 0
M  V30 4532 C 441.409 4.70338 1.01666 0
M  V30 4533 C 443.761 5.16325 0.71119 0
M  V30 4534 C 441.089 5.8588 0.310099 0
M  V30 4535 C 443.441 6.32597 0.0182157 0
M  V30 4536 C 442.105 6.67236 -0.18768 0
M  V30 4537 H 441.375 0.643833 0.366824 0
M  V30 4538 H 444.022 1.89521 0.27458 0
M  V30 4539 H 442.327 2.83212 2.70736 0
M  V30 4540 H 444.024 3.15088 2.48033 0
M  V30 4541 H 440.614 4.06043 1.37213 0
M  V30 4542 H 444.798 4.88987 0.848844 0
M  V30 4543 H 440.054 6.1124 0.139873 0
M  V30 4544 H 444.228 6.9538 -0.376711 0
M  V30 4545 H 441.855 7.56618 -0.73715 0
M  V30 4546 N 443.43 -0.535701 1.48216 0
M  V30 4547 C 444.655 -1.32149 1.59848 0
M  V30 4548 C 445.08 -1.86338 0.256842 0
M  V30 4549 O 444.438 -1.64107 -0.770632 0
M  V30 4550 C 444.486 -2.45224 2.64381 0
M  V30 4551 O 443.59 -3.48093 2.21144 0
M  V30 4552 H 442.931 -0.391634 0.536208 0
M  V30 4553 H 445.461 -0.645202 1.94161 0
M  V30 4554 H 445.471 -2.91491 2.85476 0
M  V30 4555 H 444.146 -2.05143 3.61786 0
M  V30 4556 H 442.723 -3.07984 2.10239 0
M  V30 4557 N 444.908 -1.36708 -0.784132 0
M  V30 4558 C 445.871 -1.31307 -1.87859 0
M  V30 4559 C 446.871 -0.219654 -1.59293 0
M  V30 4560 O 448.061 -0.47476 -1.67606 0
M  V30 4561 C 445.193 -1.03679 -3.24751 0
M  V30 4562 H 446.386 -2.28647 -1.94064 0
M  V30 4563 H 443.939 -1.21558 -0.98252 0
M  V30 4564 H 444.674 -0.0681936 -3.24228 0
M  V30 4565 H 444.459 -1.82811 -3.46876 0
M  V30 4566 H 445.949 -1.02518 -4.04821 0
M  V30 4567 N 446.386 1.0089 -1.21074 0
M  V30 4568 C 447.634 1.74262 -1.02358 0
M  V30 4569 C 447.955 1.89869 0.444393 0
M  V30 4570 O 447.225 1.44677 1.32081 0
M  V30 4571 H 445.805 0.645615 -0.375754 0
M  V30 4572 H 448.467 1.21596 -1.52317 0
M  V30 4573 H 447.563 2.74328 -1.4883 0
M  V30 4574 N 447.864 1.01787 1.20321 0
M  V30 4575 C 448.827 0.593972 2.2137 0
M  V30 4576 C 449.827 -0.336553 1.57239 0
M  V30 4577 O 451.017 -0.125069 1.7375 0
M  V30 4578 C 448.149 -0.132433 3.40643 0
M  V30 4579 H 449.342 1.48791 2.60387 0
M  V30 4580 H 446.895 0.807803 1.33807 0
M  V30 4581 H 447.63 -1.04123 3.0713 0
M  V30 4582 H 447.415 0.53605 3.88418 0
M  V30 4583 H 448.905 -0.416314 4.1552 0
M  V30 4584 N 449.342 -1.36122 0.79427 0
M  V30 4585 C 450.567 -2.03891 0.379871 0
M  V30 4586 C 450.992 -1.59488 -0.997251 0
M  V30 4587 O 450.35 -0.765652 -1.64339 0
M  V30 4588 C 450.398 -3.57687 0.457442 0
M  V30 4589 O 449.502 -4.08931 -0.5338 0
M  V30 4590 H 448.843 -0.6443 0.160541 0
M  V30 4591 H 451.373 -1.73976 1.07673 0
M  V30 4592 H 451.383 -4.06721 0.322792 0
M  V30 4593 H 450.058 -3.89357 1.46199 0
M  V30 4594 H 448.635 -3.71154 -0.360409 0
M  V30 4595 N 450.82 -0.546701 -1.47814 0
M  V30 4596 C 452.048 -0.0232857 -2.06887 0
M  V30 4597 C 452.463 1.26571 -1.4009 0
M  V30 4598 O 451.82 1.7569 -0.493906 0
M  V30 4599 C 451.871 0.186975 -3.61016 0
M  V30 4600 O 451.592 -1.05097 -4.25307 0
M  V30 4601 C 453.093 0.748872 -4.36929 0
M  V30 4602 H 450.313 -0.0410763 -0.669742 0
M  V30 4603 H 452.857 -0.757117 -1.89968 0
M  V30 4604 H 451.012 0.870903 -3.77484 0
M  V30 4605 H 451.426 -0.842121 -5.17695 0
M  V30 4606 H 452.9 0.845334 -5.45489 0
M  V30 4607 H 453.377 1.75772 -4.02493 0
M  V30 4608 H 453.983 0.100979 -4.2518 0
M  V30 4609 N 452.299 1.55045 -0.282633 0
M  V30 4610 C 453.529 2.03872 0.334635 0
M  V30 4611 C 453.937 1.16018 1.49454 0
M  V30 4612 O 453.28 0.174449 1.8287 0
M  V30 4613 C 453.342 3.48791 0.870905 0
M  V30 4614 C 453.006 4.56715 -0.161338 0
M  V30 4615 C 454.003 5.10513 -0.983466 0
M  V30 4616 C 451.688 5.01417 -0.297745 0
M  V30 4617 C 453.682 6.07538 -1.92811 0
M  V30 4618 C 451.369 5.98265 -1.24586 0
M  V30 4619 C 452.367 6.51208 -2.05954 0
M  V30 4620 O 452.055 7.46162 -2.99162 0
M  V30 4621 H 451.787 0.671324 0.0793742 0
M  V30 4622 H 454.341 2.01169 -0.41473 0
M  V30 4623 H 452.571 3.48758 1.67047 0
M  V30 4624 H 454.26 3.80916 1.40207 0
M  V30 4625 H 455.026 4.76785 -0.888856 0
M  V30 4626 H 450.905 4.59849 0.325604 0
M  V30 4627 H 454.449 6.48787 -2.56363 0
M  V30 4628 H 450.346 6.31412 -1.34126 0
M  V30 4629 H 451.114 7.63903 -2.93929 0
M  V30 4630 N 453.777 0.010035 1.57597 0
M  V30 4631 C 455.023 -0.673697 1.91283 0
M  V30 4632 C 455.356 -1.72863 0.884979 0
M  V30 4633 O 454.631 -1.94268 -0.0949487 0
M  V30 4634 C 454.914 -1.30766 3.35518 0
M  V30 4635 C 454.767 -0.263578 4.49027 0
M  V30 4636 C 456.086 -2.23105 3.79358 0
M  V30 4637 H 453.205 -0.243439 0.695634 0
M  V30 4638 H 455.847 0.0633864 1.89894 0
M  V30 4639 H 453.997 -1.93588 3.36832 0
M  V30 4640 H 455.669 0.365738 4.59848 0
M  V30 4641 H 453.912 0.413077 4.31829 0
M  V30 4642 H 454.583 -0.746398 5.4693 0
M  V30 4643 H 457.059 -1.70289 3.79659 0
M  V30 4644 H 455.935 -2.64424 4.81011 0
M  V30 4645 H 456.196 -3.11433 3.13787 0
M  V30 4646 N 455.255 -1.55392 -0.262866 0
M  V30 4647 C 456.666 -1.67079 -0.833158 0
M  V30 4648 C 457.017 -0.604539 -1.86654 0
M  V30 4649 O 456.142 0.252138 -2.14926 0
M  V30 4650 C 456.737 -3.02891 -1.51797 0
M  V30 4651 C 455.296 -3.16571 -2.03617 0
M  V30 4652 C 454.443 -2.62909 -0.881701 0
M  V30 4653 H 457.394 -1.58652 -0.0389986 0
M  V30 4654 H 457.415 -2.96445 -2.38538 0
M  V30 4655 H 456.927 -3.80473 -0.765619 0
M  V30 4656 H 455.028 -2.43782 -2.81782 0
M  V30 4657 H 455.141 -4.23271 -2.24452 0
M  V30 4658 H 453.505 -2.20324 -1.27786 0
M  V30 4659 H 454.288 -3.43003 -0.14269 0
M  V30 4660 N 456.733 0.527833 -1.48498 0
M  V30 4661 C 457.982 1.28003 -1.55878 0
M  V30 4662 C 458.295 1.9414 -0.238577 0
M  V30 4663 O 459.501 2.7083 -0.190643 0
M  V30 4664 C 457.957 2.32272 -2.74914 0
M  V30 4665 C 457.565 1.72196 -4.13585 0
M  V30 4666 C 459.309 3.08488 -2.91608 0
M  V30 4667 C 457.216 2.74417 -5.23879 0
M  V30 4668 H 456.146 0.481413 -0.580308 0
M  V30 4669 H 458.797 0.557195 -1.74836 0
M  V30 4670 H 457.179 3.07601 -2.49395 0
M  V30 4671 H 458.353 1.03041 -4.49132 0
M  V30 4672 H 456.668 1.08464 -4.02025 0
M  V30 4673 H 459.265 3.84879 -3.71177 0
M  V30 4674 H 459.608 3.64481 -2.01145 0
M  V30 4675 H 460.141 2.40274 -3.17038 0
M  V30 4676 H 456.88 2.23242 -6.16314 0
M  V30 4677 H 456.4 3.41893 -4.92818 0
M  V30 4678 H 458.079 3.37362 -5.52083 0
M  V30 4679 N 458.211 1.37122 0.776871 0
M  V30 4680 C 459.439 1.3523 1.5659 0
M  V30 4681 C 459.854 -0.0635518 1.88693 0
M  V30 4682 O 459.211 -1.02394 1.51069 0
M  V30 4683 C 459.262 2.18583 2.8793 0
M  V30 4684 O 458.983 3.5465 2.57206 0
M  V30 4685 C 460.484 2.24612 3.82183 0
M  V30 4686 H 457.704 0.4634 0.485285 0
M  V30 4687 H 460.248 1.80392 0.963266 0
M  V30 4688 H 458.403 1.76943 3.4463 0
M  V30 4689 H 458.817 3.98286 3.41275 0
M  V30 4690 H 460.291 2.87267 4.71361 0
M  V30 4691 H 460.768 1.25309 4.20944 0
M  V30 4692 H 461.374 2.66543 3.31414 0
M  V30 4693 N 459.689 -1.00246 1.21608 0
M  V30 4694 C 460.935 -1.74319 1.03638 0
M  V30 4695 C 461.268 -1.89408 -0.428749 0
M  V30 4696 O 460.543 -1.43026 -1.3181 0
M  V30 4697 C 460.826 -3.15431 1.73711 0
M  V30 4698 C 460.679 -3.08049 3.27759 0
M  V30 4699 C 461.998 -4.14407 1.48173 0
M  V30 4700 H 459.117 -0.632741 0.377899 0
M  V30 4701 H 461.759 -1.16853 1.49818 0
M  V30 4702 H 459.909 -3.64493 1.34452 0
M  V30 4703 H 461.581 -2.66681 3.76403 0
M  V30 4704 H 459.824 -2.45088 3.57931 0
M  V30 4705 H 460.495 -4.07862 3.71958 0
M  V30 4706 H 462.971 -3.74061 1.82258 0
M  V30 4707 H 461.847 -5.11279 1.99713 0
M  V30 4708 H 462.108 -4.40174 0.412273 0
M  V30 4709 N 461.167 -1.02423 -1.1978 0
M  V30 4710 C 462.395 -0.737456 -1.93311 0
M  V30 4711 C 462.81 0.703023 -1.75223 0
M  V30 4712 O 462.167 1.47761 -1.07112 0
M  V30 4713 C 462.218 -1.0733 -3.45199 0
M  V30 4714 O 461.939 -2.4572 -3.62702 0
M  V30 4715 C 463.44 -0.80866 -4.35862 0
M  V30 4716 H 460.66 -0.2702 -0.614193 0
M  V30 4717 H 463.204 -1.36747 -1.52054 0
M  V30 4718 H 461.359 -0.488545 -3.84307 0
M  V30 4719 H 461.773 -2.58081 -4.56612 0
M  V30 4720 H 463.247 -1.09365 -5.41057 0
M  V30 4721 H 463.724 0.257025 -4.38447 0
M  V30 4722 H 464.33 -1.37592 -4.02428 0
M  V30 4723 N 462.645 1.35699 -0.801477 0
M  V30 4724 C 463.891 1.99208 -0.380022 0
M  V30 4725 C 464.224 1.63445 1.04878 0
M  V30 4726 O 463.499 0.895223 1.72673 0
M  V30 4727 C 463.782 3.55755 -0.557708 0
M  V30 4728 C 463.635 4.01332 -2.03107 0
M  V30 4729 C 464.954 4.40096 0.0197968 0
M  V30 4730 H 462.073 0.723667 -0.139552 0
M  V30 4731 H 464.715 1.60928 -1.01006 0
M  V30 4732 H 462.865 3.88494 -0.0213741 0
M  V30 4733 H 464.537 3.79026 -2.62939 0
M  V30 4734 H 462.78 3.52429 -2.52936 0
M  V30 4735 H 463.451 5.10234 -2.1063 0
M  V30 4736 H 465.927 4.13786 -0.438179 0
M  V30 4737 H 464.803 5.48735 -0.134477 0
M  V30 4738 H 465.064 4.2786 1.11303 0
M  V30 4739 N 464.123 0.554532 1.47522 0
M  V30 4740 C 465.086 -0.184174 2.28459 0
M  V30 4741 C 466.086 -0.845195 1.36796 0
M  V30 4742 O 467.276 -0.701467 1.59452 0
M  V30 4743 C 464.408 -1.26903 3.16399 0
M  V30 4744 H 465.601 0.526751 2.95238 0
M  V30 4745 H 463.154 0.311375 1.53167 0
M  V30 4746 H 463.889 -2.01244 2.54306 0
M  V30 4747 H 463.674 -0.799883 3.83854 0
M  V30 4748 H 465.164 -1.78794 3.77389 0
M  V30 4749 N 465.601 -1.54893 0.290851 0
M  V30 4750 C 467.012 -1.85584 -0.203816 0
M  V30 4751 C 467.363 -1.21285 -1.54222 0
M  V30 4752 O 466.488 -0.506841 -2.10381 0
M  V30 4753 C 467.083 -3.367 -0.376595 0
M  V30 4754 C 465.642 -3.6746 -0.815485 0
M  V30 4755 C 464.789 -2.77178 0.0821087 0
M  V30 4756 H 467.74 -1.50208 0.512175 0
M  V30 4757 H 467.761 -3.60656 -1.21275 0
M  V30 4758 H 467.273 -3.8347 0.59767 0
M  V30 4759 H 465.374 -3.26201 -1.80066 0
M  V30 4760 H 465.487 -4.7478 -0.641905 0
M  V30 4761 H 463.851 -2.50925 -0.436895 0
M  V30 4762 H 464.634 -3.26767 1.05254 0
M  V30 4763 N 467.08 -0.0183926 -1.57589 0
M  V30 4764 C 468.013 1.00148 -2.0505 0
M  V30 4765 C 468.991 1.32387 -0.944058 0
M  V30 4766 O 470.175 1.44237 -1.21358 0
M  V30 4767 C 467.302 2.32435 -2.46357 0
M  V30 4768 C 466.348 2.15731 -3.67916 0
M  V30 4769 S 467.181 1.46613 -5.15039 0
M  V30 4770 C 468.337 2.80293 -5.59631 0
M  V30 4771 H 468.57 0.597429 -2.91235 0
M  V30 4772 H 466.103 0.193002 -1.53189 0
M  V30 4773 H 468.061 3.0849 -2.70822 0
M  V30 4774 H 466.722 2.69975 -1.60537 0
M  V30 4775 H 465.915 3.13502 -3.9463 0
M  V30 4776 H 465.517 1.4782 -3.43548 0
M  V30 4777 H 467.809 3.76557 -5.63215 0
M  V30 4778 H 468.752 2.58256 -6.59325 0
M  V30 4779 H 469.16 2.85047 -4.87246 0
M  V30 4780 N 468.558 1.5553 0.254621 0
M  V30 4781 C 469.798 1.7876 0.991179 0
M  V30 4782 C 470.162 0.586669 1.82817 0
M  V30 4783 O 471.363 0.697585 2.5959 0
M  V30 4784 C 469.634 3.06679 1.83529 0
M  V30 4785 S 471.193 3.511 2.632 0
M  V30 4786 H 468.011 0.627916 0.333531 0
M  V30 4787 H 470.613 1.93766 0.259778 0
M  V30 4788 H 469.317 3.92158 1.20996 0
M  V30 4789 H 468.848 2.94388 2.60958 0
M  V30 4790 H 470.863 3.11823 3.8598 0
M  V30 4791 N 470.036 -0.519951 1.48776 0
M  V30 4792 C 470.999 -1.60574 1.6355 0
M  V30 4793 C 471.999 -1.52557 0.508234 0
M  V30 4794 O 473.189 -1.56047 0.774262 0
M  V30 4795 C 470.321 -3.00211 1.61512 0
M  V30 4796 H 471.514 -1.4881 2.60376 0
M  V30 4797 H 469.067 -0.742772 1.37523 0
M  V30 4798 H 469.802 -3.17471 0.662009 0
M  V30 4799 H 469.587 -3.07439 2.43359 0
M  V30 4800 H 471.077 -3.79134 1.75064 0
M  V30 4801 N 471.514 -1.37532 -0.769588 0
M  V30 4802 C 472.424 -1.35668 -1.91393 0
M  V30 4803 C 473.44 -0.255954 -1.72107 0
M  V30 4804 O 474.616 -0.491704 -1.95305 0
M  V30 4805 C 471.681 -1.16481 -3.26547 0
M  V30 4806 C 470.742 -2.36212 -3.58472 0
M  V30 4807 C 469.975 -2.17932 -4.87177 0
M  V30 4808 O 470.198 -1.1647 -5.58382 0
M  V30 4809 O 469.132 -3.06167 -5.18214 0
M  V30 4810 H 472.958 -2.32055 -1.95918 0
M  V30 4811 H 470.543 -1.18284 -0.912641 0
M  V30 4812 H 472.425 -1.07778 -4.07384 0
M  V30 4813 H 471.1 -0.231687 -3.2287 0
M  V30 4814 H 470.007 -2.50488 -2.77861 0
M  V30 4815 H 471.34 -3.281 -3.66894 0
M  V30 4816 N 472.992 0.995999 -1.22138 0
M  V30 4817 C 474.222 1.76809 -1.06874 0
M  V30 4818 C 474.63 1.85265 0.383866 0
M  V30 4819 O 473.973 1.31969 1.27789 0
M  V30 4820 C 474.035 3.2186 -1.60144 0
M  V30 4821 C 473.699 3.36958 -3.0872 0
M  V30 4822 C 474.696 3.2452 -4.0618 0
M  V30 4823 C 472.381 3.62109 -3.48112 0
M  V30 4824 C 474.375 3.37013 -5.41019 0
M  V30 4825 C 472.062 3.74243 -4.831 0
M  V30 4826 C 473.06 3.61702 -5.79362 0
M  V30 4827 O 472.748 3.73436 -7.119 0
M  V30 4828 H 472.48 0.562207 -0.375365 0
M  V30 4829 H 475.034 1.26113 -1.62125 0
M  V30 4830 H 473.264 3.73734 -0.992981 0
M  V30 4831 H 474.953 3.80775 -1.40589 0
M  V30 4832 H 475.719 3.05004 -3.77091 0
M  V30 4833 H 471.598 3.70949 -2.73712 0
M  V30 4834 H 475.142 3.27141 -6.16137 0
M  V30 4835 H 471.039 3.93266 -5.11872 0
M  V30 4836 H 471.807 3.90328 -7.19435 0
M  V30 4837 N 474.47 1.03057 1.19235 0
M  V30 4838 C 475.418 0.606391 2.24557 0
M  V30 4839 C 476.412 -0.361826 1.65491 0
M  V30 4840 O 477.618 -0.23022 1.78522 0
M  V30 4841 H 473.993 0.177838 0.730669 0
M  V30 4842 H 475.964 1.50529 2.5765 0
M  V30 4843 C 474.713 -0.0252127 3.47691 0
M  V30 4844 H 474.036 0.710838 3.9343 0
M  V30 4845 H 475.476 -0.284931 4.23042 0
M  V30 4846 C 473.935 -1.27229 3.11953 0
M  V30 4847 O 474.465 -2.36416 3.24762 0
M  V30 4848 N 472.671 -1.16169 2.6637 0
M  V30 4849 H 472.218 -0.273189 2.56147 0
M  V30 4850 H 472.176 -1.99703 2.42829 0
M  V30 4851 N 475.948 -1.35272 0.808662 0
M  V30 4852 C 477.196 -1.98316 0.389233 0
M  V30 4853 C 477.517 -1.64465 -1.04767 0
M  V30 4854 O 476.787 -0.928175 -1.72516 0
M  V30 4855 H 475.367 -0.733585 0.140935 0
M  V30 4856 H 478.029 -1.6515 1.03496 0
M  V30 4857 H 477.125 -3.08123 0.496631 0
M  V30 4858 N 477.426 -0.562348 -1.47226 0
M  V30 4859 C 478.356 0.170627 -2.32876 0
M  V30 4860 C 479.337 0.903748 -1.44106 0
M  V30 4861 O 480.522 0.883206 -1.72954 0
M  V30 4862 C 477.652 1.19786 -3.25989 0
M  V30 4863 C 476.606 0.580875 -4.2404 0
M  V30 4864 C 475.932 1.71311 -5.06514 0
M  V30 4865 C 477.232 -0.468714 -5.20193 0
M  V30 4866 H 478.926 -0.544441 -2.94408 0
M  V30 4867 H 476.472 -0.263271 -1.41573 0
M  V30 4868 H 478.425 1.71884 -3.84752 0
M  V30 4869 H 477.149 1.94294 -2.62521 0
M  V30 4870 H 475.808 0.0811538 -3.6651 0
M  V30 4871 H 475.456 2.44736 -4.39447 0
M  V30 4872 H 475.156 1.30604 -5.72902 0
M  V30 4873 H 476.68 2.23725 -5.68137 0
M  V30 4874 H 478.094 -0.0336028 -5.7329 0
M  V30 4875 H 476.491 -0.794957 -5.94811 0
M  V30 4876 H 477.561 -1.36269 -4.65359 0
M  V30 4877 N 478.904 1.54736 -0.299062 0
M  V30 4878 C 480.32 1.59507 0.0543849 0
M  V30 4879 C 480.52 1.31606 1.52585 0
M  V30 4880 O 479.576 1.08853 2.27832 0
M  V30 4881 C 480.889 2.98751 -0.34181 0
M  V30 4882 C 482.437 3.1165 -0.290414 0
M  V30 4883 C 482.912 4.53199 -0.661402 0
M  V30 4884 N 484.403 4.59114 -0.613863 0
M  V30 4885 C 485.138 5.66709 -0.873417 0
M  V30 4886 N 484.634 6.82349 -1.19884 0
M  V30 4887 N 486.427 5.56369 -0.800608 0
M  V30 4888 H 478.578 1.71133 -1.25806 0
M  V30 4889 H 480.841 0.799186 -0.509908 0
M  V30 4890 H 480.547 3.24085 -1.36608 0
M  V30 4891 H 480.421 3.75961 0.305508 0
M  V30 4892 H 482.808 2.86066 0.724605 0
M  V30 4893 H 482.889 2.366 -0.972327 0
M  V30 4894 H 482.533 4.79513 -1.67422 0
M  V30 4895 H 482.463 5.26583 0.0425612 0
M  V30 4896 H 484.954 3.76053 -0.3732 0
M  V30 4897 H 485.267 7.60326 -1.38291 0
M  V30 4898 H 483.612 6.83906 -1.23685 0
M  V30 4899 H 486.803 4.64904 -0.546045 0
M  V30 4900 H 486.976 6.40139 -1.00626 0
M  V30 4901 N 480.382 0.0267497 1.57577 0
M  V30 4902 C 481.312 -0.954308 2.13108 0
M  V30 4903 C 482.293 -1.34088 1.04663 0
M  V30 4904 O 483.478 -1.41992 1.32484 0
M  V30 4905 C 480.608 -2.23744 2.65624 0
M  V30 4906 C 479.562 -1.99168 3.78835 0
M  V30 4907 C 478.888 -3.33726 4.17769 0
M  V30 4908 C 480.188 -1.33277 5.0501 0
M  V30 4909 H 481.882 -0.491848 2.95332 0
M  V30 4910 H 479.428 -0.23514 1.42067 0
M  V30 4911 H 481.381 -2.92754 3.03106 0
M  V30 4912 H 480.105 -2.72151 1.80558 0
M  V30 4913 H 478.764 -1.32577 3.41788 0
M  V30 4914 H 478.412 -3.79888 3.29688 0
M  V30 4915 H 478.112 -3.18089 4.94058 0
M  V30 4916 H 479.636 -4.04008 4.57832 0
M  V30 4917 H 481.05 -1.92283 5.40093 0
M  V30 4918 H 479.447 -1.28045 5.8628 0
M  V30 4919 H 480.517 -0.305411 4.83937 0
M  V30 4920 N 481.861 -1.55662 -0.24637 0
M  V30 4921 C 482.824 -1.89558 -1.28842 0
M  V30 4922 C 483.824 -0.772082 -1.41052 0
M  V30 4923 O 485.014 -1.04007 -1.39743 0
M  V30 4924 C 482.146 -2.12449 -2.66605 0
M  V30 4925 H 483.339 -2.82735 -1.00004 0
M  V30 4926 H 480.892 -1.48562 -0.485684 0
M  V30 4927 H 481.627 -1.21742 -3.00582 0
M  V30 4928 H 481.412 -2.94273 -2.59125 0
M  V30 4929 H 482.902 -2.39854 -3.41847 0
M  V30 4930 N 483.339 0.512053 -1.4905 0
M  V30 4931 C 484.587 1.26436 -1.57665 0
M  V30 4932 C 484.908 1.93255 -0.260293 0
M  V30 4933 O 484.178 1.82206 0.719564 0
M  V30 4934 H 482.758 0.469658 -0.580888 0
M  V30 4935 H 485.42 0.594398 -1.85615 0
M  V30 4936 H 484.516 2.03417 -2.36702 0
M  V30 4937 N 484.817 1.37938 0.762283 0
M  V30 4938 C 485.767 1.30976 1.86626 0
M  V30 4939 C 486.751 0.195714 1.59705 0
M  V30 4940 O 487.943 0.430937 1.71674 0
M  V30 4941 C 485.072 1.12847 3.24223 0
M  V30 4942 C 484.158 2.28836 3.57064 0
M  V30 4943 N 484.549 3.54256 3.61022 0
M  V30 4944 C 482.847 2.21198 3.87282 0
M  V30 4945 C 483.548 4.30798 3.90881 0
M  V30 4946 N 482.524 3.60049 4.07266 0
M  V30 4947 H 486.326 2.25946 1.87951 0
M  V30 4948 H 483.84 1.31046 0.959206 0
M  V30 4949 H 485.837 1.05943 4.03214 0
M  V30 4950 H 484.497 0.188024 3.24155 0
M  V30 4951 H 485.508 3.8804 3.42995 0
M  V30 4952 H 482.185 1.35264 3.94981 0
M  V30 4953 H 483.575 5.39386 4.00639 0
M  V30 4954 N 486.295 -0.989507 1.22664 0
M  V30 4955 C 487.227 -2.0824 0.957542 0
M  V30 4956 C 488.24 -1.6267 -0.0651098 0
M  V30 4957 O 489.429 -1.77695 0.169312 0
M  V30 4958 C 486.529 -3.36298 0.419145 0
M  V30 4959 C 485.702 -4.10882 1.49982 0
M  V30 4960 C 484.761 -5.17221 0.967904 0
M  V30 4961 O 483.787 -5.44613 1.65487 0
M  V30 4962 N 484.989 -5.80124 -0.20896 0
M  V30 4963 H 487.754 -2.31904 1.89843 0
M  V30 4964 H 485.315 -1.15552 1.13399 0
M  V30 4965 H 487.307 -4.04671 0.0485451 0
M  V30 4966 H 485.877 -3.09671 -0.426937 0
M  V30 4967 H 485.097 -3.37092 2.04359 0
M  V30 4968 H 486.385 -4.57482 2.22682 0
M  V30 4969 H 485.783 -5.60244 -0.783818 0
M  V30 4970 H 484.34 -6.49715 -0.520913 0
M  V30 4971 N 487.773 -1.03688 -1.18687 0
M  V30 4972 C 489.021 -0.736572 -1.88199 0
M  V30 4973 C 489.342 0.737665 -1.80509 0
M  V30 4974 O 488.612 1.53204 -1.22088 0
M  V30 4975 H 487.192 -0.269466 -0.696704 0
M  V30 4976 H 489.854 -1.31282 -1.44052 0
M  V30 4977 H 488.95 -1.03802 -2.94332 0
M  V30 4978 N 489.251 1.34841 -0.815825 0
M  V30 4979 C 490.181 2.32187 -0.247298 0
M  V30 4980 C 491.162 1.5791 0.632344 0
M  V30 4981 O 492.347 1.8593 0.560698 0
M  V30 4982 C 489.477 3.42122 0.597466 0
M  V30 4983 C 488.431 4.27602 -0.184446 0
M  V30 4984 C 487.757 5.28942 0.782609 0
M  V30 4985 C 489.057 5.03502 -1.38865 0
M  V30 4986 H 490.751 2.79985 -1.06061 0
M  V30 4987 H 488.297 1.34611 -0.511461 0
M  V30 4988 H 490.25 4.09232 1.00533 0
M  V30 4989 H 488.974 2.92956 1.44376 0
M  V30 4990 H 487.633 3.62085 -0.573592 0
M  V30 4991 H 487.281 4.7604 1.62466 0
M  V30 4992 H 486.981 5.87008 0.263695 0
M  V30 4993 H 488.505 5.98922 1.18848 0
M  V30 4994 H 489.919 5.63506 -1.05518 0
M  V30 4995 H 488.316 5.71108 -1.8427 0
M  V30 4996 H 489.386 4.33608 -2.17054 0
M  V30 4997 N 490.729 0.570148 1.46925 0
M  V30 4998 C 492.14 0.1402 1.86173 0
M  V30 4999 C 492.491 -1.29347 1.47526 0
M  V30 5000 O 491.616 -1.97508 0.884292 0
M  V30 5001 C 492.211 0.247661 3.37894 0
M  V30 5002 C 490.77 -0.127332 3.76185 0
M  V30 5003 C 489.917 0.589349 2.70965 0
M  V30 5004 H 492.868 0.779117 1.38259 0
M  V30 5005 H 492.889 -0.530341 3.76786 0
M  V30 5006 H 492.401 1.29121 3.65991 0
M  V30 5007 H 490.502 -1.17149 3.53704 0
M  V30 5008 H 490.615 0.240238 4.78497 0
M  V30 5009 H 488.979 0.0309824 2.54681 0
M  V30 5010 H 489.762 1.6343 3.01903 0
M  V30 5011 N 492.207 -1.54576 0.307264 0
M  V30 5012 C 493.435 -2.04675 -0.302597 0
M  V30 5013 C 493.85 -1.18425 -1.47041 0
M  V30 5014 O 493.207 -0.211257 -1.81273 0
M  V30 5015 C 493.258 -3.53575 -0.752801 0
M  V30 5016 O 492.979 -4.36547 0.368536 0
M  V30 5017 C 494.48 -4.19699 -1.42717 0
M  V30 5018 H 491.7 -0.66786 -0.0648374 0
M  V30 5019 H 494.244 -1.99516 0.448716 0
M  V30 5020 H 492.399 -3.59074 -1.45412 0
M  V30 5021 H 492.813 -5.24497 0.0168937 0
M  V30 5022 H 494.287 -5.25388 -1.69327 0
M  V30 5023 H 494.764 -3.69815 -2.36925 0
M  V30 5024 H 495.37 -4.18293 -0.768856 0
M  V30 5025 N 493.685 -0.035106 -1.57561 0
M  V30 5026 C 494.618 0.979673 -2.06101 0
M  V30 5027 C 495.596 1.31378 -0.958046 0
M  V30 5028 O 496.78 1.42942 -1.22881 0
M  V30 5029 C 493.907 2.29809 -2.48808 0
M  V30 5030 C 492.953 2.11817 -3.70184 0
M  V30 5031 S 493.786 1.41143 -5.16565 0
M  V30 5032 C 494.942 2.74341 -5.62572 0
M  V30 5033 H 495.175 0.566506 -2.91853 0
M  V30 5034 H 492.708 0.176744 -1.53385 0
M  V30 5035 H 494.666 3.056 -2.74078 0
M  V30 5036 H 493.327 2.68257 -1.63392 0
M  V30 5037 H 492.52 3.09299 -3.97933 0
M  V30 5038 H 492.122 1.44168 -3.45097 0
M  V30 5039 H 494.414 3.70562 -5.67177 0
M  V30 5040 H 495.357 2.51249 -6.62027 0
M  V30 5041 H 495.765 2.79863 -4.90242 0
M  V30 5042 N 495.163 1.55791 0.238111 0
M  V30 5043 C 496.111 1.91885 1.31464 0
M  V30 5044 C 497.105 0.798929 1.49377 0
M  V30 5045 O 498.311 0.983626 1.50747 0
M  V30 5046 H 494.686 0.609551 0.440399 0
M  V30 5047 H 496.657 2.81747 0.982925 0
M  V30 5048 C 495.406 2.23763 2.6613 0
M  V30 5049 H 494.729 3.09444 2.53149 0
M  V30 5050 H 496.169 2.52915 3.40309 0
M  V30 5051 C 494.628 1.05699 3.1989 0
M  V30 5052 O 495.158 0.309524 4.00506 0
M  V30 5053 N 493.364 0.845251 2.78036 0
M  V30 5054 H 492.911 1.4548 2.12588 0
M  V30 5055 H 492.869 0.0569973 3.14348 0
M  V30 5056 N 496.642 -0.504142 1.49319 0
M  V30 5057 C 497.87 -1.28256 1.62351 0
M  V30 5058 C 498.285 -1.86502 0.293682 0
M  V30 5059 O 497.642 -1.67678 -0.720449 0
M  V30 5060 C 497.693 -2.41507 2.68992 0
M  V30 5061 O 497.414 -1.85656 3.96817 0
M  V30 5062 C 498.915 -3.32929 2.927 0
M  V30 5063 H 496.135 -0.389115 0.546654 0
M  V30 5064 H 498.679 -0.605531 1.95329 0
M  V30 5065 H 496.834 -3.05046 2.38801 0
M  V30 5066 H 497.248 -2.59981 4.55533 0
M  V30 5067 H 498.722 -4.0868 3.71058 0
M  V30 5068 H 499.199 -3.89733 2.02496 0
M  V30 5069 H 499.805 -2.75158 3.24296 0
M  V30 5070 N 498.12 -1.38341 -0.754957 0
M  V30 5071 C 499.531 -1.30803 -1.3322 0
M  V30 5072 C 499.882 0.0368 -1.96165 0
M  V30 5073 O 499.007 0.938844 -1.94974 0
M  V30 5074 C 499.602 -2.3688 -2.42225 0
M  V30 5075 C 498.161 -2.32925 -2.95674 0
M  V30 5076 C 497.308 -2.19819 -1.69042 0
M  V30 5077 H 500.259 -1.48719 -0.553937 0
M  V30 5078 H 500.28 -2.02517 -3.22129 0
M  V30 5079 H 499.792 -3.34747 -1.96383 0
M  V30 5080 H 497.893 -1.38635 -3.45848 0
M  V30 5081 H 498.006 -3.27008 -3.50146 0
M  V30 5082 H 496.37 -1.66648 -1.92615 0
M  V30 5083 H 497.153 -3.19625 -1.25279 0
M  V30 5084 N 499.598 0.982988 -1.23187 0
M  V30 5085 C 500.846 1.72052 -1.06031 0
M  V30 5086 C 501.167 1.90769 0.404019 0
M  V30 5087 O 500.437 1.47446 1.28982 0
M  V30 5088 H 499.017 0.637499 -0.389363 0
M  V30 5089 H 501.679 1.18338 -1.54862 0
M  V30 5090 H 500.775 2.7111 -1.54615 0
M  V30 5091 N 501.076 1.04316 1.18135 0
M  V30 5092 C 502.301 0.768047 1.92655 0
M  V30 5093 C 502.726 -0.66904 1.758 0
M  V30 5094 O 502.084 -1.46372 1.06981 0
M  V30 5095 C 502.132 1.14239 3.42026 0
M  V30 5096 O 501.236 0.269333 4.1152 0
M  V30 5097 H 500.577 0.282436 0.600937 0
M  V30 5098 H 503.107 1.39367 1.49793 0
M  V30 5099 H 503.117 1.10538 3.92741 0
M  V30 5100 H 501.792 2.18928 3.53615 0
M  V30 5101 H 500.369 0.366175 3.71098 0
M  V30 5102 N 502.554 -1.34406 0.822964 0
M  V30 5103 C 503.502 -2.31428 0.233165 0
M  V30 5104 C 504.496 -1.57404 -0.626118 0
M  V30 5105 O 505.702 -1.72402 -0.517453 0
M  V30 5106 H 502.077 -0.749863 0.0566557 0
M  V30 5107 H 504.048 -2.78699 1.06628 0
M  V30 5108 C 502.797 -3.42653 -0.590264 0
M  V30 5109 H 502.12 -3.99753 0.0616129 0
M  V30 5110 H 503.56 -4.12778 -0.969054 0
M  V30 5111 C 502.019 -2.87112 -1.76262 0
M  V30 5112 O 502.549 -2.81995 -2.8608 0
M  V30 5113 N 500.755 -2.43934 -1.57938 0
M  V30 5114 H 500.302 -2.48296 -0.686078 0
M  V30 5115 H 500.26 -2.07123 -2.36532 0
M  V30 5116 N 504.032 -0.577932 -1.46621 0
M  V30 5117 C 504.964 0.195801 -2.28362 0
M  V30 5118 C 505.977 0.859983 -1.38232 0
M  V30 5119 O 507.166 0.730349 -1.62875 0
M  V30 5120 C 504.266 1.29639 -3.13124 0
M  V30 5121 C 503.439 0.725049 -4.31349 0
M  V30 5122 C 502.498 1.71274 -4.97546 0
M  V30 5123 O 501.524 1.25067 -5.5529 0
M  V30 5124 N 502.726 3.04672 -4.94121 0
M  V30 5125 H 505.491 -0.505468 -2.95407 0
M  V30 5126 H 503.052 -0.415381 -1.56481 0
M  V30 5127 H 505.044 1.95631 -3.54275 0
M  V30 5128 H 503.614 1.90059 -2.48186 0
M  V30 5129 H 502.834 -0.112205 -3.9404 0
M  V30 5130 H 504.122 0.323034 -5.07774 0
M  V30 5131 H 503.52 3.4484 -4.48444 0
M  V30 5132 H 502.077 3.66166 -5.39227 0
M  V30 5133 N 505.51 1.54411 -0.315457 0
M  V30 5134 C 506.757 2.00419 0.289543 0
M  V30 5135 C 507.085 1.20373 1.52776 0
M  V30 5136 O 506.34 0.271769 1.93804 0
M  V30 5137 C 506.639 3.50936 0.676652 0
M  V30 5138 C 506.305 4.48532 -0.461472 0
M  V30 5139 C 504.967 4.74936 -0.773879 0
M  V30 5140 C 507.319 5.06567 -1.22637 0
M  V30 5141 C 504.647 5.56634 -1.85405 0
M  V30 5142 C 506.999 5.89441 -2.29657 0
M  V30 5143 C 505.663 6.1415 -2.61488 0
M  V30 5144 H 504.933 0.733386 0.105951 0
M  V30 5145 H 507.58 1.86434 -0.437554 0
M  V30 5146 H 505.885 3.62606 1.48405 0
M  V30 5147 H 507.582 3.83971 1.15618 0
M  V30 5148 H 504.172 4.28096 -0.207893 0
M  V30 5149 H 508.356 4.86157 -0.998271 0
M  V30 5150 H 503.612 5.74012 -2.10523 0
M  V30 5151 H 507.786 6.33432 -2.89374 0
M  V30 5152 H 505.413 6.77245 -3.45317 0
M  V30 5153 N 506.988 0.0434614 1.5754 0
M  V30 5154 C 507.918 -0.931651 2.14109 0
M  V30 5155 C 508.899 -1.32971 1.06079 0
M  V30 5156 O 510.084 -1.40579 1.33982 0
M  V30 5157 C 507.214 -2.20914 2.67982 0
M  V30 5158 C 506.168 -1.95139 3.80926 0
M  V30 5159 C 505.494 -3.29276 4.21285 0
M  V30 5160 C 506.794 -1.27913 5.06395 0
M  V30 5161 H 508.488 -0.460497 2.95837 0
M  V30 5162 H 506.034 -0.220058 1.42309 0
M  V30 5163 H 507.987 -2.89522 3.06194 0
M  V30 5164 H 506.711 -2.70221 1.83434 0
M  V30 5165 H 505.37 -1.28945 3.43175 0
M  V30 5166 H 505.018 -3.76369 3.33699 0
M  V30 5167 H 504.718 -3.12831 4.97404 0
M  V30 5168 H 506.242 -3.99129 4.62091 0
M  V30 5169 H 507.656 -1.86544 5.42102 0
M  V30 5170 H 506.053 -1.2182 5.87605 0
M  V30 5171 H 507.123 -0.254066 4.84234 0
M  V30 5172 N 508.466 -1.55915 -0.229846 0
M  V30 5173 C 509.694 -1.82617 -0.972562 0
M  V30 5174 C 510.109 -0.621488 -1.78278 0
M  V30 5175 O 509.466 0.409956 -1.77836 0
M  V30 5176 C 509.517 -3.0774 -1.89679 0
M  V30 5177 O 509.238 -4.23559 -1.11934 0
M  V30 5178 C 510.739 -3.47368 -2.75409 0
M  V30 5179 H 507.959 -0.60727 -0.285419 0
M  V30 5180 H 510.503 -2.02996 -0.247579 0
M  V30 5181 H 508.658 -2.89361 -2.57583 0
M  V30 5182 H 509.072 -4.94586 -1.74599 0
M  V30 5183 H 510.546 -4.37977 -3.35977 0
M  V30 5184 H 511.023 -2.68737 -3.47386 0
M  V30 5185 H 511.629 -3.68158 -2.12931 0
M  V30 5186 N 509.944 0.496216 -1.49584 0
M  V30 5187 C 511.169 1.27865 -1.63295 0
M  V30 5188 C 511.594 1.85592 -0.306156 0
M  V30 5189 O 510.952 1.66092 0.726851 0
M  V30 5190 C 511 2.38128 -2.7079 0
M  V30 5191 O 510.104 3.42108 -2.30296 0
M  V30 5192 H 509.445 0.377279 -0.546403 0
M  V30 5193 H 511.975 0.593497 -1.95803 0
M  V30 5194 H 511.985 2.8382 -2.93104 0
M  V30 5195 H 510.66 1.95479 -3.67098 0
M  V30 5196 H 509.237 3.02301 -2.18331 0
M  V30 5197 N 511.423 1.38739 0.74761 0
M  V30 5198 C 512.7 1.25791 1.49786 0
M  V30 5199 C 513.08 -0.138075 2.10648 0
M  V30 5200 O 512.428 -1.14815 1.9756 0
M  V30 5201 C 512.638 2.37265 2.55942 0
M  V30 5202 C 513.986 2.75978 3.22679 0
M  V30 5203 O 515.01 2.36621 2.6625 0
M  V30 5204 O 513.869 3.43867 4.24756 0
M  V30 5205 H 510.963 0.492251 0.664543 0
M  V30 5206 H 513.509 1.50582 0.782511 0
M  V30 5207 H 512.281 3.30644 2.0926 0
M  V30 5208 H 511.904 2.14071 3.35051 0
M  V30 5209 N 512.901 -0.976442 1.23707 0
M  V30 5210 C 514.178 -1.69296 0.979699 0
M  V30 5211 C 514.558 -2.0508 -0.500555 0
M  V30 5212 O 513.906 -1.74708 -1.47273 0
M  V30 5213 C 514.116 -2.93143 1.89389 0
M  V30 5214 C 515.464 -3.65572 2.15968 0
M  V30 5215 O 516.488 -3.03184 1.86971 0
M  V30 5216 O 515.347 -4.77859 2.65167 0
M  V30 5217 H 512.441 -0.739708 0.369812 0
M  V30 5218 H 514.987 -1.03131 1.34767 0
M  V30 5219 H 513.759 -2.63327 2.89439 0
M  V30 5220 H 513.382 -3.67044 1.52854 0
M  V30 5221 N 514.379 -1.04941 -1.1758 0
M  V30 5222 C 515.626 -0.757989 -1.87779 0
M  V30 5223 C 515.954 0.714827 -1.80888 0
M  V30 5224 O 515.209 1.53824 -1.20982 0
M  V30 5225 C 515.508 -1.18062 -3.37337 0
M  V30 5226 C 515.174 -2.65521 -3.6443 0
M  V30 5227 C 513.836 -3.05804 -3.71534 0
M  V30 5228 C 516.188 -3.60822 -3.76108 0
M  V30 5229 C 513.516 -4.40256 -3.87803 0
M  V30 5230 C 515.868 -4.95005 -3.93895 0
M  V30 5231 C 514.532 -5.34945 -3.99237 0
M  V30 5232 H 513.802 -0.277368 -0.68713 0
M  V30 5233 H 516.449 -1.31603 -1.39115 0
M  V30 5234 H 514.754 -0.541525 -3.8804 0
M  V30 5235 H 516.451 -0.932368 -3.9001 0
M  V30 5236 H 513.041 -2.33324 -3.59524 0
M  V30 5237 H 517.225 -3.30841 -3.69943 0
M  V30 5238 H 512.481 -4.70707 -3.90186 0
M  V30 5239 H 516.655 -5.68746 -4.01872 0
M  V30 5240 H 514.282 -6.39135 -4.11596 0
M  V30 5241 N 515.857 1.33968 -0.830081 0
M  V30 5242 C 516.789 2.28194 -0.21448 0
M  V30 5243 C 517.802 1.5135 0.599752 0
M  V30 5244 O 518.991 1.73286 0.42826 0
M  V30 5245 C 516.091 3.31221 0.717356 0
M  V30 5246 C 515.264 4.37365 -0.055613 0
M  V30 5247 C 514.323 5.2011 0.798231 0
M  V30 5248 O 513.349 5.68691 0.240616 0
M  V30 5249 N 514.551 5.40523 2.11695 0
M  V30 5250 H 517.316 2.81662 -1.02405 0
M  V30 5251 H 514.877 1.46568 -0.687713 0
M  V30 5252 H 516.869 3.83477 1.29334 0
M  V30 5253 H 515.439 2.78095 1.42765 0
M  V30 5254 H 514.659 3.85727 -0.812936 0
M  V30 5255 H 515.947 5.05397 -0.587444 0
M  V30 5256 H 515.345 5.0274 2.59363 0
M  V30 5257 H 513.902 5.95871 2.64162 0
M  V30 5258 N 517.335 0.585699 1.46312 0
M  V30 5259 C 518.56 0.0762461 2.0726 0
M  V30 5260 C 518.985 -1.22071 1.43109 0
M  V30 5261 O 518.343 -1.73804 0.515942 0
M  V30 5262 C 518.391 -0.0729404 3.60526 0
M  V30 5263 O 517.495 -1.1287 3.96654 0
M  V30 5264 H 516.836 0.0641558 0.660893 0
M  V30 5265 H 519.366 0.809492 1.87905 0
M  V30 5266 H 519.376 -0.278158 4.07051 0
M  V30 5267 H 518.051 0.874188 4.06609 0
M  V30 5268 H 516.628 -0.901703 3.61834 0
M  V30 5269 N 518.813 -1.54241 0.323641 0
M  V30 5270 C 520.224 -1.85975 -0.164405 0
M  V30 5271 C 520.575 -1.24529 -1.51615 0
M  V30 5272 O 519.7 -0.551351 -2.09258 0
M  V30 5273 C 520.295 -3.37424 -0.305091 0
M  V30 5274 C 518.854 -3.69107 -0.737358 0
M  V30 5275 C 518.001 -2.76942 0.140884 0
M  V30 5276 H 520.952 -1.49088 0.543922 0
M  V30 5277 H 520.973 -3.63147 -1.13598 0
M  V30 5278 H 520.485 -3.82116 0.678876 0
M  V30 5279 H 518.586 -3.29947 -1.73107 0
M  V30 5280 H 518.699 -4.76035 -0.541053 0
M  V30 5281 H 517.063 -2.51795 -0.383572 0
M  V30 5282 H 517.846 -3.24461 1.12162 0
M  V30 5283 N 520.291 -0.0518155 -1.57515 0
M  V30 5284 C 521.516 0.634896 -1.97443 0
M  V30 5285 C 521.941 1.63546 -0.929207 0
M  V30 5286 O 521.299 1.80981 0.107484 0
M  V30 5287 C 521.347 1.29765 -3.36442 0
M  V30 5288 O 520.451 2.41333 -3.34413 0
M  V30 5289 H 519.792 0.164994 -0.643174 0
M  V30 5290 H 522.322 -0.120407 -2.04245 0
M  V30 5291 H 522.332 1.64918 -3.73184 0
M  V30 5292 H 521.007 0.564361 -4.12053 0
M  V30 5293 H 519.584 2.08122 -3.09418 0
M  V30 5294 N 521.769 1.56035 0.221574 0
M  V30 5295 C 522.732 1.91584 1.2581 0
M  V30 5296 C 523.732 0.794425 1.39805 0
M  V30 5297 O 524.922 1.06217 1.38071 0
M  V30 5298 C 522.054 2.16663 2.63192 0
M  V30 5299 H 523.247 2.8429 0.954935 0
M  V30 5300 H 520.8 1.49316 0.461988 0
M  V30 5301 H 521.535 1.26508 2.98607 0
M  V30 5302 H 521.32 2.98358 2.5441 0
M  V30 5303 H 522.81 2.45262 3.37988 0
M  V30 5304 N 523.247 -0.488276 1.49845 0
M  V30 5305 C 524.18 -1.60651 1.62069 0
M  V30 5306 C 525.158 -1.5568 0.469308 0
M  V30 5307 O 526.342 -1.75553 0.686551 0
M  V30 5308 C 523.469 -2.99197 1.58741 0
M  V30 5309 C 522.515 -3.22385 2.79232 0
M  V30 5310 S 523.348 -3.04133 4.40753 0
M  V30 5311 C 524.504 -4.45052 4.4009 0
M  V30 5312 H 524.737 -1.50039 2.56662 0
M  V30 5313 H 522.27 -0.674371 1.38894 0
M  V30 5314 H 524.228 -3.79081 1.57506 0
M  V30 5315 H 522.889 -3.07213 0.654136 0
M  V30 5316 H 522.082 -4.23557 2.73159 0
M  V30 5317 H 521.684 -2.50245 2.77945 0
M  V30 5318 H 523.976 -5.37375 4.12594 0
M  V30 5319 H 524.919 -4.56172 5.41583 0
M  V30 5320 H 525.327 -4.26327 3.70008 0
M  V30 5321 N 524.725 -1.39134 -0.740242 0
M  V30 5322 C 526.136 -1.32208 -1.31825 0
M  V30 5323 C 526.487 0.0159919 -1.96193 0
M  V30 5324 O 525.612 0.918111 -1.95958 0
M  V30 5325 C 526.207 -2.39436 -2.39699 0
M  V30 5326 C 524.766 -2.36048 -2.93187 0
M  V30 5327 C 523.913 -2.21599 -1.66701 0
M  V30 5328 H 526.864 -1.49298 -0.538133 0
M  V30 5329 H 526.885 -2.05922 -3.19963 0
M  V30 5330 H 526.397 -3.36811 -1.92821 0
M  V30 5331 H 524.498 -1.42295 -3.44359 0
M  V30 5332 H 524.611 -3.30704 -3.46658 0
M  V30 5333 H 522.975 -1.68681 -1.90837 0
M  V30 5334 H 523.758 -3.20936 -1.21882 0
M  V30 5335 N 526.204 0.969867 -1.24223 0
M  V30 5336 C 527.136 2.0669 -0.99055 0
M  V30 5337 C 528.149 1.62753 0.0392222 0
M  V30 5338 O 529.338 1.77403 -0.197561 0
M  V30 5339 C 526.438 3.35589 -0.472594 0
M  V30 5340 C 525.611 4.08444 -1.56499 0
M  V30 5341 C 524.67 5.15616 -1.05007 0
M  V30 5342 O 523.696 5.41911 -1.7413 0
M  V30 5343 N 524.898 5.80383 0.116641 0
M  V30 5344 H 527.663 2.28855 -1.93508 0
M  V30 5345 H 525.224 1.13733 -1.15223 0
M  V30 5346 H 527.216 4.04542 -0.112919 0
M  V30 5347 H 525.786 3.10311 0.377617 0
M  V30 5348 H 525.006 3.33798 -2.09696 0
M  V30 5349 H 526.294 4.53882 -2.29932 0
M  V30 5350 H 525.692 5.6142 0.694589 0
M  V30 5351 H 524.249 6.50462 0.417483 0
M  V30 5352 N 527.682 1.05563 1.17022 0
M  V30 5353 C 528.929 0.767937 1.87374 0
M  V30 5354 C 529.257 -0.705224 1.81265 0
M  V30 5355 O 528.512 -1.5318 1.21796 0
M  V30 5356 C 528.811 1.19849 3.36706 0
M  V30 5357 C 528.477 2.6745 3.63017 0
M  V30 5358 C 527.139 3.0777 3.69907 0
M  V30 5359 C 529.491 3.62811 3.74189 0
M  V30 5360 C 526.819 4.42307 3.85463 0
M  V30 5361 C 529.171 4.97087 3.91264 0
M  V30 5362 C 527.835 5.37055 3.96394 0
M  V30 5363 H 527.105 0.281008 0.68565 0
M  V30 5364 H 529.752 1.32339 1.38415 0
M  V30 5365 H 528.057 0.562096 3.87747 0
M  V30 5366 H 529.754 0.953038 3.8951 0
M  V30 5367 H 526.344 2.35228 3.58282 0
M  V30 5368 H 530.528 3.32798 3.68183 0
M  V30 5369 H 525.784 4.72769 3.87684 0
M  V30 5370 H 529.958 5.70869 3.9885 0
M  V30 5371 H 527.585 6.41308 4.082 0
M  V30 5372 N 529.16 -1.33526 0.837174 0
M  V30 5373 C 530.437 -1.92369 0.354065 0
M  V30 5374 C 530.817 -1.76348 -1.16038 0
M  V30 5375 O 530.165 -1.15083 -1.97403 0
M  V30 5376 C 530.375 -3.39728 0.799101 0
M  V30 5377 C 531.723 -4.16877 0.806139 0
M  V30 5378 O 532.747 -3.48373 0.742597 0
M  V30 5379 O 531.606 -5.39166 0.892345 0
M  V30 5380 H 528.7 -0.820952 0.0998378 0
M  V30 5381 H 531.246 -1.42409 0.922913 0
M  V30 5382 H 530.018 -3.45254 1.84162 0
M  V30 5383 H 529.641 -3.97062 0.206731 0
M  V30 5384 N 530.638 -0.59345 -1.46 0
M  V30 5385 C 531.884 -0.0832754 -2.02629 0
M  V30 5386 C 532.217 1.27749 -1.46266 0
M  V30 5387 O 531.492 1.8395 -0.631866 0
M  V30 5388 C 531.775 -0.0290756 -3.60088 0
M  V30 5389 C 531.628 -1.41951 -4.26814 0
M  V30 5390 C 532.947 0.666055 -4.35031 0
M  V30 5391 H 530.066 -0.031736 -0.736316 0
M  V30 5392 H 532.708 -0.762711 -1.74019 0
M  V30 5393 H 530.858 0.549532 -3.84594 0
M  V30 5394 H 532.53 -2.04411 -4.13538 0
M  V30 5395 H 530.773 -1.98422 -3.8576 0
M  V30 5396 H 531.444 -1.33395 -5.3564 0
M  V30 5397 H 533.92 0.174401 -4.15734 0
M  V30 5398 H 532.796 0.673041 -5.44758 0
M  V30 5399 H 533.057 1.72946 -4.06869 0
M  V30 5400 N 532.116 1.54067 -0.331816 0
M  V30 5401 C 533.344 2.05131 0.269996 0
M  V30 5402 C 533.759 1.20749 1.45138 0
M  V30 5403 O 533.116 0.240069 1.80914 0
M  V30 5404 C 533.167 3.54728 0.696456 0
M  V30 5405 O 532.888 4.35906 -0.43794 0
M  V30 5406 C 534.389 4.21916 1.36021 0
M  V30 5407 H 531.609 0.668807 0.0542042 0
M  V30 5408 H 534.153 1.98777 -0.4804 0
M  V30 5409 H 532.308 3.61342 1.39681 0
M  V30 5410 H 532.722 5.24404 -0.100334 0
M  V30 5411 H 534.196 5.28015 1.60947 0
M  V30 5412 H 534.673 3.73538 2.31011 0
M  V30 5413 H 535.279 4.19463 0.702212 0
M  V30 5414 N 533.594 0.0601682 1.57485 0
M  V30 5415 C 535.005 -0.474217 1.80577 0
M  V30 5416 C 535.356 -1.70365 0.973147 0
M  V30 5417 O 534.481 -2.15544 0.192306 0
M  V30 5418 C 535.076 -0.867102 3.27516 0
M  V30 5419 C 533.635 -1.34642 3.51495 0
M  V30 5420 C 532.782 -0.32594 2.75378 0
M  V30 5421 H 535.733 0.285973 1.56102 0
M  V30 5422 H 535.754 -1.72938 3.38929 0
M  V30 5423 H 535.266 0.0278927 3.8809 0
M  V30 5424 H 533.367 -2.2603 2.96212 0
M  V30 5425 H 533.48 -1.33237 4.60201 0
M  V30 5426 H 531.844 -0.800749 2.41785 0
M  V30 5427 H 532.627 0.561125 3.38683 0
M  V30 5428 N 535.072 -1.5615 -0.213296 0
M  V30 5429 C 535.982 -1.96265 -1.28519 0
M  V30 5430 C 536.998 -0.86765 -1.50824 0
M  V30 5431 O 538.174 -1.17191 -1.63793 0
M  V30 5432 C 535.239 -2.27836 -2.61327 0
M  V30 5433 C 534.3 -3.50949 -2.47252 0
M  V30 5434 C 533.533 -3.81004 -3.73727 0
M  V30 5435 O 533.756 -3.12612 -4.77106 0
M  V30 5436 O 532.69 -4.74477 -3.70344 0
M  V30 5437 H 536.516 -2.87631 -0.974795 0
M  V30 5438 H 534.101 -1.43467 -0.416832 0
M  V30 5439 H 535.983 -2.49299 -3.39747 0
M  V30 5440 H 534.658 -1.39643 -2.9203 0
M  V30 5441 H 533.565 -3.34754 -1.67004 0
M  V30 5442 H 534.898 -4.39551 -2.21486 0
M  V30 5443 N 536.55 0.480323 -1.50102 0
M  V30 5444 C 537.483 1.59789 -1.62919 0
M  V30 5445 C 538.461 1.55429 -0.477557 0
M  V30 5446 O 539.645 1.75186 -0.695851 0
M  V30 5447 C 536.772 2.98351 -1.60325 0
M  V30 5448 C 535.818 3.20899 -2.80938 0
M  V30 5449 S 536.651 3.01791 -4.4236 0
M  V30 5450 C 537.807 4.42712 -4.42444 0
M  V30 5451 H 538.04 1.48676 -2.57454 0
M  V30 5452 H 535.573 0.666996 -1.3925 0
M  V30 5453 H 537.531 3.7824 -1.59514 0
M  V30 5454 H 536.192 3.06862 -0.670419 0
M  V30 5455 H 535.385 4.22102 -2.75401 0
M  V30 5456 H 534.987 2.48768 -2.79268 0
M  V30 5457 H 537.279 5.3518 -4.15438 0
M  V30 5458 H 538.222 4.53294 -5.43995 0
M  V30 5459 H 538.63 4.24359 -3.72263 0
M  V30 5460 N 538.028 1.39524 0.732853 0
M  V30 5461 C 538.978 1.34905 1.83806 0
M  V30 5462 C 539.962 0.229546 1.59254 0
M  V30 5463 O 541.154 0.467255 1.70721 0
M  V30 5464 C 538.283 1.19699 3.21756 0
M  V30 5465 C 537.369 2.36359 3.5213 0
M  V30 5466 N 537.76 3.61834 3.53426 0
M  V30 5467 C 536.058 2.29363 3.82503 0
M  V30 5468 C 536.759 4.38992 3.81655 0
M  V30 5469 N 535.735 3.68606 3.99538 0
M  V30 5470 H 539.537 2.29882 1.83116 0
M  V30 5471 H 537.051 1.33051 0.931194 0
M  V30 5472 H 539.048 1.14472 4.00876 0
M  V30 5473 H 537.708 0.256739 3.23683 0
M  V30 5474 H 538.719 3.95228 3.34686 0
M  V30 5475 H 535.396 1.43612 3.92023 0
M  V30 5476 H 536.786 5.47763 3.89108 0
M  V30 5477 N 539.506 -0.963266 1.24736 0
M  V30 5478 C 540.755 -1.70115 1.08369 0
M  V30 5479 C 541.068 -1.91939 -0.376688 0
M  V30 5480 O 542.274 -2.6334 -0.660624 0
M  V30 5481 C 540.73 -3.06218 1.89099 0
M  V30 5482 C 540.338 -2.92221 3.39574 0
M  V30 5483 C 542.082 -3.83848 1.81275 0
M  V30 5484 C 539.989 -4.23662 4.12631 0
M  V30 5485 H 538.919 -0.637944 0.401924 0
M  V30 5486 H 541.57 -1.07304 1.48856 0
M  V30 5487 H 539.952 -3.69884 1.41429 0
M  V30 5488 H 541.126 -2.37541 3.94856 0
M  V30 5489 H 539.441 -2.28054 3.48397 0
M  V30 5490 H 542.038 -4.81188 2.33158 0
M  V30 5491 H 542.381 -4.08949 0.778895 0
M  V30 5492 H 542.914 -3.26918 2.26649 0
M  V30 5493 H 539.653 -4.03753 5.16395 0
M  V30 5494 H 539.173 -4.78141 3.62135 0
M  V30 5495 H 540.852 -4.92256 4.19873 0
M  V30 5496 N 540.985 -1.06182 -1.16461 0
M  V30 5497 C 542.396 -0.802426 -1.68576 0
M  V30 5498 C 542.747 0.67412 -1.84255 0
M  V30 5499 O 541.872 1.52303 -1.5373 0
M  V30 5500 C 542.467 -1.45002 -3.06202 0
M  V30 5501 C 541.026 -1.23843 -3.55443 0
M  V30 5502 C 540.173 -1.52724 -2.31454 0
M  V30 5503 H 543.124 -1.22545 -1.00839 0
M  V30 5504 H 543.145 -0.864731 -3.70544 0
M  V30 5505 H 542.657 -2.52466 -2.94759 0
M  V30 5506 H 540.758 -0.183487 -3.72148 0
M  V30 5507 H 540.871 -1.95036 -4.37604 0
M  V30 5508 H 539.235 -0.947726 -2.36411 0
M  V30 5509 H 540.018 -2.61343 -2.22609 0
M  V30 5510 N 542.463 1.3308 -0.844243 0
M  V30 5511 C 543.711 1.97215 -0.441676 0
M  V30 5512 C 544.032 1.67185 1.0037 0
M  V30 5513 O 543.302 0.973588 1.69994 0
M  V30 5514 H 541.882 0.72959 -0.160335 0
M  V30 5515 H 544.544 1.62348 -1.07838 0
M  V30 5516 H 543.64 3.06698 -0.57815 0
M  V30 5517 N 543.941 0.601185 1.45683 0
M  V30 5518 C 544.851 -0.123395 2.34275 0
M  V30 5519 C 545.867 -0.86702 1.5086 0
M  V30 5520 O 547.043 -0.826049 1.8368 0
M  V30 5521 C 544.108 -1.11237 3.2837 0
M  V30 5522 C 543.169 -0.371405 4.2769 0
M  V30 5523 C 542.402 -1.31327 5.1729 0
M  V30 5524 O 542.625 -2.55078 5.10188 0
M  V30 5525 O 541.559 -0.813811 5.96373 0
M  V30 5526 H 545.385 0.604483 2.97623 0
M  V30 5527 H 542.97 0.361477 1.44961 0
M  V30 5528 H 544.852 -1.68214 3.8637 0
M  V30 5529 H 543.527 -1.82139 2.67595 0
M  V30 5530 H 542.434 0.24067 3.73325 0
M  V30 5531 H 543.767 0.296998 4.91303 0
M  V30 5532 N 545.419 -1.53889 0.339982 0
M  V30 5533 C 546.665 -2.01152 -0.258003 0
M  V30 5534 C 546.998 -1.22749 -1.50487 0
M  V30 5535 O 546.273 -0.314156 -1.91946 0
M  V30 5536 C 546.556 -3.55468 -0.575717 0
M  V30 5537 C 546.409 -4.44584 0.682996 0
M  V30 5538 C 547.728 -4.1768 -1.38677 0
M  V30 5539 H 544.847 -0.731198 -0.0922992 0
M  V30 5540 H 547.489 -1.84352 0.459814 0
M  V30 5541 H 545.639 -3.69914 -1.18725 0
M  V30 5542 H 547.311 -4.41981 1.32102 0
M  V30 5543 H 545.554 -4.13592 1.3086 0
M  V30 5544 H 546.225 -5.5043 0.416001 0
M  V30 5545 H 548.701 -4.0691 -0.869705 0
M  V30 5546 H 547.577 -5.25734 -1.57783 0
M  V30 5547 H 547.838 -3.72069 -2.38782 0
M  V30 5548 N 546.897 -0.0685191 -1.57451 0
M  V30 5549 C 548.313 0.288101 -1.56978 0
M  V30 5550 C 548.513 1.70262 -1.07765 0
M  V30 5551 O 547.569 2.4135 -0.742054 0
M  V30 5552 C 548.882 0.100745 -3.00531 0
M  V30 5553 C 550.43 0.170531 -3.12535 0
M  V30 5554 C 550.905 0.0114944 -4.57999 0
M  V30 5555 N 552.396 0.0672065 -4.63151 0
M  V30 5556 C 553.131 -0.0314813 -5.73391 0
M  V30 5557 N 552.627 -0.183503 -6.92557 0
M  V30 5558 N 554.42 0.0253489 -5.62094 0
M  V30 5559 H 546.571 -0.993026 -1.87757 0
M  V30 5560 H 548.834 -0.386981 -0.865419 0
M  V30 5561 H 548.54 -0.875197 -3.40636 0
M  V30 5562 H 548.414 0.854457 -3.67395 0
M  V30 5563 H 550.801 1.13696 -2.72318 0
M  V30 5564 H 550.882 -0.614229 -2.48316 0
M  V30 5565 H 550.526 -0.951684 -4.98904 0
M  V30 5566 H 550.456 0.815617 -5.20245 0
M  V30 5567 H 552.947 0.183246 -3.77455 0
M  V30 5568 H 553.26 -0.251041 -7.72392 0
M  V30 5569 H 551.605 -0.218822 -6.94655 0
M  V30 5570 H 554.796 0.142794 -4.67882 0
M  V30 5571 H 554.969 -0.0550166 -6.47977 0
M  V30 5572 N 548.375 1.56261 0.205012 0
M  V30 5573 C 549.323 1.94631 1.27364 0
M  V30 5574 C 550.317 0.830434 1.47649 0
M  V30 5575 O 551.523 1.01538 1.48627 0
M  V30 5576 H 547.898 0.618755 0.427371 0
M  V30 5577 H 549.869 2.83768 0.922941 0
M  V30 5578 C 548.618 2.29358 2.61324 0
M  V30 5579 H 547.941 3.14744 2.46528 0
M  V30 5580 H 549.381 2.60076 3.34868 0
M  V30 5581 C 547.84 1.12461 3.17575 0
M  V30 5582 O 548.37 0.394407 3.99759 0
M  V30 5583 N 546.576 0.904036 2.7618 0
M  V30 5584 H 546.123 1.49956 2.09454 0
M  V30 5585 H 546.081 0.123662 3.14157 0
M  V30 5586 N 549.853 -0.472356 1.50355 0
M  V30 5587 C 550.783 -1.57859 1.72055 0
M  V30 5588 C 551.764 -1.60283 0.569505 0
M  V30 5589 O 552.949 -1.7657 0.808503 0
M  V30 5590 C 550.079 -2.96191 1.81351 0
M  V30 5591 C 549.033 -3.08633 2.96529 0
M  V30 5592 C 548.359 -4.486 2.90968 0
M  V30 5593 C 549.659 -2.85969 4.37057 0
M  V30 5594 H 551.353 -1.39953 2.64676 0
M  V30 5595 H 548.899 -0.671846 1.27367 0
M  V30 5596 H 550.852 -3.73507 1.95117 0
M  V30 5597 H 549.576 -3.15251 0.853502 0
M  V30 5598 H 548.235 -2.33749 2.82413 0
M  V30 5599 H 547.883 -4.64577 1.92815 0
M  V30 5600 H 547.583 -4.57861 3.68289 0
M  V30 5601 H 549.107 -5.27938 3.0678 0
M  V30 5602 H 550.521 -3.53036 4.51706 0
M  V30 5603 H 548.918 -3.06677 5.15819 0
M  V30 5604 H 549.988 -1.81838 4.49514 0
M  V30 5605 N 551.331 -1.39911 -0.725443 0
M  V30 5606 C 552.264 -1.33788 -1.84867 0
M  V30 5607 C 553.242 -0.209907 -1.61239 0
M  V30 5608 O 554.426 -0.391943 -1.8438 0
M  V30 5609 C 551.553 -1.07975 -3.21028 0
M  V30 5610 C 550.599 -2.23092 -3.635 0
M  V30 5611 S 551.432 -3.85431 -3.71757 0
M  V30 5612 C 552.588 -3.61862 -5.10692 0
M  V30 5613 H 552.821 -2.28848 -1.89779 0
M  V30 5614 H 550.354 -1.26079 -0.891254 0
M  V30 5615 H 552.312 -0.937669 -3.99647 0
M  V30 5616 H 550.973 -0.145865 -3.13761 0
M  V30 5617 H 550.166 -2.00647 -4.62338 0
M  V30 5618 H 549.768 -2.33553 -2.92112 0
M  V30 5619 H 552.06 -3.19719 -5.97316 0
M  V30 5620 H 553.003 -4.60196 -5.38169 0
M  V30 5621 H 553.411 -2.95757 -4.8082 0
M  V30 5622 N 552.809 0.956637 -1.25245 0
M  V30 5623 C 553.719 2.0868 -1.0719 0
M  V30 5624 C 554.735 1.73997 -0.00959074 0
M  V30 5625 O 555.911 2.00301 -0.210104 0
M  V30 5626 C 552.976 3.39754 -0.690526 0
M  V30 5627 C 552.037 3.88316 -1.83055 0
M  V30 5628 C 551.27 5.13134 -1.46728 0
M  V30 5629 O 551.493 5.6925 -0.362029 0
M  V30 5630 O 550.427 5.56356 -2.29677 0
M  V30 5631 H 554.253 2.26813 -2.01965 0
M  V30 5632 H 551.838 1.07098 -1.04165 0
M  V30 5633 H 553.72 4.18543 -0.489871 0
M  V30 5634 H 552.395 3.22896 0.227981 0
M  V30 5635 H 551.302 3.1054 -2.08604 0
M  V30 5636 H 552.635 4.09669 -2.72822 0
M  V30 5637 N 554.287 1.06798 1.15896 0
M  V30 5638 C 555.536 0.782796 1.8589 0
M  V30 5639 C 555.849 -0.693498 1.82893 0
M  V30 5640 O 557.055 -1.09325 2.48516 0
M  V30 5641 C 555.511 1.3502 3.33613 0
M  V30 5642 C 555.119 2.8571 3.45071 0
M  V30 5643 C 556.863 1.14278 4.08829 0
M  V30 5644 C 554.77 3.35669 4.86909 0
M  V30 5645 H 553.7 0.289149 0.696354 0
M  V30 5646 H 556.351 1.28734 1.30766 0
M  V30 5647 H 554.733 0.773407 3.88374 0
M  V30 5648 H 555.907 3.49385 3.00445 0
M  V30 5649 H 554.222 3.05178 2.83294 0
M  V30 5650 H 556.819 1.49087 5.13495 0
M  V30 5651 H 557.162 0.0814575 4.1622 0
M  V30 5652 H 557.695 1.68563 3.60321 0
M  V30 5653 H 554.434 4.41302 4.84698 0
M  V30 5654 H 553.954 2.76745 5.32139 0
M  V30 5655 H 555.633 3.31296 5.55745 0
M  V30 5656 N 555.766 -1.3263 0.851289 0
M  V30 5657 C 556.729 -2.27247 0.298541 0
M  V30 5658 C 557.729 -1.51467 -0.539847 0
M  V30 5659 O 558.919 -1.7061 -0.351843 0
M  V30 5660 C 556.051 -3.35964 -0.578004 0
M  V30 5661 H 557.244 -2.7765 1.13359 0
M  V30 5662 H 554.797 -1.43245 0.625354 0
M  V30 5663 H 555.532 -2.90823 -1.435 0
M  V30 5664 H 555.317 -3.92094 0.0220539 0
M  V30 5665 H 556.807 -4.06472 -0.957626 0
M  V30 5666 N 557.244 -0.608902 -1.45362 0
M  V30 5667 C 558.154 0.110969 -2.34337 0
M  V30 5668 C 559.17 0.859007 -1.51318 0
M  V30 5669 O 560.346 0.816296 -1.84116 0
M  V30 5670 C 557.411 1.09494 -3.28956 0
M  V30 5671 C 556.472 0.348718 -4.27881 0
M  V30 5672 C 555.705 1.28582 -5.17979 0
M  V30 5673 O 555.928 2.52369 -5.11533 0
M  V30 5674 O 554.862 0.782172 -5.96796 0
M  V30 5675 H 558.688 -0.620258 -2.97299 0
M  V30 5676 H 556.273 -0.36916 -1.44767 0
M  V30 5677 H 558.155 1.66163 -3.87257 0
M  V30 5678 H 556.83 1.80717 -2.68557 0
M  V30 5679 H 555.737 -0.260465 -3.73192 0
M  V30 5680 H 557.07 -0.323049 -4.91139 0
M  V30 5681 N 558.722 1.53707 -0.348139 0
M  V30 5682 C 559.968 2.01286 0.247332 0
M  V30 5683 C 560.301 1.23546 1.49834 0
M  V30 5684 O 559.576 0.324331 1.91777 0
M  V30 5685 C 559.859 3.55768 0.556858 0
M  V30 5686 C 559.712 4.44216 -0.706564 0
M  V30 5687 C 561.031 4.1841 1.3646 0
M  V30 5688 H 558.15 0.731677 0.0884201 0
M  V30 5689 H 560.792 1.84106 -0.469584 0
M  V30 5690 H 558.942 3.70539 1.16761 0
M  V30 5691 H 560.614 4.41274 -1.34444 0
M  V30 5692 H 558.857 4.12892 -1.33052 0
M  V30 5693 H 559.528 5.50202 -0.445186 0
M  V30 5694 H 562.004 4.07365 0.848113 0
M  V30 5695 H 560.88 5.26563 1.54992 0
M  V30 5696 H 561.141 3.7333 2.36805 0
M  V30 5697 N 560.2 0.0768682 1.57412 0
M  V30 5698 C 561.477 -0.632359 1.85096 0
M  V30 5699 C 561.857 -1.87479 0.9703 0
M  V30 5700 O 561.205 -2.28469 0.0379062 0
M  V30 5701 C 561.415 -0.965174 3.35388 0
M  V30 5702 C 562.763 -1.33648 4.03018 0
M  V30 5703 O 563.787 -1.05675 3.40164 0
M  V30 5704 O 562.646 -1.85959 5.13889 0
M  V30 5705 H 559.74 -0.314574 0.764835 0
M  V30 5706 H 562.286 0.108184 1.69355 0
M  V30 5707 H 561.058 -0.0829745 3.91212 0
M  V30 5708 H 560.681 -1.76231 3.5641 0
M  V30 5709 N 561.678 -1.56367 -0.196722 0
M  V30 5710 C 562.903 -1.84991 -0.937714 0
M  V30 5711 C 563.328 -0.660244 -1.76132 0
M  V30 5712 O 562.686 0.390967 -1.77034 0
M  V30 5713 C 562.734 -3.11828 -1.81096 0
M  V30 5714 O 561.838 -2.92266 -2.90955 0
M  V30 5715 H 561.179 -0.609193 -0.264159 0
M  V30 5716 H 563.709 -2.03595 -0.202529 0
M  V30 5717 H 563.719 -3.42579 -2.21594 0
M  V30 5718 H 562.394 -3.98037 -1.2058 0
M  V30 5719 H 560.971 -2.72809 -2.54224 0
M  V30 5720 N 563.156 0.464375 -1.50603 0
M  V30 5721 C 564.402 1.21776 -1.62168 0
M  V30 5722 C 564.735 1.91476 -0.324154 0
M  V30 5723 O 564.01 1.8242 0.674782 0
M  V30 5724 C 564.293 2.25614 -2.80661 0
M  V30 5725 C 564.146 1.60175 -4.20314 0
M  V30 5726 C 565.465 3.26862 -2.94702 0
M  V30 5727 H 562.584 0.44137 -0.590222 0
M  V30 5728 H 565.226 0.510623 -1.8301 0
M  V30 5729 H 563.376 2.85923 -2.63021 0
M  V30 5730 H 565.048 1.03411 -4.4956 0
M  V30 5731 H 563.291 0.904697 -4.24261 0
M  V30 5732 H 563.962 2.35665 -4.99165 0
M  V30 5733 H 566.438 2.76582 -3.10872 0
M  V30 5734 H 565.314 3.96839 -3.79223 0
M  V30 5735 H 565.575 3.91382 -2.05603 0
M  V30 5736 N 564.634 1.40294 0.718013 0
M  V30 5737 C 565.567 1.34767 1.84155 0
M  V30 5738 C 566.545 0.218455 1.61126 0
M  V30 5739 O 567.729 0.401716 1.8417 0
M  V30 5740 C 564.856 1.09676 3.20451 0
M  V30 5741 C 563.902 2.25016 3.62312 0
M  V30 5742 S 564.735 3.87397 3.69707 0
M  V30 5743 C 565.891 3.64565 5.08766 0
M  V30 5744 H 566.124 2.29851 1.88562 0
M  V30 5745 H 563.657 1.2655 0.884555 0
M  V30 5746 H 565.615 0.95885 3.99144 0
M  V30 5747 H 564.276 0.162502 3.13679 0
M  V30 5748 H 563.469 2.03097 4.61268 0
M  V30 5749 H 563.071 2.35098 2.90869 0
M  V30 5750 H 565.363 3.22882 5.95612 0
M  V30 5751 H 566.306 4.63043 5.35721 0
M  V30 5752 H 566.714 2.98303 4.79245 0
M  V30 5753 N 566.112 -0.949982 1.2575 0
M  V30 5754 C 567.523 -1.50989 1.09815 0
M  V30 5755 C 567.874 -1.93497 -0.324556 0
M  V30 5756 O 566.999 -1.79068 -1.21506 0
M  V30 5757 C 567.594 -2.74394 1.98729 0
M  V30 5758 C 566.153 -3.26682 1.86965 0
M  V30 5759 C 565.3 -1.99498 1.92603 0
M  V30 5760 H 568.251 -0.766387 1.38968 0
M  V30 5761 H 568.272 -3.48383 1.53001 0
M  V30 5762 H 567.784 -2.43425 3.02268 0
M  V30 5763 H 565.885 -3.62461 0.863279 0
M  V30 5764 H 565.998 -3.94383 2.72027 0
M  V30 5765 H 564.362 -2.15005 1.36546 0
M  V30 5766 H 565.145 -1.70871 2.97755 0
M  V30 5767 N 567.59 -1.07411 -1.15328 0
M  V30 5768 C 568.839 -0.792643 -1.85473 0
M  V30 5769 C 569.152 0.683789 -1.83259 0
M  V30 5770 O 570.358 1.08005 -2.49093 0
M  V30 5771 C 568.814 -1.36787 -3.32892 0
M  V30 5772 C 568.422 -2.87536 -3.43551 0
M  V30 5773 C 570.166 -1.16444 -4.08217 0
M  V30 5774 C 568.073 -3.38247 -4.85122 0
M  V30 5775 H 567.003 -0.292838 -0.694811 0
M  V30 5776 H 569.654 -1.29426 -1.30082 0
M  V30 5777 H 568.036 -0.793993 -3.87958 0
M  V30 5778 H 569.21 -3.50973 -2.98588 0
M  V30 5779 H 567.525 -3.06676 -2.81672 0
M  V30 5780 H 570.122 -1.51808 -5.12697 0
M  V30 5781 H 570.465 -0.10353 -4.16171 0
M  V30 5782 H 570.998 -1.70472 -3.59422 0
M  V30 5783 H 567.737 -4.43866 -4.82351 0
M  V30 5784 H 567.257 -2.79564 -5.30664 0
M  V30 5785 H 568.936 -3.34238 -5.5398 0
M  V30 5786 N 569.068 1.32177 -0.85831 0
M  V30 5787 C 570.016 2.30729 -0.294442 0
M  V30 5788 C 571.01 1.59009 0.584165 0
M  V30 5789 O 572.216 1.73713 0.471562 0
M  V30 5790 H 568.591 0.748097 -0.0765171 0
M  V30 5791 H 570.562 2.75774 -1.1398 0
M  V30 5792 C 569.311 3.44098 0.499208 0
M  V30 5793 H 568.634 3.99449 -0.167579 0
M  V30 5794 H 570.074 4.15202 0.859273 0
M  V30 5795 C 568.533 2.91684 1.68588 0
M  V30 5796 O 569.063 2.89481 2.78503 0
M  V30 5797 N 567.269 2.48036 1.51415 0
M  V30 5798 H 566.816 2.50027 0.620006 0
M  V30 5799 H 566.774 2.13322 2.30957 0
M  V30 5800 N 570.547 0.616602 1.45037 0
M  V30 5801 C 571.495 -0.109318 2.32343 0
M  V30 5802 C 572.489 -0.850543 1.465 0
M  V30 5803 O 573.695 -0.765088 1.62931 0
M  V30 5804 H 570.07 -0.0541091 0.750051 0
M  V30 5805 H 572.041 0.645326 2.91338 0
M  V30 5806 C 570.79 -1.0872 3.30266 0
M  V30 5807 H 570.113 -0.526267 3.96321 0
M  V30 5808 H 571.553 -1.56489 3.94065 0
M  V30 5809 C 570.012 -2.16525 2.58105 0
M  V30 5810 O 570.542 -3.244 2.36913 0
M  V30 5811 N 568.748 -1.92057 2.18088 0
M  V30 5812 H 568.295 -1.04337 2.35524 0
M  V30 5813 H 568.253 -2.64391 1.70131 0
M  V30 5814 N 572.025 -1.5352 0.356285 0
M  V30 5815 C 573.302 -1.93405 -0.292223 0
M  V30 5816 C 573.682 -1.28901 -1.67176 0
M  V30 5817 O 573.03 -0.444632 -2.24132 0
M  V30 5818 C 573.24 -3.47223 -0.35175 0
M  V30 5819 C 574.588 -4.20389 -0.596534 0
M  V30 5820 O 575.612 -3.53554 -0.433344 0
M  V30 5821 O 574.471 -5.3881 -0.913589 0
M  V30 5822 H 571.565 -0.808666 -0.173172 0
M  V30 5823 H 574.111 -1.64713 0.408391 0
M  V30 5824 H 572.883 -3.86423 0.615841 0
M  V30 5825 H 572.506 -3.8212 -1.09864 0
M  V30 5826 N 573.503 -0.0852151 -1.57369 0
M  V30 5827 C 574.728 0.592872 -1.98746 0
M  V30 5828 C 575.153 1.61538 -0.963689 0
M  V30 5829 O 574.511 1.81168 0.069071 0
M  V30 5830 C 574.559 1.22599 -3.39119 0
M  V30 5831 O 573.663 2.34185 -3.39457 0
M  V30 5832 H 573.004 0.151314 -0.646529 0
M  V30 5833 H 575.534 -0.163703 -2.03944 0
M  V30 5834 H 575.544 1.56965 -3.76598 0
M  V30 5835 H 574.219 0.476831 -4.13158 0
M  V30 5836 H 572.796 2.01512 -3.13763 0
M  V30 5837 N 574.981 1.5647 0.188427 0
M  V30 5838 C 575.944 1.9421 1.21718 0
M  V30 5839 C 576.944 0.823901 1.38089 0
M  V30 5840 O 578.134 1.09122 1.35787 0
M  V30 5841 C 575.266 2.22197 2.58537 0
M  V30 5842 H 576.459 2.86252 0.894418 0
M  V30 5843 H 574.012 1.50263 0.430211 0
M  V30 5844 H 574.747 1.32814 2.95856 0
M  V30 5845 H 574.532 3.03688 2.48025 0
M  V30 5846 H 576.022 2.52376 3.3271 0
M  V30 5847 N 576.459 -0.456382 1.50847 0
M  V30 5848 C 577.422 -1.53493 1.70213 0
M  V30 5849 C 578.422 -1.50264 0.572481 0
M  V30 5850 O 579.612 -1.52623 0.839751 0
M  V30 5851 C 576.744 -2.93091 1.741 0
M  V30 5852 H 577.937 -1.37633 2.66453 0
M  V30 5853 H 575.49 -0.683776 1.4055 0
M  V30 5854 H 576.225 -3.14378 0.796063 0
M  V30 5855 H 576.01 -2.9684 2.5618 0
M  V30 5856 H 577.5 -3.71368 1.90987 0
M  V30 5857 N 577.937 -1.40673 -0.710563 0
M  V30 5858 C 578.884 -1.41336 -1.82463 0
M  V30 5859 C 579.854 -0.269648 -1.63897 0
M  V30 5860 O 581.039 -0.468463 -1.8496 0
M  V30 5861 C 578.179 -1.28665 -3.20218 0
M  V30 5862 C 577.292 -2.52784 -3.5032 0
M  V30 5863 C 576.427 -2.32517 -4.77608 0
M  V30 5864 C 575.466 -3.52187 -5.0063 0
M  V30 5865 N 574.603 -3.31084 -6.19135 0
M  V30 5866 H 579.443 -2.36558 -1.8123 0
M  V30 5867 H 576.98 -1.17483 -0.885226 0
M  V30 5868 H 578.938 -1.19324 -3.99772 0
M  V30 5869 H 577.568 -0.370602 -3.20666 0
M  V30 5870 H 576.62 -2.72634 -2.65283 0
M  V30 5871 H 577.932 -3.41845 -3.63241 0
M  V30 5872 H 577.086 -2.20558 -5.65189 0
M  V30 5873 H 575.825 -1.40889 -4.66906 0
M  V30 5874 H 574.83 -3.64617 -4.11502 0
M  V30 5875 H 576.055 -4.44749 -5.13201 0
M  V30 5876 H 574.001 -2.42143 -6.09674 0
M  V30 5877 H 573.918 -4.13713 -6.32754 0
M  V30 5878 H 575.186 -3.22868 -7.0949 0
M  V30 5879 N 579.415 0.9433 -1.26252 0
M  V30 5880 C 580.661 1.69175 -1.11837 0
M  V30 5881 C 580.994 1.91238 0.337891 0
M  V30 5882 O 580.269 1.49152 1.24836 0
M  V30 5883 C 580.552 3.06783 -1.88563 0
M  V30 5884 C 580.405 2.9206 -3.42083 0
M  V30 5885 C 581.724 4.06865 -1.67776 0
M  V30 5886 H 578.843 0.61399 -0.407658 0
M  V30 5887 H 581.485 1.09572 -1.55222 0
M  V30 5888 H 579.635 3.57663 -1.51689 0
M  V30 5889 H 581.307 2.48419 -3.88698 0
M  V30 5890 H 579.55 2.27731 -3.69217 0
M  V30 5891 H 580.221 3.89651 -3.90994 0
M  V30 5892 H 582.697 3.64939 -1.99897 0
M  V30 5893 H 581.573 5.01168 -2.23879 0
M  V30 5894 H 581.834 4.37705 -0.621816 0
M  V30 5895 N 580.893 1.08022 1.14757 0
M  V30 5896 C 582.118 0.82895 1.90114 0
M  V30 5897 C 582.543 -0.612772 1.77839 0
M  V30 5898 O 581.901 -1.42895 1.11583 0
M  V30 5899 C 581.949 1.25062 3.38219 0
M  V30 5900 O 581.053 0.400119 4.10454 0
M  V30 5901 H 580.394 0.301412 0.591648 0
M  V30 5902 H 582.924 1.44062 1.45284 0
M  V30 5903 H 582.934 1.22977 3.89025 0
M  V30 5904 H 581.609 2.30067 3.46471 0
M  V30 5905 H 580.186 0.484052 3.69745 0
M  V30 5906 N 582.371 -1.3172 0.865308 0
M  V30 5907 C 583.596 -2.01591 0.487415 0
M  V30 5908 C 584.021 -1.6455 -0.911307 0
M  V30 5909 O 583.379 -0.851689 -1.6005 0
M  V30 5910 C 583.427 -3.54759 0.646401 0
M  V30 5911 O 582.531 -4.11185 -0.316284 0
M  V30 5912 H 581.872 -0.634884 0.194468 0
M  V30 5913 H 584.402 -1.68024 1.16744 0
M  V30 5914 H 584.412 -4.04438 0.537932 0
M  V30 5915 H 583.087 -3.8106 1.66632 0
M  V30 5916 H 581.664 -3.72543 -0.163162 0
M  V30 5917 N 583.85 -0.624285 -1.44708 0
M  V30 5918 C 584.783 0.133905 -2.27807 0
M  V30 5919 C 585.76 0.857794 -1.38133 0
M  V30 5920 O 586.945 0.863277 -1.6757 0
M  V30 5921 C 584.072 1.19541 -3.16903 0
M  V30 5922 C 583.118 0.572813 -4.22636 0
M  V30 5923 S 583.951 -0.631953 -5.31758 0
M  V30 5924 C 585.106 0.429733 -6.24423 0
M  V30 5925 H 585.34 -0.571072 -2.91764 0
M  V30 5926 H 582.873 -0.412261 -1.48794 0
M  V30 5927 H 584.831 1.80293 -3.68788 0
M  V30 5928 H 583.492 1.87255 -2.5218 0
M  V30 5929 H 582.685 1.37205 -4.84965 0
M  V30 5930 H 582.287 0.0400641 -3.73979 0
M  V30 5931 H 584.579 1.30421 -6.64828 0
M  V30 5932 H 585.522 -0.157804 -7.07924 0
M  V30 5933 H 585.93 0.75256 -5.59461 0
M  V30 5934 N 585.328 1.53329 -0.364422 0
M  V30 5935 C 586.238 2.29414 0.490552 0
M  V30 5936 C 587.254 1.35335 1.09363 0
M  V30 5937 O 588.43 1.68391 1.10483 0
M  V30 5938 C 585.495 3.06772 1.61529 0
M  V30 5939 C 584.556 4.16516 1.03986 0
M  V30 5940 C 583.789 4.90176 2.111 0
M  V30 5941 O 584.012 4.63687 3.32191 0
M  V30 5942 O 582.946 5.76134 1.74222 0
M  V30 5943 H 586.772 3.03428 -0.12856 0
M  V30 5944 H 584.357 1.48843 -0.128837 0
M  V30 5945 H 586.239 3.55082 2.26924 0
M  V30 5946 H 584.914 2.35596 2.21983 0
M  V30 5947 H 583.821 3.7246 0.349856 0
M  V30 5948 H 585.154 4.89855 0.4799 0
M  V30 5949 N 586.806 0.0935595 1.57322 0
M  V30 5950 C 587.769 -0.851426 2.12799 0
M  V30 5951 C 588.769 -1.21187 1.0569 0
M  V30 5952 O 589.959 -1.14156 1.31583 0
M  V30 5953 C 587.091 -2.14779 2.64731 0
M  V30 5954 H 588.284 -0.369733 2.97612 0
M  V30 5955 H 585.837 -0.155417 1.55525 0
M  V30 5956 H 586.572 -2.67437 1.83434 0
M  V30 5957 H 586.357 -1.89907 3.43042 0
M  V30 5958 H 587.847 -2.82383 3.07651 0
M  V30 5959 N 588.284 -1.56567 -0.180126 0
M  V30 5960 C 589.514 -1.85349 -0.912647 0
M  V30 5961 C 589.922 -0.675795 -1.76719 0
M  V30 5962 O 589.265 0.3645 -1.80047 0
M  V30 5963 C 589.327 -3.08431 -1.84691 0
M  V30 5964 C 588.991 -4.41694 -1.17284 0
M  V30 5965 C 589.988 -5.17062 -0.542532 0
M  V30 5966 C 587.673 -4.8843 -1.17223 0
M  V30 5967 C 589.667 -6.37351 0.0793953 0
M  V30 5968 C 587.354 -6.08652 -0.54647 0
M  V30 5969 C 588.352 -6.82955 0.0782458 0
M  V30 5970 O 588.04 -8.00897 0.694158 0
M  V30 5971 H 587.772 -0.619286 -0.271036 0
M  V30 5972 H 590.326 -2.0454 -0.187768 0
M  V30 5973 H 588.556 -2.85163 -2.61188 0
M  V30 5974 H 590.245 -3.23733 -2.44851 0
M  V30 5975 H 591.011 -4.8204 -0.535045 0
M  V30 5976 H 586.89 -4.30542 -1.64788 0
M  V30 5977 H 590.434 -6.95287 0.567612 0
M  V30 5978 H 586.331 -6.4314 -0.55151 0
M  V30 5979 H 587.099 -8.16352 0.592537 0
M  V30 5980 N 589.762 0.448376 -1.51087 0
M  V30 5981 C 591.178 0.783984 -1.39017 0
M  V30 5982 C 591.378 1.96087 -0.463904 0
M  V30 5983 O 590.434 2.52357 0.0850534 0
M  V30 5984 C 591.747 1.07471 -2.80839 0
M  V30 5985 C 593.295 1.17981 -2.89913 0
M  V30 5986 C 593.77 1.50354 -4.32617 0
M  V30 5987 N 595.261 1.57301 -4.35673 0
M  V30 5988 C 595.996 1.839 -5.4311 0
M  V30 5989 N 595.492 2.08365 -6.60724 0
M  V30 5990 N 597.285 1.8559 -5.30578 0
M  V30 5991 H 589.436 -0.326881 -2.0987 0
M  V30 5992 H 591.699 -0.0838006 -0.944289 0
M  V30 5993 H 591.405 0.282768 -3.50561 0
M  V30 5994 H 591.279 2.00519 -3.19487 0
M  V30 5995 H 593.666 1.9624 -2.20395 0
M  V30 5996 H 593.747 0.228603 -2.54776 0
M  V30 5997 H 593.391 0.726273 -5.0268 0
M  V30 5998 H 593.321 2.46663 -4.65258 0
M  V30 5999 H 595.812 1.40342 -3.50874 0
M  V30 6000 H 596.125 2.27999 -7.38401 0
M  V30 6001 H 594.47 2.0571 -6.63859 0
M  V30 6002 H 597.661 1.65989 -4.37682 0
M  V30 6003 H 597.834 2.05983 -6.1439 0
M  V30 6004 N 591.24 1.41047 0.703093 0
M  V30 6005 C 592.486 1.40207 1.46526 0
M  V30 6006 C 592.819 0.00847763 1.94198 0
M  V30 6007 O 592.094 -0.962437 1.69019 0
M  V30 6008 C 592.377 2.40238 2.6825 0
M  V30 6009 C 592.23 3.88674 2.26391 0
M  V30 6010 C 593.549 2.37627 3.70434 0
M  V30 6011 H 590.668 0.510594 0.531472 0
M  V30 6012 H 593.31 1.72271 0.801422 0
M  V30 6013 H 591.46 2.13026 3.24888 0
M  V30 6014 H 593.132 4.2676 1.75138 0
M  V30 6015 H 591.375 4.03903 1.58255 0
M  V30 6016 H 592.046 4.542 3.13698 0
M  V30 6017 H 594.522 2.61759 3.23452 0
M  V30 6018 H 593.398 3.09645 4.53223 0
M  V30 6019 H 593.659 1.39223 4.19606 0
M  V30 6020 N 592.718 -0.936591 1.26751 0
M  V30 6021 C 593.628 -2.06949 1.10496 0
M  V30 6022 C 594.644 -1.7396 0.037271 0
M  V30 6023 O 595.82 -1.99941 0.241944 0
M  V30 6024 C 592.885 -3.38612 0.744491 0
M  V30 6025 C 591.946 -3.85355 1.89209 0
M  V30 6026 C 591.179 -5.10735 1.54873 0
M  V30 6027 O 591.402 -5.68602 0.452546 0
M  V30 6028 O 590.336 -5.52632 2.38499 0
M  V30 6029 H 594.162 -2.23571 2.05547 0
M  V30 6030 H 591.747 -1.05428 1.05855 0
M  V30 6031 H 593.629 -4.17711 0.556396 0
M  V30 6032 H 592.304 -3.23218 -0.176582 0
M  V30 6033 H 591.211 -3.07182 2.13518 0
M  V30 6034 H 592.544 -4.05277 2.79305 0
M  V30 6035 N 594.196 -1.08629 -1.14182 0
M  V30 6036 C 595.126 -0.740003 -2.21464 0
M  V30 6037 C 596.107 0.278591 -1.67803 0
M  V30 6038 O 597.292 0.148461 -1.93632 0
M  V30 6039 C 594.422 -0.150952 -3.46972 0
M  V30 6040 C 593.376 -1.09815 -4.13672 0
M  V30 6041 C 592.702 -0.3712 -5.3341 0
M  V30 6042 C 594.002 -2.43722 -4.61949 0
M  V30 6043 H 595.696 -1.63697 -2.50686 0
M  V30 6044 H 593.242 -0.788526 -1.20492 0
M  V30 6045 H 595.195 0.103325 -4.21273 0
M  V30 6046 H 593.919 0.781164 -3.1712 0
M  V30 6047 H 592.578 -1.33756 -3.41328 0
M  V30 6048 H 592.226 0.564792 -4.99819 0
M  V30 6049 H 591.926 -1.00267 -5.78982 0
M  V30 6050 H 593.45 -0.12503 -6.10472 0
M  V30 6051 H 594.864 -2.24034 -5.27714 0
M  V30 6052 H 593.261 -3.02582 -5.18232 0
M  V30 6053 H 594.331 -3.05082 -3.76899 0
M  V30 6054 N 595.674 1.31259 -0.872281 0
M  V30 6055 C 596.899 2.0133 -0.498099 0
M  V30 6056 C 597.324 1.65031 0.902568 0
M  V30 6057 O 596.682 0.860164 1.59596 0
M  V30 6058 C 596.73 3.54411 -0.665205 0
M  V30 6059 O 595.834 4.11347 0.294473 0
M  V30 6060 H 595.175 0.633844 -0.197832 0
M  V30 6061 H 597.705 1.67402 -1.17633 0
M  V30 6062 H 597.715 4.04147 -0.559373 0
M  V30 6063 H 596.39 3.80171 -1.68651 0
M  V30 6064 H 594.967 3.72624 0.143403 0
M  V30 6065 N 597.152 0.631951 1.44375 0
M  V30 6066 C 598.38 0.143867 2.06399 0
M  V30 6067 C 598.795 -1.18188 1.47231 0
M  V30 6068 O 598.152 -1.72511 0.595498 0
M  V30 6069 C 598.203 0.0238253 3.61492 0
M  V30 6070 O 597.924 1.29715 4.18456 0
M  V30 6071 C 599.425 -0.492856 4.40552 0
M  V30 6072 H 596.645 0.0800542 0.666207 0
M  V30 6073 H 599.189 0.866586 1.85231 0
M  V30 6074 H 597.344 -0.649338 3.81919 0
M  V30 6075 H 597.758 1.14252 5.11905 0
M  V30 6076 H 599.232 -0.525861 5.49489 0
M  V30 6077 H 599.709 -1.52006 4.12057 0
M  V30 6078 H 600.315 0.147085 4.25046 0
M  V30 6079 N 598.631 -1.53133 0.372548 0
M  V30 6080 C 599.579 -2.27473 -0.485681 0
M  V30 6081 C 600.573 -1.30719 -1.07745 0
M  V30 6082 O 601.779 -1.48321 -1.01985 0
M  V30 6083 H 598.154 -0.731269 -0.175356 0
M  V30 6084 H 600.125 -2.97955 0.162986 0
M  V30 6085 C 598.874 -3.08191 -1.60978 0
M  V30 6086 H 598.197 -3.82488 -1.16373 0
M  V30 6087 H 599.637 -3.63373 -2.18485 0
M  V30 6088 C 598.096 -2.19461 -2.55614 0
M  V30 6089 O 598.626 -1.81008 -3.58607 0
M  V30 6090 N 596.832 -1.83955 -2.24965 0
M  V30 6091 H 596.379 -2.15423 -1.41247 0
M  V30 6092 H 596.337 -1.24874 -2.88538 0
M  V30 6093 N 600.109 -0.101901 -1.5727 0
M  V30 6094 C 601.337 0.568392 -1.98939 0
M  V30 6095 C 601.752 1.61301 -0.981194 0
M  V30 6096 O 601.109 1.82478 0.0282869 0
M  V30 6097 C 601.16 1.20997 -3.40649 0
M  V30 6098 O 600.881 0.207129 -4.3761 0
M  V30 6099 C 602.382 1.96523 -3.97358 0
M  V30 6100 H 599.602 0.15186 -0.65359 0
M  V30 6101 H 602.146 -0.183198 -2.03678 0
M  V30 6102 H 600.301 1.91245 -3.36904 0
M  V30 6103 H 600.715 0.671071 -5.20189 0
M  V30 6104 H 602.189 2.36764 -4.98645 0
M  V30 6105 H 602.666 2.83376 -3.35552 0
M  V30 6106 H 603.272 1.31076 -4.04598 0
M  V30 6107 N 601.587 1.56661 0.17182 0
M  V30 6108 C 602.535 1.97289 1.23207 0
M  V30 6109 C 603.529 0.861566 1.45854 0
M  V30 6110 O 604.735 1.04668 1.4644 0
M  V30 6111 H 601.11 0.627681 0.41415 0
M  V30 6112 H 603.081 2.85662 0.862542 0
M  V30 6113 C 601.83 2.34849 2.564 0
M  V30 6114 H 601.153 3.19903 2.39797 0
M  V30 6115 H 602.593 2.67121 3.29276 0
M  V30 6116 C 601.052 1.19172 3.15119 0
M  V30 6117 O 601.582 0.479113 3.98833 0
M  V30 6118 N 599.788 0.962415 2.74201 0
M  V30 6119 H 599.335 1.54365 2.06226 0
M  V30 6120 H 599.293 0.190272 3.13824 0
M  V30 6121 N 603.065 -0.440357 1.51323 0
M  V30 6122 C 604.028 -1.51679 1.71832 0
M  V30 6123 C 605.028 -1.49648 0.588386 0
M  V30 6124 O 606.218 -1.51724 0.855891 0
M  V30 6125 C 603.35 -2.91228 1.77199 0
M  V30 6126 H 604.543 -1.34799 2.67898 0
M  V30 6127 H 602.096 -0.66883 1.41267 0
M  V30 6128 H 602.831 -3.13516 0.829363 0
M  V30 6129 H 602.616 -2.94107 2.59314 0
M  V30 6130 H 604.106 -3.69321 1.94915 0
M  V30 6131 N 604.543 -1.41418 -0.695603 0
M  V30 6132 C 605.791 -1.40496 -1.45277 0
M  V30 6133 C 606.112 -0.0149538 -1.94994 0
M  V30 6134 O 605.382 0.9432 -1.71699 0
M  V30 6135 H 603.962 -0.517147 -0.539044 0
M  V30 6136 H 606.624 -1.76656 -0.823321 0
M  V30 6137 H 605.72 -2.09214 -2.31595 0
M  V30 6138 N 606.021 0.929856 -1.27246 0
M  V30 6139 C 607.249 1.71144 -1.16265 0
M  V30 6140 C 607.664 1.867 0.280786 0
M  V30 6141 O 607.021 1.38249 1.19136 0
M  V30 6142 C 607.072 3.11222 -1.83911 0
M  V30 6143 O 606.793 2.96398 -3.22614 0
M  V30 6144 C 608.294 4.05541 -1.79028 0
M  V30 6145 H 605.514 0.535499 -0.404328 0
M  V30 6146 H 608.058 1.16492 -1.68077 0
M  V30 6147 H 606.213 3.6274 -1.36009 0
M  V30 6148 H 606.627 3.8494 -3.56261 0
M  V30 6149 H 608.101 5.01351 -2.30978 0
M  V30 6150 H 608.578 4.32589 -0.759168 0
M  V30 6151 H 609.184 3.59947 -2.26535 0
M  V30 6152 N 607.499 1.09233 1.13605 0
M  V30 6153 C 608.431 0.687794 2.18637 0
M  V30 6154 C 609.444 -0.26936 1.60556 0
M  V30 6155 O 610.633 -0.0557162 1.78413 0
M  V30 6156 C 607.733 -0.00751901 3.38899 0
M  V30 6157 C 606.906 0.97067 4.26494 0
M  V30 6158 C 605.965 0.309129 5.25291 0
M  V30 6159 O 604.991 0.956149 5.61112 0
M  V30 6160 N 606.193 -0.937555 5.72879 0
M  V30 6161 H 608.958 1.59141 2.53957 0
M  V30 6162 H 606.519 0.979515 1.28907 0
M  V30 6163 H 608.511 -0.461238 4.02063 0
M  V30 6164 H 607.081 -0.813353 3.01833 0
M  V30 6165 H 606.301 1.603 3.60135 0
M  V30 6166 H 607.589 1.63323 4.81875 0
M  V30 6167 H 606.987 -1.48281 5.4592 0
M  V30 6168 H 605.544 -1.33463 6.3799 0
M  V30 6169 N 608.977 -1.30795 0.87923 0
M  V30 6170 C 610.223 -1.96653 0.495519 0
M  V30 6171 C 610.556 -1.69282 -0.951703 0
M  V30 6172 O 609.831 -0.994374 -1.6716 0
M  V30 6173 C 610.114 -3.51898 0.764174 0
M  V30 6174 C 609.967 -3.88808 2.2616 0
M  V30 6175 C 611.286 -4.39462 0.236825 0
M  V30 6176 H 608.405 -0.7143 0.181507 0
M  V30 6177 H 611.047 -1.54765 1.10217 0
M  V30 6178 H 609.197 -3.87709 0.247841 0
M  V30 6179 H 610.869 -3.63051 2.8459 0
M  V30 6180 H 609.112 -3.37082 2.73053 0
M  V30 6181 H 609.783 -4.97086 2.4002 0
M  V30 6182 H 612.259 -4.10528 0.678683 0
M  V30 6183 H 611.135 -5.47018 0.454176 0
M  V30 6184 H 611.396 -4.33621 -0.861683 0
M  V30 6185 N 610.455 -0.639598 -1.44038 0
M  V30 6186 C 611.702 -0.14748 -2.01962 0
M  V30 6187 C 612.03 1.23372 -1.50365 0
M  V30 6188 O 611.285 1.8345 -0.681501 0
M  V30 6189 C 611.584 -0.0925348 -3.5728 0
M  V30 6190 C 611.25 -1.41365 -4.28167 0
M  V30 6191 C 609.912 -1.77545 -4.47248 0
M  V30 6192 C 612.264 -2.2853 -4.68427 0
M  V30 6193 C 609.592 -3.00583 -5.03852 0
M  V30 6194 C 611.944 -3.50846 -5.26393 0
M  V30 6195 C 610.608 -3.8724 -5.43692 0
M  V30 6196 H 609.878 -0.0539666 -0.739032 0
M  V30 6197 H 612.525 -0.827599 -1.72694 0
M  V30 6198 H 610.83 0.670987 -3.86012 0
M  V30 6199 H 612.527 0.304891 -3.99839 0
M  V30 6200 H 609.117 -1.1221 -4.13651 0
M  V30 6201 H 613.301 -2.0187 -4.5339 0
M  V30 6202 H 608.557 -3.28846 -5.15432 0
M  V30 6203 H 612.731 -4.18616 -5.56537 0
M  V30 6204 H 610.358 -4.8266 -5.87319 0
M  V30 6205 N 611.933 1.52934 -0.380664 0
M  V30 6206 C 613.181 2.01069 0.203874 0
M  V30 6207 C 613.502 1.26922 1.4804 0
M  V30 6208 O 612.772 0.386787 1.92044 0
M  V30 6209 H 611.352 0.742882 0.0783279 0
M  V30 6210 H 614.014 1.88099 -0.510368 0
M  V30 6211 H 613.11 3.09258 0.42021 0
M  V30 6212 N 613.412 0.11024 1.57214 0
M  V30 6213 C 614.659 -0.54987 1.94891 0
M  V30 6214 C 614.987 -1.67243 0.992984 0
M  V30 6215 O 614.242 -1.95694 0.0152703 0
M  V30 6216 C 614.541 -1.13102 3.39032 0
M  V30 6217 C 614.207 -0.130713 4.5071 0
M  V30 6218 C 612.869 0.14437 4.80983 0
M  V30 6219 C 615.221 0.551472 5.18274 0
M  V30 6220 C 612.549 1.10807 5.76141 0
M  V30 6221 C 614.901 1.50375 6.14467 0
M  V30 6222 C 613.565 1.78691 6.43138 0
M  V30 6223 H 612.835 -0.201212 0.713158 0
M  V30 6224 H 615.482 0.189288 1.90562 0
M  V30 6225 H 613.787 -1.94675 3.40013 0
M  V30 6226 H 615.484 -1.64973 3.65493 0
M  V30 6227 H 612.074 -0.355301 4.27125 0
M  V30 6228 H 616.258 0.35211 4.95049 0
M  V30 6229 H 611.514 1.3343 5.96663 0
M  V30 6230 H 615.688 2.03808 6.65909 0
M  V30 6231 H 613.315 2.53522 7.1668 0
M  V30 6232 N 614.89 -1.56749 -0.16351 0
M  V30 6233 C 615.822 -1.93587 -1.22705 0
M  V30 6234 C 616.835 -0.829824 -1.40063 0
M  V30 6235 O 618.024 -1.10826 -1.39928 0
M  V30 6236 C 615.124 -2.1803 -2.59454 0
M  V30 6237 C 614.297 -3.4928 -2.63292 0
M  V30 6238 C 613.356 -3.62457 -3.8146 0
M  V30 6239 O 612.382 -4.35004 -3.67096 0
M  V30 6240 N 613.584 -2.97888 -4.9824 0
M  V30 6241 H 616.349 -2.8542 -0.914081 0
M  V30 6242 H 613.91 -1.58 -0.353214 0
M  V30 6243 H 615.902 -2.24102 -3.36987 0
M  V30 6244 H 614.472 -1.32543 -2.8311 0
M  V30 6245 H 613.692 -3.54795 -1.71796 0
M  V30 6246 H 614.98 -4.35632 -2.62873 0
M  V30 6247 H 614.378 -2.38833 -5.12811 0
M  V30 6248 H 612.935 -3.09545 -5.73607 0
M  V30 6249 N 616.368 0.432326 -1.51554 0
M  V30 6250 C 617.298 1.53242 -1.76179 0
M  V30 6251 C 618.279 1.58717 -0.611801 0
M  V30 6252 O 619.464 1.74364 -0.855033 0
M  V30 6253 C 616.594 2.91278 -1.89141 0
M  V30 6254 C 615.548 3.00663 -3.04608 0
M  V30 6255 C 614.874 4.40728 -3.02759 0
M  V30 6256 C 616.174 2.74281 -4.44485 0
M  V30 6257 H 617.868 1.32886 -2.68294 0
M  V30 6258 H 615.414 0.637841 -1.29103 0
M  V30 6259 H 617.367 3.68203 -2.04951 0
M  V30 6260 H 616.091 3.12877 -0.936785 0
M  V30 6261 H 614.75 2.26179 -2.88511 0
M  V30 6262 H 614.398 4.59301 -2.05065 0
M  V30 6263 H 614.098 4.47936 -3.80299 0
M  V30 6264 H 615.622 5.19619 -3.20669 0
M  V30 6265 H 617.036 3.40936 -4.60907 0
M  V30 6266 H 615.433 2.92893 -5.23769 0
M  V30 6267 H 616.503 1.69856 -4.54177 0
M  V30 6268 N 617.846 1.41785 0.688094 0
M  V30 6269 C 618.794 1.44436 1.82321 0
M  V30 6270 C 619.788 0.321544 1.6632 0
M  V30 6271 O 620.994 0.493931 1.73091 0
M  V30 6272 H 617.369 0.452084 0.600936 0
M  V30 6273 H 619.34 2.40087 1.77202 0
M  V30 6274 C 618.089 1.35071 3.20392 0
M  V30 6275 H 617.412 2.2076 3.33324 0
M  V30 6276 H 618.852 1.40988 3.99873 0
M  V30 6277 C 617.311 0.0639127 3.36839 0
M  V30 6278 O 617.841 -0.888495 3.91751 0
M  V30 6279 N 616.047 -0.0146114 2.90596 0
M  V30 6280 H 615.594 0.761191 2.46097 0
M  V30 6281 H 615.552 -0.874988 3.01979 0
M  V30 6282 N 619.324 -0.923095 1.27737 0
M  V30 6283 C 620.735 -1.48626 1.12993 0
M  V30 6284 C 621.086 -1.94142 -0.283439 0
M  V30 6285 O 620.211 -1.81605 -1.17681 0
M  V30 6286 C 620.806 -2.70117 2.04505 0
M  V30 6287 C 619.365 -3.22642 1.93853 0
M  V30 6288 C 618.512 -1.95368 1.96791 0
M  V30 6289 H 621.463 -0.736737 1.40563 0
M  V30 6290 H 621.484 -3.4506 1.60356 0
M  V30 6291 H 620.996 -2.36959 3.07363 0
M  V30 6292 H 619.097 -3.60549 0.939968 0
M  V30 6293 H 619.21 -3.88525 2.80331 0
M  V30 6294 H 617.574 -2.12061 1.41076 0
M  V30 6295 H 618.357 -1.64517 3.01312 0
M  V30 6296 N 620.802 -1.09834 -1.13024 0
M  V30 6297 C 622.05 -0.835297 -1.8403 0
M  V30 6298 C 622.371 0.640944 -1.84165 0
M  V30 6299 O 621.641 1.46517 -1.30037 0
M  V30 6300 H 620.221 -0.306018 -0.681441 0
M  V30 6301 H 622.883 -1.38734 -1.36891 0
M  V30 6302 H 621.979 -1.19258 -2.88416 0
M  V30 6303 N 622.28 1.30327 -0.886154 0
M  V30 6304 C 623.243 2.26376 -0.358687 0
M  V30 6305 C 624.243 1.52845 0.499498 0
M  V30 6306 O 625.433 1.71483 0.306485 0
M  V30 6307 C 622.565 3.37379 0.488726 0
M  V30 6308 H 623.758 2.74547 -1.20681 0
M  V30 6309 H 621.311 1.41536 -0.663113 0
M  V30 6310 H 622.046 2.94526 1.35739 0
M  V30 6311 H 621.831 3.91897 -0.126003 0
M  V30 6312 H 623.321 4.08868 0.84952 0
M  V30 6313 N 623.758 0.647228 1.43697 0
M  V30 6314 C 624.668 -0.0487997 2.34549 0
M  V30 6315 C 625.684 -0.818586 1.53542 0
M  V30 6316 O 626.86 -0.767195 1.86215 0
M  V30 6317 C 623.925 -1.00734 3.31743 0
M  V30 6318 C 622.986 -0.23515 4.28655 0
M  V30 6319 C 622.219 -1.14803 5.21206 0
M  V30 6320 O 622.442 -2.38717 5.18045 0
M  V30 6321 O 621.376 -0.623667 5.9866 0
M  V30 6322 H 625.202 0.698863 2.9555 0
M  V30 6323 H 622.787 0.407412 1.43738 0
M  V30 6324 H 624.669 -1.55837 3.91526 0
M  V30 6325 H 623.344 -1.73534 2.73254 0
M  V30 6326 H 622.251 0.359319 3.7237 0
M  V30 6327 H 623.584 0.453152 4.9011 0
M  V30 6328 N 625.236 -1.5273 0.388769 0
M  V30 6329 C 626.461 -2.0647 -0.19621 0
M  V30 6330 C 626.886 -1.25865 -1.39784 0
M  V30 6331 O 626.244 -0.283562 -1.79069 0
M  V30 6332 C 626.292 -3.56456 -0.5451 0
M  V30 6333 O 625.396 -3.78426 -1.63912 0
M  V30 6334 H 624.737 -0.663599 -0.023067 0
M  V30 6335 H 627.267 -1.96898 0.556084 0
M  V30 6336 H 627.277 -3.99888 -0.809557 0
M  V30 6337 H 625.952 -4.14561 0.333417 0
M  V30 6338 H 624.529 -3.46884 -1.36842 0
M  V30 6339 N 626.714 -0.118576 -1.57153 0
M  V30 6340 C 627.96 0.540326 -1.95469 0
M  V30 6341 C 628.293 1.66356 -1.00196 0
M  V30 6342 O 627.568 1.94461 -0.039104 0
M  V30 6343 C 627.851 1.07342 -3.43729 0
M  V30 6344 C 627.704 -0.0463732 -4.49776 0
M  V30 6345 C 629.023 1.96442 -3.93826 0
M  V30 6346 H 626.142 0.19494 -0.710751 0
M  V30 6347 H 628.784 -0.19405 -1.89006 0
M  V30 6348 H 626.934 1.69925 -3.49368 0
M  V30 6349 H 628.606 -0.681648 -4.56236 0
M  V30 6350 H 626.849 -0.709574 -4.27957 0
M  V30 6351 H 627.52 0.367856 -5.50773 0
M  V30 6352 H 629.996 1.43731 -3.90488 0
M  V30 6353 H 628.872 2.3066 -4.98084 0
M  V30 6354 H 629.133 2.89077 -3.34495 0
M  V30 6355 N 628.193 1.56834 0.155195 0
M  V30 6356 C 629.126 1.9278 1.22111 0
M  V30 6357 C 630.104 0.792588 1.41975 0
M  V30 6358 O 631.288 1.04743 1.5672 0
M  V30 6359 C 628.415 2.19273 2.58142 0
M  V30 6360 C 627.461 3.41932 2.54921 0
M  V30 6361 S 628.294 4.95769 2.02418 0
M  V30 6362 C 629.45 5.25375 3.40194 0
M  V30 6363 H 629.683 2.82889 0.914393 0
M  V30 6364 H 627.216 1.50133 0.360461 0
M  V30 6365 H 629.174 2.35217 3.36427 0
M  V30 6366 H 627.835 1.29843 2.86007 0
M  V30 6367 H 627.028 3.57721 3.55038 0
M  V30 6368 H 626.63 3.25188 1.8474 0
M  V30 6369 H 628.922 5.1834 4.36268 0
M  V30 6370 H 629.865 6.26889 3.29266 0
M  V30 6371 H 630.273 4.52906 3.36951 0
M  V30 6372 N 629.671 -0.424282 1.51781 0
M  V30 6373 C 630.619 -1.53649 1.74628 0
M  V30 6374 C 631.613 -1.57923 0.612922 0
M  V30 6375 O 632.819 -1.61511 0.794618 0
M  V30 6376 H 629.194 -0.510706 0.551981 0
M  V30 6377 H 631.165 -1.31558 2.67834 0
M  V30 6378 C 629.914 -2.91177 1.9003 0
M  V30 6379 H 629.237 -2.88625 2.76651 0
M  V30 6380 H 630.677 -3.6833 2.10021 0
M  V30 6381 C 629.136 -3.30303 0.663435 0
M  V30 6382 O 629.666 -4.01315 -0.175812 0
M  V30 6383 N 627.872 -2.86201 0.503723 0
M  V30 6384 H 627.419 -2.28583 1.18776 0
M  V30 6385 H 627.377 -3.12741 -0.322575 0
M  V30 6386 N 631.149 -1.42148 -0.680565 0
M  V30 6387 C 632.565 -1.24947 -0.992995 0
M  V30 6388 C 632.765 -0.149527 -2.00944 0
M  V30 6389 O 631.821 0.481145 -2.47873 0
M  V30 6390 C 633.134 -2.60426 -1.5033 0
M  V30 6391 C 634.682 -2.67733 -1.62137 0
M  V30 6392 C 635.157 -4.03564 -2.16565 0
M  V30 6393 N 636.648 -4.05488 -2.23905 0
M  V30 6394 C 637.383 -5.07401 -2.67081 0
M  V30 6395 N 636.879 -6.19698 -3.09751 0
M  V30 6396 N 638.672 -4.94758 -2.66778 0
M  V30 6397 H 630.823 -2.12399 -0.0074788 0
M  V30 6398 H 633.086 -0.94571 -0.0658529 0
M  V30 6399 H 632.792 -3.41743 -0.830947 0
M  V30 6400 H 632.666 -2.83949 -2.483 0
M  V30 6401 H 635.053 -1.86765 -2.2848 0
M  V30 6402 H 635.134 -2.48004 -0.626713 0
M  V30 6403 H 634.778 -4.84987 -1.50833 0
M  V30 6404 H 634.708 -4.20641 -3.1681 0
M  V30 6405 H 637.199 -3.24415 -1.93812 0
M  V30 6406 H 637.512 -6.93318 -3.41365 0
M  V30 6407 H 635.857 -6.23212 -3.07623 0
M  V30 6408 H 639.048 -4.06105 -2.32801 0
M  V30 6409 H 639.221 -5.74317 -3.00107 0
M  V30 6410 N 632.627 0.916307 -1.28225 0
M  V30 6411 C 633.855 1.69901 -1.18073 0
M  V30 6412 C 634.27 1.86988 0.260968 0
M  V30 6413 O 633.627 1.39505 1.17663 0
M  V30 6414 C 633.678 3.09254 -1.87201 0
M  V30 6415 O 633.399 2.92959 -3.2574 0
M  V30 6416 C 634.9 4.0362 -1.83319 0
M  V30 6417 H 632.12 0.531181 -0.409985 0
M  V30 6418 H 634.664 1.14703 -1.69303 0
M  V30 6419 H 632.819 3.61277 -1.39848 0
M  V30 6420 H 633.233 3.81139 -3.60324 0
M  V30 6421 H 634.707 4.98873 -2.36282 0
M  V30 6422 H 635.184 4.3176 -0.805007 0
M  V30 6423 H 635.79 3.57524 -2.3034 0
M  V30 6424 N 634.105 1.10431 1.1244 0
M  V30 6425 C 635.035 0.775143 2.20258 0
M  V30 6426 C 636.016 -0.25186 1.68225 0
M  V30 6427 O 637.201 -0.117637 1.93843 0
M  V30 6428 C 634.331 0.206133 3.46688 0
M  V30 6429 C 633.285 1.16382 4.11873 0
M  V30 6430 C 632.611 0.456014 5.32752 0
M  V30 6431 C 633.911 2.5104 4.58013 0
M  V30 6432 H 635.605 1.67665 2.4805 0
M  V30 6433 H 633.151 0.807595 1.19222 0
M  V30 6434 H 635.104 -0.036291 4.21384 0
M  V30 6435 H 633.828 -0.730614 3.18323 0
M  V30 6436 H 632.487 1.39169 3.39157 0
M  V30 6437 H 632.135 -0.485203 5.00654 0
M  V30 6438 H 631.835 1.09466 5.77314 0
M  V30 6439 H 633.359 0.222135 6.10196 0
M  V30 6440 H 634.773 2.32401 5.24083 0
M  V30 6441 H 633.17 3.10789 5.13352 0
M  V30 6442 H 634.24 3.11039 3.71998 0
M  V30 6443 N 635.583 -1.29855 0.893053 0
M  V30 6444 C 636.516 -2.26079 0.3104 0
M  V30 6445 C 637.494 -1.52145 -0.573644 0
M  V30 6446 O 638.678 -1.8113 -0.521937 0
M  V30 6447 C 635.805 -3.34069 -0.558179 0
M  V30 6448 C 634.851 -4.25721 0.257638 0
M  V30 6449 S 635.684 -5.09409 1.65114 0
M  V30 6450 C 636.84 -6.20903 0.789307 0
M  V30 6451 H 637.073 -2.75151 1.12602 0
M  V30 6452 H 634.606 -1.37975 0.692978 0
M  V30 6453 H 636.564 -3.9675 -1.05355 0
M  V30 6454 H 635.225 -2.83705 -1.34797 0
M  V30 6455 H 634.418 -5.02366 -0.405562 0
M  V30 6456 H 634.02 -3.67656 0.685917 0
M  V30 6457 H 636.312 -6.77499 0.00978451 0
M  V30 6458 H 637.255 -6.91426 1.52762 0
M  V30 6459 H 637.663 -5.63435 0.346634 0
M  V30 6460 N 637.061 -0.65484 -1.43351 0
M  V30 6461 C 638.309 -0.168559 -2.01396 0
M  V30 6462 C 638.63 1.22235 -1.51933 0
M  V30 6463 O 637.9 1.81685 -0.732627 0
M  V30 6464 H 636.48 -0.0593244 -0.744641 0
M  V30 6465 H 639.142 -0.846871 -1.75539 0
M  V30 6466 H 638.238 -0.154428 -3.11718 0
M  V30 6467 N 638.539 1.52521 -0.396863 0
M  V30 6468 C 639.449 2.30403 0.44178 0
M  V30 6469 C 640.465 1.37625 1.06468 0
M  V30 6470 O 641.641 1.70697 1.06886 0
M  V30 6471 C 638.706 3.1013 1.54986 0
M  V30 6472 C 637.767 4.18628 0.951279 0
M  V30 6473 C 637 4.94543 2.00655 0
M  V30 6474 O 637.223 4.70629 3.22281 0
M  V30 6475 O 636.157 5.797 1.61962 0
M  V30 6476 H 639.983 3.03087 -0.192892 0
M  V30 6477 H 637.568 1.48537 -0.16038 0
M  V30 6478 H 639.45 3.59816 2.19341 0
M  V30 6479 H 638.125 2.40251 2.16935 0
M  V30 6480 H 637.032 3.73119 0.270773 0
M  V30 6481 H 638.365 4.90763 0.375887 0
M  V30 6482 N 640.017 0.126909 1.57088 0
M  V30 6483 C 641.266 -0.529024 1.94639 0
M  V30 6484 C 641.579 -1.67323 1.01304 0
M  V30 6485 O 642.785 -2.39245 1.28352 0
M  V30 6486 C 641.241 -0.992483 3.45945 0
M  V30 6487 C 640.849 0.123691 4.47829 0
M  V30 6488 C 642.593 -1.61934 3.924 0
M  V30 6489 C 640.5 -0.356911 5.90322 0
M  V30 6490 H 639.43 -0.201397 0.726605 0
M  V30 6491 H 642.081 0.208032 1.82317 0
M  V30 6492 H 640.463 -1.7842 3.53528 0
M  V30 6493 H 641.637 0.900168 4.51922 0
M  V30 6494 H 639.952 0.657699 4.11173 0
M  V30 6495 H 642.549 -1.9902 4.96281 0
M  V30 6496 H 642.892 -2.50075 3.32819 0
M  V30 6497 H 643.425 -0.892894 3.8765 0
M  V30 6498 H 640.164 0.488636 6.53676 0
M  V30 6499 H 639.684 -1.0997 5.89633 0
M  V30 6500 H 641.363 -0.815547 6.41839 0
M  V30 6501 N 641.495 -1.56914 -0.146875 0
M  V30 6502 C 642.425 -2.01308 -1.1831 0
M  V30 6503 C 643.406 -0.892664 -1.44795 0
M  V30 6504 O 644.591 -1.16048 -1.55713 0
M  V30 6505 C 641.721 -2.3938 -2.51624 0
M  V30 6506 C 640.675 -3.54608 -2.3966 0
M  V30 6507 C 640.001 -3.78493 -3.77686 0
M  V30 6508 C 641.301 -4.87269 -1.88058 0
M  V30 6509 H 642.995 -2.88123 -0.813964 0
M  V30 6510 H 640.541 -1.38615 -0.3901 0
M  V30 6511 H 642.494 -2.69037 -3.24341 0
M  V30 6512 H 641.218 -1.49502 -2.90373 0
M  V30 6513 H 639.877 -3.25116 -1.69396 0
M  V30 6514 H 639.525 -2.85866 -4.13871 0
M  V30 6515 H 639.225 -4.56039 -3.70543 0
M  V30 6516 H 640.749 -4.10576 -4.51951 0
M  V30 6517 H 642.163 -5.15644 -2.50568 0
M  V30 6518 H 640.56 -5.68622 -1.91805 0
M  V30 6519 H 641.63 -4.77634 -0.836277 0
M  V30 6520 N 642.974 0.416227 -1.52004 0
M  V30 6521 C 643.922 1.5272 -1.7544 0
M  V30 6522 C 644.916 1.57596 -0.621289 0
M  V30 6523 O 646.122 1.61087 -0.803172 0
M  V30 6524 H 642.497 0.507772 -0.554682 0
M  V30 6525 H 644.468 1.30136 -2.68528 0
M  V30 6526 C 643.217 2.90165 -1.91571 0
M  V30 6527 H 642.54 2.87154 -2.78178 0
M  V30 6528 H 643.98 3.67211 -2.11972 0
M  V30 6529 C 642.439 3.29947 -0.680942 0
M  V30 6530 O 642.969 4.01403 0.154527 0
M  V30 6531 N 641.175 2.8593 -0.518894 0
M  V30 6532 H 640.722 2.2795 -1.19986 0
M  V30 6533 H 640.68 3.12907 0.305985 0
M  V30 6534 N 644.452 1.42507 0.673017 0
M  V30 6535 C 645.682 1.46261 1.45916 0
M  V30 6536 C 646.09 0.0729724 1.89059 0
M  V30 6537 O 645.433 -0.922987 1.58829 0
M  V30 6538 C 645.495 2.32853 2.73898 0
M  V30 6539 C 645.159 3.80699 2.52819 0
M  V30 6540 C 646.156 4.72307 2.17306 0
M  V30 6541 C 643.841 4.24983 2.67758 0
M  V30 6542 C 645.835 6.06192 1.97003 0
M  V30 6543 C 643.522 5.58927 2.4707 0
M  V30 6544 C 644.52 6.49348 2.11746 0
M  V30 6545 O 644.208 7.80817 1.91259 0
M  V30 6546 H 643.94 0.499561 0.455428 0
M  V30 6547 H 646.494 1.87697 0.834196 0
M  V30 6548 H 644.724 1.86268 3.38882 0
M  V30 6549 H 646.413 2.28041 3.35786 0
M  V30 6550 H 647.179 4.39378 2.05359 0
M  V30 6551 H 643.058 3.54893 2.94231 0
M  V30 6552 H 646.602 6.76731 1.69355 0
M  V30 6553 H 642.499 5.91429 2.58615 0
M  V30 6554 H 643.267 7.92194 2.05843 0
M  V30 6555 N 645.93 -0.909495 1.28709 0
M  V30 6556 C 647.16 -1.69027 1.188 0
M  V30 6557 C 647.568 -1.87469 -0.255329 0
M  V30 6558 O 646.911 -1.40458 -1.18394 0
M  V30 6559 C 646.973 -3.10064 1.81936 0
M  V30 6560 C 646.637 -3.14891 3.31199 0
M  V30 6561 C 647.634 -2.95768 4.27571 0
M  V30 6562 C 645.319 -3.37269 3.7223 0
M  V30 6563 C 647.313 -2.98942 5.6295 0
M  V30 6564 C 645 -3.40074 5.07733 0
M  V30 6565 C 645.998 -3.20932 6.02903 0
M  V30 6566 O 645.686 -3.23507 7.35934 0
M  V30 6567 H 645.418 -0.535014 0.413203 0
M  V30 6568 H 647.972 -1.14645 1.70428 0
M  V30 6569 H 646.202 -3.66005 1.24808 0
M  V30 6570 H 647.891 -3.70185 1.66486 0
M  V30 6571 H 648.657 -2.78302 3.97206 0
M  V30 6572 H 644.536 -3.51212 2.98615 0
M  V30 6573 H 648.08 -2.83919 6.37209 0
M  V30 6574 H 643.977 -3.5707 5.37747 0
M  V30 6575 H 644.745 -3.3984 7.44615 0
M  V30 6576 N 647.408 -1.11026 -1.11852 0
M  V30 6577 C 648.371 -0.768006 -2.1595 0
M  V30 6578 C 649.371 0.210538 -1.59416 0
M  V30 6579 O 650.561 -0.0133978 -1.74195 0
M  V30 6580 C 647.693 -0.138678 -3.40618 0
M  V30 6581 H 648.886 -1.69012 -2.4774 0
M  V30 6582 H 646.439 -0.911578 -1.26964 0
M  V30 6583 H 647.174 0.793872 -3.14433 0
M  V30 6584 H 646.959 -0.843012 -3.8293 0
M  V30 6585 H 648.449 0.0848039 -4.17514 0
M  V30 6586 N 648.886 1.2938 -0.899927 0
M  V30 6587 C 649.836 2.25311 -0.349165 0
M  V30 6588 C 650.82 1.51889 0.530892 0
M  V30 6589 O 652.012 1.73028 0.372872 0
M  V30 6590 C 649.141 3.40696 0.422055 0
M  V30 6591 C 648.227 4.21455 -0.472935 0
M  V30 6592 N 648.618 4.8048 -1.58026 0
M  V30 6593 C 646.916 4.45177 -0.270767 0
M  V30 6594 C 647.617 5.41117 -2.13465 0
M  V30 6595 N 646.593 5.24518 -1.42766 0
M  V30 6596 H 650.395 2.68507 -1.19505 0
M  V30 6597 H 647.909 1.43992 -0.751006 0
M  V30 6598 H 649.906 4.08486 0.833369 0
M  V30 6599 H 648.566 2.99037 1.2652 0
M  V30 6600 H 649.577 4.79257 -1.96299 0
M  V30 6601 H 646.254 4.14071 0.533988 0
M  V30 6602 H 647.644 5.979 -3.06537 0
M  V30 6603 N 650.364 0.662433 1.43002 0
M  V30 6604 C 651.61 0.188492 2.02525 0
M  V30 6605 C 651.965 -1.18752 1.51379 0
M  V30 6606 O 651.258 -1.78313 0.701065 0
M  V30 6607 C 651.452 0.149363 3.57088 0
M  V30 6608 C 651.281 1.52004 4.23231 0
M  V30 6609 C 650.051 2.11473 4.5892 0
M  V30 6610 C 652.249 2.46028 4.51635 0
M  V30 6611 N 650.231 3.4145 5.10181 0
M  V30 6612 C 651.602 3.60647 5.04315 0
M  V30 6613 C 653.657 2.44715 4.33612 0
M  V30 6614 C 652.36 4.74189 5.40867 0
M  V30 6615 C 654.386 3.57344 4.71232 0
M  V30 6616 C 653.748 4.70689 5.24053 0
M  V30 6617 H 649.847 0.113615 0.773703 0
M  V30 6618 H 652.431 0.872738 1.74044 0
M  V30 6619 H 650.602 -0.504255 3.85113 0
M  V30 6620 H 652.334 -0.336307 4.033 0
M  V30 6621 H 649.089 1.64087 4.44266 0
M  V30 6622 H 649.513 4.07987 5.40255 0
M  V30 6623 H 654.155 1.58318 3.9204 0
M  V30 6624 H 651.873 5.61271 5.81378 0
M  V30 6625 H 655.459 3.5754 4.58973 0
M  V30 6626 H 654.339 5.56398 5.52621 0
M  V30 6627 N 651.842 -1.52309 0.404946 0
M  V30 6628 C 653.067 -2.06666 -0.1743 0
M  V30 6629 C 653.492 -1.27341 -1.38441 0
M  V30 6630 O 652.85 -0.302539 -1.78758 0
M  V30 6631 C 652.898 -3.57014 -0.507262 0
M  V30 6632 O 652.002 -3.80144 -1.59889 0
M  V30 6633 H 651.343 -0.663807 -0.0160273 0
M  V30 6634 H 653.873 -1.96297 0.576937 0
M  V30 6635 H 653.883 -4.00724 -0.767098 0
M  V30 6636 H 652.558 -4.14184 0.377368 0
M  V30 6637 H 651.135 -3.48316 -1.33155 0
M  V30 6638 N 653.32 -0.135238 -1.57019 0
M  V30 6639 C 654.568 0.51777 -1.95355 0
M  V30 6640 C 654.889 1.6617 -1.02042 0
M  V30 6641 O 654.159 1.95738 -0.0797343 0
M  V30 6642 H 652.739 0.194264 -0.721298 0
M  V30 6643 H 655.401 -0.207983 -1.93787 0
M  V30 6644 H 654.497 0.901675 -2.98791 0
M  V30 6645 N 654.798 1.5699 0.138552 0
M  V30 6646 C 656.023 1.88344 0.86841 0
M  V30 6647 C 656.448 0.725159 1.7356 0
M  V30 6648 O 655.806 -0.324992 1.78363 0
M  V30 6649 C 655.854 3.18334 1.69398 0
M  V30 6650 O 654.958 3.02863 2.79907 0
M  V30 6651 H 654.299 0.618577 0.241367 0
M  V30 6652 H 656.829 2.04207 0.126826 0
M  V30 6653 H 656.839 3.50567 2.08726 0
M  V30 6654 H 655.514 4.02238 1.05725 0
M  V30 6655 H 654.091 2.82056 2.43924 0
M  V30 6656 N 656.276 -0.40816 1.52223 0
M  V30 6657 C 657.525 -1.15212 1.65557 0
M  V30 6658 C 657.838 -1.9163 0.392096 0
M  V30 6659 O 659.044 -2.68458 0.405256 0
M  V30 6660 C 657.5 -2.09691 2.92502 0
M  V30 6661 C 657.108 -1.38785 4.25961 0
M  V30 6662 C 658.852 -2.8434 3.152 0
M  V30 6663 C 656.759 -2.31919 5.44029 0
M  V30 6664 H 655.689 -0.433776 0.616729 0
M  V30 6665 H 658.34 -0.4165 1.78711 0
M  V30 6666 H 656.722 -2.8681 2.7305 0
M  V30 6667 H 657.896 -0.670248 4.55899 0
M  V30 6668 H 656.211 -0.761741 4.09373 0
M  V30 6669 H 658.808 -3.54166 4.00587 0
M  V30 6670 H 659.151 -3.47344 2.29473 0
M  V30 6671 H 659.684 -2.14321 3.35129 0
M  V30 6672 H 656.423 -1.7356 6.32105 0
M  V30 6673 H 655.943 -3.0165 5.18428 0
M  V30 6674 H 657.622 -2.92424 5.77146 0
M  V30 6675 N 657.755 -1.42862 -0.66545 0
M  V30 6676 C 658.702 -1.4707 -1.77874 0
M  V30 6677 C 659.672 -0.321654 -1.62956 0
M  V30 6678 O 660.857 -0.52707 -1.83376 0
M  V30 6679 C 657.997 -1.38788 -3.15962 0
M  V30 6680 C 657.11 -2.63801 -3.42101 0
M  V30 6681 C 656.245 -2.47594 -4.69969 0
M  V30 6682 C 655.284 -3.67936 -4.89172 0
M  V30 6683 N 654.421 -3.50614 -6.08288 0
M  V30 6684 H 659.261 -2.42204 -1.73613 0
M  V30 6685 H 656.798 -1.20239 -0.847401 0
M  V30 6686 H 658.756 -1.31982 -3.95773 0
M  V30 6687 H 657.386 -0.472431 -3.19324 0
M  V30 6688 H 656.438 -2.80935 -2.56475 0
M  V30 6689 H 657.75 -3.53228 -3.52181 0
M  V30 6690 H 656.904 -2.38427 -5.57886 0
M  V30 6691 H 655.643 -1.55672 -4.62188 0
M  V30 6692 H 654.648 -3.77525 -3.99694 0
M  V30 6693 H 655.873 -4.60851 -4.98792 0
M  V30 6694 H 653.819 -2.61417 -6.01662 0
M  V30 6695 H 653.736 -4.33634 -6.19272 0
M  V30 6696 H 655.004 -3.45276 -6.98859 0
M  V30 6697 N 659.233 0.902656 -1.29189 0
M  V30 6698 C 660.482 1.6475 -1.16362 0
M  V30 6699 C 660.795 1.93517 0.284682 0
M  V30 6700 O 662.001 2.66192 0.534229 0
M  V30 6701 C 660.457 2.96848 -2.03493 0
M  V30 6702 C 660.065 2.75687 -3.5313 0
M  V30 6703 C 661.809 3.74762 -1.99383 0
M  V30 6704 C 659.716 4.03492 -4.32375 0
M  V30 6705 H 658.646 0.618041 -0.431904 0
M  V30 6706 H 661.297 1.0008 -1.53806 0
M  V30 6707 H 659.679 3.62715 -1.58916 0
M  V30 6708 H 660.853 2.18431 -4.05739 0
M  V30 6709 H 659.168 2.11171 -3.58881 0
M  V30 6710 H 661.765 4.69515 -2.5585 0
M  V30 6711 H 662.108 4.04767 -0.973123 0
M  V30 6712 H 662.641 3.15732 -2.41988 0
M  V30 6713 H 659.38 3.78656 -5.3507 0
M  V30 6714 H 658.9 4.60318 -3.84535 0
M  V30 6715 H 660.579 4.71662 -4.42881 0
M  V30 6716 N 660.711 1.11618 1.11262 0
M  V30 6717 C 661.939 0.888739 1.8684 0
M  V30 6718 C 662.354 -0.561558 1.80255 0
M  V30 6719 O 661.711 -1.38782 1.18515 0
M  V30 6720 C 661.762 1.34422 3.35579 0
M  V30 6721 O 661.483 2.73766 3.42029 0
M  V30 6722 C 662.984 1.15246 4.28058 0
M  V30 6723 H 660.204 0.318152 0.590779 0
M  V30 6724 H 662.748 1.48398 1.40707 0
M  V30 6725 H 660.903 0.79239 3.7921 0
M  V30 6726 H 661.317 2.9355 4.34659 0
M  V30 6727 H 662.791 1.52015 5.30656 0
M  V30 6728 H 663.268 0.0922007 4.39103 0
M  V30 6729 H 663.874 1.69136 3.90222 0
M  V30 6730 N 662.189 -1.289 0.906776 0
M  V30 6731 C 663.436 -1.95269 0.536326 0
M  V30 6732 C 663.764 -1.71435 -0.918711 0
M  V30 6733 O 663.019 -1.02431 -1.66752 0
M  V30 6734 C 663.318 -3.48704 0.783617 0
M  V30 6735 C 662.984 -3.92626 2.21711 0
M  V30 6736 C 661.646 -4.04329 2.60906 0
M  V30 6737 C 663.998 -4.15218 3.15029 0
M  V30 6738 C 661.326 -4.35998 3.92584 0
M  V30 6739 C 663.678 -4.48365 4.46264 0
M  V30 6740 C 662.342 -4.58278 4.85322 0
M  V30 6741 H 661.612 -0.714538 0.196256 0
M  V30 6742 H 664.259 -1.53366 1.14678 0
M  V30 6743 H 662.564 -3.91696 0.0903048 0
M  V30 6744 H 664.261 -3.98162 0.476267 0
M  V30 6745 H 660.851 -3.84038 1.90296 0
M  V30 6746 H 665.035 -4.05636 2.8596 0
M  V30 6747 H 660.291 -4.41878 4.22557 0
M  V30 6748 H 664.465 -4.64795 5.18593 0
M  V30 6749 H 662.092 -4.82573 5.87391 0
M  V30 6750 N 663.667 -0.670007 -1.42649 0
M  V30 6751 C 664.913 -0.190568 -2.01903 0
M  V30 6752 C 665.246 1.19817 -1.52832 0
M  V30 6753 O 664.521 1.80342 -0.728485 0
M  V30 6754 C 664.804 -0.21991 -3.59428 0
M  V30 6755 C 664.657 -1.64376 -4.18689 0
M  V30 6756 C 665.976 0.434519 -4.3795 0
M  V30 6757 H 663.095 -0.0707219 -0.733599 0
M  V30 6758 H 665.737 -0.853883 -1.69732 0
M  V30 6759 H 663.887 0.344894 -3.86966 0
M  V30 6760 H 665.559 -2.26044 -4.02122 0
M  V30 6761 H 663.802 -2.18591 -3.747 0
M  V30 6762 H 664.473 -1.61601 -5.27815 0
M  V30 6763 H 666.949 -0.0462156 -4.16074 0
M  V30 6764 H 665.825 0.38333 -5.4756 0
M  V30 6765 H 666.086 1.51135 -4.15464 0
M  V30 6766 N 665.145 1.52092 -0.413018 0
M  V30 6767 C 666.392 2.01855 0.161497 0
M  V30 6768 C 666.72 1.29845 1.44812 0
M  V30 6769 O 665.975 0.394471 1.91683 0
M  V30 6770 C 666.274 3.54529 0.4521 0
M  V30 6771 C 665.94 4.4469 -0.745788 0
M  V30 6772 C 664.602 4.69053 -1.07435 0
M  V30 6773 C 666.954 4.97742 -1.54604 0
M  V30 6774 C 664.282 5.43717 -2.20429 0
M  V30 6775 C 666.634 5.73642 -2.66678 0
M  V30 6776 C 665.298 5.96277 -3.00016 0
M  V30 6777 H 664.568 0.73864 0.0590961 0
M  V30 6778 H 667.215 1.83274 -0.555234 0
M  V30 6779 H 665.52 3.7131 1.25045 0
M  V30 6780 H 667.217 3.90546 0.909647 0
M  V30 6781 H 663.807 4.25907 -0.479725 0
M  V30 6782 H 667.991 4.78824 -1.30543 0
M  V30 6783 H 663.247 5.59462 -2.46602 0
M  V30 6784 H 667.421 6.13746 -3.29072 0
M  V30 6785 H 665.048 6.53913 -3.87688 0
M  V30 6786 N 666.623 0.143563 1.56945 0
M  V30 6787 C 667.863 -0.511198 1.97904 0
M  V30 6788 C 668.227 -1.62262 1.0264 0
M  V30 6789 O 669.428 -2.338 1.32631 0
M  V30 6790 C 667.699 -1.00753 3.42905 0
M  V30 6791 S 669.258 -1.66737 4.05887 0
M  V30 6792 H 666.076 -0.165399 0.691494 0
M  V30 6793 H 668.678 0.234464 1.94089 0
M  V30 6794 H 667.382 -0.187817 4.0997 0
M  V30 6795 H 666.913 -1.7879 3.50425 0
M  V30 6796 H 668.928 -2.95444 3.98657 0
M  V30 6797 N 668.101 -1.57061 -0.130224 0
M  V30 6798 C 669.349 -1.83893 -0.838313 0
M  V30 6799 C 669.67 -0.727046 -1.80939 0
M  V30 6800 O 668.94 0.249927 -1.94299 0
M  V30 6801 H 667.52 -0.67846 -0.312573 0
M  V30 6802 H 670.182 -1.94529 -0.120224 0
M  V30 6803 H 669.278 -2.79419 -1.39038 0
M  V30 6804 N 669.579 0.400081 -1.52437 0
M  V30 6805 C 670.804 1.17221 -1.71096 0
M  V30 6806 C 671.229 1.83269 -0.423565 0
M  V30 6807 O 670.587 1.70378 0.619751 0
M  V30 6808 C 670.635 2.20425 -2.85386 0
M  V30 6809 O 669.739 3.26769 -2.51586 0
M  V30 6810 H 669.08 0.341766 -0.569291 0
M  V30 6811 H 671.61 0.467772 -1.99181 0
M  V30 6812 H 671.62 2.64605 -3.10561 0
M  V30 6813 H 670.295 1.71737 -3.78786 0
M  V30 6814 H 668.872 2.87804 -2.37114 0
M  V30 6815 N 671.057 1.43213 0.657864 0
M  V30 6816 C 672.02 1.47687 1.75275 0
M  V30 6817 C 673.02 0.362179 1.56668 0
M  V30 6818 O 674.21 0.623734 1.62651 0
M  V30 6819 C 671.342 1.32497 3.14098 0
M  V30 6820 H 672.535 2.4519 1.7269 0
M  V30 6821 H 670.088 1.2991 0.869087 0
M  V30 6822 H 670.823 0.359831 3.22298 0
M  V30 6823 H 670.608 2.13299 3.29008 0
M  V30 6824 H 672.098 1.38549 3.93946 0
M  V30 6825 N 672.536 -0.895792 1.29666 0
M  V30 6826 C 673.469 -2.00238 1.09453 0
M  V30 6827 C 674.447 -1.62599 0.00527044 0
M  V30 6828 O 675.631 -1.87847 0.156729 0
M  V30 6829 C 672.758 -3.32066 0.667054 0
M  V30 6830 C 671.804 -3.88691 1.7556 0
M  V30 6831 S 672.637 -4.17317 3.35569 0
M  V30 6832 C 673.793 -5.52181 2.94698 0
M  V30 6833 H 674.026 -2.17076 2.03138 0
M  V30 6834 H 671.559 -1.04287 1.13858 0
M  V30 6835 H 673.517 -4.08272 0.427136 0
M  V30 6836 H 672.178 -3.13101 -0.250256 0
M  V30 6837 H 671.371 -4.83918 1.40853 0
M  V30 6838 H 670.973 -3.19187 1.94924 0
M  V30 6839 H 673.265 -6.3281 2.41986 0
M  V30 6840 H 674.208 -5.91817 3.88791 0
M  V30 6841 H 674.616 -5.14225 2.32879 0
M  V30 6842 N 674.014 -1.12206 -1.10668 0
M  V30 6843 C 675.242 -0.898635 -1.86366 0
M  V30 6844 C 675.657 0.551991 -1.80551 0
M  V30 6845 O 675.014 1.38152 -1.19249 0
M  V30 6846 C 675.065 -1.36199 -3.34861 0
M  V30 6847 O 674.786 -2.75576 -3.40573 0
M  V30 6848 C 676.287 -1.17515 -4.2744 0
M  V30 6849 H 673.507 -0.321281 -0.589084 0
M  V30 6850 H 676.051 -1.49142 -1.39918 0
M  V30 6851 H 674.206 -0.81249 -3.78784 0
M  V30 6852 H 674.62 -2.95851 -4.33096 0
M  V30 6853 H 676.094 -1.54827 -5.29842 0
M  V30 6854 H 676.571 -0.115486 -4.39048 0
M  V30 6855 H 677.177 -1.71203 -3.89319 0
M  V30 6856 N 675.492 1.28418 -0.913599 0
M  V30 6857 C 676.72 1.99106 -0.562536 0
M  V30 6858 C 677.135 1.68273 0.856137 0
M  V30 6859 O 676.492 0.935401 1.56705 0
M  V30 6860 C 676.543 3.5338 -0.761903 0
M  V30 6861 O 676.264 3.83127 -2.12475 0
M  V30 6862 C 677.765 4.41328 -0.417651 0
M  V30 6863 H 674.985 0.635798 -0.214481 0
M  V30 6864 H 677.529 1.63618 -1.22676 0
M  V30 6865 H 675.684 3.8713 -0.144676 0
M  V30 6866 H 676.098 4.77763 -2.16431 0
M  V30 6867 H 677.572 5.48642 -0.607919 0
M  V30 6868 H 678.049 4.34422 0.646108 0
M  V30 6869 H 678.655 4.13074 -1.01241 0
M  V30 6870 N 676.97 0.677563 1.42291 0
M  V30 6871 C 678.218 0.200578 2.01102 0
M  V30 6872 C 678.539 -1.19803 1.53858 0
M  V30 6873 O 677.809 -1.80496 0.761439 0
M  V30 6874 H 676.389 0.0711634 0.743603 0
M  V30 6875 H 679.051 0.874691 1.7417 0
M  V30 6876 H 678.147 0.204 3.11433 0
M  V30 6877 N 678.448 -1.51871 0.421078 0
M  V30 6878 C 679.395 -2.27334 -0.398508 0
M  V30 6879 C 680.365 -1.30241 -1.03085 0
M  V30 6880 O 681.55 -1.59121 -1.05285 0
M  V30 6881 C 678.69 -3.10664 -1.50272 0
M  V30 6882 C 677.803 -4.2273 -0.890122 0
M  V30 6883 C 676.938 -4.93399 -1.96803 0
M  V30 6884 C 675.977 -5.97409 -1.333 0
M  V30 6885 N 675.114 -6.61548 -2.35156 0
M  V30 6886 H 679.954 -2.96938 0.251411 0
M  V30 6887 H 677.491 -1.46472 0.135825 0
M  V30 6888 H 679.449 -3.57292 -2.15403 0
M  V30 6889 H 678.079 -2.43207 -2.1225 0
M  V30 6890 H 677.131 -3.80186 -0.127537 0
M  V30 6891 H 678.443 -4.97302 -0.386349 0
M  V30 6892 H 677.597 -5.43491 -2.69633 0
M  V30 6893 H 676.336 -4.18421 -2.50549 0
M  V30 6894 H 675.341 -5.46624 -0.59008 0
M  V30 6895 H 676.566 -6.74335 -0.803076 0
M  V30 6896 H 674.512 -5.89394 -2.88012 0
M  V30 6897 H 674.429 -7.31832 -1.89624 0
M  V30 6898 H 675.697 -7.16276 -3.0752 0
M  V30 6899 N 679.926 -0.151884 -1.56866 0
M  V30 6900 C 681.173 0.498004 -1.96281 0
M  V30 6901 C 681.501 1.64551 -1.03698 0
M  V30 6902 O 680.756 1.95585 -0.0671497 0
M  V30 6903 C 681.055 1.04074 -3.41911 0
M  V30 6904 C 680.721 0.0111688 -4.50899 0
M  V30 6905 C 679.383 -0.271844 -4.80432 0
M  V30 6906 C 681.735 -0.68869 -5.1663 0
M  V30 6907 C 679.063 -1.26044 -5.73001 0
M  V30 6908 C 681.415 -1.66613 -6.10264 0
M  V30 6909 C 680.079 -1.9568 -6.38174 0
M  V30 6910 H 679.349 0.182233 -0.718242 0
M  V30 6911 H 681.996 -0.239746 -1.89993 0
M  V30 6912 H 680.301 1.85592 -3.45055 0
M  V30 6913 H 681.998 1.55224 -3.69738 0
M  V30 6914 H 678.588 0.241932 -4.27917 0
M  V30 6915 H 682.772 -0.48324 -4.93942 0
M  V30 6916 H 678.028 -1.49202 -5.92915 0
M  V30 6917 H 682.202 -2.21392 -6.60272 0
M  V30 6918 H 679.829 -2.72434 -7.09707 0
M  V30 6919 N 681.404 1.57128 0.121893 0
M  V30 6920 C 682.334 2.03165 1.15092 0
M  V30 6921 C 683.315 0.915587 1.43356 0
M  V30 6922 O 684.5 1.1851 1.53847 0
M  V30 6923 C 681.63 2.43352 2.47784 0
M  V30 6924 C 680.584 3.58376 2.33989 0
M  V30 6925 C 679.91 3.84454 3.71617 0
M  V30 6926 C 681.21 4.90199 1.80283 0
M  V30 6927 H 682.904 2.89382 0.768023 0
M  V30 6928 H 680.45 1.39218 0.367998 0
M  V30 6929 H 682.403 2.74163 3.20019 0
M  V30 6930 H 681.127 1.54103 2.87958 0
M  V30 6931 H 679.786 3.2777 1.64202 0
M  V30 6932 H 679.434 2.92414 4.09271 0
M  V30 6933 H 679.134 4.61877 3.6324 0
M  V30 6934 H 680.658 4.17714 4.45362 0
M  V30 6935 H 682.072 5.19565 2.42333 0
M  V30 6936 H 680.469 5.71601 1.82735 0
M  V30 6937 H 681.539 4.78904 0.760184 0
M  V30 6938 N 682.882 -0.391992 1.52647 0
M  V30 6939 C 683.812 -1.48517 1.8018 0
M  V30 6940 C 684.793 -1.57039 0.653667 0
M  V30 6941 O 685.978 -1.72036 0.900962 0
M  V30 6942 C 683.108 -2.86161 1.96797 0
M  V30 6943 C 682.062 -2.92481 3.12472 0
M  V30 6944 C 681.388 -4.32546 3.14338 0
M  V30 6945 C 682.688 -2.624 4.51601 0
M  V30 6946 H 684.382 -1.25726 2.71723 0
M  V30 6947 H 681.928 -0.603387 1.30749 0
M  V30 6948 H 683.881 -3.62639 2.14641 0
M  V30 6949 H 682.605 -3.10283 1.01941 0
M  V30 6950 H 681.264 -2.18451 2.94406 0
M  V30 6951 H 680.912 -4.53703 2.1717 0
M  V30 6952 H 680.612 -4.37695 3.92042 0
M  V30 6953 H 682.136 -5.10934 3.34333 0
M  V30 6954 H 683.55 -3.28596 4.69785 0
M  V30 6955 H 681.947 -2.78903 5.3135 0
M  V30 6956 H 683.017 -1.57754 4.58521 0
M  V30 6957 N 684.36 -1.4356 -0.65026 0
M  V30 6958 C 685.585 -1.48995 -1.44275 0
M  V30 6959 C 686.01 -0.109954 -1.87778 0
M  V30 6960 O 685.368 0.896926 -1.57559 0
M  V30 6961 C 685.416 -2.44341 -2.65198 0
M  V30 6962 O 684.52 -1.93172 -3.6436 0
M  V30 6963 H 683.861 -0.503852 -0.432469 0
M  V30 6964 H 686.391 -1.88504 -0.795446 0
M  V30 6965 H 686.401 -2.61743 -3.12977 0
M  V30 6966 H 685.076 -3.44588 -2.32877 0
M  V30 6967 H 683.653 -1.85445 -3.23519 0
M  V30 6968 N 685.838 0.888903 -1.30139 0
M  V30 6969 C 687.068 1.67115 -1.21474 0
M  V30 6970 C 687.476 1.87852 0.225472 0
M  V30 6971 O 686.819 1.42324 1.16145 0
M  V30 6972 C 686.881 3.0713 -1.86846 0
M  V30 6973 C 686.545 3.09582 -3.36167 0
M  V30 6974 C 687.542 2.88929 -4.32222 0
M  V30 6975 C 685.227 3.31304 -3.77549 0
M  V30 6976 C 687.221 2.89949 -5.67634 0
M  V30 6977 C 684.908 3.31954 -5.13079 0
M  V30 6978 C 685.906 3.113 -6.07932 0
M  V30 6979 O 685.594 3.11758 -7.40987 0
M  V30 6980 H 685.326 0.528372 -0.421662 0
M  V30 6981 H 687.88 1.11919 -1.7223 0
M  V30 6982 H 686.11 3.63973 -1.30615 0
M  V30 6983 H 687.799 3.6749 -1.72354 0
M  V30 6984 H 688.565 2.71948 -4.01584 0
M  V30 6985 H 684.444 3.46417 -3.04165 0
M  V30 6986 H 687.988 2.73746 -6.41645 0
M  V30 6987 H 683.885 3.48469 -5.43359 0
M  V30 6988 H 684.653 3.27951 -7.49927 0
M  V30 6989 N 687.317 1.12792 1.10072 0
M  V30 6990 C 688.28 0.802264 2.14701 0
M  V30 6991 C 689.28 -0.18515 1.59731 0
M  V30 6992 O 690.47 0.041109 1.74151 0
M  V30 6993 C 687.602 0.19285 3.40354 0
M  V30 6994 H 688.795 1.72932 2.45019 0
M  V30 6995 H 686.348 0.931662 1.25498 0
M  V30 6996 H 687.083 -0.743748 3.15656 0
M  V30 6997 H 686.868 0.903827 3.81541 0
M  V30 6998 H 688.358 -0.0183704 4.17596 0
M  V30 6999 N 688.795 -1.27931 0.920396 0
M  V30 7000 C 690.206 -1.76707 0.602616 0
M  V30 7001 C 690.557 -1.75249 -0.882159 0
M  V30 7002 O 689.682 -1.35135 -1.69019 0
M  V30 7003 C 690.277 -3.20884 1.08714 0
M  V30 7004 C 688.836 -3.67356 0.820157 0
M  V30 7005 C 687.983 -2.47525 1.25006 0
M  V30 7006 H 690.934 -1.14301 1.10095 0
M  V30 7007 H 690.955 -3.78045 0.431535 0
M  V30 7008 H 690.467 -3.21913 2.1678 0
M  V30 7009 H 688.568 -3.7178 -0.247012 0
M  V30 7010 H 688.681 -4.57181 1.43257 0
M  V30 7011 H 687.045 -2.45765 0.668698 0
M  V30 7012 H 687.828 -2.51269 2.3392 0
M  V30 7013 N 690.273 -0.685099 -1.4193 0
M  V30 7014 C 691.684 -0.287699 -1.8447 0
M  V30 7015 C 692.035 1.17215 -1.57338 0
M  V30 7016 O 691.16 1.89856 -1.03845 0
M  V30 7017 C 691.755 -0.515385 -3.34857 0
M  V30 7018 C 690.314 -0.172006 -3.76007 0
M  V30 7019 C 689.461 -0.802808 -2.65425 0
M  V30 7020 H 692.412 -0.88652 -1.3163 0
M  V30 7021 H 692.433 0.229251 -3.79809 0
M  V30 7022 H 691.945 -1.57796 -3.54573 0
M  V30 7023 H 690.046 0.886716 -3.61895 0
M  V30 7024 H 690.159 -0.619717 -4.75075 0
M  V30 7025 H 688.523 -0.233267 -2.5363 0
M  V30 7026 H 689.306 -1.86904 -2.87961 0
M  V30 7027 N 691.751 1.51645 -0.429126 0
M  V30 7028 C 692.999 2.01616 0.139802 0
M  V30 7029 C 693.32 1.31568 1.43927 0
M  V30 7030 O 692.59 0.447688 1.90716 0
M  V30 7031 H 691.17 0.744998 0.054654 0
M  V30 7032 H 693.832 1.8638 -0.569952 0
M  V30 7033 H 692.928 3.10439 0.321609 0
M  V30 7034 N 693.229 0.160201 1.56784 0
M  V30 7035 C 694.192 -0.760405 2.16219 0
M  V30 7036 C 695.192 -1.16595 1.10735 0
M  V30 7037 O 696.382 -1.08472 1.36306 0
M  V30 7038 C 693.514 -2.03358 2.73603 0
M  V30 7039 H 694.707 -0.243173 2.98912 0
M  V30 7040 H 692.26 -0.0893139 1.56045 0
M  V30 7041 H 692.995 -2.59416 1.94612 0
M  V30 7042 H 692.78 -1.75186 3.50788 0
M  V30 7043 H 694.27 -2.69081 3.19351 0
M  V30 7044 N 694.707 -1.5719 -0.113559 0
M  V30 7045 C 695.955 -1.84772 -0.818761 0
M  V30 7046 C 696.276 -0.746196 -1.80158 0
M  V30 7047 O 695.546 0.229305 -1.94553 0
M  V30 7048 H 694.126 -0.681737 -0.305359 0
M  V30 7049 H 696.788 -1.94645 -0.0995845 0
M  V30 7050 H 695.884 -2.80878 -1.36067 0
M  V30 7051 N 696.185 0.383891 -1.52853 0
M  V30 7052 C 697.148 1.45197 -1.77343 0
M  V30 7053 C 698.148 1.47362 -0.643522 0
M  V30 7054 O 699.338 1.48443 -0.911613 0
M  V30 7055 C 696.47 2.8445 -1.87885 0
M  V30 7056 H 697.663 1.24764 -2.72716 0
M  V30 7057 H 695.216 0.615939 -1.43652 0
M  V30 7058 H 695.951 3.10222 -0.94515 0
M  V30 7059 H 695.736 2.8428 -2.70051 0
M  V30 7060 H 697.226 3.61832 -2.08488 0
M  V30 7061 N 697.663 1.43903 0.642637 0
M  V30 7062 C 699.074 1.40975 1.22404 0
M  V30 7063 C 699.425 0.1192 1.95838 0
M  V30 7064 O 698.55 -0.780939 2.01818 0
M  V30 7065 C 699.145 2.5538 2.22636 0
M  V30 7066 C 697.704 2.55684 2.76229 0
M  V30 7067 C 696.851 2.32556 1.51039 0
M  V30 7068 H 699.802 1.5265 0.434006 0
M  V30 7069 H 699.823 2.27474 3.05017 0
M  V30 7070 H 699.335 3.49294 1.69161 0
M  V30 7071 H 697.436 1.65679 3.33738 0
M  V30 7072 H 697.549 3.53799 3.23053 0
M  V30 7073 H 695.913 1.81427 1.78764 0
M  V30 7074 H 696.696 3.28569 0.99484 0
M  V30 7075 N 699.141 -0.881989 1.30609 0
M  V30 7076 C 700.088 -1.98803 1.17244 0
M  V30 7077 C 701.058 -1.65987 0.0611905 0
M  V30 7078 O 702.243 -1.89385 0.231911 0
M  V30 7079 C 699.383 -3.33867 0.87333 0
M  V30 7080 C 698.496 -3.79354 2.06675 0
M  V30 7081 C 697.631 -5.03078 1.70547 0
M  V30 7082 C 696.67 -5.40981 2.86366 0
M  V30 7083 N 695.807 -6.55886 2.50514 0
M  V30 7084 H 700.647 -2.09566 2.11863 0
M  V30 7085 H 698.184 -1.02607 1.05405 0
M  V30 7086 H 700.142 -4.11612 0.680519 0
M  V30 7087 H 698.772 -3.2278 -0.0359983 0
M  V30 7088 H 697.824 -2.97492 2.37071 0
M  V30 7089 H 699.136 -4.03382 2.93401 0
M  V30 7090 H 698.29 -5.88457 1.47658 0
M  V30 7091 H 697.029 -4.80927 0.809947 0
M  V30 7092 H 696.034 -4.54127 3.09917 0
M  V30 7093 H 697.259 -5.65104 3.76609 0
M  V30 7094 H 695.205 -6.35306 1.63471 0
M  V30 7095 H 695.122 -6.79799 3.30771 0
M  V30 7096 H 696.39 -7.44489 2.30989 0
M  V30 7097 N 700.619 -1.13374 -1.09472 0
M  V30 7098 C 701.847 -0.918351 -1.85402 0
M  V30 7099 C 702.262 0.53281 -1.81126 0
M  V30 7100 O 701.619 1.36879 -1.20708 0
M  V30 7101 C 701.67 -1.39743 -3.33398 0
M  V30 7102 O 701.391 -2.79172 -3.37631 0
M  V30 7103 C 702.892 -1.22042 -4.2617 0
M  V30 7104 H 700.112 -0.327511 -0.585643 0
M  V30 7105 H 702.656 -1.50617 -1.38328 0
M  V30 7106 H 700.811 -0.852619 -3.77901 0
M  V30 7107 H 701.225 -3.00428 -4.29934 0
M  V30 7108 H 702.699 -1.60438 -5.2817 0
M  V30 7109 H 703.176 -0.162047 -4.38901 0
M  V30 7110 H 703.782 -1.75323 -3.87482 0
M  V30 7111 N 702.098 1.27442 -0.927168 0
M  V30 7112 C 703.514 1.46754 -0.627329 0
M  V30 7113 C 703.714 1.83902 0.823549 0
M  V30 7114 O 702.77 1.95215 1.60148 0
M  V30 7115 C 704.083 2.56045 -1.57674 0
M  V30 7116 C 705.631 2.69906 -1.58491 0
M  V30 7117 C 706.106 3.82355 -2.52128 0
M  V30 7118 N 707.597 3.89728 -2.50332 0
M  V30 7119 C 708.332 4.76155 -3.19475 0
M  V30 7120 N 707.828 5.67073 -3.97995 0
M  V30 7121 N 709.621 4.6988 -3.08496 0
M  V30 7122 H 701.772 1.01613 -1.86517 0
M  V30 7123 H 704.035 0.507443 -0.800753 0
M  V30 7124 H 703.741 2.35542 -2.61176 0
M  V30 7125 H 703.615 3.53423 -1.31804 0
M  V30 7126 H 706.002 2.89792 -0.557208 0
M  V30 7127 H 706.083 1.73018 -1.8841 0
M  V30 7128 H 705.727 3.63224 -3.55008 0
M  V30 7129 H 705.657 4.7867 -2.19505 0
M  V30 7130 H 708.148 3.24717 -1.93306 0
M  V30 7131 H 708.461 6.2988 -4.4774 0
M  V30 7132 H 706.806 5.6687 -4.02098 0
M  V30 7133 H 709.997 3.97848 -2.46646 0
M  V30 7134 H 710.17 5.37017 -3.62652 0
M  V30 7135 N 703.576 0.692616 1.41565 0
M  V30 7136 C 704.523 0.0254264 2.30786 0
M  V30 7137 C 705.493 -0.774347 1.46946 0
M  V30 7138 O 706.678 -0.742981 1.7574 0
M  V30 7139 C 703.818 -0.907123 3.32964 0
M  V30 7140 C 702.931 -0.0992784 4.31886 0
M  V30 7141 C 702.066 -1.0292 5.21134 0
M  V30 7142 C 701.105 -0.214088 6.11725 0
M  V30 7143 N 700.242 -1.09766 6.93467 0
M  V30 7144 H 705.082 0.792036 2.87282 0
M  V30 7145 H 702.619 0.4023 1.41492 0
M  V30 7146 H 704.577 -1.46181 3.90752 0
M  V30 7147 H 703.207 -1.64016 2.78026 0
M  V30 7148 H 702.259 0.572287 3.76071 0
M  V30 7149 H 703.571 0.532782 4.95946 0
M  V30 7150 H 702.725 -1.65321 5.83741 0
M  V30 7151 H 701.464 -1.69512 4.57293 0
M  V30 7152 H 700.469 0.42302 5.4817 0
M  V30 7153 H 701.694 0.447995 6.77621 0
M  V30 7154 H 699.64 -1.74965 6.32237 0
M  V30 7155 H 699.557 -0.521099 7.54202 0
M  V30 7156 H 700.825 -1.70858 7.60544 0
M  V30 7157 N 705.054 -1.51416 0.437162 0
M  V30 7158 C 706.331 -1.94682 -0.189292 0
M  V30 7159 C 706.711 -1.37581 -1.60108 0
M  V30 7160 O 706.059 -0.562815 -2.2146 0
M  V30 7161 C 706.269 -3.48599 -0.167201 0
M  V30 7162 C 707.617 -4.2296 -0.372856 0
M  V30 7163 O 708.641 -3.55354 -0.245323 0
M  V30 7164 O 707.5 -5.42895 -0.626693 0
M  V30 7165 H 704.594 -0.816708 -0.130063 0
M  V30 7166 H 707.14 -1.62316 0.495128 0
M  V30 7167 H 705.912 -3.82616 0.81981 0
M  V30 7168 H 705.535 -3.87406 -0.894537 0
M  V30 7169 N 706.532 -0.168513 -1.56696 0
M  V30 7170 C 707.495 0.748928 -2.16619 0
M  V30 7171 C 708.495 1.16007 -1.11351 0
M  V30 7172 O 709.685 1.07748 -1.3688 0
M  V30 7173 C 706.817 2.01904 -2.74677 0
M  V30 7174 H 708.01 0.227317 -2.99037 0
M  V30 7175 H 705.563 0.0810372 -1.5609 0
M  V30 7176 H 706.298 2.58381 -1.95985 0
M  V30 7177 H 706.083 1.73323 -3.51712 0
M  V30 7178 H 707.573 2.67383 -3.20774 0
M  V30 7179 N 708.01 1.57248 0.105221 0
M  V30 7180 C 708.943 1.96567 1.15916 0
M  V30 7181 C 709.921 0.837355 1.39381 0
M  V30 7182 O 711.105 1.09676 1.53308 0
M  V30 7183 C 708.232 2.27375 2.51035 0
M  V30 7184 C 707.278 3.49869 2.43913 0
M  V30 7185 S 708.111 5.01958 1.86543 0
M  V30 7186 C 709.267 5.35932 3.23307 0
M  V30 7187 H 709.5 2.85655 0.823931 0
M  V30 7188 H 707.033 1.51204 0.312515 0
M  V30 7189 H 708.991 2.45801 3.28774 0
M  V30 7190 H 707.652 1.38876 2.81731 0
M  V30 7191 H 706.845 3.68835 3.43477 0
M  V30 7192 H 706.447 3.30901 1.743 0
M  V30 7193 H 708.739 5.31958 4.19556 0
M  V30 7194 H 709.682 6.37047 3.09155 0
M  V30 7195 H 710.09 4.63397 3.22372 0
M  V30 7196 N 709.488 -0.375779 1.53054 0
M  V30 7197 C 710.418 -1.46598 1.81745 0
M  V30 7198 C 711.399 -1.56337 0.670286 0
M  V30 7199 O 712.584 -1.71071 0.919158 0
M  V30 7200 C 709.714 -2.84058 1.99821 0
M  V30 7201 C 708.668 -2.8915 3.15557 0
M  V30 7202 C 707.994 -4.29187 3.18908 0
M  V30 7203 C 709.294 -2.57595 4.54359 0
M  V30 7204 H 710.988 -1.22837 2.73041 0
M  V30 7205 H 708.534 -0.589485 1.31381 0
M  V30 7206 H 710.487 -3.60342 2.18475 0
M  V30 7207 H 709.211 -3.09184 1.05226 0
M  V30 7208 H 707.87 -2.15316 2.96706 0
M  V30 7209 H 707.518 -4.51374 2.2197 0
M  V30 7210 H 707.218 -4.33512 3.96662 0
M  V30 7211 H 708.742 -5.07359 3.39734 0
M  V30 7212 H 710.156 -3.23595 4.73243 0
M  V30 7213 H 708.553 -2.73252 5.34279 0
M  V30 7214 H 709.623 -1.52882 4.60169 0
M  V30 7215 N 710.966 -1.44241 -0.634997 0
M  V30 7216 C 712.214 -1.46531 -1.39187 0
M  V30 7217 C 712.535 -0.0976441 -1.94755 0
M  V30 7218 O 711.805 0.869528 -1.75545 0
M  V30 7219 H 710.385 -0.539544 -0.516625 0
M  V30 7220 H 713.047 -1.79989 -0.747655 0
M  V30 7221 H 712.143 -2.18848 -2.22513 0
M  V30 7222 N 712.444 0.87505 -1.31075 0
M  V30 7223 C 713.672 1.66058 -1.23419 0
M  V30 7224 C 714.087 1.87723 0.201347 0
M  V30 7225 O 713.444 1.43178 1.13165 0
M  V30 7226 C 713.495 3.03142 -1.96945 0
M  V30 7227 O 713.216 2.82448 -3.34895 0
M  V30 7228 C 714.717 3.97583 -1.96067 0
M  V30 7229 H 711.937 0.517868 -0.426677 0
M  V30 7230 H 714.481 1.09258 -1.72867 0
M  V30 7231 H 712.636 3.56645 -1.51271 0
M  V30 7232 H 713.05 3.69483 -3.72267 0
M  V30 7233 H 714.524 4.91104 -2.52034 0
M  V30 7234 H 715.001 4.2898 -0.941961 0
M  V30 7235 H 715.607 3.50015 -2.41597 0
M  V30 7236 N 713.922 1.13953 1.08869 0
M  V30 7237 C 714.872 0.790812 2.13846 0
M  V30 7238 C 715.856 -0.217819 1.59419 0
M  V30 7239 O 717.048 -0.0208723 1.76988 0
M  V30 7240 C 714.177 0.26479 3.42277 0
M  V30 7241 C 713.263 1.30267 4.03598 0
M  V30 7242 N 713.654 2.50535 4.39393 0
M  V30 7243 C 711.952 1.15178 4.30871 0
M  V30 7244 C 712.653 3.16938 4.87776 0
M  V30 7245 N 711.629 2.44349 4.85587 0
M  V30 7246 H 715.431 1.70577 2.39334 0
M  V30 7247 H 712.945 1.02268 1.26154 0
M  V30 7248 H 714.942 -0.00330398 4.169 0
M  V30 7249 H 713.602 -0.644419 3.18241 0
M  V30 7250 H 714.613 2.87798 4.30572 0
M  V30 7251 H 711.29 0.301204 4.16412 0
M  V30 7252 H 712.68 4.19453 5.2489 0
M  V30 7253 N 715.4 -1.26948 0.933913 0
M  V30 7254 C 716.646 -1.94374 0.57848 0
M  V30 7255 C 716.979 -1.73166 -0.879048 0
M  V30 7256 O 716.254 -1.06438 -1.62792 0
M  V30 7257 C 716.537 -3.4834 0.912739 0
M  V30 7258 C 716.39 -3.78866 2.42448 0
M  V30 7259 C 717.709 -4.38062 0.423003 0
M  V30 7260 H 714.828 -0.705959 0.211639 0
M  V30 7261 H 717.47 -1.49951 1.16682 0
M  V30 7262 H 715.62 -3.86309 0.412058 0
M  V30 7263 H 717.292 -3.50654 2.99733 0
M  V30 7264 H 715.535 -3.25198 2.87104 0
M  V30 7265 H 716.206 -4.86458 2.60887 0
M  V30 7266 H 718.682 -4.0728 0.852191 0
M  V30 7267 H 717.558 -5.44599 0.685776 0
M  V30 7268 H 717.819 -4.36886 -0.676994 0
M  V30 7269 N 716.879 -0.700114 -1.41195 0
M  V30 7270 C 718.125 -0.233351 -2.01453 0
M  V30 7271 C 718.458 1.16548 -1.55339 0
M  V30 7272 O 717.733 1.78756 -0.766575 0
M  V30 7273 C 718.016 -0.2961 -3.58881 0
M  V30 7274 C 717.869 -1.7322 -4.15108 0
M  V30 7275 C 719.188 0.341525 -4.38773 0
M  V30 7276 H 716.307 -0.0862667 -0.731934 0
M  V30 7277 H 718.949 -0.889693 -1.67882 0
M  V30 7278 H 717.099 0.262736 -3.87611 0
M  V30 7279 H 718.771 -2.34523 -3.97236 0
M  V30 7280 H 717.014 -2.2649 -3.69979 0
M  V30 7281 H 717.685 -1.7276 -5.24269 0
M  V30 7282 H 720.161 -0.134461 -4.15883 0
M  V30 7283 H 719.037 0.267098 -5.4825 0
M  V30 7284 H 719.298 1.42289 -4.18577 0
M  V30 7285 N 718.357 1.51182 -0.445186 0
M  V30 7286 C 719.603 2.03097 0.111049 0
M  V30 7287 C 719.958 1.32293 1.397 0
M  V30 7288 O 719.251 0.431529 1.86677 0
M  V30 7289 C 719.445 3.55408 0.376797 0
M  V30 7290 C 719.274 4.40969 -0.88185 0
M  V30 7291 C 718.044 4.85006 -1.41766 0
M  V30 7292 C 720.242 4.82876 -1.77017 0
M  V30 7293 N 718.224 5.54804 -2.62803 0
M  V30 7294 C 719.595 5.51821 -2.82654 0
M  V30 7295 C 721.65 4.64855 -1.78365 0
M  V30 7296 C 720.353 6.04655 -3.89595 0
M  V30 7297 C 722.379 5.18612 -2.84246 0
M  V30 7298 C 721.741 5.87509 -3.88603 0
M  V30 7299 H 717.84 0.781999 0.0012696 0
M  V30 7300 H 720.424 1.84976 -0.60761 0
M  V30 7301 H 718.595 3.73528 1.06449 0
M  V30 7302 H 720.327 3.93985 0.925082 0
M  V30 7303 H 717.082 4.6355 -0.970476 0
M  V30 7304 H 717.506 5.94326 -3.24201 0
M  V30 7305 H 722.148 4.11043 -0.990119 0
M  V30 7306 H 719.866 6.57518 -4.69782 0
M  V30 7307 H 723.452 5.06515 -2.86241 0
M  V30 7308 H 722.332 6.28358 -4.69186 0
M  V30 7309 N 719.835 0.176821 1.56605 0
M  V30 7310 C 721.112 -0.513365 1.88743 0
M  V30 7311 C 721.492 -1.80929 1.08757 0
M  V30 7312 O 720.84 -2.27765 0.183127 0
M  V30 7313 C 721.05 -0.749925 3.40848 0
M  V30 7314 C 722.398 -1.07747 4.10701 0
M  V30 7315 O 723.422 -0.838277 3.46196 0
M  V30 7316 O 722.281 -1.52901 5.24675 0
M  V30 7317 H 719.375 -0.265296 0.783292 0
M  V30 7318 H 721.921 0.215669 1.68324 0
M  V30 7319 H 720.693 0.16599 3.90948 0
M  V30 7320 H 720.316 -1.53208 3.66897 0
M  V30 7321 N 721.313 -1.57302 -0.09688 0
M  V30 7322 C 722.559 -1.86273 -0.801885 0
M  V30 7323 C 722.892 -0.765694 -1.78468 0
M  V30 7324 O 722.167 0.226495 -1.93177 0
M  V30 7325 C 722.45 -3.25876 -1.53221 0
M  V30 7326 C 722.303 -4.46205 -0.567529 0
M  V30 7327 C 723.622 -3.63352 -2.48321 0
M  V30 7328 H 720.741 -0.67752 -0.29006 0
M  V30 7329 H 723.383 -1.89887 -0.0655577 0
M  V30 7330 H 721.533 -3.22926 -2.15988 0
M  V30 7331 H 723.205 -4.6127 0.0529982 0
M  V30 7332 H 721.448 -4.33636 0.119233 0
M  V30 7333 H 722.119 -5.40608 -1.11564 0
M  V30 7334 H 724.595 -3.67234 -1.95648 0
M  V30 7335 H 723.471 -4.61968 -2.9644 0
M  V30 7336 H 723.732 -2.91941 -3.31998 0
M  V30 7337 N 722.791 0.367657 -1.53252 0
M  V30 7338 C 724.039 1.10832 -1.68999 0
M  V30 7339 C 724.36 1.89894 -0.443306 0
M  V30 7340 O 723.63 1.88235 0.54262 0
M  V30 7341 H 722.21 0.412153 -0.623008 0
M  V30 7342 H 724.872 0.414775 -1.90435 0
M  V30 7343 H 723.968 1.7993 -2.55013 0
M  V30 7344 N 724.269 1.44576 0.627338 0
M  V30 7345 C 725.199 1.54562 1.75022 0
M  V30 7346 C 726.18 0.398378 1.65369 0
M  V30 7347 O 727.365 0.61899 1.84071 0
M  V30 7348 C 724.495 1.49309 3.13567 0
M  V30 7349 C 723.449 2.62549 3.38012 0
M  V30 7350 C 722.775 2.42348 4.76625 0
M  V30 7351 C 724.075 4.04678 3.30202 0
M  V30 7352 H 725.769 2.4855 1.66922 0
M  V30 7353 H 723.315 1.19624 0.801636 0
M  V30 7354 H 725.268 1.54895 3.919 0
M  V30 7355 H 723.992 0.518392 3.2246 0
M  V30 7356 H 722.651 2.56358 2.62061 0
M  V30 7357 H 722.299 1.43062 4.82226 0
M  V30 7358 H 721.999 3.18273 4.93939 0
M  V30 7359 H 723.523 2.49758 5.57183 0
M  V30 7360 H 724.937 4.12217 3.98435 0
M  V30 7361 H 723.334 4.80836 3.5905 0
M  V30 7362 H 724.404 4.2798 2.27949 0
M  V30 7363 N 725.747 -0.868086 1.31537 0
M  V30 7364 C 726.679 -1.98165 1.15166 0
M  V30 7365 C 727.692 -1.6255 0.0902335 0
M  V30 7366 O 728.881 -1.75272 0.33791 0
M  V30 7367 C 725.981 -3.30772 0.737776 0
M  V30 7368 C 725.154 -3.94716 1.88462 0
M  V30 7369 C 724.213 -5.05641 1.45648 0
M  V30 7370 O 723.239 -5.2636 2.16642 0
M  V30 7371 N 724.441 -5.79474 0.34493 0
M  V30 7372 H 727.206 -2.12754 2.11083 0
M  V30 7373 H 724.767 -1.04217 1.23897 0
M  V30 7374 H 726.759 -4.02366 0.434032 0
M  V30 7375 H 725.329 -3.1233 -0.129834 0
M  V30 7376 H 724.549 -3.16079 2.35558 0
M  V30 7377 H 725.837 -4.34175 2.65273 0
M  V30 7378 H 725.235 -5.65164 -0.246259 0
M  V30 7379 H 723.792 -6.51722 0.100728 0
M  V30 7380 N 727.225 -1.14528 -1.08264 0
M  V30 7381 C 728.45 -0.938381 -1.84957 0
M  V30 7382 C 728.875 0.508044 -1.81109 0
M  V30 7383 O 728.233 1.36146 -1.19724 0
M  V30 7384 C 728.281 -1.44568 -3.30352 0
M  V30 7385 O 727.385 -0.638745 -4.07423 0
M  V30 7386 H 726.726 -0.335394 -0.573068 0
M  V30 7387 H 729.256 -1.52287 -1.36637 0
M  V30 7388 H 729.266 -1.45449 -3.81194 0
M  V30 7389 H 727.941 -2.49876 -3.32468 0
M  V30 7390 H 726.518 -0.698801 -3.66294 0
M  V30 7391 N 728.703 1.26451 -0.940633 0
M  V30 7392 C 729.928 1.98407 -0.60412 0
M  V30 7393 C 730.353 1.69584 0.81382 0
M  V30 7394 O 729.711 0.943553 1.54812 0
M  V30 7395 C 729.759 3.50387 -0.852136 0
M  V30 7396 O 728.863 4.1233 0.076013 0
M  V30 7397 H 728.204 0.622466 -0.231153 0
M  V30 7398 H 730.734 1.60932 -1.26342 0
M  V30 7399 H 730.744 4.00614 -0.772816 0
M  V30 7400 H 729.419 3.70696 -1.88566 0
M  V30 7401 H 727.996 3.7286 -0.0543187 0
M  V30 7402 N 730.181 0.707592 1.40822 0
M  V30 7403 C 731.421 0.247986 2.0289 0
M  V30 7404 C 731.785 -1.13484 1.54872 0
M  V30 7405 O 732.986 -1.69098 2.08948 0
M  V30 7406 C 731.257 0.316326 3.55997 0
M  V30 7407 S 732.816 -0.0674698 4.38748 0
M  V30 7408 H 729.634 0.09895 0.704081 0
M  V30 7409 H 732.236 0.928039 1.72069 0
M  V30 7410 H 730.94 1.32453 3.88438 0
M  V30 7411 H 730.471 -0.382474 3.91536 0
M  V30 7412 H 732.486 -1.29182 4.79089 0
M  V30 7413 N 731.66 -1.50943 0.453197 0
M  V30 7414 C 732.906 -2.02512 -0.108082 0
M  V30 7415 C 733.239 -1.33574 -1.40967 0
M  V30 7416 O 732.514 -0.455671 -1.89087 0
M  V30 7417 C 732.797 -3.58759 -0.310453 0
M  V30 7418 C 732.65 -4.38293 1.0109 0
M  V30 7419 C 733.969 -4.26816 -1.07313 0
M  V30 7420 H 731.088 -0.73603 -0.0378064 0
M  V30 7421 H 733.73 -1.80433 0.595295 0
M  V30 7422 H 731.88 -3.77702 -0.909582 0
M  V30 7423 H 733.552 -4.30964 1.64523 0
M  V30 7424 H 731.795 -4.02745 1.61179 0
M  V30 7425 H 732.466 -5.45828 0.82315 0
M  V30 7426 H 734.942 -4.1224 -0.565473 0
M  V30 7427 H 733.818 -5.35989 -1.1835 0
M  V30 7428 H 734.079 -3.88757 -2.10525 0
M  V30 7429 N 733.138 -0.185124 -1.56509 0
M  V30 7430 C 734.068 0.735098 -2.21627 0
M  V30 7431 C 735.049 1.2288 -1.1762 0
M  V30 7432 O 736.234 1.27945 -1.46095 0
M  V30 7433 C 733.364 1.95889 -2.86783 0
M  V30 7434 C 732.318 1.6005 -3.96948 0
M  V30 7435 C 731.644 2.90009 -4.4922 0
M  V30 7436 C 732.944 0.818008 -5.15855 0
M  V30 7437 H 734.638 0.192274 -2.98782 0
M  V30 7438 H 732.184 0.0910393 -1.43712 0
M  V30 7439 H 734.137 2.60779 -3.31017 0
M  V30 7440 H 732.861 2.52608 -2.07018 0
M  V30 7441 H 731.52 0.975237 -3.5339 0
M  V30 7442 H 731.168 3.44797 -3.6623 0
M  V30 7443 H 730.868 2.66778 -5.23549 0
M  V30 7444 H 732.392 3.55904 -4.9615 0
M  V30 7445 H 733.806 1.36979 -5.56695 0
M  V30 7446 H 732.203 0.684207 -5.96187 0
M  V30 7447 H 733.273 -0.182939 -4.84555 0
M  V30 7448 N 734.616 1.57351 0.0885366 0
M  V30 7449 C 735.856 1.88248 0.796362 0
M  V30 7450 C 736.22 0.776915 1.75579 0
M  V30 7451 O 737.421 0.968485 2.50747 0
M  V30 7452 C 735.692 3.24385 1.50031 0
M  V30 7453 S 737.251 3.76991 2.24551 0
M  V30 7454 H 734.069 0.659697 0.265181 0
M  V30 7455 H 736.671 1.95428 0.0531843 0
M  V30 7456 H 735.375 4.02764 0.788 0
M  V30 7457 H 734.906 3.20361 2.28325 0
M  V30 7458 H 736.921 3.50933 3.508 0
M  V30 7459 N 736.094 -0.359525 1.53444 0
M  V30 7460 C 737.343 -1.09886 1.69139 0
M  V30 7461 C 737.656 -1.90285 0.452863 0
M  V30 7462 O 738.862 -2.67033 0.490459 0
M  V30 7463 C 737.318 -2.0028 2.99025 0
M  V30 7464 C 736.926 -1.25164 4.30161 0
M  V30 7465 C 738.67 -2.74168 3.24086 0
M  V30 7466 C 736.577 -2.14494 5.51132 0
M  V30 7467 H 735.507 -0.413936 0.630217 0
M  V30 7468 H 738.158 -0.359434 1.79945 0
M  V30 7469 H 736.54 -2.77978 2.82036 0
M  V30 7470 H 737.714 -0.524867 4.57801 0
M  V30 7471 H 736.029 -0.631116 4.11589 0
M  V30 7472 H 738.626 -3.41243 4.11652 0
M  V30 7473 H 738.969 -3.39868 2.40407 0
M  V30 7474 H 739.502 -2.0355 3.41778 0
M  V30 7475 H 736.241 -1.53362 6.37307 0
M  V30 7476 H 735.761 -2.85004 5.27762 0
M  V30 7477 H 737.44 -2.73914 5.86157 0
M  V30 7478 N 737.572 -1.44907 -0.619662 0
M  V30 7479 C 738.983 -1.42905 -1.20146 0
M  V30 7480 C 739.334 -0.150341 -1.95623 0
M  V30 7481 O 738.459 0.748732 -2.03034 0
M  V30 7482 C 739.054 -2.58889 -2.18545 0
M  V30 7483 C 737.613 -2.60046 -2.72127 0
M  V30 7484 C 736.76 -2.3493 -1.4732 0
M  V30 7485 H 739.711 -1.53321 -0.409666 0
M  V30 7486 H 739.732 -2.32298 -3.0136 0
M  V30 7487 H 739.244 -3.51941 -1.63583 0
M  V30 7488 H 737.345 -1.70968 -3.3106 0
M  V30 7489 H 737.458 -3.58893 -3.17384 0
M  V30 7490 H 735.822 -1.84248 -1.75855 0
M  V30 7491 H 736.605 -3.3011 -0.942442 0
M  V30 7492 N 739.05 0.861098 -1.31996 0
M  V30 7493 C 740.296 1.61707 -1.23379 0
M  V30 7494 C 740.651 1.91315 0.204026 0
M  V30 7495 O 739.944 1.53997 1.13998 0
M  V30 7496 C 740.138 2.94822 -2.02027 0
M  V30 7497 C 739.967 2.78212 -3.5331 0
M  V30 7498 C 738.737 2.76933 -4.22654 0
M  V30 7499 C 740.935 2.52432 -4.48088 0
M  V30 7500 N 738.917 2.51466 -5.60034 0
M  V30 7501 C 740.288 2.36312 -5.73198 0
M  V30 7502 C 742.343 2.37848 -4.37416 0
M  V30 7503 C 741.046 2.0709 -6.88844 0
M  V30 7504 C 743.072 2.10016 -5.52854 0
M  V30 7505 C 742.434 1.94691 -6.7696 0
M  V30 7506 H 738.533 0.595703 -0.506618 0
M  V30 7507 H 741.117 1.01275 -1.66287 0
M  V30 7508 H 739.288 3.53243 -1.61474 0
M  V30 7509 H 741.02 3.59756 -1.85358 0
M  V30 7510 H 737.775 2.89638 -3.74709 0
M  V30 7511 H 738.199 2.41679 -6.32392 0
M  V30 7512 H 742.841 2.4842 -3.42122 0
M  V30 7513 H 740.559 1.95256 -7.84156 0
M  V30 7514 H 744.145 1.99519 -5.46519 0
M  V30 7515 H 743.025 1.7346 -7.64775 0
M  V30 7516 N 740.528 1.15101 1.07655 0
M  V30 7517 C 741.777 0.918528 1.79572 0
M  V30 7518 C 742.09 -0.555922 1.87534 0
M  V30 7519 O 743.296 -0.905893 2.55941 0
M  V30 7520 C 741.752 1.59394 3.22679 0
M  V30 7521 C 741.36 3.1052 3.22927 0
M  V30 7522 C 743.104 1.44289 3.99225 0
M  V30 7523 C 741.011 3.70862 4.60668 0
M  V30 7524 H 739.941 0.340006 0.672987 0
M  V30 7525 H 742.592 1.38079 1.20857 0
M  V30 7526 H 740.974 1.05936 3.81567 0
M  V30 7527 H 742.148 3.70708 2.737 0
M  V30 7528 H 740.463 3.25351 2.59876 0
M  V30 7529 H 743.06 1.86766 5.01022 0
M  V30 7530 H 743.403 0.389975 4.14469 0
M  V30 7531 H 743.936 1.94826 3.46825 0
M  V30 7532 H 740.675 4.7604 4.50628 0
M  V30 7533 H 740.195 3.15456 5.10145 0
M  V30 7534 H 741.874 3.71607 5.29639 0
M  V30 7535 N 742.006 -1.2595 0.947325 0
M  V30 7536 C 743.231 -1.98083 0.614633 0
M  V30 7537 C 743.656 -1.70013 -0.804815 0
M  V30 7538 O 743.014 -0.95175 -1.54309 0
M  V30 7539 C 743.062 -3.4993 0.870706 0
M  V30 7540 O 742.166 -4.12364 -0.0541451 0
M  V30 7541 H 741.507 -0.621232 0.234451 0
M  V30 7542 H 744.037 -1.60259 1.27193 0
M  V30 7543 H 744.047 -4.00198 0.794051 0
M  V30 7544 H 742.722 -3.69691 1.90529 0
M  V30 7545 H 741.299 -3.72826 0.0740917 0
M  V30 7546 N 743.484 -0.715051 -1.40445 0
M  V30 7547 C 744.416 -0.0227516 -2.29189 0
M  V30 7548 C 745.429 0.724313 -1.458 0
M  V30 7549 O 746.618 0.571781 -1.69094 0
M  V30 7550 C 743.718 0.992038 -3.24055 0
M  V30 7551 C 742.891 0.310613 -4.36296 0
M  V30 7552 C 741.95 1.23071 -5.11605 0
M  V30 7553 O 740.976 0.71571 -5.64682 0
M  V30 7554 N 742.178 2.56188 -5.2091 0
M  V30 7555 H 744.943 -0.78473 -2.89244 0
M  V30 7556 H 742.504 -0.562637 -1.51809 0
M  V30 7557 H 744.496 1.60973 -3.71308 0
M  V30 7558 H 743.066 1.65538 -2.65171 0
M  V30 7559 H 742.286 -0.487269 -3.91177 0
M  V30 7560 H 743.574 -0.162415 -5.08541 0
M  V30 7561 H 742.972 3.00527 -4.7927 0
M  V30 7562 H 741.529 3.13103 -5.71673 0
M  V30 7563 N 744.962 1.50701 -0.461195 0
M  V30 7564 C 746.19 2.06681 0.0951756 0
M  V30 7565 C 746.605 1.32615 1.34382 0
M  V30 7566 O 745.962 0.392531 1.78229 0
M  V30 7567 C 746.013 3.59354 0.393316 0
M  V30 7568 O 745.734 4.30626 -0.805797 0
M  V30 7569 C 747.235 4.31926 0.997744 0
M  V30 7570 H 744.455 0.670995 -0.00267259 0
M  V30 7571 H 746.999 1.93991 -0.647137 0
M  V30 7572 H 745.154 3.7188 1.08555 0
M  V30 7573 H 745.568 5.21667 -0.544409 0
M  V30 7574 H 747.042 5.39756 1.15619 0
M  V30 7575 H 747.519 3.91772 1.98523 0
M  V30 7576 H 748.125 4.23905 0.344188 0
M  V30 7577 N 746.441 0.193421 1.56409 0
M  V30 7578 C 747.391 -0.74089 2.15627 0
M  V30 7579 C 748.375 -1.17747 1.09656 0
M  V30 7580 O 749.567 -1.13615 1.35723 0
M  V30 7581 C 746.696 -1.96091 2.81786 0
M  V30 7582 C 745.782 -1.54531 3.94944 0
M  V30 7583 N 746.173 -0.840569 4.98767 0
M  V30 7584 C 744.471 -1.83473 4.06514 0
M  V30 7585 C 745.172 -0.632571 5.7825 0
M  V30 7586 N 744.148 -1.18078 5.30621 0
M  V30 7587 H 747.95 -0.193718 2.93261 0
M  V30 7588 H 745.464 -0.00643211 1.62399 0
M  V30 7589 H 747.461 -2.64071 3.22602 0
M  V30 7590 H 746.121 -2.51282 2.05639 0
M  V30 7591 H 747.132 -0.496218 5.15517 0
M  V30 7592 H 743.809 -2.40184 3.41493 0
M  V30 7593 H 745.199 -0.0736433 6.7186 0
M  V30 7594 N 747.919 -1.57396 -0.0801906 0
M  V30 7595 C 749.149 -1.90778 -0.792924 0
M  V30 7596 C 749.557 -0.786814 -1.72064 0
M  V30 7597 O 748.9 0.249259 -1.82001 0
M  V30 7598 C 748.962 -3.19552 -1.64702 0
M  V30 7599 C 748.626 -4.48259 -0.889567 0
M  V30 7600 C 749.623 -5.19465 -0.212602 0
M  V30 7601 C 747.308 -4.94896 -0.859229 0
M  V30 7602 C 749.302 -6.35555 0.484566 0
M  V30 7603 C 746.989 -6.10895 -0.158284 0
M  V30 7604 C 747.987 -6.81075 0.512421 0
M  V30 7605 O 747.675 -7.94862 1.20209 0
M  V30 7606 H 747.407 -0.63527 -0.231103 0
M  V30 7607 H 749.961 -2.0532 -0.0573081 0
M  V30 7608 H 748.191 -3.01196 -2.42524 0
M  V30 7609 H 749.88 -3.38649 -2.23767 0
M  V30 7610 H 750.646 -4.84467 -0.227403 0
M  V30 7611 H 746.525 -4.4015 -1.37073 0
M  V30 7612 H 750.069 -6.9027 1.00864 0
M  V30 7613 H 745.966 -6.45345 -0.141381 0
M  V30 7614 H 746.734 -8.10932 1.11051 0
M  V30 7615 N 749.397 0.351382 -1.53633 0
M  V30 7616 C 750.813 0.693987 -1.43722 0
M  V30 7617 C 751.013 1.9274 -0.587669 0
M  V30 7618 O 750.069 2.52387 -0.0756082 0
M  V30 7619 C 751.382 0.893937 -2.87105 0
M  V30 7620 C 752.93 0.993051 -2.96829 0
M  V30 7621 C 753.405 1.22537 -4.41303 0
M  V30 7622 N 754.896 1.29275 -4.44795 0
M  V30 7623 C 755.631 1.48988 -5.53706 0
M  V30 7624 N 755.127 1.65924 -6.72637 0
M  V30 7625 N 756.92 1.51472 -5.41306 0
M  V30 7626 H 749.071 -0.459688 -2.07366 0
M  V30 7627 H 751.334 -0.143684 -0.937048 0
M  V30 7628 H 751.04 0.0592517 -3.5165 0
M  V30 7629 H 750.914 1.79795 -3.31592 0
M  V30 7630 H 753.301 1.81827 -2.32429 0
M  V30 7631 H 753.382 0.0661119 -2.55715 0
M  V30 7632 H 753.026 0.405117 -5.06282 0
M  V30 7633 H 752.956 2.16575 -4.80003 0
M  V30 7634 H 755.447 1.17743 -3.59089 0
M  V30 7635 H 755.76 1.80578 -7.51406 0
M  V30 7636 H 754.105 1.63075 -6.75597 0
M  V30 7637 H 757.296 1.37818 -4.47352 0
M  V30 7638 H 757.469 1.66493 -6.26246 0
M  V30 7639 N 750.875 1.45233 0.611969 0
M  V30 7640 C 752.122 1.49021 1.37109 0
M  V30 7641 C 752.45 0.130227 1.94064 0
M  V30 7642 O 751.705 -0.870551 1.75271 0
M  V30 7643 C 752.004 2.51353 2.54079 0
M  V30 7644 C 751.67 3.96178 2.15299 0
M  V30 7645 C 750.332 4.35614 2.04436 0
M  V30 7646 C 752.684 4.87275 1.84966 0
M  V30 7647 C 750.012 5.64047 1.61456 0
M  V30 7648 C 752.364 6.16115 1.43474 0
M  V30 7649 C 751.028 6.54486 1.31167 0
M  V30 7650 H 750.298 0.545307 0.501719 0
M  V30 7651 H 752.945 1.78555 0.692122 0
M  V30 7652 H 751.25 2.15372 3.27295 0
M  V30 7653 H 752.947 2.51523 3.12309 0
M  V30 7654 H 749.537 3.6499 2.24678 0
M  V30 7655 H 753.721 4.57548 1.92258 0
M  V30 7656 H 748.977 5.92575 1.50547 0
M  V30 7657 H 753.151 6.86149 1.19048 0
M  V30 7658 H 750.778 7.53904 0.97637 0
M  V30 7659 N 752.353 -0.854086 1.3245 0
M  V30 7660 C 753.599 -1.61069 1.23225 0
M  V30 7661 C 753.932 -1.93111 -0.205349 0
M  V30 7662 O 753.207 -1.57397 -1.14265 0
M  V30 7663 C 753.49 -2.93065 2.09249 0
M  V30 7664 C 753.343 -2.67801 3.6139 0
M  V30 7665 C 754.662 -3.94341 1.95406 0
M  V30 7666 H 751.781 -0.584449 0.448986 0
M  V30 7667 H 754.423 -0.986189 1.62402 0
M  V30 7668 H 752.573 -3.46364 1.75967 0
M  V30 7669 H 754.245 -2.21052 4.04887 0
M  V30 7670 H 752.488 -2.01756 3.84027 0
M  V30 7671 H 753.159 -3.6179 4.16907 0
M  V30 7672 H 755.635 -3.50301 2.24562 0
M  V30 7673 H 754.511 -4.84555 2.57872 0
M  V30 7674 H 754.772 -4.32382 0.921865 0
M  V30 7675 N 753.831 -1.1567 -1.07043 0
M  V30 7676 C 754.741 -0.870435 -2.17855 0
M  V30 7677 C 755.757 0.154452 -1.73313 0
M  V30 7678 O 756.933 -0.0203759 -2.0139 0
M  V30 7679 C 753.998 -0.367219 -3.4475 0
M  V30 7680 C 753.059 -1.45639 -4.03841 0
M  V30 7681 C 752.292 -0.977092 -5.2468 0
M  V30 7682 O 752.515 0.176127 -5.70128 0
M  V30 7683 O 751.449 -1.76215 -5.75527 0
M  V30 7684 H 755.275 -1.79687 -2.44839 0
M  V30 7685 H 752.86 -0.936064 -1.1644 0
M  V30 7686 H 754.742 -0.0931947 -4.21297 0
M  V30 7687 H 753.417 0.53131 -3.1931 0
M  V30 7688 H 752.324 -1.78406 -3.28819 0
M  V30 7689 H 753.657 -2.32995 -4.3356 0
M  V30 7690 N 755.309 1.25446 -0.953992 0
M  V30 7691 C 756.256 2.25912 -0.472485 0
M  V30 7692 C 757.226 1.59173 0.47469 0
M  V30 7693 O 758.411 1.86812 0.388082 0
M  V30 7694 C 755.551 3.44235 0.244218 0
M  V30 7695 C 754.664 4.25613 -0.740121 0
M  V30 7696 C 753.799 5.312 -0.000922267 0
M  V30 7697 C 752.838 6.04265 -0.976236 0
M  V30 7698 N 751.975 7.01589 -0.267952 0
M  V30 7699 H 756.815 2.66469 -1.3341 0
M  V30 7700 H 754.352 1.31005 -0.669045 0
M  V30 7701 H 756.31 4.11682 0.676314 0
M  V30 7702 H 754.94 3.04554 1.06988 0
M  V30 7703 H 753.992 3.57834 -1.2907 0
M  V30 7704 H 755.304 4.762 -1.48441 0
M  V30 7705 H 754.458 6.04719 0.48984 0
M  V30 7706 H 753.197 4.81484 0.776159 0
M  V30 7707 H 752.202 5.29561 -1.478 0
M  V30 7708 H 753.427 6.5607 -1.75354 0
M  V30 7709 H 751.373 6.54164 0.490403 0
M  V30 7710 H 751.29 7.4999 -0.951344 0
M  V30 7711 H 752.558 7.7924 0.201294 0
M  V30 7712 N 756.787 0.722489 1.40064 0
M  V30 7713 C 758.064 0.191829 1.94657 0
M  V30 7714 C 758.444 -1.30389 1.66018 0
M  V30 7715 O 757.792 -2.06342 0.981588 0
M  V30 7716 C 758.002 0.511978 3.45224 0
M  V30 7717 C 759.35 0.454426 4.22161 0
M  V30 7718 O 760.374 0.448438 3.53366 0
M  V30 7719 O 759.233 0.437986 5.44742 0
M  V30 7720 H 756.327 0.0307821 0.826427 0
M  V30 7721 H 758.873 0.800493 1.49634 0
M  V30 7722 H 757.645 1.54622 3.59455 0
M  V30 7723 H 757.268 -0.126296 3.97399 0
M  V30 7724 N 758.265 -1.50454 0.469181 0
M  V30 7725 C 759.676 -1.86695 0.0136034 0
M  V30 7726 C 760.027 -1.38413 -1.39055 0
M  V30 7727 O 759.152 -0.748294 -2.03051 0
M  V30 7728 C 759.747 -3.38795 0.0179098 0
M  V30 7729 C 758.306 -3.74455 -0.382191 0
M  V30 7730 C 757.453 -2.74338 0.404207 0
M  V30 7731 H 760.404 -1.43225 0.683547 0
M  V30 7732 H 760.425 -3.72321 -0.78468 0
M  V30 7733 H 759.937 -3.73906 1.04 0
M  V30 7734 H 758.038 -3.44944 -1.4087 0
M  V30 7735 H 758.151 -4.79025 -0.084862 0
M  V30 7736 H 756.515 -2.54305 -0.141829 0
M  V30 7737 H 757.298 -3.12293 1.42577 0
M  V30 7738 N 759.743 -0.201713 -1.56304 0
M  V30 7739 C 760.973 0.440084 -2.01858 0
M  V30 7740 C 761.381 1.55279 -1.08098 0
M  V30 7741 O 760.724 1.83529 -0.0792216 0
M  V30 7742 C 760.786 1.05091 -3.43797 0
M  V30 7743 C 760.45 0.0761208 -4.56937 0
M  V30 7744 C 761.447 -0.716951 -5.14933 0
M  V30 7745 C 759.132 -0.0368815 -5.02286 0
M  V30 7746 C 761.126 -1.60993 -6.16733 0
M  V30 7747 C 758.813 -0.933409 -6.03929 0
M  V30 7748 C 759.811 -1.71849 -6.61027 0
M  V30 7749 O 759.499 -2.59998 -7.60695 0
M  V30 7750 H 759.231 0.114139 -0.666294 0
M  V30 7751 H 761.785 -0.309672 -2.03052 0
M  V30 7752 H 760.015 1.84938 -3.3961 0
M  V30 7753 H 761.704 1.59804 -3.73118 0
M  V30 7754 H 762.47 -0.63999 -4.80759 0
M  V30 7755 H 758.349 0.564034 -4.57537 0
M  V30 7756 H 761.893 -2.22315 -6.61227 0
M  V30 7757 H 757.79 -1.01146 -6.37526 0
M  V30 7758 H 758.558 -2.53851 -7.7814 0
M  V30 7759 N 761.222 1.57436 0.0718424 0
M  V30 7760 C 762.45 1.91474 0.783932 0
M  V30 7761 C 762.865 0.797669 1.71122 0
M  V30 7762 O 762.222 -0.228989 1.81058 0
M  V30 7763 C 762.273 3.25259 1.57761 0
M  V30 7764 O 761.994 4.3267 0.687596 0
M  V30 7765 C 763.495 3.7331 2.3907 0
M  V30 7766 H 760.715 0.632901 0.222885 0
M  V30 7767 H 763.259 2.04457 0.0421262 0
M  V30 7768 H 761.414 3.13804 2.27169 0
M  V30 7769 H 761.828 5.09641 1.23962 0
M  V30 7770 H 763.302 4.69551 2.90216 0
M  V30 7771 H 763.779 3.02318 3.18591 0
M  V30 7772 H 764.385 3.8771 1.74818 0
M  V30 7773 N 762.7 -0.34323 1.53817 0
M  V30 7774 C 763.648 -1.44176 1.82527 0
M  V30 7775 C 764.642 -1.54452 0.695772 0
M  V30 7776 O 765.848 -1.57072 0.879114 0
M  V30 7777 H 762.223 -0.480729 0.578277 0
M  V30 7778 H 764.194 -1.17176 2.74431 0
M  V30 7779 C 762.943 -2.80695 2.05197 0
M  V30 7780 H 762.266 -2.73554 2.91561 0
M  V30 7781 H 763.706 -3.56679 2.29251 0
M  V30 7782 C 762.165 -3.26322 0.837589 0
M  V30 7783 O 762.695 -4.01683 0.0371631 0
M  V30 7784 N 760.901 -2.83128 0.654724 0
M  V30 7785 H 760.448 -2.21965 1.30725 0
M  V30 7786 H 760.406 -3.14011 -0.156345 0
M  V30 7787 N 764.178 -1.45556 -0.604258 0
M  V30 7788 C 765.141 -1.54091 -1.69672 0
M  V30 7789 C 766.141 -0.420076 -1.55216 0
M  V30 7790 O 767.331 -0.683671 -1.60224 0
M  V30 7791 C 764.463 -1.44063 -3.08964 0
M  V30 7792 H 765.656 -2.51431 -1.6347 0
M  V30 7793 H 763.209 -1.33046 -0.820273 0
M  V30 7794 H 763.944 -0.479201 -3.2074 0
M  V30 7795 H 763.729 -2.25362 -3.20865 0
M  V30 7796 H 765.219 -1.53075 -3.88533 0
M  V30 7797 N 765.656 0.84705 -1.32902 0
M  V30 7798 C 766.904 1.5986 -1.2365 0
M  V30 7799 C 767.225 1.93974 0.199789 0
M  V30 7800 O 766.495 1.60273 1.12648 0
M  V30 7801 H 765.075 0.592696 -0.454665 0
M  V30 7802 H 767.737 1.01278 -1.66519 0
M  V30 7803 H 766.833 2.53218 -1.82448 0
M  V30 7804 N 767.134 1.16236 1.06428 0
M  V30 7805 C 768.381 0.943034 1.79201 0
M  V30 7806 C 768.709 -0.529243 1.87161 0
M  V30 7807 O 767.964 -1.40874 1.35842 0
M  V30 7808 C 768.263 1.51396 3.2375 0
M  V30 7809 C 767.929 3.00833 3.35873 0
M  V30 7810 C 766.591 3.41626 3.38888 0
M  V30 7811 C 768.943 3.96825 3.37904 0
M  V30 7812 C 766.271 4.77033 3.4155 0
M  V30 7813 C 768.623 5.32116 3.42104 0
M  V30 7814 C 767.287 5.72392 3.43401 0
M  V30 7815 H 766.557 0.34508 0.655744 0
M  V30 7816 H 769.204 1.44929 1.25171 0
M  V30 7817 H 767.509 0.929114 3.80624 0
M  V30 7818 H 769.206 1.31996 3.78653 0
M  V30 7819 H 765.796 2.68306 3.3423 0
M  V30 7820 H 769.98 3.66376 3.34787 0
M  V30 7821 H 765.236 5.07569 3.40858 0
M  V30 7822 H 769.41 6.06286 3.42623 0
M  V30 7823 H 767.037 6.77296 3.45216 0
M  V30 7824 N 768.612 -1.24939 0.960631 0
M  V30 7825 C 769.858 -1.93104 0.61958 0
M  V30 7826 C 770.191 -1.74991 -0.84212 0
M  V30 7827 O 769.466 -1.09867 -1.60498 0
M  V30 7828 C 769.749 -3.46326 0.986422 0
M  V30 7829 C 769.602 -3.73638 2.50429 0
M  V30 7830 C 770.921 -4.37067 0.515827 0
M  V30 7831 H 768.04 -0.701311 0.226566 0
M  V30 7832 H 770.682 -1.47442 1.19836 0
M  V30 7833 H 768.832 -3.85348 0.493907 0
M  V30 7834 H 770.504 -3.44217 3.07103 0
M  V30 7835 H 768.747 -3.19035 2.93937 0
M  V30 7836 H 769.418 -4.80815 2.71147 0
M  V30 7837 H 771.894 -4.05381 0.938389 0
M  V30 7838 H 770.77 -5.43022 0.80114 0
M  V30 7839 H 771.031 -4.38224 -0.584171 0
M  V30 7840 N 770.09 -0.729906 -1.39679 0
M  V30 7841 C 771.318 -0.285709 -2.04918 0
M  V30 7842 C 771.733 1.07765 -1.55023 0
M  V30 7843 O 771.09 1.67999 -0.712923 0
M  V30 7844 C 771.141 -0.272793 -3.60469 0
M  V30 7845 O 770.862 -1.58233 -4.08527 0
M  V30 7846 C 772.363 0.188199 -4.429 0
M  V30 7847 H 769.583 -0.125758 -0.65911 0
M  V30 7848 H 772.127 -0.992129 -1.78821 0
M  V30 7849 H 770.282 0.384699 -3.85485 0
M  V30 7850 H 770.696 -1.49245 -5.02818 0
M  V30 7851 H 772.17 0.14608 -5.51807 0
M  V30 7852 H 772.647 1.2326 -4.21549 0
M  V30 7853 H 773.253 -0.439541 -4.23023 0
M  V30 7854 N 771.568 1.50203 -0.477153 0
M  V30 7855 C 772.808 2.04265 0.0744065 0
M  V30 7856 C 773.172 1.35082 1.36443 0
M  V30 7857 O 774.373 1.79732 1.99875 0
M  V30 7858 C 772.644 3.56539 0.247874 0
M  V30 7859 S 774.203 4.32219 0.757117 0
M  V30 7860 H 771.021 0.71088 0.0130891 0
M  V30 7861 H 773.623 1.8453 -0.645678 0
M  V30 7862 H 772.327 4.04443 -0.696709 0
M  V30 7863 H 771.858 3.80638 0.993896 0
M  V30 7864 H 773.873 4.52789 2.0297 0
M  V30 7865 N 773.046 0.209999 1.56195 0
M  V30 7866 C 774.292 -0.418742 1.99043 0
M  V30 7867 C 774.647 -1.58201 1.095 0
M  V30 7868 O 773.94 -1.91069 0.1425 0
M  V30 7869 C 774.134 -0.91312 3.45539 0
M  V30 7870 C 773.963 0.200706 4.49252 0
M  V30 7871 C 772.733 0.663287 5.00928 0
M  V30 7872 C 774.931 1.01493 5.04186 0
M  V30 7873 N 772.913 1.75338 5.88328 0
M  V30 7874 C 774.284 1.95411 5.884 0
M  V30 7875 C 776.339 1.05567 4.8658 0
M  V30 7876 C 775.042 2.93069 6.56889 0
M  V30 7877 C 777.068 2.02037 5.55819 0
M  V30 7878 C 776.43 2.94697 6.39791 0
M  V30 7879 H 772.529 -0.120226 0.772703 0
M  V30 7880 H 775.113 0.319119 1.92067 0
M  V30 7881 H 773.284 -1.62038 3.52985 0
M  V30 7882 H 775.016 -1.51371 3.75325 0
M  V30 7883 H 771.771 0.253945 4.72919 0
M  V30 7884 H 772.195 2.30007 6.3673 0
M  V30 7885 H 776.837 0.353242 4.21322 0
M  V30 7886 H 774.555 3.6428 7.21336 0
M  V30 7887 H 778.141 2.05849 5.44167 0
M  V30 7888 H 777.021 3.68128 6.92425 0
M  V30 7889 N 774.524 -1.57472 -0.0634922 0
M  V30 7890 C 775.754 -1.91608 -0.772645 0
M  V30 7891 C 776.162 -0.805019 -1.71219 0
M  V30 7892 O 775.505 0.229941 -1.82255 0
M  V30 7893 C 775.567 -3.21281 -1.61304 0
M  V30 7894 C 775.231 -4.49177 -0.841973 0
M  V30 7895 C 776.228 -5.19661 -0.157494 0
M  V30 7896 C 773.913 -4.9578 -0.80669 0
M  V30 7897 C 775.907 -6.35006 0.551948 0
M  V30 7898 C 773.594 -6.11028 -0.0934812 0
M  V30 7899 C 774.592 -6.80493 0.58463 0
M  V30 7900 O 774.28 -7.93542 1.28633 0
M  V30 7901 H 774.012 -0.637685 -0.224352 0
M  V30 7902 H 776.566 -2.05369 -0.0355279 0
M  V30 7903 H 774.796 -3.03752 -2.39315 0
M  V30 7904 H 776.485 -3.41003 -2.20162 0
M  V30 7905 H 777.251 -4.84681 -0.176006 0
M  V30 7906 H 773.13 -4.41579 -1.32397 0
M  V30 7907 H 776.674 -6.89161 1.0818 0
M  V30 7908 H 772.571 -6.45459 -0.0729258 0
M  V30 7909 H 773.339 -8.09708 1.19646 0
M  V30 7910 N 776.003 0.335068 -1.53997 0
M  V30 7911 C 776.935 1.4327 -1.78903 0
M  V30 7912 C 777.948 1.48347 -0.670598 0
M  V30 7913 O 779.137 1.51277 -0.947494 0
M  V30 7914 C 776.237 2.81878 -1.88144 0
M  V30 7915 C 775.41 3.00141 -3.18174 0
M  V30 7916 C 774.469 4.19041 -3.18263 0
M  V30 7917 O 773.495 4.12751 -3.9195 0
M  V30 7918 N 774.697 5.28004 -2.41231 0
M  V30 7919 H 777.462 1.22272 -2.73623 0
M  V30 7920 H 775.023 0.524996 -1.53152 0
M  V30 7921 H 777.015 3.59609 -1.85644 0
M  V30 7922 H 775.585 2.9598 -1.00572 0
M  V30 7923 H 774.805 2.09808 -3.33728 0
M  V30 7924 H 776.093 3.0923 -4.04047 0
M  V30 7925 H 775.491 5.35986 -1.8093 0
M  V30 7926 H 774.048 6.04196 -2.44521 0
M  V30 7927 N 777.481 1.45874 0.596531 0
M  V30 7928 C 778.709 1.54013 1.38158 0
M  V30 7929 C 779.124 0.17648 1.87973 0
M  V30 7930 O 778.481 -0.823895 1.62844 0
M  V30 7931 C 778.532 2.53363 2.57855 0
M  V30 7932 O 778.253 3.8443 2.10108 0
M  V30 7933 C 779.754 2.71308 3.50581 0
M  V30 7934 H 776.974 0.521251 0.422538 0
M  V30 7935 H 779.518 1.9116 0.726493 0
M  V30 7936 H 777.673 2.19257 3.19382 0
M  V30 7937 H 778.087 4.38384 2.87958 0
M  V30 7938 H 779.561 3.44776 4.31084 0
M  V30 7939 H 780.038 1.77728 4.01633 0
M  V30 7940 H 780.644 3.06455 2.94899 0
M  V30 7941 N 778.959 -0.83999 1.33349 0
M  V30 7942 C 780.184 -1.63249 1.27924 0
M  V30 7943 C 780.609 -1.87523 -0.147193 0
M  V30 7944 O 779.967 -1.43853 -1.10345 0
M  V30 7945 C 780.015 -2.96046 2.05886 0
M  V30 7946 O 779.119 -3.87303 1.4167 0
M  V30 7947 H 778.46 -0.49715 0.440157 0
M  V30 7948 H 780.99 -1.04512 1.75893 0
M  V30 7949 H 781 -3.45752 2.16609 0
M  V30 7950 H 779.675 -2.77701 3.09605 0
M  V30 7951 H 778.252 -3.45789 1.39585 0
M  V30 7952 N 780.437 -1.16799 -1.0581 0
M  V30 7953 C 781.683 -0.953935 -1.78963 0
M  V30 7954 C 782.016 0.516638 -1.87202 0
M  V30 7955 O 781.291 1.38338 -1.36721 0
M  V30 7956 C 781.574 -1.58808 -3.23191 0
M  V30 7957 C 781.427 -3.13032 -3.23003 0
M  V30 7958 C 782.746 -1.2868 -4.20867 0
M  V30 7959 H 779.865 -0.347972 -0.64968 0
M  V30 7960 H 782.507 -1.44204 -1.23715 0
M  V30 7961 H 780.657 -1.17303 -3.70368 0
M  V30 7962 H 782.329 -3.63553 -2.83949 0
M  V30 7963 H 780.572 -3.46108 -2.61518 0
M  V30 7964 H 781.243 -3.52527 -4.24769 0
M  V30 7965 H 783.719 -1.6461 -3.82155 0
M  V30 7966 H 782.595 -1.75645 -5.20038 0
M  V30 7967 H 782.856 -0.206491 -4.41618 0
M  V30 7968 N 781.915 1.24427 -0.967243 0
M  V30 7969 C 783.161 1.92772 -0.629812 0
M  V30 7970 C 783.494 1.75436 0.832827 0
M  V30 7971 O 782.769 1.10716 1.59913 0
M  V30 7972 C 783.052 3.45798 -1.00477 0
M  V30 7973 C 782.905 3.72304 -2.52407 0
M  V30 7974 C 784.224 4.36787 -0.538999 0
M  V30 7975 H 781.343 0.700099 -0.230282 0
M  V30 7976 H 783.985 1.46805 -1.20616 0
M  V30 7977 H 782.135 3.8508 -0.514336 0
M  V30 7978 H 783.807 3.42584 -3.08924 0
M  V30 7979 H 782.05 3.17472 -2.95625 0
M  V30 7980 H 782.721 4.7937 -2.73693 0
M  V30 7981 H 785.197 4.04877 -0.959874 0
M  V30 7982 H 784.073 5.4259 -0.829926 0
M  V30 7983 H 784.334 4.38527 0.560923 0
M  V30 7984 N 783.393 0.737304 1.3929 0
M  V30 7985 C 784.618 0.295237 2.05288 0
M  V30 7986 C 785.043 -1.06235 1.55228 0
M  V30 7987 O 784.401 -1.67365 0.697043 0
M  V30 7988 C 784.449 0.309146 3.59272 0
M  V30 7989 O 783.553 -0.702437 4.06374 0
M  V30 7990 H 782.894 0.133762 0.650387 0
M  V30 7991 H 785.424 1.00387 1.78279 0
M  V30 7992 H 785.434 0.154336 4.07708 0
M  V30 7993 H 784.109 1.29974 3.95069 0
M  V30 7994 H 782.686 -0.513574 3.69346 0
M  V30 7995 N 784.871 -1.49948 0.485112 0
M  V30 7996 C 786.282 -1.8667 0.0334041 0
M  V30 7997 C 786.633 -1.3988 -1.37579 0
M  V30 7998 O 785.758 -0.769788 -2.02245 0
M  V30 7999 C 786.353 -3.38757 0.0538426 0
M  V30 8000 C 784.912 -3.74839 -0.342453 0
M  V30 8001 C 784.059 -2.73894 0.433281 0
M  V30 8002 H 787.01 -1.42492 0.698699 0
M  V30 8003 H 787.031 -3.73132 -0.745146 0
M  V30 8004 H 786.543 -3.72782 1.07959 0
M  V30 8005 H 784.644 -3.46419 -1.37203 0
M  V30 8006 H 784.757 -4.79088 -0.0340503 0
M  V30 8007 H 783.121 -2.54441 -0.114849 0
M  V30 8008 H 783.904 -3.10763 1.45881 0
M  V30 8009 N 786.349 -0.21828 -1.56081 0
M  V30 8010 C 787.312 0.679633 -2.18892 0
M  V30 8011 C 788.312 1.12405 -1.14986 0
M  V30 8012 O 789.502 1.03339 -1.40238 0
M  V30 8013 C 786.634 1.93063 -2.80962 0
M  V30 8014 H 787.827 0.132066 -2.99609 0
M  V30 8015 H 785.38 0.0313374 -1.56269 0
M  V30 8016 H 786.115 2.52015 -2.04106 0
M  V30 8017 H 785.9 1.62046 -3.57048 0
M  V30 8018 H 787.39 2.57043 -3.29118 0
M  V30 8019 N 787.827 1.57504 0.0551401 0
M  V30 8020 C 789.052 1.92682 0.767352 0
M  V30 8021 C 789.477 0.81614 1.69472 0
M  V30 8022 O 788.835 -0.229989 1.79835 0
M  V30 8023 C 788.883 3.26866 1.52286 0
M  V30 8024 O 787.987 3.17274 2.63459 0
M  V30 8025 H 787.328 0.630502 0.208238 0
M  V30 8026 H 789.858 2.04592 0.0184026 0
M  V30 8027 H 789.868 3.61138 1.8985 0
M  V30 8028 H 788.543 4.07276 0.842541 0
M  V30 8029 H 787.12 2.94589 2.2863 0
M  V30 8030 N 789.305 -0.326896 1.54172 0
M  V30 8031 C 790.253 -1.42232 1.84046 0
M  V30 8032 C 791.247 -1.53705 0.712115 0
M  V30 8033 O 792.453 -1.56131 0.895724 0
M  V30 8034 H 788.828 -0.474568 0.583343 0
M  V30 8035 H 790.799 -1.14259 2.75658 0
M  V30 8036 C 789.548 -2.78502 2.08163 0
M  V30 8037 H 788.871 -2.70447 2.94446 0
M  V30 8038 H 790.311 -3.54228 2.33021 0
M  V30 8039 C 788.77 -3.25415 0.872152 0
M  V30 8040 O 789.3 -4.01621 0.0797648 0
M  V30 8041 N 787.506 -2.82418 0.684716 0
M  V30 8042 H 787.053 -2.20566 1.33072 0
M  V30 8043 H 787.011 -3.14159 -0.123031 0
M  V30 8044 N 790.784 -1.46188 -0.588786 0
M  V30 8045 C 791.716 -1.52319 -1.71265 0
M  V30 8046 C 792.729 -0.412096 -1.57498 0
M  V30 8047 O 793.918 -0.680146 -1.65034 0
M  V30 8048 C 791.018 -1.38164 -3.09458 0
M  V30 8049 C 790.191 -2.63284 -3.49286 0
M  V30 8050 C 789.25 -2.43415 -4.66514 0
M  V30 8051 O 788.276 -3.17113 -4.72682 0
M  V30 8052 N 789.478 -1.49187 -5.61002 0
M  V30 8053 H 792.243 -2.49219 -1.66463 0
M  V30 8054 H 789.804 -1.42167 -0.774601 0
M  V30 8055 H 791.796 -1.22653 -3.85666 0
M  V30 8056 H 790.366 -0.494678 -3.08661 0
M  V30 8057 H 789.586 -2.93779 -2.62845 0
M  V30 8058 H 790.874 -3.46413 -3.7266 0
M  V30 8059 H 790.272 -0.884027 -5.5875 0
M  V30 8060 H 788.829 -1.39642 -6.36666 0
M  V30 8061 N 792.262 0.832906 -1.33792 0
M  V30 8062 C 793.673 1.40489 -1.22963 0
M  V30 8063 C 794.024 1.95633 0.149026 0
M  V30 8064 O 793.149 1.8928 1.04891 0
M  V30 8065 C 793.744 2.55387 -2.22627 0
M  V30 8066 C 792.303 3.08522 -2.15618 0
M  V30 8067 C 791.45 1.81347 -2.09782 0
M  V30 8068 H 794.401 0.638156 -1.45304 0
M  V30 8069 H 794.422 3.33193 -1.83746 0
M  V30 8070 H 793.934 2.15222 -3.22957 0
M  V30 8071 H 792.035 3.53217 -1.18611 0
M  V30 8072 H 792.148 3.6829 -3.0643 0
M  V30 8073 H 790.512 2.01839 -1.55349 0
M  V30 8074 H 791.295 1.43369 -3.1193 0
M  V30 8075 N 793.74 1.17359 1.05189 0
M  V30 8076 C 794.687 0.890325 2.12936 0
M  V30 8077 C 795.657 -0.165779 1.65271 0
M  V30 8078 O 796.842 -0.0285672 1.90779 0
M  V30 8079 C 793.982 0.409793 3.42658 0
M  V30 8080 C 793.095 1.53002 4.03998 0
M  V30 8081 C 792.23 1.00336 5.21638 0
M  V30 8082 C 791.269 2.09903 5.74984 0
M  V30 8083 N 790.406 1.58714 6.83926 0
M  V30 8084 H 795.246 1.81299 2.36505 0
M  V30 8085 H 792.783 0.904249 1.16025 0
M  V30 8086 H 794.741 0.112743 4.17048 0
M  V30 8087 H 793.371 -0.475915 3.19272 0
M  V30 8088 H 792.423 1.9428 3.27047 0
M  V30 8089 H 793.735 2.3564 4.39631 0
M  V30 8090 H 792.889 0.660158 6.03098 0
M  V30 8091 H 791.628 0.14642 4.8748 0
M  V30 8092 H 790.633 2.45081 4.92154 0
M  V30 8093 H 791.858 2.96013 6.1119 0
M  V30 8094 H 789.804 0.752915 6.51665 0
M  V30 8095 H 789.721 2.34959 7.18561 0
M  V30 8096 H 790.989 1.27287 7.69037 0
M  V30 8097 N 795.218 -1.23913 0.973828 0
M  V30 8098 C 796.458 -1.93889 0.647015 0
M  V30 8099 C 796.822 -1.74368 -0.803735 0
M  V30 8100 O 798.023 -2.38435 -1.24106 0
M  V30 8101 C 796.294 -3.4257 1.01885 0
M  V30 8102 S 797.853 -4.31306 0.807517 0
M  V30 8103 H 794.671 -0.670279 0.237165 0
M  V30 8104 H 797.273 -1.50144 1.25208 0
M  V30 8105 H 795.977 -3.54286 2.07146 0
M  V30 8106 H 795.508 -3.91312 0.404812 0
M  V30 8107 H 797.523 -4.95218 -0.311986 0
M  V30 8108 N 796.696 -0.74468 -1.38897 0
M  V30 8109 C 797.926 -0.306982 -2.04307 0
M  V30 8110 C 798.334 1.06652 -1.56275 0
M  V30 8111 O 797.677 1.68699 -0.72708 0
M  V30 8112 C 797.739 -0.241186 -3.5869 0
M  V30 8113 C 797.403 -1.55476 -4.2974 0
M  V30 8114 C 798.4 -2.50229 -4.55721 0
M  V30 8115 C 796.085 -1.82173 -4.68101 0
M  V30 8116 C 798.079 -3.69905 -5.19085 0
M  V30 8117 C 795.766 -3.02125 -5.31191 0
M  V30 8118 C 796.764 -3.95812 -5.56616 0
M  V30 8119 O 796.452 -5.13656 -6.18395 0
M  V30 8120 H 796.184 -0.130416 -0.663301 0
M  V30 8121 H 798.738 -1.01192 -1.78744 0
M  V30 8122 H 796.968 0.519925 -3.83189 0
M  V30 8123 H 798.657 0.165806 -4.05561 0
M  V30 8124 H 799.423 -2.30877 -4.26522 0
M  V30 8125 H 795.302 -1.10091 -4.47662 0
M  V30 8126 H 798.846 -4.43047 -5.38846 0
M  V30 8127 H 794.743 -3.21374 -5.59811 0
M  V30 8128 H 795.511 -5.14119 -6.36886 0
M  V30 8129 N 798.174 1.49689 -0.493057 0
M  V30 8130 C 799.107 2.25712 0.336062 0
M  V30 8131 C 800.085 1.29953 0.977294 0
M  V30 8132 O 801.269 1.59225 1.00895 0
M  V30 8133 C 798.396 3.0501 1.47263 0
M  V30 8134 C 797.442 4.15863 0.946575 0
M  V30 8135 S 798.275 5.35272 -0.156323 0
M  V30 8136 C 799.431 6.18123 0.983601 0
M  V30 8137 H 799.664 2.95688 -0.309215 0
M  V30 8138 H 797.197 1.51872 -0.278238 0
M  V30 8139 H 799.155 3.51284 2.12391 0
M  V30 8140 H 797.816 2.34519 2.08949 0
M  V30 8141 H 797.009 4.70834 1.7981 0
M  V30 8142 H 796.611 3.72139 0.372647 0
M  V30 8143 H 798.903 6.50588 1.89056 0
M  V30 8144 H 799.846 7.06521 0.472687 0
M  V30 8145 H 800.254 5.50547 1.24735 0
M  V30 8146 N 799.652 0.226554 1.55963 0
M  V30 8147 C 800.585 -0.721625 2.1649 0
M  V30 8148 C 801.563 -1.18745 1.11078 0
M  V30 8149 O 802.747 -1.26929 1.3936 0
M  V30 8150 C 799.874 -1.97828 2.74921 0
M  V30 8151 C 798.92 -1.65202 3.93206 0
M  V30 8152 S 799.753 -0.772419 5.299 0
M  V30 8153 C 800.909 -2.03853 5.91773 0
M  V30 8154 H 801.142 -0.207192 2.96577 0
M  V30 8155 H 798.675 0.0111976 1.54396 0
M  V30 8156 H 800.633 -2.69982 3.09225 0
M  V30 8157 H 799.294 -2.46384 1.94817 0
M  V30 8158 H 798.487 -2.58583 4.32609 0
M  V30 8159 H 798.089 -1.01108 3.60074 0
M  V30 8160 H 800.381 -2.98799 6.08051 0
M  V30 8161 H 801.324 -1.68831 6.87678 0
M  V30 8162 H 801.732 -2.18134 5.20651 0
M  V30 8163 N 801.13 -1.57531 -0.0467866 0
M  V30 8164 C 802.37 -1.90294 -0.746171 0
M  V30 8165 C 802.734 -0.823194 -1.73458 0
M  V30 8166 O 803.935 -1.03463 -2.48091 0
M  V30 8167 C 802.206 -3.28249 -1.41378 0
M  V30 8168 S 803.765 -3.82812 -2.14477 0
M  V30 8169 H 800.583 -0.666496 -0.247598 0
M  V30 8170 H 803.185 -1.955 -0.00135143 0
M  V30 8171 H 801.889 -4.04712 -0.680937 0
M  V30 8172 H 801.42 -3.26302 -2.19751 0
M  V30 8173 H 803.435 -3.60111 -3.41372 0
M  V30 8174 N 802.608 0.318715 -1.54344 0
M  V30 8175 C 803.541 1.41644 -1.7892 0
M  V30 8176 C 804.519 1.495 -0.639421 0
M  V30 8177 O 805.703 1.66835 -0.877404 0
M  V30 8178 C 802.83 2.79701 -1.9101 0
M  V30 8179 C 801.876 2.89354 -3.13331 0
M  V30 8180 S 802.709 2.53264 -4.71824 0
M  V30 8181 C 803.865 3.93384 -4.86826 0
M  V30 8182 H 804.098 1.20585 -2.71747 0
M  V30 8183 H 801.631 0.515828 -1.45529 0
M  V30 8184 H 803.589 3.59227 -1.98661 0
M  V30 8185 H 802.25 2.9804 -0.991516 0
M  V30 8186 H 801.443 3.90574 -3.1854 0
M  V30 8187 H 801.045 2.17805 -3.04035 0
M  V30 8188 H 803.337 4.88191 -4.69761 0
M  V30 8189 H 804.28 3.93156 -5.88926 0
M  V30 8190 H 804.688 3.82564 -4.15097 0
M  V30 8191 N 804.086 1.46499 0.581025 0
M  V30 8192 C 805.332 1.52121 1.34116 0
M  V30 8193 C 805.665 0.173031 1.93428 0
M  V30 8194 O 804.94 -0.815729 1.76568 0
M  V30 8195 C 805.223 2.62108 2.46924 0
M  V30 8196 C 805.076 4.06462 1.92636 0
M  V30 8197 C 806.395 2.68167 3.48962 0
M  V30 8198 H 803.514 0.5538 0.486287 0
M  V30 8199 H 806.156 1.78443 0.652538 0
M  V30 8200 H 804.306 2.39794 3.05665 0
M  V30 8201 H 805.978 4.40068 1.3834 0
M  V30 8202 H 804.221 4.15862 1.23455 0
M  V30 8203 H 804.892 4.79152 2.74076 0
M  V30 8204 H 807.368 2.8823 3.00104 0
M  V30 8205 H 806.244 3.46942 4.2535 0
M  V30 8206 H 806.505 1.74284 4.06297 0
M  V30 8207 N 805.565 -0.825799 1.34232 0
M  V30 8208 C 806.79 -1.61883 1.29648 0
M  V30 8209 C 807.215 -1.87669 -0.127295 0
M  V30 8210 O 806.573 -1.45016 -1.08813 0
M  V30 8211 C 806.621 -2.93846 2.09014 0
M  V30 8212 O 805.725 -3.85778 1.4577 0
M  V30 8213 H 805.066 -0.492454 0.445405 0
M  V30 8214 H 807.596 -1.02641 1.76992 0
M  V30 8215 H 807.606 -3.43435 2.20264 0
M  V30 8216 H 806.281 -2.74401 3.12533 0
M  V30 8217 H 804.858 -3.4429 1.43245 0
M  V30 8218 N 807.043 -1.17915 -1.04565 0
M  V30 8219 C 808.006 -0.903787 -2.10628 0
M  V30 8220 C 809.006 0.10873 -1.60432 0
M  V30 8221 O 810.196 -0.124152 -1.73757 0
M  V30 8222 C 807.328 -0.355017 -3.39046 0
M  V30 8223 H 808.521 -1.84425 -2.3649 0
M  V30 8224 H 806.074 -0.990477 -1.2091 0
M  V30 8225 H 806.809 0.592297 -3.18845 0
M  V30 8226 H 806.594 -1.08484 -3.76794 0
M  V30 8227 H 808.084 -0.180891 -4.17208 0
M  V30 8228 N 808.521 1.23394 -0.980386 0
M  V30 8229 C 809.761 1.93543 -0.657288 0
M  V30 8230 C 810.125 1.74791 0.794477 0
M  V30 8231 O 811.326 2.39089 1.2284 0
M  V30 8232 C 809.597 3.42025 -1.03701 0
M  V30 8233 S 811.156 4.30871 -0.830379 0
M  V30 8234 H 807.974 0.669012 -0.240717 0
M  V30 8235 H 810.576 1.49478 -1.26002 0
M  V30 8236 H 809.28 3.53183 -2.09022 0
M  V30 8237 H 808.811 3.91091 -0.425559 0
M  V30 8238 H 810.826 4.95377 0.285719 0
M  V30 8239 N 809.999 0.752036 1.385 0
M  V30 8240 C 810.947 0.112634 2.32327 0
M  V30 8241 C 811.941 -0.707037 1.53939 0
M  V30 8242 O 813.147 -0.606309 1.69481 0
M  V30 8243 H 809.522 0.0176275 0.751793 0
M  V30 8244 H 811.493 0.920074 2.83861 0
M  V30 8245 C 810.242 -0.767458 3.39124 0
M  V30 8246 H 809.565 -0.146122 3.99533 0
M  V30 8247 H 811.005 -1.18216 4.07187 0
M  V30 8248 C 809.464 -1.90938 2.77568 0
M  V30 8249 O 809.994 -3.00342 2.66754 0
M  V30 8250 N 808.2 -1.70396 2.35401 0
M  V30 8251 H 807.747 -0.81413 2.44397 0
M  V30 8252 H 807.705 -2.46972 1.94557 0
M  V30 8253 N 811.477 -1.49425 0.500989 0
M  V30 8254 C 812.754 -1.9531 -0.106551 0
M  V30 8255 C 813.134 -1.44248 -1.54129 0
M  V30 8256 O 812.482 -0.656237 -2.18874 0
M  V30 8257 C 812.692 -3.48995 -0.0191972 0
M  V30 8258 C 814.04 -4.24161 -0.193129 0
M  V30 8259 O 815.064 -3.56075 -0.0943843 0
M  V30 8260 O 813.923 -5.45064 -0.395869 0
M  V30 8261 H 811.017 -0.82149 -0.0953068 0
M  V30 8262 H 813.563 -1.6007 0.563526 0
M  V30 8263 H 812.335 -3.78794 0.981353 0
M  V30 8264 H 811.958 -3.90852 -0.72942 0
M  V30 8265 N 812.955 -0.234822 -1.55841 0
M  V30 8266 C 814.202 0.39326 -1.98645 0
M  V30 8267 C 814.53 1.58823 -1.12274 0
M  V30 8268 O 813.785 1.94954 -0.170731 0
M  V30 8269 C 814.084 0.858032 -3.46947 0
M  V30 8270 C 813.75 -0.227858 -4.50324 0
M  V30 8271 C 812.412 -0.526128 -4.78315 0
M  V30 8272 C 814.764 -0.961576 -5.12253 0
M  V30 8273 C 812.092 -1.5624 -5.65514 0
M  V30 8274 C 814.444 -1.98728 -6.00575 0
M  V30 8275 C 813.108 -2.29233 -6.26904 0
M  V30 8276 H 812.378 0.143904 -0.726892 0
M  V30 8277 H 815.025 -0.34012 -1.88455 0
M  V30 8278 H 813.33 1.67041 -3.54408 0
M  V30 8279 H 815.027 1.35407 -3.77447 0
M  V30 8280 H 811.617 0.0147624 -4.28597 0
M  V30 8281 H 815.801 -0.744388 -4.90686 0
M  V30 8282 H 811.057 -1.80422 -5.84173 0
M  V30 8283 H 815.231 -2.5608 -6.47608 0
M  V30 8284 H 812.858 -3.09671 -6.94268 0
M  V30 8285 N 814.433 1.57553 0.0384317 0
M  V30 8286 C 815.658 1.93485 0.746872 0
M  V30 8287 C 816.083 0.834069 1.68597 0
M  V30 8288 O 815.441 -0.210902 1.80069 0
M  V30 8289 C 815.489 3.28463 1.4881 0
M  V30 8290 O 814.593 3.20051 2.60079 0
M  V30 8291 H 813.934 0.632675 0.201539 0
M  V30 8292 H 816.464 2.046 -0.00329815 0
M  V30 8293 H 816.474 3.63132 1.86009 0
M  V30 8294 H 815.149 4.08147 0.799297 0
M  V30 8295 H 813.726 2.96998 2.25492 0
M  V30 8296 N 815.911 -0.310526 1.54511 0
M  V30 8297 C 817.157 -1.04846 1.73595 0
M  V30 8298 C 817.49 -1.87244 0.515118 0
M  V30 8299 O 816.765 -1.88282 -0.48786 0
M  V30 8300 C 817.048 -1.96237 3.01932 0
M  V30 8301 C 816.901 -1.17082 4.34295 0
M  V30 8302 C 818.22 -2.9556 3.26086 0
M  V30 8303 H 815.339 -0.37976 0.631626 0
M  V30 8304 H 817.981 -0.32394 1.87218 0
M  V30 8305 H 816.131 -2.58015 2.90449 0
M  V30 8306 H 817.803 -0.576643 4.57682 0
M  V30 8307 H 816.046 -0.473336 4.3121 0
M  V30 8308 H 816.717 -1.84257 5.20339 0
M  V30 8309 H 819.193 -2.43908 3.37117 0
M  V30 8310 H 818.069 -3.5668 4.17218 0
M  V30 8311 H 818.33 -3.68715 2.4393 0
M  V30 8312 N 817.389 -1.46805 -0.573248 0
M  V30 8313 C 818.805 -1.31969 -0.897577 0
M  V30 8314 C 819.005 -0.298171 -1.99282 0
M  V30 8315 O 818.061 0.295953 -2.5076 0
M  V30 8316 C 819.374 -2.70859 -1.30598 0
M  V30 8317 C 820.922 -2.79022 -1.4183 0
M  V30 8318 C 821.397 -4.18516 -1.86033 0
M  V30 8319 N 822.888 -4.2098 -1.9321 0
M  V30 8320 C 823.623 -5.25814 -2.28707 0
M  V30 8321 N 823.119 -6.40968 -2.6293 0
M  V30 8322 N 824.912 -5.13184 -2.29343 0
M  V30 8323 H 817.063 -2.11869 0.150094 0
M  V30 8324 H 819.326 -0.947989 0.00447895 0
M  V30 8325 H 819.032 -3.46965 -0.575161 0
M  V30 8326 H 818.906 -3.01585 -2.26554 0
M  V30 8327 H 821.293 -2.03198 -2.13996 0
M  V30 8328 H 821.374 -2.51969 -0.441024 0
M  V30 8329 H 821.018 -4.94839 -1.14442 0
M  V30 8330 H 820.948 -4.42982 -2.84735 0
M  V30 8331 H 823.439 -3.37898 -1.69214 0
M  V30 8332 H 823.752 -7.16729 -2.88996 0
M  V30 8333 H 822.097 -6.44314 -2.60547 0
M  V30 8334 H 825.288 -4.22255 -2.02036 0
M  V30 8335 H 825.461 -5.94996 -2.56679 0
M  V30 8336 N 818.867 0.818669 -1.34668 0
M  V30 8337 C 819.8 1.93516 -1.20941 0
M  V30 8338 C 820.778 1.62292 -0.100061 0
M  V30 8339 O 821.962 1.86614 -0.265983 0
M  V30 8340 C 819.089 3.27612 -0.859524 0
M  V30 8341 C 818.135 3.77794 -1.97923 0
M  V30 8342 S 818.968 3.97043 -3.59329 0
M  V30 8343 C 820.124 5.3406 -3.2639 0
M  V30 8344 H 820.357 2.04864 -2.15449 0
M  V30 8345 H 817.89 0.974716 -1.19744 0
M  V30 8346 H 819.848 4.05087 -0.664444 0
M  V30 8347 H 818.509 3.14028 0.0672835 0
M  V30 8348 H 817.702 4.74883 -1.68827 0
M  V30 8349 H 817.304 3.0728 -2.13202 0
M  V30 8350 H 819.596 6.17626 -2.78469 0
M  V30 8351 H 820.539 5.68143 -4.22634 0
M  V30 8352 H 820.947 4.99773 -2.62464 0
M  V30 8353 N 820.346 1.18468 1.03938 0
M  V30 8354 C 821.276 0.936389 2.13902 0
M  V30 8355 C 822.257 -0.126381 1.6963 0
M  V30 8356 O 823.442 0.0264757 1.94182 0
M  V30 8357 C 820.572 0.462729 3.44204 0
M  V30 8358 C 819.526 1.46613 4.02105 0
M  V30 8359 C 818.852 0.84994 5.27902 0
M  V30 8360 C 820.152 2.84323 4.3813 0
M  V30 8361 H 821.846 1.85602 2.3493 0
M  V30 8362 H 819.392 0.893806 1.12903 0
M  V30 8363 H 821.345 0.276382 4.20493 0
M  V30 8364 H 820.069 -0.492477 3.22866 0
M  V30 8365 H 818.728 1.63944 3.27899 0
M  V30 8366 H 818.376 -0.112493 5.02874 0
M  V30 8367 H 818.076 1.51988 5.67603 0
M  V30 8368 H 819.6 0.674152 6.06867 0
M  V30 8369 H 821.014 2.70636 5.054 0
M  V30 8370 H 819.411 3.48012 4.88884 0
M  V30 8371 H 820.481 3.37776 3.47901 0
M  V30 8372 N 821.824 -1.22873 0.986916 0
M  V30 8373 C 823.24 -1.43594 0.696633 0
M  V30 8374 C 823.44 -1.87622 -0.734869 0
M  V30 8375 O 822.496 -2.02633 -1.50652 0
M  V30 8376 C 823.809 -2.48231 1.69711 0
M  V30 8377 C 825.357 -2.62037 1.71188 0
M  V30 8378 C 825.832 -3.6989 2.70084 0
M  V30 8379 N 827.323 -3.77341 2.68641 0
M  V30 8380 C 828.058 -4.6037 3.41829 0
M  V30 8381 N 827.554 -5.47438 4.24598 0
M  V30 8382 N 829.347 -4.54626 3.30563 0
M  V30 8383 H 821.498 -0.925982 1.91153 0
M  V30 8384 H 823.761 -0.46866 0.824052 0
M  V30 8385 H 823.467 -2.22812 2.72117 0
M  V30 8386 H 823.341 -3.46731 1.48516 0
M  V30 8387 H 825.728 -2.86803 0.694837 0
M  V30 8388 H 825.809 -1.63831 1.96451 0
M  V30 8389 H 825.453 -3.45872 3.71934 0
M  V30 8390 H 825.383 -4.67652 2.42093 0
M  V30 8391 H 827.874 -3.15124 2.08578 0
M  V30 8392 H 828.187 -6.078 4.77283 0
M  V30 8393 H 826.532 -5.4704 4.28687 0
M  V30 8394 H 829.723 -3.85627 2.65347 0
M  V30 8395 H 829.896 -5.19103 3.8786 0
M  V30 8396 N 823.302 -0.75937 -1.38099 0
M  V30 8397 C 824.579 -0.243371 -1.9408 0
M  V30 8398 C 824.959 1.25942 -1.69416 0
M  V30 8399 O 824.307 2.03667 -1.03595 0
M  V30 8400 C 824.517 -0.603328 -3.43745 0
M  V30 8401 C 825.865 -0.566195 -4.20808 0
M  V30 8402 O 826.889 -0.541969 -3.52053 0
M  V30 8403 O 825.748 -0.582261 -5.43389 0
M  V30 8404 H 822.842 -0.0526825 -0.82532 0
M  V30 8405 H 825.388 -0.839884 -1.47459 0
M  V30 8406 H 824.16 -1.64098 -3.55229 0
M  V30 8407 H 823.783 0.0208887 -3.97595 0
M  V30 8408 N 824.78 1.49157 -0.508906 0
M  V30 8409 C 826.008 2.06879 0.0293734 0
M  V30 8410 C 826.423 1.36823 1.30095 0
M  V30 8411 O 825.78 0.449034 1.7689 0
M  V30 8412 C 825.831 3.60423 0.278791 0
M  V30 8413 O 825.552 4.27844 -0.942389 0
M  V30 8414 C 827.053 4.34881 0.859825 0
M  V30 8415 H 824.273 0.67057 -0.0240184 0
M  V30 8416 H 826.817 1.91834 -0.708526 0
M  V30 8417 H 824.972 3.75145 0.966689 0
M  V30 8418 H 825.386 5.19671 -0.710097 0
M  V30 8419 H 826.86 5.43161 0.983884 0
M  V30 8420 H 827.337 3.9789 1.85958 0
M  V30 8421 H 827.943 4.24785 0.209152 0
M  V30 8422 N 826.258 0.243083 1.55714 0
M  V30 8423 C 827.205 -0.658078 2.21219 0
M  V30 8424 C 828.175 -1.1742 1.17481 0
M  V30 8425 O 829.36 -1.22937 1.45915 0
M  V30 8426 C 826.5 -1.85104 2.91257 0
M  V30 8427 C 825.613 -1.3718 4.09641 0
M  V30 8428 C 824.748 -2.52403 4.67404 0
M  V30 8429 C 823.787 -2.01321 5.78045 0
M  V30 8430 N 822.924 -3.09896 6.30007 0
M  V30 8431 H 827.764 -0.0927854 2.97856 0
M  V30 8432 H 825.301 -0.0340375 1.47061 0
M  V30 8433 H 827.259 -2.55179 3.3006 0
M  V30 8434 H 825.889 -2.38887 2.17101 0
M  V30 8435 H 824.941 -0.565232 3.76177 0
M  V30 8436 H 826.253 -0.957409 4.89525 0
M  V30 8437 H 825.407 -3.30525 5.08761 0
M  V30 8438 H 824.146 -2.97142 3.86728 0
M  V30 8439 H 823.151 -1.21667 5.36169 0
M  V30 8440 H 824.376 -1.57556 6.6057 0
M  V30 8441 H 822.322 -3.54077 5.52237 0
M  V30 8442 H 822.239 -2.72776 7.05074 0
M  V30 8443 H 823.507 -3.8809 6.76023 0
M  V30 8444 N 827.736 -1.57571 -0.0300757 0
M  V30 8445 C 828.983 -1.89226 -0.721091 0
M  V30 8446 C 829.311 -0.840244 -1.75414 0
M  V30 8447 O 828.566 0.158906 -1.95054 0
M  V30 8448 C 828.865 -3.27624 -1.42818 0
M  V30 8449 C 828.531 -4.4776 -0.531208 0
M  V30 8450 C 827.193 -4.8036 -0.28415 0
M  V30 8451 C 829.545 -5.21125 0.0881582 0
M  V30 8452 C 826.873 -5.83715 0.591065 0
M  V30 8453 C 829.225 -6.2541 0.95107 0
M  V30 8454 C 827.889 -6.56486 1.2076 0
M  V30 8455 H 827.159 -0.692428 -0.263866 0
M  V30 8456 H 829.806 -1.91491 0.0189874 0
M  V30 8457 H 828.111 -3.21343 -2.24155 0
M  V30 8458 H 829.808 -3.49365 -1.96838 0
M  V30 8459 H 826.398 -4.2227 -0.73392 0
M  V30 8460 H 830.582 -4.96219 -0.0897496 0
M  V30 8461 H 825.838 -6.06168 0.798132 0
M  V30 8462 H 830.012 -6.81402 1.43751 0
M  V30 8463 H 827.639 -7.36395 1.88751 0
M  V30 8464 N 829.214 0.302327 -1.54673 0
M  V30 8465 C 830.463 1.03533 -1.73101 0
M  V30 8466 C 830.776 1.88473 -0.523174 0
M  V30 8467 O 831.982 2.65029 -0.589229 0
M  V30 8468 C 830.438 1.89043 -3.06252 0
M  V30 8469 C 830.046 1.09112 -4.3451 0
M  V30 8470 C 831.79 2.61951 -3.34039 0
M  V30 8471 C 829.697 1.93891 -5.58713 0
M  V30 8472 H 828.627 0.390261 -0.645145 0
M  V30 8473 H 831.278 0.2924 -1.81155 0
M  V30 8474 H 829.66 2.67319 -2.92159 0
M  V30 8475 H 830.834 0.354596 -4.59434 0
M  V30 8476 H 829.149 0.477923 -4.13648 0
M  V30 8477 H 831.746 3.25729 -4.24033 0
M  V30 8478 H 832.089 3.30711 -2.52855 0
M  V30 8479 H 832.622 1.90725 -3.49097 0
M  V30 8480 H 829.361 1.29604 -6.4256 0
M  V30 8481 H 828.881 2.6522 -5.37976 0
M  V30 8482 H 830.56 2.51971 -5.95919 0
M  V30 8483 N 830.692 1.47107 0.565454 0
M  V30 8484 C 831.602 1.61591 1.70075 0
M  V30 8485 C 832.618 0.498931 1.66693 0
M  V30 8486 O 833.794 0.765372 1.8629 0
M  V30 8487 C 830.859 1.61887 3.06583 0
M  V30 8488 C 829.92 2.84949 3.21096 0
M  V30 8489 C 829.153 2.85221 4.51093 0
M  V30 8490 O 829.376 1.94959 5.36048 0
M  V30 8491 O 828.31 3.76982 4.69221 0
M  V30 8492 H 832.136 2.57638 1.60799 0
M  V30 8493 H 829.721 1.30097 0.73451 0
M  V30 8494 H 831.603 1.64809 3.87835 0
M  V30 8495 H 830.278 0.69005 3.16259 0
M  V30 8496 H 829.185 2.87575 2.39273 0
M  V30 8497 H 830.518 3.77098 3.1632 0
M  V30 8498 N 832.17 -0.811516 1.35101 0
M  V30 8499 C 833.102 -1.93102 1.23468 0
M  V30 8500 C 834.115 -1.62021 0.159095 0
M  V30 8501 O 835.304 -1.73682 0.411945 0
M  V30 8502 C 832.404 -3.27345 0.877404 0
M  V30 8503 C 831.577 -3.86368 2.05033 0
M  V30 8504 C 830.636 -4.99009 1.66963 0
M  V30 8505 O 829.662 -5.16698 2.38772 0
M  V30 8506 N 830.864 -5.7749 0.590394 0
M  V30 8507 H 833.629 -2.0361 2.19916 0
M  V30 8508 H 831.19 -0.988687 1.28205 0
M  V30 8509 H 833.182 -4.00163 0.604298 0
M  V30 8510 H 831.752 -3.126 0.00275267 0
M  V30 8511 H 830.972 -3.05804 2.48752 0
M  V30 8512 H 832.26 -4.22533 2.83449 0
M  V30 8513 H 831.658 -5.657 -0.00633259 0
M  V30 8514 H 830.215 -6.50708 0.377055 0
M  V30 8515 N 833.648 -1.19017 -1.03309 0
M  V30 8516 C 834.876 -1.01534 -1.80273 0
M  V30 8517 C 835.291 0.43605 -1.83696 0
M  V30 8518 O 834.648 1.30288 -1.27794 0
M  V30 8519 C 834.699 -1.5722 -3.25522 0
M  V30 8520 O 834.42 -2.96677 -3.22358 0
M  V30 8521 C 835.921 -1.4446 -4.19102 0
M  V30 8522 H 833.141 -0.358094 -0.567459 0
M  V30 8523 H 835.685 -1.57738 -1.3015 0
M  V30 8524 H 833.84 -1.05174 -3.7285 0
M  V30 8525 H 834.254 -3.22795 -4.13405 0
M  V30 8526 H 835.728 -1.88209 -5.18923 0
M  V30 8527 H 836.205 -0.394471 -4.37425 0
M  V30 8528 H 836.811 -1.95616 -3.77643 0
M  V30 8529 N 835.127 1.22348 -0.993418 0
M  V30 8530 C 836.352 1.95666 -0.687727 0
M  V30 8531 C 836.777 1.72883 0.741161 0
M  V30 8532 O 836.135 1.00837 1.50671 0
M  V30 8533 C 836.183 3.46457 -0.99998 0
M  V30 8534 O 835.287 4.12281 -0.0989386 0
M  V30 8535 H 834.628 0.612102 -0.257346 0
M  V30 8536 H 837.158 1.55428 -1.33054 0
M  V30 8537 H 837.168 3.96976 -0.942035 0
M  V30 8538 H 835.843 3.62365 -2.04118 0
M  V30 8539 H 834.42 3.72295 -0.212413 0
M  V30 8540 N 836.605 0.766683 1.37694 0
M  V30 8541 C 837.852 0.328714 1.99814 0
M  V30 8542 C 838.18 -1.09333 1.60862 0
M  V30 8543 O 837.435 -1.7657 0.8439 0
M  V30 8544 C 837.734 0.413831 3.54996 0
M  V30 8545 C 837.4 1.7934 4.137 0
M  V30 8546 C 836.062 2.17092 4.29447 0
M  V30 8547 C 838.414 2.69776 4.45949 0
M  V30 8548 C 835.742 3.44726 4.74743 0
M  V30 8549 C 838.094 3.96814 4.92667 0
M  V30 8550 C 836.758 4.34618 5.0662 0
M  V30 8551 H 836.028 0.120285 0.731172 0
M  V30 8552 H 838.675 0.97972 1.64541 0
M  V30 8553 H 836.98 -0.320723 3.90485 0
M  V30 8554 H 838.677 0.0563369 4.0096 0
M  V30 8555 H 835.267 1.48997 4.01868 0
M  V30 8556 H 839.451 2.41871 4.33373 0
M  V30 8557 H 834.707 3.73917 4.83731 0
M  V30 8558 H 838.881 4.67022 5.16588 0
M  V30 8559 H 836.508 5.33578 5.41478 0
M  V30 8560 N 838.083 -1.48885 0.516809 0
M  V30 8561 C 839.313 -2.06592 -0.018375 0
M  V30 8562 C 839.721 -1.37543 -1.29917 0
M  V30 8563 O 839.064 -0.452527 -1.78039 0
M  V30 8564 C 839.126 -3.58016 -0.326315 0
M  V30 8565 C 838.79 -4.48853 0.859072 0
M  V30 8566 C 839.787 -4.89422 1.75391 0
M  V30 8567 C 837.472 -4.90937 1.06235 0
M  V30 8568 C 839.466 -5.70831 2.83604 0
M  V30 8569 C 837.153 -5.72119 2.14763 0
M  V30 8570 C 838.151 -6.11972 3.03281 0
M  V30 8571 O 837.839 -6.91527 4.09934 0
M  V30 8572 H 837.571 -0.675559 0.0244023 0
M  V30 8573 H 840.125 -1.92442 0.718005 0
M  V30 8574 H 838.355 -3.70231 -1.1165 0
M  V30 8575 H 840.044 -3.97898 -0.801999 0
M  V30 8576 H 840.81 -4.57542 1.60875 0
M  V30 8577 H 836.689 -4.59409 0.382677 0
M  V30 8578 H 840.233 -6.01857 3.52724 0
M  V30 8579 H 836.13 -6.03412 2.29268 0
M  V30 8580 H 836.898 -7.0986 4.07482 0
M  V30 8581 N 839.561 -0.251338 -1.55583 0
M  V30 8582 C 840.493 0.679167 -2.18906 0
M  V30 8583 C 841.506 1.13545 -1.16667 0
M  V30 8584 O 842.695 1.06146 -1.4351 0
M  V30 8585 C 839.795 1.93544 -2.78198 0
M  V30 8586 C 838.968 1.62987 -4.05899 0
M  V30 8587 C 838.027 2.73618 -4.49466 0
M  V30 8588 O 837.053 2.40815 -5.15749 0
M  V30 8589 N 838.255 4.03204 -4.1762 0
M  V30 8590 H 841.02 0.137328 -2.99385 0
M  V30 8591 H 838.581 -0.0714754 -1.61742 0
M  V30 8592 H 840.573 2.66804 -3.04299 0
M  V30 8593 H 839.143 2.38695 -2.0185 0
M  V30 8594 H 838.363 0.732237 -3.8734 0
M  V30 8595 H 839.651 1.40041 -4.89148 0
M  V30 8596 H 839.049 4.32686 -3.64416 0
M  V30 8597 H 837.606 4.72916 -4.48547 0
M  V30 8598 N 841.039 1.57585 0.0217189 0
M  V30 8599 C 842.287 1.89231 0.709641 0
M  V30 8600 C 842.608 0.849964 1.75501 0
M  V30 8601 O 841.878 -0.115485 1.95559 0
M  V30 8602 H 840.458 0.69838 0.265092 0
M  V30 8603 H 843.12 1.94895 -0.0140688 0
M  V30 8604 H 842.216 2.88333 1.19459 0
M  V30 8605 N 842.517 -0.29412 1.54831 0
M  V30 8606 C 843.794 -1.04847 1.65126 0
M  V30 8607 C 844.174 -2.04996 0.503986 0
M  V30 8608 O 843.522 -2.22996 -0.498496 0
M  V30 8609 C 843.732 -1.72418 3.03435 0
M  V30 8610 C 845.08 -2.24362 3.60481 0
M  V30 8611 O 846.104 -1.8244 3.05932 0
M  V30 8612 O 844.963 -3.01196 4.56008 0
M  V30 8613 H 842.057 -0.485032 0.669831 0
M  V30 8614 H 844.603 -0.291659 1.67175 0
M  V30 8615 H 843.375 -0.997351 3.78376 0
M  V30 8616 H 842.998 -2.54839 3.05193 0
M  V30 8617 N 843.995 -1.47404 -0.557645 0
M  V30 8618 C 845.241 -1.54235 -1.31679 0
M  V30 8619 C 845.574 -0.203782 -1.93128 0
M  V30 8620 O 844.849 0.787536 -1.77843 0
M  V30 8621 C 845.132 -2.66003 -2.42723 0
M  V30 8622 C 844.985 -4.09475 -1.86145 0
M  V30 8623 C 846.304 -2.73685 -3.44652 0
M  V30 8624 H 843.423 -0.561466 -0.477415 0
M  V30 8625 H 846.065 -1.79459 -0.624067 0
M  V30 8626 H 844.215 -2.44627 -3.01811 0
M  V30 8627 H 845.887 -4.42213 -1.31321 0
M  V30 8628 H 844.13 -4.17774 -1.16823 0
M  V30 8629 H 844.801 -4.83451 -2.66418 0
M  V30 8630 H 847.277 -2.92968 -2.95481 0
M  V30 8631 H 846.153 -3.53665 -4.19777 0
M  V30 8632 H 846.414 -1.80726 -4.03473 0
M  V30 8633 N 845.473 0.80434 -1.35529 0
M  V30 8634 C 846.405 1.92445 -1.2449 0
M  V30 8635 C 847.418 1.61934 -0.167685 0
M  V30 8636 O 848.607 1.73461 -0.42115 0
M  V30 8637 C 845.707 3.26875 -0.894751 0
M  V30 8638 C 844.88 3.85275 -2.07079 0
M  V30 8639 C 843.939 4.98116 -1.69607 0
M  V30 8640 O 842.965 5.15424 -2.41509 0
M  V30 8641 N 844.167 5.77169 -0.621012 0
M  V30 8642 H 846.932 2.02441 -2.20993 0
M  V30 8643 H 844.493 0.981874 -1.28728 0
M  V30 8644 H 846.485 3.99837 -0.625511 0
M  V30 8645 H 845.055 3.12594 -0.0193306 0
M  V30 8646 H 844.275 3.0448 -2.5037 0
M  V30 8647 H 845.563 4.21024 -2.85685 0
M  V30 8648 H 844.961 5.65695 -0.0236679 0
M  V30 8649 H 843.518 6.50499 -0.411558 0
M  V30 8650 N 846.951 1.19563 1.02676 0
M  V30 8651 C 847.899 0.931942 2.13114 0
M  V30 8652 C 848.893 -0.113007 1.69023 0
M  V30 8653 O 850.099 0.0364298 1.79963 0
M  V30 8654 H 846.474 0.283981 0.696318 0
M  V30 8655 H 848.445 1.86991 2.32545 0
M  V30 8656 C 847.194 0.489461 3.44238 0
M  V30 8657 H 846.517 1.28508 3.78584 0
M  V30 8658 H 847.957 0.34408 4.22602 0
M  V30 8659 C 846.416 -0.796761 3.27343 0
M  V30 8660 O 846.946 -1.85767 3.56165 0
M  V30 8661 N 845.152 -0.754824 2.80626 0
M  V30 8662 H 844.699 0.108778 2.5737 0
M  V30 8663 H 844.657 -1.6158 2.69702 0
M  V30 8664 N 848.429 -1.21819 0.999893 0
M  V30 8665 C 849.392 -2.22227 0.561044 0
M  V30 8666 C 850.392 -1.56722 -0.359858 0
M  V30 8667 O 851.582 -1.73546 -0.150848 0
M  V30 8668 C 848.714 -3.40409 -0.182987 0
M  V30 8669 H 849.907 -2.62567 1.44909 0
M  V30 8670 H 847.46 -1.34991 0.78785 0
M  V30 8671 H 848.195 -3.05551 -1.08671 0
M  V30 8672 H 847.98 -3.89171 0.47833 0
M  V30 8673 H 849.47 -4.14856 -0.477952 0
M  V30 8674 N 849.908 -0.773975 -1.37286 0
M  V30 8675 C 851.154 -0.339809 -1.99933 0
M  V30 8676 C 851.487 1.0815 -1.61299 0
M  V30 8677 O 850.762 1.74442 -0.860252 0
M  V30 8678 C 851.045 -0.485919 -3.56806 0
M  V30 8679 C 850.898 -1.9498 -4.05343 0
M  V30 8680 C 852.217 0.108461 -4.39966 0
M  V30 8681 H 849.336 -0.124944 -0.726332 0
M  V30 8682 H 851.978 -0.977433 -1.6293 0
M  V30 8683 H 850.128 0.0569023 -3.88458 0
M  V30 8684 H 851.8 -2.5525 -3.84246 0
M  V30 8685 H 850.043 -2.45784 -3.57453 0
M  V30 8686 H 850.714 -2.00308 -5.14374 0
M  V30 8687 H 853.19 -0.354722 -4.14585 0
M  V30 8688 H 852.066 -0.0238926 -5.48895 0
M  V30 8689 H 852.327 1.19901 -4.25531 0
M  V30 8690 N 851.386 1.48609 -0.524698 0
M  V30 8691 C 852.296 2.33318 0.244923 0
M  V30 8692 C 853.312 1.46153 0.944214 0
M  V30 8693 O 854.488 1.79141 0.920347 0
M  V30 8694 C 851.553 3.22149 1.28144 0
M  V30 8695 C 850.614 4.25184 0.593068 0
M  V30 8696 C 849.847 5.0977 1.5802 0
M  V30 8697 O 850.07 4.96249 2.81235 0
M  V30 8698 O 849.004 5.9134 1.1225 0
M  V30 8699 H 852.83 3.00362 -0.449066 0
M  V30 8700 H 850.415 1.46643 -0.285689 0
M  V30 8701 H 852.297 3.77111 1.88057 0
M  V30 8702 H 850.972 2.57772 1.95793 0
M  V30 8703 H 849.879 3.74071 -0.0464214 0
M  V30 8704 H 851.212 4.92183 -0.0413893 0
M  V30 8705 N 852.864 0.259585 1.55447 0
M  V30 8706 C 854.112 -0.360893 1.98852 0
M  V30 8707 C 854.433 -1.57535 1.14924 0
M  V30 8708 O 853.703 -1.94485 0.235025 0
M  V30 8709 H 852.283 -0.136332 0.734454 0
M  V30 8710 H 854.945 0.361319 1.91522 0
M  V30 8711 H 854.041 -0.661388 3.05012 0
M  V30 8712 N 854.342 -1.57594 -0.0133615 0
M  V30 8713 C 855.305 -2.06534 -0.993799 0
M  V30 8714 C 856.305 -0.972267 -1.28077 0
M  V30 8715 O 857.495 -1.23537 -1.22818 0
M  V30 8716 C 854.627 -2.49554 -2.3224 0
M  V30 8717 H 855.82 -2.94419 -0.570741 0
M  V30 8718 H 853.373 -1.54113 -0.260546 0
M  V30 8719 H 854.108 -1.64872 -2.79263 0
M  V30 8720 H 853.893 -3.29371 -2.12737 0
M  V30 8721 H 855.383 -2.8779 -3.026 0
M  V30 8722 N 855.82 0.285905 -1.54985 0
M  V30 8723 C 856.753 1.37817 -1.81884 0
M  V30 8724 C 857.731 1.4811 -0.670988 0
M  V30 8725 O 858.915 1.64936 -0.912595 0
M  V30 8726 C 856.042 2.75587 -1.969 0
M  V30 8727 C 855.088 2.82643 -3.19398 0
M  V30 8728 S 855.921 2.43199 -4.7709 0
M  V30 8729 C 857.077 3.82969 -4.95061 0
M  V30 8730 H 857.31 1.14794 -2.74244 0
M  V30 8731 H 854.843 0.484843 -1.4659 0
M  V30 8732 H 856.801 3.54932 -2.06236 0
M  V30 8733 H 855.462 2.9587 -1.05451 0
M  V30 8734 H 854.655 3.8373 -3.26753 0
M  V30 8735 H 854.257 2.11306 -3.08586 0
M  V30 8736 H 856.549 4.78117 -4.80011 0
M  V30 8737 H 857.492 3.80575 -5.97133 0
M  V30 8738 H 857.9 3.73673 -4.23118 0
M  V30 8739 N 857.298 1.47698 0.54982 0
M  V30 8740 C 858.544 1.54931 1.30859 0
M  V30 8741 C 858.877 0.214021 1.93017 0
M  V30 8742 O 858.152 -0.778093 1.78258 0
M  V30 8743 C 858.435 2.67286 2.41309 0
M  V30 8744 C 858.288 4.10457 1.83971 0
M  V30 8745 C 859.607 2.75509 3.43195 0
M  V30 8746 H 856.726 0.56399 0.474431 0
M  V30 8747 H 859.368 1.79787 0.614541 0
M  V30 8748 H 857.518 2.46224 3.0051 0
M  V30 8749 H 859.19 4.42903 1.28974 0
M  V30 8750 H 857.433 4.18387 1.14606 0
M  V30 8751 H 858.104 4.84857 2.63851 0
M  V30 8752 H 860.58 2.94531 2.93923 0
M  V30 8753 H 859.456 3.55886 4.17895 0
M  V30 8754 H 859.717 1.82863 4.02509 0
M  V30 8755 N 858.776 -0.797141 1.35954 0
M  V30 8756 C 860.192 -1.09408 1.16198 0
M  V30 8757 C 860.392 -2.01491 -0.0191682 0
M  V30 8758 O 859.448 -2.42977 -0.686902 0
M  V30 8759 C 860.761 -1.71597 2.46931 0
M  V30 8760 C 862.309 -1.83974 2.53224 0
M  V30 8761 C 862.784 -2.49579 3.84024 0
M  V30 8762 N 864.275 -2.57055 3.85327 0
M  V30 8763 C 865.01 -3.08608 4.83268 0
M  V30 8764 N 864.506 -3.60527 5.91601 0
M  V30 8765 N 866.299 -3.07249 4.70696 0
M  V30 8766 H 858.45 -0.185209 2.11591 0
M  V30 8767 H 860.713 -0.144768 0.936881 0
M  V30 8768 H 860.419 -1.11404 3.3359 0
M  V30 8769 H 860.293 -2.71193 2.62172 0
M  V30 8770 H 862.68 -2.43308 1.66988 0
M  V30 8771 H 862.761 -0.83207 2.41889 0
M  V30 8772 H 862.405 -1.90892 4.70662 0
M  V30 8773 H 862.335 -3.50902 3.92651 0
M  V30 8774 H 864.826 -2.20283 3.07057 0
M  V30 8775 H 865.139 -3.98192 6.62317 0
M  V30 8776 H 863.484 -3.587 5.95281 0
M  V30 8777 H 866.675 -2.65972 3.85197 0
M  V30 8778 H 866.848 -3.47119 5.47186 0
M  V30 8779 N 860.254 -1.20106 -1.0204 0
M  V30 8780 C 861.5 -1.01039 -1.75838 0
M  V30 8781 C 861.833 0.456819 -1.88751 0
M  V30 8782 O 861.108 1.33919 -1.41053 0
M  V30 8783 C 861.391 -1.69009 -3.17975 0
M  V30 8784 C 861.244 -3.2315 -3.1288 0
M  V30 8785 C 862.563 -1.42005 -4.16561 0
M  V30 8786 H 859.682 -0.368465 -0.638281 0
M  V30 8787 H 862.324 -1.48066 -1.19064 0
M  V30 8788 H 860.474 -1.29026 -3.66449 0
M  V30 8789 H 862.146 -3.72402 -2.72239 0
M  V30 8790 H 860.389 -3.54253 -2.50374 0
M  V30 8791 H 861.06 -3.65862 -4.13339 0
M  V30 8792 H 863.536 -1.76685 -3.76725 0
M  V30 8793 H 862.412 -1.92101 -5.14187 0
M  V30 8794 H 862.673 -0.346884 -4.40737 0
M  V30 8795 N 861.732 1.21287 -1.00634 0
M  V30 8796 C 862.695 2.21927 -0.572821 0
M  V30 8797 C 863.695 1.5691 0.351541 0
M  V30 8798 O 864.885 1.73623 0.141643 0
M  V30 8799 C 862.017 3.40501 0.164932 0
M  V30 8800 H 863.21 2.61795 -1.463 0
M  V30 8801 H 860.763 1.34571 -0.794998 0
M  V30 8802 H 861.498 3.06123 1.07049 0
M  V30 8803 H 861.283 3.88912 -0.498962 0
M  V30 8804 H 862.773 4.15103 0.455945 0
M  V30 8805 N 863.21 0.781244 1.36873 0
M  V30 8806 C 864.487 0.274217 1.93668 0
M  V30 8807 C 864.867 -1.2323 1.71399 0
M  V30 8808 O 864.215 -2.01993 1.06822 0
M  V30 8809 C 864.425 0.657939 3.42742 0
M  V30 8810 C 865.773 0.63307 4.19854 0
M  V30 8811 O 866.797 0.597909 3.51146 0
M  V30 8812 O 865.656 0.668636 5.42394 0
M  V30 8813 H 862.75 0.0658059 0.824378 0
M  V30 8814 H 865.296 0.863238 1.46104 0
M  V30 8815 H 864.068 1.69728 3.52573 0
M  V30 8816 H 863.691 0.0423678 3.97577 0
M  V30 8817 N 864.689 -1.48329 0.532571 0
M  V30 8818 C 865.917 -2.069 0.00354299 0
M  V30 8819 C 866.332 -1.38876 -1.27902 0
M  V30 8820 O 865.689 -0.477119 -1.76153 0
M  V30 8821 C 865.74 -3.60821 -0.221416 0
M  V30 8822 O 865.461 -4.26291 1.01034 0
M  V30 8823 C 866.962 -4.36194 -0.790531 0
M  V30 8824 H 864.182 -0.670103 0.0346836 0
M  V30 8825 H 866.726 -1.90682 0.738955 0
M  V30 8826 H 864.881 -3.76636 -0.906884 0
M  V30 8827 H 865.295 -5.18475 0.792683 0
M  V30 8828 H 866.769 -5.44657 -0.897347 0
M  V30 8829 H 867.246 -4.00798 -1.79605 0
M  V30 8830 H 867.852 -4.25064 -0.141546 0
M  V30 8831 N 866.167 -0.267825 -1.55308 0
M  V30 8832 C 867.413 0.351556 -1.9973 0
M  V30 8833 C 867.746 1.56049 -1.15596 0
M  V30 8834 O 867.021 1.93203 -0.224274 0
M  V30 8835 C 867.304 0.74091 -3.52395 0
M  V30 8836 C 867.157 -0.474861 -4.47286 0
M  V30 8837 C 868.476 1.5801 -4.10756 0
M  V30 8838 H 865.595 0.126308 -0.726096 0
M  V30 8839 H 868.237 -0.373316 -1.86296 0
M  V30 8840 H 866.387 1.35851 -3.63973 0
M  V30 8841 H 868.059 -1.1134 -4.47662 0
M  V30 8842 H 866.302 -1.11425 -4.19246 0
M  V30 8843 H 866.973 -0.158782 -5.51772 0
M  V30 8844 H 869.449 1.05857 -4.0241 0
M  V30 8845 H 868.325 1.82135 -5.17801 0
M  V30 8846 H 868.586 2.55878 -3.60526 0
M  V30 8847 N 867.645 1.57599 0.00500368 0
M  V30 8848 C 868.577 2.04949 1.02609 0
M  V30 8849 C 869.59 0.966507 1.31006 0
M  V30 8850 O 870.779 1.2434 1.2807 0
M  V30 8851 C 867.879 2.43023 2.36206 0
M  V30 8852 C 867.052 3.73993 2.26821 0
M  V30 8853 C 866.111 3.9899 3.43065 0
M  V30 8854 O 865.137 4.69725 3.21477 0
M  V30 8855 N 866.339 3.46496 4.65748 0
M  V30 8856 H 869.104 2.93167 0.622336 0
M  V30 8857 H 866.665 1.60752 0.192488 0
M  V30 8858 H 868.657 2.56863 3.12735 0
M  V30 8859 H 867.227 1.60349 2.68341 0
M  V30 8860 H 866.447 3.70277 1.35235 0
M  V30 8861 H 867.735 4.59865 2.17719 0
M  V30 8862 H 867.133 2.89206 4.86186 0
M  V30 8863 H 865.69 3.65675 5.3956 0
M  V30 8864 N 869.123 -0.277682 1.55134 0
M  V30 8865 C 870.351 -1.02826 1.7954 0
M  V30 8866 C 870.766 -1.80105 0.566373 0
M  V30 8867 O 870.123 -1.76491 -0.464448 0
M  V30 8868 C 870.174 -1.99053 3.01762 0
M  V30 8869 O 869.895 -1.24906 4.19917 0
M  V30 8870 C 871.396 -2.85961 3.38735 0
M  V30 8871 H 868.616 -0.303958 0.598206 0
M  V30 8872 H 871.16 -0.309884 2.02138 0
M  V30 8873 H 869.315 -2.66359 2.81303 0
M  V30 8874 H 869.729 -1.89725 4.88983 0
M  V30 8875 H 871.203 -3.49286 4.27438 0
M  V30 8876 H 871.68 -3.55486 2.57928 0
M  V30 8877 H 872.286 -2.24152 3.61436 0
M  V30 8878 N 870.601 -1.47988 -0.541979 0
M  V30 8879 C 871.826 -1.59286 -1.32826 0
M  V30 8880 C 872.251 -0.24894 -1.86445 0
M  V30 8881 O 871.609 0.777581 -1.63778 0
M  V30 8882 C 871.657 -2.6334 -2.46343 0
M  V30 8883 O 870.761 -2.19667 -3.49028 0
M  V30 8884 H 870.102 -0.534543 -0.393903 0
M  V30 8885 H 872.632 -1.93885 -0.653427 0
M  V30 8886 H 872.642 -2.84238 -2.92699 0
M  V30 8887 H 871.317 -3.60913 -2.06675 0
M  V30 8888 H 869.894 -2.08932 -3.08872 0
M  V30 8889 N 872.079 0.78992 -1.36375 0
M  V30 8890 C 873.042 1.88414 -1.30509 0
M  V30 8891 C 874.042 1.59384 -0.2129 0
M  V30 8892 O 875.232 1.67805 -0.467651 0
M  V30 8893 C 872.364 3.25188 -1.02302 0
M  V30 8894 H 873.557 1.95031 -2.27822 0
M  V30 8895 H 871.11 0.987664 -1.2114 0
M  V30 8896 H 871.845 3.24254 -0.0544486 0
M  V30 8897 H 871.63 3.47647 -1.81338 0
M  V30 8898 H 873.12 4.05252 -1.00801 0
M  V30 8899 N 873.557 1.20646 1.01402 0
M  V30 8900 C 874.785 1.04389 1.78635 0
M  V30 8901 C 875.2 -0.406771 1.84366 0
M  V30 8902 O 874.557 -1.28239 1.2985 0
M  V30 8903 C 874.608 1.62378 3.22979 0
M  V30 8904 O 874.329 3.01768 3.17597 0
M  V30 8905 C 875.83 1.5111 4.1675 0
M  V30 8906 H 873.05 0.367077 0.56169 0
M  V30 8907 H 875.594 1.59789 1.27624 0
M  V30 8908 H 873.749 1.11092 3.7113 0
M  V30 8909 H 874.163 3.29331 4.08217 0
M  V30 8910 H 875.637 1.96441 5.15863 0
M  V30 8911 H 876.114 0.464011 4.36742 0
M  V30 8912 H 876.72 2.01599 3.74483 0
M  V30 8913 N 875.035 -1.20752 1.01276 0
M  V30 8914 C 875.983 -2.25432 0.572989 0
M  V30 8915 C 876.977 -1.64935 -0.386354 0
M  V30 8916 O 878.183 -1.7816 -0.256696 0
M  V30 8917 H 874.558 -0.733229 0.166972 0
M  V30 8918 H 876.529 -2.59856 1.46687 0
M  V30 8919 C 875.278 -3.47615 -0.0768249 0
M  V30 8920 H 874.601 -3.94442 0.652354 0
M  V30 8921 H 876.041 -4.22572 -0.3477 0
M  V30 8922 C 874.5 -3.1003 -1.31845 0
M  V30 8923 O 875.03 -3.21216 -2.41211 0
M  V30 8924 N 873.236 -2.64616 -1.20111 0
M  V30 8925 H 872.783 -2.55714 -0.311184 0
M  V30 8926 H 872.741 -2.39838 -2.03286 0
M  V30 8927 N 876.513 -0.788492 -1.36457 0
M  V30 8928 C 877.738 -0.371224 -2.04051 0
M  V30 8929 C 878.163 1.004 -1.59064 0
M  V30 8930 O 877.521 1.64663 -0.758679 0
M  V30 8931 C 877.569 -0.442275 -3.57877 0
M  V30 8932 O 876.673 0.55113 -4.08701 0
M  V30 8933 H 876.014 -0.157808 -0.644975 0
M  V30 8934 H 878.544 -1.06935 -1.74431 0
M  V30 8935 H 878.554 -0.305548 -4.06854 0
M  V30 8936 H 877.229 -1.44547 -3.89973 0
M  V30 8937 H 875.806 0.37614 -3.70998 0
M  V30 8938 N 877.991 1.48044 -0.54043 0
M  V30 8939 C 878.901 2.33565 0.220163 0
M  V30 8940 C 879.917 1.47146 0.928659 0
M  V30 8941 O 881.093 1.80107 0.901295 0
M  V30 8942 C 878.158 3.2349 1.2472 0
M  V30 8943 C 877.219 4.25789 0.547938 0
M  V30 8944 C 876.452 5.11417 1.52605 0
M  V30 8945 O 876.675 4.99204 2.75956 0
M  V30 8946 O 875.609 5.92498 1.05972 0
M  V30 8947 H 879.435 2.99868 -0.480898 0
M  V30 8948 H 877.02 1.46332 -0.301226 0
M  V30 8949 H 878.902 3.79084 1.84047 0
M  V30 8950 H 877.577 2.59835 1.93048 0
M  V30 8951 H 876.484 3.74001 -0.0860941 0
M  V30 8952 H 877.817 4.92111 -0.0935896 0
M  V30 8953 N 879.47 0.276058 1.55163 0
M  V30 8954 C 880.886 -0.0780579 1.59409 0
M  V30 8955 C 881.086 -1.54521 1.29327 0
M  V30 8956 O 880.142 -2.29422 1.05459 0
M  V30 8957 C 881.455 0.297422 2.99225 0
M  V30 8958 C 883.003 0.244117 3.12047 0
M  V30 8959 C 883.478 0.594051 4.54131 0
M  V30 8960 N 884.969 0.54564 4.59975 0
M  V30 8961 C 885.704 0.789192 5.67943 0
M  V30 8962 N 885.2 1.09741 6.84053 0
M  V30 8963 N 886.993 0.717926 5.57496 0
M  V30 8964 H 879.144 1.23251 1.72982 0
M  V30 8965 H 881.407 0.497988 0.806667 0
M  V30 8966 H 881.113 1.31782 3.26077 0
M  V30 8967 H 880.987 -0.361286 3.75466 0
M  V30 8968 H 883.374 -0.766992 2.84958 0
M  V30 8969 H 883.455 0.937097 2.38017 0
M  V30 8970 H 883.099 1.60285 4.81945 0
M  V30 8971 H 883.029 -0.120728 5.26462 0
M  V30 8972 H 885.52 0.317334 3.76565 0
M  V30 8973 H 885.833 1.26989 7.62295 0
M  V30 8974 H 884.178 1.13519 6.85666 0
M  V30 8975 H 887.369 0.47697 4.65664 0
M  V30 8976 H 887.542 0.911118 6.41563 0
M  V30 8977 N 880.948 -1.576 0.00335426 0
M  V30 8978 C 882.194 -1.90996 -0.681799 0
M  V30 8979 C 882.527 -0.877643 -1.73237 0
M  V30 8980 O 881.802 0.103183 -1.94226 0
M  V30 8981 C 882.085 -3.34961 -1.32187 0
M  V30 8982 C 881.938 -4.48911 -0.28261 0
M  V30 8983 C 883.257 -3.78408 -2.24711 0
M  V30 8984 H 880.376 -0.694596 -0.246386 0
M  V30 8985 H 883.018 -1.89919 0.055336 0
M  V30 8986 H 881.168 -3.36008 -1.95014 0
M  V30 8987 H 882.84 -4.59999 0.346241 0
M  V30 8988 H 881.083 -4.32 0.394768 0
M  V30 8989 H 881.754 -5.46609 -0.769576 0
M  V30 8990 H 884.23 -3.78934 -1.71897 0
M  V30 8991 H 883.106 -4.79885 -2.66461 0
M  V30 8992 H 883.367 -3.12464 -3.1276 0
M  V30 8993 N 882.426 0.269451 -1.5528 0
M  V30 8994 C 883.837 0.840233 -1.66724 0
M  V30 8995 C 884.188 1.86909 -0.596621 0
M  V30 8996 O 883.313 2.14817 0.261246 0
M  V30 8997 C 883.908 1.5308 -3.02245 0
M  V30 8998 C 882.467 2.04957 -3.15705 0
M  V30 8999 C 881.614 0.892838 -2.62533 0
M  V30 9000 H 884.565 0.0457236 -1.58634 0
M  V30 9001 H 884.586 2.39792 -2.95432 0
M  V30 9002 H 884.098 0.781741 -3.80145 0
M  V30 9003 H 882.199 2.82813 -2.42585 0
M  V30 9004 H 882.312 2.26244 -4.22316 0
M  V30 9005 H 880.676 1.28719 -2.19781 0
M  V30 9006 H 881.459 0.157229 -3.4294 0
M  V30 9007 N 883.904 1.48273 0.534124 0
M  V30 9008 C 884.852 1.62926 1.66005 0
M  V30 9009 C 885.846 0.495814 1.61982 0
M  V30 9010 O 887.052 0.6744 1.66889 0
M  V30 9011 H 883.427 0.513163 0.549698 0
M  V30 9012 H 885.398 2.57498 1.50789 0
M  V30 9013 C 884.147 1.68231 3.04292 0
M  V30 9014 H 883.47 2.54807 3.0808 0
M  V30 9015 H 884.91 1.82528 3.827 0
M  V30 9016 C 883.369 0.420154 3.3427 0
M  V30 9017 O 883.899 -0.468769 3.98955 0
M  V30 9018 N 882.105 0.293115 2.89118 0
M  V30 9019 H 881.652 1.01745 2.36655 0
M  V30 9020 H 881.61 -0.550376 3.09545 0
M  V30 9021 N 885.382 -0.782676 1.36792 0
M  V30 9022 C 886.312 -1.90973 1.34356 0
M  V30 9023 C 887.293 -1.6875 0.213917 0
M  V30 9024 O 888.478 -1.89766 0.412601 0
M  V30 9025 C 885.608 -3.28097 1.13884 0
M  V30 9026 C 884.562 -3.6486 2.23744 0
M  V30 9027 C 883.888 -5.00406 1.88408 0
M  V30 9028 C 885.188 -3.72742 3.6587 0
M  V30 9029 H 886.882 -1.93268 2.28665 0
M  V30 9030 H 884.428 -0.928447 1.10072 0
M  V30 9031 H 886.381 -4.06569 1.10813 0
M  V30 9032 H 885.105 -3.26206 0.160275 0
M  V30 9033 H 883.764 -2.88689 2.25952 0
M  V30 9034 H 883.412 -4.95044 0.891083 0
M  V30 9035 H 883.112 -5.25973 2.61966 0
M  V30 9036 H 884.636 -5.81291 1.86905 0
M  V30 9037 H 886.05 -4.4139 3.65852 0
M  V30 9038 H 884.447 -4.09798 4.38389 0
M  V30 9039 H 885.517 -2.73676 4.00287 0
M  V30 9040 N 886.86 -1.21182 -1.00761 0
M  V30 9041 C 888.088 -1.05335 -1.78079 0
M  V30 9042 C 888.503 0.396988 -1.84579 0
M  V30 9043 O 887.86 1.27548 -1.30529 0
M  V30 9044 C 887.911 -1.64089 -3.22113 0
M  V30 9045 O 887.632 -3.03448 -3.15992 0
M  V30 9046 C 889.133 -1.53318 -4.15943 0
M  V30 9047 H 886.353 -0.37005 -0.559736 0
M  V30 9048 H 888.897 -1.60463 -1.26775 0
M  V30 9049 H 887.052 -1.13059 -3.70535 0
M  V30 9050 H 887.466 -3.31492 -4.06465 0
M  V30 9051 H 888.94 -1.99174 -5.14814 0
M  V30 9052 H 889.417 -0.487166 -4.3649 0
M  V30 9053 H 890.023 -2.03582 -3.73409 0
M  V30 9054 N 888.338 1.20213 -1.01915 0
M  V30 9055 C 889.301 2.21307 -0.596327 0
M  V30 9056 C 890.301 1.57274 0.334879 0
M  V30 9057 O 891.491 1.73764 0.12322 0
M  V30 9058 C 888.623 3.40657 0.128808 0
M  V30 9059 H 889.816 2.60228 -1.49068 0
M  V30 9060 H 887.369 1.33721 -0.809226 0
M  V30 9061 H 888.104 3.07241 1.03796 0
M  V30 9062 H 887.889 3.88361 -0.540183 0
M  V30 9063 H 889.379 4.15564 0.411892 0
M  V30 9064 N 889.816 0.795718 1.36037 0
M  V30 9065 C 891.062 0.371574 1.99367 0
M  V30 9066 C 891.395 -1.0557 1.62999 0
M  V30 9067 O 890.67 -1.73051 0.887895 0
M  V30 9068 C 890.953 0.542622 3.55988 0
M  V30 9069 C 890.806 2.01404 4.0219 0
M  V30 9070 C 892.125 -0.0384527 4.40083 0
M  V30 9071 H 889.244 0.136483 0.724252 0
M  V30 9072 H 891.886 1.00323 1.61355 0
M  V30 9073 H 890.036 0.0049053 3.885 0
M  V30 9074 H 891.708 2.6133 3.80137 0
M  V30 9075 H 889.951 2.51439 3.53498 0
M  V30 9076 H 890.622 2.08466 5.11122 0
M  V30 9077 H 893.098 0.420634 4.13968 0
M  V30 9078 H 891.974 0.111214 5.48787 0
M  V30 9079 H 892.235 -1.13116 4.27384 0
M  V30 9080 N 891.294 -1.47756 0.548274 0
M  V30 9081 C 892.204 -2.33678 -0.207773 0
M  V30 9082 C 893.22 -1.47636 -0.920843 0
M  V30 9083 O 894.396 -1.80583 -0.89173 0
M  V30 9084 C 891.461 -3.24147 -1.23003 0
M  V30 9085 C 890.522 -4.26073 -0.52535 0
M  V30 9086 C 889.755 -5.12219 -1.4989 0
M  V30 9087 O 889.978 -5.0066 -2.73305 0
M  V30 9088 O 888.912 -5.93051 -1.02828 0
M  V30 9089 H 892.738 -2.99609 0.496794 0
M  V30 9090 H 890.323 -1.4617 0.308982 0
M  V30 9091 H 892.205 -3.80055 -1.82034 0
M  V30 9092 H 890.88 -2.60855 -1.91668 0
M  V30 9093 H 889.787 -3.7395 0.105927 0
M  V30 9094 H 891.12 -4.92054 0.119686 0
M  V30 9095 N 892.772 -0.284283 -1.55015 0
M  V30 9096 C 894 0.332948 -2.04203 0
M  V30 9097 C 894.415 1.48783 -1.16229 0
M  V30 9098 O 893.772 1.81567 -0.184323 0
M  V30 9099 C 893.823 0.805207 -3.52418 0
M  V30 9100 O 893.544 -0.303689 -4.37046 0
M  V30 9101 C 895.045 1.48931 -4.17534 0
M  V30 9102 H 892.265 0.0747447 -0.666824 0
M  V30 9103 H 894.809 -0.419048 -2.00161 0
M  V30 9104 H 892.964 1.50727 -3.56876 0
M  V30 9105 H 893.378 0.0609703 -5.24465 0
M  V30 9106 H 894.852 1.77108 -5.22816 0
M  V30 9107 H 895.329 2.42389 -3.66257 0
M  V30 9108 H 895.935 0.830867 -4.17105 0
M  V30 9109 N 894.251 1.57596 -0.0117121 0
M  V30 9110 C 895.499 1.90694 0.669342 0
M  V30 9111 C 895.82 0.886999 1.73659 0
M  V30 9112 O 895.09 -0.0739779 1.9576 0
M  V30 9113 H 893.67 0.703846 0.250219 0
M  V30 9114 H 896.332 1.94821 -0.0554057 0
M  V30 9115 H 895.428 2.90802 1.13316 0
M  V30 9116 N 895.729 -0.261212 1.5542 0
M  V30 9117 C 896.679 -1.32571 1.85496 0
M  V30 9118 C 897.663 -1.44155 0.714722 0
M  V30 9119 O 898.855 -1.47637 0.976336 0
M  V30 9120 C 895.984 -2.68384 2.14067 0
M  V30 9121 C 895.07 -2.60864 3.34381 0
M  V30 9122 N 895.461 -2.22967 4.54004 0
M  V30 9123 C 893.759 -2.91904 3.37206 0
M  V30 9124 C 894.46 -2.25727 5.36118 0
M  V30 9125 N 893.436 -2.64667 4.74818 0
M  V30 9126 H 897.238 -1.02298 2.75522 0
M  V30 9127 H 894.752 -0.469849 1.55455 0
M  V30 9128 H 896.749 -3.45189 2.33774 0
M  V30 9129 H 895.409 -2.99536 1.25332 0
M  V30 9130 H 896.42 -1.94748 4.79889 0
M  V30 9131 H 893.097 -3.2769 2.587 0
M  V30 9132 H 894.487 -1.98889 6.41789 0
M  V30 9133 N 897.207 -1.48554 -0.526253 0
M  V30 9134 C 898.435 -1.60429 -1.30652 0
M  V30 9135 C 898.85 -0.265963 -1.86917 0
M  V30 9136 O 898.207 0.745262 -1.6659 0
M  V30 9137 C 898.258 -2.65377 -2.45473 0
M  V30 9138 O 897.979 -3.94017 -1.91527 0
M  V30 9139 C 899.48 -2.87726 -3.37237 0
M  V30 9140 H 896.7 -0.540817 -0.397187 0
M  V30 9141 H 899.244 -1.94409 -0.634461 0
M  V30 9142 H 897.399 -2.34246 -3.08557 0
M  V30 9143 H 897.813 -4.51623 -2.66715 0
M  V30 9144 H 899.287 -3.64951 -4.14144 0
M  V30 9145 H 899.764 -1.96688 -3.92696 0
M  V30 9146 H 900.37 -3.20176 -2.79942 0
M  V30 9147 N 898.685 0.775411 -1.37205 0
M  V30 9148 C 899.91 1.5696 -1.35567 0
M  V30 9149 C 900.335 1.88012 0.0575554 0
M  V30 9150 O 899.693 1.48954 1.03355 0
M  V30 9151 C 899.741 2.85886 -2.19776 0
M  V30 9152 O 898.845 3.80103 -1.59987 0
M  V30 9153 H 898.186 0.475583 -0.463375 0
M  V30 9154 H 900.716 0.96001 -1.80679 0
M  V30 9155 H 900.726 3.35024 -2.32859 0
M  V30 9156 H 899.401 2.62613 -3.22502 0
M  V30 9157 H 897.978 3.38736 -1.55924 0
M  V30 9158 N 900.163 1.21714 1.00117 0
M  V30 9159 C 901.095 0.937627 2.09144 0
M  V30 9160 C 902.108 -0.0806291 1.626 0
M  V30 9161 O 903.297 0.152348 1.77849 0
M  V30 9162 C 900.397 0.387036 3.36683 0
M  V30 9163 C 899.57 1.46054 4.12295 0
M  V30 9164 C 898.629 0.918505 5.18122 0
M  V30 9165 O 897.655 1.60282 5.46167 0
M  V30 9166 N 898.857 -0.264308 5.79898 0
M  V30 9167 H 901.622 1.87622 2.33705 0
M  V30 9168 H 899.183 1.12291 1.16629 0
M  V30 9169 H 901.175 0.00992825 4.04699 0
M  V30 9170 H 899.745 -0.456467 3.09249 0
M  V30 9171 H 898.965 2.01133 3.39027 0
M  V30 9172 H 900.253 2.18306 4.59587 0
M  V30 9173 H 899.651 -0.837242 5.5947 0
M  V30 9174 H 898.208 -0.582886 6.49188 0
M  V30 9175 N 901.641 -1.19671 1.02551 0
M  V30 9176 C 902.604 -2.20987 0.608055 0
M  V30 9177 C 903.604 -1.5745 -0.326534 0
M  V30 9178 O 904.794 -1.73827 -0.114003 0
M  V30 9179 C 901.926 -3.4072 -0.11074 0
M  V30 9180 H 903.119 -2.59434 1.50446 0
M  V30 9181 H 900.672 -1.3329 0.816307 0
M  V30 9182 H 901.407 -3.07787 -1.02165 0
M  V30 9183 H 901.192 -3.88069 0.560772 0
M  V30 9184 H 902.682 -4.15776 -0.389848 0
M  V30 9185 N 903.119 -0.802921 -1.35613 0
M  V30 9186 C 904.365 -0.382141 -1.99167 0
M  V30 9187 C 904.698 1.04704 -1.63556 0
M  V30 9188 O 903.973 1.72578 -0.89706 0
M  V30 9189 C 904.256 -0.561493 -3.55695 0
M  V30 9190 C 904.109 -2.03534 -4.01116 0
M  V30 9191 C 905.428 0.0151135 -4.40097 0
M  V30 9192 H 902.547 -0.140322 -0.723518 0
M  V30 9193 H 905.189 -1.01177 -1.6082 0
M  V30 9194 H 903.339 -0.0255083 -3.88492 0
M  V30 9195 H 905.011 -2.63343 -3.78746 0
M  V30 9196 H 903.254 -2.5331 -3.52159 0
M  V30 9197 H 903.925 -2.11173 -5.1001 0
M  V30 9198 H 906.401 -0.442582 -4.1374 0
M  V30 9199 H 905.277 -0.140316 -5.48721 0
M  V30 9200 H 905.538 1.10848 -4.27978 0
M  V30 9201 N 904.597 1.47463 -0.556102 0
M  V30 9202 C 906.008 1.86298 -0.122429 0
M  V30 9203 C 906.359 1.46285 1.30749 0
M  V30 9204 O 905.484 0.865405 1.98342 0
M  V30 9205 C 906.079 3.38115 -0.215407 0
M  V30 9206 C 904.638 3.76046 0.163223 0
M  V30 9207 C 903.785 2.71515 -0.563466 0
M  V30 9208 H 906.736 1.38996 -0.765888 0
M  V30 9209 H 906.757 3.76263 0.566271 0
M  V30 9210 H 906.269 3.67207 -1.25622 0
M  V30 9211 H 904.37 3.5257 1.20519 0
M  V30 9212 H 904.483 4.78705 -0.194568 0
M  V30 9213 H 902.847 2.54699 -0.00667879 0
M  V30 9214 H 903.63 3.03449 -1.60542 0
M  V30 9215 N 906.075 0.2925 1.54862 0
M  V30 9216 C 907.323 -0.318633 1.99572 0
M  V30 9217 C 907.644 -1.55062 1.1824 0
M  V30 9218 O 906.914 -1.93943 0.276226 0
M  V30 9219 H 905.494 -0.120722 0.737181 0
M  V30 9220 H 908.156 0.401862 1.90712 0
M  V30 9221 H 907.252 -0.596542 3.06346 0
M  V30 9222 N 907.553 -1.57587 0.0200696 0
M  V30 9223 C 908.83 -1.82696 -0.698677 0
M  V30 9224 C 909.21 -0.902082 -1.90855 0
M  V30 9225 O 908.558 0.0444834 -2.28457 0
M  V30 9226 C 908.768 -3.31691 -1.08546 0
M  V30 9227 C 910.116 -3.97938 -1.4809 0
M  V30 9228 O 911.14 -3.36133 -1.17869 0
M  V30 9229 O 909.999 -5.06851 -2.04364 0
M  V30 9230 H 907.093 -0.752997 -0.341942 0
M  V30 9231 H 909.639 -1.69635 0.04706 0
M  V30 9232 H 908.411 -3.90659 -0.223956 0
M  V30 9233 H 908.034 -3.49825 -1.88965 0
M  V30 9234 N 909.032 0.252966 -1.55557 0
M  V30 9235 C 910.26 0.999565 -1.81153 0
M  V30 9236 C 910.675 1.79181 -0.594955 0
M  V30 9237 O 910.032 1.77208 0.436311 0
M  V30 9238 C 910.083 1.94227 -3.04891 0
M  V30 9239 O 909.804 1.18209 -4.21851 0
M  V30 9240 C 911.305 2.80536 -3.43241 0
M  V30 9241 H 908.525 0.294402 -0.602966 0
M  V30 9242 H 911.069 0.277686 -2.02606 0
M  V30 9243 H 909.224 2.6185 -2.85505 0
M  V30 9244 H 909.638 1.81922 -4.9194 0
M  V30 9245 H 911.112 3.42442 -4.32941 0
M  V30 9246 H 911.589 3.51337 -2.6355 0
M  V30 9247 H 912.195 2.18373 -3.64956 0
M  V30 9248 N 910.51 1.48831 0.518367 0
M  V30 9249 C 911.443 1.588 1.63884 0
M  V30 9250 C 912.421 0.437847 1.56594 0
M  V30 9251 O 913.605 0.651042 1.769 0
M  V30 9252 C 910.732 1.52681 3.02335 0
M  V30 9253 C 909.778 2.7268 3.27945 0
M  V30 9254 S 910.611 4.34536 3.12951 0
M  V30 9255 C 911.767 4.31034 4.53828 0
M  V30 9256 H 912 2.53587 1.5518 0
M  V30 9257 H 909.533 1.37507 0.702218 0
M  V30 9258 H 911.491 1.49837 3.82177 0
M  V30 9259 H 910.152 0.592107 3.08469 0
M  V30 9260 H 909.345 2.64569 4.28974 0
M  V30 9261 H 908.947 2.72847 2.55794 0
M  V30 9262 H 911.239 4.01683 5.45579 0
M  V30 9263 H 912.182 5.32282 4.66991 0
M  V30 9264 H 912.59 3.61343 4.33695 0
M  V30 9265 N 911.988 -0.768124 1.37614 0
M  V30 9266 C 912.92 -1.89076 1.29548 0
M  V30 9267 C 913.933 -1.61433 0.21056 0
M  V30 9268 O 915.122 -1.72283 0.466992 0
M  V30 9269 C 912.222 -3.24388 0.981102 0
M  V30 9270 C 911.395 -3.79649 2.17222 0
M  V30 9271 C 910.454 -4.93444 1.82754 0
M  V30 9272 O 909.48 -5.0884 2.5509 0
M  V30 9273 N 910.682 -5.75319 0.773819 0
M  V30 9274 H 913.447 -1.9651 2.26283 0
M  V30 9275 H 911.008 -0.947399 1.31286 0
M  V30 9276 H 913 -3.98038 0.731301 0
M  V30 9277 H 911.57 -3.12433 0.102203 0
M  V30 9278 H 910.79 -2.97735 2.58355 0
M  V30 9279 H 912.078 -4.13302 2.96748 0
M  V30 9280 H 911.476 -5.65433 0.173644 0
M  V30 9281 H 910.033 -6.4918 0.583882 0
M  V30 9282 N 913.466 -1.22244 -0.994698 0
M  V30 9283 C 914.694 -1.07218 -1.76952 0
M  V30 9284 C 915.109 0.377388 -1.8499 0
M  V30 9285 O 914.466 1.26157 -1.31874 0
M  V30 9286 C 914.517 -1.67496 -3.20355 0
M  V30 9287 O 914.238 -3.06782 -3.12756 0
M  V30 9288 C 915.739 -1.57721 -4.14294 0
M  V30 9289 H 912.959 -0.375966 -0.555779 0
M  V30 9290 H 915.503 -1.61799 -1.25065 0
M  V30 9291 H 913.658 -1.16982 -3.69315 0
M  V30 9292 H 914.072 -3.35784 -4.02926 0
M  V30 9293 H 915.546 -2.04623 -5.12673 0
M  V30 9294 H 916.023 -0.533434 -4.35949 0
M  V30 9295 H 916.629 -2.07531 -3.71229 0
M  V30 9296 N 914.944 1.19125 -1.03184 0
M  V30 9297 C 916.36 1.40909 -0.749447 0
M  V30 9298 C 916.56 1.9022 0.664729 0
M  V30 9299 O 915.616 2.08085 1.43028 0
M  V30 9300 C 916.929 2.41761 -1.78807 0
M  V30 9301 C 918.477 2.55503 -1.80796 0
M  V30 9302 C 918.952 3.59612 -2.83626 0
M  V30 9303 N 920.443 3.6711 -2.82461 0
M  V30 9304 C 921.178 4.47366 -3.5868 0
M  V30 9305 N 920.674 5.31302 -4.44623 0
M  V30 9306 N 922.467 4.42044 -3.47208 0
M  V30 9307 H 914.618 0.854399 -1.94458 0
M  V30 9308 H 916.881 0.437753 -0.840878 0
M  V30 9309 H 916.587 2.12559 -2.80199 0
M  V30 9310 H 916.461 3.40981 -1.61283 0
M  V30 9311 H 918.848 2.84027 -0.800803 0
M  V30 9312 H 918.929 1.56427 -2.02396 0
M  V30 9313 H 918.573 3.3183 -3.84515 0
M  V30 9314 H 918.503 4.58345 -2.59283 0
M  V30 9315 H 920.994 3.07166 -2.2013 0
M  V30 9316 H 921.307 5.89667 -4.99512 0
M  V30 9317 H 919.652 5.30753 -4.48694 0
M  V30 9318 H 922.843 3.75513 -2.79477 0
M  V30 9319 H 923.016 5.0435 -4.06859 0
M  V30 9320 N 916.422 0.810101 1.35185 0
M  V30 9321 C 917.372 0.195541 2.2716 0
M  V30 9322 C 918.356 -0.632691 1.47939 0
M  V30 9323 O 919.548 -0.489372 1.701 0
M  V30 9324 C 916.677 -0.652164 3.37049 0
M  V30 9325 C 915.763 0.185989 4.23692 0
M  V30 9326 N 916.154 1.25073 4.90092 0
M  V30 9327 C 914.452 -0.0318033 4.45989 0
M  V30 9328 C 915.153 1.76272 5.54349 0
M  V30 9329 N 914.129 1.06861 5.32993 0
M  V30 9330 H 917.931 1.01018 2.75994 0
M  V30 9331 H 915.445 0.651612 1.48754 0
M  V30 9332 H 917.442 -1.10851 4.01893 0
M  V30 9333 H 916.102 -1.46511 2.89767 0
M  V30 9334 H 917.113 1.63341 4.91467 0
M  V30 9335 H 913.79 -0.813607 4.09496 0
M  V30 9336 H 915.18 2.65278 6.17315 0
M  V30 9337 N 917.9 -1.47166 0.563914 0
M  V30 9338 C 919.146 -2.02756 0.0424338 0
M  V30 9339 C 919.479 -1.43662 -1.3067 0
M  V30 9340 O 918.754 -0.594676 -1.85186 0
M  V30 9341 C 919.037 -3.60074 -0.0434793 0
M  V30 9342 C 918.89 -4.29587 1.33323 0
M  V30 9343 C 920.209 -4.336 -0.753568 0
M  V30 9344 H 917.328 -0.736806 0.0168946 0
M  V30 9345 H 919.97 -1.75521 0.727496 0
M  V30 9346 H 918.12 -3.83409 -0.626906 0
M  V30 9347 H 919.792 -4.17573 1.96037 0
M  V30 9348 H 918.035 -3.8968 1.9061 0
M  V30 9349 H 918.706 -5.38218 1.22576 0
M  V30 9350 H 921.182 -4.15299 -0.258126 0
M  V30 9351 H 920.058 -5.43291 -0.782659 0
M  V30 9352 H 920.319 -4.03302 -1.81108 0
M  V30 9353 N 919.378 -0.300708 -1.54705 0
M  V30 9354 C 920.627 0.309428 -1.99312 0
M  V30 9355 C 920.94 1.55027 -1.19272 0
M  V30 9356 O 922.146 2.23498 -1.54146 0
M  V30 9357 C 920.602 0.601856 -3.54832 0
M  V30 9358 C 920.21 -0.620636 -4.4368 0
M  V30 9359 C 921.954 1.1732 -4.07966 0
M  V30 9360 C 919.861 -0.301376 -5.90632 0
M  V30 9361 H 918.791 0.119395 -0.744487 0
M  V30 9362 H 921.442 -0.409368 -1.78875 0
M  V30 9363 H 919.824 1.38024 -3.71168 0
M  V30 9364 H 920.998 -1.39685 -4.39118 0
M  V30 9365 H 919.313 -1.1106 -4.01316 0
M  V30 9366 H 921.91 1.42631 -5.15326 0
M  V30 9367 H 922.253 2.11537 -3.5855 0
M  V30 9368 H 922.786 0.456534 -3.95172 0
M  V30 9369 H 919.525 -1.21209 -6.44196 0
M  V30 9370 H 919.045 0.437574 -5.98202 0
M  V30 9371 H 920.724 0.097164 -6.46927 0
M  V30 9372 N 920.856 1.57574 -0.0284266 0
M  V30 9373 C 921.804 2.11332 0.971675 0
M  V30 9374 C 922.798 1.03974 1.33738 0
M  V30 9375 O 924.004 1.22409 1.31969 0
M  V30 9376 H 920.379 0.675174 0.331125 0
M  V30 9377 H 922.35 2.943 0.49296 0
M  V30 9378 C 921.099 2.65496 2.24516 0
M  V30 9379 H 920.422 3.47753 1.9725 0
M  V30 9380 H 921.862 3.06757 2.92705 0
M  V30 9381 C 920.321 1.58207 2.97443 0
M  V30 9382 O 920.851 0.981496 3.89525 0
M  V30 9383 N 919.057 1.30269 2.59766 0
M  V30 9384 H 918.604 1.79294 1.84963 0
M  V30 9385 H 918.562 0.587085 3.0887 0
M  V30 9386 N 922.334 -0.244713 1.55689 0
M  V30 9387 C 923.282 -1.32276 1.91326 0
M  V30 9388 C 924.276 -1.49714 0.792589 0
M  V30 9389 O 925.482 -1.51163 0.977227 0
M  V30 9390 H 921.857 -0.442979 0.607679 0
M  V30 9391 H 923.828 -0.99486 2.81327 0
M  V30 9392 C 922.577 -2.67077 2.22633 0
M  V30 9393 H 921.9 -2.54458 3.08368 0
M  V30 9394 H 923.34 -3.41378 2.5147 0
M  V30 9395 C 921.799 -3.20335 1.04342 0
M  V30 9396 O 922.329 -4.00633 0.292543 0
M  V30 9397 N 920.535 -2.78392 0.833457 0
M  V30 9398 H 920.082 -2.13202 1.44577 0
M  V30 9399 H 920.04 -3.1437 0.0436713 0
M  V30 9400 N 923.813 -1.49104 -0.510467 0
M  V30 9401 C 924.763 -1.6147 -1.6097 0
M  V30 9402 C 925.747 -0.470797 -1.53858 0
M  V30 9403 O 926.939 -0.723266 -1.61548 0
M  V30 9404 C 924.068 -1.67575 -2.99622 0
M  V30 9405 C 923.154 -2.87511 -3.11766 0
M  V30 9406 N 923.545 -4.11704 -2.93826 0
M  V30 9407 C 921.843 -2.85251 -3.42852 0
M  V30 9408 C 922.544 -4.92276 -3.09902 0
M  V30 9409 N 921.52 -4.2546 -3.38355 0
M  V30 9410 H 925.322 -2.5522 -1.45739 0
M  V30 9411 H 922.836 -1.45745 -0.716383 0
M  V30 9412 H 924.833 -1.74531 -3.78609 0
M  V30 9413 H 923.493 -0.749557 -3.1593 0
M  V30 9414 H 924.504 -4.41834 -2.70191 0
M  V30 9415 H 921.181 -2.0197 -3.65396 0
M  V30 9416 H 922.571 -6.00905 -3.00604 0
M  V30 9417 N 925.291 0.760815 -1.38019 0
M  V30 9418 C 926.537 1.52198 -1.34028 0
M  V30 9419 C 926.87 1.94067 0.0718309 0
M  V30 9420 O 926.145 1.64895 1.0315 0
M  V30 9421 C 926.428 2.77954 -2.2894 0
M  V30 9422 C 926.281 2.42269 -3.7898 0
M  V30 9423 C 927.6 3.79943 -2.22107 0
M  V30 9424 H 924.719 0.552131 -0.488181 0
M  V30 9425 H 927.361 0.871971 -1.6881 0
M  V30 9426 H 925.511 3.33419 -1.9941 0
M  V30 9427 H 927.183 1.92635 -4.19153 0
M  V30 9428 H 925.426 1.74822 -3.97014 0
M  V30 9429 H 926.097 3.32211 -4.4084 0
M  V30 9430 H 928.573 3.34 -2.4816 0
M  V30 9431 H 927.449 4.6564 -2.90639 0
M  V30 9432 H 927.71 4.25004 -1.21753 0
M  V30 9433 N 926.769 1.22769 0.988202 0
M  V30 9434 C 928.185 0.988665 1.2529 0
M  V30 9435 C 928.385 -0.314938 1.99024 0
M  V30 9436 O 927.441 -1.03637 2.30251 0
M  V30 9437 C 928.754 2.19046 2.06009 0
M  V30 9438 C 930.302 2.23452 2.19176 0
M  V30 9439 C 930.777 3.43196 3.03283 0
M  V30 9440 N 932.268 3.43387 3.10869 0
M  V30 9441 C 933.003 4.32693 3.7625 0
M  V30 9442 N 932.499 5.32224 4.43519 0
M  V30 9443 N 934.292 4.20457 3.73058 0
M  V30 9444 H 926.443 2.06575 0.494014 0
M  V30 9445 H 928.706 0.905452 0.28082 0
M  V30 9446 H 928.412 3.13607 1.59197 0
M  V30 9447 H 928.286 2.19492 3.06763 0
M  V30 9448 H 930.673 1.29436 2.65199 0
M  V30 9449 H 930.754 2.27042 1.17836 0
M  V30 9450 H 930.398 4.37515 2.57959 0
M  V30 9451 H 930.328 3.36847 4.04774 0
M  V30 9452 H 932.819 2.71368 2.62998 0
M  V30 9453 H 933.132 5.9664 4.91163 0
M  V30 9454 H 931.477 5.36133 4.42252 0
M  V30 9455 H 934.668 3.41949 3.19669 0
M  V30 9456 H 934.841 4.90261 4.23731 0
M  V30 9457 N 928.247 -1.18576 1.03814 0
M  V30 9458 C 929.472 -1.92978 0.759873 0
M  V30 9459 C 929.897 -1.75514 -0.676486 0
M  V30 9460 O 929.255 -1.06359 -1.46824 0
M  V30 9461 C 929.303 -3.42507 1.12788 0
M  V30 9462 O 928.407 -4.1163 0.251886 0
M  V30 9463 H 927.748 -0.602129 0.279886 0
M  V30 9464 H 930.278 -1.50383 1.3873 0
M  V30 9465 H 930.288 -3.93206 1.08872 0
M  V30 9466 H 928.963 -3.5454 2.17427 0
M  V30 9467 H 927.54 -3.7125 0.350441 0
M  V30 9468 N 929.725 -0.817259 -1.34754 0
M  V30 9469 C 930.635 -0.236946 -2.334 0
M  V30 9470 C 931.651 0.625685 -1.62361 0
M  V30 9471 O 932.827 0.534921 -1.94166 0
M  V30 9472 C 929.892 0.596215 -3.41535 0
M  V30 9473 C 928.953 -0.288154 -4.28332 0
M  V30 9474 C 928.186 0.505337 -5.31302 0
M  V30 9475 O 928.409 1.73912 -5.43241 0
M  V30 9476 O 927.343 -0.109374 -6.01801 0
M  V30 9477 H 931.169 -1.05327 -2.84851 0
M  V30 9478 H 928.754 -0.579275 -1.37713 0
M  V30 9479 H 930.636 1.07041 -4.07578 0
M  V30 9480 H 929.311 1.38997 -2.92338 0
M  V30 9481 H 928.218 -0.809724 -3.65232 0
M  V30 9482 H 929.551 -1.04612 -4.80955 0
M  V30 9483 N 931.203 1.46865 -0.571711 0
M  V30 9484 C 932.428 2.07323 -0.0564655 0
M  V30 9485 C 932.853 1.41938 1.23431 0
M  V30 9486 O 932.211 0.499334 1.74288 0
M  V30 9487 C 932.259 3.6044 0.107339 0
M  V30 9488 O 931.363 3.95558 1.1665 0
M  V30 9489 H 930.704 0.661475 -0.0578465 0
M  V30 9490 H 933.234 1.88669 -0.791524 0
M  V30 9491 H 933.244 4.06767 0.316987 0
M  V30 9492 H 931.919 4.07425 -0.835348 0
M  V30 9493 H 930.496 3.60957 0.936189 0
M  V30 9494 N 932.681 0.308908 1.54543 0
M  V30 9495 C 933.909 -0.300418 2.04707 0
M  V30 9496 C 934.324 -1.46915 1.18581 0
M  V30 9497 O 933.681 -1.81251 0.213186 0
M  V30 9498 C 933.732 -0.749038 3.53655 0
M  V30 9499 O 933.453 0.373181 4.36508 0
M  V30 9500 C 934.954 -1.4227 4.1985 0
M  V30 9501 H 932.174 -0.0641267 0.667929 0
M  V30 9502 H 934.718 0.450839 1.99469 0
M  V30 9503 H 932.873 -1.4503 3.59228 0
M  V30 9504 H 933.287 0.0224752 5.24495 0
M  V30 9505 H 934.761 -1.68768 5.25568 0
M  V30 9506 H 935.238 -2.36531 3.70067 0
M  V30 9507 H 935.844 -0.764404 4.18374 0
M  V30 9508 N 934.159 -1.57557 0.0367827 0
M  V30 9509 C 935.408 -1.91291 -0.639569 0
M  V30 9510 C 935.721 -0.915601 -1.72847 0
M  V30 9511 O 936.927 -1.14447 -2.46199 0
M  V30 9512 C 935.383 -3.39697 -1.18888 0
M  V30 9513 C 934.991 -4.47803 -0.132851 0
M  V30 9514 C 936.735 -3.82487 -1.8413 0
M  V30 9515 C 934.642 -5.87311 -0.694229 0
M  V30 9516 H 933.572 -0.713886 -0.242658 0
M  V30 9517 H 936.223 -1.83209 0.103332 0
M  V30 9518 H 934.605 -3.42736 -1.98363 0
M  V30 9519 H 935.779 -4.56334 0.640009 0
M  V30 9520 H 934.094 -4.14264 0.421264 0
M  V30 9521 H 936.691 -4.84076 -2.27101 0
M  V30 9522 H 937.034 -3.17959 -2.68716 0
M  V30 9523 H 937.567 -3.81903 -1.11332 0
M  V30 9524 H 934.306 -6.55401 0.113667 0
M  V30 9525 H 933.826 -5.82371 -1.4354 0
M  V30 9526 H 935.505 -6.36119 -1.1816 0
M  V30 9527 N 935.637 0.236453 -1.55816 0
M  V30 9528 C 936.547 1.31418 -1.94336 0
M  V30 9529 C 937.563 1.52095 -0.845164 0
M  V30 9530 O 938.739 1.65515 -1.14746 0
M  V30 9531 C 935.804 2.6468 -2.23932 0
M  V30 9532 C 934.865 2.52435 -3.47239 0
M  V30 9533 C 934.098 3.79342 -3.75414 0
M  V30 9534 O 934.321 4.81694 -3.05495 0
M  V30 9535 O 933.255 3.77347 -4.68927 0
M  V30 9536 H 937.081 1.01739 -2.86152 0
M  V30 9537 H 934.666 0.438084 -1.42833 0
M  V30 9538 H 936.548 3.4341 -2.44228 0
M  V30 9539 H 935.223 2.94071 -1.35292 0
M  V30 9540 H 934.13 1.71955 -3.32238 0
M  V30 9541 H 935.463 2.27987 -4.36214 0
M  V30 9542 N 937.115 1.49373 0.502552 0
M  V30 9543 C 938.063 1.66411 1.62512 0
M  V30 9544 C 939.057 0.530062 1.60893 0
M  V30 9545 O 940.263 0.709648 1.65421 0
M  V30 9546 H 936.638 0.524707 0.538689 0
M  V30 9547 H 938.609 2.60639 1.45293 0
M  V30 9548 C 937.358 1.74648 3.00655 0
M  V30 9549 H 936.681 2.61285 3.02606 0
M  V30 9550 H 938.121 1.90605 3.78742 0
M  V30 9551 C 936.58 0.490963 3.33303 0
M  V30 9552 O 937.11 -0.384039 3.9986 0
M  V30 9553 N 935.316 0.354375 2.88431 0
M  V30 9554 H 934.863 1.06742 2.34444 0
M  V30 9555 H 934.821 -0.484593 3.10643 0
M  V30 9556 N 938.594 -0.753485 1.38421 0
M  V30 9557 C 939.841 -1.51261 1.34634 0
M  V30 9558 C 940.169 -1.94396 -0.0635771 0
M  V30 9559 O 939.424 -1.65736 -1.04068 0
M  V30 9560 C 939.723 -2.77836 2.24816 0
M  V30 9561 C 939.389 -2.53662 3.72782 0
M  V30 9562 C 938.051 -2.46779 4.13103 0
M  V30 9563 C 940.403 -2.32548 4.66445 0
M  V30 9564 C 937.731 -2.16796 5.45176 0
M  V30 9565 C 940.083 -2.04085 5.98775 0
M  V30 9566 C 938.747 -1.95658 6.3818 0
M  V30 9567 H 938.017 -0.553503 0.492661 0
M  V30 9568 H 940.664 -0.866406 1.7078 0
M  V30 9569 H 938.969 -3.47106 1.81726 0
M  V30 9570 H 940.666 -3.35793 2.19189 0
M  V30 9571 H 937.256 -2.59891 3.40815 0
M  V30 9572 H 941.44 -2.36845 4.3614 0
M  V30 9573 H 936.696 -2.0878 5.74648 0
M  V30 9574 H 940.87 -1.86751 6.70893 0
M  V30 9575 H 938.497 -1.7219 7.40442 0
M  V30 9576 N 940.072 -1.23292 -0.981677 0
M  V30 9577 C 941.002 -1.03738 -2.09191 0
M  V30 9578 C 941.983 0.0453041 -1.7004 0
M  V30 9579 O 943.168 -0.119092 -1.93834 0
M  V30 9580 C 940.298 -0.626426 -3.41604 0
M  V30 9581 C 939.252 -1.65631 -3.94652 0
M  V30 9582 C 938.578 -1.10084 -5.23245 0
M  V30 9583 C 939.878 -3.04903 -4.24066 0
M  V30 9584 H 941.572 -1.966 -2.25807 0
M  V30 9585 H 939.118 -0.946656 -1.0851 0
M  V30 9586 H 941.071 -0.476689 -4.18695 0
M  V30 9587 H 939.795 0.337873 -3.24848 0
M  V30 9588 H 938.454 -1.79402 -3.19704 0
M  V30 9589 H 938.102 -0.127562 -5.02838 0
M  V30 9590 H 937.802 -1.78896 -5.59705 0
M  V30 9591 H 939.326 -0.962928 -6.02959 0
M  V30 9592 H 940.74 -2.94441 -4.91912 0
M  V30 9593 H 939.137 -3.70941 -4.71724 0
M  V30 9594 H 940.207 -3.53991 -3.31389 0
M  V30 9595 N 941.55 1.18024 -1.04442 0
M  V30 9596 C 942.513 2.19992 -0.643136 0
M  V30 9597 C 943.513 1.57949 0.301444 0
M  V30 9598 O 944.703 1.73986 0.0863341 0
M  V30 9599 C 941.835 3.40853 0.0565208 0
M  V30 9600 H 943.028 2.57008 -1.54554 0
M  V30 9601 H 940.581 1.31974 -0.837408 0
M  V30 9602 H 941.316 3.09373 0.972553 0
M  V30 9603 H 941.101 3.87128 -0.622439 0
M  V30 9604 H 942.591 4.16344 0.323652 0
M  V30 9605 N 943.028 0.824394 1.34319 0
M  V30 9606 C 944.444 0.510336 1.51221 0
M  V30 9607 C 944.644 -0.965201 1.76879 0
M  V30 9608 O 943.7 -1.74961 1.82057 0
M  V30 9609 C 945.013 1.37114 2.6762 0
M  V30 9610 C 946.561 1.36842 2.81502 0
M  V30 9611 C 947.036 2.21374 4.00946 0
M  V30 9612 N 948.527 2.19005 4.08156 0
M  V30 9613 C 949.262 2.81159 4.99737 0
M  V30 9614 N 948.758 3.52309 5.96532 0
M  V30 9615 N 950.551 2.70706 4.9262 0
M  V30 9616 H 942.702 1.77976 1.15924 0
M  V30 9617 H 944.965 0.758503 0.568663 0
M  V30 9618 H 944.671 2.41905 2.55294 0
M  V30 9619 H 944.545 1.03689 3.62669 0
M  V30 9620 H 946.932 0.328284 2.93268 0
M  V30 9621 H 947.013 1.74265 1.87257 0
M  V30 9622 H 946.657 3.25437 3.8994 0
M  V30 9623 H 946.587 1.813 4.94407 0
M  V30 9624 H 949.078 1.67252 3.38874 0
M  V30 9625 H 949.391 3.96977 6.63045 0
M  V30 9626 H 947.736 3.56415 5.96652 0
M  V30 9627 H 950.927 2.14694 4.15962 0
M  V30 9628 H 951.1 3.19431 5.63798 0
M  V30 9629 N 944.506 -1.46559 0.579492 0
M  V30 9630 C 945.731 -2.0729 0.0674595 0
M  V30 9631 C 946.156 -1.4259 -1.22677 0
M  V30 9632 O 945.514 -0.50857 -1.74021 0
M  V30 9633 C 945.562 -3.60492 -0.0882227 0
M  V30 9634 O 944.666 -3.96172 -1.14551 0
M  V30 9635 H 944.007 -0.661159 0.0613536 0
M  V30 9636 H 946.537 -1.88247 0.801519 0
M  V30 9637 H 946.547 -4.06929 -0.295411 0
M  V30 9638 H 945.222 -4.06976 0.856943 0
M  V30 9639 H 943.799 -3.61448 -0.917033 0
M  V30 9640 N 945.984 -0.3171 -1.54377 0
M  V30 9641 C 946.947 0.53905 -2.22771 0
M  V30 9642 C 947.947 1.04865 -1.21901 0
M  V30 9643 O 949.137 0.942108 -1.46526 0
M  V30 9644 C 946.269 1.74804 -2.92671 0
M  V30 9645 H 947.462 -0.0587417 -2.99842 0
M  V30 9646 H 945.015 -0.068107 -1.56152 0
M  V30 9647 H 945.75 2.38524 -2.1972 0
M  V30 9648 H 945.535 1.39011 -3.66631 0
M  V30 9649 H 947.025 2.35592 -3.44799 0
M  V30 9650 N 947.462 1.57535 -0.0451378 0
M  V30 9651 C 948.702 1.9432 0.633955 0
M  V30 9652 C 949.066 0.922924 1.68363 0
M  V30 9653 O 950.267 1.17751 2.41636 0
M  V30 9654 C 948.538 3.35933 1.21999 0
M  V30 9655 S 950.097 3.94666 1.91793 0
M  V30 9656 H 946.915 0.679798 0.208318 0
M  V30 9657 H 949.517 1.95175 -0.112633 0
M  V30 9658 H 948.221 4.07993 0.443821 0
M  V30 9659 H 947.752 3.38559 2.00353 0
M  V30 9660 H 949.767 3.79401 3.19796 0
M  V30 9661 N 948.94 -0.228186 1.55939 0
M  V30 9662 C 950.186 -0.954964 1.78909 0
M  V30 9663 C 950.519 -1.8425 0.613648 0
M  V30 9664 O 949.794 -1.90604 -0.38737 0
M  V30 9665 C 950.077 -1.79957 3.1191 0
M  V30 9666 C 949.93 -0.938968 4.3989 0
M  V30 9667 C 951.249 -2.77859 3.41295 0
M  V30 9668 H 948.368 -0.345745 0.650868 0
M  V30 9669 H 951.01 -0.224244 1.88672 0
M  V30 9670 H 949.16 -2.42256 3.03717 0
M  V30 9671 H 950.832 -0.333225 4.60095 0
M  V30 9672 H 949.075 -0.244096 4.33113 0
M  V30 9673 H 949.746 -1.56416 5.29375 0
M  V30 9674 H 952.222 -2.25695 3.49572 0
M  V30 9675 H 951.098 -3.34062 4.35538 0
M  V30 9676 H 951.359 -3.55266 2.63132 0
M  V30 9677 N 950.418 -1.49637 -0.494624 0
M  V30 9678 C 951.665 -1.59445 -1.24834 0
M  V30 9679 C 951.993 -0.284028 -1.92415 0
M  V30 9680 O 951.248 0.728519 -1.81634 0
M  V30 9681 C 951.547 -2.70749 -2.33302 0
M  V30 9682 C 951.213 -4.12034 -1.83135 0
M  V30 9683 C 949.875 -4.50482 -1.69173 0
M  V30 9684 C 952.227 -5.00432 -1.4566 0
M  V30 9685 C 949.555 -5.75093 -1.16124 0
M  V30 9686 C 951.907 -6.25568 -0.940608 0
M  V30 9687 C 950.571 -6.62839 -0.787432 0
M  V30 9688 H 949.841 -0.583451 -0.456799 0
M  V30 9689 H 952.488 -1.8349 -0.548044 0
M  V30 9690 H 950.793 -2.407 -3.09145 0
M  V30 9691 H 952.49 -2.75546 -2.91334 0
M  V30 9692 H 949.08 -3.8169 -1.94964 0
M  V30 9693 H 953.264 -4.71379 -1.55291 0
M  V30 9694 H 948.52 -6.02665 -1.02982 0
M  V30 9695 H 952.694 -6.93439 -0.641467 0
M  V30 9696 H 950.321 -7.59279 -0.374191 0
M  V30 9697 N 951.896 0.746133 -1.38819 0
M  V30 9698 C 953.126 1.53316 -1.38484 0
M  V30 9699 C 953.534 1.89183 0.0253332 0
M  V30 9700 O 952.877 1.5382 1.00424 0
M  V30 9701 C 952.939 2.85623 -2.18311 0
M  V30 9702 C 952.603 2.72253 -3.67052 0
M  V30 9703 C 953.6 2.41547 -4.60381 0
M  V30 9704 C 951.285 2.89472 -4.10501 0
M  V30 9705 C 953.279 2.28226 -5.9514 0
M  V30 9706 C 950.966 2.7577 -5.45338 0
M  V30 9707 C 951.964 2.45191 -6.37472 0
M  V30 9708 O 951.652 2.31561 -7.69828 0
M  V30 9709 H 951.384 0.480763 -0.475229 0
M  V30 9710 H 953.938 0.93057 -1.83111 0
M  V30 9711 H 952.168 3.481 -1.68414 0
M  V30 9712 H 953.857 3.47178 -2.10291 0
M  V30 9713 H 954.623 2.27905 -4.28117 0
M  V30 9714 H 950.502 3.12269 -3.3913 0
M  V30 9715 H 954.046 2.04279 -6.6702 0
M  V30 9716 H 949.943 2.88987 -5.77197 0
M  V30 9717 H 950.711 2.46716 -7.80432 0
M  V30 9718 N 953.375 1.23811 0.975125 0
M  V30 9719 C 954.305 1.04846 2.08638 0
M  V30 9720 C 955.286 -0.0362859 1.70061 0
M  V30 9721 O 956.471 0.12937 1.93769 0
M  V30 9722 C 953.601 0.644534 3.41267 0
M  V30 9723 C 952.555 1.67722 3.93768 0
M  V30 9724 C 951.881 1.12857 5.22654 0
M  V30 9725 C 953.181 3.07147 4.22443 0
M  V30 9726 H 954.875 1.97795 2.24761 0
M  V30 9727 H 952.421 0.952397 1.08006 0
M  V30 9728 H 954.374 0.498887 4.18436 0
M  V30 9729 H 953.098 -0.320641 3.25022 0
M  V30 9730 H 951.757 1.81095 3.18748 0
M  V30 9731 H 951.405 0.154227 5.02764 0
M  V30 9732 H 951.105 1.81862 5.58749 0
M  V30 9733 H 952.629 0.994891 6.0244 0
M  V30 9734 H 954.043 2.97045 4.90344 0
M  V30 9735 H 952.44 3.73437 4.6975 0
M  V30 9736 H 953.51 3.55743 3.29507 0
M  V30 9737 N 954.853 -1.17469 1.05066 0
M  V30 9738 C 955.763 -2.25089 0.661222 0
M  V30 9739 C 956.779 -1.71086 -0.31712 0
M  V30 9740 O 957.955 -2.00685 -0.169534 0
M  V30 9741 C 955.02 -3.46676 0.0406415 0
M  V30 9742 C 954.081 -4.15771 1.06927 0
M  V30 9743 C 953.314 -5.31553 0.478208 0
M  V30 9744 O 953.537 -5.6593 -0.712714 0
M  V30 9745 O 952.471 -5.89574 1.21185 0
M  V30 9746 H 956.297 -2.60685 1.5581 0
M  V30 9747 H 953.882 -1.24744 0.822147 0
M  V30 9748 H 955.764 -4.203 -0.304312 0
M  V30 9749 H 954.439 -3.1288 -0.829909 0
M  V30 9750 H 953.346 -3.44171 1.46619 0
M  V30 9751 H 954.679 -4.53591 1.91092 0
M  V30 9752 N 956.331 -0.831506 -1.3388 0
M  V30 9753 C 957.561 -0.436292 -2.01941 0
M  V30 9754 C 957.969 0.964979 -1.62741 0
M  V30 9755 O 957.312 1.63733 -0.832894 0
M  V30 9756 C 957.374 -0.468811 -3.5643 0
M  V30 9757 C 957.038 -1.82491 -4.18982 0
M  V30 9758 C 958.035 -2.78705 -4.38885 0
M  V30 9759 C 955.72 -2.11574 -4.55568 0
M  V30 9760 C 957.714 -4.02168 -4.94509 0
M  V30 9761 C 955.401 -3.35296 -5.10901 0
M  V30 9762 C 956.399 -4.3041 -5.30317 0
M  V30 9763 O 956.087 -5.51944 -5.84477 0
M  V30 9764 H 955.819 -0.172335 -0.653664 0
M  V30 9765 H 958.373 -1.12354 -1.71947 0
M  V30 9766 H 956.603 0.275179 -3.8572 0
M  V30 9767 H 958.292 -0.0924518 -4.05795 0
M  V30 9768 H 959.058 -2.57534 -4.10976 0
M  V30 9769 H 954.937 -1.38338 -4.39754 0
M  V30 9770 H 958.481 -4.76418 -5.09579 0
M  V30 9771 H 954.378 -3.56326 -5.3824 0
M  V30 9772 H 955.146 -5.53582 -6.029 0
M  V30 9773 N 957.809 1.4625 -0.587256 0
M  V30 9774 C 958.756 2.30354 0.143384 0
M  V30 9775 C 959.726 1.40891 0.879716 0
M  V30 9776 O 960.911 1.69837 0.869486 0
M  V30 9777 C 958.051 3.25441 1.14815 0
M  V30 9778 C 957.164 4.30004 0.414792 0
M  V30 9779 C 956.299 5.12214 1.40748 0
M  V30 9780 C 955.338 6.08523 0.660786 0
M  V30 9781 N 954.475 6.83585 1.60176 0
M  V30 9782 H 959.315 2.92304 -0.579866 0
M  V30 9783 H 956.852 1.44055 -0.29777 0
M  V30 9784 H 958.81 3.79018 1.7436 0
M  V30 9785 H 957.44 2.6529 1.83906 0
M  V30 9786 H 956.492 3.79248 -0.295787 0
M  V30 9787 H 957.804 4.98515 -0.168738 0
M  V30 9788 H 956.958 5.70091 2.0756 0
M  V30 9789 H 955.697 4.43675 2.02494 0
M  V30 9790 H 954.702 5.49796 -0.0210864 0
M  V30 9791 H 955.927 6.79083 0.0486551 0
M  V30 9792 H 953.873 6.17752 2.20724 0
M  V30 9793 H 953.79 7.48373 1.07115 0
M  V30 9794 H 955.058 7.46016 2.26009 0
M  V30 9795 N 959.287 0.325282 1.54207 0
M  V30 9796 C 960.515 -0.27869 2.05014 0
M  V30 9797 C 960.93 -1.45649 1.20133 0
M  V30 9798 O 960.287 -1.81014 0.232398 0
M  V30 9799 C 960.338 -0.711486 3.54429 0
M  V30 9800 O 960.059 0.419458 4.36087 0
M  V30 9801 C 961.56 -1.37809 4.21336 0
M  V30 9802 H 958.78 -0.0570388 0.668571 0
M  V30 9803 H 961.324 0.47197 1.98979 0
M  V30 9804 H 959.479 -1.41212 3.60746 0
M  V30 9805 H 959.893 0.0781037 5.24442 0
M  V30 9806 H 961.367 -1.63184 5.27328 0
M  V30 9807 H 961.844 -2.32593 3.72555 0
M  V30 9808 H 962.45 -0.719987 4.19161 0
M  V30 9809 N 960.765 -1.57509 0.0534917 0
M  V30 9810 C 962.013 -1.92402 -0.618548 0
M  V30 9811 C 962.334 -0.93273 -1.71246 0
M  V30 9812 O 961.604 0.0220495 -1.95888 0
M  V30 9813 H 960.184 -0.710233 -0.23147 0
M  V30 9814 H 962.846 -1.94606 0.10704 0
M  V30 9815 H 961.942 -2.93704 -1.05566 0
M  V30 9816 N 962.243 0.219913 -1.56058 0
M  V30 9817 C 963.471 0.960915 -1.83232 0
M  V30 9818 C 963.886 1.77878 -0.632828 0
M  V30 9819 O 963.243 1.78093 0.398624 0
M  V30 9820 C 963.294 1.87716 -3.08942 0
M  V30 9821 O 963.015 1.09235 -4.24263 0
M  V30 9822 C 964.516 2.73192 -3.49115 0
M  V30 9823 H 961.736 0.281546 -0.609075 0
M  V30 9824 H 964.28 0.234648 -2.03149 0
M  V30 9825 H 962.435 2.55736 -2.90995 0
M  V30 9826 H 962.849 1.71446 -4.95688 0
M  V30 9827 H 964.323 3.33181 -4.40107 0
M  V30 9828 H 964.8 3.45668 -2.70943 0
M  V30 9829 H 965.406 2.10583 -3.69506 0
M  V30 9830 N 963.721 1.49897 0.486681 0
M  V30 9831 C 964.668 1.67619 1.58658 0
M  V30 9832 C 965.638 0.517537 1.57831 0
M  V30 9833 O 966.823 0.746272 1.756 0
M  V30 9834 C 963.963 1.762 2.96728 0
M  V30 9835 C 963.076 3.03465 3.07462 0
M  V30 9836 C 962.211 3.02937 4.36351 0
M  V30 9837 C 961.25 4.24721 4.4077 0
M  V30 9838 N 960.387 4.22021 5.61108 0
M  V30 9839 H 965.227 2.61528 1.42853 0
M  V30 9840 H 962.764 1.29657 0.694807 0
M  V30 9841 H 964.722 1.79156 3.76774 0
M  V30 9842 H 963.352 0.857452 3.11203 0
M  V30 9843 H 962.404 3.10054 2.20387 0
M  V30 9844 H 963.716 3.93454 3.06586 0
M  V30 9845 H 962.87 3.04536 5.24731 0
M  V30 9846 H 961.609 2.10751 4.39813 0
M  V30 9847 H 960.614 4.23352 3.5079 0
M  V30 9848 H 961.839 5.18116 4.39013 0
M  V30 9849 H 959.785 3.3268 5.65385 0
M  V30 9850 H 959.702 5.05761 5.61909 0
M  V30 9851 H 960.97 4.27743 6.51656 0
M  V30 9852 N 965.199 -0.738761 1.39212 0
M  V30 9853 C 966.109 -1.88324 1.39897 0
M  V30 9854 C 967.125 -1.71494 0.294229 0
M  V30 9855 O 968.301 -1.94162 0.535087 0
M  V30 9856 C 965.366 -3.23871 1.23726 0
M  V30 9857 C 964.427 -3.53121 2.44139 0
M  V30 9858 C 963.66 -4.82202 2.2873 0
M  V30 9859 O 963.883 -5.55649 1.28879 0
M  V30 9860 O 962.817 -5.11265 3.17634 0
M  V30 9861 H 966.643 -1.90701 2.36362 0
M  V30 9862 H 964.228 -0.886067 1.20288 0
M  V30 9863 H 966.11 -4.04882 1.16826 0
M  V30 9864 H 964.785 -3.22274 0.303551 0
M  V30 9865 H 963.692 -2.72212 2.56615 0
M  V30 9866 H 965.025 -3.59495 3.36191 0
M  V30 9867 N 966.677 -1.24326 -0.968545 0
M  V30 9868 C 967.954 -0.990459 -1.68669 0
M  V30 9869 C 968.334 0.487487 -2.05394 0
M  V30 9870 O 967.682 1.46158 -1.75642 0
M  V30 9871 C 967.892 -1.91251 -2.91931 0
M  V30 9872 C 969.24 -2.18291 -3.6419 0
M  V30 9873 O 970.264 -1.88897 -3.01987 0
M  V30 9874 O 969.123 -2.68204 -4.76161 0
M  V30 9875 H 966.217 -0.374515 -0.737338 0
M  V30 9876 H 968.763 -1.35421 -1.02271 0
M  V30 9877 H 967.535 -2.9111 -2.61478 0
M  V30 9878 H 967.158 -1.55188 -3.66064 0
M  V30 9879 N 968.156 1.1691 -1.05688 0
M  V30 9880 C 969.381 1.91745 -0.790478 0
M  V30 9881 C 969.806 1.76568 0.648478 0
M  V30 9882 O 969.164 1.08682 1.45114 0
M  V30 9883 C 969.212 3.4067 -1.18222 0
M  V30 9884 O 968.316 4.11177 -0.317341 0
M  V30 9885 H 967.657 0.5976 -0.28943 0
M  V30 9886 H 970.187 1.48157 -1.41105 0
M  V30 9887 H 970.197 3.91424 -1.15114 0
M  V30 9888 H 968.872 3.51036 -2.2304 0
M  V30 9889 H 967.449 3.70645 -0.409459 0
M  V30 9890 N 969.634 0.838594 1.33437 0
M  V30 9891 C 970.582 0.260158 2.31141 0
M  V30 9892 C 971.576 -0.607706 1.58124 0
M  V30 9893 O 972.782 -0.497298 1.72994 0
M  V30 9894 H 969.157 0.0654031 0.74915 0
M  V30 9895 H 971.128 1.09874 2.77435 0
M  V30 9896 C 969.877 -0.550234 3.43319 0
M  V30 9897 H 969.2 0.108262 3.99653 0
M  V30 9898 H 970.64 -0.920815 4.1388 0
M  V30 9899 C 969.099 -1.729 2.89149 0
M  V30 9900 O 969.629 -2.82769 2.85315 0
M  V30 9901 N 967.835 -1.5508 2.45761 0
M  V30 9902 H 967.382 -0.657055 2.49079 0
M  V30 9903 H 967.34 -2.34099 2.0987 0
M  V30 9904 N 971.112 -1.45937 0.595003 0
M  V30 9905 C 972.337 -2.07207 0.0894416 0
M  V30 9906 C 972.762 -1.43884 -1.21157 0
M  V30 9907 O 972.12 -0.526998 -1.73472 0
M  V30 9908 C 972.168 -3.60565 -0.0499828 0
M  V30 9909 O 971.272 -3.97364 -1.10342 0
M  V30 9910 H 970.613 -0.660471 0.0683627 0
M  V30 9911 H 973.143 -1.87386 0.82144 0
M  V30 9912 H 973.153 -4.0722 -0.252234 0
M  V30 9913 H 971.828 -4.06044 0.90006 0
M  V30 9914 H 970.405 -3.62401 -0.878645 0
M  V30 9915 N 972.59 -0.333456 -1.54032 0
M  V30 9916 C 973.837 0.266133 -2.00744 0
M  V30 9917 C 974.165 1.51361 -1.22148 0
M  V30 9918 O 973.42 1.93473 -0.294368 0
M  V30 9919 C 973.719 0.63565 -3.51702 0
M  V30 9920 C 973.385 -0.513786 -4.47963 0
M  V30 9921 C 972.047 -0.829253 -4.74001 0
M  V30 9922 C 974.399 -1.2854 -5.05101 0
M  V30 9923 C 971.727 -1.91888 -5.54433 0
M  V30 9924 C 974.079 -2.3652 -5.86721 0
M  V30 9925 C 972.743 -2.68637 -6.11057 0
M  V30 9926 H 972.013 0.097385 -0.734573 0
M  V30 9927 H 974.66 -0.459282 -1.85911 0
M  V30 9928 H 972.965 1.44163 -3.64313 0
M  V30 9929 H 974.662 1.11129 -3.85294 0
M  V30 9930 H 971.252 -0.25784 -4.27824 0
M  V30 9931 H 975.436 -1.05494 -4.84958 0
M  V30 9932 H 970.692 -2.17208 -5.71516 0
M  V30 9933 H 974.866 -2.96747 -6.30011 0
M  V30 9934 H 972.493 -3.53197 -6.73169 0
M  V30 9935 N 974.068 1.57479 -0.061844 0
M  V30 9936 C 975.016 2.13346 0.926629 0
M  V30 9937 C 976.01 1.06787 1.31502 0
M  V30 9938 O 977.216 1.25181 1.29343 0
M  V30 9939 H 973.591 0.682046 0.316729 0
M  V30 9940 H 975.562 2.95279 0.430424 0
M  V30 9941 C 974.311 2.70198 2.18834 0
M  V30 9942 H 973.634 3.51859 1.89829 0
M  V30 9943 H 975.074 3.12897 2.86132 0
M  V30 9944 C 973.533 1.64481 2.9402 0
M  V30 9945 O 974.063 1.0639 3.87355 0
M  V30 9946 N 972.269 1.35749 2.56944 0
M  V30 9947 H 971.816 1.83177 1.81119 0
M  V30 9948 H 971.774 0.652469 3.07555 0
M  V30 9949 N 975.546 -0.211634 1.56173 0
M  V30 9950 C 976.494 -1.28188 1.94089 0
M  V30 9951 C 977.488 -1.47999 0.824167 0
M  V30 9952 O 978.694 -1.49056 1.00907 0
M  V30 9953 H 975.069 -0.42999 0.616938 0
M  V30 9954 H 977.04 -0.934962 2.83374 0
M  V30 9955 C 975.789 -2.62294 2.28248 0
M  V30 9956 H 975.112 -2.4786 3.13696 0
M  V30 9957 H 976.552 -3.35967 2.58655 0
M  V30 9958 C 975.011 -3.18049 1.11113 0
M  V30 9959 O 975.541 -3.99923 0.377458 0
M  V30 9960 N 973.747 -2.76561 0.892321 0
M  V30 9961 H 973.294 -2.10088 1.49067 0
M  V30 9962 H 973.252 -3.14206 0.110344 0
M  V30 9963 N 977.024 -1.50153 -0.478725 0
M  V30 9964 C 978.27 -1.61968 -1.23036 0
M  V30 9965 C 978.625 -0.312529 -1.89845 0
M  V30 9966 O 977.918 0.688995 -1.78783 0
M  V30 9967 C 978.112 -2.73208 -2.30417 0
M  V30 9968 C 977.941 -4.14614 -1.74142 0
M  V30 9969 C 976.711 -4.81116 -1.54452 0
M  V30 9970 C 978.909 -4.99111 -1.24066 0
M  V30 9971 N 976.891 -6.06763 -0.933399 0
M  V30 9972 C 978.262 -6.15419 -0.752286 0
M  V30 9973 C 980.317 -4.84943 -1.12849 0
M  V30 9974 C 979.02 -7.19116 -0.162808 0
M  V30 9975 C 981.046 -5.88809 -0.552955 0
M  V30 9976 C 980.408 -7.0436 -0.0749195 0
M  V30 9977 H 976.507 -0.646894 -0.439377 0
M  V30 9978 H 979.091 -1.87244 -0.53364 0
M  V30 9979 H 977.262 -2.49667 -2.97525 0
M  V30 9980 H 978.994 -2.74423 -2.97446 0
M  V30 9981 H 975.749 -4.38282 -1.7946 0
M  V30 9982 H 976.173 -6.73906 -0.64647 0
M  V30 9983 H 980.815 -3.959 -1.48402 0
M  V30 9984 H 978.533 -8.0784 0.204943 0
M  V30 9985 H 982.119 -5.7991 -0.468633 0
M  V30 9986 H 980.999 -7.83357 0.363455 0
M  V30 9987 N 978.502 0.731368 -1.39602 0
M  V30 9988 C 979.748 1.49321 -1.37227 0
M  V30 9989 C 980.081 1.94176 0.0306502 0
M  V30 9990 O 979.356 1.67046 0.996294 0
M  V30 9991 C 979.639 2.73035 -2.34784 0
M  V30 9992 C 979.492 2.34176 -3.84033 0
M  V30 9993 C 980.811 3.75146 -2.30116 0
M  V30 9994 H 977.93 0.541652 -0.499783 0
M  V30 9995 H 980.572 0.835968 -1.70621 0
M  V30 9996 H 978.722 3.29114 -2.06437 0
M  V30 9997 H 980.394 1.83701 -4.23145 0
M  V30 9998 H 978.637 1.66361 -4.00633 0
M  V30 9999 H 979.308 3.22786 -4.47787 0
M  V30 10000 H 981.784 3.28661 -2.55189 0
M  V30 10001 H 980.66 4.5937 -3.00451 0
M  V30 10002 H 980.921 4.22326 -1.30741 0
M  V30 10003 N 979.98 1.24838 0.961938 0
M  V30 10004 C 981.229 1.0855 1.69999 0
M  V30 10005 C 981.542 -0.374645 1.91979 0
M  V30 10006 O 982.748 -0.657822 2.6341 0
M  V30 10007 C 981.204 1.89424 3.06017 0
M  V30 10008 C 980.812 3.39885 2.9186 0
M  V30 10009 C 982.556 1.81684 3.83655 0
M  V30 10010 C 980.463 4.13082 4.23223 0
M  V30 10011 H 979.393 0.402603 0.637516 0
M  V30 10012 H 982.044 1.4897 1.07146 0
M  V30 10013 H 980.426 1.41823 3.69733 0
M  V30 10014 H 981.6 3.95108 2.37121 0
M  V30 10015 H 979.915 3.4864 2.27683 0
M  V30 10016 H 982.512 2.3367 4.80939 0
M  V30 10017 H 982.855 0.783247 4.08865 0
M  V30 10018 H 983.388 2.26997 3.26676 0
M  V30 10019 H 980.127 5.16824 4.03204 0
M  V30 10020 H 979.647 3.62644 4.77755 0
M  V30 10021 H 981.326 4.20397 4.91808 0
M  V30 10022 N 981.458 -1.16348 1.06306 0
M  V30 10023 C 982.686 -1.90782 0.800614 0
M  V30 10024 C 983.101 -1.77439 -0.645033 0
M  V30 10025 O 982.458 -1.11912 -1.4416 0
M  V30 10026 C 982.509 -3.41484 1.18621 0
M  V30 10027 O 982.23 -3.54428 2.57512 0
M  V30 10028 C 983.731 -4.32968 0.951525 0
M  V30 10029 H 980.951 -0.604977 0.290247 0
M  V30 10030 H 983.495 -1.47476 1.41672 0
M  V30 10031 H 981.65 -3.82493 0.614633 0
M  V30 10032 H 982.064 -4.4788 2.72954 0
M  V30 10033 H 983.538 -5.37169 1.27095 0
M  V30 10034 H 984.015 -4.39055 -0.112734 0
M  V30 10035 H 984.621 -3.97687 1.50749 0
M  V30 10036 N 982.937 -0.845659 -1.3299 0
M  V30 10037 C 984.165 -0.45835 -2.01759 0
M  V30 10038 C 984.58 0.94239 -1.63598 0
M  V30 10039 O 983.937 1.61353 -0.852738 0
M  V30 10040 C 983.988 -0.577311 -3.5686 0
M  V30 10041 O 983.709 -1.92287 -3.93646 0
M  V30 10042 C 985.21 -0.187839 -4.42902 0
M  V30 10043 H 982.43 -0.181165 -0.646081 0
M  V30 10044 H 984.974 -1.14011 -1.6977 0
M  V30 10045 H 983.129 0.0566146 -3.87359 0
M  V30 10046 H 983.543 -1.91322 -4.88361 0
M  V30 10047 H 985.017 -0.322105 -5.51059 0
M  V30 10048 H 985.494 0.870896 -4.30479 0
M  V30 10049 H 986.1 -0.796473 -4.17776 0
M  V30 10050 N 984.415 1.45619 -0.602734 0
M  V30 10051 C 985.831 1.57368 -0.26599 0
M  V30 10052 C 986.031 1.59485 1.23154 0
M  V30 10053 O 985.087 1.52254 2.01432 0
M  V30 10054 C 986.4 2.85863 -0.932881 0
M  V30 10055 C 987.948 2.9953 -0.908344 0
M  V30 10056 C 988.423 4.30789 -1.55515 0
M  V30 10057 N 989.914 4.37536 -1.52042 0
M  V30 10058 C 990.649 5.37758 -1.99008 0
M  V30 10059 N 990.145 6.44544 -2.54038 0
M  V30 10060 N 991.938 5.29085 -1.89805 0
M  V30 10061 H 984.089 1.42489 -1.57514 0
M  V30 10062 H 986.352 0.680948 -0.659556 0
M  V30 10063 H 986.058 2.90183 -1.98713 0
M  V30 10064 H 985.932 3.74467 -0.453209 0
M  V30 10065 H 988.319 2.9478 0.137344 0
M  V30 10066 H 988.4 2.12349 -1.42623 0
M  V30 10067 H 988.044 4.36297 -2.60014 0
M  V30 10068 H 987.974 5.16778 -1.01232 0
M  V30 10069 H 990.465 3.60972 -1.11837 0
M  V30 10070 H 990.778 7.17258 -2.87682 0
M  V30 10071 H 989.123 6.45308 -2.58075 0
M  V30 10072 H 992.314 4.44566 -1.46556 0
M  V30 10073 H 992.487 6.07043 -2.26722 0
M  V30 10074 N 985.893 0.34162 1.53853 0
M  V30 10075 C 987.309 -0.0103769 1.59597 0
M  V30 10076 C 987.509 -1.48897 1.35764 0
M  V30 10077 O 986.565 -2.24743 1.15095 0
M  V30 10078 C 987.878 0.424067 2.97695 0
M  V30 10079 C 989.426 0.376247 3.1073 0
M  V30 10080 C 989.901 0.786129 4.51203 0
M  V30 10081 N 991.392 0.74024 4.57247 0
M  V30 10082 C 992.127 1.02937 5.64085 0
M  V30 10083 N 991.623 1.38655 6.78783 0
M  V30 10084 N 993.416 0.953734 5.5395 0
M  V30 10085 H 985.567 1.30477 1.67599 0
M  V30 10086 H 987.83 0.531753 0.78482 0
M  V30 10087 H 987.536 1.45493 3.20195 0
M  V30 10088 H 987.41 -0.201713 3.7666 0
M  V30 10089 H 989.797 -0.645441 2.87955 0
M  V30 10090 H 989.878 1.0372 2.33828 0
M  V30 10091 H 989.522 1.80582 4.74713 0
M  V30 10092 H 989.452 0.102671 5.265 0
M  V30 10093 H 991.943 0.476763 3.7488 0
M  V30 10094 H 992.256 1.59206 7.56223 0
M  V30 10095 H 990.601 1.42498 6.80235 0
M  V30 10096 H 993.792 0.674044 4.63222 0
M  V30 10097 H 993.965 1.18241 6.37121 0
M  V30 10098 N 987.371 -1.57444 0.0701946 0
M  V30 10099 C 988.617 -1.93716 -0.600178 0
M  V30 10100 C 988.95 -0.950329 -1.69359 0
M  V30 10101 O 988.225 0.0207123 -1.94489 0
M  V30 10102 C 988.508 -3.40266 -1.17861 0
M  V30 10103 C 988.361 -4.49706 -0.0919575 0
M  V30 10104 C 989.68 -3.87599 -2.08459 0
M  V30 10105 H 986.799 -0.704421 -0.216704 0
M  V30 10106 H 989.441 -1.89514 0.135838 0
M  V30 10107 H 987.591 -3.43977 -1.80587 0
M  V30 10108 H 989.263 -4.58116 0.541031 0
M  V30 10109 H 987.506 -4.29937 0.577639 0
M  V30 10110 H 988.177 -5.49381 -0.537048 0
M  V30 10111 H 990.653 -3.85883 -1.5567 0
M  V30 10112 H 989.529 -4.90755 -2.45867 0
M  V30 10113 H 989.79 -3.25448 -2.99226 0
M  V30 10114 N 988.849 0.203349 -1.56283 0
M  V30 10115 C 989.812 1.23566 -1.93039 0
M  V30 10116 C 990.812 1.38869 -0.810687 0
M  V30 10117 O 992.002 1.36822 -1.07821 0
M  V30 10118 C 989.134 2.60645 -2.1972 0
M  V30 10119 H 990.327 0.921692 -2.85385 0
M  V30 10120 H 987.88 0.44453 -1.49845 0
M  V30 10121 H 988.615 2.9711 -1.29985 0
M  V30 10122 H 988.4 2.50911 -3.01307 0
M  V30 10123 H 989.89 3.35103 -2.4919 0
M  V30 10124 N 990.327 1.50405 0.470755 0
M  V30 10125 C 991.259 1.65447 1.58619 0
M  V30 10126 C 992.272 0.535949 1.53725 0
M  V30 10127 O 993.461 0.80914 1.59107 0
M  V30 10128 C 990.561 1.62318 2.975 0
M  V30 10129 C 989.734 2.90207 3.27259 0
M  V30 10130 C 988.793 2.79717 4.45696 0
M  V30 10131 O 987.819 3.53672 4.45987 0
M  V30 10132 N 989.021 1.93296 5.47373 0
M  V30 10133 H 991.786 2.61659 1.46132 0
M  V30 10134 H 989.347 1.47873 0.659178 0
M  V30 10135 H 991.339 1.52912 3.747 0
M  V30 10136 H 989.909 0.738392 3.03754 0
M  V30 10137 H 989.129 3.13737 2.38669 0
M  V30 10138 H 990.417 3.74931 3.43953 0
M  V30 10139 H 989.815 1.32524 5.49958 0
M  V30 10140 H 988.372 1.89793 6.23556 0
M  V30 10141 N 991.805 -0.723954 1.39988 0
M  V30 10142 C 992.735 -1.85103 1.42335 0
M  V30 10143 C 993.716 -1.6769 0.285297 0
M  V30 10144 O 994.901 -1.87846 0.492716 0
M  V30 10145 C 992.031 -3.22972 1.27697 0
M  V30 10146 C 990.985 -3.55041 2.39018 0
M  V30 10147 C 990.311 -4.91965 2.09462 0
M  V30 10148 C 991.611 -3.56889 3.8135 0
M  V30 10149 H 993.305 -1.83396 2.36656 0
M  V30 10150 H 990.851 -0.880926 1.13911 0
M  V30 10151 H 992.804 -4.01503 1.27958 0
M  V30 10152 H 991.528 -3.25233 0.298487 0
M  V30 10153 H 990.187 -2.78845 2.37993 0
M  V30 10154 H 989.835 -4.90819 1.10025 0
M  V30 10155 H 989.535 -5.14389 2.84038 0
M  V30 10156 H 991.059 -5.7284 2.11391 0
M  V30 10157 H 992.473 -4.25476 3.84243 0
M  V30 10158 H 990.87 -3.90836 4.55376 0
M  V30 10159 H 991.94 -2.56452 4.11534 0
M  V30 10160 N 993.283 -1.25346 -0.955304 0
M  V30 10161 C 994.699 -1.02154 -1.22625 0
M  V30 10162 C 994.899 0.26206 -1.99789 0
M  V30 10163 O 993.955 0.974958 -2.32918 0
M  V30 10164 C 995.268 -2.2443 -2.00129 0
M  V30 10165 C 996.816 -2.29185 -2.13174 0
M  V30 10166 C 997.291 -3.51117 -2.94077 0
M  V30 10167 N 998.782 -3.51509 -3.01655 0
M  V30 10168 C 999.517 -4.42517 -3.64645 0
M  V30 10169 N 999.013 -5.43796 -4.29252 0
M  V30 10170 N 1000.81 -4.302 -3.61779 0
M  V30 10171 H 992.957 -2.07812 -0.439071 0
M  V30 10172 H 995.22 -0.91258 -0.256715 0
M  V30 10173 H 994.926 -3.17717 -1.50827 0
M  V30 10174 H 994.8 -2.27548 -3.00835 0
M  V30 10175 H 997.187 -1.36422 -2.61674 0
M  V30 10176 H 997.268 -2.30087 -1.11775 0
M  V30 10177 H 996.912 -4.44201 -2.46268 0
M  V30 10178 H 996.842 -3.4746 -3.95701 0
M  V30 10179 H 999.333 -2.78245 -2.55711 0
M  V30 10180 H 999.646 -6.09453 -4.75171 0
M  V30 10181 H 997.991 -5.4767 -4.27882 0
M  V30 10182 H 1001.18 -3.50304 -3.10491 0
M  V30 10183 H 1001.36 -5.01323 -4.10584 0
M  V30 10184 N 994.761 1.15782 -1.06922 0
M  V30 10185 C 996.177 1.38454 -0.793896 0
M  V30 10186 C 996.377 1.92238 0.603875 0
M  V30 10187 O 995.433 2.1253 1.36335 0
M  V30 10188 C 996.746 2.3595 -1.86408 0
M  V30 10189 C 998.294 2.49622 -1.88833 0
M  V30 10190 C 998.769 3.50406 -2.94923 0
M  V30 10191 N 1000.26 3.57938 -2.93997 0
M  V30 10192 C 1001 4.35728 -3.72731 0
M  V30 10193 N 1000.49 5.16888 -4.61301 0
M  V30 10194 N 1002.28 4.30774 -3.61096 0
M  V30 10195 H 994.435 0.792101 -1.97077 0
M  V30 10196 H 996.698 0.410779 -0.85438 0
M  V30 10197 H 996.404 2.03537 -2.86819 0
M  V30 10198 H 996.278 3.35677 -1.72049 0
M  V30 10199 H 998.665 2.81335 -0.890759 0
M  V30 10200 H 998.746 1.49909 -2.0727 0
M  V30 10201 H 998.39 3.19429 -3.94877 0
M  V30 10202 H 998.32 4.49864 -2.73734 0
M  V30 10203 H 1000.81 3.00007 -2.29791 0
M  V30 10204 H 1001.12 5.73477 -5.18019 0
M  V30 10205 H 999.469 5.16209 -4.65353 0
M  V30 10206 H 1002.66 3.66432 -2.91282 0
M  V30 10207 H 1002.83 4.91151 -4.22699 0
M  V30 10208 N 996.239 0.8527 1.3254 0
M  V30 10209 C 997.186 0.293905 2.28921 0
M  V30 10210 C 998.156 -0.598027 1.54961 0
M  V30 10211 O 999.341 -0.533355 1.83194 0
M  V30 10212 C 996.481 -0.513361 3.4126 0
M  V30 10213 C 995.594 0.404144 4.30105 0
M  V30 10214 C 994.729 -0.415564 5.29572 0
M  V30 10215 C 993.768 0.499461 6.10059 0
M  V30 10216 N 992.905 -0.282949 7.0153 0
M  V30 10217 H 997.745 1.12107 2.76109 0
M  V30 10218 H 995.282 0.564272 1.35847 0
M  V30 10219 H 997.24 -0.997008 4.05112 0
M  V30 10220 H 995.87 -1.30537 2.95229 0
M  V30 10221 H 994.922 1.00617 3.66852 0
M  V30 10222 H 996.234 1.10648 4.86373 0
M  V30 10223 H 995.388 -0.962458 5.99017 0
M  V30 10224 H 994.127 -1.15127 4.73917 0
M  V30 10225 H 993.132 1.05825 5.39519 0
M  V30 10226 H 994.357 1.23375 6.67799 0
M  V30 10227 H 992.303 -1.00179 6.48306 0
M  V30 10228 H 992.22 0.36039 7.55141 0
M  V30 10229 H 993.488 -0.811632 7.75263 0
M  V30 10230 N 997.718 -1.45297 0.610449 0
M  V30 10231 C 998.648 -2.33311 -0.0939698 0
M  V30 10232 C 999.629 -1.46999 -0.85588 0
M  V30 10233 O 1000.81 -1.75764 -0.825865 0
M  V30 10234 C 997.944 -3.29751 -1.09003 0
M  V30 10235 C 996.898 -4.2572 -0.441146 0
M  V30 10236 C 996.224 -5.11873 -1.54566 0
M  V30 10237 C 997.524 -5.1837 0.639489 0
M  V30 10238 H 999.218 -2.92459 0.640941 0
M  V30 10239 H 996.764 -1.40631 0.309675 0
M  V30 10240 H 998.717 -3.90195 -1.59141 0
M  V30 10241 H 997.441 -2.68768 -1.85557 0
M  V30 10242 H 996.1 -3.66579 0.0393908 0
M  V30 10243 H 995.748 -4.47256 -2.30155 0
M  V30 10244 H 995.448 -5.76886 -1.11698 0
M  V30 10245 H 996.972 -5.75185 -2.04925 0
M  V30 10246 H 998.386 -5.7287 0.22207 0
M  V30 10247 H 996.783 -5.91876 0.990089 0
M  V30 10248 H 997.853 -4.60627 1.51495 0
M  V30 10249 N 999.196 -0.349774 -1.5367 0
M  V30 10250 C 1000.11 0.512421 -2.28935 0
M  V30 10251 C 1001.12 1.1065 -1.34286 0
M  V30 10252 O 1002.3 1.12084 -1.67329 0
M  V30 10253 C 999.363 1.64449 -3.05217 0
M  V30 10254 C 998.424 1.07956 -4.15505 0
M  V30 10255 C 997.657 2.15768 -4.88139 0
M  V30 10256 O 997.88 3.366 -4.60496 0
M  V30 10257 O 996.814 1.79712 -5.74445 0
M  V30 10258 H 1000.64 -0.0996001 -3.03537 0
M  V30 10259 H 998.225 -0.114629 -1.4896 0
M  V30 10260 H 1000.11 2.30302 -3.52901 0
M  V30 10261 H 998.782 2.24221 -2.33467 0
M  V30 10262 H 997.689 0.385381 -3.7211 0
M  V30 10263 H 999.022 0.526621 -4.89375 0
M  V30 10264 N 1000.67 1.57404 -0.0785433 0
M  V30 10265 C 1001.61 2.08724 0.922464 0
M  V30 10266 C 1002.58 0.993912 1.28686 0
M  V30 10267 O 1003.77 1.26776 1.39499 0
M  V30 10268 C 1000.9 2.55051 2.2286 0
M  V30 10269 C 999.942 3.75884 2.01528 0
M  V30 10270 S 1000.77 5.2026 1.26844 0
M  V30 10271 C 1001.93 5.69924 2.58723 0
M  V30 10272 H 1002.16 2.93304 0.485807 0
M  V30 10273 H 999.697 1.53814 0.134377 0
M  V30 10274 H 1001.65 2.82402 2.97926 0
M  V30 10275 H 1000.32 1.70727 2.63649 0
M  V30 10276 H 999.509 4.06311 2.98207 0
M  V30 10277 H 999.111 3.48941 1.34596 0
M  V30 10278 H 1001.4 5.7718 3.5478 0
M  V30 10279 H 1002.35 6.68704 2.32897 0
M  V30 10280 H 1002.75 4.97773 2.66237 0
M  V30 10281 N 1002.15 -0.195058 1.56388 0
M  V30 10282 C 1003.4 -0.915444 1.80626 0
M  V30 10283 C 1003.73 -1.83255 0.651768 0
M  V30 10284 O 1002.98 -1.92314 -0.362464 0
M  V30 10285 C 1003.28 -1.7637 3.10851 0
M  V30 10286 C 1002.95 -0.997572 4.39726 0
M  V30 10287 C 1001.61 -0.786043 4.74737 0
M  V30 10288 C 1003.96 -0.45851 5.19179 0
M  V30 10289 C 1001.29 -0.023972 5.86695 0
M  V30 10290 C 1003.64 0.29035 6.31933 0
M  V30 10291 C 1002.3 0.512895 6.65527 0
M  V30 10292 H 1001.57 -0.334985 0.660959 0
M  V30 10293 H 1004.22 -0.181815 1.90635 0
M  V30 10294 H 1002.53 -2.566 2.9608 0
M  V30 10295 H 1004.22 -2.3237 3.26811 0
M  V30 10296 H 1000.81 -1.17245 4.12252 0
M  V30 10297 H 1005 -0.609334 4.92545 0
M  V30 10298 H 1000.25 0.158421 6.11195 0
M  V30 10299 H 1004.43 0.715429 6.92715 0
M  V30 10300 H 1002.05 1.10531 7.52122 0
M  V30 10301 N 1003.63 -1.50653 -0.462772 0
M  V30 10302 C 1004.86 -1.65826 -1.23731 0
M  V30 10303 C 1005.27 -0.345002 -1.85621 0
M  V30 10304 O 1004.63 0.673935 -1.69601 0
M  V30 10305 C 1004.68 -2.7555 -2.33997 0
M  V30 10306 O 1004.4 -4.01785 -1.74643 0
M  V30 10307 C 1005.9 -3.0177 -3.2473 0
M  V30 10308 H 1003.12 -0.557177 -0.373892 0
M  V30 10309 H 1005.67 -1.96925 -0.551434 0
M  V30 10310 H 1003.82 -2.47122 -2.98345 0
M  V30 10311 H 1004.24 -4.62529 -2.4732 0
M  V30 10312 H 1005.71 -3.82188 -3.98292 0
M  V30 10313 H 1006.19 -2.13167 -3.84001 0
M  V30 10314 H 1006.79 -3.31761 -2.66111 0
M  V30 10315 N 1005.11 0.71652 -1.4037 0
M  V30 10316 C 1006.34 1.50344 -1.41704 0
M  V30 10317 C 1006.75 1.89194 -0.0148011 0
M  V30 10318 O 1006.09 1.55916 0.971391 0
M  V30 10319 C 1006.15 2.80928 -2.2432 0
M  V30 10320 C 1005.82 2.64406 -3.72744 0
M  V30 10321 C 1006.81 2.31727 -4.65401 0
M  V30 10322 C 1004.5 2.807 -4.16549 0
M  V30 10323 C 1006.49 2.15551 -5.99847 0
M  V30 10324 C 1004.18 2.64141 -5.51065 0
M  V30 10325 C 1005.18 2.31614 -6.42529 0
M  V30 10326 O 1004.86 2.15179 -7.74566 0
M  V30 10327 H 1004.6 0.470574 -0.48532 0
M  V30 10328 H 1007.15 0.89152 -1.85043 0
M  V30 10329 H 1005.38 3.4445 -1.75759 0
M  V30 10330 H 1007.07 3.4264 -2.17607 0
M  V30 10331 H 1007.84 2.18773 -4.32855 0
M  V30 10332 H 1003.71 3.05005 -3.45677 0
M  V30 10333 H 1007.26 1.90084 -6.71203 0
M  V30 10334 H 1003.16 2.76679 -5.83197 0
M  V30 10335 H 1003.92 2.30106 -7.85489 0
M  V30 10336 N 1006.59 1.25851 0.948643 0
M  V30 10337 C 1007.52 1.09248 2.06367 0
M  V30 10338 C 1008.5 -0.000205168 1.701 0
M  V30 10339 O 1009.68 0.170442 1.93451 0
M  V30 10340 C 1006.81 0.716777 3.39823 0
M  V30 10341 C 1005.77 1.76036 3.90122 0
M  V30 10342 C 1005.09 1.23918 5.20143 0
M  V30 10343 C 1006.39 3.16039 4.15833 0
M  V30 10344 H 1008.09 2.02518 2.20515 0
M  V30 10345 H 1005.63 0.975093 1.05962 0
M  V30 10346 H 1007.59 0.587531 4.17284 0
M  V30 10347 H 1006.31 -0.251626 3.25629 0
M  V30 10348 H 1004.97 1.87815 3.14835 0
M  V30 10349 H 1004.62 0.260836 5.02323 0
M  V30 10350 H 1004.32 1.93673 5.54765 0
M  V30 10351 H 1005.84 1.12245 6.00194 0
M  V30 10352 H 1007.25 3.0738 4.83933 0
M  V30 10353 H 1005.65 3.83317 4.61723 0
M  V30 10354 H 1006.72 3.62652 3.21887 0
M  V30 10355 N 1008.06 -1.15214 1.07534 0
M  V30 10356 C 1009.48 -1.38031 0.801228 0
M  V30 10357 C 1009.68 -1.92556 -0.593672 0
M  V30 10358 O 1008.74 -2.1325 -1.35206 0
M  V30 10359 C 1010.05 -2.34958 1.87657 0
M  V30 10360 C 1011.6 -2.48617 1.90154 0
M  V30 10361 C 1012.07 -3.48837 2.96777 0
M  V30 10362 N 1013.56 -3.56374 2.95892 0
M  V30 10363 C 1014.3 -4.33746 3.75036 0
M  V30 10364 N 1013.79 -5.14435 4.64036 0
M  V30 10365 N 1015.59 -4.28853 3.63375 0
M  V30 10366 H 1007.74 -0.781639 1.97495 0
M  V30 10367 H 1010 -0.406243 0.856546 0
M  V30 10368 H 1009.71 -2.02013 2.87895 0
M  V30 10369 H 1009.58 -3.3476 1.73827 0
M  V30 10370 H 1011.97 -2.80859 0.905666 0
M  V30 10371 H 1012.05 -1.48808 2.08062 0
M  V30 10372 H 1011.69 -3.1733 3.96565 0
M  V30 10373 H 1011.62 -4.48406 2.76116 0
M  V30 10374 H 1014.11 -2.98784 2.31379 0
M  V30 10375 H 1014.43 -5.70722 5.21053 0
M  V30 10376 H 1012.77 -5.13734 4.68084 0
M  V30 10377 H 1015.96 -3.64882 2.93221 0
M  V30 10378 H 1016.14 -4.88903 4.25298 0
M  V30 10379 N 1009.54 -0.859717 -1.32086 0
M  V30 10380 C 1010.79 -0.465581 -1.97075 0
M  V30 10381 C 1011.12 0.979917 -1.68012 0
M  V30 10382 O 1010.37 1.70337 -0.96353 0
M  V30 10383 C 1010.67 -0.657397 -3.51302 0
M  V30 10384 C 1010.34 -2.07413 -4.00363 0
M  V30 10385 C 1009 -2.4616 -4.13472 0
M  V30 10386 C 1011.35 -2.99855 -4.26305 0
M  V30 10387 C 1008.68 -3.76611 -4.49868 0
M  V30 10388 C 1011.03 -4.2981 -4.64161 0
M  V30 10389 C 1009.7 -4.68485 -4.75476 0
M  V30 10390 H 1008.97 -0.170368 -0.721149 0
M  V30 10391 H 1011.61 -1.09074 -1.57401 0
M  V30 10392 H 1009.92 0.0509638 -3.91767 0
M  V30 10393 H 1011.61 -0.332416 -3.9962 0
M  V30 10394 H 1008.2 -1.76327 -3.90649 0
M  V30 10395 H 1012.39 -2.7115 -4.15682 0
M  V30 10396 H 1007.64 -4.06352 -4.56824 0
M  V30 10397 H 1011.82 -5.015 -4.83188 0
M  V30 10398 H 1009.45 -5.69612 -5.03435 0
M  V30 10399 N 1011.02 1.44971 -0.618145 0
M  V30 10400 C 1012.3 1.95539 -0.0489895 0
M  V30 10401 C 1012.68 1.5604 1.42179 0
M  V30 10402 O 1012.03 0.82809 2.12967 0
M  V30 10403 C 1012.24 3.48044 -0.258193 0
M  V30 10404 C 1013.58 4.24354 -0.144541 0
M  V30 10405 O 1014.61 3.55699 -0.18887 0
M  V30 10406 O 1013.47 5.46486 -0.038519 0
M  V30 10407 H 1010.56 0.826466 0.0297256 0
M  V30 10408 H 1013.11 1.55086 -0.688944 0
M  V30 10409 H 1011.88 3.69798 -1.27926 0
M  V30 10410 H 1011.5 3.95412 0.416522 0
M  V30 10411 N 1012.5 0.357919 1.53482 0
M  V30 10412 C 1013.43 -0.535553 2.21827 0
M  V30 10413 C 1014.41 -1.08904 1.20742 0
M  V30 10414 O 1015.59 -1.14661 1.49616 0
M  V30 10415 C 1012.72 -1.73817 2.90698 0
M  V30 10416 C 1011.77 -1.31283 4.05792 0
M  V30 10417 S 1012.6 -0.320548 5.3454 0
M  V30 10418 C 1013.76 -1.52967 6.0692 0
M  V30 10419 H 1013.99 0.0449045 2.97266 0
M  V30 10420 H 1011.52 0.142009 1.53746 0
M  V30 10421 H 1013.48 -2.42803 3.30994 0
M  V30 10422 H 1012.14 -2.28987 2.14998 0
M  V30 10423 H 1011.33 -2.20989 4.52968 0
M  V30 10424 H 1010.94 -0.702275 3.67347 0
M  V30 10425 H 1013.23 -2.46191 6.31186 0
M  V30 10426 H 1014.17 -1.09943 6.99513 0
M  V30 10427 H 1014.58 -1.73224 5.37265 0
M  V30 10428 N 1013.98 -1.5736 0.0868897 0
M  V30 10429 C 1014.89 -2.17087 -0.889402 0
M  V30 10430 C 1015.9 -1.13809 -1.31619 0
M  V30 10431 O 1017.08 -1.46143 -1.38579 0
M  V30 10432 C 1014.14 -2.73286 -2.13344 0
M  V30 10433 C 1013.2 -3.91491 -1.76164 0
M  V30 10434 C 1012.44 -4.45 -2.94637 0
M  V30 10435 O 1012.66 -3.97467 -4.09116 0
M  V30 10436 O 1011.59 -5.36133 -2.73579 0
M  V30 10437 H 1015.42 -3.00902 -0.411275 0
M  V30 10438 H 1013.01 -1.4877 -0.137015 0
M  V30 10439 H 1014.89 -3.0924 -2.86266 0
M  V30 10440 H 1013.56 -1.92521 -2.60225 0
M  V30 10441 H 1012.47 -3.60363 -1.00447 0
M  V30 10442 H 1013.8 -4.73593 -1.34053 0
M  V30 10443 N 1015.45 0.186762 -1.56489 0
M  V30 10444 C 1016.7 0.904077 -1.80303 0
M  V30 10445 C 1017.02 1.84073 -0.661538 0
M  V30 10446 O 1018.22 2.59928 -0.784197 0
M  V30 10447 C 1016.68 1.65806 -3.19432 0
M  V30 10448 C 1016.29 0.765807 -4.41406 0
M  V30 10449 C 1018.03 2.36451 -3.52549 0
M  V30 10450 C 1015.94 1.51913 -5.71556 0
M  V30 10451 H 1014.87 0.34133 -0.672317 0
M  V30 10452 H 1017.52 0.157218 -1.82825 0
M  V30 10453 H 1015.9 2.44911 -3.11183 0
M  V30 10454 H 1017.07 0.0128225 -4.60798 0
M  V30 10455 H 1015.39 0.169772 -4.16054 0
M  V30 10456 H 1017.99 2.93378 -4.47027 0
M  V30 10457 H 1018.33 3.11044 -2.7669 0
M  V30 10458 H 1018.86 1.64305 -3.62283 0
M  V30 10459 H 1015.6 0.815829 -6.50403 0
M  V30 10460 H 1015.12 2.24583 -5.56168 0
M  V30 10461 H 1016.8 2.07073 -6.12968 0
M  V30 10462 N 1016.93 1.50896 0.454776 0
M  V30 10463 C 1018.16 1.6648 1.22849 0
M  V30 10464 C 1018.58 0.354841 1.85435 0
M  V30 10465 O 1017.93 -0.664931 1.69956 0
M  V30 10466 C 1017.98 2.76787 2.32532 0
M  V30 10467 O 1017.7 4.02706 1.72509 0
M  V30 10468 C 1019.21 3.03488 3.23125 0
M  V30 10469 H 1016.43 0.559152 0.370932 0
M  V30 10470 H 1018.97 1.97215 0.540983 0
M  V30 10471 H 1017.12 2.48701 2.9703 0
M  V30 10472 H 1017.54 4.63834 2.44863 0
M  V30 10473 H 1019.01 3.84294 3.9626 0
M  V30 10474 H 1019.49 2.152 3.82865 0
M  V30 10475 H 1020.1 3.33167 2.64347 0
M  V30 10476 N 1018.41 -0.709066 1.40748 0
M  V30 10477 C 1019.66 -1.47119 1.39585 0
M  V30 10478 C 1019.99 -1.942 0.000245323 0
M  V30 10479 O 1019.26 -1.68609 -0.969593 0
M  V30 10480 C 1019.55 -2.69266 2.39099 0
M  V30 10481 C 1019.4 -2.28037 3.8771 0
M  V30 10482 C 1020.72 -3.71438 2.36055 0
M  V30 10483 H 1017.84 -0.533632 0.508336 0
M  V30 10484 H 1020.48 -0.808718 1.7193 0
M  V30 10485 H 1018.63 -3.25788 2.11647 0
M  V30 10486 H 1020.3 -1.76946 4.26014 0
M  V30 10487 H 1018.55 -1.59966 4.03229 0
M  V30 10488 H 1019.22 -3.15621 4.52866 0
M  V30 10489 H 1021.69 -3.24559 2.60385 0
M  V30 10490 H 1020.57 -4.54532 3.07721 0
M  V30 10491 H 1020.83 -4.20193 1.37443 0
M  V30 10492 N 1019.89 -1.26353 -0.941956 0
M  V30 10493 C 1021.14 -1.12017 -1.69056 0
M  V30 10494 C 1021.47 0.335856 -1.91274 0
M  V30 10495 O 1020.74 1.24677 -1.49285 0
M  V30 10496 C 1021.03 -1.88889 -3.06583 0
M  V30 10497 C 1020.88 -3.42394 -2.91696 0
M  V30 10498 C 1022.2 -1.68209 -4.06686 0
M  V30 10499 H 1019.32 -0.408311 -0.613556 0
M  V30 10500 H 1021.96 -1.55339 -1.09407 0
M  V30 10501 H 1020.11 -1.5207 -3.57501 0
M  V30 10502 H 1021.78 -3.88962 -2.48005 0
M  V30 10503 H 1020.02 -3.69459 -2.27338 0
M  V30 10504 H 1020.7 -3.91408 -3.89235 0
M  V30 10505 H 1023.17 -2.00286 -3.64726 0
M  V30 10506 H 1022.05 -2.24412 -5.00929 0
M  V30 10507 H 1022.31 -0.626474 -4.37639 0
M  V30 10508 N 1021.37 1.14642 -1.08144 0
M  V30 10509 C 1022.62 1.84964 -0.804437 0
M  V30 10510 C 1022.93 1.8369 0.672106 0
M  V30 10511 O 1024.14 2.49775 1.06417 0
M  V30 10512 C 1022.59 3.32015 -1.38904 0
M  V30 10513 C 1022.2 3.41713 -2.89718 0
M  V30 10514 C 1023.94 4.07467 -1.19041 0
M  V30 10515 C 1021.85 4.82958 -3.41329 0
M  V30 10516 H 1020.78 0.692932 -0.297256 0
M  V30 10517 H 1023.43 1.29255 -1.30251 0
M  V30 10518 H 1021.81 3.87445 -0.818679 0
M  V30 10519 H 1022.99 2.96347 -3.52867 0
M  V30 10520 H 1021.3 2.79713 -3.08463 0
M  V30 10521 H 1023.9 5.1172 -1.55069 0
M  V30 10522 H 1024.24 4.16097 -0.130027 0
M  V30 10523 H 1024.78 3.58329 -1.72757 0
M  V30 10524 H 1021.51 4.79515 -4.46929 0
M  V30 10525 H 1021.03 5.28873 -2.82937 0
M  V30 10526 H 1022.71 5.51841 -3.37759 0
M  V30 10527 N 1022.85 0.866709 1.31628 0
M  V30 10528 C 1024.07 0.49039 2.01004 0
M  V30 10529 C 1024.49 -0.916244 1.65077 0
M  V30 10530 O 1023.85 -1.59975 0.8783 0
M  V30 10531 C 1023.9 0.634011 3.55897 0
M  V30 10532 O 1023.62 1.98525 3.90537 0
M  V30 10533 C 1025.12 0.258277 4.42547 0
M  V30 10534 H 1022.34 0.191421 0.643117 0
M  V30 10535 H 1024.88 1.16698 1.67934 0
M  V30 10536 H 1023.04 0.00501801 3.874 0
M  V30 10537 H 1023.45 1.99067 4.85255 0
M  V30 10538 H 1024.93 0.409733 5.50477 0
M  V30 10539 H 1025.4 -0.802301 4.3181 0
M  V30 10540 H 1026.01 0.862837 4.16456 0
M  V30 10541 N 1024.32 -1.44642 0.625825 0
M  V30 10542 C 1025.55 -2.06971 0.133373 0
M  V30 10543 C 1025.97 -1.46421 -1.18078 0
M  V30 10544 O 1025.33 -0.563676 -1.72315 0
M  V30 10545 C 1025.38 -3.6059 0.0265097 0
M  V30 10546 O 1024.48 -3.99615 -1.01889 0
M  V30 10547 H 1023.82 -0.658873 0.0823568 0
M  V30 10548 H 1026.35 -1.85601 0.861002 0
M  V30 10549 H 1026.36 -4.07663 -0.1658 0
M  V30 10550 H 1025.04 -4.04043 0.985986 0
M  V30 10551 H 1023.62 -3.64183 -0.801577 0
M  V30 10552 N 1025.8 -0.366053 -1.5329 0
M  V30 10553 C 1027.03 0.226839 -2.06156 0
M  V30 10554 C 1027.45 1.41637 -1.23776 0
M  V30 10555 O 1026.81 1.7947 -0.256948 0
M  V30 10556 C 1026.86 0.597956 -3.55608 0
M  V30 10557 O 1025.96 1.69512 -3.75951 0
M  V30 10558 H 1025.3 0.0329156 -0.663184 0
M  V30 10559 H 1027.83 -0.526793 -1.97702 0
M  V30 10560 H 1027.84 0.868831 -3.98642 0
M  V30 10561 H 1026.52 -0.271838 -4.15011 0
M  V30 10562 H 1025.09 1.41976 -3.44815 0
M  V30 10563 N 1027.28 1.57312 -0.0952337 0
M  V30 10564 C 1028.21 2.11059 0.893678 0
M  V30 10565 C 1029.22 1.04787 1.24594 0
M  V30 10566 O 1030.41 1.32233 1.19903 0
M  V30 10567 C 1027.51 2.57552 2.20272 0
M  V30 10568 C 1026.69 3.87661 2.02578 0
M  V30 10569 C 1025.75 4.2 3.16996 0
M  V30 10570 O 1024.77 4.89219 2.90953 0
M  V30 10571 N 1025.97 3.75414 4.42769 0
M  V30 10572 H 1028.74 2.96532 0.434632 0
M  V30 10573 H 1026.3 1.6165 0.0898661 0
M  V30 10574 H 1028.29 2.76232 2.95766 0
M  V30 10575 H 1026.86 1.7709 2.576 0
M  V30 10576 H 1026.08 3.78128 1.11413 0
M  V30 10577 H 1027.37 4.7278 1.88032 0
M  V30 10578 H 1026.77 3.1954 4.66809 0
M  V30 10579 H 1025.32 3.99249 5.15212 0
M  V30 10580 N 1028.76 -0.17846 1.56586 0
M  V30 10581 C 1030.03 -0.923096 1.72448 0
M  V30 10582 C 1030.41 -2.00692 0.654659 0
M  V30 10583 O 1029.76 -2.26079 -0.33171 0
M  V30 10584 C 1029.97 -1.49435 3.15389 0
M  V30 10585 C 1031.32 -1.97005 3.76131 0
M  V30 10586 O 1032.34 -1.59244 3.18622 0
M  V30 10587 O 1031.2 -2.66541 4.77094 0
M  V30 10588 H 1028.3 -0.434009 0.703964 0
M  V30 10589 H 1030.84 -0.16685 1.68878 0
M  V30 10590 H 1029.62 -0.713933 3.84732 0
M  V30 10591 H 1029.24 -2.31498 3.23256 0
M  V30 10592 N 1030.24 -1.51135 -0.446768 0
M  V30 10593 C 1031.17 -1.67949 -1.55967 0
M  V30 10594 C 1032.18 -0.560337 -1.52853 0
M  V30 10595 O 1033.37 -0.83435 -1.578 0
M  V30 10596 C 1030.47 -1.6703 -2.9488 0
M  V30 10597 C 1029.64 -2.95377 -3.22601 0
M  V30 10598 C 1028.7 -2.86772 -4.4119 0
M  V30 10599 O 1027.73 -3.60722 -4.40304 0
M  V30 10600 N 1028.93 -2.01979 -5.44228 0
M  V30 10601 H 1031.69 -2.63951 -1.41951 0
M  V30 10602 H 1029.26 -1.48903 -0.635569 0
M  V30 10603 H 1031.25 -1.58854 -3.7222 0
M  V30 10604 H 1029.82 -0.786623 -3.02541 0
M  V30 10605 H 1029.04 -3.17494 -2.33647 0
M  V30 10606 H 1030.33 -3.80356 -3.37945 0
M  V30 10607 H 1029.72 -1.41257 -5.4778 0
M  V30 10608 H 1028.28 -1.99689 -6.20457 0
M  V30 10609 N 1031.71 0.701592 -1.41122 0
M  V30 10610 C 1032.94 1.49553 -1.43696 0
M  V30 10611 C 1033.36 1.88053 -0.0421865 0
M  V30 10612 O 1032.72 1.54223 0.953144 0
M  V30 10613 C 1032.77 2.73834 -2.34622 0
M  V30 10614 O 1031.87 3.71088 -1.7991 0
M  V30 10615 H 1031.21 0.450352 -0.487933 0
M  V30 10616 H 1033.74 0.862886 -1.85514 0
M  V30 10617 H 1033.75 3.22209 -2.5029 0
M  V30 10618 H 1032.43 2.45149 -3.35969 0
M  V30 10619 H 1031.01 3.29994 -1.73661 0
M  V30 10620 N 1033.19 1.2685 0.935242 0
M  V30 10621 C 1034.42 1.15538 1.71635 0
M  V30 10622 C 1034.83 -0.288698 1.8658 0
M  V30 10623 O 1034.19 -1.19721 1.37743 0
M  V30 10624 C 1034.24 1.8259 3.11999 0
M  V30 10625 O 1033.96 3.21355 2.97763 0
M  V30 10626 C 1035.46 1.77307 4.06297 0
M  V30 10627 H 1032.68 0.402055 0.537208 0
M  V30 10628 H 1035.23 1.67582 1.17203 0
M  V30 10629 H 1033.38 1.3447 3.63313 0
M  V30 10630 H 1033.8 3.54626 3.86446 0
M  V30 10631 H 1035.27 2.28851 5.02326 0
M  V30 10632 H 1035.75 0.740823 4.32907 0
M  V30 10633 H 1036.35 2.25007 3.60904 0
M  V30 10634 N 1034.67 -1.14067 1.0875 0
M  V30 10635 C 1035.9 -1.89582 0.841038 0
M  V30 10636 C 1036.32 -1.78226 -0.601436 0
M  V30 10637 O 1035.68 -1.12491 -1.42181 0
M  V30 10638 C 1035.73 -3.37415 1.27213 0
M  V30 10639 O 1034.83 -4.10191 0.426246 0
M  V30 10640 H 1034.17 -0.589716 0.305173 0
M  V30 10641 H 1036.7 -1.44364 1.44984 0
M  V30 10642 H 1036.71 -3.88234 1.25451 0
M  V30 10643 H 1035.39 -3.44999 2.32268 0
M  V30 10644 H 1033.96 -3.69429 0.507585 0
M  V30 10645 N 1036.15 -0.873678 -1.31166 0
M  V30 10646 C 1037.08 -0.289389 -2.27366 0
M  V30 10647 C 1038.09 0.549667 -1.5324 0
M  V30 10648 O 1039.28 0.371056 -1.74601 0
M  V30 10649 C 1036.38 0.60807 -3.334 0
M  V30 10650 C 1035.56 -0.199379 -4.36945 0
M  V30 10651 C 1034.61 0.626798 -5.22454 0
M  V30 10652 O 1033.64 0.0535121 -5.69175 0
M  V30 10653 N 1034.84 1.93809 -5.47191 0
M  V30 10654 H 1037.61 -1.1161 -2.78143 0
M  V30 10655 H 1035.17 -0.735529 -1.44228 0
M  V30 10656 H 1037.16 1.16656 -3.87522 0
M  V30 10657 H 1035.73 1.33545 -2.82638 0
M  V30 10658 H 1034.95 -0.939316 -3.82845 0
M  V30 10659 H 1036.24 -0.75329 -5.03193 0
M  V30 10660 H 1035.64 2.42693 -5.10995 0
M  V30 10661 H 1034.19 2.44428 -6.04234 0
M  V30 10662 N 1037.63 1.44308 -0.633487 0
M  V30 10663 C 1038.57 2.32455 0.0821956 0
M  V30 10664 C 1039.57 1.47482 0.833388 0
M  V30 10665 O 1040.77 1.63812 0.746021 0
M  V30 10666 H 1037.15 0.750631 0.045352 0
M  V30 10667 H 1039.12 2.90566 -0.679282 0
M  V30 10668 C 1037.87 3.31512 1.04858 0
M  V30 10669 H 1037.19 3.96908 0.479979 0
M  V30 10670 H 1038.63 3.95865 1.51879 0
M  V30 10671 C 1037.09 2.60615 2.13498 0
M  V30 10672 O 1037.62 2.40682 3.21613 0
M  V30 10673 N 1035.83 2.20315 1.89499 0
M  V30 10674 H 1035.37 2.36726 1.01581 0
M  V30 10675 H 1035.33 1.73205 2.62388 0
M  V30 10676 N 1039.1 0.374177 1.53094 0
M  V30 10677 C 1040.04 -0.503065 2.23611 0
M  V30 10678 C 1041.05 -1.03915 1.25321 0
M  V30 10679 O 1042.24 -0.944064 1.51492 0
M  V30 10680 C 1039.34 -1.70825 2.92698 0
M  V30 10681 C 1038.51 -1.30217 4.17567 0
M  V30 10682 C 1037.57 -2.37036 4.69788 0
M  V30 10683 O 1036.6 -1.99069 5.33254 0
M  V30 10684 N 1037.8 -3.68743 4.4834 0
M  V30 10685 H 1040.56 0.101013 2.9953 0
M  V30 10686 H 1038.12 0.199778 1.60663 0
M  V30 10687 H 1040.12 -2.41779 3.24538 0
M  V30 10688 H 1038.69 -2.219 2.2018 0
M  V30 10689 H 1037.91 -0.422121 3.91933 0
M  V30 10690 H 1039.19 -1.00728 4.9873 0
M  V30 10691 H 1038.59 -4.0236 3.97647 0
M  V30 10692 H 1037.15 -4.35776 4.84709 0
M  V30 10693 N 1040.58 -1.57259 0.103575 0
M  V30 10694 C 1041.53 -2.15727 -0.869739 0
M  V30 10695 C 1042.52 -1.10236 -1.28625 0
M  V30 10696 O 1043.73 -1.28567 -1.25979 0
M  V30 10697 H 1040.11 -0.690204 -0.298535 0
M  V30 10698 H 1042.08 -2.96317 -0.351984 0
M  V30 10699 C 1040.83 -2.75905 -2.11593 0
M  V30 10700 H 1040.15 -3.56768 -1.80434 0
M  V30 10701 H 1041.59 -3.20373 -2.77736 0
M  V30 10702 C 1040.05 -1.72218 -2.89556 0
M  V30 10703 O 1040.58 -1.16623 -3.84398 0
M  V30 10704 N 1038.78 -1.42514 -2.53255 0
M  V30 10705 H 1038.33 -1.87914 -1.76198 0
M  V30 10706 H 1038.29 -0.733782 -3.05717 0
M  V30 10707 N 1042.06 0.170153 -1.56679 0
M  V30 10708 C 1043.02 1.19443 -1.95617 0
M  V30 10709 C 1044.02 1.37118 -0.83996 0
M  V30 10710 O 1045.21 1.34504 -1.10699 0
M  V30 10711 C 1042.35 2.55926 -2.25199 0
M  V30 10712 H 1043.54 0.86095 -2.87276 0
M  V30 10713 H 1041.09 0.412646 -1.50755 0
M  V30 10714 H 1041.83 2.94286 -1.36257 0
M  V30 10715 H 1041.61 2.44464 -3.06562 0
M  V30 10716 H 1043.1 3.29742 -2.56242 0
M  V30 10717 N 1043.54 1.5137 0.438746 0
M  V30 10718 C 1044.95 1.56462 1.01866 0
M  V30 10719 C 1045.3 0.387244 1.9234 0
M  V30 10720 O 1044.43 -0.496131 2.10636 0
M  V30 10721 C 1045.02 2.83557 1.85421 0
M  V30 10722 C 1043.58 2.91224 2.38464 0
M  V30 10723 C 1042.73 2.51109 1.17641 0
M  V30 10724 H 1045.68 1.57167 0.220072 0
M  V30 10725 H 1045.7 2.6724 2.70857 0
M  V30 10726 H 1045.21 3.69229 1.19546 0
M  V30 10727 H 1043.31 2.09979 3.07798 0
M  V30 10728 H 1043.42 3.94844 2.71358 0
M  V30 10729 H 1041.79 2.04276 1.5213 0
M  V30 10730 H 1042.57 3.39125 0.533785 0
M  V30 10731 N 1045.02 -0.694098 1.41492 0
M  V30 10732 C 1046.26 -1.4563 1.41137 0
M  V30 10733 C 1046.6 -1.94189 0.0208428 0
M  V30 10734 O 1045.87 -1.69628 -0.951655 0
M  V30 10735 C 1046.15 -2.66714 2.41941 0
M  V30 10736 C 1046.01 -2.23912 3.90107 0
M  V30 10737 C 1047.33 -3.68913 2.39981 0
M  V30 10738 H 1044.44 -0.52821 0.513968 0
M  V30 10739 H 1047.09 -0.790437 1.72778 0
M  V30 10740 H 1045.24 -3.23525 2.1509 0
M  V30 10741 H 1046.91 -1.72417 4.27867 0
M  V30 10742 H 1045.15 -1.5568 4.04903 0
M  V30 10743 H 1045.82 -3.108 4.56188 0
M  V30 10744 H 1048.3 -3.21779 2.63813 0
M  V30 10745 H 1047.17 -4.51242 3.12524 0
M  V30 10746 H 1047.44 -4.18711 1.41892 0
M  V30 10747 N 1046.49 -1.27344 -0.928501 0
M  V30 10748 C 1047.42 -1.12517 -2.04602 0
M  V30 10749 C 1048.41 -0.0268563 -1.70079 0
M  V30 10750 O 1049.59 -0.201197 -1.93155 0
M  V30 10751 C 1046.72 -0.770749 -3.3864 0
M  V30 10752 C 1045.67 -1.8222 -3.87272 0
M  V30 10753 C 1045 -1.32178 -5.18105 0
M  V30 10754 C 1046.3 -3.22614 -4.10752 0
M  V30 10755 H 1047.99 -2.06 -2.17265 0
M  V30 10756 H 1045.54 -0.991827 -1.04397 0
M  V30 10757 H 1047.49 -0.653843 -4.16297 0
M  V30 10758 H 1046.22 0.19979 -3.25988 0
M  V30 10759 H 1044.88 -1.928 -3.11807 0
M  V30 10760 H 1044.52 -0.340719 -5.01845 0
M  V30 10761 H 1044.22 -2.02474 -5.51614 0
M  V30 10762 H 1045.75 -1.2178 -5.98333 0
M  V30 10763 H 1047.16 -3.1504 -4.78981 0
M  V30 10764 H 1045.56 -3.90614 -4.55566 0
M  V30 10765 H 1046.63 -3.67727 -3.16077 0
M  V30 10766 N 1047.97 1.13488 -1.09353 0
M  V30 10767 C 1049.2 1.88592 -0.850915 0
M  V30 10768 C 1049.62 1.79087 0.597761 0
M  V30 10769 O 1048.97 1.15695 1.41142 0
M  V30 10770 C 1049.02 3.38219 -1.27633 0
M  V30 10771 O 1048.74 3.47476 -2.66819 0
M  V30 10772 C 1050.25 4.30293 -1.06598 0
M  V30 10773 H 1047.47 0.597069 -0.306185 0
M  V30 10774 H 1050.01 1.43668 -1.45533 0
M  V30 10775 H 1048.16 3.80729 -0.715828 0
M  V30 10776 H 1048.58 4.40485 -2.84733 0
M  V30 10777 H 1050.05 5.33611 -1.41293 0
M  V30 10778 H 1050.53 4.392 -0.0037135 0
M  V30 10779 H 1051.14 3.9355 -1.6124 0
M  V30 10780 N 1049.45 0.880621 1.30701 0
M  V30 10781 C 1050.4 0.315679 2.25804 0
M  V30 10782 C 1051.39 -0.553382 1.51084 0
M  V30 10783 O 1052.58 -0.398518 1.72455 0
M  V30 10784 C 1049.71 -0.472586 3.40032 0
M  V30 10785 C 1048.79 0.410318 4.2211 0
M  V30 10786 N 1049.18 1.50876 4.82773 0
M  V30 10787 C 1047.48 0.20465 4.4553 0
M  V30 10788 C 1048.18 2.05409 5.44226 0
M  V30 10789 N 1047.16 1.34964 5.26579 0
M  V30 10790 H 1050.96 1.15505 2.70251 0
M  V30 10791 H 1048.47 0.729547 1.45091 0
M  V30 10792 H 1050.47 -0.893918 4.07204 0
M  V30 10793 H 1049.13 -1.30945 2.97125 0
M  V30 10794 H 1050.14 1.89163 4.82118 0
M  V30 10795 H 1046.82 -0.595398 4.13233 0
M  V30 10796 H 1048.21 2.97627 6.02385 0
M  V30 10797 N 1050.93 -1.4397 0.641131 0
M  V30 10798 C 1051.86 -2.28997 -0.0963315 0
M  V30 10799 C 1052.87 -1.4184 -0.799071 0
M  V30 10800 O 1054.06 -1.65896 -0.658846 0
M  V30 10801 C 1051.16 -3.18465 -1.15903 0
M  V30 10802 C 1050.34 -4.34093 -0.536828 0
M  V30 10803 C 1049.4 -5.04522 -1.4948 0
M  V30 10804 O 1048.42 -5.60202 -1.00807 0
M  V30 10805 N 1049.62 -5.06899 -2.82901 0
M  V30 10806 H 1052.39 -2.9293 0.633422 0
M  V30 10807 H 1049.95 -1.54527 0.48302 0
M  V30 10808 H 1051.94 -3.62445 -1.80044 0
M  V30 10809 H 1050.51 -2.56214 -1.79089 0
M  V30 10810 H 1049.73 -3.9318 0.283414 0
M  V30 10811 H 1051.02 -5.08698 -0.101966 0
M  V30 10812 H 1050.42 -4.63012 -3.25017 0
M  V30 10813 H 1048.97 -5.54637 -3.42376 0
M  V30 10814 N 1052.41 -0.382291 -1.52893 0
M  V30 10815 C 1053.66 0.203342 -2.00672 0
M  V30 10816 C 1053.97 1.48487 -1.27322 0
M  V30 10817 O 1055.18 2.15013 -1.65776 0
M  V30 10818 C 1053.63 0.412922 -3.57523 0
M  V30 10819 C 1053.24 -0.854949 -4.39767 0
M  V30 10820 C 1054.98 0.955301 -4.13611 0
M  V30 10821 C 1052.89 -0.614033 -5.88204 0
M  V30 10822 H 1051.82 0.0797635 -0.749769 0
M  V30 10823 H 1054.47 -0.50361 -1.76454 0
M  V30 10824 H 1052.85 1.18155 -3.77962 0
M  V30 10825 H 1054.03 -1.62765 -4.31096 0
M  V30 10826 H 1052.34 -1.32176 -3.94865 0
M  V30 10827 H 1054.94 1.15114 -5.22162 0
M  V30 10828 H 1055.28 1.92233 -3.69259 0
M  V30 10829 H 1055.82 0.24642 -3.97036 0
M  V30 10830 H 1052.55 -1.55187 -6.36865 0
M  V30 10831 H 1052.07 0.119865 -5.9968 0
M  V30 10832 H 1053.75 -0.245895 -6.46533 0
M  V30 10833 N 1053.89 1.57202 -0.111913 0
M  V30 10834 C 1054.82 2.10634 0.877983 0
M  V30 10835 C 1055.8 1.02098 1.26549 0
M  V30 10836 O 1056.98 1.29707 1.36779 0
M  V30 10837 C 1054.11 2.59721 2.174 0
M  V30 10838 C 1053.15 3.80074 1.93509 0
M  V30 10839 S 1053.99 5.22834 1.1578 0
M  V30 10840 C 1055.14 5.75284 2.46576 0
M  V30 10841 H 1055.38 2.94268 0.423483 0
M  V30 10842 H 1052.91 1.54065 0.101721 0
M  V30 10843 H 1054.87 2.88657 2.91868 0
M  V30 10844 H 1053.53 1.76281 2.59969 0
M  V30 10845 H 1052.72 4.12545 2.89522 0
M  V30 10846 H 1052.32 3.51718 1.27164 0
M  V30 10847 H 1054.61 5.84576 3.42457 0
M  V30 10848 H 1055.56 6.73493 2.1866 0
M  V30 10849 H 1055.97 5.03308 2.55619 0
M  V30 10850 N 1055.36 -0.161842 1.56767 0
M  V30 10851 C 1056.59 -0.890953 1.86402 0
M  V30 10852 C 1057 -1.75918 0.696373 0
M  V30 10853 O 1056.34 -1.80461 -0.343463 0
M  V30 10854 C 1056.41 -1.81079 3.10565 0
M  V30 10855 C 1056.07 -1.12121 4.43032 0
M  V30 10856 C 1057.07 -0.482152 5.17659 0
M  V30 10857 C 1054.75 -1.11514 4.89765 0
M  V30 10858 C 1056.75 0.153772 6.37214 0
M  V30 10859 C 1054.43 -0.4754 6.09248 0
M  V30 10860 C 1055.43 0.157944 6.82817 0
M  V30 10861 O 1055.12 0.787579 8.00033 0
M  V30 10862 H 1054.85 -0.26379 0.622407 0
M  V30 10863 H 1057.41 -0.163884 2.04745 0
M  V30 10864 H 1055.64 -2.57842 2.88192 0
M  V30 10865 H 1057.32 -2.41056 3.26568 0
M  V30 10866 H 1058.09 -0.478752 4.82631 0
M  V30 10867 H 1053.97 -1.59752 4.32435 0
M  V30 10868 H 1057.51 0.648716 6.94577 0
M  V30 10869 H 1053.41 -0.476416 6.43739 0
M  V30 10870 H 1054.18 0.687769 8.15605 0
M  V30 10871 N 1056.84 -1.516 -0.430713 0
M  V30 10872 C 1058.09 -1.6484 -1.18134 0
M  V30 10873 C 1058.42 -0.366725 -1.90706 0
M  V30 10874 O 1057.7 0.63398 -1.83878 0
M  V30 10875 C 1057.98 -2.85617 -2.19306 0
M  V30 10876 C 1057.83 -4.23778 -1.50773 0
M  V30 10877 C 1059.15 -3.01909 -3.20217 0
M  V30 10878 H 1056.27 -0.599907 -0.428113 0
M  V30 10879 H 1058.91 -1.84102 -0.46973 0
M  V30 10880 H 1057.06 -2.69325 -2.79993 0
M  V30 10881 H 1058.73 -4.51752 -0.93371 0
M  V30 10882 H 1056.98 -4.26171 -0.809966 0
M  V30 10883 H 1057.65 -5.04291 -2.24487 0
M  V30 10884 H 1060.12 -3.16956 -2.69589 0
M  V30 10885 H 1059 -3.87968 -3.88293 0
M  V30 10886 H 1059.26 -2.1427 -3.86705 0
M  V30 10887 N 1058.32 0.686584 -1.41858 0
M  V30 10888 C 1059.73 1.26682 -1.37145 0
M  V30 10889 C 1060.08 1.96112 -0.058922 0
M  V30 10890 O 1059.21 1.99321 0.842629 0
M  V30 10891 C 1059.8 2.30383 -2.48413 0
M  V30 10892 C 1058.36 2.83961 -2.47069 0
M  V30 10893 C 1057.51 1.58119 -2.27802 0
M  V30 10894 H 1060.46 0.480742 -1.51243 0
M  V30 10895 H 1060.48 3.11868 -2.17987 0
M  V30 10896 H 1059.99 1.79822 -3.43927 0
M  V30 10897 H 1058.09 3.38675 -1.55338 0
M  V30 10898 H 1058.21 3.3378 -3.43697 0
M  V30 10899 H 1056.57 1.84258 -1.75844 0
M  V30 10900 H 1057.35 1.09541 -3.25355 0
M  V30 10901 N 1059.8 1.27835 0.921735 0
M  V30 10902 C 1061.21 1.13151 1.48505 0
M  V30 10903 C 1061.56 -0.281373 1.94172 0
M  V30 10904 O 1060.68 -1.17487 1.8173 0
M  V30 10905 C 1061.28 2.04792 2.69899 0
M  V30 10906 C 1059.84 1.94196 3.22436 0
M  V30 10907 C 1058.99 1.96999 1.95158 0
M  V30 10908 H 1061.94 1.40641 0.735241 0
M  V30 10909 H 1061.96 1.60724 3.44889 0
M  V30 10910 H 1061.47 3.07615 2.36631 0
M  V30 10911 H 1059.57 0.943805 3.60448 0
M  V30 10912 H 1059.68 2.80744 3.88226 0
M  V30 10913 H 1058.05 1.41301 2.11911 0
M  V30 10914 H 1058.83 3.01487 1.64196 0
M  V30 10915 N 1061.28 -1.12907 1.09954 0
M  V30 10916 C 1062.52 -1.83941 0.837255 0
M  V30 10917 C 1062.84 -1.84234 -0.638984 0
M  V30 10918 O 1062.11 -1.30193 -1.46378 0
M  V30 10919 H 1060.69 -0.681115 0.306743 0
M  V30 10920 H 1063.36 -1.36743 1.38879 0
M  V30 10921 H 1062.45 -2.88289 1.19565 0
M  V30 10922 N 1062.75 -0.88754 -1.30232 0
M  V30 10923 C 1064 -0.506277 -1.95656 0
M  V30 10924 C 1064.32 0.948191 -1.70395 0
M  V30 10925 O 1063.59 1.66701 -1.02895 0
M  V30 10926 H 1062.17 -0.184235 -0.723924 0
M  V30 10927 H 1064.83 -1.13118 -1.58715 0
M  V30 10928 H 1063.93 -0.678673 -3.04632 0
M  V30 10929 N 1064.23 1.43628 -0.648757 0
M  V30 10930 C 1065.64 1.85142 -0.24066 0
M  V30 10931 C 1065.99 1.54304 1.21181 0
M  V30 10932 O 1065.12 0.989792 1.92437 0
M  V30 10933 C 1065.71 3.3606 -0.429999 0
M  V30 10934 C 1064.27 3.76323 -0.0762588 0
M  V30 10935 C 1063.42 2.67382 -0.734999 0
M  V30 10936 H 1066.37 1.33844 -0.852734 0
M  V30 10937 H 1066.39 3.79102 0.325836 0
M  V30 10938 H 1065.9 3.58474 -1.48721 0
M  V30 10939 H 1064.01 3.59521 0.978529 0
M  V30 10940 H 1064.12 4.76498 -0.498612 0
M  V30 10941 H 1062.48 2.54141 -0.168644 0
M  V30 10942 H 1063.27 2.92625 -1.79515 0
M  V30 10943 N 1065.71 0.390394 1.52688 0
M  V30 10944 C 1066.96 -0.192697 2.00777 0
M  V30 10945 C 1067.27 -1.4781 1.28108 0
M  V30 10946 O 1068.48 -2.1413 1.66914 0
M  V30 10947 C 1066.93 -0.393955 3.57737 0
M  V30 10948 C 1066.54 0.878259 4.39307 0
M  V30 10949 C 1068.29 -0.933352 4.14112 0
M  V30 10950 C 1066.19 0.645218 5.8787 0
M  V30 10951 H 1065.12 -0.0757862 0.750182 0
M  V30 10952 H 1067.77 0.512961 1.76184 0
M  V30 10953 H 1066.16 -1.16149 3.78583 0
M  V30 10954 H 1067.33 1.65049 4.30227 0
M  V30 10955 H 1065.65 1.34269 3.94158 0
M  V30 10956 H 1068.24 -1.12343 5.22765 0
M  V30 10957 H 1068.59 -1.90272 3.70273 0
M  V30 10958 H 1069.12 -0.225361 3.97161 0
M  V30 10959 H 1065.86 1.58562 6.36033 0
M  V30 10960 H 1065.38 -0.0880609 5.99735 0
M  V30 10961 H 1067.06 0.280178 6.46393 0
M  V30 10962 N 1067.19 -1.57141 0.120249 0
M  V30 10963 C 1068.6 -1.82256 -0.404931 0
M  V30 10964 C 1068.95 -1.03748 -1.66526 0
M  V30 10965 O 1068.08 -0.274456 -2.14653 0
M  V30 10966 C 1068.67 -3.30588 -0.741431 0
M  V30 10967 C 1067.23 -3.56379 -1.21124 0
M  V30 10968 C 1066.38 -2.76421 -0.220569 0
M  V30 10969 H 1069.33 -1.54897 0.345361 0
M  V30 10970 H 1069.35 -3.45284 -1.59872 0
M  V30 10971 H 1068.86 -3.87701 0.176036 0
M  V30 10972 H 1066.96 -3.04625 -2.14556 0
M  V30 10973 H 1067.07 -4.64952 -1.1557 0
M  V30 10974 H 1065.44 -2.44666 -0.707857 0
M  V30 10975 H 1066.22 -3.36294 0.690018 0
M  V30 10976 N 1068.67 0.153526 -1.5685 0
M  V30 10977 C 1069.91 0.868517 -1.83261 0
M  V30 10978 C 1070.25 1.81112 -0.700857 0
M  V30 10979 O 1069.52 1.92235 0.295989 0
M  V30 10980 C 1069.8 1.6487 -3.2014 0
M  V30 10981 C 1069.66 0.728021 -4.43869 0
M  V30 10982 C 1070.98 2.61259 -3.54163 0
M  V30 10983 H 1068.09 0.314297 -0.666623 0
M  V30 10984 H 1070.74 0.133971 -1.89527 0
M  V30 10985 H 1068.89 2.2749 -3.1493 0
M  V30 10986 H 1070.56 0.113328 -4.61161 0
M  V30 10987 H 1068.8 0.0371744 -4.33784 0
M  V30 10988 H 1069.47 1.30981 -5.36235 0
M  V30 10989 H 1071.95 2.0876 -3.59942 0
M  V30 10990 H 1070.82 3.12902 -4.50981 0
M  V30 10991 H 1071.09 3.42307 -2.79782 0
M  V30 10992 N 1070.14 1.51827 0.422667 0
M  V30 10993 C 1071.37 1.69337 1.19748 0
M  V30 10994 C 1071.79 0.396312 1.83878 0
M  V30 10995 O 1071.15 -0.644976 1.6944 0
M  V30 10996 C 1071.2 2.82082 2.24637 0
M  V30 10997 O 1070.3 2.46708 3.30468 0
M  V30 10998 H 1069.65 0.564154 0.35018 0
M  V30 10999 H 1072.18 1.98465 0.497289 0
M  V30 11000 H 1072.19 3.06599 2.69186 0
M  V30 11001 H 1070.86 3.76195 1.77341 0
M  V30 11002 H 1069.44 2.32815 2.91293 0
M  V30 11003 N 1071.62 -0.679052 1.4222 0
M  V30 11004 C 1072.87 -1.44125 1.42674 0
M  V30 11005 C 1073.2 -1.94156 0.041438 0
M  V30 11006 O 1072.48 -1.70628 -0.93361 0
M  V30 11007 C 1072.76 -2.64133 2.44756 0
M  V30 11008 C 1072.61 -2.19761 3.9246 0
M  V30 11009 C 1073.93 -3.66347 2.43881 0
M  V30 11010 H 1071.05 -0.522729 0.519541 0
M  V30 11011 H 1073.69 -0.772067 1.73606 0
M  V30 11012 H 1071.84 -3.21225 2.1851 0
M  V30 11013 H 1073.51 -1.67869 4.29671 0
M  V30 11014 H 1071.76 -1.51377 4.06531 0
M  V30 11015 H 1072.43 -3.05944 4.59459 0
M  V30 11016 H 1074.9 -3.18963 2.67211 0
M  V30 11017 H 1073.78 -4.47902 3.17293 0
M  V30 11018 H 1074.04 -4.17183 1.46325 0
M  V30 11019 N 1073.1 -1.28322 -0.914942 0
M  V30 11020 C 1074.38 -1.06111 -1.64316 0
M  V30 11021 C 1074.76 0.399934 -2.07277 0
M  V30 11022 O 1074.11 1.38577 -1.81683 0
M  V30 11023 C 1074.32 -2.03461 -2.83557 0
M  V30 11024 C 1075.66 -2.33541 -3.54604 0
M  V30 11025 O 1076.69 -2.01536 -2.93704 0
M  V30 11026 O 1075.55 -2.88158 -4.64357 0
M  V30 11027 H 1072.64 -0.405451 -0.72079 0
M  V30 11028 H 1075.19 -1.39636 -0.964352 0
M  V30 11029 H 1073.96 -3.01938 -2.48896 0
M  V30 11030 H 1073.58 -1.70574 -3.59152 0
M  V30 11031 N 1074.58 1.12322 -1.10551 0
M  V30 11032 C 1075.86 1.80201 -0.760715 0
M  V30 11033 C 1076.24 1.97228 0.752628 0
M  V30 11034 O 1075.58 1.54958 1.67929 0
M  V30 11035 C 1075.79 3.14491 -1.51316 0
M  V30 11036 C 1077.14 3.89671 -1.68647 0
M  V30 11037 O 1078.17 3.24151 -1.47664 0
M  V30 11038 O 1077.02 5.0722 -2.03445 0
M  V30 11039 H 1074.12 0.780084 -0.274587 0
M  V30 11040 H 1076.66 1.19147 -1.20839 0
M  V30 11041 H 1075.44 2.97396 -2.54306 0
M  V30 11042 H 1075.06 3.83253 -1.05842 0
M  V30 11043 N 1076.06 0.894434 1.2976 0
M  V30 11044 C 1077.29 0.532143 1.99629 0
M  V30 11045 C 1077.69 -0.886234 1.6716 0
M  V30 11046 O 1077.04 -1.59573 0.910065 0
M  V30 11047 C 1077.1 0.638335 3.53787 0
M  V30 11048 C 1076.76 2.02273 4.09798 0
M  V30 11049 C 1077.76 2.99327 4.25087 0
M  V30 11050 C 1075.45 2.33069 4.44954 0
M  V30 11051 C 1077.44 4.25304 4.74758 0
M  V30 11052 C 1075.13 3.59289 4.94322 0
M  V30 11053 C 1076.12 4.55222 5.09178 0
M  V30 11054 O 1075.81 5.79202 5.57477 0
M  V30 11055 H 1075.54 0.203326 0.644697 0
M  V30 11056 H 1078.1 1.2043 1.6639 0
M  V30 11057 H 1076.33 -0.0908338 3.86593 0
M  V30 11058 H 1078.02 0.285956 4.04891 0
M  V30 11059 H 1078.78 2.76849 3.9822 0
M  V30 11060 H 1074.66 1.59162 4.32653 0
M  V30 11061 H 1078.21 5.00189 4.86269 0
M  V30 11062 H 1074.1 3.816 5.20626 0
M  V30 11063 H 1074.87 5.81717 5.75802 0
M  V30 11064 N 1077.53 -1.43282 0.656365 0
M  V30 11065 C 1078.76 -2.06641 0.177245 0
M  V30 11066 C 1079.18 -1.48893 -1.14946 0
M  V30 11067 O 1078.54 -0.600099 -1.7108 0
M  V30 11068 C 1078.59 -3.60453 0.10299 0
M  V30 11069 O 1077.69 -4.01687 -0.933895 0
M  V30 11070 H 1077.04 -0.656978 0.096314 0
M  V30 11071 H 1079.57 -1.83733 0.900178 0
M  V30 11072 H 1079.58 -4.07923 -0.079291 0
M  V30 11073 H 1078.25 -4.01861 1.07147 0
M  V30 11074 H 1076.83 -3.65801 -0.724148 0
M  V30 11075 N 1079.01 -0.398486 -1.52479 0
M  V30 11076 C 1080.26 0.17345 -2.02659 0
M  V30 11077 C 1080.61 1.43702 -1.27935 0
M  V30 11078 O 1079.91 1.87916 -0.37392 0
M  V30 11079 C 1080.1 0.485909 -3.54081 0
M  V30 11080 C 1079.93 -0.745833 -4.43472 0
M  V30 11081 C 1078.7 -1.26785 -4.89136 0
M  V30 11082 C 1080.9 -1.62085 -4.88091 0
M  V30 11083 N 1078.88 -2.45619 -5.62623 0
M  V30 11084 C 1080.25 -2.65552 -5.60252 0
M  V30 11085 C 1082.31 -1.63986 -4.7012 0
M  V30 11086 C 1081.01 -3.70818 -6.1635 0
M  V30 11087 C 1083.04 -2.68164 -5.27107 0
M  V30 11088 C 1082.4 -3.70353 -5.99181 0
M  V30 11089 H 1078.5 0.0253159 -0.78159 0
M  V30 11090 H 1081.08 -0.550442 -1.86757 0
M  V30 11091 H 1079.25 1.17885 -3.70078 0
M  V30 11092 H 1080.98 1.0458 -3.90954 0
M  V30 11093 H 1077.74 -0.827472 -4.66315 0
M  V30 11094 H 1078.16 -3.05771 -6.04014 0
M  V30 11095 H 1082.8 -0.863253 -4.13893 0
M  V30 11096 H 1080.52 -4.49341 -6.71653 0
M  V30 11097 H 1084.11 -2.7053 -5.15077 0
M  V30 11098 H 1082.99 -4.49642 -6.42489 0
M  V30 11099 N 1080.49 1.57075 -0.12858 0
M  V30 11100 C 1081.42 2.12907 0.848708 0
M  V30 11101 C 1082.44 1.07406 1.22343 0
M  V30 11102 O 1083.63 1.34746 1.17071 0
M  V30 11103 C 1080.73 2.62167 2.1476 0
M  V30 11104 C 1079.9 3.91871 1.94309 0
M  V30 11105 C 1078.96 4.26629 3.08016 0
M  V30 11106 O 1077.98 4.9528 2.80511 0
M  V30 11107 N 1079.19 3.84721 4.34706 0
M  V30 11108 H 1081.95 2.97387 0.371636 0
M  V30 11109 H 1079.51 1.61805 0.0555574 0
M  V30 11110 H 1081.5 2.82444 2.89841 0
M  V30 11111 H 1080.07 1.82514 2.53786 0
M  V30 11112 H 1079.29 3.80406 1.03367 0
M  V30 11113 H 1080.58 4.76662 1.77962 0
M  V30 11114 H 1079.98 3.2937 4.59926 0
M  V30 11115 H 1078.54 4.10087 5.06628 0
M  V30 11116 N 1081.97 -0.145205 1.5693 0
M  V30 11117 C 1083.2 -0.872398 1.87608 0
M  V30 11118 C 1083.61 -1.74657 0.716975 0
M  V30 11119 O 1082.97 -1.79792 -0.3132 0
M  V30 11120 C 1083.02 -1.72762 3.17546 0
M  V30 11121 O 1082.74 -0.888681 4.28992 0
M  V30 11122 C 1084.24 -2.56224 3.61751 0
M  V30 11123 H 1081.46 -0.252166 0.621815 0
M  V30 11124 H 1084.01 -0.137456 2.04038 0
M  V30 11125 H 1082.16 -2.41561 3.02865 0
M  V30 11126 H 1082.58 -1.47601 5.03303 0
M  V30 11127 H 1084.05 -3.11804 4.55502 0
M  V30 11128 H 1084.53 -3.32347 2.87127 0
M  V30 11129 H 1085.13 -1.92714 3.79133 0
M  V30 11130 N 1083.45 -1.52049 -0.414609 0
M  V30 11131 C 1084.67 -1.6997 -1.18848 0
M  V30 11132 C 1085.1 -0.406058 -1.83665 0
M  V30 11133 O 1084.46 0.635981 -1.69779 0
M  V30 11134 C 1084.5 -2.8327 -2.23138 0
M  V30 11135 O 1083.61 -2.48457 -3.29155 0
M  V30 11136 H 1082.95 -0.566003 -0.347183 0
M  V30 11137 H 1085.48 -1.98726 -0.486757 0
M  V30 11138 H 1085.49 -3.08022 -2.67557 0
M  V30 11139 H 1084.16 -3.7713 -1.75344 0
M  V30 11140 H 1082.74 -2.34357 -2.90054 0
M  V30 11141 N 1084.93 0.6715 -1.42579 0
M  V30 11142 C 1086.15 1.45972 -1.46628 0
M  V30 11143 C 1086.57 1.88636 -0.0785986 0
M  V30 11144 O 1085.93 1.58345 0.907372 0
M  V30 11145 C 1085.98 2.70668 -2.39627 0
M  V30 11146 O 1085.7 2.29793 -3.72997 0
M  V30 11147 C 1087.2 3.64201 -2.52731 0
M  V30 11148 H 1084.42 0.449044 -0.498598 0
M  V30 11149 H 1086.96 0.824811 -1.87129 0
M  V30 11150 H 1085.12 3.3034 -2.02371 0
M  V30 11151 H 1085.53 3.10341 -4.22834 0
M  V30 11152 H 1087.01 4.48412 -3.21918 0
M  V30 11153 H 1087.48 4.10323 -1.56626 0
M  V30 11154 H 1088.09 3.1042 -2.90722 0
M  V30 11155 N 1086.4 1.28806 0.908124 0
M  V30 11156 C 1087.35 1.13083 2.03261 0
M  V30 11157 C 1088.35 0.0486094 1.6933 0
M  V30 11158 O 1089.55 0.207794 1.78797 0
M  V30 11159 H 1085.93 0.349057 0.666081 0
M  V30 11160 H 1087.9 2.08304 2.13663 0
M  V30 11161 C 1086.65 0.815339 3.38005 0
M  V30 11162 H 1085.97 1.64007 3.64612 0
M  V30 11163 H 1087.41 0.745311 4.17398 0
M  V30 11164 C 1085.87 -0.48113 3.33447 0
M  V30 11165 O 1086.4 -1.50974 3.7225 0
M  V30 11166 N 1084.6 -0.483912 2.86543 0
M  V30 11167 H 1084.15 0.353593 2.55162 0
M  V30 11168 H 1084.11 -1.35138 2.83875 0
M  V30 11169 N 1087.88 -1.11734 1.11145 0
M  V30 11170 C 1089.29 -1.64928 0.874959 0
M  V30 11171 C 1089.64 -1.87012 -0.593375 0
M  V30 11172 O 1088.77 -1.60206 -1.45475 0
M  V30 11173 C 1089.36 -2.99608 1.58178 0
M  V30 11174 C 1087.92 -3.49723 1.39179 0
M  V30 11175 C 1087.07 -2.24595 1.62642 0
M  V30 11176 H 1090.02 -0.954154 1.26813 0
M  V30 11177 H 1090.04 -3.66434 1.02501 0
M  V30 11178 H 1089.55 -2.83504 2.65042 0
M  V30 11179 H 1087.65 -3.70998 0.345111 0
M  V30 11180 H 1087.77 -4.28711 2.13878 0
M  V30 11181 H 1086.13 -2.32067 1.04961 0
M  V30 11182 H 1086.91 -2.11036 2.70774 0
M  V30 11183 N 1089.36 -0.901303 -1.29284 0
M  V30 11184 C 1090.58 -0.542823 -2.0017 0
M  V30 11185 C 1091.01 0.865583 -1.67001 0
M  V30 11186 O 1090.37 1.5764 -0.895502 0
M  V30 11187 C 1090.42 -0.743987 -3.52842 0
M  V30 11188 O 1089.52 0.202771 -4.11901 0
M  V30 11189 H 1088.86 -0.211903 -0.62928 0
M  V30 11190 H 1091.39 -1.21333 -1.64741 0
M  V30 11191 H 1091.4 -0.64926 -4.02801 0
M  V30 11192 H 1090.08 -1.77077 -3.7632 0
M  V30 11193 H 1088.65 0.0603637 -3.72851 0
M  V30 11194 N 1090.84 1.42931 -0.663954 0
M  V30 11195 C 1092.09 2.00904 -0.179011 0
M  V30 11196 C 1092.4 1.53056 1.21791 0
M  V30 11197 O 1093.61 2.03374 1.79865 0
M  V30 11198 C 1092.06 3.58892 -0.269198 0
M  V30 11199 C 1091.67 4.15731 -1.66949 0
M  V30 11200 C 1093.41 4.24207 0.157589 0
M  V30 11201 C 1091.32 5.66047 -1.71303 0
M  V30 11202 H 1090.25 0.75135 -0.0631623 0
M  V30 11203 H 1092.9 1.6378 -0.827556 0
M  V30 11204 H 1091.28 3.93469 0.447048 0
M  V30 11205 H 1092.46 3.92634 -2.41195 0
M  V30 11206 H 1090.77 3.62826 -2.04318 0
M  V30 11207 H 1093.37 5.34503 0.145057 0
M  V30 11208 H 1093.71 3.98901 1.19095 0
M  V30 11209 H 1094.25 3.94552 -0.507274 0
M  V30 11210 H 1090.98 5.96136 -2.72584 0
M  V30 11211 H 1090.5 5.91167 -1.01398 0
M  V30 11212 H 1092.18 6.30275 -1.46158 0
M  V30 11213 N 1092.32 0.406567 1.52266 0
M  V30 11214 C 1093.56 -0.170053 2.01785 0
M  V30 11215 C 1093.89 -1.45361 1.2923 0
M  V30 11216 O 1093.15 -1.91849 0.386342 0
M  V30 11217 C 1093.44 -0.467124 3.54334 0
M  V30 11218 C 1093.11 0.72693 4.45002 0
M  V30 11219 C 1091.77 1.05446 4.69505 0
M  V30 11220 C 1094.12 1.52493 4.98393 0
M  V30 11221 C 1091.45 2.18123 5.44646 0
M  V30 11222 C 1093.8 2.64244 5.74768 0
M  V30 11223 C 1092.47 2.97486 5.97544 0
M  V30 11224 H 1091.74 -0.0622267 0.738383 0
M  V30 11225 H 1094.39 0.54746 1.83508 0
M  V30 11226 H 1092.69 -1.26617 3.70777 0
M  V30 11227 H 1094.39 -0.926194 3.90157 0
M  V30 11228 H 1090.98 0.461666 4.26106 0
M  V30 11229 H 1095.16 1.28512 4.79373 0
M  V30 11230 H 1090.42 2.44228 5.60502 0
M  V30 11231 H 1094.59 3.26468 6.15136 0
M  V30 11232 H 1092.22 3.84913 6.5555 0
M  V30 11233 N 1093.79 -1.57004 0.136909 0
M  V30 11234 C 1095.04 -1.96873 -0.511137 0
M  V30 11235 C 1095.4 -1.02001 -1.63137 0
M  V30 11236 O 1094.69 -0.0532138 -1.91526 0
M  V30 11237 C 1094.88 -3.40903 -1.07331 0
M  V30 11238 C 1094.71 -4.49699 -0.00908112 0
M  V30 11239 C 1093.48 -5.03477 0.42889 0
M  V30 11240 C 1095.68 -5.08372 0.778631 0
M  V30 11241 N 1093.66 -5.95867 1.47702 0
M  V30 11242 C 1095.03 -5.96875 1.67751 0
M  V30 11243 C 1097.09 -4.90975 0.827538 0
M  V30 11244 C 1095.79 -6.69845 2.62108 0
M  V30 11245 C 1097.82 -5.64639 1.75889 0
M  V30 11246 C 1097.18 -6.52842 2.64531 0
M  V30 11247 H 1093.28 -0.766253 -0.156141 0
M  V30 11248 H 1095.86 -1.93347 0.229176 0
M  V30 11249 H 1094.03 -3.45042 -1.78327 0
M  V30 11250 H 1095.76 -3.67855 -1.68715 0
M  V30 11251 H 1092.52 -4.73588 0.03306 0
M  V30 11252 H 1092.94 -6.46767 2.00055 0
M  V30 11253 H 1097.59 -4.22511 0.156318 0
M  V30 11254 H 1095.3 -7.37544 3.30235 0
M  V30 11255 H 1098.89 -5.53177 1.80241 0
M  V30 11256 H 1097.77 -7.08843 3.35426 0
M  V30 11257 N 1095.27 0.136881 -1.57004 0
M  V30 11258 C 1096.5 0.862436 -1.88068 0
M  V30 11259 C 1096.92 1.74274 -0.726227 0
M  V30 11260 O 1096.27 1.79956 0.30366 0
M  V30 11261 C 1096.32 1.71076 -3.18458 0
M  V30 11262 O 1096.04 0.865918 -4.29457 0
M  V30 11263 C 1097.55 2.54302 -3.63105 0
M  V30 11264 H 1094.77 0.248865 -0.623143 0
M  V30 11265 H 1097.31 0.126633 -2.04108 0
M  V30 11266 H 1095.46 2.39951 -3.04142 0
M  V30 11267 H 1095.88 1.4493 -5.04079 0
M  V30 11268 H 1097.35 3.09384 -4.57149 0
M  V30 11269 H 1097.83 3.3082 -2.88886 0
M  V30 11270 H 1098.44 1.907 -3.80149 0
M  V30 11271 N 1096.75 1.52266 0.40654 0
M  V30 11272 C 1097.66 1.78688 1.52012 0
M  V30 11273 C 1098.68 0.6726 1.60475 0
M  V30 11274 O 1099.85 0.95829 1.77141 0
M  V30 11275 C 1096.92 1.93434 2.87722 0
M  V30 11276 C 1095.98 3.17341 2.89125 0
M  V30 11277 C 1095.21 3.31374 4.18362 0
M  V30 11278 O 1095.43 2.50613 5.12396 0
M  V30 11279 O 1094.37 4.24539 4.26674 0
M  V30 11280 H 1098.19 2.73213 1.3262 0
M  V30 11281 H 1095.78 1.37142 0.592653 0
M  V30 11282 H 1097.66 2.04941 3.68208 0
M  V30 11283 H 1096.34 1.02099 3.07177 0
M  V30 11284 H 1095.24 3.1129 2.07483 0
M  V30 11285 H 1096.58 4.08466 2.7462 0
M  V30 11286 N 1098.23 -0.663929 1.42933 0
M  V30 11287 C 1099.48 -1.42111 1.43697 0
M  V30 11288 C 1099.8 -1.94913 0.0583858 0
M  V30 11289 O 1099.07 -1.73757 -0.904719 0
M  V30 11290 H 1097.65 -0.527391 0.529026 0
M  V30 11291 H 1100.31 -0.783766 1.78446 0
M  V30 11292 H 1099.41 -2.26877 2.1432 0
M  V30 11293 N 1099.71 -1.29285 -0.901281 0
M  V30 11294 C 1100.65 -1.14159 -2.02659 0
M  V30 11295 C 1101.65 -0.0575887 -1.69302 0
M  V30 11296 O 1102.85 -0.217273 -1.78684 0
M  V30 11297 H 1099.23 -0.352584 -0.66422 0
M  V30 11298 H 1101.2 -2.09434 -2.12555 0
M  V30 11299 C 1099.95 -0.833253 -3.37568 0
M  V30 11300 H 1099.27 -1.65939 -3.63737 0
M  V30 11301 H 1100.71 -0.767436 -4.16997 0
M  V30 11302 C 1099.17 0.46344 -3.33697 0
M  V30 11303 O 1099.7 1.48998 -3.73045 0
M  V30 11304 N 1097.91 0.468709 -2.86795 0
M  V30 11305 H 1097.45 -0.36712 -2.54971 0
M  V30 11306 H 1097.41 1.3363 -2.84588 0
M  V30 11307 N 1101.18 1.11143 -1.11736 0
M  V30 11308 C 1102.15 2.15456 -0.78174 0
M  V30 11309 C 1103.15 1.59547 0.200383 0
M  V30 11310 O 1104.34 1.74183 -0.0244893 0
M  V30 11311 C 1101.47 3.40523 -0.160364 0
M  V30 11312 H 1102.66 2.46658 -1.70586 0
M  V30 11313 H 1100.22 1.26381 -0.919644 0
M  V30 11314 H 1100.95 3.14932 0.773835 0
M  V30 11315 H 1100.74 3.82386 -0.867378 0
M  V30 11316 H 1102.23 4.17559 0.0582175 0
M  V30 11317 N 1102.66 0.908147 1.28804 0
M  V30 11318 C 1104.07 0.585727 1.77274 0
M  V30 11319 C 1104.42 -0.898842 1.744 0
M  V30 11320 O 1103.55 -1.70301 1.33516 0
M  V30 11321 C 1104.14 1.05647 3.21907 0
M  V30 11322 C 1102.7 0.785066 3.68122 0
M  V30 11323 C 1101.85 1.22638 2.48707 0
M  V30 11324 H 1104.8 1.09 1.15346 0
M  V30 11325 H 1104.82 0.395442 3.7844 0
M  V30 11326 H 1104.33 2.13698 3.23967 0
M  V30 11327 H 1102.44 -0.282477 3.71528 0
M  V30 11328 H 1102.55 1.38888 4.58527 0
M  V30 11329 H 1100.91 0.645217 2.46392 0
M  V30 11330 H 1101.7 2.31512 2.5349 0
M  V30 11331 N 1104.14 -1.42577 0.671525 0
M  V30 11332 C 1105.1 -2.292 0.000392482 0
M  V30 11333 C 1106.1 -1.43158 -0.732294 0
M  V30 11334 O 1107.29 -1.64583 -0.570789 0
M  V30 11335 C 1104.43 -3.25591 -1.01013 0
M  V30 11336 H 1105.62 -2.90037 0.762783 0
M  V30 11337 H 1103.17 -1.50162 0.433703 0
M  V30 11338 H 1103.91 -2.69685 -1.80112 0
M  V30 11339 H 1103.69 -3.89049 -0.488183 0
M  V30 11340 H 1105.18 -3.90561 -1.47824 0
M  V30 11341 N 1105.62 -0.414636 -1.52048 0
M  V30 11342 C 1107.03 -0.0657806 -1.59464 0
M  V30 11343 C 1107.23 1.4225 -1.42713 0
M  V30 11344 O 1106.29 2.18996 -1.25687 0
M  V30 11345 C 1107.6 -0.565618 -2.95332 0
M  V30 11346 C 1109.15 -0.524072 -3.08581 0
M  V30 11347 C 1109.63 -1.00051 -4.46938 0
M  V30 11348 N 1111.12 -0.957555 -4.53194 0
M  V30 11349 C 1111.85 -1.29733 -5.58531 0
M  V30 11350 N 1111.35 -1.70883 -6.71395 0
M  V30 11351 N 1113.14 -1.21694 -5.48769 0
M  V30 11352 H 1105.29 -1.38325 -1.61183 0
M  V30 11353 H 1107.56 -0.568593 -0.758556 0
M  V30 11354 H 1107.26 -1.60604 -3.12888 0
M  V30 11355 H 1107.14 0.0217735 -3.77194 0
M  V30 11356 H 1109.52 0.507319 -2.90707 0
M  V30 11357 H 1109.6 -1.14759 -2.28613 0
M  V30 11358 H 1109.25 -2.03025 -4.65557 0
M  V30 11359 H 1109.18 -0.353754 -5.2541 0
M  V30 11360 H 1111.67 -0.65508 -3.72179 0
M  V30 11361 H 1111.98 -1.95105 -7.47766 0
M  V30 11362 H 1110.33 -1.74791 -6.72661 0
M  V30 11363 H 1113.52 -0.894286 -4.59478 0
M  V30 11364 H 1113.69 -1.48504 -6.30754 0
M  V30 11365 N 1107.1 1.56929 -0.145233 0
M  V30 11366 C 1108.03 2.12449 0.833107 0
M  V30 11367 C 1109.01 1.0476 1.24355 0
M  V30 11368 O 1110.19 1.32579 1.33997 0
M  V30 11369 C 1107.32 2.64274 2.11842 0
M  V30 11370 C 1106.36 3.84093 1.85404 0
M  V30 11371 S 1107.2 5.25172 1.04663 0
M  V30 11372 C 1108.35 5.80384 2.34318 0
M  V30 11373 H 1108.59 2.951 0.360969 0
M  V30 11374 H 1106.12 1.54246 0.0690187 0
M  V30 11375 H 1108.08 2.94783 2.8568 0
M  V30 11376 H 1106.74 1.81756 2.56171 0
M  V30 11377 H 1105.93 4.18593 2.80706 0
M  V30 11378 H 1105.53 3.54336 1.19675 0
M  V30 11379 H 1107.83 5.91709 3.29981 0
M  V30 11380 H 1108.77 6.7798 2.04325 0
M  V30 11381 H 1109.18 5.08617 2.44885 0
M  V30 11382 N 1108.58 -0.128553 1.57075 0
M  V30 11383 C 1109.8 -0.8564 1.88893 0
M  V30 11384 C 1110.23 -1.73095 0.736196 0
M  V30 11385 O 1109.58 -1.78567 -0.313629 0
M  V30 11386 C 1109.63 -1.67368 3.19406 0
M  V30 11387 O 1108.74 -2.77973 3.04639 0
M  V30 11388 H 1108.08 -0.237424 0.620102 0
M  V30 11389 H 1110.61 -0.113821 2.04283 0
M  V30 11390 H 1110.62 -2.0649 3.51889 0
M  V30 11391 H 1109.29 -1.03161 4.02903 0
M  V30 11392 H 1107.87 -2.42123 2.83603 0
M  V30 11393 N 1110.05 -1.5248 -0.398459 0
M  V30 11394 C 1111.3 -1.66287 -1.14155 0
M  V30 11395 C 1111.62 -0.40429 -1.91376 0
M  V30 11396 O 1112.82 -0.422341 -2.68195 0
M  V30 11397 C 1111.28 -2.93831 -2.07825 0
M  V30 11398 C 1110.89 -4.26836 -1.3607 0
M  V30 11399 C 1112.63 -3.17004 -2.82327 0
M  V30 11400 C 1110.54 -5.45495 -2.28451 0
M  V30 11401 H 1109.47 -0.619478 -0.42984 0
M  V30 11402 H 1112.12 -1.78972 -0.405112 0
M  V30 11403 H 1110.5 -2.7487 -2.85065 0
M  V30 11404 H 1111.67 -4.56317 -0.641205 0
M  V30 11405 H 1109.99 -4.0985 -0.735659 0
M  V30 11406 H 1112.59 -4.02834 -3.51609 0
M  V30 11407 H 1112.93 -2.3168 -3.45876 0
M  V30 11408 H 1113.46 -3.36487 -2.12183 0
M  V30 11409 H 1110.2 -6.33198 -1.69532 0
M  V30 11410 H 1109.72 -5.20338 -2.98343 0
M  V30 11411 H 1111.4 -5.78996 -2.88743 0
M  V30 11412 N 1111.53 0.65634 -1.43283 0
M  V30 11413 C 1112.94 1.23744 -1.39801 0
M  V30 11414 C 1113.29 1.95942 -0.100507 0
M  V30 11415 O 1112.42 2.01063 0.800161 0
M  V30 11416 C 1113.01 2.25062 -2.53244 0
M  V30 11417 C 1111.57 2.78657 -2.53036 0
M  V30 11418 C 1110.72 1.53251 -2.31105 0
M  V30 11419 H 1113.67 0.448553 -1.52229 0
M  V30 11420 H 1113.69 3.07174 -2.24553 0
M  V30 11421 H 1113.2 1.72487 -3.47664 0
M  V30 11422 H 1111.3 3.35304 -1.62487 0
M  V30 11423 H 1111.42 3.26414 -3.507 0
M  V30 11424 H 1109.78 1.80487 -1.79713 0
M  V30 11425 H 1110.56 1.02615 -3.27605 0
M  V30 11426 N 1113.01 1.29761 0.894412 0
M  V30 11427 C 1114.26 1.18039 1.64539 0
M  V30 11428 C 1114.58 -0.26697 1.92659 0
M  V30 11429 O 1113.84 -1.20865 1.53916 0
M  V30 11430 C 1114.14 1.94458 2.99868 0
M  V30 11431 C 1113.8 3.44143 2.91336 0
M  V30 11432 C 1112.47 3.84963 2.88716 0
M  V30 11433 C 1114.82 4.39503 2.80154 0
M  V30 11434 C 1112.15 5.19451 2.72741 0
M  V30 11435 C 1114.5 5.74088 2.65718 0
M  V30 11436 C 1113.16 6.14159 2.61467 0
M  V30 11437 H 1112.43 0.431936 0.60209 0
M  V30 11438 H 1115.08 1.60758 1.04063 0
M  V30 11439 H 1113.38 1.44346 3.64241 0
M  V30 11440 H 1115.08 1.82788 3.56917 0
M  V30 11441 H 1111.67 3.11699 2.9418 0
M  V30 11442 H 1115.86 4.08915 2.81251 0
M  V30 11443 H 1111.11 5.49602 2.67858 0
M  V30 11444 H 1115.29 6.47625 2.56038 0
M  V30 11445 H 1112.91 7.18317 2.48847 0
M  V30 11446 N 1114.49 -1.10549 1.12324 0
M  V30 11447 C 1115.74 -1.81851 0.872531 0
M  V30 11448 C 1116.05 -1.86058 -0.603468 0
M  V30 11449 O 1117.26 -2.53553 -0.970736 0
M  V30 11450 C 1115.71 -3.26631 1.51131 0
M  V30 11451 C 1115.32 -3.30725 3.02201 0
M  V30 11452 C 1117.06 -4.02768 1.34082 0
M  V30 11453 C 1114.97 -4.69957 3.59018 0
M  V30 11454 H 1113.9 -0.681422 0.322769 0
M  V30 11455 H 1116.55 -1.24332 1.34959 0
M  V30 11456 H 1114.93 -3.8414 0.961913 0
M  V30 11457 H 1116.11 -2.83046 3.63623 0
M  V30 11458 H 1114.42 -2.68072 3.18632 0
M  V30 11459 H 1117.02 -5.05612 1.73955 0
M  V30 11460 H 1117.36 -4.15328 0.284369 0
M  V30 11461 H 1117.9 -3.51671 1.85937 0
M  V30 11462 H 1114.63 -4.62597 4.64418 0
M  V30 11463 H 1114.15 -5.18008 3.02371 0
M  V30 11464 H 1115.83 -5.38925 3.58007 0
M  V30 11465 N 1115.97 -0.914965 -1.28321 0
M  V30 11466 C 1117.19 -0.564023 -1.99583 0
M  V30 11467 C 1117.62 0.847821 -1.6791 0
M  V30 11468 O 1116.97 1.56682 -0.912171 0
M  V30 11469 C 1117.02 -0.781368 -3.52033 0
M  V30 11470 O 1116.13 0.159072 -4.12093 0
M  V30 11471 H 1115.47 -0.218565 -0.626997 0
M  V30 11472 H 1118 -1.23074 -1.63444 0
M  V30 11473 H 1118.01 -0.691946 -4.0209 0
M  V30 11474 H 1116.68 -1.81059 -3.7442 0
M  V30 11475 H 1115.26 0.0208145 -3.72894 0
M  V30 11476 N 1117.44 1.42219 -0.679077 0
M  V30 11477 C 1118.69 2.00703 -0.200309 0
M  V30 11478 C 1119.01 1.54339 1.20161 0
M  V30 11479 O 1120.21 2.0527 1.77698 0
M  V30 11480 C 1118.67 3.58586 -0.307248 0
M  V30 11481 C 1118.28 4.13937 -1.71349 0
M  V30 11482 C 1120.02 4.24351 0.112588 0
M  V30 11483 C 1117.93 5.64198 -1.77297 0
M  V30 11484 H 1116.86 0.750638 -0.0711279 0
M  V30 11485 H 1119.51 1.62893 -0.844881 0
M  V30 11486 H 1117.89 3.93921 0.40529 0
M  V30 11487 H 1119.06 3.90054 -2.45346 0
M  V30 11488 H 1117.38 3.60639 -2.08155 0
M  V30 11489 H 1119.98 5.34627 0.0883578 0
M  V30 11490 H 1120.32 4.00142 1.14857 0
M  V30 11491 H 1120.85 3.93992 -0.549093 0
M  V30 11492 H 1117.59 5.93211 -2.78892 0
M  V30 11493 H 1117.11 5.90058 -1.07662 0
M  V30 11494 H 1118.79 6.2869 -1.52835 0
M  V30 11495 N 1118.92 0.422693 1.51826 0
M  V30 11496 C 1120.17 -0.148348 2.01555 0
M  V30 11497 C 1120.49 -1.44483 1.30956 0
M  V30 11498 O 1119.76 -1.90904 0.439599 0
M  V30 11499 H 1118.34 -0.0578116 0.74476 0
M  V30 11500 H 1121 0.562046 1.8662 0
M  V30 11501 H 1120.1 -0.334766 3.10299 0
M  V30 11502 N 1120.4 -1.5685 0.153553 0
M  V30 11503 C 1121.35 -2.18385 -0.800667 0
M  V30 11504 C 1122.34 -1.14272 -1.25053 0
M  V30 11505 O 1123.55 -1.32509 -1.21825 0
M  V30 11506 H 1119.92 -0.699352 -0.276425 0
M  V30 11507 H 1121.89 -2.97287 -0.257535 0
M  V30 11508 C 1120.64 -2.82497 -2.02708 0
M  V30 11509 H 1119.97 -3.62328 -1.68992 0
M  V30 11510 H 1121.41 -3.29047 -2.67403 0
M  V30 11511 C 1119.86 -1.81343 -2.8393 0
M  V30 11512 O 1120.39 -1.28793 -3.80493 0
M  V30 11513 N 1118.6 -1.50499 -2.48593 0
M  V30 11514 H 1118.15 -1.93425 -1.70131 0
M  V30 11515 H 1118.11 -0.830672 -3.03228 0
M  V30 11516 N 1121.88 0.120221 -1.57141 0
M  V30 11517 C 1122.84 1.13159 -1.99318 0
M  V30 11518 C 1123.84 1.34376 -0.883158 0
M  V30 11519 O 1125.03 1.30914 -1.14922 0
M  V30 11520 C 1122.16 2.48632 -2.33227 0
M  V30 11521 H 1123.36 0.769119 -2.8987 0
M  V30 11522 H 1120.91 0.364475 -1.51991 0
M  V30 11523 H 1121.64 2.89802 -1.45551 0
M  V30 11524 H 1121.43 2.34587 -3.14184 0
M  V30 11525 H 1122.92 3.21423 -2.66603 0
M  V30 11526 N 1123.36 1.52689 0.390367 0
M  V30 11527 C 1124.59 1.71292 1.1551 0
M  V30 11528 C 1124.99 0.430405 1.84239 0
M  V30 11529 O 1124.34 -0.604823 1.73458 0
M  V30 11530 C 1124.4 2.80597 2.24735 0
M  V30 11531 C 1124.06 4.21757 1.75984 0
M  V30 11532 C 1125.06 5.04961 1.23733 0
M  V30 11533 C 1122.75 4.68071 1.82248 0
M  V30 11534 C 1124.74 6.32561 0.783926 0
M  V30 11535 C 1122.43 5.95656 1.36519 0
M  V30 11536 C 1123.42 6.7773 0.846786 0
M  V30 11537 O 1123.11 8.02923 0.396164 0
M  V30 11538 H 1122.84 0.576906 0.352356 0
M  V30 11539 H 1125.4 2.00117 0.462865 0
M  V30 11540 H 1123.63 2.4719 2.97378 0
M  V30 11541 H 1125.32 2.87616 2.86412 0
M  V30 11542 H 1126.08 4.70363 1.18251 0
M  V30 11543 H 1121.96 4.04278 2.21541 0
M  V30 11544 H 1125.51 6.96572 0.378612 0
M  V30 11545 H 1121.4 6.29758 1.41686 0
M  V30 11546 H 1122.17 8.16861 0.517766 0
M  V30 11547 N 1124.83 -0.648732 1.43629 0
M  V30 11548 C 1126.06 -1.44117 1.49148 0
M  V30 11549 C 1126.48 -1.87767 0.111952 0
M  V30 11550 O 1125.84 -1.57655 -0.895249 0
M  V30 11551 C 1125.89 -2.64938 2.44623 0
M  V30 11552 O 1124.99 -3.64155 1.93559 0
M  V30 11553 H 1124.34 -0.431933 0.504312 0
M  V30 11554 H 1126.87 -0.793439 1.88589 0
M  V30 11555 H 1126.88 -3.12698 2.62076 0
M  V30 11556 H 1125.55 -2.3251 3.44836 0
M  V30 11557 H 1124.13 -3.23322 1.85789 0
M  V30 11558 N 1126.31 -1.30234 -0.887518 0
M  V30 11559 C 1127.26 -1.16302 -2.01436 0
M  V30 11560 C 1128.25 -0.0755422 -1.69231 0
M  V30 11561 O 1129.46 -0.236213 -1.78443 0
M  V30 11562 H 1125.84 -0.35961 -0.660443 0
M  V30 11563 H 1127.81 -2.11677 -2.10322 0
M  V30 11564 C 1126.56 -0.869009 -3.36665 0
M  V30 11565 H 1125.88 -1.69787 -3.61956 0
M  V30 11566 H 1127.32 -0.811621 -4.16159 0
M  V30 11567 C 1125.78 0.428021 -3.3417 0
M  V30 11568 O 1126.31 1.45033 -3.74604 0
M  V30 11569 N 1124.51 0.438264 -2.87276 0
M  V30 11570 H 1124.06 -0.394142 -2.54567 0
M  V30 11571 H 1124.02 1.30604 -2.85989 0
M  V30 11572 N 1127.79 1.09952 -1.12909 0
M  V30 11573 C 1129.04 1.82016 -0.887482 0
M  V30 11574 C 1129.37 1.85445 0.586546 0
M  V30 11575 O 1128.62 1.31446 1.44984 0
M  V30 11576 C 1128.92 3.28252 -1.41369 0
M  V30 11577 C 1128.59 3.44965 -2.90362 0
M  V30 11578 C 1127.25 3.49233 -3.31043 0
M  V30 11579 C 1129.6 3.49947 -3.86247 0
M  V30 11580 C 1126.93 3.56057 -4.66305 0
M  V30 11581 C 1129.28 3.58305 -5.21345 0
M  V30 11582 C 1127.94 3.6084 -5.61561 0
M  V30 11583 H 1127.21 0.666046 -0.324753 0
M  V30 11584 H 1129.86 1.29568 -1.41012 0
M  V30 11585 H 1128.17 3.83301 -0.81163 0
M  V30 11586 H 1129.86 3.82533 -1.20289 0
M  V30 11587 H 1126.45 3.42323 -2.57901 0
M  V30 11588 H 1130.64 3.45895 -3.55908 0
M  V30 11589 H 1125.89 3.56305 -4.96847 0
M  V30 11590 H 1130.07 3.61104 -5.95463 0
M  V30 11591 H 1127.69 3.6588 -6.6636 0
M  V30 11592 N 1129.27 0.921757 1.27833 0
M  V30 11593 C 1130.5 0.574368 1.98455 0
M  V30 11594 C 1130.91 -0.850577 1.69002 0
M  V30 11595 O 1130.25 -1.57607 0.943708 0
M  V30 11596 C 1130.31 0.713235 3.52354 0
M  V30 11597 C 1129.98 2.1092 4.05415 0
M  V30 11598 C 1130.97 3.08276 4.18643 0
M  V30 11599 C 1128.66 2.42454 4.3991 0
M  V30 11600 C 1130.65 4.35279 4.6563 0
M  V30 11601 C 1128.34 3.69694 4.8659 0
M  V30 11602 C 1129.34 4.6592 4.99407 0
M  V30 11603 O 1129.02 5.90896 5.45066 0
M  V30 11604 H 1128.76 0.216955 0.640239 0
M  V30 11605 H 1131.31 1.23932 1.63798 0
M  V30 11606 H 1129.54 -0.00881115 3.86699 0
M  V30 11607 H 1131.23 0.371776 4.04194 0
M  V30 11608 H 1132 2.85234 3.92258 0
M  V30 11609 H 1127.87 1.68303 4.2918 0
M  V30 11610 H 1131.42 5.10391 4.75549 0
M  V30 11611 H 1127.32 3.92557 5.12415 0
M  V30 11612 H 1128.08 5.938 5.63333 0
M  V30 11613 N 1130.75 -1.41857 0.686609 0
M  V30 11614 C 1132.02 -1.95082 0.142228 0
M  V30 11615 C 1132.4 -1.62646 -1.34572 0
M  V30 11616 O 1131.75 -0.928757 -2.08773 0
M  V30 11617 C 1131.96 -3.46415 0.423955 0
M  V30 11618 C 1133.31 -4.23181 0.346842 0
M  V30 11619 O 1134.33 -3.54393 0.358363 0
M  V30 11620 O 1133.19 -5.4568 0.299211 0
M  V30 11621 H 1130.29 -0.826943 0.00974 0
M  V30 11622 H 1132.83 -1.51622 0.762153 0
M  V30 11623 H 1131.6 -3.63273 1.45424 0
M  V30 11624 H 1131.23 -3.96949 -0.227391 0
M  V30 11625 N 1132.22 -0.430739 -1.51599 0
M  V30 11626 C 1133.47 0.137657 -2.01631 0
M  V30 11627 C 1133.79 1.43787 -1.31721 0
M  V30 11628 O 1133.06 1.90668 -0.449717 0
M  V30 11629 H 1131.64 0.0538611 -0.745056 0
M  V30 11630 H 1134.31 -0.571935 -1.86319 0
M  V30 11631 H 1133.4 0.318305 -3.10473 0
M  V30 11632 N 1133.7 1.56767 -0.161869 0
M  V30 11633 C 1134.95 1.97661 0.479751 0
M  V30 11634 C 1135.3 1.04583 1.61493 0
M  V30 11635 O 1134.6 0.0836772 1.91417 0
M  V30 11636 C 1134.79 3.42567 1.01894 0
M  V30 11637 C 1134.62 4.49657 -0.0624633 0
M  V30 11638 C 1133.39 5.0273 -0.508935 0
M  V30 11639 C 1135.59 5.07069 -0.85941 0
M  V30 11640 N 1133.57 5.93442 -1.57163 0
M  V30 11641 C 1134.94 5.94131 -1.77225 0
M  V30 11642 C 1137 4.89596 -0.905543 0
M  V30 11643 C 1135.7 6.6559 -2.72731 0
M  V30 11644 C 1137.72 5.61769 -1.8485 0
M  V30 11645 C 1137.09 6.48551 -2.74884 0
M  V30 11646 H 1133.19 0.76864 0.14393 0
M  V30 11647 H 1135.77 1.92957 -0.259906 0
M  V30 11648 H 1133.94 3.47835 1.72815 0
M  V30 11649 H 1135.67 3.70493 1.62841 0
M  V30 11650 H 1132.43 4.73476 -0.1084 0
M  V30 11651 H 1132.85 6.43502 -2.10319 0
M  V30 11652 H 1137.49 4.22209 -0.223516 0
M  V30 11653 H 1135.21 7.32197 -3.41927 0
M  V30 11654 H 1138.8 5.50239 -1.89018 0
M  V30 11655 H 1137.68 7.03417 -3.46661 0
M  V30 11656 N 1135.18 -0.111886 1.57202 0
M  V30 11657 C 1136.41 -0.836317 1.89791 0
M  V30 11658 C 1136.83 -1.72304 0.754513 0
M  V30 11659 O 1136.19 -1.78889 -0.294672 0
M  V30 11660 C 1136.24 -1.63971 3.21164 0
M  V30 11661 O 1135.34 -2.74726 3.0757 0
M  V30 11662 H 1134.68 -0.230833 0.622585 0
M  V30 11663 H 1137.21 -0.0921478 2.04392 0
M  V30 11664 H 1137.22 -2.02746 3.54059 0
M  V30 11665 H 1135.9 -0.98882 4.03974 0
M  V30 11666 H 1134.47 -2.39101 2.86156 0
M  V30 11667 N 1136.66 -1.52894 -0.382264 0
M  V30 11668 C 1137.61 -1.74531 -1.46707 0
M  V30 11669 C 1138.59 -0.599499 -1.49315 0
M  V30 11670 O 1139.78 -0.857577 -1.54837 0
M  V30 11671 C 1136.91 -1.92366 -2.84342 0
M  V30 11672 C 1136 -3.12899 -2.86278 0
M  V30 11673 N 1136.39 -4.35125 -2.57876 0
M  V30 11674 C 1134.69 -3.13282 -3.17444 0
M  V30 11675 C 1135.39 -5.16769 -2.67066 0
M  V30 11676 N 1134.37 -4.52606 -3.0108 0
M  V30 11677 H 1138.17 -2.66653 -1.23585 0
M  V30 11678 H 1135.68 -1.51292 -0.590286 0
M  V30 11679 H 1137.68 -2.0599 -3.62455 0
M  V30 11680 H 1136.34 -1.01461 -3.08441 0
M  V30 11681 H 1137.35 -4.63143 -2.31774 0
M  V30 11682 H 1134.03 -2.32211 -3.46964 0
M  V30 11683 H 1135.42 -6.24219 -2.48595 0
M  V30 11684 N 1138.14 0.641106 -1.43971 0
M  V30 11685 C 1139.38 1.40084 -1.46228 0
M  V30 11686 C 1139.71 1.94287 -0.0911011 0
M  V30 11687 O 1138.97 1.73481 0.905688 0
M  V30 11688 C 1139.27 2.59092 -2.46183 0
M  V30 11689 C 1138.93 2.23237 -3.9176 0
M  V30 11690 C 1137.59 2.13171 -4.31407 0
M  V30 11691 C 1139.95 1.94746 -4.83449 0
M  V30 11692 C 1137.27 1.72788 -5.60679 0
M  V30 11693 C 1139.63 1.55858 -6.13099 0
M  V30 11694 C 1138.29 1.44326 -6.5171 0
M  V30 11695 H 1137.56 0.512603 -0.535088 0
M  V30 11696 H 1140.21 0.727956 -1.77124 0
M  V30 11697 H 1138.51 3.31568 -2.08734 0
M  V30 11698 H 1140.21 3.17313 -2.4518 0
M  V30 11699 H 1136.8 2.31986 -3.60389 0
M  V30 11700 H 1140.98 2.01438 -4.53582 0
M  V30 11701 H 1136.24 1.62455 -5.89422 0
M  V30 11702 H 1140.41 1.32848 -6.83611 0
M  V30 11703 H 1138.04 1.12806 -7.51784 0
M  V30 11704 N 1139.62 1.30703 0.880598 0
M  V30 11705 C 1140.84 1.22843 1.67106 0
M  V30 11706 C 1141.27 -0.204788 1.86982 0
M  V30 11707 O 1140.62 -1.14716 1.40392 0
M  V30 11708 C 1140.67 1.96685 3.02237 0
M  V30 11709 O 1139.78 1.29693 3.91476 0
M  V30 11710 H 1139.12 0.424661 0.51045 0
M  V30 11711 H 1141.65 1.72596 1.09871 0
M  V30 11712 H 1141.66 2.05874 3.52249 0
M  V30 11713 H 1140.33 3.00919 2.8709 0
M  V30 11714 H 1138.91 1.28886 3.49918 0
M  V30 11715 N 1141.09 -1.09351 1.1349 0
M  V30 11716 C 1142.03 -2.15852 0.770763 0
M  V30 11717 C 1143.04 -1.61468 -0.207866 0
M  V30 11718 O 1144.23 -1.78496 0.0124385 0
M  V30 11719 C 1141.33 -3.38681 0.121871 0
M  V30 11720 C 1140.5 -4.22477 1.13279 0
M  V30 11721 C 1139.56 -5.23728 0.509448 0
M  V30 11722 O 1138.59 -5.57052 1.16967 0
M  V30 11723 N 1139.79 -5.76041 -0.718159 0
M  V30 11724 H 1142.55 -2.47696 1.6872 0
M  V30 11725 H 1140.11 -1.25074 1.02801 0
M  V30 11726 H 1142.11 -4.03531 -0.307404 0
M  V30 11727 H 1140.68 -3.04718 -0.697527 0
M  V30 11728 H 1139.9 -3.53753 1.73933 0
M  V30 11729 H 1141.18 -4.75288 1.81601 0
M  V30 11730 H 1140.58 -5.51183 -1.27331 0
M  V30 11731 H 1139.14 -6.4262 -1.09008 0
M  V30 11732 N 1142.57 -0.928524 -1.27343 0
M  V30 11733 C 1143.53 -0.43292 -2.25074 0
M  V30 11734 C 1144.53 0.448976 -1.54405 0
M  V30 11735 O 1145.72 0.249939 -1.72398 0
M  V30 11736 C 1142.86 0.377539 -3.38803 0
M  V30 11737 H 1144.05 -1.29642 -2.70431 0
M  V30 11738 H 1141.6 -0.709289 -1.3928 0
M  V30 11739 H 1142.34 1.25982 -2.98829 0
M  V30 11740 H 1142.12 -0.254782 -3.91271 0
M  V30 11741 H 1143.61 0.714634 -4.1144 0
M  V30 11742 N 1144.05 1.41491 -0.694123 0
M  V30 11743 C 1145.3 2.00854 -0.224033 0
M  V30 11744 C 1145.62 1.55246 1.17999 0
M  V30 11745 O 1144.89 0.782452 1.79595 0
M  V30 11746 H 1143.47 0.742721 -0.0798368 0
M  V30 11747 H 1146.13 1.73137 -0.894958 0
M  V30 11748 H 1145.23 3.11173 -0.240332 0
M  V30 11749 N 1145.53 0.438773 1.51369 0
M  V30 11750 C 1146.77 -0.127401 2.02399 0
M  V30 11751 C 1147.11 -1.42235 1.32223 0
M  V30 11752 O 1146.38 -1.89513 0.437607 0
M  V30 11753 C 1146.66 -0.344673 3.58447 0
M  V30 11754 C 1146.52 0.969027 4.39238 0
M  V30 11755 C 1147.84 -1.11381 4.25773 0
M  V30 11756 H 1144.96 -0.0448281 0.735635 0
M  V30 11757 H 1147.6 0.57805 1.80993 0
M  V30 11758 H 1145.75 -0.945582 3.76817 0
M  V30 11759 H 1147.42 1.60403 4.32514 0
M  V30 11760 H 1145.66 1.57329 4.04265 0
M  V30 11761 H 1146.33 0.771029 5.46589 0
M  V30 11762 H 1148.81 -0.604785 4.11681 0
M  V30 11763 H 1147.69 -1.23459 5.34835 0
M  V30 11764 H 1147.95 -2.14225 3.8673 0
M  V30 11765 N 1147.01 -1.56678 0.170181 0
M  V30 11766 C 1148.24 -2.00931 -0.480664 0
M  V30 11767 C 1148.64 -1.04947 -1.57425 0
M  V30 11768 O 1147.99 -0.042229 -1.83651 0
M  V30 11769 C 1148.05 -3.4161 -1.11996 0
M  V30 11770 C 1147.71 -4.5669 -0.168167 0
M  V30 11771 C 1148.71 -5.16273 0.613059 0
M  V30 11772 C 1146.39 -5.02259 -0.0643243 0
M  V30 11773 C 1148.39 -6.19852 1.48534 0
M  V30 11774 C 1146.08 -6.05687 0.811542 0
M  V30 11775 C 1147.07 -6.64355 1.58496 0
M  V30 11776 O 1146.76 -7.65778 2.44619 0
M  V30 11777 H 1146.49 -0.66386 -0.12754 0
M  V30 11778 H 1149.05 -2.03635 0.2687 0
M  V30 11779 H 1147.28 -3.35815 -1.91743 0
M  V30 11780 H 1148.97 -3.69823 -1.67289 0
M  V30 11781 H 1149.73 -4.81951 0.542999 0
M  V30 11782 H 1145.61 -4.56307 -0.656102 0
M  V30 11783 H 1149.16 -6.65572 2.08948 0
M  V30 11784 H 1145.05 -6.39435 0.88281 0
M  V30 11785 H 1145.82 -7.83096 2.38122 0
M  V30 11786 N 1148.48 0.103547 -1.57259 0
M  V30 11787 C 1149.73 0.806979 -1.8529 0
M  V30 11788 C 1150.05 1.79679 -0.757653 0
M  V30 11789 O 1149.32 1.94695 0.216913 0
M  V30 11790 H 1147.9 0.301012 -0.683667 0
M  V30 11791 H 1150.56 0.0871886 -1.94705 0
M  V30 11792 H 1149.66 1.34275 -2.81738 0
M  V30 11793 N 1149.96 1.53094 0.37415 0
M  V30 11794 C 1151.21 1.68861 1.11769 0
M  V30 11795 C 1151.54 0.436032 1.89549 0
M  V30 11796 O 1150.79 -0.581879 1.86849 0
M  V30 11797 C 1151.09 2.88432 2.11049 0
M  V30 11798 C 1150.76 4.25284 1.49814 0
M  V30 11799 C 1149.42 4.62501 1.32841 0
M  V30 11800 C 1151.77 5.10425 1.05433 0
M  V30 11801 C 1149.1 5.82502 0.700567 0
M  V30 11802 C 1151.45 6.31064 0.440525 0
M  V30 11803 C 1150.11 6.67 0.258216 0
M  V30 11804 H 1149.38 0.617906 0.40899 0
M  V30 11805 H 1152.03 1.87265 0.4005 0
M  V30 11806 H 1150.34 2.64505 2.8904 0
M  V30 11807 H 1152.03 2.97825 2.68517 0
M  V30 11808 H 1148.62 3.95976 1.64016 0
M  V30 11809 H 1152.81 4.82229 1.17342 0
M  V30 11810 H 1148.06 6.08942 0.547652 0
M  V30 11811 H 1152.24 6.96344 0.0883962 0
M  V30 11812 H 1149.86 7.59851 -0.230354 0
M  V30 11813 N 1151.44 -0.633461 1.44309 0
M  V30 11814 C 1152.67 -1.42033 1.50447 0
M  V30 11815 C 1153.08 -1.88362 0.128585 0
M  V30 11816 O 1152.44 -1.60695 -0.865071 0
M  V30 11817 C 1152.49 -2.6422 2.46719 0
M  V30 11818 O 1152.21 -2.19823 3.78958 0
M  V30 11819 C 1153.71 -3.57372 2.62298 0
M  V30 11820 H 1150.93 -0.435667 0.510329 0
M  V30 11821 H 1153.48 -0.774907 1.8925 0
M  V30 11822 H 1151.63 -3.24859 2.11058 0
M  V30 11823 H 1152.05 -2.99022 4.30913 0
M  V30 11824 H 1153.52 -4.39719 3.33693 0
M  V30 11825 H 1154 -4.06026 1.67449 0
M  V30 11826 H 1154.6 -3.02603 2.9885 0
M  V30 11827 N 1152.92 -1.31168 -0.873655 0
M  V30 11828 C 1154.15 -1.23595 -1.65927 0
M  V30 11829 C 1154.56 0.199349 -1.87745 0
M  V30 11830 O 1153.92 1.13013 -1.43298 0
M  V30 11831 C 1153.97 -1.97268 -3.02932 0
M  V30 11832 O 1153.69 -3.35196 -2.82091 0
M  V30 11833 C 1155.19 -1.9649 -3.97374 0
M  V30 11834 H 1152.41 -0.427228 -0.517414 0
M  V30 11835 H 1154.96 -1.72983 -1.09074 0
M  V30 11836 H 1153.11 -1.51651 -3.56484 0
M  V30 11837 H 1153.52 -3.7266 -3.69087 0
M  V30 11838 H 1155 -2.52557 -4.90835 0
M  V30 11839 H 1155.48 -0.946525 -4.28879 0
M  V30 11840 H 1156.08 -2.4197 -3.49758 0
M  V30 11841 N 1154.4 1.08748 -1.14068 0
M  V30 11842 C 1155.33 2.17591 -0.84714 0
M  V30 11843 C 1156.31 1.68962 0.196415 0
M  V30 11844 O 1157.49 1.94125 0.0538415 0
M  V30 11845 C 1154.62 3.45823 -0.320005 0
M  V30 11846 C 1153.58 4.07824 -1.2986 0
M  V30 11847 C 1152.9 5.30965 -0.630925 0
M  V30 11848 C 1154.2 4.49512 -2.65963 0
M  V30 11849 H 1155.9 2.42404 -1.75729 0
M  V30 11850 H 1153.44 1.16502 -0.846356 0
M  V30 11851 H 1155.4 4.21276 -0.102271 0
M  V30 11852 H 1154.12 3.20553 0.625561 0
M  V30 11853 H 1152.78 3.34398 -1.50245 0
M  V30 11854 H 1152.43 5.01979 0.320337 0
M  V30 11855 H 1152.13 5.73402 -1.28388 0
M  V30 11856 H 1153.65 6.09136 -0.422635 0
M  V30 11857 H 1155.06 5.16159 -2.49506 0
M  V30 11858 H 1153.46 5.02857 -3.27498 0
M  V30 11859 H 1154.53 3.6157 -3.23102 0
M  V30 11860 N 1155.87 0.935264 1.26849 0
M  V30 11861 C 1156.82 0.430895 2.28574 0
M  V30 11862 C 1157.82 -0.488739 1.62196 0
M  V30 11863 O 1159.02 -0.367605 1.76206 0
M  V30 11864 H 1155.4 0.120793 0.742235 0
M  V30 11865 H 1157.37 1.3015 2.68521 0
M  V30 11866 C 1156.12 -0.294053 3.46454 0
M  V30 11867 H 1155.44 0.404416 3.97749 0
M  V30 11868 H 1156.88 -0.611272 4.19571 0
M  V30 11869 C 1155.34 -1.50975 3.01178 0
M  V30 11870 O 1155.87 -2.60826 3.05504 0
M  V30 11871 N 1154.08 -1.36423 2.56587 0
M  V30 11872 H 1153.62 -0.470483 2.53267 0
M  V30 11873 H 1153.58 -2.17886 2.26656 0
M  V30 11874 N 1157.35 -1.41121 0.701616 0
M  V30 11875 C 1158.3 -2.32582 0.0288052 0
M  V30 11876 C 1159.29 -1.5129 -0.762074 0
M  V30 11877 O 1160.5 -1.67185 -0.667014 0
M  V30 11878 H 1156.88 -0.75194 -0.00948675 0
M  V30 11879 H 1158.85 -2.86994 0.817141 0
M  V30 11880 C 1157.6 -3.36137 -0.889217 0
M  V30 11881 H 1156.92 -3.98746 -0.290062 0
M  V30 11882 H 1158.36 -4.0266 -1.32819 0
M  V30 11883 C 1156.82 -2.70504 -2.00821 0
M  V30 11884 O 1157.35 -2.55753 -3.09763 0
M  V30 11885 N 1155.55 -2.29105 -1.78772 0
M  V30 11886 H 1155.1 -2.41303 -0.901708 0
M  V30 11887 H 1155.06 -1.85527 -2.53825 0
M  V30 11888 N 1158.83 -0.446794 -1.51134 0
M  V30 11889 C 1159.76 0.405311 -2.24572 0
M  V30 11890 C 1160.74 1.01679 -1.26886 0
M  V30 11891 O 1161.93 1.05743 -1.56047 0
M  V30 11892 C 1159.05 1.56573 -3.00338 0
M  V30 11893 C 1158.1 1.07401 -4.12756 0
M  V30 11894 S 1158.93 0.00835038 -5.35499 0
M  V30 11895 C 1160.09 1.17321 -6.14806 0
M  V30 11896 H 1160.32 -0.218143 -2.96499 0
M  V30 11897 H 1157.85 -0.231405 -1.52656 0
M  V30 11898 H 1159.81 2.23092 -3.44587 0
M  V30 11899 H 1158.47 2.16062 -2.27982 0
M  V30 11900 H 1157.67 1.94204 -4.65082 0
M  V30 11901 H 1157.27 0.486906 -3.70817 0
M  V30 11902 H 1159.56 2.08972 -6.44466 0
M  V30 11903 H 1160.5 0.689723 -7.04733 0
M  V30 11904 H 1160.91 1.41605 -5.4645 0
M  V30 11905 N 1160.31 1.56586 -0.178487 0
M  V30 11906 C 1161.56 1.96709 0.4637 0
M  V30 11907 C 1161.88 1.06586 1.63292 0
M  V30 11908 O 1161.15 0.133683 1.95443 0
M  V30 11909 H 1159.73 0.726381 0.174299 0
M  V30 11910 H 1162.39 1.9314 -0.261345 0
M  V30 11911 H 1161.49 3.01164 0.818934 0
M  V30 11912 N 1161.79 -0.095206 1.57312 0
M  V30 11913 C 1162.72 -1.14173 1.98739 0
M  V30 11914 C 1163.73 -1.36323 0.889934 0
M  V30 11915 O 1164.92 -1.34977 1.16805 0
M  V30 11916 C 1162.02 -2.49729 2.29104 0
M  V30 11917 C 1161.19 -2.47857 3.60396 0
M  V30 11918 C 1160.25 -3.65341 3.78699 0
M  V30 11919 O 1159.28 -3.47837 4.50553 0
M  V30 11920 N 1160.48 -4.84818 3.19268 0
M  V30 11921 H 1163.25 -0.789126 2.89124 0
M  V30 11922 H 1160.81 -0.284187 1.59386 0
M  V30 11923 H 1162.8 -3.26925 2.38541 0
M  V30 11924 H 1161.37 -2.7708 1.44726 0
M  V30 11925 H 1160.59 -1.56208 3.61929 0
M  V30 11926 H 1161.88 -2.43685 4.46649 0
M  V30 11927 H 1161.27 -5.01943 2.60902 0
M  V30 11928 H 1159.83 -5.59607 3.34191 0
M  V30 11929 N 1163.26 -1.53291 -0.366026 0
M  V30 11930 C 1164.19 -1.82675 -1.45437 0
M  V30 11931 C 1165.18 -0.680227 -1.55907 0
M  V30 11932 O 1166.36 -0.930032 -1.70482 0
M  V30 11933 C 1163.49 -2.01626 -2.8278 0
M  V30 11934 C 1162.44 -3.17391 -2.87135 0
M  V30 11935 C 1161.77 -3.21634 -4.27148 0
M  V30 11936 C 1163.07 -4.5599 -2.54697 0
M  V30 11937 H 1164.76 -2.73818 -1.21096 0
M  V30 11938 H 1162.31 -1.31754 -0.581108 0
M  V30 11939 H 1164.26 -2.20765 -3.58944 0
M  V30 11940 H 1162.99 -1.07193 -3.08508 0
M  V30 11941 H 1161.65 -2.98071 -2.13422 0
M  V30 11942 H 1161.29 -2.2484 -4.49951 0
M  V30 11943 H 1160.99 -3.99414 -4.30978 0
M  V30 11944 H 1162.52 -3.42957 -5.05186 0
M  V30 11945 H 1163.93 -4.75294 -3.20575 0
M  V30 11946 H 1162.33 -5.36008 -2.69844 0
M  V30 11947 H 1163.4 -4.61133 -1.49949 0
M  V30 11948 N 1164.74 0.6258 -1.44643 0
M  V30 11949 C 1165.99 1.38525 -1.47706 0
M  V30 11950 C 1166.32 1.94179 -0.111703 0
M  V30 11951 O 1165.57 1.74432 0.887237 0
M  V30 11952 C 1165.87 2.56466 -2.48917 0
M  V30 11953 C 1165.54 2.19069 -3.94106 0
M  V30 11954 C 1164.2 2.08583 -4.33643 0
M  V30 11955 C 1166.55 1.89608 -4.85488 0
M  V30 11956 C 1163.88 1.66831 -5.6248 0
M  V30 11957 C 1166.23 1.49347 -6.14718 0
M  V30 11958 C 1164.9 1.37406 -6.53204 0
M  V30 11959 H 1164.17 0.506899 -0.540494 0
M  V30 11960 H 1166.81 0.709128 -1.77887 0
M  V30 11961 H 1165.12 3.29335 -2.12239 0
M  V30 11962 H 1166.81 3.14695 -2.48532 0
M  V30 11963 H 1163.4 2.28151 -3.62829 0
M  V30 11964 H 1167.59 1.96616 -4.55693 0
M  V30 11965 H 1162.84 1.56195 -5.91112 0
M  V30 11966 H 1167.02 1.2559 -6.84982 0
M  V30 11967 H 1164.65 1.04826 -7.52938 0
M  V30 11968 N 1166.22 1.31629 0.866686 0
M  V30 11969 C 1167.47 1.21503 1.61998 0
M  V30 11970 C 1167.8 -0.226044 1.93182 0
M  V30 11971 O 1167.05 -1.17573 1.56445 0
M  V30 11972 C 1167.35 2.00775 2.95676 0
M  V30 11973 C 1167.02 3.50245 2.83971 0
M  V30 11974 C 1165.68 3.91 2.80485 0
M  V30 11975 C 1168.03 4.45347 2.70769 0
M  V30 11976 C 1165.36 5.25119 2.61661 0
M  V30 11977 C 1167.71 5.79595 2.53481 0
M  V30 11978 C 1166.37 6.19567 2.48381 0
M  V30 11979 H 1165.64 0.44461 0.592792 0
M  V30 11980 H 1168.29 1.62929 1.00629 0
M  V30 11981 H 1166.6 1.52039 3.61097 0
M  V30 11982 H 1168.29 1.90318 3.52959 0
M  V30 11983 H 1164.88 3.17869 2.87502 0
M  V30 11984 H 1169.07 4.14789 2.72514 0
M  V30 11985 H 1164.32 5.5516 2.5614 0
M  V30 11986 H 1168.5 6.5291 2.42243 0
M  V30 11987 H 1166.12 7.23434 2.33554 0
M  V30 11988 N 1167.7 -1.08142 1.14644 0
M  V30 11989 C 1169.12 -1.32656 0.887388 0
M  V30 11990 C 1169.32 -1.95942 -0.470012 0
M  V30 11991 O 1168.37 -2.21417 -1.21371 0
M  V30 11992 C 1169.68 -2.22549 2.02219 0
M  V30 11993 C 1171.23 -2.36021 2.0558 0
M  V30 11994 C 1171.71 -3.29257 3.18361 0
M  V30 11995 N 1173.2 -3.36835 3.17957 0
M  V30 11996 C 1173.93 -4.09017 4.01862 0
M  V30 11997 N 1173.43 -4.83882 4.95812 0
M  V30 11998 N 1175.22 -4.04875 3.89913 0
M  V30 11999 H 1167.37 -0.654457 2.02066 0
M  V30 12000 H 1169.64 -0.350947 0.880648 0
M  V30 12001 H 1169.34 -1.83296 3.00159 0
M  V30 12002 H 1169.22 -3.23027 1.94765 0
M  V30 12003 H 1171.6 -2.74531 1.08245 0
M  V30 12004 H 1171.68 -1.35275 2.17105 0
M  V30 12005 H 1171.33 -2.91468 4.15944 0
M  V30 12006 H 1171.26 -4.29938 3.04074 0
M  V30 12007 H 1173.75 -2.83465 2.49912 0
M  V30 12008 H 1174.06 -5.3643 5.56294 0
M  V30 12009 H 1172.41 -4.82926 4.99808 0
M  V30 12010 H 1175.6 -3.45496 3.15833 0
M  V30 12011 H 1175.77 -4.60866 4.55529 0
M  V30 12012 N 1169.18 -0.941978 -1.26351 0
M  V30 12013 C 1170.13 -0.423053 -2.24041 0
M  V30 12014 C 1171.11 0.480668 -1.53553 0
M  V30 12015 O 1172.3 0.315783 -1.7416 0
M  V30 12016 C 1169.43 0.309814 -3.41899 0
M  V30 12017 C 1168.52 -0.611245 -4.19672 0
M  V30 12018 N 1168.91 -1.73738 -4.75025 0
M  V30 12019 C 1167.21 -0.416985 -4.44046 0
M  V30 12020 C 1167.91 -2.31141 -5.33806 0
M  V30 12021 N 1166.88 -1.59934 -5.1954 0
M  V30 12022 H 1170.69 -1.28268 -2.64433 0
M  V30 12023 H 1168.2 -0.797941 -1.41445 0
M  V30 12024 H 1170.2 0.698618 -4.11005 0
M  V30 12025 H 1168.86 1.1662 -3.03035 0
M  V30 12026 H 1169.87 -2.1195 -4.72544 0
M  V30 12027 H 1166.55 0.397561 -4.15603 0
M  V30 12028 H 1167.94 -3.26029 -5.87499 0
M  V30 12029 N 1170.66 1.40747 -0.709091 0
M  V30 12030 C 1171.9 2.013 -0.246174 0
M  V30 12031 C 1172.23 1.56078 1.15556 0
M  V30 12032 O 1171.51 0.777941 1.78265 0
M  V30 12033 C 1171.79 3.58685 -0.318945 0
M  V30 12034 C 1171.65 4.13997 -1.75859 0
M  V30 12035 C 1172.96 4.38981 0.31358 0
M  V30 12036 H 1170.08 0.73137 -0.0909255 0
M  V30 12037 H 1172.73 1.67312 -0.900365 0
M  V30 12038 H 1170.88 3.8777 0.23805 0
M  V30 12039 H 1172.55 3.95735 -2.37047 0
M  V30 12040 H 1170.79 3.6853 -2.28841 0
M  V30 12041 H 1171.46 5.23158 -1.76095 0
M  V30 12042 H 1173.94 4.15789 -0.160939 0
M  V30 12043 H 1172.81 5.48409 0.232184 0
M  V30 12044 H 1173.07 4.19474 1.39621 0
M  V30 12045 N 1172.13 0.454803 1.50895 0
M  V30 12046 C 1173.08 -0.361974 2.29766 0
M  V30 12047 C 1174.08 -1.00519 1.36353 0
M  V30 12048 O 1175.28 -0.938159 1.53618 0
M  V30 12049 H 1171.66 -0.135559 0.739681 0
M  V30 12050 H 1173.63 0.323853 2.96637 0
M  V30 12051 C 1172.38 -1.44078 3.16444 0
M  V30 12052 H 1171.7 -0.955212 3.88221 0
M  V30 12053 H 1173.14 -1.98518 3.74655 0
M  V30 12054 C 1171.6 -2.43374 2.32961 0
M  V30 12055 O 1172.13 -3.48295 2.00133 0
M  V30 12056 N 1170.33 -2.14689 1.95849 0
M  V30 12057 H 1169.88 -1.29392 2.22745 0
M  V30 12058 H 1169.84 -2.81363 1.40292 0
M  V30 12059 N 1173.61 -1.56489 0.186789 0
M  V30 12060 C 1174.56 -2.18703 -0.737402 0
M  V30 12061 C 1175.53 -1.13171 -1.21579 0
M  V30 12062 O 1176.71 -1.41388 -1.28118 0
M  V30 12063 C 1173.85 -2.84394 -1.95484 0
M  V30 12064 C 1172.97 -4.04429 -1.51859 0
M  V30 12065 C 1172.1 -4.58001 -2.69089 0
M  V30 12066 C 1171.14 -5.70412 -2.22029 0
M  V30 12067 N 1170.28 -6.18425 -3.32407 0
M  V30 12068 H 1175.12 -2.97327 -0.200105 0
M  V30 12069 H 1172.65 -1.46842 -0.087032 0
M  V30 12070 H 1174.61 -3.20646 -2.66912 0
M  V30 12071 H 1173.24 -2.08347 -2.46559 0
M  V30 12072 H 1172.29 -3.73895 -0.70048 0
M  V30 12073 H 1173.61 -4.85756 -1.13327 0
M  V30 12074 H 1172.76 -4.96515 -3.48652 0
M  V30 12075 H 1171.5 -3.75764 -3.1089 0
M  V30 12076 H 1170.5 -5.31434 -1.40918 0
M  V30 12077 H 1171.73 -6.54461 -1.81268 0
M  V30 12078 H 1169.68 -5.39113 -3.73755 0
M  V30 12079 H 1169.59 -6.94782 -2.98017 0
M  V30 12080 H 1170.86 -6.61592 -4.12209 0
M  V30 12081 N 1175.09 0.086862 -1.5736 0
M  V30 12082 C 1176.5 0.640442 -1.75372 0
M  V30 12083 C 1176.85 1.78693 -0.81014 0
M  V30 12084 O 1175.98 2.16398 0.00940712 0
M  V30 12085 C 1176.57 1.16856 -3.1801 0
M  V30 12086 C 1175.13 1.66813 -3.37417 0
M  V30 12087 C 1174.28 0.58116 -2.71142 0
M  V30 12088 H 1177.23 -0.139249 -1.58088 0
M  V30 12089 H 1177.25 2.03772 -3.21337 0
M  V30 12090 H 1176.76 0.333909 -3.86661 0
M  V30 12091 H 1174.86 2.52652 -2.73858 0
M  V30 12092 H 1174.98 1.75545 -4.45781 0
M  V30 12093 H 1173.34 1.0226 -2.3327 0
M  V30 12094 H 1174.12 -0.243047 -3.42439 0
M  V30 12095 N 1176.57 1.53483 0.357892 0
M  V30 12096 C 1177.52 1.81143 1.45911 0
M  V30 12097 C 1178.51 0.681002 1.55109 0
M  V30 12098 O 1179.72 0.864086 1.57904 0
M  V30 12099 H 1176.09 0.573663 0.486225 0
M  V30 12100 H 1178.06 2.733 1.19789 0
M  V30 12101 C 1176.81 2.02509 2.8264 0
M  V30 12102 H 1176.13 2.88938 2.76324 0
M  V30 12103 H 1177.57 2.25837 3.58851 0
M  V30 12104 C 1176.03 0.806412 3.27106 0
M  V30 12105 O 1176.56 -0.00116809 4.017 0
M  V30 12106 N 1174.77 0.627677 2.8374 0
M  V30 12107 H 1174.32 1.28601 2.23203 0
M  V30 12108 H 1174.27 -0.186301 3.13848 0
M  V30 12109 N 1178.05 -0.61812 1.44973 0
M  V30 12110 C 1179.46 -1.19994 1.43033 0
M  V30 12111 C 1179.81 -1.95607 0.152422 0
M  V30 12112 O 1178.93 -2.03114 -0.746571 0
M  V30 12113 C 1179.53 -2.18269 2.59122 0
M  V30 12114 C 1178.09 -2.7185 2.60336 0
M  V30 12115 C 1177.23 -1.4707 2.35086 0
M  V30 12116 H 1180.18 -0.408034 1.53365 0
M  V30 12117 H 1180.21 -3.01113 2.32619 0
M  V30 12118 H 1179.72 -1.63208 3.52115 0
M  V30 12119 H 1177.82 -3.30878 1.7132 0
M  V30 12120 H 1177.93 -3.17001 3.59231 0
M  V30 12121 H 1176.3 -1.75658 1.84435 0
M  V30 12122 H 1177.08 -0.938928 3.30211 0
M  V30 12123 N 1179.52 -1.32087 -0.859693 0
M  V30 12124 C 1180.49 -1.20546 -1.94939 0
M  V30 12125 C 1181.49 -0.12982 -1.60275 0
M  V30 12126 O 1182.68 -0.379853 -1.70008 0
M  V30 12127 C 1179.81 -0.852717 -3.30063 0
M  V30 12128 H 1181 -2.17384 -2.06602 0
M  V30 12129 H 1178.55 -1.15846 -1.04926 0
M  V30 12130 H 1179.29 0.114059 -3.24099 0
M  V30 12131 H 1179.07 -1.63035 -3.56598 0
M  V30 12132 H 1180.56 -0.796145 -4.09941 0
M  V30 12133 N 1181 1.07532 -1.15215 0
M  V30 12134 C 1181.96 2.1286 -0.84989 0
M  V30 12135 C 1182.96 1.60103 0.149524 0
M  V30 12136 O 1184.15 1.74017 -0.0798918 0
M  V30 12137 C 1181.29 3.3984 -0.268617 0
M  V30 12138 H 1182.48 2.41106 -1.78347 0
M  V30 12139 H 1180.03 1.23392 -0.959386 0
M  V30 12140 H 1180.77 3.17235 0.67325 0
M  V30 12141 H 1180.55 3.79433 -0.988592 0
M  V30 12142 H 1182.04 4.17533 -0.0746554 0
M  V30 12143 N 1182.48 0.948665 1.2585 0
M  V30 12144 C 1183.73 0.595938 1.92695 0
M  V30 12145 C 1184.04 -0.870229 1.75175 0
M  V30 12146 O 1185.25 -1.33266 2.36543 0
M  V30 12147 C 1183.7 1.01511 3.45288 0
M  V30 12148 C 1183.31 2.50341 3.71528 0
M  V30 12149 C 1185.06 0.734635 4.18095 0
M  V30 12150 C 1182.96 2.8609 5.17597 0
M  V30 12151 H 1181.89 0.219171 0.721443 0
M  V30 12152 H 1184.54 1.15231 1.42807 0
M  V30 12153 H 1182.93 0.387201 3.94102 0
M  V30 12154 H 1184.1 3.18101 3.3339 0
M  V30 12155 H 1182.42 2.75797 3.11969 0
M  V30 12156 H 1185.01 0.977962 5.25681 0
M  V30 12157 H 1185.36 -0.328807 4.14999 0
M  V30 12158 H 1185.89 1.32262 3.75169 0
M  V30 12159 H 1182.63 3.91427 5.25799 0
M  V30 12160 H 1182.15 2.22999 5.56805 0
M  V30 12161 H 1183.83 2.74959 5.85668 0
M  V30 12162 N 1183.96 -1.40369 0.716545 0
M  V30 12163 C 1185.19 -2.05181 0.266143 0
M  V30 12164 C 1185.6 -1.53988 -1.09239 0
M  V30 12165 O 1184.96 -0.696859 -1.68672 0
M  V30 12166 C 1185.01 -3.60713 0.238384 0
M  V30 12167 O 1184.73 -4.10018 1.54328 0
M  V30 12168 C 1186.23 -4.42701 -0.230453 0
M  V30 12169 H 1183.45 -0.66028 0.119463 0
M  V30 12170 H 1186 -1.7976 0.97502 0
M  V30 12171 H 1184.15 -3.85101 -0.421466 0
M  V30 12172 H 1184.56 -5.0422 1.4444 0
M  V30 12173 H 1186.04 -5.51642 -0.198728 0
M  V30 12174 H 1186.52 -4.20354 -1.27276 0
M  V30 12175 H 1187.12 -4.23423 0.399155 0
M  V30 12176 N 1185.44 -0.462799 -1.50652 0
M  V30 12177 C 1186.66 0.0952726 -2.07181 0
M  V30 12178 C 1187.09 1.33479 -1.32533 0
M  V30 12179 O 1186.44 1.77473 -0.370564 0
M  V30 12180 C 1186.49 0.370592 -3.58691 0
M  V30 12181 O 1185.6 1.4526 -3.85971 0
M  V30 12182 H 1184.94 -0.00932702 -0.663934 0
M  V30 12183 H 1187.47 -0.651458 -1.93951 0
M  V30 12184 H 1187.48 0.613551 -4.0336 0
M  V30 12185 H 1186.15 -0.535219 -4.12442 0
M  V30 12186 H 1184.73 1.1976 -3.53146 0
M  V30 12187 N 1186.91 1.56388 -0.195085 0
M  V30 12188 C 1188.16 1.97872 0.444344 0
M  V30 12189 C 1188.49 1.0819 1.61271 0
M  V30 12190 O 1187.77 0.133904 1.94039 0
M  V30 12191 C 1188.05 3.48556 0.90449 0
M  V30 12192 C 1187.9 4.49015 -0.265693 0
M  V30 12193 C 1189.22 4.02938 1.76999 0
M  V30 12194 H 1186.34 0.719413 0.160041 0
M  V30 12195 H 1188.98 1.87835 -0.286005 0
M  V30 12196 H 1187.13 3.5724 1.52682 0
M  V30 12197 H 1188.81 4.52368 -0.903363 0
M  V30 12198 H 1187.05 4.23987 -0.917462 0
M  V30 12199 H 1187.72 5.51912 0.0987834 0
M  V30 12200 H 1190.2 3.97033 1.24514 0
M  V30 12201 H 1189.07 5.08741 2.06092 0
M  V30 12202 H 1189.33 3.48197 2.72418 0
M  V30 12203 N 1188.39 -0.0785156 1.57404 0
M  V30 12204 C 1189.36 -1.07835 2.02248 0
M  V30 12205 C 1190.36 -1.31987 0.918475 0
M  V30 12206 O 1191.55 -1.27821 1.18353 0
M  V30 12207 C 1188.68 -2.42361 2.39737 0
M  V30 12208 H 1189.87 -0.691995 2.91807 0
M  V30 12209 H 1187.42 -0.32405 1.52904 0
M  V30 12210 H 1188.16 -2.85841 1.53183 0
M  V30 12211 H 1187.94 -2.26174 3.20293 0
M  V30 12212 H 1189.43 -3.14241 2.75031 0
M  V30 12213 N 1189.87 -1.5367 -0.349747 0
M  V30 12214 C 1191.29 -1.43796 -0.692457 0
M  V30 12215 C 1191.49 -0.58972 -1.92677 0
M  V30 12216 O 1190.54 -0.078294 -2.52379 0
M  V30 12217 C 1191.86 -2.872 -0.890881 0
M  V30 12218 C 1193.4 -2.96935 -0.989892 0
M  V30 12219 C 1193.88 -4.41433 -1.22068 0
M  V30 12220 N 1195.37 -4.44932 -1.28802 0
M  V30 12221 C 1196.1 -5.53864 -1.48398 0
M  V30 12222 N 1195.6 -6.72814 -1.65208 0
M  V30 12223 N 1197.39 -5.41467 -1.50896 0
M  V30 12224 H 1189.54 -2.07317 0.461895 0
M  V30 12225 H 1191.81 -0.936895 0.144681 0
M  V30 12226 H 1191.51 -3.51656 -0.0555095 0
M  V30 12227 H 1191.39 -3.31784 -1.79442 0
M  V30 12228 H 1193.77 -2.32622 -1.81579 0
M  V30 12229 H 1193.86 -2.55721 -0.0633906 0
M  V30 12230 H 1193.5 -5.06325 -0.399729 0
M  V30 12231 H 1193.43 -4.80233 -2.16064 0
M  V30 12232 H 1195.92 -3.59214 -1.17361 0
M  V30 12233 H 1196.23 -7.51598 -1.79779 0
M  V30 12234 H 1194.58 -6.7577 -1.62356 0
M  V30 12235 H 1197.77 -4.47498 -1.37342 0
M  V30 12236 H 1197.94 -6.26423 -1.65826 0
M  V30 12237 N 1191.35 0.610423 -1.45298 0
M  V30 12238 C 1192.6 1.36558 -1.48441 0
M  V30 12239 C 1192.91 1.95173 -0.129137 0
M  V30 12240 O 1194.12 2.71473 -0.0381956 0
M  V30 12241 C 1192.57 2.47349 -2.61431 0
M  V30 12242 C 1192.18 1.95158 -4.03258 0
M  V30 12243 C 1193.92 3.24383 -2.73817 0
M  V30 12244 C 1191.83 3.03414 -5.07635 0
M  V30 12245 H 1190.76 0.513253 -0.552347 0
M  V30 12246 H 1193.41 0.654535 -1.7143 0
M  V30 12247 H 1191.79 3.21125 -2.31721 0
M  V30 12248 H 1192.97 1.2811 -4.42634 0
M  V30 12249 H 1191.28 1.30878 -3.95297 0
M  V30 12250 H 1193.88 4.05123 -3.48969 0
M  V30 12251 H 1194.22 3.75205 -1.80352 0
M  V30 12252 H 1194.76 2.57705 -3.03039 0
M  V30 12253 H 1191.5 2.57512 -6.028 0
M  V30 12254 H 1191.02 3.69039 -4.72833 0
M  V30 12255 H 1192.69 3.67844 -5.32259 0
M  V30 12256 N 1192.83 1.32541 0.852676 0
M  V30 12257 C 1194.06 1.26037 1.63702 0
M  V30 12258 C 1194.46 -0.173583 1.88402 0
M  V30 12259 O 1193.81 -1.12175 1.45473 0
M  V30 12260 C 1193.87 1.95245 3.01861 0
M  V30 12261 C 1193.53 3.44576 3.00193 0
M  V30 12262 C 1194.53 4.40026 2.76899 0
M  V30 12263 C 1192.22 3.86541 3.20766 0
M  V30 12264 C 1194.21 5.75414 2.74185 0
M  V30 12265 C 1191.9 5.22038 3.17678 0
M  V30 12266 C 1192.89 6.16286 2.94416 0
M  V30 12267 O 1192.58 7.49303 2.91206 0
M  V30 12268 H 1192.31 0.436073 0.516543 0
M  V30 12269 H 1194.87 1.75251 1.07127 0
M  V30 12270 H 1193.1 1.40603 3.60233 0
M  V30 12271 H 1194.79 1.82423 3.62597 0
M  V30 12272 H 1195.55 4.0893 2.6077 0
M  V30 12273 H 1191.43 3.13603 3.37897 0
M  V30 12274 H 1194.98 6.4895 2.55947 0
M  V30 12275 H 1190.87 5.52762 3.33353 0
M  V30 12276 H 1191.64 7.58686 3.07146 0
M  V30 12277 N 1194.3 -1.0692 1.15784 0
M  V30 12278 C 1195.55 -1.796 0.935429 0
M  V30 12279 C 1195.88 -1.86935 -0.537173 0
M  V30 12280 O 1195.13 -1.35244 -1.41448 0
M  V30 12281 C 1195.43 -3.24389 1.50022 0
M  V30 12282 C 1195.1 -3.37145 2.99406 0
M  V30 12283 C 1193.76 -3.40334 3.40186 0
M  V30 12284 C 1196.11 -3.39584 3.95389 0
M  V30 12285 C 1193.44 -3.43569 4.75581 0
M  V30 12286 C 1195.79 -3.44356 5.30661 0
M  V30 12287 C 1194.46 -3.45824 5.70931 0
M  V30 12288 H 1193.73 -0.657201 0.342298 0
M  V30 12289 H 1196.37 -1.25784 1.44397 0
M  V30 12290 H 1194.68 -3.81015 0.91297 0
M  V30 12291 H 1196.38 -3.79209 1.30389 0
M  V30 12292 H 1192.97 -3.35365 2.66887 0
M  V30 12293 H 1197.15 -3.36337 3.64954 0
M  V30 12294 H 1192.41 -3.43006 5.06119 0
M  V30 12295 H 1196.58 -3.4519 6.04828 0
M  V30 12296 H 1194.21 -3.48084 6.75826 0
M  V30 12297 N 1195.78 -0.955326 -1.25345 0
M  V30 12298 C 1196.73 -0.474888 -2.25862 0
M  V30 12299 C 1197.7 0.472996 -1.59223 0
M  V30 12300 O 1198.88 0.386094 -1.86853 0
M  V30 12301 C 1196.02 0.240554 -3.44261 0
M  V30 12302 C 1195.14 -0.74465 -4.25534 0
M  V30 12303 C 1194.27 -0.00657513 -5.312 0
M  V30 12304 C 1193.31 -0.982666 -6.04161 0
M  V30 12305 N 1192.45 -0.275418 -7.0156 0
M  V30 12306 H 1197.29 -1.33693 -2.66327 0
M  V30 12307 H 1194.83 -0.670439 -1.30933 0
M  V30 12308 H 1196.78 0.671933 -4.11753 0
M  V30 12309 H 1195.41 1.06664 -3.04668 0
M  V30 12310 H 1194.47 -1.29451 -3.57696 0
M  V30 12311 H 1195.78 -1.48948 -4.76042 0
M  V30 12312 H 1194.93 0.483404 -6.04771 0
M  V30 12313 H 1193.67 0.771035 -4.81567 0
M  V30 12314 H 1192.68 -1.48364 -5.29404 0
M  V30 12315 H 1193.9 -1.76052 -6.55883 0
M  V30 12316 H 1191.85 0.483441 -6.54216 0
M  V30 12317 H 1191.76 -0.959324 -7.49889 0
M  V30 12318 H 1193.03 0.193002 -7.79261 0
M  V30 12319 N 1197.26 1.39987 -0.723979 0
M  V30 12320 C 1198.67 1.83606 -0.338461 0
M  V30 12321 C 1199.02 1.6051 1.12831 0
M  V30 12322 O 1198.15 1.09041 1.8692 0
M  V30 12323 C 1198.74 3.33308 -0.607533 0
M  V30 12324 C 1197.3 3.75389 -0.275632 0
M  V30 12325 C 1196.45 2.6311 -0.875699 0
M  V30 12326 H 1199.4 1.29135 -0.922483 0
M  V30 12327 H 1199.42 3.80297 0.124424 0
M  V30 12328 H 1198.93 3.50087 -1.67514 0
M  V30 12329 H 1197.03 3.64203 0.786579 0
M  V30 12330 H 1197.15 4.73185 -0.750492 0
M  V30 12331 H 1195.51 2.5289 -0.303122 0
M  V30 12332 H 1196.29 2.82698 -1.94774 0
M  V30 12333 N 1198.74 0.470782 1.50404 0
M  V30 12334 C 1199.69 -0.32355 2.28521 0
M  V30 12335 C 1200.66 -0.987472 1.3356 0
M  V30 12336 O 1201.84 -0.999969 1.62497 0
M  V30 12337 C 1198.98 -1.39977 3.15437 0
M  V30 12338 C 1198.09 -0.750656 4.25428 0
M  V30 12339 C 1197.23 -1.80474 4.99602 0
M  V30 12340 C 1196.27 -1.13586 6.01469 0
M  V30 12341 N 1195.41 -2.13279 6.68922 0
M  V30 12342 H 1200.25 0.348902 2.9595 0
M  V30 12343 H 1197.78 0.183908 1.45946 0
M  V30 12344 H 1199.74 -2.0354 3.6418 0
M  V30 12345 H 1198.37 -2.04139 2.50054 0
M  V30 12346 H 1197.42 -0.00247092 3.804 0
M  V30 12347 H 1198.73 -0.222638 4.98303 0
M  V30 12348 H 1197.89 -2.51619 5.52062 0
M  V30 12349 H 1196.63 -2.36657 4.26433 0
M  V30 12350 H 1195.63 -0.410042 5.48269 0
M  V30 12351 H 1196.86 -0.580935 6.76611 0
M  V30 12352 H 1194.8 -2.68479 5.98544 0
M  V30 12353 H 1194.72 -1.65461 7.37671 0
M  V30 12354 H 1195.99 -2.83804 7.26 0
M  V30 12355 N 1200.22 -1.56282 0.203376 0
M  V30 12356 C 1201.17 -2.16094 -0.727145 0
M  V30 12357 C 1202.15 -1.10404 -1.17046 0
M  V30 12358 O 1203.34 -1.36444 -1.12748 0
M  V30 12359 C 1200.47 -2.83029 -1.94293 0
M  V30 12360 C 1199.56 -3.9592 -1.52013 0
M  V30 12361 N 1199.95 -4.99292 -0.808794 0
M  V30 12362 C 1198.25 -4.07674 -1.80881 0
M  V30 12363 C 1198.95 -5.78641 -0.595738 0
M  V30 12364 N 1197.92 -5.31362 -1.14697 0
M  V30 12365 H 1201.73 -2.93378 -0.175041 0
M  V30 12366 H 1199.24 -1.624 0.00390859 0
M  V30 12367 H 1201.24 -3.24277 -2.62012 0
M  V30 12368 H 1199.9 -2.07235 -2.49968 0
M  V30 12369 H 1200.91 -5.15823 -0.463383 0
M  V30 12370 H 1197.59 -3.43016 -2.38005 0
M  V30 12371 H 1198.98 -6.71893 -0.0308618 0
M  V30 12372 N 1201.7 0.070167 -1.57444 0
M  V30 12373 C 1202.94 0.770153 -1.87607 0
M  V30 12374 C 1203.27 1.77143 -0.795875 0
M  V30 12375 O 1202.55 1.93533 0.193674 0
M  V30 12376 C 1202.83 1.47668 -3.2843 0
M  V30 12377 C 1202.69 0.491712 -4.47104 0
M  V30 12378 C 1204 2.42118 -3.67514 0
M  V30 12379 H 1201.12 0.278519 -0.682346 0
M  V30 12380 H 1203.77 0.0333184 -1.89971 0
M  V30 12381 H 1201.92 2.10476 -3.26546 0
M  V30 12382 H 1203.59 -0.131283 -4.61113 0
M  V30 12383 H 1201.83 -0.192817 -4.33371 0
M  V30 12384 H 1202.5 1.02372 -5.42424 0
M  V30 12385 H 1204.98 1.89387 -3.70502 0
M  V30 12386 H 1203.85 2.88556 -4.66933 0
M  V30 12387 H 1204.11 3.26995 -2.97534 0
M  V30 12388 N 1203.17 1.53854 0.341593 0
M  V30 12389 C 1204.59 1.44161 0.684821 0
M  V30 12390 C 1204.79 0.599929 1.92362 0
M  V30 12391 O 1203.85 0.0916771 2.52334 0
M  V30 12392 C 1205.16 2.87668 0.875637 0
M  V30 12393 C 1206.71 2.97455 0.974131 0
M  V30 12394 C 1207.18 4.42075 1.19725 0
M  V30 12395 N 1208.67 4.45609 1.2644 0
M  V30 12396 C 1209.41 5.54643 1.45459 0
M  V30 12397 N 1208.9 6.7368 1.61637 0
M  V30 12398 N 1210.7 5.4226 1.48022 0
M  V30 12399 H 1202.85 2.07069 -0.472883 0
M  V30 12400 H 1205.11 0.936114 -0.149648 0
M  V30 12401 H 1204.82 3.51681 0.0368595 0
M  V30 12402 H 1204.69 3.32731 1.7768 0
M  V30 12403 H 1207.08 2.33582 1.80343 0
M  V30 12404 H 1207.16 2.55751 0.0498282 0
M  V30 12405 H 1206.8 5.06529 0.372872 0
M  V30 12406 H 1206.73 4.81372 2.13515 0
M  V30 12407 H 1209.22 3.59831 1.15455 0
M  V30 12408 H 1209.54 7.52541 1.7579 0
M  V30 12409 H 1207.88 6.76622 1.5877 0
M  V30 12410 H 1211.07 4.48221 1.34966 0
M  V30 12411 H 1211.25 6.27293 1.62502 0
M  V30 12412 N 1204.65 -0.602709 1.4562 0
M  V30 12413 C 1205.61 -1.69508 1.54271 0
M  V30 12414 C 1206.61 -1.55171 0.421727 0
M  V30 12415 O 1207.8 -1.60151 0.685375 0
M  V30 12416 C 1204.94 -3.0881 1.44392 0
M  V30 12417 H 1206.13 -1.63203 2.51605 0
M  V30 12418 H 1203.68 -0.818857 1.33133 0
M  V30 12419 H 1204.42 -3.20689 0.482614 0
M  V30 12420 H 1204.2 -3.20625 2.25704 0
M  V30 12421 H 1205.69 -3.8837 1.53488 0
M  V30 12422 N 1206.13 -1.32992 -0.845635 0
M  V30 12423 C 1207.38 -1.25258 -1.60256 0
M  V30 12424 C 1207.73 0.181685 -1.9154 0
M  V30 12425 O 1207.02 1.12193 -1.55316 0
M  V30 12426 C 1207.22 -2.05454 -2.92444 0
M  V30 12427 C 1207.05 -3.56533 -2.7407 0
M  V30 12428 C 1205.82 -4.25857 -2.71981 0
M  V30 12429 C 1208.01 -4.51003 -2.47186 0
M  V30 12430 N 1206 -5.6293 -2.44913 0
M  V30 12431 C 1207.37 -5.75917 -2.29607 0
M  V30 12432 C 1209.42 -4.40162 -2.32727 0
M  V30 12433 C 1208.13 -6.91214 -1.99037 0
M  V30 12434 C 1210.15 -5.55267 -2.0355 0
M  V30 12435 C 1209.51 -6.79186 -1.86777 0
M  V30 12436 H 1205.61 -0.513536 -0.58975 0
M  V30 12437 H 1208.2 -1.67458 -0.993277 0
M  V30 12438 H 1206.37 -1.65585 -3.51335 0
M  V30 12439 H 1208.1 -1.89543 -3.57569 0
M  V30 12440 H 1204.85 -3.78064 -2.85245 0
M  V30 12441 H 1205.28 -6.3517 -2.34282 0
M  V30 12442 H 1209.92 -3.44998 -2.4441 0
M  V30 12443 H 1207.64 -7.86381 -1.86091 0
M  V30 12444 H 1211.22 -5.48811 -1.93127 0
M  V30 12445 H 1210.1 -7.66748 -1.64523 0
M  V30 12446 N 1207.61 1.06304 -1.1635 0
M  V30 12447 C 1208.85 1.79366 -0.94634 0
M  V30 12448 C 1209.19 1.86981 0.524569 0
M  V30 12449 O 1208.46 1.36134 1.38917 0
M  V30 12450 C 1208.74 3.23861 -1.57436 0
M  V30 12451 C 1208.6 3.24327 -3.1166 0
M  V30 12452 C 1209.92 4.21409 -1.26895 0
M  V30 12453 H 1207.04 0.65115 -0.345215 0
M  V30 12454 H 1209.68 1.24325 -1.43678 0
M  V30 12455 H 1207.83 3.70862 -1.15731 0
M  V30 12456 H 1209.5 2.85488 -3.62346 0
M  V30 12457 H 1207.74 2.62983 -3.44997 0
M  V30 12458 H 1208.41 4.2626 -3.50723 0
M  V30 12459 H 1210.89 3.8285 -1.62989 0
M  V30 12460 H 1209.77 5.20778 -1.73439 0
M  V30 12461 H 1210.03 4.41701 -0.187768 0
M  V30 12462 N 1209.09 0.96196 1.24836 0
M  V30 12463 C 1210.5 0.660388 1.7463 0
M  V30 12464 C 1210.85 -0.824064 1.78055 0
M  V30 12465 O 1209.97 -1.64485 1.40619 0
M  V30 12466 C 1210.57 1.19205 3.17137 0
M  V30 12467 C 1209.13 0.940493 3.64461 0
M  V30 12468 C 1208.27 1.33076 2.43282 0
M  V30 12469 H 1211.22 1.13794 1.1062 0
M  V30 12470 H 1211.25 0.555595 3.76422 0
M  V30 12471 H 1210.76 2.27247 3.14612 0
M  V30 12472 H 1208.86 -0.124645 3.72391 0
M  V30 12473 H 1208.97 1.5821 4.52224 0
M  V30 12474 H 1207.34 0.749139 2.43434 0
M  V30 12475 H 1208.12 2.42055 2.43442 0
M  V30 12476 N 1210.56 -1.39601 0.731392 0
M  V30 12477 C 1211.98 -1.54334 0.406594 0
M  V30 12478 C 1212.18 -1.69925 -1.08295 0
M  V30 12479 O 1211.24 -1.69771 -1.86906 0
M  V30 12480 C 1212.55 -2.76303 1.18647 0
M  V30 12481 C 1214.1 -2.90135 1.17433 0
M  V30 12482 C 1214.57 -4.15038 1.93669 0
M  V30 12483 N 1216.06 -4.2207 1.90817 0
M  V30 12484 C 1216.8 -5.17656 2.46616 0
M  V30 12485 N 1216.29 -6.19054 3.11037 0
M  V30 12486 N 1218.09 -5.09847 2.3667 0
M  V30 12487 H 1210.24 -1.27728 1.69703 0
M  V30 12488 H 1212.5 -0.6188 0.718186 0
M  V30 12489 H 1212.21 -2.71113 2.24032 0
M  V30 12490 H 1212.08 -3.68866 0.788514 0
M  V30 12491 H 1214.47 -2.9482 0.128615 0
M  V30 12492 H 1214.55 -1.98646 1.61163 0
M  V30 12493 H 1214.19 -4.11115 2.9824 0
M  V30 12494 H 1214.12 -5.05565 1.47349 0
M  V30 12495 H 1216.61 -3.49437 1.43882 0
M  V30 12496 H 1216.93 -6.88444 3.51091 0
M  V30 12497 H 1215.27 -6.19452 3.15126 0
M  V30 12498 H 1218.46 -4.29566 1.85987 0
M  V30 12499 H 1218.64 -5.84165 2.80455 0
M  V30 12500 N 1212.04 -0.478751 -1.50152 0
M  V30 12501 C 1213.45 -0.0254907 -1.86683 0
M  V30 12502 C 1213.8 1.38171 -1.39295 0
M  V30 12503 O 1212.93 2.0257 -0.761207 0
M  V30 12504 C 1213.52 -0.0394819 -3.38777 0
M  V30 12505 C 1212.08 0.35834 -3.7469 0
M  V30 12506 C 1211.23 -0.421667 -2.74075 0
M  V30 12507 H 1214.18 -0.692653 -1.42787 0
M  V30 12508 H 1214.2 0.760957 -3.72813 0
M  V30 12509 H 1213.71 -1.06378 -3.73236 0
M  V30 12510 H 1211.82 1.38671 -3.45834 0
M  V30 12511 H 1211.93 0.0543589 -4.79069 0
M  V30 12512 H 1210.29 0.125634 -2.5439 0
M  V30 12513 H 1211.08 -1.44562 -3.11379 0
M  V30 12514 N 1213.52 1.56172 -0.211661 0
M  V30 12515 C 1214.93 1.84307 0.297982 0
M  V30 12516 C 1215.28 1.1328 1.60194 0
M  V30 12517 O 1214.41 0.399137 2.12687 0
M  V30 12518 C 1215 3.34348 0.547428 0
M  V30 12519 C 1213.56 3.62835 1.0014 0
M  V30 12520 C 1212.71 2.77237 0.0590326 0
M  V30 12521 H 1215.66 1.5262 -0.435083 0
M  V30 12522 H 1215.68 3.54018 1.39469 0
M  V30 12523 H 1215.19 3.86015 -0.401778 0
M  V30 12524 H 1213.29 3.16616 1.96431 0
M  V30 12525 H 1213.41 4.70899 0.882653 0
M  V30 12526 H 1211.77 2.48377 0.564005 0
M  V30 12527 H 1212.55 3.31699 -0.884913 0
M  V30 12528 N 1215 -0.0618163 1.57479 0
M  V30 12529 C 1216.41 -0.416827 1.54061 0
M  V30 12530 C 1216.61 -1.78584 0.933277 0
M  V30 12531 O 1215.67 -2.46656 0.54009 0
M  V30 12532 C 1216.98 -0.348728 2.98671 0
M  V30 12533 C 1218.53 -0.428194 3.10057 0
M  V30 12534 C 1219.01 -0.389898 4.56337 0
M  V30 12535 N 1220.5 -0.449677 4.61012 0
M  V30 12536 C 1221.23 -0.442418 5.71691 0
M  V30 12537 N 1220.73 -0.389381 6.91705 0
M  V30 12538 N 1222.52 -0.489719 5.59963 0
M  V30 12539 H 1214.67 0.834487 1.9532 0
M  V30 12540 H 1216.94 0.314149 0.894435 0
M  V30 12541 H 1216.64 0.590738 3.46703 0
M  V30 12542 H 1216.52 -1.15511 3.59078 0
M  V30 12543 H 1218.9 -1.35808 2.61992 0
M  V30 12544 H 1218.98 0.406946 2.52542 0
M  V30 12545 H 1218.63 0.536186 5.05062 0
M  V30 12546 H 1218.56 -1.24271 5.11727 0
M  V30 12547 H 1221.05 -0.49451 3.74651 0
M  V30 12548 H 1221.36 -0.388042 7.71825 0
M  V30 12549 H 1219.71 -0.355918 6.94088 0
M  V30 12550 H 1222.9 -0.528915 4.65102 0
M  V30 12551 H 1223.07 -0.480592 6.46215 0
M  V30 12552 N 1216.48 -1.54033 -0.333429 0
M  V30 12553 C 1217.41 -1.85719 -1.4153 0
M  V30 12554 C 1218.39 -0.713144 -1.54429 0
M  V30 12555 O 1219.57 -0.965984 -1.68471 0
M  V30 12556 C 1216.7 -2.07578 -2.78439 0
M  V30 12557 C 1215.66 -3.23411 -2.80338 0
M  V30 12558 C 1214.98 -3.30622 -4.2023 0
M  V30 12559 C 1216.28 -4.6129 -2.44968 0
M  V30 12560 H 1217.98 -2.76325 -1.15261 0
M  V30 12561 H 1215.52 -1.32957 -0.55303 0
M  V30 12562 H 1217.48 -2.28329 -3.5418 0
M  V30 12563 H 1216.2 -1.13713 -3.06165 0
M  V30 12564 H 1214.86 -3.02531 -2.07052 0
M  V30 12565 H 1214.51 -2.34333 -4.45081 0
M  V30 12566 H 1214.21 -4.08466 -4.22409 0
M  V30 12567 H 1215.73 -3.53596 -4.97798 0
M  V30 12568 H 1217.14 -4.81987 -3.10421 0
M  V30 12569 H 1215.54 -5.41611 -2.58414 0
M  V30 12570 H 1216.61 -4.6421 -1.40134 0
M  V30 12571 N 1217.95 0.594978 -1.45938 0
M  V30 12572 C 1219.19 1.36479 -1.52161 0
M  V30 12573 C 1219.56 1.91296 -0.164295 0
M  V30 12574 O 1220.76 2.68609 -0.101247 0
M  V30 12575 C 1219.03 2.47286 -2.5804 0
M  V30 12576 S 1220.59 3.34855 -2.8358 0
M  V30 12577 H 1217.41 0.465134 -0.537746 0
M  V30 12578 H 1220.01 0.685257 -1.83097 0
M  V30 12579 H 1218.71 2.05386 -3.5531 0
M  V30 12580 H 1218.24 3.20025 -2.28795 0
M  V30 12581 H 1220.26 4.45788 -2.17916 0
M  V30 12582 N 1219.43 1.33438 0.838571 0
M  V30 12583 C 1220.84 1.22366 1.41009 0
M  V30 12584 C 1221.19 -0.157317 1.95568 0
M  V30 12585 O 1220.32 -1.05692 1.88834 0
M  V30 12586 C 1220.91 2.21542 2.56329 0
M  V30 12587 C 1219.47 2.14309 3.09433 0
M  V30 12588 C 1218.62 2.09012 1.82235 0
M  V30 12589 H 1221.57 1.45032 0.64431 0
M  V30 12590 H 1221.59 1.82332 3.33969 0
M  V30 12591 H 1221.1 3.22042 2.16589 0
M  V30 12592 H 1219.21 1.17113 3.53717 0
M  V30 12593 H 1219.32 3.04866 3.69586 0
M  V30 12594 H 1217.68 1.54492 2.02495 0
M  V30 12595 H 1218.47 3.11319 1.4469 0
M  V30 12596 N 1220.91 -1.05686 1.16912 0
M  V30 12597 C 1222.14 -1.82018 0.977392 0
M  V30 12598 C 1222.55 -1.83072 -0.477636 0
M  V30 12599 O 1221.89 -1.25296 -1.34338 0
M  V30 12600 C 1221.95 -3.29592 1.4356 0
M  V30 12601 C 1221.62 -3.5223 2.91175 0
M  V30 12602 C 1222.61 -3.44767 3.89142 0
M  V30 12603 C 1220.3 -3.79353 3.29236 0
M  V30 12604 C 1222.29 -3.64104 5.2317 0
M  V30 12605 C 1219.98 -3.98339 4.63432 0
M  V30 12606 C 1220.98 -3.90713 5.60207 0
M  V30 12607 O 1220.67 -4.09175 6.91976 0
M  V30 12608 H 1220.4 -0.580578 0.346273 0
M  V30 12609 H 1222.95 -1.34199 1.55498 0
M  V30 12610 H 1221.18 -3.78302 0.80153 0
M  V30 12611 H 1222.87 -3.87435 1.21032 0
M  V30 12612 H 1223.64 -3.23796 3.61083 0
M  V30 12613 H 1219.52 -3.84395 2.54482 0
M  V30 12614 H 1223.06 -3.58068 5.98693 0
M  V30 12615 H 1218.96 -4.18801 4.91198 0
M  V30 12616 H 1219.73 -4.26429 6.98642 0
M  V30 12617 N 1222.39 -0.968567 -1.24324 0
M  V30 12618 C 1223.64 -0.626519 -1.91723 0
M  V30 12619 C 1223.95 0.84225 -1.76538 0
M  V30 12620 O 1225.16 1.29486 -2.38633 0
M  V30 12621 C 1223.61 -1.06992 -3.43629 0
M  V30 12622 C 1223.22 -2.5622 -3.67499 0
M  V30 12623 C 1224.96 -0.801057 -4.16873 0
M  V30 12624 C 1222.87 -2.94288 -5.1298 0
M  V30 12625 H 1221.8 -0.23062 -0.717865 0
M  V30 12626 H 1224.45 -1.17489 -1.40956 0
M  V30 12627 H 1222.83 -0.44985 -3.93437 0
M  V30 12628 H 1224.01 -3.23364 -3.28287 0
M  V30 12629 H 1222.32 -2.80726 -3.07542 0
M  V30 12630 H 1224.92 -1.06147 -5.24058 0
M  V30 12631 H 1225.26 0.262742 -4.1547 0
M  V30 12632 H 1225.8 -1.38213 -3.73017 0
M  V30 12633 H 1222.54 -3.99743 -5.19506 0
M  V30 12634 H 1222.06 -2.31829 -5.53187 0
M  V30 12635 H 1223.73 -2.84242 -5.81219 0
M  V30 12636 N 1223.87 1.39211 -0.738786 0
M  V30 12637 C 1224.81 2.32424 -0.0904601 0
M  V30 12638 C 1225.81 1.53258 0.721694 0
M  V30 12639 O 1227.01 1.68895 0.622454 0
M  V30 12640 H 1223.39 0.751927 -0.010453 0
M  V30 12641 H 1225.36 2.84726 -0.892945 0
M  V30 12642 C 1224.11 3.38377 0.799783 0
M  V30 12643 H 1223.43 3.99375 0.18424 0
M  V30 12644 H 1224.87 4.0604 1.22096 0
M  V30 12645 C 1223.33 2.75734 1.93578 0
M  V30 12646 O 1223.86 2.63876 3.02874 0
M  V30 12647 N 1222.07 2.33764 1.72634 0
M  V30 12648 H 1221.61 2.43609 0.837413 0
M  V30 12649 H 1221.57 1.92191 2.48817 0
M  V30 12650 N 1225.34 0.486708 1.49896 0
M  V30 12651 C 1226.57 -0.0622999 2.07306 0
M  V30 12652 C 1226.99 -1.31353 1.3464 0
M  V30 12653 O 1226.35 -1.76861 0.398752 0
M  V30 12654 C 1226.4 -0.313481 3.59235 0
M  V30 12655 O 1225.5 -1.39101 3.88233 0
M  V30 12656 H 1224.85 0.0198885 0.663702 0
M  V30 12657 H 1227.38 0.682232 1.92891 0
M  V30 12658 H 1227.39 -0.549302 4.04285 0
M  V30 12659 H 1226.06 0.600767 4.11538 0
M  V30 12660 H 1224.64 -1.14127 3.55006 0
M  V30 12661 N 1226.82 -1.56058 0.219941 0
M  V30 12662 C 1228.05 -2.02652 -0.417101 0
M  V30 12663 C 1228.47 -1.09977 -1.53461 0
M  V30 12664 O 1227.82 -0.109088 -1.82174 0
M  V30 12665 C 1227.87 -3.48787 -0.950244 0
M  V30 12666 O 1227.6 -4.37928 0.12271 0
M  V30 12667 C 1229.1 -4.11018 -1.66069 0
M  V30 12668 H 1226.32 -0.663163 -0.102254 0
M  V30 12669 H 1228.86 -2.01722 0.335923 0
M  V30 12670 H 1227.02 -3.50338 -1.65355 0
M  V30 12671 H 1227.43 -5.23764 -0.277785 0
M  V30 12672 H 1228.9 -5.15046 -1.98575 0
M  V30 12673 H 1229.38 -3.55921 -2.57326 0
M  V30 12674 H 1229.99 -4.13313 -1.00263 0
M  V30 12675 N 1228.3 0.053464 -1.57509 0
M  V30 12676 C 1229.25 1.08014 -2.05999 0
M  V30 12677 C 1230.24 1.38958 -0.968862 0
M  V30 12678 O 1231.45 1.3815 -1.15389 0
M  V30 12679 H 1227.82 0.36575 -0.657062 0
M  V30 12680 H 1229.8 0.645169 -2.91342 0
M  V30 12681 C 1228.54 2.38004 -2.53475 0
M  V30 12682 H 1227.87 2.15048 -3.37038 0
M  V30 12683 H 1229.31 3.08244 -2.91138 0
M  V30 12684 C 1227.77 3.05259 -1.42543 0
M  V30 12685 O 1228.3 3.94097 -0.777832 0
M  V30 12686 N 1226.5 2.66182 -1.16599 0
M  V30 12687 H 1226.05 1.94027 -1.69444 0
M  V30 12688 H 1226.01 3.11503 -0.42585 0
M  V30 12689 N 1229.78 1.54207 0.325255 0
M  V30 12690 C 1231.03 1.72587 1.06497 0
M  V30 12691 C 1231.36 0.497228 1.87727 0
M  V30 12692 O 1230.63 -0.505804 1.87808 0
M  V30 12693 C 1230.92 3.00046 1.99109 0
M  V30 12694 C 1230.77 4.33158 1.21221 0
M  V30 12695 C 1232.09 3.23251 2.98658 0
M  V30 12696 H 1229.21 0.627974 0.38577 0
M  V30 12697 H 1231.85 1.869 0.34179 0
M  V30 12698 H 1230 2.87973 2.60775 0
M  V30 12699 H 1231.67 4.57111 0.620289 0
M  V30 12700 H 1229.91 4.30739 0.514462 0
M  V30 12701 H 1230.59 5.18558 1.89214 0
M  V30 12702 H 1233.06 3.34774 2.47114 0
M  V30 12703 H 1231.94 4.13796 3.60645 0
M  V30 12704 H 1232.2 2.40401 3.71026 0
M  V30 12705 N 1231.26 -0.58723 1.46251 0
M  V30 12706 C 1232.21 -1.71771 1.56836 0
M  V30 12707 C 1233.2 -1.63664 0.437096 0
M  V30 12708 O 1234.41 -1.69212 0.613797 0
M  V30 12709 H 1230.78 -0.567841 0.493012 0
M  V30 12710 H 1232.75 -1.59974 2.51895 0
M  V30 12711 C 1231.5 -3.10159 1.57152 0
M  V30 12712 H 1230.82 -3.17066 2.43535 0
M  V30 12713 H 1232.26 -3.89032 1.68613 0
M  V30 12714 C 1230.72 -3.35567 0.299374 0
M  V30 12715 O 1231.25 -3.97006 -0.612291 0
M  V30 12716 N 1229.46 -2.89987 0.188695 0
M  V30 12717 H 1229.01 -2.4017 0.93147 0
M  V30 12718 H 1228.96 -3.0736 -0.661612 0
M  V30 12719 N 1232.74 -1.33881 -0.831482 0
M  V30 12720 C 1233.98 -1.25755 -1.58719 0
M  V30 12721 C 1234.31 0.174746 -1.93713 0
M  V30 12722 O 1233.57 1.13384 -1.59507 0
M  V30 12723 C 1233.86 -2.08544 -2.90249 0
M  V30 12724 C 1233.53 -3.57651 -2.74585 0
M  V30 12725 C 1232.19 -3.983 -2.7002 0
M  V30 12726 C 1234.54 -4.52369 -2.58866 0
M  V30 12727 C 1231.87 -5.31872 -2.47647 0
M  V30 12728 C 1234.22 -5.86112 -2.38025 0
M  V30 12729 C 1232.89 -6.25934 -2.31867 0
M  V30 12730 H 1232.16 -0.460171 -0.580796 0
M  V30 12731 H 1234.81 -1.6554 -0.96274 0
M  V30 12732 H 1233.11 -1.6156 -3.56939 0
M  V30 12733 H 1234.81 -1.99609 -3.47789 0
M  V30 12734 H 1231.4 -3.2538 -2.78973 0
M  V30 12735 H 1235.58 -4.21868 -2.61421 0
M  V30 12736 H 1230.84 -5.61756 -2.41331 0
M  V30 12737 H 1235.01 -6.59103 -2.24847 0
M  V30 12738 H 1232.64 -7.29372 -2.14291 0
M  V30 12739 N 1234.21 1.05064 -1.1747 0
M  V30 12740 C 1235.12 2.16346 -0.907286 0
M  V30 12741 C 1236.14 1.7355 0.125013 0
M  V30 12742 O 1237.32 2.01326 -0.0545551 0
M  V30 12743 C 1234.38 3.44077 -0.425681 0
M  V30 12744 C 1233.44 4.01311 -1.52473 0
M  V30 12745 C 1232.67 5.22946 -1.06601 0
M  V30 12746 O 1232.9 5.70345 0.0793329 0
M  V30 12747 O 1231.83 5.72454 -1.85958 0
M  V30 12748 H 1235.66 2.41754 -1.83817 0
M  V30 12749 H 1233.24 1.14834 -0.955693 0
M  V30 12750 H 1235.12 4.21078 -0.164689 0
M  V30 12751 H 1233.8 3.20166 0.477037 0
M  V30 12752 H 1232.71 3.25744 -1.83961 0
M  V30 12753 H 1234.04 4.29543 -2.4032 0
M  V30 12754 N 1235.69 0.975146 1.23809 0
M  V30 12755 C 1237.1 0.678873 1.7392 0
M  V30 12756 C 1237.45 -0.805133 1.78919 0
M  V30 12757 O 1236.58 -1.62984 1.42356 0
M  V30 12758 C 1237.17 1.22562 3.15854 0
M  V30 12759 C 1235.73 0.979096 3.63443 0
M  V30 12760 C 1234.88 1.35649 2.41857 0
M  V30 12761 H 1237.83 1.14961 1.09406 0
M  V30 12762 H 1237.85 0.595489 3.75811 0
M  V30 12763 H 1237.36 2.30571 3.12184 0
M  V30 12764 H 1235.46 -0.0851407 3.72503 0
M  V30 12765 H 1235.58 1.62998 4.5052 0
M  V30 12766 H 1233.94 0.774916 2.42626 0
M  V30 12767 H 1234.72 2.44624 2.40861 0
M  V30 12768 N 1237.17 -1.38817 0.746158 0
M  V30 12769 C 1238.12 -2.30521 0.113517 0
M  V30 12770 C 1239.09 -1.49795 -0.717682 0
M  V30 12771 O 1240.27 -1.78448 -0.675345 0
M  V30 12772 C 1237.41 -3.36185 -0.779343 0
M  V30 12773 C 1236.52 -4.3195 0.0656784 0
M  V30 12774 C 1235.66 -5.24684 -0.829492 0
M  V30 12775 C 1234.7 -6.12097 0.0196112 0
M  V30 12776 N 1233.84 -6.97152 -0.832107 0
M  V30 12777 H 1238.68 -2.84048 0.901136 0
M  V30 12778 H 1236.21 -1.39853 0.456025 0
M  V30 12779 H 1238.17 -3.96048 -1.31156 0
M  V30 12780 H 1236.8 -2.84085 -1.53282 0
M  V30 12781 H 1235.85 -3.73611 0.715445 0
M  V30 12782 H 1237.16 -4.93551 0.721735 0
M  V30 12783 H 1236.32 -5.89627 -1.42915 0
M  V30 12784 H 1235.06 -4.63431 -1.5193 0
M  V30 12785 H 1234.06 -5.46156 0.631991 0
M  V30 12786 H 1235.29 -6.75416 0.706369 0
M  V30 12787 H 1233.23 -6.38456 -1.507 0
M  V30 12788 H 1233.15 -7.55642 -0.232782 0
M  V30 12789 H 1234.42 -7.66513 -1.41697 0
M  V30 12790 N 1238.65 -0.49465 -1.49636 0
M  V30 12791 C 1240.06 -0.0452894 -1.86645 0
M  V30 12792 C 1240.41 1.36686 -1.40753 0
M  V30 12793 O 1239.53 2.01751 -0.78265 0
M  V30 12794 C 1240.13 -0.0754115 -3.38716 0
M  V30 12795 C 1238.69 0.318579 -3.75049 0
M  V30 12796 C 1237.84 -0.450712 -2.73613 0
M  V30 12797 H 1240.79 -0.707758 -1.42044 0
M  V30 12798 H 1240.81 0.721372 -3.73599 0
M  V30 12799 H 1240.32 -1.10331 -3.72087 0
M  V30 12800 H 1238.42 1.34995 -3.47285 0
M  V30 12801 H 1238.53 0.00354416 -4.791 0
M  V30 12802 H 1236.9 0.0986455 -2.54509 0
M  V30 12803 H 1237.68 -1.47857 -3.09828 0
M  V30 12804 N 1240.13 1.55939 -0.228214 0
M  V30 12805 C 1241.37 1.9877 0.402272 0
M  V30 12806 C 1241.7 1.11587 1.5894 0
M  V30 12807 O 1240.98 0.175032 1.93711 0
M  V30 12808 C 1241.26 3.50396 0.830353 0
M  V30 12809 C 1241.12 4.4835 -0.360876 0
M  V30 12810 C 1242.43 4.06602 1.68413 0
M  V30 12811 H 1239.55 0.722646 0.144746 0
M  V30 12812 H 1242.2 1.87186 -0.325784 0
M  V30 12813 H 1240.35 3.60398 1.4507 0
M  V30 12814 H 1242.02 4.5035 -0.999113 0
M  V30 12815 H 1240.26 4.21946 -1.00719 0
M  V30 12816 H 1240.93 5.51997 -0.0183074 0
M  V30 12817 H 1243.41 3.99585 1.16064 0
M  V30 12818 H 1242.28 5.12998 1.95254 0
M  V30 12819 H 1242.54 3.53897 2.64971 0
M  V30 12820 N 1241.6 -0.0451101 1.57535 0
M  V30 12821 C 1242.83 -0.75132 1.92777 0
M  V30 12822 C 1243.25 -1.69743 0.826599 0
M  V30 12823 O 1242.6 -1.8142 -0.198224 0
M  V30 12824 C 1242.66 -1.52218 3.2789 0
M  V30 12825 O 1242.38 -0.614059 4.33775 0
M  V30 12826 C 1243.88 -2.32699 3.77314 0
M  V30 12827 H 1241.1 -0.21211 0.636593 0
M  V30 12828 H 1243.64 -0.0074174 2.04499 0
M  V30 12829 H 1241.8 -2.2181 3.17614 0
M  V30 12830 H 1242.21 -1.15294 5.11671 0
M  V30 12831 H 1243.68 -2.82205 4.7441 0
M  V30 12832 H 1244.16 -3.13414 3.07682 0
M  V30 12833 H 1244.77 -1.68212 3.90621 0
M  V30 12834 N 1243.08 -1.54377 -0.317073 0
M  V30 12835 C 1243.99 -1.87247 -1.41335 0
M  V30 12836 C 1245.01 -0.765017 -1.5628 0
M  V30 12837 O 1246.18 -1.05994 -1.71252 0
M  V30 12838 C 1243.25 -2.0988 -2.75955 0
M  V30 12839 C 1242.31 -3.33658 -2.70131 0
M  V30 12840 C 1241.54 -3.55202 -3.9833 0
M  V30 12841 O 1241.77 -2.80061 -4.96913 0
M  V30 12842 O 1240.7 -4.48693 -4.01196 0
M  V30 12843 H 1244.53 -2.80481 -1.16465 0
M  V30 12844 H 1242.11 -1.40364 -0.511687 0
M  V30 12845 H 1243.99 -2.2606 -3.55633 0
M  V30 12846 H 1242.67 -1.19834 -3.00702 0
M  V30 12847 H 1241.58 -3.22857 -1.88981 0
M  V30 12848 H 1242.91 -4.23782 -2.50338 0
M  V30 12849 N 1244.56 0.579466 -1.4656 0
M  V30 12850 C 1245.81 1.33954 -1.52264 0
M  V30 12851 C 1246.14 1.93409 -0.175089 0
M  V30 12852 O 1245.41 1.76654 0.81385 0
M  V30 12853 C 1245.7 2.46645 -2.6237 0
M  V30 12854 C 1245.55 1.92204 -4.06667 0
M  V30 12855 C 1246.87 3.48676 -2.68538 0
M  V30 12856 H 1243.99 0.485697 -0.554317 0
M  V30 12857 H 1246.63 0.650639 -1.78512 0
M  V30 12858 H 1244.78 3.0541 -2.40119 0
M  V30 12859 H 1246.45 1.37871 -4.40215 0
M  V30 12860 H 1244.7 1.23012 -4.15993 0
M  V30 12861 H 1245.37 2.73566 -4.79443 0
M  V30 12862 H 1247.84 2.99798 -2.88549 0
M  V30 12863 H 1246.72 4.24981 -3.47394 0
M  V30 12864 H 1246.98 4.06112 -1.74716 0
M  V30 12865 N 1246.04 1.3432 0.824371 0
M  V30 12866 C 1247.45 1.1397 1.11727 0
M  V30 12867 C 1247.65 -0.0597597 2.01411 0
M  V30 12868 O 1246.71 -0.735717 2.41544 0
M  V30 12869 C 1248.02 2.43423 1.76538 0
M  V30 12870 C 1249.57 2.49466 1.89039 0
M  V30 12871 C 1250.05 3.78917 2.57266 0
M  V30 12872 N 1251.54 3.8007 2.64767 0
M  V30 12873 C 1252.27 4.76953 3.18282 0
M  V30 12874 N 1251.77 5.84217 3.72373 0
M  V30 12875 N 1253.56 4.6441 3.1667 0
M  V30 12876 H 1245.71 2.11175 0.227802 0
M  V30 12877 H 1247.98 0.933774 0.163615 0
M  V30 12878 H 1247.68 3.31278 1.18102 0
M  V30 12879 H 1247.56 2.56655 2.7642 0
M  V30 12880 H 1249.94 1.62052 2.46623 0
M  V30 12881 H 1250.02 2.40163 0.880635 0
M  V30 12882 H 1249.67 4.6672 2.00336 0
M  V30 12883 H 1249.6 3.85502 3.58742 0
M  V30 12884 H 1252.09 3.02556 2.26425 0
M  V30 12885 H 1252.4 6.54159 4.11455 0
M  V30 12886 H 1250.75 5.87933 3.70621 0
M  V30 12887 H 1253.94 3.7976 2.73678 0
M  V30 12888 H 1254.11 5.40081 3.58073 0
M  V30 12889 N 1247.52 -1.0444 1.18026 0
M  V30 12890 C 1248.74 -1.81234 0.998089 0
M  V30 12891 C 1249.16 -1.83271 -0.453559 0
M  V30 12892 O 1248.52 -1.26545 -1.31502 0
M  V30 12893 C 1248.57 -3.27007 1.54106 0
M  V30 12894 O 1248.29 -3.25174 2.93587 0
M  V30 12895 C 1249.79 -4.20461 1.40455 0
M  V30 12896 H 1247.01 -0.57085 0.352663 0
M  V30 12897 H 1249.55 -1.31649 1.56489 0
M  V30 12898 H 1247.71 -3.73837 1.01611 0
M  V30 12899 H 1248.12 -4.16466 3.18836 0
M  V30 12900 H 1249.6 -5.20695 1.83249 0
M  V30 12901 H 1250.07 -4.37781 0.352713 0
M  V30 12902 H 1250.68 -3.79493 1.92004 0
M  V30 12903 N 1248.99 -0.981699 -1.2329 0
M  V30 12904 C 1249.94 -0.515432 -2.26817 0
M  V30 12905 C 1250.94 0.428204 -1.63899 0
M  V30 12906 O 1252.14 0.301954 -1.77449 0
M  V30 12907 H 1248.52 -0.148257 -0.737241 0
M  V30 12908 H 1250.49 -1.40027 -2.63505 0
M  V30 12909 C 1249.24 0.165266 -3.47307 0
M  V30 12910 H 1248.56 -0.55176 -3.95974 0
M  V30 12911 H 1250 0.45513 -4.2155 0
M  V30 12912 C 1248.46 1.39693 -3.06574 0
M  V30 12913 O 1248.99 2.49308 -3.14974 0
M  V30 12914 N 1247.2 1.26806 -2.61474 0
M  V30 12915 H 1246.74 0.376161 -2.54839 0
M  V30 12916 H 1246.7 2.09324 -2.34587 0
M  V30 12917 N 1250.47 1.3842 -0.753509 0
M  V30 12918 C 1251.72 1.99359 -0.306416 0
M  V30 12919 C 1252.03 1.60492 1.11811 0
M  V30 12920 O 1253.24 2.14401 1.66567 0
M  V30 12921 C 1251.7 3.56453 -0.496895 0
M  V30 12922 C 1251.3 4.04272 -1.9305 0
M  V30 12923 C 1253.05 4.24351 -0.11251 0
M  V30 12924 C 1250.96 5.54007 -2.06955 0
M  V30 12925 H 1249.89 0.745812 -0.110818 0
M  V30 12926 H 1252.54 1.58185 -0.930039 0
M  V30 12927 H 1250.92 3.95515 0.195912 0
M  V30 12928 H 1252.09 3.765 -2.65677 0
M  V30 12929 H 1250.41 3.49098 -2.26979 0
M  V30 12930 H 1253 5.34344 -0.195161 0
M  V30 12931 H 1253.35 4.05668 0.934849 0
M  V30 12932 H 1253.88 3.90528 -0.757168 0
M  V30 12933 H 1250.62 5.77594 -3.09944 0
M  V30 12934 H 1250.14 5.83522 -1.38788 0
M  V30 12935 H 1251.82 6.19704 -1.85945 0
M  V30 12936 N 1251.95 0.502579 1.49372 0
M  V30 12937 C 1253.2 -0.0432341 2.01654 0
M  V30 12938 C 1253.51 -1.379 1.38719 0
M  V30 12939 O 1254.72 -2.01159 1.82338 0
M  V30 12940 C 1253.17 -0.127509 3.59674 0
M  V30 12941 C 1252.78 1.20171 4.31582 0
M  V30 12942 C 1254.53 -0.623603 4.19895 0
M  V30 12943 C 1252.43 1.07951 5.81464 0
M  V30 12944 H 1251.36 -0.0199308 0.753737 0
M  V30 12945 H 1254.01 0.642237 1.71894 0
M  V30 12946 H 1252.4 -0.877465 3.86156 0
M  V30 12947 H 1253.57 1.96508 4.16799 0
M  V30 12948 H 1251.89 1.63136 3.83113 0
M  V30 12949 H 1254.48 -0.732562 5.29658 0
M  V30 12950 H 1254.83 -1.62282 3.83367 0
M  V30 12951 H 1255.36 0.0698641 3.97739 0
M  V30 12952 H 1252.1 2.05304 6.22519 0
M  V30 12953 H 1251.62 0.357051 5.98736 0
M  V30 12954 H 1253.3 0.758885 6.42534 0
M  V30 12955 N 1253.43 -1.55816 0.23648 0
M  V30 12956 C 1254.66 -2.03083 -0.395584 0
M  V30 12957 C 1255.07 -1.11599 -1.52286 0
M  V30 12958 O 1254.43 -0.128403 -1.82048 0
M  V30 12959 C 1254.48 -3.49776 -0.913197 0
M  V30 12960 O 1254.2 -4.37773 0.169151 0
M  V30 12961 C 1255.7 -4.12756 -1.617 0
M  V30 12962 H 1252.92 -0.66421 -0.0952146 0
M  V30 12963 H 1255.47 -2.01354 0.357299 0
M  V30 12964 H 1253.62 -3.52072 -1.6163 0
M  V30 12965 H 1254.03 -5.24029 -0.222217 0
M  V30 12966 H 1255.51 -5.17123 -1.93101 0
M  V30 12967 H 1255.99 -3.58631 -2.53537 0
M  V30 12968 H 1256.59 -4.14353 -0.958736 0
M  V30 12969 N 1254.91 0.036755 -1.57557 0
M  V30 12970 C 1256.13 0.741086 -1.93172 0
M  V30 12971 C 1256.55 1.69303 -0.835589 0
M  V30 12972 O 1255.91 1.81523 0.1886 0
M  V30 12973 C 1255.96 1.50477 -3.28693 0
M  V30 12974 O 1255.68 0.591046 -4.34095 0
M  V30 12975 C 1257.18 2.30695 -3.78543 0
M  V30 12976 H 1254.4 0.208731 -0.637709 0
M  V30 12977 H 1256.94 -0.00342776 -2.045 0
M  V30 12978 H 1255.1 2.20123 -3.18786 0
M  V30 12979 H 1255.51 1.12579 -5.12276 0
M  V30 12980 H 1256.99 2.79685 -4.759 0
M  V30 12981 H 1257.46 3.11778 -3.0934 0
M  V30 12982 H 1258.07 1.66138 -3.91508 0
M  V30 12983 N 1256.39 1.54543 0.308881 0
M  V30 12984 C 1257.63 1.73107 1.043 0
M  V30 12985 C 1257.95 0.515481 1.88063 0
M  V30 12986 O 1257.22 -0.47036 1.90169 0
M  V30 12987 H 1255.8 0.638289 0.388068 0
M  V30 12988 H 1258.47 1.9188 0.341769 0
M  V30 12989 H 1257.56 2.61697 1.70063 0
M  V30 12990 N 1257.86 -0.571685 1.46866 0
M  V30 12991 C 1258.83 -1.66198 1.57832 0
M  V30 12992 C 1259.83 -1.54242 0.454547 0
M  V30 12993 O 1261.02 -1.58661 0.719191 0
M  V30 12994 C 1258.15 -3.05678 1.5091 0
M  V30 12995 H 1259.34 -1.57829 2.5501 0
M  V30 12996 H 1256.89 -0.790433 1.3484 0
M  V30 12997 H 1257.63 -3.19593 0.550529 0
M  V30 12998 H 1257.41 -3.15765 2.32454 0
M  V30 12999 H 1258.9 -3.85027 1.61692 0
M  V30 13000 N 1259.34 -1.34755 -0.817236 0
M  V30 13001 C 1260.59 -1.27432 -1.57377 0
M  V30 13002 C 1260.92 0.15419 -1.93888 0
M  V30 13003 O 1260.17 1.11686 -1.60701 0
M  V30 13004 C 1260.47 -2.11611 -2.8802 0
M  V30 13005 C 1260.14 -3.60543 -2.70776 0
M  V30 13006 C 1258.8 -4.01141 -2.6578 0
M  V30 13007 C 1261.15 -4.55089 -2.54053 0
M  V30 13008 C 1258.48 -5.34469 -2.41991 0
M  V30 13009 C 1260.83 -5.88603 -2.31795 0
M  V30 13010 C 1259.49 -6.28358 -2.25215 0
M  V30 13011 H 1258.76 -0.466305 -0.575882 0
M  V30 13012 H 1261.41 -1.66552 -0.945128 0
M  V30 13013 H 1259.72 -1.65336 -3.55206 0
M  V30 13014 H 1261.41 -2.03287 -3.45652 0
M  V30 13015 H 1258 -3.2832 -2.75506 0
M  V30 13016 H 1262.19 -4.24617 -2.56932 0
M  V30 13017 H 1257.44 -5.64284 -2.35359 0
M  V30 13018 H 1261.62 -6.61451 -2.17844 0
M  V30 13019 H 1259.24 -7.31604 -2.06543 0
M  V30 13020 N 1260.82 1.03812 -1.18578 0
M  V30 13021 C 1262.07 1.76706 -0.980776 0
M  V30 13022 C 1262.39 1.88729 0.490562 0
M  V30 13023 O 1261.66 1.41413 1.35569 0
M  V30 13024 H 1260.24 0.654586 -0.359898 0
M  V30 13025 H 1262.9 1.25274 -1.49306 0
M  V30 13026 H 1262 2.77876 -1.42096 0
M  V30 13027 N 1262.3 0.988223 1.22768 0
M  V30 13028 C 1263.23 0.492919 2.23837 0
M  V30 13029 C 1264.24 -0.409467 1.57567 0
M  V30 13030 O 1265.43 -0.21235 1.77232 0
M  V30 13031 C 1262.53 -0.305428 3.37521 0
M  V30 13032 C 1261.7 0.591966 4.33376 0
M  V30 13033 C 1260.76 -0.15387 5.25975 0
M  V30 13034 O 1259.79 0.459153 5.67345 0
M  V30 13035 N 1260.99 -1.43756 5.62418 0
M  V30 13036 H 1263.76 1.36199 2.66965 0
M  V30 13037 H 1261.32 0.862395 1.3702 0
M  V30 13038 H 1263.31 -0.812921 3.96451 0
M  V30 13039 H 1261.88 -1.07556 2.93514 0
M  V30 13040 H 1261.1 1.28019 3.72833 0
M  V30 13041 H 1262.39 1.20327 4.94367 0
M  V30 13042 H 1261.79 -1.95701 5.30771 0
M  V30 13043 H 1260.34 -1.89034 6.23786 0
M  V30 13044 N 1263.78 -1.38018 0.760839 0
M  V30 13045 C 1264.71 -2.2899 0.0980916 0
M  V30 13046 C 1265.72 -1.48102 -0.675985 0
M  V30 13047 O 1266.91 -1.70883 -0.515878 0
M  V30 13048 C 1264.01 -3.27142 -0.884959 0
M  V30 13049 C 1263.18 -4.37081 -0.167 0
M  V30 13050 C 1262.24 -5.15375 -1.06184 0
M  V30 13051 O 1261.27 -5.6673 -0.529667 0
M  V30 13052 N 1262.47 -5.29052 -2.38924 0
M  V30 13053 H 1265.23 -2.86508 0.879403 0
M  V30 13054 H 1262.8 -1.49877 0.612245 0
M  V30 13055 H 1264.79 -3.764 -1.48678 0
M  V30 13056 H 1263.36 -2.70471 -1.5673 0
M  V30 13057 H 1262.58 -3.89363 0.615617 0
M  V30 13058 H 1263.87 -5.07732 0.329525 0
M  V30 13059 H 1263.26 -4.88892 -2.84607 0
M  V30 13060 H 1261.82 -5.81658 -2.94139 0
M  V30 13061 N 1265.25 -0.510493 -1.49103 0
M  V30 13062 C 1266.48 0.0293113 -2.07379 0
M  V30 13063 C 1266.9 1.29195 -1.36713 0
M  V30 13064 O 1266.26 1.76204 -0.426838 0
M  V30 13065 C 1266.31 0.25629 -3.59688 0
M  V30 13066 O 1265.41 1.32907 -3.90397 0
M  V30 13067 H 1264.75 -0.0304449 -0.663302 0
M  V30 13068 H 1267.28 -0.712832 -1.91781 0
M  V30 13069 H 1267.29 0.484915 -4.05108 0
M  V30 13070 H 1265.97 -0.666163 -4.1053 0
M  V30 13071 H 1264.55 1.08464 -3.56777 0
M  V30 13072 N 1266.73 1.55688 -0.24474 0
M  V30 13073 C 1267.98 1.98498 0.379852 0
M  V30 13074 C 1268.3 1.13416 1.58625 0
M  V30 13075 O 1267.57 0.216456 1.947 0
M  V30 13076 H 1266.15 0.73312 0.143334 0
M  V30 13077 H 1268.81 1.91858 -0.343027 0
M  V30 13078 H 1267.91 3.04367 0.690463 0
M  V30 13079 N 1268.21 -0.0283989 1.57574 0
M  V30 13080 C 1269.17 -1.01346 2.05576 0
M  V30 13081 C 1270.17 -1.28999 0.960001 0
M  V30 13082 O 1271.36 -1.23991 1.2236 0
M  V30 13083 C 1268.49 -2.34611 2.47327 0
M  V30 13084 H 1269.69 -0.598809 2.93861 0
M  V30 13085 H 1267.24 -0.27524 1.53857 0
M  V30 13086 H 1267.98 -2.80823 1.622 0
M  V30 13087 H 1267.76 -2.1587 3.27326 0
M  V30 13088 H 1269.25 -3.05332 2.84889 0
M  V30 13089 N 1269.69 -1.54705 -0.300681 0
M  V30 13090 C 1270.93 -1.74259 -1.03738 0
M  V30 13091 C 1271.27 -0.52703 -1.86912 0
M  V30 13092 O 1270.54 0.475862 -1.88589 0
M  V30 13093 C 1270.82 -3.03175 -1.94311 0
M  V30 13094 C 1270.68 -4.35031 -1.14315 0
M  V30 13095 C 1272 -3.27962 -2.93478 0
M  V30 13096 H 1269.12 -0.634031 -0.37573 0
M  V30 13097 H 1271.76 -1.87421 -0.312012 0
M  V30 13098 H 1269.91 -2.92086 -2.5616 0
M  V30 13099 H 1271.58 -4.5804 -0.547489 0
M  V30 13100 H 1269.82 -4.31503 -0.44587 0
M  V30 13101 H 1270.49 -5.21502 -1.80941 0
M  V30 13102 H 1272.97 -3.38663 -2.41757 0
M  V30 13103 H 1271.85 -4.19481 -3.54016 0
M  V30 13104 H 1272.11 -2.46273 -3.67154 0
M  V30 13105 N 1271.17 0.563888 -1.47167 0
M  V30 13106 C 1272.4 1.34498 -1.56825 0
M  V30 13107 C 1272.8 1.87974 -0.215011 0
M  V30 13108 O 1272.15 1.65323 0.80087 0
M  V30 13109 C 1272.21 2.55602 -2.528 0
M  V30 13110 C 1271.87 2.23459 -3.98642 0
M  V30 13111 C 1272.87 1.81155 -4.87318 0
M  V30 13112 C 1270.56 2.35024 -4.43925 0
M  V30 13113 C 1272.55 1.50835 -6.19296 0
M  V30 13114 C 1270.24 2.04317 -5.75932 0
M  V30 13115 C 1271.23 1.6229 -6.63439 0
M  V30 13116 O 1270.92 1.31969 -7.92994 0
M  V30 13117 H 1270.65 0.416551 -0.532411 0
M  V30 13118 H 1273.21 0.690611 -1.93442 0
M  V30 13119 H 1271.44 3.23907 -2.11237 0
M  V30 13120 H 1273.13 3.17677 -2.52659 0
M  V30 13121 H 1273.89 1.71719 -4.53583 0
M  V30 13122 H 1269.77 2.66696 -3.76024 0
M  V30 13123 H 1273.32 1.17958 -6.87555 0
M  V30 13124 H 1269.21 2.13383 -6.09211 0
M  V30 13125 H 1269.98 1.45656 -8.05436 0
M  V30 13126 N 1272.64 1.35187 0.810078 0
M  V30 13127 C 1273.89 1.28454 1.56931 0
M  V30 13128 C 1274.22 -0.141747 1.93682 0
M  V30 13129 O 1273.5 -1.09028 1.61069 0
M  V30 13130 C 1273.78 2.18771 2.86027 0
M  V30 13131 C 1273.63 3.69999 2.55774 0
M  V30 13132 C 1274.95 2.08265 3.87703 0
M  V30 13133 H 1272.07 0.467959 0.569371 0
M  V30 13134 H 1274.71 1.65556 0.932262 0
M  V30 13135 H 1272.86 1.8726 3.40391 0
M  V30 13136 H 1274.54 4.11936 2.07621 0
M  V30 13137 H 1272.78 3.90453 1.89021 0
M  V30 13138 H 1273.45 4.28577 3.47888 0
M  V30 13139 H 1275.93 2.35958 3.42729 0
M  V30 13140 H 1274.8 2.73663 4.75815 0
M  V30 13141 H 1275.06 1.06352 4.29117 0
M  V30 13142 N 1274.12 -1.03182 1.19127 0
M  V30 13143 C 1275.37 -1.76184 0.990134 0
M  V30 13144 C 1275.69 -1.88986 -0.480546 0
M  V30 13145 O 1274.96 -1.4213 -1.34817 0
M  V30 13146 H 1273.54 -0.652668 0.363364 0
M  V30 13147 H 1276.2 -1.24481 1.49968 0
M  V30 13148 H 1275.3 -2.77119 1.43568 0
M  V30 13149 N 1275.6 -0.99472 -1.22242 0
M  V30 13150 C 1276.55 -0.53946 -2.26258 0
M  V30 13151 C 1277.54 0.410796 -1.64344 0
M  V30 13152 O 1278.75 0.283116 -1.7776 0
M  V30 13153 H 1275.12 -0.156069 -0.735627 0
M  V30 13154 H 1277.09 -1.42814 -2.62005 0
M  V30 13155 C 1275.84 0.12842 -3.47463 0
M  V30 13156 H 1275.17 -0.593727 -3.95367 0
M  V30 13157 H 1276.61 0.410393 -4.22009 0
M  V30 13158 C 1275.07 1.36433 -3.08038 0
M  V30 13159 O 1275.6 2.45953 -3.176 0
M  V30 13160 N 1273.8 1.24026 -2.62804 0
M  V30 13161 H 1273.35 0.349111 -2.55223 0
M  V30 13162 H 1273.31 2.06824 -2.36794 0
M  V30 13163 N 1277.08 1.37613 -0.768148 0
M  V30 13164 C 1278.31 2.03756 -0.341615 0
M  V30 13165 C 1278.72 1.58063 1.03984 0
M  V30 13166 O 1278.06 0.755609 1.6744 0
M  V30 13167 C 1278.12 3.58229 -0.302032 0
M  V30 13168 C 1277.79 4.27039 -1.62747 0
M  V30 13169 C 1278.78 4.51408 -2.57928 0
M  V30 13170 C 1276.47 4.64941 -1.90092 0
M  V30 13171 C 1278.46 5.12731 -3.78663 0
M  V30 13172 C 1276.15 5.25986 -3.11098 0
M  V30 13173 C 1277.15 5.49818 -4.05203 0
M  V30 13174 O 1276.83 6.09588 -5.24078 0
M  V30 13175 H 1276.57 0.660992 -0.141655 0
M  V30 13176 H 1279.12 1.77001 -1.04211 0
M  V30 13177 H 1277.35 3.84016 0.454811 0
M  V30 13178 H 1279.04 4.05784 0.0969452 0
M  V30 13179 H 1279.81 4.22542 -2.38083 0
M  V30 13180 H 1275.68 4.45729 -1.17674 0
M  V30 13181 H 1279.23 5.31249 -4.52129 0
M  V30 13182 H 1275.13 5.54276 -3.3083 0
M  V30 13183 H 1275.89 6.28068 -5.24855 0
M  V30 13184 N 1278.56 0.518393 1.4883 0
M  V30 13185 C 1279.97 0.175476 1.58632 0
M  V30 13186 C 1280.17 -1.32081 1.52174 0
M  V30 13187 O 1279.23 -2.09817 1.40474 0
M  V30 13188 C 1280.54 0.767722 2.90734 0
M  V30 13189 C 1282.09 0.735402 3.04238 0
M  V30 13190 C 1282.56 1.30602 4.38984 0
M  V30 13191 N 1284.06 1.26748 4.45521 0
M  V30 13192 C 1284.79 1.679 5.48267 0
M  V30 13193 N 1284.29 2.16728 6.58028 0
M  V30 13194 N 1286.08 1.59209 5.39082 0
M  V30 13195 H 1278.23 1.491 1.51271 0
M  V30 13196 H 1280.49 0.619497 0.717584 0
M  V30 13197 H 1280.2 1.81777 3.01081 0
M  V30 13198 H 1280.07 0.238119 3.76448 0
M  V30 13199 H 1282.46 -0.305852 2.93511 0
M  V30 13200 H 1282.54 1.30235 2.20165 0
M  V30 13201 H 1282.19 2.34614 4.50465 0
M  V30 13202 H 1282.12 0.714858 5.21725 0
M  V30 13203 H 1284.61 0.90991 3.66782 0
M  V30 13204 H 1284.92 2.46154 7.32549 0
M  V30 13205 H 1283.26 2.20714 6.59022 0
M  V30 13206 H 1286.46 1.20869 4.52226 0
M  V30 13207 H 1286.63 1.91602 6.19025 0
M  V30 13208 N 1280.03 -1.55556 0.252993 0
M  V30 13209 C 1281.28 -1.99385 -0.370599 0
M  V30 13210 C 1281.61 -1.14101 -1.57145 0
M  V30 13211 O 1280.89 -0.205828 -1.93408 0
M  V30 13212 C 1281.17 -3.51672 -0.774503 0
M  V30 13213 C 1281.02 -4.47719 0.432159 0
M  V30 13214 C 1282.34 -4.0923 -1.61923 0
M  V30 13215 H 1279.46 -0.724858 -0.133231 0
M  V30 13216 H 1282.1 -1.86644 0.355522 0
M  V30 13217 H 1280.25 -3.62661 -1.39318 0
M  V30 13218 H 1281.93 -4.48704 1.07063 0
M  V30 13219 H 1280.17 -4.2029 1.07419 0
M  V30 13220 H 1280.84 -5.51898 0.106123 0
M  V30 13221 H 1283.32 -4.01381 -1.09693 0
M  V30 13222 H 1282.19 -5.16039 -1.87068 0
M  V30 13223 H 1282.45 -3.58067 -2.59307 0
M  V30 13224 N 1281.51 0.0200419 -1.57587 0
M  V30 13225 C 1282.76 0.710078 -1.89962 0
M  V30 13226 C 1283.09 1.74521 -0.851829 0
M  V30 13227 O 1282.37 1.94052 0.132005 0
M  V30 13228 C 1282.65 1.37145 -3.32961 0
M  V30 13229 C 1282.5 0.349221 -4.48442 0
M  V30 13230 C 1283.82 2.30304 -3.75031 0
M  V30 13231 H 1280.94 0.25667 -0.690862 0
M  V30 13232 H 1283.58 -0.0271362 -1.89981 0
M  V30 13233 H 1281.73 1.99981 -3.33076 0
M  V30 13234 H 1283.4 -0.277916 -4.60462 0
M  V30 13235 H 1281.65 -0.330594 -4.32538 0
M  V30 13236 H 1282.32 0.850636 -5.45406 0
M  V30 13237 H 1284.79 1.77503 -3.7634 0
M  V30 13238 H 1283.67 2.73555 -4.75877 0
M  V30 13239 H 1283.93 3.17364 -3.07786 0
M  V30 13240 N 1282.99 1.54862 0.292472 0
M  V30 13241 C 1283.94 1.87168 1.38097 0
M  V30 13242 C 1284.93 0.746176 1.52081 0
M  V30 13243 O 1286.14 0.930281 1.54097 0
M  V30 13244 H 1282.51 0.593769 0.461456 0
M  V30 13245 H 1284.48 2.78135 1.0809 0
M  V30 13246 C 1283.23 2.14315 2.73796 0
M  V30 13247 H 1282.56 3.00398 2.63821 0
M  V30 13248 H 1284 2.40853 3.48949 0
M  V30 13249 C 1282.46 0.944424 3.23392 0
M  V30 13250 O 1282.99 0.169208 4.01343 0
M  V30 13251 N 1281.19 0.747456 2.80823 0
M  V30 13252 H 1280.74 1.37953 2.17547 0
M  V30 13253 H 1280.7 -0.0530199 3.14355 0
M  V30 13254 N 1284.47 -0.556076 1.47464 0
M  V30 13255 C 1285.88 -0.882115 1.33007 0
M  V30 13256 C 1286.08 -1.9892 0.321407 0
M  V30 13257 O 1285.14 -2.51088 -0.266668 0
M  V30 13258 C 1286.45 -1.27428 2.72365 0
M  V30 13259 C 1288 -1.38564 2.80658 0
M  V30 13260 C 1288.48 -1.81136 4.20659 0
M  V30 13261 N 1289.97 -1.88284 4.23206 0
M  V30 13262 C 1290.7 -2.22555 5.28447 0
M  V30 13263 N 1290.2 -2.55432 6.43993 0
M  V30 13264 N 1291.99 -2.23339 5.15826 0
M  V30 13265 H 1284.14 0.17481 2.11679 0
M  V30 13266 H 1286.41 0.0155421 0.947873 0
M  V30 13267 H 1286.11 -0.53463 3.47613 0
M  V30 13268 H 1285.99 -2.23019 3.04208 0
M  V30 13269 H 1288.37 -2.1161 2.05682 0
M  V30 13270 H 1288.45 -0.411588 2.52467 0
M  V30 13271 H 1288.1 -1.08659 4.96141 0
M  V30 13272 H 1288.03 -2.79546 4.46275 0
M  V30 13273 H 1290.52 -1.65259 3.3985 0
M  V30 13274 H 1290.83 -2.80612 7.20053 0
M  V30 13275 H 1289.18 -2.5301 6.47311 0
M  V30 13276 H 1292.37 -1.97094 4.24584 0
M  V30 13277 H 1292.54 -2.49717 5.97951 0
M  V30 13278 N 1285.95 -1.35615 -0.802897 0
M  V30 13279 C 1286.9 -1.25378 -1.90432 0
M  V30 13280 C 1287.88 -0.148217 -1.60216 0
M  V30 13281 O 1289.07 -0.379783 -1.72878 0
M  V30 13282 C 1286.2 -1.03172 -3.2743 0
M  V30 13283 C 1285.29 -2.18135 -3.637 0
M  V30 13284 N 1285.68 -3.43382 -3.71379 0
M  V30 13285 C 1283.98 -2.09603 -3.93678 0
M  V30 13286 C 1284.68 -4.19004 -4.03498 0
M  V30 13287 N 1283.65 -3.47799 -4.17776 0
M  V30 13288 H 1287.46 -2.20267 -1.94576 0
M  V30 13289 H 1284.97 -1.2814 -0.997687 0
M  V30 13290 H 1286.97 -0.939264 -4.06182 0
M  V30 13291 H 1285.63 -0.0917091 -3.2457 0
M  V30 13292 H 1286.64 -3.77687 -3.54363 0
M  V30 13293 H 1283.32 -1.23479 -3.98822 0
M  V30 13294 H 1284.71 -5.27255 -4.16476 0
M  V30 13295 N 1287.43 1.02549 -1.19673 0
M  V30 13296 C 1288.36 2.12794 -0.961289 0
M  V30 13297 C 1289.34 1.69766 0.106575 0
M  V30 13298 O 1290.52 1.94138 -0.0491358 0
M  V30 13299 C 1287.65 3.4364 -0.502868 0
M  V30 13300 C 1286.61 4.00367 -1.51296 0
M  V30 13301 C 1285.93 5.26874 -0.911491 0
M  V30 13302 C 1287.23 4.34782 -2.89416 0
M  V30 13303 H 1288.93 2.32748 -1.88331 0
M  V30 13304 H 1286.47 1.11852 -0.906922 0
M  V30 13305 H 1288.42 4.20141 -0.325436 0
M  V30 13306 H 1287.15 3.23418 0.454764 0
M  V30 13307 H 1285.81 3.25964 -1.67759 0
M  V30 13308 H 1285.46 5.02971 0.0537982 0
M  V30 13309 H 1285.16 5.65791 -1.58602 0
M  V30 13310 H 1286.68 6.06039 -0.74493 0
M  V30 13311 H 1288.09 5.02207 -2.76516 0
M  V30 13312 H 1286.49 4.8479 -3.53693 0
M  V30 13313 H 1287.56 3.43935 -3.41814 0
M  V30 13314 N 1288.9 1.00119 1.21713 0
M  V30 13315 C 1289.87 0.563409 2.22167 0
M  V30 13316 C 1290.87 -0.35819 1.5676 0
M  V30 13317 O 1292.06 -0.149001 1.73562 0
M  V30 13318 C 1289.19 -0.179365 3.40428 0
M  V30 13319 H 1290.38 1.45189 2.62412 0
M  V30 13320 H 1287.93 0.789286 1.34907 0
M  V30 13321 H 1288.67 -1.08345 3.05666 0
M  V30 13322 H 1288.45 0.482471 3.8912 0
M  V30 13323 H 1289.94 -0.473537 4.14906 0
M  V30 13324 N 1290.38 -1.37203 0.775435 0
M  V30 13325 C 1291.61 -2.03868 0.352927 0
M  V30 13326 C 1292.02 -1.58482 -1.0261 0
M  V30 13327 O 1291.38 -0.767772 -1.65564 0
M  V30 13328 C 1291.43 -3.59378 0.39116 0
M  V30 13329 O 1291.15 -4.03103 1.71579 0
M  V30 13330 C 1292.65 -4.4328 -0.0424808 0
M  V30 13331 H 1289.87 -0.654619 0.14736 0
M  V30 13332 H 1292.42 -1.75463 1.05039 0
M  V30 13333 H 1290.57 -3.86542 -0.257752 0
M  V30 13334 H 1290.99 -4.9764 1.65695 0
M  V30 13335 H 1292.46 -5.51989 0.0354215 0
M  V30 13336 H 1292.94 -4.25374 -1.09333 0
M  V30 13337 H 1293.54 -4.21349 0.578384 0
M  V30 13338 N 1291.86 -0.526279 -1.48553 0
M  V30 13339 C 1292.81 0.258285 -2.26532 0
M  V30 13340 C 1293.79 0.913187 -1.32475 0
M  V30 13341 O 1294.99 0.816606 -1.57037 0
M  V30 13342 C 1292.11 1.30686 -3.17452 0
M  V30 13343 C 1291.2 0.656933 -4.18981 0
M  V30 13344 N 1291.59 -0.255186 -5.05156 0
M  V30 13345 C 1289.89 0.914575 -4.36522 0
M  V30 13346 C 1290.59 -0.629753 -5.78281 0
M  V30 13347 N 1289.57 0.00829904 -5.43599 0
M  V30 13348 H 1293.37 -0.44348 -2.90535 0
M  V30 13349 H 1290.88 -0.344054 -1.58714 0
M  V30 13350 H 1292.88 1.8826 -3.71973 0
M  V30 13351 H 1291.54 2.01004 -2.55005 0
M  V30 13352 H 1292.55 -0.627564 -5.14084 0
M  V30 13353 H 1289.23 1.6086 -3.85266 0
M  V30 13354 H 1290.62 -1.37746 -6.57629 0
M  V30 13355 N 1293.34 1.5542 -0.261239 0
M  V30 13356 C 1294.59 1.9846 0.360052 0
M  V30 13357 C 1294.9 1.15288 1.58013 0
M  V30 13358 O 1296.11 1.48408 2.27348 0
M  V30 13359 C 1294.56 3.53185 0.691964 0
M  V30 13360 C 1294.17 4.45116 -0.507521 0
M  V30 13361 C 1295.91 4.04848 1.27665 0
M  V30 13362 C 1293.82 5.91207 -0.150966 0
M  V30 13363 H 1292.75 0.741207 0.138303 0
M  V30 13364 H 1295.4 1.79859 -0.363712 0
M  V30 13365 H 1293.78 3.67535 1.47425 0
M  V30 13366 H 1294.96 4.42531 -1.28465 0
M  V30 13367 H 1293.27 4.04013 -1.0081 0
M  V30 13368 H 1295.87 5.11529 1.55699 0
M  V30 13369 H 1296.21 3.5305 2.20593 0
M  V30 13370 H 1296.75 3.93882 0.556955 0
M  V30 13371 H 1293.48 6.47072 -1.04776 0
M  V30 13372 H 1293 5.96894 0.589671 0
M  V30 13373 H 1294.68 6.4647 0.261772 0
M  V30 13374 N 1294.82 -0.0116844 1.57596 0
M  V30 13375 C 1296.09 -0.735344 1.81251 0
M  V30 13376 C 1296.47 -1.92634 0.863446 0
M  V30 13377 O 1295.82 -2.28321 -0.0905028 0
M  V30 13378 C 1296.03 -1.15206 3.29437 0
M  V30 13379 C 1297.38 -1.56078 3.94873 0
M  V30 13380 O 1298.4 -1.24618 3.3369 0
M  V30 13381 O 1297.26 -2.14534 5.0263 0
M  V30 13382 H 1294.36 -0.357044 0.745955 0
M  V30 13383 H 1296.9 0.0128733 1.69695 0
M  V30 13384 H 1295.67 -0.302619 3.90128 0
M  V30 13385 H 1295.3 -1.95975 3.45947 0
M  V30 13386 N 1296.29 -1.55015 -0.284256 0
M  V30 13387 C 1297.54 -1.76276 -1.01481 0
M  V30 13388 C 1297.89 -0.550981 -1.84342 0
M  V30 13389 O 1297.19 0.456483 -1.86083 0
M  V30 13390 C 1297.38 -3.00246 -1.93874 0
M  V30 13391 C 1297.21 -4.33365 -1.20104 0
M  V30 13392 C 1295.98 -4.9683 -0.921324 0
M  V30 13393 C 1298.18 -5.10822 -0.597078 0
M  V30 13394 N 1296.16 -6.13703 -0.155654 0
M  V30 13395 C 1297.53 -6.1999 0.0349821 0
M  V30 13396 C 1299.59 -4.95345 -0.503796 0
M  V30 13397 C 1298.29 -7.15365 0.751319 0
M  V30 13398 C 1300.32 -5.91065 0.198923 0
M  V30 13399 C 1299.68 -6.99614 0.819767 0
M  V30 13400 H 1295.78 -0.697434 -0.353709 0
M  V30 13401 H 1298.36 -1.92503 -0.291645 0
M  V30 13402 H 1296.53 -2.85414 -2.63426 0
M  V30 13403 H 1298.26 -3.09959 -2.60206 0
M  V30 13404 H 1295.02 -4.57517 -1.22375 0
M  V30 13405 H 1295.44 -6.76661 0.214183 0
M  V30 13406 H 1300.08 -4.11535 -0.969477 0
M  V30 13407 H 1297.8 -7.98704 1.22872 0
M  V30 13408 H 1301.39 -5.81167 0.271267 0
M  V30 13409 H 1300.27 -7.72407 1.35487 0
M  V30 13410 N 1297.77 0.548248 -1.47757 0
M  V30 13411 C 1298.7 1.66999 -1.56984 0
M  V30 13412 C 1299.72 1.56302 -0.455372 0
M  V30 13413 O 1300.91 1.63096 -0.725399 0
M  V30 13414 C 1298.01 3.0553 -1.46645 0
M  V30 13415 C 1297.18 3.41892 -2.72816 0
M  V30 13416 C 1296.24 4.59624 -2.56187 0
M  V30 13417 O 1295.26 4.63757 -3.30028 0
M  V30 13418 N 1296.47 5.56675 -1.64601 0
M  V30 13419 H 1299.23 1.59527 -2.53715 0
M  V30 13420 H 1296.79 0.735101 -1.44249 0
M  V30 13421 H 1298.78 3.82137 -1.33242 0
M  V30 13422 H 1297.35 3.0718 -0.57961 0
M  V30 13423 H 1296.57 2.54644 -3.00916 0
M  V30 13424 H 1297.86 3.62965 -3.56559 0
M  V30 13425 H 1297.26 5.561 -1.03778 0
M  V30 13426 H 1295.82 6.32573 -1.57146 0
M  V30 13427 N 1299.25 1.36039 0.795694 0
M  V30 13428 C 1300.2 1.29902 1.92946 0
M  V30 13429 C 1301.19 0.191943 1.68309 0
M  V30 13430 O 1302.4 0.358577 1.76392 0
M  V30 13431 H 1298.77 0.404252 0.634101 0
M  V30 13432 H 1300.74 2.25663 1.95241 0
M  V30 13433 C 1299.49 1.09887 3.29879 0
M  V30 13434 H 1298.82 1.94318 3.494 0
M  V30 13435 H 1300.26 1.09638 4.0958 0
M  V30 13436 C 1298.71 -0.196802 3.36325 0
M  V30 13437 O 1299.24 -1.18883 3.83705 0
M  V30 13438 N 1297.45 -0.239325 2.89613 0
M  V30 13439 H 1297 0.568571 2.51247 0
M  V30 13440 H 1296.96 -1.10593 2.94307 0
M  V30 13441 N 1300.73 -1.01913 1.20215 0
M  V30 13442 C 1301.97 -1.77015 1.02202 0
M  V30 13443 C 1302.33 -1.86927 -0.43845 0
M  V30 13444 O 1303.53 -2.58451 -0.73869 0
M  V30 13445 C 1301.8 -3.15244 1.68393 0
M  V30 13446 S 1303.36 -4.06414 1.65449 0
M  V30 13447 H 1300.18 -0.609242 0.366531 0
M  V30 13448 H 1302.78 -1.22044 1.52727 0
M  V30 13449 H 1301.49 -3.05653 2.73869 0
M  V30 13450 H 1301.02 -3.7529 1.17988 0
M  V30 13451 H 1303.03 -4.91441 0.685571 0
M  V30 13452 N 1302.21 -1.00763 -1.2118 0
M  V30 13453 C 1303.45 -0.692851 -1.90598 0
M  V30 13454 C 1303.79 0.774698 -1.78079 0
M  V30 13455 O 1303.06 1.56186 -1.15914 0
M  V30 13456 C 1303.34 -1.11792 -3.42308 0
M  V30 13457 C 1303.2 -2.64511 -3.63805 0
M  V30 13458 C 1304.52 -0.682314 -4.34779 0
M  V30 13459 H 1301.63 -0.253175 -0.69215 0
M  V30 13460 H 1304.28 -1.25378 -1.4276 0
M  V30 13461 H 1302.43 -0.640665 -3.83181 0
M  V30 13462 H 1304.1 -3.20021 -3.32242 0
M  V30 13463 H 1302.34 -3.05903 -3.0758 0
M  V30 13464 H 1303.01 -2.89306 -4.70113 0
M  V30 13465 H 1305.49 -1.09247 -4.01503 0
M  V30 13466 H 1304.36 -1.00787 -5.39568 0
M  V30 13467 H 1304.63 0.416441 -4.40134 0
M  V30 13468 N 1303.68 1.3679 -0.7827 0
M  V30 13469 C 1304.93 2.0016 -0.361585 0
M  V30 13470 C 1305.29 1.61011 1.05324 0
M  V30 13471 O 1304.58 0.851491 1.7164 0
M  V30 13472 C 1304.77 3.54489 -0.455232 0
M  V30 13473 C 1304.6 4.08627 -1.87761 0
M  V30 13474 C 1303.37 4.3908 -2.50073 0
M  V30 13475 C 1305.57 4.28858 -2.83876 0
M  V30 13476 N 1303.55 4.79 -3.8397 0
M  V30 13477 C 1304.92 4.71507 -4.02593 0
M  V30 13478 C 1306.98 4.11013 -2.81021 0
M  V30 13479 C 1305.68 4.98181 -5.18852 0
M  V30 13480 C 1307.71 4.3883 -3.96463 0
M  V30 13481 C 1307.07 4.81729 -5.13922 0
M  V30 13482 H 1303.17 0.761099 -0.179588 0
M  V30 13483 H 1305.75 1.65913 -1.01887 0
M  V30 13484 H 1303.92 3.88019 0.171926 0
M  V30 13485 H 1305.65 4.04699 -0.0110089 0
M  V30 13486 H 1302.41 4.28547 -2.01605 0
M  V30 13487 H 1302.83 5.03253 -4.52841 0
M  V30 13488 H 1307.48 3.77009 -1.91375 0
M  V30 13489 H 1305.19 5.3107 -6.0909 0
M  V30 13490 H 1308.78 4.266 -3.95606 0
M  V30 13491 H 1307.66 5.02838 -6.01767 0
M  V30 13492 N 1305.16 0.53415 1.48272 0
M  V30 13493 C 1306.07 -0.230062 2.33469 0
M  V30 13494 C 1307.09 -0.934889 1.46751 0
M  V30 13495 O 1308.26 -0.908921 1.79724 0
M  V30 13496 C 1305.33 -1.2609 3.22958 0
M  V30 13497 C 1304.39 -0.565983 4.25553 0
M  V30 13498 C 1303.62 -1.54771 5.10766 0
M  V30 13499 O 1303.85 -2.7807 4.9803 0
M  V30 13500 O 1302.78 -1.08482 5.92043 0
M  V30 13501 H 1306.61 0.468182 3.0007 0
M  V30 13502 H 1304.19 0.29502 1.46458 0
M  V30 13503 H 1306.07 -1.85652 3.783 0
M  V30 13504 H 1304.75 -1.94148 2.59014 0
M  V30 13505 H 1303.66 0.0702391 3.74034 0
M  V30 13506 H 1304.99 0.0727277 4.92146 0
M  V30 13507 N 1306.64 -1.55279 0.269478 0
M  V30 13508 C 1307.92 -1.91458 -0.400412 0
M  V30 13509 C 1308.3 -1.19306 -1.74153 0
M  V30 13510 O 1307.65 -0.318017 -2.26276 0
M  V30 13511 C 1307.86 -3.44698 -0.546258 0
M  V30 13512 C 1309.2 -4.16374 -0.831758 0
M  V30 13513 O 1310.23 -3.50561 -0.631279 0
M  V30 13514 O 1309.09 -5.32826 -1.21484 0
M  V30 13515 H 1306.18 -0.79766 -0.218328 0
M  V30 13516 H 1308.73 -1.66747 0.315214 0
M  V30 13517 H 1307.5 -3.89273 0.397784 0
M  V30 13518 H 1307.12 -3.75345 -1.31157 0
M  V30 13519 N 1308.12 0.00332656 -1.576 0
M  V30 13520 C 1309.35 0.69893 -1.94418 0
M  V30 13521 C 1309.76 1.68021 -0.8698 0
M  V30 13522 O 1309.1 1.83 0.160193 0
M  V30 13523 C 1309.16 1.4892 -3.27205 0
M  V30 13524 C 1308.83 0.669874 -4.52064 0
M  V30 13525 C 1309.82 -0.0410157 -5.19884 0
M  V30 13526 C 1307.51 0.616824 -4.98498 0
M  V30 13527 C 1309.5 -0.793976 -6.32436 0
M  V30 13528 C 1307.19 -0.139864 -6.1094 0
M  V30 13529 C 1308.19 -0.844001 -6.77765 0
M  V30 13530 O 1307.87 -1.58835 -7.88052 0
M  V30 13531 H 1307.61 0.199843 -0.645785 0
M  V30 13532 H 1310.16 -0.0429034 -2.05355 0
M  V30 13533 H 1308.39 2.27544 -3.12667 0
M  V30 13534 H 1310.08 2.06983 -3.4916 0
M  V30 13535 H 1310.85 -0.00916281 -4.84999 0
M  V30 13536 H 1306.72 1.15442 -4.46312 0
M  V30 13537 H 1310.27 -1.34411 -6.84529 0
M  V30 13538 H 1306.17 -0.173549 -6.45267 0
M  V30 13539 H 1306.93 -1.50471 -8.0455 0
M  V30 13540 N 1309.6 1.55164 0.276031 0
M  V30 13541 C 1310.54 1.88623 1.36104 0
M  V30 13542 C 1311.54 0.762265 1.51281 0
M  V30 13543 O 1312.74 0.946573 1.53101 0
M  V30 13544 H 1309.12 0.59863 0.455133 0
M  V30 13545 H 1311.09 2.79266 1.05134 0
M  V30 13546 C 1309.84 2.17207 2.71508 0
M  V30 13547 H 1309.16 3.03179 2.6062 0
M  V30 13548 H 1310.6 2.44541 3.46375 0
M  V30 13549 C 1309.06 0.978671 3.22372 0
M  V30 13550 O 1309.59 0.211766 4.01141 0
M  V30 13551 N 1307.8 0.777199 2.80014 0
M  V30 13552 H 1307.34 1.40252 2.16072 0
M  V30 13553 H 1307.3 -0.0196754 3.14394 0
M  V30 13554 N 1311.07 -0.540404 1.48045 0
M  V30 13555 C 1312.49 -0.867958 1.33935 0
M  V30 13556 C 1312.69 -1.98568 0.342488 0
M  V30 13557 O 1311.75 -2.51357 -0.240022 0
M  V30 13558 C 1313.06 -1.24532 2.73701 0
M  V30 13559 C 1314.61 -1.3558 2.82112 0
M  V30 13560 C 1315.08 -1.76664 4.22556 0
M  V30 13561 N 1316.57 -1.83785 4.25179 0
M  V30 13562 C 1317.31 -2.16938 5.30778 0
M  V30 13563 N 1316.8 -2.48587 6.46666 0
M  V30 13564 N 1318.6 -2.17855 5.18166 0
M  V30 13565 H 1310.75 0.197251 2.11482 0
M  V30 13566 H 1313.01 0.0255947 0.947654 0
M  V30 13567 H 1312.72 -0.497731 3.4816 0
M  V30 13568 H 1312.59 -2.19779 3.06556 0
M  V30 13569 H 1314.98 -2.09417 2.07915 0
M  V30 13570 H 1315.06 -0.384787 2.52889 0
M  V30 13571 H 1314.7 -1.03391 4.97265 0
M  V30 13572 H 1314.63 -2.74797 4.49215 0
M  V30 13573 H 1317.12 -1.61645 3.41583 0
M  V30 13574 H 1317.44 -2.72959 7.22989 0
M  V30 13575 H 1315.78 -2.4613 6.49958 0
M  V30 13576 H 1318.97 -1.9258 4.2665 0
M  V30 13577 H 1319.15 -2.43361 6.00566 0
M  V30 13578 N 1312.55 -1.36459 -0.788468 0
M  V30 13579 C 1313.83 -1.21289 -1.53455 0
M  V30 13580 C 1314.21 0.200549 -2.10145 0
M  V30 13581 O 1313.56 1.20629 -1.94064 0
M  V30 13582 C 1313.77 -2.29562 -2.62873 0
M  V30 13583 C 1315.12 -2.66277 -3.30729 0
M  V30 13584 O 1316.14 -2.28612 -2.73157 0
M  V30 13585 O 1315 -3.31106 -4.34777 0
M  V30 13586 H 1312.09 -0.472306 -0.678864 0
M  V30 13587 H 1314.64 -1.48192 -0.826869 0
M  V30 13588 H 1313.41 -3.24286 -2.18984 0
M  V30 13589 H 1313.03 -2.0403 -3.41259 0
M  V30 13590 N 1314.03 1.01274 -1.20754 0
M  V30 13591 C 1314.96 2.11763 -0.983805 0
M  V30 13592 C 1315.94 1.69869 0.0885635 0
M  V30 13593 O 1317.13 1.94075 -0.0697239 0
M  V30 13594 C 1314.26 3.43087 -0.539287 0
M  V30 13595 C 1313.21 3.9874 -1.55534 0
M  V30 13596 C 1312.54 5.25877 -0.967322 0
M  V30 13597 C 1313.84 4.31688 -2.94012 0
M  V30 13598 H 1315.53 2.30737 -1.90789 0
M  V30 13599 H 1313.08 1.10884 -0.918734 0
M  V30 13600 H 1315.03 4.19773 -0.369979 0
M  V30 13601 H 1313.75 3.23883 0.420435 0
M  V30 13602 H 1312.41 3.24166 -1.71207 0
M  V30 13603 H 1312.06 5.03 0.000448307 0
M  V30 13604 H 1311.76 5.64077 -1.64594 0
M  V30 13605 H 1313.28 6.05215 -0.809167 0
M  V30 13606 H 1314.7 4.99246 -2.81827 0
M  V30 13607 H 1313.1 4.81011 -3.58815 0
M  V30 13608 H 1314.17 3.4029 -3.45442 0
M  V30 13609 N 1315.51 1.01404 1.20644 0
M  V30 13610 C 1316.44 0.602465 2.25594 0
M  V30 13611 C 1317.42 -0.381216 1.65773 0
M  V30 13612 O 1318.61 -0.267209 1.92353 0
M  V30 13613 C 1315.74 -0.0626245 3.47244 0
M  V30 13614 C 1314.69 0.841776 4.1964 0
M  V30 13615 C 1314.02 0.0426002 5.34683 0
M  V30 13616 C 1315.32 2.14864 4.76058 0
M  V30 13617 H 1317.01 1.47977 2.60275 0
M  V30 13618 H 1314.56 0.712966 1.25111 0
M  V30 13619 H 1316.51 -0.362095 4.19841 0
M  V30 13620 H 1315.23 -0.974627 3.11719 0
M  V30 13621 H 1313.89 1.12521 3.48905 0
M  V30 13622 H 1313.54 -0.870973 4.95402 0
M  V30 13623 H 1313.24 0.644866 5.84051 0
M  V30 13624 H 1314.76 -0.250476 6.10086 0
M  V30 13625 H 1316.18 1.9117 5.40488 0
M  V30 13626 H 1314.57 2.70153 5.35852 0
M  V30 13627 H 1315.64 2.81336 3.9494 0
M  V30 13628 N 1316.99 -1.36373 0.789944 0
M  V30 13629 C 1318.23 -1.99523 0.363119 0
M  V30 13630 C 1318.57 -1.6255 -1.0626 0
M  V30 13631 O 1317.84 -0.880551 -1.73426 0
M  V30 13632 C 1318.12 -3.56215 0.527526 0
M  V30 13633 C 1317.98 -4.0304 1.99697 0
M  V30 13634 C 1319.3 -4.40063 -0.0571079 0
M  V30 13635 H 1316.42 -0.724824 0.133412 0
M  V30 13636 H 1319.06 -1.61778 0.996381 0
M  V30 13637 H 1317.21 -3.88498 -0.0115636 0
M  V30 13638 H 1318.88 -3.81241 2.59717 0
M  V30 13639 H 1317.12 -3.54561 2.49939 0
M  V30 13640 H 1317.79 -5.12001 2.06297 0
M  V30 13641 H 1320.27 -4.14143 0.403082 0
M  V30 13642 H 1319.15 -5.4883 0.0879494 0
M  V30 13643 H 1319.41 -4.26901 -1.14926 0
M  V30 13644 N 1318.47 -0.542005 -1.47987 0
M  V30 13645 C 1319.69 -0.0146835 -2.07395 0
M  V30 13646 C 1320.12 1.26266 -1.39422 0
M  V30 13647 O 1319.47 1.75259 -0.464118 0
M  V30 13648 C 1319.52 0.179937 -3.60151 0
M  V30 13649 O 1318.63 1.24596 -3.93128 0
M  V30 13650 H 1317.97 -0.0445076 -0.662507 0
M  V30 13651 H 1320.5 -0.753352 -1.90226 0
M  V30 13652 H 1320.51 0.398876 -4.06046 0
M  V30 13653 H 1319.18 -0.753093 -4.09025 0
M  V30 13654 H 1317.76 1.00872 -3.58997 0
M  V30 13655 N 1319.94 1.55134 -0.277709 0
M  V30 13656 C 1321.17 2.04061 0.341601 0
M  V30 13657 C 1321.59 1.15597 1.49274 0
M  V30 13658 O 1320.94 0.176625 1.81643 0
M  V30 13659 C 1320.99 3.52074 0.820139 0
M  V30 13660 O 1320.72 4.37171 -0.28516 0
M  V30 13661 C 1322.22 4.16899 1.507 0
M  V30 13662 H 1319.44 0.666501 0.0775708 0
M  V30 13663 H 1321.98 2.00336 -0.410559 0
M  V30 13664 H 1320.14 3.56233 1.52238 0
M  V30 13665 H 1320.55 5.24434 0.0832022 0
M  V30 13666 H 1322.02 5.22061 1.79323 0
M  V30 13667 H 1322.5 3.65227 2.43939 0
M  V30 13668 H 1323.11 4.16749 0.848541 0
M  V30 13669 N 1321.42 0.00503138 1.57599 0
M  V30 13670 C 1322.65 -0.689609 1.95069 0
M  V30 13671 C 1323.06 -1.67028 0.880183 0
M  V30 13672 O 1322.42 -1.81959 -0.140406 0
M  V30 13673 C 1322.47 -1.41709 3.32567 0
M  V30 13674 O 1322.19 -0.475746 4.35509 0
M  V30 13675 C 1323.69 -2.20578 3.84526 0
M  V30 13676 H 1320.91 -0.19175 0.643019 0
M  V30 13677 H 1323.46 0.057646 2.04419 0
M  V30 13678 H 1321.61 -2.11593 3.2451 0
M  V30 13679 H 1322.03 -0.989573 5.1508 0
M  V30 13680 H 1323.5 -2.66969 4.83148 0
M  V30 13681 H 1323.98 -3.03467 3.17497 0
M  V30 13682 H 1324.58 -1.557 3.95775 0
M  V30 13683 N 1322.9 -1.55308 -0.267798 0
M  V30 13684 C 1324.13 -1.80191 -1.01681 0
M  V30 13685 C 1324.54 -0.57783 -1.7974 0
M  V30 13686 O 1323.9 0.4532 -1.76783 0
M  V30 13687 C 1323.95 -3.03023 -1.97127 0
M  V30 13688 O 1323.67 -4.20704 -1.22229 0
M  V30 13689 C 1325.17 -3.40549 -2.83798 0
M  V30 13690 H 1322.39 -0.60013 -0.300142 0
M  V30 13691 H 1324.94 -2.02332 -0.297007 0
M  V30 13692 H 1323.09 -2.82993 -2.64563 0
M  V30 13693 H 1323.51 -4.90181 -1.86608 0
M  V30 13694 H 1324.98 -4.29653 -3.46557 0
M  V30 13695 H 1325.46 -2.60186 -3.53836 0
M  V30 13696 H 1326.06 -3.62856 -2.21846 0
M  V30 13697 N 1324.38 0.532545 -1.4833 0
M  V30 13698 C 1325.34 1.61955 -1.62183 0
M  V30 13699 C 1326.34 1.52982 -0.495281 0
M  V30 13700 O 1327.53 1.56698 -0.761005 0
M  V30 13701 C 1324.66 3.0157 -1.58961 0
M  V30 13702 H 1325.86 1.51013 -2.59105 0
M  V30 13703 H 1323.41 0.754405 -1.36888 0
M  V30 13704 H 1324.14 3.18021 -0.635069 0
M  V30 13705 H 1323.93 3.09491 -2.40744 0
M  V30 13706 H 1325.42 3.80604 -1.71843 0
M  V30 13707 N 1325.86 1.36875 0.78122 0
M  V30 13708 C 1326.81 1.28392 1.88413 0
M  V30 13709 C 1327.79 0.173687 1.5996 0
M  V30 13710 O 1328.98 0.407238 1.72251 0
M  V30 13711 C 1326.11 1.08368 3.25747 0
M  V30 13712 C 1325.2 2.23894 3.60184 0
M  V30 13713 N 1325.59 3.49247 3.65869 0
M  V30 13714 C 1323.89 2.1584 3.90294 0
M  V30 13715 C 1324.59 4.2537 3.96781 0
M  V30 13716 N 1323.56 3.54402 4.1219 0
M  V30 13717 H 1327.36 2.23334 1.91047 0
M  V30 13718 H 1324.88 1.29711 0.977175 0
M  V30 13719 H 1326.88 1.00376 4.04636 0
M  V30 13720 H 1325.54 0.143334 3.24383 0
M  V30 13721 H 1326.55 3.83276 3.4831 0
M  V30 13722 H 1323.22 1.29808 3.96807 0
M  V30 13723 H 1324.61 5.33814 4.08035 0
M  V30 13724 N 1327.33 -1.00632 1.21289 0
M  V30 13725 C 1328.58 -1.74044 1.02728 0
M  V30 13726 C 1328.9 -1.89963 -0.440351 0
M  V30 13727 O 1328.17 -1.44958 -1.31772 0
M  V30 13728 H 1326.75 -0.644813 0.377127 0
M  V30 13729 H 1329.41 -1.21272 1.52575 0
M  V30 13730 H 1328.51 -2.74011 1.49413 0
M  V30 13731 N 1328.81 -1.02043 -1.20104 0
M  V30 13732 C 1330.05 -0.720566 -1.91278 0
M  V30 13733 C 1330.42 0.73658 -1.77309 0
M  V30 13734 O 1331.62 1.14913 -2.42999 0
M  V30 13735 C 1329.89 -1.1489 -3.3843 0
M  V30 13736 S 1331.45 -0.971591 -4.27908 0
M  V30 13737 H 1328.26 -0.262582 -0.660736 0
M  V30 13738 H 1330.87 -1.30849 -1.45254 0
M  V30 13739 H 1329.57 -2.20521 -3.46119 0
M  V30 13740 H 1329.1 -0.553911 -3.89481 0
M  V30 13741 H 1331.12 0.122695 -4.96048 0
M  V30 13742 N 1330.29 1.35952 -0.797165 0
M  V30 13743 C 1331.57 1.93335 -0.2968 0
M  V30 13744 C 1331.95 1.72825 1.21222 0
M  V30 13745 O 1331.3 1.09172 2.00733 0
M  V30 13746 C 1331.51 3.41951 -0.697894 0
M  V30 13747 C 1332.85 4.19087 -0.682026 0
M  V30 13748 O 1333.88 3.50424 -0.638849 0
M  V30 13749 O 1332.74 5.41577 -0.73189 0
M  V30 13750 H 1329.83 0.823554 -0.0754223 0
M  V30 13751 H 1332.38 1.45086 -0.88023 0
M  V30 13752 H 1331.15 3.50569 -1.73831 0
M  V30 13753 H 1330.77 3.97501 -0.088764 0
M  V30 13754 N 1331.77 0.549846 1.47697 0
M  V30 13755 C 1333 0.0276889 2.06881 0
M  V30 13756 C 1333.41 -1.26273 1.40359 0
M  V30 13757 O 1332.77 -1.75584 0.497644 0
M  V30 13758 C 1332.82 -0.179291 3.61055 0
M  V30 13759 O 1332.54 1.06002 4.25083 0
M  V30 13760 C 1334.04 -0.739571 4.37087 0
M  V30 13761 H 1331.26 0.0425016 0.669653 0
M  V30 13762 H 1333.81 0.761158 1.89807 0
M  V30 13763 H 1331.96 -0.862867 3.77668 0
M  V30 13764 H 1332.37 0.853137 5.17515 0
M  V30 13765 H 1333.85 -0.833722 5.45668 0
M  V30 13766 H 1334.33 -1.74915 4.02867 0
M  V30 13767 H 1334.93 -0.0919294 4.25201 0
M  V30 13768 N 1333.25 -1.54984 0.285932 0
M  V30 13769 C 1334.5 -1.99008 -0.328433 0
M  V30 13770 C 1334.81 -1.17787 -1.56158 0
M  V30 13771 O 1336.01 -1.52006 -2.24959 0
M  V30 13772 C 1334.47 -3.54241 -0.635688 0
M  V30 13773 C 1334.08 -4.44252 0.578271 0
M  V30 13774 C 1335.82 -4.06828 -1.21208 0
M  V30 13775 C 1333.73 -5.90892 0.245003 0
M  V30 13776 H 1332.66 -0.743314 -0.126494 0
M  V30 13777 H 1335.31 -1.79258 0.39228 0
M  V30 13778 H 1333.69 -3.69834 -1.41559 0
M  V30 13779 H 1334.87 -4.40431 1.35489 0
M  V30 13780 H 1333.18 -4.02358 1.07225 0
M  V30 13781 H 1335.78 -5.13941 -1.47542 0
M  V30 13782 H 1336.12 -3.56515 -2.14948 0
M  V30 13783 H 1336.65 -3.94718 -0.494222 0
M  V30 13784 H 1333.39 -6.45323 1.15057 0
M  V30 13785 H 1332.91 -5.97757 -0.494636 0
M  V30 13786 H 1334.59 -6.46805 -0.158891 0
M  V30 13787 N 1334.72 -0.0133892 -1.57594 0
M  V30 13788 C 1335.69 0.958601 -2.08191 0
M  V30 13789 C 1336.69 1.26408 -0.993865 0
M  V30 13790 O 1337.88 1.20703 -1.25604 0
M  V30 13791 C 1335.01 2.27971 -2.5346 0
M  V30 13792 H 1336.2 0.520686 -2.95345 0
M  V30 13793 H 1333.76 0.234351 -1.54533 0
M  V30 13794 H 1334.49 2.76424 -1.69588 0
M  V30 13795 H 1334.28 2.07116 -3.32935 0
M  V30 13796 H 1335.77 2.97672 -2.92884 0
M  V30 13797 N 1336.2 1.55448 0.259558 0
M  V30 13798 C 1337.62 1.47588 0.607442 0
M  V30 13799 C 1337.82 0.701053 1.88911 0
M  V30 13800 O 1336.87 0.225305 2.51493 0
M  V30 13801 C 1338.19 2.91905 0.72192 0
M  V30 13802 C 1339.74 3.02201 0.815087 0
M  V30 13803 C 1340.21 4.47799 0.961231 0
M  V30 13804 N 1341.7 4.51684 1.02642 0
M  V30 13805 C 1342.44 5.61574 1.15854 0
M  V30 13806 N 1341.93 6.81301 1.257 0
M  V30 13807 N 1343.73 5.49344 1.1907 0
M  V30 13808 H 1335.88 2.04271 -0.581981 0
M  V30 13809 H 1338.14 0.926865 -0.199059 0
M  V30 13810 H 1337.85 3.51382 -0.149611 0
M  V30 13811 H 1337.72 3.41681 1.59793 0
M  V30 13812 H 1340.11 2.42813 1.67708 0
M  V30 13813 H 1340.19 2.55656 -0.0858102 0
M  V30 13814 H 1339.83 5.07794 0.103848 0
M  V30 13815 H 1339.76 4.92013 1.87698 0
M  V30 13816 H 1342.25 3.65446 0.962184 0
M  V30 13817 H 1342.57 7.60801 1.35652 0
M  V30 13818 H 1340.91 6.84087 1.2268 0
M  V30 13819 H 1344.1 4.54745 1.11018 0
M  V30 13820 H 1344.27 6.35025 1.29022 0
M  V30 13821 N 1337.68 -0.524672 1.4861 0
M  V30 13822 C 1338.92 -1.29064 1.58499 0
M  V30 13823 C 1339.28 -1.90294 0.255378 0
M  V30 13824 O 1340.49 -2.6782 0.229289 0
M  V30 13825 C 1338.76 -2.34693 2.69544 0
M  V30 13826 S 1340.32 -3.20944 2.99233 0
M  V30 13827 H 1337.13 -0.438948 0.559326 0
M  V30 13828 H 1339.74 -0.597119 1.86158 0
M  V30 13829 H 1338.44 -1.88199 3.64704 0
M  V30 13830 H 1337.97 -3.08745 2.43804 0
M  V30 13831 H 1339.99 -4.34883 2.38937 0
M  V30 13832 N 1339.16 -1.37287 -0.77395 0
M  V30 13833 C 1340.09 -1.28746 -1.89624 0
M  V30 13834 C 1341.1 -0.203715 -1.6152 0
M  V30 13835 O 1342.29 -0.459684 -1.72479 0
M  V30 13836 C 1339.39 -0.967342 -3.24801 0
M  V30 13837 C 1338.57 -2.1561 -3.80567 0
M  V30 13838 C 1337.62 -1.80661 -4.94215 0
M  V30 13839 O 1336.65 -2.5293 -5.09917 0
M  V30 13840 N 1337.85 -0.749424 -5.75642 0
M  V30 13841 H 1340.62 -2.25447 -1.97468 0
M  V30 13842 H 1338.18 -1.30883 -0.952956 0
M  V30 13843 H 1340.17 -0.714421 -3.98344 0
M  V30 13844 H 1338.74 -0.0889573 -3.12473 0
M  V30 13845 H 1337.96 -2.57091 -2.98828 0
M  V30 13846 H 1339.25 -2.94993 -4.14556 0
M  V30 13847 H 1338.65 -0.149673 -5.65502 0
M  V30 13848 H 1337.2 -0.556358 -6.49421 0
M  V30 13849 N 1340.64 0.999871 -1.21821 0
M  V30 13850 C 1341.88 1.75366 -1.05005 0
M  V30 13851 C 1342.24 1.87601 0.408656 0
M  V30 13852 O 1343.44 2.59593 0.697479 0
M  V30 13853 C 1341.71 3.12525 -1.73387 0
M  V30 13854 S 1343.27 4.0373 -1.71894 0
M  V30 13855 H 1340.09 0.603334 -0.376177 0
M  V30 13856 H 1342.69 1.19598 -1.5465 0
M  V30 13857 H 1341.4 3.01258 -2.78697 0
M  V30 13858 H 1340.93 3.73365 -1.23944 0
M  V30 13859 H 1342.94 4.90288 -0.763668 0
M  V30 13860 N 1342.11 1.02678 1.19562 0
M  V30 13861 C 1343.34 0.741569 1.93154 0
M  V30 13862 C 1343.76 -0.699292 1.75372 0
M  V30 13863 O 1343.11 -1.47533 1.07426 0
M  V30 13864 C 1343.17 1.08064 3.4497 0
M  V30 13865 O 1342.89 2.46492 3.62179 0
M  V30 13866 C 1344.39 0.817935 4.35689 0
M  V30 13867 H 1341.61 0.271506 0.613617 0
M  V30 13868 H 1344.15 1.3707 1.51763 0
M  V30 13869 H 1342.31 0.496723 3.84202 0
M  V30 13870 H 1342.72 2.59053 4.56061 0
M  V30 13871 H 1344.19 1.10517 5.40823 0
M  V30 13872 H 1344.67 -0.247693 4.38501 0
M  V30 13873 H 1345.28 1.38449 4.02134 0
M  V30 13874 N 1343.59 -1.35528 0.804364 0
M  V30 13875 C 1344.82 -2.03073 0.396091 0
M  V30 13876 C 1345.24 -1.60623 -0.992252 0
M  V30 13877 O 1344.59 -0.802718 -1.63898 0
M  V30 13878 C 1344.64 -3.58467 0.467301 0
M  V30 13879 O 1344.36 -3.99373 1.80091 0
M  V30 13880 C 1345.87 -4.4327 0.0515549 0
M  V30 13881 H 1343.09 -0.651346 0.161212 0
M  V30 13882 H 1345.63 -1.73195 1.08737 0
M  V30 13883 H 1343.78 -3.87001 -0.175703 0
M  V30 13884 H 1344.2 -4.94013 1.76214 0
M  V30 13885 H 1345.67 -5.51789 0.152499 0
M  V30 13886 H 1346.15 -4.27597 -1.00286 0
M  V30 13887 H 1346.76 -4.20027 0.667628 0
M  V30 13888 N 1345.07 -0.557671 -1.47404 0
M  V30 13889 C 1346.32 -0.0337216 -2.02072 0
M  V30 13890 C 1346.64 1.32106 -1.43433 0
M  V30 13891 O 1345.91 1.86171 -0.609692 0
M  V30 13892 H 1344.49 -0.00947648 -0.74694 0
M  V30 13893 H 1347.15 -0.727784 -1.80802 0
M  V30 13894 H 1346.25 0.0540331 -3.12053 0
M  V30 13895 N 1346.55 1.54831 -0.294147 0
M  V30 13896 C 1347.8 2.00298 0.317605 0
M  V30 13897 C 1348.13 1.18228 1.54064 0
M  V30 13898 O 1347.4 0.257034 1.92794 0
M  V30 13899 C 1347.69 3.53602 0.680991 0
M  V30 13900 C 1347.54 4.46416 -0.550711 0
M  V30 13901 C 1348.86 4.13379 1.51016 0
M  V30 13902 H 1345.98 0.728135 0.113965 0
M  V30 13903 H 1348.62 1.85636 -0.404883 0
M  V30 13904 H 1346.77 3.66227 1.29654 0
M  V30 13905 H 1348.44 4.45707 -1.18922 0
M  V30 13906 H 1346.68 4.17294 -1.18524 0
M  V30 13907 H 1347.36 5.51423 -0.252412 0
M  V30 13908 H 1349.83 4.04148 0.99012 0
M  V30 13909 H 1348.71 5.20818 1.73321 0
M  V30 13910 H 1348.97 3.64817 2.49722 0
M  V30 13911 N 1348.03 0.0217466 1.57585 0
M  V30 13912 C 1349.26 -0.667911 1.95506 0
M  V30 13913 C 1349.67 -1.66616 0.89642 0
M  V30 13914 O 1349.01 -1.83232 -0.131059 0
M  V30 13915 C 1349.07 -1.43696 3.29533 0
M  V30 13916 C 1348.73 -0.59787 4.53072 0
M  V30 13917 C 1349.73 0.12372 5.19753 0
M  V30 13918 C 1347.42 -0.53744 4.99417 0
M  V30 13919 C 1349.41 0.894491 6.31092 0
M  V30 13920 C 1347.1 0.237041 6.1064 0
M  V30 13921 C 1348.1 0.95172 6.76337 0
M  V30 13922 O 1347.78 1.71352 7.85426 0
M  V30 13923 H 1347.52 -0.189544 0.648883 0
M  V30 13924 H 1350.07 0.0755682 2.05261 0
M  V30 13925 H 1348.3 -2.22541 3.16247 0
M  V30 13926 H 1349.99 -2.01402 3.52409 0
M  V30 13927 H 1350.75 0.0863208 4.84923 0
M  V30 13928 H 1346.63 -1.08327 4.48092 0
M  V30 13929 H 1350.18 1.45285 6.82304 0
M  V30 13930 H 1346.07 0.276183 6.44909 0
M  V30 13931 H 1346.84 1.63252 8.02054 0
M  V30 13932 N 1349.51 -1.55583 -0.251311 0
M  V30 13933 C 1350.75 -1.77209 -0.979966 0
M  V30 13934 C 1351.08 -0.585279 -1.85485 0
M  V30 13935 O 1350.34 0.431559 -1.90882 0
M  V30 13936 C 1350.63 -3.04291 -1.87461 0
M  V30 13937 C 1350.3 -4.35844 -1.15545 0
M  V30 13938 C 1348.96 -4.71594 -0.956679 0
M  V30 13939 C 1351.31 -5.17189 -0.645381 0
M  V30 13940 C 1348.64 -5.86227 -0.235465 0
M  V30 13941 C 1350.99 -6.32569 0.0623441 0
M  V30 13942 C 1349.66 -6.66943 0.272634 0
M  V30 13943 H 1348.93 -0.648452 -0.358595 0
M  V30 13944 H 1351.58 -1.89856 -0.250423 0
M  V30 13945 H 1349.88 -2.86637 -2.67108 0
M  V30 13946 H 1351.58 -3.18221 -2.44001 0
M  V30 13947 H 1348.17 -4.07757 -1.32031 0
M  V30 13948 H 1352.35 -4.90028 -0.786505 0
M  V30 13949 H 1347.61 -6.11369 -0.0620232 0
M  V30 13950 H 1351.78 -6.94844 0.465234 0
M  V30 13951 H 1349.41 -7.55617 0.833442 0
M  V30 13952 N 1350.98 0.516783 -1.48886 0
M  V30 13953 C 1352.22 1.28221 -1.59181 0
M  V30 13954 C 1352.59 1.90156 -0.265466 0
M  V30 13955 O 1353.79 2.67695 -0.243489 0
M  V30 13956 C 1352.06 2.3326 -2.70785 0
M  V30 13957 S 1353.62 3.19353 -3.00931 0
M  V30 13958 H 1350.44 0.435976 -0.561646 0
M  V30 13959 H 1353.04 0.587238 -1.86472 0
M  V30 13960 H 1351.74 1.86263 -3.65697 0
M  V30 13961 H 1351.27 3.07447 -2.45438 0
M  V30 13962 H 1353.29 4.3361 -2.4124 0
M  V30 13963 N 1352.46 1.37696 0.766659 0
M  V30 13964 C 1353.39 1.36576 1.89392 0
M  V30 13965 C 1354.37 0.233597 1.68488 0
M  V30 13966 O 1355.56 0.434719 1.89272 0
M  V30 13967 C 1352.69 1.17705 3.26746 0
M  V30 13968 C 1351.64 2.27987 3.62224 0
M  V30 13969 C 1350.97 1.94235 4.98174 0
M  V30 13970 C 1352.27 3.70195 3.68447 0
M  V30 13971 H 1353.96 2.30905 1.90587 0
M  V30 13972 H 1351.51 1.11148 0.915538 0
M  V30 13973 H 1353.46 1.15551 4.05248 0
M  V30 13974 H 1352.18 0.198334 3.25997 0
M  V30 13975 H 1350.84 2.29306 2.86032 0
M  V30 13976 H 1350.49 0.948796 4.93971 0
M  V30 13977 H 1350.19 2.68086 5.2288 0
M  V30 13978 H 1351.72 1.93676 5.7907 0
M  V30 13979 H 1353.13 3.70978 4.37091 0
M  V30 13980 H 1351.53 4.43142 4.04654 0
M  V30 13981 H 1352.6 4.03453 2.68986 0
M  V30 13982 N 1353.94 -0.993397 1.22349 0
M  V30 13983 C 1355.16 -1.77373 1.07488 0
M  V30 13984 C 1355.59 -1.84418 -0.37034 0
M  V30 13985 O 1354.95 -1.29629 -1.26752 0
M  V30 13986 C 1355 -3.18538 1.69014 0
M  V30 13987 O 1354.1 -4.01463 0.943474 0
M  V30 13988 H 1353.44 -0.546209 0.37756 0
M  V30 13989 H 1355.97 -1.24792 1.62136 0
M  V30 13990 H 1355.98 -3.6917 1.73717 0
M  V30 13991 H 1354.66 -3.12725 2.74182 0
M  V30 13992 H 1353.23 -3.59998 0.972415 0
M  V30 13993 N 1355.42 -1.03311 -1.19015 0
M  V30 13994 C 1356.83 -0.750946 -1.4083 0
M  V30 13995 C 1357.03 0.662704 -1.90291 0
M  V30 13996 O 1356.09 1.42806 -2.08237 0
M  V30 13997 C 1357.4 -1.79064 -2.41571 0
M  V30 13998 C 1358.95 -1.81068 -2.55311 0
M  V30 13999 C 1359.43 -2.84008 -3.59309 0
M  V30 14000 N 1360.92 -2.82852 -3.6681 0
M  V30 14001 C 1361.65 -3.59156 -4.46984 0
M  V30 14002 N 1361.15 -4.45188 -5.30829 0
M  V30 14003 N 1362.94 -3.47679 -4.41674 0
M  V30 14004 H 1355.09 -1.94548 -0.852329 0
M  V30 14005 H 1357.35 -0.841344 -0.436858 0
M  V30 14006 H 1357.06 -2.80425 -2.12261 0
M  V30 14007 H 1356.93 -1.61646 -3.40809 0
M  V30 14008 H 1359.32 -0.803825 -2.83941 0
M  V30 14009 H 1359.4 -2.02562 -1.56212 0
M  V30 14010 H 1359.05 -3.84867 -3.3142 0
M  V30 14011 H 1358.98 -2.59771 -4.58069 0
M  V30 14012 H 1361.47 -2.20457 -3.06932 0
M  V30 14013 H 1361.78 -5.00139 -5.89135 0
M  V30 14014 H 1360.13 -4.49259 -5.30275 0
M  V30 14015 H 1363.32 -2.79876 -3.75216 0
M  V30 14016 H 1363.49 -4.07396 -5.03917 0
M  V30 14017 N 1356.9 1.35099 -0.81154 0
M  V30 14018 C 1357.84 2.31618 -0.213536 0
M  V30 14019 C 1358.84 1.56868 0.63944 0
M  V30 14020 O 1360.04 1.71957 0.532051 0
M  V30 14021 H 1356.42 0.750316 -0.0502963 0
M  V30 14022 H 1358.39 2.79593 -1.04262 0
M  V30 14023 C 1357.14 3.4214 0.619293 0
M  V30 14024 H 1356.46 3.9979 -0.0277192 0
M  V30 14025 H 1357.9 4.11941 1.00401 0
M  V30 14026 C 1356.36 2.85607 1.7869 0
M  V30 14027 O 1356.89 2.7956 2.8846 0
M  V30 14028 N 1355.1 2.42587 1.6 0
M  V30 14029 H 1354.64 2.47705 0.707105 0
M  V30 14030 H 1354.6 2.0511 2.38279 0
M  V30 14031 N 1358.37 0.56548 1.47106 0
M  V30 14032 C 1359.32 -0.177564 2.30116 0
M  V30 14033 C 1360.29 -0.900534 1.39569 0
M  V30 14034 O 1361.48 -0.894603 1.68527 0
M  V30 14035 C 1358.62 -1.19633 3.237 0
M  V30 14036 C 1357.73 -0.47858 4.29341 0
M  V30 14037 C 1356.86 -1.48336 5.10068 0
M  V30 14038 C 1355.9 -0.751049 6.07475 0
M  V30 14039 N 1355.04 -1.70306 6.81132 0
M  V30 14040 H 1359.88 0.536409 2.93132 0
M  V30 14041 H 1357.42 0.276352 1.44481 0
M  V30 14042 H 1359.37 -1.79967 3.76388 0
M  V30 14043 H 1358 -1.87823 2.6253 0
M  V30 14044 H 1357.06 0.239454 3.79646 0
M  V30 14045 H 1358.37 0.0947147 4.9871 0
M  V30 14046 H 1357.52 -2.16 5.66947 0
M  V30 14047 H 1356.26 -2.09058 4.4062 0
M  V30 14048 H 1355.27 -0.0605336 5.49767 0
M  V30 14049 H 1356.49 -0.14946 6.78936 0
M  V30 14050 H 1354.44 -2.2987 6.14407 0
M  V30 14051 H 1354.35 -1.18213 7.46701 0
M  V30 14052 H 1355.62 -2.37058 7.42579 0
M  V30 14053 N 1359.85 -1.54672 0.302354 0
M  V30 14054 C 1360.8 -2.20281 -0.588245 0
M  V30 14055 C 1361.79 -1.17624 -1.09788 0
M  V30 14056 O 1362.98 -1.43338 -1.03842 0
M  V30 14057 C 1360.11 -2.94812 -1.759 0
M  V30 14058 C 1359.19 -4.04786 -1.26526 0
M  V30 14059 N 1359.58 -5.03425 -0.489625 0
M  V30 14060 C 1357.88 -4.18352 -1.54588 0
M  V30 14061 C 1358.58 -5.81259 -0.226538 0
M  V30 14062 N 1357.56 -5.37581 -0.806723 0
M  V30 14063 H 1361.36 -2.93898 0.0118911 0
M  V30 14064 H 1358.88 -1.62046 0.107181 0
M  V30 14065 H 1360.87 -3.40283 -2.40859 0
M  V30 14066 H 1359.53 -2.22712 -2.36282 0
M  V30 14067 H 1360.54 -5.17726 -0.134401 0
M  V30 14068 H 1357.22 -3.57458 -2.15709 0
M  V30 14069 H 1358.61 -6.70729 0.396499 0
M  V30 14070 N 1361.33 -0.0301034 -1.57571 0
M  V30 14071 C 1362.56 0.657533 -1.95857 0
M  V30 14072 C 1362.97 1.66138 -0.905244 0
M  V30 14073 O 1362.31 1.83299 0.12134 0
M  V30 14074 C 1362.37 1.41946 -3.3029 0
M  V30 14075 C 1362.04 0.573834 -4.53383 0
M  V30 14076 C 1363.03 -0.151282 -5.1968 0
M  V30 14077 C 1360.72 0.510947 -4.99695 0
M  V30 14078 C 1362.71 -0.927947 -6.30609 0
M  V30 14079 C 1360.4 -0.269422 -6.10506 0
M  V30 14080 C 1361.4 -0.987575 -6.75822 0
M  V30 14081 O 1361.09 -1.75515 -7.84506 0
M  V30 14082 H 1360.82 0.1861 -0.649879 0
M  V30 14083 H 1363.37 -0.0864526 -2.05218 0
M  V30 14084 H 1361.6 2.20861 -3.17423 0
M  V30 14085 H 1363.29 1.9953 -3.53472 0
M  V30 14086 H 1364.06 -0.112036 -4.84871 0
M  V30 14087 H 1359.94 1.05949 -4.4866 0
M  V30 14088 H 1363.48 -1.48901 -6.81524 0
M  V30 14089 H 1359.38 -0.310381 -6.44753 0
M  V30 14090 H 1360.15 -1.67503 -8.01177 0
M  V30 14091 N 1362.81 1.55714 0.243056 0
M  V30 14092 C 1364.22 1.68126 0.811814 0
M  V30 14093 C 1364.57 0.628259 1.85869 0
M  V30 14094 O 1363.7 -0.224747 2.1523 0
M  V30 14095 C 1364.29 3.048 1.47928 0
M  V30 14096 C 1362.85 3.19138 1.99569 0
M  V30 14097 C 1362 2.64011 0.848149 0
M  V30 14098 H 1364.95 1.58689 0.0187918 0
M  V30 14099 H 1364.97 2.99459 2.34743 0
M  V30 14100 H 1364.48 3.81417 0.717106 0
M  V30 14101 H 1362.58 2.4735 2.78655 0
M  V30 14102 H 1362.69 4.26095 2.19043 0
M  V30 14103 H 1361.06 2.21934 1.2497 0
M  V30 14104 H 1361.84 3.43157 0.0989987 0
M  V30 14105 N 1364.29 -0.50888 1.49158 0
M  V30 14106 C 1365.53 -1.26537 1.58481 0
M  V30 14107 C 1365.87 -1.92353 0.267168 0
M  V30 14108 O 1365.14 -1.80336 -0.728639 0
M  V30 14109 C 1365.42 -2.33846 2.73839 0
M  V30 14110 C 1365.28 -1.72582 4.15374 0
M  V30 14111 C 1366.6 -3.35467 2.84868 0
M  V30 14112 H 1363.71 -0.458697 0.576859 0
M  V30 14113 H 1366.36 -0.564728 1.81413 0
M  V30 14114 H 1364.51 -2.93605 2.54417 0
M  V30 14115 H 1366.18 -1.16711 4.46292 0
M  V30 14116 H 1364.42 -1.03025 4.21389 0
M  V30 14117 H 1365.09 -2.5038 4.91949 0
M  V30 14118 H 1367.57 -2.85689 3.02524 0
M  V30 14119 H 1366.44 -4.07922 3.67275 0
M  V30 14120 H 1366.71 -3.97313 1.93894 0
M  V30 14121 N 1365.76 -1.381 -0.759346 0
M  V30 14122 C 1366.99 -1.37389 -1.55367 0
M  V30 14123 C 1367.41 0.0356097 -1.88066 0
M  V30 14124 O 1366.77 1.0161 -1.5015 0
M  V30 14125 C 1366.82 -2.23098 -2.83302 0
M  V30 14126 O 1365.92 -1.64412 -3.7821 0
M  V30 14127 H 1365.27 -0.468894 -0.470143 0
M  V30 14128 H 1367.8 -1.81787 -0.938858 0
M  V30 14129 H 1367.81 -2.36753 -3.32283 0
M  V30 14130 H 1366.48 -3.25544 -2.58831 0
M  V30 14131 H 1365.06 -1.59867 -3.36893 0
M  V30 14132 N 1367.24 0.986894 -1.22875 0
M  V30 14133 C 1368.49 1.72729 -1.05693 0
M  V30 14134 C 1368.82 1.90191 0.407121 0
M  V30 14135 O 1368.07 1.44667 1.31796 0
M  V30 14136 C 1368.37 3.13283 -1.72012 0
M  V30 14137 C 1368.04 3.15719 -3.2192 0
M  V30 14138 C 1366.7 3.1609 -3.62823 0
M  V30 14139 C 1369.05 3.11539 -4.17843 0
M  V30 14140 C 1366.38 3.09991 -4.98119 0
M  V30 14141 C 1368.73 3.06982 -5.53123 0
M  V30 14142 C 1367.4 3.05672 -5.93397 0
M  V30 14143 H 1366.67 0.63206 -0.386758 0
M  V30 14144 H 1369.31 1.15538 -1.52719 0
M  V30 14145 H 1367.62 3.7382 -1.17327 0
M  V30 14146 H 1369.31 3.69326 -1.56203 0
M  V30 14147 H 1365.9 3.16183 -2.89355 0
M  V30 14148 H 1370.09 3.10397 -3.87256 0
M  V30 14149 H 1365.34 3.07326 -5.28546 0
M  V30 14150 H 1369.52 3.02705 -6.27171 0
M  V30 14151 H 1367.15 3.00701 -6.982 0
M  V30 14152 N 1368.72 1.0394 1.18466 0
M  V30 14153 C 1369.63 0.639714 2.2571 0
M  V30 14154 C 1370.65 -0.333431 1.70775 0
M  V30 14155 O 1371.82 -0.188676 2.00514 0
M  V30 14156 C 1368.89 0.007559 3.46699 0
M  V30 14157 C 1367.95 1.02955 4.16772 0
M  V30 14158 C 1367.18 0.427464 5.31985 0
M  V30 14159 O 1367.4 -0.766684 5.65224 0
M  V30 14160 O 1366.34 1.15553 5.90704 0
M  V30 14161 H 1370.16 1.53316 2.6216 0
M  V30 14162 H 1367.75 0.810206 1.25523 0
M  V30 14163 H 1369.63 -0.344404 4.1999 0
M  V30 14164 H 1368.31 -0.859727 3.12074 0
M  V30 14165 H 1367.21 1.43328 3.45554 0
M  V30 14166 H 1368.55 1.86756 4.55393 0
M  V30 14167 N 1370.2 -1.34667 0.818693 0
M  V30 14168 C 1371.45 -1.98022 0.40396 0
M  V30 14169 C 1371.77 -1.65239 -1.03542 0
M  V30 14170 O 1371.04 -0.94097 -1.71821 0
M  V30 14171 H 1369.62 -0.732517 0.146382 0
M  V30 14172 H 1372.28 -1.64377 1.0472 0
M  V30 14173 H 1371.38 -3.07746 0.519516 0
M  V30 14174 N 1371.68 -0.573274 -1.46804 0
M  V30 14175 C 1373.09 -0.144162 -1.86143 0
M  V30 14176 C 1373.44 1.29033 -1.47801 0
M  V30 14177 O 1372.56 1.97319 -0.888494 0
M  V30 14178 C 1373.16 -0.254851 -3.3784 0
M  V30 14179 C 1371.72 0.119325 -3.76211 0
M  V30 14180 C 1370.86 -0.595115 -2.70839 0
M  V30 14181 H 1373.82 -0.782057 -1.38093 0
M  V30 14182 H 1373.84 0.522321 -3.76898 0
M  V30 14183 H 1373.35 -1.29899 -3.65715 0
M  V30 14184 H 1371.45 1.16396 -3.53953 0
M  V30 14185 H 1371.56 -0.250421 -4.78445 0
M  V30 14186 H 1369.93 -0.0364028 -2.54674 0
M  V30 14187 H 1370.71 -1.64072 -3.01555 0
M  V30 14188 N 1373.15 1.5451 -0.310553 0
M  V30 14189 C 1374.4 1.99931 0.29532 0
M  V30 14190 C 1374.72 1.20042 1.53672 0
M  V30 14191 O 1373.99 0.298841 1.93607 0
M  V30 14192 H 1372.57 0.738539 0.112111 0
M  V30 14193 H 1375.24 1.9023 -0.424092 0
M  V30 14194 H 1374.33 3.07021 0.560749 0
M  V30 14195 N 1374.63 0.0384594 1.57553 0
M  V30 14196 C 1375.56 -0.938444 2.13812 0
M  V30 14197 C 1376.54 -1.33307 1.05657 0
M  V30 14198 O 1377.73 -1.41003 1.33535 0
M  V30 14199 C 1374.86 -2.21764 2.67279 0
M  V30 14200 C 1373.81 -1.96347 3.80305 0
M  V30 14201 C 1373.14 -3.30612 4.20238 0
M  V30 14202 C 1374.44 -1.2952 5.05986 0
M  V30 14203 H 1376.13 -0.469887 2.9569 0
M  V30 14204 H 1373.68 -0.224576 1.42238 0
M  V30 14205 H 1375.63 -2.90493 3.05273 0
M  V30 14206 H 1374.36 -2.70802 1.82576 0
M  V30 14207 H 1373.02 -1.30033 3.42764 0
M  V30 14208 H 1372.66 -3.77427 3.32502 0
M  V30 14209 H 1372.36 -3.14409 4.96408 0
M  V30 14210 H 1373.89 -4.00594 4.60822 0
M  V30 14211 H 1375.3 -1.88264 5.41507 0
M  V30 14212 H 1373.7 -1.23685 5.87216 0
M  V30 14213 H 1374.77 -0.269439 4.84151 0
M  V30 14214 N 1376.11 -1.55841 -0.234795 0
M  V30 14215 C 1377.36 -1.78502 -0.96254 0
M  V30 14216 C 1377.69 -0.605832 -1.84508 0
M  V30 14217 O 1376.97 0.395446 -1.90438 0
M  V30 14218 C 1377.25 -3.11144 -1.81277 0
M  V30 14219 C 1377.1 -4.39488 -0.957607 0
M  V30 14220 C 1378.42 -3.40114 -2.79304 0
M  V30 14221 H 1375.54 -0.649397 -0.348501 0
M  V30 14222 H 1378.18 -1.88575 -0.23224 0
M  V30 14223 H 1376.33 -3.02687 -2.43542 0
M  V30 14224 H 1378 -4.59949 -0.352726 0
M  V30 14225 H 1376.25 -4.33005 -0.262454 0
M  V30 14226 H 1376.92 -5.28707 -1.58659 0
M  V30 14227 H 1379.39 -3.48612 -2.27175 0
M  V30 14228 H 1378.27 -4.34118 -3.35906 0
M  V30 14229 H 1378.53 -2.61623 -3.56378 0
M  V30 14230 N 1377.59 0.500963 -1.49426 0
M  V30 14231 C 1378.5 1.62889 -1.68833 0
M  V30 14232 C 1379.52 1.64367 -0.570932 0
M  V30 14233 O 1380.69 1.82786 -0.845641 0
M  V30 14234 C 1377.76 2.99255 -1.75063 0
M  V30 14235 C 1376.82 3.08404 -2.9864 0
M  V30 14236 C 1376.05 4.38266 -3.04564 0
M  V30 14237 O 1376.27 5.27065 -2.1808 0
M  V30 14238 O 1375.21 4.52387 -3.97026 0
M  V30 14239 H 1379.03 1.49446 -2.64385 0
M  V30 14240 H 1376.62 0.677254 -1.33168 0
M  V30 14241 H 1378.5 3.80303 -1.81515 0
M  V30 14242 H 1377.18 3.1296 -0.826896 0
M  V30 14243 H 1376.08 2.26544 -2.97706 0
M  V30 14244 H 1377.42 2.99626 -3.90494 0
M  V30 14245 N 1379.07 1.38501 0.752011 0
M  V30 14246 C 1380.31 1.34995 1.51341 0
M  V30 14247 C 1380.65 -0.0594724 1.94109 0
M  V30 14248 O 1379.92 -1.02098 1.65548 0
M  V30 14249 C 1380.2 2.30705 2.76491 0
M  V30 14250 C 1380.06 3.80515 2.39851 0
M  V30 14251 C 1381.38 2.24521 3.78521 0
M  V30 14252 H 1378.5 0.491687 0.549011 0
M  V30 14253 H 1381.14 1.69361 0.861205 0
M  V30 14254 H 1379.29 2.01529 3.32142 0
M  V30 14255 H 1380.96 4.20371 1.89962 0
M  V30 14256 H 1379.2 3.98119 1.7229 0
M  V30 14257 H 1379.87 4.42946 3.29397 0
M  V30 14258 H 1382.35 2.50282 3.32413 0
M  V30 14259 H 1381.23 2.93598 4.63779 0
M  V30 14260 H 1381.49 1.24457 4.2422 0
M  V30 14261 N 1380.55 -0.980364 1.23396 0
M  V30 14262 C 1381.48 -2.07522 0.972991 0
M  V30 14263 C 1382.49 -1.62714 -0.0530191 0
M  V30 14264 O 1383.68 -1.77564 0.182513 0
M  V30 14265 C 1380.78 -3.35977 0.444126 0
M  V30 14266 C 1379.95 -4.09756 1.53031 0
M  V30 14267 C 1379.01 -5.16488 1.00631 0
M  V30 14268 O 1378.04 -5.43368 1.69529 0
M  V30 14269 N 1379.24 -5.80263 -0.165842 0
M  V30 14270 H 1382 -2.30487 1.91561 0
M  V30 14271 H 1379.57 -1.14706 1.14255 0
M  V30 14272 H 1381.56 -4.04624 0.078617 0
M  V30 14273 H 1380.13 -3.0998 -0.403912 0
M  V30 14274 H 1379.35 -3.35564 2.06858 0
M  V30 14275 H 1380.64 -4.55815 2.26076 0
M  V30 14276 H 1380.03 -5.60811 -0.742162 0
M  V30 14277 H 1378.59 -6.50084 -0.472614 0
M  V30 14278 N 1382.02 -1.04567 -1.17913 0
M  V30 14279 C 1382.93 -0.651674 -2.25367 0
M  V30 14280 C 1383.95 0.32437 -1.7095 0
M  V30 14281 O 1385.13 0.178039 -2.00612 0
M  V30 14282 C 1382.19 -0.0259452 -3.4669 0
M  V30 14283 C 1381.25 -1.05163 -4.1622 0
M  V30 14284 C 1380.48 -0.45567 -5.31751 0
M  V30 14285 O 1380.71 0.736698 -5.65623 0
M  V30 14286 O 1379.64 -1.18684 -5.90083 0
M  V30 14287 H 1383.47 -1.54704 -2.61344 0
M  V30 14288 H 1381.05 -0.816852 -1.25092 0
M  V30 14289 H 1382.93 0.322126 -4.20167 0
M  V30 14290 H 1381.61 0.843165 -3.12526 0
M  V30 14291 H 1380.52 -1.45159 -3.44789 0
M  V30 14292 H 1381.85 -1.89168 -4.54397 0
M  V30 14293 N 1383.5 1.34231 -0.825823 0
M  V30 14294 C 1384.73 2.02949 -0.427354 0
M  V30 14295 C 1385.15 1.61772 0.959755 0
M  V30 14296 O 1384.51 0.803799 1.62508 0
M  V30 14297 C 1384.56 3.56522 -0.540799 0
M  V30 14298 O 1383.66 4.10065 0.438213 0
M  V30 14299 H 1383 0.640378 -0.175535 0
M  V30 14300 H 1385.53 1.71416 -1.11704 0
M  V30 14301 H 1385.54 4.05857 -0.41763 0
M  V30 14302 H 1384.22 3.85839 -1.55246 0
M  V30 14303 H 1382.79 3.71894 0.273687 0
M  V30 14304 N 1384.98 0.581051 1.46498 0
M  V30 14305 C 1385.89 -0.155669 2.34083 0
M  V30 14306 C 1386.91 -0.887728 1.49651 0
M  V30 14307 O 1388.08 -0.851284 1.82524 0
M  V30 14308 C 1385.15 -1.15752 3.26806 0
M  V30 14309 C 1384.21 -0.43031 4.27138 0
M  V30 14310 C 1383.44 -1.38443 5.15431 0
M  V30 14311 O 1383.66 -2.62084 5.06624 0
M  V30 14312 O 1382.6 -0.89592 5.95195 0
M  V30 14313 H 1386.42 0.56341 2.98428 0
M  V30 14314 H 1384.01 0.341466 1.45445 0
M  V30 14315 H 1385.89 -1.73523 3.84015 0
M  V30 14316 H 1384.57 -1.85809 2.65059 0
M  V30 14317 H 1383.47 0.1892 3.73621 0
M  V30 14318 H 1384.81 0.229263 4.91666 0
M  V30 14319 N 1386.46 -1.54343 0.318742 0
M  V30 14320 C 1387.69 -2.04597 -0.286961 0
M  V30 14321 C 1388.1 -1.19474 -1.46706 0
M  V30 14322 O 1387.44 -0.217082 -1.82413 0
M  V30 14323 C 1387.5 -3.50729 -0.789262 0
M  V30 14324 C 1387.16 -4.56214 0.267888 0
M  V30 14325 C 1388.16 -5.08079 1.10235 0
M  V30 14326 C 1385.85 -5.00585 0.414691 0
M  V30 14327 C 1387.84 -6.02872 2.06938 0
M  V30 14328 C 1385.53 -5.95195 1.38515 0
M  V30 14329 C 1386.53 -6.46224 2.21097 0
M  V30 14330 O 1386.21 -7.38976 3.16495 0
M  V30 14331 H 1385.95 -0.672994 -0.0636843 0
M  V30 14332 H 1388.5 -2.00147 0.461569 0
M  V30 14333 H 1386.73 -3.52562 -1.58862 0
M  V30 14334 H 1388.42 -3.84084 -1.31278 0
M  V30 14335 H 1389.18 -4.74581 0.999893 0
M  V30 14336 H 1385.06 -4.60483 -0.21819 0
M  V30 14337 H 1388.61 -6.42627 2.71435 0
M  V30 14338 H 1384.5 -6.28109 1.48826 0
M  V30 14339 H 1385.27 -7.56835 3.11678 0
M  V30 14340 N 1387.94 -0.0468143 -1.5753 0
M  V30 14341 C 1389.17 0.636723 -1.96544 0
M  V30 14342 C 1389.57 1.65169 -0.922814 0
M  V30 14343 O 1388.92 1.83417 0.101892 0
M  V30 14344 C 1388.98 1.38435 -3.31777 0
M  V30 14345 C 1388.64 0.525714 -4.53966 0
M  V30 14346 C 1389.64 -0.206392 -5.1949 0
M  V30 14347 C 1387.32 0.457919 -5.00208 0
M  V30 14348 C 1389.32 -0.994779 -6.29589 0
M  V30 14349 C 1387.01 -0.334159 -6.10186 0
M  V30 14350 C 1388 -1.0592 -6.74737 0
M  V30 14351 O 1387.69 -1.83826 -7.826 0
M  V30 14352 H 1387.42 0.179197 -0.651816 0
M  V30 14353 H 1389.98 -0.108214 -2.05115 0
M  V30 14354 H 1388.21 2.17482 -3.19748 0
M  V30 14355 H 1389.9 1.9577 -3.55568 0
M  V30 14356 H 1390.66 -0.163457 -4.84724 0
M  V30 14357 H 1386.54 1.01185 -4.49758 0
M  V30 14358 H 1390.09 -1.56121 -6.79906 0
M  V30 14359 H 1385.98 -0.378748 -6.44388 0
M  V30 14360 H 1386.75 -1.75991 -7.99356 0
M  V30 14361 N 1389.41 1.55964 0.226527 0
M  V30 14362 C 1390.83 1.68978 0.793936 0
M  V30 14363 C 1391.18 0.647938 1.85192 0
M  V30 14364 O 1390.3 -0.201907 2.15456 0
M  V30 14365 C 1390.9 3.06351 1.44687 0
M  V30 14366 C 1389.46 3.21237 1.96173 0
M  V30 14367 C 1388.6 2.64896 0.8201 0
M  V30 14368 H 1391.55 1.587 0.00195967 0
M  V30 14369 H 1391.57 3.01932 2.31554 0
M  V30 14370 H 1391.09 3.82156 0.676611 0
M  V30 14371 H 1389.19 2.50292 2.76016 0
M  V30 14372 H 1389.3 4.28394 2.14512 0
M  V30 14373 H 1387.66 2.23247 1.22609 0
M  V30 14374 H 1388.45 3.43243 0.0625967 0
M  V30 14375 N 1390.89 -0.493031 1.4969 0
M  V30 14376 C 1391.84 -1.59367 1.66945 0
M  V30 14377 C 1392.81 -1.58049 0.510842 0
M  V30 14378 O 1393.99 -1.75915 0.738822 0
M  V30 14379 C 1391.13 -2.97472 1.74941 0
M  V30 14380 C 1390.25 -3.08745 3.02159 0
M  V30 14381 C 1389.38 -4.37632 3.01085 0
M  V30 14382 C 1388.42 -4.42567 4.22849 0
M  V30 14383 N 1387.56 -5.62892 4.19639 0
M  V30 14384 H 1392.4 -1.4396 2.6092 0
M  V30 14385 H 1389.94 -0.700297 1.29361 0
M  V30 14386 H 1391.89 -3.7753 1.77558 0
M  V30 14387 H 1390.52 -3.11564 0.844252 0
M  V30 14388 H 1389.58 -2.217 3.09117 0
M  V30 14389 H 1390.89 -3.08251 3.92151 0
M  V30 14390 H 1390.04 -5.26018 3.02309 0
M  V30 14391 H 1388.78 -4.40702 2.08885 0
M  V30 14392 H 1387.79 -3.52581 4.21861 0
M  V30 14393 H 1389.01 -4.41205 5.1625 0
M  V30 14394 H 1386.96 -5.6679 3.30281 0
M  V30 14395 H 1386.87 -5.64048 5.03374 0
M  V30 14396 H 1388.14 -6.53464 4.24977 0
M  V30 14397 N 1392.37 -1.38898 -0.744656 0
M  V30 14398 C 1393.79 -1.20291 -1.04892 0
M  V30 14399 C 1393.99 -0.0577705 -2.01417 0
M  V30 14400 O 1393.04 0.593638 -2.45422 0
M  V30 14401 C 1394.36 -2.53302 -1.62045 0
M  V30 14402 C 1395.9 -2.60063 -1.74173 0
M  V30 14403 C 1396.38 -3.93272 -2.34736 0
M  V30 14404 N 1397.87 -3.9486 -2.42157 0
M  V30 14405 C 1398.6 -4.94698 -2.89933 0
M  V30 14406 N 1398.1 -6.04934 -3.37678 0
M  V30 14407 N 1399.89 -4.82083 -2.89055 0
M  V30 14408 H 1392.04 -2.12144 -0.104294 0
M  V30 14409 H 1394.31 -0.941725 -0.108895 0
M  V30 14410 H 1394.01 -3.376 -0.985868 0
M  V30 14411 H 1393.89 -2.72335 -2.60986 0
M  V30 14412 H 1396.27 -1.76155 -2.36756 0
M  V30 14413 H 1396.36 -2.44889 -0.739115 0
M  V30 14414 H 1396 -4.77607 -1.72784 0
M  V30 14415 H 1395.93 -4.05762 -3.35656 0
M  V30 14416 H 1398.42 -3.15243 -2.08399 0
M  V30 14417 H 1398.73 -6.77036 -3.72616 0
M  V30 14418 H 1397.08 -6.08541 -3.35712 0
M  V30 14419 H 1400.27 -3.9507 -2.51072 0
M  V30 14420 H 1400.44 -5.60039 -3.25975 0
M  V30 14421 N 1393.85 0.973806 -1.23914 0
M  V30 14422 C 1395.08 1.74853 -1.10046 0
M  V30 14423 C 1395.49 1.85927 0.350388 0
M  V30 14424 O 1394.83 1.34252 1.25388 0
M  V30 14425 C 1394.89 3.18919 -1.65924 0
M  V30 14426 C 1394.56 3.31335 -3.14748 0
M  V30 14427 C 1395.55 3.17141 -4.11968 0
M  V30 14428 C 1393.24 3.55772 -3.54587 0
M  V30 14429 C 1395.23 3.27199 -5.47009 0
M  V30 14430 C 1392.92 3.65468 -4.89771 0
M  V30 14431 C 1393.92 3.51193 -5.85792 0
M  V30 14432 O 1393.6 3.60534 -7.18519 0
M  V30 14433 H 1393.34 0.555345 -0.385445 0
M  V30 14434 H 1395.89 1.23168 -1.64374 0
M  V30 14435 H 1394.12 3.71882 -1.06023 0
M  V30 14436 H 1395.81 3.78177 -1.47434 0
M  V30 14437 H 1396.58 2.98153 -3.82531 0
M  V30 14438 H 1392.45 3.65951 -2.80358 0
M  V30 14439 H 1396 3.15974 -6.21937 0
M  V30 14440 H 1391.9 3.83969 -5.18882 0
M  V30 14441 H 1392.66 3.77288 -7.26358 0
M  V30 14442 N 1395.33 1.05191 1.17357 0
M  V30 14443 C 1396.26 0.610878 2.20909 0
M  V30 14444 C 1397.27 -0.325369 1.59515 0
M  V30 14445 O 1398.46 -0.118104 1.78109 0
M  V30 14446 C 1395.56 -0.126086 3.38665 0
M  V30 14447 C 1394.73 0.820857 4.29629 0
M  V30 14448 C 1393.79 0.125154 5.26051 0
M  V30 14449 O 1392.82 0.759245 5.64114 0
M  V30 14450 N 1394.02 -1.13742 5.69248 0
M  V30 14451 H 1396.79 1.50158 2.5937 0
M  V30 14452 H 1394.35 0.933814 1.32256 0
M  V30 14453 H 1396.34 -0.601627 4.00203 0
M  V30 14454 H 1394.91 -0.918459 2.98803 0
M  V30 14455 H 1394.13 1.47602 3.65523 0
M  V30 14456 H 1395.42 1.46363 4.87294 0
M  V30 14457 H 1394.81 -1.67291 5.40398 0
M  V30 14458 H 1393.37 -1.55703 6.3293 0
M  V30 14459 N 1396.8 -1.33791 0.83293 0
M  V30 14460 C 1398.03 -2.0272 0.438111 0
M  V30 14461 C 1398.45 -1.62279 -0.951163 0
M  V30 14462 O 1397.81 -0.812406 -1.62079 0
M  V30 14463 C 1397.86 -3.5623 0.559698 0
M  V30 14464 O 1396.96 -4.10292 -0.41646 0
M  V30 14465 H 1396.31 -0.639438 0.178928 0
M  V30 14466 H 1398.84 -1.70821 1.12612 0
M  V30 14467 H 1398.85 -4.0563 0.439148 0
M  V30 14468 H 1397.52 -3.8501 1.5729 0
M  V30 14469 H 1396.1 -3.72034 -0.25396 0
M  V30 14470 N 1398.28 -0.588812 -1.46187 0
M  V30 14471 C 1399.23 0.161973 -2.27424 0
M  V30 14472 C 1400.22 0.856178 -1.36229 0
M  V30 14473 O 1401.41 0.749266 -1.60359 0
M  V30 14474 C 1398.54 1.17104 -3.2271 0
M  V30 14475 C 1397.62 0.478637 -4.2139 0
M  V30 14476 N 1398.01 -0.46921 -5.03619 0
M  V30 14477 C 1396.31 0.728608 -4.40008 0
M  V30 14478 C 1397.01 -0.874455 -5.7509 0
M  V30 14479 N 1395.99 -0.222267 -5.43145 0
M  V30 14480 H 1399.79 -0.566306 -2.88392 0
M  V30 14481 H 1397.31 -0.41106 -1.57112 0
M  V30 14482 H 1399.3 1.72314 -3.79623 0
M  V30 14483 H 1397.96 1.90008 -2.63301 0
M  V30 14484 H 1398.97 -0.84504 -5.10959 0
M  V30 14485 H 1395.65 1.44375 -3.91742 0
M  V30 14486 H 1397.04 -1.65514 -6.51195 0
M  V30 14487 N 1399.76 1.54172 -0.326923 0
M  V30 14488 C 1401.01 2.00926 0.275047 0
M  V30 14489 C 1401.34 1.21469 1.51522 0
M  V30 14490 O 1400.61 0.297871 1.92206 0
M  V30 14491 C 1400.9 3.54967 0.605833 0
M  V30 14492 C 1400.75 4.45147 -0.645279 0
M  V30 14493 C 1402.07 4.16489 1.42213 0
M  V30 14494 H 1399.19 0.730389 0.098495 0
M  V30 14495 H 1401.83 1.84735 -0.444168 0
M  V30 14496 H 1399.98 3.68895 1.21857 0
M  V30 14497 H 1401.65 4.43085 -1.2835 0
M  V30 14498 H 1399.9 4.14686 -1.27349 0
M  V30 14499 H 1400.57 5.50763 -0.36932 0
M  V30 14500 H 1403.04 4.06158 0.904172 0
M  V30 14501 H 1401.92 5.24377 1.62234 0
M  V30 14502 H 1402.18 3.70032 2.41928 0
M  V30 14503 N 1401.24 0.0551678 1.57503 0
M  V30 14504 C 1402.17 -0.915714 2.14795 0
M  V30 14505 C 1403.15 -1.32179 1.07065 0
M  V30 14506 O 1404.33 -1.39579 1.35023 0
M  V30 14507 C 1401.46 -2.18916 2.69616 0
M  V30 14508 C 1400.42 -1.92303 3.82366 0
M  V30 14509 C 1399.74 -3.26136 4.23721 0
M  V30 14510 C 1401.04 -1.24146 5.07331 0
M  V30 14511 H 1402.74 -0.438499 2.96171 0
M  V30 14512 H 1400.28 -0.209477 1.42468 0
M  V30 14513 H 1402.24 -2.87239 3.08337 0
M  V30 14514 H 1400.96 -2.6885 1.85437 0
M  V30 14515 H 1399.62 -1.26391 3.44123 0
M  V30 14516 H 1399.27 -3.73879 3.36487 0
M  V30 14517 H 1398.97 -3.09126 4.99715 0
M  V30 14518 H 1400.49 -3.95684 4.65045 0
M  V30 14519 H 1401.91 -1.8251 5.43473 0
M  V30 14520 H 1400.3 -1.17449 5.88494 0
M  V30 14521 H 1401.37 -0.218073 4.84409 0
M  V30 14522 N 1402.72 -1.56081 -0.218252 0
M  V30 14523 C 1403.65 -1.95706 -1.27364 0
M  V30 14524 C 1404.63 -0.825731 -1.48713 0
M  V30 14525 O 1405.81 -1.08829 -1.60841 0
M  V30 14526 C 1402.94 -2.2766 -2.62275 0
M  V30 14527 C 1401.9 -3.43314 -2.55576 0
M  V30 14528 C 1401.22 -3.60883 -3.94547 0
M  V30 14529 C 1402.52 -4.7819 -2.10075 0
M  V30 14530 H 1404.22 -2.84113 -0.944459 0
M  V30 14531 H 1401.76 -1.36693 -0.452882 0
M  V30 14532 H 1403.72 -2.53973 -3.36268 0
M  V30 14533 H 1402.44 -1.3611 -2.96887 0
M  V30 14534 H 1401.1 -3.17056 -1.8404 0
M  V30 14535 H 1400.75 -2.66703 -4.26472 0
M  V30 14536 H 1400.45 -4.38674 -3.90946 0
M  V30 14537 H 1401.97 -3.89547 -4.70197 0
M  V30 14538 H 1403.38 -5.03686 -2.73813 0
M  V30 14539 H 1401.78 -5.59287 -2.17527 0
M  V30 14540 H 1402.85 -4.73325 -1.05314 0
M  V30 14541 N 1404.2 0.485086 -1.49949 0
M  V30 14542 C 1405.16 1.56713 -1.67253 0
M  V30 14543 C 1406.16 1.51329 -0.543701 0
M  V30 14544 O 1407.35 1.54198 -0.810472 0
M  V30 14545 C 1404.48 2.9636 -1.68475 0
M  V30 14546 H 1405.67 1.42693 -2.63778 0
M  V30 14547 H 1403.23 0.710473 -1.39219 0
M  V30 14548 H 1403.96 3.1584 -0.735924 0
M  V30 14549 H 1403.75 3.01675 -2.50469 0
M  V30 14550 H 1405.24 3.74945 -1.83865 0
M  V30 14551 N 1405.67 1.39291 0.737279 0
M  V30 14552 C 1406.64 1.37607 1.83294 0
M  V30 14553 C 1407.64 0.273594 1.58455 0
M  V30 14554 O 1408.83 0.531375 1.65898 0
M  V30 14555 C 1405.96 1.14642 3.21045 0
M  V30 14556 H 1407.15 2.35102 1.86191 0
M  V30 14557 H 1404.7 1.24822 0.940696 0
M  V30 14558 H 1405.44 0.178202 3.2381 0
M  V30 14559 H 1405.22 1.94479 3.40471 0
M  V30 14560 H 1406.71 1.162 4.01108 0
M  V30 14561 N 1407.15 -0.967221 1.24429 0
M  V30 14562 C 1408.4 -1.70688 1.08213 0
M  V30 14563 C 1408.72 -1.91268 -0.379693 0
M  V30 14564 O 1407.99 -1.49077 -1.27094 0
M  V30 14565 H 1406.57 -0.632489 0.39745 0
M  V30 14566 H 1409.23 -1.16356 1.56356 0
M  V30 14567 H 1408.33 -2.69119 1.58055 0
M  V30 14568 N 1408.63 -1.05812 -1.16797 0
M  V30 14569 C 1409.88 -0.771923 -1.8721 0
M  V30 14570 C 1410.2 0.701365 -1.81414 0
M  V30 14571 O 1409.46 1.5292 -1.22122 0
M  V30 14572 C 1409.76 -1.20565 -3.3645 0
M  V30 14573 C 1409.42 -2.68222 -3.62447 0
M  V30 14574 C 1408.09 -3.08556 -3.69251 0
M  V30 14575 C 1410.44 -3.63607 -3.73416 0
M  V30 14576 C 1407.77 -4.43126 -3.84521 0
M  V30 14577 C 1410.12 -4.97918 -3.90205 0
M  V30 14578 C 1408.78 -5.37897 -3.9525 0
M  V30 14579 H 1408.05 -0.282467 -0.68505 0
M  V30 14580 H 1410.7 -1.32633 -1.38133 0
M  V30 14581 H 1409 -0.570347 -3.87626 0
M  V30 14582 H 1410.7 -0.961326 -3.89306 0
M  V30 14583 H 1407.29 -2.3599 -3.5778 0
M  V30 14584 H 1411.48 -3.33581 -3.67474 0
M  V30 14585 H 1406.73 -4.73593 -3.86677 0
M  V30 14586 H 1410.91 -5.71716 -3.97635 0
M  V30 14587 H 1408.53 -6.42176 -4.06834 0
M  V30 14588 N 1410.11 1.33347 -0.840014 0
M  V30 14589 C 1411.33 2.02485 -0.448856 0
M  V30 14590 C 1411.76 1.62781 0.942543 0
M  V30 14591 O 1411.12 0.82099 1.61646 0
M  V30 14592 C 1411.16 3.55928 -0.578582 0
M  V30 14593 O 1410.27 4.10507 0.394695 0
M  V30 14594 H 1409.61 0.63848 -0.182317 0
M  V30 14595 H 1412.14 1.70221 -1.13516 0
M  V30 14596 H 1412.15 4.05391 -0.460653 0
M  V30 14597 H 1410.82 3.8417 -1.5933 0
M  V30 14598 H 1409.4 3.72164 0.234227 0
M  V30 14599 N 1411.59 0.596556 1.45873 0
M  V30 14600 C 1412.5 -0.130832 2.34235 0
M  V30 14601 C 1413.51 -0.871805 1.50584 0
M  V30 14602 O 1414.69 -0.831877 1.83417 0
M  V30 14603 C 1411.75 -1.12279 3.28016 0
M  V30 14604 C 1410.81 -0.384982 4.2757 0
M  V30 14605 C 1410.05 -1.32969 5.1687 0
M  V30 14606 O 1410.27 -2.56696 5.09375 0
M  V30 14607 O 1409.2 -0.832741 5.96112 0
M  V30 14608 H 1413.03 0.59503 2.97814 0
M  V30 14609 H 1410.61 0.356873 1.45075 0
M  V30 14610 H 1412.5 -1.6944 3.85834 0
M  V30 14611 H 1411.17 -1.82988 2.67015 0
M  V30 14612 H 1410.08 0.228816 3.734 0
M  V30 14613 H 1411.41 0.281398 4.91395 0
M  V30 14614 N 1413.06 -1.53996 0.335095 0
M  V30 14615 C 1414.47 -1.86092 -0.15058 0
M  V30 14616 C 1414.83 -1.25652 -1.50685 0
M  V30 14617 O 1413.95 -0.566887 -2.08843 0
M  V30 14618 C 1414.55 -3.37641 -0.280007 0
M  V30 14619 C 1413.1 -3.69645 -0.709907 0
M  V30 14620 C 1412.25 -2.7683 0.161461 0
M  V30 14621 H 1415.2 -1.4868 0.554986 0
M  V30 14622 H 1415.22 -3.63981 -1.10896 0
M  V30 14623 H 1414.74 -3.81601 0.707254 0
M  V30 14624 H 1412.84 -3.31224 -1.7065 0
M  V30 14625 H 1412.95 -4.76424 -0.505661 0
M  V30 14626 H 1411.31 -2.52073 -0.364849 0
M  V30 14627 H 1412.1 -3.23618 1.1457 0
M  V30 14628 N 1414.54 -0.0635198 -1.57472 0
M  V30 14629 C 1415.79 0.606285 -1.92792 0
M  V30 14630 C 1416.11 1.70648 -0.943615 0
M  V30 14631 O 1415.38 1.95898 0.00957612 0
M  V30 14632 H 1413.96 0.226943 -0.711692 0
M  V30 14633 H 1416.62 -0.119429 -1.94534 0
M  V30 14634 H 1415.72 1.03694 -2.9437 0
M  V30 14635 N 1416.02 1.56195 0.209972 0
M  V30 14636 C 1417.3 1.70553 0.957653 0
M  V30 14637 C 1417.68 0.614091 2.01971 0
M  V30 14638 O 1417.02 -0.377192 2.25365 0
M  V30 14639 C 1417.23 3.12314 1.55759 0
M  V30 14640 C 1418.58 3.72085 2.04543 0
M  V30 14641 O 1419.61 3.15349 1.65631 0
M  V30 14642 O 1418.47 4.71627 2.76099 0
M  V30 14643 H 1415.56 0.695077 0.448104 0
M  V30 14644 H 1418.11 1.68507 0.20084 0
M  V30 14645 H 1416.88 3.83215 0.791302 0
M  V30 14646 H 1416.5 3.18526 2.37964 0
M  V30 14647 N 1417.5 -0.477127 1.50204 0
M  V30 14648 C 1418.74 -1.23956 1.62525 0
M  V30 14649 C 1419.1 -1.89385 0.315789 0
M  V30 14650 O 1420.3 -2.66955 0.314378 0
M  V30 14651 C 1418.57 -2.25999 2.76874 0
M  V30 14652 S 1420.13 -3.11262 3.09292 0
M  V30 14653 H 1416.95 -0.420931 0.573008 0
M  V30 14654 H 1419.55 -0.537592 1.87963 0
M  V30 14655 H 1418.26 -1.76501 3.70507 0
M  V30 14656 H 1417.79 -3.00832 2.53503 0
M  V30 14657 H 1419.8 -4.27061 2.52652 0
M  V30 14658 N 1418.98 -1.3968 -0.729882 0
M  V30 14659 C 1420.22 -1.36911 -1.4866 0
M  V30 14660 C 1420.55 0.0326011 -1.94973 0
M  V30 14661 O 1419.82 0.984789 -1.69348 0
M  V30 14662 H 1418.4 -0.503848 -0.551495 0
M  V30 14663 H 1421.06 -1.74596 -0.866155 0
M  V30 14664 H 1420.15 -2.03504 -2.36628 0
M  V30 14665 N 1420.45 0.960609 -1.2494 0
M  V30 14666 C 1421.7 1.70111 -1.09117 0
M  V30 14667 C 1422.02 1.91466 0.369544 0
M  V30 14668 O 1421.29 1.49749 1.26302 0
M  V30 14669 H 1419.87 0.630372 -0.400799 0
M  V30 14670 H 1422.54 1.15525 -1.56971 0
M  V30 14671 H 1421.63 2.68277 -1.5948 0
M  V30 14672 N 1421.93 1.0643 1.16234 0
M  V30 14673 C 1423.18 0.77689 1.86138 0
M  V30 14674 C 1423.49 -0.699301 1.82672 0
M  V30 14675 O 1424.7 -1.10113 2.48168 0
M  V30 14676 C 1423.16 1.3396 3.3404 0
M  V30 14677 C 1422.76 2.84613 3.45976 0
M  V30 14678 C 1424.51 1.12979 4.09189 0
M  V30 14679 C 1422.42 3.34122 4.87972 0
M  V30 14680 H 1421.35 0.286936 0.697269 0
M  V30 14681 H 1424 1.28318 1.31174 0
M  V30 14682 H 1422.38 0.761073 3.88618 0
M  V30 14683 H 1423.55 3.48429 3.01552 0
M  V30 14684 H 1421.87 3.04277 2.84262 0
M  V30 14685 H 1424.46 1.47456 5.13966 0
M  V30 14686 H 1424.81 0.0682424 4.16244 0
M  V30 14687 H 1425.34 1.67418 3.60855 0
M  V30 14688 H 1422.08 4.39761 4.86097 0
M  V30 14689 H 1421.6 2.75055 5.33015 0
M  V30 14690 H 1423.28 3.29529 5.56794 0
M  V30 14691 N 1423.41 -1.329 0.847073 0
M  V30 14692 C 1424.34 -2.31546 0.301422 0
M  V30 14693 C 1425.32 -1.59342 -0.595317 0
M  V30 14694 O 1426.51 -1.87188 -0.517151 0
M  V30 14695 C 1423.64 -3.43423 -0.517454 0
M  V30 14696 C 1422.59 -4.27055 0.284195 0
M  V30 14697 C 1421.92 -5.30624 -0.658944 0
M  V30 14698 C 1423.22 -5.00123 1.50578 0
M  V30 14699 H 1424.91 -2.77433 1.12567 0
M  V30 14700 H 1422.46 -1.3338 0.542739 0
M  V30 14701 H 1424.41 -4.11467 -0.909543 0
M  V30 14702 H 1423.13 -2.96246 -1.37499 0
M  V30 14703 H 1421.79 -3.60648 0.657944 0
M  V30 14704 H 1421.44 -4.79702 -1.51311 0
M  V30 14705 H 1421.14 -5.87464 -0.12662 0
M  V30 14706 H 1422.66 -6.01533 -1.04837 0
M  V30 14707 H 1424.08 -5.6089 1.18641 0
M  V30 14708 H 1422.48 -5.66652 1.97549 0
M  V30 14709 H 1423.55 -4.28424 2.27115 0
M  V30 14710 N 1424.89 -0.604284 -1.45555 0
M  V30 14711 C 1426.3 -0.267665 -1.57339 0
M  V30 14712 C 1426.5 1.22984 -1.59616 0
M  V30 14713 O 1425.56 2.0127 -1.52468 0
M  V30 14714 C 1426.87 -0.935923 -2.85764 0
M  V30 14715 C 1428.42 -0.911531 -2.99433 0
M  V30 14716 C 1428.9 -1.55974 -4.30623 0
M  V30 14717 N 1430.39 -1.52507 -4.37374 0
M  V30 14718 C 1431.12 -1.9958 -5.37546 0
M  V30 14719 N 1430.62 -2.54724 -6.44273 0
M  V30 14720 N 1432.41 -1.90368 -5.28882 0
M  V30 14721 H 1424.56 -1.57666 -1.42321 0
M  V30 14722 H 1426.83 -0.66028 -0.680245 0
M  V30 14723 H 1426.53 -1.99022 -2.89971 0
M  V30 14724 H 1426.41 -0.457194 -3.74419 0
M  V30 14725 H 1428.79 0.134206 -2.94795 0
M  V30 14726 H 1428.87 -1.42849 -2.12197 0
M  V30 14727 H 1428.52 -2.60479 -4.3602 0
M  V30 14728 H 1428.45 -1.01782 -5.1667 0
M  V30 14729 H 1430.94 -1.12221 -3.60853 0
M  V30 14730 H 1431.25 -2.88445 -7.16951 0
M  V30 14731 H 1429.6 -2.58761 -6.45033 0
M  V30 14732 H 1432.79 -1.47029 -4.4441 0
M  V30 14733 H 1432.96 -2.27367 -6.06802 0
M  V30 14734 N 1426.37 1.53816 -0.343257 0
M  V30 14735 C 1427.61 2.0282 0.253695 0
M  V30 14736 C 1427.97 1.22564 1.47791 0
M  V30 14737 O 1429.17 1.61464 2.14902 0
M  V30 14738 C 1427.44 3.5298 0.560361 0
M  V30 14739 S 1429 4.23889 1.13416 0
M  V30 14740 H 1425.82 0.706976 0.0755344 0
M  V30 14741 H 1428.42 1.89492 -0.480951 0
M  V30 14742 H 1427.13 4.09002 -0.338451 0
M  V30 14743 H 1426.66 3.70426 1.32468 0
M  V30 14744 H 1428.67 4.33192 2.4199 0
M  V30 14745 N 1427.84 0.0718701 1.57436 0
M  V30 14746 C 1428.75 -0.910077 2.16229 0
M  V30 14747 C 1429.77 -1.32699 1.12548 0
M  V30 14748 O 1430.95 -1.39967 1.44814 0
M  V30 14749 C 1428.01 -2.15942 2.71238 0
M  V30 14750 C 1427.07 -1.79891 3.89792 0
M  V30 14751 C 1426.31 -2.9887 4.42168 0
M  V30 14752 O 1426.53 -4.1289 3.93545 0
M  V30 14753 O 1425.46 -2.78682 5.33498 0
M  V30 14754 H 1429.29 -0.439969 3.00496 0
M  V30 14755 H 1426.87 -0.151204 1.48633 0
M  V30 14756 H 1428.76 -2.89204 3.06494 0
M  V30 14757 H 1427.43 -2.62051 1.90029 0
M  V30 14758 H 1426.34 -1.03881 3.59388 0
M  V30 14759 H 1427.67 -1.38566 4.72293 0
M  V30 14760 N 1429.32 -1.56304 -0.201686 0
M  V30 14761 C 1430.27 -1.90422 -1.25393 0
M  V30 14762 C 1431.26 -0.769236 -1.41321 0
M  V30 14763 O 1432.45 -1.03199 -1.43802 0
M  V30 14764 C 1429.58 -2.24157 -2.60016 0
M  V30 14765 C 1428.66 -3.44097 -2.47908 0
M  V30 14766 N 1429.05 -4.62185 -2.05471 0
M  V30 14767 C 1427.35 -3.48105 -2.78817 0
M  V30 14768 C 1428.05 -5.44345 -2.05095 0
M  V30 14769 N 1427.03 -4.84576 -2.46346 0
M  V30 14770 H 1430.83 -2.79227 -0.917045 0
M  V30 14771 H 1428.35 -1.57135 -0.410157 0
M  V30 14772 H 1430.34 -2.46782 -3.36012 0
M  V30 14773 H 1429 -1.36676 -2.94533 0
M  V30 14774 H 1430.01 -4.86974 -1.76285 0
M  V30 14775 H 1426.69 -2.71022 -3.17574 0
M  V30 14776 H 1428.08 -6.48914 -1.74242 0
M  V30 14777 N 1430.8 0.469154 -1.50455 0
M  V30 14778 C 1432.05 1.21868 -1.61222 0
M  V30 14779 C 1432.37 1.9243 -0.315535 0
M  V30 14780 O 1431.64 1.84192 0.667083 0
M  V30 14781 H 1430.22 0.452828 -0.594101 0
M  V30 14782 H 1432.88 0.540993 -1.87241 0
M  V30 14783 H 1431.98 1.96554 -2.42431 0
M  V30 14784 N 1432.28 1.40065 0.722464 0
M  V30 14785 C 1433.52 1.38175 1.48444 0
M  V30 14786 C 1433.86 -0.0182857 1.94191 0
M  V30 14787 O 1433.13 -0.985638 1.67677 0
M  V30 14788 C 1433.42 2.36518 2.71535 0
M  V30 14789 C 1433.27 3.85517 2.31726 0
M  V30 14790 C 1434.59 2.325 3.73673 0
M  V30 14791 H 1431.71 0.503221 0.538458 0
M  V30 14792 H 1434.35 1.7115 0.825087 0
M  V30 14793 H 1432.5 2.08529 3.27793 0
M  V30 14794 H 1434.17 4.24306 1.81003 0
M  V30 14795 H 1432.41 4.01684 1.63807 0
M  V30 14796 H 1433.08 4.49834 3.19928 0
M  V30 14797 H 1435.56 2.57277 3.27029 0
M  V30 14798 H 1434.44 3.03369 4.57447 0
M  V30 14799 H 1434.7 1.33427 4.21485 0
M  V30 14800 N 1433.76 -0.95397 1.25448 0
M  V30 14801 C 1435.01 -1.69305 1.09631 0
M  V30 14802 C 1435.32 -1.92213 -0.362413 0
M  V30 14803 O 1436.53 -2.63824 -0.641036 0
M  V30 14804 C 1434.98 -3.04805 1.91369 0
M  V30 14805 C 1434.59 -2.8969 3.41737 0
M  V30 14806 C 1436.33 -3.82491 1.84123 0
M  V30 14807 C 1434.24 -4.20584 4.15768 0
M  V30 14808 H 1433.17 -0.63494 0.406654 0
M  V30 14809 H 1435.82 -1.06195 1.49649 0
M  V30 14810 H 1434.2 -3.68822 1.44174 0
M  V30 14811 H 1435.38 -2.346 3.9661 0
M  V30 14812 H 1433.69 -2.25458 3.50082 0
M  V30 14813 H 1436.29 -4.79442 2.36727 0
M  V30 14814 H 1436.63 -4.08358 0.809265 0
M  V30 14815 H 1437.17 -3.25224 2.29072 0
M  V30 14816 H 1433.9 -3.99905 5.19381 0
M  V30 14817 H 1433.42 -4.75436 3.65678 0
M  V30 14818 H 1435.1 -4.89122 4.2352 0
M  V30 14819 N 1435.24 -1.07045 -1.15668 0
M  V30 14820 C 1436.48 -0.790172 -1.86013 0
M  V30 14821 C 1436.8 0.685663 -1.82548 0
M  V30 14822 O 1436.07 1.49644 -1.26426 0
M  V30 14823 H 1434.65 -0.28931 -0.688701 0
M  V30 14824 H 1437.32 -1.35354 -1.40233 0
M  V30 14825 H 1436.41 -1.1219 -2.91239 0
M  V30 14826 N 1436.71 1.32449 -0.85411 0
M  V30 14827 C 1437.96 1.96537 -0.453451 0
M  V30 14828 C 1438.28 1.68344 0.995982 0
M  V30 14829 O 1439.48 2.26166 1.50204 0
M  V30 14830 C 1437.94 3.51785 -0.759934 0
M  V30 14831 C 1437.55 3.88838 -2.22506 0
M  V30 14832 C 1439.29 4.22347 -0.426973 0
M  V30 14833 C 1437.2 5.37129 -2.47479 0
M  V30 14834 H 1436.13 0.735537 -0.165835 0
M  V30 14835 H 1438.78 1.50851 -1.04481 0
M  V30 14836 H 1437.16 3.95879 -0.0980116 0
M  V30 14837 H 1438.33 3.55756 -2.92873 0
M  V30 14838 H 1436.65 3.31299 -2.52249 0
M  V30 14839 H 1439.25 5.31424 -0.590986 0
M  V30 14840 H 1439.59 4.11485 0.631359 0
M  V30 14841 H 1440.12 3.83835 -1.04477 0
M  V30 14842 H 1436.86 5.53012 -3.51935 0
M  V30 14843 H 1436.38 5.71619 -1.8169 0
M  V30 14844 H 1438.06 6.04204 -2.31401 0
M  V30 14845 N 1438.19 0.611994 1.45232 0
M  V30 14846 C 1439.44 0.109073 2.02506 0
M  V30 14847 C 1439.77 -1.25876 1.47881 0
M  V30 14848 O 1439.05 -1.83131 0.65524 0
M  V30 14849 C 1439.33 0.0749288 3.60022 0
M  V30 14850 C 1439.18 1.47374 4.24972 0
M  V30 14851 C 1440.5 -0.610602 4.35844 0
M  V30 14852 H 1437.62 0.0411101 0.735853 0
M  V30 14853 H 1440.26 0.78481 1.73034 0
M  V30 14854 H 1438.41 -0.500511 3.85262 0
M  V30 14855 H 1440.08 2.0966 4.10902 0
M  V30 14856 H 1438.33 2.03319 3.83202 0
M  V30 14857 H 1439 1.40206 5.33897 0
M  V30 14858 H 1441.47 -0.121445 4.15923 0
M  V30 14859 H 1440.35 -0.603614 5.45571 0
M  V30 14860 H 1440.61 -1.6775 4.09038 0
M  V30 14861 N 1439.67 -1.53632 0.351409 0
M  V30 14862 C 1440.9 -2.05458 -0.243852 0
M  V30 14863 C 1441.31 -1.22588 -1.43589 0
M  V30 14864 O 1440.67 -0.263088 -1.80594 0
M  V30 14865 C 1440.72 -3.55586 -0.651226 0
M  V30 14866 O 1440.44 -4.35313 0.493415 0
M  V30 14867 C 1441.94 -4.23614 -1.30637 0
M  V30 14868 H 1439.16 -0.669443 -0.0456828 0
M  V30 14869 H 1441.71 -1.98149 0.505675 0
M  V30 14870 H 1439.86 -3.63091 -1.35068 0
M  V30 14871 H 1440.28 -5.24234 0.167107 0
M  V30 14872 H 1441.75 -5.30022 -1.5421 0
M  V30 14873 H 1442.23 -3.76449 -2.26236 0
M  V30 14874 H 1442.83 -4.20323 -0.648738 0
M  V30 14875 N 1441.15 -0.0802183 -1.57396 0
M  V30 14876 C 1442.08 0.920242 -2.08822 0
M  V30 14877 C 1443.06 1.2858 -0.995281 0
M  V30 14878 O 1444.24 1.39364 -1.26925 0
M  V30 14879 C 1441.37 2.22589 -2.55288 0
M  V30 14880 C 1440.42 2.01128 -3.76098 0
M  V30 14881 S 1441.25 1.2629 -5.20395 0
M  V30 14882 C 1442.4 2.58116 -5.70199 0
M  V30 14883 H 1442.64 0.482685 -2.93355 0
M  V30 14884 H 1440.17 0.13274 -1.53828 0
M  V30 14885 H 1442.13 2.97625 -2.82718 0
M  V30 14886 H 1440.79 2.63468 -1.71008 0
M  V30 14887 H 1439.98 2.97775 -4.06628 0
M  V30 14888 H 1439.58 1.34225 -3.49084 0
M  V30 14889 H 1441.88 3.54166 -5.77558 0
M  V30 14890 H 1442.82 2.32185 -6.68951 0
M  V30 14891 H 1443.23 2.65707 -4.98056 0
M  V30 14892 N 1442.63 1.56409 0.193394 0
M  V30 14893 C 1443.87 1.80367 0.911717 0
M  V30 14894 C 1444.19 0.653561 1.83721 0
M  V30 14895 O 1443.46 -0.328001 1.93135 0
M  V30 14896 H 1442.04 0.665316 0.339652 0
M  V30 14897 H 1444.71 1.93887 0.198496 0
M  V30 14898 H 1443.8 2.7359 1.50182 0
M  V30 14899 N 1444.1 -0.461169 1.50702 0
M  V30 14900 C 1445.35 -1.21012 1.61866 0
M  V30 14901 C 1445.67 -1.9226 0.325736 0
M  V30 14902 O 1444.94 -1.84543 -0.657306 0
M  V30 14903 H 1443.52 -0.449671 0.596494 0
M  V30 14904 H 1446.18 -0.531056 1.87525 0
M  V30 14905 H 1445.28 -1.95266 2.4347 0
M  V30 14906 N 1445.58 -1.40446 -0.715026 0
M  V30 14907 C 1446.49 -1.43074 -1.85922 0
M  V30 14908 C 1447.51 -0.323294 -1.7097 0
M  V30 14909 O 1448.68 -0.567966 -1.93226 0
M  V30 14910 C 1445.75 -1.29206 -3.21725 0
M  V30 14911 C 1444.81 -2.50097 -3.48927 0
M  V30 14912 C 1444.04 -2.36881 -4.7825 0
M  V30 14913 O 1444.27 -1.38292 -5.53382 0
M  V30 14914 O 1443.2 -3.26266 -5.058 0
M  V30 14915 H 1447.03 -2.39565 -1.86661 0
M  V30 14916 H 1444.61 -1.21775 -0.865522 0
M  V30 14917 H 1446.49 -1.23681 -4.02841 0
M  V30 14918 H 1445.17 -0.358207 -3.21712 0
M  V30 14919 H 1444.07 -2.61199 -2.67817 0
M  V30 14920 H 1445.41 -3.42244 -3.53737 0
M  V30 14921 N 1447.06 0.947303 -1.25952 0
M  V30 14922 C 1448.31 1.68945 -1.10915 0
M  V30 14923 C 1448.63 1.91848 0.349216 0
M  V30 14924 O 1447.9 1.5108 1.24706 0
M  V30 14925 H 1446.48 0.626086 -0.407462 0
M  V30 14926 H 1449.14 1.13854 -1.58187 0
M  V30 14927 H 1448.24 2.6657 -1.62317 0
M  V30 14928 N 1448.54 1.07657 1.15099 0
M  V30 14929 C 1449.78 0.802796 1.86234 0
M  V30 14930 C 1450.12 -0.669555 1.82293 0
M  V30 14931 O 1449.39 -1.49162 1.24823 0
M  V30 14932 C 1449.68 1.3156 3.35208 0
M  V30 14933 C 1449.53 2.85272 3.47764 0
M  V30 14934 C 1450.85 0.934641 4.30061 0
M  V30 14935 H 1447.97 0.293099 0.676212 0
M  V30 14936 H 1450.61 1.33488 1.35207 0
M  V30 14937 H 1448.76 0.86298 3.78794 0
M  V30 14938 H 1450.43 3.38847 3.13018 0
M  V30 14939 H 1448.67 3.23316 2.89222 0
M  V30 14940 H 1449.34 3.16223 4.52446 0
M  V30 14941 H 1451.82 1.3247 3.9445 0
M  V30 14942 H 1450.7 1.32074 5.32774 0
M  V30 14943 H 1450.96 -0.159122 4.41814 0
M  V30 14944 N 1450.02 -1.31994 0.861122 0
M  V30 14945 C 1451.26 -1.97317 0.468371 0
M  V30 14946 C 1451.6 -1.67954 -0.974941 0
M  V30 14947 O 1450.87 -0.971243 -1.68514 0
M  V30 14948 C 1451.15 -3.52918 0.715607 0
M  V30 14949 C 1451.01 -3.91888 2.20781 0
M  V30 14950 C 1452.33 -4.39747 0.17624 0
M  V30 14951 H 1449.44 -0.716733 0.171646 0
M  V30 14952 H 1452.09 -1.56269 1.08074 0
M  V30 14953 H 1450.24 -3.88013 0.194387 0
M  V30 14954 H 1451.91 -3.66938 2.7956 0
M  V30 14955 H 1450.15 -3.40813 2.68382 0
M  V30 14956 H 1450.82 -5.00346 2.33147 0
M  V30 14957 H 1453.3 -4.11424 0.622043 0
M  V30 14958 H 1452.17 -5.47592 0.378748 0
M  V30 14959 H 1452.44 -4.32393 -0.921358 0
M  V30 14960 N 1451.49 -0.619688 -1.44906 0
M  V30 14961 C 1452.74 -0.119397 -2.01747 0
M  V30 14962 C 1453.06 1.25904 -1.48907 0
M  V30 14963 O 1452.33 1.83417 -0.688104 0
M  V30 14964 H 1450.91 -0.0411482 -0.745866 0
M  V30 14965 H 1453.58 -0.803813 -1.77552 0
M  V30 14966 H 1452.67 -0.078368 -3.12002 0
M  V30 14967 N 1452.97 1.53444 -0.359552 0
M  V30 14968 C 1454.22 2.01166 0.232022 0
M  V30 14969 C 1454.55 1.24699 1.49266 0
M  V30 14970 O 1453.8 0.327164 1.92946 0
M  V30 14971 C 1454.1 3.5273 0.575863 0
M  V30 14972 C 1453.77 4.47027 -0.589746 0
M  V30 14973 C 1452.43 4.72525 -0.909587 0
M  V30 14974 C 1454.78 5.02846 -1.37095 0
M  V30 14975 C 1452.11 5.51096 -2.01271 0
M  V30 14976 C 1454.46 5.82622 -2.46444 0
M  V30 14977 C 1453.13 6.06409 -2.7897 0
M  V30 14978 H 1452.4 0.73612 0.084903 0
M  V30 14979 H 1455.04 1.85105 -0.490771 0
M  V30 14980 H 1453.35 3.66708 1.37959 0
M  V30 14981 H 1455.04 3.87125 1.04573 0
M  V30 14982 H 1451.63 4.27324 -0.330418 0
M  V30 14983 H 1455.82 4.83098 -1.1371 0
M  V30 14984 H 1451.07 5.67747 -2.26877 0
M  V30 14985 H 1455.25 6.24884 -3.07398 0
M  V30 14986 H 1452.88 6.67077 -3.64572 0
M  V30 14987 N 1454.45 0.0885642 1.57351 0
M  V30 14988 C 1455.41 -0.858178 2.12528 0
M  V30 14989 C 1456.41 -1.21522 1.05304 0
M  V30 14990 O 1457.6 -1.14573 1.3122 0
M  V30 14991 C 1454.74 -2.15619 2.64048 0
M  V30 14992 H 1455.93 -0.37918 2.97493 0
M  V30 14993 H 1453.48 -0.160354 1.55475 0
M  V30 14994 H 1454.22 -2.68018 1.82584 0
M  V30 14995 H 1454 -1.90995 3.42437 0
M  V30 14996 H 1455.49 -2.83359 3.06753 0
M  V30 14997 N 1455.93 -1.56509 -0.185096 0
M  V30 14998 C 1457.21 -1.72055 -0.930398 0
M  V30 14999 C 1457.59 -0.646145 -2.00968 0
M  V30 15000 O 1456.93 0.34129 -2.25937 0
M  V30 15001 C 1457.14 -3.14752 -1.50771 0
M  V30 15002 C 1458.49 -3.75292 -1.98597 0
M  V30 15003 O 1459.52 -3.17944 -1.60593 0
M  V30 15004 O 1458.37 -4.7596 -2.68561 0
M  V30 15005 H 1455.47 -0.702118 -0.436989 0
M  V30 15006 H 1458.01 -1.68806 -0.174007 0
M  V30 15007 H 1456.79 -3.84426 -0.730236 0
M  V30 15008 H 1456.41 -3.22272 -2.32866 0
M  V30 15009 N 1457.41 0.45317 -1.50944 0
M  V30 15010 C 1458.65 1.20568 -1.63068 0
M  V30 15011 C 1458.99 1.91229 -0.338375 0
M  V30 15012 O 1458.26 1.82916 0.661207 0
M  V30 15013 C 1458.54 2.23522 -2.8233 0
M  V30 15014 C 1458.4 1.57047 -4.21493 0
M  V30 15015 C 1459.72 3.24663 -2.97123 0
M  V30 15016 H 1456.83 0.436971 -0.593486 0
M  V30 15017 H 1459.48 0.497008 -1.83384 0
M  V30 15018 H 1457.63 2.83961 -2.65139 0
M  V30 15019 H 1459.3 1.00067 -4.50316 0
M  V30 15020 H 1457.54 0.873143 -4.24922 0
M  V30 15021 H 1458.21 2.31949 -5.00903 0
M  V30 15022 H 1460.69 2.74264 -3.12919 0
M  V30 15023 H 1459.56 3.9401 -3.82161 0
M  V30 15024 H 1459.83 3.89843 -2.08506 0
M  V30 15025 N 1458.88 1.40823 0.707568 0
M  V30 15026 C 1460.3 1.23029 1.01666 0
M  V30 15027 C 1460.5 0.111152 2.01193 0
M  V30 15028 O 1459.56 -0.52836 2.4691 0
M  V30 15029 C 1460.87 2.57509 1.55272 0
M  V30 15030 C 1462.42 2.6459 1.67216 0
M  V30 15031 C 1462.89 3.99357 2.24227 0
M  V30 15032 N 1464.38 4.01141 2.31603 0
M  V30 15033 C 1465.12 5.02211 2.76715 0
M  V30 15034 N 1464.61 6.13674 3.21521 0
M  V30 15035 N 1466.41 4.89577 2.76172 0
M  V30 15036 H 1458.56 2.12346 0.0480107 0
M  V30 15037 H 1460.82 0.944281 0.0838885 0
M  V30 15038 H 1460.53 3.40095 0.896012 0
M  V30 15039 H 1460.4 2.79158 2.53674 0
M  V30 15040 H 1462.79 1.8237 2.32002 0
M  V30 15041 H 1462.87 2.46763 0.673927 0
M  V30 15042 H 1462.51 4.8202 1.6006 0
M  V30 15043 H 1462.44 4.14518 3.2478 0
M  V30 15044 H 1464.93 3.20657 1.99968 0
M  V30 15045 H 1465.25 6.86677 3.54534 0
M  V30 15046 H 1463.59 6.17228 3.1946 0
M  V30 15047 H 1466.78 4.01588 2.40509 0
M  V30 15048 H 1466.96 5.68485 3.11012 0
M  V30 15049 N 1460.36 -0.94061 1.26453 0
M  V30 15050 C 1461.64 -1.66421 1.02779 0
M  V30 15051 C 1462.02 -2.06429 -0.441614 0
M  V30 15052 O 1461.37 -1.78854 -1.42209 0
M  V30 15053 C 1461.58 -2.87599 1.97707 0
M  V30 15054 C 1462.93 -3.59237 2.26349 0
M  V30 15055 O 1463.95 -2.97704 1.95577 0
M  V30 15056 O 1462.81 -4.70068 2.78744 0
M  V30 15057 H 1459.9 -0.728813 0.390846 0
M  V30 15058 H 1462.45 -0.99229 1.37665 0
M  V30 15059 H 1461.22 -2.54929 2.96862 0
M  V30 15060 H 1460.84 -3.62516 1.63303 0
M  V30 15061 N 1461.84 -1.08266 -1.14527 0
M  V30 15062 C 1462.77 -0.732968 -2.21698 0
M  V30 15063 C 1463.75 0.283917 -1.67714 0
M  V30 15064 O 1464.94 0.154607 -1.93584 0
M  V30 15065 C 1462.07 -0.139935 -3.47018 0
M  V30 15066 C 1461.02 -1.08501 -4.14019 0
M  V30 15067 C 1460.35 -0.354263 -5.33525 0
M  V30 15068 C 1461.65 -2.42254 -4.62721 0
M  V30 15069 H 1463.34 -1.629 -2.51205 0
M  V30 15070 H 1460.89 -0.784696 -1.20742 0
M  V30 15071 H 1462.84 0.1167 -4.21238 0
M  V30 15072 H 1461.56 0.791228 -3.16871 0
M  V30 15073 H 1460.22 -1.32672 -3.41751 0
M  V30 15074 H 1459.87 0.580658 -4.99637 0
M  V30 15075 H 1459.57 -0.984287 -5.79297 0
M  V30 15076 H 1461.09 -0.105648 -6.10509 0
M  V30 15077 H 1462.51 -2.22357 -5.28422 0
M  V30 15078 H 1460.91 -3.00935 -5.1919 0
M  V30 15079 H 1461.98 -3.03884 -3.77866 0
M  V30 15080 N 1463.32 1.31536 -0.86811 0
M  V30 15081 C 1464.25 2.31037 -0.33822 0
M  V30 15082 C 1465.23 1.60269 0.569892 0
M  V30 15083 O 1466.42 1.87987 0.487305 0
M  V30 15084 C 1463.55 3.44203 0.462753 0
M  V30 15085 C 1462.5 4.26549 -0.3521 0
M  V30 15086 C 1461.83 5.31605 0.574443 0
M  V30 15087 C 1463.13 4.97665 -1.58516 0
M  V30 15088 H 1464.82 2.75607 -1.16967 0
M  V30 15089 H 1462.37 1.325 -0.56389 0
M  V30 15090 H 1464.32 4.12862 0.843967 0
M  V30 15091 H 1463.04 2.98396 1.32769 0
M  V30 15092 H 1461.7 3.59555 -0.715237 0
M  V30 15093 H 1461.35 4.82048 1.43661 0
M  V30 15094 H 1461.05 5.87591 0.0331436 0
M  V30 15095 H 1462.57 6.03124 0.952541 0
M  V30 15096 H 1463.99 5.58931 -1.27549 0
M  V30 15097 H 1462.38 5.63437 -2.06539 0
M  V30 15098 H 1463.45 4.24756 -2.33902 0
M  V30 15099 N 1464.8 0.627364 1.44575 0
M  V30 15100 C 1466.04 0.139049 2.02924 0
M  V30 15101 C 1466.4 -1.22408 1.48439 0
M  V30 15102 O 1465.69 -1.7997 0.657374 0
M  V30 15103 C 1465.89 0.0622409 3.57346 0
M  V30 15104 C 1465.71 1.41638 4.26812 0
M  V30 15105 C 1464.48 2.00219 4.6394 0
M  V30 15106 C 1466.68 2.34942 4.57501 0
M  V30 15107 N 1464.66 3.28907 5.18356 0
M  V30 15108 C 1466.04 3.48242 5.1296 0
M  V30 15109 C 1468.09 2.34068 4.3945 0
M  V30 15110 C 1466.79 4.60859 5.52269 0
M  V30 15111 C 1468.82 3.45746 4.79806 0
M  V30 15112 C 1468.18 4.5777 5.35375 0
M  V30 15113 H 1464.28 0.094714 0.776243 0
M  V30 15114 H 1466.86 0.830037 1.76121 0
M  V30 15115 H 1465.04 -0.598017 3.83769 0
M  V30 15116 H 1466.77 -0.434554 4.0236 0
M  V30 15117 H 1463.52 1.53205 4.48135 0
M  V30 15118 H 1463.95 3.94691 5.50044 0
M  V30 15119 H 1468.59 1.4871 3.95784 0
M  V30 15120 H 1466.31 5.46927 5.94892 0
M  V30 15121 H 1469.89 3.46241 4.67556 0
M  V30 15122 H 1468.77 5.42757 5.66025 0
M  V30 15123 N 1466.28 -1.53251 0.367684 0
M  V30 15124 C 1467.21 -2.28728 -0.469676 0
M  V30 15125 C 1468.19 -1.3124 -1.08213 0
M  V30 15126 O 1469.37 -1.60112 -1.09898 0
M  V30 15127 C 1466.5 -3.07808 -1.60846 0
M  V30 15128 C 1465.46 -4.13 -1.12315 0
M  V30 15129 C 1464.78 -4.80176 -2.35234 0
M  V30 15130 C 1466.08 -5.21892 -0.2064 0
M  V30 15131 H 1467.78 -2.98972 0.160019 0
M  V30 15132 H 1465.32 -1.43786 0.0784011 0
M  V30 15133 H 1467.27 -3.59358 -2.20091 0
M  V30 15134 H 1466 -2.35258 -2.26542 0
M  V30 15135 H 1464.66 -3.62399 -0.553378 0
M  V30 15136 H 1464.31 -4.04196 -2.99391 0
M  V30 15137 H 1464.01 -5.51261 -2.03433 0
M  V30 15138 H 1465.53 -5.34521 -2.9516 0
M  V30 15139 H 1466.94 -5.68932 -0.706386 0
M  V30 15140 H 1465.34 -6.00096 0.0208362 0
M  V30 15141 H 1466.41 -4.79051 0.750851 0
M  V30 15142 N 1467.75 -0.0969077 -1.57302 0
M  V30 15143 C 1468.66 0.875561 -2.17649 0
M  V30 15144 C 1469.68 1.30892 -1.14645 0
M  V30 15145 O 1470.86 1.37646 -1.47022 0
M  V30 15146 C 1467.92 2.116 -2.74639 0
M  V30 15147 C 1466.98 1.73667 -3.92604 0
M  V30 15148 C 1466.21 2.91798 -4.46867 0
M  V30 15149 O 1466.44 4.06577 -4.00064 0
M  V30 15150 O 1465.37 2.70159 -5.37864 0
M  V30 15151 H 1469.2 0.392107 -3.01158 0
M  V30 15152 H 1466.78 0.127539 -1.48855 0
M  V30 15153 H 1468.66 2.84292 -3.11057 0
M  V30 15154 H 1467.34 2.58994 -1.94174 0
M  V30 15155 H 1466.25 0.981505 -3.60995 0
M  V30 15156 H 1467.58 1.31035 -4.74437 0
M  V30 15157 N 1469.23 1.56605 0.176793 0
M  V30 15158 C 1470.51 1.72546 0.921261 0
M  V30 15159 C 1470.89 0.656794 2.00623 0
M  V30 15160 O 1470.24 -0.329303 2.26115 0
M  V30 15161 C 1470.45 3.15548 1.491 0
M  V30 15162 C 1471.79 3.7634 1.96604 0
M  V30 15163 O 1472.82 3.18791 1.58905 0
M  V30 15164 O 1471.68 4.77377 2.66033 0
M  V30 15165 H 1468.77 0.704425 0.43326 0
M  V30 15166 H 1471.32 1.68895 0.165052 0
M  V30 15167 H 1470.09 3.84808 0.709839 0
M  V30 15168 H 1469.71 3.23502 2.31154 0
M  V30 15169 N 1470.71 -0.445159 1.51182 0
M  V30 15170 C 1471.99 -1.20598 1.53998 0
M  V30 15171 C 1472.37 -2.08962 0.29967 0
M  V30 15172 O 1471.71 -2.17003 -0.715666 0
M  V30 15173 C 1471.92 -2.01461 2.84982 0
M  V30 15174 C 1473.27 -2.5877 3.36635 0
M  V30 15175 O 1474.3 -2.11679 2.86479 0
M  V30 15176 O 1473.16 -3.44637 4.24132 0
M  V30 15177 H 1470.25 -0.548635 0.618812 0
M  V30 15178 H 1472.8 -0.454865 1.6349 0
M  V30 15179 H 1471.57 -1.36511 3.66716 0
M  V30 15180 H 1471.19 -2.83654 2.78615 0
M  V30 15181 N 1472.19 -1.41197 -0.700089 0
M  V30 15182 C 1473.15 -1.42419 -1.79582 0
M  V30 15183 C 1474.15 -0.31551 -1.57674 0
M  V30 15184 O 1475.34 -0.575173 -1.64431 0
M  V30 15185 C 1472.47 -1.23114 -3.17893 0
M  V30 15186 H 1473.67 -2.39956 -1.79892 0
M  V30 15187 H 1471.22 -1.27273 -0.907271 0
M  V30 15188 H 1471.95 -0.263992 -3.23224 0
M  V30 15189 H 1471.74 -2.03437 -3.35195 0
M  V30 15190 H 1473.23 -1.26793 -3.97886 0
M  V30 15191 N 1473.67 0.933891 -1.2695 0
M  V30 15192 C 1474.6 2.03399 -1.03461 0
M  V30 15193 C 1475.58 1.62543 0.0430025 0
M  V30 15194 O 1476.76 1.8823 -0.100894 0
M  V30 15195 C 1473.89 3.339 -0.56818 0
M  V30 15196 C 1472.93 3.93732 -1.63944 0
M  V30 15197 S 1473.77 4.27096 -3.23032 0
M  V30 15198 C 1474.92 5.60686 -2.78176 0
M  V30 15199 H 1475.16 2.23011 -1.96604 0
M  V30 15200 H 1472.69 1.07621 -1.10711 0
M  V30 15201 H 1474.65 4.0936 -0.305745 0
M  V30 15202 H 1473.31 3.12221 0.343096 0
M  V30 15203 H 1472.5 4.87886 -1.26424 0
M  V30 15204 H 1472.1 3.24833 -1.85362 0
M  V30 15205 H 1474.39 6.39715 -2.23093 0
M  V30 15206 H 1475.34 6.03098 -3.7105 0
M  V30 15207 H 1475.75 5.20912 -2.17511 0
M  V30 15208 N 1475.14 1.08871 1.13951 0
M  V30 15209 C 1476.05 0.734869 2.22793 0
M  V30 15210 C 1477.07 -0.260699 1.72036 0
M  V30 15211 O 1478.25 -0.103461 2.01134 0
M  V30 15212 C 1475.31 0.154599 3.46355 0
M  V30 15213 C 1474.37 1.20539 4.1203 0
M  V30 15214 C 1473.6 0.652712 5.29694 0
M  V30 15215 O 1473.83 -0.526264 5.67967 0
M  V30 15216 O 1472.76 1.40503 5.85271 0
M  V30 15217 H 1476.59 1.64297 2.55422 0
M  V30 15218 H 1474.17 0.862716 1.21974 0
M  V30 15219 H 1476.05 -0.165962 4.21073 0
M  V30 15220 H 1474.73 -0.726592 3.1544 0
M  V30 15221 H 1473.64 1.57855 3.39164 0
M  V30 15222 H 1474.97 2.05902 4.47063 0
M  V30 15223 N 1476.62 -1.31073 0.875073 0
M  V30 15224 C 1477.55 -2.27335 0.291809 0
M  V30 15225 C 1478.57 -1.53298 -0.548036 0
M  V30 15226 O 1479.76 -1.7464 -0.369198 0
M  V30 15227 C 1476.86 -3.33465 -0.604521 0
M  V30 15228 C 1476.03 -4.36924 0.204029 0
M  V30 15229 C 1475.09 -5.2252 -0.621238 0
M  V30 15230 O 1474.11 -5.6918 -0.0474551 0
M  V30 15231 N 1475.32 -5.47397 -1.93227 0
M  V30 15232 H 1478.08 -2.78024 1.11906 0
M  V30 15233 H 1475.64 -1.44149 0.737064 0
M  V30 15234 H 1477.63 -3.87646 -1.16243 0
M  V30 15235 H 1476.2 -2.8278 -1.33244 0
M  V30 15236 H 1475.42 -3.82745 0.943389 0
M  V30 15237 H 1476.71 -5.03112 0.758644 0
M  V30 15238 H 1476.11 -5.11253 -2.4215 0
M  V30 15239 H 1474.67 -6.04493 -2.43785 0
M  V30 15240 N 1478.1 -0.635022 -1.4424 0
M  V30 15241 C 1479.35 -0.140788 -2.01609 0
M  V30 15242 C 1479.67 1.24317 -1.50234 0
M  V30 15243 O 1478.94 1.82677 -0.707519 0
M  V30 15244 H 1477.52 -0.0490568 -0.745387 0
M  V30 15245 H 1480.18 -0.8226 -1.7669 0
M  V30 15246 H 1479.28 -0.111456 -3.11901 0
M  V30 15247 N 1479.58 1.53054 -0.375806 0
M  V30 15248 C 1480.82 2.017 0.210985 0
M  V30 15249 C 1481.16 1.26228 1.47581 0
M  V30 15250 O 1480.43 0.358869 1.91161 0
M  V30 15251 C 1480.72 3.56715 0.492596 0
M  V30 15252 C 1480.57 4.42869 -0.786573 0
M  V30 15253 C 1481.89 4.20803 1.28891 0
M  V30 15254 H 1479.01 0.733153 0.0752084 0
M  V30 15255 H 1481.65 1.83229 -0.502715 0
M  V30 15256 H 1479.8 3.72585 1.10059 0
M  V30 15257 H 1481.47 4.38777 -1.42381 0
M  V30 15258 H 1479.71 4.10425 -1.40478 0
M  V30 15259 H 1480.38 5.49309 -0.544354 0
M  V30 15260 H 1482.86 4.08828 0.774498 0
M  V30 15261 H 1481.74 5.29273 1.45469 0
M  V30 15262 H 1482 3.77541 2.30033 0
M  V30 15263 N 1481.06 0.105248 1.57248 0
M  V30 15264 C 1482 -0.850012 2.14577 0
M  V30 15265 C 1482.97 -1.27294 1.06703 0
M  V30 15266 O 1484.16 -1.35289 1.34542 0
M  V30 15267 C 1481.3 -2.09993 2.73856 0
M  V30 15268 C 1480.41 -1.72662 3.95995 0
M  V30 15269 C 1479.55 -2.92517 4.43404 0
M  V30 15270 C 1478.59 -2.5136 5.58108 0
M  V30 15271 N 1477.72 -3.64082 6.00324 0
M  V30 15272 H 1482.56 -0.354282 2.95887 0
M  V30 15273 H 1480.1 -0.163192 1.46192 0
M  V30 15274 H 1482.06 -2.83208 3.06348 0
M  V30 15275 H 1480.69 -2.57048 1.95259 0
M  V30 15276 H 1479.74 -0.893754 3.69752 0
M  V30 15277 H 1481.05 -1.38406 4.79213 0
M  V30 15278 H 1480.21 -3.73973 4.77734 0
M  V30 15279 H 1478.94 -3.2999 3.59107 0
M  V30 15280 H 1477.95 -1.68333 5.23397 0
M  V30 15281 H 1479.17 -2.15019 6.44161 0
M  V30 15282 H 1477.12 -4.01255 5.18971 0
M  V30 15283 H 1477.04 -3.33705 6.78363 0
M  V30 15284 H 1478.31 -4.46019 6.39287 0
M  V30 15285 N 1482.53 -1.56697 -0.168486 0
M  V30 15286 C 1483.81 -1.73032 -0.912097 0
M  V30 15287 C 1484.19 -0.667424 -2.00271 0
M  V30 15288 O 1483.54 0.317307 -2.26286 0
M  V30 15289 C 1483.75 -3.16334 -1.47424 0
M  V30 15290 C 1485.1 -3.77378 -1.94606 0
M  V30 15291 O 1486.12 -3.19629 -1.57212 0
M  V30 15292 O 1484.98 -4.78781 -2.63497 0
M  V30 15293 H 1482.07 -0.706713 -0.429518 0
M  V30 15294 H 1484.62 -1.68981 -0.156093 0
M  V30 15295 H 1483.39 -3.85179 -0.689421 0
M  V30 15296 H 1483.02 -3.24723 -2.29435 0
M  V30 15297 N 1484.01 0.437135 -1.51416 0
M  V30 15298 C 1485.24 1.20723 -1.67659 0
M  V30 15299 C 1485.65 1.85476 -0.373547 0
M  V30 15300 O 1484.99 1.71516 0.657876 0
M  V30 15301 C 1485.06 2.33257 -2.73553 0
M  V30 15302 C 1484.72 1.8887 -4.16146 0
M  V30 15303 C 1485.72 1.39203 -5.00918 0
M  V30 15304 C 1483.4 1.96555 -4.62246 0
M  V30 15305 C 1485.4 0.978071 -6.29851 0
M  V30 15306 C 1483.08 1.54771 -5.91176 0
M  V30 15307 C 1484.08 1.05479 -6.74806 0
M  V30 15308 O 1483.77 0.64288 -8.01325 0
M  V30 15309 H 1483.5 0.36993 -0.565798 0
M  V30 15310 H 1486.05 0.524183 -1.98599 0
M  V30 15311 H 1484.28 3.04839 -2.37929 0
M  V30 15312 H 1485.97 2.95121 -2.78673 0
M  V30 15313 H 1486.74 1.3266 -4.66505 0
M  V30 15314 H 1482.62 2.33868 -3.97274 0
M  V30 15315 H 1486.16 0.592633 -6.95078 0
M  V30 15316 H 1482.06 1.60985 -6.25103 0
M  V30 15317 H 1482.83 0.768711 -8.14882 0
M  V30 15318 N 1485.49 1.41566 0.692592 0
M  V30 15319 C 1486.74 1.41292 1.4548 0
M  V30 15320 C 1487.07 0.0229093 1.94186 0
M  V30 15321 O 1486.34 -0.949849 1.6973 0
M  V30 15322 C 1486.63 2.42225 2.66457 0
M  V30 15323 C 1486.48 3.90345 2.23496 0
M  V30 15324 C 1487.8 2.40374 3.68658 0
M  V30 15325 H 1484.92 0.51453 0.527663 0
M  V30 15326 H 1487.56 1.72862 0.788598 0
M  V30 15327 H 1485.71 2.15435 3.23296 0
M  V30 15328 H 1487.38 4.2805 1.71962 0
M  V30 15329 H 1485.63 4.05068 1.55249 0
M  V30 15330 H 1486.3 4.56518 3.10314 0
M  V30 15331 H 1488.77 2.64156 3.21498 0
M  V30 15332 H 1487.65 3.13004 4.5091 0
M  V30 15333 H 1487.91 1.42338 4.1856 0
M  V30 15334 N 1486.97 -0.927146 1.27443 0
M  V30 15335 C 1487.88 -2.06122 1.12031 0
M  V30 15336 C 1488.89 -1.73928 0.0501979 0
M  V30 15337 O 1490.07 -1.99756 0.256796 0
M  V30 15338 C 1487.14 -3.3805 0.769634 0
M  V30 15339 C 1486.2 -3.83938 1.92068 0
M  V30 15340 C 1485.43 -5.0957 1.58664 0
M  V30 15341 O 1485.65 -5.6825 0.494789 0
M  V30 15342 O 1484.59 -5.50844 2.42599 0
M  V30 15343 H 1488.41 -2.22037 2.07203 0
M  V30 15344 H 1486 -1.04638 1.06636 0
M  V30 15345 H 1487.88 -4.17286 0.587423 0
M  V30 15346 H 1486.55 -3.2334 -0.152557 0
M  V30 15347 H 1485.46 -3.05587 2.15795 0
M  V30 15348 H 1486.79 -4.0319 2.8231 0
M  V30 15349 N 1488.45 -1.09474 -1.13372 0
M  V30 15350 C 1489.38 -0.692446 -2.1849 0
M  V30 15351 C 1490.39 0.265942 -1.60613 0
M  V30 15352 O 1491.58 0.0519189 -1.78424 0
M  V30 15353 C 1488.68 0.000306083 -3.389 0
M  V30 15354 C 1487.85 -0.979745 -4.26286 0
M  V30 15355 C 1486.91 -0.320309 -5.25224 0
M  V30 15356 O 1485.94 -0.968089 -5.60907 0
M  V30 15357 N 1487.14 0.92536 -5.73077 0
M  V30 15358 H 1489.91 -1.59681 -2.53618 0
M  V30 15359 H 1487.47 -0.982256 -1.28699 0
M  V30 15360 H 1489.46 0.45268 -4.0216 0
M  V30 15361 H 1488.03 0.806927 -3.02006 0
M  V30 15362 H 1487.25 -1.61067 -3.59793 0
M  V30 15363 H 1488.54 -1.64348 -4.81526 0
M  V30 15364 H 1487.93 1.47119 -5.46235 0
M  V30 15365 H 1486.49 1.32105 -6.38272 0
M  V30 15366 N 1489.92 1.30607 -0.882012 0
M  V30 15367 C 1490.85 2.30666 -0.362706 0
M  V30 15368 C 1491.84 1.60865 0.552861 0
M  V30 15369 O 1493.02 1.88493 0.467339 0
M  V30 15370 C 1490.15 3.44675 0.42622 0
M  V30 15371 C 1489.1 4.26152 -0.397322 0
M  V30 15372 C 1488.43 5.32185 0.518027 0
M  V30 15373 C 1489.73 4.95955 -1.63785 0
M  V30 15374 H 1491.42 2.74351 -1.19883 0
M  V30 15375 H 1488.97 1.31895 -0.577912 0
M  V30 15376 H 1490.92 4.13734 0.80013 0
M  V30 15377 H 1489.65 2.99787 1.29597 0
M  V30 15378 H 1488.31 3.58776 -0.753332 0
M  V30 15379 H 1487.95 4.83545 1.3854 0
M  V30 15380 H 1487.65 5.87593 -0.0291802 0
M  V30 15381 H 1489.18 6.04101 0.888518 0
M  V30 15382 H 1490.59 5.57547 -1.3347 0
M  V30 15383 H 1488.99 5.61215 -2.12504 0
M  V30 15384 H 1490.06 4.22252 -2.38394 0
M  V30 15385 N 1491.4 0.642663 1.43901 0
M  V30 15386 C 1492.65 0.151478 2.01532 0
M  V30 15387 C 1492.97 -1.23519 1.50891 0
M  V30 15388 O 1492.24 -1.82299 0.717197 0
M  V30 15389 H 1490.82 0.0530091 0.745117 0
M  V30 15390 H 1493.48 0.831958 1.76251 0
M  V30 15391 H 1492.58 0.127995 3.11837 0
M  V30 15392 N 1492.88 -1.52852 0.383918 0
M  V30 15393 C 1493.83 -2.27828 -0.468762 0
M  V30 15394 C 1494.82 -1.31516 -1.0677 0
M  V30 15395 O 1496.03 -1.49075 -1.0088 0
M  V30 15396 H 1492.4 -0.732552 -0.169917 0
M  V30 15397 H 1494.38 -2.97825 0.185124 0
M  V30 15398 C 1493.12 -3.09378 -1.58683 0
M  V30 15399 H 1492.45 -3.83343 -1.13527 0
M  V30 15400 H 1493.89 -3.64987 -2.15779 0
M  V30 15401 C 1492.35 -2.21354 -2.53976 0
M  V30 15402 O 1492.88 -1.83668 -3.57252 0
M  V30 15403 N 1491.08 -1.85621 -2.23591 0
M  V30 15404 H 1490.63 -2.16467 -1.39642 0
M  V30 15405 H 1490.59 -1.27015 -2.87602 0
M  V30 15406 N 1494.36 -0.113586 -1.5719 0
M  V30 15407 C 1495.32 0.824258 -2.13866 0
M  V30 15408 C 1496.32 1.19831 -1.07224 0
M  V30 15409 O 1497.51 1.12471 -1.33026 0
M  V30 15410 C 1494.64 2.11391 -2.67445 0
M  V30 15411 H 1495.84 0.331803 -2.98059 0
M  V30 15412 H 1493.39 0.135599 -1.55711 0
M  V30 15413 H 1494.13 2.65079 -1.86824 0
M  V30 15414 H 1493.91 1.85523 -3.45433 0
M  V30 15415 H 1495.4 2.78443 -3.11222 0
M  V30 15416 N 1495.84 1.56784 0.160173 0
M  V30 15417 C 1497.08 1.82621 0.874982 0
M  V30 15418 C 1497.41 0.692427 1.81757 0
M  V30 15419 O 1496.67 -0.319535 1.93074 0
M  V30 15420 C 1496.97 3.14703 1.69402 0
M  V30 15421 C 1496.63 4.41839 0.899373 0
M  V30 15422 C 1495.29 4.7637 0.680099 0
M  V30 15423 C 1497.65 5.20072 0.342747 0
M  V30 15424 C 1494.97 5.86603 -0.106723 0
M  V30 15425 C 1497.33 6.3113 -0.431044 0
M  V30 15426 C 1495.99 6.64219 -0.661017 0
M  V30 15427 H 1495.26 0.668256 0.320178 0
M  V30 15428 H 1497.91 1.90993 0.139305 0
M  V30 15429 H 1496.21 3.01723 2.49941 0
M  V30 15430 H 1497.91 3.31906 2.25032 0
M  V30 15431 H 1494.5 4.14761 1.08033 0
M  V30 15432 H 1498.68 4.9378 0.499467 0
M  V30 15433 H 1493.94 6.1069 -0.294528 0
M  V30 15434 H 1498.11 6.9095 -0.869557 0
M  V30 15435 H 1495.74 7.49473 -1.27257 0
M  V30 15436 N 1497.32 -0.429099 1.51646 0
M  V30 15437 C 1498.56 -1.17551 1.64396 0
M  V30 15438 C 1498.88 -1.91526 0.366444 0
M  V30 15439 O 1498.15 -1.85896 -0.618013 0
M  V30 15440 H 1496.73 -0.436918 0.605898 0
M  V30 15441 H 1499.4 -0.491159 1.8861 0
M  V30 15442 H 1498.49 -1.90057 2.47557 0
M  V30 15443 N 1498.79 -1.41931 -0.685074 0
M  V30 15444 C 1500.02 -1.45432 -1.47866 0
M  V30 15445 C 1500.44 -0.0641302 -1.87991 0
M  V30 15446 O 1499.8 0.935081 -1.55325 0
M  V30 15447 C 1499.85 -2.37801 -2.71077 0
M  V30 15448 O 1498.95 -1.84229 -3.68963 0
M  V30 15449 H 1498.29 -0.493156 -0.444627 0
M  V30 15450 H 1500.82 -1.86508 -0.841177 0
M  V30 15451 H 1500.83 -2.54033 -3.19266 0
M  V30 15452 H 1499.51 -3.38807 -2.41211 0
M  V30 15453 H 1498.09 -1.775 -3.27945 0
M  V30 15454 N 1500.27 0.920374 -1.27933 0
M  V30 15455 C 1501.52 1.66554 -1.14474 0
M  V30 15456 C 1501.84 1.92545 0.308444 0
M  V30 15457 O 1501.11 1.53691 1.21473 0
M  V30 15458 H 1499.69 0.617302 -0.420651 0
M  V30 15459 H 1502.35 1.10473 -1.60567 0
M  V30 15460 H 1501.45 2.63067 -1.67935 0
M  V30 15461 N 1501.75 1.10074 1.1279 0
M  V30 15462 C 1503 0.840873 1.84216 0
M  V30 15463 C 1503.32 -0.633551 1.83892 0
M  V30 15464 O 1502.58 -1.48283 1.27714 0
M  V30 15465 C 1502.88 1.32969 3.31744 0
M  V30 15466 C 1502.54 2.81489 3.52242 0
M  V30 15467 C 1501.21 3.22048 3.57545 0
M  V30 15468 C 1503.56 3.77216 3.59664 0
M  V30 15469 C 1500.89 4.57092 3.67809 0
M  V30 15470 C 1503.24 5.12057 3.71457 0
M  V30 15471 C 1501.9 5.52196 3.75014 0
M  V30 15472 H 1501.17 0.307697 0.674095 0
M  V30 15473 H 1503.82 1.37669 1.33115 0
M  V30 15474 H 1502.12 0.713819 3.85243 0
M  V30 15475 H 1503.82 1.10515 3.8547 0
M  V30 15476 H 1500.41 2.49106 3.48775 0
M  V30 15477 H 1504.6 3.4699 3.5484 0
M  V30 15478 H 1499.85 4.87618 3.68834 0
M  V30 15479 H 1504.03 5.86081 3.76142 0
M  V30 15480 H 1501.65 6.56833 3.8272 0
M  V30 15481 N 1503.23 -1.30138 0.888926 0
M  V30 15482 C 1504.46 -2.00143 0.524437 0
M  V30 15483 C 1504.87 -1.66608 -0.888093 0
M  V30 15484 O 1504.23 -0.905326 -1.58462 0
M  V30 15485 C 1504.28 -3.54769 0.694327 0
M  V30 15486 O 1504 -3.87112 2.05125 0
M  V30 15487 C 1505.5 -4.42045 0.333354 0
M  V30 15488 H 1502.72 -0.639775 0.202309 0
M  V30 15489 H 1505.26 -1.65929 1.19531 0
M  V30 15490 H 1503.42 -3.87335 0.0707712 0
M  V30 15491 H 1503.83 -4.81807 2.07275 0
M  V30 15492 H 1505.31 -5.49702 0.503107 0
M  V30 15493 H 1505.78 -4.33109 -0.728893 0
M  V30 15494 H 1506.39 -4.14931 0.933398 0
M  V30 15495 N 1504.71 -0.650285 -1.43559 0
M  V30 15496 C 1505.65 0.0550615 -2.32535 0
M  V30 15497 C 1506.65 0.81612 -1.48445 0
M  V30 15498 O 1507.85 0.726853 -1.64672 0
M  V30 15499 H 1504.23 0.0365887 -0.751109 0
M  V30 15500 H 1506.2 -0.713146 -2.89753 0
M  V30 15501 C 1504.95 1.00982 -3.32713 0
M  V30 15502 H 1504.27 0.433626 -3.97441 0
M  V30 15503 H 1505.71 1.47249 -3.9761 0
M  V30 15504 C 1504.17 2.10442 -2.63089 0
M  V30 15505 O 1504.7 3.18782 -2.44419 0
M  V30 15506 N 1502.91 1.86915 -2.22511 0
M  V30 15507 H 1502.45 0.988113 -2.37895 0
M  V30 15508 H 1502.41 2.60348 -1.76256 0
M  V30 15509 N 1506.18 1.52647 -0.392018 0
M  V30 15510 C 1507.12 2.24183 0.476934 0
M  V30 15511 C 1508.13 1.26526 1.02446 0
M  V30 15512 O 1509.32 1.52583 0.92632 0
M  V30 15513 C 1506.42 2.94672 1.67397 0
M  V30 15514 C 1505.59 4.19058 1.25335 0
M  V30 15515 C 1504.65 4.72522 2.31537 0
M  V30 15516 O 1503.68 5.35541 1.92833 0
M  V30 15517 N 1504.88 4.52613 3.63486 0
M  V30 15518 H 1507.64 2.99391 -0.135963 0
M  V30 15519 H 1505.2 1.60419 -0.218514 0
M  V30 15520 H 1507.2 3.27338 2.37975 0
M  V30 15521 H 1505.77 2.22755 2.19315 0
M  V30 15522 H 1504.99 3.92399 0.376352 0
M  V30 15523 H 1506.27 4.99871 0.94901 0
M  V30 15524 H 1505.67 4.02316 3.97692 0
M  V30 15525 H 1504.23 4.89761 4.3009 0
M  V30 15526 N 1507.66 0.121921 1.57128 0
M  V30 15527 C 1508.91 -0.535201 1.9447 0
M  V30 15528 C 1509.22 -1.67644 1.00772 0
M  V30 15529 O 1510.43 -2.39651 1.27592 0
M  V30 15530 C 1508.89 -1.00346 3.45628 0
M  V30 15531 C 1508.49 0.109473 4.47866 0
M  V30 15532 C 1510.24 -1.63179 3.91884 0
M  V30 15533 C 1508.15 -0.375651 5.90206 0
M  V30 15534 H 1507.08 -0.203702 0.725962 0
M  V30 15535 H 1509.73 0.202243 1.82382 0
M  V30 15536 H 1508.11 -1.79541 3.5296 0
M  V30 15537 H 1509.28 0.885815 4.52206 0
M  V30 15538 H 1507.6 0.644642 4.1138 0
M  V30 15539 H 1510.19 -2.00594 4.95647 0
M  V30 15540 H 1510.54 -2.5113 3.32023 0
M  V30 15541 H 1511.07 -0.905197 3.87364 0
M  V30 15542 H 1507.81 0.46788 6.53828 0
M  V30 15543 H 1507.33 -1.11841 5.89281 0
M  V30 15544 H 1509.01 -0.835921 6.41577 0
M  V30 15545 N 1509.14 -1.56867 -0.151857 0
M  V30 15546 C 1510.38 -1.84887 -0.871555 0
M  V30 15547 C 1510.74 -0.705549 -1.78567 0
M  V30 15548 O 1511.95 -0.86668 -2.54445 0
M  V30 15549 C 1510.22 -3.18077 -1.62978 0
M  V30 15550 S 1511.78 -3.67639 -2.39557 0
M  V30 15551 H 1508.59 -0.648478 -0.291543 0
M  V30 15552 H 1511.2 -1.95055 -0.131873 0
M  V30 15553 H 1509.9 -3.99262 -0.949621 0
M  V30 15554 H 1509.43 -3.10902 -2.41046 0
M  V30 15555 H 1511.45 -3.36516 -3.64653 0
M  V30 15556 N 1510.62 0.421051 -1.51871 0
M  V30 15557 C 1511.53 1.5371 -1.7723 0
M  V30 15558 C 1512.54 1.61109 -0.657256 0
M  V30 15559 O 1513.72 1.78047 -0.941343 0
M  V30 15560 C 1510.79 2.89555 -1.9068 0
M  V30 15561 C 1509.85 2.9214 -3.14567 0
M  V30 15562 C 1509.08 4.21505 -3.27367 0
M  V30 15563 O 1509.3 5.14764 -2.45712 0
M  V30 15564 O 1508.24 4.30706 -4.20448 0
M  V30 15565 H 1512.06 1.35221 -2.71935 0
M  V30 15566 H 1509.65 0.605712 -1.3657 0
M  V30 15567 H 1511.53 3.70147 -2.01418 0
M  V30 15568 H 1510.2 3.08137 -0.991627 0
M  V30 15569 H 1509.11 2.10444 -3.09296 0
M  V30 15570 H 1510.44 2.78505 -4.05827 0
M  V30 15571 N 1512.1 1.42293 0.677538 0
M  V30 15572 C 1513.03 1.41503 1.80304 0
M  V30 15573 C 1514.04 0.314499 1.59733 0
M  V30 15574 O 1515.23 0.57741 1.68903 0
M  V30 15575 C 1512.33 1.18879 3.17366 0
M  V30 15576 C 1511.5 2.41314 3.6481 0
M  V30 15577 C 1510.56 2.14277 4.80595 0
M  V30 15578 O 1509.59 2.87457 4.91281 0
M  V30 15579 N 1510.79 1.14419 5.69112 0
M  V30 15580 H 1513.56 2.38515 1.81468 0
M  V30 15581 H 1511.12 1.37137 0.860529 0
M  V30 15582 H 1513.11 0.987135 3.92476 0
M  V30 15583 H 1511.68 0.304002 3.11118 0
M  V30 15584 H 1510.9 2.77066 2.80407 0
M  V30 15585 H 1512.19 3.2285 3.9325 0
M  V30 15586 H 1511.58 0.53888 5.63127 0
M  V30 15587 H 1510.14 1.00241 6.44046 0
M  V30 15588 N 1513.57 -0.913576 1.28419 0
M  V30 15589 C 1514.82 -1.66519 1.15755 0
M  V30 15590 C 1515.15 -1.91974 -0.293166 0
M  V30 15591 O 1514.43 -1.52025 -1.21321 0
M  V30 15592 C 1514.71 -3.02299 1.95672 0
M  V30 15593 C 1514.56 -2.83996 3.48807 0
M  V30 15594 C 1515.88 -4.02838 1.77226 0
M  V30 15595 H 1513 -0.604309 0.421877 0
M  V30 15596 H 1515.64 -1.05919 1.57737 0
M  V30 15597 H 1513.79 -3.54025 1.59995 0
M  V30 15598 H 1515.47 -2.39279 3.9439 0
M  V30 15599 H 1513.71 -2.19052 3.74431 0
M  V30 15600 H 1514.38 -3.80419 3.99982 0
M  V30 15601 H 1516.86 -3.60174 2.0836 0
M  V30 15602 H 1515.73 -4.95806 2.35515 0
M  V30 15603 H 1515.99 -4.36135 0.723804 0
M  V30 15604 N 1515.05 -1.1067 -1.12204 0
M  V30 15605 C 1516 -0.752659 -2.20086 0
M  V30 15606 C 1516.99 0.252284 -1.67511 0
M  V30 15607 O 1518.2 0.112398 -1.79649 0
M  V30 15608 H 1514.58 -0.225473 -0.717402 0
M  V30 15609 H 1516.55 -1.67136 -2.472 0
M  V30 15610 C 1515.3 -0.203345 -3.47105 0
M  V30 15611 H 1514.62 -0.967864 -3.87908 0
M  V30 15612 H 1516.06 0.00629123 -4.24 0
M  V30 15613 C 1514.52 1.06452 -3.1964 0
M  V30 15614 O 1515.05 2.14562 -3.39597 0
M  V30 15615 N 1513.25 0.984122 -2.73429 0
M  V30 15616 H 1512.8 0.104258 -2.57389 0
M  V30 15617 H 1512.76 1.83312 -2.55429 0
M  V30 15618 N 1516.53 1.29665 -0.895815 0
M  V30 15619 C 1517.46 2.30268 -0.387151 0
M  V30 15620 C 1518.44 1.61442 0.535768 0
M  V30 15621 O 1519.63 1.88978 0.447321 0
M  V30 15622 C 1516.76 3.45107 0.389639 0
M  V30 15623 C 1515.71 4.25706 -0.442498 0
M  V30 15624 C 1515.04 5.32704 0.461552 0
M  V30 15625 C 1516.34 4.9419 -1.69036 0
M  V30 15626 H 1518.03 2.73064 -1.22786 0
M  V30 15627 H 1515.58 1.31274 -0.591869 0
M  V30 15628 H 1517.53 4.14559 0.756203 0
M  V30 15629 H 1516.25 3.01145 1.2641 0
M  V30 15630 H 1514.91 3.57957 -0.791343 0
M  V30 15631 H 1514.56 4.84987 1.33403 0
M  V30 15632 H 1514.26 5.87529 -0.0915006 0
M  V30 15633 H 1515.78 6.05009 0.824395 0
M  V30 15634 H 1517.2 5.561 -1.39376 0
M  V30 15635 H 1515.6 5.5893 -2.18444 0
M  V30 15636 H 1516.67 4.19699 -2.42859 0
M  V30 15637 N 1518.01 0.657889 1.43212 0
M  V30 15638 C 1518.94 -0.0172114 2.33494 0
M  V30 15639 C 1519.92 -0.807087 1.49733 0
M  V30 15640 O 1521.1 -0.767631 1.78385 0
M  V30 15641 C 1518.23 -0.981029 3.33156 0
M  V30 15642 C 1517.19 -0.30094 4.26941 0
M  V30 15643 C 1516.51 -1.37653 5.16678 0
M  V30 15644 C 1517.81 0.809572 5.15988 0
M  V30 15645 H 1519.51 0.736749 2.90194 0
M  V30 15646 H 1517.05 0.355744 1.39537 0
M  V30 15647 H 1519.01 -1.46226 3.95216 0
M  V30 15648 H 1517.73 -1.76621 2.74723 0
M  V30 15649 H 1516.39 0.159893 3.66251 0
M  V30 15650 H 1516.04 -2.15326 4.54581 0
M  V30 15651 H 1515.74 -0.926704 5.80246 0
M  V30 15652 H 1517.26 -1.85903 5.81612 0
M  V30 15653 H 1518.68 0.410297 5.7183 0
M  V30 15654 H 1517.07 1.18415 5.88301 0
M  V30 15655 H 1518.14 1.66558 4.55397 0
M  V30 15656 N 1519.49 -1.52437 0.400108 0
M  V30 15657 C 1520.43 -2.26763 -0.429799 0
M  V30 15658 C 1521.4 -1.28808 -1.0487 0
M  V30 15659 O 1522.59 -1.57655 -1.07468 0
M  V30 15660 C 1519.73 -3.08564 -1.54539 0
M  V30 15661 C 1518.84 -4.21463 -0.948294 0
M  V30 15662 C 1517.98 -4.9064 -2.03584 0
M  V30 15663 C 1517.02 -5.95515 -1.4152 0
M  V30 15664 N 1516.15 -6.58245 -2.4425 0
M  V30 15665 H 1520.99 -2.97256 0.210467 0
M  V30 15666 H 1518.53 -1.46645 0.115627 0
M  V30 15667 H 1520.49 -3.54289 -2.20307 0
M  V30 15668 H 1519.12 -2.40259 -2.15582 0
M  V30 15669 H 1518.17 -3.79974 -0.179918 0
M  V30 15670 H 1519.48 -4.96722 -0.454845 0
M  V30 15671 H 1518.64 -5.39724 -2.77097 0
M  V30 15672 H 1517.37 -4.14929 -2.56291 0
M  V30 15673 H 1516.38 -5.45759 -0.665354 0
M  V30 15674 H 1517.6 -6.73164 -0.89593 0
M  V30 15675 H 1515.55 -5.85369 -2.96107 0
M  V30 15676 H 1515.47 -7.2915 -1.99692 0
M  V30 15677 H 1516.74 -7.1197 -3.17362 0
M  V30 15678 N 1520.96 -0.130252 -1.57061 0
M  V30 15679 C 1521.87 0.829198 -2.19457 0
M  V30 15680 C 1522.89 1.2843 -1.17395 0
M  V30 15681 O 1524.07 1.34496 -1.49909 0
M  V30 15682 C 1521.13 2.05727 -2.79065 0
M  V30 15683 C 1520.19 1.65301 -3.962 0
M  V30 15684 C 1519.43 2.82253 -4.52956 0
M  V30 15685 O 1519.65 3.97999 -4.08598 0
M  V30 15686 O 1518.58 2.5869 -5.43473 0
M  V30 15687 H 1522.41 0.328139 -3.01922 0
M  V30 15688 H 1519.99 0.0959361 -1.49092 0
M  V30 15689 H 1521.88 2.7763 -3.17017 0
M  V30 15690 H 1520.55 2.54817 -1.99624 0
M  V30 15691 H 1519.46 0.904712 -3.62996 0
M  V30 15692 H 1520.79 1.20942 -4.7711 0
M  V30 15693 N 1522.44 1.56945 0.143535 0
M  V30 15694 C 1523.67 1.88067 0.874385 0
M  V30 15695 C 1524.09 0.719645 1.73789 0
M  V30 15696 O 1523.45 -0.330654 1.78259 0
M  V30 15697 C 1523.5 3.17795 1.70408 0
M  V30 15698 O 1522.6 3.01973 2.80867 0
M  V30 15699 H 1521.94 0.617808 0.24333 0
M  V30 15700 H 1524.47 2.04165 0.133309 0
M  V30 15701 H 1524.48 3.49903 2.09838 0
M  V30 15702 H 1523.16 4.019 1.07001 0
M  V30 15703 H 1521.74 2.8128 2.44818 0
M  V30 15704 N 1523.92 -0.412991 1.52093 0
M  V30 15705 C 1524.85 -1.50986 1.78117 0
M  V30 15706 C 1525.83 -1.57925 0.631963 0
M  V30 15707 O 1527.02 -1.73261 0.877168 0
M  V30 15708 C 1524.15 -2.88846 1.92835 0
M  V30 15709 C 1523.1 -2.96759 3.08412 0
M  V30 15710 C 1522.43 -4.36837 3.08347 0
M  V30 15711 C 1523.73 -2.68599 4.47942 0
M  V30 15712 H 1525.42 -1.29459 2.69964 0
M  V30 15713 H 1522.97 -0.621348 1.29905 0
M  V30 15714 H 1524.92 -3.65563 2.09623 0
M  V30 15715 H 1523.64 -3.11658 0.976553 0
M  V30 15716 H 1522.3 -2.22487 2.91368 0
M  V30 15717 H 1521.95 -4.56652 2.10897 0
M  V30 15718 H 1521.65 -4.43056 3.85973 0
M  V30 15719 H 1523.18 -5.15493 3.2726 0
M  V30 15720 H 1524.59 -3.35039 4.65212 0
M  V30 15721 H 1522.99 -2.86199 5.27456 0
M  V30 15722 H 1524.06 -1.64058 4.56304 0
M  V30 15723 N 1525.4 -1.4265 -0.669982 0
M  V30 15724 C 1526.65 -1.43589 -1.43213 0
M  V30 15725 C 1526.98 -0.0537998 -1.94125 0
M  V30 15726 O 1526.25 0.922727 -1.71219 0
M  V30 15727 C 1526.54 -2.46433 -2.62569 0
M  V30 15728 C 1526.39 -3.93851 -2.17258 0
M  V30 15729 C 1527.71 -2.46208 -3.64787 0
M  V30 15730 H 1524.83 -0.522859 -0.519411 0
M  V30 15731 H 1527.47 -1.74094 -0.760997 0
M  V30 15732 H 1525.62 -2.20551 -3.19828 0
M  V30 15733 H 1527.29 -4.30732 -1.6513 0
M  V30 15734 H 1525.53 -4.07487 -1.48786 0
M  V30 15735 H 1526.21 -4.61398 -3.03012 0
M  V30 15736 H 1528.68 -2.69237 -3.17255 0
M  V30 15737 H 1527.56 -3.20138 -4.45873 0
M  V30 15738 H 1527.82 -1.48979 -4.16242 0
M  V30 15739 N 1526.88 0.906753 -1.28902 0
M  V30 15740 C 1528.13 1.6533 -1.16234 0
M  V30 15741 C 1528.45 1.92861 0.288004 0
M  V30 15742 O 1527.72 1.54971 1.19837 0
M  V30 15743 H 1526.3 0.612806 -0.427174 0
M  V30 15744 H 1528.96 1.08764 -1.6173 0
M  V30 15745 H 1528.05 2.61271 -1.70715 0
M  V30 15746 N 1528.36 1.11264 1.11616 0
M  V30 15747 C 1529.29 0.727118 2.17361 0
M  V30 15748 C 1530.3 -0.240356 1.61016 0
M  V30 15749 O 1531.49 -0.0235265 1.78484 0
M  V30 15750 C 1528.59 0.05361 3.38858 0
M  V30 15751 C 1527.76 1.04744 4.24673 0
M  V30 15752 C 1526.82 0.403827 5.24648 0
M  V30 15753 O 1525.85 1.0572 5.59296 0
M  V30 15754 N 1527.05 -0.834071 5.74477 0
M  V30 15755 H 1529.81 1.63696 2.51045 0
M  V30 15756 H 1527.38 1.00261 1.2712 0
M  V30 15757 H 1529.37 -0.388643 4.0283 0
M  V30 15758 H 1527.94 -0.758778 3.03251 0
M  V30 15759 H 1527.16 1.6677 3.57185 0
M  V30 15760 H 1528.45 1.71988 4.7885 0
M  V30 15761 H 1527.84 -1.3841 5.48506 0
M  V30 15762 H 1526.4 -1.21933 6.40293 0
M  V30 15763 N 1529.83 -1.29188 0.902679 0
M  V30 15764 C 1531.11 -1.90365 0.449496 0
M  V30 15765 C 1531.49 -1.81911 -1.07105 0
M  V30 15766 O 1530.84 -1.24778 -1.91423 0
M  V30 15767 C 1531.05 -3.35324 0.967418 0
M  V30 15768 C 1532.4 -4.12342 1.0129 0
M  V30 15769 O 1533.42 -3.44239 0.915293 0
M  V30 15770 O 1532.28 -5.34048 1.15994 0
M  V30 15771 H 1529.37 -0.814956 0.140628 0
M  V30 15772 H 1531.92 -1.37633 0.992739 0
M  V30 15773 H 1530.69 -3.35646 2.0114 0
M  V30 15774 H 1530.31 -3.95539 0.404358 0
M  V30 15775 N 1531.31 -0.665475 -1.42861 0
M  V30 15776 C 1532.54 -0.190399 -2.06524 0
M  V30 15777 C 1532.96 1.13995 -1.49622 0
M  V30 15778 O 1532.32 1.70695 -0.610981 0
M  V30 15779 C 1532.37 -0.12594 -3.6038 0
M  V30 15780 O 1531.47 0.908299 -4.02273 0
M  V30 15781 H 1530.81 -0.100495 -0.656351 0
M  V30 15782 H 1533.34 -0.911858 -1.83156 0
M  V30 15783 H 1533.35 0.0533153 -4.07965 0
M  V30 15784 H 1532.03 -1.09703 -4.01171 0
M  V30 15785 H 1530.6 0.700841 -3.66255 0
M  V30 15786 N 1532.79 1.52222 -0.408187 0
M  V30 15787 C 1534.04 2.00989 0.169252 0
M  V30 15788 C 1534.35 1.29824 1.46305 0
M  V30 15789 O 1535.56 1.69402 2.12168 0
M  V30 15790 C 1534.01 3.58173 0.352179 0
M  V30 15791 C 1533.62 4.38252 -0.929468 0
M  V30 15792 C 1535.37 4.15173 0.88496 0
M  V30 15793 C 1533.27 5.87077 -0.713781 0
M  V30 15794 H 1532.2 0.751015 0.0670261 0
M  V30 15795 H 1534.85 1.75574 -0.533487 0
M  V30 15796 H 1533.24 3.79913 1.11723 0
M  V30 15797 H 1534.41 4.28272 -1.70059 0
M  V30 15798 H 1532.72 3.92565 -1.38859 0
M  V30 15799 H 1535.32 5.2404 1.06235 0
M  V30 15800 H 1535.66 3.72468 1.85938 0
M  V30 15801 H 1536.2 3.97397 0.178995 0
M  V30 15802 H 1532.94 6.3414 -1.65974 0
M  V30 15803 H 1532.46 5.99797 0.0180631 0
M  V30 15804 H 1534.14 6.46022 -0.355596 0
M  V30 15805 N 1534.27 0.138579 1.5699 0
M  V30 15806 C 1535.2 -0.800568 2.19347 0
M  V30 15807 C 1536.18 -1.26318 1.13921 0
M  V30 15808 O 1537.36 -1.32226 1.42232 0
M  V30 15809 C 1534.49 -2.04317 2.80842 0
M  V30 15810 C 1533.45 -1.71764 3.92022 0
M  V30 15811 C 1532.77 -3.03217 4.40413 0
M  V30 15812 C 1534.07 -0.970789 5.13199 0
M  V30 15813 H 1535.77 -0.280888 2.98079 0
M  V30 15814 H 1533.31 -0.133663 1.43378 0
M  V30 15815 H 1535.27 -2.70491 3.2313 0
M  V30 15816 H 1533.99 -2.58643 1.99428 0
M  V30 15817 H 1532.65 -1.07972 3.50339 0
M  V30 15818 H 1532.3 -3.55517 3.55832 0
M  V30 15819 H 1532 -2.82203 5.15398 0
M  V30 15820 H 1533.52 -3.70477 4.85365 0
M  V30 15821 H 1534.94 -1.53445 5.52384 0
M  V30 15822 H 1533.33 -0.860895 5.93893 0
M  V30 15823 H 1534.4 0.0390088 4.84884 0
M  V30 15824 N 1535.75 -1.57019 -0.13521 0
M  V30 15825 C 1536.66 -2.02427 -1.18578 0
M  V30 15826 C 1537.67 -0.941738 -1.46312 0
M  V30 15827 O 1538.85 -1.25208 -1.57749 0
M  V30 15828 C 1535.91 -2.40577 -2.49647 0
M  V30 15829 C 1534.97 -3.62835 -2.29455 0
M  V30 15830 C 1534.21 -3.99156 -3.54274 0
M  V30 15831 O 1534.43 -3.36001 -4.60933 0
M  V30 15832 O 1533.36 -4.92345 -3.46238 0
M  V30 15833 H 1537.19 -2.92131 -0.830237 0
M  V30 15834 H 1534.77 -1.45366 -0.344814 0
M  V30 15835 H 1536.66 -2.65922 -3.269 0
M  V30 15836 H 1535.33 -1.54023 -2.84708 0
M  V30 15837 H 1534.24 -3.42661 -1.50114 0
M  V30 15838 H 1535.57 -4.50043 -1.99305 0
M  V30 15839 N 1537.22 0.404919 -1.52309 0
M  V30 15840 C 1538.17 1.49363 -1.75953 0
M  V30 15841 C 1539.14 1.54802 -0.60212 0
M  V30 15842 O 1540.33 1.71308 -0.840128 0
M  V30 15843 C 1537.47 2.86767 -1.91987 0
M  V30 15844 C 1536.58 2.90603 -3.19646 0
M  V30 15845 C 1535.71 4.19333 -3.26088 0
M  V30 15846 C 1534.75 4.17161 -4.47932 0
M  V30 15847 N 1533.89 5.37469 -4.51743 0
M  V30 15848 H 1538.73 1.28503 -2.6887 0
M  V30 15849 H 1536.27 0.623684 -1.33224 0
M  V30 15850 H 1538.23 3.66536 -1.99267 0
M  V30 15851 H 1536.86 3.06112 -1.02447 0
M  V30 15852 H 1535.91 2.033 -3.21517 0
M  V30 15853 H 1537.22 2.84864 -4.09456 0
M  V30 15854 H 1536.37 5.07497 -3.32463 0
M  V30 15855 H 1535.11 4.27774 -2.34224 0
M  V30 15856 H 1534.12 3.27386 -4.417 0
M  V30 15857 H 1535.34 4.10356 -5.41096 0
M  V30 15858 H 1533.29 5.46569 -3.62764 0
M  V30 15859 H 1533.21 5.3374 -5.35404 0
M  V30 15860 H 1534.47 6.27575 -4.62353 0
M  V30 15861 N 1538.7 1.43003 0.662408 0
M  V30 15862 C 1539.93 1.47766 1.45533 0
M  V30 15863 C 1540.35 0.0940298 1.87865 0
M  V30 15864 O 1539.71 -0.910252 1.56793 0
M  V30 15865 C 1539.76 2.42084 2.6726 0
M  V30 15866 O 1538.86 1.90076 3.65985 0
M  V30 15867 H 1538.2 0.500167 0.436725 0
M  V30 15868 H 1540.73 1.87823 0.811399 0
M  V30 15869 H 1540.74 2.5908 3.15185 0
M  V30 15870 H 1539.42 3.42601 2.3579 0
M  V30 15871 H 1538 1.82695 3.2508 0
M  V30 15872 N 1540.18 -0.899904 1.29381 0
M  V30 15873 C 1541.11 -2.02045 1.17047 0
M  V30 15874 C 1542.09 -1.69977 0.0647354 0
M  V30 15875 O 1543.28 -1.92659 0.244173 0
M  V30 15876 C 1540.41 -3.36839 0.845991 0
M  V30 15877 C 1539.36 -3.83117 1.90802 0
M  V30 15878 C 1538.69 -5.15032 1.43686 0
M  V30 15879 C 1539.99 -4.03464 3.31684 0
M  V30 15880 H 1541.68 -2.12623 2.10789 0
M  V30 15881 H 1539.23 -1.02162 1.01484 0
M  V30 15882 H 1541.18 -4.14737 0.746413 0
M  V30 15883 H 1539.9 -3.26352 -0.127125 0
M  V30 15884 H 1538.56 -3.07435 1.99698 0
M  V30 15885 H 1538.21 -5.00961 0.452422 0
M  V30 15886 H 1537.91 -5.46967 2.14711 0
M  V30 15887 H 1539.43 -5.95472 1.35078 0
M  V30 15888 H 1540.85 -4.71845 3.25631 0
M  V30 15889 H 1539.25 -4.46752 4.00665 0
M  V30 15890 H 1540.32 -3.07807 3.74677 0
M  V30 15891 N 1541.66 -1.11854 -1.11024 0
M  V30 15892 C 1542.61 -0.780825 -2.17191 0
M  V30 15893 C 1543.58 0.249657 -1.64213 0
M  V30 15894 O 1544.76 0.125603 -1.90386 0
M  V30 15895 C 1541.9 -0.23491 -3.443 0
M  V30 15896 C 1541.01 -1.32247 -4.1126 0
M  V30 15897 C 1540.15 -0.736638 -5.26068 0
M  V30 15898 C 1539.19 -1.80375 -5.8492 0
M  V30 15899 N 1538.32 -1.23709 -6.91115 0
M  V30 15900 H 1543.16 -1.69031 -2.45423 0
M  V30 15901 H 1540.7 -0.844041 -1.20476 0
M  V30 15902 H 1542.66 0.0996064 -4.17081 0
M  V30 15903 H 1541.29 0.637752 -3.16437 0
M  V30 15904 H 1540.34 -1.77387 -3.36509 0
M  V30 15905 H 1541.65 -2.12965 -4.51051 0
M  V30 15906 H 1540.81 -0.352432 -6.05675 0
M  V30 15907 H 1539.55 0.101811 -4.87594 0
M  V30 15908 H 1538.55 -2.19721 -5.03987 0
M  V30 15909 H 1539.78 -2.64531 -6.2546 0
M  V30 15910 H 1537.72 -0.420357 -6.54652 0
M  V30 15911 H 1537.64 -1.98093 -7.29586 0
M  V30 15912 H 1538.91 -0.879912 -7.74518 0
M  V30 15913 N 1543.14 1.28707 -0.909517 0
M  V30 15914 C 1544.1 2.25692 -0.39946 0
M  V30 15915 C 1545.1 1.53721 0.471848 0
M  V30 15916 O 1546.29 1.72008 0.275504 0
M  V30 15917 C 1543.42 3.38205 0.427793 0
M  V30 15918 H 1544.61 2.72326 -1.25613 0
M  V30 15919 H 1542.17 1.40317 -0.688535 0
M  V30 15920 H 1542.9 2.96926 1.30404 0
M  V30 15921 H 1542.69 3.91606 -0.19667 0
M  V30 15922 H 1544.18 4.10334 0.775634 0
M  V30 15923 N 1544.61 0.673042 1.42506 0
M  V30 15924 C 1545.54 0.00755467 2.33499 0
M  V30 15925 C 1546.53 -0.791161 1.50581 0
M  V30 15926 O 1547.71 -0.748668 1.79189 0
M  V30 15927 C 1544.84 -0.945638 3.34178 0
M  V30 15928 C 1543.79 -0.25564 4.27236 0
M  V30 15929 C 1543.12 -1.32165 5.18109 0
M  V30 15930 C 1544.42 0.864254 5.151 0
M  V30 15931 H 1546.11 0.767487 2.89396 0
M  V30 15932 H 1543.66 0.370524 1.39151 0
M  V30 15933 H 1545.61 -1.42026 3.96745 0
M  V30 15934 H 1544.34 -1.73697 2.76581 0
M  V30 15935 H 1543 0.19873 3.66061 0
M  V30 15936 H 1542.64 -2.10492 4.56839 0
M  V30 15937 H 1542.34 -0.865109 5.81197 0
M  V30 15938 H 1543.87 -1.79724 5.83551 0
M  V30 15939 H 1545.28 0.470924 5.71363 0
M  V30 15940 H 1543.68 1.24648 5.87012 0
M  V30 15941 H 1544.75 1.71378 4.53605 0
M  V30 15942 N 1546.09 -1.52004 0.416254 0
M  V30 15943 C 1547.34 -2.02188 -0.157434 0
M  V30 15944 C 1547.67 -1.30097 -1.44182 0
M  V30 15945 O 1546.95 -0.409426 -1.90142 0
M  V30 15946 C 1547.23 -3.57896 -0.397847 0
M  V30 15947 C 1547.08 -4.40628 0.903715 0
M  V30 15948 C 1548.4 -4.24072 -1.17689 0
M  V30 15949 H 1545.52 -0.734889 -0.0557437 0
M  V30 15950 H 1548.16 -1.81831 0.551118 0
M  V30 15951 H 1546.31 -3.75372 -1.00142 0
M  V30 15952 H 1547.98 -4.34848 1.53964 0
M  V30 15953 H 1546.23 -4.06556 1.5131 0
M  V30 15954 H 1546.9 -5.47673 0.689802 0
M  V30 15955 H 1549.37 -4.10738 -0.665832 0
M  V30 15956 H 1548.25 -5.32944 -1.31386 0
M  V30 15957 H 1548.51 -3.83507 -2.19942 0
M  V30 15958 N 1547.57 -0.146903 -1.56914 0
M  V30 15959 C 1548.52 0.792821 -2.16756 0
M  V30 15960 C 1549.49 1.2442 -1.1004 0
M  V30 15961 O 1550.67 1.31674 -1.38081 0
M  V30 15962 C 1547.81 2.02659 -2.79327 0
M  V30 15963 C 1546.93 1.62102 -4.00433 0
M  V30 15964 C 1546.06 2.80658 -4.51004 0
M  V30 15965 C 1545.1 2.36474 -5.64576 0
M  V30 15966 N 1544.24 3.48038 -6.09766 0
M  V30 15967 H 1549.08 0.275708 -2.96722 0
M  V30 15968 H 1546.61 0.124374 -1.46573 0
M  V30 15969 H 1548.57 2.74986 -3.13749 0
M  V30 15970 H 1547.2 2.51781 -2.02005 0
M  V30 15971 H 1546.25 0.795407 -3.71991 0
M  V30 15972 H 1547.57 1.25652 -4.82714 0
M  V30 15973 H 1546.72 3.61175 -4.87481 0
M  V30 15974 H 1545.46 3.20353 -3.6773 0
M  V30 15975 H 1544.46 1.54397 -5.27676 0
M  V30 15976 H 1545.69 1.97865 -6.49635 0
M  V30 15977 H 1543.63 3.87354 -5.29427 0
M  V30 15978 H 1543.55 3.15602 -6.86972 0
M  V30 15979 H 1544.82 4.28912 -6.50887 0
M  V30 15980 N 1549.05 1.57088 0.126881 0
M  V30 15981 C 1550.3 1.83624 0.834582 0
M  V30 15982 C 1550.61 0.731331 1.81414 0
M  V30 15983 O 1551.82 0.88286 2.56745 0
M  V30 15984 C 1550.27 3.25529 1.5349 0
M  V30 15985 C 1549.88 4.44008 0.59673 0
M  V30 15986 C 1551.62 3.6132 2.22819 0
M  V30 15987 C 1549.53 5.76939 1.29982 0
M  V30 15988 H 1548.46 0.684858 0.315414 0
M  V30 15989 H 1551.11 1.83292 0.087305 0
M  V30 15990 H 1549.49 3.20306 2.32852 0
M  V30 15991 H 1550.67 4.60511 -0.163109 0
M  V30 15992 H 1548.98 4.16399 0.0108081 0
M  V30 15993 H 1551.58 4.57902 2.76098 0
M  V30 15994 H 1551.92 2.88363 3.00254 0
M  V30 15995 H 1552.46 3.68291 1.50354 0
M  V30 15996 H 1549.2 6.53044 0.566925 0
M  V30 15997 H 1548.72 5.64336 2.03187 0
M  V30 15998 H 1550.39 6.20427 1.8352 0
M  V30 15999 N 1550.53 -0.396836 1.52522 0
M  V30 16000 C 1551.78 -1.13978 1.66409 0
M  V30 16001 C 1552.09 -1.91333 0.406326 0
M  V30 16002 O 1553.29 -2.6815 0.425195 0
M  V30 16003 C 1551.75 -2.07512 2.94052 0
M  V30 16004 C 1551.36 -1.35616 4.2698 0
M  V30 16005 C 1553.1 -2.8199 3.17304 0
M  V30 16006 C 1551.01 -2.2787 5.45737 0
M  V30 16007 H 1549.94 -0.429181 0.619935 0
M  V30 16008 H 1552.59 -0.403207 1.79015 0
M  V30 16009 H 1550.97 -2.84773 2.75174 0
M  V30 16010 H 1552.15 -0.636349 4.56385 0
M  V30 16011 H 1550.46 -0.731297 4.09928 0
M  V30 16012 H 1553.06 -3.5118 4.03208 0
M  V30 16013 H 1553.4 -3.45629 2.32048 0
M  V30 16014 H 1553.93 -2.11824 3.36712 0
M  V30 16015 H 1550.67 -1.68858 6.33378 0
M  V30 16016 H 1550.19 -2.97789 5.20655 0
M  V30 16017 H 1551.87 -2.88126 5.79303 0
M  V30 16018 N 1552.01 -1.43353 -0.654814 0
M  V30 16019 C 1553.23 -1.48536 -1.44748 0
M  V30 16020 C 1553.66 -0.103991 -1.87812 0
M  V30 16021 O 1553.01 0.901924 -1.57274 0
M  V30 16022 C 1553.06 -2.43498 -2.65972 0
M  V30 16023 O 1552.17 -1.92014 -3.64972 0
M  V30 16024 H 1551.51 -0.502476 -0.434067 0
M  V30 16025 H 1554.04 -1.88251 -0.801427 0
M  V30 16026 H 1554.05 -2.60748 -3.13806 0
M  V30 16027 H 1552.72 -3.43847 -2.3397 0
M  V30 16028 H 1551.3 -1.84417 -3.24106 0
M  V30 16029 N 1553.48 0.89303 -1.29857 0
M  V30 16030 C 1554.45 1.97944 -1.15546 0
M  V30 16031 C 1555.45 1.60554 -0.088989 0
M  V30 16032 O 1556.64 1.7092 -0.336464 0
M  V30 16033 C 1553.77 3.32126 -0.768442 0
M  V30 16034 H 1554.96 2.12067 -2.12055 0
M  V30 16035 H 1552.51 1.0784 -1.13138 0
M  V30 16036 H 1553.25 3.23704 0.196504 0
M  V30 16037 H 1553.03 3.60631 -1.53907 0
M  V30 16038 H 1554.52 4.11834 -0.691559 0
M  V30 16039 N 1554.96 1.12442 1.10429 0
M  V30 16040 C 1555.89 0.814745 2.18824 0
M  V30 16041 C 1556.87 -0.221476 1.68652 0
M  V30 16042 O 1558.06 -0.0826537 1.94024 0
M  V30 16043 C 1555.19 0.268632 3.4626 0
M  V30 16044 C 1554.14 1.23792 4.09707 0
M  V30 16045 C 1553.47 0.552034 5.31843 0
M  V30 16046 C 1554.77 2.5926 4.53411 0
M  V30 16047 H 1556.46 1.72111 2.44986 0
M  V30 16048 H 1554.01 0.828968 1.17746 0
M  V30 16049 H 1555.96 0.0397207 4.21381 0
M  V30 16050 H 1554.68 -0.673079 3.19589 0
M  V30 16051 H 1553.34 1.45264 3.36592 0
M  V30 16052 H 1552.99 -0.394821 5.01448 0
M  V30 16053 H 1552.69 1.19861 5.75245 0
M  V30 16054 H 1554.22 0.332161 6.09696 0
M  V30 16055 H 1555.63 2.41816 5.19806 0
M  V30 16056 H 1554.03 3.19997 5.07663 0
M  V30 16057 H 1555.1 3.17699 3.66327 0
M  V30 16058 N 1556.44 -1.28223 0.91633 0
M  V30 16059 C 1557.69 -1.95153 0.551639 0
M  V30 16060 C 1558.02 -1.71938 -0.902829 0
M  V30 16061 O 1557.29 -1.04184 -1.64243 0
M  V30 16062 C 1557.58 -3.49565 0.864647 0
M  V30 16063 C 1557.43 -3.82171 2.37203 0
M  V30 16064 C 1558.75 -4.38604 0.362593 0
M  V30 16065 H 1555.87 -0.708808 0.20189 0
M  V30 16066 H 1558.51 -1.51545 1.14604 0
M  V30 16067 H 1556.66 -3.8684 0.358782 0
M  V30 16068 H 1558.33 -3.54751 2.94872 0
M  V30 16069 H 1556.57 -3.29124 2.82595 0
M  V30 16070 H 1557.25 -4.90007 2.54159 0
M  V30 16071 H 1559.72 -4.08416 0.795983 0
M  V30 16072 H 1558.6 -5.45493 0.61066 0
M  V30 16073 H 1558.86 -4.35911 -0.737137 0
M  V30 16074 N 1557.92 -0.68059 -1.42147 0
M  V30 16075 C 1559.17 -0.202445 -2.00681 0
M  V30 16076 C 1559.48 1.19997 -1.54467 0
M  V30 16077 O 1560.69 1.77479 -2.05459 0
M  V30 16078 C 1559.14 -0.311064 -3.58553 0
M  V30 16079 C 1558.75 -1.7179 -4.13754 0
M  V30 16080 C 1560.49 0.108072 -4.24362 0
M  V30 16081 C 1558.4 -1.77897 -5.64009 0
M  V30 16082 H 1557.33 -0.0719266 -0.750561 0
M  V30 16083 H 1559.98 -0.846614 -1.62803 0
M  V30 16084 H 1558.36 0.401098 -3.93963 0
M  V30 16085 H 1559.54 -2.45761 -3.89793 0
M  V30 16086 H 1557.85 -2.08539 -3.60417 0
M  V30 16087 H 1560.45 0.0826684 -5.34636 0
M  V30 16088 H 1560.79 1.14431 -4.00264 0
M  V30 16089 H 1561.33 -0.553285 -3.93933 0
M  V30 16090 H 1558.06 -2.79523 -5.92914 0
M  V30 16091 H 1557.58 -1.0829 -5.89944 0
M  V30 16092 H 1559.26 -1.53504 -6.28527 0
M  V30 16093 N 1559.4 1.51781 -0.424309 0
M  V30 16094 C 1560.64 2.02269 0.146709 0
M  V30 16095 C 1560.97 1.30859 1.4349 0
M  V30 16096 O 1560.25 0.419504 1.89922 0
M  V30 16097 C 1560.53 3.58101 0.378861 0
M  V30 16098 C 1560.39 4.40143 -0.92707 0
M  V30 16099 C 1561.7 4.2469 1.15438 0
M  V30 16100 H 1558.82 0.735174 0.0518456 0
M  V30 16101 H 1561.47 1.81537 -0.560753 0
M  V30 16102 H 1559.62 3.75897 0.981496 0
M  V30 16103 H 1561.29 4.34025 -1.56268 0
M  V30 16104 H 1559.53 4.05748 -1.53464 0
M  V30 16105 H 1560.2 5.47299 -0.718837 0
M  V30 16106 H 1562.68 4.11086 0.644041 0
M  V30 16107 H 1561.55 5.33633 1.28557 0
M  V30 16108 H 1561.81 3.84668 2.17905 0
M  V30 16109 N 1560.87 0.155222 1.56834 0
M  V30 16110 C 1562.12 -0.494557 1.96677 0
M  V30 16111 C 1562.45 -1.63973 1.04051 0
M  V30 16112 O 1561.73 -1.94316 0.0844791 0
M  V30 16113 C 1562.01 -0.992902 3.46141 0
M  V30 16114 C 1561.86 0.151335 4.49545 0
M  V30 16115 C 1563.18 -1.87197 3.98303 0
M  V30 16116 H 1560.3 -0.178298 0.715107 0
M  V30 16117 H 1562.94 0.23811 1.88502 0
M  V30 16118 H 1561.09 -1.61724 3.53239 0
M  V30 16119 H 1562.77 0.787945 4.54521 0
M  V30 16120 H 1561.01 0.809262 4.26185 0
M  V30 16121 H 1561.68 -0.23921 5.51481 0
M  V30 16122 H 1564.16 -1.34578 3.93736 0
M  V30 16123 H 1563.03 -2.18972 5.03331 0
M  V30 16124 H 1563.29 -2.81191 3.41151 0
M  V30 16125 N 1562.35 -1.57153 -0.118549 0
M  V30 16126 C 1563.77 -1.52458 -0.472096 0
M  V30 16127 C 1563.97 -0.868289 -1.81832 0
M  V30 16128 O 1563.02 -0.450817 -2.48443 0
M  V30 16129 C 1564.34 -2.9722 -0.456175 0
M  V30 16130 C 1565.88 -3.08312 -0.539694 0
M  V30 16131 C 1566.36 -4.54635 -0.554158 0
M  V30 16132 N 1567.85 -4.59091 -0.615584 0
M  V30 16133 C 1568.59 -5.69724 -0.64823 0
M  V30 16134 N 1568.08 -6.89852 -0.638494 0
M  V30 16135 N 1569.87 -5.57833 -0.691272 0
M  V30 16136 H 1562.03 -1.98202 0.76353 0
M  V30 16137 H 1564.29 -0.905179 0.281699 0
M  V30 16138 H 1563.99 -3.48608 0.465364 0
M  V30 16139 H 1563.87 -3.5468 -1.28381 0
M  V30 16140 H 1566.26 -2.56926 -1.45165 0
M  V30 16141 H 1566.34 -2.53845 0.315638 0
M  V30 16142 H 1565.98 -5.06667 0.353759 0
M  V30 16143 H 1565.91 -5.06914 -1.42638 0
M  V30 16144 H 1568.4 -3.72624 -0.629253 0
M  V30 16145 H 1568.71 -7.69925 -0.66604 0
M  V30 16146 H 1567.06 -6.92354 -0.605912 0
M  V30 16147 H 1570.25 -4.62893 -0.696244 0
M  V30 16148 H 1570.42 -6.44063 -0.713246 0
M  V30 16149 N 1563.83 0.388742 -1.5273 0
M  V30 16150 C 1564.78 1.49531 -1.78166 0
M  V30 16151 C 1565.77 1.56449 -0.649613 0
M  V30 16152 O 1566.98 1.59612 -0.832097 0
M  V30 16153 H 1563.35 0.497684 -0.56375 0
M  V30 16154 H 1565.32 1.25271 -2.70831 0
M  V30 16155 C 1564.07 2.86663 -1.96774 0
M  V30 16156 H 1563.4 2.82089 -2.83312 0
M  V30 16157 H 1564.84 3.63328 -2.18561 0
M  V30 16158 C 1563.29 3.28665 -0.740345 0
M  V30 16159 O 1563.82 4.01616 0.0821005 0
M  V30 16160 N 1562.03 2.84947 -0.570383 0
M  V30 16161 H 1561.58 2.25748 -1.24078 0
M  V30 16162 H 1561.54 3.13408 0.249496 0
M  V30 16163 N 1565.31 1.43698 0.647203 0
M  V30 16164 C 1566.26 1.45765 1.75318 0
M  V30 16165 C 1567.24 0.32536 1.57576 0
M  V30 16166 O 1568.43 0.569564 1.67586 0
M  V30 16167 C 1565.56 1.38923 3.13935 0
M  V30 16168 C 1564.65 2.57205 3.37204 0
M  V30 16169 N 1565.04 3.82529 3.30916 0
M  V30 16170 C 1563.34 2.52057 3.67944 0
M  V30 16171 C 1564.04 4.61252 3.54431 0
M  V30 16172 N 1563.01 3.92076 3.76534 0
M  V30 16173 H 1566.82 2.40527 1.6889 0
M  V30 16174 H 1564.33 1.38435 0.849093 0
M  V30 16175 H 1566.33 1.38487 3.93226 0
M  V30 16176 H 1564.99 0.451864 3.2154 0
M  V30 16177 H 1566 4.1473 3.10192 0
M  V30 16178 H 1562.68 1.67038 3.82628 0
M  V30 16179 H 1564.07 5.70275 3.55297 0
M  V30 16180 N 1566.79 -0.886131 1.30328 0
M  V30 16181 C 1568.06 -1.61912 1.09744 0
M  V30 16182 C 1568.44 -2.08116 -0.353663 0
M  V30 16183 O 1567.79 -1.84725 -1.34495 0
M  V30 16184 C 1568 -2.78954 2.09727 0
M  V30 16185 C 1569.35 -3.49313 2.41382 0
M  V30 16186 O 1570.37 -2.89141 2.08028 0
M  V30 16187 O 1569.23 -4.57823 2.98431 0
M  V30 16188 H 1566.33 -0.71158 0.421406 0
M  V30 16189 H 1568.87 -0.933009 1.4175 0
M  V30 16190 H 1567.64 -2.42109 3.07407 0
M  V30 16191 H 1567.27 -3.55263 1.78532 0
M  V30 16192 N 1568.26 -1.13026 -1.09832 0
M  V30 16193 C 1569.54 -0.800667 -1.78462 0
M  V30 16194 C 1569.92 0.708508 -1.98855 0
M  V30 16195 O 1569.27 1.64436 -1.58661 0
M  V30 16196 C 1569.48 -1.58284 -3.11042 0
M  V30 16197 C 1570.83 -1.77285 -3.85818 0
M  V30 16198 O 1571.85 -1.54848 -3.20781 0
M  V30 16199 O 1570.71 -2.14693 -5.02563 0
M  V30 16200 H 1567.8 -0.291895 -0.773774 0
M  V30 16201 H 1570.35 -1.23464 -1.16425 0
M  V30 16202 H 1569.12 -2.60867 -2.91657 0
M  V30 16203 H 1568.75 -1.14353 -3.80801 0
M  V30 16204 N 1569.74 1.27735 -0.923117 0
M  V30 16205 C 1570.67 2.29395 -0.435907 0
M  V30 16206 C 1571.65 1.62542 0.501403 0
M  V30 16207 O 1572.84 1.89884 0.407135 0
M  V30 16208 C 1569.97 3.45856 0.316348 0
M  V30 16209 C 1568.92 4.24672 -0.532697 0
M  V30 16210 C 1568.25 5.33563 0.348454 0
M  V30 16211 C 1569.55 4.90494 -1.79481 0
M  V30 16212 H 1571.24 2.70398 -1.28551 0
M  V30 16213 H 1568.79 1.29989 -0.619581 0
M  V30 16214 H 1570.74 4.1607 0.668098 0
M  V30 16215 H 1569.47 3.03758 1.19994 0
M  V30 16216 H 1568.12 3.56198 -0.867093 0
M  V30 16217 H 1567.77 4.87708 1.23086 0
M  V30 16218 H 1567.47 5.87202 -0.216104 0
M  V30 16219 H 1569 6.06622 0.695878 0
M  V30 16220 H 1570.41 5.53019 -1.5114 0
M  V30 16221 H 1568.81 5.5417 -2.30251 0
M  V30 16222 H 1569.88 4.14454 -2.51707 0
M  V30 16223 N 1571.22 0.688118 1.41784 0
M  V30 16224 C 1572.47 0.213085 2.00571 0
M  V30 16225 C 1572.78 -1.19176 1.55101 0
M  V30 16226 O 1573.99 -1.76387 2.06397 0
M  V30 16227 C 1572.44 0.330075 3.58383 0
M  V30 16228 C 1572.05 1.73981 4.12837 0
M  V30 16229 C 1573.8 -0.0855651 4.24414 0
M  V30 16230 C 1571.7 1.80886 5.63058 0
M  V30 16231 H 1570.63 0.075906 0.750169 0
M  V30 16232 H 1573.28 0.855236 1.62351 0
M  V30 16233 H 1571.67 -0.380199 3.94171 0
M  V30 16234 H 1572.84 2.47825 3.88484 0
M  V30 16235 H 1571.16 2.10447 3.59306 0
M  V30 16236 H 1573.75 -0.0543142 5.34672 0
M  V30 16237 H 1574.1 -1.12307 4.00865 0
M  V30 16238 H 1574.63 0.574169 3.93635 0
M  V30 16239 H 1571.37 2.82663 5.91424 0
M  V30 16240 H 1570.89 1.11417 5.89361 0
M  V30 16241 H 1572.57 1.56835 6.27704 0
M  V30 16242 N 1572.7 -1.51554 0.432352 0
M  V30 16243 C 1573.93 -2.06462 -0.1346 0
M  V30 16244 C 1574.34 -1.30027 -1.36889 0
M  V30 16245 O 1573.7 -0.358447 -1.78945 0
M  V30 16246 C 1573.75 -3.58538 -0.461822 0
M  V30 16247 O 1573.47 -4.32085 0.723471 0
M  V30 16248 C 1574.97 -4.29943 -1.07999 0
M  V30 16249 H 1572.19 -0.670923 -0.0101329 0
M  V30 16250 H 1574.74 -1.9519 0.609999 0
M  V30 16251 H 1572.89 -3.6974 -1.15632 0
M  V30 16252 H 1573.3 -5.22611 0.444757 0
M  V30 16253 H 1574.78 -5.37451 -1.25898 0
M  V30 16254 H 1575.26 -3.87912 -2.05963 0
M  V30 16255 H 1575.86 -4.23171 -0.425022 0
M  V30 16256 N 1574.18 -0.163538 -1.56749 0
M  V30 16257 C 1575.42 0.48412 -1.96937 0
M  V30 16258 C 1575.76 1.63418 -1.04919 0
M  V30 16259 O 1575.03 1.94269 -0.094783 0
M  V30 16260 C 1575.31 0.974532 -3.46663 0
M  V30 16261 C 1575.17 -0.175173 -4.49459 0
M  V30 16262 C 1576.49 1.85082 -3.9929 0
M  V30 16263 H 1573.6 0.174503 -0.716043 0
M  V30 16264 H 1576.25 -0.248103 -1.88373 0
M  V30 16265 H 1574.4 1.59849 -3.54091 0
M  V30 16266 H 1576.07 -0.812038 -4.54096 0
M  V30 16267 H 1574.31 -0.831853 -4.2575 0
M  V30 16268 H 1574.98 0.20996 -5.51601 0
M  V30 16269 H 1577.46 1.32488 -3.94444 0
M  V30 16270 H 1576.33 2.163 -5.04485 0
M  V30 16271 H 1576.6 2.79378 -3.42638 0
M  V30 16272 N 1575.65 1.57214 0.110213 0
M  V30 16273 C 1576.88 1.89505 0.830391 0
M  V30 16274 C 1577.3 0.755702 1.73016 0
M  V30 16275 O 1576.65 -0.273072 1.80445 0
M  V30 16276 C 1576.71 3.21316 1.65646 0
M  V30 16277 O 1576.43 4.30865 0.7929 0
M  V30 16278 C 1577.93 3.67369 2.48102 0
M  V30 16279 H 1575.15 0.627277 0.238252 0
M  V30 16280 H 1577.69 2.04293 0.0919716 0
M  V30 16281 H 1575.85 3.08171 2.34754 0
M  V30 16282 H 1576.26 5.06466 1.36353 0
M  V30 16283 H 1577.73 4.62335 3.0158 0
M  V30 16284 H 1578.21 2.94459 3.25869 0
M  V30 16285 H 1578.82 3.83331 1.8422 0
M  V30 16286 N 1577.13 -0.380637 1.52934 0
M  V30 16287 C 1578.1 -1.44819 1.77652 0
M  V30 16288 C 1579.1 -1.47224 0.646657 0
M  V30 16289 O 1580.29 -1.48248 0.91477 0
M  V30 16290 C 1577.42 -2.8405 1.8849 0
M  V30 16291 H 1578.61 -1.24183 2.72981 0
M  V30 16292 H 1576.16 -0.61288 1.43783 0
M  V30 16293 H 1576.9 -3.1002 0.951751 0
M  V30 16294 H 1576.68 -2.83704 2.70655 0
M  V30 16295 H 1578.17 -3.61388 2.09257 0
M  V30 16296 N 1578.61 -1.44039 -0.639573 0
M  V30 16297 C 1579.84 -1.49844 -1.42669 0
M  V30 16298 C 1580.25 -0.120599 -1.88414 0
M  V30 16299 O 1579.61 0.871875 -1.60327 0
M  V30 16300 C 1579.66 -2.45597 -2.65263 0
M  V30 16301 O 1579.38 -3.78023 -2.21427 0
M  V30 16302 C 1580.88 -2.60781 -3.5848 0
M  V30 16303 H 1578.1 -0.508477 -0.437826 0
M  V30 16304 H 1580.65 -1.88919 -0.782923 0
M  V30 16305 H 1578.8 -2.09679 -3.2575 0
M  V30 16306 H 1579.22 -4.29642 -3.00846 0
M  V30 16307 H 1580.69 -3.31826 -4.4113 0
M  V30 16308 H 1581.17 -1.65727 -4.06732 0
M  V30 16309 H 1581.77 -2.97565 -3.03867 0
M  V30 16310 N 1580.09 0.879207 -1.30796 0
M  V30 16311 C 1581.02 2.00158 -1.20246 0
M  V30 16312 C 1582 1.69852 -0.091769 0
M  V30 16313 O 1583.18 1.92246 -0.274792 0
M  V30 16314 C 1580.31 3.3545 -0.899472 0
M  V30 16315 C 1579.27 3.80033 -1.96873 0
M  V30 16316 C 1578.59 5.12681 -1.51861 0
M  V30 16317 C 1579.89 3.98136 -3.38061 0
M  V30 16318 H 1581.59 2.09242 -2.14145 0
M  V30 16319 H 1579.13 1.00535 -1.03096 0
M  V30 16320 H 1581.09 4.13497 -0.812299 0
M  V30 16321 H 1579.81 3.26513 0.075189 0
M  V30 16322 H 1578.47 3.04219 -2.04564 0
M  V30 16323 H 1578.12 5.00178 -0.532063 0
M  V30 16324 H 1577.82 5.43482 -2.23386 0
M  V30 16325 H 1579.34 5.93247 -1.44534 0
M  V30 16326 H 1580.76 4.66604 -3.33096 0
M  V30 16327 H 1579.15 4.40321 -4.07722 0
M  V30 16328 H 1580.22 3.01807 -3.79526 0
M  V30 16329 N 1581.57 1.13606 1.09231 0
M  V30 16330 C 1582.53 0.818197 2.14099 0
M  V30 16331 C 1583.53 -0.173275 1.59864 0
M  V30 16332 O 1584.72 0.05405 1.74116 0
M  V30 16333 C 1581.85 0.218138 3.40201 0
M  V30 16334 H 1583.05 1.74748 2.43727 0
M  V30 16335 H 1580.6 0.940962 1.24802 0
M  V30 16336 H 1581.33 -0.720269 3.162 0
M  V30 16337 H 1581.12 0.932156 3.80859 0
M  V30 16338 H 1582.61 0.0126639 4.17598 0
M  V30 16339 N 1583.05 -1.27244 0.929878 0
M  V30 16340 C 1583.98 -2.29161 0.448066 0
M  V30 16341 C 1584.96 -1.62806 -0.492776 0
M  V30 16342 O 1586.14 -1.90098 -0.39706 0
M  V30 16343 C 1583.27 -3.46019 -0.298002 0
M  V30 16344 C 1582.23 -4.24384 0.555211 0
M  V30 16345 C 1581.55 -5.33741 -0.320153 0
M  V30 16346 C 1582.85 -4.89535 1.8208 0
M  V30 16347 H 1584.55 -2.69712 1.29983 0
M  V30 16348 H 1582.09 -1.29659 0.626466 0
M  V30 16349 H 1584.04 -4.16419 -0.646024 0
M  V30 16350 H 1582.77 -3.0439 -1.18381 0
M  V30 16351 H 1581.43 -3.55733 0.885971 0
M  V30 16352 H 1581.08 -4.88354 -1.20498 0
M  V30 16353 H 1580.78 -5.8708 0.247241 0
M  V30 16354 H 1582.3 -6.06982 -0.663697 0
M  V30 16355 H 1583.71 -5.52209 1.54071 0
M  V30 16356 H 1582.11 -5.52941 2.33186 0
M  V30 16357 H 1583.18 -4.13113 2.53901 0
M  V30 16358 N 1584.52 -0.695628 -1.41417 0
M  V30 16359 C 1585.77 -0.223719 -2.00455 0
M  V30 16360 C 1586.09 1.18352 -1.55731 0
M  V30 16361 O 1587.29 1.7529 -2.0733 0
M  V30 16362 C 1585.75 -0.349076 -3.58203 0
M  V30 16363 C 1585.36 -1.76168 -4.11909 0
M  V30 16364 C 1587.1 0.0630563 -4.24453 0
M  V30 16365 C 1585.01 -1.83869 -5.62091 0
M  V30 16366 H 1583.94 -0.0798833 -0.749756 0
M  V30 16367 H 1586.59 -0.863834 -1.61896 0
M  V30 16368 H 1584.97 0.35929 -3.94367 0
M  V30 16369 H 1586.14 -2.49881 -3.87164 0
M  V30 16370 H 1584.46 -2.1235 -3.58185 0
M  V30 16371 H 1587.06 0.0259584 -5.34694 0
M  V30 16372 H 1587.4 1.10179 -4.01455 0
M  V30 16373 H 1587.93 -0.595036 -3.93324 0
M  V30 16374 H 1584.67 -2.85796 -5.89916 0
M  V30 16375 H 1584.19 -1.14541 -5.88762 0
M  V30 16376 H 1585.87 -1.60161 -6.26863 0
M  V30 16377 N 1586 1.51322 -0.440383 0
M  V30 16378 C 1587.25 2.01714 0.124815 0
M  V30 16379 C 1587.57 1.32634 1.42945 0
M  V30 16380 O 1586.84 0.461849 1.90378 0
M  V30 16381 H 1585.42 0.745384 0.049116 0
M  V30 16382 H 1588.08 1.85951 -0.583787 0
M  V30 16383 H 1587.18 3.10669 0.29853 0
M  V30 16384 N 1587.48 0.171848 1.5666 0
M  V30 16385 C 1588.72 -0.475418 1.98794 0
M  V30 16386 C 1589.08 -1.60384 1.0555 0
M  V30 16387 O 1590.28 -2.3137 1.36827 0
M  V30 16388 C 1588.56 -0.945518 3.44666 0
M  V30 16389 S 1590.11 -1.59389 4.08828 0
M  V30 16390 H 1586.93 -0.1529 0.694365 0
M  V30 16391 H 1589.53 0.269434 1.93634 0
M  V30 16392 H 1588.24 -0.113839 4.10242 0
M  V30 16393 H 1587.77 -1.7244 3.53593 0
M  V30 16394 H 1589.78 -2.88205 4.03921 0
M  V30 16395 N 1588.96 -1.5727 -0.101874 0
M  V30 16396 C 1590.19 -1.89943 -0.820329 0
M  V30 16397 C 1590.6 -0.764867 -1.72613 0
M  V30 16398 O 1589.96 0.263499 -1.80588 0
M  V30 16399 C 1590.01 -3.2219 -1.63939 0
M  V30 16400 O 1589.73 -4.31279 -0.770039 0
M  V30 16401 C 1591.23 -3.6868 -2.46151 0
M  V30 16402 H 1588.45 -0.628532 -0.234922 0
M  V30 16403 H 1590.99 -2.04339 -0.0811362 0
M  V30 16404 H 1589.15 -3.09411 -2.33117 0
M  V30 16405 H 1589.56 -5.07182 -1.33665 0
M  V30 16406 H 1591.04 -4.63928 -2.99124 0
M  V30 16407 H 1591.51 -2.96183 -3.24303 0
M  V30 16408 H 1592.12 -3.84303 -1.82185 0
M  V30 16409 N 1590.44 0.372521 -1.53134 0
M  V30 16410 C 1591.66 1.14116 -1.73183 0
M  V30 16411 C 1592.09 1.82475 -0.456553 0
M  V30 16412 O 1591.44 1.71468 0.588919 0
M  V30 16413 C 1591.49 2.15241 -2.89316 0
M  V30 16414 O 1590.6 3.22178 -2.57439 0
M  V30 16415 H 1589.94 0.331442 -0.575362 0
M  V30 16416 H 1592.47 0.431769 -1.99992 0
M  V30 16417 H 1592.48 2.58961 -3.15283 0
M  V30 16418 H 1591.15 1.64877 -3.81822 0
M  V30 16419 H 1589.73 2.83481 -2.42267 0
M  V30 16420 N 1591.91 1.44376 0.631925 0
M  V30 16421 C 1593.14 1.5082 1.42366 0
M  V30 16422 C 1593.56 0.133858 1.87623 0
M  V30 16423 O 1592.92 -0.876789 1.58689 0
M  V30 16424 C 1592.97 2.47698 2.62065 0
M  V30 16425 O 1592.07 1.97796 3.61871 0
M  V30 16426 H 1591.41 0.509318 0.426018 0
M  V30 16427 H 1593.94 1.89502 0.771376 0
M  V30 16428 H 1593.95 2.65708 3.09618 0
M  V30 16429 H 1592.63 3.47526 2.2847 0
M  V30 16430 H 1591.21 1.89549 3.21131 0
M  V30 16431 N 1593.39 -0.872258 1.31261 0
M  V30 16432 C 1594.8 -1.44077 1.18738 0
M  V30 16433 C 1595.15 -1.95105 -0.207037 0
M  V30 16434 O 1594.28 -1.86083 -1.10464 0
M  V30 16435 C 1594.87 -2.61884 2.14947 0
M  V30 16436 C 1593.43 -3.14787 2.06364 0
M  V30 16437 C 1592.58 -1.87495 2.04306 0
M  V30 16438 H 1595.53 -0.681011 1.43345 0
M  V30 16439 H 1595.55 -3.38501 1.73773 0
M  V30 16440 H 1595.06 -2.24715 3.16425 0
M  V30 16441 H 1593.16 -3.56582 1.08073 0
M  V30 16442 H 1593.28 -3.77225 2.95361 0
M  V30 16443 H 1591.64 -2.06361 1.49288 0
M  V30 16444 H 1592.42 -1.52566 3.07536 0
M  V30 16445 N 1594.87 -1.14184 -1.08627 0
M  V30 16446 C 1596.12 -0.919966 -1.81406 0
M  V30 16447 C 1596.47 0.547709 -1.84439 0
M  V30 16448 O 1595.76 1.40044 -1.30761 0
M  V30 16449 C 1595.96 -1.4519 -3.2658 0
M  V30 16450 C 1595.79 -2.96977 -3.37691 0
M  V30 16451 C 1594.56 -3.65402 -3.49012 0
M  V30 16452 C 1596.75 -3.94858 -3.29532 0
M  V30 16453 N 1594.74 -5.05122 -3.48891 0
M  V30 16454 C 1596.11 -5.20818 -3.36376 0
M  V30 16455 C 1598.16 -3.87009 -3.13254 0
M  V30 16456 C 1596.87 -6.39846 -3.28618 0
M  V30 16457 C 1598.89 -5.05581 -3.06825 0
M  V30 16458 C 1598.25 -6.30408 -3.14269 0
M  V30 16459 H 1594.35 -0.390144 -0.677725 0
M  V30 16460 H 1596.94 -1.45155 -1.29761 0
M  V30 16461 H 1595.11 -0.947121 -3.76675 0
M  V30 16462 H 1596.84 -1.17018 -3.87413 0
M  V30 16463 H 1593.59 -3.15948 -3.52809 0
M  V30 16464 H 1594.02 -5.78056 -3.52392 0
M  V30 16465 H 1598.66 -2.91379 -3.06363 0
M  V30 16466 H 1596.38 -7.35723 -3.34271 0
M  V30 16467 H 1599.96 -5.01256 -2.95354 0
M  V30 16468 H 1598.84 -7.20618 -3.09321 0
M  V30 16469 N 1596.35 1.26749 -0.936613 0
M  V30 16470 C 1597.76 1.46284 -0.638218 0
M  V30 16471 C 1597.96 1.84509 0.80986 0
M  V30 16472 O 1597.02 1.96399 1.58693 0
M  V30 16473 C 1598.33 2.54867 -1.59573 0
M  V30 16474 C 1599.88 2.68721 -1.60493 0
M  V30 16475 C 1600.36 3.80471 -2.54963 0
M  V30 16476 N 1601.85 3.87857 -2.53221 0
M  V30 16477 C 1602.58 4.73767 -3.23005 0
M  V30 16478 N 1602.08 5.641 -4.02198 0
M  V30 16479 N 1603.87 4.67574 -3.11979 0
M  V30 16480 H 1596.02 1.00224 -1.87267 0
M  V30 16481 H 1598.29 0.501478 -0.804502 0
M  V30 16482 H 1597.99 2.33594 -2.62919 0
M  V30 16483 H 1597.87 3.52433 -1.34427 0
M  V30 16484 H 1600.25 2.8937 -0.578729 0
M  V30 16485 H 1600.33 1.71613 -1.89691 0
M  V30 16486 H 1599.98 3.60575 -3.57698 0
M  V30 16487 H 1599.91 4.77026 -2.23056 0
M  V30 16488 H 1602.4 3.23272 -1.95714 0
M  V30 16489 H 1602.71 6.26535 -4.52409 0
M  V30 16490 H 1601.06 5.63866 -4.063 0
M  V30 16491 H 1604.25 3.96004 -2.49596 0
M  V30 16492 H 1604.42 5.34308 -3.66633 0
M  V30 16493 N 1597.83 0.703118 1.41046 0
M  V30 16494 C 1599.07 0.246419 2.01902 0
M  V30 16495 C 1599.43 -1.14368 1.54719 0
M  V30 16496 O 1598.72 -1.76232 0.751848 0
M  V30 16497 C 1598.91 0.251575 3.56513 0
M  V30 16498 C 1598.74 1.64063 4.18704 0
M  V30 16499 C 1597.51 2.2453 4.52675 0
M  V30 16500 C 1599.71 2.58863 4.44404 0
M  V30 16501 N 1597.69 3.55922 5.00193 0
M  V30 16502 C 1599.06 3.74943 4.93779 0
M  V30 16503 C 1601.12 2.57033 4.26425 0
M  V30 16504 C 1599.82 4.89486 5.27064 0
M  V30 16505 C 1601.85 3.70694 4.60804 0
M  V30 16506 C 1601.21 4.85505 5.10357 0
M  V30 16507 H 1597.31 0.135728 0.770131 0
M  V30 16508 H 1599.89 0.922227 1.71473 0
M  V30 16509 H 1598.06 -0.393749 3.86399 0
M  V30 16510 H 1599.8 -0.220661 4.04098 0
M  V30 16511 H 1596.55 1.76744 4.39384 0
M  V30 16512 H 1596.98 4.23292 5.28349 0
M  V30 16513 H 1601.62 1.69481 3.87345 0
M  V30 16514 H 1599.34 5.77692 5.65064 0
M  V30 16515 H 1602.92 3.70539 4.48545 0
M  V30 16516 H 1601.8 5.71998 5.36459 0
M  V30 16517 N 1599.3 -1.51086 0.448402 0
M  V30 16518 C 1600.23 -2.30896 -0.347773 0
M  V30 16519 C 1601.22 -1.36792 -1.01104 0
M  V30 16520 O 1602.4 -1.65713 -1.01257 0
M  V30 16521 C 1599.53 -3.15901 -1.44304 0
M  V30 16522 C 1598.48 -4.18373 -0.90265 0
M  V30 16523 C 1597.81 -4.9197 -2.0945 0
M  V30 16524 C 1599.11 -5.22252 0.0705335 0
M  V30 16525 H 1600.8 -2.97704 0.318273 0
M  V30 16526 H 1598.35 -1.43169 0.154509 0
M  V30 16527 H 1600.3 -3.70519 -2.00733 0
M  V30 16528 H 1599.03 -2.46935 -2.13753 0
M  V30 16529 H 1597.69 -3.64823 -0.3605 0
M  V30 16530 H 1597.33 -4.19497 -2.77545 0
M  V30 16531 H 1597.03 -5.6127 -1.73926 0
M  V30 16532 H 1598.56 -5.49415 -2.66412 0
M  V30 16533 H 1599.97 -5.71876 -0.403814 0
M  V30 16534 H 1598.37 -5.99142 0.338905 0
M  V30 16535 H 1599.44 -4.74398 1.00373 0
M  V30 16536 N 1600.78 -0.180154 -1.56567 0
M  V30 16537 C 1601.73 0.746666 -2.18389 0
M  V30 16538 C 1602.7 1.22058 -1.12655 0
M  V30 16539 O 1603.88 1.28716 -1.40843 0
M  V30 16540 C 1601.02 1.96688 -2.83563 0
M  V30 16541 C 1600.14 1.53572 -4.03782 0
M  V30 16542 C 1599.27 2.71028 -4.56856 0
M  V30 16543 C 1598.31 2.24445 -5.69465 0
M  V30 16544 N 1597.45 3.35026 -6.17011 0
M  V30 16545 H 1602.29 0.212707 -2.9724 0
M  V30 16546 H 1599.83 0.093256 -1.46804 0
M  V30 16547 H 1601.78 2.68269 -3.19511 0
M  V30 16548 H 1600.41 2.4744 -2.073 0
M  V30 16549 H 1599.47 0.716323 -3.73595 0
M  V30 16550 H 1600.78 1.15385 -4.85271 0
M  V30 16551 H 1599.93 3.50753 -4.95032 0
M  V30 16552 H 1598.67 3.1248 -3.74443 0
M  V30 16553 H 1597.68 1.43169 -5.30832 0
M  V30 16554 H 1598.9 1.84041 -6.53686 0
M  V30 16555 H 1596.85 3.76037 -5.37524 0
M  V30 16556 H 1596.76 3.0096 -6.93512 0
M  V30 16557 H 1598.03 4.15009 -6.59839 0
M  V30 16558 N 1602.26 1.57322 0.0935319 0
M  V30 16559 C 1603.19 1.98861 1.13961 0
M  V30 16560 C 1604.21 0.891385 1.36228 0
M  V30 16561 O 1605.39 1.16949 1.34853 0
M  V30 16562 C 1602.49 2.29369 2.49485 0
M  V30 16563 C 1601.67 3.6066 2.47473 0
M  V30 16564 C 1600.73 3.79087 3.64937 0
M  V30 16565 O 1599.75 4.50923 3.47357 0
M  V30 16566 N 1600.95 3.19784 4.84478 0
M  V30 16567 H 1603.72 2.89208 0.786048 0
M  V30 16568 H 1601.28 1.59416 0.282491 0
M  V30 16569 H 1603.27 2.38889 3.26671 0
M  V30 16570 H 1601.84 1.45021 2.76925 0
M  V30 16571 H 1601.06 3.62095 1.55823 0
M  V30 16572 H 1602.35 4.46908 2.43209 0
M  V30 16573 H 1601.75 2.61436 5.01665 0
M  V30 16574 H 1600.31 3.34786 5.59251 0
M  V30 16575 N 1603.74 -0.364395 1.53329 0
M  V30 16576 C 1604.69 -1.44645 1.79851 0
M  V30 16577 C 1605.66 -1.53151 0.642951 0
M  V30 16578 O 1606.84 -1.6902 0.885252 0
M  V30 16579 C 1603.98 -2.81575 1.99523 0
M  V30 16580 C 1603.09 -2.82026 3.27239 0
M  V30 16581 C 1602.23 -4.1054 3.37091 0
M  V30 16582 C 1601.27 -4.05138 4.58835 0
M  V30 16583 N 1600.4 -5.25303 4.65834 0
M  V30 16584 H 1605.24 -1.21329 2.72182 0
M  V30 16585 H 1602.78 -0.588143 1.34831 0
M  V30 16586 H 1604.74 -3.61124 2.08915 0
M  V30 16587 H 1603.37 -3.03288 1.10527 0
M  V30 16588 H 1602.42 -1.94704 3.26794 0
M  V30 16589 H 1603.73 -2.73907 4.16865 0
M  V30 16590 H 1602.89 -4.98504 3.45801 0
M  V30 16591 H 1601.63 -4.21413 2.45483 0
M  V30 16592 H 1600.63 -3.1556 4.50224 0
M  V30 16593 H 1601.86 -3.95866 5.51785 0
M  V30 16594 H 1599.8 -5.36759 3.77128 0
M  V30 16595 H 1599.72 -5.19358 5.49367 0
M  V30 16596 H 1600.99 -6.15096 4.78829 0
M  V30 16597 N 1605.22 -1.44709 -0.62426 0
M  V30 16598 C 1606.46 -1.48072 -1.38573 0
M  V30 16599 C 1606.8 -0.115532 -1.93856 0
M  V30 16600 O 1606.07 0.867787 -1.74068 0
M  V30 16601 C 1606.35 -2.54662 -2.54596 0
M  V30 16602 C 1606.21 -4.00564 -2.04618 0
M  V30 16603 C 1607.53 -2.57689 -3.56769 0
M  V30 16604 H 1604.64 -0.539119 -0.502513 0
M  V30 16605 H 1607.29 -1.76427 -0.705225 0
M  V30 16606 H 1605.44 -2.30614 -3.12649 0
M  V30 16607 H 1607.11 -4.35767 -1.51343 0
M  V30 16608 H 1605.35 -4.12014 -1.35746 0
M  V30 16609 H 1606.02 -4.70804 -2.8818 0
M  V30 16610 H 1608.5 -2.79194 -3.08529 0
M  V30 16611 H 1607.37 -3.34161 -4.35462 0
M  V30 16612 H 1607.64 -1.62146 -4.11292 0
M  V30 16613 N 1606.69 0.865285 -1.31722 0
M  V30 16614 C 1607.92 1.65661 -1.24785 0
M  V30 16615 C 1608.34 1.87208 0.182952 0
M  V30 16616 O 1607.7 1.41721 1.1307 0
M  V30 16617 C 1607.75 2.99921 -2.00199 0
M  V30 16618 O 1606.85 3.89936 -1.34253 0
M  V30 16619 H 1606.2 0.505459 -0.430589 0
M  V30 16620 H 1608.73 1.0785 -1.73867 0
M  V30 16621 H 1608.74 3.49823 -2.09971 0
M  V30 16622 H 1607.41 2.83559 -3.04249 0
M  V30 16623 H 1605.99 3.4839 -1.32961 0
M  V30 16624 N 1608.17 1.14759 1.0802 0
M  V30 16625 C 1609.1 0.795901 2.14937 0
M  V30 16626 C 1610.12 -0.189008 1.61699 0
M  V30 16627 O 1611.31 0.0332689 1.78469 0
M  V30 16628 C 1608.41 0.161388 3.38516 0
M  V30 16629 C 1607.58 1.18202 4.21126 0
M  V30 16630 C 1606.64 0.570535 5.23098 0
M  V30 16631 O 1605.66 1.2346 5.55649 0
M  V30 16632 N 1606.87 -0.650883 5.76839 0
M  V30 16633 H 1609.63 1.716 2.4571 0
M  V30 16634 H 1607.19 1.04254 1.23866 0
M  V30 16635 H 1609.18 -0.260289 4.03862 0
M  V30 16636 H 1607.75 -0.661917 3.05512 0
M  V30 16637 H 1606.97 1.78049 3.51699 0
M  V30 16638 H 1608.26 1.87135 4.73136 0
M  V30 16639 H 1607.66 -1.2089 5.52632 0
M  V30 16640 H 1606.22 -1.01501 6.43848 0
M  V30 16641 N 1609.65 -1.26251 0.943322 0
M  V30 16642 C 1610.88 -1.97452 0.607969 0
M  V30 16643 C 1611.29 -1.70422 -0.82177 0
M  V30 16644 O 1610.63 -0.970323 -1.55982 0
M  V30 16645 C 1610.69 -3.51092 0.772938 0
M  V30 16646 C 1610.36 -4.01777 2.17771 0
M  V30 16647 C 1611.35 -4.1335 3.15338 0
M  V30 16648 C 1609.04 -4.35732 2.49886 0
M  V30 16649 C 1611.03 -4.58175 4.43119 0
M  V30 16650 C 1608.72 -4.80245 3.779 0
M  V30 16651 C 1609.72 -4.91427 4.74329 0
M  V30 16652 O 1609.41 -5.34958 6.00063 0
M  V30 16653 H 1609.14 -0.636465 0.227791 0
M  V30 16654 H 1611.69 -1.61671 1.26695 0
M  V30 16655 H 1609.92 -3.86658 0.0568252 0
M  V30 16656 H 1611.61 -4.03505 0.440326 0
M  V30 16657 H 1612.38 -3.87361 2.91851 0
M  V30 16658 H 1608.26 -4.26261 1.75563 0
M  V30 16659 H 1611.8 -4.66818 5.18389 0
M  V30 16660 H 1607.7 -5.05678 4.01198 0
M  V30 16661 H 1608.47 -5.53173 6.03276 0
M  V30 16662 N 1611.13 -0.710588 -1.40671 0
M  V30 16663 C 1612.36 -0.257069 -2.04994 0
M  V30 16664 C 1612.77 1.10431 -1.53628 0
M  V30 16665 O 1612.11 1.70422 -0.685726 0
M  V30 16666 C 1612.17 -0.153646 -3.59172 0
M  V30 16667 C 1611.84 -1.4495 -4.33403 0
M  V30 16668 C 1612.83 -2.39042 -4.61687 0
M  V30 16669 C 1610.52 -1.70704 -4.72404 0
M  V30 16670 C 1612.51 -3.57137 -5.27951 0
M  V30 16671 C 1610.2 -2.89082 -5.384 0
M  V30 16672 C 1611.2 -3.82121 -5.66103 0
M  V30 16673 O 1610.89 -4.98424 -6.30737 0
M  V30 16674 H 1610.62 -0.114202 -0.666284 0
M  V30 16675 H 1613.17 -0.968028 -1.81158 0
M  V30 16676 H 1611.4 0.613213 -3.81807 0
M  V30 16677 H 1613.09 0.264655 -4.05036 0
M  V30 16678 H 1613.86 -2.20407 -4.32025 0
M  V30 16679 H 1609.74 -0.99142 -4.50213 0
M  V30 16680 H 1613.28 -4.29775 -5.4949 0
M  V30 16681 H 1609.18 -3.07627 -5.67482 0
M  V30 16682 H 1609.94 -4.98436 -6.49233 0
M  V30 16683 N 1612.61 1.50847 -0.456408 0
M  V30 16684 C 1613.86 2.01835 0.103414 0
M  V30 16685 C 1614.18 1.34142 1.4153 0
M  V30 16686 O 1613.45 0.482015 1.89877 0
M  V30 16687 H 1612.03 0.745863 0.0412074 0
M  V30 16688 H 1614.69 1.85322 -0.603477 0
M  V30 16689 H 1613.78 3.10968 0.265562 0
M  V30 16690 N 1614.09 0.188454 1.56469 0
M  V30 16691 C 1615.33 -0.452238 1.96565 0
M  V30 16692 C 1615.65 -1.63219 1.07792 0
M  V30 16693 O 1616.85 -2.34024 1.37641 0
M  V30 16694 C 1615.31 -0.855966 3.49573 0
M  V30 16695 C 1614.92 0.299329 4.46999 0
M  V30 16696 C 1616.66 -1.46411 3.98452 0
M  V30 16697 C 1614.57 -0.124987 5.91268 0
M  V30 16698 H 1613.5 -0.172729 0.733949 0
M  V30 16699 H 1616.15 0.279415 1.8136 0
M  V30 16700 H 1614.53 -1.64409 3.60258 0
M  V30 16701 H 1615.71 1.07681 4.48042 0
M  V30 16702 H 1614.02 0.818542 4.08275 0
M  V30 16703 H 1616.62 -1.79392 5.03709 0
M  V30 16704 H 1616.96 -2.36822 3.42376 0
M  V30 16705 H 1617.49 -0.740088 3.90855 0
M  V30 16706 H 1614.23 0.744769 6.51255 0
M  V30 16707 H 1613.75 -0.86747 5.93494 0
M  V30 16708 H 1615.43 -0.563054 6.44545 0
M  V30 16709 N 1615.56 -1.5737 -0.0851874 0
M  V30 16710 C 1616.97 -1.7544 -0.638575 0
M  V30 16711 C 1617.33 -0.812041 -1.78607 0
M  V30 16712 O 1616.45 0.00710428 -2.16399 0
M  V30 16713 C 1617.05 -3.18134 -1.16517 0
M  V30 16714 C 1615.6 -3.37594 -1.66454 0
M  V30 16715 C 1614.75 -2.71203 -0.578274 0
M  V30 16716 H 1617.7 -1.58073 0.140931 0
M  V30 16717 H 1617.72 -3.21553 -2.0343 0
M  V30 16718 H 1617.24 -3.86696 -0.329794 0
M  V30 16719 H 1615.34 -2.74126 -2.5236 0
M  V30 16720 H 1615.45 -4.45968 -1.75071 0
M  V30 16721 H 1613.81 -2.33379 -1.02011 0
M  V30 16722 H 1614.6 -3.42413 0.246691 0
M  V30 16723 N 1617.04 0.356258 -1.53521 0
M  V30 16724 C 1617.97 1.45965 -1.75413 0
M  V30 16725 C 1618.95 1.51015 -0.602774 0
M  V30 16726 O 1620.14 1.68925 -0.836459 0
M  V30 16727 C 1617.26 2.84276 -1.84132 0
M  V30 16728 C 1616.31 2.96909 -3.06182 0
M  V30 16729 S 1617.14 2.64695 -4.65507 0
M  V30 16730 C 1618.3 4.05138 -4.77089 0
M  V30 16731 H 1618.53 1.27176 -2.68726 0
M  V30 16732 H 1616.06 0.551163 -1.44227 0
M  V30 16733 H 1618.02 3.63965 -1.89842 0
M  V30 16734 H 1616.68 3.00369 -0.918542 0
M  V30 16735 H 1615.88 3.98226 -3.08921 0
M  V30 16736 H 1615.48 2.25154 -2.98633 0
M  V30 16737 H 1617.77 4.99502 -4.57717 0
M  V30 16738 H 1618.71 4.074 -5.79164 0
M  V30 16739 H 1619.12 3.92572 -4.05644 0
M  V30 16740 N 1618.52 1.45038 0.616577 0
M  V30 16741 C 1619.48 1.52647 1.70973 0
M  V30 16742 C 1620.48 0.406902 1.55567 0
M  V30 16743 O 1621.67 0.670062 1.60797 0
M  V30 16744 C 1618.8 1.41438 3.10174 0
M  V30 16745 H 1620 2.50036 1.65596 0
M  V30 16746 H 1617.55 1.32346 0.831524 0
M  V30 16747 H 1618.29 0.451991 3.21135 0
M  V30 16748 H 1618.07 2.22634 3.22764 0
M  V30 16749 H 1619.56 1.49776 3.89817 0
M  V30 16750 N 1620 -0.858287 1.32179 0
M  V30 16751 C 1620.91 -1.99894 1.228 0
M  V30 16752 C 1621.92 -1.73417 0.142323 0
M  V30 16753 O 1623.1 -1.98114 0.362321 0
M  V30 16754 C 1620.16 -3.33495 0.947745 0
M  V30 16755 C 1619.23 -3.73217 2.12149 0
M  V30 16756 C 1618.46 -5.00443 1.85452 0
M  V30 16757 O 1618.68 -5.64828 0.79531 0
M  V30 16758 O 1617.62 -5.3721 2.71457 0
M  V30 16759 H 1621.44 -2.10742 2.18682 0
M  V30 16760 H 1619.03 -0.988385 1.12033 0
M  V30 16761 H 1620.91 -4.13585 0.807791 0
M  V30 16762 H 1619.58 -3.23694 0.019053 0
M  V30 16763 H 1618.49 -2.93718 2.3169 0
M  V30 16764 H 1619.82 -3.87659 3.03285 0
M  V30 16765 N 1621.48 -1.1533 -1.07409 0
M  V30 16766 C 1622.89 -0.895817 -1.32088 0
M  V30 16767 C 1623.09 0.457526 -1.96237 0
M  V30 16768 O 1622.15 1.19958 -2.22185 0
M  V30 16769 C 1623.46 -2.03632 -2.21256 0
M  V30 16770 C 1625.01 -2.07079 -2.34707 0
M  V30 16771 C 1625.48 -3.20451 -3.27223 0
M  V30 16772 N 1626.97 -3.20095 -3.34804 0
M  V30 16773 C 1627.71 -4.04458 -4.0645 0
M  V30 16774 N 1627.21 -4.98883 -4.80715 0
M  V30 16775 N 1629 -3.92483 -4.02385 0
M  V30 16776 H 1621.15 -2.02478 -0.641578 0
M  V30 16777 H 1623.41 -0.882864 -0.345332 0
M  V30 16778 H 1623.12 -3.0132 -1.81381 0
M  V30 16779 H 1622.99 -1.96817 -3.21781 0
M  V30 16780 H 1625.38 -1.09991 -2.73836 0
M  V30 16781 H 1625.46 -2.17962 -1.3389 0
M  V30 16782 H 1625.1 -4.17791 -2.88813 0
M  V30 16783 H 1625.03 -3.06805 -4.27993 0
M  V30 16784 H 1627.53 -2.51712 -2.81868 0
M  V30 16785 H 1627.84 -5.59698 -5.32877 0
M  V30 16786 H 1626.18 -5.02872 -4.79734 0
M  V30 16787 H 1629.37 -3.18026 -3.43478 0
M  V30 16788 H 1629.55 -4.58454 -4.57956 0
M  V30 16789 N 1622.95 1.25748 -0.950004 0
M  V30 16790 C 1623.89 2.25247 -0.423855 0
M  V30 16791 C 1624.9 1.56233 0.457726 0
M  V30 16792 O 1626.09 1.76496 0.266749 0
M  V30 16793 C 1623.19 3.36422 0.409074 0
M  V30 16794 C 1622.36 4.34991 -0.458421 0
M  V30 16795 C 1621.42 5.25253 0.315537 0
M  V30 16796 O 1620.45 5.68489 -0.284474 0
M  V30 16797 N 1621.65 5.57732 1.60983 0
M  V30 16798 H 1624.41 2.71026 -1.27925 0
M  V30 16799 H 1621.97 1.39607 -0.819853 0
M  V30 16800 H 1623.97 3.93764 0.934447 0
M  V30 16801 H 1622.54 2.90068 1.1653 0
M  V30 16802 H 1621.76 3.76594 -1.16494 0
M  V30 16803 H 1623.04 4.97833 -1.05068 0
M  V30 16804 H 1622.44 5.24502 2.1193 0
M  V30 16805 H 1621 6.17678 2.08126 0
M  V30 16806 N 1624.43 0.718038 1.40292 0
M  V30 16807 C 1625.38 0.0559466 2.32533 0
M  V30 16808 C 1626.37 -0.744365 1.5217 0
M  V30 16809 O 1627.58 -0.647458 1.67952 0
M  V30 16810 H 1623.95 -0.000710627 0.752 0
M  V30 16811 H 1625.93 0.850579 2.8602 0
M  V30 16812 C 1624.67 -0.849927 3.37152 0
M  V30 16813 H 1624 -0.243507 3.99058 0
M  V30 16814 H 1625.44 -1.28111 4.04183 0
M  V30 16815 C 1623.9 -1.9765 2.7283 0
M  V30 16816 O 1624.43 -3.06757 2.59351 0
M  V30 16817 N 1622.63 -1.76086 2.31176 0
M  V30 16818 H 1622.18 -0.873485 2.42339 0
M  V30 16819 H 1622.14 -2.51643 1.88477 0
M  V30 16820 N 1625.91 -1.50602 0.464402 0
M  V30 16821 C 1626.86 -2.29992 -0.347337 0
M  V30 16822 C 1627.85 -1.36991 -0.996489 0
M  V30 16823 O 1629.06 -1.54213 -0.928359 0
M  V30 16824 H 1625.43 -0.740529 -0.130847 0
M  V30 16825 H 1627.4 -2.96425 0.342734 0
M  V30 16826 C 1626.15 -3.17355 -1.4206 0
M  V30 16827 H 1625.48 -3.88822 -0.930473 0
M  V30 16828 H 1626.92 -3.75912 -1.96129 0
M  V30 16829 C 1625.38 -2.34506 -2.41886 0
M  V30 16830 O 1625.91 -2.02347 -3.47014 0
M  V30 16831 N 1624.11 -1.97212 -2.13438 0
M  V30 16832 H 1623.66 -2.23564 -1.27971 0
M  V30 16833 H 1623.62 -1.42081 -2.80464 0
M  V30 16834 N 1627.39 -0.19675 -1.56367 0
M  V30 16835 C 1628.64 0.440711 -1.97236 0
M  V30 16836 C 1628.96 1.62037 -1.08485 0
M  V30 16837 O 1628.23 1.95274 -0.156483 0
M  V30 16838 H 1626.81 0.16581 -0.728365 0
M  V30 16839 H 1629.47 -0.283867 -1.92822 0
M  V30 16840 H 1628.57 0.783731 -3.02099 0
M  V30 16841 N 1628.87 1.57413 0.0768405 0
M  V30 16842 C 1630.11 1.88144 0.772882 0
M  V30 16843 C 1630.47 0.789834 1.75441 0
M  V30 16844 O 1629.76 -0.206487 1.90484 0
M  V30 16845 C 1629.95 3.2324 1.52482 0
M  V30 16846 C 1629.78 4.45439 0.61762 0
M  V30 16847 C 1628.55 5.04649 0.256461 0
M  V30 16848 C 1630.75 5.14232 -0.0834364 0
M  V30 16849 N 1628.73 6.10374 -0.656988 0
M  V30 16850 C 1630.1 6.14087 -0.854262 0
M  V30 16851 C 1632.16 4.97657 -0.155439 0
M  V30 16852 C 1630.86 6.99155 -1.69039 0
M  V30 16853 C 1632.89 5.83248 -0.978528 0
M  V30 16854 C 1632.25 6.82637 -1.73742 0
M  V30 16855 H 1628.35 0.738071 0.258409 0
M  V30 16856 H 1630.93 1.94669 0.0346081 0
M  V30 16857 H 1629.1 3.17732 2.23385 0
M  V30 16858 H 1630.84 3.41637 2.16948 0
M  V30 16859 H 1627.59 4.69679 0.608199 0
M  V30 16860 H 1628.02 6.67891 -1.10681 0
M  V30 16861 H 1632.66 4.20739 0.416946 0
M  V30 16862 H 1630.38 7.75452 -2.27377 0
M  V30 16863 H 1633.96 5.72481 -1.03715 0
M  V30 16864 H 1632.84 7.47718 -2.36405 0
M  V30 16865 N 1630.34 -0.348112 1.53707 0
M  V30 16866 C 1631.27 -1.43296 1.8436 0
M  V30 16867 C 1632.26 -1.55102 0.698376 0
M  V30 16868 O 1633.44 -1.69385 0.949864 0
M  V30 16869 C 1630.57 -2.80407 2.04912 0
M  V30 16870 C 1629.52 -2.83412 3.20721 0
M  V30 16871 C 1628.85 -4.23365 3.26597 0
M  V30 16872 C 1630.15 -2.49358 4.58931 0
M  V30 16873 H 1631.84 -1.17892 2.75212 0
M  V30 16874 H 1629.39 -0.565692 1.32423 0
M  V30 16875 H 1631.34 -3.56343 2.24939 0
M  V30 16876 H 1630.07 -3.07236 1.10786 0
M  V30 16877 H 1628.73 -2.09929 3.00542 0
M  V30 16878 H 1628.37 -4.47297 2.30076 0
M  V30 16879 H 1628.07 -4.26287 4.04417 0
M  V30 16880 H 1629.6 -5.01149 3.4883 0
M  V30 16881 H 1631.01 -3.15006 4.79003 0
M  V30 16882 H 1629.41 -2.6357 5.3912 0
M  V30 16883 H 1630.48 -1.44557 4.62851 0
M  V30 16884 N 1631.82 -1.45363 -0.608876 0
M  V30 16885 C 1632.77 -1.53936 -1.71966 0
M  V30 16886 C 1633.74 -0.385352 -1.61568 0
M  V30 16887 O 1634.92 -0.598622 -1.81166 0
M  V30 16888 C 1632.06 -1.51079 -3.10272 0
M  V30 16889 C 1631.18 -2.77022 -3.31486 0
M  V30 16890 C 1630.31 -2.65846 -4.59891 0
M  V30 16891 C 1629.35 -3.86848 -4.74357 0
M  V30 16892 N 1628.49 -3.74214 -5.94061 0
M  V30 16893 H 1633.33 -2.4883 -1.63974 0
M  V30 16894 H 1630.87 -1.23472 -0.799565 0
M  V30 16895 H 1632.82 -1.47411 -3.90289 0
M  V30 16896 H 1631.45 -0.597374 -3.17224 0
M  V30 16897 H 1630.51 -2.90783 -2.45253 0
M  V30 16898 H 1631.82 -3.66776 -3.38049 0
M  V30 16899 H 1630.97 -2.60136 -5.48101 0
M  V30 16900 H 1629.71 -1.73689 -4.55723 0
M  V30 16901 H 1628.72 -3.92918 -3.84572 0
M  V30 16902 H 1629.94 -4.80069 -4.80324 0
M  V30 16903 H 1627.89 -2.84825 -5.9094 0
M  V30 16904 H 1627.8 -4.57601 -6.01779 0
M  V30 16905 H 1629.07 -3.72434 -6.84772 0
M  V30 16906 N 1633.3 0.851265 -1.32632 0
M  V30 16907 C 1634.25 1.96012 -1.21852 0
M  V30 16908 C 1635.22 1.65799 -0.0999141 0
M  V30 16909 O 1636.4 1.88793 -0.276049 0
M  V30 16910 C 1633.54 3.31737 -0.951014 0
M  V30 16911 C 1632.66 3.74427 -2.15472 0
M  V30 16912 C 1631.79 4.9896 -1.82242 0
M  V30 16913 C 1630.83 5.3415 -2.98914 0
M  V30 16914 N 1629.97 6.49861 -2.65754 0
M  V30 16915 H 1634.81 2.04565 -2.16696 0
M  V30 16916 H 1632.34 1.00119 -1.07771 0
M  V30 16917 H 1634.3 4.09912 -0.776401 0
M  V30 16918 H 1632.93 3.22776 -0.0393461 0
M  V30 16919 H 1631.98 2.91878 -2.4395 0
M  V30 16920 H 1633.3 3.96425 -3.02736 0
M  V30 16921 H 1632.45 5.84851 -1.61352 0
M  V30 16922 H 1631.19 4.78906 -0.921971 0
M  V30 16923 H 1630.19 4.4677 -3.20432 0
M  V30 16924 H 1631.42 5.5616 -3.89696 0
M  V30 16925 H 1629.36 6.31317 -1.78254 0
M  V30 16926 H 1629.28 6.71894 -3.46547 0
M  V30 16927 H 1630.55 7.38895 -2.48302 0
M  V30 16928 N 1634.78 1.15898 1.06796 0
M  V30 16929 C 1636.03 0.937339 1.795 0
M  V30 16930 C 1636.35 -0.535183 1.86992 0
M  V30 16931 O 1635.61 -1.41304 1.35394 0
M  V30 16932 C 1635.91 1.50368 3.24229 0
M  V30 16933 C 1635.57 2.99765 3.36826 0
M  V30 16934 C 1634.24 3.40548 3.39971 0
M  V30 16935 C 1636.59 3.9575 3.39163 0
M  V30 16936 C 1633.92 4.75946 3.43063 0
M  V30 16937 C 1636.27 5.31028 3.43791 0
M  V30 16938 C 1634.93 5.71298 3.45216 0
M  V30 16939 H 1634.2 0.342997 0.656837 0
M  V30 16940 H 1636.85 1.44531 1.2563 0
M  V30 16941 H 1635.15 0.917024 3.80917 0
M  V30 16942 H 1636.85 1.30793 3.7907 0
M  V30 16943 H 1633.44 2.67244 3.3508 0
M  V30 16944 H 1637.62 3.65311 3.35948 0
M  V30 16945 H 1632.88 5.06484 3.42468 0
M  V30 16946 H 1637.05 6.05195 3.44546 0
M  V30 16947 H 1634.68 6.76196 3.47365 0
M  V30 16948 N 1636.26 -1.25243 0.956659 0
M  V30 16949 C 1637.48 -1.97082 0.629791 0
M  V30 16950 C 1637.9 -1.71082 -0.798529 0
M  V30 16951 O 1637.26 -0.98805 -1.5344 0
M  V30 16952 C 1637.31 -3.5059 0.881406 0
M  V30 16953 O 1637.03 -3.75694 2.25356 0
M  V30 16954 C 1638.53 -4.39656 0.567203 0
M  V30 16955 H 1635.75 -0.628152 0.235938 0
M  V30 16956 H 1638.29 -1.5936 1.28159 0
M  V30 16957 H 1636.45 -3.86416 0.27599 0
M  V30 16958 H 1636.86 -4.70142 2.32523 0
M  V30 16959 H 1638.34 -5.46263 0.793785 0
M  V30 16960 H 1638.81 -4.36364 -0.498287 0
M  V30 16961 H 1639.42 -4.094 1.15203 0
M  V30 16962 N 1637.73 -0.725468 -1.3991 0
M  V30 16963 C 1638.64 -0.0805887 -2.34462 0
M  V30 16964 C 1639.66 0.732689 -1.57822 0
M  V30 16965 O 1640.84 0.663362 -1.90162 0
M  V30 16966 C 1637.9 0.822908 -3.36792 0
M  V30 16967 C 1636.96 -0.00153812 -4.293 0
M  V30 16968 C 1636.2 0.85893 -5.26743 0
M  V30 16969 O 1636.42 2.09793 -5.30418 0
M  V30 16970 O 1635.35 0.292659 -6.01188 0
M  V30 16971 H 1639.18 -0.860746 -2.91247 0
M  V30 16972 H 1636.76 -0.48604 -1.41273 0
M  V30 16973 H 1638.65 1.34014 -3.99522 0
M  V30 16974 H 1637.32 1.58204 -2.82406 0
M  V30 16975 H 1636.23 -0.564072 -3.69823 0
M  V30 16976 H 1637.56 -0.722675 -4.86866 0
M  V30 16977 N 1639.21 1.50354 -0.472382 0
M  V30 16978 C 1640.15 2.25227 0.367135 0
M  V30 16979 C 1641.12 1.28594 0.99511 0
M  V30 16980 O 1642.31 1.57819 1.03079 0
M  V30 16981 C 1639.43 3.02952 1.51452 0
M  V30 16982 C 1638.48 4.14519 1.0038 0
M  V30 16983 S 1639.31 5.35436 -0.082542 0
M  V30 16984 C 1640.47 6.16709 1.06869 0
M  V30 16985 H 1640.7 2.96086 -0.268437 0
M  V30 16986 H 1638.24 1.52241 -0.257282 0
M  V30 16987 H 1640.19 3.48324 2.17212 0
M  V30 16988 H 1638.85 2.31617 2.12161 0
M  V30 16989 H 1638.05 4.68311 1.86282 0
M  V30 16990 H 1637.65 3.7159 0.423896 0
M  V30 16991 H 1639.94 6.4792 1.98004 0
M  V30 16992 H 1640.88 7.05802 0.570008 0
M  V30 16993 H 1641.29 5.48775 1.3231 0
M  V30 16994 N 1640.69 0.205039 1.56261 0
M  V30 16995 C 1641.92 -0.43642 2.02245 0
M  V30 16996 C 1642.33 -1.54504 1.08508 0
M  V30 16997 O 1641.69 -1.82269 0.0916991 0
M  V30 16998 C 1641.74 -0.983483 3.47865 0
M  V30 16999 O 1641.46 0.0809166 4.38025 0
M  V30 17000 C 1642.96 -1.69983 4.09415 0
M  V30 17001 H 1640.18 -0.108577 0.662157 0
M  V30 17002 H 1642.73 0.316659 2.02033 0
M  V30 17003 H 1640.88 -1.6869 3.48744 0
M  V30 17004 H 1641.3 -0.327751 5.23475 0
M  V30 17005 H 1642.77 -2.03481 5.13127 0
M  V30 17006 H 1643.25 -2.60711 3.5345 0
M  V30 17007 H 1643.85 -1.04202 4.12337 0
M  V30 17008 N 1642.17 -1.57451 -0.0684915 0
M  V30 17009 C 1643.12 -2.04959 -1.09975 0
M  V30 17010 C 1644.11 -0.955558 -1.39877 0
M  V30 17011 O 1645.32 -1.14066 -1.39245 0
M  V30 17012 H 1641.69 -0.653542 -0.372003 0
M  V30 17013 H 1643.66 -2.90713 -0.67294 0
M  V30 17014 C 1642.41 -2.51192 -2.40412 0
M  V30 17015 H 1641.74 -3.3497 -2.18254 0
M  V30 17016 H 1643.18 -2.88183 -3.11008 0
M  V30 17017 C 1641.63 -1.39624 -3.06605 0
M  V30 17018 O 1642.16 -0.740191 -3.94822 0
M  V30 17019 N 1640.37 -1.14054 -2.67283 0
M  V30 17020 H 1639.92 -1.67585 -1.95635 0
M  V30 17021 H 1639.88 -0.396106 -3.11895 0
M  V30 17022 N 1643.65 0.339955 -1.5389 0
M  V30 17023 C 1644.61 1.40058 -1.81429 0
M  V30 17024 C 1645.61 1.45458 -0.685463 0
M  V30 17025 O 1646.8 1.45771 -0.953754 0
M  V30 17026 C 1643.93 2.78952 -1.95955 0
M  V30 17027 H 1645.13 1.16902 -2.76178 0
M  V30 17028 H 1642.68 0.574543 -1.45357 0
M  V30 17029 H 1643.41 3.07387 -1.03361 0
M  V30 17030 H 1643.2 2.76429 -2.78082 0
M  V30 17031 H 1644.69 3.55713 -2.18765 0
M  V30 17032 N 1645.13 1.45684 0.601159 0
M  V30 17033 C 1646.37 1.51581 1.37123 0
M  V30 17034 C 1646.73 0.156185 1.91364 0
M  V30 17035 O 1647.93 0.0898599 2.6865 0
M  V30 17036 C 1646.2 2.56989 2.48378 0
M  V30 17037 S 1647.76 2.82158 3.36054 0
M  V30 17038 H 1644.58 0.53577 0.46741 0
M  V30 17039 H 1647.18 1.82805 0.693012 0
M  V30 17040 H 1645.88 3.54436 2.0689 0
M  V30 17041 H 1645.42 2.27437 3.20992 0
M  V30 17042 H 1647.43 2.16025 4.46708 0
M  V30 17043 N 1646.6 -0.84422 1.33082 0
M  V30 17044 C 1647.55 -1.95363 1.2289 0
M  V30 17045 C 1648.52 -1.65744 0.108705 0
M  V30 17046 O 1649.71 -1.88643 0.286057 0
M  V30 17047 C 1646.85 -3.31228 0.968594 0
M  V30 17048 C 1645.96 -3.73279 2.17455 0
M  V30 17049 C 1645.09 -4.97987 1.84885 0
M  V30 17050 C 1644.13 -5.32558 3.01743 0
M  V30 17051 N 1643.27 -6.48442 2.69197 0
M  V30 17052 H 1648.11 -2.03412 2.17778 0
M  V30 17053 H 1645.65 -0.995461 1.083 0
M  V30 17054 H 1647.6 -4.09494 0.798129 0
M  V30 17055 H 1646.23 -3.22751 0.0564631 0
M  V30 17056 H 1645.29 -2.9058 2.45494 0
M  V30 17057 H 1646.6 -3.94814 3.04834 0
M  V30 17058 H 1645.75 -5.83987 1.64451 0
M  V30 17059 H 1644.49 -4.7841 0.947356 0
M  V30 17060 H 1643.5 -4.45064 3.22797 0
M  V30 17061 H 1644.72 -5.54085 3.9264 0
M  V30 17062 H 1642.67 -6.30363 1.816 0
M  V30 17063 H 1642.58 -6.70046 3.50106 0
M  V30 17064 H 1643.85 -7.37568 2.52217 0
M  V30 17065 N 1648.08 -1.16463 -1.0618 0
M  V30 17066 C 1649.33 -0.944975 -1.78647 0
M  V30 17067 C 1649.65 0.528486 -1.87702 0
M  V30 17068 O 1648.92 1.38391 -1.38653 0
M  V30 17069 H 1647.5 -0.346637 -0.661704 0
M  V30 17070 H 1650.16 -1.46752 -1.28257 0
M  V30 17071 H 1649.26 -1.36469 -2.80683 0
M  V30 17072 N 1649.56 1.24734 -0.963288 0
M  V30 17073 C 1650.49 2.24024 -0.434573 0
M  V30 17074 C 1651.47 1.55076 0.488889 0
M  V30 17075 O 1652.65 1.83732 0.421281 0
M  V30 17076 C 1649.78 3.36638 0.373148 0
M  V30 17077 C 1648.83 4.23653 -0.491959 0
M  V30 17078 S 1649.66 4.99531 -1.92949 0
M  V30 17079 C 1650.82 6.15607 -1.13043 0
M  V30 17080 H 1651.05 2.68524 -1.27601 0
M  V30 17081 H 1648.58 1.33945 -0.767994 0
M  V30 17082 H 1650.54 4.01955 0.833211 0
M  V30 17083 H 1649.2 2.90705 1.18951 0
M  V30 17084 H 1648.39 5.03837 0.127976 0
M  V30 17085 H 1648 3.63315 -0.887574 0
M  V30 17086 H 1650.29 6.76415 -0.383296 0
M  V30 17087 H 1651.23 6.81952 -1.9065 0
M  V30 17088 H 1651.64 5.60667 -0.656746 0
M  V30 17089 N 1651.04 0.732878 1.39523 0
M  V30 17090 C 1651.95 0.0930216 2.34416 0
M  V30 17091 C 1652.96 -0.724309 1.58208 0
M  V30 17092 O 1654.14 -0.653267 1.90511 0
M  V30 17093 C 1651.2 -0.805036 3.37224 0
M  V30 17094 C 1650.27 0.0243049 4.29293 0
M  V30 17095 C 1649.5 -0.830984 5.27191 0
M  V30 17096 O 1649.72 -2.06977 5.31523 0
M  V30 17097 O 1648.66 -0.260772 6.01335 0
M  V30 17098 H 1652.48 0.876179 2.90786 0
M  V30 17099 H 1650.07 0.493525 1.41013 0
M  V30 17100 H 1651.95 -1.31894 4.00228 0
M  V30 17101 H 1650.62 -1.56704 2.83241 0
M  V30 17102 H 1649.53 0.583677 3.69519 0
M  V30 17103 H 1650.86 0.748485 4.86476 0
M  V30 17104 N 1652.52 -1.50101 0.480349 0
M  V30 17105 C 1653.76 -2.033 -0.0636175 0
M  V30 17106 C 1654.12 -1.35518 -1.36575 0
M  V30 17107 O 1653.41 -0.474981 -1.85619 0
M  V30 17108 C 1653.6 -3.56191 -0.293745 0
M  V30 17109 C 1653.43 -4.38791 0.984529 0
M  V30 17110 C 1652.2 -4.81565 1.53048 0
M  V30 17111 C 1654.4 -4.78613 1.88239 0
M  V30 17112 N 1652.38 -5.48519 2.75681 0
M  V30 17113 C 1653.75 -5.45074 2.95456 0
M  V30 17114 C 1655.81 -4.60566 1.89166 0
M  V30 17115 C 1654.51 -5.95398 4.03601 0
M  V30 17116 C 1656.54 -5.11836 2.96273 0
M  V30 17117 C 1655.9 -5.78279 4.02209 0
M  V30 17118 H 1652 -0.781816 0.016982 0
M  V30 17119 H 1654.58 -1.83508 0.650617 0
M  V30 17120 H 1652.75 -3.75911 -0.977023 0
M  V30 17121 H 1654.49 -3.96037 -0.832876 0
M  V30 17122 H 1651.24 -4.61159 1.0784 0
M  V30 17123 H 1651.66 -5.86597 3.37983 0
M  V30 17124 H 1656.31 -4.0862 1.08578 0
M  V30 17125 H 1654.02 -6.46375 4.85 0
M  V30 17126 H 1657.61 -4.99696 2.97985 0
M  V30 17127 H 1656.49 -6.17237 4.83724 0
M  V30 17128 N 1653.99 -0.213323 -1.5615 0
M  V30 17129 C 1655.24 0.420909 -1.97259 0
M  V30 17130 C 1655.56 1.61483 -1.10375 0
M  V30 17131 O 1656.76 2.31804 -1.41347 0
M  V30 17132 C 1655.22 0.800243 -3.5089 0
M  V30 17133 C 1654.83 -0.370405 -4.46466 0
M  V30 17134 C 1656.57 1.40054 -4.00731 0
M  V30 17135 C 1654.48 0.0309052 -5.91392 0
M  V30 17136 H 1653.41 0.16103 -0.736604 0
M  V30 17137 H 1656.06 -0.308232 -1.80893 0
M  V30 17138 H 1654.44 1.58657 -3.62828 0
M  V30 17139 H 1655.61 -1.14796 -4.46272 0
M  V30 17140 H 1653.93 -0.883391 -4.06922 0
M  V30 17141 H 1656.53 1.71355 -5.06499 0
M  V30 17142 H 1656.87 2.31345 -3.461 0
M  V30 17143 H 1657.4 0.677813 -3.91983 0
M  V30 17144 H 1654.14 -0.848284 -6.49988 0
M  V30 17145 H 1653.66 0.772941 -5.94799 0
M  V30 17146 H 1655.34 0.460441 -6.4536 0
M  V30 17147 N 1655.47 1.57485 0.0601405 0
M  V30 17148 C 1656.44 2.03493 1.05467 0
M  V30 17149 C 1657.44 0.933816 1.30907 0
M  V30 17150 O 1658.63 1.19837 1.26431 0
M  V30 17151 C 1655.76 2.42549 2.39547 0
M  V30 17152 H 1656.95 2.92595 0.657893 0
M  V30 17153 H 1654.5 1.53272 0.306183 0
M  V30 17154 H 1655.24 1.56509 2.84034 0
M  V30 17155 H 1655.02 3.22911 2.22421 0
M  V30 17156 H 1656.51 2.7868 3.1101 0
M  V30 17157 N 1656.95 -0.331789 1.54068 0
M  V30 17158 C 1658.2 -1.06818 1.71093 0
M  V30 17159 C 1658.51 -1.89438 0.487111 0
M  V30 17160 O 1659.72 -2.66105 0.538544 0
M  V30 17161 C 1658.17 -1.94853 3.02589 0
M  V30 17162 C 1657.78 -1.17384 4.32348 0
M  V30 17163 C 1659.53 -2.68278 3.28979 0
M  V30 17164 C 1657.43 -2.04518 5.54911 0
M  V30 17165 H 1656.36 -0.402501 0.63758 0
M  V30 17166 H 1659.01 -0.326918 1.80564 0
M  V30 17167 H 1657.4 -2.72845 2.87004 0
M  V30 17168 H 1658.57 -0.442208 4.58673 0
M  V30 17169 H 1656.89 -0.556775 4.12661 0
M  V30 17170 H 1659.48 -3.33762 4.1774 0
M  V30 17171 H 1659.83 -3.35476 2.46498 0
M  V30 17172 H 1660.36 -1.97353 3.45394 0
M  V30 17173 H 1657.1 -1.41842 6.3997 0
M  V30 17174 H 1656.62 -2.75438 5.32817 0
M  V30 17175 H 1658.3 -2.63297 5.91002 0
M  V30 17176 N 1658.43 -1.46001 -0.593424 0
M  V30 17177 C 1659.38 -1.55752 -1.70323 0
M  V30 17178 C 1660.35 -0.402466 -1.6115 0
M  V30 17179 O 1661.53 -0.617804 -1.80521 0
M  V30 17180 C 1658.67 -1.54362 -3.08653 0
M  V30 17181 C 1657.78 -2.80523 -3.28529 0
M  V30 17182 C 1656.92 -2.70709 -4.57045 0
M  V30 17183 C 1655.96 -3.91857 -4.70228 0
M  V30 17184 N 1655.09 -3.80494 -5.90059 0
M  V30 17185 H 1659.93 -2.50555 -1.61326 0
M  V30 17186 H 1657.47 -1.24313 -0.786425 0
M  V30 17187 H 1659.43 -1.51542 -3.88704 0
M  V30 17188 H 1658.06 -0.630986 -3.16573 0
M  V30 17189 H 1657.11 -2.93368 -2.42155 0
M  V30 17190 H 1658.42 -3.70341 -3.3414 0
M  V30 17191 H 1657.58 -2.65935 -5.45311 0
M  V30 17192 H 1656.32 -1.78513 -4.53855 0
M  V30 17193 H 1655.32 -3.96975 -3.80383 0
M  V30 17194 H 1656.55 -4.85136 -4.75205 0
M  V30 17195 H 1654.49 -2.91077 -5.87886 0
M  V30 17196 H 1654.41 -4.63958 -5.96891 0
M  V30 17197 H 1655.68 -3.79676 -6.80783 0
M  V30 17198 N 1659.91 0.83715 -1.33527 0
M  V30 17199 C 1661.16 1.58747 -1.24428 0
M  V30 17200 C 1661.47 1.94696 0.187885 0
M  V30 17201 O 1662.67 2.68524 0.400903 0
M  V30 17202 C 1661.13 2.86337 -2.18035 0
M  V30 17203 C 1660.74 2.57745 -3.66431 0
M  V30 17204 C 1662.48 3.6436 -2.17812 0
M  V30 17205 C 1660.39 3.81443 -4.51946 0
M  V30 17206 H 1659.32 0.595749 -0.462168 0
M  V30 17207 H 1661.97 0.922901 -1.58603 0
M  V30 17208 H 1660.35 3.54344 -1.76795 0
M  V30 17209 H 1661.53 1.97939 -4.16121 0
M  V30 17210 H 1659.84 1.93023 -3.68959 0
M  V30 17211 H 1662.44 4.56181 -2.78932 0
M  V30 17212 H 1662.78 3.99414 -1.17364 0
M  V30 17213 H 1663.31 3.03279 -2.57423 0
M  V30 17214 H 1660.05 3.51519 -5.53276 0
M  V30 17215 H 1659.57 4.40582 -4.06998 0
M  V30 17216 H 1661.25 4.49004 -4.65837 0
M  V30 17217 N 1661.38 1.17024 1.05561 0
M  V30 17218 C 1662.32 0.841314 2.13201 0
M  V30 17219 C 1663.33 -0.154667 1.62064 0
M  V30 17220 O 1664.52 0.0711173 1.78358 0
M  V30 17221 C 1661.62 0.233156 3.38097 0
M  V30 17222 C 1660.79 1.27108 4.18524 0
M  V30 17223 C 1659.85 0.681364 5.2177 0
M  V30 17224 O 1658.88 1.35219 5.52906 0
M  V30 17225 N 1660.08 -0.528381 5.7809 0
M  V30 17226 H 1662.84 1.76773 2.42015 0
M  V30 17227 H 1660.4 1.06858 1.21626 0
M  V30 17228 H 1662.4 -0.174565 4.04323 0
M  V30 17229 H 1660.97 -0.596965 3.06847 0
M  V30 17230 H 1660.19 1.85469 3.47843 0
M  V30 17231 H 1661.47 1.97129 4.6906 0
M  V30 17232 H 1660.87 -1.09141 5.55072 0
M  V30 17233 H 1659.43 -0.878214 6.45857 0
M  V30 17234 N 1662.86 -1.24221 0.969889 0
M  V30 17235 C 1663.81 -2.25292 0.501215 0
M  V30 17236 C 1664.78 -1.59764 -0.454382 0
M  V30 17237 O 1665.96 -1.87291 -0.364261 0
M  V30 17238 C 1663.1 -3.44518 -0.200361 0
M  V30 17239 C 1662.22 -4.24636 0.79426 0
M  V30 17240 C 1661.35 -5.31156 0.068568 0
M  V30 17241 C 1660.39 -6.02973 1.05311 0
M  V30 17242 N 1659.53 -7.0119 0.357274 0
M  V30 17243 H 1664.37 -2.64749 1.36792 0
M  V30 17244 H 1661.91 -1.30142 0.685673 0
M  V30 17245 H 1663.86 -4.1251 -0.623833 0
M  V30 17246 H 1662.49 -3.05892 -1.03101 0
M  V30 17247 H 1661.55 -3.56161 1.33616 0
M  V30 17248 H 1662.86 -4.74271 1.54493 0
M  V30 17249 H 1662.01 -6.05294 -0.412792 0
M  V30 17250 H 1660.75 -4.82434 -0.714781 0
M  V30 17251 H 1659.76 -5.27636 1.54532 0
M  V30 17252 H 1660.98 -6.53784 1.83694 0
M  V30 17253 H 1658.93 -6.54736 -0.407059 0
M  V30 17254 H 1658.84 -7.48718 1.04677 0
M  V30 17255 H 1660.11 -7.79433 -0.102045 0
M  V30 17256 N 1664.34 -0.740267 -1.39132 0
M  V30 17257 C 1665.59 -0.290523 -2.00405 0
M  V30 17258 C 1665.92 1.12383 -1.58746 0
M  V30 17259 O 1665.17 1.78148 -0.81005 0
M  V30 17260 C 1665.47 -0.346009 -3.55721 0
M  V30 17261 C 1665.14 -1.71412 -4.17048 0
M  V30 17262 C 1663.8 -2.08857 -4.33512 0
M  V30 17263 C 1666.15 -2.61216 -4.51016 0
M  V30 17264 C 1663.48 -3.35603 -4.81235 0
M  V30 17265 C 1665.83 -3.8734 -5.0015 0
M  V30 17266 C 1664.49 -4.2487 -5.14822 0
M  V30 17267 H 1663.76 -0.10631 -0.733334 0
M  V30 17268 H 1666.41 -0.948141 -1.66381 0
M  V30 17269 H 1664.72 0.395183 -3.89802 0
M  V30 17270 H 1666.41 0.020191 -4.00995 0
M  V30 17271 H 1663 -1.41301 -4.04638 0
M  V30 17272 H 1667.19 -2.33556 -4.3791 0
M  V30 17273 H 1662.44 -3.64617 -4.90779 0
M  V30 17274 H 1666.62 -4.57079 -5.25406 0
M  V30 17275 H 1664.24 -5.23147 -5.51562 0
M  V30 17276 N 1665.82 1.49844 -0.488302 0
M  V30 17277 C 1667.07 2.01603 0.0624744 0
M  V30 17278 C 1667.38 1.37397 1.39217 0
M  V30 17279 O 1668.59 1.8041 2.0289 0
M  V30 17280 C 1667.04 3.59536 0.161824 0
M  V30 17281 C 1666.65 4.32709 -1.16047 0
M  V30 17282 C 1668.39 4.1928 0.663642 0
M  V30 17283 C 1666.3 5.82468 -1.02397 0
M  V30 17284 H 1665.23 0.753512 0.0271222 0
M  V30 17285 H 1667.88 1.72499 -0.625805 0
M  V30 17286 H 1666.26 3.85301 0.914273 0
M  V30 17287 H 1667.44 4.18655 -1.92522 0
M  V30 17288 H 1665.75 3.84652 -1.59473 0
M  V30 17289 H 1668.35 5.28935 0.783069 0
M  V30 17290 H 1668.69 3.81801 1.65933 0
M  V30 17291 H 1669.23 3.97787 -0.0319078 0
M  V30 17292 H 1665.97 6.2445 -1.99355 0
M  V30 17293 H 1665.49 5.9905 -0.299902 0
M  V30 17294 H 1667.16 6.43229 -0.697538 0
M  V30 17295 N 1667.3 0.221601 1.56034 0
M  V30 17296 C 1668.21 -0.699837 2.23918 0
M  V30 17297 C 1669.22 -1.21367 1.24683 0
M  V30 17298 O 1670.4 -1.25527 1.57495 0
M  V30 17299 C 1667.46 -1.89107 2.90585 0
M  V30 17300 C 1666.52 -1.4192 4.05163 0
M  V30 17301 C 1665.76 -2.55365 4.68641 0
M  V30 17302 O 1665.98 -3.735 4.31108 0
M  V30 17303 O 1664.91 -2.26564 5.57631 0
M  V30 17304 H 1668.74 -0.151552 3.03322 0
M  V30 17305 H 1666.33 -0.0088482 1.49397 0
M  V30 17306 H 1668.21 -2.58674 3.32664 0
M  V30 17307 H 1666.88 -2.42745 2.14141 0
M  V30 17308 H 1665.79 -0.691536 3.67653 0
M  V30 17309 H 1667.12 -0.929189 4.8335 0
M  V30 17310 N 1668.77 -1.57515 -0.0517878 0
M  V30 17311 C 1670.02 -1.8935 -0.742852 0
M  V30 17312 C 1670.38 -0.817645 -1.74162 0
M  V30 17313 O 1669.67 0.176157 -1.90788 0
M  V30 17314 C 1669.86 -3.25625 -1.4732 0
M  V30 17315 C 1669.69 -4.46365 -0.546677 0
M  V30 17316 C 1668.46 -5.04993 -0.176143 0
M  V30 17317 C 1670.66 -5.14034 0.165236 0
M  V30 17318 N 1668.64 -6.09252 0.75401 0
M  V30 17319 C 1670.01 -6.1265 0.95185 0
M  V30 17320 C 1672.07 -4.97347 0.234592 0
M  V30 17321 C 1670.77 -6.96378 1.80141 0
M  V30 17322 C 1672.8 -5.81618 1.07119 0
M  V30 17323 C 1672.16 -6.79786 1.8458 0
M  V30 17324 H 1668.26 -0.742089 -0.246634 0
M  V30 17325 H 1670.84 -1.947 -0.00363349 0
M  V30 17326 H 1669.01 -3.21246 -2.18301 0
M  V30 17327 H 1670.74 -3.45045 -2.11485 0
M  V30 17328 H 1667.5 -4.70587 -0.5334 0
M  V30 17329 H 1667.92 -6.66046 1.21292 0
M  V30 17330 H 1672.57 -4.21349 -0.349957 0
M  V30 17331 H 1670.28 -7.71736 2.39685 0
M  V30 17332 H 1673.87 -5.70758 1.1281 0
M  V30 17333 H 1672.75 -7.43862 2.48271 0
M  V30 17334 N 1670.25 0.323614 -1.54242 0
M  V30 17335 C 1671.18 1.40344 -1.86616 0
M  V30 17336 C 1672.16 1.53972 -0.722963 0
M  V30 17337 O 1673.35 1.67852 -0.976692 0
M  V30 17338 C 1670.48 2.77112 -2.09347 0
M  V30 17339 C 1669.43 2.78273 -3.25189 0
M  V30 17340 C 1668.76 4.18116 -3.33291 0
M  V30 17341 C 1670.06 2.42025 -4.6284 0
M  V30 17342 H 1671.75 1.13499 -2.77053 0
M  V30 17343 H 1669.3 0.544553 -1.33306 0
M  V30 17344 H 1671.25 3.52719 -2.3058 0
M  V30 17345 H 1669.98 3.05435 -1.1566 0
M  V30 17346 H 1668.64 2.05121 -3.03844 0
M  V30 17347 H 1668.28 4.4358 -2.37163 0
M  V30 17348 H 1667.98 4.19799 -4.11147 0
M  V30 17349 H 1669.51 4.95536 -3.56758 0
M  V30 17350 H 1670.92 3.07346 -4.83954 0
M  V30 17351 H 1669.32 2.5496 -5.43245 0
M  V30 17352 H 1670.39 1.37175 -4.65092 0
M  V30 17353 N 1671.73 1.46313 0.585673 0
M  V30 17354 C 1672.68 1.56653 1.69495 0
M  V30 17355 C 1673.65 0.411007 1.60935 0
M  V30 17356 O 1674.83 0.627369 1.80191 0
M  V30 17357 C 1671.97 1.55996 3.0783 0
M  V30 17358 C 1671.09 2.82261 3.27036 0
M  V30 17359 C 1670.22 2.73129 4.55603 0
M  V30 17360 C 1669.26 3.94346 4.68143 0
M  V30 17361 N 1668.4 3.83617 5.88032 0
M  V30 17362 H 1673.24 2.51407 1.59995 0
M  V30 17363 H 1670.77 1.24729 0.779821 0
M  V30 17364 H 1672.73 1.53602 3.87895 0
M  V30 17365 H 1671.36 0.647766 3.16234 0
M  V30 17366 H 1670.41 2.94648 2.40596 0
M  V30 17367 H 1671.73 3.72107 3.32171 0
M  V30 17368 H 1670.88 2.68823 5.43893 0
M  V30 17369 H 1669.62 1.80917 4.52902 0
M  V30 17370 H 1668.62 3.98987 3.78272 0
M  V30 17371 H 1669.85 4.8765 4.72625 0
M  V30 17372 H 1667.8 2.9419 5.86334 0
M  V30 17373 H 1667.71 4.67117 5.94422 0
M  V30 17374 H 1668.98 3.83281 6.7876 0
M  V30 17375 N 1673.21 -0.830057 1.33969 0
M  V30 17376 C 1674.46 -1.58821 1.26111 0
M  V30 17377 C 1674.79 -1.9345 -0.170484 0
M  V30 17378 O 1674.06 -1.59433 -1.11407 0
M  V30 17379 C 1674.35 -2.89243 2.14501 0
M  V30 17380 C 1674.2 -2.61239 3.66162 0
M  V30 17381 C 1675.52 -3.90752 2.02487 0
M  V30 17382 H 1672.64 -0.576255 0.459455 0
M  V30 17383 H 1675.28 -0.956736 1.64154 0
M  V30 17384 H 1673.43 -3.43133 1.82186 0
M  V30 17385 H 1675.1 -2.13713 4.08809 0
M  V30 17386 H 1673.34 -1.94796 3.87604 0
M  V30 17387 H 1674.02 -3.54212 4.23365 0
M  V30 17388 H 1676.49 -3.46194 2.30844 0
M  V30 17389 H 1675.37 -4.79825 2.6657 0
M  V30 17390 H 1675.63 -4.30649 0.999704 0
M  V30 17391 N 1674.69 -1.17582 -1.04939 0
M  V30 17392 C 1675.63 -0.894855 -2.12746 0
M  V30 17393 C 1676.6 0.162261 -1.65306 0
M  V30 17394 O 1677.79 0.0245068 -1.90784 0
M  V30 17395 C 1674.93 -0.417085 -3.4257 0
M  V30 17396 C 1674.04 -1.53861 -4.03672 0
M  V30 17397 C 1673.18 -1.01446 -5.21423 0
M  V30 17398 C 1672.22 -2.11127 -5.74536 0
M  V30 17399 N 1671.35 -1.60169 -6.83586 0
M  V30 17400 H 1676.19 -1.81802 -2.36118 0
M  V30 17401 H 1673.73 -0.906716 -1.15832 0
M  V30 17402 H 1675.69 -0.121619 -4.17023 0
M  V30 17403 H 1674.32 0.469119 -3.19373 0
M  V30 17404 H 1673.37 -1.94975 -3.26633 0
M  V30 17405 H 1674.68 -2.36575 -4.39128 0
M  V30 17406 H 1673.84 -0.672992 -6.02956 0
M  V30 17407 H 1672.58 -0.156795 -4.87448 0
M  V30 17408 H 1671.58 -2.46128 -4.91631 0
M  V30 17409 H 1672.81 -2.97313 -6.10559 0
M  V30 17410 H 1670.75 -0.766783 -6.51503 0
M  V30 17411 H 1670.67 -2.36488 -7.18059 0
M  V30 17412 H 1671.94 -1.28923 -7.68765 0
M  V30 17413 N 1676.17 1.23705 -0.976463 0
M  V30 17414 C 1677.41 1.9132 -0.638714 0
M  V30 17415 C 1677.73 1.7707 0.830993 0
M  V30 17416 O 1678.93 2.39453 1.27964 0
M  V30 17417 C 1677.39 3.42941 -1.09178 0
M  V30 17418 C 1677 3.6586 -2.58555 0
M  V30 17419 C 1678.74 4.16355 -0.827585 0
M  V30 17420 C 1676.65 5.11096 -2.97549 0
M  V30 17421 H 1675.58 0.716382 -0.235187 0
M  V30 17422 H 1678.23 1.40205 -1.18384 0
M  V30 17423 H 1676.61 3.93142 -0.474893 0
M  V30 17424 H 1677.79 3.26221 -3.25448 0
M  V30 17425 H 1676.1 3.05748 -2.82678 0
M  V30 17426 H 1678.7 5.23372 -1.09482 0
M  V30 17427 H 1679.04 4.15629 0.236282 0
M  V30 17428 H 1679.57 3.7213 -1.40586 0
M  V30 17429 H 1676.31 5.1695 -4.03042 0
M  V30 17430 H 1675.83 5.51699 -2.35346 0
M  V30 17431 H 1677.51 5.79397 -2.87937 0
M  V30 17432 N 1677.64 0.747635 1.38738 0
M  V30 17433 C 1678.57 0.131317 2.3313 0
M  V30 17434 C 1679.55 -0.710229 1.54563 0
M  V30 17435 O 1680.74 -0.652631 1.82905 0
M  V30 17436 C 1677.87 -0.767168 3.38721 0
M  V30 17437 C 1676.82 -0.0288124 4.2799 0
M  V30 17438 C 1676.15 -1.04515 5.24386 0
M  V30 17439 C 1677.45 1.13608 5.09795 0
M  V30 17440 H 1679.14 0.91981 2.84921 0
M  V30 17441 H 1676.69 0.443764 1.36992 0
M  V30 17442 H 1678.64 -1.20796 4.03716 0
M  V30 17443 H 1677.37 -1.58792 2.85399 0
M  V30 17444 H 1676.03 0.392491 3.64493 0
M  V30 17445 H 1675.67 -1.8598 4.67355 0
M  V30 17446 H 1675.37 -0.555813 5.84965 0
M  V30 17447 H 1676.9 -1.48538 5.92257 0
M  V30 17448 H 1678.31 0.773129 5.68063 0
M  V30 17449 H 1676.71 1.55589 5.79579 0
M  V30 17450 H 1677.78 1.95182 4.43883 0
M  V30 17451 N 1679.12 -1.49583 0.496242 0
M  V30 17452 C 1680.53 -1.8664 0.0472756 0
M  V30 17453 C 1680.88 -1.40898 -1.36536 0
M  V30 17454 O 1680.01 -0.784796 -2.01668 0
M  V30 17455 C 1680.6 -3.38708 0.079016 0
M  V30 17456 C 1679.16 -3.75083 -0.314587 0
M  V30 17457 C 1678.31 -2.73565 0.453624 0
M  V30 17458 H 1681.26 -1.41969 0.709269 0
M  V30 17459 H 1681.28 -3.73676 -0.717396 0
M  V30 17460 H 1680.79 -3.71969 1.10727 0
M  V30 17461 H 1678.89 -3.47429 -1.34625 0
M  V30 17462 H 1679.01 -4.791 0.00155427 0
M  V30 17463 H 1677.37 -2.54519 -0.095937 0
M  V30 17464 H 1678.15 -3.0967 1.48186 0
M  V30 17465 N 1680.6 -0.229873 -1.55915 0
M  V30 17466 C 1681.51 0.687953 -2.24286 0
M  V30 17467 C 1682.53 1.20705 -1.25325 0
M  V30 17468 O 1683.7 1.2469 -1.58159 0
M  V30 17469 C 1680.77 1.87563 -2.91584 0
M  V30 17470 C 1679.83 1.39769 -4.0591 0
M  V30 17471 C 1679.06 2.52876 -4.69989 0
M  V30 17472 O 1679.28 3.71208 -4.33083 0
M  V30 17473 O 1678.22 2.23603 -5.58825 0
M  V30 17474 H 1682.04 0.135464 -3.03398 0
M  V30 17475 H 1679.63 0.000925172 -1.494 0
M  V30 17476 H 1681.51 2.56907 -3.34031 0
M  V30 17477 H 1680.19 2.41606 -2.15426 0
M  V30 17478 H 1679.09 0.672029 -3.68014 0
M  V30 17479 H 1680.43 0.903543 -4.83836 0
M  V30 17480 N 1682.08 1.5754 0.0434337 0
M  V30 17481 C 1683.32 1.88887 0.7382 0
M  V30 17482 C 1683.66 0.825827 1.75766 0
M  V30 17483 O 1682.93 -0.160797 1.93834 0
M  V30 17484 C 1683.21 3.30889 1.42072 0
M  V30 17485 C 1683.07 4.47874 0.415754 0
M  V30 17486 C 1684.39 3.71571 2.35846 0
M  V30 17487 H 1681.51 0.686975 0.266897 0
M  V30 17488 H 1684.15 1.9 0.00106957 0
M  V30 17489 H 1682.3 3.30071 2.04903 0
M  V30 17490 H 1683.97 4.60824 -0.209529 0
M  V30 17491 H 1682.21 4.32982 -0.266346 0
M  V30 17492 H 1682.88 5.44084 0.931509 0
M  V30 17493 H 1685.36 3.73663 1.83071 0
M  V30 17494 H 1684.24 4.71763 2.80589 0
M  V30 17495 H 1684.5 3.03041 3.21898 0
M  V30 17496 N 1683.56 -0.31543 1.54411 0
M  V30 17497 C 1684.5 -1.3885 1.84362 0
M  V30 17498 C 1685.47 -1.51028 0.69135 0
M  V30 17499 O 1686.66 -1.66119 0.938577 0
M  V30 17500 C 1683.8 -2.75085 2.0838 0
M  V30 17501 C 1682.91 -2.71473 3.36045 0
M  V30 17502 C 1682.05 -3.99608 3.49981 0
M  V30 17503 C 1681.08 -3.90335 4.71492 0
M  V30 17504 N 1680.22 -5.10216 4.82311 0
M  V30 17505 H 1685.06 -1.12609 2.75905 0
M  V30 17506 H 1682.6 -0.54495 1.36633 0
M  V30 17507 H 1684.56 -3.54295 2.20298 0
M  V30 17508 H 1683.19 -2.99618 1.2012 0
M  V30 17509 H 1682.24 -1.84209 3.32823 0
M  V30 17510 H 1683.55 -2.60507 4.25368 0
M  V30 17511 H 1682.7 -4.8725 3.61486 0
M  V30 17512 H 1681.44 -4.1339 2.58766 0
M  V30 17513 H 1680.45 -3.01077 4.60036 0
M  V30 17514 H 1681.67 -3.78111 5.641 0
M  V30 17515 H 1679.62 -5.24489 3.94014 0
M  V30 17516 H 1679.54 -5.01617 5.65612 0
M  V30 17517 H 1680.8 -5.99551 4.98156 0
M  V30 17518 N 1685.03 -1.46622 -0.577906 0
M  V30 17519 C 1685.94 -1.60143 -1.71439 0
M  V30 17520 C 1686.96 -0.484781 -1.6711 0
M  V30 17521 O 1688.14 -0.749551 -1.86932 0
M  V30 17522 C 1685.2 -1.59282 -3.07945 0
M  V30 17523 C 1684.26 -2.82216 -3.235 0
M  V30 17524 C 1683.5 -2.81387 -4.53495 0
M  V30 17525 O 1683.72 -1.90407 -5.37681 0
M  V30 17526 O 1682.65 -3.72991 -4.724 0
M  V30 17527 H 1686.48 -2.56265 -1.62978 0
M  V30 17528 H 1684.06 -1.2947 -0.745514 0
M  V30 17529 H 1685.95 -1.61515 -3.89218 0
M  V30 17530 H 1684.62 -0.663212 -3.16833 0
M  V30 17531 H 1683.53 -2.85536 -2.41702 0
M  V30 17532 H 1684.86 -3.74402 -3.19506 0
M  V30 17533 N 1686.51 0.822941 -1.34408 0
M  V30 17534 C 1687.46 1.93383 -1.25982 0
M  V30 17535 C 1688.43 1.6555 -0.13506 0
M  V30 17536 O 1689.61 1.88164 -0.316033 0
M  V30 17537 C 1686.75 3.29646 -1.02117 0
M  V30 17538 C 1685.87 3.69772 -2.23366 0
M  V30 17539 C 1685 4.94982 -1.92784 0
M  V30 17540 C 1684.04 5.2769 -3.10177 0
M  V30 17541 N 1683.18 6.44078 -2.79479 0
M  V30 17542 H 1688.02 1.99922 -2.20987 0
M  V30 17543 H 1685.56 0.978105 -1.0987 0
M  V30 17544 H 1687.51 4.08173 -0.863175 0
M  V30 17545 H 1686.14 3.2262 -0.107803 0
M  V30 17546 H 1685.2 2.86637 -2.50086 0
M  V30 17547 H 1686.51 3.89914 -3.11076 0
M  V30 17548 H 1685.66 5.81297 -1.73721 0
M  V30 17549 H 1684.4 4.76843 -1.02335 0
M  V30 17550 H 1683.41 4.39873 -3.29837 0
M  V30 17551 H 1684.63 5.47769 -4.01405 0
M  V30 17552 H 1682.58 6.27394 -1.91605 0
M  V30 17553 H 1682.49 6.64392 -3.60721 0
M  V30 17554 H 1683.76 7.33462 -2.63919 0
M  V30 17555 N 1687.99 1.18137 1.04314 0
M  V30 17556 C 1688.94 0.874118 2.10578 0
M  V30 17557 C 1689.92 -0.155094 1.60151 0
M  V30 17558 O 1691.12 0.0485958 1.76933 0
M  V30 17559 C 1688.25 0.3989 3.40975 0
M  V30 17560 C 1687.33 1.46004 3.98175 0
M  V30 17561 N 1687.72 2.67584 4.29223 0
M  V30 17562 C 1686.02 1.31997 4.2602 0
M  V30 17563 C 1686.72 3.35835 4.74963 0
M  V30 17564 N 1685.7 2.63216 4.75624 0
M  V30 17565 H 1689.5 1.79837 2.32456 0
M  V30 17566 H 1687.01 1.0714 1.22044 0
M  V30 17567 H 1689.01 0.160295 4.16592 0
M  V30 17568 H 1687.67 -0.519041 3.20525 0
M  V30 17569 H 1688.68 3.04473 4.18947 0
M  V30 17570 H 1685.36 0.464377 4.14909 0
M  V30 17571 H 1686.75 4.39727 5.08026 0
M  V30 17572 N 1689.47 -1.23186 0.98301 0
M  V30 17573 C 1690.38 -2.28448 0.533727 0
M  V30 17574 C 1691.39 -1.69034 -0.412732 0
M  V30 17575 O 1692.57 -1.99416 -0.282007 0
M  V30 17576 C 1689.64 -3.46357 -0.154179 0
M  V30 17577 C 1688.7 -4.21121 0.834009 0
M  V30 17578 C 1687.93 -5.334 0.178836 0
M  V30 17579 O 1688.15 -5.61032 -1.02952 0
M  V30 17580 O 1687.09 -5.95451 0.878722 0
M  V30 17581 H 1690.91 -2.69027 1.40919 0
M  V30 17582 H 1688.5 -1.29166 0.75077 0
M  V30 17583 H 1690.38 -4.17926 -0.539947 0
M  V30 17584 H 1689.05 -3.07724 -1.00437 0
M  V30 17585 H 1687.96 -3.51864 1.27053 0
M  V30 17586 H 1689.29 -4.6361 1.65309 0
M  V30 17587 N 1690.95 -0.754982 -1.38339 0
M  V30 17588 C 1692.19 -0.311762 -2.00086 0
M  V30 17589 C 1692.52 1.10693 -1.59929 0
M  V30 17590 O 1691.78 1.77279 -0.8289 0
M  V30 17591 C 1692.08 -0.383719 -3.55334 0
M  V30 17592 C 1691.74 -1.75826 -4.15206 0
M  V30 17593 C 1690.4 -2.13443 -4.31272 0
M  V30 17594 C 1692.76 -2.65985 -4.4822 0
M  V30 17595 C 1690.08 -3.40689 -4.77649 0
M  V30 17596 C 1692.44 -3.92623 -4.96014 0
M  V30 17597 C 1691.1 -4.30307 -5.10286 0
M  V30 17598 H 1690.37 -0.114082 -0.732166 0
M  V30 17599 H 1693.02 -0.965735 -1.65366 0
M  V30 17600 H 1691.32 0.353817 -3.90199 0
M  V30 17601 H 1693.02 -0.022341 -4.00994 0
M  V30 17602 H 1689.61 -1.45585 -4.03117 0
M  V30 17603 H 1693.79 -2.38188 -4.35408 0
M  V30 17604 H 1689.05 -3.69802 -4.86884 0
M  V30 17605 H 1693.22 -4.62626 -5.20529 0
M  V30 17606 H 1690.85 -5.28968 -5.45982 0
M  V30 17607 N 1692.42 1.49318 -0.504168 0
M  V30 17608 C 1693.35 2.32027 0.261837 0
M  V30 17609 C 1694.34 1.4045 0.959575 0
M  V30 17610 O 1695.52 1.69357 0.950365 0
M  V30 17611 C 1692.65 3.21039 1.3248 0
M  V30 17612 C 1691.6 4.21435 0.746752 0
M  V30 17613 C 1690.93 4.99405 1.91047 0
M  V30 17614 C 1692.23 5.21631 -0.264315 0
M  V30 17615 H 1693.92 2.96317 -0.428544 0
M  V30 17616 H 1691.47 1.42497 -0.207539 0
M  V30 17617 H 1693.42 3.77714 1.86843 0
M  V30 17618 H 1692.15 2.54699 2.04441 0
M  V30 17619 H 1690.81 3.6591 0.22485 0
M  V30 17620 H 1690.45 4.29509 2.61784 0
M  V30 17621 H 1690.15 5.67338 1.52975 0
M  V30 17622 H 1691.68 5.58924 2.45837 0
M  V30 17623 H 1693.09 5.72981 0.191288 0
M  V30 17624 H 1691.49 5.97472 -0.561039 0
M  V30 17625 H 1692.56 4.70346 -1.17911 0
M  V30 17626 N 1693.9 0.238138 1.5579 0
M  V30 17627 C 1694.85 -0.681413 2.22395 0
M  V30 17628 C 1695.84 -1.18691 1.20867 0
M  V30 17629 O 1697.05 -1.14482 1.38903 0
M  V30 17630 H 1693.43 -0.238207 0.713275 0
M  V30 17631 H 1695.4 -0.0964141 2.98244 0
M  V30 17632 C 1694.15 -1.87137 2.93045 0
M  V30 17633 H 1693.47 -1.49153 3.70936 0
M  V30 17634 H 1694.91 -2.4922 3.43024 0
M  V30 17635 C 1693.37 -2.73709 1.9643 0
M  V30 17636 O 1693.9 -3.72973 1.49178 0
M  V30 17637 N 1692.1 -2.40092 1.6372 0
M  V30 17638 H 1691.65 -1.59423 2.02341 0
M  V30 17639 H 1691.61 -2.98293 0.993414 0
M  V30 17640 N 1695.38 -1.57561 -0.0350783 0
M  V30 17641 C 1696.8 -1.54746 -0.390618 0
M  V30 17642 C 1697 -0.963454 -1.76974 0
M  V30 17643 O 1696.05 -0.581878 -2.45704 0
M  V30 17644 C 1697.37 -2.9922 -0.297984 0
M  V30 17645 C 1698.91 -3.10739 -0.375506 0
M  V30 17646 C 1699.39 -4.56933 -0.312387 0
M  V30 17647 N 1700.88 -4.61709 -0.371364 0
M  V30 17648 C 1701.61 -5.72359 -0.34532 0
M  V30 17649 N 1701.11 -6.92266 -0.271921 0
M  V30 17650 N 1702.9 -5.60713 -0.394605 0
M  V30 17651 H 1695.05 -1.93876 0.867519 0
M  V30 17652 H 1697.32 -0.888974 0.329285 0
M  V30 17653 H 1697.02 -3.45651 0.649499 0
M  V30 17654 H 1696.9 -3.60987 -1.094 0
M  V30 17655 H 1699.28 -2.6426 -1.31342 0
M  V30 17656 H 1699.37 -2.51815 0.449752 0
M  V30 17657 H 1699.01 -5.04079 0.621834 0
M  V30 17658 H 1698.94 -5.13762 -1.15567 0
M  V30 17659 H 1701.43 -3.75436 -0.430848 0
M  V30 17660 H 1701.74 -7.72373 -0.256983 0
M  V30 17661 H 1700.09 -6.94592 -0.238058 0
M  V30 17662 H 1703.28 -4.65933 -0.449896 0
M  V30 17663 H 1703.45 -6.46938 -0.37084 0
M  V30 17664 N 1696.86 0.307236 -1.54576 0
M  V30 17665 C 1697.79 1.38357 -1.88095 0
M  V30 17666 C 1698.77 1.53196 -0.739253 0
M  V30 17667 O 1699.95 1.66807 -0.99444 0
M  V30 17668 C 1697.08 2.74876 -2.12274 0
M  V30 17669 C 1696.04 2.74809 -3.28122 0
M  V30 17670 C 1695.36 4.14557 -3.37707 0
M  V30 17671 C 1696.66 2.37103 -4.65381 0
M  V30 17672 H 1698.36 1.10554 -2.78241 0
M  V30 17673 H 1695.9 0.530383 -1.33877 0
M  V30 17674 H 1697.86 3.50254 -2.34308 0
M  V30 17675 H 1696.58 3.04191 -1.18893 0
M  V30 17676 H 1695.24 2.01887 -3.06002 0
M  V30 17677 H 1694.89 4.41039 -2.41854 0
M  V30 17678 H 1694.59 4.15415 -4.15577 0
M  V30 17679 H 1696.11 4.91724 -3.61994 0
M  V30 17680 H 1697.53 3.02196 -4.87186 0
M  V30 17681 H 1695.92 2.49184 -5.45919 0
M  V30 17682 H 1696.99 1.32235 -4.66521 0
M  V30 17683 N 1698.34 1.46926 0.570122 0
M  V30 17684 C 1699.28 1.58442 1.67824 0
M  V30 17685 C 1700.25 0.428053 1.6049 0
M  V30 17686 O 1701.44 0.646445 1.79515 0
M  V30 17687 C 1698.58 1.59253 3.06158 0
M  V30 17688 C 1697.69 2.85714 3.24024 0
M  V30 17689 C 1696.83 2.77945 4.52681 0
M  V30 17690 C 1695.87 3.99289 4.63934 0
M  V30 17691 N 1695 3.89833 5.83931 0
M  V30 17692 H 1699.84 2.5309 1.5732 0
M  V30 17693 H 1697.38 1.25549 0.766548 0
M  V30 17694 H 1699.34 1.57707 3.86244 0
M  V30 17695 H 1697.97 0.68127 3.15529 0
M  V30 17696 H 1697.02 2.97184 2.37458 0
M  V30 17697 H 1698.33 3.7561 3.28206 0
M  V30 17698 H 1697.49 2.74576 5.41011 0
M  V30 17699 H 1696.22 1.85711 4.50958 0
M  V30 17700 H 1695.23 4.02976 3.74019 0
M  V30 17701 H 1696.45 4.92635 4.67427 0
M  V30 17702 H 1694.4 3.00393 5.83181 0
M  V30 17703 H 1694.32 4.73395 5.89434 0
M  V30 17704 H 1695.59 3.90459 6.74657 0
M  V30 17705 N 1699.82 -0.815801 1.34842 0
M  V30 17706 C 1700.75 -1.93493 1.22854 0
M  V30 17707 C 1701.76 -1.6207 0.15395 0
M  V30 17708 O 1702.95 -1.73811 0.406428 0
M  V30 17709 C 1700.05 -3.27622 0.867006 0
M  V30 17710 C 1699.22 -3.87017 2.03806 0
M  V30 17711 C 1698.28 -4.99536 1.65378 0
M  V30 17712 O 1697.31 -5.17453 2.37131 0
M  V30 17713 N 1698.51 -5.77674 0.572056 0
M  V30 17714 H 1701.27 -2.04307 2.19269 0
M  V30 17715 H 1698.84 -0.992752 1.27891 0
M  V30 17716 H 1700.83 -4.00353 0.59159 0
M  V30 17717 H 1699.4 -3.12599 -0.00717215 0
M  V30 17718 H 1698.62 -3.06592 2.4778 0
M  V30 17719 H 1699.91 -4.23431 2.82106 0
M  V30 17720 H 1699.3 -5.65695 -0.0242931 0
M  V30 17721 H 1697.86 -6.50825 0.356394 0
M  V30 17722 N 1701.29 -1.18689 -1.03686 0
M  V30 17723 C 1702.22 -0.94094 -2.13702 0
M  V30 17724 C 1703.2 0.12277 -1.69656 0
M  V30 17725 O 1704.39 -0.0306085 -1.94176 0
M  V30 17726 C 1701.52 -0.470054 -3.44104 0
M  V30 17727 C 1700.47 -1.47468 -4.01792 0
M  V30 17728 C 1699.8 -0.861174 -5.2772 0
M  V30 17729 C 1701.1 -2.85254 -4.37524 0
M  V30 17730 H 1702.79 -1.86102 -2.34534 0
M  V30 17731 H 1700.34 -0.896207 -1.12713 0
M  V30 17732 H 1702.29 -0.28533 -4.20433 0
M  V30 17733 H 1701.02 0.485604 -3.2297 0
M  V30 17734 H 1699.68 -1.64641 -3.2755 0
M  V30 17735 H 1699.32 0.10179 -5.02897 0
M  V30 17736 H 1699.02 -1.53196 -5.67278 0
M  V30 17737 H 1700.55 -0.687066 -6.06722 0
M  V30 17738 H 1701.96 -2.71711 -5.04823 0
M  V30 17739 H 1700.36 -3.49051 -4.88143 0
M  V30 17740 H 1701.43 -3.38516 -3.47181 0
M  V30 17741 N 1702.77 1.22662 -0.989529 0
M  V30 17742 C 1704.18 1.73116 -0.699124 0
M  V30 17743 C 1704.53 1.79847 0.784197 0
M  V30 17744 O 1703.66 1.44248 1.61311 0
M  V30 17745 C 1704.25 3.14403 -1.2624 0
M  V30 17746 C 1702.81 3.62275 -1.02144 0
M  V30 17747 C 1701.96 2.40257 -1.38463 0
M  V30 17748 H 1704.91 1.08057 -1.1623 0
M  V30 17749 H 1704.93 3.75091 -0.639307 0
M  V30 17750 H 1704.44 3.09472 -2.34198 0
M  V30 17751 H 1702.54 3.72577 0.0416622 0
M  V30 17752 H 1702.66 4.48587 -1.68245 0
M  V30 17753 H 1701.02 2.41705 -0.803179 0
M  V30 17754 H 1701.8 2.3799 -2.47418 0
M  V30 17755 N 1704.25 0.762308 1.37937 0
M  V30 17756 C 1705.18 0.156036 2.32978 0
M  V30 17757 C 1706.16 -0.693795 1.55308 0
M  V30 17758 O 1707.35 -0.633195 1.83587 0
M  V30 17759 C 1704.48 -0.731199 3.39515 0
M  V30 17760 C 1703.43 0.0165834 4.27997 0
M  V30 17761 C 1702.76 -0.989476 5.25465 0
M  V30 17762 C 1704.06 1.19009 5.08561 0
M  V30 17763 H 1705.75 0.949978 2.83929 0
M  V30 17764 H 1703.3 0.458269 1.36513 0
M  V30 17765 H 1705.25 -1.16507 4.04974 0
M  V30 17766 H 1703.97 -1.55756 2.87067 0
M  V30 17767 H 1702.63 0.431128 3.64056 0
M  V30 17768 H 1702.28 -1.81013 4.69301 0
M  V30 17769 H 1701.98 -0.493738 5.85522 0
M  V30 17770 H 1703.5 -1.42248 5.93799 0
M  V30 17771 H 1704.92 0.833336 5.67211 0
M  V30 17772 H 1703.31 1.61727 5.77896 0
M  V30 17773 H 1704.38 1.99879 4.41788 0
M  V30 17774 N 1705.73 -1.49049 0.51208 0
M  V30 17775 C 1706.66 -2.32163 -0.249529 0
M  V30 17776 C 1707.64 -1.40957 -0.952114 0
M  V30 17777 O 1708.82 -1.69858 -0.94137 0
M  V30 17778 C 1705.95 -3.21737 -1.30776 0
M  V30 17779 C 1704.91 -4.21825 -0.724392 0
M  V30 17780 C 1704.23 -5.00411 -1.88396 0
M  V30 17781 C 1705.53 -5.21483 0.291975 0
M  V30 17782 H 1707.23 -2.96086 0.444253 0
M  V30 17783 H 1704.77 -1.42385 0.215093 0
M  V30 17784 H 1706.73 -3.78699 -1.84837 0
M  V30 17785 H 1705.45 -2.55779 -2.03088 0
M  V30 17786 H 1704.11 -3.66024 -0.205441 0
M  V30 17787 H 1703.76 -4.30891 -2.59502 0
M  V30 17788 H 1703.46 -5.68141 -1.49964 0
M  V30 17789 H 1704.98 -5.6022 -2.42869 0
M  V30 17790 H 1706.4 -5.73074 -0.160899 0
M  V30 17791 H 1704.79 -5.97166 0.592717 0
M  V30 17792 H 1705.86 -4.69714 1.20404 0
M  V30 17793 N 1707.21 -0.246397 -1.55662 0
M  V30 17794 C 1708.12 0.664125 -2.25003 0
M  V30 17795 C 1709.13 1.19368 -1.26598 0
M  V30 17796 O 1710.31 1.23006 -1.59473 0
M  V30 17797 C 1707.37 1.8446 -2.93557 0
M  V30 17798 C 1706.43 1.35456 -4.0737 0
M  V30 17799 C 1705.67 2.47877 -4.72645 0
M  V30 17800 O 1705.89 3.66594 -4.36995 0
M  V30 17801 O 1704.82 2.17663 -5.61165 0
M  V30 17802 H 1708.65 0.103277 -3.03524 0
M  V30 17803 H 1706.23 -0.0149207 -1.49393 0
M  V30 17804 H 1708.12 2.53349 -3.36737 0
M  V30 17805 H 1706.79 2.39308 -2.17976 0
M  V30 17806 H 1705.7 0.632958 -3.68706 0
M  V30 17807 H 1707.03 0.852175 -4.84767 0
M  V30 17808 N 1708.68 1.57577 0.026722 0
M  V30 17809 C 1709.91 1.94035 0.732473 0
M  V30 17810 C 1710.33 0.846575 1.67972 0
M  V30 17811 O 1709.69 -0.197514 1.80221 0
M  V30 17812 C 1709.74 3.2956 1.46365 0
M  V30 17813 O 1708.84 3.21975 2.57694 0
M  V30 17814 H 1708.18 0.634155 0.196832 0
M  V30 17815 H 1710.71 2.04592 -0.018503 0
M  V30 17816 H 1710.72 3.64504 1.83305 0
M  V30 17817 H 1709.4 4.0873 0.768943 0
M  V30 17818 H 1707.98 2.98665 2.23279 0
M  V30 17819 N 1710.16 -0.299034 1.54737 0
M  V30 17820 C 1711.09 -1.39055 1.82199 0
M  V30 17821 C 1712.11 -1.46741 0.705038 0
M  V30 17822 O 1713.3 -1.49025 0.982543 0
M  V30 17823 C 1710.4 -2.7741 1.94671 0
M  V30 17824 C 1709.57 -2.92633 3.25092 0
M  V30 17825 C 1708.63 -4.11499 3.27956 0
M  V30 17826 O 1707.65 -4.03491 4.01477 0
M  V30 17827 N 1708.86 -5.2223 2.53488 0
M  V30 17828 H 1711.62 -1.15852 2.76402 0
M  V30 17829 H 1709.18 -0.489108 1.54335 0
M  V30 17830 H 1711.17 -3.55178 1.93987 0
M  V30 17831 H 1709.74 -2.93552 1.07453 0
M  V30 17832 H 1708.96 -2.01962 3.38534 0
M  V30 17833 H 1710.25 -2.99716 4.11154 0
M  V30 17834 H 1709.65 -5.31617 1.93391 0
M  V30 17835 H 1708.21 -5.98325 2.58555 0
M  V30 17836 N 1711.64 -1.47227 -0.562322 0
M  V30 17837 C 1712.89 -1.52851 -1.31604 0
M  V30 17838 C 1713.2 -0.193236 -1.94643 0
M  V30 17839 O 1714.41 -0.127429 -2.71201 0
M  V30 17840 C 1712.86 -2.69422 -2.3862 0
M  V30 17841 C 1712.47 -4.09457 -1.81794 0
M  V30 17842 C 1714.22 -2.84334 -3.15205 0
M  V30 17843 C 1712.12 -5.17337 -2.8656 0
M  V30 17844 H 1711.05 -0.568923 -0.494816 0
M  V30 17845 H 1713.7 -1.73489 -0.597819 0
M  V30 17846 H 1712.09 -2.42153 -3.13333 0
M  V30 17847 H 1713.26 -4.46606 -1.13487 0
M  V30 17848 H 1711.57 -3.99387 -1.17811 0
M  V30 17849 H 1714.17 -3.621 -3.93431 0
M  V30 17850 H 1714.51 -1.9259 -3.69073 0
M  V30 17851 H 1715.05 -3.11348 -2.47603 0
M  V30 17852 H 1711.79 -6.1094 -2.37554 0
M  V30 17853 H 1711.31 -4.8471 -3.53293 0
M  V30 17854 H 1712.99 -5.44065 -3.50146 0
M  V30 17855 N 1713.12 0.808639 -1.35273 0
M  V30 17856 C 1714.08 1.90195 -1.279 0
M  V30 17857 C 1715.08 1.59663 -0.190915 0
M  V30 17858 O 1716.27 1.68434 -0.444482 0
M  V30 17859 C 1713.4 3.26567 -0.978106 0
M  V30 17860 H 1714.6 1.98152 -2.25113 0
M  V30 17861 H 1712.15 1.00426 -1.19767 0
M  V30 17862 H 1712.88 3.24299 -0.00975789 0
M  V30 17863 H 1712.67 3.50114 -1.7653 0
M  V30 17864 H 1714.16 4.06602 -0.95207 0
M  V30 17865 N 1714.6 1.19237 1.03055 0
M  V30 17866 C 1715.82 1.01917 1.80057 0
M  V30 17867 C 1716.24 -0.43214 1.83788 0
M  V30 17868 O 1715.6 -1.30016 1.28071 0
M  V30 17869 C 1715.65 1.57912 3.25186 0
M  V30 17870 O 1715.37 2.97362 3.21725 0
M  V30 17871 C 1716.87 1.45352 4.18793 0
M  V30 17872 H 1714.09 0.359301 0.566696 0
M  V30 17873 H 1716.63 1.58015 1.29814 0
M  V30 17874 H 1714.79 1.05967 3.72625 0
M  V30 17875 H 1715.2 3.23674 4.12717 0
M  V30 17876 H 1716.68 1.89313 5.18521 0
M  V30 17877 H 1717.15 0.40378 4.3734 0
M  V30 17878 H 1717.76 1.96419 3.77226 0
M  V30 17879 N 1716.07 -1.22136 0.99602 0
M  V30 17880 C 1717.32 -1.9028 0.66907 0
M  V30 17881 C 1717.64 -1.7837 -0.802717 0
M  V30 17882 O 1718.84 -2.41458 -1.24138 0
M  V30 17883 C 1717.3 -3.4116 1.1462 0
M  V30 17884 C 1716.91 -3.617 2.64343 0
M  V30 17885 C 1718.65 -4.14985 0.893718 0
M  V30 17886 C 1716.56 -5.06297 3.05642 0
M  V30 17887 H 1715.49 -0.71255 0.246554 0
M  V30 17888 H 1718.14 -1.38304 1.20599 0
M  V30 17889 H 1716.52 -3.92337 0.537378 0
M  V30 17890 H 1717.69 -3.21002 3.30597 0
M  V30 17891 H 1716.01 -3.01212 2.87507 0
M  V30 17892 H 1718.61 -5.21564 1.17794 0
M  V30 17893 H 1718.95 -4.15952 -0.17013 0
M  V30 17894 H 1719.48 -3.69846 1.46488 0
M  V30 17895 H 1716.22 -5.10472 4.11216 0
M  V30 17896 H 1715.74 -5.47885 2.44094 0
M  V30 17897 H 1717.42 -5.74743 2.97118 0
M  V30 17898 N 1717.55 -0.769612 -1.37531 0
M  V30 17899 C 1718.46 -0.15514 -2.34086 0
M  V30 17900 C 1719.48 0.682108 -1.60073 0
M  V30 17901 O 1720.65 0.602527 -1.92176 0
M  V30 17902 C 1717.72 0.715344 -3.3924 0
M  V30 17903 C 1716.78 -0.138116 -4.29078 0
M  V30 17904 C 1716.01 0.690916 -5.29209 0
M  V30 17905 O 1716.24 1.92812 -5.36824 0
M  V30 17906 O 1715.17 0.101247 -6.01815 0
M  V30 17907 H 1719 -0.952968 -2.88361 0
M  V30 17908 H 1716.58 -0.530738 -1.39655 0
M  V30 17909 H 1718.46 1.21236 -4.03584 0
M  V30 17910 H 1717.14 1.4914 -2.87296 0
M  V30 17911 H 1716.05 -0.681443 -3.67841 0
M  V30 17912 H 1717.38 -0.877202 -4.8432 0
M  V30 17913 N 1719.03 1.48775 -0.519977 0
M  V30 17914 C 1719.96 2.27418 0.285222 0
M  V30 17915 C 1720.98 1.34753 0.91354 0
M  V30 17916 O 1722.16 1.59885 0.793672 0
M  V30 17917 C 1719.26 3.07799 1.41821 0
M  V30 17918 C 1718.44 4.28173 0.893682 0
M  V30 17919 C 1717.5 4.90445 1.90658 0
M  V30 17920 O 1716.52 5.49957 1.46751 0
M  V30 17921 N 1717.72 4.8179 3.23819 0
M  V30 17922 H 1720.49 2.97162 -0.38921 0
M  V30 17923 H 1718.05 1.5799 -0.353684 0
M  V30 17924 H 1720.04 3.46329 2.09377 0
M  V30 17925 H 1718.61 2.4054 1.99648 0
M  V30 17926 H 1717.83 3.94177 0.0424379 0
M  V30 17927 H 1719.12 5.06116 0.521952 0
M  V30 17928 H 1718.52 4.34573 3.62164 0
M  V30 17929 H 1717.08 5.2445 3.87035 0
M  V30 17930 N 1720.51 0.254649 1.55529 0
M  V30 17931 C 1721.73 -0.374795 2.03985 0
M  V30 17932 C 1722.16 -1.50188 1.13249 0
M  V30 17933 O 1721.52 -1.80855 0.126963 0
M  V30 17934 C 1721.56 -0.852635 3.50375 0
M  V30 17935 O 1720.67 -1.9616 3.6276 0
M  V30 17936 H 1720.01 -0.0806157 0.659088 0
M  V30 17937 H 1722.54 0.38297 2.00984 0
M  V30 17938 H 1722.55 -1.15381 3.91345 0
M  V30 17939 H 1721.22 -0.0279044 4.15891 0
M  V30 17940 H 1719.8 -1.66453 3.33688 0
M  V30 17941 N 1721.99 -1.57589 -0.0183649 0
M  V30 17942 C 1722.95 -2.06217 -1.00035 0
M  V30 17943 C 1723.95 -0.968195 -1.28385 0
M  V30 17944 O 1725.14 -1.23147 -1.23209 0
M  V30 17945 C 1722.27 -2.48815 -2.33032 0
M  V30 17946 H 1723.46 -2.94236 -0.580085 0
M  V30 17947 H 1721.02 -1.5403 -0.265438 0
M  V30 17948 H 1721.75 -1.63985 -2.79785 0
M  V30 17949 H 1721.54 -3.28694 -2.13781 0
M  V30 17950 H 1723.03 -2.86828 -3.03512 0
M  V30 17951 N 1723.46 0.290824 -1.54893 0
M  V30 17952 C 1724.88 0.86313 -1.6555 0
M  V30 17953 C 1725.23 1.87713 -0.570806 0
M  V30 17954 O 1724.35 2.14437 0.290826 0
M  V30 17955 C 1724.95 1.57231 -3.00107 0
M  V30 17956 C 1723.51 2.09288 -3.1285 0
M  V30 17957 C 1722.65 0.928933 -2.61278 0
M  V30 17958 H 1725.6 0.0675807 -1.58556 0
M  V30 17959 H 1725.62 2.43841 -2.92099 0
M  V30 17960 H 1725.14 0.834055 -3.79032 0
M  V30 17961 H 1723.24 2.86129 -2.38665 0
M  V30 17962 H 1723.35 2.32042 -4.19158 0
M  V30 17963 H 1721.71 1.31735 -2.17986 0
M  V30 17964 H 1722.5 0.204475 -3.42691 0
M  V30 17965 N 1724.94 1.47523 0.554506 0
M  V30 17966 C 1726.17 1.58154 1.34172 0
M  V30 17967 C 1726.59 0.233124 1.8665 0
M  V30 17968 O 1725.95 -0.791439 1.63113 0
M  V30 17969 C 1726 2.61242 2.48566 0
M  V30 17970 O 1725.1 2.167 3.50877 0
M  V30 17971 H 1724.44 0.531184 0.398421 0
M  V30 17972 H 1726.97 1.93324 0.669841 0
M  V30 17973 H 1726.98 2.81746 2.95098 0
M  V30 17974 H 1725.66 3.59148 2.09727 0
M  V30 17975 H 1724.24 2.06305 3.10632 0
M  V30 17976 N 1726.42 -0.801453 1.357 0
M  V30 17977 C 1727.35 -1.92179 1.24899 0
M  V30 17978 C 1728.37 -1.61898 0.171131 0
M  V30 17979 O 1729.55 -1.73371 0.42484 0
M  V30 17980 C 1726.65 -3.26684 0.901706 0
M  V30 17981 C 1725.83 -3.84833 2.07899 0
M  V30 17982 C 1724.89 -4.97754 1.70667 0
M  V30 17983 O 1723.91 -5.14909 2.42605 0
M  V30 17984 N 1725.11 -5.77035 0.633294 0
M  V30 17985 H 1727.88 -2.0197 2.21423 0
M  V30 17986 H 1725.44 -0.979132 1.28936 0
M  V30 17987 H 1727.43 -3.99703 0.63402 0
M  V30 17988 H 1726 -3.12589 0.0259836 0
M  V30 17989 H 1725.22 -3.03947 2.51018 0
M  V30 17990 H 1726.51 -4.20415 2.86581 0
M  V30 17991 H 1725.91 -5.65689 0.0357078 0
M  V30 17992 H 1724.47 -6.5041 0.425402 0
M  V30 17993 N 1727.9 -1.19782 -1.02421 0
M  V30 17994 C 1729.15 -1.00133 -1.7555 0
M  V30 17995 C 1729.47 0.468503 -1.89288 0
M  V30 17996 O 1728.74 1.3391 -1.42986 0
M  V30 17997 H 1727.32 -0.367513 -0.650341 0
M  V30 17998 H 1729.98 -1.50758 -1.23523 0
M  V30 17999 H 1729.08 -1.45329 -2.76199 0
M  V30 18000 N 1729.38 1.21606 -1.00248 0
M  V30 18001 C 1730.65 1.86191 -0.599348 0
M  V30 18002 C 1731.03 1.89847 0.923104 0
M  V30 18003 O 1730.38 1.39595 1.80902 0
M  V30 18004 C 1730.59 3.26576 -1.23082 0
M  V30 18005 C 1731.94 4.02989 -1.33736 0
M  V30 18006 O 1732.96 3.35877 -1.18595 0
M  V30 18007 O 1731.82 5.23142 -1.58065 0
M  V30 18008 H 1728.92 0.801204 -0.204943 0
M  V30 18009 H 1731.46 1.29309 -1.09897 0
M  V30 18010 H 1730.24 3.18601 -2.27176 0
M  V30 18011 H 1729.86 3.91074 -0.717394 0
M  V30 18012 N 1730.86 0.776895 1.37121 0
M  V30 18013 C 1731.79 0.124809 2.2886 0
M  V30 18014 C 1732.8 -0.658655 1.48881 0
M  V30 18015 O 1733.99 -0.4959 1.71473 0
M  V30 18016 C 1731.09 -0.84672 3.28152 0
M  V30 18017 C 1730.26 -0.11598 4.37246 0
M  V30 18018 C 1729.32 -1.00162 5.16579 0
M  V30 18019 O 1728.35 -0.463491 5.6731 0
M  V30 18020 N 1729.55 -2.32733 5.31804 0
M  V30 18021 H 1732.31 0.91278 2.85462 0
M  V30 18022 H 1729.88 0.629695 1.49152 0
M  V30 18023 H 1731.87 -1.44275 3.78109 0
M  V30 18024 H 1730.44 -1.53563 2.72281 0
M  V30 18025 H 1729.66 0.661015 3.88618 0
M  V30 18026 H 1730.95 0.388757 5.07313 0
M  V30 18027 H 1730.34 -2.78882 4.9218 0
M  V30 18028 H 1728.9 -2.8733 5.85051 0
M  V30 18029 N 1732.33 -1.48497 0.527859 0
M  V30 18030 C 1733.24 -2.3337 -0.239957 0
M  V30 18031 C 1734.26 -1.46353 -0.941101 0
M  V30 18032 O 1735.44 -1.79337 -0.916532 0
M  V30 18033 C 1732.5 -3.22421 -1.27458 0
M  V30 18034 C 1731.56 -4.25309 -0.584017 0
M  V30 18035 C 1730.79 -5.10105 -1.56935 0
M  V30 18036 O 1731.02 -4.96846 -2.80178 0
M  V30 18037 O 1729.95 -5.91578 -1.10991 0
M  V30 18038 H 1733.78 -3.00265 0.455458 0
M  V30 18039 H 1731.36 -1.46582 0.288809 0
M  V30 18040 H 1733.24 -3.7751 -1.87254 0
M  V30 18041 H 1731.92 -2.58189 -1.95244 0
M  V30 18042 H 1730.83 -3.7406 0.0543828 0
M  V30 18043 H 1732.16 -4.92173 0.0518646 0
M  V30 18044 N 1733.81 -0.262893 -1.55392 0
M  V30 18045 C 1734.74 0.66288 -2.19405 0
M  V30 18046 C 1735.76 1.12675 -1.17508 0
M  V30 18047 O 1736.95 1.05077 -1.44295 0
M  V30 18048 C 1734.05 1.91471 -2.79628 0
M  V30 18049 C 1733.22 1.59966 -4.07099 0
M  V30 18050 C 1732.28 2.7027 -4.51487 0
M  V30 18051 O 1731.3 2.36976 -5.17524 0
M  V30 18052 N 1732.51 4.0009 -4.20605 0
M  V30 18053 H 1735.27 0.115075 -2.99479 0
M  V30 18054 H 1732.83 -0.0834933 -1.61685 0
M  V30 18055 H 1734.82 2.64535 -3.06273 0
M  V30 18056 H 1733.39 2.37188 -2.03619 0
M  V30 18057 H 1732.61 0.703431 -3.87873 0
M  V30 18058 H 1733.9 1.36402 -4.90175 0
M  V30 18059 H 1733.3 4.29966 -3.67621 0
M  V30 18060 H 1731.86 4.69569 -4.52049 0
M  V30 18061 N 1735.29 1.57597 0.0100073 0
M  V30 18062 C 1736.22 2.10825 1.00375 0
M  V30 18063 C 1737.2 1.01507 1.36493 0
M  V30 18064 O 1738.39 1.29136 1.45043 0
M  V30 18065 C 1735.52 2.60334 2.29878 0
M  V30 18066 C 1734.47 3.74087 2.07949 0
M  V30 18067 C 1733.8 4.09873 3.43378 0
M  V30 18068 C 1735.1 5.01764 1.45018 0
M  V30 18069 H 1736.79 2.94105 0.560591 0
M  V30 18070 H 1734.34 1.4148 0.268208 0
M  V30 18071 H 1736.29 2.96196 2.99743 0
M  V30 18072 H 1735.01 1.74162 2.76288 0
M  V30 18073 H 1733.67 3.38603 1.40512 0
M  V30 18074 H 1733.32 3.20739 3.87473 0
M  V30 18075 H 1733.02 4.86505 3.29525 0
M  V30 18076 H 1734.54 4.48285 4.14575 0
M  V30 18077 H 1735.96 5.35462 2.04826 0
M  V30 18078 H 1734.35 5.83135 1.41683 0
M  V30 18079 H 1735.42 4.83093 0.41819 0
M  V30 18080 N 1736.77 -0.282606 1.55045 0
M  V30 18081 C 1738.01 -1.01547 1.75198 0
M  V30 18082 C 1738.34 -1.86627 0.54779 0
M  V30 18083 O 1737.6 -1.89974 -0.46993 0
M  V30 18084 C 1737.9 -1.93554 3.00452 0
M  V30 18085 C 1737.56 -1.24303 4.33428 0
M  V30 18086 C 1736.22 -1.0515 4.69571 0
M  V30 18087 C 1738.58 -0.749451 5.15784 0
M  V30 18088 C 1735.9 -0.353528 5.85634 0
M  V30 18089 C 1738.26 -0.0651157 6.32566 0
M  V30 18090 C 1736.92 0.138206 6.67357 0
M  V30 18091 H 1736.19 -0.371587 0.641096 0
M  V30 18092 H 1738.84 -0.288623 1.89312 0
M  V30 18093 H 1737.14 -2.72828 2.81197 0
M  V30 18094 H 1738.84 -2.50363 3.1324 0
M  V30 18095 H 1735.43 -1.4022 4.05014 0
M  V30 18096 H 1739.61 -0.885074 4.88344 0
M  V30 18097 H 1734.87 -0.185186 6.11119 0
M  V30 18098 H 1739.04 0.325146 6.95641 0
M  V30 18099 H 1736.67 0.681034 7.57143 0
M  V30 18100 N 1738.25 -1.47815 -0.546675 0
M  V30 18101 C 1739.47 -1.58864 -1.33331 0
M  V30 18102 C 1739.9 -0.24302 -1.86524 0
M  V30 18103 O 1739.25 0.782777 -1.63531 0
M  V30 18104 C 1739.3 -2.62556 -2.47177 0
M  V30 18105 O 1738.41 -2.18558 -3.49723 0
M  V30 18106 H 1737.75 -0.53329 -0.395598 0
M  V30 18107 H 1740.28 -1.93677 -0.659579 0
M  V30 18108 H 1740.29 -2.83307 -2.936 0
M  V30 18109 H 1738.96 -3.60255 -2.0782 0
M  V30 18110 H 1737.54 -2.0795 -3.09534 0
M  V30 18111 N 1739.72 0.794246 -1.36123 0
M  V30 18112 C 1740.67 1.92808 -1.30108 0
M  V30 18113 C 1741.67 1.68289 -0.193734 0
M  V30 18114 O 1742.87 1.76354 -0.360454 0
M  V30 18115 H 1739.25 0.633671 -0.404926 0
M  V30 18116 H 1741.22 1.95 -2.2587 0
M  V30 18117 C 1739.97 3.29762 -1.10238 0
M  V30 18118 H 1739.29 3.49193 -1.9469 0
M  V30 18119 H 1740.73 4.09463 -1.10073 0
M  V30 18120 C 1739.19 3.36345 0.193222 0
M  V30 18121 O 1739.72 3.83832 1.18474 0
M  V30 18122 N 1737.92 2.89638 0.236243 0
M  V30 18123 H 1737.47 2.51186 -0.571245 0
M  V30 18124 H 1737.43 2.94424 1.1028 0
M  V30 18125 N 1741.2 1.20323 1.01785 0
M  V30 18126 C 1742.45 1.01413 1.75623 0
M  V30 18127 C 1742.78 -0.452801 1.88847 0
M  V30 18128 O 1742.06 -1.33618 1.41338 0
M  V30 18129 C 1742.34 1.69686 3.17614 0
M  V30 18130 C 1742.19 3.23815 3.12192 0
M  V30 18131 C 1743.51 1.42891 4.16257 0
M  V30 18132 H 1740.63 0.369822 0.637495 0
M  V30 18133 H 1743.27 1.4832 1.18749 0
M  V30 18134 H 1741.42 1.29806 3.66173 0
M  V30 18135 H 1743.09 3.72981 2.71446 0
M  V30 18136 H 1741.34 3.54785 2.4962 0
M  V30 18137 H 1742.01 3.66741 4.12559 0
M  V30 18138 H 1744.48 1.77486 3.76348 0
M  V30 18139 H 1743.36 1.93195 5.13777 0
M  V30 18140 H 1743.62 0.356263 4.40662 0
M  V30 18141 N 1742.68 -1.21073 1.00892 0
M  V30 18142 C 1743.61 -2.22968 0.530841 0
M  V30 18143 C 1744.62 -1.58239 -0.382664 0
M  V30 18144 O 1745.81 -1.77567 -0.182237 0
M  V30 18145 C 1742.91 -3.37991 -0.248096 0
M  V30 18146 C 1742.09 -4.32309 0.665439 0
M  V30 18147 C 1741.15 -5.2616 -0.0645731 0
M  V30 18148 O 1740.17 -5.66484 0.555383 0
M  V30 18149 N 1741.37 -5.64777 -1.3419 0
M  V30 18150 H 1744.14 -2.64614 1.4071 0
M  V30 18151 H 1741.7 -1.35536 0.885528 0
M  V30 18152 H 1743.69 -3.97774 -0.745513 0
M  V30 18153 H 1742.26 -2.95297 -1.02558 0
M  V30 18154 H 1741.48 -3.70607 1.34329 0
M  V30 18155 H 1742.77 -4.92254 1.28701 0
M  V30 18156 H 1742.17 -5.34016 -1.86664 0
M  V30 18157 H 1740.72 -6.26905 -1.78419 0
M  V30 18158 N 1744.16 -0.784156 -1.36707 0
M  V30 18159 C 1745.39 -0.365371 -2.03344 0
M  V30 18160 C 1745.8 1.02133 -1.59266 0
M  V30 18161 O 1745.14 1.66547 -0.775098 0
M  V30 18162 C 1745.2 -0.343819 -3.57852 0
M  V30 18163 C 1744.87 -1.6772 -4.25111 0
M  V30 18164 C 1745.86 -2.63179 -4.48367 0
M  V30 18165 C 1743.55 -1.95505 -4.62691 0
M  V30 18166 C 1745.54 -3.84621 -5.08277 0
M  V30 18167 C 1743.23 -3.17215 -5.2232 0
M  V30 18168 C 1744.23 -4.11592 -5.45052 0
M  V30 18169 O 1743.91 -5.31157 -6.0343 0
M  V30 18170 H 1743.65 -0.14936 -0.659293 0
M  V30 18171 H 1746.2 -1.06269 -1.75772 0
M  V30 18172 H 1744.43 0.409964 -3.84521 0
M  V30 18173 H 1746.12 0.0495818 -4.0587 0
M  V30 18174 H 1746.89 -2.42998 -4.19735 0
M  V30 18175 H 1742.76 -1.22867 -4.44325 0
M  V30 18176 H 1746.31 -4.58298 -5.25936 0
M  V30 18177 H 1742.21 -3.37276 -5.50377 0
M  V30 18178 H 1742.97 -5.32149 -6.219 0
M  V30 18179 N 1745.64 1.48215 -0.535727 0
M  V30 18180 C 1746.88 2.025 -0.00372753 0
M  V30 18181 C 1747.21 1.41227 1.33735 0
M  V30 18182 O 1746.47 0.549544 1.87826 0
M  V30 18183 C 1746.77 3.57036 0.161344 0
M  V30 18184 C 1746.43 4.37122 -1.10611 0
M  V30 18185 C 1745.09 4.58724 -1.45346 0
M  V30 18186 C 1747.45 4.83469 -1.94698 0
M  V30 18187 C 1744.77 5.2392 -2.64055 0
M  V30 18188 C 1747.13 5.49973 -3.1259 0
M  V30 18189 C 1745.79 5.69812 -3.47664 0
M  V30 18190 H 1745.06 0.740999 -0.001364 0
M  V30 18191 H 1747.71 1.78133 -0.70291 0
M  V30 18192 H 1746.01 3.80274 0.943337 0
M  V30 18193 H 1747.71 3.96666 0.587981 0
M  V30 18194 H 1744.3 4.20573 -0.825608 0
M  V30 18195 H 1748.48 4.66577 -1.69173 0
M  V30 18196 H 1743.74 5.37477 -2.91424 0
M  V30 18197 H 1747.91 5.84852 -3.78049 0
M  V30 18198 H 1745.54 6.20103 -4.39746 0
M  V30 18199 N 1747.11 0.27113 1.5525 0
M  V30 18200 C 1748.08 -0.604946 2.21072 0
M  V30 18201 C 1749.08 -1.08438 1.18735 0
M  V30 18202 O 1750.27 -0.985192 1.43665 0
M  V30 18203 C 1747.4 -1.83416 2.87353 0
M  V30 18204 H 1748.59 -0.0302981 2.99885 0
M  V30 18205 H 1746.15 0.0217204 1.56285 0
M  V30 18206 H 1746.88 -2.44942 2.12542 0
M  V30 18207 H 1746.67 -1.49834 3.62343 0
M  V30 18208 H 1748.16 -2.45724 3.37653 0
M  V30 18209 N 1748.59 -1.576 -0.00164943 0
M  V30 18210 C 1749.54 -2.04799 -1.00207 0
M  V30 18211 C 1750.53 -0.9424 -1.30413 0
M  V30 18212 O 1751.72 -1.20618 -1.29539 0
M  V30 18213 C 1748.85 -2.55349 -2.29459 0
M  V30 18214 C 1747.93 -3.72782 -2.02224 0
M  V30 18215 N 1748.32 -4.84528 -1.45142 0
M  V30 18216 C 1746.62 -3.80681 -2.32375 0
M  V30 18217 C 1747.32 -5.65975 -1.34339 0
M  V30 18218 N 1746.3 -5.11927 -1.82844 0
M  V30 18219 H 1750.1 -2.88608 -0.555191 0
M  V30 18220 H 1747.62 -1.6107 -0.20738 0
M  V30 18221 H 1749.61 -2.87438 -3.01969 0
M  V30 18222 H 1748.27 -1.72957 -2.74802 0
M  V30 18223 H 1749.28 -5.05412 -1.13045 0
M  V30 18224 H 1745.96 -3.09141 -2.80603 0
M  V30 18225 H 1747.35 -6.65782 -0.904622 0
M  V30 18226 N 1750.07 0.274379 -1.55193 0
M  V30 18227 C 1751.3 1.02295 -1.79497 0
M  V30 18228 C 1751.71 1.80479 -0.567805 0
M  V30 18229 O 1751.05 1.77517 0.472601 0
M  V30 18230 C 1751.11 2.02986 -2.9671 0
M  V30 18231 C 1750.78 1.43753 -4.33802 0
M  V30 18232 C 1751.77 0.853898 -5.1284 0
M  V30 18233 C 1749.46 1.46514 -4.80457 0
M  V30 18234 C 1751.45 0.305773 -6.36666 0
M  V30 18235 C 1749.14 0.913158 -6.04239 0
M  V30 18236 C 1750.14 0.33447 -6.82181 0
M  V30 18237 O 1749.83 -0.209069 -8.03628 0
M  V30 18238 H 1749.56 0.307952 -0.601782 0
M  V30 18239 H 1752.11 0.310987 -2.03032 0
M  V30 18240 H 1750.34 2.77937 -2.68864 0
M  V30 18241 H 1752.03 2.6396 -3.0835 0
M  V30 18242 H 1752.8 0.825268 -4.77927 0
M  V30 18243 H 1748.68 1.90496 -4.198 0
M  V30 18244 H 1752.22 -0.146553 -6.97446 0
M  V30 18245 H 1748.12 0.939023 -6.38633 0
M  V30 18246 H 1748.89 -0.0982973 -8.18441 0
M  V30 18247 N 1751.55 1.48103 0.538828 0
M  V30 18248 C 1752.79 1.5726 1.3057 0
M  V30 18249 C 1753.15 0.237208 1.90529 0
M  V30 18250 O 1754.35 0.203723 2.68027 0
M  V30 18251 C 1752.62 2.67292 2.37254 0
M  V30 18252 S 1754.18 2.96157 3.23785 0
M  V30 18253 H 1751 0.555112 0.444265 0
M  V30 18254 H 1753.6 1.8558 0.614855 0
M  V30 18255 H 1752.31 3.62892 1.91671 0
M  V30 18256 H 1751.84 2.40846 3.11057 0
M  V30 18257 H 1753.85 2.34777 4.37143 0
M  V30 18258 N 1753.03 -0.787016 1.36542 0
M  V30 18259 C 1754.44 -1.08541 1.17008 0
M  V30 18260 C 1754.64 -2.015 -0.00419378 0
M  V30 18261 O 1753.7 -2.43481 -0.668826 0
M  V30 18262 C 1755.01 -1.69758 2.48199 0
M  V30 18263 C 1756.56 -1.82088 2.54584 0
M  V30 18264 C 1757.03 -2.46719 3.85868 0
M  V30 18265 N 1758.53 -2.54185 3.87227 0
M  V30 18266 C 1759.26 -3.05008 4.85549 0
M  V30 18267 N 1758.76 -3.56121 5.94264 0
M  V30 18268 N 1760.55 -3.03742 4.72966 0
M  V30 18269 H 1752.7 -0.16948 2.11723 0
M  V30 18270 H 1754.96 -0.137802 0.937931 0
M  V30 18271 H 1754.67 -1.08922 3.34408 0
M  V30 18272 H 1754.54 -2.69237 2.6418 0
M  V30 18273 H 1756.93 -2.42061 1.68792 0
M  V30 18274 H 1757.01 -0.814071 2.42501 0
M  V30 18275 H 1756.66 -1.87389 4.72068 0
M  V30 18276 H 1756.59 -3.47975 3.95248 0
M  V30 18277 H 1759.08 -2.17995 3.08685 0
M  V30 18278 H 1759.39 -3.93259 6.65257 0
M  V30 18279 H 1757.73 -3.54266 5.9793 0
M  V30 18280 H 1760.93 -2.63102 3.87163 0
M  V30 18281 H 1761.1 -3.43043 5.49751 0
M  V30 18282 N 1754.5 -1.20861 -1.01145 0
M  V30 18283 C 1755.45 -0.962085 -2.09792 0
M  V30 18284 C 1756.42 0.109588 -1.65738 0
M  V30 18285 O 1757.61 -0.0362022 -1.90766 0
M  V30 18286 C 1754.75 -0.52586 -3.4107 0
M  V30 18287 C 1753.86 -1.66626 -3.98572 0
M  V30 18288 C 1752.99 -1.17983 -5.17932 0
M  V30 18289 C 1752.03 -2.29298 -5.67529 0
M  V30 18290 N 1751.17 -1.81836 -6.78145 0
M  V30 18291 H 1756.01 -1.89222 -2.30215 0
M  V30 18292 H 1753.55 -0.943108 -1.12889 0
M  V30 18293 H 1755.51 -0.25423 -4.16425 0
M  V30 18294 H 1754.14 0.367275 -3.20704 0
M  V30 18295 H 1753.19 -2.05268 -3.20264 0
M  V30 18296 H 1754.5 -2.50426 -4.3138 0
M  V30 18297 H 1753.65 -0.864477 -6.0051 0
M  V30 18298 H 1752.39 -0.311793 -4.86702 0
M  V30 18299 H 1751.4 -2.61644 -4.83552 0
M  V30 18300 H 1752.62 -3.16587 -6.00791 0
M  V30 18301 H 1750.57 -0.973665 -6.48734 0
M  V30 18302 H 1750.49 -2.59213 -7.10172 0
M  V30 18303 H 1751.75 -1.53315 -7.64274 0
M  V30 18304 N 1755.98 1.20536 -1.01532 0
M  V30 18305 C 1757.21 1.93571 -0.722055 0
M  V30 18306 C 1757.62 1.74923 0.721011 0
M  V30 18307 O 1756.96 1.05961 1.5006 0
M  V30 18308 C 1757.03 3.45989 -0.97632 0
M  V30 18309 C 1756.69 3.88397 -2.40825 0
M  V30 18310 C 1757.69 3.94262 -3.38901 0
M  V30 18311 C 1755.37 4.20422 -2.74865 0
M  V30 18312 C 1757.37 4.3156 -4.69078 0
M  V30 18313 C 1755.05 4.57395 -4.05256 0
M  V30 18314 C 1756.05 4.62937 -5.02174 0
M  V30 18315 O 1755.74 4.99063 -6.30232 0
M  V30 18316 H 1755.47 0.622101 -0.264511 0
M  V30 18317 H 1758.02 1.5401 -1.35905 0
M  V30 18318 H 1756.25 3.85669 -0.282161 0
M  V30 18319 H 1757.94 4.00251 -0.674832 0
M  V30 18320 H 1758.71 3.69686 -3.13938 0
M  V30 18321 H 1754.59 4.153 -2.00117 0
M  V30 18322 H 1758.13 4.358 -5.44724 0
M  V30 18323 H 1754.03 4.81427 -4.29998 0
M  V30 18324 H 1754.8 5.1706 -6.34501 0
M  V30 18325 N 1757.46 0.791395 1.36289 0
M  V30 18326 C 1758.42 0.197069 2.28351 0
M  V30 18327 C 1759.42 -0.606748 1.48913 0
M  V30 18328 O 1760.61 -0.427453 1.68874 0
M  V30 18329 C 1757.75 -0.727009 3.33058 0
M  V30 18330 H 1758.94 1.00885 2.82422 0
M  V30 18331 H 1756.49 0.560959 1.45887 0
M  V30 18332 H 1757.23 -1.56306 2.84146 0
M  V30 18333 H 1757.01 -0.152537 3.91803 0
M  V30 18334 H 1758.5 -1.13765 4.01805 0
M  V30 18335 N 1758.94 -1.47929 0.54358 0
M  V30 18336 C 1760.35 -1.86395 0.10663 0
M  V30 18337 C 1760.7 -1.45171 -1.31984 0
M  V30 18338 O 1759.83 -0.848558 -1.99069 0
M  V30 18339 C 1760.42 -3.38285 0.186733 0
M  V30 18340 C 1758.98 -3.75894 -0.195098 0
M  V30 18341 C 1758.13 -2.71983 0.540427 0
M  V30 18342 H 1761.08 -1.3964 0.754076 0
M  V30 18343 H 1761.1 -3.75769 -0.598151 0
M  V30 18344 H 1760.61 -3.68258 1.22505 0
M  V30 18345 H 1758.71 -3.51536 -1.23504 0
M  V30 18346 H 1758.83 -4.78853 0.153975 0
M  V30 18347 H 1757.19 -2.54696 -0.0149151 0
M  V30 18348 H 1757.97 -3.04799 1.57963 0
M  V30 18349 N 1760.42 -0.27936 -1.55104 0
M  V30 18350 C 1761.35 0.599831 -2.25664 0
M  V30 18351 C 1762.33 1.15548 -1.24831 0
M  V30 18352 O 1763.51 1.18883 -1.53559 0
M  V30 18353 C 1760.64 1.78202 -2.98096 0
M  V30 18354 C 1759.6 1.35771 -4.05894 0
M  V30 18355 C 1758.92 2.62334 -4.65924 0
M  V30 18356 C 1760.22 0.504795 -5.19855 0
M  V30 18357 H 1761.92 0.0113761 -2.99398 0
M  V30 18358 H 1759.46 0.00403149 -1.43999 0
M  V30 18359 H 1761.42 2.403 -3.4617 0
M  V30 18360 H 1760.14 2.39637 -2.21905 0
M  V30 18361 H 1758.8 0.75991 -3.58638 0
M  V30 18362 H 1758.45 3.22036 -3.86396 0
M  V30 18363 H 1758.15 2.34654 -5.38713 0
M  V30 18364 H 1759.67 3.25273 -5.16749 0
M  V30 18365 H 1761.09 1.03089 -5.63955 0
M  V30 18366 H 1759.48 0.322696 -5.99232 0
M  V30 18367 H 1760.55 -0.475409 -4.82564 0
M  V30 18368 N 1761.9 1.57599 -0.0067085 0
M  V30 18369 C 1763.13 1.9486 0.686536 0
M  V30 18370 C 1763.53 0.880481 1.67464 0
M  V30 18371 O 1762.88 -0.148537 1.83098 0
M  V30 18372 C 1762.94 3.28146 1.46834 0
M  V30 18373 C 1762.6 4.52481 0.641076 0
M  V30 18374 C 1763.6 5.19847 -0.0741179 0
M  V30 18375 C 1761.28 4.98881 0.585071 0
M  V30 18376 C 1763.28 6.31917 -0.83423 0
M  V30 18377 C 1760.97 6.10838 -0.178762 0
M  V30 18378 C 1761.96 6.77214 -0.887139 0
M  V30 18379 O 1761.65 7.87025 -1.6385 0
M  V30 18380 H 1761.38 0.647045 0.195727 0
M  V30 18381 H 1763.94 2.05324 -0.0559783 0
M  V30 18382 H 1762.17 3.14109 2.25549 0
M  V30 18383 H 1763.86 3.50471 2.04756 0
M  V30 18384 H 1764.62 4.84983 -0.0400444 0
M  V30 18385 H 1760.5 4.47038 1.12598 0
M  V30 18386 H 1764.05 6.83659 -1.38767 0
M  V30 18387 H 1759.94 6.45143 -0.214632 0
M  V30 18388 H 1760.71 8.03576 -1.55591 0
M  V30 18389 N 1763.37 -0.266145 1.55336 0
M  V30 18390 C 1764.34 -1.31242 1.87904 0
M  V30 18391 C 1765.34 -1.42022 0.754083 0
M  V30 18392 O 1766.53 -1.41054 1.02222 0
M  V30 18393 C 1763.66 -2.69285 2.09041 0
M  V30 18394 H 1764.85 -1.03592 2.81441 0
M  V30 18395 H 1762.4 -0.504537 1.47933 0
M  V30 18396 H 1763.14 -3.02106 1.17909 0
M  V30 18397 H 1762.92 -2.62846 2.90954 0
M  V30 18398 H 1764.41 -3.4487 2.35488 0
M  V30 18399 N 1764.85 -1.48386 -0.530967 0
M  V30 18400 C 1765.81 -1.62355 -1.61782 0
M  V30 18401 C 1766.81 -0.496909 -1.5293 0
M  V30 18402 O 1768 -0.762672 -1.56617 0
M  V30 18403 C 1765.14 -1.59282 -3.014 0
M  V30 18404 H 1766.33 -2.59265 -1.50737 0
M  V30 18405 H 1763.88 -1.36969 -0.752948 0
M  V30 18406 H 1764.62 -0.638453 -3.17953 0
M  V30 18407 H 1764.4 -2.41073 -3.09235 0
M  V30 18408 H 1765.89 -1.72248 -3.80421 0
M  V30 18409 N 1766.33 0.779763 -1.36958 0
M  V30 18410 C 1767.24 1.92394 -1.34245 0
M  V30 18411 C 1768.26 1.72292 -0.243187 0
M  V30 18412 O 1769.43 1.95665 -0.477211 0
M  V30 18413 C 1766.5 3.27402 -1.14057 0
M  V30 18414 C 1765.56 3.60213 -2.33548 0
M  V30 18415 C 1764.79 4.88779 -2.14314 0
M  V30 18416 O 1765.01 5.59231 -1.12327 0
M  V30 18417 O 1763.95 5.20469 -3.02316 0
M  V30 18418 H 1767.77 1.97633 -2.30596 0
M  V30 18419 H 1765.36 0.921386 -1.17605 0
M  V30 18420 H 1767.24 4.08172 -1.04755 0
M  V30 18421 H 1765.92 3.23033 -0.207744 0
M  V30 18422 H 1764.82 2.7971 -2.48421 0
M  V30 18423 H 1766.16 3.69317 -3.25371 0
M  V30 18424 N 1767.81 1.21396 1.00503 0
M  V30 18425 C 1768.77 0.974756 2.07439 0
M  V30 18426 C 1769.77 -0.0542142 1.60709 0
M  V30 18427 O 1770.96 0.183056 1.73236 0
M  V30 18428 C 1768.09 0.46989 3.37646 0
M  V30 18429 H 1769.29 1.92346 2.30094 0
M  V30 18430 H 1766.84 1.03095 1.17479 0
M  V30 18431 H 1767.57 -0.483735 3.20672 0
M  V30 18432 H 1767.36 1.2121 3.72895 0
M  V30 18433 H 1768.85 0.322393 4.16354 0
M  V30 18434 N 1769.29 -1.19996 1.0217 0
M  V30 18435 C 1770.23 -2.22963 0.596318 0
M  V30 18436 C 1771.2 -1.61548 -0.386212 0
M  V30 18437 O 1772.39 -1.88667 -0.284497 0
M  V30 18438 C 1769.53 -3.45058 -0.054059 0
M  V30 18439 C 1768.64 -4.20885 0.973648 0
M  V30 18440 C 1767.78 -5.30387 0.293788 0
M  V30 18441 C 1766.81 -5.97964 1.3079 0
M  V30 18442 N 1765.95 -6.99044 0.654351 0
M  V30 18443 H 1770.79 -2.58709 1.47898 0
M  V30 18444 H 1768.33 -1.27117 0.740254 0
M  V30 18445 H 1770.29 -4.14784 -0.448313 0
M  V30 18446 H 1768.92 -3.0999 -0.900342 0
M  V30 18447 H 1767.97 -3.50174 1.48602 0
M  V30 18448 H 1769.28 -4.67292 1.7447 0
M  V30 18449 H 1768.43 -6.065 -0.155695 0
M  V30 18450 H 1767.17 -4.85031 -0.509521 0
M  V30 18451 H 1766.18 -5.20607 1.76772 0
M  V30 18452 H 1767.4 -6.45404 2.11258 0
M  V30 18453 H 1765.35 -6.55873 -0.128996 0
M  V30 18454 H 1765.27 -7.43605 1.36339 0
M  V30 18455 H 1766.53 -7.79165 0.228631 0
M  V30 18456 N 1770.76 -0.798611 -1.35867 0
M  V30 18457 C 1772.18 -0.481385 -1.52167 0
M  V30 18458 C 1772.38 0.99878 -1.75005 0
M  V30 18459 O 1771.44 1.78404 -1.78685 0
M  V30 18460 C 1772.75 -1.31982 -2.70188 0
M  V30 18461 C 1774.3 -1.31445 -2.84062 0
M  V30 18462 C 1774.77 -2.13682 -4.05098 0
M  V30 18463 N 1776.26 -2.11176 -4.12261 0
M  V30 18464 C 1777 -2.71571 -5.05012 0
M  V30 18465 N 1776.49 -3.40861 -6.03147 0
M  V30 18466 N 1778.29 -2.61255 -4.97697 0
M  V30 18467 H 1770.44 -1.75731 -1.19299 0
M  V30 18468 H 1772.7 -0.747512 -0.583034 0
M  V30 18469 H 1772.41 -2.36989 -2.59864 0
M  V30 18470 H 1772.28 -0.967488 -3.64581 0
M  V30 18471 H 1774.67 -0.272258 -2.93841 0
M  V30 18472 H 1774.75 -1.7066 -1.90549 0
M  V30 18473 H 1774.39 -3.17937 -3.96079 0
M  V30 18474 H 1774.32 -1.71832 -4.97776 0
M  V30 18475 H 1776.81 -1.60754 -3.42004 0
M  V30 18476 H 1777.13 -3.84251 -6.705 0
M  V30 18477 H 1775.47 -3.44964 -6.03345 0
M  V30 18478 H 1778.66 -2.06717 -4.19983 0
M  V30 18479 H 1778.84 -3.08613 -5.69791 0
M  V30 18480 N 1772.24 1.47639 -0.551417 0
M  V30 18481 C 1773.49 2.02784 -0.0252425 0
M  V30 18482 C 1773.82 1.42549 1.31884 0
M  V30 18483 O 1773.1 0.578954 1.85684 0
M  V30 18484 C 1773.38 3.60024 0.0740051 0
M  V30 18485 C 1773.23 4.30702 -1.29676 0
M  V30 18486 C 1774.55 4.32946 0.790302 0
M  V30 18487 H 1771.67 0.736923 -0.0106473 0
M  V30 18488 H 1774.31 1.76131 -0.712589 0
M  V30 18489 H 1772.46 3.82863 0.65939 0
M  V30 18490 H 1774.13 4.1922 -1.9249 0
M  V30 18491 H 1772.38 3.91282 -1.87299 0
M  V30 18492 H 1773.05 5.39238 -1.18009 0
M  V30 18493 H 1775.52 4.15065 0.293326 0
M  V30 18494 H 1774.4 5.42608 0.828692 0
M  V30 18495 H 1774.66 4.01752 1.84521 0
M  V30 18496 N 1773.72 0.287581 1.54954 0
M  V30 18497 C 1774.97 -0.32561 1.99865 0
M  V30 18498 C 1775.3 -1.54921 1.176 0
M  V30 18499 O 1774.55 -1.94262 0.236802 0
M  V30 18500 C 1774.85 -0.739779 3.4966 0
M  V30 18501 C 1774.52 0.380573 4.49291 0
M  V30 18502 C 1773.18 0.688172 4.76254 0
M  V30 18503 C 1775.53 1.13489 5.08694 0
M  V30 18504 C 1772.86 1.75344 5.59885 0
M  V30 18505 C 1775.21 2.18998 5.93484 0
M  V30 18506 C 1773.87 2.50379 6.18762 0
M  V30 18507 H 1773.14 -0.119149 0.731358 0
M  V30 18508 H 1775.79 0.403889 1.87192 0
M  V30 18509 H 1774.1 -1.54915 3.59873 0
M  V30 18510 H 1775.79 -1.22518 3.81825 0
M  V30 18511 H 1772.38 0.130718 4.28401 0
M  V30 18512 H 1776.57 0.910505 4.87877 0
M  V30 18513 H 1771.82 2.00145 5.77713 0
M  V30 18514 H 1776 2.77913 6.38543 0
M  V30 18515 H 1773.62 3.33057 6.83357 0
M  V30 18516 N 1775.2 -1.57593 0.0150662 0
M  V30 18517 C 1776.42 -1.95909 -0.68077 0
M  V30 18518 C 1776.85 -0.890813 -1.65669 0
M  V30 18519 O 1776.21 0.149663 -1.80681 0
M  V30 18520 C 1776.25 -3.33324 -1.37576 0
M  V30 18521 O 1775.36 -3.28694 -2.49066 0
M  V30 18522 H 1774.7 -0.639151 -0.179949 0
M  V30 18523 H 1777.23 -2.04471 0.0727403 0
M  V30 18524 H 1777.24 -3.69236 -1.73577 0
M  V30 18525 H 1775.91 -4.10625 -0.660305 0
M  V30 18526 H 1774.49 -3.0448 -2.15282 0
M  V30 18527 N 1776.68 0.257904 -1.55475 0
M  V30 18528 C 1777.61 1.32303 -1.92401 0
M  V30 18529 C 1778.59 1.50767 -0.787617 0
M  V30 18530 O 1779.77 1.63559 -1.047 0
M  V30 18531 C 1776.9 2.67984 -2.20912 0
M  V30 18532 C 1775.86 2.64231 -3.36699 0
M  V30 18533 C 1775.18 4.03604 -3.50725 0
M  V30 18534 C 1776.48 2.22177 -4.72689 0
M  V30 18535 H 1778.18 1.01646 -2.81618 0
M  V30 18536 H 1775.72 0.487523 -1.35496 0
M  V30 18537 H 1777.68 3.42622 -2.45332 0
M  V30 18538 H 1776.4 3.00254 -1.2851 0
M  V30 18539 H 1775.06 1.92049 -3.1227 0
M  V30 18540 H 1774.71 4.33122 -2.55763 0
M  V30 18541 H 1774.41 4.01983 -4.28583 0
M  V30 18542 H 1775.93 4.79959 -3.77455 0
M  V30 18543 H 1777.34 2.86543 -4.96554 0
M  V30 18544 H 1775.74 2.3169 -5.5357 0
M  V30 18545 H 1776.81 1.17326 -4.70492 0
M  V30 18546 N 1778.15 1.48666 0.52309 0
M  V30 18547 C 1779.06 1.66396 1.65377 0
M  V30 18548 C 1780.08 0.546469 1.65196 0
M  V30 18549 O 1781.26 0.818413 1.84022 0
M  V30 18550 C 1778.32 1.70602 3.01821 0
M  V30 18551 C 1777.38 2.94028 3.12803 0
M  V30 18552 C 1776.62 2.98024 4.42739 0
M  V30 18553 O 1776.84 2.10232 5.30244 0
M  V30 18554 O 1775.77 3.90266 4.58231 0
M  V30 18555 H 1779.6 2.62138 1.53354 0
M  V30 18556 H 1777.18 1.32148 0.696948 0
M  V30 18557 H 1779.07 1.75849 3.82956 0
M  V30 18558 H 1777.74 0.780346 3.14153 0
M  V30 18559 H 1776.65 2.9431 2.30938 0
M  V30 18560 H 1777.98 3.86003 3.0539 0
M  V30 18561 N 1779.63 -0.772489 1.37369 0
M  V30 18562 C 1780.58 -1.88575 1.33073 0
M  V30 18563 C 1781.55 -1.64935 0.19641 0
M  V30 18564 O 1782.73 -1.86862 0.385651 0
M  V30 18565 C 1779.87 -3.25628 1.14281 0
M  V30 18566 C 1778.99 -3.61227 2.36936 0
M  V30 18567 C 1778.12 -4.87486 2.11023 0
M  V30 18568 C 1777.16 -5.15814 3.29548 0
M  V30 18569 N 1776.3 -6.33261 3.03191 0
M  V30 18570 H 1781.14 -1.91583 2.28255 0
M  V30 18571 H 1778.68 -0.936654 1.13425 0
M  V30 18572 H 1780.63 -4.04688 1.01407 0
M  V30 18573 H 1779.26 -3.21998 0.227467 0
M  V30 18574 H 1778.32 -2.77158 2.60552 0
M  V30 18575 H 1779.63 -3.781 3.25333 0
M  V30 18576 H 1778.78 -5.74449 1.95176 0
M  V30 18577 H 1777.52 -4.72716 1.19962 0
M  V30 18578 H 1776.53 -4.27328 3.45935 0
M  V30 18579 H 1777.75 -5.32493 4.21459 0
M  V30 18580 H 1775.7 -6.19851 2.14759 0
M  V30 18581 H 1775.61 -6.50546 3.85131 0
M  V30 18582 H 1776.88 -7.23162 2.9096 0
M  V30 18583 N 1781.11 -1.21927 -0.998575 0
M  V30 18584 C 1782.06 -0.984283 -2.08759 0
M  V30 18585 C 1783.03 0.0920029 -1.65845 0
M  V30 18586 O 1784.21 -0.0564334 -1.90717 0
M  V30 18587 C 1781.35 -0.562006 -3.40493 0
M  V30 18588 C 1780.47 -1.70844 -3.96783 0
M  V30 18589 C 1779.6 -1.2347 -5.16651 0
M  V30 18590 C 1778.64 -2.35305 -5.65065 0
M  V30 18591 N 1777.78 -1.89018 -6.76178 0
M  V30 18592 H 1782.62 -1.91653 -2.28195 0
M  V30 18593 H 1780.15 -0.955028 -1.11882 0
M  V30 18594 H 1782.11 -0.298383 -4.16132 0
M  V30 18595 H 1780.74 0.33324 -3.21075 0
M  V30 18596 H 1779.79 -2.08653 -3.18069 0
M  V30 18597 H 1781.11 -2.54987 -4.28699 0
M  V30 18598 H 1780.26 -0.928121 -5.99559 0
M  V30 18599 H 1779 -0.363397 -4.86344 0
M  V30 18600 H 1778 -2.66758 -4.8075 0
M  V30 18601 H 1779.23 -3.22941 -5.97399 0
M  V30 18602 H 1777.17 -1.04242 -6.47665 0
M  V30 18603 H 1777.09 -2.66731 -7.07383 0
M  V30 18604 H 1778.36 -1.61413 -7.62605 0
M  V30 18605 N 1782.59 1.19452 -1.02805 0
M  V30 18606 C 1783.52 2.21405 -0.552712 0
M  V30 18607 C 1784.5 1.5745 0.405999 0
M  V30 18608 O 1785.68 1.85707 0.323296 0
M  V30 18609 C 1782.81 3.38143 0.194179 0
M  V30 18610 C 1781.86 4.2045 -0.715836 0
M  V30 18611 S 1782.69 4.88601 -2.19156 0
M  V30 18612 C 1783.85 6.08749 -1.45516 0
M  V30 18613 H 1784.08 2.61383 -1.41655 0
M  V30 18614 H 1781.61 1.29686 -0.837915 0
M  V30 18615 H 1783.57 4.05807 0.618972 0
M  V30 18616 H 1782.23 2.96602 1.03374 0
M  V30 18617 H 1781.42 5.03808 -0.139277 0
M  V30 18618 H 1781.03 3.581 -1.07891 0
M  V30 18619 H 1783.32 6.73432 -0.74131 0
M  V30 18620 H 1784.26 6.70887 -2.26531 0
M  V30 18621 H 1784.67 5.56397 -0.95302 0
M  V30 18622 N 1784.07 0.805805 1.35442 0
M  V30 18623 C 1785.29 0.397179 2.03561 0
M  V30 18624 C 1785.72 -0.983665 1.6033 0
M  V30 18625 O 1785.07 -1.63683 0.779586 0
M  V30 18626 C 1785.12 0.487813 3.57285 0
M  V30 18627 O 1784.23 -0.499039 4.09369 0
M  V30 18628 H 1783.57 0.166009 0.642913 0
M  V30 18629 H 1786.1 1.09147 1.73055 0
M  V30 18630 H 1786.11 0.357334 4.06432 0
M  V30 18631 H 1784.78 1.49501 3.88101 0
M  V30 18632 H 1783.36 -0.328864 3.71447 0
M  V30 18633 N 1785.54 -1.47344 0.559239 0
M  V30 18634 C 1786.49 -2.31735 -0.200368 0
M  V30 18635 C 1787.49 -1.43051 -0.907351 0
M  V30 18636 O 1788.69 -1.59804 -0.828406 0
M  V30 18637 H 1785.07 -0.747351 -0.0834871 0
M  V30 18638 H 1787.04 -2.93645 0.530556 0
M  V30 18639 C 1785.79 -3.25747 -1.2159 0
M  V30 18640 H 1785.11 -3.93952 -0.681314 0
M  V30 18641 H 1786.55 -3.87624 -1.71825 0
M  V30 18642 C 1785.01 -2.49414 -2.26482 0
M  V30 18643 O 1785.54 -2.24006 -3.33443 0
M  V30 18644 N 1783.75 -2.10387 -2.00464 0
M  V30 18645 H 1783.29 -2.3125 -1.13495 0
M  V30 18646 H 1783.25 -1.5963 -2.70861 0
M  V30 18647 N 1787.02 -0.295795 -1.54799 0
M  V30 18648 C 1788.25 0.317302 -2.04149 0
M  V30 18649 C 1788.66 1.48463 -1.17283 0
M  V30 18650 O 1788 1.82715 -0.189979 0
M  V30 18651 C 1788.07 0.841241 -3.49519 0
M  V30 18652 C 1787.73 -0.200133 -4.56562 0
M  V30 18653 C 1788.73 -1.0268 -5.09659 0
M  V30 18654 C 1786.41 -0.340333 -5.01146 0
M  V30 18655 C 1788.41 -1.97966 -6.05878 0
M  V30 18656 C 1786.09 -1.29664 -5.97185 0
M  V30 18657 C 1787.09 -2.11479 -6.49435 0
M  V30 18658 O 1786.78 -3.0549 -7.43593 0
M  V30 18659 H 1786.51 0.0736679 -0.671974 0
M  V30 18660 H 1789.06 -0.431806 -2.0081 0
M  V30 18661 H 1787.29 1.64078 -3.50165 0
M  V30 18662 H 1788.98 1.36966 -3.82093 0
M  V30 18663 H 1789.75 -0.92933 -4.76013 0
M  V30 18664 H 1785.63 0.286525 -4.60109 0
M  V30 18665 H 1789.17 -2.61865 -6.46585 0
M  V30 18666 H 1785.07 -1.39485 -6.30249 0
M  V30 18667 H 1785.84 -3.00409 -7.61378 0
M  V30 18668 N 1788.5 1.57583 -0.0234236 0
M  V30 18669 C 1789.75 1.90742 0.655764 0
M  V30 18670 C 1790.06 0.900914 1.73617 0
M  V30 18671 O 1791.27 1.12355 2.47161 0
M  V30 18672 C 1789.73 3.38676 1.21763 0
M  V30 18673 C 1789.33 4.47674 0.170811 0
M  V30 18674 C 1791.08 3.80912 1.87366 0
M  V30 18675 C 1788.98 5.86702 0.743996 0
M  V30 18676 H 1787.91 0.711803 0.248701 0
M  V30 18677 H 1790.57 1.8329 -0.0877955 0
M  V30 18678 H 1788.95 3.41042 2.01262 0
M  V30 18679 H 1790.12 4.5686 -0.601298 0
M  V30 18680 H 1788.44 4.14606 -0.386127 0
M  V30 18681 H 1791.03 4.82133 2.31197 0
M  V30 18682 H 1791.38 3.15669 2.71402 0
M  V30 18683 H 1791.91 3.80945 1.14566 0
M  V30 18684 H 1788.65 6.55474 -0.0580976 0
M  V30 18685 H 1788.17 5.81133 1.48472 0
M  V30 18686 H 1789.85 6.35094 1.23549 0
M  V30 18687 N 1789.98 -0.249655 1.5561 0
M  V30 18688 C 1790.91 -1.33188 1.8653 0
M  V30 18689 C 1791.92 -1.44424 0.751366 0
M  V30 18690 O 1793.11 -1.45823 1.02946 0
M  V30 18691 C 1790.21 -2.71076 2.03398 0
M  V30 18692 C 1789.39 -2.82142 3.34237 0
M  V30 18693 C 1788.45 -4.00857 3.40882 0
M  V30 18694 O 1787.47 -3.90514 4.1411 0
M  V30 18695 N 1788.67 -5.13901 2.69974 0
M  V30 18696 H 1791.44 -1.07 2.79948 0
M  V30 18697 H 1789 -0.43976 1.55813 0
M  V30 18698 H 1790.99 -3.48826 2.05188 0
M  V30 18699 H 1789.56 -2.89985 1.16738 0
M  V30 18700 H 1788.78 -1.9109 3.44788 0
M  V30 18701 H 1790.07 -2.86483 4.20481 0
M  V30 18702 H 1789.47 -5.25195 2.10206 0
M  V30 18703 H 1788.02 -5.89796 2.7746 0
M  V30 18704 N 1791.46 -1.48941 -0.515198 0
M  V30 18705 C 1792.7 -1.5771 -1.27019 0
M  V30 18706 C 1793.03 -0.257484 -1.92788 0
M  V30 18707 O 1792.29 0.753481 -1.80613 0
M  V30 18708 C 1792.59 -2.67508 -2.37011 0
M  V30 18709 C 1792.25 -4.09471 -1.88796 0
M  V30 18710 C 1790.91 -4.48108 -1.75365 0
M  V30 18711 C 1793.27 -4.98378 -1.52543 0
M  V30 18712 C 1790.59 -5.73438 -1.24038 0
M  V30 18713 C 1792.95 -6.24212 -1.02673 0
M  V30 18714 C 1791.61 -6.61691 -0.878703 0
M  V30 18715 H 1790.88 -0.577101 -0.464796 0
M  V30 18716 H 1793.53 -1.82718 -0.573279 0
M  V30 18717 H 1791.83 -2.36417 -3.12433 0
M  V30 18718 H 1793.53 -2.71505 -2.95104 0
M  V30 18719 H 1790.12 -3.78967 -2.00205 0
M  V30 18720 H 1794.3 -4.69194 -1.61773 0
M  V30 18721 H 1789.56 -6.01188 -1.11277 0
M  V30 18722 H 1793.73 -6.9249 -0.73697 0
M  V30 18723 H 1791.36 -7.58691 -0.478792 0
M  V30 18724 N 1792.94 0.765193 -1.37777 0
M  V30 18725 C 1793.88 1.87866 -1.34071 0
M  V30 18726 C 1794.85 1.64828 -0.205154 0
M  V30 18727 O 1796.04 1.86655 -0.395555 0
M  V30 18728 C 1793.18 3.25018 -1.16006 0
M  V30 18729 C 1792.29 3.59966 -2.38848 0
M  V30 18730 C 1791.43 4.8636 -2.13605 0
M  V30 18731 C 1790.46 5.14059 -3.32279 0
M  V30 18732 N 1789.6 6.31644 -3.06545 0
M  V30 18733 H 1794.44 1.90369 -2.29267 0
M  V30 18734 H 1791.98 0.930625 -1.1392 0
M  V30 18735 H 1793.94 4.04145 -1.03552 0
M  V30 18736 H 1792.57 3.21872 -0.24454 0
M  V30 18737 H 1791.62 2.75773 -2.62018 0
M  V30 18738 H 1792.93 3.76369 -3.27334 0
M  V30 18739 H 1792.08 5.73406 -1.9822 0
M  V30 18740 H 1790.82 4.72073 -1.22467 0
M  V30 18741 H 1789.83 4.25487 -3.48196 0
M  V30 18742 H 1791.05 5.30251 -4.24277 0
M  V30 18743 H 1789 6.18703 -2.18043 0
M  V30 18744 H 1788.92 6.48494 -3.88576 0
M  V30 18745 H 1790.18 7.21608 -2.94791 0
M  V30 18746 N 1794.41 1.22455 0.992094 0
M  V30 18747 C 1795.64 1.07677 1.77258 0
M  V30 18748 C 1796.06 -0.368377 1.84458 0
M  V30 18749 O 1795.42 -1.26614 1.29763 0
M  V30 18750 C 1795.47 1.69353 3.18358 0
M  V30 18751 O 1794.57 0.947746 4.01362 0
M  V30 18752 H 1793.91 0.378141 0.545807 0
M  V30 18753 H 1796.44 1.62269 1.2462 0
M  V30 18754 H 1796.45 1.7411 3.68985 0
M  V30 18755 H 1795.13 2.74515 3.12433 0
M  V30 18756 H 1793.71 0.976245 3.59894 0
M  V30 18757 N 1795.89 -1.18905 1.03437 0
M  V30 18758 C 1796.84 -2.22318 0.619933 0
M  V30 18759 C 1797.81 -1.61948 -0.369056 0
M  V30 18760 O 1798.99 -1.88958 -0.26447 0
M  V30 18761 C 1796.13 -3.45096 -0.0174579 0
M  V30 18762 C 1795.25 -4.19829 1.01823 0
M  V30 18763 C 1794.38 -5.30046 0.350026 0
M  V30 18764 C 1793.42 -5.96543 1.37125 0
M  V30 18765 N 1792.56 -6.98311 0.728458 0
M  V30 18766 H 1797.4 -2.57125 1.50634 0
M  V30 18767 H 1794.93 -1.26324 0.753695 0
M  V30 18768 H 1796.89 -4.15236 -0.404294 0
M  V30 18769 H 1795.52 -3.10927 -0.867412 0
M  V30 18770 H 1794.57 -3.48578 1.52308 0
M  V30 18771 H 1795.89 -4.65415 1.79416 0
M  V30 18772 H 1795.04 -6.06631 -0.0913585 0
M  V30 18773 H 1793.78 -4.85544 -0.458049 0
M  V30 18774 H 1792.78 -5.18703 1.82284 0
M  V30 18775 H 1794.01 -6.43127 2.18091 0
M  V30 18776 H 1791.96 -6.55973 -0.0594251 0
M  V30 18777 H 1791.87 -7.42117 1.44218 0
M  V30 18778 H 1793.14 -7.78878 0.311259 0
M  V30 18779 N 1797.37 -0.812977 -1.35013 0
M  V30 18780 C 1798.61 -0.402068 -2.00407 0
M  V30 18781 C 1798.97 1.01337 -1.63079 0
M  V30 18782 O 1800.17 1.52663 -2.21241 0
M  V30 18783 C 1798.45 -0.587029 -3.52546 0
M  V30 18784 S 1800 -0.267491 -4.37984 0
M  V30 18785 H 1796.82 -0.152383 -0.694479 0
M  V30 18786 H 1799.42 -1.05662 -1.64486 0
M  V30 18787 H 1798.13 -1.61704 -3.772 0
M  V30 18788 H 1797.66 0.0826178 -3.93313 0
M  V30 18789 H 1799.67 0.922508 -4.87549 0
M  V30 18790 N 1798.85 1.47045 -0.567045 0
M  V30 18791 C 1800.26 1.5797 -0.227536 0
M  V30 18792 C 1800.46 1.56434 1.27006 0
M  V30 18793 O 1799.52 1.47297 2.05085 0
M  V30 18794 C 1800.83 2.88053 -0.862894 0
M  V30 18795 C 1802.38 3.01656 -0.835032 0
M  V30 18796 C 1802.86 4.34453 -1.44964 0
M  V30 18797 N 1804.35 4.41113 -1.41327 0
M  V30 18798 C 1805.08 5.42451 -1.85835 0
M  V30 18799 N 1804.58 6.50547 -2.38245 0
M  V30 18800 N 1806.37 5.33556 -1.76847 0
M  V30 18801 H 1798.52 1.46287 -1.53993 0
M  V30 18802 H 1800.78 0.696829 -0.642755 0
M  V30 18803 H 1800.49 2.94942 -1.91578 0
M  V30 18804 H 1800.36 3.75461 -0.361758 0
M  V30 18805 H 1802.75 2.94358 0.209187 0
M  V30 18806 H 1802.83 2.15764 -1.37403 0
M  V30 18807 H 1802.48 4.42508 -2.49298 0
M  V30 18808 H 1802.41 5.19093 -0.886003 0
M  V30 18809 H 1804.9 3.63592 -1.03001 0
M  V30 18810 H 1805.21 7.2406 -2.70105 0
M  V30 18811 H 1803.56 6.51409 -2.42262 0
M  V30 18812 H 1806.75 4.48008 -1.35671 0
M  V30 18813 H 1806.92 6.12391 -2.11851 0
M  V30 18814 N 1800.33 0.304 1.5464 0
M  V30 18815 C 1801.57 -0.305185 1.99378 0
M  V30 18816 C 1801.89 -1.54773 1.19602 0
M  V30 18817 O 1803.09 -2.23169 1.54621 0
M  V30 18818 C 1801.55 -0.594303 3.54959 0
M  V30 18819 C 1801.16 0.630078 4.43547 0
M  V30 18820 C 1802.9 -1.16452 4.08215 0
M  V30 18821 C 1800.81 0.313946 5.90566 0
M  V30 18822 H 1799.74 -0.11781 0.744739 0
M  V30 18823 H 1802.39 0.413174 1.78788 0
M  V30 18824 H 1800.77 -1.37233 3.71461 0
M  V30 18825 H 1801.95 1.40619 4.3882 0
M  V30 18826 H 1800.26 1.11914 4.01079 0
M  V30 18827 H 1802.86 -1.41534 5.15628 0
M  V30 18828 H 1803.2 -2.10773 3.58999 0
M  V30 18829 H 1803.73 -0.448123 3.95268 0
M  V30 18830 H 1800.47 1.2258 6.43937 0
M  V30 18831 H 1799.99 -0.424841 5.98294 0
M  V30 18832 H 1801.67 -0.083395 6.46946 0
M  V30 18833 N 1801.8 -1.57568 0.0317802 0
M  V30 18834 C 1802.71 -2.13842 -0.964811 0
M  V30 18835 C 1803.73 -1.09134 -1.3552 0
M  V30 18836 O 1804.91 -1.41205 -1.43608 0
M  V30 18837 C 1801.97 -2.65654 -2.22775 0
M  V30 18838 C 1801.03 -3.85087 -1.89753 0
M  V30 18839 C 1800.26 -4.34419 -3.10026 0
M  V30 18840 O 1800.49 -3.8291 -4.22772 0
M  V30 18841 O 1799.42 -5.26233 -2.92169 0
M  V30 18842 H 1803.25 -2.99279 -0.516302 0
M  V30 18843 H 1800.83 -1.482 -0.188982 0
M  V30 18844 H 1802.71 -2.99035 -2.96911 0
M  V30 18845 H 1801.39 -1.83299 -2.66802 0
M  V30 18846 H 1800.3 -3.56628 -1.12994 0
M  V30 18847 H 1801.63 -4.68613 -1.50541 0
M  V30 18848 N 1803.28 0.241399 -1.5574 0
M  V30 18849 C 1804.69 0.810024 -1.68213 0
M  V30 18850 C 1805.04 1.85802 -0.630237 0
M  V30 18851 O 1804.17 2.15254 0.222457 0
M  V30 18852 C 1804.76 1.47603 -3.04957 0
M  V30 18853 C 1803.32 1.99229 -3.1935 0
M  V30 18854 C 1802.47 0.845339 -2.64101 0
M  V30 18855 H 1805.42 0.0171031 -1.58691 0
M  V30 18856 H 1805.44 2.34425 -2.99709 0
M  V30 18857 H 1804.95 0.713047 -3.81493 0
M  V30 18858 H 1803.06 2.78391 -2.47647 0
M  V30 18859 H 1803.17 2.1859 -4.26328 0
M  V30 18860 H 1801.53 1.24734 -2.22067 0
M  V30 18861 H 1802.32 0.0953468 -3.43168 0
M  V30 18862 N 1804.76 1.49212 0.507292 0
M  V30 18863 C 1806.01 1.58616 1.26368 0
M  V30 18864 C 1806.34 0.269215 1.92325 0
M  V30 18865 O 1805.61 -0.72672 1.80414 0
M  V30 18866 C 1805.9 2.74088 2.33555 0
M  V30 18867 C 1805.75 4.15557 1.7214 0
M  V30 18868 C 1807.07 2.85225 3.35164 0
M  V30 18869 H 1804.19 0.577347 0.458083 0
M  V30 18870 H 1806.83 1.81473 0.562797 0
M  V30 18871 H 1804.98 2.5473 2.93335 0
M  V30 18872 H 1806.65 4.46416 1.16236 0
M  V30 18873 H 1804.9 4.21498 1.02576 0
M  V30 18874 H 1805.57 4.92215 2.49856 0
M  V30 18875 H 1808.04 3.02828 2.85367 0
M  V30 18876 H 1806.92 3.67709 4.07531 0
M  V30 18877 H 1807.18 1.94316 3.97107 0
M  V30 18878 N 1806.24 -0.757876 1.38181 0
M  V30 18879 C 1807.48 -1.52975 1.35565 0
M  V30 18880 C 1807.84 -1.9192 -0.0554193 0
M  V30 18881 O 1809.04 -2.68006 -0.206418 0
M  V30 18882 C 1807.31 -2.75158 2.28085 0
M  V30 18883 S 1808.87 -3.65072 2.4345 0
M  V30 18884 H 1805.69 -0.523547 0.481061 0
M  V30 18885 H 1808.29 -0.890034 1.74065 0
M  V30 18886 H 1807 -2.44649 3.29507 0
M  V30 18887 H 1806.53 -3.44078 1.90719 0
M  V30 18888 H 1808.54 -4.67773 1.65538 0
M  V30 18889 N 1807.72 -1.22979 -0.985586 0
M  V30 18890 C 1808.65 -1.03073 -2.09519 0
M  V30 18891 C 1809.63 0.0507025 -1.70024 0
M  V30 18892 O 1810.81 -0.112938 -1.93871 0
M  V30 18893 C 1807.94 -0.615578 -3.41801 0
M  V30 18894 C 1806.9 -1.64377 -3.95176 0
M  V30 18895 C 1806.22 -1.08422 -5.23592 0
M  V30 18896 C 1807.52 -3.03555 -4.25032 0
M  V30 18897 H 1809.22 -1.95882 -2.2643 0
M  V30 18898 H 1806.76 -0.943206 -1.0881 0
M  V30 18899 H 1808.72 -0.463394 -4.18844 0
M  V30 18900 H 1807.44 0.348185 -3.24739 0
M  V30 18901 H 1806.1 -1.78386 -3.20272 0
M  V30 18902 H 1805.75 -0.111597 -5.02876 0
M  V30 18903 H 1805.45 -1.77118 -5.6027 0
M  V30 18904 H 1806.97 -0.94378 -6.03262 0
M  V30 18905 H 1808.38 -2.92878 -4.92844 0
M  V30 18906 H 1806.78 -3.69441 -4.72899 0
M  V30 18907 H 1807.85 -3.52937 -3.32511 0
M  V30 18908 N 1809.19 1.18355 -1.04066 0
M  V30 18909 C 1810.12 2.24196 -0.652568 0
M  V30 18910 C 1811.11 1.66581 0.344195 0
M  V30 18911 O 1812.29 1.929 0.224296 0
M  V30 18912 C 1809.42 3.47297 -0.0147409 0
M  V30 18913 C 1808.37 4.17661 -0.935044 0
M  V30 18914 C 1807.7 5.34455 -0.161692 0
M  V30 18915 C 1809 4.71153 -2.25415 0
M  V30 18916 H 1810.69 2.56914 -1.53738 0
M  V30 18917 H 1808.24 1.23492 -0.740658 0
M  V30 18918 H 1810.19 4.20544 0.268484 0
M  V30 18919 H 1808.92 3.13812 0.904949 0
M  V30 18920 H 1807.58 3.46312 -1.20265 0
M  V30 18921 H 1807.22 4.97219 0.760404 0
M  V30 18922 H 1806.92 5.82469 -0.774805 0
M  V30 18923 H 1808.45 6.10493 0.114515 0
M  V30 18924 H 1809.86 5.36095 -2.03163 0
M  V30 18925 H 1808.26 5.29701 -2.82022 0
M  V30 18926 H 1809.33 3.88576 -2.90064 0
M  V30 18927 N 1810.67 0.820125 1.3458 0
M  V30 18928 C 1811.6 0.254709 2.32107 0
M  V30 18929 C 1812.58 -0.6273 1.58111 0
M  V30 18930 O 1813.77 -0.554759 1.86108 0
M  V30 18931 C 1810.9 -0.586541 3.42311 0
M  V30 18932 C 1809.85 0.198096 4.27541 0
M  V30 18933 C 1809.18 -0.765718 5.29189 0
M  V30 18934 C 1810.48 1.40472 5.03056 0
M  V30 18935 H 1812.17 1.06955 2.79644 0
M  V30 18936 H 1809.72 0.515756 1.34447 0
M  V30 18937 H 1811.67 -0.992259 4.09551 0
M  V30 18938 H 1810.4 -1.4344 2.93415 0
M  V30 18939 H 1809.05 0.585149 3.619 0
M  V30 18940 H 1808.7 -1.60946 4.76556 0
M  V30 18941 H 1808.4 -0.244954 5.87089 0
M  V30 18942 H 1809.93 -1.16935 5.99298 0
M  V30 18943 H 1811.34 1.07316 5.63166 0
M  V30 18944 H 1809.74 1.86092 5.70517 0
M  V30 18945 H 1810.81 2.18437 4.32913 0
M  V30 18946 N 1812.15 -1.46743 0.574835 0
M  V30 18947 C 1813.1 -2.27259 -0.183667 0
M  V30 18948 C 1814.08 -1.35406 -0.869139 0
M  V30 18949 O 1815.28 -1.59637 -0.764534 0
M  V30 18950 C 1812.41 -3.21578 -1.20178 0
M  V30 18951 C 1811.49 -4.20914 -0.518826 0
M  V30 18952 N 1811.88 -5.04044 0.421132 0
M  V30 18953 C 1810.18 -4.39293 -0.770561 0
M  V30 18954 C 1810.88 -5.75898 0.819539 0
M  V30 18955 N 1809.86 -5.43333 0.170429 0
M  V30 18956 H 1813.66 -2.8892 0.538761 0
M  V30 18957 H 1811.17 -1.57497 0.396049 0
M  V30 18958 H 1813.17 -3.77961 -1.75929 0
M  V30 18959 H 1811.83 -2.61476 -1.92511 0
M  V30 18960 H 1812.84 -5.11742 0.796245 0
M  V30 18961 H 1809.52 -3.90347 -1.48107 0
M  V30 18962 H 1810.91 -6.52745 1.59293 0
M  V30 18963 N 1813.63 -0.312197 -1.54477 0
M  V30 18964 C 1814.88 0.293192 -1.99962 0
M  V30 18965 C 1815.2 1.53544 -1.20205 0
M  V30 18966 O 1814.47 1.93575 -0.300901 0
M  V30 18967 H 1813.05 0.111325 -0.738658 0
M  V30 18968 H 1815.71 -0.426116 -1.90185 0
M  V30 18969 H 1814.81 0.557482 -3.07081 0
M  V30 18970 N 1815.11 1.57549 -0.040136 0
M  V30 18971 C 1816.33 1.96967 0.649517 0
M  V30 18972 C 1816.76 0.917056 1.64231 0
M  V30 18973 O 1816.11 -0.120899 1.80896 0
M  V30 18974 C 1816.16 3.35471 1.32256 0
M  V30 18975 O 1815.27 3.32615 2.43806 0
M  V30 18976 H 1814.61 0.641933 0.169758 0
M  V30 18977 H 1817.14 2.04329 -0.105261 0
M  V30 18978 H 1817.15 3.71951 1.6768 0
M  V30 18979 H 1815.82 4.11623 0.594895 0
M  V30 18980 H 1814.4 3.07867 2.10411 0
M  V30 18981 N 1816.58 -0.233136 1.55866 0
M  V30 18982 C 1818 -0.801092 1.6864 0
M  V30 18983 C 1818.35 -1.85465 0.640081 0
M  V30 18984 O 1817.47 -2.15368 -0.211038 0
M  V30 18985 C 1818.07 -1.45984 3.05735 0
M  V30 18986 C 1816.63 -1.97533 3.20403 0
M  V30 18987 C 1815.77 -0.831321 2.64546 0
M  V30 18988 H 1818.72 -0.00868708 1.58698 0
M  V30 18989 H 1818.74 -2.32832 3.00948 0
M  V30 18990 H 1818.26 -0.692805 3.81866 0
M  V30 18991 H 1816.36 -2.77074 2.4912 0
M  V30 18992 H 1816.47 -2.16326 4.27481 0
M  V30 18993 H 1814.83 -1.23554 2.22725 0
M  V30 18994 H 1815.62 -0.0771465 3.43213 0
M  V30 18995 N 1818.06 -1.49479 -0.499372 0
M  V30 18996 C 1819.31 -1.58734 -1.25092 0
M  V30 18997 C 1819.63 -0.276701 -1.93027 0
M  V30 18998 O 1818.9 0.704058 -1.82811 0
M  V30 18999 H 1817.48 -0.584857 -0.464706 0
M  V30 19000 H 1820.14 -1.86113 -0.578608 0
M  V30 19001 H 1819.24 -2.38422 -2.01399 0
M  V30 19002 N 1819.54 0.750537 -1.38581 0
M  V30 19003 C 1820.5 1.84599 -1.35852 0
M  V30 19004 C 1821.5 1.58709 -0.258462 0
M  V30 19005 O 1822.69 1.66397 -0.51552 0
M  V30 19006 C 1819.83 3.22124 -1.11573 0
M  V30 19007 H 1821.02 1.88426 -2.33314 0
M  V30 19008 H 1818.57 0.952564 -1.23919 0
M  V30 19009 H 1819.31 3.23965 -0.147295 0
M  V30 19010 H 1819.09 3.42311 -1.91221 0
M  V30 19011 H 1820.58 4.02198 -1.12367 0
M  V30 19012 N 1821.02 1.235 0.979051 0
M  V30 19013 C 1822.27 1.0658 1.71713 0
M  V30 19014 C 1822.59 -0.397927 1.90897 0
M  V30 19015 O 1821.86 -1.28511 1.47857 0
M  V30 19016 H 1820.44 0.391397 0.636253 0
M  V30 19017 H 1823.1 1.55239 1.17843 0
M  V30 19018 H 1822.2 1.5548 2.70615 0
M  V30 19019 N 1822.5 -1.17802 1.04693 0
M  V30 19020 C 1823.44 -2.21648 0.643478 0
M  V30 19021 C 1824.41 -1.6233 -0.351858 0
M  V30 19022 O 1825.6 -1.89228 -0.244414 0
M  V30 19023 C 1822.74 -3.45095 0.019145 0
M  V30 19024 C 1821.85 -4.18725 1.06271 0
M  V30 19025 C 1820.99 -5.29644 0.406224 0
M  V30 19026 C 1820.03 -5.95055 1.43444 0
M  V30 19027 N 1819.16 -6.97499 0.802482 0
M  V30 19028 H 1824 -2.55513 1.53352 0
M  V30 19029 H 1821.54 -1.25518 0.767051 0
M  V30 19030 H 1823.5 -4.15642 -0.36023 0
M  V30 19031 H 1822.13 -3.1183 -0.834386 0
M  V30 19032 H 1821.18 -3.46943 1.55996 0
M  V30 19033 H 1822.49 -4.63486 1.84342 0
M  V30 19034 H 1821.65 -6.06694 -0.027012 0
M  V30 19035 H 1820.39 -4.86003 -0.406525 0
M  V30 19036 H 1819.39 -5.1674 1.87775 0
M  V30 19037 H 1820.62 -6.40778 2.249 0
M  V30 19038 H 1818.56 -6.55999 0.010153 0
M  V30 19039 H 1818.48 -7.40545 1.52081 0
M  V30 19040 H 1819.75 -7.78504 0.393852 0
M  V30 19041 N 1823.98 -0.827251 -1.34143 0
M  V30 19042 C 1825.2 -0.429514 -2.02904 0
M  V30 19043 C 1825.63 0.958033 -1.61874 0
M  V30 19044 O 1824.98 1.62422 -0.805528 0
M  V30 19045 C 1825.03 -0.544592 -3.56464 0
M  V30 19046 O 1824.14 0.433849 -4.10112 0
M  V30 19047 H 1823.48 -0.176216 -0.64019 0
M  V30 19048 H 1826.01 -1.11887 -1.71297 0
M  V30 19049 H 1826.02 -0.421949 -4.05812 0
M  V30 19050 H 1824.69 -1.55657 -3.85673 0
M  V30 19051 H 1823.27 0.269729 -3.71923 0
M  V30 19052 N 1825.45 1.46436 -0.582609 0
M  V30 19053 C 1826.7 2.02685 -0.0682503 0
M  V30 19054 C 1827.03 1.45315 1.2883 0
M  V30 19055 O 1826.31 0.61821 1.84414 0
M  V30 19056 C 1826.59 3.601 -0.00237797 0
M  V30 19057 C 1826.44 4.27855 -1.38782 0
M  V30 19058 C 1827.76 4.34525 0.69829 0
M  V30 19059 H 1824.88 0.736531 -0.0262761 0
M  V30 19060 H 1827.52 1.7458 -0.749789 0
M  V30 19061 H 1825.67 3.84176 0.57803 0
M  V30 19062 H 1827.35 4.15043 -2.01339 0
M  V30 19063 H 1825.59 3.87221 -1.95557 0
M  V30 19064 H 1826.26 5.36614 -1.2942 0
M  V30 19065 H 1828.74 4.15594 0.205219 0
M  V30 19066 H 1827.61 5.44244 0.71341 0
M  V30 19067 H 1827.87 4.05575 1.75957 0
M  V30 19068 N 1826.93 0.320385 1.54309 0
M  V30 19069 C 1827.89 -0.534308 2.22885 0
M  V30 19070 C 1828.89 -1.04605 1.22124 0
M  V30 19071 O 1830.08 -0.938988 1.46726 0
M  V30 19072 C 1827.22 -1.74181 2.93042 0
M  V30 19073 H 1828.41 0.0651232 2.99829 0
M  V30 19074 H 1825.96 0.0714303 1.56137 0
M  V30 19075 H 1826.7 -2.38056 2.20227 0
M  V30 19076 H 1826.48 -1.38231 3.66926 0
M  V30 19077 H 1827.97 -2.34857 3.45299 0
M  V30 19078 N 1828.41 -1.57525 0.0484906 0
M  V30 19079 C 1829.64 -1.96897 -0.635553 0
M  V30 19080 C 1830.05 -0.925909 -1.64537 0
M  V30 19081 O 1829.41 0.0901742 -1.82277 0
M  V30 19082 C 1829.46 -3.36348 -1.32484 0
M  V30 19083 O 1829.18 -4.36656 -0.355464 0
M  V30 19084 C 1830.68 -3.90463 -2.0989 0
M  V30 19085 H 1827.9 -0.648062 -0.173945 0
M  V30 19086 H 1830.45 -2.04182 0.113997 0
M  V30 19087 H 1828.6 -3.30222 -2.02564 0
M  V30 19088 H 1829.02 -5.17613 -0.847153 0
M  V30 19089 H 1830.49 -4.90326 -2.53543 0
M  V30 19090 H 1830.97 -3.25745 -2.94596 0
M  V30 19091 H 1831.57 -3.99918 -1.44726 0
M  V30 19092 N 1829.89 0.224867 -1.55988 0
M  V30 19093 C 1830.84 1.29829 -1.92995 0
M  V30 19094 C 1831.83 1.48693 -0.81159 0
M  V30 19095 O 1833.04 1.49906 -0.996397 0
M  V30 19096 H 1829.41 0.435205 -0.61327 0
M  V30 19097 H 1831.38 0.958953 -2.82571 0
M  V30 19098 C 1830.13 2.6422 -2.26016 0
M  V30 19099 H 1829.45 2.50511 -3.11584 0
M  V30 19100 H 1830.89 3.38148 -2.55797 0
M  V30 19101 C 1829.35 3.1898 -1.08413 0
M  V30 19102 O 1829.88 4.00228 -0.343538 0
M  V30 19103 N 1828.09 2.77308 -0.868842 0
M  V30 19104 H 1827.64 2.11344 -1.4728 0
M  V30 19105 H 1827.59 3.14289 -0.0837012 0
M  V30 19106 N 1831.37 1.49742 0.491438 0
M  V30 19107 C 1832.3 1.70033 1.60034 0
M  V30 19108 C 1833.28 0.549076 1.60994 0
M  V30 19109 O 1834.46 0.785983 1.77584 0
M  V30 19110 C 1831.59 1.7757 2.98473 0
M  V30 19111 C 1830.55 2.9258 3.12379 0
M  V30 19112 C 1829.87 2.85239 4.52264 0
M  V30 19113 C 1831.17 4.33385 2.91504 0
M  V30 19114 H 1832.87 2.62875 1.43307 0
M  V30 19115 H 1830.41 1.26502 0.687989 0
M  V30 19116 H 1832.36 1.90351 3.75958 0
M  V30 19117 H 1831.09 0.813343 3.1631 0
M  V30 19118 H 1829.75 2.79417 2.37322 0
M  V30 19119 H 1829.4 1.86892 4.66991 0
M  V30 19120 H 1829.1 3.62437 4.62508 0
M  V30 19121 H 1830.62 3.00041 5.31797 0
M  V30 19122 H 1832.03 4.4718 3.58752 0
M  V30 19123 H 1830.43 5.11878 3.13211 0
M  V30 19124 H 1831.5 4.47166 1.87539 0
M  V30 19125 N 1832.84 -0.743177 1.38977 0
M  V30 19126 C 1834.09 -1.49798 1.35069 0
M  V30 19127 C 1834.41 -1.95527 -0.0533172 0
M  V30 19128 O 1835.61 -2.70648 -0.21497 0
M  V30 19129 C 1834.07 -2.70637 2.37242 0
M  V30 19130 C 1833.68 -2.3189 3.83316 0
M  V30 19131 C 1835.42 -3.4849 2.42395 0
M  V30 19132 C 1833.33 -3.49403 4.77149 0
M  V30 19133 H 1832.26 -0.562495 0.50211 0
M  V30 19134 H 1834.91 -0.81145 1.64584 0
M  V30 19135 H 1833.29 -3.41323 2.00785 0
M  V30 19136 H 1834.46 -1.68803 4.28768 0
M  V30 19137 H 1832.78 -1.67148 3.8138 0
M  V30 19138 H 1835.38 -4.35882 3.09694 0
M  V30 19139 H 1835.72 -3.9038 1.446 0
M  V30 19140 H 1836.25 -2.84825 2.77704 0
M  V30 19141 H 1832.99 -3.1257 5.76177 0
M  V30 19142 H 1832.51 -4.11498 4.36382 0
M  V30 19143 H 1834.19 -4.15847 4.95661 0
M  V30 19144 N 1834.32 -1.24018 -0.972487 0
M  V30 19145 C 1835.57 -1.07489 -1.71145 0
M  V30 19146 C 1835.89 0.387798 -1.91105 0
M  V30 19147 O 1835.16 1.27725 -1.48537 0
M  V30 19148 H 1833.74 -0.394765 -0.634168 0
M  V30 19149 H 1836.4 -1.55861 -1.17018 0
M  V30 19150 H 1835.5 -1.56913 -2.69786 0
M  V30 19151 N 1835.8 1.17245 -1.05316 0
M  V30 19152 C 1837.22 1.39535 -0.774741 0
M  V30 19153 C 1837.42 1.91388 0.63031 0
M  V30 19154 O 1836.47 2.10631 1.39251 0
M  V30 19155 C 1837.79 2.38497 -1.83139 0
M  V30 19156 C 1839.33 2.52201 -1.85375 0
M  V30 19157 C 1839.81 3.54437 -2.90066 0
M  V30 19158 N 1841.3 3.61956 -2.89037 0
M  V30 19159 C 1842.03 4.40824 -3.66691 0
M  V30 19160 N 1841.53 5.23196 -4.54134 0
M  V30 19161 N 1843.32 4.35709 -3.55125 0
M  V30 19162 H 1835.47 0.819186 -1.95967 0
M  V30 19163 H 1837.74 0.422515 -0.848637 0
M  V30 19164 H 1837.44 2.07471 -2.83987 0
M  V30 19165 H 1837.32 3.38016 -1.67407 0
M  V30 19166 H 1839.7 2.82536 -0.851904 0
M  V30 19167 H 1839.79 1.52751 -2.05184 0
M  V30 19168 H 1839.43 3.2484 -3.90437 0
M  V30 19169 H 1839.36 4.53593 -2.67508 0
M  V30 19170 H 1841.85 3.03146 -2.25635 0
M  V30 19171 H 1842.16 5.80562 -5.10067 0
M  V30 19172 H 1840.51 5.22573 -4.58194 0
M  V30 19173 H 1843.7 3.70411 -2.86205 0
M  V30 19174 H 1843.87 4.9693 -4.1589 0
M  V30 19175 N 1837.28 0.834353 1.33702 0
M  V30 19176 C 1838.5 0.440268 2.02673 0
M  V30 19177 C 1838.93 -0.949435 1.6238 0
M  V30 19178 O 1838.29 -1.61993 0.814131 0
M  V30 19179 C 1838.33 0.563489 3.5617 0
M  V30 19180 O 1837.44 -0.412093 4.10336 0
M  V30 19181 H 1836.78 0.179609 0.639247 0
M  V30 19182 H 1839.31 1.12794 1.70701 0
M  V30 19183 H 1839.32 0.443464 4.05583 0
M  V30 19184 H 1837.99 1.577 3.84842 0
M  V30 19185 H 1836.57 -0.250001 3.72061 0
M  V30 19186 N 1838.76 -1.46125 0.590367 0
M  V30 19187 C 1839.69 -2.33159 -0.126114 0
M  V30 19188 C 1840.67 -1.45806 -0.876057 0
M  V30 19189 O 1841.85 -1.7461 -0.850009 0
M  V30 19190 C 1838.98 -3.28217 -1.13537 0
M  V30 19191 C 1837.94 -4.25072 -0.499773 0
M  V30 19192 C 1837.26 -5.09694 -1.61605 0
M  V30 19193 C 1838.56 -5.19202 0.567992 0
M  V30 19194 H 1840.26 -2.93315 0.600577 0
M  V30 19195 H 1837.8 -1.41044 0.290265 0
M  V30 19196 H 1839.76 -3.87965 -1.64503 0
M  V30 19197 H 1838.48 -2.66185 -1.89244 0
M  V30 19198 H 1837.14 -3.66598 -0.0111313 0
M  V30 19199 H 1836.79 -4.44041 -2.36297 0
M  V30 19200 H 1836.49 -5.75292 -1.19637 0
M  V30 19201 H 1838.01 -5.72307 -2.12832 0
M  V30 19202 H 1839.42 -5.73121 0.143102 0
M  V30 19203 H 1837.82 -5.93184 0.908428 0
M  V30 19204 H 1838.89 -4.62671 1.45133 0
M  V30 19205 N 1840.23 -0.328564 -1.54137 0
M  V30 19206 C 1841.2 0.52248 -2.23165 0
M  V30 19207 C 1842.2 1.03956 -1.22677 0
M  V30 19208 O 1843.39 0.931193 -1.47222 0
M  V30 19209 C 1840.52 1.72624 -2.93962 0
M  V30 19210 H 1841.71 -0.081023 -2.99791 0
M  V30 19211 H 1839.27 -0.0797096 -1.56097 0
M  V30 19212 H 1840 2.36885 -2.21486 0
M  V30 19213 H 1839.79 1.36283 -3.67654 0
M  V30 19214 H 1841.28 2.33023 -3.4654 0
M  V30 19215 N 1841.71 1.57497 -0.0568439 0
M  V30 19216 C 1842.62 2.1535 0.930668 0
M  V30 19217 C 1843.64 1.11276 1.33767 0
M  V30 19218 O 1844.81 1.43472 1.41343 0
M  V30 19219 C 1841.88 2.69165 2.18521 0
M  V30 19220 C 1840.94 3.88057 1.83603 0
M  V30 19221 C 1840.17 4.39296 3.03076 0
M  V30 19222 O 1840.4 3.89588 4.16627 0
M  V30 19223 O 1839.33 5.30814 2.8376 0
M  V30 19224 H 1843.16 3.00063 0.468623 0
M  V30 19225 H 1840.74 1.48482 0.16538 0
M  V30 19226 H 1842.62 3.03721 2.92116 0
M  V30 19227 H 1841.3 1.8752 2.63852 0
M  V30 19228 H 1840.21 3.5838 1.07306 0
M  V30 19229 H 1841.54 4.70949 1.43066 0
M  V30 19230 N 1843.19 -0.216591 1.56105 0
M  V30 19231 C 1844.14 -1.26844 1.92819 0
M  V30 19232 C 1845.11 -1.46326 0.785999 0
M  V30 19233 O 1846.29 -1.59813 1.04232 0
M  V30 19234 C 1843.43 -2.61276 2.25452 0
M  V30 19235 C 1842.55 -2.49552 3.5263 0
M  V30 19236 C 1841.68 -3.76541 3.74686 0
M  V30 19237 C 1840.72 -3.5956 4.95362 0
M  V30 19238 N 1839.86 -4.7851 5.13782 0
M  V30 19239 H 1844.7 -0.948341 2.82508 0
M  V30 19240 H 1842.23 -0.456953 1.39823 0
M  V30 19241 H 1844.19 -3.39567 2.42384 0
M  V30 19242 H 1842.82 -2.91373 1.38931 0
M  V30 19243 H 1841.87 -1.6267 3.43864 0
M  V30 19244 H 1843.19 -2.32927 4.41074 0
M  V30 19245 H 1842.34 -4.63275 3.91741 0
M  V30 19246 H 1841.08 -3.96097 2.84532 0
M  V30 19247 H 1840.08 -2.71211 4.78252 0
M  V30 19248 H 1841.31 -3.41471 5.87005 0
M  V30 19249 H 1839.25 -4.9837 4.26572 0
M  V30 19250 H 1839.17 -4.64631 5.96368 0
M  V30 19251 H 1840.44 -5.66656 5.35277 0
M  V30 19252 N 1844.67 -1.5 -0.48349 0
M  V30 19253 C 1845.6 -1.70879 -1.5913 0
M  V30 19254 C 1846.58 -0.557606 -1.60701 0
M  V30 19255 O 1847.76 -0.79539 -1.77164 0
M  V30 19256 C 1844.89 -1.7915 -2.97527 0
M  V30 19257 C 1843.85 -2.94233 -3.10823 0
M  V30 19258 C 1843.17 -2.87634 -4.50745 0
M  V30 19259 C 1844.47 -4.34925 -2.89202 0
M  V30 19260 H 1846.17 -2.63632 -1.41911 0
M  V30 19261 H 1843.71 -1.26865 -0.68127 0
M  V30 19262 H 1845.67 -1.92342 -3.74943 0
M  V30 19263 H 1844.39 -0.830106 -3.15875 0
M  V30 19264 H 1843.05 -2.80672 -2.35837 0
M  V30 19265 H 1842.7 -1.89365 -4.65993 0
M  V30 19266 H 1842.4 -3.64885 -4.60579 0
M  V30 19267 H 1843.92 -3.02857 -5.30198 0
M  V30 19268 H 1845.34 -4.49076 -3.56376 0
M  V30 19269 H 1843.73 -5.13531 -3.10492 0
M  V30 19270 H 1844.8 -4.48154 -1.85165 0
M  V30 19271 N 1846.15 0.735796 -1.39369 0
M  V30 19272 C 1847.09 1.87116 -1.38168 0
M  V30 19273 C 1848.09 1.67315 -0.264936 0
M  V30 19274 O 1849.29 1.74666 -0.434928 0
M  V30 19275 H 1845.67 0.615926 -0.431438 0
M  V30 19276 H 1847.64 1.85245 -2.33938 0
M  V30 19277 C 1846.39 3.2479 -1.24125 0
M  V30 19278 H 1845.71 3.40621 -2.09325 0
M  V30 19279 H 1847.15 4.04426 -1.27341 0
M  V30 19280 C 1845.61 3.36862 0.050393 0
M  V30 19281 O 1846.14 3.88511 1.02088 0
M  V30 19282 N 1844.35 2.90379 0.113184 0
M  V30 19283 H 1843.89 2.48537 -0.677267 0
M  V30 19284 H 1843.85 2.98837 0.976928 0
M  V30 19285 N 1847.63 1.24532 0.965897 0
M  V30 19286 C 1848.85 1.11412 1.74934 0
M  V30 19287 C 1849.28 -0.329168 1.85197 0
M  V30 19288 O 1848.63 -1.23833 1.3242 0
M  V30 19289 C 1848.68 1.76068 3.14694 0
M  V30 19290 O 1847.79 1.03267 3.99261 0
M  V30 19291 H 1847.13 0.389633 0.537663 0
M  V30 19292 H 1849.66 1.64875 1.2115 0
M  V30 19293 H 1849.67 1.81897 3.65209 0
M  V30 19294 H 1848.34 2.8108 3.0654 0
M  V30 19295 H 1846.92 1.05236 3.57743 0
M  V30 19296 N 1849.1 -1.16685 1.05936 0
M  V30 19297 C 1850.33 -1.91576 0.794558 0
M  V30 19298 C 1850.75 -1.76706 -0.644718 0
M  V30 19299 O 1850.11 -1.0899 -1.44882 0
M  V30 19300 C 1850.16 -3.40417 1.18947 0
M  V30 19301 O 1849.26 -4.11109 0.326091 0
M  V30 19302 H 1848.6 -0.596983 0.290702 0
M  V30 19303 H 1851.13 -1.47856 1.4142 0
M  V30 19304 H 1851.14 -3.91178 1.15947 0
M  V30 19305 H 1849.82 -3.5056 2.23786 0
M  V30 19306 H 1848.4 -3.70557 0.417347 0
M  V30 19307 N 1850.58 -0.841432 -1.33258 0
M  V30 19308 C 1851.83 -0.439027 -1.97991 0
M  V30 19309 C 1852.16 0.999767 -1.66488 0
M  V30 19310 O 1851.44 1.69938 -0.94612 0
M  V30 19311 C 1851.72 -0.663137 -3.53941 0
M  V30 19312 C 1851.57 -2.14939 -3.95122 0
M  V30 19313 C 1852.89 -0.11094 -4.3996 0
M  V30 19314 H 1850.01 -0.160987 -0.719203 0
M  V30 19315 H 1852.65 -1.05742 -1.57856 0
M  V30 19316 H 1850.8 -0.136765 -3.88259 0
M  V30 19317 H 1852.47 -2.74082 -3.71048 0
M  V30 19318 H 1850.72 -2.63293 -3.4476 0
M  V30 19319 H 1851.39 -2.25694 -5.03752 0
M  V30 19320 H 1853.86 -0.560898 -4.12302 0
M  V30 19321 H 1852.74 -0.297416 -5.48094 0
M  V30 19322 H 1853 0.985446 -4.30977 0
M  V30 19323 N 1852.06 1.4581 -0.598108 0
M  V30 19324 C 1853.29 2.06379 -0.0955533 0
M  V30 19325 C 1853.7 1.44497 1.22137 0
M  V30 19326 O 1853.04 0.549997 1.75273 0
M  V30 19327 C 1853.1 3.59271 0.128433 0
M  V30 19328 C 1852.77 4.43434 -1.10523 0
M  V30 19329 C 1853.76 4.79008 -2.02107 0
M  V30 19330 C 1851.45 4.84334 -1.3314 0
M  V30 19331 C 1853.44 5.54326 -3.14644 0
M  V30 19332 C 1851.13 5.59408 -2.45979 0
M  V30 19333 C 1852.13 5.9432 -3.3656 0
M  V30 19334 O 1851.82 6.67874 -4.47437 0
M  V30 19335 H 1851.55 0.673187 -0.0616108 0
M  V30 19336 H 1854.1 1.88191 -0.823012 0
M  V30 19337 H 1852.33 3.75824 0.910679 0
M  V30 19338 H 1854.02 4.01714 0.581406 0
M  V30 19339 H 1854.79 4.47976 -1.85856 0
M  V30 19340 H 1850.67 4.566 -0.635381 0
M  V30 19341 H 1854.21 5.81495 -3.8537 0
M  V30 19342 H 1850.11 5.89854 -2.62187 0
M  V30 19343 H 1850.87 6.86314 -4.45999 0
M  V30 19344 N 1853.54 0.336733 1.53961 0
M  V30 19345 C 1854.76 -0.26614 2.05685 0
M  V30 19346 C 1855.19 -1.43973 1.21051 0
M  V30 19347 O 1854.55 -1.79928 0.222652 0
M  V30 19348 C 1854.59 -0.66571 3.54402 0
M  V30 19349 O 1853.7 -1.76656 3.72648 0
M  V30 19350 H 1853.04 -0.0455655 0.662435 0
M  V30 19351 H 1855.57 0.488969 1.98671 0
M  V30 19352 H 1855.58 -0.944748 3.96911 0
M  V30 19353 H 1854.25 0.192589 4.15454 0
M  V30 19354 H 1852.83 -1.48531 3.42042 0
M  V30 19355 N 1855.02 -1.57465 0.0651956 0
M  V30 19356 C 1855.95 -2.15374 -0.902018 0
M  V30 19357 C 1856.93 -1.07904 -1.31494 0
M  V30 19358 O 1858.11 -1.35909 -1.38717 0
M  V30 19359 C 1855.24 -2.71005 -2.17195 0
M  V30 19360 C 1854.2 -3.83583 -1.89864 0
M  V30 19361 C 1853.52 -4.25789 -3.23432 0
M  V30 19362 C 1854.82 -5.08112 -1.20913 0
M  V30 19363 H 1856.52 -2.96445 -0.419631 0
M  V30 19364 H 1854.06 -1.42599 -0.200401 0
M  V30 19365 H 1856.01 -3.1016 -2.8527 0
M  V30 19366 H 1854.74 -1.87146 -2.67664 0
M  V30 19367 H 1853.4 -3.44921 -1.24197 0
M  V30 19368 H 1853.05 -3.38861 -3.71729 0
M  V30 19369 H 1852.75 -5.01673 -3.05938 0
M  V30 19370 H 1854.27 -4.67555 -3.92715 0
M  V30 19371 H 1855.68 -5.44624 -1.79046 0
M  V30 19372 H 1854.08 -5.8923 -1.137 0
M  V30 19373 H 1855.15 -4.84538 -0.187224 0
M  V30 19374 N 1856.49 0.20831 -1.56217 0
M  V30 19375 C 1857.9 0.774162 -1.69893 0
M  V30 19376 C 1858.26 1.84424 -0.669506 0
M  V30 19377 O 1857.38 2.15677 0.176748 0
M  V30 19378 C 1857.98 1.41102 -3.08019 0
M  V30 19379 C 1856.53 1.9241 -3.23505 0
M  V30 19380 C 1855.68 0.789129 -2.65835 0
M  V30 19381 H 1858.63 -0.0165614 -1.58691 0
M  V30 19382 H 1858.65 2.28015 -3.04614 0
M  V30 19383 H 1858.17 0.631966 -3.8292 0
M  V30 19384 H 1856.27 2.73076 -2.53496 0
M  V30 19385 H 1856.38 2.09497 -4.30868 0
M  V30 19386 H 1854.74 1.19995 -2.24663 0
M  V30 19387 H 1855.53 0.0225345 -3.43293 0
M  V30 19388 N 1857.97 1.50255 0.475528 0
M  V30 19389 C 1859.38 1.53931 1.05651 0
M  V30 19390 C 1859.73 0.340226 1.93228 0
M  V30 19391 O 1858.86 -0.547349 2.09363 0
M  V30 19392 C 1859.45 2.78951 1.92281 0
M  V30 19393 C 1858.01 2.85323 2.45495 0
M  V30 19394 C 1857.16 2.48166 1.2373 0
M  V30 19395 H 1860.11 1.56583 0.258332 0
M  V30 19396 H 1860.13 2.60555 2.77293 0
M  V30 19397 H 1859.64 3.66205 1.28514 0
M  V30 19398 H 1857.74 2.0241 3.12827 0
M  V30 19399 H 1857.86 3.88109 2.80906 0
M  V30 19400 H 1856.22 2.00505 1.57066 0
M  V30 19401 H 1857 3.37722 0.616324 0
M  V30 19402 N 1859.45 -0.728395 1.39758 0
M  V30 19403 C 1860.73 -1.48036 1.27846 0
M  V30 19404 C 1861.11 -2.10818 -0.108996 0
M  V30 19405 O 1860.45 -1.99125 -1.12078 0
M  V30 19406 C 1860.66 -2.52644 2.40774 0
M  V30 19407 C 1862.01 -3.1884 2.80404 0
M  V30 19408 O 1863.04 -2.6296 2.40272 0
M  V30 19409 O 1861.9 -4.19971 3.49696 0
M  V30 19410 H 1858.99 -0.657688 0.501374 0
M  V30 19411 H 1861.54 -0.761658 1.51647 0
M  V30 19412 H 1860.31 -2.04678 3.335 0
M  V30 19413 H 1859.93 -3.32066 2.18674 0
M  V30 19414 N 1860.93 -1.25042 -0.959279 0
M  V30 19415 C 1862.34 -1.08692 -1.51799 0
M  V30 19416 C 1862.69 0.338893 -1.93251 0
M  V30 19417 O 1861.81 1.22831 -1.78162 0
M  V30 19418 C 1862.41 -1.9669 -2.7586 0
M  V30 19419 C 1860.97 -1.84538 -3.28059 0
M  V30 19420 C 1860.12 -1.91119 -2.0092 0
M  V30 19421 H 1863.07 -1.38396 -0.776669 0
M  V30 19422 H 1863.09 -1.50414 -3.49508 0
M  V30 19423 H 1862.6 -3.00455 -2.45659 0
M  V30 19424 H 1860.7 -0.836383 -3.63091 0
M  V30 19425 H 1860.81 -2.69095 -3.96389 0
M  V30 19426 H 1859.18 -1.34948 -2.16012 0
M  V30 19427 H 1859.96 -2.9648 -1.73074 0
M  V30 19428 N 1862.41 1.16121 -1.06553 0
M  V30 19429 C 1863.68 1.82752 -0.697202 0
M  V30 19430 C 1864.06 1.94474 0.821172 0
M  V30 19431 O 1863.41 1.48988 1.73248 0
M  V30 19432 C 1863.62 3.19592 -1.4022 0
M  V30 19433 C 1864.97 3.95333 -1.5491 0
M  V30 19434 O 1865.99 3.29119 -1.36232 0
M  V30 19435 O 1864.85 5.14028 -1.85574 0
M  V30 19436 H 1861.95 0.789214 -0.247125 0
M  V30 19437 H 1864.49 1.23302 -1.16597 0
M  V30 19438 H 1863.26 3.06111 -2.43745 0
M  V30 19439 H 1862.89 3.86722 -0.923686 0
M  V30 19440 N 1863.88 0.848487 1.3281 0
M  V30 19441 C 1864.83 0.260521 2.26507 0
M  V30 19442 C 1865.82 -0.59006 1.4969 0
M  V30 19443 O 1867.01 -0.440453 1.71432 0
M  V30 19444 C 1864.14 -0.555364 3.38778 0
M  V30 19445 C 1863.23 0.307262 4.22985 0
M  V30 19446 N 1863.62 1.39058 4.86309 0
M  V30 19447 C 1861.91 0.0959443 4.45897 0
M  V30 19448 C 1862.62 1.92076 5.49073 0
M  V30 19449 N 1861.59 1.22083 5.29714 0
M  V30 19450 H 1865.39 1.08881 2.72988 0
M  V30 19451 H 1862.91 0.693949 1.46827 0
M  V30 19452 H 1864.9 -0.992951 4.04903 0
M  V30 19453 H 1863.56 -1.38152 2.93844 0
M  V30 19454 H 1864.58 1.7735 4.86587 0
M  V30 19455 H 1861.25 -0.69599 4.11658 0
M  V30 19456 H 1862.64 2.82849 6.09464 0
M  V30 19457 N 1865.36 -1.4549 0.605832 0
M  V30 19458 C 1866.61 -2.02251 0.100338 0
M  V30 19459 C 1866.94 -1.47447 -1.26845 0
M  V30 19460 O 1866.19 -0.638532 -1.8499 0
M  V30 19461 C 1866.49 -3.57399 0.00918576 0
M  V30 19462 C 1866.16 -4.31347 1.31341 0
M  V30 19463 C 1864.82 -4.51267 1.67067 0
M  V30 19464 C 1867.17 -4.73629 2.17543 0
M  V30 19465 C 1864.5 -5.10725 2.88751 0
M  V30 19466 C 1866.85 -5.34432 3.38474 0
M  V30 19467 C 1865.52 -5.52576 3.74455 0
M  V30 19468 H 1864.79 -0.74009 0.0367165 0
M  V30 19469 H 1867.43 -1.74577 0.787099 0
M  V30 19470 H 1865.74 -3.84342 -0.760829 0
M  V30 19471 H 1867.43 -3.99019 -0.398057 0
M  V30 19472 H 1864.02 -4.16155 1.02533 0
M  V30 19473 H 1868.21 -4.57974 1.91241 0
M  V30 19474 H 1863.46 -5.22961 3.16736 0
M  V30 19475 H 1867.64 -5.66149 4.05522 0
M  V30 19476 H 1865.27 -5.98416 4.68831 0
M  V30 19477 N 1866.84 -0.344893 -1.5378 0
M  V30 19478 C 1868.12 0.306554 -1.93183 0
M  V30 19479 C 1868.5 1.68127 -1.27658 0
M  V30 19480 O 1867.85 2.24456 -0.428003 0
M  V30 19481 C 1868.06 0.377484 -3.46953 0
M  V30 19482 C 1869.4 0.627685 -4.19935 0
M  V30 19483 O 1870.43 0.459544 -3.53223 0
M  V30 19484 O 1869.29 0.953511 -5.38117 0
M  V30 19485 H 1866.38 0.179163 -0.80736 0
M  V30 19486 H 1868.93 -0.396168 -1.65011 0
M  V30 19487 H 1867.7 -0.587175 -3.86869 0
M  V30 19488 H 1867.32 1.12694 -3.81295 0
M  V30 19489 N 1868.32 1.57428 -0.0735454 0
M  V30 19490 C 1869.57 1.93174 0.593996 0
M  V30 19491 C 1869.89 0.954462 1.70044 0
M  V30 19492 O 1869.16 0.00289765 1.959 0
M  V30 19493 H 1867.74 0.713123 0.222407 0
M  V30 19494 H 1870.4 1.94454 -0.131813 0
M  V30 19495 H 1869.5 2.95025 1.01818 0
M  V30 19496 N 1869.8 -0.200022 1.56326 0
M  V30 19497 C 1871.03 -0.936144 1.84174 0
M  V30 19498 C 1871.43 -1.77564 0.653267 0
M  V30 19499 O 1870.78 -1.79569 -0.387368 0
M  V30 19500 C 1870.84 -1.88598 3.06057 0
M  V30 19501 C 1870.5 -1.22892 4.40167 0
M  V30 19502 C 1871.5 -0.608243 5.1633 0
M  V30 19503 C 1869.19 -1.23424 4.869 0
M  V30 19504 C 1871.18 -0.00166268 6.374 0
M  V30 19505 C 1868.87 -0.623827 6.07908 0
M  V30 19506 C 1869.86 -0.00861163 6.82999 0
M  V30 19507 O 1869.55 0.592252 8.01715 0
M  V30 19508 H 1869.28 -0.278889 0.615789 0
M  V30 19509 H 1871.84 -0.213764 2.04285 0
M  V30 19510 H 1870.07 -2.64793 2.81818 0
M  V30 19511 H 1871.76 -2.48948 3.20593 0
M  V30 19512 H 1872.52 -0.596302 4.8132 0
M  V30 19513 H 1868.4 -1.7025 4.28411 0
M  V30 19514 H 1871.95 0.479147 6.95953 0
M  V30 19515 H 1867.84 -0.633254 6.42386 0
M  V30 19516 H 1868.61 0.488674 8.1704 0
M  V30 19517 N 1871.27 -1.50505 -0.467553 0
M  V30 19518 C 1872.22 -1.69626 -1.56511 0
M  V30 19519 C 1873.19 -0.537594 -1.5716 0
M  V30 19520 O 1874.38 -0.768574 -1.74636 0
M  V30 19521 C 1871.52 -1.79965 -2.9446 0
M  V30 19522 C 1870.63 -3.07356 -3.03572 0
M  V30 19523 C 1869.76 -3.08469 -4.32458 0
M  V30 19524 C 1868.8 -4.303 -4.35326 0
M  V30 19525 N 1867.94 -4.29132 -5.55689 0
M  V30 19526 H 1872.78 -2.63326 -1.39511 0
M  V30 19527 H 1870.32 -1.30531 -0.678239 0
M  V30 19528 H 1872.28 -1.8394 -3.74462 0
M  V30 19529 H 1870.91 -0.897013 -3.10086 0
M  V30 19530 H 1869.96 -3.12836 -2.16421 0
M  V30 19531 H 1871.27 -3.97327 -3.01551 0
M  V30 19532 H 1870.42 -3.11193 -5.20811 0
M  V30 19533 H 1869.16 -2.16335 -4.37093 0
M  V30 19534 H 1868.17 -4.27784 -3.4537 0
M  V30 19535 H 1869.39 -5.23665 -4.3238 0
M  V30 19536 H 1867.34 -3.39853 -5.61102 0
M  V30 19537 H 1867.26 -5.12875 -5.55423 0
M  V30 19538 H 1868.52 -4.36007 -6.46156 0
M  V30 19539 N 1872.75 0.720973 -1.40142 0
M  V30 19540 C 1873.68 1.8457 -1.35891 0
M  V30 19541 C 1874.7 1.60625 -0.265232 0
M  V30 19542 O 1875.89 1.70599 -0.525198 0
M  V30 19543 C 1872.99 3.20871 -1.09064 0
M  V30 19544 C 1872.16 3.72058 -2.29982 0
M  V30 19545 C 1871.22 4.86957 -1.99397 0
M  V30 19546 O 1870.24 4.99888 -2.72213 0
M  V30 19547 N 1871.45 5.72361 -0.968645 0
M  V30 19548 H 1874.21 1.88717 -2.32822 0
M  V30 19549 H 1871.77 0.902293 -1.34426 0
M  V30 19550 H 1873.76 3.95326 -0.865979 0
M  V30 19551 H 1872.33 3.11906 -0.208188 0
M  V30 19552 H 1871.55 2.88795 -2.68312 0
M  V30 19553 H 1872.84 4.02991 -3.10605 0
M  V30 19554 H 1872.24 5.64518 -0.36546 0
M  V30 19555 H 1870.8 6.46824 -0.803886 0
M  V30 19556 N 1874.23 1.25549 0.952634 0
M  V30 19557 C 1875.16 1.01898 2.05304 0
M  V30 19558 C 1876.18 -0.0167609 1.62791 0
M  V30 19559 O 1877.36 0.222021 1.77114 0
M  V30 19560 C 1874.46 0.518856 3.34905 0
M  V30 19561 C 1873.64 1.62121 4.06246 0
M  V30 19562 C 1872.7 1.12111 5.14118 0
M  V30 19563 O 1871.72 1.81591 5.39456 0
M  V30 19564 N 1872.92 -0.0365454 5.80488 0
M  V30 19565 H 1875.69 1.96648 2.26163 0
M  V30 19566 H 1873.25 1.16782 1.12132 0
M  V30 19567 H 1875.24 0.168729 4.04348 0
M  V30 19568 H 1873.81 -0.334763 3.10802 0
M  V30 19569 H 1873.03 2.14282 3.30873 0
M  V30 19570 H 1874.32 2.36173 4.50666 0
M  V30 19571 H 1873.72 -0.617055 5.62325 0
M  V30 19572 H 1872.28 -0.327688 6.50976 0
M  V30 19573 N 1875.71 -1.15554 1.07168 0
M  V30 19574 C 1876.67 -2.18431 0.694305 0
M  V30 19575 C 1877.67 -1.5861 -0.264497 0
M  V30 19576 O 1878.86 -1.7414 -0.0457035 0
M  V30 19577 C 1875.99 -3.40892 0.0230473 0
M  V30 19578 H 1877.19 -2.53331 1.60511 0
M  V30 19579 H 1874.74 -1.29984 0.867982 0
M  V30 19580 H 1875.47 -3.11559 -0.900083 0
M  V30 19581 H 1875.26 -3.8557 0.712622 0
M  V30 19582 H 1876.75 -4.16986 -0.226392 0
M  V30 19583 N 1877.19 -0.855519 -1.32358 0
M  V30 19584 C 1878.43 -0.460002 -1.97514 0
M  V30 19585 C 1878.77 0.982052 -1.67539 0
M  V30 19586 O 1878.04 1.68925 -0.964091 0
M  V30 19587 C 1878.32 -0.70064 -3.53218 0
M  V30 19588 C 1878.18 -2.19118 -3.9282 0
M  V30 19589 C 1879.5 -0.157597 -4.39818 0
M  V30 19590 H 1876.62 -0.168606 -0.717455 0
M  V30 19591 H 1879.26 -1.0741 -1.56726 0
M  V30 19592 H 1877.41 -0.177937 -3.88092 0
M  V30 19593 H 1879.08 -2.78002 -3.6812 0
M  V30 19594 H 1877.32 -2.66934 -3.41948 0
M  V30 19595 H 1877.99 -2.31024 -5.0133 0
M  V30 19596 H 1880.47 -0.604597 -4.11684 0
M  V30 19597 H 1879.35 -0.355532 -5.47747 0
M  V30 19598 H 1879.61 0.939679 -4.31998 0
M  V30 19599 N 1878.67 1.45167 -0.61354 0
M  V30 19600 C 1879.91 2.02495 -0.111227 0
M  V30 19601 C 1880.24 1.48015 1.25719 0
M  V30 19602 O 1879.52 0.657188 1.83061 0
M  V30 19603 C 1879.8 3.60014 -0.07876 0
M  V30 19604 C 1879.66 4.24814 -1.47827 0
M  V30 19605 C 1880.97 4.35908 0.605964 0
M  V30 19606 H 1878.09 0.735808 -0.0418931 0
M  V30 19607 H 1880.74 1.7295 -0.786651 0
M  V30 19608 H 1878.89 3.85315 0.496411 0
M  V30 19609 H 1880.56 4.10678 -2.10097 0
M  V30 19610 H 1878.8 3.82986 -2.03726 0
M  V30 19611 H 1879.47 5.33748 -1.40774 0
M  V30 19612 H 1881.95 4.15935 0.117019 0
M  V30 19613 H 1880.82 5.45635 0.597808 0
M  V30 19614 H 1881.08 4.09216 1.67315 0
M  V30 19615 N 1880.14 0.353044 1.53595 0
M  V30 19616 C 1881.39 -0.2416 2.00248 0
M  V30 19617 C 1881.71 -1.5089 1.24465 0
M  V30 19618 O 1882.91 -2.18137 1.61643 0
M  V30 19619 C 1881.37 -0.481075 3.5667 0
M  V30 19620 C 1880.98 0.77087 4.41318 0
M  V30 19621 C 1882.72 -1.03406 4.11713 0
M  V30 19622 C 1880.63 0.501671 5.89268 0
M  V30 19623 H 1879.56 -0.0940573 0.74811 0
M  V30 19624 H 1882.21 0.469845 1.77383 0
M  V30 19625 H 1880.59 -1.25346 3.75639 0
M  V30 19626 H 1881.76 1.54509 4.34124 0
M  V30 19627 H 1880.08 1.24617 3.97315 0
M  V30 19628 H 1882.68 -1.25058 5.1987 0
M  V30 19629 H 1883.02 -1.99245 3.65523 0
M  V30 19630 H 1883.55 -0.322144 3.96493 0
M  V30 19631 H 1880.29 1.43005 6.39711 0
M  V30 19632 H 1879.81 -0.234284 5.99342 0
M  V30 19633 H 1881.49 0.122468 6.46884 0
M  V30 19634 N 1881.62 -1.57387 0.0818932 0
M  V30 19635 C 1882.55 -2.0892 -0.91802 0
M  V30 19636 C 1883.53 -0.996648 -1.28474 0
M  V30 19637 O 1884.72 -1.27073 -1.39229 0
M  V30 19638 C 1881.84 -2.55525 -2.22317 0
M  V30 19639 C 1880.89 -3.76312 -2.00727 0
M  V30 19640 S 1881.72 -5.20529 -1.25736 0
M  V30 19641 C 1882.88 -5.70473 -2.57509 0
M  V30 19642 H 1883.11 -2.93407 -0.479563 0
M  V30 19643 H 1880.64 -1.53842 -0.131103 0
M  V30 19644 H 1882.6 -2.83035 -2.97324 0
M  V30 19645 H 1881.26 -1.71288 -2.63285 0
M  V30 19646 H 1880.46 -4.06945 -2.97342 0
M  V30 19647 H 1880.06 -3.49227 -1.33853 0
M  V30 19648 H 1882.35 -5.77934 -3.53551 0
M  V30 19649 H 1883.29 -6.69198 -2.31473 0
M  V30 19650 H 1883.7 -4.98339 -2.65177 0
M  V30 19651 N 1883.1 0.191729 -1.56429 0
M  V30 19652 C 1884.38 0.937684 -1.71659 0
M  V30 19653 C 1884.76 2.0124 -0.63762 0
M  V30 19654 O 1884.1 2.2579 0.350865 0
M  V30 19655 C 1884.31 1.52104 -3.14111 0
M  V30 19656 C 1885.66 2.00186 -3.74447 0
M  V30 19657 O 1886.69 1.61939 -3.1726 0
M  V30 19658 O 1885.55 2.70576 -4.74817 0
M  V30 19659 H 1882.64 0.439962 -0.700259 0
M  V30 19660 H 1885.19 0.181161 -1.6873 0
M  V30 19661 H 1883.96 0.746526 -3.84113 0
M  V30 19662 H 1883.58 2.3423 -3.21282 0
M  V30 19663 N 1884.58 1.50751 0.459565 0
M  V30 19664 C 1885.85 1.5284 1.22062 0
M  V30 19665 C 1886.23 0.279716 2.09239 0
M  V30 19666 O 1885.58 -0.73634 2.16311 0
M  V30 19667 C 1885.79 2.83046 2.04171 0
M  V30 19668 C 1887.14 3.34151 2.6197 0
M  V30 19669 O 1888.16 2.84446 2.14403 0
M  V30 19670 O 1887.02 4.20824 3.48668 0
M  V30 19671 H 1884.12 0.613549 0.554515 0
M  V30 19672 H 1886.66 1.63049 0.470445 0
M  V30 19673 H 1885.44 3.65397 1.40004 0
M  V30 19674 H 1885.06 2.75896 2.86299 0
M  V30 19675 N 1886.06 -0.713531 1.40522 0
M  V30 19676 C 1886.99 -1.8404 1.43707 0
M  V30 19677 C 1887.97 -1.67474 0.297751 0
M  V30 19678 O 1889.15 -1.87474 0.506662 0
M  V30 19679 C 1886.28 -3.22014 1.30094 0
M  V30 19680 C 1885.24 -3.53255 2.4165 0
M  V30 19681 C 1884.56 -4.90395 2.13113 0
M  V30 19682 C 1885.86 -3.54045 3.83991 0
M  V30 19683 H 1887.56 -1.81632 2.38013 0
M  V30 19684 H 1885.1 -0.872437 1.14562 0
M  V30 19685 H 1887.05 -4.00541 1.30938 0
M  V30 19686 H 1885.78 -3.25002 0.322648 0
M  V30 19687 H 1884.44 -2.77069 2.40059 0
M  V30 19688 H 1884.09 -4.89988 1.13669 0
M  V30 19689 H 1883.79 -5.12264 2.87853 0
M  V30 19690 H 1885.31 -5.71254 2.15642 0
M  V30 19691 H 1886.72 -4.22609 3.87395 0
M  V30 19692 H 1885.12 -3.87441 4.58268 0
M  V30 19693 H 1886.19 -2.53387 4.13428 0
M  V30 19694 N 1887.53 -1.26053 -0.945962 0
M  V30 19695 C 1888.77 -1.1253 -1.70635 0
M  V30 19696 C 1889.14 0.326708 -1.892 0
M  V30 19697 O 1890.34 0.583957 -2.6238 0
M  V30 19698 C 1888.61 -1.86811 -3.04691 0
M  V30 19699 S 1890.17 -1.89284 -3.95875 0
M  V30 19700 H 1886.99 -0.402052 -0.586409 0
M  V30 19701 H 1889.59 -1.59703 -1.12762 0
M  V30 19702 H 1888.29 -2.91531 -2.88856 0
M  V30 19703 H 1887.82 -1.40059 -3.67623 0
M  V30 19704 H 1889.84 -0.976107 -4.86504 0
M  V30 19705 N 1889.01 1.14984 -1.07779 0
M  V30 19706 C 1889.94 2.19494 -0.659934 0
M  V30 19707 C 1890.96 1.60201 0.289756 0
M  V30 19708 O 1892.15 1.78328 0.0784004 0
M  V30 19709 C 1889.25 3.38862 0.0506161 0
M  V30 19710 C 1888.42 4.27693 -0.916355 0
M  V30 19711 C 1887.48 5.25642 -0.242303 0
M  V30 19712 O 1886.5 5.62282 -0.884715 0
M  V30 19713 N 1887.71 5.7164 1.01033 0
M  V30 19714 H 1890.47 2.5596 -1.55899 0
M  V30 19715 H 1888.03 1.30143 -0.963043 0
M  V30 19716 H 1890.02 4.01444 0.512331 0
M  V30 19717 H 1888.59 3.00775 0.851671 0
M  V30 19718 H 1887.81 3.62145 -1.55708 0
M  V30 19719 H 1889.1 4.83913 -1.57182 0
M  V30 19720 H 1888.5 5.43991 1.55212 0
M  V30 19721 H 1887.06 6.36241 1.41565 0
M  V30 19722 N 1890.49 0.862526 1.31902 0
M  V30 19723 C 1891.44 0.301807 2.30634 0
M  V30 19724 C 1892.43 -0.579086 1.59195 0
M  V30 19725 O 1893.64 -0.466014 1.73863 0
M  V30 19726 H 1890.01 0.078905 0.747849 0
M  V30 19727 H 1891.98 1.1486 2.75408 0
M  V30 19728 C 1890.73 -0.48822 3.44255 0
M  V30 19729 H 1890.06 0.18033 3.99393 0
M  V30 19730 H 1891.5 -0.846013 4.15474 0
M  V30 19731 C 1889.95 -1.67656 2.92221 0
M  V30 19732 O 1890.48 -2.77577 2.90369 0
M  V30 19733 N 1888.69 -1.50622 2.48518 0
M  V30 19734 H 1888.24 -0.612021 2.50224 0
M  V30 19735 H 1888.2 -2.30275 2.14058 0
M  V30 19736 N 1891.97 -1.4484 0.62123 0
M  V30 19737 C 1893.38 -1.85568 0.205284 0
M  V30 19738 C 1893.73 -1.51963 -1.24104 0
M  V30 19739 O 1892.86 -0.952887 -1.94291 0
M  V30 19740 C 1893.45 -3.3682 0.365788 0
M  V30 19741 C 1892.01 -3.764 0.00442911 0
M  V30 19742 C 1891.16 -2.68736 0.683839 0
M  V30 19743 H 1894.11 -1.35447 0.827036 0
M  V30 19744 H 1894.13 -3.78411 -0.398123 0
M  V30 19745 H 1893.64 -3.61247 1.41853 0
M  V30 19746 H 1891.74 -3.57588 -1.04696 0
M  V30 19747 H 1891.85 -4.77363 0.407588 0
M  V30 19748 H 1890.22 -2.54417 0.120114 0
M  V30 19749 H 1891 -2.95997 1.73898 0
M  V30 19750 N 1893.45 -0.361184 -1.53405 0
M  V30 19751 C 1894.72 0.286047 -1.93497 0
M  V30 19752 C 1895.1 1.66764 -1.29434 0
M  V30 19753 O 1894.45 2.23989 -0.451785 0
M  V30 19754 C 1894.66 0.340663 -3.47333 0
M  V30 19755 C 1896.01 0.58311 -4.20577 0
M  V30 19756 O 1897.03 0.422054 -3.53691 0
M  V30 19757 O 1895.89 0.896383 -5.39099 0
M  V30 19758 H 1892.99 0.17059 -0.809215 0
M  V30 19759 H 1895.53 -0.413648 -1.64581 0
M  V30 19760 H 1894.3 -0.628175 -3.86225 0
M  V30 19761 H 1893.93 1.08643 -3.82469 0
M  V30 19762 N 1894.92 1.57341 -0.0902386 0
M  V30 19763 C 1896.17 1.93793 0.573474 0
M  V30 19764 C 1896.49 0.972444 1.69022 0
M  V30 19765 O 1895.76 0.0236753 1.95886 0
M  V30 19766 H 1894.34 0.715442 0.21483 0
M  V30 19767 H 1897.01 1.94303 -0.15243 0
M  V30 19768 H 1896.1 2.96088 0.986829 0
M  V30 19769 N 1896.4 -0.183431 1.56529 0
M  V30 19770 C 1897.35 -1.22726 1.95466 0
M  V30 19771 C 1898.32 -1.44626 0.81686 0
M  V30 19772 O 1899.5 -1.57566 1.07599 0
M  V30 19773 C 1896.64 -2.56435 2.30944 0
M  V30 19774 C 1895.76 -2.42016 3.57844 0
M  V30 19775 C 1894.89 -3.68509 3.82589 0
M  V30 19776 C 1893.93 -3.48972 5.02877 0
M  V30 19777 N 1893.07 -4.67505 5.23817 0
M  V30 19778 H 1897.91 -0.888204 2.84456 0
M  V30 19779 H 1895.45 -0.427192 1.4076 0
M  V30 19780 H 1897.4 -3.3435 2.49532 0
M  V30 19781 H 1896.03 -2.8836 1.4508 0
M  V30 19782 H 1895.09 -1.55339 3.47237 0
M  V30 19783 H 1896.4 -2.23519 4.45915 0
M  V30 19784 H 1895.55 -4.54861 4.0148 0
M  V30 19785 H 1894.29 -3.89972 2.9287 0
M  V30 19786 H 1893.3 -2.61005 4.83897 0
M  V30 19787 H 1894.52 -3.28942 5.94116 0
M  V30 19788 H 1892.47 -4.8921 4.37047 0
M  V30 19789 H 1892.38 -4.51876 6.06089 0
M  V30 19790 H 1893.65 -5.55175 5.47176 0
M  V30 19791 N 1897.88 -1.50992 -0.451564 0
M  V30 19792 C 1899.16 -1.53486 -1.2125 0
M  V30 19793 C 1899.54 -0.290809 -2.09087 0
M  V30 19794 O 1898.89 0.724859 -2.16698 0
M  V30 19795 C 1899.1 -2.84125 -2.02667 0
M  V30 19796 C 1900.44 -3.35535 -2.60195 0
M  V30 19797 O 1901.47 -2.85579 -2.12892 0
M  V30 19798 O 1900.33 -4.22667 -3.46432 0
M  V30 19799 H 1897.42 -0.616481 -0.551253 0
M  V30 19800 H 1899.97 -1.63296 -0.461792 0
M  V30 19801 H 1898.74 -3.66134 -1.38064 0
M  V30 19802 H 1898.36 -2.7741 -2.84832 0
M  V30 19803 N 1899.36 0.706069 -1.40899 0
M  V30 19804 C 1900.6 1.46821 -1.39898 0
M  V30 19805 C 1900.94 1.942 -0.00437855 0
M  V30 19806 O 1900.21 1.68815 0.966002 0
M  V30 19807 C 1900.5 2.68756 -2.39671 0
M  V30 19808 C 1900.35 2.27211 -3.88195 0
M  V30 19809 C 1901.67 3.70935 -2.36845 0
M  V30 19810 H 1898.79 0.532549 -0.509471 0
M  V30 19811 H 1901.43 0.805057 -1.72101 0
M  V30 19812 H 1899.58 3.25337 -2.1234 0
M  V30 19813 H 1901.25 1.76038 -4.2639 0
M  V30 19814 H 1899.49 1.59108 -4.03568 0
M  V30 19815 H 1900.16 3.14656 -4.53537 0
M  V30 19816 H 1902.64 3.24004 -2.61076 0
M  V30 19817 H 1901.52 4.53876 -3.08687 0
M  V30 19818 H 1901.78 4.19899 -1.38337 0
M  V30 19819 N 1900.84 1.26553 0.939264 0
M  V30 19820 C 1902.06 1.15098 1.72532 0
M  V30 19821 C 1902.49 -0.289811 1.85854 0
M  V30 19822 O 1901.84 -1.20997 1.35017 0
M  V30 19823 C 1901.89 1.82703 3.10889 0
M  V30 19824 O 1901 1.11712 3.96981 0
M  V30 19825 H 1900.34 0.40095 0.529278 0
M  V30 19826 H 1902.87 1.67408 1.17625 0
M  V30 19827 H 1902.88 1.89603 3.61268 0
M  V30 19828 H 1901.55 2.87519 3.00509 0
M  V30 19829 H 1900.13 1.12801 3.5543 0
M  V30 19830 N 1902.31 -1.14411 1.08387 0
M  V30 19831 C 1903.24 -2.21619 0.735327 0
M  V30 19832 C 1904.23 -1.67744 -0.282132 0
M  V30 19833 O 1905.41 -1.936 -0.152547 0
M  V30 19834 C 1902.54 -3.47003 0.143628 0
M  V30 19835 C 1901.49 -4.13903 1.08941 0
M  V30 19836 C 1900.82 -5.33487 0.359941 0
M  V30 19837 C 1902.12 -4.62463 2.42746 0
M  V30 19838 H 1903.81 -2.51031 1.63168 0
M  V30 19839 H 1901.36 -1.20658 0.785981 0
M  V30 19840 H 1903.31 -4.21251 -0.112217 0
M  V30 19841 H 1902.04 -3.16955 -0.787856 0
M  V30 19842 H 1900.7 -3.4161 1.33035 0
M  V30 19843 H 1900.34 -4.99699 -0.57534 0
M  V30 19844 H 1900.04 -5.79192 0.990451 0
M  V30 19845 H 1901.57 -6.10497 0.112145 0
M  V30 19846 H 1902.98 -5.28185 2.22919 0
M  V30 19847 H 1901.38 -5.18869 3.01488 0
M  V30 19848 H 1902.45 -3.77542 3.04286 0
M  V30 19849 N 1903.79 -0.869509 -1.31443 0
M  V30 19850 C 1905.04 -0.480214 -1.96724 0
M  V30 19851 C 1905.37 0.967405 -1.68735 0
M  V30 19852 O 1904.62 1.69616 -0.976162 0
M  V30 19853 C 1904.92 -0.683486 -3.50804 0
M  V30 19854 C 1904.59 -2.10382 -3.98811 0
M  V30 19855 C 1903.25 -2.49226 -4.11631 0
M  V30 19856 C 1905.6 -3.03015 -4.24065 0
M  V30 19857 C 1902.93 -3.79944 -4.47057 0
M  V30 19858 C 1905.28 -4.33248 -4.60954 0
M  V30 19859 C 1903.95 -4.72006 -4.71982 0
M  V30 19860 H 1903.22 -0.175723 -0.719863 0
M  V30 19861 H 1905.86 -1.10241 -1.56586 0
M  V30 19862 H 1904.17 0.0218481 -3.91794 0
M  V30 19863 H 1905.86 -0.362105 -3.99362 0
M  V30 19864 H 1902.45 -1.79225 -3.89328 0
M  V30 19865 H 1906.64 -2.74232 -4.13655 0
M  V30 19866 H 1901.89 -4.09736 -4.53792 0
M  V30 19867 H 1906.07 -5.05077 -4.79448 0
M  V30 19868 H 1903.7 -5.73337 -4.99188 0
M  V30 19869 N 1905.27 1.44508 -0.628902 0
M  V30 19870 C 1906.51 2.03948 -0.135785 0
M  V30 19871 C 1906.87 1.48382 1.21848 0
M  V30 19872 O 1908.08 1.9931 1.80357 0
M  V30 19873 C 1906.35 3.572 -0.119635 0
M  V30 19874 S 1907.91 4.37709 0.309185 0
M  V30 19875 H 1904.72 0.708464 -0.0599938 0
M  V30 19876 H 1907.33 1.76922 -0.831792 0
M  V30 19877 H 1906.03 3.95148 -1.10842 0
M  V30 19878 H 1905.56 3.88833 0.59769 0
M  V30 19879 H 1907.58 4.71241 1.55391 0
M  V30 19880 N 1906.75 0.369315 1.53212 0
M  V30 19881 C 1907.68 -0.510161 2.2345 0
M  V30 19882 C 1908.69 -1.04313 1.24991 0
M  V30 19883 O 1909.88 -0.948869 1.51191 0
M  V30 19884 C 1906.98 -1.71753 2.92154 0
M  V30 19885 C 1906.16 -1.31542 4.17152 0
M  V30 19886 C 1905.22 -2.38526 4.69033 0
M  V30 19887 O 1904.24 -2.00761 5.32619 0
M  V30 19888 N 1905.44 -3.70165 4.47167 0
M  V30 19889 H 1908.21 0.0915031 2.9956 0
M  V30 19890 H 1905.77 0.194676 1.60725 0
M  V30 19891 H 1907.76 -2.42808 3.23769 0
M  V30 19892 H 1906.33 -2.22598 2.19474 0
M  V30 19893 H 1905.55 -0.434563 3.91797 0
M  V30 19894 H 1906.84 -1.02311 4.98407 0
M  V30 19895 H 1906.24 -4.0362 3.96368 0
M  V30 19896 H 1904.79 -4.37313 4.83323 0
M  V30 19897 N 1908.23 -1.57291 0.0985816 0
M  V30 19898 C 1909.16 -2.09882 -0.895809 0
M  V30 19899 C 1910.14 -1.01022 -1.2741 0
M  V30 19900 O 1911.32 -1.28543 -1.37873 0
M  V30 19901 C 1908.45 -2.57868 -2.19594 0
M  V30 19902 C 1907.5 -3.7842 -1.96725 0
M  V30 19903 S 1908.33 -5.21834 -1.20208 0
M  V30 19904 C 1909.48 -5.73172 -2.51444 0
M  V30 19905 H 1909.72 -2.93899 -0.448416 0
M  V30 19906 H 1907.25 -1.53973 -0.114779 0
M  V30 19907 H 1909.21 -2.86173 -2.94305 0
M  V30 19908 H 1907.87 -1.74071 -2.61454 0
M  V30 19909 H 1907.06 -4.10075 -2.93009 0
M  V30 19910 H 1906.66 -3.50627 -1.30142 0
M  V30 19911 H 1908.96 -5.81652 -3.47401 0
M  V30 19912 H 1909.9 -6.71615 -2.24362 0
M  V30 19913 H 1910.31 -5.01123 -2.59877 0
M  V30 19914 N 1909.71 0.175127 -1.56624 0
M  V30 19915 C 1910.95 0.89369 -1.82047 0
M  V30 19916 C 1911.28 1.82061 -0.675831 0
M  V30 19917 O 1910.56 1.91808 0.322453 0
M  V30 19918 C 1910.84 1.69266 -3.17838 0
M  V30 19919 C 1910.7 0.789122 -4.42824 0
M  V30 19920 C 1912.01 2.66115 -3.50529 0
M  V30 19921 H 1909.13 0.323454 -0.662228 0
M  V30 19922 H 1911.78 0.160077 -1.89324 0
M  V30 19923 H 1909.93 2.31808 -3.11765 0
M  V30 19924 H 1911.6 0.17687 -4.60961 0
M  V30 19925 H 1909.84 0.0969508 -4.33692 0
M  V30 19926 H 1910.51 1.38358 -5.34379 0
M  V30 19927 H 1912.99 2.137 -3.57031 0
M  V30 19928 H 1911.86 3.19087 -4.46626 0
M  V30 19929 H 1912.12 3.4613 -2.75038 0
M  V30 19930 N 1911.18 1.5123 0.44355 0
M  V30 19931 C 1912.41 1.67671 1.2207 0
M  V30 19932 C 1912.83 0.370934 1.84406 0
M  V30 19933 O 1912.19 -0.668265 1.68535 0
M  V30 19934 C 1912.24 2.7896 2.28503 0
M  V30 19935 O 1911.34 2.4213 3.33837 0
M  V30 19936 H 1910.68 0.559275 0.357921 0
M  V30 19937 H 1913.21 1.9776 0.524592 0
M  V30 19938 H 1913.22 3.0286 2.73386 0
M  V30 19939 H 1911.9 3.73716 1.82509 0
M  V30 19940 H 1910.48 2.28779 2.94473 0
M  V30 19941 N 1912.66 -0.698586 1.41271 0
M  V30 19942 C 1913.89 -1.49247 1.44014 0
M  V30 19943 C 1914.31 -1.88043 0.0461888 0
M  V30 19944 O 1913.67 -1.54426 -0.94986 0
M  V30 19945 C 1913.72 -2.73334 2.35204 0
M  V30 19946 O 1912.82 -3.70704 1.807 0
M  V30 19947 H 1912.16 -0.449313 0.488891 0
M  V30 19948 H 1914.69 -0.858936 1.85697 0
M  V30 19949 H 1914.7 -3.21676 2.50975 0
M  V30 19950 H 1913.38 -2.44433 3.3649 0
M  V30 19951 H 1911.95 -3.29624 1.74363 0
M  V30 19952 N 1914.14 -1.27049 -0.93254 0
M  V30 19953 C 1915.39 -1.1327 -1.68219 0
M  V30 19954 C 1915.72 0.321632 -1.91518 0
M  V30 19955 O 1914.99 1.23564 -1.50207 0
M  V30 19956 C 1915.28 -1.91162 -3.0517 0
M  V30 19957 C 1915.13 -3.44552 -2.89143 0
M  V30 19958 C 1916.45 -1.71227 -4.05425 0
M  V30 19959 H 1913.57 -0.412859 -0.610505 0
M  V30 19960 H 1916.21 -1.56148 -1.08249 0
M  V30 19961 H 1914.36 -1.54722 -3.56361 0
M  V30 19962 H 1916.03 -3.90794 -2.45107 0
M  V30 19963 H 1914.27 -3.71138 -2.24586 0
M  V30 19964 H 1914.95 -3.9429 -3.86315 0
M  V30 19965 H 1917.42 -2.0299 -3.63227 0
M  V30 19966 H 1916.3 -2.28129 -4.99248 0
M  V30 19967 H 1916.56 -0.65898 -4.37161 0
M  V30 19968 N 1915.62 1.13835 -1.08993 0
M  V30 19969 C 1916.89 1.81232 -0.735809 0
M  V30 19970 C 1917.27 1.96172 0.779737 0
M  V30 19971 O 1916.62 1.52629 1.70049 0
M  V30 19972 C 1916.83 3.16546 -1.46968 0
M  V30 19973 C 1918.18 3.91958 -1.6326 0
M  V30 19974 O 1919.2 3.26155 -1.43183 0
M  V30 19975 O 1918.06 5.09976 -1.96435 0
M  V30 19976 H 1915.16 0.783794 -0.26381 0
M  V30 19977 H 1917.7 1.20801 -1.19186 0
M  V30 19978 H 1916.48 3.00872 -2.50183 0
M  V30 19979 H 1916.1 3.84676 -1.00551 0
M  V30 19980 N 1917.1 0.876467 1.3098 0
M  V30 19981 C 1918.34 0.49064 1.96466 0
M  V30 19982 C 1918.67 -0.958443 1.69246 0
M  V30 19983 O 1917.93 -1.69096 0.985144 0
M  V30 19984 C 1918.22 0.70208 3.50436 0
M  V30 19985 C 1917.89 2.12494 3.9769 0
M  V30 19986 C 1916.55 2.51405 4.10303 0
M  V30 19987 C 1918.9 3.0526 4.22452 0
M  V30 19988 C 1916.23 3.82309 4.45035 0
M  V30 19989 C 1918.58 4.35686 4.5865 0
M  V30 19990 C 1917.25 4.74502 4.69472 0
M  V30 19991 H 1916.52 0.179538 0.718921 0
M  V30 19992 H 1919.17 1.1107 1.55999 0
M  V30 19993 H 1917.47 -0.00106996 3.918 0
M  V30 19994 H 1919.17 0.383279 3.99164 0
M  V30 19995 H 1915.76 1.81287 3.88372 0
M  V30 19996 H 1919.94 2.76422 4.12195 0
M  V30 19997 H 1915.2 4.12136 4.51612 0
M  V30 19998 H 1919.37 5.07612 4.76763 0
M  V30 19999 H 1917 5.75976 4.9614 0
M  V30 20000 N 1918.57 -1.44173 0.636557 0
M  V30 20001 C 1919.82 -2.02292 0.143429 0
M  V30 20002 C 1920.15 -1.49996 -1.23348 0
M  V30 20003 O 1919.43 -0.686228 -1.81992 0
M  V30 20004 C 1919.71 -3.59843 0.136025 0
M  V30 20005 C 1919.56 -4.22409 1.54566 0
M  V30 20006 C 1920.88 -4.36817 -0.536538 0
M  V30 20007 H 1918 -0.735049 0.0535939 0
M  V30 20008 H 1920.64 -1.71677 0.814066 0
M  V30 20009 H 1918.79 -3.86056 -0.435048 0
M  V30 20010 H 1920.47 -4.07284 2.16604 0
M  V30 20011 H 1918.71 -3.79696 2.09793 0
M  V30 20012 H 1919.38 -5.31441 1.49247 0
M  V30 20013 H 1921.86 -4.16069 -0.0508327 0
M  V30 20014 H 1920.73 -5.46517 -0.510926 0
M  V30 20015 H 1920.99 -4.11827 -1.60783 0
M  V30 20016 N 1920.05 -0.377435 -1.53014 0
M  V30 20017 C 1921.46 0.0992038 -1.86436 0
M  V30 20018 C 1921.81 1.47163 -1.2976 0
M  V30 20019 O 1920.94 2.072 -0.624264 0
M  V30 20020 C 1921.53 0.186789 -3.38285 0
M  V30 20021 C 1920.09 0.6077 -3.71462 0
M  V30 20022 C 1919.24 -0.237741 -2.76279 0
M  V30 20023 H 1922.19 -0.595776 -1.47092 0
M  V30 20024 H 1922.21 1.00817 -3.66901 0
M  V30 20025 H 1921.72 -0.812219 -3.79506 0
M  V30 20026 H 1919.82 1.61451 -3.35804 0
M  V30 20027 H 1919.94 0.374085 -4.77637 0
M  V30 20028 H 1918.3 0.295196 -2.52984 0
M  V30 20029 H 1919.08 -1.23451 -3.20335 0
M  V30 20030 N 1921.53 1.57237 -0.106922 0
M  V30 20031 C 1922.94 1.81906 0.420368 0
M  V30 20032 C 1923.29 1.02332 1.67399 0
M  V30 20033 O 1922.42 0.256247 2.14877 0
M  V30 20034 C 1923.01 3.29947 0.769432 0
M  V30 20035 C 1921.57 3.55339 1.24141 0
M  V30 20036 C 1920.72 2.76224 0.243997 0
M  V30 20037 H 1923.67 1.55184 -0.332216 0
M  V30 20038 H 1923.69 3.43916 1.62794 0
M  V30 20039 H 1923.2 3.87836 -0.14316 0
M  V30 20040 H 1921.3 3.02795 2.17131 0
M  V30 20041 H 1921.42 4.63956 1.19508 0
M  V30 20042 H 1919.78 2.44057 0.728574 0
M  V30 20043 H 1920.56 3.36867 -0.661482 0
M  V30 20044 N 1923.01 -0.166818 1.56715 0
M  V30 20045 C 1923.94 -1.23537 1.91869 0
M  V30 20046 C 1924.92 -1.42558 0.78204 0
M  V30 20047 O 1926.1 -1.57492 1.03578 0
M  V30 20048 C 1923.23 -2.5976 2.17353 0
M  V30 20049 C 1922.28 -2.57449 3.40033 0
M  V30 20050 S 1923.11 -2.06088 4.94255 0
M  V30 20051 C 1924.27 -3.4408 5.22838 0
M  V30 20052 H 1924.5 -0.935341 2.82203 0
M  V30 20053 H 1922.03 -0.371582 1.49862 0
M  V30 20054 H 1923.99 -3.38162 2.32716 0
M  V30 20055 H 1922.65 -2.86961 1.27719 0
M  V30 20056 H 1921.84 -3.5768 3.55079 0
M  V30 20057 H 1921.45 -1.87145 3.2381 0
M  V30 20058 H 1923.74 -4.40099 5.15092 0
M  V30 20059 H 1924.68 -3.33905 6.2443 0
M  V30 20060 H 1925.09 -3.403 4.50396 0
M  V30 20061 N 1924.49 -1.51463 -0.435524 0
M  V30 20062 C 1925.45 -1.72315 -1.51129 0
M  V30 20063 C 1926.45 -0.593161 -1.4946 0
M  V30 20064 O 1927.64 -0.860731 -1.5145 0
M  V30 20065 C 1924.77 -1.78127 -2.9066 0
M  V30 20066 H 1925.96 -2.68327 -1.33943 0
M  V30 20067 H 1923.52 -1.4148 -0.664317 0
M  V30 20068 H 1924.25 -0.839367 -3.13249 0
M  V30 20069 H 1924.04 -2.60252 -2.93277 0
M  V30 20070 H 1925.53 -1.96093 -3.68697 0
M  V30 20071 N 1925.96 0.691085 -1.4164 0
M  V30 20072 C 1926.93 1.78671 -1.43559 0
M  V30 20073 C 1927.93 1.5747 -0.325543 0
M  V30 20074 O 1929.12 1.64061 -0.585631 0
M  V30 20075 C 1926.25 3.17102 -1.25135 0
M  V30 20076 H 1927.44 1.78361 -2.41096 0
M  V30 20077 H 1925 0.899148 -1.27848 0
M  V30 20078 H 1925.73 3.23049 -0.284567 0
M  V30 20079 H 1925.52 3.33893 -2.05567 0
M  V30 20080 H 1927.01 3.97071 -1.29324 0
M  V30 20081 N 1927.44 1.27542 0.925789 0
M  V30 20082 C 1928.37 1.12952 2.04363 0
M  V30 20083 C 1929.35 0.0304761 1.70073 0
M  V30 20084 O 1930.54 0.205307 1.93112 0
M  V30 20085 C 1927.67 0.777954 3.38475 0
M  V30 20086 C 1926.62 1.83044 3.86883 0
M  V30 20087 C 1925.95 1.3328 5.17823 0
M  V30 20088 C 1927.25 3.23488 4.10065 0
M  V30 20089 H 1928.94 2.06462 2.16827 0
M  V30 20090 H 1926.49 0.994046 1.04186 0
M  V30 20091 H 1928.44 0.662702 4.16156 0
M  V30 20092 H 1927.17 -0.192851 3.2603 0
M  V30 20093 H 1925.82 1.93463 3.11396 0
M  V30 20094 H 1925.47 0.351399 5.01771 0
M  V30 20095 H 1925.17 2.03648 5.51182 0
M  V30 20096 H 1926.7 1.23053 5.98072 0
M  V30 20097 H 1928.11 3.16058 4.7831 0
M  V30 20098 H 1926.51 3.91583 4.54734 0
M  V30 20099 H 1927.58 3.68399 3.15293 0
M  V30 20100 N 1928.92 -1.13255 1.09595 0
M  V30 20101 C 1929.83 -2.22321 0.74904 0
M  V30 20102 C 1930.85 -1.72198 -0.24974 0
M  V30 20103 O 1932.02 -2.01196 -0.090652 0
M  V30 20104 C 1929.09 -3.4625 0.17665 0
M  V30 20105 C 1928.15 -4.11254 1.2316 0
M  V30 20106 C 1927.38 -5.29267 0.686427 0
M  V30 20107 O 1927.6 -5.68291 -0.490088 0
M  V30 20108 O 1926.54 -5.84365 1.44227 0
M  V30 20109 H 1930.36 -2.5437 1.6592 0
M  V30 20110 H 1927.95 -1.21422 0.870465 0
M  V30 20111 H 1929.83 -4.2117 -0.139147 0
M  V30 20112 H 1928.51 -3.15896 -0.706492 0
M  V30 20113 H 1927.41 -3.38152 1.60012 0
M  V30 20114 H 1928.75 -4.45743 2.08745 0
M  V30 20115 N 1930.4 -0.883401 -1.30514 0
M  V30 20116 C 1931.31 -0.352971 -2.31929 0
M  V30 20117 C 1932.32 0.543992 -1.65278 0
M  V30 20118 O 1933.5 0.437489 -1.96591 0
M  V30 20119 C 1930.57 0.425263 -3.44082 0
M  V30 20120 C 1929.63 -0.501265 -4.26363 0
M  V30 20121 C 1928.86 0.239923 -5.3316 0
M  V30 20122 O 1929.08 1.46622 -5.51233 0
M  V30 20123 O 1928.02 -0.409158 -6.00508 0
M  V30 20124 H 1931.84 -1.19393 -2.79247 0
M  V30 20125 H 1929.43 -0.647187 -1.34655 0
M  V30 20126 H 1931.31 0.865957 -4.12407 0
M  V30 20127 H 1929.98 1.24255 -2.98902 0
M  V30 20128 H 1928.89 -0.990738 -3.60743 0
M  V30 20129 H 1930.22 -1.28451 -4.75143 0
M  V30 20130 N 1931.88 1.43833 -0.644194 0
M  V30 20131 C 1932.82 2.30739 0.0528797 0
M  V30 20132 C 1933.79 1.44234 0.823751 0
M  V30 20133 O 1934.98 1.73118 0.802171 0
M  V30 20134 C 1932.12 3.29695 1.01956 0
M  V30 20135 C 1931.23 4.31301 0.245734 0
M  V30 20136 C 1930.37 5.17343 1.2054 0
M  V30 20137 C 1929.41 6.10647 0.421486 0
M  V30 20138 N 1928.54 6.89344 1.33228 0
M  V30 20139 H 1933.38 2.89803 -0.694123 0
M  V30 20140 H 1930.92 1.42775 -0.354069 0
M  V30 20141 H 1932.88 3.85568 1.59353 0
M  V30 20142 H 1931.51 2.72302 1.73354 0
M  V30 20143 H 1930.56 3.77795 -0.44438 0
M  V30 20144 H 1931.87 4.97468 -0.364231 0
M  V30 20145 H 1931.03 5.77797 1.85029 0
M  V30 20146 H 1929.76 4.51279 1.84928 0
M  V30 20147 H 1928.77 5.4929 -0.236816 0
M  V30 20148 H 1929.99 6.7875 -0.217862 0
M  V30 20149 H 1927.94 6.25937 1.96312 0
M  V30 20150 H 1927.86 7.52 0.776653 0
M  V30 20151 H 1929.13 7.54311 1.9656 0
M  V30 20152 N 1933.35 0.385544 1.52811 0
M  V30 20153 C 1934.6 -0.197454 2.01133 0
M  V30 20154 C 1934.92 -1.47634 1.27394 0
M  V30 20155 O 1934.19 -1.91919 0.392916 0
M  V30 20156 H 1932.77 -0.0759558 0.743128 0
M  V30 20157 H 1935.44 0.51637 1.87935 0
M  V30 20158 H 1934.53 -0.410335 3.09391 0
M  V30 20159 N 1934.83 -1.57178 0.115259 0
M  V30 20160 C 1936.08 -1.94241 -0.54344 0
M  V30 20161 C 1936.39 -1.0006 -1.68069 0
M  V30 20162 O 1937.6 -1.26574 -2.4019 0
M  V30 20163 C 1936.06 -3.45199 -1.0181 0
M  V30 20164 C 1935.66 -4.47909 0.0904861 0
M  V30 20165 C 1937.41 -3.91188 -1.64839 0
M  V30 20166 C 1935.32 -5.90041 -0.400667 0
M  V30 20167 H 1934.25 -0.725092 -0.206778 0
M  V30 20168 H 1936.9 -1.82466 0.194509 0
M  V30 20169 H 1935.28 -3.52196 -1.81036 0
M  V30 20170 H 1936.45 -4.52577 0.866638 0
M  V30 20171 H 1934.77 -4.11649 0.627197 0
M  V30 20172 H 1937.36 -4.94792 -2.02694 0
M  V30 20173 H 1937.71 -3.30955 -2.52536 0
M  V30 20174 H 1938.24 -3.86977 -0.92161 0
M  V30 20175 H 1934.98 -6.54021 0.440159 0
M  V30 20176 H 1934.5 -5.88801 -1.14338 0
M  V30 20177 H 1936.18 -6.41217 -0.863111 0
M  V30 20178 N 1936.31 0.158505 -1.56801 0
M  V30 20179 C 1937.24 1.19799 -2.00426 0
M  V30 20180 C 1938.22 1.45453 -0.881905 0
M  V30 20181 O 1939.41 1.56569 -1.1489 0
M  V30 20182 C 1936.54 2.53392 -2.37508 0
M  V30 20183 C 1935.49 2.42283 -3.52822 0
M  V30 20184 C 1934.82 3.80482 -3.75683 0
M  V30 20185 C 1936.12 1.91666 -4.85862 0
M  V30 20186 H 1937.81 0.835303 -2.87512 0
M  V30 20187 H 1935.36 0.400366 -1.38322 0
M  V30 20188 H 1937.31 3.26326 -2.66625 0
M  V30 20189 H 1936.03 2.91474 -1.47345 0
M  V30 20190 H 1934.69 1.71801 -3.23852 0
M  V30 20191 H 1934.34 4.15979 -2.8279 0
M  V30 20192 H 1934.04 3.73913 -4.5328 0
M  V30 20193 H 1935.57 4.54982 -4.07214 0
M  V30 20194 H 1936.98 2.54384 -5.13772 0
M  V30 20195 H 1935.38 1.96016 -5.67184 0
M  V30 20196 H 1936.45 0.871666 -4.77001 0
M  V30 20197 N 1937.79 1.51692 0.427485 0
M  V30 20198 C 1939.04 1.64847 1.17608 0
M  V30 20199 C 1939.36 0.369447 1.90959 0
M  V30 20200 O 1938.62 -0.646897 1.84699 0
M  V30 20201 C 1938.92 2.80871 2.21011 0
M  V30 20202 C 1938.58 4.19782 1.64602 0
M  V30 20203 C 1937.25 4.5757 1.48941 0
M  V30 20204 C 1939.6 5.06423 1.23226 0
M  V30 20205 C 1936.93 5.79695 0.903941 0
M  V30 20206 C 1939.28 6.29137 0.661048 0
M  V30 20207 C 1937.94 6.65689 0.491424 0
M  V30 20208 H 1937.21 0.603218 0.430359 0
M  V30 20209 H 1939.86 1.85749 0.465774 0
M  V30 20210 H 1938.16 2.5423 2.98118 0
M  V30 20211 H 1939.86 2.88248 2.78772 0
M  V30 20212 H 1936.45 3.89995 1.7777 0
M  V30 20213 H 1940.64 4.77828 1.34142 0
M  V30 20214 H 1935.89 6.06653 0.76037 0
M  V30 20215 H 1940.07 6.95608 0.331975 0
M  V30 20216 H 1937.69 7.60192 0.0356395 0
M  V30 20217 N 1939.27 -0.683564 1.42004 0
M  V30 20218 C 1940.5 -1.4721 1.45386 0
M  V30 20219 C 1940.91 -1.88696 0.062603 0
M  V30 20220 O 1940.27 -1.5757 -0.920764 0
M  V30 20221 C 1940.32 -2.7269 2.37323 0
M  V30 20222 O 1940.04 -2.32947 3.71035 0
M  V30 20223 C 1941.54 -3.6633 2.49634 0
M  V30 20224 H 1938.76 -0.453255 0.494773 0
M  V30 20225 H 1941.3 -0.840646 1.86423 0
M  V30 20226 H 1939.46 -3.32044 1.99563 0
M  V30 20227 H 1939.87 -3.13915 4.20188 0
M  V30 20228 H 1941.35 -4.51125 3.18104 0
M  V30 20229 H 1941.82 -4.11636 1.53141 0
M  V30 20230 H 1942.43 -3.12874 2.8808 0
M  V30 20231 N 1940.75 -1.28031 -0.919012 0
M  V30 20232 C 1941.97 -1.17828 -1.70679 0
M  V30 20233 C 1942.4 0.260207 -1.86292 0
M  V30 20234 O 1941.75 1.18833 -1.36925 0
M  V30 20235 C 1941.8 -1.87626 -3.07943 0
M  V30 20236 O 1940.91 -1.18014 -3.95154 0
M  V30 20237 H 1940.25 -0.40932 -0.522832 0
M  V30 20238 H 1942.78 -1.69258 -1.14947 0
M  V30 20239 H 1942.79 -1.95327 -3.58206 0
M  V30 20240 H 1941.46 -2.92263 -2.95897 0
M  V30 20241 H 1940.04 -1.18441 -3.5359 0
M  V30 20242 N 1942.22 1.12672 -1.10194 0
M  V30 20243 C 1943.63 1.65664 -0.860944 0
M  V30 20244 C 1943.99 1.86502 0.609208 0
M  V30 20245 O 1943.11 1.58967 1.46828 0
M  V30 20246 C 1943.71 3.00939 -1.55632 0
M  V30 20247 C 1942.26 3.5089 -1.36209 0
M  V30 20248 C 1941.41 2.25966 -1.60732 0
M  V30 20249 H 1944.36 0.964871 -1.26 0
M  V30 20250 H 1944.38 3.6729 -0.99391 0
M  V30 20251 H 1943.9 2.85741 -2.62629 0
M  V30 20252 H 1942 3.71278 -0.313645 0
M  V30 20253 H 1942.11 4.30509 -2.10235 0
M  V30 20254 H 1940.47 2.32949 -1.0299 0
M  V30 20255 H 1941.26 2.13324 -2.68975 0
M  V30 20256 N 1943.7 0.89031 1.30043 0
M  V30 20257 C 1944.95 0.51145 1.95935 0
M  V30 20258 C 1945.28 -0.940438 1.70253 0
M  V30 20259 O 1944.53 -1.68041 1.00302 0
M  V30 20260 C 1944.83 0.739209 3.49672 0
M  V30 20261 C 1944.5 2.167 3.95413 0
M  V30 20262 C 1943.16 2.55743 4.07614 0
M  V30 20263 C 1945.51 3.09723 4.19191 0
M  V30 20264 C 1942.84 3.87008 4.40955 0
M  V30 20265 C 1945.19 4.40527 4.54003 0
M  V30 20266 C 1943.85 4.79455 4.64413 0
M  V30 20267 H 1943.12 0.187153 0.716976 0
M  V30 20268 H 1945.77 1.12718 1.54812 0
M  V30 20269 H 1944.08 0.0404857 3.91779 0
M  V30 20270 H 1945.77 0.425594 3.98735 0
M  V30 20271 H 1942.36 1.85396 3.86427 0
M  V30 20272 H 1946.55 2.80778 4.0924 0
M  V30 20273 H 1941.8 4.16903 4.47216 0
M  V30 20274 H 1945.98 5.1264 4.71352 0
M  V30 20275 H 1943.6 5.81206 4.90003 0
M  V30 20276 N 1945.18 -1.43489 0.651812 0
M  V30 20277 C 1946.43 -2.02129 0.164876 0
M  V30 20278 C 1946.76 -1.51296 -1.2175 0
M  V30 20279 O 1946.03 -0.705492 -1.81254 0
M  V30 20280 C 1946.32 -3.59678 0.174184 0
M  V30 20281 C 1946.17 -4.20746 1.59038 0
M  V30 20282 C 1947.49 -4.37362 -0.490177 0
M  V30 20283 H 1944.61 -0.734439 0.0613871 0
M  V30 20284 H 1947.25 -1.70804 0.832229 0
M  V30 20285 H 1945.4 -3.86496 -0.394077 0
M  V30 20286 H 1947.07 -4.04964 2.20912 0
M  V30 20287 H 1945.31 -3.7745 2.13809 0
M  V30 20288 H 1945.99 -5.29828 1.54876 0
M  V30 20289 H 1948.46 -4.16099 -0.00670015 0
M  V30 20290 H 1947.34 -5.47028 -0.452932 0
M  V30 20291 H 1947.6 -4.13509 -1.56406 0
M  V30 20292 N 1946.66 -0.393643 -1.52605 0
M  V30 20293 C 1947.59 0.430786 -2.29492 0
M  V30 20294 C 1948.57 1.0597 -1.33058 0
M  V30 20295 O 1949.75 1.07165 -1.61955 0
M  V30 20296 C 1946.88 1.55599 -3.10494 0
M  V30 20297 C 1945.84 1.05289 -4.14847 0
M  V30 20298 C 1945.16 2.2705 -4.841 0
M  V30 20299 C 1946.46 0.117789 -5.22167 0
M  V30 20300 H 1948.16 -0.210741 -2.98657 0
M  V30 20301 H 1945.7 -0.102795 -1.43633 0
M  V30 20302 H 1947.66 2.1396 -3.63042 0
M  V30 20303 H 1946.38 2.22517 -2.39069 0
M  V30 20304 H 1945.04 0.491788 -3.63286 0
M  V30 20305 H 1944.69 2.92487 -4.09219 0
M  V30 20306 H 1944.39 1.94047 -5.54635 0
M  V30 20307 H 1945.91 2.86045 -5.39454 0
M  V30 20308 H 1947.33 0.609718 -5.70049 0
M  V30 20309 H 1945.72 -0.122689 -5.99975 0
M  V30 20310 H 1946.79 -0.832053 -4.77708 0
M  V30 20311 N 1948.14 1.57115 -0.123593 0
M  V30 20312 C 1949.1 2.14386 0.810624 0
M  V30 20313 C 1950.1 1.07985 1.19146 0
M  V30 20314 O 1951.29 1.33739 1.11622 0
M  V30 20315 C 1948.42 2.68785 2.09683 0
M  V30 20316 H 1949.61 2.98264 0.312818 0
M  V30 20317 H 1947.17 1.55794 0.125682 0
M  V30 20318 H 1947.9 1.88509 2.63884 0
M  V30 20319 H 1947.69 3.46607 1.8332 0
M  V30 20320 H 1949.18 3.12989 2.76455 0
M  V30 20321 N 1949.61 -0.150187 1.56883 0
M  V30 20322 C 1950.84 -0.88235 1.87695 0
M  V30 20323 C 1951.26 -1.74093 0.712272 0
M  V30 20324 O 1950.62 -1.78118 -0.338207 0
M  V30 20325 C 1950.67 -1.71754 3.1707 0
M  V30 20326 O 1949.77 -2.82145 3.00779 0
M  V30 20327 H 1949.11 -0.245947 0.616771 0
M  V30 20328 H 1951.64 -0.141963 2.04107 0
M  V30 20329 H 1951.65 -2.1132 3.4901 0
M  V30 20330 H 1950.33 -1.08704 4.01443 0
M  V30 20331 H 1948.91 -2.46008 2.8024 0
M  V30 20332 N 1951.09 -1.51916 -0.419434 0
M  V30 20333 C 1952.32 -1.69302 -1.1893 0
M  V30 20334 C 1952.74 -0.398024 -1.84557 0
M  V30 20335 O 1952.09 0.625083 -1.71461 0
M  V30 20336 C 1952.14 -2.82139 -2.26009 0
M  V30 20337 O 1951.86 -4.06623 -1.63064 0
M  V30 20338 C 1953.37 -3.10947 -3.15954 0
M  V30 20339 H 1950.59 -0.567657 -0.357781 0
M  V30 20340 H 1953.13 -1.98424 -0.494807 0
M  V30 20341 H 1951.28 -2.55565 -2.91144 0
M  V30 20342 H 1951.7 -4.69423 -2.33971 0
M  V30 20343 H 1953.17 -3.93438 -3.87183 0
M  V30 20344 H 1953.65 -2.24078 -3.77738 0
M  V30 20345 H 1954.26 -3.39246 -2.56499 0
M  V30 20346 N 1952.57 0.676023 -1.42365 0
M  V30 20347 C 1953.52 1.81087 -1.4598 0
M  V30 20348 C 1954.51 1.66041 -0.335662 0
M  V30 20349 O 1955.72 1.72665 -0.508618 0
M  V30 20350 H 1952.09 0.597073 -0.457173 0
M  V30 20351 H 1954.06 1.75156 -2.41584 0
M  V30 20352 C 1952.81 3.19233 -1.37789 0
M  V30 20353 H 1952.14 3.31437 -2.23584 0
M  V30 20354 H 1953.58 3.98661 -1.4438 0
M  V30 20355 C 1952.04 3.36773 -0.0925272 0
M  V30 20356 O 1952.57 3.92491 0.855181 0
M  V30 20357 N 1950.77 2.90598 -0.0100772 0
M  V30 20358 H 1950.32 2.45441 -0.782071 0
M  V30 20359 H 1950.28 3.02711 0.849301 0
M  V30 20360 N 1954.05 1.28517 0.912209 0
M  V30 20361 C 1955.01 1.12594 1.99637 0
M  V30 20362 C 1956.01 0.0651449 1.60668 0
M  V30 20363 O 1957.2 0.311054 1.714 0
M  V30 20364 C 1954.33 0.719053 3.3323 0
M  V30 20365 H 1955.53 2.08884 2.15192 0
M  V30 20366 H 1953.08 1.11525 1.09508 0
M  V30 20367 H 1953.81 -0.244536 3.23377 0
M  V30 20368 H 1953.6 1.48536 3.62876 0
M  V30 20369 H 1955.09 0.630346 4.12815 0
M  V30 20370 N 1955.53 -1.12086 1.1079 0
M  V30 20371 C 1956.77 -1.83314 0.850901 0
M  V30 20372 C 1957.1 -1.84703 -0.625275 0
M  V30 20373 O 1956.37 -1.31277 -1.45406 0
M  V30 20374 H 1954.95 -0.678817 0.311797 0
M  V30 20375 H 1957.61 -1.35707 1.39891 0
M  V30 20376 H 1956.7 -2.87393 1.21704 0
M  V30 20377 N 1957 -0.897194 -1.29569 0
M  V30 20378 C 1958.23 -0.536465 -2.00342 0
M  V30 20379 C 1958.65 0.87088 -1.66725 0
M  V30 20380 O 1958.01 1.57924 -0.890492 0
M  V30 20381 C 1958.06 -0.732781 -3.53076 0
M  V30 20382 O 1957.16 0.215848 -4.11835 0
M  V30 20383 H 1956.51 -0.209904 -0.62995 0
M  V30 20384 H 1959.04 -1.20809 -1.65125 0
M  V30 20385 H 1959.05 -0.636468 -4.03005 0
M  V30 20386 H 1957.72 -1.75882 -3.7688 0
M  V30 20387 H 1956.3 0.0722012 -3.7283 0
M  V30 20388 N 1958.48 1.43142 -0.659413 0
M  V30 20389 C 1959.73 2.0096 -0.172631 0
M  V30 20390 C 1960.04 1.52669 1.22277 0
M  V30 20391 O 1961.25 2.02802 1.8051 0
M  V30 20392 C 1959.71 3.58975 -0.257802 0
M  V30 20393 C 1959.31 4.16259 -1.65628 0
M  V30 20394 C 1961.06 4.24155 0.171057 0
M  V30 20395 C 1958.97 5.66588 -1.69505 0
M  V30 20396 H 1957.9 0.751547 -0.0607765 0
M  V30 20397 H 1960.55 1.64042 -0.822352 0
M  V30 20398 H 1958.93 3.93325 0.459538 0
M  V30 20399 H 1960.1 3.93398 -2.39947 0
M  V30 20400 H 1958.42 3.63473 -2.03165 0
M  V30 20401 H 1961.01 5.34454 0.162026 0
M  V30 20402 H 1961.36 3.98521 1.2036 0
M  V30 20403 H 1961.89 3.94711 -0.494745 0
M  V30 20404 H 1958.63 5.96998 -2.7069 0
M  V30 20405 H 1958.15 5.91486 -0.995201 0
M  V30 20406 H 1959.83 6.30736 -1.44156 0
M  V30 20407 N 1959.96 0.40173 1.52394 0
M  V30 20408 C 1960.91 -0.442142 2.28359 0
M  V30 20409 C 1961.9 -1.05228 1.32753 0
M  V30 20410 O 1963.11 -0.991332 1.50242 0
M  V30 20411 H 1959.48 -0.161356 0.734485 0
M  V30 20412 H 1961.45 0.219869 2.97589 0
M  V30 20413 C 1960.2 -1.55062 3.11209 0
M  V30 20414 H 1959.53 -1.09046 3.84642 0
M  V30 20415 H 1960.97 -2.11505 3.6748 0
M  V30 20416 C 1959.43 -2.51376 2.24303 0
M  V30 20417 O 1959.96 -3.55084 1.87825 0
M  V30 20418 N 1958.16 -2.2141 1.88218 0
M  V30 20419 H 1957.71 -1.37106 2.18082 0
M  V30 20420 H 1957.67 -2.861 1.30362 0
M  V30 20421 N 1961.44 -1.57047 0.131923 0
M  V30 20422 C 1962.4 -2.14813 -0.799243 0
M  V30 20423 C 1963.4 -1.08616 -1.18572 0
M  V30 20424 O 1964.59 -1.3433 -1.10911 0
M  V30 20425 C 1961.72 -2.69894 -2.08255 0
M  V30 20426 H 1962.92 -2.98426 -0.296996 0
M  V30 20427 H 1960.47 -1.55858 -0.117418 0
M  V30 20428 H 1961.2 -1.89905 -2.62881 0
M  V30 20429 H 1960.99 -3.47574 -1.81479 0
M  V30 20430 H 1962.48 -3.14451 -2.74792 0
M  V30 20431 N 1962.92 0.141865 -1.5696 0
M  V30 20432 C 1964.33 0.701408 -1.73024 0
M  V30 20433 C 1964.68 1.81418 -0.747124 0
M  V30 20434 O 1963.8 2.16233 0.0851134 0
M  V30 20435 C 1964.4 1.2791 -3.13727 0
M  V30 20436 C 1962.96 1.78516 -3.31374 0
M  V30 20437 C 1962.1 0.67567 -2.68942 0
M  V30 20438 H 1965.06 -0.083853 -1.58478 0
M  V30 20439 H 1965.08 2.1489 -3.14011 0
M  V30 20440 H 1964.59 0.468988 -3.85256 0
M  V30 20441 H 1962.69 2.62078 -2.6485 0
M  V30 20442 H 1962.8 1.91034 -4.39366 0
M  V30 20443 H 1961.17 1.10358 -2.2955 0
M  V30 20444 H 1961.95 -0.123088 -3.43079 0
M  V30 20445 N 1964.39 1.52136 0.411372 0
M  V30 20446 C 1965.62 1.6993 1.18031 0
M  V30 20447 C 1966.04 0.407806 1.84343 0
M  V30 20448 O 1965.39 -0.615981 1.7179 0
M  V30 20449 C 1965.45 2.83333 2.2451 0
M  V30 20450 O 1965.17 4.07482 1.60905 0
M  V30 20451 C 1966.67 3.12618 3.143 0
M  V30 20452 H 1963.89 0.569546 0.354765 0
M  V30 20453 H 1966.43 1.98683 0.484277 0
M  V30 20454 H 1964.59 2.57106 2.89785 0
M  V30 20455 H 1965 4.70657 2.31478 0
M  V30 20456 H 1966.47 3.95486 3.85091 0
M  V30 20457 H 1966.95 2.26078 3.76544 0
M  V30 20458 H 1967.56 3.40602 2.54697 0
M  V30 20459 N 1965.87 -0.668464 1.42721 0
M  V30 20460 C 1967.12 -1.43061 1.43741 0
M  V30 20461 C 1967.45 -1.9412 0.0558656 0
M  V30 20462 O 1966.73 -1.71317 -0.920904 0
M  V30 20463 C 1967.01 -2.62307 2.46712 0
M  V30 20464 C 1966.86 -2.16839 3.94082 0
M  V30 20465 C 1968.18 -3.64525 2.46596 0
M  V30 20466 H 1965.3 -0.518854 0.523412 0
M  V30 20467 H 1967.94 -0.759144 1.74175 0
M  V30 20468 H 1966.09 -3.19593 2.20891 0
M  V30 20469 H 1967.77 -1.64672 4.30907 0
M  V30 20470 H 1966.01 -1.48352 4.07645 0
M  V30 20471 H 1966.68 -3.02521 4.6172 0
M  V30 20472 H 1969.16 -3.16968 2.69574 0
M  V30 20473 H 1968.03 -4.45532 3.20613 0
M  V30 20474 H 1968.29 -4.16084 1.49421 0
M  V30 20475 N 1967.35 -1.28999 -0.905381 0
M  V30 20476 C 1968.58 -1.19632 -1.69419 0
M  V30 20477 C 1969 0.240433 -1.86557 0
M  V30 20478 O 1968.36 1.17374 -1.38177 0
M  V30 20479 C 1968.41 -1.90881 -3.05936 0
M  V30 20480 O 1967.51 -1.22198 -3.9388 0
M  V30 20481 H 1966.85 -0.414842 -0.518461 0
M  V30 20482 H 1969.38 -1.70468 -1.13145 0
M  V30 20483 H 1969.39 -1.99115 -3.56114 0
M  V30 20484 H 1968.07 -2.95385 -2.9278 0
M  V30 20485 H 1966.64 -1.22185 -3.52314 0
M  V30 20486 N 1968.83 1.11497 -1.11383 0
M  V30 20487 C 1970.11 1.79631 -0.774086 0
M  V30 20488 C 1970.49 1.97781 0.737951 0
M  V30 20489 O 1969.83 1.56202 1.66773 0
M  V30 20490 C 1970.04 3.13357 -1.53649 0
M  V30 20491 C 1971.39 3.88407 -1.71538 0
M  V30 20492 O 1972.42 3.23045 -1.50069 0
M  V30 20493 O 1971.28 5.05694 -2.07209 0
M  V30 20494 H 1968.37 0.778022 -0.280376 0
M  V30 20495 H 1970.92 1.18245 -1.21722 0
M  V30 20496 H 1969.69 2.95498 -2.56509 0
M  V30 20497 H 1969.31 3.82456 -1.08688 0
M  V30 20498 N 1970.31 0.904053 1.29092 0
M  V30 20499 C 1971.53 0.547082 2.00054 0
M  V30 20500 C 1971.96 -0.862026 1.67185 0
M  V30 20501 O 1971.32 -1.57449 0.898855 0
M  V30 20502 C 1971.36 0.751495 3.52682 0
M  V30 20503 O 1970.47 -0.194004 4.11943 0
M  V30 20504 H 1969.81 0.213241 0.628828 0
M  V30 20505 H 1972.34 1.21683 1.64482 0
M  V30 20506 H 1972.35 0.657831 4.02662 0
M  V30 20507 H 1971.02 1.77878 3.75942 0
M  V30 20508 H 1969.6 -0.0524281 3.72863 0
M  V30 20509 N 1971.79 -1.4279 0.666995 0
M  V30 20510 C 1973.2 -1.56027 0.335817 0
M  V30 20511 C 1973.4 -1.64812 -1.15928 0
M  V30 20512 O 1972.46 -1.61074 -1.94451 0
M  V30 20513 C 1973.77 -2.81425 1.05928 0
M  V30 20514 C 1975.32 -2.95187 1.04085 0
M  V30 20515 C 1975.79 -4.23435 1.74548 0
M  V30 20516 N 1977.28 -4.3033 1.71379 0
M  V30 20517 C 1978.02 -5.2836 2.22762 0
M  V30 20518 N 1977.52 -6.32589 2.82494 0
M  V30 20519 N 1979.31 -5.20106 2.13182 0
M  V30 20520 H 1971.46 -1.35332 1.63704 0
M  V30 20521 H 1973.72 -0.650895 0.689231 0
M  V30 20522 H 1973.43 -2.81044 2.1144 0
M  V30 20523 H 1973.3 -3.72077 0.619546 0
M  V30 20524 H 1975.69 -2.95099 -0.00591289 0
M  V30 20525 H 1975.77 -2.05786 1.5194 0
M  V30 20526 H 1975.41 -4.24283 2.79189 0
M  V30 20527 H 1975.34 -5.11756 1.24149 0
M  V30 20528 H 1977.84 -3.55633 1.27803 0
M  V30 20529 H 1978.15 -7.03733 3.19343 0
M  V30 20530 H 1976.49 -6.33173 2.86561 0
M  V30 20531 H 1979.68 -4.37597 1.66211 0
M  V30 20532 H 1979.86 -5.96343 2.53534 0
M  V30 20533 N 1973.26 -0.409806 -1.52179 0
M  V30 20534 C 1974.23 0.40345 -2.25621 0
M  V30 20535 C 1975.23 0.973072 -1.28015 0
M  V30 20536 O 1976.42 0.851845 -1.51951 0
M  V30 20537 C 1973.55 1.568 -3.02699 0
M  V30 20538 H 1974.74 -0.239822 -2.9894 0
M  V30 20539 H 1972.29 -0.162341 -1.55455 0
M  V30 20540 H 1973.03 2.24811 -2.33731 0
M  V30 20541 H 1972.81 1.16603 -3.74361 0
M  V30 20542 H 1974.3 2.14326 -3.58405 0
M  V30 20543 N 1974.74 1.56975 -0.14025 0
M  V30 20544 C 1975.67 2.19432 0.798233 0
M  V30 20545 C 1976.65 1.14055 1.26196 0
M  V30 20546 O 1977.84 1.42373 1.32074 0
M  V30 20547 C 1974.97 2.81059 2.04018 0
M  V30 20548 C 1973.92 3.92204 1.71347 0
M  V30 20549 C 1973.25 4.40735 3.02748 0
M  V30 20550 C 1974.55 5.13302 0.965327 0
M  V30 20551 H 1976.24 2.98109 0.277716 0
M  V30 20552 H 1973.79 1.43392 0.132137 0
M  V30 20553 H 1975.74 3.23417 2.70147 0
M  V30 20554 H 1974.46 1.99703 2.5843 0
M  V30 20555 H 1973.12 3.50454 1.07599 0
M  V30 20556 H 1972.77 3.5621 3.55138 0
M  V30 20557 H 1972.47 5.15698 2.81654 0
M  V30 20558 H 1974 4.85759 3.6996 0
M  V30 20559 H 1975.41 5.52547 1.52857 0
M  V30 20560 H 1973.81 5.93984 0.854574 0
M  V30 20561 H 1974.88 4.8488 -0.0441688 0
M  V30 20562 N 1976.22 -0.133539 1.57033 0
M  V30 20563 C 1977.18 -1.14845 1.98351 0
M  V30 20564 C 1978.18 -1.3512 0.871734 0
M  V30 20565 O 1979.37 -1.31884 1.13808 0
M  V30 20566 C 1976.5 -2.506 2.31111 0
M  V30 20567 H 1977.7 -0.793667 2.89207 0
M  V30 20568 H 1975.25 -0.377348 1.51677 0
M  V30 20569 H 1975.99 -2.91026 1.43089 0
M  V30 20570 H 1975.77 -2.37242 3.12184 0
M  V30 20571 H 1977.26 -3.23672 2.63868 0
M  V30 20572 N 1977.7 -1.52352 -0.403298 0
M  V30 20573 C 1979.11 -1.41285 -0.742343 0
M  V30 20574 C 1979.31 -0.521946 -1.94623 0
M  V30 20575 O 1978.37 0.0100547 -2.52498 0
M  V30 20576 C 1979.68 -2.83907 -0.990819 0
M  V30 20577 C 1981.23 -2.93289 -1.09318 0
M  V30 20578 C 1981.71 -4.36892 -1.37437 0
M  V30 20579 N 1983.2 -4.40153 -1.4429 0
M  V30 20580 C 1983.93 -5.48333 -1.67686 0
M  V30 20581 N 1983.43 -6.66622 -1.88647 0
M  V30 20582 N 1985.22 -5.35856 -1.69748 0
M  V30 20583 H 1977.37 -2.08806 0.389077 0
M  V30 20584 H 1979.63 -0.941383 0.111813 0
M  V30 20585 H 1979.34 -3.51247 -0.178511 0
M  V30 20586 H 1979.21 -3.25302 -1.9094 0
M  V30 20587 H 1981.6 -2.26127 -1.89607 0
M  V30 20588 H 1981.68 -2.55343 -0.152822 0
M  V30 20589 H 1981.33 -5.04616 -0.576634 0
M  V30 20590 H 1981.26 -4.72379 -2.32734 0
M  V30 20591 H 1983.75 -3.54888 -1.29857 0
M  V30 20592 H 1984.06 -7.44848 -2.05965 0
M  V30 20593 H 1982.41 -6.69676 -1.859 0
M  V30 20594 H 1985.6 -4.42419 -1.52914 0
M  V30 20595 H 1985.77 -6.20237 -1.87642 0
M  V30 20596 N 1979.18 0.660885 -1.43074 0
M  V30 20597 C 1980.59 0.97566 -1.26305 0
M  V30 20598 C 1980.79 2.00719 -0.17724 0
M  V30 20599 O 1979.85 2.48514 0.446896 0
M  V30 20600 C 1981.16 1.46722 -2.62475 0
M  V30 20601 C 1982.71 1.58427 -2.69944 0
M  V30 20602 C 1983.18 2.10976 -4.06514 0
M  V30 20603 N 1984.67 2.18289 -4.08539 0
M  V30 20604 C 1985.41 2.60054 -5.11038 0
M  V30 20605 N 1984.91 3.01171 -6.23913 0
M  V30 20606 N 1986.7 2.59926 -4.98392 0
M  V30 20607 H 1978.85 -0.02183 -2.12389 0
M  V30 20608 H 1981.11 0.0527972 -0.946529 0
M  V30 20609 H 1980.82 0.783712 -3.42857 0
M  V30 20610 H 1980.69 2.44359 -2.87348 0
M  V30 20611 H 1983.08 2.25881 -1.899 0
M  V30 20612 H 1983.16 0.592433 -2.48845 0
M  V30 20613 H 1982.8 1.44126 -4.87022 0
M  V30 20614 H 1982.73 3.10976 -4.24972 0
M  V30 20615 H 1985.23 1.89317 -3.27059 0
M  V30 20616 H 1985.54 3.31766 -6.97962 0
M  V30 20617 H 1983.88 2.98994 -6.27398 0
M  V30 20618 H 1987.07 2.27175 -4.09279 0
M  V30 20619 H 1987.25 2.92154 -5.78403 0
M  V30 20620 N 1980.65 1.29477 0.898527 0
M  V30 20621 C 1981.9 1.17516 1.64913 0
M  V30 20622 C 1982.23 -0.273086 1.92573 0
M  V30 20623 O 1981.48 -1.21353 1.53531 0
M  V30 20624 C 1981.78 1.93505 3.00484 0
M  V30 20625 C 1981.45 3.43216 2.92427 0
M  V30 20626 C 1980.11 3.84044 2.89937 0
M  V30 20627 C 1982.46 4.38611 2.81548 0
M  V30 20628 C 1979.79 5.18582 2.74389 0
M  V30 20629 C 1982.14 5.73241 2.67539 0
M  V30 20630 C 1980.81 6.13326 2.63416 0
M  V30 20631 H 1980.08 0.430023 0.603458 0
M  V30 20632 H 1982.72 1.60427 1.04572 0
M  V30 20633 H 1981.03 1.43189 3.64698 0
M  V30 20634 H 1982.73 1.81654 3.57495 0
M  V30 20635 H 1979.32 3.10763 2.95168 0
M  V30 20636 H 1983.5 4.0802 2.82548 0
M  V30 20637 H 1978.76 5.48748 2.69602 0
M  V30 20638 H 1982.93 6.46808 2.58093 0
M  V30 20639 H 1980.56 7.17523 2.51126 0
M  V30 20640 N 1982.13 -1.10905 1.11972 0
M  V30 20641 C 1983.08 -2.15236 0.752149 0
M  V30 20642 C 1984.07 -1.59 -0.246511 0
M  V30 20643 O 1985.26 -1.76921 -0.0527613 0
M  V30 20644 C 1982.39 -3.42699 0.20307 0
M  V30 20645 C 1981.47 -4.0588 1.22973 0
M  V30 20646 N 1981.86 -4.43836 2.42576 0
M  V30 20647 C 1980.16 -4.32877 1.07395 0
M  V30 20648 C 1980.86 -4.93408 3.08097 0
M  V30 20649 N 1979.84 -4.89911 2.35559 0
M  V30 20650 H 1983.64 -2.42369 1.66236 0
M  V30 20651 H 1981.16 -1.27977 0.999785 0
M  V30 20652 H 1983.15 -4.16826 -0.0784271 0
M  V30 20653 H 1981.81 -3.17028 -0.70166 0
M  V30 20654 H 1982.82 -4.35688 2.79993 0
M  V30 20655 H 1979.5 -4.16887 0.22612 0
M  V30 20656 H 1980.89 -5.32363 4.09926 0
M  V30 20657 N 1983.61 -0.910886 -1.2861 0
M  V30 20658 C 1984.86 -0.542557 -1.95096 0
M  V30 20659 C 1985.19 0.913233 -1.71727 0
M  V30 20660 O 1984.44 1.66424 -1.02963 0
M  V30 20661 C 1984.74 -0.794745 -3.48452 0
M  V30 20662 C 1984.41 -2.22964 -3.91916 0
M  V30 20663 C 1983.07 -2.62195 -4.03494 0
M  V30 20664 C 1985.42 -3.16353 -4.1421 0
M  V30 20665 C 1982.75 -3.93974 -4.34743 0
M  V30 20666 C 1985.1 -4.47694 -4.46938 0
M  V30 20667 C 1983.76 -4.86783 -4.56726 0
M  V30 20668 H 1983.03 -0.198536 -0.713908 0
M  V30 20669 H 1985.68 -1.15167 -1.53 0
M  V30 20670 H 1983.99 -0.102809 -3.91665 0
M  V30 20671 H 1985.68 -0.488975 -3.98008 0
M  V30 20672 H 1982.27 -1.91521 -3.83429 0
M  V30 20673 H 1986.46 -2.87253 -4.04721 0
M  V30 20674 H 1981.71 -4.23965 -4.40526 0
M  V30 20675 H 1985.89 -5.20074 -4.63137 0
M  V30 20676 H 1983.51 -5.88928 -4.80695 0
M  V30 20677 N 1985.09 1.42434 -0.674558 0
M  V30 20678 C 1986.37 1.95196 -0.125683 0
M  V30 20679 C 1986.75 1.61499 1.35946 0
M  V30 20680 O 1986.09 0.911023 2.09553 0
M  V30 20681 C 1986.3 3.46762 -0.39457 0
M  V30 20682 C 1987.65 4.2346 -0.310951 0
M  V30 20683 O 1988.68 3.54684 -0.328304 0
M  V30 20684 O 1987.53 5.45914 -0.252937 0
M  V30 20685 H 1984.63 0.826995 -0.00272875 0
M  V30 20686 H 1987.17 1.52263 -0.749271 0
M  V30 20687 H 1985.95 3.64493 -1.42339 0
M  V30 20688 H 1985.57 3.96742 0.261037 0
M  V30 20689 N 1986.57 0.417871 1.51959 0
M  V30 20690 C 1987.5 -0.448093 2.23757 0
M  V30 20691 C 1988.48 -1.04082 1.24923 0
M  V30 20692 O 1989.66 -1.08702 1.54 0
M  V30 20693 C 1986.79 -1.62276 2.97295 0
M  V30 20694 C 1985.83 -1.15258 4.10631 0
M  V30 20695 S 1986.67 -0.110541 5.35386 0
M  V30 20696 C 1987.82 -1.29033 6.12455 0
M  V30 20697 H 1988.06 0.161521 2.96861 0
M  V30 20698 H 1985.59 0.202231 1.5307 0
M  V30 20699 H 1987.55 -2.29628 3.40267 0
M  V30 20700 H 1986.21 -2.20373 2.23818 0
M  V30 20701 H 1985.4 -2.03044 4.61291 0
M  V30 20702 H 1985 -0.557582 3.6982 0
M  V30 20703 H 1987.3 -2.21233 6.40361 0
M  V30 20704 H 1988.24 -0.824085 7.03288 0
M  V30 20705 H 1988.65 -1.52008 5.43649 0
M  V30 20706 N 1988.04 -1.56898 0.148573 0
M  V30 20707 C 1988.99 -2.1813 -0.807596 0
M  V30 20708 C 1989.99 -1.13875 -1.25415 0
M  V30 20709 O 1991.19 -1.32122 -1.22245 0
M  V30 20710 H 1987.57 -0.698471 -0.278644 0
M  V30 20711 H 1989.54 -2.97203 -0.266972 0
M  V30 20712 C 1988.29 -2.81852 -2.03604 0
M  V30 20713 H 1987.61 -3.6179 -1.70141 0
M  V30 20714 H 1989.05 -3.28196 -2.68446 0
M  V30 20715 C 1987.51 -1.80441 -2.84504 0
M  V30 20716 O 1988.04 -1.27584 -3.809 0
M  V30 20717 N 1986.25 -1.49709 -2.49069 0
M  V30 20718 H 1985.79 -1.92884 -1.70744 0
M  V30 20719 H 1985.75 -0.821041 -3.0349 0
M  V30 20720 N 1989.52 0.125209 -1.57102 0
M  V30 20721 C 1990.77 0.832627 -1.83712 0
M  V30 20722 C 1991.08 1.81336 -0.733261 0
M  V30 20723 O 1992.29 2.56651 -0.885592 0
M  V30 20724 C 1990.75 1.53143 -3.25692 0
M  V30 20725 C 1990.35 0.592004 -4.44071 0
M  V30 20726 C 1992.1 2.22435 -3.61556 0
M  V30 20727 C 1990.01 1.29368 -5.77077 0
M  V30 20728 H 1988.94 0.314685 -0.685193 0
M  V30 20729 H 1991.59 0.0853544 -1.83301 0
M  V30 20730 H 1989.97 2.32511 -3.20554 0
M  V30 20731 H 1991.14 -0.16801 -4.60494 0
M  V30 20732 H 1989.46 0.00637692 -4.164 0
M  V30 20733 H 1992.05 2.75611 -4.58195 0
M  V30 20734 H 1992.4 2.99947 -2.88683 0
M  V30 20735 H 1992.93 1.49962 -3.68451 0
M  V30 20736 H 1989.67 0.559975 -6.53104 0
M  V30 20737 H 1989.19 2.02586 -5.64552 0
M  V30 20738 H 1990.87 1.8286 -6.20622 0
M  V30 20739 N 1991 1.52564 0.395213 0
M  V30 20740 C 1991.91 1.79813 1.5068 0
M  V30 20741 C 1992.93 0.684507 1.5997 0
M  V30 20742 O 1994.1 0.971428 1.76423 0
M  V30 20743 C 1991.17 1.95567 2.86277 0
M  V30 20744 C 1990.23 3.19481 2.86759 0
M  V30 20745 C 1989.46 3.34474 4.15888 0
M  V30 20746 O 1989.68 2.54414 5.10519 0
M  V30 20747 O 1988.62 4.27698 4.23507 0
M  V30 20748 H 1992.44 2.74191 1.30586 0
M  V30 20749 H 1990.03 1.37579 0.582445 0
M  V30 20750 H 1991.91 2.07672 3.66675 0
M  V30 20751 H 1990.59 1.04378 3.0641 0
M  V30 20752 H 1989.49 3.12823 2.05164 0
M  V30 20753 H 1990.83 4.10496 2.71577 0
M  V30 20754 N 1992.48 -0.653289 1.43422 0
M  V30 20755 C 1993.72 -1.41528 1.4525 0
M  V30 20756 C 1994.06 -1.94049 0.0764514 0
M  V30 20757 O 1993.33 -1.72284 -0.902682 0
M  V30 20758 C 1993.62 -2.59676 2.49481 0
M  V30 20759 C 1993.47 -2.12647 3.9636 0
M  V30 20760 C 1994.79 -3.61889 2.50449 0
M  V30 20761 H 1991.91 -0.513273 0.528885 0
M  V30 20762 H 1994.55 -0.740628 1.74971 0
M  V30 20763 H 1992.7 -3.17232 2.24268 0
M  V30 20764 H 1994.37 -1.60092 4.32629 0
M  V30 20765 H 1992.61 -1.4402 4.09195 0
M  V30 20766 H 1993.28 -2.97607 4.64902 0
M  V30 20767 H 1995.76 -3.14091 2.72921 0
M  V30 20768 H 1994.64 -4.42106 3.2532 0
M  V30 20769 H 1994.9 -4.14475 1.53826 0
M  V30 20770 N 1993.96 -1.29952 -0.891648 0
M  V30 20771 C 1995.21 -1.17758 -1.63756 0
M  V30 20772 C 1995.52 0.268231 -1.93752 0
M  V30 20773 O 1996.72 0.511595 -2.66636 0
M  V30 20774 C 1995.18 -2.06008 -2.95108 0
M  V30 20775 C 1994.79 -3.55459 -2.72677 0
M  V30 20776 C 1996.53 -2.0256 -3.73055 0
M  V30 20777 C 1994.44 -4.35787 -3.99805 0
M  V30 20778 H 1993.37 -0.437139 -0.61435 0
M  V30 20779 H 1996.02 -1.54651 -0.987694 0
M  V30 20780 H 1994.4 -1.61991 -3.61351 0
M  V30 20781 H 1995.58 -4.0758 -2.14977 0
M  V30 20782 H 1993.89 -3.60662 -2.08115 0
M  V30 20783 H 1996.49 -2.5983 -4.67325 0
M  V30 20784 H 1996.83 -1.00748 -4.03925 0
M  V30 20785 H 1997.36 -2.44662 -3.13664 0
M  V30 20786 H 1994.1 -5.38268 -3.74096 0
M  V30 20787 H 1993.62 -3.88432 -4.57035 0
M  V30 20788 H 1995.3 -4.46872 -4.67883 0
M  V30 20789 N 1995.44 1.1031 -1.12559 0
M  V30 20790 C 1996.66 1.86618 -0.9049 0
M  V30 20791 C 1997.09 1.80164 0.540597 0
M  V30 20792 O 1996.44 1.17252 1.38281 0
M  V30 20793 C 1996.49 3.32903 -1.38592 0
M  V30 20794 O 1995.6 4.08508 -0.565225 0
M  V30 20795 H 1994.94 0.579019 -0.325013 0
M  V30 20796 H 1997.47 1.39359 -1.498 0
M  V30 20797 H 1997.48 3.83753 -1.38556 0
M  V30 20798 H 1996.15 3.36917 -2.43844 0
M  V30 20799 H 1994.73 3.67494 -0.632682 0
M  V30 20800 N 1996.91 0.917694 1.28125 0
M  V30 20801 C 1997.85 0.353528 2.25445 0
M  V30 20802 C 1998.82 -0.544478 1.53213 0
M  V30 20803 O 2000.01 -0.487244 1.82094 0
M  V30 20804 C 1997.14 -0.494267 3.35074 0
M  V30 20805 C 1996.18 0.338908 4.25151 0
M  V30 20806 S 1997.01 1.74815 5.06162 0
M  V30 20807 C 1998.17 0.907763 6.19282 0
M  V30 20808 H 1998.4 1.17837 2.7295 0
M  V30 20809 H 1995.94 0.719206 1.36626 0
M  V30 20810 H 1997.89 -0.977577 3.9869 0
M  V30 20811 H 1996.56 -1.29354 2.86228 0
M  V30 20812 H 1995.75 -0.309531 5.03049 0
M  V30 20813 H 1995.35 0.756018 3.66279 0
M  V30 20814 H 1997.64 0.139193 6.77357 0
M  V30 20815 H 1998.59 1.65941 6.88382 0
M  V30 20816 H 1998.99 0.454194 5.6267 0
M  V30 20817 N 1998.39 -1.42074 0.682102 0
M  V30 20818 C 1999.62 -2.05471 0.215716 0
M  V30 20819 C 2000.03 -1.51372 -1.13504 0
M  V30 20820 O 1999.37 -0.651251 -1.71768 0
M  V30 20821 C 1999.43 -3.59408 0.0812503 0
M  V30 20822 C 1999.1 -4.36236 1.36189 0
M  V30 20823 C 2000.1 -4.6641 2.29691 0
M  V30 20824 C 1997.78 -4.75747 1.61152 0
M  V30 20825 C 1999.77 -5.35039 3.46428 0
M  V30 20826 C 1997.46 -5.44115 2.78176 0
M  V30 20827 C 1998.46 -5.73687 3.70638 0
M  V30 20828 O 1998.15 -6.40651 4.85615 0
M  V30 20829 H 1997.88 -0.668449 0.100755 0
M  V30 20830 H 2000.43 -1.83072 0.931332 0
M  V30 20831 H 1998.66 -3.80494 -0.690014 0
M  V30 20832 H 2000.35 -4.04421 -0.346206 0
M  V30 20833 H 2001.12 -4.36378 2.11658 0
M  V30 20834 H 1997 -4.52119 0.900512 0
M  V30 20835 H 2000.54 -5.58037 4.18617 0
M  V30 20836 H 1996.44 -5.73565 2.96132 0
M  V30 20837 H 1997.21 -6.59144 4.85254 0
M  V30 20838 N 1999.87 -0.425924 -1.51735 0
M  V30 20839 C 2001.09 0.145767 -2.06887 0
M  V30 20840 C 2001.52 1.36671 -1.29239 0
M  V30 20841 O 2000.88 1.78323 -0.327176 0
M  V30 20842 C 2000.93 0.457951 -3.5768 0
M  V30 20843 O 2000.03 1.54629 -3.82314 0
M  V30 20844 H 1999.37 0.00686619 -0.663964 0
M  V30 20845 H 2001.9 -0.603968 -1.95482 0
M  V30 20846 H 2001.91 0.71173 -4.01744 0
M  V30 20847 H 2000.59 -0.434483 -4.13624 0
M  V30 20848 H 1999.16 1.28336 -3.5012 0
M  V30 20849 N 2001.35 1.56817 -0.156891 0
M  V30 20850 C 2002.28 2.14404 0.810167 0
M  V30 20851 C 2003.29 1.09595 1.20386 0
M  V30 20852 O 2004.48 1.36836 1.14622 0
M  V30 20853 C 2001.58 2.65998 2.09996 0
M  V30 20854 C 2000.75 3.95312 1.87209 0
M  V30 20855 C 1999.81 4.32116 3.00271 0
M  V30 20856 O 1998.84 5.00259 2.71532 0
M  V30 20857 N 2000.04 3.925 4.27696 0
M  V30 20858 H 2002.81 2.98009 0.317935 0
M  V30 20859 H 2000.37 1.61879 0.0263634 0
M  V30 20860 H 2002.36 2.87626 2.84699 0
M  V30 20861 H 2000.93 1.87062 2.50453 0
M  V30 20862 H 2000.15 3.82209 0.964891 0
M  V30 20863 H 2001.44 4.79795 1.69335 0
M  V30 20864 H 2000.84 3.37612 4.5391 0
M  V30 20865 H 1999.39 4.19159 4.99148 0
M  V30 20866 N 2002.83 -0.116876 1.57166 0
M  V30 20867 C 2003.77 -1.16225 2.01481 0
M  V30 20868 C 2004.77 -1.42749 0.912094 0
M  V30 20869 O 2005.97 -1.42686 1.0973 0
M  V30 20870 H 2002.35 -0.391924 0.641794 0
M  V30 20871 H 2004.32 -0.762018 2.88506 0
M  V30 20872 C 2003.07 -2.48022 2.43681 0
M  V30 20873 H 2002.39 -2.28451 3.28101 0
M  V30 20874 H 2003.83 -3.19723 2.78484 0
M  V30 20875 C 2002.29 -3.10754 1.30129 0
M  V30 20876 O 2002.82 -3.96911 0.618431 0
M  V30 20877 N 2001.03 -2.70664 1.05781 0
M  V30 20878 H 2000.57 -2.00696 1.61489 0
M  V30 20879 H 2000.53 -3.12965 0.300009 0
M  V30 20880 N 2004.3 -1.52772 -0.387116 0
M  V30 20881 C 2005.55 -1.67576 -1.12973 0
M  V30 20882 C 2005.87 -0.419122 -1.90443 0
M  V30 20883 O 2005.14 0.566514 -1.8753 0
M  V30 20884 H 2003.72 -0.617716 -0.420043 0
M  V30 20885 H 2006.38 -1.89892 -0.43896 0
M  V30 20886 H 2005.48 -2.52704 -1.83158 0
M  V30 20887 N 2005.78 0.645673 -1.43767 0
M  V30 20888 C 2006.73 1.75828 -1.4951 0
M  V30 20889 C 2007.7 1.62496 -0.344109 0
M  V30 20890 O 2008.88 1.82631 -0.552323 0
M  V30 20891 C 2006.02 3.14017 -1.43134 0
M  V30 20892 C 2005.14 3.38428 -2.68496 0
M  V30 20893 C 2004.27 4.66507 -2.54056 0
M  V30 20894 C 2003.31 4.84049 -3.74651 0
M  V30 20895 N 2002.45 6.03392 -3.58974 0
M  V30 20896 H 2007.29 1.70254 -2.44576 0
M  V30 20897 H 2004.82 0.830729 -1.21397 0
M  V30 20898 H 2006.78 3.93915 -1.37431 0
M  V30 20899 H 2005.41 3.18642 -0.516449 0
M  V30 20900 H 2004.46 2.52574 -2.84448 0
M  V30 20901 H 2005.78 3.47274 -3.58054 0
M  V30 20902 H 2004.93 5.54543 -2.46103 0
M  V30 20903 H 2003.67 4.59996 -1.62035 0
M  V30 20904 H 2002.67 3.94447 -3.83004 0
M  V30 20905 H 2003.9 4.92385 -4.67689 0
M  V30 20906 H 2001.85 5.97998 -2.69694 0
M  V30 20907 H 2001.76 6.13229 -4.42138 0
M  V30 20908 H 2003.03 6.94029 -3.54887 0
M  V30 20909 N 2007.26 1.30423 0.884744 0
M  V30 20910 C 2008.51 1.18625 1.63129 0
M  V30 20911 C 2008.82 -0.257953 1.93892 0
M  V30 20912 O 2010.03 -0.497448 2.66904 0
M  V30 20913 C 2008.48 2.0757 2.94011 0
M  V30 20914 C 2008.09 3.569 2.70788 0
M  V30 20915 C 2009.84 2.04535 3.71975 0
M  V30 20916 C 2007.74 4.37901 3.97488 0
M  V30 20917 H 2006.67 0.440391 0.612023 0
M  V30 20918 H 2009.32 1.55172 0.979478 0
M  V30 20919 H 2007.71 1.63905 3.60487 0
M  V30 20920 H 2008.88 4.08715 2.12812 0
M  V30 20921 H 2007.19 3.61761 2.06199 0
M  V30 20922 H 2009.79 2.62305 4.6594 0
M  V30 20923 H 2010.13 1.02888 4.03385 0
M  V30 20924 H 2010.67 2.46322 3.12362 0
M  V30 20925 H 2007.41 5.40244 3.71236 0
M  V30 20926 H 2006.93 3.9085 4.54968 0
M  V30 20927 H 2008.61 4.49347 4.65506 0
M  V30 20928 N 2008.74 -1.09711 1.13142 0
M  V30 20929 C 2009.69 -2.18355 0.801498 0
M  V30 20930 C 2010.68 -1.68031 -0.214907 0
M  V30 20931 O 2011.89 -1.79855 -0.0723523 0
M  V30 20932 H 2008.26 -0.712202 0.241398 0
M  V30 20933 H 2010.23 -2.43416 1.72601 0
M  V30 20934 C 2008.98 -3.46566 0.280613 0
M  V30 20935 H 2008.3 -3.85656 1.05403 0
M  V30 20936 H 2009.74 -4.23908 0.0881579 0
M  V30 20937 C 2008.2 -3.21932 -0.993053 0
M  V30 20938 O 2008.73 -3.44292 -2.06944 0
M  V30 20939 N 2006.94 -2.75553 -0.922971 0
M  V30 20940 H 2006.49 -2.57557 -0.0468975 0
M  V30 20941 H 2006.44 -2.59449 -1.77577 0
M  V30 20942 N 2010.22 -0.924476 -1.27637 0
M  V30 20943 C 2011.15 -0.365478 -2.25254 0
M  V30 20944 C 2012.13 0.536345 -1.535 0
M  V30 20945 O 2013.31 0.47758 -1.8235 0
M  V30 20946 C 2010.44 0.47649 -3.35332 0
M  V30 20947 C 2009.48 -0.36145 -4.24966 0
M  V30 20948 S 2010.32 -1.77496 -5.05228 0
M  V30 20949 C 2011.47 -0.940592 -6.18792 0
M  V30 20950 H 2011.71 -1.19283 -2.72321 0
M  V30 20951 H 2009.24 -0.726442 -1.36243 0
M  V30 20952 H 2011.2 0.95642 -3.99203 0
M  V30 20953 H 2009.86 1.27834 -2.8691 0
M  V30 20954 H 2009.05 0.282848 -5.03206 0
M  V30 20955 H 2008.65 -0.775432 -3.65873 0
M  V30 20956 H 2010.95 -0.175113 -6.77274 0
M  V30 20957 H 2011.89 -1.69589 -6.87492 0
M  V30 20958 H 2012.3 -0.484027 -5.62421 0
M  V30 20959 N 2011.69 1.41711 -0.689627 0
M  V30 20960 C 2013.11 1.84377 -0.293587 0
M  V30 20961 C 2013.46 1.57711 1.16712 0
M  V30 20962 O 2012.58 1.0445 1.89523 0
M  V30 20963 C 2013.18 3.34691 -0.526073 0
M  V30 20964 C 2011.74 3.7595 -0.184009 0
M  V30 20965 C 2010.88 2.65167 -0.811277 0
M  V30 20966 H 2013.83 1.31347 -0.890718 0
M  V30 20967 H 2013.85 3.7988 0.217124 0
M  V30 20968 H 2013.37 3.54068 -1.58927 0
M  V30 20969 H 2011.47 3.62176 0.875158 0
M  V30 20970 H 2011.58 4.74875 -0.63488 0
M  V30 20971 H 2009.94 2.53554 -0.241363 0
M  V30 20972 H 2010.73 2.87363 -1.87822 0
M  V30 20973 N 2013.17 0.433965 1.51507 0
M  V30 20974 C 2014.11 -0.424335 2.2422 0
M  V30 20975 C 2015.08 -1.02751 1.26019 0
M  V30 20976 O 2016.27 -1.07062 1.55145 0
M  V30 20977 C 2013.39 -1.59113 2.98999 0
M  V30 20978 C 2012.44 -1.10896 4.1183 0
M  V30 20979 S 2013.27 -0.0537502 5.35473 0
M  V30 20980 C 2014.43 -1.22529 6.13789 0
M  V30 20981 H 2014.66 0.192998 2.96673 0
M  V30 20982 H 2012.2 0.218455 1.52847 0
M  V30 20983 H 2014.15 -2.26006 3.42683 0
M  V30 20984 H 2012.81 -2.17987 2.26143 0
M  V30 20985 H 2012.01 -1.9814 4.63419 0
M  V30 20986 H 2011.61 -0.518327 3.70391 0
M  V30 20987 H 2013.9 -2.14429 6.42671 0
M  V30 20988 H 2014.84 -0.749446 7.04123 0
M  V30 20989 H 2015.25 -1.46233 5.4523 0
M  V30 20990 N 2014.65 -1.56732 0.165206 0
M  V30 20991 C 2015.88 -2.01506 -0.490943 0
M  V30 20992 C 2016.3 -1.04466 -1.56424 0
M  V30 20993 O 2015.66 -0.0232331 -1.81285 0
M  V30 20994 C 2015.71 -3.4492 -1.05179 0
M  V30 20995 O 2014.81 -3.50937 -2.16603 0
M  V30 20996 H 2014.15 -0.653393 -0.11821 0
M  V30 20997 H 2016.68 -2.02846 0.267298 0
M  V30 20998 H 2016.69 -3.84099 -1.37593 0
M  V30 20999 H 2015.37 -4.15049 -0.265916 0
M  V30 21000 H 2013.94 -3.23613 -1.85281 0
M  V30 21001 N 2016.13 0.10854 -1.57226 0
M  V30 21002 C 2017.37 0.815673 -1.85673 0
M  V30 21003 C 2017.71 1.79031 -0.752441 0
M  V30 21004 O 2016.98 1.93004 0.240811 0
M  V30 21005 C 2017.27 1.55633 -3.24731 0
M  V30 21006 C 2017.12 0.600595 -4.45772 0
M  V30 21007 C 2018.44 2.51009 -3.61501 0
M  V30 21008 H 2015.56 0.295076 -0.675351 0
M  V30 21009 H 2018.2 0.079634 -1.89833 0
M  V30 21010 H 2016.35 2.18377 -3.21316 0
M  V30 21011 H 2018.02 -0.0187984 -4.61296 0
M  V30 21012 H 2016.26 -0.0870799 -4.33713 0
M  V30 21013 H 2016.93 1.15569 -5.39766 0
M  V30 21014 H 2019.41 1.98365 -3.65774 0
M  V30 21015 H 2018.29 2.99857 -4.59758 0
M  V30 21016 H 2018.55 3.34154 -2.89472 0
M  V30 21017 N 2017.61 1.52975 0.379009 0
M  V30 21018 C 2018.55 1.78463 1.46355 0
M  V30 21019 C 2019.52 0.628308 1.53758 0
M  V30 21020 O 2020.71 0.869084 1.69858 0
M  V30 21021 C 2017.85 1.96827 2.83467 0
M  V30 21022 C 2016.96 3.24533 2.85136 0
M  V30 21023 C 2016.1 3.33158 4.13738 0
M  V30 21024 C 2015.14 4.54948 4.09498 0
M  V30 21025 N 2014.27 4.60801 5.29724 0
M  V30 21026 H 2019.11 2.71012 1.23921 0
M  V30 21027 H 2016.65 1.34263 0.600982 0
M  V30 21028 H 2018.61 2.05459 3.63101 0
M  V30 21029 H 2017.24 1.07628 3.04329 0
M  V30 21030 H 2016.29 3.24921 1.97814 0
M  V30 21031 H 2017.6 4.14232 2.77873 0
M  V30 21032 H 2016.76 3.41029 5.01781 0
M  V30 21033 H 2015.49 2.41451 4.23737 0
M  V30 21034 H 2014.5 4.47193 3.19842 0
M  V30 21035 H 2015.72 5.47983 4.01113 0
M  V30 21036 H 2013.67 3.71989 5.40333 0
M  V30 21037 H 2013.59 5.44386 5.24576 0
M  V30 21038 H 2014.86 4.72938 6.19637 0
M  V30 21039 N 2019.08 -0.63804 1.44107 0
M  V30 21040 C 2020.31 -1.4251 1.49995 0
M  V30 21041 C 2020.73 -1.88401 0.122604 0
M  V30 21042 O 2020.08 -1.60419 -0.870168 0
M  V30 21043 C 2020.14 -2.65002 2.45879 0
M  V30 21044 O 2019.86 -2.21025 3.78259 0
M  V30 21045 C 2021.36 -3.58203 2.61162 0
M  V30 21046 H 2018.58 -0.437285 0.508943 0
M  V30 21047 H 2021.12 -0.780912 1.89003 0
M  V30 21048 H 2019.28 -3.25527 2.10026 0
M  V30 21049 H 2019.69 -3.00388 4.29962 0
M  V30 21050 H 2021.16 -4.40776 3.32295 0
M  V30 21051 H 2021.64 -4.06556 1.6616 0
M  V30 21052 H 2022.25 -3.0355 2.97888 0
M  V30 21053 N 2020.56 -1.3089 -0.877815 0
M  V30 21054 C 2021.8 -1.21417 -1.6443 0
M  V30 21055 C 2022.17 0.225958 -1.90666 0
M  V30 21056 O 2023.37 0.444054 -2.65107 0
M  V30 21057 C 2021.64 -2.02699 -2.9436 0
M  V30 21058 S 2023.2 -2.10002 -3.85285 0
M  V30 21059 H 2020.02 -0.432571 -0.564272 0
M  V30 21060 H 2022.62 -1.65456 -1.04138 0
M  V30 21061 H 2021.32 -3.06433 -2.72996 0
M  V30 21062 H 2020.85 -1.59349 -3.59682 0
M  V30 21063 H 2022.87 -1.23262 -4.80646 0
M  V30 21064 N 2022.04 1.0911 -1.13723 0
M  V30 21065 C 2023.32 1.77949 -0.812014 0
M  V30 21066 C 2023.7 1.99302 0.695832 0
M  V30 21067 O 2023.05 1.59704 1.63422 0
M  V30 21068 C 2023.26 3.10028 -1.60262 0
M  V30 21069 C 2024.6 3.84681 -1.79738 0
M  V30 21070 O 2025.63 3.19789 -1.56887 0
M  V30 21071 O 2024.49 5.01185 -2.17888 0
M  V30 21072 H 2021.58 0.7719 -0.296816 0
M  V30 21073 H 2024.13 1.15637 -1.24202 0
M  V30 21074 H 2022.9 2.8999 -2.62719 0
M  V30 21075 H 2022.52 3.80065 -1.16776 0
M  V30 21076 N 2023.52 0.931232 1.27145 0
M  V30 21077 C 2024.43 0.438807 2.3046 0
M  V30 21078 C 2025.44 -0.482275 1.67183 0
M  V30 21079 O 2026.62 -0.364225 1.98079 0
M  V30 21080 C 2023.69 -0.297266 3.45423 0
M  V30 21081 C 2022.75 0.659161 4.24209 0
M  V30 21082 C 2021.98 -0.0418787 5.33684 0
M  V30 21083 O 2022.2 -1.26062 5.56295 0
M  V30 21084 O 2021.14 0.631751 5.98575 0
M  V30 21085 H 2024.96 1.29675 2.74624 0
M  V30 21086 H 2022.55 0.696718 1.3216 0
M  V30 21087 H 2024.43 -0.712299 4.15336 0
M  V30 21088 H 2023.1 -1.13075 3.03308 0
M  V30 21089 H 2022.01 1.12394 3.56817 0
M  V30 21090 H 2023.34 1.45997 4.70049 0
M  V30 21091 N 2025 -1.41343 0.697132 0
M  V30 21092 C 2026.27 -1.94971 0.156721 0
M  V30 21093 C 2026.65 -1.63641 -1.33359 0
M  V30 21094 O 2026 -0.944246 -2.08077 0
M  V30 21095 C 2026.21 -3.46091 0.449687 0
M  V30 21096 C 2027.56 -4.22912 0.378281 0
M  V30 21097 O 2028.58 -3.54117 0.38469 0
M  V30 21098 O 2027.44 -5.45443 0.339755 0
M  V30 21099 H 2024.54 -0.826847 0.0158852 0
M  V30 21100 H 2027.08 -1.51052 0.7734 0
M  V30 21101 H 2025.86 -3.62183 1.48119 0
M  V30 21102 H 2025.48 -3.97107 -0.197886 0
M  V30 21103 N 2026.48 -0.441993 -1.51275 0
M  V30 21104 C 2027.72 0.122024 -2.04035 0
M  V30 21105 C 2028.08 1.39557 -1.31863 0
M  V30 21106 O 2029.28 2.04012 -1.75022 0
M  V30 21107 C 2027.55 0.330958 -3.55864 0
M  V30 21108 S 2029.11 0.857712 -4.30336 0
M  V30 21109 H 2025.93 0.0296645 -0.710381 0
M  V30 21110 H 2028.53 -0.602467 -1.85985 0
M  V30 21111 H 2027.23 -0.602196 -4.05958 0
M  V30 21112 H 2026.77 1.0824 -3.78217 0
M  V30 21113 H 2028.78 2.13474 -4.47932 0
M  V30 21114 N 2027.95 1.56642 -0.173515 0
M  V30 21115 C 2029.19 1.98845 0.473303 0
M  V30 21116 C 2029.56 1.05721 1.60272 0
M  V30 21117 O 2030.76 1.37073 2.31224 0
M  V30 21118 C 2029.03 3.44767 0.94185 0
M  V30 21119 S 2030.59 4.08998 1.58954 0
M  V30 21120 H 2027.41 0.694527 0.152161 0
M  V30 21121 H 2030.01 1.93606 -0.271494 0
M  V30 21122 H 2028.71 4.10254 0.109473 0
M  V30 21123 H 2028.24 3.53776 1.72063 0
M  V30 21124 H 2030.26 4.04227 2.87775 0
M  V30 21125 N 2029.43 -0.1002 1.57281 0
M  V30 21126 C 2030.84 -0.655287 1.74822 0
M  V30 21127 C 2031.19 -1.79373 0.794961 0
M  V30 21128 O 2030.32 -2.16382 -0.0277532 0
M  V30 21129 C 2030.91 -1.19548 3.17008 0
M  V30 21130 C 2029.47 -1.69668 3.35991 0
M  V30 21131 C 2028.62 -0.604127 2.70639 0
M  V30 21132 H 2031.57 0.125841 1.582 0
M  V30 21133 H 2031.59 -2.06489 3.19598 0
M  V30 21134 H 2031.1 -0.366679 3.86364 0
M  V30 21135 H 2029.2 -2.54964 2.71706 0
M  V30 21136 H 2029.32 -1.79318 4.44277 0
M  V30 21137 H 2027.68 -1.04234 2.32395 0
M  V30 21138 H 2028.46 0.214006 3.42632 0
M  V30 21139 N 2030.91 -1.53174 -0.370891 0
M  V30 21140 C 2032.16 -1.69349 -1.11574 0
M  V30 21141 C 2032.49 -0.441278 -1.8912 0
M  V30 21142 O 2031.76 0.561336 -1.86224 0
M  V30 21143 C 2032.05 -2.94003 -2.07929 0
M  V30 21144 C 2031.9 -4.29368 -1.34027 0
M  V30 21145 C 2033.22 -3.14243 -3.08123 0
M  V30 21146 H 2030.34 -0.616245 -0.404242 0
M  V30 21147 H 2032.98 -1.85803 -0.397124 0
M  V30 21148 H 2031.13 -2.80105 -2.69209 0
M  V30 21149 H 2032.8 -4.55068 -0.755718 0
M  V30 21150 H 2031.04 -4.29021 -0.642108 0
M  V30 21151 H 2031.72 -5.12712 -2.04525 0
M  V30 21152 H 2034.19 -3.27291 -2.56943 0
M  V30 21153 H 2033.07 -4.02907 -3.7277 0
M  V30 21154 H 2033.33 -2.2928 -3.77999 0
M  V30 21155 N 2032.39 0.630389 -1.44443 0
M  V30 21156 C 2033.34 1.76351 -1.51667 0
M  V30 21157 C 2034.33 1.64889 -0.388317 0
M  V30 21158 O 2035.54 1.70959 -0.563293 0
M  V30 21159 H 2031.91 0.582226 -0.475937 0
M  V30 21160 H 2033.88 1.67382 -2.47034 0
M  V30 21161 C 2032.63 3.14688 -1.47875 0
M  V30 21162 H 2031.95 3.24156 -2.34015 0
M  V30 21163 H 2033.39 3.93866 -1.5699 0
M  V30 21164 C 2031.85 3.36308 -0.199622 0
M  V30 21165 O 2032.38 3.95013 0.72988 0
M  V30 21166 N 2030.59 2.90419 -0.102524 0
M  V30 21167 H 2030.14 2.42829 -0.859761 0
M  V30 21168 H 2030.09 3.0526 0.752566 0
M  V30 21169 N 2033.87 1.31354 0.870861 0
M  V30 21170 C 2035.11 1.20988 1.62383 0
M  V30 21171 C 2035.44 -0.232177 1.93109 0
M  V30 21172 O 2034.7 -1.1807 1.56071 0
M  V30 21173 C 2034.99 1.99835 2.96312 0
M  V30 21174 C 2034.66 3.49342 2.85081 0
M  V30 21175 C 2033.32 3.90108 2.81725 0
M  V30 21176 C 2035.67 4.44485 2.72181 0
M  V30 21177 C 2033 5.24286 2.63327 0
M  V30 21178 C 2035.35 5.78787 2.5532 0
M  V30 21179 C 2034.02 6.18775 2.50347 0
M  V30 21180 H 2033.29 0.442726 0.594201 0
M  V30 21181 H 2035.94 1.62609 1.01146 0
M  V30 21182 H 2034.24 1.50892 3.61578 0
M  V30 21183 H 2035.94 1.89196 3.53562 0
M  V30 21184 H 2032.53 3.16954 2.8851 0
M  V30 21185 H 2036.71 4.13921 2.7383 0
M  V30 21186 H 2031.97 5.54344 2.57901 0
M  V30 21187 H 2036.14 6.52137 2.44315 0
M  V30 21188 H 2033.77 7.22689 2.3585 0
M  V30 21189 N 2035.34 -1.08505 1.143 0
M  V30 21190 C 2036.29 -2.15397 0.829011 0
M  V30 21191 C 2037.26 -1.64728 -0.213016 0
M  V30 21192 O 2038.45 -1.90619 -0.0831625 0
M  V30 21193 C 2035.59 -3.43691 0.311546 0
M  V30 21194 C 2034.7 -4.08212 1.41375 0
M  V30 21195 C 2033.83 -5.24296 0.853639 0
M  V30 21196 C 2032.87 -5.80757 1.93359 0
M  V30 21197 N 2032.01 -6.88188 1.39073 0
M  V30 21198 H 2036.85 -2.41597 1.74456 0
M  V30 21199 H 2034.39 -1.18566 0.870668 0
M  V30 21200 H 2036.34 -4.17199 -0.00667521 0
M  V30 21201 H 2034.97 -3.17779 -0.567106 0
M  V30 21202 H 2034.03 -3.32474 1.84839 0
M  V30 21203 H 2035.34 -4.46196 2.2296 0
M  V30 21204 H 2034.49 -6.0474 0.487261 0
M  V30 21205 H 2033.23 -4.877 0.00682778 0
M  V30 21206 H 2032.24 -4.98967 2.30893 0
M  V30 21207 H 2033.46 -6.19412 2.78398 0
M  V30 21208 H 2031.41 -6.53553 0.566079 0
M  V30 21209 H 2031.32 -7.24992 2.14296 0
M  V30 21210 H 2032.59 -7.72366 1.05222 0
M  V30 21211 N 2036.82 -0.937962 -1.26649 0
M  V30 21212 C 2037.77 -0.443717 -2.26495 0
M  V30 21213 C 2038.74 0.494894 -1.58556 0
M  V30 21214 O 2039.92 0.411807 -1.86303 0
M  V30 21215 C 2037.06 0.287974 -3.43896 0
M  V30 21216 C 2036.18 -0.685936 -4.2652 0
M  V30 21217 C 2035.31 0.0666303 -5.31158 0
M  V30 21218 C 2034.35 -0.899313 -6.05457 0
M  V30 21219 N 2033.49 -0.17871 -7.01873 0
M  V30 21220 H 2038.33 -1.3001 -2.68144 0
M  V30 21221 H 2035.86 -0.652331 -1.31845 0
M  V30 21222 H 2037.82 0.728613 -4.10788 0
M  V30 21223 H 2036.45 1.10852 -3.03169 0
M  V30 21224 H 2035.5 -1.24509 -3.59446 0
M  V30 21225 H 2036.82 -1.42373 -4.7805 0
M  V30 21226 H 2035.97 0.566702 -6.04047 0
M  V30 21227 H 2034.71 0.837326 -4.80458 0
M  V30 21228 H 2033.71 -1.41054 -5.31398 0
M  V30 21229 H 2034.94 -1.66996 -6.58247 0
M  V30 21230 H 2032.89 0.573553 -6.53488 0
M  V30 21231 H 2032.8 -0.855891 -7.51139 0
M  V30 21232 H 2034.07 0.300374 -7.78921 0
M  V30 21233 N 2038.3 1.40971 -0.704618 0
M  V30 21234 C 2039.54 2.02942 -0.243703 0
M  V30 21235 C 2039.9 1.54632 1.13811 0
M  V30 21236 O 2041.1 2.0859 1.69539 0
M  V30 21237 C 2039.38 3.56063 -0.308811 0
M  V30 21238 S 2040.93 4.38733 0.0767306 0
M  V30 21239 H 2037.75 0.704288 -0.0974636 0
M  V30 21240 H 2040.35 1.72264 -0.924405 0
M  V30 21241 H 2039.06 3.88717 -1.31632 0
M  V30 21242 H 2038.59 3.91455 0.390738 0
M  V30 21243 H 2040.6 4.78816 1.30193 0
M  V30 21244 N 2039.78 0.45001 1.51039 0
M  V30 21245 C 2041.02 -0.111202 2.04097 0
M  V30 21246 C 2041.38 -1.38855 1.32602 0
M  V30 21247 O 2042.58 -2.03081 1.76101 0
M  V30 21248 C 2040.85 -0.312081 3.56035 0
M  V30 21249 S 2042.41 -0.834878 4.30784 0
M  V30 21250 H 2039.23 -0.0258967 0.710528 0
M  V30 21251 H 2041.83 0.612321 1.85663 0
M  V30 21252 H 2040.54 0.623717 4.05633 0
M  V30 21253 H 2040.07 -1.06232 3.78785 0
M  V30 21254 H 2042.08 -2.11096 4.49058 0
M  V30 21255 N 2041.26 -1.56548 0.18182 0
M  V30 21256 C 2042.67 -1.83704 -0.3331 0
M  V30 21257 C 2043.02 -1.10203 -1.62326 0
M  V30 21258 O 2042.14 -0.358476 -2.1341 0
M  V30 21259 C 2042.74 -3.33243 -0.611134 0
M  V30 21260 C 2041.3 -3.60857 -1.07046 0
M  V30 21261 C 2040.44 -2.77074 -0.111929 0
M  V30 21262 H 2043.4 -1.53422 0.405878 0
M  V30 21263 H 2043.42 -3.51292 -1.462 0
M  V30 21264 H 2042.93 -3.86711 0.328039 0
M  V30 21265 H 2041.03 -3.1281 -2.02437 0
M  V30 21266 H 2041.14 -4.69129 -0.972357 0
M  V30 21267 H 2039.51 -2.47255 -0.611302 0
M  V30 21268 H 2040.29 -3.33327 0.821452 0
M  V30 21269 N 2042.73 0.0918577 -1.57332 0
M  V30 21270 C 2043.66 1.11191 -2.05326 0
M  V30 21271 C 2044.65 1.41581 -0.942802 0
M  V30 21272 O 2045.83 1.51555 -1.21428 0
M  V30 21273 C 2042.96 2.4309 -2.48041 0
M  V30 21274 C 2041.91 2.271 -3.6278 0
M  V30 21275 C 2041.24 3.64205 -3.91482 0
M  V30 21276 C 2042.54 1.70886 -4.93554 0
M  V30 21277 H 2044.23 0.712608 -2.90796 0
M  V30 21278 H 2041.78 0.341338 -1.39896 0
M  V30 21279 H 2043.73 3.14724 -2.80226 0
M  V30 21280 H 2042.46 2.84962 -1.59575 0
M  V30 21281 H 2041.12 1.57911 -3.30847 0
M  V30 21282 H 2040.76 4.03611 -3.00179 0
M  V30 21283 H 2040.46 3.54352 -4.68731 0
M  V30 21284 H 2041.99 4.37302 -4.26145 0
M  V30 21285 H 2043.4 2.32364 -5.24099 0
M  V30 21286 H 2041.8 1.71783 -5.74987 0
M  V30 21287 H 2042.87 0.668569 -4.80269 0
M  V30 21288 N 2044.21 1.53368 0.362763 0
M  V30 21289 C 2045.46 1.69938 1.10674 0
M  V30 21290 C 2045.79 0.451301 1.88883 0
M  V30 21291 O 2045.07 -0.551452 1.86519 0
M  V30 21292 C 2045.35 2.95101 2.06367 0
M  V30 21293 C 2045.2 4.30073 1.31748 0
M  V30 21294 C 2046.52 3.15872 3.06452 0
M  V30 21295 H 2043.64 0.61838 0.400968 0
M  V30 21296 H 2046.28 1.86011 0.387265 0
M  V30 21297 H 2044.43 2.81529 2.6772 0
M  V30 21298 H 2046.1 4.55462 0.731574 0
M  V30 21299 H 2044.35 4.29356 0.619347 0
M  V30 21300 H 2045.02 5.13789 2.01803 0
M  V30 21301 H 2047.49 3.28649 2.55204 0
M  V30 21302 H 2046.37 4.04878 3.70628 0
M  V30 21303 H 2046.63 2.31281 3.76778 0
M  V30 21304 N 2045.69 -0.62272 1.44776 0
M  V30 21305 C 2046.93 -1.39358 1.49529 0
M  V30 21306 C 2047.29 -1.91574 0.12776 0
M  V30 21307 O 2048.5 -2.68754 0.0499687 0
M  V30 21308 C 2046.77 -2.52165 2.53273 0
M  V30 21309 S 2048.33 -3.40206 2.77138 0
M  V30 21310 H 2045.14 -0.475312 0.528772 0
M  V30 21311 H 2047.75 -0.720074 1.81756 0
M  V30 21312 H 2046.45 -2.12129 3.51325 0
M  V30 21313 H 2045.98 -3.24333 2.22647 0
M  V30 21314 H 2048 -4.49865 2.0937 0
M  V30 21315 N 2047.17 -1.31814 -0.863883 0
M  V30 21316 C 2048.42 -1.21607 -1.61419 0
M  V30 21317 C 2048.74 0.22444 -1.93704 0
M  V30 21318 O 2048.01 1.14677 -1.58827 0
M  V30 21319 H 2046.59 -0.447091 -0.59843 0
M  V30 21320 H 2049.25 -1.65218 -1.03388 0
M  V30 21321 H 2048.35 -1.79213 -2.55517 0
M  V30 21322 N 2048.65 1.07897 -1.14873 0
M  V30 21323 C 2049.59 2.14955 -0.840422 0
M  V30 21324 C 2050.56 1.64839 0.204277 0
M  V30 21325 O 2051.75 1.9066 0.0730523 0
M  V30 21326 C 2048.89 3.43521 -0.329768 0
M  V30 21327 C 2048 4.07456 -1.43538 0
M  V30 21328 C 2047.14 5.23836 -0.881432 0
M  V30 21329 C 2046.18 5.79723 -1.96437 0
M  V30 21330 N 2045.31 6.87441 -1.42721 0
M  V30 21331 H 2050.15 2.40669 -1.75734 0
M  V30 21332 H 2047.69 1.18102 -0.876944 0
M  V30 21333 H 2049.65 4.17197 -0.01545 0
M  V30 21334 H 2048.28 3.18076 0.550246 0
M  V30 21335 H 2047.33 3.31489 -1.86599 0
M  V30 21336 H 2048.64 4.45007 -2.25323 0
M  V30 21337 H 2047.8 6.04473 -0.519325 0
M  V30 21338 H 2046.53 4.87689 -0.0326916 0
M  V30 21339 H 2045.54 4.97736 -2.33536 0
M  V30 21340 H 2046.76 6.17927 -2.81678 0
M  V30 21341 H 2044.71 6.53244 -0.600731 0
M  V30 21342 H 2044.63 7.23845 -2.18137 0
M  V30 21343 H 2045.9 7.71797 -1.09317 0
M  V30 21344 N 2050.12 0.944665 1.2615 0
M  V30 21345 C 2051.09 0.461547 2.24505 0
M  V30 21346 C 2052.09 -0.429277 1.54964 0
M  V30 21347 O 2053.28 -0.227965 1.72702 0
M  V30 21348 C 2050.41 -0.334363 3.39256 0
M  V30 21349 H 2051.6 1.33075 2.68758 0
M  V30 21350 H 2049.16 0.726968 1.38365 0
M  V30 21351 H 2049.89 -1.22167 3.00409 0
M  V30 21352 H 2049.68 0.304588 3.90915 0
M  V30 21353 H 2051.17 -0.662181 4.12317 0
M  V30 21354 N 2051.6 -1.40596 0.712085 0
M  V30 21355 C 2052.85 -2.00181 0.247097 0
M  V30 21356 C 2053.16 -1.57102 -1.16526 0
M  V30 21357 O 2054.37 -2.09361 -1.72858 0
M  V30 21358 C 2052.83 -3.57771 0.390856 0
M  V30 21359 C 2052.43 -4.09825 1.80964 0
M  V30 21360 C 2054.18 -4.24498 -0.0135164 0
M  V30 21361 C 2052.09 -5.59907 1.90417 0
M  V30 21362 H 2051.02 -0.748773 0.0886278 0
M  V30 21363 H 2053.67 -1.60876 0.882669 0
M  V30 21364 H 2052.05 -3.94759 -0.313241 0
M  V30 21365 H 2053.22 -3.84221 2.54383 0
M  V30 21366 H 2051.54 -3.55682 2.16516 0
M  V30 21367 H 2054.13 -5.34688 0.0364444 0
M  V30 21368 H 2054.48 -4.02714 -1.05487 0
M  V30 21369 H 2055.01 -3.92603 0.640898 0
M  V30 21370 H 2051.75 -5.86541 2.92661 0
M  V30 21371 H 2051.27 -5.87385 1.21404 0
M  V30 21372 H 2052.95 -6.24951 1.67466 0
M  V30 21373 N 2053.08 -0.458013 -1.50798 0
M  V30 21374 C 2054.01 0.379016 -2.26044 0
M  V30 21375 C 2055.03 0.96848 -1.3086 0
M  V30 21376 O 2056.21 0.859106 -1.56466 0
M  V30 21377 C 2053.31 1.54427 -3.01671 0
M  V30 21378 C 2052.49 1.06997 -4.24111 0
M  V30 21379 C 2051.55 2.10775 -4.82142 0
M  V30 21380 O 2050.57 1.69367 -5.43418 0
M  V30 21381 N 2051.77 3.43464 -4.67988 0
M  V30 21382 H 2054.54 -0.266 -2.98517 0
M  V30 21383 H 2052.1 -0.288052 -1.59317 0
M  V30 21384 H 2054.09 2.23518 -3.37375 0
M  V30 21385 H 2052.66 2.09423 -2.32079 0
M  V30 21386 H 2051.88 0.205395 -3.93665 0
M  V30 21387 H 2053.17 0.730786 -5.03525 0
M  V30 21388 H 2052.57 3.79824 -4.19226 0
M  V30 21389 H 2051.13 4.0839 -5.07997 0
M  V30 21390 N 2054.56 1.56449 -0.190119 0
M  V30 21391 C 2055.81 1.97438 0.449957 0
M  V30 21392 C 2056.13 1.07682 1.61972 0
M  V30 21393 O 2055.39 0.114859 1.95363 0
M  V30 21394 C 2055.69 3.44349 0.956988 0
M  V30 21395 C 2055.35 4.50792 -0.098868 0
M  V30 21396 C 2054.02 4.79625 -0.389003 0
M  V30 21397 C 2056.37 5.14795 -0.814559 0
M  V30 21398 C 2053.7 5.69754 -1.39989 0
M  V30 21399 C 2056.05 6.06017 -1.81456 0
M  V30 21400 C 2054.71 6.33209 -2.11195 0
M  V30 21401 H 2053.98 0.722476 0.164651 0
M  V30 21402 H 2056.63 1.89352 -0.286039 0
M  V30 21403 H 2054.93 3.49481 1.77116 0
M  V30 21404 H 2056.63 3.73416 1.46155 0
M  V30 21405 H 2053.22 4.2838 0.137435 0
M  V30 21406 H 2057.41 4.92615 -0.603633 0
M  V30 21407 H 2052.66 5.89098 -1.63627 0
M  V30 21408 H 2056.84 6.54672 -2.37438 0
M  V30 21409 H 2054.46 7.02847 -2.89672 0
M  V30 21410 N 2056.04 -0.0835127 1.57379 0
M  V30 21411 C 2057.29 -0.783627 1.85855 0
M  V30 21412 C 2057.6 -1.79328 0.781081 0
M  V30 21413 O 2058.81 -2.54212 0.953327 0
M  V30 21414 C 2057.26 -1.44454 3.29638 0
M  V30 21415 C 2056.87 -0.474058 4.45485 0
M  V30 21416 C 2058.61 -2.1277 3.67327 0
M  V30 21417 C 2056.52 -1.14022 5.80304 0
M  V30 21418 H 2055.45 -0.296407 0.693295 0
M  V30 21419 H 2058.1 -0.0367253 1.83463 0
M  V30 21420 H 2056.48 -2.2393 3.26606 0
M  V30 21421 H 2057.66 0.290043 4.59886 0
M  V30 21422 H 2055.97 0.104026 4.1627 0
M  V30 21423 H 2058.57 -2.63365 4.65342 0
M  V30 21424 H 2058.91 -2.92187 2.96534 0
M  V30 21425 H 2059.45 -1.4014 3.72298 0
M  V30 21426 H 2056.18 -0.386619 6.54359 0
M  V30 21427 H 2055.7 -1.87547 5.69725 0
M  V30 21428 H 2057.38 -1.66341 6.25252 0
M  V30 21429 N 2057.52 -1.53558 -0.354624 0
M  V30 21430 C 2058.79 -1.60886 -1.11243 0
M  V30 21431 C 2059.17 -0.423192 -2.06815 0
M  V30 21432 O 2058.52 0.585579 -2.20869 0
M  V30 21433 C 2058.73 -2.96439 -1.84188 0
M  V30 21434 C 2060.08 -3.51404 -2.38329 0
M  V30 21435 O 2061.1 -2.9854 -1.94299 0
M  V30 21436 O 2059.96 -4.43843 -3.1885 0
M  V30 21437 H 2057.06 -0.650291 -0.510932 0
M  V30 21438 H 2059.6 -1.65902 -0.357007 0
M  V30 21439 H 2058.37 -3.74173 -1.145 0
M  V30 21440 H 2058 -2.94963 -2.66613 0
M  V30 21441 N 2058.99 0.615033 -1.45104 0
M  V30 21442 C 2060.41 0.934983 -1.29345 0
M  V30 21443 C 2060.61 2.00053 -0.241008 0
M  V30 21444 O 2059.67 2.4981 0.367607 0
M  V30 21445 C 2060.98 1.38297 -2.6701 0
M  V30 21446 C 2062.53 1.49759 -2.74848 0
M  V30 21447 C 2063 1.97936 -4.1302 0
M  V30 21448 N 2064.49 2.05181 -4.15277 0
M  V30 21449 C 2065.23 2.43664 -5.19052 0
M  V30 21450 N 2064.72 2.81169 -6.33179 0
M  V30 21451 N 2066.52 2.43938 -5.06409 0
M  V30 21452 H 2058.67 -0.0893888 -2.12212 0
M  V30 21453 H 2060.93 0.0226574 -0.947729 0
M  V30 21454 H 2060.64 0.674238 -3.45177 0
M  V30 21455 H 2060.51 2.35093 -2.94976 0
M  V30 21456 H 2062.9 2.19725 -1.9699 0
M  V30 21457 H 2062.98 0.512965 -2.50604 0
M  V30 21458 H 2062.62 1.28559 -4.9136 0
M  V30 21459 H 2062.55 2.97298 -4.34651 0
M  V30 21460 H 2065.04 1.78817 -3.32916 0
M  V30 21461 H 2065.36 3.09393 -7.08164 0
M  V30 21462 H 2063.7 2.78882 -6.36592 0
M  V30 21463 H 2066.89 2.1404 -4.16299 0
M  V30 21464 H 2067.07 2.73604 -5.87405 0
M  V30 21465 N 2060.47 1.3227 0.85688 0
M  V30 21466 C 2061.42 1.2102 1.96527 0
M  V30 21467 C 2062.39 0.0928848 1.6584 0
M  V30 21468 O 2063.57 0.268043 1.88908 0
M  V30 21469 C 2060.71 0.936943 3.32138 0
M  V30 21470 C 2059.83 2.13883 3.75337 0
M  V30 21471 C 2058.96 1.80125 4.99728 0
M  V30 21472 C 2058 2.96647 5.35413 0
M  V30 21473 N 2057.14 2.62997 6.50982 0
M  V30 21474 H 2061.98 2.15827 2.05481 0
M  V30 21475 H 2059.51 1.07346 1.00575 0
M  V30 21476 H 2061.47 0.759018 4.10237 0
M  V30 21477 H 2060.1 0.025663 3.2279 0
M  V30 21478 H 2059.15 2.4271 2.92909 0
M  V30 21479 H 2060.47 3.01052 3.97705 0
M  V30 21480 H 2059.62 1.58871 5.8553 0
M  V30 21481 H 2058.36 0.901662 4.79293 0
M  V30 21482 H 2057.36 3.18535 4.48124 0
M  V30 21483 H 2058.59 3.87335 5.57807 0
M  V30 21484 H 2056.54 1.75576 6.32067 0
M  V30 21485 H 2056.45 3.43696 6.73357 0
M  V30 21486 H 2057.72 2.45168 7.39941 0
M  V30 21487 N 2061.95 -1.07287 1.15444 0
M  V30 21488 C 2063.18 -1.83614 0.953597 0
M  V30 21489 C 2063.59 -1.82111 -0.498116 0
M  V30 21490 O 2062.95 -1.233 -1.34548 0
M  V30 21491 C 2063 -3.30668 1.46086 0
M  V30 21492 O 2062.72 -3.32236 2.85571 0
M  V30 21493 C 2064.22 -4.23761 1.3016 0
M  V30 21494 H 2061.44 -0.57928 0.338638 0
M  V30 21495 H 2063.99 -1.35426 1.53232 0
M  V30 21496 H 2062.14 -3.76203 0.924647 0
M  V30 21497 H 2062.56 -4.24117 3.08585 0
M  V30 21498 H 2064.03 -5.25009 1.70497 0
M  V30 21499 H 2064.51 -4.38511 0.245852 0
M  V30 21500 H 2065.11 -3.84062 1.82692 0
M  V30 21501 N 2063.43 -0.951342 -1.25647 0
M  V30 21502 C 2064.36 -0.426252 -2.25202 0
M  V30 21503 C 2065.37 0.456064 -1.56281 0
M  V30 21504 O 2066.56 0.264871 -1.76524 0
M  V30 21505 C 2063.66 0.405493 -3.36465 0
M  V30 21506 C 2062.83 -0.46305 -4.34942 0
M  V30 21507 C 2061.89 0.309948 -5.25286 0
M  V30 21508 O 2060.92 -0.290524 -5.68458 0
M  V30 21509 N 2062.12 1.60389 -5.57903 0
M  V30 21510 H 2064.89 -1.28213 -2.7089 0
M  V30 21511 H 2062.45 -0.821338 -1.39519 0
M  V30 21512 H 2064.44 0.930256 -3.93863 0
M  V30 21513 H 2063.01 1.16222 -2.90192 0
M  V30 21514 H 2062.23 -1.16894 -3.7647 0
M  V30 21515 H 2063.52 -1.05598 -4.97721 0
M  V30 21516 H 2062.92 2.11372 -5.24727 0
M  V30 21517 H 2061.47 2.07469 -6.179 0
M  V30 21518 N 2064.91 1.40216 -0.719531 0
M  V30 21519 C 2066.15 2.01112 -0.261127 0
M  V30 21520 C 2066.48 1.56933 1.14393 0
M  V30 21521 O 2065.76 0.791168 1.77682 0
M  V30 21522 C 2066.04 3.58438 -0.345592 0
M  V30 21523 C 2065.9 4.12679 -1.78931 0
M  V30 21524 C 2067.21 4.39202 0.280948 0
M  V30 21525 H 2064.33 0.730674 -0.0963582 0
M  V30 21526 H 2066.98 1.66639 -0.912774 0
M  V30 21527 H 2065.13 3.87936 0.209226 0
M  V30 21528 H 2066.8 3.93963 -2.39982 0
M  V30 21529 H 2065.04 3.66819 -2.31574 0
M  V30 21530 H 2065.71 5.21835 -1.79978 0
M  V30 21531 H 2068.19 4.15658 -0.191834 0
M  V30 21532 H 2067.06 5.48566 0.191422 0
M  V30 21533 H 2067.32 4.205 1.36499 0
M  V30 21534 N 2066.38 0.466004 1.50553 0
M  V30 21535 C 2067.8 0.119867 1.59149 0
M  V30 21536 C 2068 -1.37324 1.47459 0
M  V30 21537 O 2067.06 -2.14604 1.33047 0
M  V30 21538 C 2068.37 0.665532 2.93243 0
M  V30 21539 C 2069.92 0.628507 3.06625 0
M  V30 21540 C 2070.39 1.15163 4.43285 0
M  V30 21541 N 2071.88 1.11082 4.49683 0
M  V30 21542 C 2072.62 1.48615 5.53806 0
M  V30 21543 N 2072.11 1.93573 6.65208 0
M  V30 21544 N 2073.91 1.4025 5.44322 0
M  V30 21545 H 2066.06 1.43716 1.56395 0
M  V30 21546 H 2068.32 0.594011 0.73882 0
M  V30 21547 H 2068.03 1.71132 3.07257 0
M  V30 21548 H 2067.9 0.106264 3.7705 0
M  V30 21549 H 2070.29 -0.408356 2.92261 0
M  V30 21550 H 2070.37 1.22452 2.24587 0
M  V30 21551 H 2070.01 2.1871 4.58398 0
M  V30 21552 H 2069.94 0.531882 5.23907 0
M  V30 21553 H 2072.43 0.781025 3.69741 0
M  V30 21554 H 2072.75 2.20373 7.40713 0
M  V30 21555 H 2071.09 1.97521 6.66341 0
M  V30 21556 H 2074.28 1.04972 4.56178 0
M  V30 21557 H 2074.46 1.69827 6.2535 0
M  V30 21558 N 2067.86 -1.56346 0.198413 0
M  V30 21559 C 2069.09 -2.01765 -0.444344 0
M  V30 21560 C 2069.5 -1.0777 -1.55507 0
M  V30 21561 O 2068.84 -0.0753476 -1.83545 0
M  V30 21562 C 2068.9 -3.43574 -1.05816 0
M  V30 21563 C 2068.57 -4.5692 -0.0857655 0
M  V30 21564 C 2069.57 -5.15083 0.706081 0
M  V30 21565 C 2067.25 -5.02293 0.0262794 0
M  V30 21566 C 2069.24 -6.17072 1.5969 0
M  V30 21567 C 2066.93 -6.04125 0.920659 0
M  V30 21568 C 2067.93 -6.61388 1.70453 0
M  V30 21569 O 2067.62 -7.61242 2.58392 0
M  V30 21570 H 2067.35 -0.666052 -0.115545 0
M  V30 21571 H 2069.9 -2.03117 0.305386 0
M  V30 21572 H 2068.13 -3.39219 -1.85654 0
M  V30 21573 H 2069.82 -3.7278 -1.60592 0
M  V30 21574 H 2070.59 -4.80893 0.629841 0
M  V30 21575 H 2066.47 -4.57416 -0.57369 0
M  V30 21576 H 2070.01 -6.61695 2.20919 0
M  V30 21577 H 2065.91 -6.37738 0.998002 0
M  V30 21578 H 2066.68 -7.78674 2.52208 0
M  V30 21579 N 2069.34 0.0751653 -1.57421 0
M  V30 21580 C 2070.57 0.791793 -1.91691 0
M  V30 21581 C 2070.99 1.70496 -0.794522 0
M  V30 21582 O 2070.35 1.79528 0.25284 0
M  V30 21583 C 2070.4 1.5643 -3.24903 0
M  V30 21584 O 2069.5 2.67473 -3.13898 0
M  V30 21585 H 2068.84 0.21624 -0.627803 0
M  V30 21586 H 2071.37 0.0444189 -2.04552 0
M  V30 21587 H 2071.38 1.94427 -3.58695 0
M  V30 21588 H 2070.06 0.894266 -4.06172 0
M  V30 21589 H 2068.63 2.32357 -2.91658 0
M  V30 21590 N 2070.82 1.53744 0.346476 0
M  V30 21591 C 2071.75 1.84512 1.43099 0
M  V30 21592 C 2072.73 0.700026 1.55028 0
M  V30 21593 O 2073.91 0.951666 1.69284 0
M  V30 21594 C 2071.04 2.0521 2.80189 0
M  V30 21595 C 2070 3.21022 2.8307 0
M  V30 21596 C 2069.32 3.27048 4.23018 0
M  V30 21597 C 2070.62 4.59196 2.4887 0
M  V30 21598 H 2072.32 2.75338 1.17599 0
M  V30 21599 H 2069.86 1.32483 0.564283 0
M  V30 21600 H 2071.82 2.25318 3.56103 0
M  V30 21601 H 2070.54 1.11113 3.07118 0
M  V30 21602 H 2069.2 3.00765 2.09609 0
M  V30 21603 H 2068.85 2.30551 4.47052 0
M  V30 21604 H 2068.55 4.0487 4.25857 0
M  V30 21605 H 2070.07 3.49363 5.00777 0
M  V30 21606 H 2071.49 4.79338 3.14496 0
M  V30 21607 H 2069.88 5.39401 2.62996 0
M  V30 21608 H 2070.95 4.63005 1.44064 0
M  V30 21609 N 2072.3 -0.607329 1.45428 0
M  V30 21610 C 2073.57 -1.36669 1.39932 0
M  V30 21611 C 2073.95 -2.10984 0.0700663 0
M  V30 21612 O 2073.3 -2.07907 -0.947984 0
M  V30 21613 C 2073.51 -2.3133 2.61319 0
M  V30 21614 C 2074.86 -2.93928 3.06417 0
M  V30 21615 O 2075.88 -2.4165 2.61694 0
M  V30 21616 O 2074.74 -3.88823 3.8403 0
M  V30 21617 H 2071.84 -0.61283 0.55531 0
M  V30 21618 H 2074.38 -0.630396 1.57557 0
M  V30 21619 H 2073.15 -1.75677 3.49647 0
M  V30 21620 H 2072.78 -3.12338 2.4603 0
M  V30 21621 N 2073.77 -1.32722 -0.849853 0
M  V30 21622 C 2074.71 -1.16395 -1.96284 0
M  V30 21623 C 2075.69 -0.062185 -1.62481 0
M  V30 21624 O 2076.87 -0.222389 -1.87184 0
M  V30 21625 C 2074 -0.782885 -3.29528 0
M  V30 21626 C 2073.04 -1.89059 -3.82308 0
M  V30 21627 S 2073.88 -3.49971 -4.05315 0
M  V30 21628 C 2075.03 -3.13846 -5.41527 0
M  V30 21629 H 2075.26 -2.10613 -2.09832 0
M  V30 21630 H 2072.8 -1.17438 -1.00238 0
M  V30 21631 H 2074.76 -0.56979 -4.06526 0
M  V30 21632 H 2073.42 0.140502 -3.13786 0
M  V30 21633 H 2072.61 -1.57706 -4.78691 0
M  V30 21634 H 2072.21 -2.05978 -3.12169 0
M  V30 21635 H 2074.5 -2.63989 -6.23952 0
M  V30 21636 H 2075.45 -4.09269 -5.77845 0
M  V30 21637 H 2075.85 -2.50737 -5.05758 0
M  V30 21638 N 2075.25 1.06673 -1.16011 0
M  V30 21639 C 2076.18 2.16027 -0.886249 0
M  V30 21640 C 2077.16 1.69289 0.165907 0
M  V30 21641 O 2078.35 1.94191 0.0188181 0
M  V30 21642 C 2075.48 3.45189 -0.382329 0
M  V30 21643 C 2074.43 4.05415 -1.37195 0
M  V30 21644 C 2073.76 5.2974 -0.726594 0
M  V30 21645 C 2075.06 4.44642 -2.74027 0
M  V30 21646 H 2076.75 2.39195 -1.80073 0
M  V30 21647 H 2074.3 1.14957 -0.867232 0
M  V30 21648 H 2076.25 4.21023 -0.17824 0
M  V30 21649 H 2074.98 3.21629 0.567641 0
M  V30 21650 H 2073.63 3.31634 -1.56252 0
M  V30 21651 H 2073.28 5.02475 0.229742 0
M  V30 21652 H 2072.98 5.70993 -1.38709 0
M  V30 21653 H 2074.51 6.08274 -0.532437 0
M  V30 21654 H 2075.92 5.11574 -2.58775 0
M  V30 21655 H 2074.32 4.96868 -3.36515 0
M  V30 21656 H 2075.39 3.55684 -3.29571 0
M  V30 21657 N 2076.73 0.957992 1.25141 0
M  V30 21658 C 2077.98 0.615503 1.93234 0
M  V30 21659 C 2078.31 -0.845811 1.74813 0
M  V30 21660 O 2077.58 -1.60729 1.09528 0
M  V30 21661 C 2077.87 0.979109 3.46533 0
M  V30 21662 C 2077.72 2.4964 3.74165 0
M  V30 21663 C 2079.04 0.506601 4.37175 0
M  V30 21664 H 2076.16 0.225085 0.701787 0
M  V30 21665 H 2078.8 1.19525 1.47695 0
M  V30 21666 H 2076.95 0.485773 3.85451 0
M  V30 21667 H 2078.62 3.06376 3.44865 0
M  V30 21668 H 2076.87 2.93263 3.19655 0
M  V30 21669 H 2077.54 2.70132 4.81386 0
M  V30 21670 H 2080.01 0.929831 4.05578 0
M  V30 21671 H 2078.89 0.789676 5.4319 0
M  V30 21672 H 2079.15 -0.59342 4.38099 0
M  V30 21673 N 2078.21 -1.39832 0.726957 0
M  V30 21674 C 2079.44 -2.04978 0.281383 0
M  V30 21675 C 2079.85 -1.54795 -1.08092 0
M  V30 21676 O 2079.21 -0.709375 -1.68149 0
M  V30 21677 C 2079.26 -3.60526 0.265184 0
M  V30 21678 O 2078.98 -4.0886 1.5737 0
M  V30 21679 C 2080.48 -4.4286 -0.197547 0
M  V30 21680 H 2077.7 -0.659374 0.124366 0
M  V30 21681 H 2080.25 -1.7903 0.988352 0
M  V30 21682 H 2078.4 -3.85403 -0.392835 0
M  V30 21683 H 2078.81 -5.03132 1.48183 0
M  V30 21684 H 2080.29 -5.51775 -0.157727 0
M  V30 21685 H 2080.77 -4.21288 -1.24149 0
M  V30 21686 H 2081.37 -4.23114 0.430611 0
M  V30 21687 N 2079.69 -0.473982 -1.50304 0
M  V30 21688 C 2080.6 0.323933 -2.32353 0
M  V30 21689 C 2081.61 0.993251 -1.42865 0
M  V30 21690 O 2082.79 0.980589 -1.75916 0
M  V30 21691 C 2079.85 1.38999 -3.17616 0
M  V30 21692 C 2078.91 0.736965 -4.22927 0
M  V30 21693 C 2078.15 1.75223 -5.04116 0
M  V30 21694 O 2078.37 2.97908 -4.86423 0
M  V30 21695 O 2077.3 1.32246 -5.87192 0
M  V30 21696 H 2081.13 -0.346913 -3.01712 0
M  V30 21697 H 2078.72 -0.235777 -1.47528 0
M  V30 21698 H 2080.6 2.00742 -3.70514 0
M  V30 21699 H 2079.27 2.04425 -2.50982 0
M  V30 21700 H 2078.18 0.0805047 -3.74013 0
M  V30 21701 H 2079.51 0.125602 -4.9204 0
M  V30 21702 N 2081.16 1.56239 -0.206702 0
M  V30 21703 C 2082.1 2.15555 0.749098 0
M  V30 21704 C 2083.08 1.09559 1.20148 0
M  V30 21705 O 2084.26 1.37735 1.28691 0
M  V30 21706 C 2081.39 2.72383 2.01308 0
M  V30 21707 C 2080.43 3.91073 1.70189 0
M  V30 21708 S 2081.27 5.28875 0.839744 0
M  V30 21709 C 2082.42 5.89132 2.11362 0
M  V30 21710 H 2082.65 2.9629 0.24489 0
M  V30 21711 H 2080.19 1.54398 0.00843775 0
M  V30 21712 H 2082.15 3.05767 2.73892 0
M  V30 21713 H 2080.81 1.91668 2.48841 0
M  V30 21714 H 2080 4.29286 2.64064 0
M  V30 21715 H 2079.6 3.58759 1.05679 0
M  V30 21716 H 2081.89 6.04202 3.06507 0
M  V30 21717 H 2082.84 6.85476 1.77563 0
M  V30 21718 H 2083.24 5.17835 2.24738 0
M  V30 21719 N 2082.64 -0.0668159 1.57458 0
M  V30 21720 C 2083.89 -0.765025 1.87493 0
M  V30 21721 C 2084.22 -1.77326 0.799106 0
M  V30 21722 O 2083.47 -1.9463 -0.204353 0
M  V30 21723 C 2083.77 -1.5042 3.24204 0
M  V30 21724 C 2083.44 -0.635488 4.46399 0
M  V30 21725 C 2082.1 -0.396101 4.79567 0
M  V30 21726 C 2084.45 -0.0334012 5.21189 0
M  V30 21727 C 2081.78 0.454772 5.84935 0
M  V30 21728 C 2084.13 0.804955 6.27458 0
M  V30 21729 C 2082.8 1.05417 6.59123 0
M  V30 21730 H 2082.07 -0.279943 0.686085 0
M  V30 21731 H 2084.71 -0.0256766 1.91483 0
M  V30 21732 H 2083.02 -2.31589 3.16028 0
M  V30 21733 H 2084.71 -2.04932 3.44679 0
M  V30 21734 H 2081.3 -0.832201 4.20443 0
M  V30 21735 H 2085.49 -0.205452 4.95875 0
M  V30 21736 H 2080.74 0.656546 6.07865 0
M  V30 21737 H 2084.92 1.27821 6.84569 0
M  V30 21738 H 2082.55 1.71525 7.40596 0
M  V30 21739 N 2084.12 -1.53926 -0.338317 0
M  V30 21740 C 2085.54 -1.44306 -0.681751 0
M  V30 21741 C 2085.74 -0.604022 -1.92234 0
M  V30 21742 O 2084.79 -0.0970474 -2.52313 0
M  V30 21743 C 2086.11 -2.87854 -0.869513 0
M  V30 21744 C 2087.65 -2.97662 -0.967798 0
M  V30 21745 C 2088.13 -4.42328 -1.18784 0
M  V30 21746 N 2089.62 -4.45877 -1.25492 0
M  V30 21747 C 2090.36 -5.54952 -1.44278 0
M  V30 21748 N 2089.85 -6.74023 -1.60203 0
M  V30 21749 N 2091.64 -5.42574 -1.46868 0
M  V30 21750 H 2083.8 -2.06968 0.477289 0
M  V30 21751 H 2086.06 -0.935793 0.15164 0
M  V30 21752 H 2085.76 -3.51688 -0.0293745 0
M  V30 21753 H 2085.64 -3.33108 -1.76971 0
M  V30 21754 H 2088.03 -2.33965 -1.79845 0
M  V30 21755 H 2088.11 -2.55761 -0.0443848 0
M  V30 21756 H 2087.75 -5.06608 -0.362091 0
M  V30 21757 H 2087.68 -4.81825 -2.1249 0
M  V30 21758 H 2090.17 -3.60076 -1.14688 0
M  V30 21759 H 2090.48 -7.52913 -1.74188 0
M  V30 21760 H 2088.83 -6.76958 -1.57329 0
M  V30 21761 H 2092.02 -4.48507 -1.34012 0
M  V30 21762 H 2092.19 -6.27638 -1.61167 0
M  V30 21763 N 2085.6 0.599608 -1.45748 0
M  V30 21764 C 2086.51 1.73797 -1.57581 0
M  V30 21765 C 2087.53 1.67812 -0.45992 0
M  V30 21766 O 2088.7 1.88024 -0.721718 0
M  V30 21767 C 2085.77 3.10276 -1.54693 0
M  V30 21768 C 2084.83 3.27654 -2.77383 0
M  V30 21769 C 2084.06 4.57622 -2.74623 0
M  V30 21770 O 2084.28 5.40449 -1.82404 0
M  V30 21771 O 2083.22 4.77885 -3.65937 0
M  V30 21772 H 2087.04 1.66764 -2.53818 0
M  V30 21773 H 2084.63 0.764651 -1.28349 0
M  V30 21774 H 2086.51 3.91573 -1.55719 0
M  V30 21775 H 2085.19 3.17783 -0.616105 0
M  V30 21776 H 2084.09 2.45914 -2.81917 0
M  V30 21777 H 2085.43 3.25028 -3.69618 0
M  V30 21778 N 2087.08 1.33171 0.842803 0
M  V30 21779 C 2088.31 1.2725 1.62761 0
M  V30 21780 C 2088.72 -0.159577 1.88526 0
M  V30 21781 O 2088.06 -1.11091 1.46302 0
M  V30 21782 C 2088.12 1.97482 3.00401 0
M  V30 21783 C 2087.78 3.46798 2.97624 0
M  V30 21784 C 2088.78 4.42071 2.73622 0
M  V30 21785 C 2086.47 3.88915 3.17885 0
M  V30 21786 C 2088.46 5.77436 2.69901 0
M  V30 21787 C 2086.15 5.24385 3.1379 0
M  V30 21788 C 2087.15 6.18457 2.89828 0
M  V30 21789 O 2086.83 7.51446 2.85629 0
M  V30 21790 H 2086.57 0.439899 0.513288 0
M  V30 21791 H 2089.12 1.76042 1.05822 0
M  V30 21792 H 2087.35 1.43276 3.59178 0
M  V30 21793 H 2089.04 1.85113 3.61231 0
M  V30 21794 H 2089.8 4.10857 2.57724 0
M  V30 21795 H 2085.68 3.16105 3.35557 0
M  V30 21796 H 2089.23 6.50835 2.51118 0
M  V30 21797 H 2085.12 5.55225 3.29235 0
M  V30 21798 H 2085.89 7.60947 3.01499 0
M  V30 21799 N 2088.56 -1.06056 1.16576 0
M  V30 21800 C 2089.5 -2.15694 0.87056 0
M  V30 21801 C 2090.5 -1.6863 -0.161341 0
M  V30 21802 O 2091.7 -1.79994 -0.0150963 0
M  V30 21803 H 2088.08 -0.704161 0.263934 0
M  V30 21804 H 2090.05 -2.37802 1.80258 0
M  V30 21805 C 2088.8 -3.45498 0.390729 0
M  V30 21806 H 2088.12 -3.82107 1.17619 0
M  V30 21807 H 2089.56 -4.23413 0.222977 0
M  V30 21808 C 2088.02 -3.24928 -0.890131 0
M  V30 21809 O 2088.55 -3.50702 -1.95886 0
M  V30 21810 N 2086.76 -2.7835 -0.834838 0
M  V30 21811 H 2086.3 -2.57576 0.0350662 0
M  V30 21812 H 2086.26 -2.64967 -1.69233 0
M  V30 21813 N 2090.03 -0.964615 -1.24631 0
M  V30 21814 C 2090.98 -0.463395 -2.23241 0
M  V30 21815 C 2091.97 0.452893 -1.54395 0
M  V30 21816 O 2093.16 0.284318 -1.74702 0
M  V30 21817 C 2090.29 0.248095 -3.42402 0
M  V30 21818 C 2089.37 -0.686842 -4.18501 0
M  V30 21819 N 2089.77 -1.82277 -4.71814 0
M  V30 21820 C 2088.06 -0.497011 -4.43222 0
M  V30 21821 C 2088.76 -2.40731 -5.2955 0
M  V30 21822 N 2087.74 -1.69279 -5.16571 0
M  V30 21823 H 2091.54 -1.33017 -2.62076 0
M  V30 21824 H 2089.06 -0.823324 -1.39983 0
M  V30 21825 H 2091.05 0.62437 -4.12198 0
M  V30 21826 H 2089.71 1.11135 -3.05089 0
M  V30 21827 H 2090.72 -2.20439 -4.68644 0
M  V30 21828 H 2087.4 0.322534 -4.16252 0
M  V30 21829 H 2088.79 -3.36573 -5.81522 0
M  V30 21830 N 2091.51 1.39445 -0.734362 0
M  V30 21831 C 2092.93 1.54247 -0.409878 0
M  V30 21832 C 2093.13 1.70155 1.07933 0
M  V30 21833 O 2092.18 1.70169 1.86545 0
M  V30 21834 C 2093.5 2.7605 -1.19234 0
M  V30 21835 C 2095.04 2.89885 -1.1805 0
M  V30 21836 C 2095.52 4.14625 -1.94552 0
M  V30 21837 N 2097.01 4.21663 -1.91715 0
M  V30 21838 C 2097.75 5.1713 -2.47717 0
M  V30 21839 N 2097.24 6.1839 -3.12354 0
M  V30 21840 N 2099.03 5.09342 -2.37754 0
M  V30 21841 H 2091.19 1.27367 -1.69975 0
M  V30 21842 H 2093.45 0.61727 -0.719501 0
M  V30 21843 H 2093.15 2.70636 -2.24609 0
M  V30 21844 H 2093.03 3.68698 -0.796363 0
M  V30 21845 H 2095.42 2.94792 -0.13489 0
M  V30 21846 H 2095.5 1.98302 -1.61585 0
M  V30 21847 H 2095.14 4.10479 -2.99114 0
M  V30 21848 H 2095.07 5.0525 -1.48424 0
M  V30 21849 H 2097.56 3.4913 -1.44625 0
M  V30 21850 H 2097.87 6.87695 -3.52555 0
M  V30 21851 H 2096.22 6.1878 -3.16444 0
M  V30 21852 H 2099.41 4.29169 -1.86901 0
M  V30 21853 H 2099.58 5.83567 -2.81698 0
M  V30 21854 N 2092.99 0.481946 1.5005 0
M  V30 21855 C 2093.94 -0.325422 2.25666 0
M  V30 21856 C 2094.92 -0.952113 1.29706 0
M  V30 21857 O 2096.12 -0.862865 1.54543 0
M  V30 21858 C 2093.24 -1.40052 3.13433 0
M  V30 21859 C 2092.33 -0.781026 4.16846 0
M  V30 21860 N 2092.72 0.105108 5.05691 0
M  V30 21861 C 2091.02 -1.04376 4.33615 0
M  V30 21862 C 2091.72 0.457801 5.79896 0
M  V30 21863 N 2090.7 -0.169673 5.43335 0
M  V30 21864 H 2094.5 0.357033 2.91723 0
M  V30 21865 H 2092.01 0.296785 1.59665 0
M  V30 21866 H 2094.01 -1.9922 3.6622 0
M  V30 21867 H 2092.67 -2.08486 2.48925 0
M  V30 21868 H 2093.68 0.474672 5.1572 0
M  V30 21869 H 2090.36 -1.72227 3.80321 0
M  V30 21870 H 2091.75 1.18162 6.61428 0
M  V30 21871 N 2094.47 -1.56127 0.214985 0
M  V30 21872 C 2095.69 -2.02966 -0.426587 0
M  V30 21873 C 2096.12 -1.0939 -1.53021 0
M  V30 21874 O 2095.48 -0.0808958 -1.81119 0
M  V30 21875 C 2095.52 -3.48091 -0.941527 0
M  V30 21876 O 2094.63 -3.5765 -2.05329 0
M  V30 21877 H 2093.97 -0.656823 -0.097363 0
M  V30 21878 H 2096.5 -2.01893 0.331697 0
M  V30 21879 H 2096.51 -3.88282 -1.25304 0
M  V30 21880 H 2095.18 -4.15685 -0.133737 0
M  V30 21881 H 2093.76 -3.29344 -1.74891 0
M  V30 21882 N 2095.95 0.0584645 -1.57492 0
M  V30 21883 C 2097.19 0.75619 -1.88174 0
M  V30 21884 C 2097.52 1.76546 -0.809018 0
M  V30 21885 O 2096.8 1.93672 0.179286 0
M  V30 21886 C 2097.08 1.45223 -3.29518 0
M  V30 21887 C 2096.94 0.458472 -4.47457 0
M  V30 21888 C 2098.25 2.39381 -3.69303 0
M  V30 21889 H 2095.37 0.27344 -0.684397 0
M  V30 21890 H 2098.02 0.0191997 -1.8999 0
M  V30 21891 H 2096.17 2.08044 -3.28101 0
M  V30 21892 H 2097.84 -0.165547 -4.61003 0
M  V30 21893 H 2096.08 -0.225018 -4.33216 0
M  V30 21894 H 2096.75 0.983384 -5.4317 0
M  V30 21895 H 2099.23 1.86628 -3.719 0
M  V30 21896 H 2098.1 2.85078 -4.69065 0
M  V30 21897 H 2098.36 3.24775 -2.99956 0
M  V30 21898 N 2097.42 1.54103 0.330149 0
M  V30 21899 C 2098.67 1.71653 1.06675 0
M  V30 21900 C 2098.99 0.489514 1.88756 0
M  V30 21901 O 2098.26 -0.496523 1.89503 0
M  V30 21902 H 2096.84 0.63288 0.396827 0
M  V30 21903 H 2099.5 1.91391 0.36818 0
M  V30 21904 H 2098.6 2.59328 1.73653 0
M  V30 21905 N 2098.9 -0.59187 1.46064 0
M  V30 21906 C 2099.87 -1.68357 1.55526 0
M  V30 21907 C 2100.87 -1.54854 0.433247 0
M  V30 21908 O 2102.06 -1.59637 0.697258 0
M  V30 21909 C 2099.19 -3.07729 1.46683 0
M  V30 21910 H 2100.38 -1.61328 2.5281 0
M  V30 21911 H 2097.93 -0.808941 1.33738 0
M  V30 21912 H 2098.67 -3.20321 0.506433 0
M  V30 21913 H 2098.45 -3.18939 2.2808 0
M  V30 21914 H 2099.94 -3.87218 1.5637 0
M  V30 21915 N 2100.38 -1.33616 -0.835729 0
M  V30 21916 C 2101.61 -1.28297 -1.62319 0
M  V30 21917 C 2102.02 0.145496 -1.88239 0
M  V30 21918 O 2101.38 1.08862 -1.46476 0
M  V30 21919 C 2101.43 -2.05863 -2.97158 0
M  V30 21920 O 2101.15 -3.43137 -2.72375 0
M  V30 21921 C 2102.65 -2.07791 -3.91584 0
M  V30 21922 H 2099.87 -0.441872 -0.504966 0
M  V30 21923 H 2102.42 -1.76036 -1.04075 0
M  V30 21924 H 2100.57 -1.61799 -3.51994 0
M  V30 21925 H 2100.99 -3.83078 -3.58262 0
M  V30 21926 H 2102.46 -2.66511 -4.834 0
M  V30 21927 H 2102.94 -1.06897 -4.25993 0
M  V30 21928 H 2103.54 -2.51888 -3.42684 0
M  V30 21929 N 2101.86 1.05436 -1.17136 0
M  V30 21930 C 2102.79 2.15075 -0.909112 0
M  V30 21931 C 2103.77 1.69455 0.147942 0
M  V30 21932 O 2104.95 1.942 -0.00177952 0
M  V30 21933 C 2102.08 3.44764 -0.41892 0
M  V30 21934 C 2101.04 4.03937 -1.41488 0
M  V30 21935 C 2100.36 5.2894 -0.782739 0
M  V30 21936 C 2101.66 4.4171 -2.78728 0
M  V30 21937 H 2103.36 2.37271 -1.826 0
M  V30 21938 H 2100.9 1.14031 -0.879376 0
M  V30 21939 H 2102.86 4.2081 -0.222885 0
M  V30 21940 H 2101.58 3.22213 0.533496 0
M  V30 21941 H 2100.24 3.29958 -1.59761 0
M  V30 21942 H 2099.89 5.0269 0.176435 0
M  V30 21943 H 2099.59 5.6949 -1.44758 0
M  V30 21944 H 2101.11 6.07675 -0.596922 0
M  V30 21945 H 2102.53 5.08801 -2.64187 0
M  V30 21946 H 2100.92 4.93271 -3.41766 0
M  V30 21947 H 2101.99 3.52168 -3.33325 0
M  V30 21948 N 2103.34 0.971211 1.24118 0
M  V30 21949 C 2104.25 0.511904 2.28947 0
M  V30 21950 C 2105.26 -0.428843 1.68633 0
M  V30 21951 O 2106.44 -0.301023 1.99138 0
M  V30 21952 C 2103.5 -0.187222 3.46194 0
M  V30 21953 C 2102.56 0.793786 4.21898 0
M  V30 21954 C 2101.8 0.12793 5.33547 0
M  V30 21955 O 2102.02 -1.08301 5.60024 0
M  V30 21956 O 2100.95 0.821863 5.96263 0
M  V30 21957 H 2104.78 1.38346 2.70359 0
M  V30 21958 H 2102.37 0.738411 1.29876 0
M  V30 21959 H 2104.25 -0.579802 4.17392 0
M  V30 21960 H 2102.92 -1.03369 3.06752 0
M  V30 21961 H 2101.83 1.23689 3.53061 0
M  V30 21962 H 2103.16 1.60877 4.65166 0
M  V30 21963 N 2104.81 -1.39054 0.741747 0
M  V30 21964 C 2105.78 -2.28913 0.114619 0
M  V30 21965 C 2106.78 -1.46629 -0.660038 0
M  V30 21966 O 2107.97 -1.67223 -0.488056 0
M  V30 21967 C 2105.1 -3.3022 -0.846607 0
M  V30 21968 H 2106.29 -2.85875 0.906381 0
M  V30 21969 H 2103.85 -1.47814 0.508001 0
M  V30 21970 H 2104.58 -2.78326 -1.66448 0
M  V30 21971 H 2104.37 -3.90999 -0.293686 0
M  V30 21972 H 2105.86 -3.97443 -1.28176 0
M  V30 21973 N 2106.29 -0.489897 -1.49792 0
M  V30 21974 C 2107.22 0.283966 -2.31767 0
M  V30 21975 C 2108.2 0.972934 -1.39528 0
M  V30 21976 O 2109.39 0.966482 -1.68442 0
M  V30 21977 C 2106.52 1.35538 -3.19761 0
M  V30 21978 C 2105.47 0.786932 -4.20703 0
M  V30 21979 C 2104.8 1.95803 -4.97559 0
M  V30 21980 C 2106.1 -0.214528 -5.21859 0
M  V30 21981 H 2107.79 -0.40025 -2.96713 0
M  V30 21982 H 2105.34 -0.193932 -1.42688 0
M  V30 21983 H 2107.29 1.90438 -3.75914 0
M  V30 21984 H 2106.02 2.06862 -2.52736 0
M  V30 21985 H 2104.67 0.259755 -3.65679 0
M  V30 21986 H 2104.32 2.65871 -4.26992 0
M  V30 21987 H 2104.02 1.58381 -5.65853 0
M  V30 21988 H 2105.55 2.51159 -5.56553 0
M  V30 21989 H 2106.96 0.245954 -5.72772 0
M  V30 21990 H 2105.36 -0.504002 -5.9798 0
M  V30 21991 H 2106.43 -1.13417 -4.71449 0
M  V30 21992 N 2107.77 1.56011 -0.223262 0
M  V30 21993 C 2109.02 1.98348 0.407977 0
M  V30 21994 C 2109.35 1.11094 1.59651 0
M  V30 21995 O 2108.6 0.156272 1.95075 0
M  V30 21996 C 2108.9 3.46302 0.883731 0
M  V30 21997 C 2108.57 4.5048 -0.194465 0
M  V30 21998 C 2107.23 4.78692 -0.490651 0
M  V30 21999 C 2109.58 5.12952 -0.923571 0
M  V30 22000 C 2106.91 5.66657 -1.52043 0
M  V30 22001 C 2109.26 6.02032 -1.9427 0
M  V30 22002 C 2107.92 6.28586 -2.24579 0
M  V30 22003 H 2107.19 0.725806 0.149289 0
M  V30 22004 H 2109.84 1.88702 -0.326139 0
M  V30 22005 H 2108.15 3.53159 1.69664 0
M  V30 22006 H 2109.84 3.76432 1.38202 0
M  V30 22007 H 2106.43 4.28575 0.046538 0
M  V30 22008 H 2110.62 4.91224 -0.707988 0
M  V30 22009 H 2105.87 5.85495 -1.76086 0
M  V30 22010 H 2110.05 6.49489 -2.51272 0
M  V30 22011 H 2107.67 6.96545 -3.04515 0
M  V30 22012 N 2109.25 -0.0501116 1.5752 0
M  V30 22013 C 2110.18 -1.08434 2.01928 0
M  V30 22014 C 2111.19 -1.33718 0.928613 0
M  V30 22015 O 2112.38 -1.31576 1.20623 0
M  V30 22016 C 2109.48 -2.43065 2.36162 0
M  V30 22017 C 2108.66 -2.37433 3.67347 0
M  V30 22018 C 2107.71 -3.54345 3.89007 0
M  V30 22019 O 2106.74 -3.3479 4.60331 0
M  V30 22020 N 2107.94 -4.75475 3.33022 0
M  V30 22021 H 2110.71 -0.705995 2.91266 0
M  V30 22022 H 2108.27 -0.238421 1.60135 0
M  V30 22023 H 2110.26 -3.19959 2.47807 0
M  V30 22024 H 2108.83 -2.72821 1.52603 0
M  V30 22025 H 2108.05 -1.45778 3.66254 0
M  V30 22026 H 2109.34 -2.30792 4.53445 0
M  V30 22027 H 2108.74 -4.94264 2.75171 0
M  V30 22028 H 2107.29 -5.49806 3.50081 0
M  V30 22029 N 2110.73 -1.54276 -0.321972 0
M  V30 22030 C 2111.97 -1.72216 -1.05764 0
M  V30 22031 C 2112.3 -0.499518 -1.88494 0
M  V30 22032 O 2111.57 0.486466 -1.89764 0
M  V30 22033 H 2110.15 -0.634976 -0.393465 0
M  V30 22034 H 2112.81 -1.91583 -0.358025 0
M  V30 22035 H 2111.9 -2.60245 -1.72275 0
M  V30 22036 N 2112.2 0.584116 -1.46376 0
M  V30 22037 C 2113.62 1.16623 -1.45794 0
M  V30 22038 C 2113.97 1.95198 -0.198034 0
M  V30 22039 O 2113.09 2.04801 0.698962 0
M  V30 22040 C 2113.69 2.12162 -2.64145 0
M  V30 22041 C 2112.25 2.657 -2.66609 0
M  V30 22042 C 2111.39 1.41543 -2.38455 0
M  V30 22043 H 2114.34 0.372129 -1.54275 0
M  V30 22044 H 2114.36 2.95601 -2.39583 0
M  V30 22045 H 2113.88 1.54946 -3.55828 0
M  V30 22046 H 2111.98 3.26789 -1.78996 0
M  V30 22047 H 2112.09 3.08531 -3.66532 0
M  V30 22048 H 2110.45 1.71306 -1.88484 0
M  V30 22049 H 2111.24 0.861604 -3.32312 0
M  V30 22050 N 2113.68 1.34058 0.828631 0
M  V30 22051 C 2115.09 1.2341 1.40095 0
M  V30 22052 C 2115.45 -0.142779 1.9568 0
M  V30 22053 O 2114.57 -1.04286 1.89614 0
M  V30 22054 C 2115.17 2.23441 2.54675 0
M  V30 22055 C 2113.72 2.16602 3.07832 0
M  V30 22056 C 2112.87 2.1036 1.80676 0
M  V30 22057 H 2115.82 1.45507 0.633514 0
M  V30 22058 H 2115.84 1.84809 3.32605 0
M  V30 22059 H 2115.36 3.23642 2.1419 0
M  V30 22060 H 2113.46 1.19738 3.52836 0
M  V30 22061 H 2113.57 3.07604 3.6731 0
M  V30 22062 H 2111.93 1.55992 2.01342 0
M  V30 22063 H 2112.72 3.12386 1.42373 0
M  V30 22064 N 2115.16 -1.04814 1.17694 0
M  V30 22065 C 2116.41 -1.78147 0.969105 0
M  V30 22066 C 2116.74 -1.87634 -0.500715 0
M  V30 22067 O 2116.02 -1.37892 -1.37172 0
M  V30 22068 C 2116.3 -3.2183 1.61548 0
M  V30 22069 C 2116.15 -3.20332 3.15765 0
M  V30 22070 C 2117.47 -4.19759 1.32251 0
M  V30 22071 H 2114.59 -0.646701 0.353479 0
M  V30 22072 H 2117.23 -1.22485 1.45249 0
M  V30 22073 H 2115.38 -3.69358 1.20445 0
M  V30 22074 H 2117.05 -2.8085 3.65952 0
M  V30 22075 H 2115.3 -2.58568 3.48318 0
M  V30 22076 H 2115.97 -4.21759 3.56123 0
M  V30 22077 H 2118.44 -3.80743 1.67851 0
M  V30 22078 H 2117.32 -5.18527 1.80057 0
M  V30 22079 H 2117.58 -4.41426 0.244002 0
M  V30 22080 N 2116.64 -0.977779 -1.23601 0
M  V30 22081 C 2117.87 -0.662189 -1.957 0
M  V30 22082 C 2118.28 0.77446 -1.72623 0
M  V30 22083 O 2117.62 1.53247 -1.01297 0
M  V30 22084 C 2117.68 -0.869464 -3.48827 0
M  V30 22085 C 2117.35 -2.28768 -3.95619 0
M  V30 22086 C 2118.34 -3.26617 -4.04497 0
M  V30 22087 C 2116.03 -2.61807 -4.28675 0
M  V30 22088 C 2118.02 -4.55586 -4.45781 0
M  V30 22089 C 2115.71 -3.91 -4.69641 0
M  V30 22090 C 2116.71 -4.87701 -4.7816 0
M  V30 22091 O 2116.4 -6.14587 -5.18206 0
M  V30 22092 H 2116.13 -0.245256 -0.629941 0
M  V30 22093 H 2118.68 -1.31105 -1.58116 0
M  V30 22094 H 2116.91 -0.163432 -3.86354 0
M  V30 22095 H 2118.6 -0.551434 -4.02137 0
M  V30 22096 H 2119.37 -3.02422 -3.79165 0
M  V30 22097 H 2115.25 -1.87252 -4.21257 0
M  V30 22098 H 2118.79 -5.31065 -4.52345 0
M  V30 22099 H 2114.69 -4.14991 -4.94422 0
M  V30 22100 H 2115.45 -6.18301 -5.36326 0
M  V30 22101 N 2118.12 1.38658 -0.749111 0
M  V30 22102 C 2119.53 1.53804 -0.426214 0
M  V30 22103 C 2119.73 1.7129 1.06122 0
M  V30 22104 O 2118.79 1.72138 1.84729 0
M  V30 22105 C 2120.1 2.7477 -1.22155 0
M  V30 22106 C 2121.65 2.88616 -1.21118 0
M  V30 22107 C 2122.13 4.12538 -1.98939 0
M  V30 22108 N 2123.62 4.19606 -1.96176 0
M  V30 22109 C 2124.35 5.14474 -2.53188 0
M  V30 22110 N 2123.85 6.15043 -3.18895 0
M  V30 22111 N 2125.64 5.06792 -2.43143 0
M  V30 22112 H 2117.79 1.25557 -1.71316 0
M  V30 22113 H 2120.05 0.609604 -0.726008 0
M  V30 22114 H 2119.76 2.68239 -2.27466 0
M  V30 22115 H 2119.63 3.67832 -0.835424 0
M  V30 22116 H 2122.02 2.94632 -0.166149 0
M  V30 22117 H 2122.1 1.96577 -1.63679 0
M  V30 22118 H 2121.75 4.07284 -3.03451 0
M  V30 22119 H 2121.68 5.03648 -1.53775 0
M  V30 22120 H 2124.17 3.47577 -1.4832 0
M  V30 22121 H 2124.48 6.83917 -3.59829 0
M  V30 22122 H 2122.83 6.15389 -3.22989 0
M  V30 22123 H 2126.02 4.27162 -1.91442 0
M  V30 22124 H 2126.19 5.80546 -2.87871 0
M  V30 22125 N 2119.6 0.497834 1.49531 0
M  V30 22126 C 2120.51 -0.286926 2.32839 0
M  V30 22127 C 2121.52 -0.970397 1.44427 0
M  V30 22128 O 2122.7 -0.952478 1.77454 0
M  V30 22129 C 2119.76 -1.33928 3.19788 0
M  V30 22130 C 2118.82 -0.669588 4.24046 0
M  V30 22131 C 2118.06 -1.67181 5.0684 0
M  V30 22132 O 2118.28 -2.90132 4.91101 0
M  V30 22133 O 2117.21 -1.22887 5.89222 0
M  V30 22134 H 2121.04 0.394869 3.01122 0
M  V30 22135 H 2118.62 0.259218 1.47134 0
M  V30 22136 H 2120.51 -1.94822 3.73661 0
M  V30 22137 H 2119.18 -2.00407 2.54202 0
M  V30 22138 H 2118.09 -0.0209922 3.74094 0
M  V30 22139 H 2119.42 -0.0473067 4.92177 0
M  V30 22140 N 2121.07 -1.5589 0.231532 0
M  V30 22141 C 2122.32 -1.97737 -0.397859 0
M  V30 22142 C 2122.64 -1.12252 -1.60184 0
M  V30 22143 O 2123.84 -1.44042 -2.30139 0
M  V30 22144 C 2122.3 -3.518 -0.759238 0
M  V30 22145 C 2121.91 -4.46003 0.422484 0
M  V30 22146 C 2123.65 -4.02338 -1.35368 0
M  V30 22147 C 2121.56 -5.91388 0.0381149 0
M  V30 22148 H 2120.49 -0.738433 -0.152423 0
M  V30 22149 H 2123.14 -1.80521 0.329322 0
M  V30 22150 H 2121.52 -3.64654 -1.54412 0
M  V30 22151 H 2122.69 -4.44902 1.19996 0
M  V30 22152 H 2121.01 -4.05863 0.930821 0
M  V30 22153 H 2123.61 -5.08464 -1.65433 0
M  V30 22154 H 2123.95 -3.48776 -2.2729 0
M  V30 22155 H 2124.48 -3.92747 -0.632021 0
M  V30 22156 H 2121.22 -6.48954 0.924083 0
M  V30 22157 H 2120.74 -5.9566 -0.703473 0
M  V30 22158 H 2122.42 -6.45853 -0.385094 0
M  V30 22159 N 2122.55 0.0417572 -1.57545 0
M  V30 22160 C 2123.5 1.04629 -2.05722 0
M  V30 22161 C 2124.47 1.36684 -0.943754 0
M  V30 22162 O 2125.65 1.47239 -1.21348 0
M  V30 22163 C 2122.79 2.34601 -2.53093 0
M  V30 22164 C 2121.91 2.08815 -3.7818 0
M  V30 22165 C 2121.04 3.32567 -4.14214 0
M  V30 22166 C 2120.08 3.02279 -5.32254 0
M  V30 22167 N 2119.22 4.18445 -5.6378 0
M  V30 22168 H 2124.06 0.628491 -2.91297 0
M  V30 22169 H 2121.59 0.298725 -1.44035 0
M  V30 22170 H 2123.55 3.10525 -2.78621 0
M  V30 22171 H 2122.18 2.74127 -1.70453 0
M  V30 22172 H 2121.23 1.23445 -3.59813 0
M  V30 22173 H 2122.55 1.82464 -4.64229 0
M  V30 22174 H 2121.7 4.16867 -4.40802 0
M  V30 22175 H 2120.44 3.6202 -3.26791 0
M  V30 22176 H 2119.44 2.16378 -5.05431 0
M  V30 22177 H 2120.67 2.74116 -6.21319 0
M  V30 22178 H 2118.62 4.47874 -4.79317 0
M  V30 22179 H 2118.53 3.95473 -6.44311 0
M  V30 22180 H 2119.8 5.03656 -5.94938 0
M  V30 22181 N 2124.03 1.54445 0.313786 0
M  V30 22182 C 2125.28 1.72328 1.04814 0
M  V30 22183 C 2125.59 0.509186 1.88856 0
M  V30 22184 O 2126.8 0.569563 2.65459 0
M  V30 22185 C 2125.25 3.04843 1.91309 0
M  V30 22186 C 2124.86 4.33689 1.12331 0
M  V30 22187 C 2126.61 3.32087 2.6442 0
M  V30 22188 C 2124.51 5.5726 1.98028 0
M  V30 22189 H 2123.44 0.642234 0.395033 0
M  V30 22190 H 2126.09 1.80934 0.305823 0
M  V30 22191 H 2124.48 2.90169 2.69477 0
M  V30 22192 H 2125.65 4.59158 0.388648 0
M  V30 22193 H 2123.96 4.13283 0.508577 0
M  V30 22194 H 2126.56 4.21607 3.28864 0
M  V30 22195 H 2126.9 2.50397 3.32577 0
M  V30 22196 H 2127.44 3.47673 1.93308 0
M  V30 22197 H 2124.18 6.41581 1.34364 0
M  V30 22198 H 2123.7 5.35995 2.69201 0
M  V30 22199 H 2125.38 5.94035 2.56382 0
M  V30 22200 N 2125.51 -0.576345 1.46683 0
M  V30 22201 C 2126.73 -1.36505 1.56145 0
M  V30 22202 C 2127.16 -1.86975 0.20539 0
M  V30 22203 O 2126.52 -1.6192 -0.815566 0
M  V30 22204 C 2126.56 -2.52417 2.57523 0
M  V30 22205 O 2125.67 -3.54056 2.11467 0
M  V30 22206 H 2125.01 -0.406262 0.525211 0
M  V30 22207 H 2127.54 -0.698466 1.92309 0
M  V30 22208 H 2127.55 -2.99248 2.77335 0
M  V30 22209 H 2126.22 -2.15036 3.55995 0
M  V30 22210 H 2124.8 -3.13661 2.01671 0
M  V30 22211 N 2126.99 -1.34495 -0.82151 0
M  V30 22212 C 2128.23 -1.27119 -1.58014 0
M  V30 22213 C 2128.56 0.158163 -1.93555 0
M  V30 22214 O 2127.84 1.10389 -1.60139 0
M  V30 22215 C 2128.12 -2.16338 -2.87871 0
M  V30 22216 C 2127.98 -3.67818 -2.58902 0
M  V30 22217 C 2129.29 -2.04971 -3.89455 0
M  V30 22218 H 2126.41 -0.463115 -0.573318 0
M  V30 22219 H 2129.06 -1.6476 -0.946264 0
M  V30 22220 H 2127.21 -1.84367 -3.41966 0
M  V30 22221 H 2128.88 -4.10161 -2.11106 0
M  V30 22222 H 2127.12 -3.88837 -1.92324 0
M  V30 22223 H 2127.79 -4.25612 -3.51509 0
M  V30 22224 H 2130.27 -2.33044 -3.44717 0
M  V30 22225 H 2129.14 -2.6962 -4.78118 0
M  V30 22226 H 2129.4 -1.02711 -4.30003 0
M  V30 22227 N 2128.46 1.04188 -1.18248 0
M  V30 22228 C 2129.43 2.10339 -0.910507 0
M  V30 22229 C 2130.43 1.60466 0.103607 0
M  V30 22230 O 2131.62 1.73717 -0.129699 0
M  V30 22231 C 2128.75 3.38931 -0.36584 0
M  V30 22232 H 2129.94 2.359 -1.85179 0
M  V30 22233 H 2127.5 1.20593 -0.994332 0
M  V30 22234 H 2128.23 3.19033 0.582115 0
M  V30 22235 H 2128.02 3.76446 -1.09686 0
M  V30 22236 H 2129.51 4.17148 -0.194209 0
M  V30 22237 N 2129.94 0.98432 1.23081 0
M  V30 22238 C 2131.35 0.691779 1.73411 0
M  V30 22239 C 2131.7 -0.791814 1.79513 0
M  V30 22240 O 2130.83 -1.61921 1.43563 0
M  V30 22241 C 2131.42 1.24906 3.14935 0
M  V30 22242 C 2129.98 1.00608 3.62705 0
M  V30 22243 C 2129.13 1.37443 2.40842 0
M  V30 22244 H 2132.08 1.1577 1.08549 0
M  V30 22245 H 2132.1 0.623401 3.75358 0
M  V30 22246 H 2131.61 2.32884 3.10462 0
M  V30 22247 H 2129.72 -0.0574556 3.72556 0
M  V30 22248 H 2129.83 1.66341 4.49296 0
M  V30 22249 H 2128.19 0.792926 2.42043 0
M  V30 22250 H 2128.98 2.46407 2.39037 0
M  V30 22251 N 2131.42 -1.38259 0.756453 0
M  V30 22252 C 2132.33 -2.34224 0.132796 0
M  V30 22253 C 2133.35 -1.59415 -0.697351 0
M  V30 22254 O 2134.52 -1.91592 -0.620838 0
M  V30 22255 C 2131.59 -3.38542 -0.747682 0
M  V30 22256 C 2130.65 -4.2919 0.097166 0
M  V30 22257 C 2129.88 -5.28526 -0.741383 0
M  V30 22258 O 2130.1 -5.34959 -1.97926 0
M  V30 22259 O 2129.04 -6.01691 -0.158669 0
M  V30 22260 H 2132.86 -2.89257 0.925409 0
M  V30 22261 H 2130.45 -1.40155 0.517388 0
M  V30 22262 H 2132.33 -4.02409 -1.25081 0
M  V30 22263 H 2131.01 -2.8586 -1.51874 0
M  V30 22264 H 2129.91 -3.68475 0.646311 0
M  V30 22265 H 2131.25 -4.85135 0.830947 0
M  V30 22266 N 2132.9 -0.505757 -1.49264 0
M  V30 22267 C 2134.13 0.0337401 -2.06872 0
M  V30 22268 C 2134.54 1.30384 -1.36548 0
M  V30 22269 O 2133.9 1.76984 -0.4453 0
M  V30 22270 C 2133.95 0.286399 -3.60364 0
M  V30 22271 O 2133.67 -0.933356 -4.28042 0
M  V30 22272 C 2135.17 0.869003 -4.34699 0
M  V30 22273 H 2132.39 -0.022603 -0.670619 0
M  V30 22274 H 2134.94 -0.704475 -1.91983 0
M  V30 22275 H 2133.09 0.974605 -3.7494 0
M  V30 22276 H 2133.5 -0.699127 -5.1982 0
M  V30 22277 H 2134.98 0.995347 -5.42952 0
M  V30 22278 H 2135.46 1.86798 -3.97496 0
M  V30 22279 H 2136.06 0.218118 -4.2474 0
M  V30 22280 N 2134.38 1.55765 -0.239796 0
M  V30 22281 C 2135.79 1.84814 0.264689 0
M  V30 22282 C 2136.14 1.16151 1.58124 0
M  V30 22283 O 2135.26 0.437435 2.11933 0
M  V30 22284 C 2135.86 3.35281 0.487032 0
M  V30 22285 C 2134.42 3.64582 0.935793 0
M  V30 22286 C 2133.56 2.77299 0.00901728 0
M  V30 22287 H 2136.52 1.5181 -0.46254 0
M  V30 22288 H 2136.54 3.56476 1.33061 0
M  V30 22289 H 2136.05 3.85227 -0.471338 0
M  V30 22290 H 2134.15 3.20108 1.90688 0
M  V30 22291 H 2134.26 4.72415 0.797573 0
M  V30 22292 H 2132.63 2.49354 0.519113 0
M  V30 22293 H 2133.41 3.30049 -0.944598 0
M  V30 22294 N 2135.85 -0.0334016 1.57565 0
M  V30 22295 C 2137.27 -0.580549 1.77444 0
M  V30 22296 C 2137.62 -1.7584 0.870324 0
M  V30 22297 O 2136.74 -2.16305 0.0640468 0
M  V30 22298 C 2137.34 -1.05995 3.21793 0
M  V30 22299 C 2135.9 -1.55265 3.42885 0
M  V30 22300 C 2135.04 -0.488796 2.72958 0
M  V30 22301 H 2137.99 0.192826 1.57524 0
M  V30 22302 H 2138.01 -1.92748 3.28068 0
M  V30 22303 H 2137.53 -0.202479 3.87571 0
M  V30 22304 H 2135.63 -2.43211 2.82275 0
M  V30 22305 H 2135.74 -1.60314 4.51482 0
M  V30 22306 H 2134.1 -0.942831 2.36607 0
M  V30 22307 H 2134.89 0.359136 3.41416 0
M  V30 22308 N 2137.33 -1.54609 -0.305591 0
M  V30 22309 C 2138.74 -1.64719 -0.878888 0
M  V30 22310 C 2139.09 -0.552868 -1.88249 0
M  V30 22311 O 2138.22 0.311274 -2.1415 0
M  V30 22312 C 2138.81 -2.98593 -1.60087 0
M  V30 22313 C 2137.37 -3.10839 -2.12264 0
M  V30 22314 C 2136.52 -2.6038 -0.953822 0
M  V30 22315 H 2139.47 -1.58484 -0.0827074 0
M  V30 22316 H 2139.49 -2.89759 -2.46617 0
M  V30 22317 H 2139 -3.78219 -0.870185 0
M  V30 22318 H 2137.11 -2.35924 -2.88394 0
M  V30 22319 H 2137.22 -4.16924 -2.36031 0
M  V30 22320 H 2135.58 -2.16719 -1.33809 0
M  V30 22321 H 2136.37 -3.4248 -0.237166 0
M  V30 22322 N 2138.81 0.568558 -1.46987 0
M  V30 22323 C 2140.22 1.1507 -1.47023 0
M  V30 22324 C 2140.57 1.94977 -0.218726 0
M  V30 22325 O 2139.7 2.05531 0.677201 0
M  V30 22326 C 2140.29 2.09348 -2.66381 0
M  V30 22327 C 2138.85 2.62857 -2.69413 0
M  V30 22328 C 2138 1.39006 -2.39943 0
M  V30 22329 H 2140.95 0.355745 -1.54661 0
M  V30 22330 H 2140.97 2.93044 -2.42705 0
M  V30 22331 H 2140.48 1.51163 -3.57451 0
M  V30 22332 H 2138.58 3.24872 -1.82452 0
M  V30 22333 H 2138.7 3.04626 -3.69784 0
M  V30 22334 H 2137.06 1.69297 -1.90291 0
M  V30 22335 H 2137.84 0.826309 -3.33207 0
M  V30 22336 N 2140.29 1.34929 0.814366 0
M  V30 22337 C 2141.25 1.27093 1.90736 0
M  V30 22338 C 2142.25 0.184145 1.59742 0
M  V30 22339 O 2143.44 0.437337 1.68621 0
M  V30 22340 C 2140.57 0.964254 3.26979 0
M  V30 22341 H 2141.77 2.24271 1.99105 0
M  V30 22342 H 2139.32 1.19341 1.00933 0
M  V30 22343 H 2140.05 -0.0039895 3.243 0
M  V30 22344 H 2139.84 1.75045 3.50859 0
M  V30 22345 H 2141.33 0.934826 4.07002 0
M  V30 22346 N 2141.77 -1.0356 1.18799 0
M  V30 22347 C 2143.02 -1.76246 0.980824 0
M  V30 22348 C 2143.33 -1.89365 -0.489935 0
M  V30 22349 O 2144.53 -2.58955 -0.815746 0
M  V30 22350 C 2142.99 -3.16901 1.70592 0
M  V30 22351 C 2142.6 -3.11859 3.21633 0
M  V30 22352 C 2144.34 -3.9393 1.58175 0
M  V30 22353 C 2142.25 -4.47404 3.8676 0
M  V30 22354 H 2141.18 -0.660673 0.363355 0
M  V30 22355 H 2143.83 -1.15949 1.42225 0
M  V30 22356 H 2142.21 -3.77625 1.19228 0
M  V30 22357 H 2143.39 -2.60556 3.80062 0
M  V30 22358 H 2141.7 -2.48328 3.34249 0
M  V30 22359 H 2144.3 -4.94177 2.0419 0
M  V30 22360 H 2144.64 -4.1285 0.534821 0
M  V30 22361 H 2145.17 -3.39792 2.06848 0
M  V30 22362 H 2141.91 -4.33688 4.91523 0
M  V30 22363 H 2141.43 -4.9879 3.3312 0
M  V30 22364 H 2143.11 -5.16306 3.89919 0
M  V30 22365 N 2143.25 -0.990834 -1.22557 0
M  V30 22366 C 2144.21 -0.544553 -2.22637 0
M  V30 22367 C 2145.21 0.371467 -1.56451 0
M  V30 22368 O 2146.4 0.163711 -1.73429 0
M  V30 22369 C 2143.53 0.20822 -3.40264 0
M  V30 22370 H 2144.72 -1.42959 -2.63634 0
M  V30 22371 H 2142.28 -0.77782 -1.35572 0
M  V30 22372 H 2143.01 1.10933 -3.04737 0
M  V30 22373 H 2142.8 -0.449464 -3.89515 0
M  V30 22374 H 2144.29 0.508696 -4.1449 0
M  V30 22375 N 2144.72 1.37856 -0.763775 0
M  V30 22376 C 2146 1.94001 -0.249566 0
M  V30 22377 C 2146.38 1.69818 1.254 0
M  V30 22378 O 2145.73 1.04245 2.03335 0
M  V30 22379 C 2145.94 3.43551 -0.614299 0
M  V30 22380 C 2147.29 4.20625 -0.579627 0
M  V30 22381 O 2148.31 3.51878 -0.553206 0
M  V30 22382 O 2147.17 5.43201 -0.599606 0
M  V30 22383 H 2144.26 0.825148 -0.055317 0
M  V30 22384 H 2146.81 1.4719 -0.844588 0
M  V30 22385 H 2145.58 3.54703 -1.65231 0
M  V30 22386 H 2145.2 3.97599 0.00819535 0
M  V30 22387 N 2146.2 0.513665 1.48994 0
M  V30 22388 C 2147.13 -0.247058 2.32189 0
M  V30 22389 C 2148.11 -0.950613 1.41058 0
M  V30 22390 O 2149.3 -0.939562 1.69958 0
M  V30 22391 C 2146.43 -1.30433 3.21876 0
M  V30 22392 C 2145.38 -0.719902 4.21902 0
M  V30 22393 C 2144.71 -1.87863 5.00611 0
M  V30 22394 C 2146.01 0.297524 5.21452 0
M  V30 22395 H 2147.7 0.447403 2.96038 0
M  V30 22396 H 2145.25 0.216608 1.42362 0
M  V30 22397 H 2147.2 -1.84434 3.78896 0
M  V30 22398 H 2145.92 -2.02815 2.55995 0
M  V30 22399 H 2144.58 -0.201546 3.66046 0
M  V30 22400 H 2144.23 -2.59044 4.31167 0
M  V30 22401 H 2143.93 -1.49359 5.68301 0
M  V30 22402 H 2145.46 -2.42273 5.60478 0
M  V30 22403 H 2146.87 -0.1548 5.73091 0
M  V30 22404 H 2145.27 0.599071 5.97102 0
M  V30 22405 H 2146.34 1.20903 4.69585 0
M  V30 22406 N 2147.68 -1.55636 0.248053 0
M  V30 22407 C 2148.61 -2.2441 -0.645175 0
M  V30 22408 C 2149.59 -1.22477 -1.18039 0
M  V30 22409 O 2150.78 -1.51133 -1.21953 0
M  V30 22410 C 2147.91 -2.94446 -1.84171 0
M  V30 22411 C 2146.86 -4.03076 -1.43922 0
M  V30 22412 C 2146.19 -4.60544 -2.71668 0
M  V30 22413 C 2147.49 -5.18732 -0.609431 0
M  V30 22414 H 2149.18 -2.99314 -0.0716951 0
M  V30 22415 H 2146.73 -1.43962 -0.033043 0
M  V30 22416 H 2148.68 -3.41259 -2.47225 0
M  V30 22417 H 2147.4 -2.17031 -2.44059 0
M  V30 22418 H 2146.06 -3.57034 -0.832012 0
M  V30 22419 H 2145.71 -3.79829 -3.29756 0
M  V30 22420 H 2145.41 -5.33876 -2.4546 0
M  V30 22421 H 2146.93 -5.10091 -3.35618 0
M  V30 22422 H 2148.35 -5.61764 -1.1443 0
M  V30 22423 H 2146.74 -5.9846 -0.443361 0
M  V30 22424 H 2147.81 -4.83424 0.378087 0
M  V30 22425 N 2149.16 0.0250451 -1.5758 0
M  V30 22426 C 2150.1 1.02441 -2.0682 0
M  V30 22427 C 2151.07 1.35675 -0.958198 0
M  V30 22428 O 2152.26 1.45944 -1.22903 0
M  V30 22429 C 2149.4 2.31904 -2.55567 0
M  V30 22430 C 2148.51 2.04792 -3.80374 0
M  V30 22431 C 2147.65 3.28155 -4.17718 0
M  V30 22432 C 2146.69 2.96616 -5.3543 0
M  V30 22433 N 2145.82 4.12442 -5.68187 0
M  V30 22434 H 2150.66 0.59756 -2.91947 0
M  V30 22435 H 2148.2 0.283432 -1.44344 0
M  V30 22436 H 2150.16 3.07553 -2.81899 0
M  V30 22437 H 2148.79 2.72304 -1.73351 0
M  V30 22438 H 2147.84 1.19622 -3.61102 0
M  V30 22439 H 2149.15 1.7753 -4.66138 0
M  V30 22440 H 2148.31 4.12169 -4.45199 0
M  V30 22441 H 2147.05 3.58534 -3.30612 0
M  V30 22442 H 2146.05 2.11005 -5.07698 0
M  V30 22443 H 2147.28 2.67511 -6.24191 0
M  V30 22444 H 2145.22 4.42765 -4.84041 0
M  V30 22445 H 2145.14 3.88617 -6.4847 0
M  V30 22446 H 2146.41 4.97317 -6.00246 0
M  V30 22447 N 2150.64 1.54769 0.297388 0
M  V30 22448 C 2151.86 1.78543 1.05533 0
M  V30 22449 C 2152.29 0.54501 1.80031 0
M  V30 22450 O 2151.64 -0.504585 1.74137 0
M  V30 22451 C 2151.69 2.99469 2.00874 0
M  V30 22452 O 2150.8 2.72847 3.09238 0
M  V30 22453 H 2150.14 0.590843 0.302985 0
M  V30 22454 H 2152.67 2.0186 0.333711 0
M  V30 22455 H 2152.68 3.27538 2.43275 0
M  V30 22456 H 2151.35 3.8941 1.46058 0
M  V30 22457 H 2149.93 2.55805 2.71327 0
M  V30 22458 N 2152.11 -0.560755 1.47286 0
M  V30 22459 C 2153.36 -1.32004 1.53957 0
M  V30 22460 C 2153.69 -1.9317 0.199705 0
M  V30 22461 O 2152.97 -1.77676 -0.791288 0
M  V30 22462 C 2153.25 -2.43284 2.6549 0
M  V30 22463 C 2153.1 -1.87009 4.09081 0
M  V30 22464 C 2154.42 -3.45228 2.72957 0
M  V30 22465 H 2151.54 -0.478599 0.560457 0
M  V30 22466 H 2154.18 -0.627854 1.79327 0
M  V30 22467 H 2152.33 -3.02327 2.43989 0
M  V30 22468 H 2154.01 -1.32254 4.41935 0
M  V30 22469 H 2152.25 -1.17705 4.17526 0
M  V30 22470 H 2152.92 -2.67438 4.82888 0
M  V30 22471 H 2155.4 -2.96099 2.92344 0
M  V30 22472 H 2154.27 -4.20522 3.52778 0
M  V30 22473 H 2154.53 -4.03854 1.79874 0
M  V30 22474 N 2153.59 -1.35359 -0.807199 0
M  V30 22475 C 2154.87 -1.19163 -1.55111 0
M  V30 22476 C 2155.25 0.22949 -2.09849 0
M  V30 22477 O 2154.6 1.23292 -1.92383 0
M  V30 22478 C 2154.81 -2.25917 -2.66012 0
M  V30 22479 C 2156.15 -2.61693 -3.34368 0
M  V30 22480 O 2157.18 -2.24826 -2.76282 0
M  V30 22481 O 2156.04 -3.25083 -4.39299 0
M  V30 22482 H 2153.13 -0.462906 -0.685308 0
M  V30 22483 H 2155.68 -1.47039 -0.847213 0
M  V30 22484 H 2154.45 -3.21238 -2.23432 0
M  V30 22485 H 2154.07 -1.99307 -3.44038 0
M  V30 22486 N 2155.07 1.02928 -1.19346 0
M  V30 22487 C 2156.29 1.80485 -1.02175 0
M  V30 22488 C 2156.72 1.83238 0.424925 0
M  V30 22489 O 2156.08 1.25809 1.30545 0
M  V30 22490 C 2156.13 3.23415 -1.59483 0
M  V30 22491 O 2155.23 4.04087 -0.823877 0
M  V30 22492 H 2154.57 0.557177 -0.361178 0
M  V30 22493 H 2157.1 1.29551 -1.5836 0
M  V30 22494 H 2157.11 3.74164 -1.62681 0
M  V30 22495 H 2155.79 3.20727 -2.64777 0
M  V30 22496 H 2154.36 3.62726 -0.865114 0
M  V30 22497 N 2156.55 0.997319 1.2203 0
M  V30 22498 C 2157.46 0.560352 2.2781 0
M  V30 22499 C 2158.47 -0.392977 1.69504 0
M  V30 22500 O 2159.65 -0.258715 1.99731 0
M  V30 22501 C 2156.71 -0.113747 3.46513 0
M  V30 22502 C 2155.78 0.883099 4.20119 0
M  V30 22503 C 2155.01 0.241074 5.33155 0
M  V30 22504 O 2155.23 -0.963972 5.62195 0
M  V30 22505 O 2154.17 0.948154 5.94385 0
M  V30 22506 H 2157.99 1.44049 2.67364 0
M  V30 22507 H 2155.58 0.765793 1.28281 0
M  V30 22508 H 2157.46 -0.491137 4.18528 0
M  V30 22509 H 2156.13 -0.968387 3.08875 0
M  V30 22510 H 2155.04 1.3115 3.50358 0
M  V30 22511 H 2156.37 1.70708 4.61649 0
M  V30 22512 N 2158.03 -1.37449 0.771075 0
M  V30 22513 C 2158.99 -2.28619 0.163149 0
M  V30 22514 C 2159.99 -1.47996 -0.628787 0
M  V30 22515 O 2161.18 -1.68221 -0.452475 0
M  V30 22516 C 2158.31 -3.31942 -0.776372 0
M  V30 22517 H 2159.5 -2.83888 0.966816 0
M  V30 22518 H 2157.06 -1.46703 0.53924 0
M  V30 22519 H 2157.79 -2.81794 -1.60507 0
M  V30 22520 H 2157.58 -3.91534 -0.210683 0
M  V30 22521 H 2159.07 -4.00072 -1.19717 0
M  V30 22522 N 2159.5 -0.52156 -1.4872 0
M  V30 22523 C 2160.75 0.0156187 -2.02794 0
M  V30 22524 C 2161.08 1.34729 -1.39863 0
M  V30 22525 O 2160.36 1.86812 -0.541426 0
M  V30 22526 C 2160.64 0.146526 -3.59802 0
M  V30 22527 C 2160.49 -1.20972 -4.33227 0
M  V30 22528 C 2161.81 0.87737 -4.31266 0
M  V30 22529 H 2158.93 0.00420207 -0.736988 0
M  V30 22530 H 2161.57 -0.676958 -1.77531 0
M  V30 22531 H 2159.72 0.736393 -3.81457 0
M  V30 22532 H 2161.4 -1.84005 -4.23013 0
M  V30 22533 H 2159.64 -1.79378 -3.94976 0
M  V30 22534 H 2160.31 -1.07121 -5.41506 0
M  V30 22535 H 2162.79 0.376892 -4.1439 0
M  V30 22536 H 2161.66 0.937846 -5.40829 0
M  V30 22537 H 2161.92 1.92578 -3.97953 0
M  V30 22538 N 2160.98 1.55502 -0.256304 0
M  V30 22539 C 2162.4 1.59297 0.0983236 0
M  V30 22540 C 2162.6 1.27351 1.56154 0
M  V30 22541 O 2161.65 1.02533 2.30745 0
M  V30 22542 C 2162.97 2.9958 -0.259346 0
M  V30 22543 C 2164.52 3.12332 -0.204415 0
M  V30 22544 C 2164.99 4.5485 -0.536252 0
M  V30 22545 N 2166.48 4.60632 -0.487101 0
M  V30 22546 C 2167.22 5.68901 -0.716903 0
M  V30 22547 N 2166.71 6.85393 -1.01033 0
M  V30 22548 N 2168.51 5.58364 -0.646972 0
M  V30 22549 H 2160.66 1.74536 -1.21042 0
M  V30 22550 H 2162.92 0.812935 -0.487689 0
M  V30 22551 H 2162.63 3.27727 -1.27624 0
M  V30 22552 H 2162.5 3.74976 0.409004 0
M  V30 22553 H 2164.89 2.8396 0.803168 0
M  V30 22554 H 2164.97 2.3919 -0.906752 0
M  V30 22555 H 2164.61 4.83944 -1.54143 0
M  V30 22556 H 2164.54 5.26265 0.187668 0
M  V30 22557 H 2167.03 3.76938 -0.269421 0
M  V30 22558 H 2167.35 7.63848 -1.17285 0
M  V30 22559 H 2165.69 6.87055 -1.0479 0
M  V30 22560 H 2168.88 4.66233 -0.417713 0
M  V30 22561 H 2169.05 6.42669 -0.829457 0
M  V30 22562 N 2162.46 -0.0166879 1.57591 0
M  V30 22563 C 2163.37 -1.03011 2.10774 0
M  V30 22564 C 2164.39 -1.38812 1.04915 0
M  V30 22565 O 2165.56 -1.47882 1.36722 0
M  V30 22566 C 2162.63 -2.30839 2.58678 0
M  V30 22567 C 2161.69 -2.01505 3.7907 0
M  V30 22568 C 2160.92 -3.23238 4.2468 0
M  V30 22569 O 2161.14 -4.34347 3.69729 0
M  V30 22570 O 2160.08 -3.08213 5.16999 0
M  V30 22571 H 2163.9 -0.608087 2.9755 0
M  V30 22572 H 2161.49 -0.234465 1.47549 0
M  V30 22573 H 2163.37 -3.05966 2.89763 0
M  V30 22574 H 2162.05 -2.72312 1.75008 0
M  V30 22575 H 2160.95 -1.23907 3.52984 0
M  V30 22576 H 2162.29 -1.64879 4.63762 0
M  V30 22577 N 2163.94 -1.54924 -0.289176 0
M  V30 22578 C 2165.17 -1.78513 -1.04003 0
M  V30 22579 C 2165.58 -0.550557 -1.81012 0
M  V30 22580 O 2164.92 0.489519 -1.77058 0
M  V30 22581 C 2164.98 -2.9476 -2.05808 0
M  V30 22582 C 2164.65 -4.32411 -1.47886 0
M  V30 22583 C 2165.64 -5.12002 -0.902795 0
M  V30 22584 C 2163.33 -4.79037 -1.51092 0
M  V30 22585 C 2165.32 -6.36345 -0.366511 0
M  V30 22586 C 2163.01 -6.0334 -0.970774 0
M  V30 22587 C 2164.01 -6.8183 -0.39955 0
M  V30 22588 O 2163.69 -8.03791 0.132375 0
M  V30 22589 H 2163.43 -0.598816 -0.31368 0
M  V30 22590 H 2165.98 -2.02726 -0.330347 0
M  V30 22591 H 2164.21 -2.66199 -2.8049 0
M  V30 22592 H 2165.9 -3.05817 -2.6689 0
M  V30 22593 H 2166.67 -4.77118 -0.870835 0
M  V30 22594 H 2162.54 -4.17964 -1.94493 0
M  V30 22595 H 2166.09 -6.97554 0.0799946 0
M  V30 22596 H 2161.99 -6.37708 -0.99992 0
M  V30 22597 H 2162.75 -8.18498 0.0201954 0
M  V30 22598 N 2165.42 0.552936 -1.47582 0
M  V30 22599 C 2166.66 1.32065 -1.56007 0
M  V30 22600 C 2167.02 1.90747 -0.219017 0
M  V30 22601 O 2168.22 2.68209 -0.178138 0
M  V30 22602 C 2166.49 2.39794 -2.65016 0
M  V30 22603 S 2168.05 3.26596 -2.93054 0
M  V30 22604 H 2164.87 0.449542 -0.550847 0
M  V30 22605 H 2167.47 0.632535 -1.84984 0
M  V30 22606 H 2166.18 1.95125 -3.61046 0
M  V30 22607 H 2165.71 3.13341 -2.37867 0
M  V30 22608 H 2167.72 4.39364 -2.30595 0
M  V30 22609 N 2166.89 1.35785 0.800009 0
M  V30 22610 C 2167.84 1.29246 1.91217 0
M  V30 22611 C 2168.81 0.16314 1.65297 0
M  V30 22612 O 2170 0.347924 1.87601 0
M  V30 22613 C 2167.14 1.07697 3.27865 0
M  V30 22614 C 2166.25 2.2961 3.65928 0
M  V30 22615 C 2165.38 2.01158 4.91639 0
M  V30 22616 C 2164.42 3.19089 5.22349 0
M  V30 22617 N 2163.56 2.90371 6.39241 0
M  V30 22618 H 2168.4 2.24348 1.96142 0
M  V30 22619 H 2165.94 1.11515 0.959316 0
M  V30 22620 H 2167.9 0.93233 4.06649 0
M  V30 22621 H 2166.53 0.162546 3.2239 0
M  V30 22622 H 2165.58 2.54915 2.82351 0
M  V30 22623 H 2166.89 3.1765 3.84578 0
M  V30 22624 H 2166.04 1.83563 5.78264 0
M  V30 22625 H 2164.78 1.10413 4.75037 0
M  V30 22626 H 2163.79 3.37255 4.34211 0
M  V30 22627 H 2165.01 4.10645 5.40877 0
M  V30 22628 H 2162.96 2.02227 6.24052 0
M  V30 22629 H 2162.88 3.71946 6.58173 0
M  V30 22630 H 2164.14 2.76331 7.28877 0
M  V30 22631 N 2168.37 -1.02294 1.19891 0
M  V30 22632 C 2169.28 -2.14169 0.957533 0
M  V30 22633 C 2170.3 -1.73795 -0.0844739 0
M  V30 22634 O 2171.47 -2.01144 0.101528 0
M  V30 22635 C 2168.54 -3.4299 0.50587 0
M  V30 22636 C 2167.6 -3.97643 1.61797 0
M  V30 22637 C 2166.83 -5.20315 1.18777 0
M  V30 22638 O 2167.06 -5.70375 0.0538032 0
M  V30 22639 O 2165.99 -5.67957 1.99268 0
M  V30 22640 H 2169.82 -2.37398 1.89409 0
M  V30 22641 H 2167.4 -1.12572 0.982234 0
M  V30 22642 H 2169.28 -4.20579 0.26292 0
M  V30 22643 H 2167.96 -3.21192 -0.402182 0
M  V30 22644 H 2166.87 -3.21362 1.91514 0
M  V30 22645 H 2168.2 -4.23817 2.5028 0
M  V30 22646 N 2169.85 -1.00378 -1.21499 0
M  V30 22647 C 2170.8 -0.563153 -2.23824 0
M  V30 22648 C 2171.77 0.410151 -1.60956 0
M  V30 22649 O 2172.95 0.312473 -1.88224 0
M  V30 22650 C 2170.09 0.105277 -3.44939 0
M  V30 22651 C 2169.21 -0.91106 -4.22284 0
M  V30 22652 C 2168.34 -0.215019 -5.30765 0
M  V30 22653 C 2167.38 -1.21899 -5.99839 0
M  V30 22654 N 2166.52 -0.550506 -6.99938 0
M  V30 22655 H 2171.36 -1.44041 -2.60876 0
M  V30 22656 H 2168.89 -0.721302 -1.28202 0
M  V30 22657 H 2170.85 0.509838 -4.14073 0
M  V30 22658 H 2169.48 0.946261 -3.08619 0
M  V30 22659 H 2168.53 -1.43387 -3.52341 0
M  V30 22660 H 2169.85 -1.67513 -4.69831 0
M  V30 22661 H 2169 0.245713 -6.06202 0
M  V30 22662 H 2167.74 0.581469 -4.84221 0
M  V30 22663 H 2166.74 -1.69024 -5.23174 0
M  V30 22664 H 2167.97 -2.01654 -6.48469 0
M  V30 22665 H 2165.91 0.226347 -6.55609 0
M  V30 22666 H 2165.83 -1.25285 -7.45547 0
M  V30 22667 H 2167.1 -0.112938 -7.79418 0
M  V30 22668 N 2171.33 1.37038 -0.778354 0
M  V30 22669 C 2172.58 1.99134 -0.344995 0
M  V30 22670 C 2172.9 1.62093 1.08402 0
M  V30 22671 O 2172.17 0.889547 1.74539 0
M  V30 22672 H 2170.75 0.73654 -0.124572 0
M  V30 22673 H 2173.41 1.67413 -0.997945 0
M  V30 22674 H 2172.51 3.09152 -0.427927 0
M  V30 22675 N 2172.81 0.529439 1.48441 0
M  V30 22676 C 2174.05 0.00325777 2.034 0
M  V30 22677 C 2174.41 -1.32045 1.39935 0
M  V30 22678 O 2173.7 -1.83957 0.535751 0
M  V30 22679 C 2173.9 -0.176478 3.56964 0
M  V30 22680 C 2173.72 1.12826 4.35316 0
M  V30 22681 C 2172.49 1.68798 4.76272 0
M  V30 22682 C 2174.69 2.03873 4.72166 0
M  V30 22683 N 2172.67 2.93566 5.39159 0
M  V30 22684 C 2174.05 3.13218 5.35065 0
M  V30 22685 C 2176.1 2.04206 4.54097 0
M  V30 22686 C 2174.8 4.22959 5.81806 0
M  V30 22687 C 2176.83 3.12941 5.01819 0
M  V30 22688 C 2176.19 4.21004 5.64743 0
M  V30 22689 H 2172.29 0.0426773 0.780835 0
M  V30 22690 H 2174.87 0.710599 1.81269 0
M  V30 22691 H 2173.05 -0.852903 3.7892 0
M  V30 22692 H 2174.78 -0.702218 3.98561 0
M  V30 22693 H 2171.53 1.22944 4.57364 0
M  V30 22694 H 2171.96 3.57087 5.75168 0
M  V30 22695 H 2176.6 1.21954 4.0483 0
M  V30 22696 H 2174.32 5.05989 6.3008 0
M  V30 22697 H 2177.9 3.14253 4.89629 0
M  V30 22698 H 2176.78 5.03756 6.00999 0
M  V30 22699 N 2174.29 -1.55364 0.264547 0
M  V30 22700 C 2175.22 -2.25081 -0.621337 0
M  V30 22701 C 2176.2 -1.23722 -1.16734 0
M  V30 22702 O 2177.38 -1.52418 -1.20343 0
M  V30 22703 C 2174.51 -2.96382 -1.81038 0
M  V30 22704 C 2173.47 -4.0458 -1.39638 0
M  V30 22705 C 2172.79 -4.63399 -2.66768 0
M  V30 22706 C 2174.09 -5.1935 -0.554378 0
M  V30 22707 H 2175.79 -2.99373 -0.0399448 0
M  V30 22708 H 2173.33 -1.43989 -0.0177721 0
M  V30 22709 H 2175.28 -3.43862 -2.43592 0
M  V30 22710 H 2174.01 -2.19608 -2.41744 0
M  V30 22711 H 2172.67 -3.57896 -0.794097 0
M  V30 22712 H 2172.32 -3.83305 -3.25709 0
M  V30 22713 H 2172.02 -5.36449 -2.39784 0
M  V30 22714 H 2173.54 -5.13622 -3.30189 0
M  V30 22715 H 2174.95 -5.62946 -1.08465 0
M  V30 22716 H 2173.35 -5.98897 -0.379861 0
M  V30 22717 H 2174.42 -4.82996 0.42934 0
M  V30 22718 N 2175.76 0.00833021 -1.57598 0
M  V30 22719 C 2177.01 0.695941 -1.90485 0
M  V30 22720 C 2177.34 1.73883 -0.864775 0
M  V30 22721 O 2176.62 1.94144 0.11758 0
M  V30 22722 C 2176.9 1.34667 -3.33971 0
M  V30 22723 C 2176.75 0.315885 -4.48689 0
M  V30 22724 C 2178.07 2.2751 -3.76732 0
M  V30 22725 H 2175.19 0.251528 -0.69275 0
M  V30 22726 H 2177.83 -0.0412539 -1.89955 0
M  V30 22727 H 2175.98 1.975 -3.34553 0
M  V30 22728 H 2177.66 -0.312127 -4.60243 0
M  V30 22729 H 2175.9 -0.362729 -4.32281 0
M  V30 22730 H 2176.57 0.810081 -5.46024 0
M  V30 22731 H 2179.05 1.74702 -3.77649 0
M  V30 22732 H 2177.92 2.70011 -4.77897 0
M  V30 22733 H 2178.18 3.15068 -3.10136 0
M  V30 22734 N 2177.24 1.55075 0.280956 0
M  V30 22735 C 2178.65 1.66097 0.852571 0
M  V30 22736 C 2179 0.582747 1.87346 0
M  V30 22737 O 2178.13 -0.277166 2.14618 0
M  V30 22738 C 2178.72 3.01102 1.55317 0
M  V30 22739 C 2177.28 3.14177 2.07292 0
M  V30 22740 C 2176.43 2.61864 0.912278 0
M  V30 22741 H 2179.38 1.58596 0.0574834 0
M  V30 22742 H 2179.4 2.93646 2.41976 0
M  V30 22743 H 2178.91 3.79555 0.809903 0
M  V30 22744 H 2177.01 2.40482 2.84604 0
M  V30 22745 H 2177.13 4.20627 2.29369 0
M  V30 22746 H 2175.49 2.1882 1.30345 0
M  V30 22747 H 2176.27 3.42814 0.18265 0
M  V30 22748 N 2178.72 -0.545102 1.47873 0
M  V30 22749 C 2179.63 -1.67829 1.63922 0
M  V30 22750 C 2180.65 -1.65989 0.521885 0
M  V30 22751 O 2181.82 -1.85216 0.791005 0
M  V30 22752 C 2178.89 -3.0432 1.66102 0
M  V30 22753 C 2177.95 -3.17134 2.89352 0
M  V30 22754 C 2177.18 -4.47114 2.91419 0
M  V30 22755 O 2177.4 -5.33307 2.02337 0
M  V30 22756 O 2176.34 -4.63974 3.83421 0
M  V30 22757 H 2180.16 -1.57229 2.59832 0
M  V30 22758 H 2177.75 -0.716489 1.31098 0
M  V30 22759 H 2179.63 -3.85524 1.70145 0
M  V30 22760 H 2178.31 -3.15277 0.733623 0
M  V30 22761 H 2177.21 -2.35282 2.90849 0
M  V30 22762 H 2178.55 -3.11086 3.81426 0
M  V30 22763 N 2180.2 -1.36208 -0.792797 0
M  V30 22764 C 2181.45 -1.2958 -1.5457 0
M  V30 22765 C 2181.76 0.123772 -1.95208 0
M  V30 22766 O 2182.97 0.312401 -2.69697 0
M  V30 22767 C 2181.42 -2.27331 -2.79014 0
M  V30 22768 C 2181.03 -3.74707 -2.45558 0
M  V30 22769 C 2182.77 -2.29674 -3.57002 0
M  V30 22770 C 2180.68 -4.64243 -3.66377 0
M  V30 22771 H 2179.61 -0.481506 -0.580231 0
M  V30 22772 H 2182.26 -1.61551 -0.870256 0
M  V30 22773 H 2180.64 -1.88349 -3.4834 0
M  V30 22774 H 2181.82 -4.22404 -1.84151 0
M  V30 22775 H 2180.13 -3.75106 -1.80788 0
M  V30 22776 H 2182.73 -2.93779 -4.46764 0
M  V30 22777 H 2183.07 -1.30432 -3.95339 0
M  V30 22778 H 2183.61 -2.67255 -2.94652 0
M  V30 22779 H 2180.34 -5.64534 -3.33138 0
M  V30 22780 H 2179.86 -4.21264 -4.26963 0
M  V30 22781 H 2181.54 -4.80348 -4.33446 0
M  V30 22782 N 2181.68 1.01656 -1.20431 0
M  V30 22783 C 2182.9 1.79392 -1.04084 0
M  V30 22784 C 2183.33 1.83678 0.405466 0
M  V30 22785 O 2182.68 1.27186 1.29203 0
M  V30 22786 C 2182.73 3.21706 -1.62904 0
M  V30 22787 O 2181.84 4.0319 -0.866689 0
M  V30 22788 H 2181.18 0.553315 -0.367068 0
M  V30 22789 H 2183.71 1.27864 -1.59725 0
M  V30 22790 H 2183.72 3.72418 -1.6664 0
M  V30 22791 H 2182.39 3.17901 -2.68164 0
M  V30 22792 H 2180.97 3.61788 -0.903537 0
M  V30 22793 N 2183.15 1.01021 1.20965 0
M  V30 22794 C 2184.38 0.714661 1.94698 0
M  V30 22795 C 2184.8 -0.717235 1.73889 0
M  V30 22796 O 2184.16 -1.49265 1.02906 0
M  V30 22797 C 2184.21 1.04769 3.45045 0
M  V30 22798 O 2183.31 0.155818 4.12106 0
M  V30 22799 H 2182.65 0.265768 0.608493 0
M  V30 22800 H 2185.18 1.35186 1.53577 0
M  V30 22801 H 2185.19 0.996722 3.95638 0
M  V30 22802 H 2183.87 2.09099 3.59514 0
M  V30 22803 H 2182.45 0.263764 3.71966 0
M  V30 22804 N 2184.63 -1.36623 0.78561 0
M  V30 22805 C 2185.86 -2.036 0.368068 0
M  V30 22806 C 2186.27 -1.5924 -1.01429 0
M  V30 22807 O 2185.63 -0.780055 -1.64989 0
M  V30 22808 C 2185.68 -3.59077 0.417857 0
M  V30 22809 O 2185.4 -4.01817 1.7457 0
M  V30 22810 C 2186.9 -4.43299 -0.00953716 0
M  V30 22811 H 2184.12 -0.653506 0.152221 0
M  V30 22812 H 2186.67 -1.74677 1.0634 0
M  V30 22813 H 2184.82 -3.86722 -0.229019 0
M  V30 22814 H 2185.24 -4.96395 1.69389 0
M  V30 22815 H 2186.71 -5.51947 0.0764418 0
M  V30 22816 H 2187.19 -4.26175 -1.06169 0
M  V30 22817 H 2187.79 -4.20907 0.60968 0
M  V30 22818 N 2186.11 -0.537304 -1.48158 0
M  V30 22819 C 2187.04 0.210088 -2.32553 0
M  V30 22820 C 2188.02 0.928052 -1.42552 0
M  V30 22821 O 2189.21 0.912405 -1.71432 0
M  V30 22822 C 2186.34 1.25296 -3.23911 0
M  V30 22823 C 2185.29 0.65269 -4.22994 0
M  V30 22824 C 2184.62 1.79875 -5.03537 0
M  V30 22825 C 2185.92 -0.380445 -5.20913 0
M  V30 22826 H 2187.61 -0.494444 -2.95289 0
M  V30 22827 H 2185.16 -0.239229 -1.41999 0
M  V30 22828 H 2187.11 1.78383 -3.81782 0
M  V30 22829 H 2185.83 1.98717 -2.59189 0
M  V30 22830 H 2184.49 0.143286 -3.6632 0
M  V30 22831 H 2184.14 2.52152 -4.35234 0
M  V30 22832 H 2183.84 1.40299 -5.70605 0
M  V30 22833 H 2185.36 2.33326 -5.64262 0
M  V30 22834 H 2186.78 0.0636068 -5.73265 0
M  V30 22835 H 2185.17 -0.693989 -5.96074 0
M  V30 22836 H 2186.24 -1.28359 -4.67602 0
M  V30 22837 N 2187.59 1.55221 -0.272782 0
M  V30 22838 C 2188.52 2.19823 0.648896 0
M  V30 22839 C 2189.53 1.18223 1.11925 0
M  V30 22840 O 2190.72 1.44961 1.04156 0
M  V30 22841 C 2187.82 2.80842 1.89687 0
M  V30 22842 C 2187 4.08109 1.5737 0
M  V30 22843 C 2186.05 4.53199 2.6739 0
M  V30 22844 O 2185.08 5.19023 2.33676 0
M  V30 22845 N 2186.28 4.23144 3.97404 0
M  V30 22846 H 2189.05 2.99546 0.0960037 0
M  V30 22847 H 2186.61 1.61628 -0.0937867 0
M  V30 22848 H 2188.6 3.07952 2.62579 0
M  V30 22849 H 2187.17 2.05125 2.35887 0
M  V30 22850 H 2186.39 3.88313 0.67872 0
M  V30 22851 H 2187.68 4.91034 1.33278 0
M  V30 22852 H 2187.08 3.70352 4.27617 0
M  V30 22853 H 2185.63 4.5503 4.66681 0
M  V30 22854 N 2189.07 2.77022e-05 1.576 0
M  V30 22855 C 2190.32 -0.684007 1.89748 0
M  V30 22856 C 2190.63 -1.74935 0.875041 0
M  V30 22857 O 2191.83 -2.48802 1.08674 0
M  V30 22858 C 2190.29 -1.26778 3.36831 0
M  V30 22859 C 2189.9 -0.23725 4.47371 0
M  V30 22860 C 2191.64 -1.93 3.78089 0
M  V30 22861 C 2189.55 -0.831011 5.85532 0
M  V30 22862 H 2188.48 -0.259241 0.708033 0
M  V30 22863 H 2191.13 0.0605762 1.834 0
M  V30 22864 H 2189.51 -2.06303 3.38017 0
M  V30 22865 H 2190.69 0.53341 4.57702 0
M  V30 22866 H 2189 0.324536 4.15133 0
M  V30 22867 H 2191.6 -2.38328 4.78648 0
M  V30 22868 H 2191.94 -2.76058 3.11605 0
M  V30 22869 H 2192.47 -1.20209 3.79203 0
M  V30 22870 H 2189.21 -0.0392145 6.55488 0
M  V30 22871 H 2188.73 -1.57083 5.78865 0
M  V30 22872 H 2190.41 -1.32963 6.3319 0
M  V30 22873 N 2190.54 -1.55222 -0.272728 0
M  V30 22874 C 2191.45 -1.91218 -1.35915 0
M  V30 22875 C 2192.47 -0.809463 -1.54025 0
M  V30 22876 O 2193.65 -1.10855 -1.68146 0
M  V30 22877 C 2190.71 -2.17698 -2.69831 0
M  V30 22878 C 2189.77 -3.41258 -2.60464 0
M  V30 22879 C 2189.01 -3.66465 -3.87994 0
M  V30 22880 O 2189.23 -2.94178 -4.88688 0
M  V30 22881 O 2188.16 -4.59999 -3.88181 0
M  V30 22882 H 2191.99 -2.83701 -1.08385 0
M  V30 22883 H 2189.57 -1.41772 -0.471276 0
M  V30 22884 H 2191.46 -2.36153 -3.49012 0
M  V30 22885 H 2190.13 -1.28397 -2.97146 0
M  V30 22886 H 2189.04 -3.28137 -1.79657 0
M  V30 22887 H 2190.37 -4.30778 -2.38098 0
M  V30 22888 N 2192.02 0.537252 -1.4816 0
M  V30 22889 C 2192.97 1.64253 -1.62141 0
M  V30 22890 C 2193.94 1.59496 -0.463696 0
M  V30 22891 O 2195.12 1.78031 -0.686272 0
M  V30 22892 C 2192.26 3.02534 -1.66033 0
M  V30 22893 C 2191.38 3.17579 -2.9286 0
M  V30 22894 C 2190.51 4.46377 -2.8796 0
M  V30 22895 C 2189.55 4.54925 -4.09524 0
M  V30 22896 N 2188.69 5.75102 -4.02743 0
M  V30 22897 H 2193.53 1.51643 -2.56532 0
M  V30 22898 H 2191.07 0.738391 -1.27225 0
M  V30 22899 H 2193.02 3.82635 -1.66272 0
M  V30 22900 H 2191.65 3.13933 -0.751387 0
M  V30 22901 H 2190.71 2.30779 -3.02399 0
M  V30 22902 H 2192.02 3.19757 -3.82827 0
M  V30 22903 H 2191.17 5.3476 -2.8656 0
M  V30 22904 H 2189.91 4.46709 -1.9571 0
M  V30 22905 H 2188.92 3.6495 -4.11208 0
M  V30 22906 H 2190.14 4.56337 -5.02925 0
M  V30 22907 H 2188.09 5.76345 -3.13309 0
M  V30 22908 H 2188 5.78743 -4.86408 0
M  V30 22909 H 2189.27 6.65792 -4.0539 0
M  V30 22910 N 2193.5 1.36626 0.785562 0
M  V30 22911 C 2194.45 1.27793 1.8882 0
M  V30 22912 C 2195.43 0.168607 1.60014 0
M  V30 22913 O 2196.63 0.401767 1.7238 0
M  V30 22914 C 2193.76 1.07333 3.2609 0
M  V30 22915 C 2192.84 2.22749 3.60893 0
M  V30 22916 N 2193.23 3.48083 3.66976 0
M  V30 22917 C 2191.53 2.14599 3.90977 0
M  V30 22918 C 2192.23 4.24108 3.98129 0
M  V30 22919 N 2191.21 3.53091 4.13313 0
M  V30 22920 H 2195.01 2.22727 1.91755 0
M  V30 22921 H 2192.52 1.29401 0.981288 0
M  V30 22922 H 2194.52 0.990913 4.04952 0
M  V30 22923 H 2193.18 0.133034 3.24427 0
M  V30 22924 H 2194.19 3.82169 3.49525 0
M  V30 22925 H 2190.87 1.28547 3.97218 0
M  V30 22926 H 2192.26 5.32516 4.09727 0
M  V30 22927 N 2194.98 -1.01016 1.20969 0
M  V30 22928 C 2196.22 -1.74973 1.02529 0
M  V30 22929 C 2196.56 -1.89132 -0.440767 0
M  V30 22930 O 2195.83 -1.42186 -1.32715 0
M  V30 22931 C 2196.12 -3.16527 1.71705 0
M  V30 22932 C 2195.97 -3.10124 3.25797 0
M  V30 22933 C 2197.29 -4.15339 1.45539 0
M  V30 22934 H 2194.41 -0.635128 0.373874 0
M  V30 22935 H 2197.05 -1.17802 1.49073 0
M  V30 22936 H 2195.2 -3.65339 1.32135 0
M  V30 22937 H 2196.87 -2.69066 3.74702 0
M  V30 22938 H 2195.11 -2.47356 3.56367 0
M  V30 22939 H 2195.78 -4.10216 3.6936 0
M  V30 22940 H 2198.26 -3.7521 1.79879 0
M  V30 22941 H 2197.14 -5.12537 1.96462 0
M  V30 22942 H 2197.4 -4.40426 0.384315 0
M  V30 22943 N 2196.46 -1.01661 -1.20428 0
M  V30 22944 C 2197.68 -0.724976 -1.94316 0
M  V30 22945 C 2198.11 0.708003 -1.74267 0
M  V30 22946 O 2197.46 1.48717 -1.03696 0
M  V30 22947 C 2197.51 -1.06597 -3.44484 0
M  V30 22948 O 2196.62 -0.177671 -4.12017 0
M  V30 22949 H 2195.96 -0.268991 -0.607075 0
M  V30 22950 H 2198.49 -1.35998 -1.52858 0
M  V30 22951 H 2198.5 -1.01769 -3.95104 0
M  V30 22952 H 2197.17 -2.11003 -3.584 0
M  V30 22953 H 2195.75 -0.283486 -3.71821 0
M  V30 22954 N 2197.93 1.36205 -0.792844 0
M  V30 22955 C 2199.35 1.5237 -0.47493 0
M  V30 22956 C 2199.55 1.7458 1.00619 0
M  V30 22957 O 2198.61 1.77927 1.79159 0
M  V30 22958 C 2199.92 2.70745 -1.30835 0
M  V30 22959 C 2201.47 2.84617 -1.30239 0
M  V30 22960 C 2201.94 4.06 -2.11963 0
M  V30 22961 N 2203.43 4.13152 -2.09427 0
M  V30 22962 C 2204.17 5.06158 -2.69428 0
M  V30 22963 N 2203.66 6.04586 -3.38301 0
M  V30 22964 N 2205.46 4.988 -2.59143 0
M  V30 22965 H 2197.61 1.20043 -1.75224 0
M  V30 22966 H 2199.87 0.586198 -0.745034 0
M  V30 22967 H 2199.58 2.60866 -2.35885 0
M  V30 22968 H 2199.45 3.64988 -0.952024 0
M  V30 22969 H 2201.84 2.93954 -0.259799 0
M  V30 22970 H 2201.92 1.91271 -1.6985 0
M  V30 22971 H 2201.56 3.97423 -3.16255 0
M  V30 22972 H 2201.49 4.985 -1.6972 0
M  V30 22973 H 2203.98 3.42682 -1.59303 0
M  V30 22974 H 2204.3 6.72123 -3.81405 0
M  V30 22975 H 2202.64 6.04801 -3.42404 0
M  V30 22976 H 2205.83 4.20855 -2.04935 0
M  V30 22977 H 2206.01 5.71094 -3.06195 0
M  V30 22978 N 2199.41 0.545154 1.47871 0
M  V30 22979 C 2200.38 -0.198677 2.28337 0
M  V30 22980 C 2201.38 -0.853864 1.36256 0
M  V30 22981 O 2202.57 -0.711578 1.59004 0
M  V30 22982 C 2199.7 -1.2891 3.15587 0
M  V30 22983 H 2200.89 0.507993 2.95566 0
M  V30 22984 H 2198.44 0.301643 1.53362 0
M  V30 22985 H 2199.18 -2.02855 2.53023 0
M  V30 22986 H 2198.96 -0.824241 3.83339 0
M  V30 22987 H 2200.45 -1.81187 3.76246 0
M  V30 22988 N 2200.89 -1.55074 0.28101 0
M  V30 22989 C 2202.14 -1.99725 -0.33408 0
M  V30 22990 C 2202.47 -1.16943 -1.55418 0
M  V30 22991 O 2201.72 -0.228565 -1.94361 0
M  V30 22992 C 2202.02 -3.49343 -0.754595 0
M  V30 22993 C 2201.69 -4.49448 0.361524 0
M  V30 22994 C 2200.35 -4.76541 0.667977 0
M  V30 22995 C 2202.7 -5.09171 1.11331 0
M  V30 22996 C 2200.03 -5.60623 1.72969 0
M  V30 22997 C 2202.38 -5.94407 2.1648 0
M  V30 22998 C 2201.04 -6.19818 2.47753 0
M  V30 22999 H 2200.31 -0.730846 -0.122249 0
M  V30 23000 H 2202.96 -1.87362 0.39595 0
M  V30 23001 H 2201.27 -3.59213 -1.56439 0
M  V30 23002 H 2202.96 -3.81302 -1.24136 0
M  V30 23003 H 2199.55 -4.28452 0.112557 0
M  V30 23004 H 2203.74 -4.88258 0.889815 0
M  V30 23005 H 2198.99 -5.78556 1.97694 0
M  V30 23006 H 2203.17 -6.39715 2.75204 0
M  V30 23007 H 2200.79 -6.84763 3.30157 0
M  V30 23008 N 2202.37 -0.00838561 -1.57598 0
M  V30 23009 C 2203.62 0.673935 -1.90108 0
M  V30 23010 C 2203.93 1.74469 -0.884306 0
M  V30 23011 O 2205.14 2.48222 -1.09992 0
M  V30 23012 C 2203.59 1.24989 -3.37499 0
M  V30 23013 C 2203.2 0.213522 -4.47491 0
M  V30 23014 C 2204.95 1.90992 -3.79107 0
M  V30 23015 C 2202.85 0.799947 -5.85965 0
M  V30 23016 H 2201.78 0.255482 -0.709398 0
M  V30 23017 H 2204.43 -0.0703015 -1.83365 0
M  V30 23018 H 2202.82 2.04507 -3.39106 0
M  V30 23019 H 2203.99 -0.557676 -4.57413 0
M  V30 23020 H 2202.3 -0.346547 -4.14955 0
M  V30 23021 H 2204.9 2.35787 -4.79905 0
M  V30 23022 H 2205.24 2.74401 -3.13065 0
M  V30 23023 H 2205.78 1.18196 -3.79835 0
M  V30 23024 H 2202.52 0.00445186 -6.555 0
M  V30 23025 H 2202.04 1.54011 -5.7969 0
M  V30 23026 H 2203.72 1.29604 -6.33886 0
M  V30 23027 N 2203.85 1.55365 0.264492 0
M  V30 23028 C 2205.09 1.78127 1.00251 0
M  V30 23029 C 2205.45 0.575049 1.83186 0
M  V30 23030 O 2206.65 0.681088 2.60028 0
M  V30 23031 C 2204.92 3.05507 1.85473 0
M  V30 23032 S 2206.48 3.49422 2.65424 0
M  V30 23033 H 2203.3 0.625785 0.337511 0
M  V30 23034 H 2205.9 1.93598 0.272077 0
M  V30 23035 H 2204.61 3.91382 1.23484 0
M  V30 23036 H 2204.14 2.92725 2.62822 0
M  V30 23037 H 2206.15 3.09366 3.87952 0
M  V30 23038 N 2205.33 -0.529387 1.48443 0
M  V30 23039 C 2206.26 -1.6431 1.65905 0
M  V30 23040 C 2207.24 -1.6234 0.507926 0
M  V30 23041 O 2208.42 -1.79526 0.740534 0
M  V30 23042 C 2205.55 -3.02895 1.69917 0
M  V30 23043 C 2204.51 -3.19724 2.84536 0
M  V30 23044 C 2203.83 -4.59377 2.73637 0
M  V30 23045 C 2205.13 -3.02439 4.25826 0
M  V30 23046 H 2206.83 -1.49951 2.59143 0
M  V30 23047 H 2204.37 -0.71996 1.2471 0
M  V30 23048 H 2206.32 -3.80681 1.80721 0
M  V30 23049 H 2205.05 -3.18278 0.73258 0
M  V30 23050 H 2203.71 -2.44356 2.73287 0
M  V30 23051 H 2203.36 -4.71596 1.74946 0
M  V30 23052 H 2203.06 -4.71582 3.50549 0
M  V30 23053 H 2204.58 -5.3926 2.8641 0
M  V30 23054 H 2205.99 -3.70016 4.37905 0
M  V30 23055 H 2204.39 -3.26137 5.03741 0
M  V30 23056 H 2205.46 -1.98859 4.42248 0
M  V30 23057 N 2206.8 -1.37041 -0.778305 0
M  V30 23058 C 2207.74 -1.28143 -1.90032 0
M  V30 23059 C 2208.75 -0.198586 -1.61584 0
M  V30 23060 O 2209.94 -0.454206 -1.72625 0
M  V30 23061 C 2207.04 -0.957025 -3.25107 0
M  V30 23062 C 2206.21 -2.14401 -3.81249 0
M  V30 23063 C 2205.27 -1.79091 -4.94786 0
M  V30 23064 O 2204.3 -2.5131 -5.10717 0
M  V30 23065 N 2205.5 -0.731144 -5.75877 0
M  V30 23066 H 2208.26 -2.24819 -1.98183 0
M  V30 23067 H 2205.82 -1.3058 -0.957106 0
M  V30 23068 H 2207.82 -0.701771 -3.98569 0
M  V30 23069 H 2206.39 -0.0790361 -3.125 0
M  V30 23070 H 2205.61 -2.56141 -2.99642 0
M  V30 23071 H 2206.89 -2.93675 -4.1549 0
M  V30 23072 H 2206.29 -0.131718 -5.65547 0
M  V30 23073 H 2204.85 -0.535736 -6.49595 0
M  V30 23074 N 2208.28 1.00373 -1.21503 0
M  V30 23075 C 2209.24 2.07336 -0.976963 0
M  V30 23076 C 2210.24 1.60714 0.052504 0
M  V30 23077 O 2211.43 1.73216 -0.1849 0
M  V30 23078 C 2208.57 3.37596 -0.473483 0
M  V30 23079 H 2209.76 2.29889 -1.92591 0
M  V30 23080 H 2207.31 1.17369 -1.03219 0
M  V30 23081 H 2208.05 3.20723 0.480323 0
M  V30 23082 H 2207.83 3.72766 -1.21607 0
M  V30 23083 H 2209.32 4.16319 -0.326824 0
M  V30 23084 N 2209.76 1.02298 1.19887 0
M  V30 23085 C 2210.69 0.619214 2.2514 0
M  V30 23086 C 2211.67 -0.368886 1.66052 0
M  V30 23087 O 2212.86 -0.252907 1.92546 0
M  V30 23088 C 2209.99 -0.0368173 3.4728 0
M  V30 23089 C 2208.94 0.872939 4.19003 0
M  V30 23090 C 2208.27 0.0823342 5.34637 0
M  V30 23091 C 2209.57 2.18395 4.74448 0
M  V30 23092 H 2211.26 1.49907 2.59168 0
M  V30 23093 H 2208.81 0.722244 1.24578 0
M  V30 23094 H 2210.76 -0.330884 4.20099 0
M  V30 23095 H 2209.48 -0.951435 3.12434 0
M  V30 23096 H 2208.14 1.15111 3.48059 0
M  V30 23097 H 2207.79 -0.834133 4.96036 0
M  V30 23098 H 2207.49 0.688252 5.83555 0
M  V30 23099 H 2209.01 -0.20513 6.10255 0
M  V30 23100 H 2210.43 1.95182 5.39052 0
M  V30 23101 H 2208.82 2.74128 5.33829 0
M  V30 23102 H 2209.89 2.84263 3.92839 0
M  V30 23103 N 2211.24 -1.35782 0.800057 0
M  V30 23104 C 2212.47 -2.03198 0.389642 0
M  V30 23105 C 2212.88 -1.60307 -0.997347 0
M  V30 23106 O 2212.24 -0.79751 -1.64152 0
M  V30 23107 C 2212.29 -3.58613 0.455918 0
M  V30 23108 O 2212.01 -3.99943 1.78822 0
M  V30 23109 C 2213.51 -4.43284 0.0374812 0
M  V30 23110 H 2210.73 -0.651855 0.159143 0
M  V30 23111 H 2213.27 -1.7354 1.08186 0
M  V30 23112 H 2211.43 -3.86944 -0.187989 0
M  V30 23113 H 2211.84 -4.9457 1.74645 0
M  V30 23114 H 2213.32 -5.51835 0.134979 0
M  V30 23115 H 2213.79 -4.27277 -1.01643 0
M  V30 23116 H 2214.4 -4.20237 0.654289 0
M  V30 23117 N 2212.72 -0.552988 -1.4758 0
M  V30 23118 C 2213.94 -0.0320919 -2.06875 0
M  V30 23119 C 2214.36 1.25974 -1.40627 0
M  V30 23120 O 2213.72 1.75478 -0.50138 0
M  V30 23121 C 2213.77 0.171607 -3.61092 0
M  V30 23122 O 2213.49 -1.06906 -4.24856 0
M  V30 23123 C 2214.99 0.730267 -4.37244 0
M  V30 23124 H 2212.21 -0.0439268 -0.669561 0
M  V30 23125 H 2214.75 -0.765196 -1.89644 0
M  V30 23126 H 2212.91 0.854827 -3.77851 0
M  V30 23127 H 2213.32 -0.86415 -5.17332 0
M  V30 23128 H 2214.8 0.822107 -5.45844 0
M  V30 23129 H 2215.27 1.74057 -4.03238 0
M  V30 23130 H 2215.88 0.0828795 -4.25219 0
M  V30 23131 N 2214.19 1.54923 -0.28923 0
M  V30 23132 C 2215.44 1.999 0.323483 0
M  V30 23133 C 2215.77 1.17765 1.54795 0
M  V30 23134 O 2215.02 0.238869 1.94237 0
M  V30 23135 C 2215.32 3.49738 0.736058 0
M  V30 23136 C 2214.99 4.4925 -0.385354 0
M  V30 23137 C 2213.65 4.7618 -0.69324 0
M  V30 23138 C 2216 5.08573 -1.1403 0
M  V30 23139 C 2213.33 5.59698 -1.7594 0
M  V30 23140 C 2215.68 5.9325 -2.19629 0
M  V30 23141 C 2214.35 6.18496 -2.51037 0
M  V30 23142 H 2213.62 0.731484 0.118371 0
M  V30 23143 H 2216.26 1.87149 -0.40588 0
M  V30 23144 H 2214.57 3.60038 1.54532 0
M  V30 23145 H 2216.27 3.81955 1.22112 0
M  V30 23146 H 2212.86 4.28386 -0.135277 0
M  V30 23147 H 2217.04 4.87779 -0.915696 0
M  V30 23148 H 2212.3 5.77499 -2.0076 0
M  V30 23149 H 2216.47 6.38247 -2.78593 0
M  V30 23150 H 2214.1 6.83002 -3.33784 0
M  V30 23151 N 2215.67 0.0167433 1.57591 0
M  V30 23152 C 2216.92 -0.665548 1.91568 0
M  V30 23153 C 2217.25 -1.72485 0.892329 0
M  V30 23154 O 2216.53 -1.94307 -0.0866785 0
M  V30 23155 C 2216.81 -1.29336 3.36072 0
M  V30 23156 C 2216.66 -0.244462 4.49135 0
M  V30 23157 C 2217.98 -2.21488 3.80304 0
M  V30 23158 H 2215.1 -0.240476 0.696664 0
M  V30 23159 H 2217.74 0.071469 1.89866 0
M  V30 23160 H 2215.89 -1.92153 3.37653 0
M  V30 23161 H 2217.56 0.385309 4.59688 0
M  V30 23162 H 2215.81 0.431455 4.31649 0
M  V30 23163 H 2216.48 -0.723111 5.47243 0
M  V30 23164 H 2218.95 -1.68672 3.8038 0
M  V30 23165 H 2217.83 -2.62374 4.82132 0
M  V30 23166 H 2218.09 -3.10094 3.1511 0
M  V30 23167 N 2217.15 -1.55503 -0.256249 0
M  V30 23168 C 2218.38 -1.81278 -1.00762 0
M  V30 23169 C 2218.8 -0.592551 -1.78523 0
M  V30 23170 O 2218.16 0.458239 -1.75413 0
M  V30 23171 C 2218.21 -3.0469 -1.92864 0
M  V30 23172 O 2217.31 -2.8095 -3.01896 0
M  V30 23173 H 2216.65 -0.598669 -0.287213 0
M  V30 23174 H 2219.18 -2.02674 -0.280074 0
M  V30 23175 H 2219.19 -3.33873 -2.34505 0
M  V30 23176 H 2217.87 -3.93145 -1.35682 0
M  V30 23177 H 2216.44 -2.62909 -2.64449 0
M  V30 23178 N 2218.63 0.521507 -1.48721 0
M  V30 23179 C 2219.87 1.27876 -1.57403 0
M  V30 23180 C 2220.21 1.92573 -0.25085 0
M  V30 23181 O 2219.48 1.79712 0.743902 0
M  V30 23182 C 2219.77 2.36159 -2.71847 0
M  V30 23183 C 2219.62 1.76098 -4.13896 0
M  V30 23184 C 2220.94 3.3787 -2.82014 0
M  V30 23185 H 2218.06 0.463571 -0.572949 0
M  V30 23186 H 2220.7 0.580088 -1.80928 0
M  V30 23187 H 2218.85 2.95752 -2.51919 0
M  V30 23188 H 2220.52 1.20491 -4.45286 0
M  V30 23189 H 2218.76 1.06594 -4.205 0
M  V30 23190 H 2219.43 2.54541 -4.89809 0
M  V30 23191 H 2221.91 2.88244 -3.00091 0
M  V30 23192 H 2220.79 4.11021 -3.63803 0
M  V30 23193 H 2221.05 3.98943 -1.90518 0
M  V30 23194 N 2220.11 1.37452 0.771027 0
M  V30 23195 C 2221.07 1.33097 1.86596 0
M  V30 23196 C 2222.07 0.234873 1.59075 0
M  V30 23197 O 2223.26 0.490762 1.67144 0
M  V30 23198 C 2220.39 1.06779 3.23745 0
M  V30 23199 H 2221.58 2.30492 1.91869 0
M  V30 23200 H 2219.14 1.22491 0.970855 0
M  V30 23201 H 2219.87 0.099186 3.24148 0
M  V30 23202 H 2219.66 1.86118 3.45112 0
M  V30 23203 H 2221.15 1.06384 4.03822 0
M  V30 23204 N 2221.58 -0.997276 1.22033 0
M  V30 23205 C 2222.83 -1.73276 1.04019 0
M  V30 23206 C 2223.15 -1.90285 -0.426222 0
M  V30 23207 O 2222.42 -1.45933 -1.30691 0
M  V30 23208 H 2221 -0.641993 0.381908 0
M  V30 23209 H 2223.67 -1.20135 1.53472 0
M  V30 23210 H 2222.76 -2.72893 1.51446 0
M  V30 23211 N 2223.06 -1.02932 -1.19343 0
M  V30 23212 C 2224.31 -0.721289 -1.88362 0
M  V30 23213 C 2224.62 0.753223 -1.80516 0
M  V30 23214 O 2225.83 1.17432 -2.4479 0
M  V30 23215 C 2224.29 -1.23984 -3.3787 0
M  V30 23216 C 2223.89 -2.74217 -3.54273 0
M  V30 23217 C 2225.64 -1.00782 -4.12363 0
M  V30 23218 C 2223.55 -3.19488 -4.97676 0
M  V30 23219 H 2222.48 -0.26611 -0.70548 0
M  V30 23220 H 2225.13 -1.24368 -1.34926 0
M  V30 23221 H 2223.51 -0.645369 -3.90706 0
M  V30 23222 H 2224.68 -3.39323 -3.11763 0
M  V30 23223 H 2223 -2.95704 -2.93169 0
M  V30 23224 H 2225.59 -1.32133 -5.18117 0
M  V30 23225 H 2225.94 0.0553576 -4.16263 0
M  V30 23226 H 2226.47 -1.56632 -3.65666 0
M  V30 23227 H 2223.21 -4.25137 -4.98938 0
M  V30 23228 H 2222.73 -2.5911 -5.40946 0
M  V30 23229 H 2224.41 -3.12855 -5.66331 0
M  V30 23230 N 2224.54 1.35356 -0.807246 0
M  V30 23231 C 2225.79 1.98003 -0.384411 0
M  V30 23232 C 2226.1 1.64756 1.05427 0
M  V30 23233 O 2227.31 2.20772 1.58025 0
M  V30 23234 C 2225.76 3.54229 -0.636389 0
M  V30 23235 C 2225.37 3.96385 -2.08766 0
M  V30 23236 C 2227.12 4.23583 -0.278943 0
M  V30 23237 C 2225.02 5.45459 -2.28535 0
M  V30 23238 H 2223.95 0.740889 -0.139999 0
M  V30 23239 H 2226.6 1.54414 -0.991396 0
M  V30 23240 H 2224.99 3.95979 0.040556 0
M  V30 23241 H 2226.16 3.65785 -2.80247 0
M  V30 23242 H 2224.48 3.39922 -2.40503 0
M  V30 23243 H 2227.07 5.33166 -0.404693 0
M  V30 23244 H 2227.42 4.09024 0.77494 0
M  V30 23245 H 2227.95 3.87256 -0.909832 0
M  V30 23246 H 2224.69 5.64986 -3.32371 0
M  V30 23247 H 2224.21 5.77626 -1.61579 0
M  V30 23248 H 2225.89 6.1193 -2.1012 0
M  V30 23249 N 2226.02 0.560807 1.47284 0
M  V30 23250 C 2227.25 0.0430001 2.06555 0
M  V30 23251 C 2227.66 -1.25774 1.41342 0
M  V30 23252 O 2227 -1.76616 0.505213 0
M  V30 23253 C 2227.06 -0.219824 3.58827 0
M  V30 23254 C 2226.73 0.992023 4.46103 0
M  V30 23255 C 2227.72 1.89852 4.83996 0
M  V30 23256 C 2225.41 1.20771 4.87565 0
M  V30 23257 C 2227.4 3.00435 5.62154 0
M  V30 23258 C 2225.09 2.31663 5.65487 0
M  V30 23259 C 2226.09 3.21326 6.02693 0
M  V30 23260 O 2225.77 4.30295 6.79045 0
M  V30 23261 H 2225.51 0.0444586 0.674536 0
M  V30 23262 H 2228.06 0.774852 1.90224 0
M  V30 23263 H 2226.29 -1.00603 3.73384 0
M  V30 23264 H 2227.98 -0.683452 4.00105 0
M  V30 23265 H 2228.75 1.74395 4.52561 0
M  V30 23266 H 2224.62 0.518973 4.58069 0
M  V30 23267 H 2228.17 3.70446 5.91114 0
M  V30 23268 H 2224.07 2.47091 5.96336 0
M  V30 23269 H 2224.83 4.28388 6.97443 0
M  V30 23270 N 2227.5 -1.54768 0.297442 0
M  V30 23271 C 2228.75 -1.99247 -0.313634 0
M  V30 23272 C 2229.06 -1.18945 -1.55279 0
M  V30 23273 O 2230.26 -1.53674 -2.23823 0
M  V30 23274 C 2228.72 -3.54704 -0.609345 0
M  V30 23275 C 2228.33 -4.4381 0.61127 0
M  V30 23276 C 2230.07 -4.07717 -1.18181 0
M  V30 23277 C 2227.98 -5.90694 0.288908 0
M  V30 23278 H 2226.91 -0.744233 -0.120966 0
M  V30 23279 H 2229.56 -1.78961 0.405591 0
M  V30 23280 H 2227.94 -3.70876 -1.38807 0
M  V30 23281 H 2229.12 -4.39412 1.38758 0
M  V30 23282 H 2227.43 -4.0155 1.10212 0
M  V30 23283 H 2230.03 -5.15023 -1.43718 0
M  V30 23284 H 2230.37 -3.58102 -2.12293 0
M  V30 23285 H 2230.9 -3.95074 -0.464874 0
M  V30 23286 H 2227.64 -6.4445 1.19849 0
M  V30 23287 H 2227.16 -5.98108 -0.4502 0
M  V30 23288 H 2228.84 -6.46905 -0.110819 0
M  V30 23289 N 2228.97 -0.0251005 -1.5758 0
M  V30 23290 C 2230.22 0.653733 -1.90812 0
M  V30 23291 C 2230.54 1.73521 -0.902761 0
M  V30 23292 O 2231.74 2.47041 -1.12618 0
M  V30 23293 C 2230.2 1.21403 -3.38806 0
M  V30 23294 C 2229.81 0.166047 -4.47692 0
M  V30 23295 C 2231.55 1.86961 -3.81111 0
M  V30 23296 C 2229.46 0.737752 -5.8678 0
M  V30 23297 H 2228.39 0.247944 -0.712067 0
M  V30 23298 H 2231.04 -0.0897459 -1.8328 0
M  V30 23299 H 2229.42 2.00899 -3.41256 0
M  V30 23300 H 2230.59 -0.606159 -4.56796 0
M  V30 23301 H 2228.91 -0.390539 -4.14565 0
M  V30 23302 H 2231.51 2.30683 -4.82379 0
M  V30 23303 H 2231.85 2.71066 -3.15958 0
M  V30 23304 H 2232.38 1.14161 -3.81067 0
M  V30 23305 H 2229.12 -0.0650729 -6.55468 0
M  V30 23306 H 2228.64 1.47854 -5.81291 0
M  V30 23307 H 2230.32 1.22873 -6.35225 0
M  V30 23308 N 2230.45 1.55637 0.247999 0
M  V30 23309 C 2231.68 1.81208 0.992335 0
M  V30 23310 C 2232.09 0.598356 1.79489 0
M  V30 23311 O 2231.43 -0.442403 1.78293 0
M  V30 23312 C 2231.5 3.00113 1.97921 0
M  V30 23313 C 2231.16 4.36179 1.36369 0
M  V30 23314 C 2232.16 5.14215 0.76673 0
M  V30 23315 C 2229.84 4.82874 1.38339 0
M  V30 23316 C 2231.84 6.37093 0.197666 0
M  V30 23317 C 2229.52 6.05702 0.810468 0
M  V30 23318 C 2230.52 6.8265 0.218634 0
M  V30 23319 O 2230.21 8.03157 -0.34544 0
M  V30 23320 H 2229.94 0.606922 0.297693 0
M  V30 23321 H 2232.49 2.03531 0.276482 0
M  V30 23322 H 2230.72 2.73543 2.73334 0
M  V30 23323 H 2232.41 3.12786 2.58688 0
M  V30 23324 H 2233.18 4.79259 0.744029 0
M  V30 23325 H 2229.06 4.22973 1.83343 0
M  V30 23326 H 2232.6 6.97097 -0.264911 0
M  V30 23327 H 2228.5 6.40135 0.830492 0
M  V30 23328 H 2229.27 8.18156 -0.237198 0
M  V30 23329 N 2231.93 -0.513613 1.48996 0
M  V30 23330 C 2232.88 -1.61653 1.64733 0
M  V30 23331 C 2233.85 -1.58738 0.489012 0
M  V30 23332 O 2235.03 -1.76916 0.714509 0
M  V30 23333 C 2232.17 -2.99855 1.70825 0
M  V30 23334 C 2231.29 -3.1288 2.97876 0
M  V30 23335 C 2230.42 -4.41739 2.95025 0
M  V30 23336 C 2229.46 -4.48352 4.1671 0
M  V30 23337 N 2228.6 -5.68622 4.11842 0
M  V30 23338 H 2233.44 -1.47542 2.58912 0
M  V30 23339 H 2230.97 -0.718057 1.28384 0
M  V30 23340 H 2232.93 -3.79941 1.72338 0
M  V30 23341 H 2231.56 -3.12698 0.801236 0
M  V30 23342 H 2230.61 -2.25939 3.06033 0
M  V30 23343 H 2231.93 -3.13626 3.87866 0
M  V30 23344 H 2231.08 -5.30134 2.95031 0
M  V30 23345 H 2229.82 -4.43539 2.02792 0
M  V30 23346 H 2228.82 -3.58362 4.16962 0
M  V30 23347 H 2230.05 -4.48278 5.10121 0
M  V30 23348 H 2228 -5.71288 3.22438 0
M  V30 23349 H 2227.91 -5.70932 4.95553 0
M  V30 23350 H 2229.18 -6.59258 4.15931 0
M  V30 23351 N 2233.41 -1.37859 -0.763727 0
M  V30 23352 C 2234.34 -1.36978 -1.89101 0
M  V30 23353 C 2235.32 -0.237182 -1.68438 0
M  V30 23354 O 2236.51 -0.438747 -1.89179 0
M  V30 23355 C 2233.64 -1.18401 -3.26494 0
M  V30 23356 C 2232.59 -2.28758 -3.61737 0
M  V30 23357 C 2231.92 -1.95295 -4.97759 0
M  V30 23358 C 2233.22 -3.70978 -3.67658 0
M  V30 23359 H 2234.91 -2.3131 -1.90095 0
M  V30 23360 H 2232.46 -1.11343 -0.91317 0
M  V30 23361 H 2234.41 -1.16413 -4.05001 0
M  V30 23362 H 2233.13 -0.205272 -3.25954 0
M  V30 23363 H 2231.79 -2.29914 -2.85543 0
M  V30 23364 H 2231.44 -0.959307 -4.93767 0
M  V30 23365 H 2231.14 -2.69198 -5.22308 0
M  V30 23366 H 2232.66 -1.94908 -5.78656 0
M  V30 23367 H 2234.08 -3.71907 -4.363 0
M  V30 23368 H 2232.47 -4.44002 -4.0371 0
M  V30 23369 H 2233.54 -4.04025 -2.68127 0
M  V30 23370 N 2234.89 0.990791 -1.22561 0
M  V30 23371 C 2236.13 1.73064 -1.05144 0
M  V30 23372 C 2236.46 1.90061 0.413157 0
M  V30 23373 O 2235.72 1.44247 1.32254 0
M  V30 23374 C 2236.02 3.13828 -1.71017 0
M  V30 23375 C 2235.68 3.16739 -3.20916 0
M  V30 23376 C 2234.34 3.17241 -3.61817 0
M  V30 23377 C 2236.7 3.12864 -4.16852 0
M  V30 23378 C 2234.02 3.11571 -4.97132 0
M  V30 23379 C 2236.38 3.08737 -5.52145 0
M  V30 23380 C 2235.04 3.07555 -5.92424 0
M  V30 23381 H 2234.31 0.633284 -0.384749 0
M  V30 23382 H 2236.96 1.16022 -1.52352 0
M  V30 23383 H 2235.26 3.74191 -1.1614 0
M  V30 23384 H 2236.96 3.6982 -1.55029 0
M  V30 23385 H 2233.55 3.171 -2.8835 0
M  V30 23386 H 2237.73 3.11625 -3.86269 0
M  V30 23387 H 2232.99 3.09003 -5.27567 0
M  V30 23388 H 2237.16 3.04694 -6.26206 0
M  V30 23389 H 2234.79 3.02916 -6.97242 0
M  V30 23390 N 2236.37 1.03564 1.18795 0
M  V30 23391 C 2237.33 0.626808 2.20463 0
M  V30 23392 C 2238.33 -0.313146 1.57721 0
M  V30 23393 O 2239.52 -0.099231 1.73917 0
M  V30 23394 C 2236.65 -0.0817899 3.40802 0
M  V30 23395 H 2237.84 1.52645 2.58147 0
M  V30 23396 H 2235.4 0.827601 1.32591 0
M  V30 23397 H 2236.13 -0.995464 3.08644 0
M  V30 23398 H 2235.92 0.59372 3.87579 0
M  V30 23399 H 2237.41 -0.35451 4.16093 0
M  V30 23400 N 2237.84 -1.34926 0.814413 0
M  V30 23401 C 2239.09 -1.98149 0.397671 0
M  V30 23402 C 2239.41 -1.6491 -1.04066 0
M  V30 23403 O 2238.68 -0.93551 -1.72119 0
M  V30 23404 H 2237.26 -0.732978 0.144056 0
M  V30 23405 H 2239.92 -1.64708 1.04198 0
M  V30 23406 H 2239.02 -3.07909 0.509743 0
M  V30 23407 N 2239.32 -0.56861 -1.46985 0
M  V30 23408 C 2240.57 -0.0488342 -2.02441 0
M  V30 23409 C 2240.9 1.30556 -1.44171 0
M  V30 23410 O 2240.15 1.86555 -0.591246 0
M  V30 23411 C 2240.45 0.0817731 -3.57306 0
M  V30 23412 C 2240.12 -1.2032 -4.3455 0
M  V30 23413 C 2238.78 -1.55528 -4.55373 0
M  V30 23414 C 2241.13 -2.05419 -4.79012 0
M  V30 23415 C 2238.46 -2.7566 -5.17908 0
M  V30 23416 C 2240.81 -3.24764 -5.42873 0
M  V30 23417 C 2239.47 -3.60271 -5.61926 0
M  V30 23418 H 2238.74 -0.0178697 -0.740784 0
M  V30 23419 H 2241.39 -0.742415 -1.76523 0
M  V30 23420 H 2239.7 0.858396 -3.82281 0
M  V30 23421 H 2241.39 0.499476 -3.97877 0
M  V30 23422 H 2237.98 -0.919088 -4.1863 0
M  V30 23423 H 2242.17 -1.79524 -4.62693 0
M  V30 23424 H 2237.42 -3.03324 -5.30852 0
M  V30 23425 H 2241.6 -3.90983 -5.76286 0
M  V30 23426 H 2239.22 -4.5345 -6.10153 0
M  V30 23427 N 2240.8 1.54608 -0.305646 0
M  V30 23428 C 2241.73 2.2115 0.602122 0
M  V30 23429 C 2242.74 1.20571 1.09392 0
M  V30 23430 O 2243.93 1.47138 1.01057 0
M  V30 23431 C 2241.03 2.84802 1.83687 0
M  V30 23432 C 2240.21 4.11356 1.48678 0
M  V30 23433 C 2239.27 4.58768 2.57717 0
M  V30 23434 O 2238.29 5.23862 2.22614 0
M  V30 23435 N 2239.49 4.31478 3.88339 0
M  V30 23436 H 2242.26 2.99682 0.0324439 0
M  V30 23437 H 2239.82 1.61393 -0.128049 0
M  V30 23438 H 2241.81 3.13452 2.55988 0
M  V30 23439 H 2240.38 2.10082 2.31483 0
M  V30 23440 H 2239.6 3.89665 0.5962 0
M  V30 23441 H 2240.89 4.9375 1.22833 0
M  V30 23442 H 2240.29 3.79339 4.19665 0
M  V30 23443 H 2238.84 4.64826 4.56924 0
M  V30 23444 N 2242.28 0.033457 1.57564 0
M  V30 23445 C 2243.53 -0.642966 1.91599 0
M  V30 23446 C 2243.85 -1.72418 0.910877 0
M  V30 23447 O 2243.12 -1.95844 -0.0469587 0
M  V30 23448 H 2241.7 -0.240483 0.707232 0
M  V30 23449 H 2244.36 0.0822831 1.94726 0
M  V30 23450 H 2243.45 -1.09293 2.92338 0
M  V30 23451 N 2243.76 -1.55766 -0.239741 0
M  V30 23452 C 2244.72 -1.90105 -1.28034 0
M  V30 23453 C 2245.72 -0.77808 -1.40722 0
M  V30 23454 O 2246.91 -1.04601 -1.39299 0
M  V30 23455 C 2244.04 -2.13581 -2.65699 0
M  V30 23456 H 2245.23 -2.83158 -0.987998 0
M  V30 23457 H 2242.79 -1.48768 -0.479356 0
M  V30 23458 H 2243.52 -1.2302 -3.00061 0
M  V30 23459 H 2243.31 -2.95374 -2.5787 0
M  V30 23460 H 2244.8 -2.41307 -3.40823 0
M  V30 23461 N 2245.23 0.505704 -1.49266 0
M  V30 23462 C 2246.46 1.2824 -1.61982 0
M  V30 23463 C 2246.87 1.86986 -0.288609 0
M  V30 23464 O 2246.21 1.68339 0.735378 0
M  V30 23465 C 2246.28 2.45485 -2.62636 0
M  V30 23466 C 2245.94 2.07644 -4.07103 0
M  V30 23467 C 2246.94 1.61892 -4.94052 0
M  V30 23468 C 2244.62 2.17423 -4.52805 0
M  V30 23469 C 2246.62 1.26417 -6.24738 0
M  V30 23470 C 2244.3 1.81559 -5.83506 0
M  V30 23471 C 2245.3 1.36131 -6.69296 0
M  V30 23472 O 2244.99 1.0075 -7.97562 0
M  V30 23473 H 2244.72 0.395338 -0.548347 0
M  V30 23474 H 2247.28 0.61417 -1.96003 0
M  V30 23475 H 2245.51 3.15368 -2.23785 0
M  V30 23476 H 2247.19 3.07517 -2.6493 0
M  V30 23477 H 2247.96 1.53787 -4.59972 0
M  V30 23478 H 2243.84 2.51735 -3.862 0
M  V30 23479 H 2247.38 0.90887 -6.91654 0
M  V30 23480 H 2243.28 1.89313 -6.17115 0
M  V30 23481 H 2244.05 1.13938 -8.10531 0
M  V30 23482 N 2246.71 1.38262 0.756405 0
M  V30 23483 C 2247.94 1.37542 1.54563 0
M  V30 23484 C 2248.36 -0.0354999 1.88767 0
M  V30 23485 O 2247.71 -1.00137 1.52574 0
M  V30 23486 C 2247.76 2.22838 2.8465 0
M  V30 23487 O 2247.48 3.58434 2.51906 0
M  V30 23488 C 2248.99 2.30268 3.78803 0
M  V30 23489 H 2246.21 0.470561 0.478344 0
M  V30 23490 H 2248.75 1.81804 0.936349 0
M  V30 23491 H 2246.9 1.82046 3.41962 0
M  V30 23492 H 2247.32 4.03314 3.35318 0
M  V30 23493 H 2248.79 2.94241 4.6704 0
M  V30 23494 H 2249.27 1.31552 4.19035 0
M  V30 23495 H 2249.88 2.71439 3.27416 0
M  V30 23496 N 2248.19 -0.984277 1.23084 0
M  V30 23497 C 2249.44 -1.72163 1.05851 0
M  V30 23498 C 2249.76 -1.90726 -0.406016 0
M  V30 23499 O 2249.03 -1.47311 -1.29136 0
M  V30 23500 H 2247.61 -0.637906 0.388696 0
M  V30 23501 H 2250.27 -1.185 1.54738 0
M  V30 23502 H 2249.37 -2.71271 1.54331 0
M  V30 23503 N 2249.67 -1.04192 -1.18244 0
M  V30 23504 C 2250.6 -0.578513 -2.20745 0
M  V30 23505 C 2251.58 0.387596 -1.57913 0
M  V30 23506 O 2252.76 0.301601 -1.86072 0
M  V30 23507 C 2249.89 0.154703 -3.38347 0
M  V30 23508 C 2248.94 -0.764856 -4.19586 0
M  V30 23509 S 2249.77 -2.24844 -4.8601 0
M  V30 23510 C 2250.93 -1.5261 -6.0701 0
M  V30 23511 H 2251.16 -1.44696 -2.59712 0
M  V30 23512 H 2248.69 -0.852993 -1.28699 0
M  V30 23513 H 2250.65 0.57157 -4.06501 0
M  V30 23514 H 2249.31 0.999053 -2.97788 0
M  V30 23515 H 2248.5 -0.198064 -5.03611 0
M  V30 23516 H 2248.11 -1.12063 -3.56816 0
M  V30 23517 H 2250.4 -0.819852 -6.72521 0
M  V30 23518 H 2251.34 -2.34345 -6.68198 0
M  V30 23519 H 2251.75 -1.01789 -5.55247 0
M  V30 23520 N 2251.15 1.34492 -0.821557 0
M  V30 23521 C 2252.56 1.80739 -0.467988 0
M  V30 23522 C 2252.91 1.68117 1.01148 0
M  V30 23523 O 2252.03 1.22039 1.78705 0
M  V30 23524 C 2252.63 3.28153 -0.842684 0
M  V30 23525 C 2251.19 3.72484 -0.541504 0
M  V30 23526 C 2250.33 2.56227 -1.06033 0
M  V30 23527 H 2253.29 1.22259 -1.01185 0
M  V30 23528 H 2253.31 3.8022 -0.145943 0
M  V30 23529 H 2252.82 3.37308 -1.91951 0
M  V30 23530 H 2250.92 3.68869 0.52597 0
M  V30 23531 H 2251.03 4.66662 -1.08461 0
M  V30 23532 H 2249.4 2.50099 -0.481936 0
M  V30 23533 H 2250.18 2.68153 -2.14357 0
M  V30 23534 N 2252.62 0.576397 1.46681 0
M  V30 23535 C 2253.57 -0.173309 2.31953 0
M  V30 23536 C 2254.57 -0.890595 1.441 0
M  V30 23537 O 2255.77 -0.8097 1.6076 0
M  V30 23538 H 2252.15 -0.0747595 0.748275 0
M  V30 23539 H 2254.12 0.564789 2.93006 0
M  V30 23540 C 2252.87 -1.1778 3.27144 0
M  V30 23541 H 2252.19 -0.635291 3.9472 0
M  V30 23542 H 2253.63 -1.67289 3.89603 0
M  V30 23543 C 2252.09 -2.23556 2.5204 0
M  V30 23544 O 2252.62 -3.30806 2.27882 0
M  V30 23545 N 2250.83 -1.97995 2.12712 0
M  V30 23546 H 2250.37 -1.10788 2.32559 0
M  V30 23547 H 2250.33 -2.68979 1.6278 0
M  V30 23548 N 2254.1 -1.54444 0.313841 0
M  V30 23549 C 2255.03 -2.21466 -0.590386 0
M  V30 23550 C 2256.05 -1.21149 -1.08751 0
M  V30 23551 O 2257.24 -1.47672 -1.00276 0
M  V30 23552 C 2254.34 -2.85772 -1.82174 0
M  V30 23553 C 2253.51 -4.12138 -1.46495 0
M  V30 23554 C 2252.57 -4.60129 -2.5528 0
M  V30 23555 O 2251.59 -5.25036 -2.19832 0
M  V30 23556 N 2252.8 -4.33532 -3.86045 0
M  V30 23557 H 2255.56 -2.99695 -0.0165506 0
M  V30 23558 H 2253.12 -1.61323 0.136607 0
M  V30 23559 H 2255.11 -3.14805 -2.54322 0
M  V30 23560 H 2253.68 -2.11307 -2.30365 0
M  V30 23561 H 2252.9 -3.89976 -0.575527 0
M  V30 23562 H 2254.19 -4.94395 -1.20213 0
M  V30 23563 H 2253.59 -3.81559 -4.17647 0
M  V30 23564 H 2252.15 -4.67243 -4.54453 0
M  V30 23565 N 2255.58 -0.0418125 -1.57545 0
M  V30 23566 C 2256.53 0.935768 -2.10979 0
M  V30 23567 C 2257.5 1.31489 -1.01488 0
M  V30 23568 O 2258.68 1.406 -1.28982 0
M  V30 23569 C 2255.82 2.20855 -2.65173 0
M  V30 23570 C 2254.94 1.88475 -3.88717 0
M  V30 23571 C 2254.07 3.10143 -4.3126 0
M  V30 23572 C 2253.11 2.7364 -5.47529 0
M  V30 23573 N 2252.25 3.87972 -5.85168 0
M  V30 23574 H 2257.09 0.473197 -2.94219 0
M  V30 23575 H 2254.62 0.221956 -1.45416 0
M  V30 23576 H 2256.58 2.9532 -2.9469 0
M  V30 23577 H 2255.21 2.64706 -1.84744 0
M  V30 23578 H 2254.26 1.04199 -3.65851 0
M  V30 23579 H 2255.58 1.576 -4.73248 0
M  V30 23580 H 2254.73 3.92915 -4.6228 0
M  V30 23581 H 2253.47 3.44189 -3.45522 0
M  V30 23582 H 2252.47 1.89282 -5.1619 0
M  V30 23583 H 2253.7 2.40796 -6.34976 0
M  V30 23584 H 2251.64 4.21837 -5.02384 0
M  V30 23585 H 2251.56 3.60763 -6.64369 0
M  V30 23586 H 2252.83 4.71411 -6.20799 0
M  V30 23587 N 2257.06 1.55891 0.231477 0
M  V30 23588 C 2258.47 1.68725 0.799297 0
M  V30 23589 C 2258.82 0.642055 1.85397 0
M  V30 23590 O 2257.95 -0.208746 2.15391 0
M  V30 23591 C 2258.54 3.05891 1.45659 0
M  V30 23592 C 2257.1 3.20613 1.97192 0
M  V30 23593 C 2256.25 2.64634 0.828506 0
M  V30 23594 H 2259.2 1.58698 0.00699826 0
M  V30 23595 H 2259.22 3.01195 2.32512 0
M  V30 23596 H 2258.73 3.8194 0.688741 0
M  V30 23597 H 2256.83 2.49414 2.76809 0
M  V30 23598 H 2256.94 4.27711 2.15871 0
M  V30 23599 H 2255.31 2.22856 1.23317 0
M  V30 23600 H 2256.09 3.43221 0.0734941 0
M  V30 23601 N 2258.54 -0.497781 1.49532 0
M  V30 23602 C 2259.48 -1.59896 1.66439 0
M  V30 23603 C 2260.45 -1.58211 0.505821 0
M  V30 23604 O 2261.64 -1.76149 0.733233 0
M  V30 23605 C 2258.78 -2.98026 1.73996 0
M  V30 23606 C 2257.89 -3.09703 3.01178 0
M  V30 23607 C 2257.03 -4.38585 2.99694 0
M  V30 23608 C 2256.07 -4.43907 4.21442 0
M  V30 23609 N 2255.2 -5.64222 4.1785 0
M  V30 23610 H 2260.04 -1.44788 2.60462 0
M  V30 23611 H 2257.58 -0.7044 1.29138 0
M  V30 23612 H 2259.54 -3.78092 1.76358 0
M  V30 23613 H 2258.17 -3.11831 0.834356 0
M  V30 23614 H 2257.22 -2.2268 3.08412 0
M  V30 23615 H 2258.53 -3.09495 3.9117 0
M  V30 23616 H 2257.69 -5.26975 3.00637 0
M  V30 23617 H 2256.42 -4.41363 2.07485 0
M  V30 23618 H 2255.43 -3.53919 4.20739 0
M  V30 23619 H 2256.65 -4.42842 5.14847 0
M  V30 23620 H 2254.6 -5.67836 3.28479 0
M  V30 23621 H 2254.52 -5.65643 5.01581 0
M  V30 23622 H 2255.79 -6.5481 4.229 0
M  V30 23623 N 2260.01 -1.38661 -0.749062 0
M  V30 23624 C 2261.26 -1.35317 -1.51054 0
M  V30 23625 C 2261.59 0.055341 -1.94121 0
M  V30 23626 O 2260.87 1.01746 -1.65765 0
M  V30 23627 C 2261.15 -2.31293 -2.75999 0
M  V30 23628 C 2261 -3.81024 -2.39041 0
M  V30 23629 C 2262.32 -2.25327 -3.78042 0
M  V30 23630 H 2259.44 -0.492854 -0.547963 0
M  V30 23631 H 2262.08 -1.69544 -0.857598 0
M  V30 23632 H 2260.23 -2.02235 -3.31713 0
M  V30 23633 H 2261.91 -4.20775 -1.89067 0
M  V30 23634 H 2260.15 -3.98485 -1.71442 0
M  V30 23635 H 2260.82 -4.43646 -3.28454 0
M  V30 23636 H 2263.3 -2.50989 -3.31879 0
M  V30 23637 H 2262.17 -2.94584 -4.63154 0
M  V30 23638 H 2262.43 -1.2536 -4.23954 0
M  V30 23639 N 2261.49 0.977736 -1.23605 0
M  V30 23640 C 2262.9 1.53396 -1.06427 0
M  V30 23641 C 2263.26 1.92727 0.367544 0
M  V30 23642 O 2262.38 1.76319 1.25462 0
M  V30 23643 C 2262.98 2.78749 -1.92573 0
M  V30 23644 C 2261.53 3.30762 -1.79648 0
M  V30 23645 C 2260.68 2.03735 -1.88115 0
M  V30 23646 H 2263.63 0.797128 -1.37228 0
M  V30 23647 H 2263.65 3.51702 -1.45209 0
M  V30 23648 H 2263.17 2.50092 -2.96775 0
M  V30 23649 H 2261.27 3.64293 -0.782389 0
M  V30 23650 H 2261.38 4.0034 -2.63181 0
M  V30 23651 H 2259.74 2.17991 -1.31726 0
M  V30 23652 H 2260.53 1.77456 -2.93878 0
M  V30 23653 N 2262.97 1.04818 1.1769 0
M  V30 23654 C 2264.2 0.776288 1.91785 0
M  V30 23655 C 2264.61 -0.667546 1.76605 0
M  V30 23656 O 2263.97 -1.45571 1.1007 0
M  V30 23657 C 2264.02 1.14269 3.42965 0
M  V30 23658 O 2263.74 2.52984 3.57674 0
M  V30 23659 C 2265.24 0.896388 4.34143 0
M  V30 23660 H 2262.46 0.28253 0.60862 0
M  V30 23661 H 2265.01 1.39785 1.49266 0
M  V30 23662 H 2263.16 0.565942 3.83244 0
M  V30 23663 H 2263.58 2.67236 4.51315 0
M  V30 23664 H 2265.05 1.20254 5.38742 0
M  V30 23665 H 2265.53 -0.168559 4.38876 0
M  V30 23666 H 2266.13 1.45679 3.99572 0
M  V30 23667 N 2264.45 -1.34055 0.828678 0
M  V30 23668 C 2265.38 -2.3194 0.269483 0
M  V30 23669 C 2266.36 -1.58507 -0.617219 0
M  V30 23670 O 2267.55 -1.86457 -0.542898 0
M  V30 23671 C 2264.68 -3.42678 -0.564733 0
M  V30 23672 C 2263.63 -4.27407 0.225316 0
M  V30 23673 C 2262.96 -5.29666 -0.732007 0
M  V30 23674 C 2264.26 -5.02151 1.43672 0
M  V30 23675 H 2265.95 -2.78958 1.08733 0
M  V30 23676 H 2263.5 -1.34116 0.524307 0
M  V30 23677 H 2265.45 -4.10175 -0.966161 0
M  V30 23678 H 2264.17 -2.94323 -1.41569 0
M  V30 23679 H 2262.83 -3.6152 0.608181 0
M  V30 23680 H 2262.48 -4.77571 -1.57908 0
M  V30 23681 H 2262.18 -5.87233 -0.207566 0
M  V30 23682 H 2263.7 -6.00031 -1.13117 0
M  V30 23683 H 2265.12 -5.62471 1.109 0
M  V30 23684 H 2263.51 -5.6932 1.89721 0
M  V30 23685 H 2264.58 -4.31513 2.21189 0
M  V30 23686 N 2265.93 -0.584167 -1.46374 0
M  V30 23687 C 2267.34 -0.245956 -1.57693 0
M  V30 23688 C 2267.54 1.25172 -1.57906 0
M  V30 23689 O 2266.6 2.03352 -1.4968 0
M  V30 23690 C 2267.91 -0.896453 -2.87027 0
M  V30 23691 C 2269.46 -0.870179 -3.00661 0
M  V30 23692 C 2269.94 -1.50024 -4.32732 0
M  V30 23693 N 2271.43 -1.46465 -4.39434 0
M  V30 23694 C 2272.16 -1.92153 -5.40245 0
M  V30 23695 N 2271.66 -2.45821 -6.47722 0
M  V30 23696 N 2273.45 -1.83061 -5.31455 0
M  V30 23697 H 2265.6 -1.5569 -1.4448 0
M  V30 23698 H 2267.86 -0.650843 -0.68928 0
M  V30 23699 H 2267.57 -1.95007 -2.92686 0
M  V30 23700 H 2267.44 -0.405551 -3.75013 0
M  V30 23701 H 2269.83 0.174819 -2.94582 0
M  V30 23702 H 2269.91 -1.39912 -2.14146 0
M  V30 23703 H 2269.56 -2.54445 -4.39568 0
M  V30 23704 H 2269.49 -0.946523 -5.18024 0
M  V30 23705 H 2271.98 -1.07237 -3.62365 0
M  V30 23706 H 2272.29 -2.78537 -7.20858 0
M  V30 23707 H 2270.64 -2.49848 -6.48538 0
M  V30 23708 H 2273.83 -1.40891 -4.46394 0
M  V30 23709 H 2274 -2.18983 -6.09877 0
M  V30 23710 N 2267.41 1.54275 -0.322027 0
M  V30 23711 C 2268.34 2.21776 0.578632 0
M  V30 23712 C 2269.35 1.21724 1.08107 0
M  V30 23713 O 2270.54 1.48202 0.994912 0
M  V30 23714 C 2267.64 2.86735 1.80656 0
M  V30 23715 C 2266.81 4.12909 1.44307 0
M  V30 23716 C 2265.87 4.61476 2.52837 0
M  V30 23717 O 2264.9 5.26194 2.17045 0
M  V30 23718 N 2266.1 4.35573 3.8374 0
M  V30 23719 H 2268.86 2.997 0.000656767 0
M  V30 23720 H 2266.43 1.61248 -0.14516 0
M  V30 23721 H 2268.42 3.16149 2.52649 0
M  V30 23722 H 2266.99 2.12525 2.29242 0
M  V30 23723 H 2266.21 3.90276 0.554837 0
M  V30 23724 H 2267.5 4.95025 1.17589 0
M  V30 23725 H 2266.89 3.83769 4.15618 0
M  V30 23726 H 2265.45 4.69646 4.51969 0
M  V30 23727 N 2268.88 0.0501669 1.5752 0
M  V30 23728 C 2269.85 -0.909749 2.10372 0
M  V30 23729 C 2270.85 -1.24054 1.0231 0
M  V30 23730 O 2272.04 -1.17739 1.28387 0
M  V30 23731 C 2269.17 -2.21994 2.58712 0
M  V30 23732 H 2270.36 -0.451613 2.9648 0
M  V30 23733 H 2267.91 -0.19822 1.55038 0
M  V30 23734 H 2268.65 -2.72391 1.75994 0
M  V30 23735 H 2268.43 -1.99289 3.37678 0
M  V30 23736 H 2269.92 -2.90755 2.99752 0
M  V30 23737 N 2270.36 -1.56011 -0.223207 0
M  V30 23738 C 2271.31 -1.9228 -1.2766 0
M  V30 23739 C 2272.28 -0.779789 -1.46658 0
M  V30 23740 O 2273.46 -1.03554 -1.60254 0
M  V30 23741 C 2270.6 -2.24343 -2.6223 0
M  V30 23742 C 2269.72 -3.51569 -2.51045 0
M  V30 23743 C 2268.85 -3.73087 -3.78126 0
M  V30 23744 C 2267.89 -4.93833 -3.61657 0
M  V30 23745 N 2267.03 -5.11749 -4.80684 0
M  V30 23746 H 2271.87 -2.82103 -0.960308 0
M  V30 23747 H 2269.4 -1.39628 -0.462876 0
M  V30 23748 H 2271.36 -2.40942 -3.40592 0
M  V30 23749 H 2269.99 -1.37695 -2.91959 0
M  V30 23750 H 2269.04 -3.43172 -1.64126 0
M  V30 23751 H 2270.36 -4.40083 -2.34795 0
M  V30 23752 H 2269.51 -3.89774 -4.64931 0
M  V30 23753 H 2268.25 -2.82851 -3.97299 0
M  V30 23754 H 2267.25 -4.77098 -2.73236 0
M  V30 23755 H 2268.48 -5.85552 -3.43956 0
M  V30 23756 H 2266.43 -4.24455 -5.00174 0
M  V30 23757 H 2266.34 -5.94393 -4.67155 0
M  V30 23758 H 2267.61 -5.3287 -5.6892 0
M  V30 23759 N 2271.84 0.489844 -1.49794 0
M  V30 23760 C 2273.09 1.24508 -1.6008 0
M  V30 23761 C 2273.42 1.91998 -0.291642 0
M  V30 23762 O 2272.69 1.81249 0.705615 0
M  V30 23763 C 2272.98 2.3034 -2.76795 0
M  V30 23764 C 2272.83 1.67279 -4.17538 0
M  V30 23765 C 2274.15 3.31812 -2.89117 0
M  V30 23766 H 2271.27 0.451314 -0.582653 0
M  V30 23767 H 2273.91 0.54158 -1.82118 0
M  V30 23768 H 2272.06 2.90342 -2.58135 0
M  V30 23769 H 2273.73 1.11018 -4.47742 0
M  V30 23770 H 2271.97 0.976503 -4.22666 0
M  V30 23771 H 2272.65 2.44094 -4.95098 0
M  V30 23772 H 2275.12 2.81813 -3.06138 0
M  V30 23773 H 2274 4.03212 -3.7244 0
M  V30 23774 H 2274.26 3.94812 -1.98937 0
M  V30 23775 N 2273.32 1.39056 0.741698 0
M  V30 23776 C 2274.25 1.33136 1.86567 0
M  V30 23777 C 2275.26 0.241357 1.61001 0
M  V30 23778 O 2276.45 0.499814 1.7136 0
M  V30 23779 C 2273.55 1.04288 3.22455 0
M  V30 23780 C 2272.72 2.24434 3.75431 0
M  V30 23781 C 2271.78 1.92146 4.89864 0
M  V30 23782 O 2270.81 2.64763 5.03874 0
M  V30 23783 N 2272.01 0.883571 5.73736 0
M  V30 23784 H 2274.78 2.29995 1.92152 0
M  V30 23785 H 2272.34 1.33072 0.922149 0
M  V30 23786 H 2274.33 0.807197 3.96568 0
M  V30 23787 H 2272.9 0.161862 3.12181 0
M  V30 23788 H 2272.12 2.63995 2.92746 0
M  V30 23789 H 2273.41 3.04588 4.07558 0
M  V30 23790 H 2272.81 0.281616 5.64999 0
M  V30 23791 H 2271.36 0.707776 6.47946 0
M  V30 23792 N 2274.8 -0.971167 1.24121 0
M  V30 23793 C 2276.04 -1.7103 1.07671 0
M  V30 23794 C 2276.36 -1.91146 -0.385764 0
M  V30 23795 O 2275.63 -1.48673 -1.27567 0
M  V30 23796 H 2274.21 -0.633748 0.39544 0
M  V30 23797 H 2276.88 -1.16852 1.55986 0
M  V30 23798 H 2275.97 -2.69619 1.572 0
M  V30 23799 N 2276.27 -1.05441 -1.17133 0
M  V30 23800 C 2277.69 -0.791706 -1.69083 0
M  V30 23801 C 2278.04 0.685806 -1.83824 0
M  V30 23802 O 2277.16 1.53276 -1.5276 0
M  V30 23803 C 2277.76 -1.43055 -3.07117 0
M  V30 23804 C 2276.32 -1.21583 -3.56222 0
M  V30 23805 C 2275.46 -1.51251 -2.32419 0
M  V30 23806 H 2278.41 -1.21902 -1.01615 0
M  V30 23807 H 2278.43 -0.841185 -3.71085 0
M  V30 23808 H 2277.95 -2.50589 -2.96356 0
M  V30 23809 H 2276.05 -0.159853 -3.72257 0
M  V30 23810 H 2276.16 -1.92254 -4.38834 0
M  V30 23811 H 2274.52 -0.932695 -2.37008 0
M  V30 23812 H 2275.31 -2.59924 -2.24264 0
M  V30 23813 N 2277.75 1.33613 -0.835776 0
M  V30 23814 C 2278.72 2.2758 -0.27204 0
M  V30 23815 C 2279.72 1.50828 0.55746 0
M  V30 23816 O 2280.91 1.70188 0.3717 0
M  V30 23817 C 2278.04 3.35268 0.617114 0
M  V30 23818 H 2279.23 2.78952 -1.10116 0
M  V30 23819 H 2276.78 1.43964 -0.60862 0
M  V30 23820 H 2277.52 2.89131 1.46879 0
M  V30 23821 H 2277.3 3.92093 0.0236377 0
M  V30 23822 H 2278.79 4.05328 1.00493 0
M  V30 23823 N 2279.23 0.591922 1.46062 0
M  V30 23824 C 2280.48 0.0810347 2.02338 0
M  V30 23825 C 2280.81 -1.28246 1.4623 0
M  V30 23826 O 2280.06 -1.85591 0.620851 0
M  V30 23827 C 2280.36 -0.0249184 3.57391 0
M  V30 23828 C 2280.03 1.27219 4.32581 0
M  V30 23829 C 2278.69 1.62753 4.52841 0
M  V30 23830 C 2281.04 2.13014 4.75683 0
M  V30 23831 C 2278.37 2.83864 5.13457 0
M  V30 23832 C 2280.72 3.33359 5.37638 0
M  V30 23833 C 2279.38 3.69165 5.56124 0
M  V30 23834 H 2278.65 0.0296527 0.740406 0
M  V30 23835 H 2281.3 0.770405 1.7532 0
M  V30 23836 H 2279.61 -0.797469 3.83598 0
M  V30 23837 H 2281.3 -0.436114 3.98621 0
M  V30 23838 H 2277.89 0.985572 4.17114 0
M  V30 23839 H 2282.08 1.86863 4.59778 0
M  V30 23840 H 2277.33 3.11731 5.2596 0
M  V30 23841 H 2281.51 4.00102 5.69993 0
M  V30 23842 H 2279.13 4.631 6.02862 0
M  V30 23843 N 2280.71 -1.54102 0.330204 0
M  V30 23844 C 2281.62 -2.28265 -0.541493 0
M  V30 23845 C 2282.63 -1.32868 -1.12349 0
M  V30 23846 O 2283.81 -1.6589 -1.14203 0
M  V30 23847 C 2280.88 -3.03101 -1.68317 0
M  V30 23848 C 2279.94 -4.14098 -1.13231 0
M  V30 23849 C 2279.17 -4.85356 -2.21958 0
M  V30 23850 O 2279.39 -4.56178 -3.42429 0
M  V30 23851 O 2278.33 -5.72113 -1.87003 0
M  V30 23852 H 2282.15 -3.03639 0.0609914 0
M  V30 23853 H 2279.74 -1.49093 0.0956762 0
M  V30 23854 H 2281.62 -3.49944 -2.34771 0
M  V30 23855 H 2280.29 -2.30597 -2.27171 0
M  V30 23856 H 2279.2 -3.7159 -0.432671 0
M  V30 23857 H 2280.53 -4.88665 -0.588812 0
M  V30 23858 N 2282.19 -0.0585199 -1.57491 0
M  V30 23859 C 2283.43 0.613615 -1.92979 0
M  V30 23860 C 2283.76 1.70415 -0.937491 0
M  V30 23861 O 2283.02 1.95639 0.0490436 0
M  V30 23862 C 2283.32 1.24182 -3.35132 0
M  V30 23863 C 2282.98 0.278747 -4.50038 0
M  V30 23864 C 2281.64 0.0137601 -4.81198 0
M  V30 23865 C 2284 -0.380868 -5.19807 0
M  V30 23866 C 2281.32 -0.918153 -5.79471 0
M  V30 23867 C 2283.68 -1.30102 -6.19077 0
M  V30 23868 C 2282.34 -1.57461 -6.48662 0
M  V30 23869 H 2281.61 0.224537 -0.706161 0
M  V30 23870 H 2284.26 -0.126567 -1.91081 0
M  V30 23871 H 2282.56 2.05743 -3.33432 0
M  V30 23872 H 2284.26 1.76894 -3.59874 0
M  V30 23873 H 2280.85 0.495464 -4.25727 0
M  V30 23874 H 2285.03 -0.189245 -4.95939 0
M  V30 23875 H 2280.29 -1.13751 -6.00725 0
M  V30 23876 H 2284.46 -1.81816 -6.72247 0
M  V30 23877 H 2282.09 -2.29834 -7.24624 0
M  V30 23878 N 2283.66 1.56128 0.21493 0
M  V30 23879 C 2284.63 1.92118 1.24994 0
M  V30 23880 C 2285.63 0.800369 1.39466 0
M  V30 23881 O 2286.82 1.06804 1.37617 0
M  V30 23882 C 2283.95 2.17781 2.62267 0
M  V30 23883 H 2285.14 2.84694 0.942825 0
M  V30 23884 H 2282.7 1.49512 0.455627 0
M  V30 23885 H 2283.43 1.27778 2.98066 0
M  V30 23886 H 2283.22 2.99439 2.53138 0
M  V30 23887 H 2284.71 2.46699 3.36941 0
M  V30 23888 N 2285.14 -0.481893 1.50052 0
M  V30 23889 C 2286.39 -1.23658 1.60738 0
M  V30 23890 C 2286.72 -1.9184 0.30182 0
M  V30 23891 O 2286 -1.81621 -0.695993 0
M  V30 23892 C 2286.28 -2.28869 2.78013 0
M  V30 23893 C 2286.13 -1.65062 4.18419 0
M  V30 23894 C 2287.45 -3.30274 2.90873 0
M  V30 23895 H 2284.57 -0.448218 0.585038 0
M  V30 23896 H 2287.21 -0.531914 1.82403 0
M  V30 23897 H 2285.36 -2.88969 2.59672 0
M  V30 23898 H 2287.03 -1.08642 4.48324 0
M  V30 23899 H 2285.28 -0.954074 4.23178 0
M  V30 23900 H 2285.95 -2.41465 4.96385 0
M  V30 23901 H 2288.42 -2.80186 3.07628 0
M  V30 23902 H 2287.3 -4.01231 3.74573 0
M  V30 23903 H 2287.56 -3.93751 2.01028 0
M  V30 23904 N 2286.62 -1.39448 -0.734313 0
M  V30 23905 C 2287.58 -1.37997 -1.83001 0
M  V30 23906 C 2288.58 -0.276966 -1.58397 0
M  V30 23907 O 2289.77 -0.534904 -1.65784 0
M  V30 23908 C 2286.91 -1.15325 -3.208 0
M  V30 23909 H 2288.1 -2.35498 -1.8569 0
M  V30 23910 H 2285.65 -1.25022 -0.938037 0
M  V30 23911 H 2286.39 -0.185093 -3.23771 0
M  V30 23912 H 2286.17 -1.95203 -3.40056 0
M  V30 23913 H 2287.66 -1.17053 -4.0086 0
M  V30 23914 N 2288.1 0.964571 -1.24635 0
M  V30 23915 C 2289.03 2.05861 -0.984698 0
M  V30 23916 C 2290.01 1.6239 0.0826268 0
M  V30 23917 O 2291.19 1.8842 -0.0549627 0
M  V30 23918 C 2288.32 3.35187 -0.486587 0
M  V30 23919 C 2287.37 3.97613 -1.54293 0
M  V30 23920 S 2288.2 4.34846 -3.12521 0
M  V30 23921 C 2289.36 5.67303 -2.6442 0
M  V30 23922 H 2289.59 2.27739 -1.91108 0
M  V30 23923 H 2287.12 1.10289 -1.08054 0
M  V30 23924 H 2289.08 4.09984 -0.205829 0
M  V30 23925 H 2287.74 3.11291 0.419131 0
M  V30 23926 H 2286.93 4.90824 -1.14489 0
M  V30 23927 H 2286.54 3.29257 -1.77386 0
M  V30 23928 H 2288.83 6.44965 -2.07427 0
M  V30 23929 H 2289.77 6.11967 -3.56233 0
M  V30 23930 H 2290.18 5.26061 -2.04743 0
M  V30 23931 N 2289.58 1.0606 1.16572 0
M  V30 23932 C 2290.51 0.613559 2.19797 0
M  V30 23933 C 2291.49 -0.362425 1.58509 0
M  V30 23934 O 2292.67 -0.271961 1.86528 0
M  V30 23935 C 2289.8 -0.100855 3.3855 0
M  V30 23936 C 2288.84 0.831512 4.18316 0
M  V30 23937 S 2289.68 2.32547 4.82371 0
M  V30 23938 C 2290.83 1.62248 6.04505 0
M  V30 23939 H 2291.07 1.4881 2.57377 0
M  V30 23940 H 2288.6 0.87336 1.27326 0
M  V30 23941 H 2290.56 -0.506827 4.07359 0
M  V30 23942 H 2289.22 -0.951551 2.9934 0
M  V30 23943 H 2288.41 0.278159 5.03232 0
M  V30 23944 H 2288.01 1.17725 3.54988 0
M  V30 23945 H 2290.31 0.92674 6.71132 0
M  V30 23946 H 2291.25 2.44945 6.64385 0
M  V30 23947 H 2291.66 1.10609 5.53557 0
M  V30 23948 N 2291.06 -1.33168 0.84285 0
M  V30 23949 C 2292 -2.29133 0.276925 0
M  V30 23950 C 2292.97 -1.54513 -0.609499 0
M  V30 23951 O 2294.16 -1.82793 -0.546923 0
M  V30 23952 C 2291.3 -3.4087 -0.538647 0
M  V30 23953 C 2290.41 -4.30393 0.372245 0
M  V30 23954 C 2289.55 -5.29249 -0.454815 0
M  V30 23955 C 2288.58 -6.10412 0.454218 0
M  V30 23956 N 2287.72 -7.01301 -0.334952 0
M  V30 23957 H 2292.56 -2.76932 1.10057 0
M  V30 23958 H 2290.1 -1.36262 0.554185 0
M  V30 23959 H 2292.06 -4.04362 -1.02702 0
M  V30 23960 H 2290.69 -2.94253 -1.32722 0
M  V30 23961 H 2289.74 -3.67588 0.978944 0
M  V30 23962 H 2291.05 -4.8718 1.07039 0
M  V30 23963 H 2290.2 -5.98287 -1.00684 0
M  V30 23964 H 2288.94 -4.7305 -1.18638 0
M  V30 23965 H 2287.95 -5.40289 1.01823 0
M  V30 23966 H 2289.17 -6.68695 1.18421 0
M  V30 23967 H 2287.12 -6.47545 -1.04982 0
M  V30 23968 H 2287.04 -7.55387 0.304395 0
M  V30 23969 H 2288.3 -7.7464 -0.869088 0
M  V30 23970 N 2292.53 -0.599659 -1.45746 0
M  V30 23971 C 2293.95 -0.262668 -1.57424 0
M  V30 23972 C 2294.15 1.2349 -1.59224 0
M  V30 23973 O 2293.21 2.01753 -1.51828 0
M  V30 23974 C 2294.52 -0.926845 -2.8606 0
M  V30 23975 C 2296.07 -0.90202 -2.99721 0
M  V30 23976 C 2296.54 -1.54606 -4.31116 0
M  V30 23977 N 2298.03 -1.51118 -4.37856 0
M  V30 23978 C 2298.77 -1.97873 -5.38177 0
M  V30 23979 N 2298.26 -2.52677 -6.45078 0
M  V30 23980 N 2300.06 -1.88688 -5.29484 0
M  V30 23981 H 2292.21 -1.57213 -1.42821 0
M  V30 23982 H 2294.47 -0.658117 -0.682338 0
M  V30 23983 H 2294.18 -1.981 -2.90602 0
M  V30 23984 H 2294.05 -0.445304 -3.74562 0
M  V30 23985 H 2296.44 0.143565 -2.94751 0
M  V30 23986 H 2296.52 -1.42175 -2.1265 0
M  V30 23987 H 2296.16 -2.59093 -4.36845 0
M  V30 23988 H 2296.09 -1.00141 -5.16991 0
M  V30 23989 H 2298.58 -1.11074 -3.61208 0
M  V30 23990 H 2298.9 -2.86167 -7.17864 0
M  V30 23991 H 2297.24 -2.56712 -6.45851 0
M  V30 23992 H 2300.43 -1.45617 -4.44874 0
M  V30 23993 H 2300.61 -2.2544 -6.0752 0
M  V30 23994 N 2294.01 1.53925 -0.338371 0
M  V30 23995 C 2294.96 2.26335 0.536191 0
M  V30 23996 C 2295.95 1.28288 1.10628 0
M  V30 23997 O 2297.16 1.46014 1.05261 0
M  V30 23998 H 2293.53 0.727185 0.191589 0
M  V30 23999 H 2295.51 2.98244 -0.0966271 0
M  V30 24000 C 2294.25 3.04531 1.67798 0
M  V30 24001 H 2293.58 3.79803 1.24857 0
M  V30 24002 H 2295.02 3.5842 2.26519 0
M  V30 24003 C 2293.48 2.13717 2.60436 0
M  V30 24004 O 2294.01 1.72982 3.62547 0
M  V30 24005 N 2292.21 1.78902 2.29003 0
M  V30 24006 H 2291.76 2.12226 1.46007 0
M  V30 24007 H 2291.72 1.18421 2.91245 0
M  V30 24008 N 2295.49 0.0668712 1.57458 0
M  V30 24009 C 2296.45 -0.887385 2.11325 0
M  V30 24010 C 2297.45 -1.22962 1.0362 0
M  V30 24011 O 2298.64 -1.16371 1.29628 0
M  V30 24012 C 2295.77 -2.19237 2.61051 0
M  V30 24013 H 2296.97 -0.420142 2.96942 0
M  V30 24014 H 2294.52 -0.181765 1.5524 0
M  V30 24015 H 2295.26 -2.70509 1.78873 0
M  V30 24016 H 2295.04 -1.95696 3.39773 0
M  V30 24017 H 2296.53 -2.87559 3.02819 0
M  V30 24018 N 2296.97 -1.56239 -0.206647 0
M  V30 24019 C 2298.19 -1.84392 -0.949442 0
M  V30 24020 C 2298.62 -0.649047 -1.76547 0
M  V30 24021 O 2297.98 0.4022 -1.76782 0
M  V30 24022 C 2298.02 -3.10672 -1.83073 0
M  V30 24023 O 2297.13 -2.90412 -2.92805 0
M  V30 24024 H 2296.47 -0.607503 -0.268022 0
M  V30 24025 H 2299 -2.03462 -0.215453 0
M  V30 24026 H 2299.01 -3.41165 -2.23764 0
M  V30 24027 H 2297.68 -3.97263 -1.23105 0
M  V30 24028 H 2296.26 -2.71189 -2.55951 0
M  V30 24029 N 2298.45 0.473929 -1.50305 0
M  V30 24030 C 2299.67 1.24957 -1.64904 0
M  V30 24031 C 2300.09 1.85872 -0.331231 0
M  V30 24032 O 2299.45 1.69096 0.68649 0
M  V30 24033 C 2299.5 2.36033 -2.73807 0
M  V30 24034 O 2299.22 1.77617 -4.0048 0
M  V30 24035 C 2300.72 3.26958 -2.99354 0
M  V30 24036 H 2297.94 0.378013 -0.554389 0
M  V30 24037 H 2300.48 0.566019 -1.96511 0
M  V30 24038 H 2298.64 3.00169 -2.44903 0
M  V30 24039 H 2299.05 2.50742 -4.60683 0
M  V30 24040 H 2300.53 4.01115 -3.79224 0
M  V30 24041 H 2301 3.8557 -2.10314 0
M  V30 24042 H 2301.61 2.68563 -3.29779 0
M  V30 24043 N 2299.92 1.39835 0.726907 0
M  V30 24044 C 2301.17 1.37703 1.48882 0
M  V30 24045 C 2301.5 -0.024451 1.94185 0
M  V30 24046 O 2300.78 -0.990956 1.67363 0
M  V30 24047 C 2301.06 2.35655 2.72284 0
M  V30 24048 C 2300.91 3.84779 2.32949 0
M  V30 24049 C 2302.23 2.31312 3.7441 0
M  V30 24050 H 2299.35 0.501509 0.540053 0
M  V30 24051 H 2301.99 1.70887 0.830516 0
M  V30 24052 H 2300.14 2.07487 3.28453 0
M  V30 24053 H 2301.82 4.23729 1.82349 0
M  V30 24054 H 2300.06 4.01162 1.65081 0
M  V30 24055 H 2300.73 4.48816 3.21354 0
M  V30 24056 H 2303.21 2.56237 3.27844 0
M  V30 24057 H 2302.08 3.01916 4.58408 0
M  V30 24058 H 2302.34 1.32089 4.21906 0
M  V30 24059 N 2301.4 -0.957948 1.25144 0
M  V30 24060 C 2302.35 -2.05411 1.05239 0
M  V30 24061 C 2303.32 -1.66058 -0.0374269 0
M  V30 24062 O 2304.5 -1.90428 0.119106 0
M  V30 24063 C 2301.64 -3.38461 0.673649 0
M  V30 24064 C 2300.76 -3.90951 1.83797 0
M  V30 24065 C 2299.89 -5.12313 1.4039 0
M  V30 24066 C 2298.93 -5.57023 2.53756 0
M  V30 24067 N 2298.07 -6.69598 2.11147 0
M  V30 24068 H 2302.91 -2.21771 1.99052 0
M  V30 24069 H 2300.44 -1.08682 0.991297 0
M  V30 24070 H 2302.4 -4.14926 0.435037 0
M  V30 24071 H 2301.03 -3.21997 -0.227497 0
M  V30 24072 H 2300.08 -3.11037 2.18998 0
M  V30 24073 H 2301.4 -4.20084 2.68944 0
M  V30 24074 H 2300.55 -5.96183 1.12474 0
M  V30 24075 H 2299.29 -4.84887 0.5231 0
M  V30 24076 H 2298.29 -4.71719 2.8242 0
M  V30 24077 H 2299.52 -5.86458 3.42408 0
M  V30 24078 H 2297.47 -6.43887 1.25479 0
M  V30 24079 H 2297.38 -6.98231 2.89844 0
M  V30 24080 H 2298.65 -7.56886 1.86399 0
M  V30 24081 N 2302.88 -1.06677 -1.16008 0
M  V30 24082 C 2304.11 -0.806701 -1.90525 0
M  V30 24083 C 2304.52 0.639365 -1.77644 0
M  V30 24084 O 2303.88 1.43802 -1.12372 0
M  V30 24085 C 2303.93 -1.19711 -3.41104 0
M  V30 24086 O 2303.65 -2.58643 -3.53604 0
M  V30 24087 C 2305.15 -0.965343 -4.32662 0
M  V30 24088 H 2302.37 -0.292177 -0.604048 0
M  V30 24089 H 2304.92 -1.42142 -1.47023 0
M  V30 24090 H 2303.07 -0.626841 -3.82295 0
M  V30 24091 H 2303.49 -2.74383 -4.47006 0
M  V30 24092 H 2304.96 -1.28809 -5.36761 0
M  V30 24093 H 2305.44 0.0987165 -4.39089 0
M  V30 24094 H 2306.04 -1.52018 -3.97204 0
M  V30 24095 N 2304.36 1.32719 -0.8499 0
M  V30 24096 C 2305.27 2.32753 -0.293832 0
M  V30 24097 C 2306.28 1.6384 0.585878 0
M  V30 24098 O 2307.46 1.95414 0.487379 0
M  V30 24099 C 2304.52 3.42888 0.512692 0
M  V30 24100 C 2303.59 4.27501 -0.392595 0
M  V30 24101 C 2302.82 5.32377 0.375532 0
M  V30 24102 O 2303.04 5.47323 1.60603 0
M  V30 24103 O 2301.98 6.01354 -0.2562 0
M  V30 24104 H 2305.8 2.82195 -1.12247 0
M  V30 24105 H 2303.39 1.36258 -0.612709 0
M  V30 24106 H 2305.27 4.10069 0.970632 0
M  V30 24107 H 2303.94 2.95643 1.31821 0
M  V30 24108 H 2302.85 3.63147 -0.89861 0
M  V30 24109 H 2304.18 4.78258 -1.16317 0
M  V30 24110 N 2305.84 0.60738 1.45426 0
M  V30 24111 C 2307.07 0.108692 2.06314 0
M  V30 24112 C 2307.47 -1.21214 1.45271 0
M  V30 24113 O 2306.82 -1.7492 0.561146 0
M  V30 24114 C 2306.88 -0.105554 3.59345 0
M  V30 24115 C 2306.54 1.13344 4.42721 0
M  V30 24116 C 2307.54 2.05153 4.77711 0
M  V30 24117 C 2305.23 1.36221 4.83476 0
M  V30 24118 C 2307.22 3.18167 5.52312 0
M  V30 24119 C 2304.91 2.49536 5.5783 0
M  V30 24120 C 2305.9 3.40337 5.92165 0
M  V30 24121 O 2305.59 4.5168 6.65011 0
M  V30 24122 H 2305.32 0.065896 0.672781 0
M  V30 24123 H 2307.88 0.834978 1.87663 0
M  V30 24124 H 2306.11 -0.88673 3.76396 0
M  V30 24125 H 2307.8 -0.555815 4.02076 0
M  V30 24126 H 2308.56 1.88705 4.46784 0
M  V30 24127 H 2304.44 0.664442 4.56187 0
M  V30 24128 H 2307.99 3.89064 5.79029 0
M  V30 24129 H 2303.88 2.65938 5.88173 0
M  V30 24130 H 2304.65 4.5036 6.83461 0
M  V30 24131 N 2307.31 -1.53743 0.34653 0
M  V30 24132 C 2308.56 -2.00565 -0.248577 0
M  V30 24133 C 2308.88 -1.23596 -1.50828 0
M  V30 24134 O 2308.15 -0.343946 -1.92857 0
M  V30 24135 H 2306.73 -0.740955 -0.0948434 0
M  V30 24136 H 2309.4 -1.89188 0.468375 0
M  V30 24137 H 2308.49 -3.08246 -0.48894 0
M  V30 24138 N 2308.79 -0.0752207 -1.5742 0
M  V30 24139 C 2309.7 0.905473 -2.16422 0
M  V30 24140 C 2310.72 1.32459 -1.1283 0
M  V30 24141 O 2311.89 1.39659 -1.45112 0
M  V30 24142 C 2308.96 2.15365 -2.71696 0
M  V30 24143 C 2308.02 1.79061 -3.90174 0
M  V30 24144 C 2307.25 2.97928 -4.42803 0
M  V30 24145 O 2307.48 4.12051 -3.94423 0
M  V30 24146 O 2306.41 2.77546 -5.3409 0
M  V30 24147 H 2310.24 0.433573 -3.00589 0
M  V30 24148 H 2307.82 0.148041 -1.48665 0
M  V30 24149 H 2309.7 2.88551 -3.07109 0
M  V30 24150 H 2308.38 2.61646 -1.90587 0
M  V30 24151 H 2307.29 1.03116 -3.59608 0
M  V30 24152 H 2308.62 1.3756 -4.72587 0
M  V30 24153 N 2310.27 1.56347 0.198358 0
M  V30 24154 C 2311.52 1.80433 0.919255 0
M  V30 24155 C 2311.85 0.647898 1.83392 0
M  V30 24156 O 2311.1 -0.366522 1.92237 0
M  V30 24157 C 2311.4 3.10478 1.77025 0
M  V30 24158 C 2311.07 4.39515 1.00685 0
M  V30 24159 C 2309.73 4.7457 0.796062 0
M  V30 24160 C 2312.08 5.19081 0.469468 0
M  V30 24161 C 2309.41 5.86689 0.0363557 0
M  V30 24162 C 2311.76 6.31993 -0.277011 0
M  V30 24163 C 2310.42 6.65633 -0.498847 0
M  V30 24164 H 2309.69 0.66025 0.336379 0
M  V30 24165 H 2312.34 1.90596 0.185839 0
M  V30 24166 H 2310.65 2.95538 2.57225 0
M  V30 24167 H 2312.34 3.26319 2.33059 0
M  V30 24168 H 2308.93 4.12003 1.18115 0
M  V30 24169 H 2313.12 4.92416 0.619729 0
M  V30 24170 H 2308.37 6.11227 -0.14552 0
M  V30 24171 H 2312.55 6.92865 -0.700806 0
M  V30 24172 H 2310.17 7.52353 -1.08943 0
M  V30 24173 N 2311.75 -0.465951 1.50554 0
M  V30 24174 C 2312.98 -1.2408 1.65565 0
M  V30 24175 C 2313.39 -1.85693 0.341083 0
M  V30 24176 O 2312.75 -1.69458 -0.677513 0
M  V30 24177 C 2312.8 -2.34578 2.75055 0
M  V30 24178 O 2312.52 -1.7549 4.01416 0
M  V30 24179 C 2314.02 -3.25366 3.01084 0
M  V30 24180 H 2311.24 -0.375067 0.556386 0
M  V30 24181 H 2313.79 -0.55559 1.96808 0
M  V30 24182 H 2311.94 -2.98866 2.46492 0
M  V30 24183 H 2312.35 -2.48295 4.62006 0
M  V30 24184 H 2313.83 -3.99098 3.81346 0
M  V30 24185 H 2314.31 -3.8445 2.12356 0
M  V30 24186 H 2314.91 -2.6681 3.31198 0
M  V30 24187 N 2313.23 -1.40218 -0.719481 0
M  V30 24188 C 2314.16 -1.34574 -1.84296 0
M  V30 24189 C 2315.14 -0.216769 -1.61149 0
M  V30 24190 O 2316.32 -0.399788 -1.84212 0
M  V30 24191 C 2313.45 -1.09341 -3.20566 0
M  V30 24192 C 2312.49 -2.24637 -3.62547 0
M  V30 24193 S 2313.33 -3.8701 -3.70113 0
M  V30 24194 C 2314.48 -3.64033 -5.09147 0
M  V30 24195 H 2314.72 -2.29654 -1.88803 0
M  V30 24196 H 2312.25 -1.26458 -0.885879 0
M  V30 24197 H 2314.21 -0.954672 -3.99245 0
M  V30 24198 H 2312.87 -0.159219 -3.13696 0
M  V30 24199 H 2312.06 -2.02614 -4.6148 0
M  V30 24200 H 2311.66 -2.34794 -2.91115 0
M  V30 24201 H 2313.96 -3.22259 -5.95949 0
M  V30 24202 H 2314.9 -4.62482 -5.36205 0
M  V30 24203 H 2315.31 -2.97801 -4.79557 0
M  V30 24204 N 2314.7 0.951297 -1.25651 0
M  V30 24205 C 2315.63 2.06597 -1.08812 0
M  V30 24206 C 2316.62 1.701 0.00379557 0
M  V30 24207 O 2317.8 1.93486 -0.166359 0
M  V30 24208 C 2314.93 3.39973 -0.709602 0
M  V30 24209 C 2313.88 3.90493 -1.75212 0
M  V30 24210 C 2313.21 5.20403 -1.2282 0
M  V30 24211 C 2314.51 4.16499 -3.1516 0
M  V30 24212 H 2316.2 2.20942 -2.02052 0
M  V30 24213 H 2313.75 1.06168 -0.972854 0
M  V30 24214 H 2315.7 4.17407 -0.578722 0
M  V30 24215 H 2314.43 3.25575 0.258499 0
M  V30 24216 H 2313.09 3.15231 -1.8715 0
M  V30 24217 H 2312.73 5.02377 -0.250233 0
M  V30 24218 H 2312.43 5.55173 -1.92501 0
M  V30 24219 H 2313.96 6.0043 -1.10978 0
M  V30 24220 H 2315.37 4.8458 -3.06357 0
M  V30 24221 H 2313.77 4.62531 -3.82342 0
M  V30 24222 H 2314.84 3.22652 -3.61972 0
M  V30 24223 N 2316.18 1.07291 1.1544 0
M  V30 24224 C 2317.43 0.794129 1.85844 0
M  V30 24225 C 2317.75 -0.681776 1.82693 0
M  V30 24226 O 2317.02 -1.49375 1.26744 0
M  V30 24227 H 2315.6 0.290775 0.688083 0
M  V30 24228 H 2318.26 1.35652 1.39945 0
M  V30 24229 H 2317.36 1.12809 2.90999 0
M  V30 24230 N 2317.66 -1.32267 0.856927 0
M  V30 24231 C 2318.91 -1.9644 0.457633 0
M  V30 24232 C 2319.22 -1.68555 -0.992397 0
M  V30 24233 O 2320.43 -2.26485 -1.49723 0
M  V30 24234 C 2318.88 -3.51623 0.76742 0
M  V30 24235 C 2318.49 -3.88364 2.23333 0
M  V30 24236 C 2320.24 -4.22255 0.435961 0
M  V30 24237 C 2318.14 -5.36601 2.48622 0
M  V30 24238 H 2317.07 -0.735182 0.1674 0
M  V30 24239 H 2319.72 -1.50628 1.04802 0
M  V30 24240 H 2318.11 -3.95857 0.106437 0
M  V30 24241 H 2319.28 -3.55132 2.93629 0
M  V30 24242 H 2317.6 -3.30762 2.52954 0
M  V30 24243 H 2320.19 -5.31297 0.602295 0
M  V30 24244 H 2320.54 -4.11618 -0.6226 0
M  V30 24245 H 2321.07 -3.83612 1.05293 0
M  V30 24246 H 2317.81 -5.52261 3.53111 0
M  V30 24247 H 2317.33 -5.71231 1.82906 0
M  V30 24248 H 2319.01 -6.0371 2.32687 0
M  V30 24249 N 2319.14 -0.615084 -1.45102 0
M  V30 24250 C 2320.37 -0.119632 -2.06253 0
M  V30 24251 C 2320.78 1.20442 -1.45912 0
M  V30 24252 O 2320.12 1.74619 -0.570415 0
M  V30 24253 C 2320.18 0.086496 -3.59396 0
M  V30 24254 C 2319.85 -1.15691 -4.42114 0
M  V30 24255 C 2320.84 -2.07684 -4.76617 0
M  V30 24256 C 2318.53 -1.38783 -4.82747 0
M  V30 24257 C 2320.52 -3.21092 -5.50617 0
M  V30 24258 C 2318.21 -2.52491 -5.56499 0
M  V30 24259 C 2319.21 -3.43473 -5.90352 0
M  V30 24260 O 2318.89 -4.55201 -6.62607 0
M  V30 24261 H 2318.63 -0.069463 -0.672422 0
M  V30 24262 H 2321.18 -0.844918 -1.87217 0
M  V30 24263 H 2319.41 0.866757 -3.76861 0
M  V30 24264 H 2321.1 0.534484 -4.02366 0
M  V30 24265 H 2321.87 -1.91071 -4.45777 0
M  V30 24266 H 2317.74 -0.688625 -4.55828 0
M  V30 24267 H 2321.29 -3.9213 -5.76958 0
M  V30 24268 H 2317.19 -2.69053 -5.86754 0
M  V30 24269 H 2317.95 -4.53978 -6.81063 0
M  V30 24270 N 2320.62 1.53557 -0.354678 0
M  V30 24271 C 2321.89 1.93374 0.294247 0
M  V30 24272 C 2322.27 1.28726 1.67311 0
M  V30 24273 O 2321.62 0.442286 2.24179 0
M  V30 24274 C 2321.83 3.47186 0.355384 0
M  V30 24275 C 2323.18 4.20326 0.600933 0
M  V30 24276 O 2324.2 3.53509 0.437044 0
M  V30 24277 O 2323.06 5.38714 0.919228 0
M  V30 24278 H 2320.16 0.808484 0.174019 0
M  V30 24279 H 2322.7 1.64755 -0.406667 0
M  V30 24280 H 2321.48 3.86488 -0.611797 0
M  V30 24281 H 2321.1 3.82005 1.10263 0
M  V30 24282 N 2322.1 0.083568 1.57378 0
M  V30 24283 C 2323.51 -0.273081 1.57246 0
M  V30 24284 C 2323.71 -1.69224 1.09388 0
M  V30 24285 O 2322.77 -2.4063 0.765093 0
M  V30 24286 C 2324.08 -0.07201 3.00614 0
M  V30 24287 C 2325.63 -0.140645 3.12684 0
M  V30 24288 C 2326.1 0.0322899 4.57989 0
M  V30 24289 N 2327.59 -0.0229271 4.63194 0
M  V30 24290 C 2328.33 0.0862949 5.73335 0
M  V30 24291 N 2327.83 0.249702 6.9235 0
M  V30 24292 N 2329.62 0.0283874 5.62093 0
M  V30 24293 H 2321.77 1.01093 1.86799 0
M  V30 24294 H 2324.03 0.395237 0.86168 0
M  V30 24295 H 2323.74 0.907721 3.39784 0
M  V30 24296 H 2323.61 -0.819296 3.68195 0
M  V30 24297 H 2326 -1.11087 2.73393 0
M  V30 24298 H 2326.08 0.63794 2.47718 0
M  V30 24299 H 2325.72 0.999334 4.97972 0
M  V30 24300 H 2325.65 -0.765846 5.21001 0
M  V30 24301 H 2328.15 -0.147154 3.77613 0
M  V30 24302 H 2328.46 0.324869 7.72117 0
M  V30 24303 H 2326.8 0.285219 6.94415 0
M  V30 24304 H 2329.99 -0.0980586 4.67997 0
M  V30 24305 H 2330.17 0.116959 6.47894 0
M  V30 24306 N 2323.57 -1.5645 -0.190064 0
M  V30 24307 C 2324.82 -1.82086 -0.90644 0
M  V30 24308 C 2325.17 -0.661367 -1.80676 0
M  V30 24309 O 2324.47 0.343204 -1.88501 0
M  V30 24310 C 2324.66 -3.11413 -1.75376 0
M  V30 24311 C 2324.49 -4.3983 -0.936975 0
M  V30 24312 C 2323.26 -5.01489 -0.619419 0
M  V30 24313 C 2325.46 -5.13497 -0.28731 0
M  V30 24314 N 2323.44 -6.13522 0.215475 0
M  V30 24315 C 2324.81 -6.18646 0.409562 0
M  V30 24316 C 2326.87 -4.97484 -0.203552 0
M  V30 24317 C 2325.57 -7.09518 1.18222 0
M  V30 24318 C 2327.6 -5.88783 0.555725 0
M  V30 24319 C 2326.96 -6.93381 1.24103 0
M  V30 24320 H 2323.06 -0.717533 -0.310919 0
M  V30 24321 H 2325.64 -1.93914 -0.174787 0
M  V30 24322 H 2323.81 -3.00811 -2.45698 0
M  V30 24323 H 2325.54 -3.25117 -2.41001 0
M  V30 24324 H 2322.3 -4.64075 -0.945044 0
M  V30 24325 H 2322.72 -6.7413 0.62268 0
M  V30 24326 H 2327.36 -4.16641 -0.719026 0
M  V30 24327 H 2325.08 -7.8982 1.70911 0
M  V30 24328 H 2328.67 -5.78466 0.621955 0
M  V30 24329 H 2327.55 -7.62809 1.81914 0
M  V30 24330 N 2325.05 0.45796 -1.50799 0
M  V30 24331 C 2326.01 1.53671 -1.70053 0
M  V30 24332 C 2327.01 1.50324 -0.570908 0
M  V30 24333 O 2328.2 1.52711 -0.838153 0
M  V30 24334 C 2325.34 2.93273 -1.73793 0
M  V30 24335 H 2326.53 1.37912 -2.66309 0
M  V30 24336 H 2324.08 0.685246 -1.40478 0
M  V30 24337 H 2324.82 3.14461 -0.792773 0
M  V30 24338 H 2324.6 2.97108 -2.55869 0
M  V30 24339 H 2326.09 3.71567 -1.90598 0
M  V30 24340 N 2326.53 1.40598 0.712035 0
M  V30 24341 C 2327.78 1.39274 1.47413 0
M  V30 24342 C 2328.11 -0.00385377 1.942 0
M  V30 24343 O 2327.38 -0.97315 1.68404 0
M  V30 24344 C 2327.67 2.3853 2.6977 0
M  V30 24345 C 2327.52 3.87228 2.28855 0
M  V30 24346 C 2328.84 2.3527 3.71935 0
M  V30 24347 H 2325.96 0.507209 0.534704 0
M  V30 24348 H 2328.6 1.71758 0.812345 0
M  V30 24349 H 2326.75 2.10959 3.26234 0
M  V30 24350 H 2328.42 4.2564 1.77844 0
M  V30 24351 H 2326.66 4.0289 1.60817 0
M  V30 24352 H 2327.34 4.52199 3.16576 0
M  V30 24353 H 2329.81 2.597 3.25108 0
M  V30 24354 H 2328.69 3.06761 4.5518 0
M  V30 24355 H 2328.95 1.36556 4.20482 0
M  V30 24356 N 2328.01 -0.94462 1.26153 0
M  V30 24357 C 2328.94 -2.06017 1.09906 0
M  V30 24358 C 2329.92 -1.70099 0.00522528 0
M  V30 24359 O 2331.1 -1.93395 0.176617 0
M  V30 24360 C 2328.23 -3.39592 0.727622 0
M  V30 24361 C 2327.19 -3.89558 1.77281 0
M  V30 24362 C 2326.51 -5.19744 1.25578 0
M  V30 24363 C 2327.81 -4.14822 3.17365 0
M  V30 24364 H 2329.51 -2.19868 2.03221 0
M  V30 24365 H 2327.05 -1.0565 0.97847 0
M  V30 24366 H 2329.01 -4.17094 0.60085 0
M  V30 24367 H 2327.73 -3.25708 -0.241229 0
M  V30 24368 H 2326.39 -3.14234 1.88819 0
M  V30 24369 H 2326.04 -5.02237 0.276872 0
M  V30 24370 H 2325.74 -5.54144 1.95443 0
M  V30 24371 H 2327.26 -5.99833 1.14161 0
M  V30 24372 H 2328.68 -4.82949 3.08923 0
M  V30 24373 H 2327.07 -4.60497 3.84789 0
M  V30 24374 H 2328.14 -3.20728 3.63678 0
M  V30 24375 N 2329.49 -1.07901 -1.1487 0
M  V30 24376 C 2330.9 -0.827392 -1.67365 0
M  V30 24377 C 2331.25 0.64666 -1.85237 0
M  V30 24378 O 2330.37 1.50001 -1.55976 0
M  V30 24379 C 2330.97 -1.49537 -3.04013 0
M  V30 24380 C 2329.53 -1.29112 -3.53563 0
M  V30 24381 C 2328.67 -1.56147 -2.29158 0
M  V30 24382 H 2331.62 -1.2403 -0.990061 0
M  V30 24383 H 2331.65 -0.919708 -3.69218 0
M  V30 24384 H 2331.16 -2.56819 -2.90974 0
M  V30 24385 H 2329.26 -0.238778 -3.71834 0
M  V30 24386 H 2329.37 -2.01519 -4.34657 0
M  V30 24387 H 2327.74 -0.982758 -2.34976 0
M  V30 24388 H 2328.52 -2.64623 -2.187 0
M  V30 24389 N 2330.96 1.31811 -0.863929 0
M  V30 24390 C 2332.38 1.49638 -0.55503 0
M  V30 24391 C 2332.58 1.79668 0.912234 0
M  V30 24392 O 2331.64 1.87174 1.69476 0
M  V30 24393 C 2332.95 2.63429 -1.45003 0
M  V30 24394 C 2334.5 2.77313 -1.45143 0
M  V30 24395 C 2334.97 3.94193 -2.33186 0
M  V30 24396 N 2336.46 4.0147 -2.31032 0
M  V30 24397 C 2337.2 4.91165 -2.95879 0
M  V30 24398 N 2336.69 5.85803 -3.69873 0
M  V30 24399 N 2338.49 4.84362 -2.85219 0
M  V30 24400 H 2330.64 1.10586 -1.81341 0
M  V30 24401 H 2332.9 0.545881 -0.77506 0
M  V30 24402 H 2332.61 2.47996 -2.49381 0
M  V30 24403 H 2332.48 3.59429 -1.14416 0
M  V30 24404 H 2334.87 2.92164 -0.415253 0
M  V30 24405 H 2334.95 1.81998 -1.79751 0
M  V30 24406 H 2334.59 3.80101 -3.36877 0
M  V30 24407 H 2334.52 4.88803 -1.95906 0
M  V30 24408 H 2337.01 3.33756 -1.77244 0
M  V30 24409 H 2337.33 6.50961 -4.16497 0
M  V30 24410 H 2335.67 5.85801 -3.73981 0
M  V30 24411 H 2338.86 4.09401 -2.26955 0
M  V30 24412 H 2339.04 5.5406 -3.36037 0
M  V30 24413 N 2332.44 0.62277 1.44773 0
M  V30 24414 C 2333.39 -0.108849 2.2774 0
M  V30 24415 C 2334.38 -0.82415 1.3819 0
M  V30 24416 O 2335.57 -0.711636 1.62064 0
M  V30 24417 C 2332.7 -1.0954 3.25355 0
M  V30 24418 C 2331.78 -0.380158 4.22393 0
M  V30 24419 N 2332.17 0.586623 5.02387 0
M  V30 24420 C 2330.47 -0.625715 4.41589 0
M  V30 24421 C 2331.17 1.00844 5.72892 0
M  V30 24422 N 2330.15 0.348973 5.42479 0
M  V30 24423 H 2333.95 0.633461 2.86992 0
M  V30 24424 H 2331.46 0.447617 1.56109 0
M  V30 24425 H 2333.46 -1.63407 3.83541 0
M  V30 24426 H 2332.12 -1.83811 2.67664 0
M  V30 24427 H 2333.13 0.964064 5.08848 0
M  V30 24428 H 2329.81 -1.35193 3.95005 0
M  V30 24429 H 2331.2 1.80667 6.47154 0
M  V30 24430 N 2333.92 -1.53367 0.362817 0
M  V30 24431 C 2334.88 -2.24274 -0.472639 0
M  V30 24432 C 2335.88 -1.24963 -1.01198 0
M  V30 24433 O 2337.07 -1.4926 -0.898168 0
M  V30 24434 C 2334.2 -2.97734 -1.66034 0
M  V30 24435 H 2335.4 -2.99536 0.147782 0
M  V30 24436 H 2332.95 -1.5588 0.114461 0
M  V30 24437 H 2333.69 -2.26708 -2.31892 0
M  V30 24438 H 2333.47 -3.70598 -1.28059 0
M  V30 24439 H 2334.96 -3.51645 -2.25246 0
M  V30 24440 N 2335.4 -0.091913 -1.57332 0
M  V30 24441 C 2336.35 0.868173 -2.13849 0
M  V30 24442 C 2337.32 1.28194 -1.0562 0
M  V30 24443 O 2338.5 1.36425 -1.3339 0
M  V30 24444 C 2335.64 2.12307 -2.72065 0
M  V30 24445 C 2334.75 1.76013 -3.94517 0
M  V30 24446 C 2333.89 2.96265 -4.40908 0
M  V30 24447 C 2332.93 2.56082 -5.55957 0
M  V30 24448 N 2332.06 3.69159 -5.97215 0
M  V30 24449 H 2336.9 0.379354 -2.95576 0
M  V30 24450 H 2334.44 0.17558 -1.46048 0
M  V30 24451 H 2336.4 2.85795 -3.03936 0
M  V30 24452 H 2335.03 2.58695 -1.93072 0
M  V30 24453 H 2334.08 0.92507 -3.68981 0
M  V30 24454 H 2335.39 1.42464 -4.78022 0
M  V30 24455 H 2334.55 3.78009 -4.74546 0
M  V30 24456 H 2333.29 3.33022 -3.56297 0
M  V30 24457 H 2332.29 1.72764 -5.21951 0
M  V30 24458 H 2333.52 2.20473 -6.42315 0
M  V30 24459 H 2331.46 4.0564 -5.1555 0
M  V30 24460 H 2331.38 3.39444 -6.7551 0
M  V30 24461 H 2332.65 4.51423 -6.35482 0
M  V30 24462 N 2336.88 1.56548 0.181765 0
M  V30 24463 C 2338.29 1.71183 0.745214 0
M  V30 24464 C 2338.64 0.700712 1.83261 0
M  V30 24465 O 2337.76 -0.140116 2.15946 0
M  V30 24466 C 2338.36 3.1037 1.35853 0
M  V30 24467 C 2336.92 3.26724 1.86892 0
M  V30 24468 C 2336.06 2.67136 0.743895 0
M  V30 24469 H 2339.02 1.5864 -0.043494 0
M  V30 24470 H 2339.04 3.0844 2.22812 0
M  V30 24471 H 2338.55 3.83938 0.566881 0
M  V30 24472 H 2336.65 2.58095 2.68734 0
M  V30 24473 H 2336.76 4.34362 2.02154 0
M  V30 24474 H 2335.13 2.26667 1.16165 0
M  V30 24475 H 2335.91 3.43281 -0.0357364 0
M  V30 24476 N 2338.35 -0.449957 1.5104 0
M  V30 24477 C 2339.6 -1.19805 1.62761 0
M  V30 24478 C 2339.92 -1.92013 0.340015 0
M  V30 24479 O 2339.19 -1.85027 -0.643573 0
M  V30 24480 H 2337.77 -0.445226 0.599819 0
M  V30 24481 H 2340.44 -0.517105 1.87915 0
M  V30 24482 H 2339.53 -1.93451 2.44915 0
M  V30 24483 N 2339.83 -1.40974 -0.704569 0
M  V30 24484 C 2341.24 -1.35523 -1.28415 0
M  V30 24485 C 2341.59 -0.0339779 -1.96171 0
M  V30 24486 O 2340.72 0.867909 -1.98233 0
M  V30 24487 C 2341.31 -2.45463 -2.33524 0
M  V30 24488 C 2339.87 -2.43438 -2.8708 0
M  V30 24489 C 2339.02 -2.25773 -1.61003 0
M  V30 24490 H 2341.97 -1.5062 -0.499936 0
M  V30 24491 H 2341.99 -2.14004 -3.14615 0
M  V30 24492 H 2341.5 -3.41612 -1.84181 0
M  V30 24493 H 2339.61 -1.51019 -3.40623 0
M  V30 24494 H 2339.72 -3.39425 -3.38124 0
M  V30 24495 H 2338.08 -1.73486 -1.86479 0
M  V30 24496 H 2338.87 -3.23935 -1.13669 0
M  V30 24497 N 2341.31 0.937917 -1.26653 0
M  V30 24498 C 2342.54 1.71878 -1.15176 0
M  V30 24499 C 2342.95 1.86518 0.292635 0
M  V30 24500 O 2342.31 1.3749 1.20011 0
M  V30 24501 C 2342.36 3.12383 -1.81931 0
M  V30 24502 O 2342.08 2.9844 -3.20726 0
M  V30 24503 C 2343.58 4.0667 -1.76449 0
M  V30 24504 H 2340.8 0.538056 -0.40092 0
M  V30 24505 H 2343.35 1.17557 -1.67334 0
M  V30 24506 H 2341.5 3.63596 -1.33703 0
M  V30 24507 H 2341.92 3.87194 -3.53809 0
M  V30 24508 H 2343.39 5.02808 -2.2779 0
M  V30 24509 H 2343.87 4.33062 -0.731684 0
M  V30 24510 H 2344.47 3.61379 -2.24245 0
M  V30 24511 N 2342.79 1.08509 1.14296 0
M  V30 24512 C 2344.04 0.810338 1.84706 0
M  V30 24513 C 2344.35 -0.666238 1.83904 0
M  V30 24514 O 2345.56 -1.05619 2.50114 0
M  V30 24515 C 2344.01 1.39963 3.31569 0
M  V30 24516 C 2343.62 2.90807 3.40786 0
M  V30 24517 C 2345.36 1.20342 4.07085 0
M  V30 24518 C 2343.27 3.42869 4.81866 0
M  V30 24519 H 2342.2 0.299466 0.69198 0
M  V30 24520 H 2344.85 1.30663 1.28838 0
M  V30 24521 H 2343.23 0.831045 3.87182 0
M  V30 24522 H 2344.41 3.53811 2.95219 0
M  V30 24523 H 2342.72 3.09355 2.78727 0
M  V30 24524 H 2345.32 1.56702 5.11223 0
M  V30 24525 H 2345.66 0.14331 4.16053 0
M  V30 24526 H 2346.2 1.739 3.57776 0
M  V30 24527 H 2342.94 4.48457 4.78086 0
M  V30 24528 H 2342.46 2.84624 5.27967 0
M  V30 24529 H 2344.13 3.39519 5.50759 0
M  V30 24530 N 2344.27 -1.31351 0.870907 0
M  V30 24531 C 2345.2 -2.30965 0.343137 0
M  V30 24532 C 2346.18 -1.6039 -0.566479 0
M  V30 24533 O 2347.36 -1.8809 -0.483303 0
M  V30 24534 C 2344.49 -3.44301 -0.455426 0
M  V30 24535 C 2343.45 -4.26473 0.361178 0
M  V30 24536 C 2342.77 -5.31726 -0.563127 0
M  V30 24537 C 2344.07 -4.97326 1.59575 0
M  V30 24538 H 2345.77 -2.75357 1.17553 0
M  V30 24539 H 2343.31 -1.3238 0.566709 0
M  V30 24540 H 2345.27 -4.13041 -0.835178 0
M  V30 24541 H 2343.99 -2.98678 -1.32134 0
M  V30 24542 H 2342.65 -3.59402 0.722888 0
M  V30 24543 H 2342.3 -4.82353 -1.42634 0
M  V30 24544 H 2342 -5.87596 -0.0206376 0
M  V30 24545 H 2343.52 -6.03326 -0.939702 0
M  V30 24546 H 2344.93 -5.58659 1.28738 0
M  V30 24547 H 2343.33 -5.62996 2.07738 0
M  V30 24548 H 2344.4 -4.24258 2.34805 0
M  V30 24549 N 2345.74 -0.630439 -1.44441 0
M  V30 24550 C 2346.68 0.124207 -2.27862 0
M  V30 24551 C 2347.66 0.851907 -1.38497 0
M  V30 24552 O 2348.84 0.856136 -1.67936 0
M  V30 24553 C 2345.97 1.18191 -3.17409 0
M  V30 24554 C 2345.01 0.554817 -4.22876 0
M  V30 24555 S 2345.85 -0.654583 -5.31484 0
M  V30 24556 C 2347 0.40315 -6.246 0
M  V30 24557 H 2347.23 -0.583486 -2.91518 0
M  V30 24558 H 2344.77 -0.418591 -1.48618 0
M  V30 24559 H 2346.73 1.78722 -3.69552 0
M  V30 24560 H 2345.39 1.86179 -2.52974 0
M  V30 24561 H 2344.58 1.3514 -4.85544 0
M  V30 24562 H 2344.18 0.0241448 -3.73992 0
M  V30 24563 H 2346.47 1.2759 -6.65377 0
M  V30 24564 H 2347.42 -0.187937 -7.07851 0
M  V30 24565 H 2347.82 0.728739 -5.59776 0
M  V30 24566 N 2347.22 1.53172 -0.370945 0
M  V30 24567 C 2348.17 2.27422 0.488061 0
M  V30 24568 C 2349.16 1.30606 1.07882 0
M  V30 24569 O 2350.37 1.48214 1.0214 0
M  V30 24570 H 2346.75 0.731085 0.176121 0
M  V30 24571 H 2348.72 2.97971 -0.159867 0
M  V30 24572 C 2347.47 3.08022 1.613 0
M  V30 24573 H 2346.79 3.82366 1.16773 0
M  V30 24574 H 2348.23 3.63144 2.18866 0
M  V30 24575 C 2346.69 2.19193 2.55844 0
M  V30 24576 O 2347.22 1.80633 3.58796 0
M  V30 24577 N 2345.42 1.83719 2.25157 0
M  V30 24578 H 2344.97 2.15275 1.41472 0
M  V30 24579 H 2344.93 1.24572 2.88668 0
M  V30 24580 N 2348.7 0.100255 1.57281 0
M  V30 24581 C 2349.98 -0.604779 1.86016 0
M  V30 24582 C 2350.36 -1.86016 0.998057 0
M  V30 24583 O 2349.71 -2.28387 0.0718585 0
M  V30 24584 C 2349.92 -0.915219 3.36786 0
M  V30 24585 C 2351.26 -1.27643 4.0496 0
M  V30 24586 O 2352.29 -1.00607 3.41697 0
M  V30 24587 O 2351.15 -1.783 5.16596 0
M  V30 24588 H 2348.24 -0.303171 0.769426 0
M  V30 24589 H 2350.79 0.133343 1.69175 0
M  V30 24590 H 2349.56 -0.0248208 3.91292 0
M  V30 24591 H 2349.18 -1.70914 3.5899 0
M  V30 24592 N 2350.18 -1.56643 -0.17346 0
M  V30 24593 C 2351.11 -1.92804 -1.23932 0
M  V30 24594 C 2352.12 -0.820914 -1.40588 0
M  V30 24595 O 2353.31 -1.09936 -1.40629 0
M  V30 24596 C 2350.41 -2.16378 -2.60833 0
M  V30 24597 C 2349.59 -3.47601 -2.65504 0
M  V30 24598 C 2348.65 -3.60027 -3.83754 0
M  V30 24599 O 2347.67 -4.32665 -3.69851 0
M  V30 24600 N 2348.87 -2.94718 -5.00122 0
M  V30 24601 H 2351.64 -2.84834 -0.932186 0
M  V30 24602 H 2349.2 -1.57773 -0.36324 0
M  V30 24603 H 2351.19 -2.21958 -3.38403 0
M  V30 24604 H 2349.76 -1.30743 -2.83946 0
M  V30 24605 H 2348.98 -3.53697 -1.74045 0
M  V30 24606 H 2350.27 -4.33954 -2.65634 0
M  V30 24607 H 2349.67 -2.35572 -5.14318 0
M  V30 24608 H 2348.22 -3.05896 -5.75561 0
M  V30 24609 N 2351.66 0.44194 -1.51277 0
M  V30 24610 C 2352.57 1.56138 -1.75094 0
M  V30 24611 C 2353.58 1.62 -0.634991 0
M  V30 24612 O 2354.76 1.79327 -0.916717 0
M  V30 24613 C 2351.82 2.92155 -1.86672 0
M  V30 24614 C 2350.89 2.96447 -3.10512 0
M  V30 24615 C 2350.12 4.25977 -3.21527 0
M  V30 24616 O 2350.34 5.18101 -2.38595 0
M  V30 24617 O 2349.28 4.36459 -4.14472 0
M  V30 24618 H 2353.1 1.38956 -2.70046 0
M  V30 24619 H 2350.69 0.624476 -1.35723 0
M  V30 24620 H 2352.57 3.72887 -1.96298 0
M  V30 24621 H 2351.24 3.09474 -0.949068 0
M  V30 24622 H 2350.15 2.14687 -3.06366 0
M  V30 24623 H 2351.48 2.84072 -4.0195 0
M  V30 24624 N 2353.14 1.41345 0.697083 0
M  V30 24625 C 2354.38 1.4083 1.45928 0
M  V30 24626 C 2354.71 0.0167439 1.94193 0
M  V30 24627 O 2353.99 -0.955233 1.69427 0
M  V30 24628 C 2354.27 2.41377 2.67224 0
M  V30 24629 C 2354.13 3.89634 2.24735 0
M  V30 24630 C 2355.44 2.39202 3.69419 0
M  V30 24631 H 2352.56 0.512852 0.529294 0
M  V30 24632 H 2355.21 1.7261 0.794082 0
M  V30 24633 H 2353.36 2.14407 3.23978 0
M  V30 24634 H 2355.03 4.27502 1.7332 0
M  V30 24635 H 2353.27 4.04573 1.56535 0
M  V30 24636 H 2353.94 4.55531 3.11762 0
M  V30 24637 H 2356.42 2.63133 3.22335 0
M  V30 24638 H 2355.29 3.11571 4.51901 0
M  V30 24639 H 2355.55 1.41008 4.1901 0
M  V30 24640 N 2354.61 -0.931187 1.27148 0
M  V30 24641 C 2355.86 -1.67518 1.13058 0
M  V30 24642 C 2356.18 -1.92277 -0.324757 0
M  V30 24643 O 2355.45 -1.52656 -1.22772 0
M  V30 24644 H 2354.03 -0.620846 0.415402 0
M  V30 24645 H 2356.69 -1.1183 1.59624 0
M  V30 24646 H 2355.79 -2.64482 1.65698 0
M  V30 24647 N 2356.09 -1.09114 -1.13719 0
M  V30 24648 C 2357.34 -0.826447 -1.85196 0
M  V30 24649 C 2357.67 0.646287 -1.8313 0
M  V30 24650 O 2356.95 1.47561 -1.26712 0
M  V30 24651 C 2357.23 -1.35818 -3.33505 0
M  V30 24652 C 2357.08 -2.89678 -3.44103 0
M  V30 24653 C 2358.4 -0.989332 -4.28836 0
M  V30 24654 H 2355.52 -0.301686 -0.672424 0
M  V30 24655 H 2358.16 -1.35199 -1.33496 0
M  V30 24656 H 2356.31 -0.911148 -3.77664 0
M  V30 24657 H 2357.98 -3.42806 -3.08678 0
M  V30 24658 H 2356.23 -3.26972 -2.85082 0
M  V30 24659 H 2356.9 -3.21959 -4.48382 0
M  V30 24660 H 2359.37 -1.37482 -3.92731 0
M  V30 24661 H 2358.25 -1.38848 -5.31049 0
M  V30 24662 H 2358.51 0.102846 -4.4198 0
M  V30 24663 N 2357.57 1.30887 -0.877861 0
M  V30 24664 C 2358.5 2.3078 -0.355381 0
M  V30 24665 C 2359.48 1.60688 0.557965 0
M  V30 24666 O 2360.67 1.88344 0.473322 0
M  V30 24667 C 2357.8 3.44538 0.437161 0
M  V30 24668 C 2356.75 4.26276 -0.38379 0
M  V30 24669 C 2356.08 5.32018 0.534921 0
M  V30 24670 C 2357.38 4.96473 -1.6221 0
M  V30 24671 H 2359.07 2.7473 -1.19012 0
M  V30 24672 H 2356.62 1.32077 -0.573722 0
M  V30 24673 H 2358.57 4.13478 0.813261 0
M  V30 24674 H 2357.29 2.99374 1.30548 0
M  V30 24675 H 2355.95 3.59014 -0.741938 0
M  V30 24676 H 2355.6 4.83103 1.40074 0
M  V30 24677 H 2355.3 5.87599 -0.0105244 0
M  V30 24678 H 2356.82 6.03816 0.907693 0
M  V30 24679 H 2358.24 5.57968 -1.31699 0
M  V30 24680 H 2356.63 5.61887 -2.10721 0
M  V30 24681 H 2357.7 4.23006 -2.37052 0
M  V30 24682 N 2359.05 0.638091 1.44105 0
M  V30 24683 C 2360.32 0.0759664 1.95452 0
M  V30 24684 C 2360.7 -1.40012 1.57987 0
M  V30 24685 O 2360.05 -2.11804 0.857398 0
M  V30 24686 C 2360.26 0.306193 3.47654 0
M  V30 24687 C 2361.61 0.203083 4.24114 0
M  V30 24688 O 2362.63 0.237933 3.55404 0
M  V30 24689 O 2361.49 0.113923 5.46381 0
M  V30 24690 H 2358.59 -0.0183187 0.826797 0
M  V30 24691 H 2361.13 0.710278 1.54121 0
M  V30 24692 H 2359.91 1.33016 3.67998 0
M  V30 24693 H 2359.53 -0.361921 3.95949 0
M  V30 24694 N 2360.53 -1.52973 0.379063 0
M  V30 24695 C 2361.49 -2.24763 -0.448826 0
M  V30 24696 C 2362.49 -1.26029 -0.998667 0
M  V30 24697 O 2363.68 -1.50204 -0.882286 0
M  V30 24698 C 2360.81 -2.99478 -1.62866 0
M  V30 24699 H 2362 -2.99362 0.179544 0
M  V30 24700 H 2359.56 -1.5575 0.130988 0
M  V30 24701 H 2360.29 -2.29155 -2.29475 0
M  V30 24702 H 2360.08 -3.71936 -1.24121 0
M  V30 24703 H 2361.57 -3.54014 -2.21504 0
M  V30 24704 N 2362 -0.108595 -1.57225 0
M  V30 24705 C 2362.95 0.845443 -2.14758 0
M  V30 24706 C 2363.92 1.27066 -1.06974 0
M  V30 24707 O 2365.11 1.35003 -1.34829 0
M  V30 24708 C 2362.25 2.0941 -2.74302 0
M  V30 24709 C 2361.36 1.71819 -3.96361 0
M  V30 24710 C 2360.49 2.91572 -4.44026 0
M  V30 24711 C 2359.53 2.50171 -5.58642 0
M  V30 24712 N 2358.67 3.62804 -6.01097 0
M  V30 24713 H 2363.51 0.347983 -2.95961 0
M  V30 24714 H 2361.05 0.16008 -1.46226 0
M  V30 24715 H 2363 2.82555 -3.0695 0
M  V30 24716 H 2361.63 2.56632 -1.95805 0
M  V30 24717 H 2360.69 0.885882 -3.69941 0
M  V30 24718 H 2362 1.37386 -4.79507 0
M  V30 24719 H 2361.15 3.72955 -4.78528 0
M  V30 24720 H 2359.89 3.29225 -3.59809 0
M  V30 24721 H 2358.9 1.67218 -5.23754 0
M  V30 24722 H 2360.12 2.13648 -6.44617 0
M  V30 24723 H 2358.07 4.00149 -5.19824 0
M  V30 24724 H 2357.98 3.32261 -6.79072 0
M  V30 24725 H 2359.25 4.44657 -6.40235 0
M  V30 24726 N 2363.48 1.56732 0.16515 0
M  V30 24727 C 2364.39 2.00127 1.22419 0
M  V30 24728 C 2365.41 0.913645 1.48083 0
M  V30 24729 O 2366.58 1.22175 1.6011 0
M  V30 24730 C 2363.65 2.35769 2.54193 0
M  V30 24731 C 2362.71 3.5839 2.36337 0
M  V30 24732 C 2361.94 3.92322 3.61827 0
M  V30 24733 O 2362.17 3.27143 4.67262 0
M  V30 24734 O 2361.1 4.85647 3.5557 0
M  V30 24735 H 2364.93 2.90494 0.885835 0
M  V30 24736 H 2362.51 1.44682 0.372492 0
M  V30 24737 H 2364.39 2.59635 3.31915 0
M  V30 24738 H 2363.07 1.48562 2.87595 0
M  V30 24739 H 2361.97 3.39734 1.56626 0
M  V30 24740 H 2363.31 4.46157 2.07857 0
M  V30 24741 N 2364.96 -0.433911 1.51509 0
M  V30 24742 C 2365.89 -1.53426 1.76019 0
M  V30 24743 C 2366.87 -1.58781 0.610139 0
M  V30 24744 O 2368.06 -1.74453 0.853207 0
M  V30 24745 C 2365.19 -2.91476 1.88836 0
M  V30 24746 C 2364.14 -3.00981 3.04293 0
M  V30 24747 C 2363.47 -4.41044 3.02298 0
M  V30 24748 C 2364.77 -2.74746 4.44198 0
M  V30 24749 H 2366.46 -1.33167 2.68155 0
M  V30 24750 H 2364.01 -0.639191 1.29036 0
M  V30 24751 H 2365.96 -3.68417 2.04565 0
M  V30 24752 H 2364.68 -3.12975 0.93351 0
M  V30 24753 H 2363.34 -2.26481 2.88274 0
M  V30 24754 H 2362.99 -4.59515 2.04584 0
M  V30 24755 H 2362.69 -4.48333 3.7983 0
M  V30 24756 H 2364.21 -5.19954 3.20125 0
M  V30 24757 H 2365.63 -3.41418 4.6055 0
M  V30 24758 H 2364.03 -2.93441 5.23462 0
M  V30 24759 H 2365.1 -1.70331 4.53999 0
M  V30 24760 N 2366.44 -1.41713 -0.689577 0
M  V30 24761 C 2367.68 -1.41602 -1.45179 0
M  V30 24762 C 2368.02 -0.0270422 -1.94181 0
M  V30 24763 O 2367.29 0.946235 -1.69931 0
M  V30 24764 C 2367.58 -2.42791 -2.65941 0
M  V30 24765 C 2367.43 -3.9082 -2.22665 0
M  V30 24766 C 2368.75 -2.41158 -3.68145 0
M  V30 24767 H 2365.87 -0.515651 -0.526567 0
M  V30 24768 H 2368.51 -1.73029 -0.784917 0
M  V30 24769 H 2366.66 -2.16122 -3.22837 0
M  V30 24770 H 2368.33 -4.28415 -1.7105 0
M  V30 24771 H 2366.57 -4.05397 -1.54387 0
M  V30 24772 H 2367.24 -4.57178 -3.09342 0
M  V30 24773 H 2369.72 -2.64839 -3.20935 0
M  V30 24774 H 2368.6 -3.13963 -4.50242 0
M  V30 24775 H 2368.86 -1.43228 -4.18256 0
M  V30 24776 N 2367.92 0.924431 -1.2764 0
M  V30 24777 C 2369.19 1.65099 -1.04889 0
M  V30 24778 C 2369.57 2.06975 0.41529 0
M  V30 24779 O 2368.92 1.80651 1.3992 0
M  V30 24780 C 2369.13 2.85058 -2.01353 0
M  V30 24781 C 2370.48 3.56325 -2.30906 0
M  V30 24782 O 2371.5 2.9519 -1.99353 0
M  V30 24783 O 2370.36 4.6648 -2.84708 0
M  V30 24784 H 2367.46 0.723777 -0.400096 0
M  V30 24785 H 2370 0.974679 -1.38918 0
M  V30 24786 H 2368.77 2.51128 -3.00084 0
M  V30 24787 H 2368.4 3.60407 -1.67907 0
M  V30 24788 N 2369.39 1.09715 1.13139 0
M  V30 24789 C 2370.34 0.739235 2.18641 0
M  V30 24790 C 2371.31 -0.28095 1.63707 0
M  V30 24791 O 2372.5 -0.161912 1.90112 0
M  V30 24792 C 2369.64 0.169162 3.44685 0
M  V30 24793 C 2368.75 1.24375 4.13709 0
M  V30 24794 C 2367.88 0.636112 5.27378 0
M  V30 24795 C 2366.92 1.6918 5.88256 0
M  V30 24796 N 2366.06 1.10497 6.9335 0
M  V30 24797 H 2370.9 1.64316 2.48604 0
M  V30 24798 H 2368.44 0.820896 1.22064 0
M  V30 24799 H 2370.4 -0.179182 4.16815 0
M  V30 24800 H 2369.03 -0.698024 3.15163 0
M  V30 24801 H 2368.08 1.70933 3.39832 0
M  V30 24802 H 2369.39 2.04319 4.55033 0
M  V30 24803 H 2368.54 0.236784 6.06238 0
M  V30 24804 H 2367.28 -0.194843 4.87311 0
M  V30 24805 H 2366.29 2.10064 5.08088 0
M  V30 24806 H 2367.51 2.52547 6.30394 0
M  V30 24807 H 2365.46 0.29535 6.55335 0
M  V30 24808 H 2365.38 1.84134 7.33233 0
M  V30 24809 H 2366.64 0.731946 7.76056 0
M  V30 24810 N 2370.87 -1.30419 0.88479 0
M  V30 24811 C 2372.15 -1.90967 0.423219 0
M  V30 24812 C 2372.53 -1.80418 -1.09601 0
M  V30 24813 O 2371.88 -1.22128 -1.93124 0
M  V30 24814 C 2372.09 -3.36625 0.921115 0
M  V30 24815 C 2373.44 -4.13698 0.955976 0
M  V30 24816 O 2374.46 -3.45468 0.867767 0
M  V30 24817 O 2373.32 -5.35596 1.08623 0
M  V30 24818 H 2370.41 -0.816816 0.129383 0
M  V30 24819 H 2372.96 -1.38988 0.973678 0
M  V30 24820 H 2371.73 -3.38386 1.96495 0
M  V30 24821 H 2371.35 -3.96058 0.34981 0
M  V30 24822 N 2372.35 -0.645724 -1.43764 0
M  V30 24823 C 2373.6 -0.155767 -2.01499 0
M  V30 24824 C 2373.92 1.23197 -1.51154 0
M  V30 24825 O 2373.19 1.82146 -0.721076 0
M  V30 24826 H 2371.77 -0.0545948 -0.745002 0
M  V30 24827 H 2374.43 -0.835708 -1.76074 0
M  V30 24828 H 2373.53 -0.134631 -3.11809 0
M  V30 24829 N 2373.83 1.5277 -0.38717 0
M  V30 24830 C 2375.06 2.05971 0.195833 0
M  V30 24831 C 2375.47 1.25905 1.40689 0
M  V30 24832 O 2374.83 0.305166 1.79931 0
M  V30 24833 C 2374.88 3.57009 0.568058 0
M  V30 24834 O 2374.6 4.34042 -0.594879 0
M  V30 24835 C 2376.1 4.26547 1.20715 0
M  V30 24836 H 2373.32 0.670327 0.0300461 0
M  V30 24837 H 2375.87 1.96915 -0.551784 0
M  V30 24838 H 2374.02 3.66145 1.26557 0
M  V30 24839 H 2374.43 5.23701 -0.289414 0
M  V30 24840 H 2375.91 5.33477 1.41798 0
M  V30 24841 H 2376.39 3.81627 2.17388 0
M  V30 24842 H 2376.99 4.21723 0.550461 0
M  V30 24843 N 2375.31 0.116931 1.57166 0
M  V30 24844 C 2376.25 -0.85138 2.16458 0
M  V30 24845 C 2377.25 -1.27684 1.11325 0
M  V30 24846 O 2378.45 -1.24882 1.29632 0
M  V30 24847 H 2374.83 -0.29266 0.692715 0
M  V30 24848 H 2376.8 -0.326797 2.96605 0
M  V30 24849 C 2375.55 -2.09241 2.77693 0
M  V30 24850 H 2374.87 -1.77396 3.58289 0
M  V30 24851 H 2376.31 -2.75004 3.22721 0
M  V30 24852 C 2374.77 -2.88082 1.74672 0
M  V30 24853 O 2375.3 -3.83394 1.19884 0
M  V30 24854 N 2373.51 -2.52035 1.44661 0
M  V30 24855 H 2373.05 -1.74596 1.89405 0
M  V30 24856 H 2373.01 -3.05083 0.759729 0
M  V30 24857 N 2376.78 -1.56818 -0.156836 0
M  V30 24858 C 2377.71 -2.00553 -1.19586 0
M  V30 24859 C 2378.7 -0.883452 -1.45359 0
M  V30 24860 O 2379.88 -1.15057 -1.56447 0
M  V30 24861 C 2377.01 -2.37777 -2.53139 0
M  V30 24862 C 2375.96 -3.53079 -2.41907 0
M  V30 24863 C 2375.29 -3.76088 -3.80082 0
M  V30 24864 C 2376.59 -4.86065 -1.91149 0
M  V30 24865 H 2378.28 -2.87601 -0.832243 0
M  V30 24866 H 2375.83 -1.38365 -0.398894 0
M  V30 24867 H 2377.78 -2.66972 -3.26042 0
M  V30 24868 H 2376.51 -1.47655 -2.91317 0
M  V30 24869 H 2375.17 -3.24034 -1.71457 0
M  V30 24870 H 2374.81 -2.83233 -4.15678 0
M  V30 24871 H 2374.51 -4.53677 -3.73431 0
M  V30 24872 H 2376.04 -4.07698 -4.54549 0
M  V30 24873 H 2377.45 -5.14042 -2.53837 0
M  V30 24874 H 2375.85 -5.67392 -1.95412 0
M  V30 24875 H 2376.92 -4.77094 -0.866589 0
M  V30 24876 N 2378.26 0.425871 -1.51737 0
M  V30 24877 C 2379.17 1.54272 -1.76741 0
M  V30 24878 C 2380.19 1.61317 -0.652138 0
M  V30 24879 O 2381.36 1.78345 -0.935686 0
M  V30 24880 C 2378.43 2.90159 -1.8976 0
M  V30 24881 C 2377.49 2.93137 -3.13638 0
M  V30 24882 C 2376.72 4.22542 -3.26027 0
M  V30 24883 O 2376.95 5.15541 -2.44076 0
M  V30 24884 O 2375.88 4.32038 -4.19078 0
M  V30 24885 H 2379.71 1.36084 -2.71505 0
M  V30 24886 H 2377.29 0.610045 -1.36377 0
M  V30 24887 H 2379.17 3.70784 -2.00242 0
M  V30 24888 H 2377.85 3.0845 -0.981839 0
M  V30 24889 H 2376.76 2.11425 -3.08626 0
M  V30 24890 H 2378.09 2.79792 -4.04941 0
M  V30 24891 N 2379.74 1.42077 0.682052 0
M  V30 24892 C 2380.67 1.4777 1.80793 0
M  V30 24893 C 2381.65 0.334983 1.66769 0
M  V30 24894 O 2382.84 0.548297 1.86299 0
M  V30 24895 C 2379.97 1.37235 3.19036 0
M  V30 24896 C 2378.92 2.49459 3.47785 0
M  V30 24897 C 2378.25 2.23983 4.85526 0
M  V30 24898 C 2379.55 3.91783 3.45404 0
M  V30 24899 H 2381.24 2.42 1.76285 0
M  V30 24900 H 2378.79 1.16477 0.846701 0
M  V30 24901 H 2380.74 1.39828 3.97525 0
M  V30 24902 H 2379.46 0.394964 3.24203 0
M  V30 24903 H 2378.12 2.46171 2.71653 0
M  V30 24904 H 2377.77 1.24556 4.87334 0
M  V30 24905 H 2377.47 2.99193 5.05725 0
M  V30 24906 H 2378.99 2.28314 5.66308 0
M  V30 24907 H 2380.41 3.96712 4.13875 0
M  V30 24908 H 2378.81 4.66784 3.77137 0
M  V30 24909 H 2379.88 4.1897 2.44115 0
M  V30 24910 N 2381.22 -0.917649 1.28129 0
M  V30 24911 C 2382.45 -1.70024 1.17895 0
M  V30 24912 C 2382.86 -1.8696 -0.262925 0
M  V30 24913 O 2382.22 -1.39382 -1.17809 0
M  V30 24914 C 2382.27 -3.09449 1.86878 0
M  V30 24915 O 2381.99 -2.933 3.25433 0
M  V30 24916 C 2383.49 -4.03811 1.82897 0
M  V30 24917 H 2380.71 -0.531609 0.409429 0
M  V30 24918 H 2383.26 -1.1488 1.69183 0
M  V30 24919 H 2381.41 -3.61423 1.3947 0
M  V30 24920 H 2381.83 -3.81516 3.59924 0
M  V30 24921 H 2383.3 -4.9912 2.3576 0
M  V30 24922 H 2383.78 -4.31844 0.800488 0
M  V30 24923 H 2384.38 -3.57765 2.29965 0
M  V30 24924 N 2382.7 -1.10314 -1.12555 0
M  V30 24925 C 2383.63 -0.772837 -2.20339 0
M  V30 24926 C 2384.61 0.25362 -1.68199 0
M  V30 24927 O 2385.79 0.119665 -1.93831 0
M  V30 24928 C 2382.92 -0.202504 -3.46709 0
M  V30 24929 C 2381.88 -1.15951 -4.11994 0
M  V30 24930 C 2381.2 -0.450438 -5.32799 0
M  V30 24931 C 2382.5 -2.5056 -4.58276 0
M  V30 24932 H 2384.2 -1.67405 -2.48226 0
M  V30 24933 H 2381.74 -0.806347 -1.19307 0
M  V30 24934 H 2383.7 0.0407012 -4.2138 0
M  V30 24935 H 2382.42 0.733945 -3.18246 0
M  V30 24936 H 2381.08 -1.38814 -3.39302 0
M  V30 24937 H 2380.73 0.490443 -5.00603 0
M  V30 24938 H 2380.43 -1.08862 -5.77428 0
M  V30 24939 H 2381.95 -0.215749 -6.10219 0
M  V30 24940 H 2383.37 -2.31852 -5.24326 0
M  V30 24941 H 2381.76 -3.10251 -5.13677 0
M  V30 24942 H 2382.83 -3.1065 -3.72323 0
M  V30 24943 N 2384.18 1.29948 -0.891694 0
M  V30 24944 C 2385.11 2.3039 -0.379838 0
M  V30 24945 C 2386.09 1.61271 0.540891 0
M  V30 24946 O 2387.27 1.88835 0.453319 0
M  V30 24947 C 2384.4 3.44982 0.400593 0
M  V30 24948 C 2383.36 4.25845 -0.42898 0
M  V30 24949 C 2382.68 5.32555 0.478463 0
M  V30 24950 C 2383.98 4.94724 -1.67467 0
M  V30 24951 H 2385.68 2.73452 -1.21919 0
M  V30 24952 H 2383.22 1.31461 -0.587698 0
M  V30 24953 H 2385.17 4.14317 0.769361 0
M  V30 24954 H 2383.9 3.00742 1.27365 0
M  V30 24955 H 2382.56 3.58207 -0.779974 0
M  V30 24956 H 2382.21 4.84561 1.34943 0
M  V30 24957 H 2381.91 5.87555 -0.0728465 0
M  V30 24958 H 2383.43 6.04744 0.843599 0
M  V30 24959 H 2384.84 5.5654 -1.3761 0
M  V30 24960 H 2383.24 5.5962 -2.16668 0
M  V30 24961 H 2384.31 4.20468 -2.41525 0
M  V30 24962 N 2385.65 0.653339 1.4342 0
M  V30 24963 C 2386.6 -0.0381866 2.30768 0
M  V30 24964 C 2387.57 -0.814551 1.44756 0
M  V30 24965 O 2388.76 -0.791131 1.73625 0
M  V30 24966 C 2385.9 -0.998541 3.30338 0
M  V30 24967 C 2385.01 -0.218266 4.31448 0
M  V30 24968 C 2384.14 -1.17243 5.181 0
M  V30 24969 C 2383.18 -0.382595 6.10903 0
M  V30 24970 N 2382.32 -1.28836 6.90178 0
M  V30 24971 H 2387.16 0.712562 2.89355 0
M  V30 24972 H 2384.7 0.363153 1.42547 0
M  V30 24973 H 2386.65 -1.56894 3.86575 0
M  V30 24974 H 2385.28 -1.71616 2.734 0
M  V30 24975 H 2384.34 0.468427 3.77505 0
M  V30 24976 H 2385.65 0.395899 4.97226 0
M  V30 24977 H 2384.8 -1.81346 5.78963 0
M  V30 24978 H 2383.54 -1.8205 4.52448 0
M  V30 24979 H 2382.55 0.271787 5.49128 0
M  V30 24980 H 2383.77 0.261076 6.78598 0
M  V30 24981 H 2381.72 -1.92323 6.27175 0
M  V30 24982 H 2381.63 -0.728755 7.52479 0
M  V30 24983 H 2382.9 -1.91753 7.55547 0
M  V30 24984 N 2387.13 -1.52563 0.395266 0
M  V30 24985 C 2388.06 -2.29538 -0.428344 0
M  V30 24986 C 2389.04 -1.33171 -1.05828 0
M  V30 24987 O 2390.23 -1.62069 -1.06992 0
M  V30 24988 C 2387.36 -3.10659 -1.55268 0
M  V30 24989 C 2386.31 -4.14959 -1.04848 0
M  V30 24990 C 2385.64 -4.84341 -2.26535 0
M  V30 24991 C 2386.94 -5.22179 -0.112232 0
M  V30 24992 H 2388.63 -2.98635 0.213919 0
M  V30 24993 H 2386.18 -1.43622 0.104323 0
M  V30 24994 H 2388.13 -3.63269 -2.13573 0
M  V30 24995 H 2386.85 -2.39306 -2.22262 0
M  V30 24996 H 2385.51 -3.63339 -0.487921 0
M  V30 24997 H 2385.16 -4.0953 -2.92052 0
M  V30 24998 H 2384.86 -5.54841 -1.93457 0
M  V30 24999 H 2386.39 -5.39758 -2.85471 0
M  V30 25000 H 2387.8 -5.70113 -0.603652 0
M  V30 25001 H 2386.2 -5.99961 0.129073 0
M  V30 25002 H 2387.27 -4.77619 0.837136 0
M  V30 25003 N 2388.61 -0.125265 -1.57101 0
M  V30 25004 C 2389.56 0.839889 -2.16907 0
M  V30 25005 C 2390.55 1.27092 -1.12 0
M  V30 25006 O 2391.76 1.24193 -1.30293 0
M  V30 25007 H 2388.13 0.288982 -0.694257 0
M  V30 25008 H 2390.1 0.311063 -2.96774 0
M  V30 25009 C 2388.85 2.07766 -2.78799 0
M  V30 25010 H 2388.18 1.75494 -3.59224 0
M  V30 25011 H 2389.62 2.73289 -3.24175 0
M  V30 25012 C 2388.07 2.87152 -1.76198 0
M  V30 25013 O 2388.6 3.82752 -1.21916 0
M  V30 25014 N 2386.81 2.51264 -1.45995 0
M  V30 25015 H 2386.36 1.73589 -1.90328 0
M  V30 25016 H 2386.32 3.04676 -0.775897 0
M  V30 25017 N 2390.09 1.56899 0.148518 0
M  V30 25018 C 2391.5 1.51529 0.501104 0
M  V30 25019 C 2391.7 0.833431 1.83456 0
M  V30 25020 O 2390.76 0.403324 2.49258 0
M  V30 25021 C 2392.07 2.96295 0.512812 0
M  V30 25022 C 2393.62 3.07226 0.598433 0
M  V30 25023 C 2394.1 4.53495 0.640818 0
M  V30 25024 N 2395.59 4.57833 0.703082 0
M  V30 25025 C 2396.32 5.68383 0.756835 0
M  V30 25026 N 2395.82 6.88507 0.770026 0
M  V30 25027 N 2397.61 5.56412 0.7976 0
M  V30 25028 H 2389.76 1.99623 -0.725567 0
M  V30 25029 H 2392.02 0.91039 -0.264374 0
M  V30 25030 H 2391.73 3.49432 -0.398753 0
M  V30 25031 H 2391.6 3.52166 1.35126 0
M  V30 25032 H 2393.99 2.54109 1.50042 0
M  V30 25033 H 2394.07 2.54401 -0.267137 0
M  V30 25034 H 2393.72 5.07249 -0.257004 0
M  V30 25035 H 2393.65 5.041 1.52286 0
M  V30 25036 H 2396.14 3.71356 0.700248 0
M  V30 25037 H 2396.45 7.68513 0.812848 0
M  V30 25038 H 2394.8 6.91071 0.737927 0
M  V30 25039 H 2397.99 4.6148 0.784454 0
M  V30 25040 H 2398.16 6.42584 0.836027 0
M  V30 25041 N 2391.57 -0.417818 1.51961 0
M  V30 25042 C 2392.51 -1.52904 1.7528 0
M  V30 25043 C 2393.51 -1.57661 0.619639 0
M  V30 25044 O 2394.71 -1.61171 0.801486 0
M  V30 25045 H 2391.09 -0.508352 0.55415 0
M  V30 25046 H 2393.06 -1.30417 2.68391 0
M  V30 25047 C 2391.81 -2.90365 1.91267 0
M  V30 25048 H 2391.13 -2.87445 2.77877 0
M  V30 25049 H 2392.57 -3.67433 2.11587 0
M  V30 25050 C 2391.03 -3.30018 0.677489 0
M  V30 25051 O 2391.56 -4.01386 -0.158728 0
M  V30 25052 N 2389.77 -2.85984 0.515901 0
M  V30 25053 H 2389.31 -2.28075 1.19748 0
M  V30 25054 H 2389.27 -3.12875 -0.30926 0
M  V30 25055 N 2393.04 -1.42436 -0.674508 0
M  V30 25056 C 2393.95 -1.4834 -1.81748 0
M  V30 25057 C 2394.97 -0.372129 -1.69974 0
M  V30 25058 O 2396.15 -0.623074 -1.9152 0
M  V30 25059 C 2393.21 -1.38367 -3.17892 0
M  V30 25060 C 2392.27 -2.59988 -3.41621 0
M  V30 25061 C 2391.5 -2.50481 -4.71269 0
M  V30 25062 O 2391.73 -1.54084 -5.49194 0
M  V30 25063 O 2390.66 -3.40619 -4.96248 0
M  V30 25064 H 2394.49 -2.44813 -1.79723 0
M  V30 25065 H 2392.07 -1.24204 -0.83029 0
M  V30 25066 H 2393.95 -1.35168 -3.99133 0
M  V30 25067 H 2392.63 -0.450201 -3.20554 0
M  V30 25068 H 2391.54 -2.68762 -2.60227 0
M  V30 25069 H 2392.87 -3.52235 -3.43789 0
M  V30 25070 N 2394.52 0.910841 -1.28614 0
M  V30 25071 C 2395.47 2.01363 -1.1279 0
M  V30 25072 C 2396.44 1.66082 -0.0242302 0
M  V30 25073 O 2397.62 1.89855 -0.1897 0
M  V30 25074 C 2394.76 3.35728 -0.798802 0
M  V30 25075 C 2393.88 3.8386 -1.9818 0
M  V30 25076 C 2393.01 5.06749 -1.59307 0
M  V30 25077 C 2392.05 5.47221 -2.74254 0
M  V30 25078 N 2391.19 6.613 -2.35854 0
M  V30 25079 H 2396.03 2.1423 -2.07146 0
M  V30 25080 H 2393.56 1.04928 -1.03095 0
M  V30 25081 H 2395.52 4.13025 -0.588734 0
M  V30 25082 H 2394.15 3.2262 0.107833 0
M  V30 25083 H 2393.2 3.02695 -2.30391 0
M  V30 25084 H 2394.52 4.09813 -2.8435 0
M  V30 25085 H 2393.67 5.91598 -1.34524 0
M  V30 25086 H 2392.41 4.82611 -0.702702 0
M  V30 25087 H 2391.41 4.60912 -2.99733 0
M  V30 25088 H 2392.64 5.73346 -3.63938 0
M  V30 25089 H 2390.59 6.38787 -1.4929 0
M  V30 25090 H 2390.5 6.86993 -3.15558 0
M  V30 25091 H 2391.77 7.49446 -2.14361 0
M  V30 25092 N 2396 1.10909 1.11969 0
M  V30 25093 C 2397.25 0.85454 1.83586 0
M  V30 25094 C 2397.58 -0.619867 1.84358 0
M  V30 25095 O 2396.83 -1.47329 1.28812 0
M  V30 25096 C 2397.13 1.35431 3.30746 0
M  V30 25097 C 2396.8 2.84099 3.50141 0
M  V30 25098 C 2395.46 3.24696 3.55142 0
M  V30 25099 C 2397.81 3.79878 3.5685 0
M  V30 25100 C 2395.14 4.59813 3.64402 0
M  V30 25101 C 2397.49 5.14804 3.67641 0
M  V30 25102 C 2396.15 5.54968 3.709 0
M  V30 25103 H 2395.42 0.312698 0.671789 0
M  V30 25104 H 2398.07 1.38654 1.32088 0
M  V30 25105 H 2396.38 0.742429 3.84701 0
M  V30 25106 H 2398.07 1.13377 3.84638 0
M  V30 25107 H 2394.66 2.51691 3.46914 0
M  V30 25108 H 2398.85 3.49617 3.52252 0
M  V30 25109 H 2394.1 4.90346 3.652 0
M  V30 25110 H 2398.28 5.8886 3.71776 0
M  V30 25111 H 2395.9 6.59659 3.77828 0
M  V30 25112 N 2397.48 -1.29474 0.898573 0
M  V30 25113 C 2398.89 -1.48114 0.594509 0
M  V30 25114 C 2399.09 -1.82023 -0.864278 0
M  V30 25115 O 2398.15 -1.91602 -1.64454 0
M  V30 25116 C 2399.46 -2.59492 1.51936 0
M  V30 25117 C 2401.01 -2.73367 1.52444 0
M  V30 25118 C 2401.49 -3.87872 2.43555 0
M  V30 25119 N 2402.98 -3.95204 2.41596 0
M  V30 25120 C 2403.71 -4.83148 3.08798 0
M  V30 25121 N 2403.21 -5.75791 3.85275 0
M  V30 25122 N 2405 -4.7663 2.97961 0
M  V30 25123 H 2397.15 -1.05739 1.84209 0
M  V30 25124 H 2399.42 -0.52514 0.78926 0
M  V30 25125 H 2399.12 -2.41296 2.55869 0
M  V30 25126 H 2399 -3.56269 1.23905 0
M  V30 25127 H 2401.38 -2.9096 0.492569 0
M  V30 25128 H 2401.46 -1.77169 1.84513 0
M  V30 25129 H 2401.11 -3.71035 3.46836 0
M  V30 25130 H 2401.04 -4.83437 2.08797 0
M  V30 25131 H 2403.53 -3.28939 1.86031 0
M  V30 25132 H 2403.84 -6.39689 4.3361 0
M  V30 25133 H 2402.19 -5.7568 3.89381 0
M  V30 25134 H 2405.38 -4.03239 2.3773 0
M  V30 25135 H 2405.55 -5.44956 3.50609 0
M  V30 25136 N 2398.96 -0.660936 -1.43071 0
M  V30 25137 C 2400.23 -0.107052 -1.95307 0
M  V30 25138 C 2400.61 1.37481 -1.60194 0
M  V30 25139 O 2399.96 2.10413 -0.890986 0
M  V30 25140 C 2400.17 -0.361463 -3.47123 0
M  V30 25141 C 2401.52 -0.27053 -4.23737 0
M  V30 25142 O 2402.54 -0.294445 -3.54981 0
M  V30 25143 O 2401.4 -0.200833 -5.46131 0
M  V30 25144 H 2398.5 0.00516275 -0.826984 0
M  V30 25145 H 2401.04 -0.734708 -1.52971 0
M  V30 25146 H 2399.81 -1.38854 -3.65835 0
M  V30 25147 H 2399.44 0.298883 -3.96475 0
M  V30 25148 N 2400.43 1.52351 -0.403352 0
M  V30 25149 C 2401.68 2.00934 0.175632 0
M  V30 25150 C 2402 1.29359 1.46716 0
M  V30 25151 O 2403.2 1.68727 2.12705 0
M  V30 25152 C 2401.66 3.58059 0.363549 0
M  V30 25153 C 2401.27 4.38545 -0.915549 0
M  V30 25154 C 2403.01 4.1489 0.898137 0
M  V30 25155 C 2400.92 5.873 -0.695139 0
M  V30 25156 H 2399.85 0.750798 0.0694102 0
M  V30 25157 H 2402.5 1.75742 -0.52791 0
M  V30 25158 H 2400.88 3.79557 1.12928 0
M  V30 25159 H 2402.05 4.28809 -1.68698 0
M  V30 25160 H 2400.37 3.93004 -1.37612 0
M  V30 25161 H 2402.97 5.237 1.07898 0
M  V30 25162 H 2403.31 3.71876 1.8712 0
M  V30 25163 H 2403.84 3.97338 0.191612 0
M  V30 25164 H 2400.58 6.34663 -1.6396 0
M  V30 25165 H 2400.1 5.99789 0.0371062 0
M  V30 25166 H 2401.78 6.46132 -0.335084 0
M  V30 25167 N 2401.91 0.133594 1.57033 0
M  V30 25168 C 2403.33 -0.222916 1.58036 0
M  V30 25169 C 2403.53 -1.65658 1.14716 0
M  V30 25170 O 2402.58 -2.38074 0.84126 0
M  V30 25171 C 2403.9 0.0236644 3.00691 0
M  V30 25172 C 2405.45 -0.0410961 3.12973 0
M  V30 25173 C 2405.92 0.177979 4.57654 0
M  V30 25174 N 2407.41 0.124446 4.63033 0
M  V30 25175 C 2408.15 0.268653 5.7277 0
M  V30 25176 N 2407.64 0.469842 6.91205 0
M  V30 25177 N 2409.44 0.207199 5.61718 0
M  V30 25178 H 2401.59 1.06985 1.83489 0
M  V30 25179 H 2403.85 0.42245 0.848669 0
M  V30 25180 H 2403.56 1.01536 3.36724 0
M  V30 25181 H 2403.43 -0.701743 3.70615 0
M  V30 25182 H 2405.82 -1.02333 2.76789 0
M  V30 25183 H 2405.9 0.716426 2.45563 0
M  V30 25184 H 2405.54 1.15725 4.9454 0
M  V30 25185 H 2405.47 -0.599705 5.23174 0
M  V30 25186 H 2407.96 -0.0269446 3.7789 0
M  V30 25187 H 2408.28 0.570347 7.70692 0
M  V30 25188 H 2406.62 0.505997 6.93156 0
M  V30 25189 H 2409.81 0.0508808 4.68072 0
M  V30 25190 H 2409.98 0.323023 6.47194 0
M  V30 25191 N 2403.39 -1.56975 -0.140195 0
M  V30 25192 C 2404.64 -1.83357 -0.849973 0
M  V30 25193 C 2404.96 -0.715542 -1.81397 0
M  V30 25194 O 2404.23 0.26226 -1.94137 0
M  V30 25195 H 2402.81 -0.676461 -0.316874 0
M  V30 25196 H 2405.47 -1.94449 -0.132573 0
M  V30 25197 H 2404.57 -2.7853 -1.4081 0
M  V30 25198 N 2404.87 0.409753 -1.5218 0
M  V30 25199 C 2406.12 1.15676 -1.66208 0
M  V30 25200 C 2406.44 1.90515 -0.391707 0
M  V30 25201 O 2405.7 1.85441 0.625297 0
M  V30 25202 C 2406 2.17718 -2.83432 0
M  V30 25203 C 2405.66 1.59691 -4.21675 0
M  V30 25204 C 2404.33 1.43591 -4.59277 0
M  V30 25205 C 2406.68 1.17308 -5.07827 0
M  V30 25206 C 2404.01 0.836226 -5.8071 0
M  V30 25207 C 2406.36 0.58758 -6.29865 0
M  V30 25208 C 2405.02 0.413701 -6.66217 0
M  V30 25209 H 2404.29 0.42329 -0.6082 0
M  V30 25210 H 2406.94 0.444064 -1.8628 0
M  V30 25211 H 2405.24 2.95131 -2.57692 0
M  V30 25212 H 2406.94 2.75389 -2.91482 0
M  V30 25213 H 2403.53 1.73206 -3.92043 0
M  V30 25214 H 2407.71 1.28556 -4.79361 0
M  V30 25215 H 2402.97 0.689519 -6.07499 0
M  V30 25216 H 2407.14 0.250772 -6.95948 0
M  V30 25217 H 2404.77 -0.0530807 -7.60181 0
M  V30 25218 N 2406.35 1.42792 0.666944 0
M  V30 25219 C 2407.28 1.4968 1.79216 0
M  V30 25220 C 2408.26 0.352652 1.66404 0
M  V30 25221 O 2409.44 0.568026 1.85707 0
M  V30 25222 C 2406.57 1.40611 3.17562 0
M  V30 25223 C 2405.53 2.53133 3.45119 0
M  V30 25224 C 2404.85 2.2912 4.83123 0
M  V30 25225 C 2406.15 3.95424 3.41229 0
M  V30 25226 H 2407.85 2.43856 1.73709 0
M  V30 25227 H 2405.39 1.17369 0.834299 0
M  V30 25228 H 2407.35 1.44036 3.9602 0
M  V30 25229 H 2406.07 0.429327 3.23766 0
M  V30 25230 H 2404.73 2.49039 2.69027 0
M  V30 25231 H 2404.38 1.29717 4.85986 0
M  V30 25232 H 2404.08 3.0454 5.02523 0
M  V30 25233 H 2405.6 2.34307 5.63855 0
M  V30 25234 H 2407.01 4.0108 4.09644 0
M  V30 25235 H 2405.41 4.70758 3.72165 0
M  V30 25236 H 2406.48 4.21536 2.39657 0
M  V30 25237 N 2407.82 -0.904008 1.29095 0
M  V30 25238 C 2408.79 -1.98917 1.13863 0
M  V30 25239 C 2409.79 -1.60623 0.0753739 0
M  V30 25240 O 2410.98 -1.71199 0.321961 0
M  V30 25241 C 2408.11 -3.32766 0.740257 0
M  V30 25242 H 2409.3 -2.13858 2.1025 0
M  V30 25243 H 2406.86 -1.08795 1.1222 0
M  V30 25244 H 2407.59 -3.23526 -0.223941 0
M  V30 25245 H 2407.38 -3.61923 1.50844 0
M  V30 25246 H 2408.87 -4.12405 0.656619 0
M  V30 25247 N 2409.3 -1.11501 -1.11379 0
M  V30 25248 C 2410.72 -0.849054 -1.35142 0
M  V30 25249 C 2410.92 0.525904 -1.94516 0
M  V30 25250 O 2409.97 1.27659 -2.17852 0
M  V30 25251 C 2411.29 -1.95766 -2.28246 0
M  V30 25252 C 2412.84 -1.9874 -2.41808 0
M  V30 25253 C 2413.31 -3.08806 -3.38235 0
M  V30 25254 N 2414.8 -3.08185 -3.45798 0
M  V30 25255 C 2415.54 -3.8999 -4.20352 0
M  V30 25256 N 2415.03 -4.81759 -4.97876 0
M  V30 25257 N 2416.83 -3.78165 -4.1587 0
M  V30 25258 H 2408.98 -2.0011 -0.712027 0
M  V30 25259 H 2411.24 -0.870242 -0.37601 0
M  V30 25260 H 2410.95 -2.9479 -1.91812 0
M  V30 25261 H 2410.82 -1.85439 -3.2847 0
M  V30 25262 H 2413.21 -1.00343 -2.77516 0
M  V30 25263 H 2413.29 -2.13144 -1.41434 0
M  V30 25264 H 2412.93 -4.0743 -3.03254 0
M  V30 25265 H 2412.86 -2.91643 -4.38466 0
M  V30 25266 H 2415.35 -2.41696 -2.90502 0
M  V30 25267 H 2415.67 -5.40712 -5.52133 0
M  V30 25268 H 2414.01 -4.8578 -4.97034 0
M  V30 25269 H 2417.2 -3.05814 -3.54394 0
M  V30 25270 H 2417.37 -4.42151 -4.73716 0
M  V30 25271 N 2410.78 1.28995 -0.905426 0
M  V30 25272 C 2411.69 2.31297 -0.392286 0
M  V30 25273 C 2412.71 1.66177 0.51586 0
M  V30 25274 O 2413.88 1.97305 0.404059 0
M  V30 25275 C 2410.95 3.44754 0.3668 0
M  V30 25276 C 2410.01 4.25451 -0.57356 0
M  V30 25277 C 2409.24 5.33491 0.149394 0
M  V30 25278 O 2409.47 5.53643 1.37245 0
M  V30 25279 O 2408.4 5.99727 -0.511024 0
M  V30 25280 H 2412.23 2.77181 -1.24115 0
M  V30 25281 H 2409.81 1.33537 -0.669949 0
M  V30 25282 H 2411.69 4.13817 0.795834 0
M  V30 25283 H 2410.37 3.00968 1.19163 0
M  V30 25284 H 2409.27 3.59009 -1.05182 0
M  V30 25285 H 2410.61 4.72895 -1.36497 0
M  V30 25286 N 2412.26 0.668514 1.42719 0
M  V30 25287 C 2413.17 -0.013934 2.34596 0
M  V30 25288 C 2414.19 -0.795675 1.54742 0
M  V30 25289 O 2415.36 -0.739433 1.87335 0
M  V30 25290 C 2412.43 -0.957924 3.33204 0
M  V30 25291 C 2411.49 -0.171415 4.28958 0
M  V30 25292 C 2410.72 -1.07044 5.22855 0
M  V30 25293 O 2410.94 -2.30991 5.21535 0
M  V30 25294 O 2409.88 -0.534621 5.99521 0
M  V30 25295 H 2413.7 0.742713 2.94478 0
M  V30 25296 H 2411.29 0.428731 1.43116 0
M  V30 25297 H 2413.17 -1.50001 3.93799 0
M  V30 25298 H 2411.85 -1.69453 2.75803 0
M  V30 25299 H 2410.75 0.414624 3.71795 0
M  V30 25300 H 2412.09 0.525946 4.89382 0
M  V30 25301 N 2413.74 -1.52135 0.411426 0
M  V30 25302 C 2414.7 -2.25664 -0.401049 0
M  V30 25303 C 2415.7 -1.28119 -0.97171 0
M  V30 25304 O 2416.89 -1.52042 -0.850227 0
M  V30 25305 C 2414.02 -3.02866 -1.56477 0
M  V30 25306 H 2415.22 -2.98914 0.243003 0
M  V30 25307 H 2412.77 -1.55437 0.163995 0
M  V30 25308 H 2413.5 -2.33971 -2.24562 0
M  V30 25309 H 2413.29 -3.74485 -1.16204 0
M  V30 25310 H 2414.78 -3.58633 -2.13945 0
M  V30 25311 N 2415.22 -0.14192 -1.5696 0
M  V30 25312 C 2416.13 0.812866 -2.20067 0
M  V30 25313 C 2417.14 1.27554 -1.18346 0
M  V30 25314 O 2418.32 1.33379 -1.50904 0
M  V30 25315 C 2415.38 2.03647 -2.80586 0
M  V30 25316 C 2414.44 1.62352 -3.97417 0
M  V30 25317 C 2413.68 2.78879 -4.55041 0
M  V30 25318 O 2413.9 3.94952 -4.11545 0
M  V30 25319 O 2412.83 2.54644 -5.45381 0
M  V30 25320 H 2416.66 0.305693 -3.02158 0
M  V30 25321 H 2414.24 0.0848537 -1.49159 0
M  V30 25322 H 2416.13 2.75266 -3.19071 0
M  V30 25323 H 2414.8 2.53327 -2.01512 0
M  V30 25324 H 2413.71 0.877711 -3.63658 0
M  V30 25325 H 2415.04 1.17393 -4.77996 0
M  V30 25326 N 2416.69 1.57047 0.131868 0
M  V30 25327 C 2417.94 1.84442 0.843147 0
M  V30 25328 C 2418.27 0.725781 1.80128 0
M  V30 25329 O 2417.55 -0.269436 1.92625 0
M  V30 25330 C 2417.83 3.22385 1.60437 0
M  V30 25331 C 2417.68 4.44832 0.666704 0
M  V30 25332 C 2419 3.57735 2.56347 0
M  V30 25333 H 2416.12 0.670896 0.305069 0
M  V30 25334 H 2418.76 1.89694 0.107806 0
M  V30 25335 H 2416.91 3.18039 2.23122 0
M  V30 25336 H 2418.59 4.61273 0.0496835 0
M  V30 25337 H 2416.83 4.33794 -0.0226853 0
M  V30 25338 H 2417.5 5.37991 1.23569 0
M  V30 25339 H 2419.98 3.62789 2.03773 0
M  V30 25340 H 2418.85 4.55256 3.06649 0
M  V30 25341 H 2419.11 2.84479 3.38414 0
M  V30 25342 N 2418.17 -0.401677 1.52395 0
M  V30 25343 C 2419.12 -1.51036 1.76892 0
M  V30 25344 C 2420.11 -1.56994 0.636326 0
M  V30 25345 O 2421.32 -1.60312 0.818535 0
M  V30 25346 H 2417.69 -0.502446 0.559511 0
M  V30 25347 H 2419.67 -1.27563 2.6976 0
M  V30 25348 C 2418.41 -2.8832 1.94336 0
M  V30 25349 H 2417.74 -2.84481 2.8091 0
M  V30 25350 H 2419.18 -3.65168 2.15473 0
M  V30 25351 C 2417.64 -3.29281 0.712454 0
M  V30 25352 O 2418.17 -4.01532 -0.116147 0
M  V30 25353 N 2416.37 -2.85421 0.546204 0
M  V30 25354 H 2415.92 -2.26792 1.2216 0
M  V30 25355 H 2415.88 -3.13186 -0.276058 0
M  V30 25356 N 2419.65 -1.43144 -0.659362 0
M  V30 25357 C 2420.56 -1.50259 -1.80165 0
M  V30 25358 C 2421.58 -0.390136 -1.6957 0
M  V30 25359 O 2422.75 -0.643352 -1.90848 0
M  V30 25360 C 2419.82 -1.41731 -3.16407 0
M  V30 25361 C 2418.88 -2.63597 -3.38844 0
M  V30 25362 C 2418.11 -2.55466 -4.68586 0
M  V30 25363 O 2418.33 -1.59901 -5.47529 0
M  V30 25364 O 2417.27 -3.45863 -4.92608 0
M  V30 25365 H 2421.09 -2.46705 -1.77117 0
M  V30 25366 H 2418.68 -1.25077 -0.81707 0
M  V30 25367 H 2420.56 -1.39394 -3.97677 0
M  V30 25368 H 2419.24 -0.484174 -3.20058 0
M  V30 25369 H 2418.14 -2.71507 -2.57361 0
M  V30 25370 H 2419.48 -3.55862 -3.40034 0
M  V30 25371 N 2421.13 0.897149 -1.29572 0
M  V30 25372 C 2422.09 1.9831 -1.14917 0
M  V30 25373 C 2423.09 1.60581 -0.0838911 0
M  V30 25374 O 2424.28 1.71026 -0.331036 0
M  V30 25375 C 2421.41 3.32368 -0.757893 0
M  V30 25376 H 2422.61 2.1274 -2.11381 0
M  V30 25377 H 2420.16 1.08199 -1.12795 0
M  V30 25378 H 2420.89 3.2364 0.20678 0
M  V30 25379 H 2420.68 3.61118 -1.52761 0
M  V30 25380 H 2422.17 4.12051 -0.67848 0
M  V30 25381 N 2422.61 1.1209 1.10786 0
M  V30 25382 C 2423.85 0.875258 1.8294 0
M  V30 25383 C 2424.18 -0.597506 1.8478 0
M  V30 25384 O 2423.46 -1.44149 1.3058 0
M  V30 25385 C 2423.74 1.44612 3.29787 0
M  V30 25386 C 2423.6 2.98699 3.36302 0
M  V30 25387 C 2424.91 1.10268 4.26062 0
M  V30 25388 H 2422.03 0.319408 0.664189 0
M  V30 25389 H 2424.68 1.38691 1.29865 0
M  V30 25390 H 2422.83 1.01096 3.75116 0
M  V30 25391 H 2424.5 3.50869 2.99481 0
M  V30 25392 H 2422.74 3.34416 2.76312 0
M  V30 25393 H 2423.41 3.33734 4.39688 0
M  V30 25394 H 2425.89 1.47847 3.88948 0
M  V30 25395 H 2424.76 1.52879 5.27181 0
M  V30 25396 H 2425.02 0.0143731 4.42098 0
M  V30 25397 N 2424.08 -1.28513 0.912254 0
M  V30 25398 C 2425.01 -2.29756 0.416443 0
M  V30 25399 C 2425.99 -1.62111 -0.515166 0
M  V30 25400 O 2427.18 -1.89532 -0.423219 0
M  V30 25401 C 2424.31 -3.45576 -0.345659 0
M  V30 25402 C 2423.26 -4.25108 0.496674 0
M  V30 25403 C 2422.59 -5.33249 -0.393678 0
M  V30 25404 C 2423.89 -4.91998 1.75316 0
M  V30 25405 H 2425.58 -2.71478 1.26254 0
M  V30 25406 H 2423.13 -1.3051 0.608538 0
M  V30 25407 H 2425.08 -4.15489 -0.703349 0
M  V30 25408 H 2423.81 -3.0273 -1.22565 0
M  V30 25409 H 2422.47 -3.5692 0.836863 0
M  V30 25410 H 2422.11 -4.86647 -1.27217 0
M  V30 25411 H 2421.81 -5.87365 0.166312 0
M  V30 25412 H 2423.34 -6.0601 -0.747283 0
M  V30 25413 H 2424.75 -5.5428 1.46446 0
M  V30 25414 H 2423.15 -5.56102 2.25544 0
M  V30 25415 H 2424.22 -4.16573 2.48184 0
M  V30 25416 N 2425.56 -0.676073 -1.42362 0
M  V30 25417 C 2426.53 -0.00770969 -2.29199 0
M  V30 25418 C 2427.53 0.72772 -1.43391 0
M  V30 25419 O 2428.72 0.565531 -1.64765 0
M  V30 25420 C 2425.85 0.999727 -3.25911 0
M  V30 25421 H 2427.04 -0.772039 -2.89792 0
M  V30 25422 H 2424.59 -0.438495 -1.50023 0
M  V30 25423 H 2425.33 1.7925 -2.70259 0
M  V30 25424 H 2425.11 0.475761 -3.89203 0
M  V30 25425 H 2426.6 1.46577 -3.91031 0
M  V30 25426 N 2427.04 1.51915 -0.419488 0
M  V30 25427 C 2428.29 2.01109 0.154311 0
M  V30 25428 C 2428.6 1.30908 1.45336 0
M  V30 25429 O 2429.81 1.70974 2.10903 0
M  V30 25430 C 2428.26 3.58425 0.325552 0
M  V30 25431 C 2427.87 4.37549 -0.962011 0
M  V30 25432 C 2429.62 4.15819 0.854082 0
M  V30 25433 C 2427.52 5.8653 -0.757391 0
M  V30 25434 H 2426.45 0.751492 0.0614431 0
M  V30 25435 H 2429.1 1.75172 -0.54652 0
M  V30 25436 H 2427.49 3.80733 1.08896 0
M  V30 25437 H 2428.66 4.26996 -1.73237 0
M  V30 25438 H 2426.98 3.91522 -1.41773 0
M  V30 25439 H 2429.57 5.24815 1.02337 0
M  V30 25440 H 2429.92 3.7384 1.83165 0
M  V30 25441 H 2430.45 3.97519 0.149458 0
M  V30 25442 H 2427.19 6.32889 -1.70682 0
M  V30 25443 H 2426.71 5.99794 -0.0265115 0
M  V30 25444 H 2428.39 6.4574 -0.403596 0
M  V30 25445 N 2428.52 0.150242 1.56882 0
M  V30 25446 C 2429.47 -0.805274 2.18216 0
M  V30 25447 C 2430.46 -1.25294 1.14008 0
M  V30 25448 O 2431.67 -1.22104 1.32252 0
M  V30 25449 H 2428.04 -0.277901 0.698767 0
M  V30 25450 H 2430.01 -0.26381 2.97232 0
M  V30 25451 C 2428.76 -2.03304 2.82069 0
M  V30 25452 H 2428.08 -1.69756 3.61971 0
M  V30 25453 H 2429.52 -2.68097 3.28481 0
M  V30 25454 C 2427.98 -2.84312 1.80744 0
M  V30 25455 O 2428.51 -3.80764 1.27989 0
M  V30 25456 N 2426.72 -2.4891 1.49974 0
M  V30 25457 H 2426.27 -1.70539 1.93065 0
M  V30 25458 H 2426.22 -3.03403 0.82427 0
M  V30 25459 N 2430 -1.57115 -0.123538 0
M  V30 25460 C 2431.22 -1.88794 -0.846427 0
M  V30 25461 C 2431.64 -0.741007 -1.73651 0
M  V30 25462 O 2431 0.288361 -1.80207 0
M  V30 25463 C 2431.05 -3.199 -1.68364 0
M  V30 25464 O 2430.77 -4.30177 -0.829401 0
M  V30 25465 C 2432.27 -3.65253 -2.51208 0
M  V30 25466 H 2429.49 -0.625235 -0.243562 0
M  V30 25467 H 2432.03 -2.04208 -0.109288 0
M  V30 25468 H 2430.19 -3.06169 -2.37358 0
M  V30 25469 H 2430.6 -5.05292 -1.40642 0
M  V30 25470 H 2432.08 -4.59761 -3.05489 0
M  V30 25471 H 2432.55 -2.91686 -3.28354 0
M  V30 25472 H 2433.16 -3.81756 -1.87464 0
M  V30 25473 N 2431.47 0.393589 -1.52606 0
M  V30 25474 C 2432.7 1.16492 -1.71594 0
M  V30 25475 C 2433.12 1.83087 -0.431363 0
M  V30 25476 O 2432.48 1.70641 0.612493 0
M  V30 25477 C 2432.53 2.19208 -2.86322 0
M  V30 25478 O 2431.63 3.25695 -2.52975 0
M  V30 25479 H 2430.98 0.33934 -0.57074 0
M  V30 25480 H 2433.51 0.459289 -1.99378 0
M  V30 25481 H 2433.52 2.63281 -3.11684 0
M  V30 25482 H 2432.19 1.70123 -3.79514 0
M  V30 25483 H 2430.77 2.86792 -2.38337 0
M  V30 25484 N 2432.95 1.43492 0.651762 0
M  V30 25485 C 2433.9 1.48763 1.7646 0
M  V30 25486 C 2434.87 0.337217 1.62641 0
M  V30 25487 O 2436.05 0.544576 1.82863 0
M  V30 25488 C 2433.19 1.41802 3.14621 0
M  V30 25489 C 2432.31 2.67059 3.39563 0
M  V30 25490 C 2431.44 2.52076 4.6758 0
M  V30 25491 C 2430.48 3.72595 4.85633 0
M  V30 25492 N 2429.62 3.56413 6.04908 0
M  V30 25493 H 2434.46 2.43852 1.71289 0
M  V30 25494 H 2432 1.21044 0.835868 0
M  V30 25495 H 2433.95 1.3576 3.94494 0
M  V30 25496 H 2432.58 0.502936 3.18858 0
M  V30 25497 H 2431.64 2.83374 2.53778 0
M  V30 25498 H 2432.95 3.56578 3.48788 0
M  V30 25499 H 2432.1 2.4375 5.55582 0
M  V30 25500 H 2430.84 1.60084 4.60678 0
M  V30 25501 H 2429.85 3.81328 3.96067 0
M  V30 25502 H 2431.07 4.65598 4.94364 0
M  V30 25503 H 2429.02 2.67156 5.99136 0
M  V30 25504 H 2428.93 4.39534 6.15098 0
M  V30 25505 H 2430.2 3.51941 6.95527 0
M  V30 25506 N 2434.43 -0.890264 1.30046 0
M  V30 25507 C 2435.68 -1.64161 1.18564 0
M  V30 25508 C 2436.01 -1.92743 -0.260818 0
M  V30 25509 O 2435.26 -1.54301 -1.20373 0
M  V30 25510 C 2435.56 -2.99246 1.95415 0
M  V30 25511 C 2435.23 -2.90236 3.45071 0
M  V30 25512 C 2433.89 -2.87486 3.85883 0
M  V30 25513 C 2436.24 -2.7875 4.40395 0
M  V30 25514 C 2433.57 -2.71081 5.20319 0
M  V30 25515 C 2435.92 -2.63884 5.74933 0
M  V30 25516 C 2434.58 -2.59505 6.1499 0
M  V30 25517 H 2433.85 -0.600708 0.433856 0
M  V30 25518 H 2436.5 -1.03549 1.6109 0
M  V30 25519 H 2434.81 -3.63778 1.45508 0
M  V30 25520 H 2436.5 -3.56331 1.83927 0
M  V30 25521 H 2433.09 -2.93183 3.12637 0
M  V30 25522 H 2437.28 -2.79945 4.09811 0
M  V30 25523 H 2432.53 -2.66102 5.50454 0
M  V30 25524 H 2436.71 -2.53969 6.48439 0
M  V30 25525 H 2434.33 -2.46552 7.19108 0
M  V30 25526 N 2435.91 -1.12676 -1.1019 0
M  V30 25527 C 2437.32 -0.897633 -1.63705 0
M  V30 25528 C 2437.67 0.567513 -1.87813 0
M  V30 25529 O 2436.8 1.43251 -1.62198 0
M  V30 25530 C 2437.39 -1.62297 -2.97397 0
M  V30 25531 C 2435.95 -1.43992 -3.47769 0
M  V30 25532 C 2435.1 -1.65726 -2.22329 0
M  V30 25533 H 2438.05 -1.28118 -0.936565 0
M  V30 25534 H 2438.07 -1.07548 -3.64985 0
M  V30 25535 H 2437.58 -2.68929 -2.79819 0
M  V30 25536 H 2435.68 -0.396271 -3.70487 0
M  V30 25537 H 2435.79 -2.19773 -4.25719 0
M  V30 25538 H 2434.16 -1.08154 -2.30597 0
M  V30 25539 H 2434.94 -2.7366 -2.0728 0
M  V30 25540 N 2437.39 1.28028 -0.919057 0
M  V30 25541 C 2438.33 2.29103 -0.401793 0
M  V30 25542 C 2439.33 1.61562 0.509326 0
M  V30 25543 O 2440.53 1.75725 0.389983 0
M  V30 25544 H 2436.91 0.743711 -0.111344 0
M  V30 25545 H 2438.88 2.70154 -1.26725 0
M  V30 25546 C 2437.63 3.46052 0.338088 0
M  V30 25547 H 2436.95 3.98231 -0.353802 0
M  V30 25548 H 2438.39 4.18759 0.664579 0
M  V30 25549 C 2436.85 2.99234 1.54793 0
M  V30 25550 O 2437.38 3.02162 2.6469 0
M  V30 25551 N 2435.59 2.54832 1.39675 0
M  V30 25552 H 2435.13 2.52648 0.502653 0
M  V30 25553 H 2435.09 2.23867 2.20751 0
M  V30 25554 N 2438.86 0.683613 1.42002 0
M  V30 25555 C 2439.8 -0.0395519 2.28166 0
M  V30 25556 C 2440.78 -0.799918 1.41563 0
M  V30 25557 O 2441.96 -0.793218 1.70998 0
M  V30 25558 C 2439.09 -1.06329 3.21577 0
M  V30 25559 C 2438.13 -0.397488 4.24644 0
M  V30 25560 S 2438.97 0.851389 5.28689 0
M  V30 25561 C 2440.12 -0.171056 6.25666 0
M  V30 25562 H 2440.35 0.691279 2.89152 0
M  V30 25563 H 2437.89 0.473461 1.46962 0
M  V30 25564 H 2439.85 -1.64883 3.75931 0
M  V30 25565 H 2438.51 -1.76662 2.5971 0
M  V30 25566 H 2437.7 -1.17026 4.90225 0
M  V30 25567 H 2437.3 0.114677 3.73824 0
M  V30 25568 H 2439.59 -1.02807 6.69654 0
M  V30 25569 H 2440.54 0.450522 7.06665 0
M  V30 25570 H 2440.94 -0.520479 5.62095 0
M  V30 25571 N 2440.34 -1.5169 0.427538 0
M  V30 25572 C 2441.57 -2.06119 -0.14095 0
M  V30 25573 C 2441.98 -1.2959 -1.37851 0
M  V30 25574 O 2441.32 -0.346067 -1.80411 0
M  V30 25575 C 2441.39 -3.55448 -0.538213 0
M  V30 25576 C 2441.05 -4.5316 0.591174 0
M  V30 25577 C 2442.05 -4.98969 1.46036 0
M  V30 25578 C 2439.73 -4.96377 0.769115 0
M  V30 25579 C 2441.73 -5.86656 2.49227 0
M  V30 25580 C 2439.41 -5.83856 1.80431 0
M  V30 25581 C 2440.41 -6.28892 2.66428 0
M  V30 25582 O 2440.1 -7.14636 3.68171 0
M  V30 25583 H 2439.83 -0.675817 -0.0157336 0
M  V30 25584 H 2442.39 -1.96364 0.60253 0
M  V30 25585 H 2440.62 -3.62953 -1.33425 0
M  V30 25586 H 2442.3 -3.92437 -1.03673 0
M  V30 25587 H 2443.07 -4.66283 1.33437 0
M  V30 25588 H 2438.95 -4.6087 0.109354 0
M  V30 25589 H 2442.49 -6.21729 3.16383 0
M  V30 25590 H 2438.39 -6.15955 1.93053 0
M  V30 25591 H 2439.16 -7.32792 3.64635 0
M  V30 25592 N 2441.82 -0.15856 -1.568 0
M  V30 25593 C 2443.07 0.489667 -1.95666 0
M  V30 25594 C 2443.38 1.65246 -1.04657 0
M  V30 25595 O 2444.59 2.36608 -1.3315 0
M  V30 25596 C 2443.05 0.922521 -3.47876 0
M  V30 25597 C 2442.65 -0.213971 -4.47489 0
M  V30 25598 C 2444.4 1.53989 -3.95585 0
M  V30 25599 C 2442.3 0.237799 -5.90922 0
M  V30 25600 H 2441.23 0.186704 -0.730519 0
M  V30 25601 H 2443.89 -0.244754 -1.8186 0
M  V30 25602 H 2442.27 1.71255 -3.57054 0
M  V30 25603 H 2443.44 -0.991115 -4.50015 0
M  V30 25604 H 2441.76 -0.740479 -4.09763 0
M  V30 25605 H 2444.35 1.88972 -5.00194 0
M  V30 25606 H 2444.7 2.43313 -3.37794 0
M  V30 25607 H 2445.23 0.814542 -3.89371 0
M  V30 25608 H 2441.97 -0.620351 -6.52558 0
M  V30 25609 H 2441.49 0.980572 -5.9173 0
M  V30 25610 H 2443.17 0.685954 -6.43353 0
M  V30 25611 N 2443.3 1.57178 0.115204 0
M  V30 25612 C 2444.71 1.74189 0.671939 0
M  V30 25613 C 2445.06 0.777809 1.80124 0
M  V30 25614 O 2444.19 -0.0483996 2.16346 0
M  V30 25615 C 2444.78 3.15852 1.22567 0
M  V30 25616 C 2443.34 3.34356 1.72866 0
M  V30 25617 C 2442.49 2.7005 0.629924 0
M  V30 25618 H 2445.44 1.58313 -0.11074 0
M  V30 25619 H 2445.46 3.17613 2.09529 0
M  V30 25620 H 2444.97 3.85996 0.40353 0
M  V30 25621 H 2443.07 2.6926 2.57545 0
M  V30 25622 H 2443.19 4.42545 1.83549 0
M  V30 25623 H 2441.55 2.3139 1.06446 0
M  V30 25624 H 2442.33 3.42821 -0.181302 0
M  V30 25625 N 2444.78 -0.38549 1.52813 0
M  V30 25626 C 2446.02 -1.13185 1.68277 0
M  V30 25627 C 2446.36 -1.89532 0.423212 0
M  V30 25628 O 2445.63 -1.8568 -0.57908 0
M  V30 25629 C 2445.91 -2.10725 2.92005 0
M  V30 25630 C 2445.77 -1.38118 4.28069 0
M  V30 25631 C 2447.09 -3.11107 3.11288 0
M  V30 25632 H 2444.21 -0.410104 0.612359 0
M  V30 25633 H 2446.85 -0.414836 1.85416 0
M  V30 25634 H 2445 -2.7187 2.77523 0
M  V30 25635 H 2446.67 -0.799107 4.54326 0
M  V30 25636 H 2444.91 -0.683017 4.28389 0
M  V30 25637 H 2445.58 -2.09408 5.10737 0
M  V30 25638 H 2448.06 -2.60055 3.24824 0
M  V30 25639 H 2446.94 -3.76598 3.99331 0
M  V30 25640 H 2447.2 -3.80169 2.25663 0
M  V30 25641 N 2446.26 -1.43835 -0.644143 0
M  V30 25642 C 2447.5 -1.45644 -1.40115 0
M  V30 25643 C 2447.82 -0.0852755 -1.94813 0
M  V30 25644 O 2447.09 0.880657 -1.74989 0
M  V30 25645 H 2445.67 -0.536253 -0.520041 0
M  V30 25646 H 2448.34 -1.79511 -0.759069 0
M  V30 25647 H 2447.43 -2.17431 -2.23898 0
M  V30 25648 N 2447.73 0.883355 -1.30517 0
M  V30 25649 C 2448.67 1.99494 -1.12849 0
M  V30 25650 C 2449.68 1.62644 -0.0712857 0
M  V30 25651 O 2450.87 1.75654 -0.317462 0
M  V30 25652 C 2447.97 3.31609 -0.699181 0
M  V30 25653 C 2447.14 3.96886 -1.83849 0
M  V30 25654 C 2446.2 5.07304 -1.39746 0
M  V30 25655 O 2445.23 5.28849 -2.10494 0
M  V30 25656 N 2446.43 5.79837 -0.277381 0
M  V30 25657 H 2449.19 2.15199 -2.08589 0
M  V30 25658 H 2446.75 1.05654 -1.22674 0
M  V30 25659 H 2448.75 4.02844 -0.387115 0
M  V30 25660 H 2447.32 3.12158 0.166221 0
M  V30 25661 H 2446.54 3.18803 -2.31859 0
M  V30 25662 H 2447.82 4.37237 -2.60195 0
M  V30 25663 H 2447.22 5.64838 0.3121 0
M  V30 25664 H 2445.78 6.51795 -0.0247768 0
M  V30 25665 N 2449.21 1.13259 1.09591 0
M  V30 25666 C 2450.46 0.894612 1.82001 0
M  V30 25667 C 2450.79 -0.577874 1.85403 0
M  V30 25668 O 2450.07 -1.42756 1.32102 0
M  V30 25669 C 2450.35 1.48102 3.28234 0
M  V30 25670 C 2450.2 3.02249 3.33115 0
M  V30 25671 C 2451.52 1.14781 4.24869 0
M  V30 25672 H 2448.64 0.326435 0.660764 0
M  V30 25673 H 2451.28 1.4006 1.28386 0
M  V30 25674 H 2449.43 1.05069 3.74022 0
M  V30 25675 H 2451.1 3.54026 2.95742 0
M  V30 25676 H 2449.35 3.37328 2.7275 0
M  V30 25677 H 2450.02 3.38378 4.36124 0
M  V30 25678 H 2452.49 1.51964 3.87358 0
M  V30 25679 H 2451.37 1.58462 5.25529 0
M  V30 25680 H 2451.63 0.0612626 4.42058 0
M  V30 25681 N 2450.69 -1.27539 0.925834 0
M  V30 25682 C 2451.92 -1.98559 0.581544 0
M  V30 25683 C 2452.33 -1.69084 -0.840011 0
M  V30 25684 O 2451.69 -0.950339 -1.55804 0
M  V30 25685 C 2451.74 -3.52635 0.795651 0
M  V30 25686 O 2451.46 -3.81078 2.16128 0
M  V30 25687 C 2452.96 -4.40909 0.459822 0
M  V30 25688 H 2450.18 -0.633718 0.22055 0
M  V30 25689 H 2452.73 -1.62438 1.24234 0
M  V30 25690 H 2450.88 -3.86974 0.181678 0
M  V30 25691 H 2451.3 -4.75672 2.20989 0
M  V30 25692 H 2452.77 -5.48036 0.66034 0
M  V30 25693 H 2453.25 -4.35019 -0.604548 0
M  V30 25694 H 2453.85 -4.12088 1.05185 0
M  V30 25695 N 2452.17 -0.691135 -1.41637 0
M  V30 25696 C 2453.44 -0.148455 -1.95036 0
M  V30 25697 C 2453.82 1.34052 -1.63074 0
M  V30 25698 O 2453.17 2.08476 -0.935417 0
M  V30 25699 C 2453.38 -0.435012 -3.46278 0
M  V30 25700 C 2454.73 -0.36035 -4.23068 0
M  V30 25701 O 2455.75 -0.369675 -3.54277 0
M  V30 25702 O 2454.61 -0.31663 -5.45582 0
M  V30 25703 H 2451.71 -0.01238 -0.826907 0
M  V30 25704 H 2454.25 -0.76699 -1.51378 0
M  V30 25705 H 2453.03 -1.46583 -3.62807 0
M  V30 25706 H 2452.65 0.214718 -3.9702 0
M  V30 25707 N 2453.65 1.51461 -0.435577 0
M  V30 25708 C 2454.88 2.0619 0.130017 0
M  V30 25709 C 2455.28 1.3032 1.37162 0
M  V30 25710 O 2454.63 0.35563 1.80225 0
M  V30 25711 C 2454.69 3.55729 0.519356 0
M  V30 25712 C 2454.35 4.5284 -0.615198 0
M  V30 25713 C 2455.35 4.98187 -1.4868 0
M  V30 25714 C 2453.03 4.95962 -0.795428 0
M  V30 25715 C 2455.03 5.85326 -2.52334 0
M  V30 25716 C 2452.72 5.82891 -1.83525 0
M  V30 25717 C 2453.71 6.2747 -2.69759 0
M  V30 25718 O 2453.4 7.12674 -3.71956 0
M  V30 25719 H 2453.13 0.675891 0.0121494 0
M  V30 25720 H 2455.69 1.96042 -0.612935 0
M  V30 25721 H 2453.92 3.63655 1.31499 0
M  V30 25722 H 2455.61 3.92981 1.0159 0
M  V30 25723 H 2456.37 4.65568 -1.35908 0
M  V30 25724 H 2452.25 4.60806 -0.133794 0
M  V30 25725 H 2455.8 6.20043 -3.19676 0
M  V30 25726 H 2451.69 6.14923 -1.96317 0
M  V30 25727 H 2452.46 7.30848 -3.68516 0
M  V30 25728 N 2455.12 0.166873 1.56714 0
M  V30 25729 C 2456.37 -0.478271 1.96359 0
M  V30 25730 C 2456.69 -1.64078 1.05373 0
M  V30 25731 O 2455.96 -1.95537 0.119189 0
M  V30 25732 H 2454.54 -0.17968 0.725068 0
M  V30 25733 H 2457.21 0.247018 1.93328 0
M  V30 25734 H 2456.3 -0.84124 3.00549 0
M  V30 25735 N 2456.6 -1.57237 -0.106866 0
M  V30 25736 C 2457.85 -1.85485 -0.812493 0
M  V30 25737 C 2458.18 -0.753719 -1.79302 0
M  V30 25738 O 2457.43 0.253819 -1.94047 0
M  V30 25739 C 2457.73 -3.20271 -1.58622 0
M  V30 25740 C 2457.4 -4.44637 -0.748889 0
M  V30 25741 C 2456.06 -4.78404 -0.51802 0
M  V30 25742 C 2458.41 -5.20935 -0.16603 0
M  V30 25743 C 2455.74 -5.85903 0.305762 0
M  V30 25744 C 2458.09 -6.29303 0.64501 0
M  V30 25745 C 2456.76 -6.61593 0.886081 0
M  V30 25746 H 2456.03 -0.678739 -0.297312 0
M  V30 25747 H 2458.67 -1.91355 -0.0743996 0
M  V30 25748 H 2456.98 -3.10032 -2.39556 0
M  V30 25749 H 2458.67 -3.39352 -2.13637 0
M  V30 25750 H 2455.26 -4.18189 -0.938932 0
M  V30 25751 H 2459.45 -4.95191 -0.331583 0
M  V30 25752 H 2454.7 -6.09339 0.501635 0
M  V30 25753 H 2458.88 -6.876 1.10357 0
M  V30 25754 H 2456.51 -7.44722 1.52622 0
M  V30 25755 N 2458.08 0.377381 -1.53015 0
M  V30 25756 C 2459.01 1.46788 -1.81592 0
M  V30 25757 C 2459.99 1.56407 -0.66865 0
M  V30 25758 O 2461.18 1.71167 -0.917367 0
M  V30 25759 C 2458.31 2.84267 -1.99524 0
M  V30 25760 C 2457.26 2.8948 -3.15254 0
M  V30 25761 C 2456.59 4.29521 -3.18459 0
M  V30 25762 C 2457.89 2.58071 -4.54089 0
M  V30 25763 H 2459.58 1.23123 -2.72912 0
M  V30 25764 H 2457.13 0.59086 -1.3132 0
M  V30 25765 H 2459.08 3.60571 -2.18098 0
M  V30 25766 H 2457.8 3.09294 -1.04903 0
M  V30 25767 H 2456.46 2.15626 -2.96481 0
M  V30 25768 H 2456.11 4.51606 -2.21498 0
M  V30 25769 H 2455.81 4.33927 -3.96208 0
M  V30 25770 H 2457.33 5.07715 -3.39202 0
M  V30 25771 H 2458.75 3.2409 -4.72904 0
M  V30 25772 H 2457.15 2.73811 -5.33992 0
M  V30 25773 H 2458.22 1.53364 -4.60008 0
M  V30 25774 N 2459.56 1.44175 0.636506 0
M  V30 25775 C 2460.51 1.50918 1.76993 0
M  V30 25776 C 2461.5 0.381324 1.65052 0
M  V30 25777 O 2462.71 0.556041 1.71196 0
M  V30 25778 H 2459.08 0.473465 0.584239 0
M  V30 25779 H 2461.05 2.46323 1.68427 0
M  V30 25780 C 2459.8 1.4654 3.15312 0
M  V30 25781 H 2459.12 2.32639 3.25145 0
M  V30 25782 H 2460.56 1.55319 3.94528 0
M  V30 25783 C 2459.02 0.185364 3.3639 0
M  V30 25784 O 2459.55 -0.746618 3.94701 0
M  V30 25785 N 2457.76 0.0902117 2.9046 0
M  V30 25786 H 2457.31 0.849459 2.43191 0
M  V30 25787 H 2457.26 -0.7655 3.04938 0
M  V30 25788 N 2461.04 -0.876421 1.30983 0
M  V30 25789 C 2461.97 -1.99901 1.20672 0
M  V30 25790 C 2462.95 -1.69832 0.0953838 0
M  V30 25791 O 2464.13 -1.92187 0.278884 0
M  V30 25792 C 2461.26 -3.35258 0.906609 0
M  V30 25793 C 2460.22 -3.79613 1.97681 0
M  V30 25794 C 2459.54 -5.12357 1.52952 0
M  V30 25795 C 2460.84 -3.97416 3.38907 0
M  V30 25796 H 2462.54 -2.08786 2.1459 0
M  V30 25797 H 2460.08 -1.00315 1.0331 0
M  V30 25798 H 2462.04 -4.13323 0.821098 0
M  V30 25799 H 2460.76 -3.26529 -0.0682395 0
M  V30 25800 H 2459.42 -3.03783 2.05211 0
M  V30 25801 H 2459.07 -5.00064 0.542707 0
M  V30 25802 H 2458.77 -5.43005 2.24542 0
M  V30 25803 H 2460.29 -5.92938 1.45796 0
M  V30 25804 H 2461.7 -4.65894 3.34089 0
M  V30 25805 H 2460.1 -4.39453 4.08658 0
M  V30 25806 H 2461.17 -3.00999 3.80168 0
M  V30 25807 N 2462.51 -1.13839 -1.08989 0
M  V30 25808 C 2463.76 -0.90113 -1.80898 0
M  V30 25809 C 2464.08 0.574101 -1.86357 0
M  V30 25810 O 2463.35 1.41731 -1.35237 0
M  V30 25811 H 2461.93 -0.330398 -0.66996 0
M  V30 25812 H 2464.6 -1.43581 -1.31798 0
M  V30 25813 H 2463.69 -1.29583 -2.83927 0
M  V30 25814 N 2463.99 1.27046 -0.932584 0
M  V30 25815 C 2465.24 1.93764 -0.574456 0
M  V30 25816 C 2465.56 1.73609 0.887963 0
M  V30 25817 O 2464.83 1.08668 1.62997 0
M  V30 25818 H 2463.41 0.717031 -0.209463 0
M  V30 25819 H 2466.07 1.54658 -1.18604 0
M  V30 25820 H 2465.17 3.02069 -0.784894 0
M  V30 25821 N 2465.47 0.698636 1.41269 0
M  V30 25822 C 2466.7 0.240028 2.05503 0
M  V30 25823 C 2467.11 -1.11189 1.52586 0
M  V30 25824 O 2466.47 -1.69544 0.675353 0
M  V30 25825 C 2466.52 0.192493 3.60987 0
M  V30 25826 O 2466.24 1.49101 4.11947 0
M  V30 25827 C 2467.74 -0.286732 4.42372 0
M  V30 25828 H 2464.96 0.111056 0.661746 0
M  V30 25829 H 2467.51 0.952082 1.80985 0
M  V30 25830 H 2465.66 -0.470405 3.84533 0
M  V30 25831 H 2466.08 1.38016 5.06016 0
M  V30 25832 H 2467.55 -0.268864 5.51345 0
M  V30 25833 H 2468.03 -1.32612 4.18701 0
M  V30 25834 H 2468.63 0.345276 4.23896 0
M  V30 25835 N 2466.95 -1.51228 0.443603 0
M  V30 25836 C 2468.36 -1.86691 -0.0180538 0
M  V30 25837 C 2468.71 -1.36035 -1.41382 0
M  V30 25838 O 2467.84 -0.713758 -2.0429 0
M  V30 25839 C 2468.43 -3.38777 -0.0395375 0
M  V30 25840 C 2466.99 -3.73753 -0.445627 0
M  V30 25841 C 2466.14 -2.74984 0.357633 0
M  V30 25842 H 2469.09 -1.44363 0.659164 0
M  V30 25843 H 2469.11 -3.70937 -0.847696 0
M  V30 25844 H 2468.62 -3.75616 0.976448 0
M  V30 25845 H 2466.72 -3.42506 -1.46698 0
M  V30 25846 H 2466.83 -4.78812 -0.166071 0
M  V30 25847 H 2465.2 -2.54028 -0.184928 0
M  V30 25848 H 2465.98 -3.14665 1.37261 0
M  V30 25849 N 2468.43 -0.175182 -1.56623 0
M  V30 25850 C 2469.65 0.474936 -2.01375 0
M  V30 25851 C 2470.07 1.56547 -1.0554 0
M  V30 25852 O 2469.43 1.82411 -0.0568989 0
M  V30 25853 C 2469.48 1.04969 -3.45925 0
M  V30 25854 O 2469.2 0.00268904 -4.381 0
M  V30 25855 C 2470.7 1.77766 -4.06096 0
M  V30 25856 H 2467.92 0.121194 -0.659964 0
M  V30 25857 H 2470.46 -0.278046 -2.02601 0
M  V30 25858 H 2468.62 1.75315 -3.45461 0
M  V30 25859 H 2469.03 0.427589 -5.22754 0
M  V30 25860 H 2470.51 2.13236 -5.09151 0
M  V30 25861 H 2470.98 2.67408 -3.4841 0
M  V30 25862 H 2471.59 1.12052 -4.10274 0
M  V30 25863 N 2469.91 1.57292 0.0985263 0
M  V30 25864 C 2470.85 2.01816 1.11977 0
M  V30 25865 C 2471.82 0.893865 1.39997 0
M  V30 25866 O 2473.01 1.15961 1.51518 0
M  V30 25867 C 2470.15 2.44471 2.43573 0
M  V30 25868 C 2469.26 3.70406 2.22313 0
M  V30 25869 C 2468.4 4.01955 3.47283 0
M  V30 25870 C 2467.43 5.2101 3.2127 0
M  V30 25871 N 2466.57 5.48328 4.38498 0
M  V30 25872 H 2471.41 2.88842 0.733098 0
M  V30 25873 H 2468.95 1.42864 0.350457 0
M  V30 25874 H 2470.91 2.67245 3.20368 0
M  V30 25875 H 2469.54 1.6046 2.80094 0
M  V30 25876 H 2468.59 3.55129 1.36337 0
M  V30 25877 H 2469.9 4.57349 1.99081 0
M  V30 25878 H 2469.05 4.25487 4.32488 0
M  V30 25879 H 2467.79 3.13528 3.73566 0
M  V30 25880 H 2466.8 4.97302 2.34459 0
M  V30 25881 H 2468.02 6.11033 2.96337 0
M  V30 25882 H 2465.97 4.62859 4.64863 0
M  V30 25883 H 2465.89 6.29635 4.18444 0
M  V30 25884 H 2467.15 5.76394 5.24777 0
M  V30 25885 N 2471.38 -0.369261 1.53213 0
M  V30 25886 C 2472.8 -0.710687 1.42903 0
M  V30 25887 C 2473 -1.93412 0.565169 0
M  V30 25888 O 2472.06 -2.52458 0.0461928 0
M  V30 25889 C 2473.37 -0.927332 2.86044 0
M  V30 25890 C 2474.92 -1.02757 2.95652 0
M  V30 25891 C 2475.39 -1.27671 4.39845 0
M  V30 25892 N 2476.88 -1.3445 4.43258 0
M  V30 25893 C 2477.62 -1.5543 5.51932 0
M  V30 25894 N 2477.11 -1.73751 6.70658 0
M  V30 25895 N 2478.91 -1.57769 5.39505 0
M  V30 25896 H 2471.06 0.435493 2.07888 0
M  V30 25897 H 2473.32 0.132755 0.938659 0
M  V30 25898 H 2473.03 -0.100225 3.51557 0
M  V30 25899 H 2472.9 -1.83647 3.29475 0
M  V30 25900 H 2475.29 -1.84523 2.30294 0
M  V30 25901 H 2475.37 -0.0959054 2.5562 0
M  V30 25902 H 2475.01 -0.464086 5.05775 0
M  V30 25903 H 2474.94 -2.22154 4.77446 0
M  V30 25904 H 2477.43 -1.2192 3.57693 0
M  V30 25905 H 2477.75 -1.89322 7.49251 0
M  V30 25906 H 2476.09 -1.70936 6.73651 0
M  V30 25907 H 2479.28 -1.43021 4.45716 0
M  V30 25908 H 2479.46 -1.73779 6.24263 0
M  V30 25909 N 2472.86 -1.4451 -0.628851 0
M  V30 25910 C 2473.79 -1.46022 -1.75365 0
M  V30 25911 C 2474.77 -0.318815 -1.59444 0
M  V30 25912 O 2475.96 -0.516131 -1.81296 0
M  V30 25913 C 2473.08 -1.29506 -3.12963 0
M  V30 25914 C 2472.13 -2.47239 -3.47527 0
M  V30 25915 S 2472.96 -4.09764 -3.44751 0
M  V30 25916 C 2474.12 -3.95676 -4.84966 0
M  V30 25917 H 2474.35 -2.41196 -1.73816 0
M  V30 25918 H 2471.88 -1.31836 -0.803663 0
M  V30 25919 H 2473.84 -1.20664 -3.92365 0
M  V30 25920 H 2472.5 -0.358396 -3.12049 0
M  V30 25921 H 2471.7 -2.31552 -4.4766 0
M  V30 25922 H 2471.3 -2.52832 -2.75593 0
M  V30 25923 H 2473.59 -3.59506 -5.74249 0
M  V30 25924 H 2474.53 -4.95647 -5.05707 0
M  V30 25925 H 2474.94 -3.27696 -4.59647 0
M  V30 25926 N 2474.34 0.869463 -1.31446 0
M  V30 25927 C 2475.27 1.99259 -1.2173 0
M  V30 25928 C 2476.25 1.69779 -0.104389 0
M  V30 25929 O 2477.44 1.92036 -0.289072 0
M  V30 25930 C 2474.57 3.34772 -0.924376 0
M  V30 25931 C 2473.52 3.78559 -1.99692 0
M  V30 25932 C 2472.85 5.11539 -1.55667 0
M  V30 25933 C 2474.15 3.95613 -3.4101 0
M  V30 25934 H 2475.84 2.07645 -2.15694 0
M  V30 25935 H 2473.39 0.997657 -1.0384 0
M  V30 25936 H 2475.34 4.12882 -0.843006 0
M  V30 25937 H 2474.06 3.2656 0.0509219 0
M  V30 25938 H 2472.72 3.02691 -2.06819 0
M  V30 25939 H 2472.37 4.99769 -0.569219 0
M  V30 25940 H 2472.07 5.41807 -2.27419 0
M  V30 25941 H 2473.59 5.92157 -1.48939 0
M  V30 25942 H 2475.01 4.64116 -3.36555 0
M  V30 25943 H 2473.4 4.37279 -4.10983 0
M  V30 25944 H 2474.47 2.98979 -3.81759 0
M  V30 25945 N 2475.82 1.14415 1.08383 0
M  V30 25946 C 2476.75 0.774908 2.1464 0
M  V30 25947 C 2477.73 -0.243848 1.60761 0
M  V30 25948 O 2478.91 -0.13285 1.88031 0
M  V30 25949 C 2476.04 0.150551 3.38365 0
M  V30 25950 C 2475.09 1.13952 4.10995 0
M  V30 25951 S 2475.92 2.67688 4.63793 0
M  V30 25952 C 2477.07 2.06642 5.90804 0
M  V30 25953 H 2477.31 1.67491 2.4563 0
M  V30 25954 H 2474.84 0.965401 1.20496 0
M  V30 25955 H 2476.8 -0.203261 4.09996 0
M  V30 25956 H 2475.46 -0.726886 3.05574 0
M  V30 25957 H 2474.65 0.650678 4.99782 0
M  V30 25958 H 2474.25 1.43733 3.45278 0
M  V30 25959 H 2476.55 1.42202 6.62408 0
M  V30 25960 H 2477.49 2.93553 6.44385 0
M  V30 25961 H 2477.9 1.51366 5.43828 0
M  V30 25962 N 2477.3 -1.26549 0.939309 0
M  V30 25963 C 2478.53 -1.97644 0.601697 0
M  V30 25964 C 2478.93 -1.7016 -0.827176 0
M  V30 25965 O 2478.28 -0.965366 -1.56289 0
M  V30 25966 C 2478.34 -3.51336 0.761787 0
M  V30 25967 C 2478 -4.02466 2.16494 0
M  V30 25968 C 2479 -4.14349 3.14024 0
M  V30 25969 C 2476.68 -4.36523 2.48501 0
M  V30 25970 C 2478.68 -4.59579 4.41662 0
M  V30 25971 C 2476.37 -4.81442 3.76373 0
M  V30 25972 C 2477.36 -4.92931 4.72766 0
M  V30 25973 O 2477.05 -5.3686 5.98361 0
M  V30 25974 H 2476.78 -0.637185 0.225769 0
M  V30 25975 H 2479.34 -1.62073 1.26181 0
M  V30 25976 H 2477.57 -3.86674 0.0445488 0
M  V30 25977 H 2479.26 -4.03642 0.427513 0
M  V30 25978 H 2480.02 -3.88285 2.90619 0
M  V30 25979 H 2475.9 -4.26816 1.74209 0
M  V30 25980 H 2479.45 -4.68461 5.16904 0
M  V30 25981 H 2475.34 -5.06949 3.99591 0
M  V30 25982 H 2476.11 -5.55086 6.01516 0
M  V30 25983 N 2478.77 -0.706118 -1.40896 0
M  V30 25984 C 2479.72 -0.0362302 -2.32572 0
M  V30 25985 C 2480.72 0.75724 -1.51533 0
M  V30 25986 O 2481.92 0.661674 -1.67397 0
M  V30 25987 H 2478.3 0.00708613 -0.751967 0
M  V30 25988 H 2480.27 -0.826299 -2.86731 0
M  V30 25989 C 2479.02 0.878481 -3.36419 0
M  V30 25990 H 2478.34 0.277331 -3.98837 0
M  V30 25991 H 2479.78 1.31533 -4.03082 0
M  V30 25992 C 2478.24 1.99956 -2.71144 0
M  V30 25993 O 2478.77 3.08945 -2.56741 0
M  V30 25994 N 2476.97 1.78039 -2.29674 0
M  V30 25995 H 2476.52 0.893999 -2.41589 0
M  V30 25996 H 2476.48 2.53231 -1.86336 0
M  V30 25997 N 2480.25 1.50991 -0.451617 0
M  V30 25998 C 2481.5 2.02201 0.110039 0
M  V30 25999 C 2481.83 1.33491 1.41458 0
M  V30 26000 O 2481.08 0.443159 1.90616 0
M  V30 26001 C 2481.38 3.55565 0.361665 0
M  V30 26002 C 2481.05 4.42646 -0.858795 0
M  V30 26003 C 2479.71 4.66165 -1.19346 0
M  V30 26004 C 2482.06 4.93643 -1.6723 0
M  V30 26005 C 2479.39 5.37927 -2.34205 0
M  V30 26006 C 2481.74 5.66665 -2.812 0
M  V30 26007 C 2480.4 5.88443 -3.15104 0
M  V30 26008 H 2479.67 0.739905 0.040266 0
M  V30 26009 H 2482.32 1.81801 -0.601728 0
M  V30 26010 H 2480.63 3.74374 1.15548 0
M  V30 26011 H 2482.32 3.92736 0.809891 0
M  V30 26012 H 2478.91 4.24547 -0.588035 0
M  V30 26013 H 2483.1 4.75344 -1.42695 0
M  V30 26014 H 2478.35 5.53 -2.6077 0
M  V30 26015 H 2482.53 6.05167 -3.44596 0
M  V30 26016 H 2480.15 6.43828 -4.04215 0
M  V30 26017 N 2481.73 0.183486 1.56528 0
M  V30 26018 C 2483.14 -0.331144 1.8374 0
M  V30 26019 C 2483.49 -1.62209 1.10375 0
M  V30 26020 O 2482.62 -2.13372 0.360747 0
M  V30 26021 C 2483.21 -0.607587 3.33307 0
M  V30 26022 C 2481.77 -1.06662 3.60971 0
M  V30 26023 C 2480.92 -0.10898 2.77086 0
M  V30 26024 H 2483.87 0.407511 1.53379 0
M  V30 26025 H 2483.89 -1.45826 3.51447 0
M  V30 26026 H 2483.4 0.332154 3.86676 0
M  V30 26027 H 2481.5 -2.02104 3.13025 0
M  V30 26028 H 2481.62 -0.967364 4.69232 0
M  V30 26029 H 2479.98 -0.60867 2.4732 0
M  V30 26030 H 2480.76 0.824998 3.3324 0
M  V30 26031 N 2483.21 -1.57342 -0.0901833 0
M  V30 26032 C 2484.44 -1.90547 -0.806191 0
M  V30 26033 C 2484.85 -0.777674 -1.7204 0
M  V30 26034 O 2484.21 0.250071 -1.80779 0
M  V30 26035 C 2484.26 -3.23399 -1.6154 0
M  V30 26036 O 2483.98 -4.3184 -0.737967 0
M  V30 26037 C 2485.48 -3.70499 -2.43404 0
M  V30 26038 H 2482.7 -0.630261 -0.230245 0
M  V30 26039 H 2485.24 -2.04394 -0.0659484 0
M  V30 26040 H 2483.4 -3.11135 -2.30811 0
M  V30 26041 H 2483.81 -5.08162 -1.29893 0
M  V30 26042 H 2485.29 -4.66138 -2.95668 0
M  V30 26043 H 2485.76 -2.98585 -3.22093 0
M  V30 26044 H 2486.37 -3.85646 -1.79324 0
M  V30 26045 N 2484.69 0.36113 -1.53407 0
M  V30 26046 C 2486.1 0.703099 -1.43278 0
M  V30 26047 C 2486.3 1.93109 -0.575418 0
M  V30 26048 O 2485.36 2.5243 -0.0595806 0
M  V30 26049 C 2486.67 0.912149 -2.86532 0
M  V30 26050 C 2488.22 1.01188 -2.96193 0
M  V30 26051 C 2488.69 1.25337 -4.40516 0
M  V30 26052 N 2490.19 1.32097 -4.43965 0
M  V30 26053 C 2490.92 1.525 -5.52749 0
M  V30 26054 N 2490.42 1.70191 -6.7157 0
M  V30 26055 N 2492.21 1.54906 -5.40334 0
M  V30 26056 H 2484.36 -0.446512 -2.07654 0
M  V30 26057 H 2486.62 -0.137731 -0.937941 0
M  V30 26058 H 2486.33 0.0815796 -3.51605 0
M  V30 26059 H 2486.2 1.81897 -3.30444 0
M  V30 26060 H 2488.59 1.83299 -2.3127 0
M  V30 26061 H 2488.67 0.0823479 -2.55667 0
M  V30 26062 H 2488.32 0.437257 -5.06014 0
M  V30 26063 H 2488.25 2.19619 -4.78618 0
M  V30 26064 H 2490.74 1.20021 -3.58334 0
M  V30 26065 H 2491.05 1.85346 -7.50244 0
M  V30 26066 H 2489.39 1.67361 -6.74548 0
M  V30 26067 H 2492.59 1.40656 -4.46468 0
M  V30 26068 H 2492.76 1.70466 -6.25176 0
M  V30 26069 N 2486.16 1.44842 0.621179 0
M  V30 26070 C 2487.13 1.52103 1.71457 0
M  V30 26071 C 2488.13 0.40196 1.55695 0
M  V30 26072 O 2489.32 0.664953 1.61009 0
M  V30 26073 C 2486.45 1.40453 3.10622 0
M  V30 26074 H 2487.64 2.49509 1.66389 0
M  V30 26075 H 2485.2 1.32081 0.835721 0
M  V30 26076 H 2485.93 0.441793 3.21277 0
M  V30 26077 H 2485.72 2.21608 3.23469 0
M  V30 26078 H 2487.21 1.48537 3.9029 0
M  V30 26079 N 2487.64 -0.862479 1.31905 0
M  V30 26080 C 2488.89 -1.6129 1.21778 0
M  V30 26081 C 2489.21 -1.93728 -0.222378 0
M  V30 26082 O 2488.48 -1.58949 -1.14508 0
M  V30 26083 H 2487.06 -0.597954 0.447728 0
M  V30 26084 H 2489.72 -1.03212 1.65328 0
M  V30 26085 H 2488.82 -2.55326 1.79485 0
M  V30 26086 N 2489.12 -1.14988 -1.07775 0
M  V30 26087 C 2490.05 -0.800474 -2.14767 0
M  V30 26088 C 2491.07 0.185566 -1.61739 0
M  V30 26089 O 2492.25 -0.0370672 -1.78462 0
M  V30 26090 C 2489.35 -0.168592 -3.3848 0
M  V30 26091 C 2488.53 -1.19098 -4.20874 0
M  V30 26092 C 2487.59 -0.581667 -5.22975 0
M  V30 26093 O 2486.61 -1.24643 -5.55385 0
M  V30 26094 N 2487.81 0.638605 -5.76977 0
M  V30 26095 H 2490.58 -1.72122 -2.45345 0
M  V30 26096 H 2488.14 -1.04518 -1.23643 0
M  V30 26097 H 2490.13 0.251693 -4.03917 0
M  V30 26098 H 2488.7 0.655414 -3.05652 0
M  V30 26099 H 2487.92 -1.78797 -3.51319 0
M  V30 26100 H 2489.21 -1.88142 -4.72737 0
M  V30 26101 H 2488.61 1.19714 -5.52888 0
M  V30 26102 H 2487.17 1.00131 -6.44063 0
M  V30 26103 N 2490.6 1.26049 -0.946007 0
M  V30 26104 C 2491.84 1.95281 -0.603699 0
M  V30 26105 C 2492.2 1.72536 0.842347 0
M  V30 26106 O 2493.4 2.35613 1.29383 0
M  V30 26107 C 2491.67 3.44753 -0.942353 0
M  V30 26108 S 2493.23 4.32996 -0.711318 0
M  V30 26109 H 2490.05 0.675392 -0.222188 0
M  V30 26110 H 2492.65 1.52894 -1.21835 0
M  V30 26111 H 2491.36 3.58809 -1.99209 0
M  V30 26112 H 2490.89 3.92116 -0.317615 0
M  V30 26113 H 2492.9 4.94401 0.422134 0
M  V30 26114 N 2492.08 0.71358 1.4052 0
M  V30 26115 C 2493.32 0.251727 2.00526 0
M  V30 26116 C 2493.65 -1.15845 1.56859 0
M  V30 26117 O 2492.92 -1.78499 0.807159 0
M  V30 26118 H 2491.5 0.0900777 0.741549 0
M  V30 26119 H 2494.16 0.918763 1.71886 0
M  V30 26120 H 2493.25 0.283246 3.10812 0
M  V30 26121 N 2493.55 -1.50749 0.459618 0
M  V30 26122 C 2494.8 -2.01857 -0.0991177 0
M  V30 26123 C 2495.12 -1.34443 -1.41245 0
M  V30 26124 O 2494.39 -0.486055 -1.89774 0
M  V30 26125 H 2492.97 -0.745949 -0.0396199 0
M  V30 26126 H 2495.64 -1.85193 0.60742 0
M  V30 26127 H 2494.73 -3.11024 -0.258943 0
M  V30 26128 N 2495.03 -0.191784 -1.56429 0
M  V30 26129 C 2496.28 0.448519 -1.97778 0
M  V30 26130 C 2496.61 1.61499 -1.0785 0
M  V30 26131 O 2495.89 1.94066 -0.129808 0
M  V30 26132 C 2496.17 0.911845 -3.48364 0
M  V30 26133 C 2496.02 -0.256215 -4.4907 0
M  V30 26134 C 2497.34 1.77849 -4.02564 0
M  V30 26135 H 2494.46 0.16156 -0.719074 0
M  V30 26136 H 2497.1 -0.28204 -1.87895 0
M  V30 26137 H 2495.25 1.53436 -3.56917 0
M  V30 26138 H 2496.92 -0.893812 -4.52558 0
M  V30 26139 H 2495.17 -0.90851 -4.2418 0
M  V30 26140 H 2495.84 0.110433 -5.5189 0
M  V30 26141 H 2498.31 1.25352 -3.9677 0
M  V30 26142 H 2497.19 2.07165 -5.08305 0
M  V30 26143 H 2497.45 2.73152 -3.47621 0
M  V30 26144 N 2496.51 1.57387 0.0818378 0
M  V30 26145 C 2497.44 2.0603 1.09881 0
M  V30 26146 C 2498.42 0.951798 1.40978 0
M  V30 26147 O 2499.61 1.2239 1.50779 0
M  V30 26148 C 2496.74 2.49584 2.41506 0
M  V30 26149 C 2495.69 3.64219 2.24786 0
M  V30 26150 C 2495.02 3.93793 3.61705 0
M  V30 26151 C 2496.32 4.94632 1.6774 0
M  V30 26152 H 2498.01 2.91244 0.694077 0
M  V30 26153 H 2495.56 1.4011 0.332424 0
M  V30 26154 H 2497.51 2.82224 3.12934 0
M  V30 26155 H 2496.23 1.61386 2.8394 0
M  V30 26156 H 2494.89 3.31846 1.55801 0
M  V30 26157 H 2494.54 3.02743 4.01691 0
M  V30 26158 H 2494.24 4.70978 3.5136 0
M  V30 26159 H 2495.76 4.28921 4.34579 0
M  V30 26160 H 2497.18 5.25568 2.29023 0
M  V30 26161 H 2495.58 5.7607 1.68118 0
M  V30 26162 H 2496.65 4.80685 0.637975 0
M  V30 26163 N 2497.99 -0.35299 1.53596 0
M  V30 26164 C 2498.92 -1.45591 1.75723 0
M  V30 26165 C 2499.9 -1.50886 0.605987 0
M  V30 26166 O 2501.08 -1.68746 0.840053 0
M  V30 26167 C 2498.21 -2.83884 1.84737 0
M  V30 26168 C 2497.26 -2.96256 3.06813 0
M  V30 26169 S 2498.09 -2.63703 4.6607 0
M  V30 26170 C 2499.25 -4.04122 4.7795 0
M  V30 26171 H 2499.48 -1.26603 2.68996 0
M  V30 26172 H 2497.01 -0.548092 1.44344 0
M  V30 26173 H 2498.97 -3.6356 1.90616 0
M  V30 26174 H 2497.63 -3.00173 0.924933 0
M  V30 26175 H 2496.82 -3.97568 3.09768 0
M  V30 26176 H 2496.43 -2.24518 2.99112 0
M  V30 26177 H 2498.72 -4.98526 4.58779 0
M  V30 26178 H 2499.66 -4.06167 5.8003 0
M  V30 26179 H 2500.07 -3.91708 4.06479 0
M  V30 26180 N 2499.47 -1.45169 -0.613489 0
M  V30 26181 C 2500.69 -1.5262 -1.40434 0
M  V30 26182 C 2501.12 -0.15774 -1.87437 0
M  V30 26183 O 2500.48 0.856509 -1.59792 0
M  V30 26184 C 2500.52 -2.51016 -2.58889 0
M  V30 26185 O 2499.63 -2.02388 -3.59323 0
M  V30 26186 H 2498.97 -0.514702 -0.419497 0
M  V30 26187 H 2501.5 -1.90469 -0.747181 0
M  V30 26188 H 2501.51 -2.69629 -3.06209 0
M  V30 26189 H 2500.18 -3.50407 -2.24026 0
M  V30 26190 H 2498.76 -1.93624 -3.18692 0
M  V30 26191 N 2500.95 0.855472 -1.32361 0
M  V30 26192 C 2502.17 1.64206 -1.25873 0
M  V30 26193 C 2502.59 1.88002 0.173424 0
M  V30 26194 O 2501.95 1.44844 1.11025 0
M  V30 26195 C 2502 3.00181 -2.01429 0
M  V30 26196 O 2501.72 2.77439 -3.39056 0
M  V30 26197 C 2503.22 3.94625 -2.01955 0
M  V30 26198 H 2500.44 0.51147 -0.434327 0
M  V30 26199 H 2502.98 1.06677 -1.74471 0
M  V30 26200 H 2501.14 3.54357 -1.56555 0
M  V30 26201 H 2501.55 3.63909 -3.77717 0
M  V30 26202 H 2503.03 4.87304 -2.59305 0
M  V30 26203 H 2503.5 4.27532 -1.00561 0
M  V30 26204 H 2504.11 3.46386 -2.46773 0
M  V30 26205 N 2502.42 1.15558 1.07164 0
M  V30 26206 C 2503.67 0.929795 1.79441 0
M  V30 26207 C 2503.99 -0.544381 1.87247 0
M  V30 26208 O 2503.26 -1.39562 1.37475 0
M  V30 26209 H 2501.84 0.341014 0.664619 0
M  V30 26210 H 2504.5 1.45659 1.29497 0
M  V30 26211 H 2503.6 1.34084 2.8183 0
M  V30 26212 N 2503.9 -1.25546 0.952678 0
M  V30 26213 C 2504.85 -2.25961 0.47012 0
M  V30 26214 C 2505.82 -1.59123 -0.476356 0
M  V30 26215 O 2507 -1.86771 -0.390037 0
M  V30 26216 C 2504.14 -3.44209 -0.24782 0
M  V30 26217 C 2503.26 -4.2569 0.735666 0
M  V30 26218 C 2502.39 -5.312 -0.00463723 0
M  V30 26219 C 2501.43 -6.04367 0.969911 0
M  V30 26220 N 2500.57 -7.01616 0.260609 0
M  V30 26221 H 2505.41 -2.66609 1.33131 0
M  V30 26222 H 2502.94 -1.31075 0.667673 0
M  V30 26223 H 2504.9 -4.11611 -0.680622 0
M  V30 26224 H 2503.53 -3.04442 -1.07307 0
M  V30 26225 H 2502.58 -3.57969 1.28695 0
M  V30 26226 H 2503.9 -4.76355 1.47942 0
M  V30 26227 H 2503.05 -6.04668 -0.496169 0
M  V30 26228 H 2501.79 -4.81403 -0.781198 0
M  V30 26229 H 2500.79 -5.29716 1.47246 0
M  V30 26230 H 2502.02 -6.56253 1.74667 0
M  V30 26231 H 2499.97 -6.54113 -0.497249 0
M  V30 26232 H 2499.88 -7.50089 0.943494 0
M  V30 26233 H 2501.15 -7.79219 -0.20945 0
M  V30 26234 N 2505.38 -0.721022 -1.40139 0
M  V30 26235 C 2506.63 -0.263267 -2.01084 0
M  V30 26236 C 2506.96 1.14226 -1.57054 0
M  V30 26237 O 2506.23 1.77597 -0.793058 0
M  V30 26238 C 2506.52 -0.349407 -3.58401 0
M  V30 26239 C 2506.37 -1.7937 -4.12488 0
M  V30 26240 C 2507.69 0.276274 -4.39232 0
M  V30 26241 H 2504.81 -0.0971357 -0.730571 0
M  V30 26242 H 2507.45 -0.914547 -1.66541 0
M  V30 26243 H 2505.6 0.205097 -3.87958 0
M  V30 26244 H 2507.27 -2.40401 -3.93707 0
M  V30 26245 H 2505.51 -2.31964 -3.66572 0
M  V30 26246 H 2506.19 -1.80533 -5.21643 0
M  V30 26247 H 2508.66 -0.196257 -4.15637 0
M  V30 26248 H 2507.54 0.185584 -5.48586 0
M  V30 26249 H 2507.8 1.36052 -4.20645 0
M  V30 26250 N 2506.86 1.50503 -0.467606 0
M  V30 26251 C 2507.79 2.3132 0.318341 0
M  V30 26252 C 2508.77 1.38068 0.99354 0
M  V30 26253 O 2509.95 1.66989 0.991381 0
M  V30 26254 C 2507.08 3.17713 1.40269 0
M  V30 26255 C 2506.04 4.19489 0.849299 0
M  V30 26256 C 2505.36 4.94598 2.03168 0
M  V30 26257 C 2506.66 5.2212 -0.137034 0
M  V30 26258 H 2508.36 2.97274 -0.356158 0
M  V30 26259 H 2505.9 1.4296 -0.172728 0
M  V30 26260 H 2507.86 3.73045 1.95998 0
M  V30 26261 H 2506.58 2.49637 2.10591 0
M  V30 26262 H 2505.24 3.65253 0.314012 0
M  V30 26263 H 2504.89 4.22998 2.7218 0
M  V30 26264 H 2504.59 5.63439 1.66764 0
M  V30 26265 H 2506.11 5.52763 2.59394 0
M  V30 26266 H 2507.53 5.72344 0.330956 0
M  V30 26267 H 2505.92 5.98662 -0.415175 0
M  V30 26268 H 2506.99 4.73081 -1.06406 0
M  V30 26269 N 2508.34 0.200077 1.56325 0
M  V30 26270 C 2509.58 -0.436513 1.9733 0
M  V30 26271 C 2509.9 -1.61806 1.08829 0
M  V30 26272 O 2509.17 -1.9524 0.160638 0
M  V30 26273 H 2507.75 -0.164259 0.728717 0
M  V30 26274 H 2510.42 0.287971 1.92761 0
M  V30 26275 H 2509.51 -0.777299 3.02266 0
M  V30 26276 N 2509.81 -1.57429 -0.0734901 0
M  V30 26277 C 2511.06 -1.8635 -0.771777 0
M  V30 26278 C 2511.38 -0.792484 -1.78827 0
M  V30 26279 O 2512.58 -0.969494 -2.536 0
M  V30 26280 C 2511.04 -3.30551 -1.42352 0
M  V30 26281 C 2510.65 -4.45778 -0.445683 0
M  V30 26282 C 2512.39 -3.68674 -2.10427 0
M  V30 26283 C 2510.3 -5.81018 -1.10325 0
M  V30 26284 H 2509.23 -0.695169 -0.291987 0
M  V30 26285 H 2511.88 -1.83483 -0.0250427 0
M  V30 26286 H 2510.26 -3.28025 -2.21846 0
M  V30 26287 H 2511.43 -4.59692 0.319319 0
M  V30 26288 H 2509.75 -4.16195 0.13053 0
M  V30 26289 H 2512.35 -4.67009 -2.60397 0
M  V30 26290 H 2512.69 -2.98388 -2.90293 0
M  V30 26291 H 2513.22 -3.73182 -1.37767 0
M  V30 26292 H 2509.96 -6.54592 -0.344946 0
M  V30 26293 H 2509.48 -5.70907 -1.83915 0
M  V30 26294 H 2511.16 -6.26298 -1.62356 0
M  V30 26295 N 2511.29 0.344839 -1.53781 0
M  V30 26296 C 2512.24 1.42404 -1.78059 0
M  V30 26297 C 2513.23 1.47807 -0.635758 0
M  V30 26298 O 2514.42 1.52699 -0.895107 0
M  V30 26299 C 2511.55 2.79563 -1.99247 0
M  V30 26300 C 2510.63 2.78557 -3.19792 0
M  V30 26301 N 2511.02 2.47181 -4.41288 0
M  V30 26302 C 2509.32 3.09704 -3.20935 0
M  V30 26303 C 2510.02 2.54376 -5.23133 0
M  V30 26304 N 2509 2.89945 -4.59818 0
M  V30 26305 H 2512.8 1.17041 -2.6959 0
M  V30 26306 H 2510.31 0.55319 -1.52688 0
M  V30 26307 H 2512.31 3.5732 -2.14774 0
M  V30 26308 H 2510.97 3.05873 -1.08958 0
M  V30 26309 H 2511.98 2.20403 -4.68661 0
M  V30 26310 H 2508.66 3.41194 -2.40609 0
M  V30 26311 H 2510.05 2.33288 -6.301 0
M  V30 26312 N 2512.77 1.45492 0.605781 0
M  V30 26313 C 2514.02 1.49825 1.36676 0
M  V30 26314 C 2514.35 0.140209 1.93693 0
M  V30 26315 O 2513.62 -0.84555 1.75159 0
M  V30 26316 C 2513.91 2.57883 2.51333 0
M  V30 26317 C 2513.76 4.03137 1.995 0
M  V30 26318 C 2515.08 2.62212 3.53459 0
M  V30 26319 H 2512.2 0.545475 0.495607 0
M  V30 26320 H 2514.84 1.77311 0.682701 0
M  V30 26321 H 2512.99 2.34577 3.09687 0
M  V30 26322 H 2514.66 4.37659 1.45782 0
M  V30 26323 H 2512.9 4.13709 1.30489 0
M  V30 26324 H 2513.58 4.74436 2.82161 0
M  V30 26325 H 2516.05 2.831 3.04948 0
M  V30 26326 H 2514.93 3.3968 4.31172 0
M  V30 26327 H 2515.19 1.6737 4.09194 0
M  V30 26328 N 2514.25 -0.848441 1.32813 0
M  V30 26329 C 2515.5 -1.59989 1.23482 0
M  V30 26330 C 2515.82 -1.93953 -0.201819 0
M  V30 26331 O 2515.09 -1.60155 -1.12815 0
M  V30 26332 H 2513.67 -0.593172 0.454045 0
M  V30 26333 H 2516.33 -1.01452 1.66413 0
M  V30 26334 H 2515.43 -2.53408 1.82183 0
M  V30 26335 N 2515.73 -1.16125 -1.06549 0
M  V30 26336 C 2516.97 -0.939299 -1.78946 0
M  V30 26337 C 2517.3 0.534443 -1.87533 0
M  V30 26338 O 2516.57 1.3883 -1.38213 0
M  V30 26339 H 2515.15 -0.344534 -0.662801 0
M  V30 26340 H 2517.81 -1.46344 -1.28722 0
M  V30 26341 H 2516.9 -1.35577 -2.81114 0
M  V30 26342 N 2517.2 1.25039 -0.959323 0
M  V30 26343 C 2518.15 2.27709 -0.474477 0
M  V30 26344 C 2519.15 1.631 0.457668 0
M  V30 26345 O 2520.35 1.76876 0.333881 0
M  V30 26346 H 2516.73 0.739792 -0.134949 0
M  V30 26347 H 2518.7 2.65986 -1.35256 0
M  V30 26348 C 2517.45 3.46953 0.227823 0
M  V30 26349 H 2516.77 3.96904 -0.480317 0
M  V30 26350 H 2518.21 4.20662 0.531017 0
M  V30 26351 C 2516.67 3.04007 1.45194 0
M  V30 26352 O 2517.2 3.1043 2.54943 0
M  V30 26353 N 2515.41 2.59146 1.31497 0
M  V30 26354 H 2514.95 2.5412 0.422021 0
M  V30 26355 H 2514.91 2.30777 2.13517 0
M  V30 26356 N 2518.68 0.728444 1.39755 0
M  V30 26357 C 2519.93 0.272982 2.00248 0
M  V30 26358 C 2520.25 -1.14175 1.58079 0
M  V30 26359 O 2519.52 -1.77632 0.826046 0
M  V30 26360 H 2518.1 0.0979377 0.740552 0
M  V30 26361 H 2520.76 0.936942 1.70902 0
M  V30 26362 H 2519.86 0.316196 3.10494 0
M  V30 26363 N 2520.16 -1.50253 0.475581 0
M  V30 26364 C 2521.11 -2.25526 -0.334985 0
M  V30 26365 C 2522.09 -1.29301 -0.957603 0
M  V30 26366 O 2523.29 -1.54176 -0.869409 0
M  V30 26367 C 2520.42 -3.12836 -1.4138 0
M  V30 26368 C 2519.5 -4.16511 -0.798689 0
M  V30 26369 N 2519.89 -5.05731 0.0836704 0
M  V30 26370 C 2518.19 -4.33168 -1.06213 0
M  V30 26371 C 2518.89 -5.80085 0.433215 0
M  V30 26372 N 2517.87 -5.43258 -0.192704 0
M  V30 26373 H 2521.67 -2.91872 0.344664 0
M  V30 26374 H 2519.18 -1.59789 0.290014 0
M  V30 26375 H 2521.18 -3.65372 -2.00771 0
M  V30 26376 H 2519.84 -2.48039 -2.09539 0
M  V30 26377 H 2520.85 -5.15917 0.452806 0
M  V30 26378 H 2517.53 -3.79588 -1.73837 0
M  V30 26379 H 2518.92 -6.61923 1.15357 0
M  V30 26380 N 2521.64 -0.208365 -1.56217 0
M  V30 26381 C 2522.57 0.739238 -2.16951 0
M  V30 26382 C 2523.58 1.16718 -1.13494 0
M  V30 26383 O 2524.77 1.10061 -1.40531 0
M  V30 26384 C 2521.87 2.01137 -2.72758 0
M  V30 26385 C 2521.05 1.74111 -4.01253 0
M  V30 26386 C 2520.1 2.85901 -4.41754 0
M  V30 26387 O 2519.13 2.54937 -5.08916 0
M  V30 26388 N 2520.33 4.14561 -4.06349 0
M  V30 26389 H 2523.1 0.219784 -2.98893 0
M  V30 26390 H 2520.66 -0.026873 -1.61878 0
M  V30 26391 H 2522.65 2.75089 -2.96831 0
M  V30 26392 H 2521.22 2.44167 -1.95195 0
M  V30 26393 H 2520.44 0.838707 -3.85174 0
M  V30 26394 H 2521.73 1.53469 -4.85103 0
M  V30 26395 H 2521.13 4.42565 -3.52353 0
M  V30 26396 H 2519.68 4.85098 -4.35343 0
M  V30 26397 N 2523.12 1.57465 0.0651402 0
M  V30 26398 C 2524.36 1.87204 0.761522 0
M  V30 26399 C 2524.69 0.801274 1.77777 0
M  V30 26400 O 2523.96 -0.169336 1.95167 0
M  V30 26401 H 2522.54 0.690809 0.284239 0
M  V30 26402 H 2525.2 1.9486 0.0396485 0
M  V30 26403 H 2524.29 2.84931 1.2736 0
M  V30 26404 N 2524.59 -0.336679 1.53962 0
M  V30 26405 C 2525.84 -1.07615 1.71538 0
M  V30 26406 C 2526.17 -1.88429 0.482158 0
M  V30 26407 O 2525.42 -1.88214 -0.536109 0
M  V30 26408 C 2525.72 -2.03948 2.93496 0
M  V30 26409 C 2525.39 -1.39391 4.28813 0
M  V30 26410 C 2524.05 -1.21515 4.65605 0
M  V30 26411 C 2526.4 -0.929451 5.12846 0
M  V30 26412 C 2523.73 -0.558209 5.84038 0
M  V30 26413 C 2526.08 -0.286394 6.31951 0
M  V30 26414 C 2524.75 -0.0953696 6.67432 0
M  V30 26415 H 2524.02 -0.39379 0.627703 0
M  V30 26416 H 2526.66 -0.354682 1.88187 0
M  V30 26417 H 2524.97 -2.825 2.7148 0
M  V30 26418 H 2526.67 -2.61169 3.04289 0
M  V30 26419 H 2523.26 -1.54304 3.9986 0
M  V30 26420 H 2527.44 -1.05539 4.84949 0
M  V30 26421 H 2522.7 -0.398888 6.10097 0
M  V30 26422 H 2526.87 0.08156 6.96352 0
M  V30 26423 H 2524.5 0.415713 7.59062 0
M  V30 26424 N 2526.07 -1.45812 -0.598057 0
M  V30 26425 C 2527.3 -1.54101 -1.38808 0
M  V30 26426 C 2527.72 -0.177611 -1.8726 0
M  V30 26427 O 2527.08 0.839513 -1.60692 0
M  V30 26428 C 2527.13 -2.53747 -2.56212 0
M  V30 26429 O 2526.23 -2.06188 -3.57156 0
M  V30 26430 H 2525.57 -0.519122 -0.414015 0
M  V30 26431 H 2528.1 -1.91251 -0.726938 0
M  V30 26432 H 2528.11 -2.72862 -3.03332 0
M  V30 26433 H 2526.79 -3.52763 -2.20297 0
M  V30 26434 H 2525.37 -1.96993 -3.1662 0
M  V30 26435 N 2527.55 0.841385 -1.33261 0
M  V30 26436 C 2528.51 1.93257 -1.23224 0
M  V30 26437 C 2529.51 1.60081 -0.151923 0
M  V30 26438 O 2530.7 1.69468 -0.403276 0
M  V30 26439 C 2527.84 3.28855 -0.89818 0
M  V30 26440 H 2529.03 2.03583 -2.20214 0
M  V30 26441 H 2526.58 1.03317 -1.17283 0
M  V30 26442 H 2527.32 3.24226 0.0693271 0
M  V30 26443 H 2527.1 3.54314 -1.6794 0
M  V30 26444 H 2528.59 4.08803 -0.852635 0
M  V30 26445 N 2529.03 1.16688 1.05932 0
M  V30 26446 C 2529.99 0.879181 2.11667 0
M  V30 26447 C 2530.99 -0.127417 1.60294 0
M  V30 26448 O 2532.18 0.103896 1.7389 0
M  V30 26449 C 2529.31 0.315485 3.39437 0
M  V30 26450 H 2530.51 1.81657 2.38623 0
M  V30 26451 H 2528.06 0.976321 1.22056 0
M  V30 26452 H 2528.8 -0.629412 3.18133 0
M  V30 26453 H 2528.58 1.04085 3.78033 0
M  V30 26454 H 2530.07 0.132262 4.1739 0
M  V30 26455 N 2530.51 -1.24529 0.96594 0
M  V30 26456 C 2531.44 -2.27783 0.513516 0
M  V30 26457 C 2532.42 -1.6415 -0.445945 0
M  V30 26458 O 2533.6 -1.91157 -0.342451 0
M  V30 26459 C 2530.73 -3.46731 -0.198778 0
M  V30 26460 C 2529.69 -4.22619 0.67653 0
M  V30 26461 C 2529.01 -5.34439 -0.167154 0
M  V30 26462 C 2530.31 -4.84119 1.96026 0
M  V30 26463 H 2532.01 -2.65879 1.37654 0
M  V30 26464 H 2529.55 -1.27811 0.663344 0
M  V30 26465 H 2531.51 -4.18098 -0.526493 0
M  V30 26466 H 2530.23 -3.07656 -1.09614 0
M  V30 26467 H 2528.89 -3.5305 0.987492 0
M  V30 26468 H 2528.54 -4.91604 -1.06462 0
M  V30 26469 H 2528.24 -5.86131 0.415284 0
M  V30 26470 H 2529.76 -6.08634 -0.489581 0
M  V30 26471 H 2531.18 -5.4757 1.69823 0
M  V30 26472 H 2529.57 -5.46036 2.48927 0
M  V30 26473 H 2530.64 -4.05672 2.65629 0
M  V30 26474 N 2531.99 -0.735845 -1.39367 0
M  V30 26475 C 2532.92 -0.111547 -2.33233 0
M  V30 26476 C 2533.9 0.723307 -1.53955 0
M  V30 26477 O 2535.08 0.668115 -1.82345 0
M  V30 26478 C 2532.21 0.795857 -3.38058 0
M  V30 26479 C 2531.17 0.0650968 -4.2795 0
M  V30 26480 C 2530.49 1.08957 -5.23481 0
M  V30 26481 C 2531.79 -1.09282 -5.10739 0
M  V30 26482 H 2533.49 -0.895621 -2.8569 0
M  V30 26483 H 2531.03 -0.432134 -1.37363 0
M  V30 26484 H 2532.98 1.24214 -4.02677 0
M  V30 26485 H 2531.71 1.61206 -2.84043 0
M  V30 26486 H 2530.37 -0.361575 -3.64813 0
M  V30 26487 H 2530.02 1.89936 -4.65761 0
M  V30 26488 H 2529.72 0.605386 -5.84473 0
M  V30 26489 H 2531.24 1.53554 -5.90977 0
M  V30 26490 H 2532.65 -0.72494 -5.68698 0
M  V30 26491 H 2531.05 -1.5067 -5.80877 0
M  V30 26492 H 2532.12 -1.91412 -4.45522 0
M  V30 26493 N 2533.46 1.49999 -0.483543 0
M  V30 26494 C 2534.88 1.58999 -0.138432 0
M  V30 26495 C 2535.08 1.49052 1.35594 0
M  V30 26496 O 2534.14 1.35543 2.13036 0
M  V30 26497 C 2535.45 2.92446 -0.699709 0
M  V30 26498 C 2537 3.0587 -0.664249 0
M  V30 26499 C 2537.47 4.41911 -1.20328 0
M  V30 26500 N 2538.96 4.48356 -1.16323 0
M  V30 26501 C 2539.7 5.52034 -1.55068 0
M  V30 26502 N 2539.19 6.62903 -2.01323 0
M  V30 26503 N 2540.99 5.42648 -1.46593 0
M  V30 26504 H 2533.14 1.54707 -1.45532 0
M  V30 26505 H 2535.4 0.731837 -0.602593 0
M  V30 26506 H 2535.11 3.05239 -1.74706 0
M  V30 26507 H 2534.98 3.76901 -0.15026 0
M  V30 26508 H 2537.37 2.92718 0.374221 0
M  V30 26509 H 2537.45 2.23142 -1.25065 0
M  V30 26510 H 2537.09 4.55814 -2.24045 0
M  V30 26511 H 2537.02 5.23251 -0.592988 0
M  V30 26512 H 2539.51 3.68804 -0.824123 0
M  V30 26513 H 2539.83 7.38091 -2.29003 0
M  V30 26514 H 2538.17 6.6399 -2.05284 0
M  V30 26515 H 2541.36 4.54922 -1.10289 0
M  V30 26516 H 2541.54 6.23326 -1.77114 0
M  V30 26517 N 2534.94 0.216646 1.56104 0
M  V30 26518 C 2535.89 -0.70876 2.16704 0
M  V30 26519 C 2536.88 -1.16104 1.11394 0
M  V30 26520 O 2538.07 -1.11585 1.37397 0
M  V30 26521 C 2535.2 -1.91881 2.84669 0
M  V30 26522 C 2534.28 -1.48644 3.97197 0
M  V30 26523 N 2534.67 -0.766346 4.99961 0
M  V30 26524 C 2532.97 -1.77411 4.09196 0
M  V30 26525 C 2533.67 -0.546557 5.79127 0
M  V30 26526 N 2532.65 -1.10179 5.32317 0
M  V30 26527 H 2536.45 -0.15011 2.93516 0
M  V30 26528 H 2533.96 0.0177054 1.6239 0
M  V30 26529 H 2535.96 -2.59248 3.26491 0
M  V30 26530 H 2534.62 -2.48198 2.09351 0
M  V30 26531 H 2535.63 -0.419543 5.16198 0
M  V30 26532 H 2532.31 -2.35082 3.45025 0
M  V30 26533 H 2533.7 0.0262211 6.71895 0
M  V30 26534 N 2536.42 -1.57498 -0.0567885 0
M  V30 26535 C 2537.65 -1.91936 -0.764482 0
M  V30 26536 C 2538.06 -0.8123 -1.70875 0
M  V30 26537 O 2537.4 0.222181 -1.82351 0
M  V30 26538 C 2537.46 -3.21965 -1.59935 0
M  V30 26539 C 2537.13 -4.49531 -0.822846 0
M  V30 26540 C 2538.12 -5.19724 -0.135373 0
M  V30 26541 C 2535.81 -4.96119 -0.785579 0
M  V30 26542 C 2537.8 -6.34765 0.578973 0
M  V30 26543 C 2535.49 -6.11063 -0.067471 0
M  V30 26544 C 2536.49 -6.80238 0.613591 0
M  V30 26545 O 2536.18 -7.92987 1.3201 0
M  V30 26546 H 2535.91 -0.638634 -0.221636 0
M  V30 26547 H 2538.46 -2.05383 -0.0267857 0
M  V30 26548 H 2536.69 -3.04768 -2.3802 0
M  V30 26549 H 2538.38 -3.41937 -2.18709 0
M  V30 26550 H 2539.15 -4.84751 -0.155373 0
M  V30 26551 H 2535.03 -4.42139 -1.30516 0
M  V30 26552 H 2538.57 -6.88694 1.11112 0
M  V30 26553 H 2534.47 -6.45484 -0.0454501 0
M  V30 26554 H 2535.23 -8.09191 1.23091 0
M  V30 26555 N 2537.9 0.328509 -1.54138 0
M  V30 26556 C 2539.14 1.06703 -1.72106 0
M  V30 26557 C 2539.47 1.88171 -0.492145 0
M  V30 26558 O 2538.73 1.88495 0.52612 0
M  V30 26559 C 2539.03 2.02388 -2.94574 0
M  V30 26560 C 2538.69 1.37115 -4.29547 0
M  V30 26561 C 2537.35 1.19044 -4.66242 0
M  V30 26562 C 2539.71 0.902241 -5.13331 0
M  V30 26563 C 2537.03 0.527229 -5.84326 0
M  V30 26564 C 2539.39 0.252876 -6.32094 0
M  V30 26565 C 2538.05 0.0599727 -6.67473 0
M  V30 26566 H 2537.32 0.390455 -0.629782 0
M  V30 26567 H 2539.97 0.344697 -1.88372 0
M  V30 26568 H 2538.27 2.81056 -2.72974 0
M  V30 26569 H 2539.97 2.59551 -3.0567 0
M  V30 26570 H 2536.56 1.52181 -4.00673 0
M  V30 26571 H 2540.74 1.02966 -4.85502 0
M  V30 26572 H 2536 0.366527 -6.103 0
M  V30 26573 H 2540.17 -0.118488 -6.96299 0
M  V30 26574 H 2537.8 -0.455962 -7.58831 0
M  V30 26575 N 2539.38 1.46127 0.590316 0
M  V30 26576 C 2540.32 1.56473 1.72102 0
M  V30 26577 C 2541.32 0.433641 1.63756 0
M  V30 26578 O 2542.52 0.610224 1.69341 0
M  V30 26579 H 2538.9 0.491812 0.56888 0
M  V30 26580 H 2540.87 2.51556 1.60505 0
M  V30 26581 C 2539.62 1.56497 3.1049 0
M  V30 26582 H 2538.94 2.42865 3.17579 0
M  V30 26583 H 2540.38 1.67792 3.89387 0
M  V30 26584 C 2538.84 0.29229 3.3563 0
M  V30 26585 O 2539.37 -0.620669 3.96876 0
M  V30 26586 N 2537.58 0.182574 2.90026 0
M  V30 26587 H 2537.12 0.926399 2.40366 0
M  V30 26588 H 2537.08 -0.668098 3.07219 0
M  V30 26589 N 2540.85 -0.834306 1.33705 0
M  V30 26590 C 2541.76 -1.97646 1.26385 0
M  V30 26591 C 2542.78 -1.73132 0.173579 0
M  V30 26592 O 2543.96 -1.97428 0.397996 0
M  V30 26593 C 2541.02 -3.31731 1.00774 0
M  V30 26594 C 2540.08 -3.6933 2.18847 0
M  V30 26595 C 2539.31 -4.97017 1.94448 0
M  V30 26596 O 2539.54 -5.63302 0.89706 0
M  V30 26597 O 2538.47 -5.32226 2.81103 0
M  V30 26598 H 2542.3 -2.06763 2.22447 0
M  V30 26599 H 2539.88 -0.968017 1.13797 0
M  V30 26600 H 2541.76 -4.12061 0.882259 0
M  V30 26601 H 2540.44 -3.23607 0.0774352 0
M  V30 26602 H 2539.35 -2.89491 2.36951 0
M  V30 26603 H 2540.68 -3.82125 3.10228 0
M  V30 26604 N 2542.33 -1.17248 -1.05312 0
M  V30 26605 C 2543.24 -0.902718 -2.16537 0
M  V30 26606 C 2544.26 0.128676 -1.73524 0
M  V30 26607 O 2545.43 -0.0503055 -2.01337 0
M  V30 26608 C 2542.5 -0.418417 -3.44166 0
M  V30 26609 C 2541.56 -1.51625 -4.01632 0
M  V30 26610 C 2540.79 -1.05497 -5.23169 0
M  V30 26611 O 2541.02 0.0913713 -5.70327 0
M  V30 26612 O 2539.95 -1.8475 -5.72845 0
M  V30 26613 H 2543.78 -1.83306 -2.42141 0
M  V30 26614 H 2541.36 -0.953267 -1.15036 0
M  V30 26615 H 2543.24 -0.1558 -4.21112 0
M  V30 26616 H 2541.92 0.483794 -3.20064 0
M  V30 26617 H 2540.82 -1.83273 -3.26131 0
M  V30 26618 H 2542.16 -2.39413 -4.30049 0
M  V30 26619 N 2543.81 1.24015 -0.972531 0
M  V30 26620 C 2544.74 2.24446 -0.464414 0
M  V30 26621 C 2545.76 1.57033 0.429472 0
M  V30 26622 O 2546.94 1.76948 0.234871 0
M  V30 26623 C 2544.04 3.37105 0.348326 0
M  V30 26624 C 2543.22 4.34093 -0.536806 0
M  V30 26625 C 2542.28 5.25737 0.220745 0
M  V30 26626 O 2541.3 5.67883 -0.386967 0
M  V30 26627 N 2542.5 5.60545 1.50897 0
M  V30 26628 H 2545.27 2.68675 -1.32793 0
M  V30 26629 H 2542.83 1.38105 -0.844901 0
M  V30 26630 H 2544.82 3.95386 0.863271 0
M  V30 26631 H 2543.39 2.92123 1.1128 0
M  V30 26632 H 2542.61 3.74431 -1.23267 0
M  V30 26633 H 2543.9 4.95857 -1.14031 0
M  V30 26634 H 2543.3 5.28239 2.02435 0
M  V30 26635 H 2541.86 6.21332 1.96951 0
M  V30 26636 N 2545.29 0.743226 1.38974 0
M  V30 26637 C 2546.54 0.294205 1.99947 0
M  V30 26638 C 2546.86 -1.12492 1.59281 0
M  V30 26639 O 2546.13 -1.76746 0.844839 0
M  V30 26640 H 2544.71 0.105787 0.739472 0
M  V30 26641 H 2547.37 0.955016 1.69898 0
M  V30 26642 H 2546.47 0.349111 3.10141 0
M  V30 26643 N 2546.77 -1.4974 0.491491 0
M  V30 26644 C 2547.68 -2.32715 -0.296794 0
M  V30 26645 C 2548.69 -1.44015 -0.97651 0
M  V30 26646 O 2549.87 -1.77048 -0.959992 0
M  V30 26647 C 2546.93 -3.19217 -1.35283 0
M  V30 26648 C 2545.99 -4.23758 -0.687557 0
M  V30 26649 C 2545.23 -5.06126 -1.69328 0
M  V30 26650 O 2545.45 -4.89866 -2.92211 0
M  V30 26651 O 2544.38 -5.88696 -1.25384 0
M  V30 26652 H 2548.21 -3.01287 0.382101 0
M  V30 26653 H 2545.8 -1.47243 0.252979 0
M  V30 26654 H 2547.68 -3.72831 -1.96404 0
M  V30 26655 H 2546.35 -2.53351 -2.01482 0
M  V30 26656 H 2545.26 -3.74082 -0.0368502 0
M  V30 26657 H 2546.59 -4.92153 -0.0681701 0
M  V30 26658 N 2548.24 -0.224922 -1.55987 0
M  V30 26659 C 2549.49 0.406238 -1.97567 0
M  V30 26660 C 2549.81 1.60658 -1.11572 0
M  V30 26661 O 2551.01 2.30748 -1.43066 0
M  V30 26662 C 2549.47 0.774145 -3.51475 0
M  V30 26663 C 2549.08 -0.403574 -4.46179 0
M  V30 26664 C 2550.82 1.37072 -4.01761 0
M  V30 26665 C 2548.73 -0.0130452 -5.91399 0
M  V30 26666 H 2547.66 0.155552 -0.73778 0
M  V30 26667 H 2550.31 -0.321667 -1.80659 0
M  V30 26668 H 2548.69 1.55957 -3.63997 0
M  V30 26669 H 2549.86 -1.18109 -4.45406 0
M  V30 26670 H 2548.18 -0.913607 -4.06254 0
M  V30 26671 H 2550.78 1.67587 -5.07759 0
M  V30 26672 H 2551.12 2.28767 -3.4781 0
M  V30 26673 H 2551.65 0.648664 -3.92476 0
M  V30 26674 H 2548.39 -0.896565 -6.4934 0
M  V30 26675 H 2547.91 0.728717 -5.95357 0
M  V30 26676 H 2549.59 0.412468 -6.45684 0
M  V30 26677 N 2549.72 1.57526 0.0484352 0
M  V30 26678 C 2550.63 2.08656 1.07237 0
M  V30 26679 C 2551.65 1.02097 1.40898 0
M  V30 26680 O 2552.82 1.33715 1.50606 0
M  V30 26681 C 2549.89 2.53975 2.36004 0
M  V30 26682 C 2548.95 3.74933 2.09101 0
M  V30 26683 C 2548.18 4.18081 3.31729 0
M  V30 26684 O 2548.41 3.60903 4.41708 0
M  V30 26685 O 2547.34 5.10685 3.18567 0
M  V30 26686 H 2551.17 2.96264 0.667913 0
M  V30 26687 H 2548.75 1.47046 0.264144 0
M  V30 26688 H 2550.63 2.8354 3.11742 0
M  V30 26689 H 2549.31 1.69486 2.75783 0
M  V30 26690 H 2548.22 3.50416 1.30993 0
M  V30 26691 H 2549.55 4.60346 1.7419 0
M  V30 26692 N 2551.2 -0.32033 1.5431 0
M  V30 26693 C 2552.45 -1.05789 1.7267 0
M  V30 26694 C 2552.78 -1.87907 0.502117 0
M  V30 26695 O 2552.03 -1.88772 -0.516116 0
M  V30 26696 C 2552.33 -2.00823 2.95643 0
M  V30 26697 C 2552 -1.34835 4.30268 0
M  V30 26698 C 2550.66 -1.16569 4.66867 0
M  V30 26699 C 2553.01 -0.875005 5.13803 0
M  V30 26700 C 2550.34 -0.496233 5.84598 0
M  V30 26701 C 2552.69 -0.219351 6.3222 0
M  V30 26702 C 2551.35 -0.0245742 6.67495 0
M  V30 26703 H 2550.62 -0.38711 0.631844 0
M  V30 26704 H 2553.27 -0.334702 1.88552 0
M  V30 26705 H 2551.58 -2.79604 2.74461 0
M  V30 26706 H 2553.27 -2.57927 3.07042 0
M  V30 26707 H 2549.86 -1.50054 4.01474 0
M  V30 26708 H 2554.05 -1.0039 4.86041 0
M  V30 26709 H 2549.3 -0.334156 6.10486 0
M  V30 26710 H 2553.48 0.155413 6.96227 0
M  V30 26711 H 2551.1 0.496198 7.58579 0
M  V30 26712 N 2552.68 -1.46438 -0.582558 0
M  V30 26713 C 2553.93 -1.51022 -1.33698 0
M  V30 26714 C 2554.24 -0.166393 -1.94891 0
M  V30 26715 O 2555.45 -0.0900431 -2.71351 0
M  V30 26716 C 2553.9 -2.66108 -2.42311 0
M  V30 26717 C 2553.51 -4.06913 -1.8742 0
M  V30 26718 C 2555.25 -2.79963 -3.19094 0
M  V30 26719 C 2553.16 -5.13338 -2.93663 0
M  V30 26720 H 2552.09 -0.56205 -0.502609 0
M  V30 26721 H 2554.74 -1.72649 -0.62167 0
M  V30 26722 H 2553.12 -2.37812 -3.16641 0
M  V30 26723 H 2554.3 -4.45 -1.19631 0
M  V30 26724 H 2552.61 -3.97725 -1.23303 0
M  V30 26725 H 2555.21 -3.56643 -3.98384 0
M  V30 26726 H 2555.55 -1.87486 -3.71692 0
M  V30 26727 H 2556.09 -3.07906 -2.5187 0
M  V30 26728 H 2552.83 -6.07609 -2.45951 0
M  V30 26729 H 2552.35 -4.79795 -3.5994 0
M  V30 26730 H 2554.02 -5.39188 -3.5761 0
M  V30 26731 N 2554.16 0.827204 -1.34146 0
M  V30 26732 C 2555.07 1.96973 -1.27432 0
M  V30 26733 C 2556.08 1.73038 -0.182758 0
M  V30 26734 O 2557.26 1.97214 -0.408461 0
M  V30 26735 C 2554.32 3.31192 -1.02532 0
M  V30 26736 C 2553.38 3.68164 -2.20802 0
M  V30 26737 C 2552.62 4.95978 -1.97081 0
M  V30 26738 O 2552.84 5.62818 -0.926921 0
M  V30 26739 O 2551.77 5.30728 -2.83921 0
M  V30 26740 H 2555.6 2.0558 -2.23541 0
M  V30 26741 H 2553.19 0.961969 -1.14309 0
M  V30 26742 H 2555.07 4.11587 -0.904099 0
M  V30 26743 H 2553.74 3.23562 -0.0945958 0
M  V30 26744 H 2552.65 2.88231 -2.38483 0
M  V30 26745 H 2553.98 3.80474 -3.1225 0
M  V30 26746 N 2555.63 1.17805 1.04688 0
M  V30 26747 C 2556.86 0.994845 1.81982 0
M  V30 26748 C 2557.28 -0.45208 1.82587 0
M  V30 26749 O 2556.64 -1.32398 1.23857 0
M  V30 26750 C 2556.69 1.54664 3.25747 0
M  V30 26751 O 2555.79 0.763799 4.05265 0
M  V30 26752 H 2555.14 0.352867 0.562477 0
M  V30 26753 H 2557.67 1.56419 1.31887 0
M  V30 26754 H 2557.68 1.57109 3.76538 0
M  V30 26755 H 2556.35 2.59987 3.24622 0
M  V30 26756 H 2554.93 0.811172 3.6397 0
M  V30 26757 N 2557.11 -1.23497 0.979094 0
M  V30 26758 C 2558.34 -1.96454 0.66488 0
M  V30 26759 C 2558.76 -1.72007 -0.761256 0
M  V30 26760 O 2558.12 -0.99074 -1.51836 0
M  V30 26761 C 2558.17 -3.47599 0.95954 0
M  V30 26762 O 2557.27 -4.12369 0.0508893 0
M  V30 26763 H 2556.61 -0.615059 0.250196 0
M  V30 26764 H 2559.14 -1.56968 1.31233 0
M  V30 26765 H 2559.15 -3.98046 0.895712 0
M  V30 26766 H 2557.83 -3.64719 1.99882 0
M  V30 26767 H 2556.41 -3.72517 0.169015 0
M  V30 26768 N 2558.59 -0.750586 -1.38578 0
M  V30 26769 C 2559.54 -0.120876 -2.30483 0
M  V30 26770 C 2560.51 0.712896 -1.50023 0
M  V30 26771 O 2561.69 0.669645 -1.78663 0
M  V30 26772 C 2558.83 0.768606 -3.36432 0
M  V30 26773 C 2557.95 -0.0794681 -4.31927 0
M  V30 26774 C 2557.08 0.812737 -5.24946 0
M  V30 26775 C 2556.12 -0.0391523 -6.12087 0
M  V30 26776 N 2555.26 0.809846 -6.97414 0
M  V30 26777 H 2560.1 -0.9102 -2.83759 0
M  V30 26778 H 2557.63 -0.460488 -1.39707 0
M  V30 26779 H 2559.59 1.29891 -3.96464 0
M  V30 26780 H 2558.22 1.52375 -2.84573 0
M  V30 26781 H 2557.27 -0.727369 -3.73381 0
M  V30 26782 H 2558.59 -0.737488 -4.93318 0
M  V30 26783 H 2557.74 1.41032 -5.9008 0
M  V30 26784 H 2556.48 1.5045 -4.63914 0
M  V30 26785 H 2555.48 -0.649424 -5.45951 0
M  V30 26786 H 2556.71 -0.727928 -6.75187 0
M  V30 26787 H 2554.66 1.48661 -6.38933 0
M  V30 26788 H 2554.57 0.208657 -7.55712 0
M  V30 26789 H 2555.84 1.3925 -7.66961 0
M  V30 26790 N 2560.07 1.49477 -0.499425 0
M  V30 26791 C 2561.35 1.95298 0.108595 0
M  V30 26792 C 2561.73 1.44087 1.5428 0
M  V30 26793 O 2561.07 0.653946 2.18942 0
M  V30 26794 C 2561.28 3.48993 0.0228497 0
M  V30 26795 C 2562.63 4.2414 0.197568 0
M  V30 26796 O 2563.66 3.56065 0.0981109 0
M  V30 26797 O 2562.52 5.45023 0.401573 0
M  V30 26798 H 2559.61 0.82139 0.0961665 0
M  V30 26799 H 2562.16 1.60129 -0.561851 0
M  V30 26800 H 2560.93 3.78897 -0.977388 0
M  V30 26801 H 2560.55 3.90775 0.73351 0
M  V30 26802 N 2561.55 0.233191 1.55865 0
M  V30 26803 C 2562.51 -0.658676 2.19532 0
M  V30 26804 C 2563.51 -1.11301 1.16055 0
M  V30 26805 O 2564.7 -1.01993 1.4122 0
M  V30 26806 C 2561.83 -1.90368 2.82794 0
M  V30 26807 H 2563.03 -0.103418 2.99722 0
M  V30 26808 H 2560.58 -0.016397 1.56291 0
M  V30 26809 H 2561.31 -2.50052 2.06505 0
M  V30 26810 H 2561.1 -1.58626 3.58581 0
M  V30 26811 H 2562.59 -2.53885 3.3156 0
M  V30 26812 N 2563.03 -1.57549 -0.0400806 0
M  V30 26813 C 2564.27 -1.88392 -0.731644 0
M  V30 26814 C 2564.59 -0.829456 -1.7648 0
M  V30 26815 O 2563.86 0.138265 -1.95411 0
M  V30 26816 H 2562.44 -0.695244 -0.273213 0
M  V30 26817 H 2565.11 -1.94898 -0.00864299 0
M  V30 26818 H 2564.2 -2.86921 -1.22811 0
M  V30 26819 N 2564.5 0.312142 -1.54478 0
M  V30 26820 C 2565.75 1.04872 -1.73229 0
M  V30 26821 C 2566.08 1.87638 -0.512075 0
M  V30 26822 O 2565.33 1.89043 0.506098 0
M  V30 26823 C 2565.63 1.99253 -2.96704 0
M  V30 26824 C 2565.3 1.32551 -4.30977 0
M  V30 26825 C 2563.96 1.14092 -4.67479 0
M  V30 26826 C 2566.31 0.847744 -5.14259 0
M  V30 26827 C 2563.64 0.465223 -5.84853 0
M  V30 26828 C 2565.99 0.18582 -6.32327 0
M  V30 26829 C 2564.66 -0.0108251 -6.67499 0
M  V30 26830 H 2563.93 0.383754 -0.633888 0
M  V30 26831 H 2566.57 0.324698 -1.88727 0
M  V30 26832 H 2564.88 2.78145 -2.7594 0
M  V30 26833 H 2566.58 2.56295 -3.08406 0
M  V30 26834 H 2563.17 1.47923 -4.02264 0
M  V30 26835 H 2567.35 0.978106 -4.86566 0
M  V30 26836 H 2562.61 0.301776 -6.10655 0
M  V30 26837 H 2566.78 -0.192333 -6.96134 0
M  V30 26838 H 2564.41 -0.53642 -7.58305 0
M  V30 26839 N 2565.98 1.46745 0.574784 0
M  V30 26840 C 2567.39 1.46534 1.15692 0
M  V30 26841 C 2567.74 0.210459 1.95068 0
M  V30 26842 O 2566.87 -0.685908 2.05242 0
M  V30 26843 C 2567.46 2.65491 2.10476 0
M  V30 26844 C 2566.02 2.68296 2.63997 0
M  V30 26845 C 2565.17 2.39351 1.40022 0
M  V30 26846 H 2568.12 1.54509 0.362298 0
M  V30 26847 H 2568.14 2.4146 2.9407 0
M  V30 26848 H 2567.65 3.56807 1.52677 0
M  V30 26849 H 2565.75 1.81073 3.25643 0
M  V30 26850 H 2565.87 3.68489 3.06191 0
M  V30 26851 H 2564.23 1.89571 1.70102 0
M  V30 26852 H 2565.01 3.32854 0.840427 0
M  V30 26853 N 2567.46 -0.820078 1.34583 0
M  V30 26854 C 2568.71 -1.57879 1.27287 0
M  V30 26855 C 2569.04 -1.93572 -0.156103 0
M  V30 26856 O 2568.31 -1.60256 -1.10219 0
M  V30 26857 C 2568.6 -2.87641 2.16644 0
M  V30 26858 C 2568.45 -2.5851 3.68093 0
M  V30 26859 C 2569.77 -3.89236 2.05385 0
M  V30 26860 H 2566.89 -0.572825 0.463725 0
M  V30 26861 H 2569.53 -0.94451 1.64861 0
M  V30 26862 H 2567.68 -3.4177 1.84731 0
M  V30 26863 H 2569.35 -2.10669 4.10386 0
M  V30 26864 H 2567.59 -1.9191 3.89041 0
M  V30 26865 H 2568.27 -3.51056 4.25986 0
M  V30 26866 H 2570.74 -3.44469 2.33411 0
M  V30 26867 H 2569.62 -4.7783 2.70128 0
M  V30 26868 H 2569.88 -4.29894 1.03168 0
M  V30 26869 N 2568.94 -1.18359 -1.04062 0
M  V30 26870 C 2570.19 -0.973344 -1.7666 0
M  V30 26871 C 2570.5 0.497958 -1.89155 0
M  V30 26872 O 2571.71 0.826716 -2.58607 0
M  V30 26873 C 2570.16 -1.69247 -3.17622 0
M  V30 26874 C 2569.77 -3.20308 -3.1322 0
M  V30 26875 C 2571.51 -1.56504 -3.94597 0
M  V30 26876 C 2569.42 -3.8486 -4.49039 0
M  V30 26877 H 2568.35 -0.360552 -0.662207 0
M  V30 26878 H 2571 -1.41733 -1.16551 0
M  V30 26879 H 2569.38 -1.17626 -3.78127 0
M  V30 26880 H 2570.56 -3.78954 -2.62165 0
M  V30 26881 H 2568.87 -3.33193 -2.49743 0
M  V30 26882 H 2571.47 -2.02093 -4.95038 0
M  V30 26883 H 2571.81 -0.517315 -4.13073 0
M  V30 26884 H 2572.35 -2.05405 -3.40666 0
M  V30 26885 H 2569.08 -4.8968 -4.35768 0
M  V30 26886 H 2568.6 -3.31003 -5.00197 0
M  V30 26887 H 2570.28 -3.87727 -5.17955 0
M  V30 26888 N 2570.42 1.22976 -0.98563 0
M  V30 26889 C 2571.36 2.26652 -0.522671 0
M  V30 26890 C 2572.36 1.64035 0.422969 0
M  V30 26891 O 2573.56 1.77545 0.296287 0
M  V30 26892 H 2569.94 0.736764 -0.15061 0
M  V30 26893 H 2571.91 2.63057 -1.40867 0
M  V30 26894 C 2570.66 3.47358 0.154177 0
M  V30 26895 H 2569.98 3.95796 -0.564399 0
M  V30 26896 H 2571.42 4.21693 0.441669 0
M  V30 26897 C 2569.88 3.07018 1.38713 0
M  V30 26898 O 2570.41 3.15768 2.48301 0
M  V30 26899 N 2568.62 2.61877 1.25971 0
M  V30 26900 H 2568.16 2.54958 0.368023 0
M  V30 26901 H 2568.12 2.35254 2.08574 0
M  V30 26902 N 2571.89 0.757924 1.38178 0
M  V30 26903 C 2573.12 0.326973 2.043 0
M  V30 26904 C 2573.54 -1.04617 1.57165 0
M  V30 26905 O 2572.89 -1.66527 0.746655 0
M  V30 26906 C 2572.94 0.345427 3.59846 0
M  V30 26907 O 2572.67 1.66439 4.05253 0
M  V30 26908 C 2574.17 -0.0988491 4.4319 0
M  V30 26909 H 2571.39 0.139023 0.65644 0
M  V30 26910 H 2573.93 1.02799 1.76784 0
M  V30 26911 H 2572.09 -0.306888 3.86183 0
M  V30 26912 H 2572.5 1.59354 4.99707 0
M  V30 26913 H 2573.97 -0.0347775 5.51989 0
M  V30 26914 H 2574.45 -1.14734 4.23949 0
M  V30 26915 H 2575.06 0.524754 4.2205 0
M  V30 26916 N 2573.37 -1.4921 0.507345 0
M  V30 26917 C 2574.78 -1.866 0.0611446 0
M  V30 26918 C 2575.13 -1.41909 -1.35485 0
M  V30 26919 O 2574.26 -0.799762 -2.01079 0
M  V30 26920 C 2574.85 -3.3864 0.104185 0
M  V30 26921 C 2573.41 -3.75306 -0.286704 0
M  V30 26922 C 2572.56 -2.7322 0.473941 0
M  V30 26923 H 2575.51 -1.41438 0.7198 0
M  V30 26924 H 2575.53 -3.74199 -0.689606 0
M  V30 26925 H 2575.04 -3.71136 1.13488 0
M  V30 26926 H 2573.15 -3.4842 -1.3204 0
M  V30 26927 H 2573.26 -4.79086 0.0371587 0
M  V30 26928 H 2571.62 -2.54584 -0.0770197 0
M  V30 26929 H 2572.41 -3.0856 1.50484 0
M  V30 26930 N 2574.85 -0.241454 -1.55739 0
M  V30 26931 C 2576.08 0.392076 -2.0366 0
M  V30 26932 C 2576.5 1.51142 -1.11971 0
M  V30 26933 O 2575.86 1.80956 -0.111626 0
M  V30 26934 C 2575.91 0.882309 -3.49639 0
M  V30 26935 O 2575.01 1.99229 -3.61084 0
M  V30 26936 H 2574.35 0.0862006 -0.658381 0
M  V30 26937 H 2576.88 -0.365917 -2.01301 0
M  V30 26938 H 2576.89 1.18695 -3.90353 0
M  V30 26939 H 2575.57 0.063163 -4.15852 0
M  V30 26940 H 2574.14 1.69276 -3.32265 0
M  V30 26941 N 2576.33 1.57568 0.0317248 0
M  V30 26942 C 2577.28 2.06384 1.03317 0
M  V30 26943 C 2578.25 0.952438 1.3608 0
M  V30 26944 O 2579.43 1.22283 1.46463 0
M  V30 26945 C 2576.57 2.54582 2.32985 0
M  V30 26946 C 2575.68 3.79502 2.06403 0
M  V30 26947 C 2574.82 4.16323 3.29922 0
M  V30 26948 C 2573.86 5.34168 2.98883 0
M  V30 26949 N 2572.99 5.66433 4.14847 0
M  V30 26950 H 2577.83 2.91691 0.609931 0
M  V30 26951 H 2575.37 1.44222 0.289548 0
M  V30 26952 H 2577.33 2.80593 3.08745 0
M  V30 26953 H 2575.96 1.72195 2.73036 0
M  V30 26954 H 2575.01 3.60592 1.21152 0
M  V30 26955 H 2576.32 4.65381 1.79504 0
M  V30 26956 H 2575.48 4.43447 4.14052 0
M  V30 26957 H 2574.22 3.2909 3.59932 0
M  V30 26958 H 2573.22 5.06799 2.13156 0
M  V30 26959 H 2574.45 6.23052 2.70154 0
M  V30 26960 H 2572.39 4.82159 4.44813 0
M  V30 26961 H 2572.31 6.46816 3.91362 0
M  V30 26962 H 2573.58 5.98133 4.99857 0
M  V30 26963 N 2577.81 -0.303946 1.54641 0
M  V30 26964 C 2579.03 -1.05855 1.7777 0
M  V30 26965 C 2579.45 -1.81039 0.535754 0
M  V30 26966 O 2578.81 -1.75678 -0.494306 0
M  V30 26967 C 2578.86 -2.04141 2.98344 0
M  V30 26968 O 2578.58 -1.32008 4.17739 0
M  V30 26969 C 2580.08 -2.91663 3.33838 0
M  V30 26970 H 2577.3 -0.314057 0.592967 0
M  V30 26971 H 2579.84 -0.344113 2.01584 0
M  V30 26972 H 2578 -2.71091 2.76746 0
M  V30 26973 H 2578.41 -1.97989 4.85696 0
M  V30 26974 H 2579.89 -3.56483 4.21454 0
M  V30 26975 H 2580.36 -3.59808 2.51863 0
M  V30 26976 H 2580.97 -2.30248 3.57583 0
M  V30 26977 N 2579.28 -1.47047 -0.566994 0
M  V30 26978 C 2580.23 -1.58798 -1.67486 0
M  V30 26979 C 2581.2 -0.431468 -1.60398 0
M  V30 26980 O 2582.39 -0.650264 -1.79377 0
M  V30 26981 C 2579.53 -1.59904 -3.05818 0
M  V30 26982 C 2578.64 -2.86403 -3.23415 0
M  V30 26983 C 2577.77 -2.78908 -4.52088 0
M  V30 26984 C 2576.81 -4.00275 -4.63083 0
M  V30 26985 N 2575.95 -3.91075 -5.831 0
M  V30 26986 H 2580.79 -2.53424 -1.5678 0
M  V30 26987 H 2578.33 -1.25711 -0.763874 0
M  V30 26988 H 2580.29 -1.58529 -3.85907 0
M  V30 26989 H 2578.92 -0.687984 -3.15383 0
M  V30 26990 H 2577.97 -2.97688 -2.36824 0
M  V30 26991 H 2579.28 -3.76307 -3.27405 0
M  V30 26992 H 2578.43 -2.75727 -5.40425 0
M  V30 26993 H 2577.17 -1.8667 -4.50561 0
M  V30 26994 H 2576.18 -4.03771 -3.7316 0
M  V30 26995 H 2577.4 -4.93629 -4.66377 0
M  V30 26996 H 2575.35 -3.01633 -5.8254 0
M  V30 26997 H 2575.27 -4.74649 -5.88426 0
M  V30 26998 H 2576.53 -3.91894 -6.73824 0
M  V30 26999 N 2580.76 0.812929 -1.35016 0
M  V30 27000 C 2581.69 1.93916 -1.30072 0
M  V30 27001 C 2582.67 1.69184 -0.176304 0
M  V30 27002 O 2583.86 1.90638 -0.370261 0
M  V30 27003 C 2580.99 3.30551 -1.06553 0
M  V30 27004 C 2579.94 3.69749 -2.15568 0
M  V30 27005 C 2579.27 5.04476 -1.77223 0
M  V30 27006 C 2580.57 3.80793 -3.57483 0
M  V30 27007 H 2582.26 1.9831 -2.24307 0
M  V30 27008 H 2579.81 0.952717 -1.07978 0
M  V30 27009 H 2581.76 4.08935 -1.01736 0
M  V30 27010 H 2580.49 3.26482 -0.0876293 0
M  V30 27011 H 2579.14 2.93646 -2.19471 0
M  V30 27012 H 2578.79 4.96905 -0.780676 0
M  V30 27013 H 2578.49 5.31674 -2.50194 0
M  V30 27014 H 2580.02 5.85307 -1.7392 0
M  V30 27015 H 2581.43 4.49424 -3.55937 0
M  V30 27016 H 2579.83 4.19455 -4.2916 0
M  V30 27017 H 2580.9 2.82518 -3.94096 0
M  V30 27018 N 2582.24 1.18909 1.03433 0
M  V30 27019 C 2583.15 0.937053 2.15073 0
M  V30 27020 C 2584.17 -0.101054 1.73706 0
M  V30 27021 O 2585.34 0.0823301 2.01232 0
M  V30 27022 C 2582.41 0.473118 3.43457 0
M  V30 27023 C 2581.47 1.57996 3.99169 0
M  V30 27024 C 2580.7 1.13806 5.21425 0
M  V30 27025 O 2580.92 -0.000625679 5.704 0
M  V30 27026 O 2579.86 1.9384 5.69833 0
M  V30 27027 H 2583.68 1.87136 2.39194 0
M  V30 27028 H 2581.27 0.971447 1.13504 0
M  V30 27029 H 2583.15 0.222776 4.20811 0
M  V30 27030 H 2581.83 -0.432813 3.20793 0
M  V30 27031 H 2580.73 1.88439 3.23174 0
M  V30 27032 H 2582.07 2.46224 4.26186 0
M  V30 27033 N 2583.72 -1.22452 0.992137 0
M  V30 27034 C 2585.13 -1.72967 0.702807 0
M  V30 27035 C 2585.48 -1.80013 -0.780368 0
M  V30 27036 O 2584.61 -1.44591 -1.61004 0
M  V30 27037 C 2585.2 -3.14133 1.26909 0
M  V30 27038 C 2583.76 -3.62057 1.02915 0
M  V30 27039 C 2582.91 -2.39962 1.38974 0
M  V30 27040 H 2585.86 -1.0781 1.16459 0
M  V30 27041 H 2585.88 -3.74954 0.647289 0
M  V30 27042 H 2585.39 -3.08973 2.34856 0
M  V30 27043 H 2583.49 -3.72585 -0.0337324 0
M  V30 27044 H 2583.6 -4.48228 1.69199 0
M  V30 27045 H 2581.97 -2.41533 0.808322 0
M  V30 27046 H 2582.75 -2.37463 2.47924 0
M  V30 27047 N 2585.2 -0.765242 -1.37774 0
M  V30 27048 C 2586.42 -0.336573 -2.04651 0
M  V30 27049 C 2586.85 1.03083 -1.57339 0
M  V30 27050 O 2586.2 1.65925 -0.73065 0
M  V30 27051 C 2586.25 -0.381531 -3.58576 0
M  V30 27052 O 2585.36 0.620348 -4.07708 0
M  V30 27053 H 2584.7 -0.14685 -0.647558 0
M  V30 27054 H 2587.23 -1.03962 -1.76219 0
M  V30 27055 H 2587.24 -0.236519 -4.07314 0
M  V30 27056 H 2585.91 -1.37914 -3.92368 0
M  V30 27057 H 2584.49 0.438991 -3.70307 0
M  V30 27058 N 2586.67 1.48939 -0.515251 0
M  V30 27059 C 2587.92 2.02786 0.0242152 0
M  V30 27060 C 2588.25 1.39291 1.35321 0
M  V30 27061 O 2587.53 0.533502 1.8704 0
M  V30 27062 C 2587.81 3.59736 0.161777 0
M  V30 27063 C 2587.66 4.33736 -1.19134 0
M  V30 27064 C 2588.98 4.3089 0.895644 0
M  V30 27065 H 2586.1 0.736964 0.00732618 0
M  V30 27066 H 2588.74 1.77816 -0.669426 0
M  V30 27067 H 2586.89 3.81141 0.752557 0
M  V30 27068 H 2588.57 4.23789 -1.8221 0
M  V30 27069 H 2586.81 3.95733 -1.77702 0
M  V30 27070 H 2587.48 5.41956 -1.04824 0
M  V30 27071 H 2589.96 4.14226 0.394455 0
M  V30 27072 H 2588.83 5.40426 0.960764 0
M  V30 27073 H 2589.09 3.97133 1.94263 0
M  V30 27074 N 2588.15 0.249709 1.55609 0
M  V30 27075 C 2589.4 -0.374252 1.99012 0
M  V30 27076 C 2589.73 -1.57742 1.13788 0
M  V30 27077 O 2588.98 -1.94782 0.18936 0
M  V30 27078 C 2589.28 -0.824826 3.47752 0
M  V30 27079 C 2588.95 0.270898 4.50085 0
M  V30 27080 C 2587.61 0.57183 4.7779 0
M  V30 27081 C 2589.96 1.0105 5.1131 0
M  V30 27082 C 2587.29 1.61639 5.63994 0
M  V30 27083 C 2589.64 2.0446 5.98647 0
M  V30 27084 C 2588.31 2.35215 6.24684 0
M  V30 27085 H 2587.58 -0.136948 0.728235 0
M  V30 27086 H 2590.22 0.35812 1.88122 0
M  V30 27087 H 2588.53 -1.63645 3.55988 0
M  V30 27088 H 2590.23 -1.31793 3.78724 0
M  V30 27089 H 2586.82 0.0262114 4.28592 0
M  V30 27090 H 2591 0.791263 4.89952 0
M  V30 27091 H 2586.26 1.85998 5.82421 0
M  V30 27092 H 2590.43 2.62259 6.4513 0
M  V30 27093 H 2588.06 3.16294 6.91276 0
M  V30 27094 N 2589.63 -1.57583 -0.0233682 0
M  V30 27095 C 2590.58 -2.03398 -1.0302 0
M  V30 27096 C 2591.57 -0.924338 -1.317 0
M  V30 27097 O 2592.76 -1.18821 -1.31189 0
M  V30 27098 C 2589.89 -2.52163 -2.32957 0
M  V30 27099 C 2588.97 -3.69959 -2.07342 0
M  V30 27100 N 2589.36 -4.82482 -1.51805 0
M  V30 27101 C 2587.66 -3.77442 -2.37599 0
M  V30 27102 C 2588.36 -5.6407 -1.42126 0
M  V30 27103 N 2587.34 -5.09358 -1.89882 0
M  V30 27104 H 2591.14 -2.87816 -0.594911 0
M  V30 27105 H 2588.65 -1.60769 -0.229557 0
M  V30 27106 H 2590.65 -2.83249 -3.05901 0
M  V30 27107 H 2589.31 -1.69154 -2.77159 0
M  V30 27108 H 2590.32 -5.03806 -1.19999 0
M  V30 27109 H 2587 -3.05244 -2.84837 0
M  V30 27110 H 2588.39 -6.64473 -0.996288 0
M  V30 27111 N 2591.11 0.29574 -1.548 0
M  V30 27112 C 2592.04 1.38667 -1.82494 0
M  V30 27113 C 2593.05 1.46591 -0.70816 0
M  V30 27114 O 2594.24 1.48815 -0.985713 0
M  V30 27115 C 2591.34 2.76995 -1.95261 0
M  V30 27116 C 2590.52 2.9194 -3.25714 0
M  V30 27117 C 2589.58 4.108 -3.28831 0
M  V30 27118 O 2588.6 4.02636 -4.02335 0
M  V30 27119 N 2589.8 5.21689 -2.54599 0
M  V30 27120 H 2592.57 1.15264 -2.76648 0
M  V30 27121 H 2590.13 0.485822 -1.54439 0
M  V30 27122 H 2592.12 3.54764 -1.94742 0
M  V30 27123 H 2590.69 2.93322 -1.08078 0
M  V30 27124 H 2589.91 2.01241 -3.38963 0
M  V30 27125 H 2591.2 2.9884 -4.11791 0
M  V30 27126 H 2590.6 5.31204 -1.94522 0
M  V30 27127 H 2589.15 5.97773 -2.59828 0
M  V30 27128 N 2592.59 1.47346 0.559187 0
M  V30 27129 C 2593.83 1.54097 1.3184 0
M  V30 27130 C 2594.17 0.20176 1.93149 0
M  V30 27131 O 2593.44 -0.789397 1.7776 0
M  V30 27132 C 2593.72 2.65749 2.43001 0
M  V30 27133 C 2593.58 4.0928 1.86574 0
M  V30 27134 C 2594.9 2.73324 3.44938 0
M  V30 27135 H 2592.02 0.560966 0.478002 0
M  V30 27136 H 2594.66 1.79393 0.625945 0
M  V30 27137 H 2592.81 2.44311 3.02067 0
M  V30 27138 H 2594.48 4.42075 1.31784 0
M  V30 27139 H 2592.72 4.17651 1.17261 0
M  V30 27140 H 2593.39 4.83172 2.66924 0
M  V30 27141 H 2595.87 2.92659 2.95787 0
M  V30 27142 H 2594.75 3.53225 4.20147 0
M  V30 27143 H 2595.01 1.80304 4.03662 0
M  V30 27144 N 2594.07 -0.805758 1.35445 0
M  V30 27145 C 2595.31 -1.56288 1.28764 0
M  V30 27146 C 2595.64 -1.94012 -0.137713 0
M  V30 27147 O 2594.9 -1.61644 -1.10317 0
M  V30 27148 C 2595.19 -2.86212 2.1405 0
M  V30 27149 C 2594.86 -2.67703 3.6283 0
M  V30 27150 C 2593.52 -2.62363 4.03385 0
M  V30 27151 C 2595.87 -2.50178 4.57231 0
M  V30 27152 C 2593.2 -2.37442 5.36506 0
M  V30 27153 C 2595.55 -2.26786 5.90551 0
M  V30 27154 C 2594.22 -2.19869 6.30249 0
M  V30 27155 H 2593.49 -0.5719 0.471181 0
M  V30 27156 H 2596.14 -0.930944 1.67349 0
M  V30 27157 H 2594.44 -3.53788 1.68348 0
M  V30 27158 H 2596.14 -3.43913 2.06216 0
M  V30 27159 H 2592.73 -2.72707 3.30649 0
M  V30 27160 H 2596.91 -2.53315 4.26784 0
M  V30 27161 H 2592.17 -2.30557 5.66263 0
M  V30 27162 H 2596.34 -2.12217 6.63277 0
M  V30 27163 H 2593.97 -2.0032 7.33332 0
M  V30 27164 N 2595.54 -1.19456 -1.02801 0
M  V30 27165 C 2596.45 -0.948445 -2.14573 0
M  V30 27166 C 2597.47 0.0918405 -1.73757 0
M  V30 27167 O 2598.65 -0.0930008 -2.01185 0
M  V30 27168 C 2595.71 -0.491326 -3.43201 0
M  V30 27169 C 2594.77 -1.6011 -3.98325 0
M  V30 27170 C 2594 -1.1657 -5.20814 0
M  V30 27171 O 2594.23 -0.029624 -5.70392 0
M  V30 27172 O 2593.16 -1.96859 -5.68797 0
M  V30 27173 H 2596.99 -1.88401 -2.38199 0
M  V30 27174 H 2594.57 -0.977453 -1.12988 0
M  V30 27175 H 2596.45 -0.245089 -4.20687 0
M  V30 27176 H 2595.13 0.415794 -3.21018 0
M  V30 27177 H 2594.04 -1.9015 -3.22171 0
M  V30 27178 H 2595.37 -2.48481 -4.24874 0
M  V30 27179 N 2597.02 1.21924 -0.998617 0
M  V30 27180 C 2598.27 1.90446 -0.676358 0
M  V30 27181 C 2598.59 1.78072 0.794688 0
M  V30 27182 O 2597.86 1.17155 1.57008 0
M  V30 27183 H 2596.44 0.70492 -0.247177 0
M  V30 27184 H 2599.1 1.48154 -1.26635 0
M  V30 27185 H 2598.2 2.97484 -0.94391 0
M  V30 27186 N 2598.5 0.772537 1.37367 0
M  V30 27187 C 2599.45 0.147152 2.32134 0
M  V30 27188 C 2600.44 -0.684079 1.54973 0
M  V30 27189 O 2601.65 -0.581053 1.70364 0
M  V30 27190 H 2598.02 0.0287992 0.751448 0
M  V30 27191 H 2599.99 0.962162 2.82462 0
M  V30 27192 C 2598.74 -0.716971 3.40228 0
M  V30 27193 H 2598.07 -0.0867249 3.99706 0
M  V30 27194 H 2599.51 -1.12151 4.08899 0
M  V30 27195 C 2597.96 -1.86792 2.80375 0
M  V30 27196 O 2598.49 -2.96344 2.71188 0
M  V30 27197 N 2596.7 -1.66878 2.37907 0
M  V30 27198 H 2596.25 -0.777716 2.4558 0
M  V30 27199 H 2596.21 -2.44053 1.98206 0
M  V30 27200 N 2599.98 -1.48664 0.523142 0
M  V30 27201 C 2600.92 -2.29513 -0.243358 0
M  V30 27202 C 2601.89 -1.36934 -0.940115 0
M  V30 27203 O 2603.08 -1.65898 -0.942474 0
M  V30 27204 C 2600.22 -3.20143 -1.28849 0
M  V30 27205 C 2599.33 -4.27795 -0.601275 0
M  V30 27206 C 2598.47 -5.05614 -1.62875 0
M  V30 27207 C 2597.51 -6.05076 -0.92462 0
M  V30 27208 N 2596.64 -6.75978 -1.89732 0
M  V30 27209 H 2601.48 -2.94548 0.452286 0
M  V30 27210 H 2599.02 -1.45213 0.234884 0
M  V30 27211 H 2600.98 -3.71082 -1.90667 0
M  V30 27212 H 2599.61 -2.57047 -1.95261 0
M  V30 27213 H 2598.66 -3.80175 0.130689 0
M  V30 27214 H 2599.97 -4.98777 -0.0480708 0
M  V30 27215 H 2599.13 -5.60532 -2.32139 0
M  V30 27216 H 2597.87 -4.34456 -2.21584 0
M  V30 27217 H 2596.87 -5.49368 -0.21787 0
M  V30 27218 H 2598.1 -6.7823 -0.343732 0
M  V30 27219 H 2596.04 -6.07576 -2.47362 0
M  V30 27220 H 2595.96 -7.43011 -1.39537 0
M  V30 27221 H 2597.23 -7.35489 -2.58216 0
M  V30 27222 N 2601.46 -0.257958 -1.55475 0
M  V30 27223 C 2602.37 0.647386 -2.25491 0
M  V30 27224 C 2603.38 1.18424 -1.27482 0
M  V30 27225 O 2604.56 1.21817 -1.60382 0
M  V30 27226 C 2601.62 1.82273 -2.94919 0
M  V30 27227 C 2600.68 1.32425 -4.08365 0
M  V30 27228 C 2599.92 2.44357 -4.74474 0
M  V30 27229 O 2600.14 3.63336 -4.39708 0
M  V30 27230 O 2599.07 2.13487 -5.62767 0
M  V30 27231 H 2602.9 0.0807173 -3.03593 0
M  V30 27232 H 2600.48 -0.0260225 -1.49377 0
M  V30 27233 H 2602.37 2.5084 -3.38611 0
M  V30 27234 H 2601.04 2.37681 -2.19748 0
M  V30 27235 H 2599.95 0.60554 -3.69167 0
M  V30 27236 H 2601.28 0.816126 -4.85387 0
M  V30 27237 N 2602.93 1.57593 0.0150108 0
M  V30 27238 C 2604.35 1.7811 0.559801 0
M  V30 27239 C 2604.7 0.890786 1.74813 0
M  V30 27240 O 2603.82 0.0892863 2.16216 0
M  V30 27241 C 2604.42 3.23008 1.02232 0
M  V30 27242 C 2602.98 3.44673 1.51252 0
M  V30 27243 C 2602.12 2.7351 0.456907 0
M  V30 27244 H 2605.07 1.57288 -0.211197 0
M  V30 27245 H 2605.09 3.30295 1.88906 0
M  V30 27246 H 2604.61 3.87781 0.157234 0
M  V30 27247 H 2602.71 2.85094 2.399 0
M  V30 27248 H 2602.82 4.53323 1.55034 0
M  V30 27249 H 2601.18 2.37691 0.915154 0
M  V30 27250 H 2601.97 3.40974 -0.398956 0
M  V30 27251 N 2604.41 -0.287527 1.54955 0
M  V30 27252 C 2605.38 -1.33819 1.86078 0
M  V30 27253 C 2606.38 -1.43048 0.734439 0
M  V30 27254 O 2607.57 -1.4245 1.00268 0
M  V30 27255 C 2604.7 -2.72141 2.0531 0
M  V30 27256 H 2605.89 -1.0746 2.79986 0
M  V30 27257 H 2603.44 -0.524876 1.47223 0
M  V30 27258 H 2604.18 -3.03702 1.13735 0
M  V30 27259 H 2603.96 -2.66831 2.87304 0
M  V30 27260 H 2605.45 -3.48083 2.30713 0
M  V30 27261 N 2605.89 -1.47641 -0.551365 0
M  V30 27262 C 2607.14 -1.54794 -1.31021 0
M  V30 27263 C 2607.47 -0.212001 -1.93039 0
M  V30 27264 O 2606.74 0.779959 -1.78177 0
M  V30 27265 C 2607.03 -2.67034 -2.41589 0
M  V30 27266 C 2606.88 -4.10264 -1.84401 0
M  V30 27267 C 2608.2 -2.75149 -3.43483 0
M  V30 27268 H 2605.32 -0.563493 -0.475021 0
M  V30 27269 H 2607.96 -1.79723 -0.616423 0
M  V30 27270 H 2606.11 -2.45909 -3.00767 0
M  V30 27271 H 2607.78 -4.42768 -1.29438 0
M  V30 27272 H 2606.03 -4.18267 -1.15044 0
M  V30 27273 H 2606.7 -4.84581 -2.64358 0
M  V30 27274 H 2609.17 -2.94223 -2.94231 0
M  V30 27275 H 2608.05 -3.55448 -4.18268 0
M  V30 27276 H 2608.31 -1.82442 -4.027 0
M  V30 27277 N 2607.37 0.798563 -1.3587 0
M  V30 27278 C 2608.3 1.92526 -1.32121 0
M  V30 27279 C 2609.28 1.68987 -0.194239 0
M  V30 27280 O 2610.46 1.90234 -0.39046 0
M  V30 27281 C 2607.59 3.29402 -1.10053 0
M  V30 27282 C 2606.55 3.67442 -2.19477 0
M  V30 27283 C 2605.87 5.02568 -1.82564 0
M  V30 27284 C 2607.17 3.7698 -3.61501 0
M  V30 27285 H 2608.87 1.9592 -2.26397 0
M  V30 27286 H 2606.41 0.941211 -1.08983 0
M  V30 27287 H 2608.37 4.07833 -1.06068 0
M  V30 27288 H 2607.09 3.26371 -0.122252 0
M  V30 27289 H 2605.75 2.91302 -2.22573 0
M  V30 27290 H 2605.4 4.96049 -0.833336 0
M  V30 27291 H 2605.1 5.2899 -2.55819 0
M  V30 27292 H 2606.62 5.83429 -1.80118 0
M  V30 27293 H 2608.04 4.45624 -3.60683 0
M  V30 27294 H 2606.43 4.14879 -4.33584 0
M  V30 27295 H 2607.5 2.78322 -3.9707 0
M  V30 27296 N 2608.85 1.19999 1.02166 0
M  V30 27297 C 2610.26 0.95376 1.27967 0
M  V30 27298 C 2610.46 -0.369668 1.9808 0
M  V30 27299 O 2609.52 -1.09943 2.27308 0
M  V30 27300 C 2610.83 2.13285 2.11967 0
M  V30 27301 C 2612.38 2.17327 2.25251 0
M  V30 27302 C 2612.85 3.34708 3.12626 0
M  V30 27303 N 2614.35 3.34689 3.20214 0
M  V30 27304 C 2615.08 4.2216 3.88032 0
M  V30 27305 N 2614.58 5.19799 4.58018 0
M  V30 27306 N 2616.37 4.10016 3.84504 0
M  V30 27307 H 2608.52 2.05135 0.550758 0
M  V30 27308 H 2610.78 0.897369 0.305667 0
M  V30 27309 H 2610.49 3.091 1.6778 0
M  V30 27310 H 2610.36 2.10954 3.12695 0
M  V30 27311 H 2612.75 1.22078 2.68665 0
M  V30 27312 H 2612.83 2.23709 1.24049 0
M  V30 27313 H 2612.48 4.3024 2.69918 0
M  V30 27314 H 2612.41 3.25563 4.13904 0
M  V30 27315 H 2614.9 2.64017 2.70377 0
M  V30 27316 H 2615.21 5.82877 5.07419 0
M  V30 27317 H 2613.55 5.23741 4.5686 0
M  V30 27318 H 2616.75 3.33009 3.28972 0
M  V30 27319 H 2616.92 4.78397 4.37082 0
M  V30 27320 N 2610.32 -1.21392 1.00507 0
M  V30 27321 C 2611.27 -2.25791 0.558663 0
M  V30 27322 C 2612.27 -1.64687 -0.396819 0
M  V30 27323 O 2613.47 -1.77994 -0.268004 0
M  V30 27324 H 2609.85 -0.734274 0.162313 0
M  V30 27325 H 2611.82 -2.60783 1.45034 0
M  V30 27326 C 2610.57 -3.47559 -0.0988963 0
M  V30 27327 H 2609.89 -3.94848 0.627295 0
M  V30 27328 H 2611.33 -4.22343 -0.374526 0
M  V30 27329 C 2609.79 -3.09186 -1.33811 0
M  V30 27330 O 2610.32 -3.19678 -2.43246 0
M  V30 27331 N 2608.53 -2.63848 -1.21789 0
M  V30 27332 H 2608.07 -2.55511 -0.327415 0
M  V30 27333 H 2608.03 -2.38542 -2.04805 0
M  V30 27334 N 2611.8 -0.779811 -1.36955 0
M  V30 27335 C 2613.05 -0.347114 -1.99097 0
M  V30 27336 C 2613.37 1.08229 -1.62208 0
M  V30 27337 O 2612.64 1.74444 -0.891404 0
M  V30 27338 H 2611.22 -0.125355 -0.736407 0
M  V30 27339 H 2613.88 -0.999726 -1.67307 0
M  V30 27340 H 2612.98 -0.431216 -3.09107 0
M  V30 27341 N 2613.28 1.48384 -0.531019 0
M  V30 27342 C 2614.56 1.95485 0.0671445 0
M  V30 27343 C 2614.94 1.47327 1.51189 0
M  V30 27344 O 2614.29 0.70024 2.17506 0
M  V30 27345 C 2614.5 3.48962 -0.0511819 0
M  V30 27346 C 2615.84 4.24464 0.107557 0
M  V30 27347 O 2616.87 3.56193 0.0225622 0
M  V30 27348 O 2615.73 5.45752 0.285876 0
M  V30 27349 H 2612.82 0.823245 0.078722 0
M  V30 27350 H 2615.37 1.58901 -0.59569 0
M  V30 27351 H 2614.14 3.76738 -1.05754 0
M  V30 27352 H 2613.76 3.92243 0.650456 0
M  V30 27353 N 2614.76 0.2662 1.55336 0
M  V30 27354 C 2616.17 -0.233282 1.85237 0
M  V30 27355 C 2616.52 -1.5613 1.18819 0
M  V30 27356 O 2615.65 -2.1116 0.473344 0
M  V30 27357 C 2616.24 -0.430054 3.36059 0
M  V30 27358 C 2614.8 -0.873777 3.66118 0
M  V30 27359 C 2613.95 0.0380503 2.77274 0
M  V30 27360 H 2616.9 0.48824 1.51003 0
M  V30 27361 H 2616.92 -1.26992 3.58683 0
M  V30 27362 H 2616.43 0.536656 3.84372 0
M  V30 27363 H 2614.53 -1.85227 3.23298 0
M  V30 27364 H 2614.64 -0.717274 4.737 0
M  V30 27365 H 2613.01 -0.476716 2.50199 0
M  V30 27366 H 2613.79 1.00048 3.28398 0
M  V30 27367 N 2616.24 -1.57599 -0.0066531 0
M  V30 27368 C 2617.65 -1.55425 -0.362642 0
M  V30 27369 C 2617.85 -0.995218 -1.75207 0
M  V30 27370 O 2616.91 -0.626101 -2.44614 0
M  V30 27371 C 2618.22 -2.99709 -0.243965 0
M  V30 27372 C 2619.77 -3.11366 -0.319396 0
M  V30 27373 C 2620.24 -4.57423 -0.229918 0
M  V30 27374 N 2621.74 -4.62304 -0.288024 0
M  V30 27375 C 2622.47 -5.72889 -0.242026 0
M  V30 27376 N 2621.97 -6.92644 -0.147012 0
M  V30 27377 N 2623.76 -5.61334 -0.293404 0
M  V30 27378 H 2615.91 -1.9228 0.902347 0
M  V30 27379 H 2618.17 -0.88289 0.345266 0
M  V30 27380 H 2617.88 -3.44423 0.711739 0
M  V30 27381 H 2617.75 -3.62901 -1.02871 0
M  V30 27382 H 2620.14 -2.66586 -1.26554 0
M  V30 27383 H 2620.22 -2.50963 0.495099 0
M  V30 27384 H 2619.87 -5.02875 0.712654 0
M  V30 27385 H 2619.8 -5.15763 -1.06281 0
M  V30 27386 H 2622.29 -3.76152 -0.36306 0
M  V30 27387 H 2622.6 -7.7271 -0.117627 0
M  V30 27388 H 2620.94 -6.94909 -0.112735 0
M  V30 27389 H 2624.14 -4.66669 -0.365782 0
M  V30 27390 H 2624.31 -6.47502 -0.25409 0
M  V30 27391 N 2617.72 0.279305 -1.55105 0
M  V30 27392 C 2618.65 1.34942 -1.90559 0
M  V30 27393 C 2619.63 1.51838 -0.766765 0
M  V30 27394 O 2620.81 1.64986 -1.02437 0
M  V30 27395 C 2617.94 2.71002 -2.17198 0
M  V30 27396 C 2616.9 2.68845 -3.33026 0
M  V30 27397 C 2616.22 4.08399 -3.4513 0
M  V30 27398 C 2617.52 2.2867 -4.69582 0
M  V30 27399 H 2619.22 1.05517 -2.8019 0
M  V30 27400 H 2616.76 0.50615 -1.34811 0
M  V30 27401 H 2618.71 3.45971 -2.40587 0
M  V30 27402 H 2617.44 3.01997 -1.2436 0
M  V30 27403 H 2616.1 1.96335 -3.09594 0
M  V30 27404 H 2615.75 4.36605 -2.4977 0
M  V30 27405 H 2615.45 4.07852 -4.23002 0
M  V30 27406 H 2616.97 4.85115 -3.70805 0
M  V30 27407 H 2618.38 2.93359 -4.92558 0
M  V30 27408 H 2616.78 2.39296 -5.50325 0
M  V30 27409 H 2617.85 1.23798 -4.6883 0
M  V30 27410 N 2619.19 1.47931 0.543528 0
M  V30 27411 C 2620.14 1.61443 1.64939 0
M  V30 27412 C 2621.11 0.456931 1.59691 0
M  V30 27413 O 2622.3 0.678719 1.7832 0
M  V30 27414 C 2619.44 1.64749 3.03236 0
M  V30 27415 C 2618.55 2.91512 3.18818 0
M  V30 27416 C 2617.68 2.86065 4.47594 0
M  V30 27417 C 2616.72 4.07592 4.56657 0
M  V30 27418 N 2615.86 4.00302 5.76804 0
M  V30 27419 H 2620.7 2.55886 1.52729 0
M  V30 27420 H 2618.24 1.26911 0.743778 0
M  V30 27421 H 2620.19 1.64648 3.83336 0
M  V30 27422 H 2618.82 0.738072 3.14249 0
M  V30 27423 H 2617.88 3.01418 2.32059 0
M  V30 27424 H 2619.19 3.81468 3.21377 0
M  V30 27425 H 2618.34 2.8429 5.3597 0
M  V30 27426 H 2617.08 1.93815 4.47535 0
M  V30 27427 H 2616.09 4.09657 3.6669 0
M  V30 27428 H 2617.31 5.00986 4.58465 0
M  V30 27429 H 2615.26 3.10863 5.77668 0
M  V30 27430 H 2615.17 4.8395 5.808 0
M  V30 27431 H 2616.44 4.02564 6.67504 0
M  V30 27432 N 2620.67 -0.791347 1.36292 0
M  V30 27433 C 2621.92 -1.55143 1.30608 0
M  V30 27434 C 2622.25 -1.93859 -0.115008 0
M  V30 27435 O 2621.53 -1.62558 -1.06795 0
M  V30 27436 C 2621.81 -2.82981 2.22697 0
M  V30 27437 C 2621.66 -2.50644 3.73494 0
M  V30 27438 C 2622.98 -3.84792 2.13595 0
M  V30 27439 H 2620.1 -0.56286 0.475771 0
M  V30 27440 H 2622.74 -0.909328 1.66827 0
M  V30 27441 H 2620.89 -3.37775 1.91939 0
M  V30 27442 H 2622.56 -2.01917 4.14762 0
M  V30 27443 H 2620.81 -1.83615 3.93024 0
M  V30 27444 H 2621.48 -3.41941 4.33336 0
M  V30 27445 H 2623.95 -3.3944 2.40665 0
M  V30 27446 H 2622.83 -4.71993 2.80203 0
M  V30 27447 H 2623.09 -4.27609 1.12264 0
M  V30 27448 N 2622.15 -1.2054 -1.01528 0
M  V30 27449 C 2623.1 -0.952272 -2.12213 0
M  V30 27450 C 2624.09 0.0968438 -1.69123 0
M  V30 27451 O 2625.3 -0.0536323 -1.7992 0
M  V30 27452 H 2621.67 -0.290625 -0.693571 0
M  V30 27453 H 2623.64 -1.89205 -2.30746 0
M  V30 27454 C 2622.39 -0.522347 -3.43754 0
M  V30 27455 H 2621.72 -1.32121 -3.77338 0
M  V30 27456 H 2623.16 -0.384464 -4.22253 0
M  V30 27457 C 2621.61 0.765431 -3.2809 0
M  V30 27458 O 2622.14 1.82354 -3.57924 0
M  V30 27459 N 2620.35 0.727962 -2.81334 0
M  V30 27460 H 2619.9 -0.133377 -2.57254 0
M  V30 27461 H 2619.86 1.58994 -2.71235 0
M  V30 27462 N 2623.63 1.20858 -1.01149 0
M  V30 27463 C 2624.87 1.90094 -0.697898 0
M  V30 27464 C 2625.2 1.78524 0.771982 0
M  V30 27465 O 2624.46 1.1603 1.57593 0
M  V30 27466 C 2624.76 3.4092 -1.07276 0
M  V30 27467 C 2624.42 3.72689 -2.53799 0
M  V30 27468 C 2623.08 3.8107 -2.93835 0
M  V30 27469 C 2625.44 3.8739 -3.4868 0
M  V30 27470 C 2622.76 4.01606 -4.27703 0
M  V30 27471 C 2625.12 4.09435 -4.8223 0
M  V30 27472 C 2623.78 4.16045 -5.2198 0
M  V30 27473 H 2623.05 0.695602 -0.255379 0
M  V30 27474 H 2625.7 1.43229 -1.27113 0
M  V30 27475 H 2624 3.89565 -0.417867 0
M  V30 27476 H 2625.7 3.92778 -0.807887 0
M  V30 27477 H 2622.29 3.66761 -2.21775 0
M  V30 27478 H 2626.47 3.80276 -3.18911 0
M  V30 27479 H 2621.73 4.04956 -4.58062 0
M  V30 27480 H 2625.9 4.19753 -5.5568 0
M  V30 27481 H 2623.53 4.3171 -6.25724 0
M  V30 27482 N 2625.11 0.787064 1.3654 0
M  V30 27483 C 2626.02 0.184937 2.3387 0
M  V30 27484 C 2627.03 -0.661668 1.60928 0
M  V30 27485 O 2628.21 -0.578006 1.92928 0
M  V30 27486 C 2625.27 -0.672085 3.40123 0
M  V30 27487 C 2624.33 0.192746 4.28867 0
M  V30 27488 C 2623.57 -0.623468 5.30046 0
M  V30 27489 O 2623.79 -1.8596 5.39236 0
M  V30 27490 O 2622.72 -0.024601 6.01895 0
M  V30 27491 H 2626.55 0.989613 2.87124 0
M  V30 27492 H 2624.13 0.54848 1.38968 0
M  V30 27493 H 2626.02 -1.16087 4.05095 0
M  V30 27494 H 2624.69 -1.45469 2.89172 0
M  V30 27495 H 2623.6 0.72823 3.66944 0
M  V30 27496 H 2624.93 0.938807 4.83164 0
M  V30 27497 N 2626.58 -1.48101 0.53888 0
M  V30 27498 C 2627.49 -2.33541 -0.222607 0
M  V30 27499 C 2628.51 -1.47049 -0.930199 0
M  V30 27500 O 2629.69 -1.80013 -0.903179 0
M  V30 27501 C 2626.75 -3.23359 -1.25059 0
M  V30 27502 C 2625.81 -4.25731 -0.552394 0
M  V30 27503 C 2625.04 -5.11257 -1.5314 0
M  V30 27504 O 2625.27 -4.98915 -2.76478 0
M  V30 27505 O 2624.2 -5.92387 -1.06592 0
M  V30 27506 H 2628.03 -2.99919 0.477759 0
M  V30 27507 H 2625.61 -1.46363 0.299695 0
M  V30 27508 H 2627.49 -3.78891 -1.84444 0
M  V30 27509 H 2626.17 -2.59632 -1.9332 0
M  V30 27510 H 2625.08 -3.7401 0.0821798 0
M  V30 27511 H 2626.41 -4.92121 0.0884391 0
M  V30 27512 N 2628.06 -0.274434 -1.55192 0
M  V30 27513 C 2629.02 0.60024 -2.21201 0
M  V30 27514 C 2630.02 1.08185 -1.18965 0
M  V30 27515 O 2631.21 0.982132 -1.43874 0
M  V30 27516 C 2628.35 1.82804 -2.87742 0
M  V30 27517 H 2629.54 0.0239155 -2.9989 0
M  V30 27518 H 2627.09 -0.0250467 -1.5628 0
M  V30 27519 H 2627.83 2.44489 -2.13062 0
M  V30 27520 H 2627.61 1.49063 -3.62661 0
M  V30 27521 H 2629.1 2.45005 -3.38175 0
M  V30 27522 N 2629.54 1.576 -0.00170483 0
M  V30 27523 C 2630.79 1.8982 0.681988 0
M  V30 27524 C 2631.1 0.876902 1.74842 0
M  V30 27525 O 2632.31 1.08939 2.48686 0
M  V30 27526 C 2630.76 3.36966 1.26419 0
M  V30 27527 C 2630.37 4.47396 0.232489 0
M  V30 27528 C 2632.12 3.78294 1.92598 0
M  V30 27529 C 2630.02 5.8562 0.824779 0
M  V30 27530 H 2628.95 0.708308 0.258487 0
M  V30 27531 H 2631.6 1.83393 -0.0625279 0
M  V30 27532 H 2629.99 3.38236 2.05943 0
M  V30 27533 H 2631.16 4.57645 -0.538281 0
M  V30 27534 H 2629.47 4.15099 -0.328953 0
M  V30 27535 H 2632.07 4.78901 2.37819 0
M  V30 27536 H 2632.41 3.11899 2.75726 0
M  V30 27537 H 2632.95 3.7933 1.19805 0
M  V30 27538 H 2629.69 6.55492 0.032239 0
M  V30 27539 H 2629.21 5.79032 1.56467 0
M  V30 27540 H 2630.89 6.33331 1.3229 0
M  V30 27541 N 2631.02 -0.271076 1.55251 0
M  V30 27542 C 2632.26 -1.00242 1.75948 0
M  V30 27543 C 2632.59 -1.86214 0.561644 0
M  V30 27544 O 2631.85 -1.90318 -0.455799 0
M  V30 27545 C 2632.15 -1.91316 3.01882 0
M  V30 27546 C 2631.81 -1.21078 4.3434 0
M  V30 27547 C 2630.47 -1.01657 4.70339 0
M  V30 27548 C 2632.83 -0.7111 5.16326 0
M  V30 27549 C 2630.15 -0.309997 5.8588 0
M  V30 27550 C 2632.51 -0.0181045 6.32597 0
M  V30 27551 C 2631.17 0.187797 6.67236 0
M  V30 27552 H 2630.44 -0.366812 0.64384 0
M  V30 27553 H 2633.09 -0.274546 1.89522 0
M  V30 27554 H 2631.39 -2.70731 2.83217 0
M  V30 27555 H 2633.09 -2.48028 3.15092 0
M  V30 27556 H 2629.68 -1.37206 4.06045 0
M  V30 27557 H 2633.86 -0.848758 4.88989 0
M  V30 27558 H 2629.12 -0.139766 6.1124 0
M  V30 27559 H 2633.29 0.376833 6.9538 0
M  V30 27560 H 2630.92 0.737283 7.56616 0
M  V30 27561 N 2632.5 -1.48217 -0.535675 0
M  V30 27562 C 2633.72 -1.5985 -1.32147 0
M  V30 27563 C 2634.15 -0.256874 -1.86338 0
M  V30 27564 O 2633.5 0.770603 -1.64108 0
M  V30 27565 C 2633.55 -2.64386 -2.45219 0
M  V30 27566 O 2632.66 -2.2115 -3.48089 0
M  V30 27567 H 2632 -0.536215 -0.391624 0
M  V30 27568 H 2634.53 -1.94162 -0.645168 0
M  V30 27569 H 2634.54 -2.85481 -2.91486 0
M  V30 27570 H 2633.21 -3.6179 -2.05137 0
M  V30 27571 H 2631.79 -2.10244 -3.0798 0
M  V30 27572 N 2633.97 0.784108 -1.3671 0
M  V30 27573 C 2634.92 1.89696 -1.31469 0
M  V30 27574 C 2635.89 1.65095 -0.182419 0
M  V30 27575 O 2637.08 1.87182 -0.369795 0
M  V30 27576 C 2634.22 3.26586 -1.11516 0
M  V30 27577 C 2633.33 3.63223 -2.33865 0
M  V30 27578 C 2632.46 4.89258 -2.06882 0
M  V30 27579 C 2631.5 5.1859 -3.25163 0
M  V30 27580 N 2630.64 6.35809 -2.97811 0
M  V30 27581 H 2635.48 1.93511 -2.26622 0
M  V30 27582 H 2633.02 0.946236 -1.12627 0
M  V30 27583 H 2634.98 4.05533 -0.979724 0
M  V30 27584 H 2633.61 3.22179 -0.200159 0
M  V30 27585 H 2632.66 2.79357 -2.58193 0
M  V30 27586 H 2633.97 3.80845 -3.22116 0
M  V30 27587 H 2633.12 5.76083 -1.90299 0
M  V30 27588 H 2631.86 4.73716 -1.1595 0
M  V30 27589 H 2630.87 4.30245 -3.423 0
M  V30 27590 H 2632.09 5.36047 -4.16929 0
M  V30 27591 H 2630.04 6.21649 -2.09496 0
M  V30 27592 H 2629.96 6.53788 -3.79602 0
M  V30 27593 H 2631.22 7.25602 -2.84818 0
M  V30 27594 N 2635.45 1.21076 1.00888 0
M  V30 27595 C 2636.68 1.04996 1.77931 0
M  V30 27596 C 2637.09 -0.403462 1.84848 0
M  V30 27597 O 2636.43 -1.29179 1.30608 0
M  V30 27598 C 2636.5 1.56727 3.23538 0
M  V30 27599 C 2636.16 3.05135 3.40208 0
M  V30 27600 C 2637.16 4.02721 3.28803 0
M  V30 27601 C 2634.84 3.44258 3.65775 0
M  V30 27602 C 2636.84 5.3742 3.42723 0
M  V30 27603 C 2634.52 4.7911 3.79337 0
M  V30 27604 C 2635.52 5.755 3.67817 0
M  V30 27605 O 2635.21 7.07905 3.80953 0
M  V30 27606 H 2634.94 0.369391 0.56615 0
M  V30 27607 H 2637.49 1.60781 1.27823 0
M  V30 27608 H 2635.72 0.953351 3.74764 0
M  V30 27609 H 2637.41 1.36549 3.82242 0
M  V30 27610 H 2638.18 3.7384 3.0898 0
M  V30 27611 H 2634.06 2.69768 3.73826 0
M  V30 27612 H 2637.6 6.12638 3.33647 0
M  V30 27613 H 2633.5 5.07679 3.98664 0
M  V30 27614 H 2634.27 7.15261 3.97924 0
M  V30 27615 N 2636.93 -1.2032 1.01789 0
M  V30 27616 C 2638.18 -1.89042 0.703283 0
M  V30 27617 C 2638.49 -1.79789 -0.770414 0
M  V30 27618 O 2639.7 -2.43658 -1.19763 0
M  V30 27619 C 2638.15 -3.39037 1.20755 0
M  V30 27620 C 2637.76 -3.56873 2.70824 0
M  V30 27621 C 2639.51 -4.13306 0.968425 0
M  V30 27622 C 2637.41 -5.00702 3.14724 0
M  V30 27623 H 2636.34 -0.707987 0.259366 0
M  V30 27624 H 2638.99 -1.36106 1.23074 0
M  V30 27625 H 2637.38 -3.91304 0.608057 0
M  V30 27626 H 2638.55 -3.14987 3.36333 0
M  V30 27627 H 2636.87 -2.95978 2.92893 0
M  V30 27628 H 2639.46 -5.19354 1.27183 0
M  V30 27629 H 2639.81 -4.16191 -0.0950759 0
M  V30 27630 H 2640.34 -3.67144 1.53135 0
M  V30 27631 H 2637.08 -5.02972 4.20356 0
M  V30 27632 H 2636.6 -5.43393 2.53936 0
M  V30 27633 H 2638.28 -5.69291 3.07436 0
M  V30 27634 N 2638.41 -0.794293 -1.3612 0
M  V30 27635 C 2639.66 -0.368211 -1.98717 0
M  V30 27636 C 2639.98 1.06503 -1.63347 0
M  V30 27637 O 2639.25 1.73489 -0.909856 0
M  V30 27638 H 2637.83 -0.133159 -0.735036 0
M  V30 27639 H 2640.49 -1.01741 -1.66237 0
M  V30 27640 H 2639.59 -0.463977 -3.08632 0
M  V30 27641 N 2639.89 1.47813 -0.546727 0
M  V30 27642 C 2640.83 2.31557 0.220007 0
M  V30 27643 C 2641.83 1.42276 0.919447 0
M  V30 27644 O 2643.03 1.59096 0.841925 0
M  V30 27645 H 2639.41 0.746617 0.0898202 0
M  V30 27646 H 2641.38 2.94085 -0.505641 0
M  V30 27647 C 2640.13 3.24704 1.24348 0
M  V30 27648 H 2639.45 3.9336 0.714689 0
M  V30 27649 H 2640.89 3.86153 1.75105 0
M  V30 27650 C 2639.35 2.47485 2.28589 0
M  V30 27651 O 2639.88 2.21171 3.3533 0
M  V30 27652 N 2638.09 2.0868 2.0224 0
M  V30 27653 H 2637.63 2.3028 1.15451 0
M  V30 27654 H 2637.59 1.57328 2.72204 0
M  V30 27655 N 2641.36 0.28266 1.55044 0
M  V30 27656 C 2642.61 -0.332446 2.00057 0
M  V30 27657 C 2642.94 -1.54937 1.17082 0
M  V30 27658 O 2642.22 -1.92979 0.242734 0
M  V30 27659 C 2642.5 -0.707188 3.53088 0
M  V30 27660 C 2642.35 0.517599 4.46812 0
M  V30 27661 C 2643.67 -1.54076 4.12248 0
M  V30 27662 H 2640.79 -0.119361 0.72727 0
M  V30 27663 H 2643.43 0.391108 1.85931 0
M  V30 27664 H 2641.58 -1.32366 3.65256 0
M  V30 27665 H 2643.26 1.15615 4.46577 0
M  V30 27666 H 2641.5 1.15427 4.18161 0
M  V30 27667 H 2642.17 0.211523 5.51595 0
M  V30 27668 H 2644.65 -1.02006 4.03403 0
M  V30 27669 H 2643.52 -1.77177 5.19519 0
M  V30 27670 H 2643.78 -2.5242 3.62955 0
M  V30 27671 N 2642.84 -1.57597 0.0100627 0
M  V30 27672 C 2643.79 -2.10185 -0.996235 0
M  V30 27673 C 2644.78 -1.02408 -1.3494 0
M  V30 27674 O 2645.99 -1.20863 -1.33387 0
M  V30 27675 H 2642.37 -0.67127 -0.33897 0
M  V30 27676 H 2644.34 -2.93706 -0.527221 0
M  V30 27677 C 2643.09 -2.62861 -2.27594 0
M  V30 27678 H 2642.41 -3.45431 -2.01289 0
M  V30 27679 H 2643.85 -3.03325 -2.9626 0
M  V30 27680 C 2642.31 -1.5473 -2.99266 0
M  V30 27681 O 2642.84 -0.936039 -3.90642 0
M  V30 27682 N 2641.04 -1.27233 -2.61266 0
M  V30 27683 H 2640.59 -1.77126 -1.8704 0
M  V30 27684 H 2640.55 -0.551053 -3.09533 0
M  V30 27685 N 2644.32 0.262839 -1.55393 0
M  V30 27686 C 2645.55 1.01105 -1.80514 0
M  V30 27687 C 2645.96 1.79555 -0.583565 0
M  V30 27688 O 2645.32 1.76927 0.447554 0
M  V30 27689 C 2645.37 1.96159 -3.03651 0
M  V30 27690 O 2645.09 1.20886 -4.21092 0
M  V30 27691 C 2646.59 2.82709 -3.41453 0
M  V30 27692 H 2643.81 0.298225 -0.601085 0
M  V30 27693 H 2646.36 0.290546 -2.02425 0
M  V30 27694 H 2644.51 2.63658 -2.83837 0
M  V30 27695 H 2644.93 1.85042 -4.90775 0
M  V30 27696 H 2646.4 3.45184 -4.30757 0
M  V30 27697 H 2646.88 3.53004 -2.61314 0
M  V30 27698 H 2647.48 2.20686 -3.63562 0
M  V30 27699 N 2645.8 1.48499 0.527807 0
M  V30 27700 C 2646.75 1.59583 1.62841 0
M  V30 27701 C 2647.73 0.452836 1.54396 0
M  V30 27702 O 2648.92 0.704392 1.6238 0
M  V30 27703 C 2646.05 1.64073 3.01554 0
M  V30 27704 C 2645.14 2.83859 3.15095 0
M  V30 27705 N 2645.53 4.08252 2.98603 0
M  V30 27706 C 2643.83 2.81237 3.46153 0
M  V30 27707 C 2644.53 4.88631 3.15617 0
M  V30 27708 N 2643.51 4.21489 3.4329 0
M  V30 27709 H 2647.31 2.53504 1.48704 0
M  V30 27710 H 2644.82 1.44901 0.733318 0
M  V30 27711 H 2646.82 1.70107 3.80617 0
M  V30 27712 H 2645.48 0.712691 3.16782 0
M  V30 27713 H 2646.49 4.38655 2.75322 0
M  V30 27714 H 2643.17 1.97699 3.67725 0
M  V30 27715 H 2644.56 5.97361 3.07586 0
M  V30 27716 N 2647.28 -0.776847 1.37123 0
M  V30 27717 C 2648.52 -1.53749 1.32246 0
M  V30 27718 C 2648.86 -1.9397 -0.0944404 0
M  V30 27719 O 2648.13 -1.63682 -1.05065 0
M  V30 27720 C 2648.41 -2.80603 2.25686 0
M  V30 27721 C 2648.27 -2.46669 3.76131 0
M  V30 27722 C 2649.59 -3.82505 2.17664 0
M  V30 27723 H 2646.71 -0.557782 0.481714 0
M  V30 27724 H 2649.35 -0.891583 1.67782 0
M  V30 27725 H 2647.5 -3.3572 1.95511 0
M  V30 27726 H 2649.17 -1.97506 4.1688 0
M  V30 27727 H 2647.41 -1.79436 3.9495 0
M  V30 27728 H 2648.08 -3.37326 4.36939 0
M  V30 27729 H 2650.56 -3.36869 2.44251 0
M  V30 27730 H 2649.44 -4.68995 2.85193 0
M  V30 27731 H 2649.7 -4.26394 1.16793 0
M  V30 27732 N 2648.76 -1.2161 -1.00244 0
M  V30 27733 C 2650.03 -0.943599 -1.71335 0
M  V30 27734 C 2650.41 0.543907 -2.03973 0
M  V30 27735 O 2649.76 1.50943 -1.71547 0
M  V30 27736 C 2649.97 -1.83133 -2.97091 0
M  V30 27737 C 2651.32 -2.08171 -3.70067 0
M  V30 27738 O 2652.34 -1.80503 -3.07078 0
M  V30 27739 O 2651.2 -2.54979 -4.83371 0
M  V30 27740 H 2648.3 -0.354052 -0.74738 0
M  V30 27741 H 2650.84 -1.32551 -1.05964 0
M  V30 27742 H 2649.61 -2.83793 -2.69402 0
M  V30 27743 H 2649.24 -1.4504 -3.70201 0
M  V30 27744 N 2650.23 1.19778 -1.02425 0
M  V30 27745 C 2651.14 2.26505 -0.610958 0
M  V30 27746 C 2652.16 1.70338 0.355122 0
M  V30 27747 O 2653.34 2.00258 0.21416 0
M  V30 27748 C 2650.4 3.46681 0.0365312 0
M  V30 27749 C 2649.46 4.18047 -0.976463 0
M  V30 27750 C 2648.69 5.32486 -0.359777 0
M  V30 27751 O 2648.92 5.64203 0.838501 0
M  V30 27752 O 2647.85 5.92126 -1.08032 0
M  V30 27753 H 2651.68 2.64089 -1.49969 0
M  V30 27754 H 2649.26 1.26543 -0.794178 0
M  V30 27755 H 2651.14 4.19518 0.397786 0
M  V30 27756 H 2649.82 3.10956 0.899344 0
M  V30 27757 H 2648.73 3.47349 -1.38922 0
M  V30 27758 H 2650.06 4.57732 -1.80949 0
M  V30 27759 N 2651.71 0.801501 1.35697 0
M  V30 27760 C 2652.94 0.391236 2.02862 0
M  V30 27761 C 2653.35 -1.00096 1.60553 0
M  V30 27762 O 2652.69 -1.65546 0.796244 0
M  V30 27763 C 2652.75 0.389362 3.57385 0
M  V30 27764 C 2652.42 1.7312 4.2294 0
M  V30 27765 C 2653.42 2.68867 4.44979 0
M  V30 27766 C 2651.1 2.01381 4.60164 0
M  V30 27767 C 2653.09 3.91062 5.03338 0
M  V30 27768 C 2650.78 3.23841 5.18238 0
M  V30 27769 C 2651.78 4.18499 5.39766 0
M  V30 27770 O 2651.47 5.38798 5.96617 0
M  V30 27771 H 2651.2 0.157743 0.657338 0
M  V30 27772 H 2653.75 1.08499 1.74405 0
M  V30 27773 H 2651.98 -0.360964 3.85012 0
M  V30 27774 H 2653.67 0.00210785 4.059 0
M  V30 27775 H 2654.44 2.48323 4.16606 0
M  V30 27776 H 2650.32 1.28516 4.42724 0
M  V30 27777 H 2653.86 4.64958 5.20057 0
M  V30 27778 H 2649.76 3.44257 5.46038 0
M  V30 27779 H 2650.53 5.40026 6.15073 0
M  V30 27780 N 2653.19 -1.47521 0.554558 0
M  V30 27781 C 2654.12 -2.26909 -0.242402 0
M  V30 27782 C 2655.1 -1.33884 -0.922699 0
M  V30 27783 O 2656.28 -1.63262 -0.942215 0
M  V30 27784 C 2653.41 -3.10841 -1.34519 0
M  V30 27785 C 2652.46 -4.19423 -0.773732 0
M  V30 27786 S 2653.29 -5.34167 0.377619 0
M  V30 27787 C 2654.45 -6.21663 -0.727055 0
M  V30 27788 H 2654.68 -2.94155 0.431269 0
M  V30 27789 H 2652.21 -1.50591 0.340826 0
M  V30 27790 H 2654.17 -3.59769 -1.97677 0
M  V30 27791 H 2652.83 -2.42962 -1.99069 0
M  V30 27792 H 2652.02 -4.77869 -1.60179 0
M  V30 27793 H 2651.63 -3.73362 -0.218383 0
M  V30 27794 H 2653.92 -6.57851 -1.61981 0
M  V30 27795 H 2654.86 -7.07871 -0.180011 0
M  V30 27796 H 2655.27 -5.55235 -1.01853 0
M  V30 27797 N 2654.67 -0.290879 -1.54892 0
M  V30 27798 C 2655.6 0.623197 -2.20565 0
M  V30 27799 C 2656.61 1.10537 -1.19521 0
M  V30 27800 O 2657.8 1.02457 -1.46167 0
M  V30 27801 C 2654.9 1.86396 -2.83037 0
M  V30 27802 C 2654.07 1.52597 -4.09918 0
M  V30 27803 C 2653.13 2.62083 -4.56288 0
M  V30 27804 O 2652.16 2.27602 -5.21714 0
M  V30 27805 N 2653.36 3.92438 -4.27753 0
M  V30 27806 H 2656.13 0.0610388 -2.99638 0
M  V30 27807 H 2653.69 -0.112643 -1.61508 0
M  V30 27808 H 2655.68 2.58968 -3.10995 0
M  V30 27809 H 2654.25 2.33477 -2.07864 0
M  V30 27810 H 2653.47 0.633356 -3.89079 0
M  V30 27811 H 2654.76 1.27539 -4.92556 0
M  V30 27812 H 2654.16 4.23265 -3.75317 0
M  V30 27813 H 2652.71 4.61339 -4.60445 0
M  V30 27814 N 2656.15 1.57589 -0.0184203 0
M  V30 27815 C 2657.06 2.13017 0.982906 0
M  V30 27816 C 2658.07 1.07981 1.36441 0
M  V30 27817 O 2659.25 1.39982 1.448 0
M  V30 27818 C 2656.31 2.63756 2.25019 0
M  V30 27819 C 2655.37 3.83465 1.93011 0
M  V30 27820 C 2654.61 4.31775 3.13698 0
M  V30 27821 O 2654.83 3.79312 4.26003 0
M  V30 27822 O 2653.76 5.23737 2.9662 0
M  V30 27823 H 2657.59 2.98831 0.541656 0
M  V30 27824 H 2655.17 1.48034 0.201539 0
M  V30 27825 H 2657.06 2.96507 2.99435 0
M  V30 27826 H 2655.73 1.8103 2.68346 0
M  V30 27827 H 2654.64 3.55657 1.16013 0
M  V30 27828 H 2655.97 4.6732 1.54508 0
M  V30 27829 N 2657.62 -0.254594 1.5553 0
M  V30 27830 C 2658.59 -1.29842 1.88875 0
M  V30 27831 C 2659.59 -1.41458 0.764616 0
M  V30 27832 O 2660.78 -1.40291 1.03267 0
M  V30 27833 C 2657.91 -2.67725 2.11036 0
M  V30 27834 H 2659.1 -1.01497 2.82203 0
M  V30 27835 H 2656.65 -0.49353 1.48304 0
M  V30 27836 H 2657.39 -3.01221 1.20151 0
M  V30 27837 H 2657.17 -2.60677 2.92899 0
M  V30 27838 H 2658.66 -3.4311 2.38044 0
M  V30 27839 N 2659.1 -1.48777 -0.519925 0
M  V30 27840 C 2660.35 -1.57539 -1.27708 0
M  V30 27841 C 2660.68 -0.2529 -1.92546 0
M  V30 27842 O 2659.96 0.741989 -1.79791 0
M  V30 27843 C 2660.24 -2.72098 -2.3587 0
M  V30 27844 C 2660.09 -4.14083 -1.75657 0
M  V30 27845 C 2661.41 -2.82373 -3.3757 0
M  V30 27846 H 2658.53 -0.573442 -0.462961 0
M  V30 27847 H 2661.17 -1.8099 -0.578162 0
M  V30 27848 H 2659.32 -2.52233 -2.95484 0
M  V30 27849 H 2660.99 -4.45414 -1.20017 0
M  V30 27850 H 2659.24 -4.20613 -1.06146 0
M  V30 27851 H 2659.91 -4.90079 -2.5402 0
M  V30 27852 H 2662.38 -3.00398 -2.87924 0
M  V30 27853 H 2661.26 -3.6424 -4.10634 0
M  V30 27854 H 2661.52 -1.90943 -3.9874 0
M  V30 27855 N 2660.58 0.769564 -1.37534 0
M  V30 27856 C 2661.86 1.51766 -1.23395 0
M  V30 27857 C 2662.24 2.10402 0.171533 0
M  V30 27858 O 2661.58 1.9571 1.1794 0
M  V30 27859 C 2661.79 2.59681 -2.33167 0
M  V30 27860 C 2663.14 3.27024 -2.70815 0
M  V30 27861 O 2664.17 2.69977 -2.3236 0
M  V30 27862 O 2663.03 4.30167 -3.37074 0
M  V30 27863 H 2660.12 0.672282 -0.481628 0
M  V30 27864 H 2662.67 0.806342 -1.49319 0
M  V30 27865 H 2661.44 2.14488 -3.27277 0
M  V30 27866 H 2661.06 3.38411 -2.08719 0
M  V30 27867 N 2662.06 1.22139 0.995977 0
M  V30 27868 C 2663.01 0.956078 2.06986 0
M  V30 27869 C 2663.99 -0.0921293 1.60636 0
M  V30 27870 O 2665.18 0.117989 1.76606 0
M  V30 27871 C 2662.31 0.532395 3.39147 0
M  V30 27872 C 2661.4 1.61516 3.92139 0
M  V30 27873 N 2661.79 2.84221 4.18392 0
M  V30 27874 C 2660.09 1.48613 4.20512 0
M  V30 27875 C 2660.79 3.54214 4.61419 0
M  V30 27876 N 2659.77 2.81677 4.64929 0
M  V30 27877 H 2663.57 1.8882 2.2522 0
M  V30 27878 H 2661.08 1.11847 1.17746 0
M  V30 27879 H 2663.08 0.323647 4.15642 0
M  V30 27880 H 2661.74 -0.392864 3.22315 0
M  V30 27881 H 2662.75 3.20678 4.06677 0
M  V30 27882 H 2659.43 0.626835 4.12768 0
M  V30 27883 H 2660.82 4.59324 4.90379 0
M  V30 27884 N 2663.54 -1.19233 1.03059 0
M  V30 27885 C 2664.77 -1.92636 0.746647 0
M  V30 27886 C 2665.17 -1.75827 -0.698677 0
M  V30 27887 O 2664.52 -1.07864 -1.48698 0
M  V30 27888 C 2664.58 -3.44717 1.0203 0
M  V30 27889 C 2664.24 -3.85299 2.45752 0
M  V30 27890 C 2665.24 -3.89914 3.43894 0
M  V30 27891 C 2662.93 -4.16887 2.80197 0
M  V30 27892 C 2664.92 -4.25552 4.74536 0
M  V30 27893 C 2662.61 -4.52197 4.11048 0
M  V30 27894 C 2663.6 -4.56504 5.08028 0
M  V30 27895 O 2663.29 -4.90996 6.36536 0
M  V30 27896 H 2663.02 -0.618682 0.272412 0
M  V30 27897 H 2665.58 -1.52266 1.37855 0
M  V30 27898 H 2663.81 -3.85279 0.331252 0
M  V30 27899 H 2665.5 -3.99359 0.725748 0
M  V30 27900 H 2666.26 -3.65658 3.18621 0
M  V30 27901 H 2662.14 -4.12718 2.05389 0
M  V30 27902 H 2665.69 -4.28828 5.50229 0
M  V30 27903 H 2661.58 -4.75912 4.36094 0
M  V30 27904 H 2662.35 -5.08938 6.41034 0
M  V30 27905 N 2665.01 -0.808686 -1.3527 0
M  V30 27906 C 2665.98 -0.226133 -2.28082 0
M  V30 27907 C 2666.98 0.587735 -1.49674 0
M  V30 27908 O 2668.17 0.405913 -1.69405 0
M  V30 27909 C 2665.3 0.684537 -3.33956 0
M  V30 27910 H 2666.49 -1.04474 -2.81114 0
M  V30 27911 H 2664.05 -0.579491 -1.45161 0
M  V30 27912 H 2664.78 1.52675 -2.86113 0
M  V30 27913 H 2664.57 0.10263 -3.91966 0
M  V30 27914 H 2666.06 1.08639 -4.03221 0
M  V30 27915 N 2666.49 1.47225 -0.562374 0
M  V30 27916 C 2667.74 2.0206 -0.0401726 0
M  V30 27917 C 2668.06 1.43854 1.31648 0
M  V30 27918 O 2667.33 0.615632 1.85975 0
M  V30 27919 H 2665.91 0.746906 -0.011861 0
M  V30 27920 H 2668.57 1.80569 -0.733552 0
M  V30 27921 H 2667.67 3.12069 0.0440705 0
M  V30 27922 N 2667.97 0.299089 1.54736 0
M  V30 27923 C 2668.9 -0.611492 2.20892 0
M  V30 27924 C 2669.92 -1.09902 1.20106 0
M  V30 27925 O 2671.1 -1.0168 1.46708 0
M  V30 27926 C 2668.2 -1.84892 2.84021 0
M  V30 27927 C 2667.38 -1.50421 4.10722 0
M  V30 27928 C 2666.44 -2.59659 4.57672 0
M  V30 27929 O 2665.46 -2.24832 5.22914 0
M  V30 27930 N 2666.66 -3.90164 4.29828 0
M  V30 27931 H 2669.43 -0.0451474 2.99666 0
M  V30 27932 H 2666.99 0.121207 1.61446 0
M  V30 27933 H 2668.98 -2.57315 3.12364 0
M  V30 27934 H 2667.55 -2.32371 2.09099 0
M  V30 27935 H 2666.77 -0.612713 3.89409 0
M  V30 27936 H 2668.06 -1.24925 4.93225 0
M  V30 27937 H 2667.46 -4.21269 3.77556 0
M  V30 27938 H 2666.02 -4.58891 4.62885 0
M  V30 27939 N 2669.45 -1.57577 0.0267774 0
M  V30 27940 C 2670.38 -2.1311 -0.95427 0
M  V30 27941 C 2671.36 -1.04665 -1.34086 0
M  V30 27942 O 2672.54 -1.32486 -1.4199 0
M  V30 27943 C 2669.67 -2.65628 -2.23739 0
M  V30 27944 C 2668.63 -3.78839 -1.99162 0
M  V30 27945 C 2667.95 -4.17775 -3.33719 0
M  V30 27946 C 2669.25 -5.05012 -1.33268 0
M  V30 27947 H 2670.95 -2.95333 -0.491796 0
M  V30 27948 H 2668.49 -1.42068 -0.235115 0
M  V30 27949 H 2670.45 -3.03111 -2.92748 0
M  V30 27950 H 2669.17 -1.80563 -2.72148 0
M  V30 27951 H 2667.83 -3.4179 -1.32571 0
M  V30 27952 H 2667.48 -3.29695 -3.79882 0
M  V30 27953 H 2667.18 -4.94063 -3.18081 0
M  V30 27954 H 2668.7 -4.57839 -4.03999 0
M  V30 27955 H 2670.12 -5.40096 -1.92273 0
M  V30 27956 H 2668.51 -5.86282 -1.28035 0
M  V30 27957 H 2669.58 -4.83938 -0.305326 0
M  V30 27958 N 2670.93 0.246342 -1.55663 0
M  V30 27959 C 2671.89 1.28839 -1.8956 0
M  V30 27960 C 2672.89 1.4105 -0.772107 0
M  V30 27961 O 2674.08 1.39741 -1.0401 0
M  V30 27962 C 2671.21 2.66602 -2.12453 0
M  V30 27963 H 2672.4 0.999992 -2.82737 0
M  V30 27964 H 2669.96 0.485658 -1.48563 0
M  V30 27965 H 2670.69 3.0058 -1.21747 0
M  V30 27966 H 2670.48 2.5912 -2.94278 0
M  V30 27967 H 2671.97 3.41843 -2.3986 0
M  V30 27968 N 2672.4 1.4905 0.512027 0
M  V30 27969 C 2673.63 1.61671 1.29113 0
M  V30 27970 C 2674.05 0.28382 1.86654 0
M  V30 27971 O 2673.4 -0.729302 1.67294 0
M  V30 27972 C 2673.46 2.67712 2.42925 0
M  V30 27973 O 2673.18 3.9583 1.87751 0
M  V30 27974 C 2674.68 2.90937 3.34471 0
M  V30 27975 H 2671.9 0.544589 0.391999 0
M  V30 27976 H 2674.44 1.95007 0.615847 0
M  V30 27977 H 2672.6 2.37185 3.06304 0
M  V30 27978 H 2673.01 4.54152 2.62385 0
M  V30 27979 H 2674.48 3.68893 4.10636 0
M  V30 27980 H 2674.96 2.00433 3.90798 0
M  V30 27981 H 2675.57 3.22837 2.76869 0
M  V30 27982 N 2673.88 -0.762259 1.3794 0
M  V30 27983 C 2674.81 -1.88955 1.3718 0
M  V30 27984 C 2675.79 -1.68413 0.238974 0
M  V30 27985 O 2676.98 -1.89132 0.44076 0
M  V30 27986 C 2674.11 -3.26368 1.18748 0
M  V30 27987 C 2673.06 -3.61494 2.29142 0
M  V30 27988 C 2672.39 -4.97551 1.95824 0
M  V30 27989 C 2673.69 -3.67263 3.71369 0
M  V30 27990 H 2675.38 -1.89848 2.31512 0
M  V30 27991 H 2672.93 -0.911985 1.1144 0
M  V30 27992 H 2674.88 -4.04877 1.16844 0
M  V30 27993 H 2673.61 -3.25932 0.208741 0
M  V30 27994 H 2672.26 -2.85298 2.30218 0
M  V30 27995 H 2671.91 -4.93665 0.964561 0
M  V30 27996 H 2671.61 -5.22022 2.69754 0
M  V30 27997 H 2673.14 -5.78449 1.95524 0
M  V30 27998 H 2674.55 -4.35904 3.72372 0
M  V30 27999 H 2672.95 -4.03238 4.44432 0
M  V30 28000 H 2674.02 -2.67697 4.0431 0
M  V30 28001 N 2675.36 -1.22666 -0.989486 0
M  V30 28002 C 2676.64 -0.961718 -1.70324 0
M  V30 28003 C 2677.02 0.522243 -2.04538 0
M  V30 28004 O 2676.37 1.49115 -1.73139 0
M  V30 28005 C 2676.58 -1.86274 -2.95132 0
M  V30 28006 C 2677.92 -2.12085 -3.67839 0
M  V30 28007 O 2678.95 -1.8375 -3.05147 0
M  V30 28008 O 2677.81 -2.60092 -4.8064 0
M  V30 28009 H 2674.9 -0.361959 -0.743582 0
M  V30 28010 H 2677.45 -1.33667 -1.04552 0
M  V30 28011 H 2676.22 -2.86634 -2.66377 0
M  V30 28012 H 2675.84 -1.48959 -3.68642 0
M  V30 28013 N 2676.84 1.18685 -1.0369 0
M  V30 28014 C 2678.09 1.87899 -0.733268 0
M  V30 28015 C 2678.4 1.80992 0.741713 0
M  V30 28016 O 2679.61 2.45532 1.15871 0
M  V30 28017 C 2678.06 3.37073 -1.26133 0
M  V30 28018 C 2677.67 3.5252 -2.76467 0
M  V30 28019 C 2679.42 4.11713 -1.03406 0
M  V30 28020 C 2677.32 4.95632 -3.2265 0
M  V30 28021 H 2676.25 0.703771 -0.270597 0
M  V30 28022 H 2678.9 1.34131 -1.25224 0
M  V30 28023 H 2677.29 3.90287 -0.670233 0
M  V30 28024 H 2678.46 3.09596 -3.41302 0
M  V30 28025 H 2676.77 2.9128 -2.97565 0
M  V30 28026 H 2679.37 5.17265 -1.35429 0
M  V30 28027 H 2679.71 4.1629 0.0288514 0
M  V30 28028 H 2680.25 3.64661 -1.58957 0
M  V30 28029 H 2676.99 4.96221 -4.28305 0
M  V30 28030 H 2676.51 5.39285 -2.62549 0
M  V30 28031 H 2678.19 5.64328 -3.16454 0
M  V30 28032 N 2678.32 0.815849 1.34839 0
M  V30 28033 C 2679.54 0.412296 2.03261 0
M  V30 28034 C 2679.97 -0.971723 1.61056 0
M  V30 28035 O 2679.33 -1.63099 0.791729 0
M  V30 28036 C 2679.37 0.514351 3.56913 0
M  V30 28037 O 2678.48 -0.468603 4.09729 0
M  V30 28038 H 2677.82 0.170782 0.641661 0
M  V30 28039 H 2680.35 1.1043 1.72239 0
M  V30 28040 H 2680.36 0.387528 4.06155 0
M  V30 28041 H 2679.03 1.52381 3.86979 0
M  V30 28042 H 2677.61 -0.301251 3.71681 0
M  V30 28043 N 2679.8 -1.46924 0.570174 0
M  V30 28044 C 2681.02 -2.06824 0.056233 0
M  V30 28045 C 2681.44 -1.42088 -1.24324 0
M  V30 28046 O 2680.8 -0.521825 -1.74881 0
M  V30 28047 C 2680.85 -3.61268 -0.129454 0
M  V30 28048 O 2680.57 -4.23579 1.11857 0
M  V30 28049 C 2682.07 -4.38066 -0.679189 0
M  V30 28050 H 2679.29 -0.669002 0.0517378 0
M  V30 28051 H 2681.83 -1.88738 0.787277 0
M  V30 28052 H 2679.99 -3.78823 -0.810672 0
M  V30 28053 H 2680.4 -5.16289 0.924466 0
M  V30 28054 H 2681.88 -5.46766 -0.758348 0
M  V30 28055 H 2682.35 -4.05242 -1.69339 0
M  V30 28056 H 2682.96 -4.25287 -0.0332489 0
M  V30 28057 N 2681.27 -0.307291 -1.54575 0
M  V30 28058 C 2682.18 0.57532 -2.27436 0
M  V30 28059 C 2683.2 1.14309 -1.31185 0
M  V30 28060 O 2684.38 1.16653 -1.64177 0
M  V30 28061 C 2681.44 1.72798 -3.00569 0
M  V30 28062 C 2680.5 1.19366 -4.12371 0
M  V30 28063 C 2679.73 2.29139 -4.82007 0
M  V30 28064 O 2679.96 3.49164 -4.51044 0
M  V30 28065 O 2678.89 1.95475 -5.69274 0
M  V30 28066 H 2682.72 -0.0159092 -3.03696 0
M  V30 28067 H 2680.3 -0.0735326 -1.49219 0
M  V30 28068 H 2682.18 2.3994 -3.4642 0
M  V30 28069 H 2680.86 2.3057 -2.27199 0
M  V30 28070 H 2679.77 0.487786 -3.70906 0
M  V30 28071 H 2681.1 0.66129 -4.87737 0
M  V30 28072 N 2682.75 1.57561 -0.0351337 0
M  V30 28073 C 2684.16 1.79801 0.502853 0
M  V30 28074 C 2684.51 0.945951 1.7189 0
M  V30 28075 O 2683.64 0.158028 2.15822 0
M  V30 28076 C 2684.23 3.26097 0.91904 0
M  V30 28077 C 2682.79 3.49311 1.4021 0
M  V30 28078 C 2681.94 2.74825 0.369661 0
M  V30 28079 H 2684.89 1.56537 -0.26113 0
M  V30 28080 H 2684.91 3.36138 1.78302 0
M  V30 28081 H 2684.42 3.88085 0.0337844 0
M  V30 28082 H 2682.52 2.92582 2.30709 0
M  V30 28083 H 2682.64 4.58025 1.40533 0
M  V30 28084 H 2681 2.40482 0.839071 0
M  V30 28085 H 2681.78 3.39532 -0.507232 0
M  V30 28086 N 2684.23 -0.238084 1.55791 0
M  V30 28087 C 2685.16 -1.32155 1.86038 0
M  V30 28088 C 2686.14 -1.45975 0.716241 0
M  V30 28089 O 2687.32 -1.6205 0.96291 0
M  V30 28090 C 2684.45 -2.69398 2.05286 0
M  V30 28091 C 2683.5 -2.72682 3.27944 0
M  V30 28092 S 2684.33 -2.28405 4.84346 0
M  V30 28093 C 2685.49 -3.67556 5.0661 0
M  V30 28094 H 2685.72 -1.06301 2.77646 0
M  V30 28095 H 2683.25 -0.439511 1.48012 0
M  V30 28096 H 2685.21 -3.48419 2.17059 0
M  V30 28097 H 2683.87 -2.92485 1.14505 0
M  V30 28098 H 2683.06 -3.73495 3.38405 0
M  V30 28099 H 2682.67 -2.01712 3.14942 0
M  V30 28100 H 2684.96 -4.63122 4.94494 0
M  V30 28101 H 2685.9 -3.62022 6.0856 0
M  V30 28102 H 2686.31 -3.60477 4.34415 0
M  V30 28103 N 2685.71 -1.4932 -0.504115 0
M  V30 28104 C 2686.65 -1.65759 -1.606 0
M  V30 28105 C 2687.62 -0.49911 -1.58424 0
M  V30 28106 O 2688.81 -0.725759 -1.76458 0
M  V30 28107 C 2685.95 -1.72731 -2.98761 0
M  V30 28108 C 2685.06 -2.99862 -3.10977 0
M  V30 28109 C 2684.2 -2.97832 -4.39852 0
M  V30 28110 C 2683.24 -4.19556 -4.4569 0
M  V30 28111 N 2682.37 -4.15454 -5.65988 0
M  V30 28112 H 2687.21 -2.59846 -1.45891 0
M  V30 28113 H 2684.75 -1.28838 -0.709868 0
M  V30 28114 H 2686.71 -1.74754 -3.78836 0
M  V30 28115 H 2685.34 -0.82113 -3.12182 0
M  V30 28116 H 2684.39 -3.07465 -2.23985 0
M  V30 28117 H 2685.7 -3.89855 -3.1115 0
M  V30 28118 H 2684.86 -2.984 -5.28244 0
M  V30 28119 H 2683.6 -2.05612 -4.42239 0
M  V30 28120 H 2682.6 -4.19235 -3.55699 0
M  V30 28121 H 2683.83 -5.12965 -4.45021 0
M  V30 28122 H 2681.77 -3.26069 -5.69223 0
M  V30 28123 H 2681.69 -4.99179 -5.67765 0
M  V30 28124 H 2682.96 -4.20121 -6.56597 0
M  V30 28125 N 2687.19 0.754933 -1.38342 0
M  V30 28126 C 2688.12 1.88225 -1.3818 0
M  V30 28127 C 2689.1 1.68284 -0.247902 0
M  V30 28128 O 2690.28 1.88896 -0.450784 0
M  V30 28129 C 2687.41 3.25734 -1.20477 0
M  V30 28130 C 2686.37 3.60274 -2.31056 0
M  V30 28131 C 2685.69 4.96505 -1.9846 0
M  V30 28132 C 2686.99 3.65289 -3.73312 0
M  V30 28133 H 2688.69 1.88618 -2.32516 0
M  V30 28134 H 2686.23 0.906062 -1.11922 0
M  V30 28135 H 2688.18 4.04252 -1.18989 0
M  V30 28136 H 2686.91 3.25817 -0.226023 0
M  V30 28137 H 2685.57 2.84074 -2.31728 0
M  V30 28138 H 2685.22 4.93147 -0.990728 0
M  V30 28139 H 2684.92 5.20584 -2.72519 0
M  V30 28140 H 2686.44 5.77404 -1.98588 0
M  V30 28141 H 2687.85 4.33923 -3.74678 0
M  V30 28142 H 2686.25 4.00875 -4.46564 0
M  V30 28143 H 2687.32 2.65549 -4.05724 0
M  V30 28144 N 2688.66 1.23189 0.982967 0
M  V30 28145 C 2689.57 1.02743 2.10905 0
M  V30 28146 C 2690.59 -0.0272883 1.73979 0
M  V30 28147 O 2691.77 0.167605 2.00701 0
M  V30 28148 C 2688.83 0.618364 3.41141 0
M  V30 28149 C 2687.89 1.74784 3.92109 0
M  V30 28150 C 2687.12 1.35819 5.16129 0
M  V30 28151 O 2687.35 0.241301 5.69889 0
M  V30 28152 O 2686.28 2.17834 5.61099 0
M  V30 28153 H 2690.11 1.97112 2.31042 0
M  V30 28154 H 2687.69 1.01871 1.09282 0
M  V30 28155 H 2689.57 0.401056 4.19487 0
M  V30 28156 H 2688.25 -0.296364 3.2234 0
M  V30 28157 H 2687.16 2.01976 3.14891 0
M  V30 28158 H 2688.49 2.64079 4.15359 0
M  V30 28159 N 2690.14 -1.18133 1.04318 0
M  V30 28160 C 2691.42 -1.8405 0.662199 0
M  V30 28161 C 2691.8 -1.92871 -0.858135 0
M  V30 28162 O 2691.15 -1.45655 -1.7606 0
M  V30 28163 C 2691.36 -3.2221 1.34096 0
M  V30 28164 C 2692.7 -3.98217 1.47337 0
M  V30 28165 O 2693.73 -3.31659 1.29927 0
M  V30 28166 O 2692.59 -5.17476 1.75731 0
M  V30 28167 H 2689.68 -0.793786 0.232019 0
M  V30 28168 H 2692.23 -1.25504 1.14223 0
M  V30 28169 H 2691 -3.10707 2.37859 0
M  V30 28170 H 2690.62 -3.88414 0.849717 0
M  V30 28171 N 2691.62 -0.822988 -1.34405 0
M  V30 28172 C 2692.58 -0.250311 -2.27829 0
M  V30 28173 C 2693.58 0.571827 -1.50289 0
M  V30 28174 O 2694.77 0.387923 -1.69826 0
M  V30 28175 C 2691.91 0.649078 -3.34664 0
M  V30 28176 H 2693.1 -1.07449 -2.7999 0
M  V30 28177 H 2690.65 -0.594855 -1.44538 0
M  V30 28178 H 2691.39 1.49632 -2.87717 0
M  V30 28179 H 2691.17 0.061051 -3.92052 0
M  V30 28180 H 2692.66 1.04356 -4.04351 0
M  V30 28181 N 2693.1 1.4662 -0.577957 0
M  V30 28182 C 2694.34 2.02706 -0.0618149 0
M  V30 28183 C 2694.68 1.44905 1.29291 0
M  V30 28184 O 2693.95 0.612352 1.84609 0
M  V30 28185 C 2694.24 3.60099 0.00905495 0
M  V30 28186 C 2694.09 4.28293 -1.37423 0
M  V30 28187 C 2695.41 4.34301 0.712082 0
M  V30 28188 H 2692.53 0.736611 -0.0239376 0
M  V30 28189 H 2695.17 1.74817 -0.744242 0
M  V30 28190 H 2693.32 3.8399 0.590225 0
M  V30 28191 H 2694.99 4.1568 -2.0002 0
M  V30 28192 H 2693.23 3.8784 -1.94326 0
M  V30 28193 H 2693.9 5.37022 -1.27716 0
M  V30 28194 H 2696.38 4.15526 0.218413 0
M  V30 28195 H 2695.26 5.44015 0.730686 0
M  V30 28196 H 2695.52 4.05015 1.77244 0
M  V30 28197 N 2694.58 0.315484 1.5441 0
M  V30 28198 C 2695.81 -0.291279 2.04536 0
M  V30 28199 C 2696.21 -1.46957 1.19164 0
M  V30 28200 O 2695.56 -1.82458 0.213231 0
M  V30 28201 C 2695.62 -0.796664 3.50562 0
M  V30 28202 C 2695.28 0.258258 4.5627 0
M  V30 28203 C 2696.28 1.09162 5.08311 0
M  V30 28204 C 2693.97 0.404124 5.00672 0
M  V30 28205 C 2695.96 2.05665 6.03308 0
M  V30 28206 C 2693.65 1.37259 5.95486 0
M  V30 28207 C 2694.64 2.19732 6.46689 0
M  V30 28208 O 2694.33 3.14934 7.39643 0
M  V30 28209 H 2694.06 -0.0651047 0.672858 0
M  V30 28210 H 2696.62 0.457343 2.00244 0
M  V30 28211 H 2694.85 -1.59606 3.52226 0
M  V30 28212 H 2696.54 -1.32089 3.83806 0
M  V30 28213 H 2697.3 0.989873 4.74791 0
M  V30 28214 H 2693.18 -0.22791 4.60436 0
M  V30 28215 H 2696.73 2.70078 6.43198 0
M  V30 28216 H 2692.62 1.475 6.28422 0
M  V30 28217 H 2693.39 3.1008 7.57491 0
M  V30 28218 N 2696.05 -1.5754 0.0434891 0
M  V30 28219 C 2697.3 -1.92005 -0.630753 0
M  V30 28220 C 2697.62 -0.921838 -1.71835 0
M  V30 28221 O 2696.89 0.0344876 -1.9587 0
M  V30 28222 H 2695.47 -0.708749 -0.235975 0
M  V30 28223 H 2698.14 -1.9467 0.0946804 0
M  V30 28224 H 2697.23 -2.93028 -1.07429 0
M  V30 28225 N 2697.53 0.229818 -1.55915 0
M  V30 28226 C 2698.76 0.97253 -1.82618 0
M  V30 28227 C 2699.18 1.78277 -0.62152 0
M  V30 28228 O 2698.53 1.77837 0.409925 0
M  V30 28229 C 2698.58 1.89674 -3.07744 0
M  V30 28230 O 2698.3 1.11926 -4.23561 0
M  V30 28231 C 2699.81 2.75403 -3.47373 0
M  V30 28232 H 2697.03 0.285408 -0.607275 0
M  V30 28233 H 2699.57 0.247543 -2.02996 0
M  V30 28234 H 2697.72 2.57578 -2.89365 0
M  V30 28235 H 2698.14 1.7459 -4.94589 0
M  V30 28236 H 2699.61 3.35969 -4.37982 0
M  V30 28237 H 2700.09 3.47381 -2.68743 0
M  V30 28238 H 2700.7 2.12925 -3.68162 0
M  V30 28239 N 2699.01 1.49585 0.49619 0
M  V30 28240 C 2699.92 1.69352 1.62349 0
M  V30 28241 C 2700.94 0.576176 1.64183 0
M  V30 28242 O 2702.11 0.851472 1.82516 0
M  V30 28243 C 2699.18 1.76018 2.98695 0
M  V30 28244 C 2698.24 2.99623 3.07449 0
M  V30 28245 C 2697.47 3.05961 4.37291 0
M  V30 28246 O 2697.69 2.19762 5.26366 0
M  V30 28247 O 2696.63 3.98468 4.51117 0
M  V30 28248 H 2700.45 2.64861 1.48601 0
M  V30 28249 H 2698.04 1.33383 0.672999 0
M  V30 28250 H 2699.92 1.82728 3.79722 0
M  V30 28251 H 2698.6 0.836883 3.12695 0
M  V30 28252 H 2697.5 2.98428 2.25592 0
M  V30 28253 H 2698.84 3.91448 2.98378 0
M  V30 28254 N 2700.49 -0.747586 1.3874 0
M  V30 28255 C 2701.74 -1.50389 1.3501 0
M  V30 28256 C 2702.06 -1.94916 -0.0573931 0
M  V30 28257 O 2701.33 -1.68082 -1.00625 0
M  V30 28258 H 2699.91 -0.557857 0.496794 0
M  V30 28259 H 2702.57 -0.888289 1.7348 0
M  V30 28260 H 2701.67 -2.39196 2.00478 0
M  V30 28261 N 2701.97 -1.23709 -0.97642 0
M  V30 28262 C 2702.9 -1.04627 -2.08747 0
M  V30 28263 C 2703.88 0.0380657 -1.70057 0
M  V30 28264 O 2705.06 -0.127342 -1.93782 0
M  V30 28265 C 2702.19 -0.640962 -3.41334 0
M  V30 28266 C 2701.15 -1.67309 -3.93944 0
M  V30 28267 C 2700.47 -1.1231 -5.22772 0
M  V30 28268 C 2701.77 -3.06705 -4.22764 0
M  V30 28269 H 2703.47 -1.97559 -2.24968 0
M  V30 28270 H 2701.01 -0.951266 -1.08106 0
M  V30 28271 H 2702.97 -0.494507 -4.18488 0
M  V30 28272 H 2701.69 0.324042 -3.24989 0
M  V30 28273 H 2700.35 -1.80761 -3.18937 0
M  V30 28274 H 2700 -0.148965 -5.02779 0
M  V30 28275 H 2699.7 -1.81277 -5.58939 0
M  V30 28276 H 2701.22 -0.988585 -6.02544 0
M  V30 28277 H 2702.63 -2.96532 -4.90654 0
M  V30 28278 H 2701.03 -3.72945 -4.7014 0
M  V30 28279 H 2702.1 -3.55398 -3.29879 0
M  V30 28280 N 2703.44 1.17579 -1.04943 0
M  V30 28281 C 2704.35 2.25158 -0.658866 0
M  V30 28282 C 2705.37 1.71053 0.318911 0
M  V30 28283 O 2706.55 2.00667 0.171634 0
M  V30 28284 C 2703.61 3.4668 -0.0370132 0
M  V30 28285 C 2702.67 4.15882 -1.06492 0
M  V30 28286 C 2701.91 5.31603 -0.472644 0
M  V30 28287 O 2702.13 5.65855 0.718637 0
M  V30 28288 O 2701.06 5.89701 -1.20568 0
M  V30 28289 H 2704.89 2.60848 -1.55537 0
M  V30 28290 H 2702.47 1.2483 -0.820841 0
M  V30 28291 H 2704.36 4.20268 0.30871 0
M  V30 28292 H 2703.03 3.12793 0.833183 0
M  V30 28293 H 2701.94 3.44324 -1.46259 0
M  V30 28294 H 2703.27 4.5379 -1.90618 0
M  V30 28295 N 2704.92 0.830104 1.33967 0
M  V30 28296 C 2705.89 0.26239 2.27693 0
M  V30 28297 C 2706.89 -0.563849 1.5059 0
M  V30 28298 O 2708.08 -0.378911 1.70029 0
M  V30 28299 C 2705.21 -0.631321 3.35003 0
M  V30 28300 H 2706.4 1.08933 2.79417 0
M  V30 28301 H 2703.95 0.602512 1.4422 0
M  V30 28302 H 2704.69 -1.48104 2.88506 0
M  V30 28303 H 2704.47 -0.0402587 3.92079 0
M  V30 28304 H 2705.96 -1.0221 4.04899 0
M  V30 28305 N 2706.4 -1.46311 0.585725 0
M  V30 28306 C 2707.33 -2.33118 -0.133516 0
M  V30 28307 C 2708.31 -1.45527 -0.880682 0
M  V30 28308 O 2709.5 -1.74339 -0.855548 0
M  V30 28309 C 2706.63 -3.27855 -1.14579 0
M  V30 28310 C 2705.58 -4.24911 -0.513266 0
M  V30 28311 C 2704.91 -5.09178 -1.63222 0
M  V30 28312 C 2706.21 -5.1938 0.551504 0
M  V30 28313 H 2707.9 -2.93504 0.591261 0
M  V30 28314 H 2705.45 -1.41136 0.285786 0
M  V30 28315 H 2707.4 -3.87441 -1.65734 0
M  V30 28316 H 2706.12 -2.65583 -1.90088 0
M  V30 28317 H 2704.78 -3.66593 -0.0227705 0
M  V30 28318 H 2704.43 -4.43289 -2.37706 0
M  V30 28319 H 2704.13 -5.74909 -1.21463 0
M  V30 28320 H 2705.66 -5.71628 -2.14648 0
M  V30 28321 H 2707.07 -5.73164 0.124905 0
M  V30 28322 H 2705.47 -5.9347 0.88959 0
M  V30 28323 H 2706.54 -4.6313 1.43663 0
M  V30 28324 N 2707.88 -0.323668 -1.54241 0
M  V30 28325 C 2709.16 0.333147 -1.92742 0
M  V30 28326 C 2709.54 1.6987 -1.25329 0
M  V30 28327 O 2708.88 2.25024 -0.39703 0
M  V30 28328 C 2709.09 0.425261 -3.46399 0
M  V30 28329 C 2710.44 0.685497 -4.1903 0
M  V30 28330 O 2711.47 0.508178 -3.52556 0
M  V30 28331 O 2710.33 1.02758 -5.36752 0
M  V30 28332 H 2707.42 0.190272 -0.804814 0
M  V30 28333 H 2709.97 -0.373391 -1.65541 0
M  V30 28334 H 2708.74 -0.533805 -3.87642 0
M  V30 28335 H 2708.36 1.17937 -3.79706 0
M  V30 28336 N 2709.36 1.57515 -0.0518432 0
M  V30 28337 C 2710.29 2.14601 0.920246 0
M  V30 28338 C 2711.27 1.06785 1.32404 0
M  V30 28339 O 2712.45 1.34728 1.39864 0
M  V30 28340 C 2709.58 2.69154 2.19485 0
M  V30 28341 C 2708.54 3.81959 1.93109 0
M  V30 28342 C 2707.86 4.23031 3.2703 0
M  V30 28343 C 2709.16 5.07068 1.25217 0
M  V30 28344 H 2710.86 2.96078 0.444749 0
M  V30 28345 H 2708.4 1.42424 0.212483 0
M  V30 28346 H 2710.36 3.0773 2.87889 0
M  V30 28347 H 2709.08 1.8487 2.69241 0
M  V30 28348 H 2707.74 3.43856 1.27117 0
M  V30 28349 H 2707.39 3.35697 3.74589 0
M  V30 28350 H 2707.09 4.99061 3.1018 0
M  V30 28351 H 2708.61 4.64209 3.96665 0
M  V30 28352 H 2710.03 5.43087 1.83656 0
M  V30 28353 H 2708.42 5.88245 1.18691 0
M  V30 28354 H 2709.49 4.84362 0.228297 0
M  V30 28355 N 2710.84 -0.221546 1.56035 0
M  V30 28356 C 2712.06 -0.962832 1.83132 0
M  V30 28357 C 2712.48 -1.77945 0.630966 0
M  V30 28358 O 2711.84 -1.78052 -0.400488 0
M  V30 28359 C 2711.89 -1.88039 3.08745 0
M  V30 28360 O 2711.61 -1.09679 4.24149 0
M  V30 28361 C 2713.11 -2.73557 3.48829 0
M  V30 28362 H 2710.33 -0.282183 0.60878 0
M  V30 28363 H 2712.87 -0.236774 2.03125 0
M  V30 28364 H 2711.03 -2.5604 2.90727 0
M  V30 28365 H 2711.44 -1.71965 4.95508 0
M  V30 28366 H 2712.92 -3.33642 4.39758 0
M  V30 28367 H 2713.39 -3.45951 2.70582 0
M  V30 28368 H 2714 -2.1097 3.69286 0
M  V30 28369 N 2712.31 -1.49846 -0.48825 0
M  V30 28370 C 2713.54 -1.63705 -1.26524 0
M  V30 28371 C 2713.96 -0.313479 -1.86179 0
M  V30 28372 O 2713.31 0.702594 -1.68434 0
M  V30 28373 C 2713.36 -2.71543 -2.38635 0
M  V30 28374 O 2713.09 -3.98767 -1.8143 0
M  V30 28375 C 2714.59 -2.96221 -3.298 0
M  V30 28376 H 2711.81 -0.550757 -0.383286 0
M  V30 28377 H 2714.35 -1.95962 -0.584745 0
M  V30 28378 H 2712.51 -2.42028 -3.02492 0
M  V30 28379 H 2712.92 -4.58269 -2.55127 0
M  V30 28380 H 2714.39 -3.75379 -4.04715 0
M  V30 28381 H 2714.87 -2.06625 -3.8756 0
M  V30 28382 H 2715.48 -3.27201 -2.71697 0
M  V30 28383 N 2713.79 0.740218 -1.39135 0
M  V30 28384 C 2715.02 1.53456 -1.3952 0
M  V30 28385 C 2715.44 1.88098 0.00965577 0
M  V30 28386 O 2714.8 1.51538 0.995285 0
M  V30 28387 C 2714.85 2.80196 -2.26986 0
M  V30 28388 O 2713.95 3.75905 -1.69615 0
M  V30 28389 H 2713.29 0.463628 -0.475336 0
M  V30 28390 H 2715.82 0.913685 -1.83065 0
M  V30 28391 H 2715.83 3.28985 -2.41315 0
M  V30 28392 H 2714.51 2.54315 -3.29085 0
M  V30 28393 H 2713.08 3.34655 -1.645 0
M  V30 28394 N 2715.27 1.24225 0.969846 0
M  V30 28395 C 2716.23 1.03377 2.04563 0
M  V30 28396 C 2717.23 -0.0081638 1.60798 0
M  V30 28397 O 2718.42 0.232597 1.7264 0
M  V30 28398 C 2715.55 0.566402 3.36162 0
M  V30 28399 H 2716.75 1.98857 2.2449 0
M  V30 28400 H 2714.3 1.06417 1.14478 0
M  V30 28401 H 2715.04 -0.391694 3.21926 0
M  V30 28402 H 2714.82 1.3184 3.6927 0
M  V30 28403 H 2716.31 0.441508 4.1526 0
M  V30 28404 N 2716.75 -1.1702 1.05565 0
M  V30 28405 C 2718 -1.87002 0.766452 0
M  V30 28406 C 2718.32 -1.81661 -0.708822 0
M  V30 28407 O 2717.59 -1.24513 -1.5124 0
M  V30 28408 H 2716.17 -0.692324 0.280528 0
M  V30 28409 H 2718.83 -1.41943 1.3356 0
M  V30 28410 H 2717.92 -2.92642 1.08477 0
M  V30 28411 N 2718.23 -0.837197 -1.33524 0
M  V30 28412 C 2719.46 -0.444884 -2.01753 0
M  V30 28413 C 2719.86 0.958043 -1.63151 0
M  V30 28414 O 2719.21 1.63377 -0.839856 0
M  V30 28415 C 2719.27 -0.483979 -3.56227 0
M  V30 28416 C 2718.93 -1.84273 -4.18202 0
M  V30 28417 C 2719.93 -2.8057 -4.37694 0
M  V30 28418 C 2717.61 -2.13511 -4.54663 0
M  V30 28419 C 2719.61 -4.0427 -4.92793 0
M  V30 28420 C 2717.3 -3.37467 -5.09469 0
M  V30 28421 C 2718.29 -4.32663 -5.2848 0
M  V30 28422 O 2717.98 -5.54427 -5.82122 0
M  V30 28423 H 2717.71 -0.175116 -0.652925 0
M  V30 28424 H 2720.27 -1.13085 -1.71467 0
M  V30 28425 H 2718.5 0.258758 -3.85833 0
M  V30 28426 H 2720.19 -0.109724 -4.05752 0
M  V30 28427 H 2720.95 -2.59282 -4.09876 0
M  V30 28428 H 2716.83 -1.40209 -4.39161 0
M  V30 28429 H 2720.38 -4.78583 -5.07547 0
M  V30 28430 H 2716.27 -3.58614 -5.36718 0
M  V30 28431 H 2717.04 -5.56144 -6.00539 0
M  V30 28432 N 2719.7 1.45999 -0.593476 0
M  V30 28433 C 2721.11 1.85926 -0.169834 0
M  V30 28434 C 2721.47 1.49567 1.26981 0
M  V30 28435 O 2720.59 0.915636 1.96074 0
M  V30 28436 C 2721.19 3.37456 -0.301444 0
M  V30 28437 C 2719.74 3.7634 0.0674022 0
M  V30 28438 C 2718.89 2.69992 -0.63243 0
M  V30 28439 H 2721.84 1.37 -0.801038 0
M  V30 28440 H 2721.86 3.77583 0.470265 0
M  V30 28441 H 2721.38 3.63888 -1.34933 0
M  V30 28442 H 2719.48 3.55525 1.11501 0
M  V30 28443 H 2719.59 4.78054 -0.316416 0
M  V30 28444 H 2717.95 2.546 -0.0715408 0
M  V30 28445 H 2718.74 2.99262 -1.68218 0
M  V30 28446 N 2721.18 0.331843 1.54067 0
M  V30 28447 C 2722.41 -0.269569 2.04834 0
M  V30 28448 C 2722.82 -1.45685 1.20716 0
M  V30 28449 O 2722.16 -1.82222 0.232571 0
M  V30 28450 C 2722.23 -0.759437 3.51387 0
M  V30 28451 C 2721.89 0.306637 4.5597 0
M  V30 28452 C 2722.89 1.14547 5.07124 0
M  V30 28453 C 2720.57 0.457204 5.00215 0
M  V30 28454 C 2722.57 2.12053 6.01093 0
M  V30 28455 C 2720.25 1.43567 5.93996 0
M  V30 28456 C 2721.25 2.26579 6.44322 0
M  V30 28457 O 2720.94 3.22762 7.36261 0
M  V30 28458 H 2720.67 -0.0579645 0.67351 0
M  V30 28459 H 2723.22 0.478556 1.99747 0
M  V30 28460 H 2721.45 -1.55861 3.53899 0
M  V30 28461 H 2723.14 -1.28011 3.85186 0
M  V30 28462 H 2723.91 1.04018 4.73714 0
M  V30 28463 H 2719.79 -0.179061 4.60652 0
M  V30 28464 H 2723.33 2.76885 6.40297 0
M  V30 28465 H 2719.23 1.54157 6.26822 0
M  V30 28466 H 2720 3.18097 7.5416 0
M  V30 28467 N 2722.66 -1.57485 0.0601958 0
M  V30 28468 C 2723.91 -1.93331 -0.612467 0
M  V30 28469 C 2724.24 -0.939556 -1.69959 0
M  V30 28470 O 2723.51 0.0330616 -1.94472 0
M  V30 28471 C 2723.8 -3.39511 -1.20019 0
M  V30 28472 C 2723.65 -4.49639 -0.120511 0
M  V30 28473 C 2724.97 -3.86267 -2.10916 0
M  V30 28474 H 2722.09 -0.70303 -0.221172 0
M  V30 28475 H 2724.73 -1.89596 0.123801 0
M  V30 28476 H 2722.88 -3.42824 -1.82768 0
M  V30 28477 H 2724.55 -4.58451 0.51193 0
M  V30 28478 H 2722.8 -4.30295 0.550327 0
M  V30 28479 H 2723.47 -5.49029 -0.571922 0
M  V30 28480 H 2725.94 -3.84887 -1.58118 0
M  V30 28481 H 2724.82 -4.89184 -2.48978 0
M  V30 28482 H 2725.08 -3.23541 -3.01286 0
M  V30 28483 N 2724.14 0.213268 -1.5615 0
M  V30 28484 C 2725.1 1.24789 -1.92251 0
M  V30 28485 C 2726.1 1.39381 -0.801852 0
M  V30 28486 O 2727.29 1.37504 -1.0695 0
M  V30 28487 C 2724.42 2.62035 -2.1806 0
M  V30 28488 H 2725.62 0.939795 -2.84794 0
M  V30 28489 H 2723.17 0.454036 -1.4956 0
M  V30 28490 H 2723.9 2.9793 -1.28095 0
M  V30 28491 H 2723.69 2.52819 -2.99708 0
M  V30 28492 H 2725.18 3.36679 -2.47057 0
M  V30 28493 N 2725.62 1.50103 0.480296 0
M  V30 28494 C 2726.55 1.71218 1.58766 0
M  V30 28495 C 2727.53 0.561025 1.60582 0
M  V30 28496 O 2728.71 0.799158 1.76995 0
M  V30 28497 C 2725.84 1.79783 2.97145 0
M  V30 28498 C 2724.8 2.94894 3.10196 0
M  V30 28499 C 2724.12 2.88592 4.50132 0
M  V30 28500 C 2725.42 4.35539 2.88276 0
M  V30 28501 H 2727.12 2.63933 1.4135 0
M  V30 28502 H 2724.66 1.2701 0.678569 0
M  V30 28503 H 2726.62 1.9314 3.74533 0
M  V30 28504 H 2725.34 0.836827 3.15697 0
M  V30 28505 H 2724 2.81173 2.35239 0
M  V30 28506 H 2723.65 1.90357 4.65589 0
M  V30 28507 H 2723.35 3.65864 4.59801 0
M  V30 28508 H 2724.87 3.03985 5.29552 0
M  V30 28509 H 2726.28 4.49834 3.55419 0
M  V30 28510 H 2724.68 5.14191 3.09399 0
M  V30 28511 H 2725.75 4.48547 1.84211 0
M  V30 28512 N 2727.09 -0.732829 1.39526 0
M  V30 28513 C 2728.34 -1.48948 1.36597 0
M  V30 28514 C 2728.66 -1.94965 -0.0367165 0
M  V30 28515 O 2727.93 -1.6914 -0.988362 0
M  V30 28516 H 2726.51 -0.552557 0.502683 0
M  V30 28517 H 2729.18 -0.869839 1.74413 0
M  V30 28518 H 2728.27 -2.37057 2.03004 0
M  V30 28519 N 2728.57 -1.24737 -0.963244 0
M  V30 28520 C 2729.82 -1.08372 -1.70113 0
M  V30 28521 C 2730.13 0.376654 -1.91939 0
M  V30 28522 O 2731.34 0.660578 -2.63341 0
M  V30 28523 C 2729.8 -1.89104 -3.06215 0
M  V30 28524 C 2729.4 -3.3958 -2.92215 0
M  V30 28525 C 2731.15 -1.81282 -3.83845 0
M  V30 28526 C 2729.06 -4.12639 -4.23655 0
M  V30 28527 H 2727.99 -0.401936 -0.637937 0
M  V30 28528 H 2730.64 -1.48858 -1.07301 0
M  V30 28529 H 2729.02 -1.41436 -3.69881 0
M  V30 28530 H 2730.19 -3.9486 -2.37534 0
M  V30 28531 H 2728.51 -3.48401 -2.28047 0
M  V30 28532 H 2731.1 -2.33166 -4.81184 0
M  V30 28533 H 2731.45 -0.778967 -4.08947 0
M  V30 28534 H 2731.98 -2.26655 -3.26914 0
M  V30 28535 H 2728.72 -5.16402 -4.03744 0
M  V30 28536 H 2728.24 -3.62143 -4.78134 0
M  V30 28537 H 2729.92 -4.19882 -4.92248 0
M  V30 28538 N 2730.05 1.16459 -1.06184 0
M  V30 28539 C 2731 2.20811 -0.671652 0
M  V30 28540 C 2731.97 1.62765 0.331158 0
M  V30 28541 O 2733.15 1.89524 0.220296 0
M  V30 28542 C 2730.29 3.45042 -0.0630897 0
M  V30 28543 C 2729.41 4.17338 -1.11594 0
M  V30 28544 C 2728.54 5.29084 -0.473639 0
M  V30 28545 C 2727.58 5.9318 -1.5101 0
M  V30 28546 N 2726.72 6.9642 -0.89124 0
M  V30 28547 H 2731.56 2.5354 -1.56594 0
M  V30 28548 H 2729.09 1.24531 -0.782973 0
M  V30 28549 H 2731.05 4.16067 0.307271 0
M  V30 28550 H 2729.68 3.12867 0.794608 0
M  V30 28551 H 2728.73 3.44928 -1.60402 0
M  V30 28552 H 2730.05 4.61101 -1.9023 0
M  V30 28553 H 2729.2 6.06679 -0.0502499 0
M  V30 28554 H 2727.94 4.86481 0.344601 0
M  V30 28555 H 2726.94 5.14307 -1.9434 0
M  V30 28556 H 2728.17 6.37862 -2.33042 0
M  V30 28557 H 2726.11 6.55933 -0.0936906 0
M  V30 28558 H 2726.03 7.38549 -1.61499 0
M  V30 28559 H 2727.3 7.7794 -0.492959 0
M  V30 28560 N 2731.53 0.844266 1.33079 0
M  V30 28561 C 2732.48 0.279364 2.29103 0
M  V30 28562 C 2733.45 -0.607855 1.54578 0
M  V30 28563 O 2734.63 -0.544977 1.82851 0
M  V30 28564 C 2731.77 -0.53502 3.40927 0
M  V30 28565 C 2730.88 0.376825 4.30353 0
M  V30 28566 C 2730.02 -0.449183 5.29297 0
M  V30 28567 C 2729.06 0.460713 6.10364 0
M  V30 28568 N 2728.19 -0.327489 7.01336 0
M  V30 28569 H 2733.03 1.10351 2.76815 0
M  V30 28570 H 2730.57 0.555635 1.36202 0
M  V30 28571 H 2732.53 -1.02271 4.04471 0
M  V30 28572 H 2731.16 -1.32409 2.94394 0
M  V30 28573 H 2730.21 0.982856 3.67483 0
M  V30 28574 H 2731.52 1.07557 4.87066 0
M  V30 28575 H 2730.68 -1.00048 5.98394 0
M  V30 28576 H 2729.42 -1.18134 4.73176 0
M  V30 28577 H 2728.42 1.02398 5.4018 0
M  V30 28578 H 2729.65 1.19132 6.68569 0
M  V30 28579 H 2727.59 -1.04293 6.47656 0
M  V30 28580 H 2727.51 0.312433 7.55354 0
M  V30 28581 H 2728.78 -0.860844 7.74732 0
M  V30 28582 N 2733.01 -1.45682 0.60121 0
M  V30 28583 C 2734.42 -1.57396 0.264343 0
M  V30 28584 C 2734.62 -1.59356 -1.23321 0
M  V30 28585 O 2733.68 -1.52043 -2.01592 0
M  V30 28586 C 2734.99 -2.85961 0.929889 0
M  V30 28587 C 2736.54 -2.99625 0.905209 0
M  V30 28588 C 2737.01 -4.30951 1.55064 0
M  V30 28589 N 2738.51 -4.37695 1.51584 0
M  V30 28590 C 2739.24 -5.37966 1.98445 0
M  V30 28591 N 2738.74 -6.44809 2.53364 0
M  V30 28592 N 2740.53 -5.29283 1.89251 0
M  V30 28593 H 2732.68 -1.42653 1.57365 0
M  V30 28594 H 2734.94 -0.681637 0.658843 0
M  V30 28595 H 2734.65 -2.90391 1.98409 0
M  V30 28596 H 2734.52 -3.74515 0.44929 0
M  V30 28597 H 2736.91 -2.94766 -0.140429 0
M  V30 28598 H 2736.99 -2.12498 1.42401 0
M  V30 28599 H 2736.64 -4.36569 2.59558 0
M  V30 28600 H 2736.57 -5.16884 1.00691 0
M  V30 28601 H 2739.06 -3.61089 1.11459 0
M  V30 28602 H 2739.37 -7.17559 2.86931 0
M  V30 28603 H 2737.71 -6.45578 2.57399 0
M  V30 28604 H 2740.91 -4.44719 1.46091 0
M  V30 28605 H 2741.08 -6.0728 2.26086 0
M  V30 28606 N 2734.48 -0.340009 -1.53889 0
M  V30 28607 C 2735.76 0.312685 -1.93085 0
M  V30 28608 C 2736.14 1.68531 -1.27123 0
M  V30 28609 O 2735.49 2.24591 -0.420875 0
M  V30 28610 C 2735.7 0.388497 -3.46831 0
M  V30 28611 C 2737.05 0.641014 -4.19733 0
M  V30 28612 O 2738.07 0.470756 -3.53076 0
M  V30 28613 O 2736.93 0.970591 -5.37812 0
M  V30 28614 H 2734.02 0.181725 -0.806787 0
M  V30 28615 H 2736.57 -0.390927 -1.65136 0
M  V30 28616 H 2735.34 -0.574889 -3.87054 0
M  V30 28617 H 2734.97 1.13904 -3.80935 0
M  V30 28618 N 2735.96 1.57451 -0.0685468 0
M  V30 28619 C 2737.21 1.92542 0.600864 0
M  V30 28620 C 2737.53 0.950269 1.70966 0
M  V30 28621 O 2738.73 1.19388 2.43842 0
M  V30 28622 C 2737.19 3.42025 1.12013 0
M  V30 28623 C 2736.8 4.4798 0.042524 0
M  V30 28624 C 2738.54 3.86122 1.7638 0
M  V30 28625 C 2736.45 5.88592 0.575655 0
M  V30 28626 H 2735.38 0.718634 0.228213 0
M  V30 28627 H 2738.03 1.82963 -0.140255 0
M  V30 28628 H 2736.41 3.46666 1.91412 0
M  V30 28629 H 2737.58 4.5495 -0.7319 0
M  V30 28630 H 2735.9 4.1333 -0.504715 0
M  V30 28631 H 2738.5 4.88557 2.17293 0
M  V30 28632 H 2738.84 3.23313 2.62249 0
M  V30 28633 H 2739.37 3.8407 1.03608 0
M  V30 28634 H 2736.11 6.55039 -0.245807 0
M  V30 28635 H 2735.63 5.85147 1.31767 0
M  V30 28636 H 2737.31 6.38372 1.05309 0
M  V30 28637 N 2737.44 -0.204984 1.56261 0
M  V30 28638 C 2738.37 -1.25696 1.96781 0
M  V30 28639 C 2739.35 -1.48007 0.838335 0
M  V30 28640 O 2740.54 -1.59911 1.10192 0
M  V30 28641 C 2737.67 -2.60331 2.2988 0
M  V30 28642 C 2736.62 -2.5265 3.45473 0
M  V30 28643 C 2735.95 -3.91467 3.64222 0
M  V30 28644 C 2737.25 -2.06005 4.79957 0
M  V30 28645 H 2738.94 -0.920288 2.84905 0
M  V30 28646 H 2736.49 -0.441253 1.37073 0
M  V30 28647 H 2738.44 -3.34098 2.5682 0
M  V30 28648 H 2737.16 -2.9572 1.38627 0
M  V30 28649 H 2735.82 -1.8134 3.18609 0
M  V30 28650 H 2735.47 -4.24191 2.70316 0
M  V30 28651 H 2735.17 -3.87205 4.4198 0
M  V30 28652 H 2736.7 -4.66871 3.93528 0
M  V30 28653 H 2738.11 -2.69524 5.05994 0
M  V30 28654 H 2736.51 -2.12767 5.61115 0
M  V30 28655 H 2737.58 -1.01289 4.74203 0
M  V30 28656 N 2738.92 -1.50356 -0.472329 0
M  V30 28657 C 2740.14 -1.65311 -1.25248 0
M  V30 28658 C 2740.57 -0.335675 -1.85081 0
M  V30 28659 O 2739.93 0.700306 -1.67229 0
M  V30 28660 C 2739.98 -2.74548 -2.33785 0
M  V30 28661 O 2739.08 -2.35715 -3.38396 0
M  V30 28662 H 2738.42 -0.552343 -0.368529 0
M  V30 28663 H 2740.95 -1.96723 -0.562236 0
M  V30 28664 H 2740.96 -2.97587 -2.79116 0
M  V30 28665 H 2739.64 -3.70165 -1.89607 0
M  V30 28666 H 2738.21 -2.23118 -2.98786 0
M  V30 28667 N 2740.4 0.725419 -1.39912 0
M  V30 28668 C 2741.34 1.83949 -1.39396 0
M  V30 28669 C 2742.31 1.64173 -0.252278 0
M  V30 28670 O 2743.5 1.85445 -0.448852 0
M  V30 28671 C 2740.64 3.21562 -1.25267 0
M  V30 28672 C 2739.75 3.52977 -2.4906 0
M  V30 28673 C 2738.89 4.80043 -2.27447 0
M  V30 28674 C 2737.93 5.04332 -3.46866 0
M  V30 28675 N 2737.06 6.22606 -3.2451 0
M  V30 28676 H 2741.9 1.83725 -2.34626 0
M  V30 28677 H 2739.44 0.897616 -1.16539 0
M  V30 28678 H 2741.4 4.01013 -1.15084 0
M  V30 28679 H 2740.03 3.2104 -0.336626 0
M  V30 28680 H 2739.08 2.68155 -2.69809 0
M  V30 28681 H 2740.39 3.6684 -3.37979 0
M  V30 28682 H 2739.55 5.67493 -2.14561 0
M  V30 28683 H 2738.29 4.68372 -1.35937 0
M  V30 28684 H 2737.29 4.1534 -3.6024 0
M  V30 28685 H 2738.52 5.17882 -4.3929 0
M  V30 28686 H 2736.46 6.12204 -2.35674 0
M  V30 28687 H 2736.38 6.37099 -4.0699 0
M  V30 28688 H 2737.65 7.12869 -3.15337 0
M  V30 28689 N 2741.88 1.25246 0.956615 0
M  V30 28690 C 2742.82 1.05457 2.05298 0
M  V30 28691 C 2743.79 -0.0356597 1.66062 0
M  V30 28692 O 2744.98 0.121133 1.90415 0
M  V30 28693 C 2742.12 0.67725 3.38389 0
M  V30 28694 C 2741.23 1.84213 3.90755 0
M  V30 28695 C 2740.37 1.40935 5.12163 0
M  V30 28696 C 2739.4 2.54348 5.56753 0
M  V30 28697 N 2738.54 2.1186 6.69373 0
M  V30 28698 H 2743.38 1.99288 2.21559 0
M  V30 28699 H 2740.92 0.992453 1.08576 0
M  V30 28700 H 2742.88 0.439452 4.14879 0
M  V30 28701 H 2741.51 -0.22407 3.22021 0
M  V30 28702 H 2740.56 2.19329 3.10804 0
M  V30 28703 H 2741.87 2.69391 4.19798 0
M  V30 28704 H 2741.02 1.13108 5.96063 0
M  V30 28705 H 2739.76 0.52826 4.84831 0
M  V30 28706 H 2738.77 2.82922 4.71418 0
M  V30 28707 H 2739.99 3.43032 5.86094 0
M  V30 28708 H 2737.94 1.26164 6.43753 0
M  V30 28709 H 2737.86 2.90587 6.97922 0
M  V30 28710 H 2739.12 1.87204 7.56687 0
M  V30 28711 N 2743.35 -1.15894 1.068 0
M  V30 28712 C 2744.58 -1.9044 0.808728 0
M  V30 28713 C 2745 -1.77712 -0.637474 0
M  V30 28714 O 2744.35 -1.12525 -1.43682 0
M  V30 28715 C 2744.4 -3.40976 1.20074 0
M  V30 28716 O 2744.13 -3.53328 2.59019 0
M  V30 28717 C 2745.63 -4.32559 0.969946 0
M  V30 28718 H 2742.85 -0.603736 0.29282 0
M  V30 28719 H 2745.39 -1.46872 1.42299 0
M  V30 28720 H 2743.55 -3.82228 0.630909 0
M  V30 28721 H 2743.96 -4.46714 2.74858 0
M  V30 28722 H 2745.43 -5.36623 1.2938 0
M  V30 28723 H 2745.91 -4.39099 -0.0940438 0
M  V30 28724 H 2746.52 -3.97042 1.5244 0
M  V30 28725 N 2744.83 -0.851312 -1.32629 0
M  V30 28726 C 2745.78 -0.291509 -2.28952 0
M  V30 28727 C 2746.75 0.599649 -1.54898 0
M  V30 28728 O 2747.93 0.535272 -1.83138 0
M  V30 28729 C 2745.07 0.516932 -3.41206 0
M  V30 28730 C 2744.19 -0.399642 -4.30147 0
M  V30 28731 C 2743.32 0.421106 -5.29528 0
M  V30 28732 C 2742.36 -0.493076 -6.10111 0
M  V30 28733 N 2741.5 0.29029 -7.015 0
M  V30 28734 H 2746.34 -1.11818 -2.76226 0
M  V30 28735 H 2743.87 -0.56285 -1.35906 0
M  V30 28736 H 2745.83 1.00125 -4.05007 0
M  V30 28737 H 2744.46 1.30846 -2.95092 0
M  V30 28738 H 2743.51 -1.00233 -3.66957 0
M  V30 28739 H 2744.83 -1.10139 -4.86488 0
M  V30 28740 H 2743.98 0.968727 -5.98916 0
M  V30 28741 H 2742.72 1.15623 -4.73796 0
M  V30 28742 H 2741.72 -1.05261 -5.3963 0
M  V30 28743 H 2742.95 -1.22676 -6.67928 0
M  V30 28744 H 2740.9 1.00857 -6.482 0
M  V30 28745 H 2740.81 -0.352487 -7.55178 0
M  V30 28746 H 2742.08 0.819746 -7.75178 0
M  V30 28747 N 2746.31 1.45361 -0.608928 0
M  V30 28748 C 2747.59 1.95566 -0.0365721 0
M  V30 28749 C 2747.97 1.55134 1.43167 0
M  V30 28750 O 2747.31 0.814551 2.13488 0
M  V30 28751 C 2747.52 3.48201 -0.236087 0
M  V30 28752 C 2748.87 4.24437 -0.117593 0
M  V30 28753 O 2749.9 3.55812 -0.16628 0
M  V30 28754 O 2748.76 5.465 -0.00381733 0
M  V30 28755 H 2745.85 0.82626 0.0349729 0
M  V30 28756 H 2748.4 1.5552 -0.679083 0
M  V30 28757 H 2747.17 3.70603 -1.25575 0
M  V30 28758 H 2746.79 3.9514 0.441622 0
M  V30 28759 N 2747.79 0.348166 1.53706 0
M  V30 28760 C 2748.72 -0.498726 2.28112 0
M  V30 28761 C 2749.7 -1.09873 1.29853 0
M  V30 28762 O 2750.88 -1.11926 1.58702 0
M  V30 28763 C 2748.01 -1.64748 3.05738 0
M  V30 28764 C 2746.97 -1.17558 4.11539 0
M  V30 28765 C 2746.29 -2.41321 4.77146 0
M  V30 28766 C 2747.59 -0.272752 5.21587 0
M  V30 28767 H 2749.29 0.121986 2.99151 0
M  V30 28768 H 2746.83 0.0601095 1.43874 0
M  V30 28769 H 2748.79 -2.24643 3.5653 0
M  V30 28770 H 2747.51 -2.29516 2.32358 0
M  V30 28771 H 2746.17 -0.599419 3.61666 0
M  V30 28772 H 2745.82 -3.04507 4.00356 0
M  V30 28773 H 2745.52 -2.10427 5.4863 0
M  V30 28774 H 2747.04 -3.01934 5.30724 0
M  V30 28775 H 2748.46 -0.778679 5.67987 0
M  V30 28776 H 2746.85 -0.0554795 6.00074 0
M  V30 28777 H 2747.92 0.689869 4.79968 0
M  V30 28778 N 2749.27 -1.57412 0.0768958 0
M  V30 28779 C 2750.49 -1.98011 -0.599935 0
M  V30 28780 C 2750.91 -0.955436 -1.6284 0
M  V30 28781 O 2750.27 0.0572819 -1.8241 0
M  V30 28782 C 2750.32 -3.38683 -1.26396 0
M  V30 28783 O 2750.04 -4.37226 -0.276646 0
M  V30 28784 C 2751.54 -3.94185 -2.02813 0
M  V30 28785 H 2748.76 -0.651094 -0.162227 0
M  V30 28786 H 2751.3 -2.03943 0.150807 0
M  V30 28787 H 2749.46 -3.33822 -1.96575 0
M  V30 28788 H 2749.87 -5.19057 -0.753653 0
M  V30 28789 H 2751.35 -4.9482 -2.44658 0
M  V30 28790 H 2751.82 -3.31006 -2.88672 0
M  V30 28791 H 2752.43 -4.02463 -1.37489 0
M  V30 28792 N 2750.74 0.196695 -1.56368 0
M  V30 28793 C 2751.69 1.24378 -1.94419 0
M  V30 28794 C 2752.66 1.45313 -0.804569 0
M  V30 28795 O 2753.85 1.58473 -1.06259 0
M  V30 28796 C 2750.99 2.58384 -2.28761 0
M  V30 28797 C 2750.1 2.45041 -3.55779 0
M  V30 28798 C 2749.23 3.71739 -3.79451 0
M  V30 28799 C 2748.27 3.53223 -4.999 0
M  V30 28800 N 2747.41 4.71929 -5.19834 0
M  V30 28801 H 2752.25 0.912288 -2.83692 0
M  V30 28802 H 2749.79 0.43911 -1.40393 0
M  V30 28803 H 2751.75 3.36453 -2.46688 0
M  V30 28804 H 2750.38 2.8958 -1.4263 0
M  V30 28805 H 2749.43 1.58278 -3.45908 0
M  V30 28806 H 2750.74 2.27292 -4.44004 0
M  V30 28807 H 2749.89 4.58249 -3.97609 0
M  V30 28808 H 2748.63 3.92441 -2.89553 0
M  V30 28809 H 2747.64 2.65098 -4.81667 0
M  V30 28810 H 2748.86 3.33968 -5.91306 0
M  V30 28811 H 2746.81 4.92897 -4.32884 0
M  V30 28812 H 2746.73 4.56999 -6.02236 0
M  V30 28813 H 2747.99 5.59794 -5.42449 0
M  V30 28814 N 2752.22 1.50604 0.464349 0
M  V30 28815 C 2753.15 1.72892 1.56941 0
M  V30 28816 C 2754.13 0.578025 1.59978 0
M  V30 28817 O 2755.32 0.817886 1.76137 0
M  V30 28818 C 2752.45 1.82925 2.95222 0
M  V30 28819 C 2751.4 2.98167 3.07051 0
M  V30 28820 C 2750.73 2.9335 4.47045 0
M  V30 28821 C 2752.03 4.38572 2.8364 0
M  V30 28822 H 2753.72 2.65417 1.38542 0
M  V30 28823 H 2751.27 1.27722 0.665059 0
M  V30 28824 H 2753.22 1.97101 3.72464 0
M  V30 28825 H 2751.95 0.870264 3.14792 0
M  V30 28826 H 2750.6 2.83652 2.32243 0
M  V30 28827 H 2750.25 1.95284 4.63544 0
M  V30 28828 H 2749.95 3.7072 4.55895 0
M  V30 28829 H 2751.48 3.09584 5.26298 0
M  V30 28830 H 2752.89 4.53578 3.50628 0
M  V30 28831 H 2751.29 5.17444 3.03928 0
M  V30 28832 H 2752.36 4.50475 1.79443 0
M  V30 28833 N 2753.7 -0.717989 1.40295 0
M  V30 28834 C 2754.65 -1.83207 1.4037 0
M  V30 28835 C 2755.62 -1.64037 0.260981 0
M  V30 28836 O 2756.8 -1.85205 0.458681 0
M  V30 28837 C 2753.94 -3.20893 1.26971 0
M  V30 28838 C 2753.06 -3.51652 2.50929 0
M  V30 28839 C 2752.19 -4.7883 2.2999 0
M  V30 28840 C 2751.23 -5.02485 3.49536 0
M  V30 28841 N 2750.37 -6.20876 3.27807 0
M  V30 28842 H 2755.21 -1.82478 2.35597 0
M  V30 28843 H 2752.74 -0.891423 1.17013 0
M  V30 28844 H 2754.7 -4.00397 1.17209 0
M  V30 28845 H 2753.33 -3.20857 0.353647 0
M  V30 28846 H 2752.38 -2.6672 2.71228 0
M  V30 28847 H 2753.7 -3.65042 3.3992 0
M  V30 28848 H 2752.85 -5.66347 2.17568 0
M  V30 28849 H 2751.59 -4.67644 1.38419 0
M  V30 28850 H 2750.59 -4.13424 3.62437 0
M  V30 28851 H 2751.82 -5.15545 4.4203 0
M  V30 28852 H 2749.76 -6.10946 2.38917 0
M  V30 28853 H 2749.68 -6.34932 4.10363 0
M  V30 28854 H 2750.95 -7.11187 3.19113 0
M  V30 28855 N 2755.18 -1.25752 -0.94996 0
M  V30 28856 C 2756.09 -1.08299 -2.08107 0
M  V30 28857 C 2757.1 -0.0188487 -1.7399 0
M  V30 28858 O 2758.28 -0.220759 -2.00186 0
M  V30 28859 C 2755.35 -0.708594 -3.39382 0
M  V30 28860 C 2754.41 -1.85118 -3.87337 0
M  V30 28861 C 2753.64 -1.49456 -5.12346 0
M  V30 28862 O 2753.86 -0.392312 -5.69049 0
M  V30 28863 O 2752.8 -2.32634 -5.55126 0
M  V30 28864 H 2756.62 -2.03169 -2.25735 0
M  V30 28865 H 2754.21 -1.04733 -1.06543 0
M  V30 28866 H 2756.09 -0.512134 -4.18276 0
M  V30 28867 H 2754.76 0.210797 -3.23013 0
M  V30 28868 H 2753.67 -2.10254 -3.09426 0
M  V30 28869 H 2755 -2.74998 -4.08212 0
M  V30 28870 N 2756.66 1.15326 -1.07413 0
M  V30 28871 C 2757.9 1.87793 -0.807044 0
M  V30 28872 C 2758.26 1.80484 0.654955 0
M  V30 28873 O 2759.46 2.47986 1.03712 0
M  V30 28874 C 2757.73 3.32839 -1.30204 0
M  V30 28875 S 2759.29 4.23032 -1.16572 0
M  V30 28876 H 2756.11 0.648074 -0.29244 0
M  V30 28877 H 2758.71 1.39136 -1.37337 0
M  V30 28878 H 2757.42 3.35703 -2.36076 0
M  V30 28879 H 2756.95 3.8655 -0.730949 0
M  V30 28880 H 2758.96 4.96092 -0.103644 0
M  V30 28881 N 2758.13 0.858334 1.32176 0
M  V30 28882 C 2759.07 0.25039 2.26822 0
M  V30 28883 C 2760.05 -0.613754 1.50572 0
M  V30 28884 O 2761.23 -0.569746 1.79683 0
M  V30 28885 C 2758.36 -0.646497 3.32473 0
M  V30 28886 C 2757.4 0.14475 4.26254 0
M  V30 28887 S 2758.24 1.51559 5.13605 0
M  V30 28888 C 2759.39 0.624518 6.22777 0
M  V30 28889 H 2759.62 1.05272 2.78038 0
M  V30 28890 H 2757.16 0.656177 1.39763 0
M  V30 28891 H 2759.12 -1.15831 3.93819 0
M  V30 28892 H 2757.78 -1.42267 2.80034 0
M  V30 28893 H 2756.97 -0.538525 5.01115 0
M  V30 28894 H 2756.57 0.588263 3.69345 0
M  V30 28895 H 2758.86 -0.169727 6.77287 0
M  V30 28896 H 2759.81 1.34388 6.9523 0
M  V30 28897 H 2760.21 0.197227 5.64155 0
M  V30 28898 N 2759.61 -1.45036 0.616628 0
M  V30 28899 C 2760.89 -1.95544 0.046943 0
M  V30 28900 C 2761.27 -1.55891 -1.42342 0
M  V30 28901 O 2760.62 -0.825861 -2.13053 0
M  V30 28902 C 2760.83 -3.4807 0.25455 0
M  V30 28903 C 2762.18 -4.24369 0.1401 0
M  V30 28904 O 2763.2 -3.55718 0.185147 0
M  V30 28905 O 2762.06 -5.4649 0.0327995 0
M  V30 28906 H 2759.15 -0.826434 -0.0305906 0
M  V30 28907 H 2761.7 -1.55158 0.687321 0
M  V30 28908 H 2760.47 -3.69932 1.27539 0
M  V30 28909 H 2760.09 -3.95368 -0.42066 0
M  V30 28910 N 2761.09 -0.356312 -1.53519 0
M  V30 28911 C 2762.04 0.49453 -2.2544 0
M  V30 28912 C 2763.01 1.08514 -1.25753 0
M  V30 28913 O 2764.19 1.11937 -1.54515 0
M  V30 28914 C 2761.33 1.63308 -3.04014 0
M  V30 28915 C 2760.45 1.06854 -4.18576 0
M  V30 28916 C 2759.58 2.17544 -4.84611 0
M  V30 28917 C 2758.62 1.58507 -5.91221 0
M  V30 28918 N 2757.76 2.62991 -6.50984 0
M  V30 28919 H 2762.6 -0.125296 -2.97736 0
M  V30 28920 H 2760.13 -0.0736047 -1.46916 0
M  V30 28921 H 2762.09 2.30357 -3.47838 0
M  V30 28922 H 2760.72 2.2237 -2.3399 0
M  V30 28923 H 2759.77 0.288605 -3.79304 0
M  V30 28924 H 2761.09 0.596837 -4.95216 0
M  V30 28925 H 2760.24 2.92433 -5.31571 0
M  V30 28926 H 2758.98 2.68063 -4.07423 0
M  V30 28927 H 2757.98 0.821295 -5.43631 0
M  V30 28928 H 2759.21 1.08824 -6.70324 0
M  V30 28929 H 2757.15 3.12741 -5.76653 0
M  V30 28930 H 2757.07 2.20481 -7.23135 0
M  V30 28931 H 2758.34 3.3761 -7.02595 0
M  V30 28932 N 2762.57 1.57369 -0.0852427 0
M  V30 28933 C 2763.8 1.98039 0.588571 0
M  V30 28934 C 2764.21 0.962846 1.62868 0
M  V30 28935 O 2763.55 -0.0571017 1.83611 0
M  V30 28936 C 2763.61 3.35056 1.30298 0
M  V30 28937 C 2763.28 4.55114 0.414776 0
M  V30 28938 C 2764.27 5.18832 -0.333103 0
M  V30 28939 C 2761.96 5.01177 0.335716 0
M  V30 28940 C 2763.95 6.26974 -1.14812 0
M  V30 28941 C 2761.64 6.09189 -0.482964 0
M  V30 28942 C 2762.64 6.71951 -1.22354 0
M  V30 28943 O 2762.32 7.77881 -2.02869 0
M  V30 28944 H 2762.06 0.655995 0.163237 0
M  V30 28945 H 2764.61 2.0479 -0.158236 0
M  V30 28946 H 2762.84 3.2496 2.09614 0
M  V30 28947 H 2764.53 3.6024 1.87035 0
M  V30 28948 H 2765.3 4.84181 -0.281696 0
M  V30 28949 H 2761.17 4.52094 0.90179 0
M  V30 28950 H 2764.72 6.75894 -1.72666 0
M  V30 28951 H 2760.62 6.43272 -0.535886 0
M  V30 28952 H 2761.38 7.94823 -1.95445 0
M  V30 28953 N 2764.05 -0.188399 1.5647 0
M  V30 28954 C 2765.29 -0.905954 1.80657 0
M  V30 28955 C 2765.62 -1.83512 0.659423 0
M  V30 28956 O 2764.89 -1.93238 -0.321834 0
M  V30 28957 H 2763.47 -0.337526 0.666397 0
M  V30 28958 H 2766.13 -0.192305 1.93949 0
M  V30 28959 H 2765.22 -1.49308 2.74069 0
M  V30 28960 N 2765.53 -1.50848 -0.456355 0
M  V30 28961 C 2766.46 -1.73722 -1.56022 0
M  V30 28962 C 2767.44 -0.586501 -1.59669 0
M  V30 28963 O 2768.62 -0.827216 -1.75701 0
M  V30 28964 C 2765.75 -1.84488 -2.94247 0
M  V30 28965 C 2764.71 -2.99791 -3.05466 0
M  V30 28966 C 2764.03 -2.95717 -4.45483 0
M  V30 28967 C 2765.33 -4.4007 -2.8131 0
M  V30 28968 H 2767.03 -2.66148 -1.37133 0
M  V30 28969 H 2764.57 -1.28073 -0.658277 0
M  V30 28970 H 2766.52 -1.99074 -3.71413 0
M  V30 28971 H 2765.25 -0.886946 -3.14326 0
M  V30 28972 H 2763.91 -2.8488 -2.30736 0
M  V30 28973 H 2763.56 -1.9774 -4.62502 0
M  V30 28974 H 2763.26 -3.73133 -4.53923 0
M  V30 28975 H 2764.78 -3.12371 -5.24649 0
M  V30 28976 H 2766.19 -4.55431 -3.48218 0
M  V30 28977 H 2764.59 -5.19048 -3.01179 0
M  V30 28978 H 2765.66 -4.51421 -1.77052 0
M  V30 28979 N 2767 0.710538 -1.40674 0
M  V30 28980 C 2767.95 1.84593 -1.41521 0
M  V30 28981 C 2768.95 1.6681 -0.295072 0
M  V30 28982 O 2770.15 1.73854 -0.466362 0
M  V30 28983 H 2766.53 0.608044 -0.442477 0
M  V30 28984 H 2768.5 1.80995 -2.37241 0
M  V30 28985 C 2767.25 3.22498 -1.29963 0
M  V30 28986 H 2766.57 3.3679 -2.15435 0
M  V30 28987 H 2768.01 4.02063 -1.34615 0
M  V30 28988 C 2766.47 3.36898 -0.0103756 0
M  V30 28989 O 2767 3.90289 0.950638 0
M  V30 28990 N 2765.2 2.90536 0.0607899 0
M  V30 28991 H 2764.75 2.47275 -0.721986 0
M  V30 28992 H 2764.71 3.0055 0.922867 0
M  V30 28993 N 2768.48 1.26254 0.943277 0
M  V30 28994 C 2769.41 1.10125 2.059 0
M  V30 28995 C 2770.39 0.00703542 1.70099 0
M  V30 28996 O 2771.58 0.178675 1.93376 0
M  V30 28997 C 2768.71 0.731235 3.39515 0
M  V30 28998 C 2767.66 1.77695 3.89369 0
M  V30 28999 C 2766.99 1.26131 5.1961 0
M  V30 29000 C 2768.29 3.17806 4.14484 0
M  V30 29001 H 2769.98 2.03454 2.19651 0
M  V30 29002 H 2767.53 0.979594 1.05546 0
M  V30 29003 H 2769.48 0.605288 4.1703 0
M  V30 29004 H 2768.2 -0.237763 3.25733 0
M  V30 29005 H 2766.86 1.89153 3.14033 0
M  V30 29006 H 2766.51 0.282216 5.02208 0
M  V30 29007 H 2766.21 1.96032 5.53936 0
M  V30 29008 H 2767.74 1.14799 5.99711 0
M  V30 29009 H 2769.15 3.09437 4.8262 0
M  V30 29010 H 2767.55 3.85279 4.60087 0
M  V30 29011 H 2768.62 3.64019 3.2034 0
M  V30 29012 N 2769.96 -1.14755 1.08024 0
M  V30 29013 C 2771.37 -1.67277 0.829173 0
M  V30 29014 C 2771.72 -1.85306 -0.644689 0
M  V30 29015 O 2770.85 -1.56136 -1.49835 0
M  V30 29016 C 2771.44 -3.03854 1.49861 0
M  V30 29017 C 2770 -3.53426 1.29488 0
M  V30 29018 C 2769.15 -2.28992 1.5639 0
M  V30 29019 H 2772.1 -0.988741 1.24135 0
M  V30 29020 H 2772.12 -3.69119 0.923637 0
M  V30 29021 H 2771.63 -2.907 2.57128 0
M  V30 29022 H 2769.73 -3.71808 0.242735 0
M  V30 29023 H 2769.85 -4.34443 2.01981 0
M  V30 29024 H 2768.21 -2.34872 0.985258 0
M  V30 29025 H 2768.99 -2.18418 2.64855 0
M  V30 29026 N 2771.44 -0.865331 -1.31719 0
M  V30 29027 C 2772.37 -0.262416 -2.26686 0
M  V30 29028 C 2773.35 0.60576 -1.50895 0
M  V30 29029 O 2774.53 0.560208 -1.79983 0
M  V30 29030 C 2771.66 0.628856 -3.32811 0
M  V30 29031 C 2770.71 -0.167353 -4.26172 0
M  V30 29032 S 2771.54 -1.54281 -5.12794 0
M  V30 29033 C 2772.69 -0.657536 -6.22437 0
M  V30 29034 H 2772.93 -1.06745 -2.77476 0
M  V30 29035 H 2770.46 -0.66358 -1.39413 0
M  V30 29036 H 2772.42 1.1374 -3.94428 0
M  V30 29037 H 2771.08 1.4078 -2.80784 0
M  V30 29038 H 2770.27 0.511942 -5.01393 0
M  V30 29039 H 2769.87 -0.607842 -3.69027 0
M  V30 29040 H 2772.17 0.133806 -6.77368 0
M  V30 29041 H 2773.11 -1.38073 -6.94508 0
M  V30 29042 H 2773.52 -0.227143 -5.64043 0
M  V30 29043 N 2772.92 1.44707 -0.624311 0
M  V30 29044 C 2774.16 2.02407 -0.126273 0
M  V30 29045 C 2774.49 1.48945 1.24615 0
M  V30 29046 O 2773.77 0.670774 1.82567 0
M  V30 29047 C 2774.05 3.59945 -0.105512 0
M  V30 29048 C 2773.91 4.23704 -1.5098 0
M  V30 29049 C 2775.22 4.36347 0.573552 0
M  V30 29050 H 2772.34 0.735477 -0.0473602 0
M  V30 29051 H 2774.99 1.72361 -0.799482 0
M  V30 29052 H 2773.14 3.85674 0.467762 0
M  V30 29053 H 2774.81 4.09106 -2.13144 0
M  V30 29054 H 2773.05 3.81461 -2.06567 0
M  V30 29055 H 2773.72 5.32687 -1.44736 0
M  V30 29056 H 2776.2 4.16011 0.0861056 0
M  V30 29057 H 2775.07 5.46064 0.557242 0
M  V30 29058 H 2775.33 4.10449 1.64269 0
M  V30 29059 N 2774.39 0.364449 1.53328 0
M  V30 29060 C 2775.62 -0.226388 2.05658 0
M  V30 29061 C 2776.04 -1.42542 1.23803 0
M  V30 29062 O 2775.39 -1.80364 0.278421 0
M  V30 29063 C 2775.44 -0.620993 3.56126 0
M  V30 29064 O 2775.17 0.53038 4.34878 0
M  V30 29065 C 2776.67 -1.27034 4.24708 0
M  V30 29066 H 2773.89 -0.0399938 0.669807 0
M  V30 29067 H 2776.43 0.522491 1.97713 0
M  V30 29068 H 2774.59 -1.31979 3.64226 0
M  V30 29069 H 2775 0.211638 5.24073 0
M  V30 29070 H 2776.47 -1.49702 5.31313 0
M  V30 29071 H 2776.95 -2.23029 3.78358 0
M  V30 29072 H 2777.56 -0.613005 4.20859 0
M  V30 29073 N 2775.87 -1.57322 0.0935872 0
M  V30 29074 C 2777.1 -1.98348 -0.57806 0
M  V30 29075 C 2777.51 -0.97147 -1.62355 0
M  V30 29076 O 2776.85 0.0473636 -1.83639 0
M  V30 29077 C 2776.91 -3.35743 -1.28519 0
M  V30 29078 C 2776.58 -4.55327 -0.390634 0
M  V30 29079 C 2777.58 -5.18648 0.360613 0
M  V30 29080 C 2775.26 -5.01348 -0.309132 0
M  V30 29081 C 2777.25 -6.26357 1.18136 0
M  V30 29082 C 2774.94 -6.08924 0.515264 0
M  V30 29083 C 2775.94 -6.71293 1.25916 0
M  V30 29084 O 2775.63 -7.76795 2.06992 0
M  V30 29085 H 2775.36 -0.656852 -0.159756 0
M  V30 29086 H 2777.91 -2.04703 0.169094 0
M  V30 29087 H 2776.14 -3.26067 -2.07888 0
M  V30 29088 H 2777.83 -3.61227 -1.85122 0
M  V30 29089 H 2778.6 -4.84025 0.30737 0
M  V30 29090 H 2774.48 -4.52566 -0.877802 0
M  V30 29091 H 2778.02 -6.74968 1.76248 0
M  V30 29092 H 2773.92 -6.42978 0.569993 0
M  V30 29093 H 2774.69 -7.93775 1.99658 0
M  V30 29094 N 2777.35 0.180099 -1.56568 0
M  V30 29095 C 2778.6 0.899465 -1.81762 0
M  V30 29096 C 2778.93 1.82275 -0.670048 0
M  V30 29097 O 2778.2 1.91705 0.328541 0
M  V30 29098 C 2778.49 1.70274 -3.17299 0
M  V30 29099 C 2778.34 0.803177 -4.42571 0
M  V30 29100 C 2779.66 2.67227 -3.49683 0
M  V30 29101 H 2776.78 0.325555 -0.661198 0
M  V30 29102 H 2779.42 0.166087 -1.89273 0
M  V30 29103 H 2777.57 2.32797 -3.11027 0
M  V30 29104 H 2779.24 0.191504 -4.60902 0
M  V30 29105 H 2777.48 0.11072 -4.33659 0
M  V30 29106 H 2778.16 1.40054 -5.33937 0
M  V30 29107 H 2780.63 2.14833 -3.56351 0
M  V30 29108 H 2779.51 3.20503 -4.45611 0
M  V30 29109 H 2779.77 3.47002 -2.73938 0
M  V30 29110 N 2778.83 1.51088 0.448349 0
M  V30 29111 C 2779.77 1.71606 1.54338 0
M  V30 29112 C 2780.74 0.557564 1.56462 0
M  V30 29113 O 2781.93 0.79075 1.73643 0
M  V30 29114 C 2779.07 1.837 2.92144 0
M  V30 29115 C 2778.18 3.11197 2.99634 0
M  V30 29116 C 2777.32 3.13952 4.28495 0
M  V30 29117 C 2776.36 4.35808 4.29811 0
M  V30 29118 N 2775.49 4.36174 5.50179 0
M  V30 29119 H 2780.33 2.65081 1.36146 0
M  V30 29120 H 2777.87 1.31384 0.661562 0
M  V30 29121 H 2779.83 1.88694 3.72089 0
M  V30 29122 H 2778.46 0.936428 3.08919 0
M  V30 29123 H 2777.51 3.15566 2.1242 0
M  V30 29124 H 2778.82 4.01134 2.96467 0
M  V30 29125 H 2777.98 3.178 5.16805 0
M  V30 29126 H 2776.72 2.21884 4.34303 0
M  V30 29127 H 2775.72 4.32148 3.39895 0
M  V30 29128 H 2776.95 5.29128 4.25676 0
M  V30 29129 H 2774.89 3.46971 5.56729 0
M  V30 29130 H 2774.81 5.19907 5.48847 0
M  V30 29131 H 2776.08 4.442 6.40552 0
M  V30 29132 N 2780.31 -0.703068 1.41049 0
M  V30 29133 C 2781.58 -1.45706 1.30496 0
M  V30 29134 C 2781.96 -2.10981 -0.0709521 0
M  V30 29135 O 2781.31 -2.01114 -1.08468 0
M  V30 29136 C 2781.52 -2.4826 2.45291 0
M  V30 29137 C 2782.87 -3.1373 2.86109 0
M  V30 29138 O 2783.89 -2.58583 2.44976 0
M  V30 29139 O 2782.75 -4.13595 3.57214 0
M  V30 29140 H 2779.85 -0.648537 0.513155 0
M  V30 29141 H 2782.39 -0.734181 1.52996 0
M  V30 29142 H 2781.16 -1.98629 3.37138 0
M  V30 29143 H 2780.79 -3.28067 2.24628 0
M  V30 29144 N 2781.78 -1.26752 -0.936569 0
M  V30 29145 C 2782.69 -1.105 -2.06947 0
M  V30 29146 C 2783.71 -0.0373016 -1.7396 0
M  V30 29147 O 2784.89 -0.241979 -1.99941 0
M  V30 29148 C 2781.95 -0.74455 -3.38611 0
M  V30 29149 C 2781.01 -1.89216 -3.85352 0
M  V30 29150 C 2780.25 -1.54882 -5.10732 0
M  V30 29151 O 2780.47 -0.452645 -5.68601 0
M  V30 29152 O 2779.4 -2.38509 -5.52628 0
M  V30 29153 H 2783.23 -2.05551 -2.23567 0
M  V30 29154 H 2780.81 -1.05857 -1.05426 0
M  V30 29155 H 2782.7 -0.556469 -4.1771 0
M  V30 29156 H 2781.37 0.176525 -3.23218 0
M  V30 29157 H 2780.28 -2.13524 -3.07178 0
M  V30 29158 H 2781.61 -2.79313 -4.05272 0
M  V30 29159 N 2783.26 1.1418 -1.08631 0
M  V30 29160 C 2784.19 2.21462 -0.740042 0
M  V30 29161 C 2785.17 1.67804 0.278562 0
M  V30 29162 O 2786.36 1.93632 0.148427 0
M  V30 29163 C 2783.49 3.46972 -0.151013 0
M  V30 29164 C 2782.44 4.1367 -1.09822 0
M  V30 29165 C 2781.77 5.33409 -0.371294 0
M  V30 29166 C 2783.07 4.61945 -2.4373 0
M  V30 29167 H 2784.76 2.50683 -1.63701 0
M  V30 29168 H 2782.31 1.2049 -0.788547 0
M  V30 29169 H 2784.26 4.21273 0.103251 0
M  V30 29170 H 2782.99 3.17122 0.781108 0
M  V30 29171 H 2781.64 3.41326 -1.33762 0
M  V30 29172 H 2781.29 4.9982 0.564704 0
M  V30 29173 H 2780.99 5.7898 -1.00278 0
M  V30 29174 H 2782.52 6.10472 -0.125138 0
M  V30 29175 H 2783.93 5.2771 -2.24043 0
M  V30 29176 H 2782.33 5.18226 -3.02591 0
M  V30 29177 H 2783.4 3.76894 -3.05089 0
M  V30 29178 N 2784.74 0.872304 1.31258 0
M  V30 29179 C 2786.16 0.564547 1.49282 0
M  V30 29180 C 2786.36 -0.900776 1.80245 0
M  V30 29181 O 2785.41 -1.68281 1.88249 0
M  V30 29182 C 2786.73 1.46677 2.625 0
M  V30 29183 C 2788.27 1.46906 2.76383 0
M  V30 29184 C 2788.75 2.35691 3.92701 0
M  V30 29185 N 2790.24 2.33584 3.99991 0
M  V30 29186 C 2790.97 2.99001 4.89271 0
M  V30 29187 N 2790.47 3.73596 5.83436 0
M  V30 29188 N 2792.26 2.88297 4.82536 0
M  V30 29189 H 2784.41 1.82041 1.09429 0
M  V30 29190 H 2786.68 0.77852 0.540935 0
M  V30 29191 H 2786.38 2.50955 2.46403 0
M  V30 29192 H 2786.26 1.16702 3.58693 0
M  V30 29193 H 2788.64 0.433848 2.91893 0
M  V30 29194 H 2788.73 1.80906 1.8085 0
M  V30 29195 H 2788.37 3.3929 3.77948 0
M  V30 29196 H 2788.3 1.99014 4.87546 0
M  V30 29197 H 2790.79 1.79365 3.32621 0
M  V30 29198 H 2791.1 4.20633 6.48296 0
M  V30 29199 H 2789.45 3.77704 5.83408 0
M  V30 29200 H 2792.64 2.29558 4.07947 0
M  V30 29201 H 2792.81 3.39558 5.5191 0
M  V30 29202 N 2786.22 -1.44374 0.631976 0
M  V30 29203 C 2787.44 -2.06912 0.142182 0
M  V30 29204 C 2787.87 -1.46922 -1.17454 0
M  V30 29205 O 2787.23 -0.571005 -1.72073 0
M  V30 29206 C 2787.27 -3.60576 0.0418586 0
M  V30 29207 O 2786.38 -4.00045 -1.00187 0
M  V30 29208 H 2785.72 -0.658516 0.0851607 0
M  V30 29209 H 2788.25 -1.85233 0.868895 0
M  V30 29210 H 2788.26 -4.0773 -0.148445 0
M  V30 29211 H 2786.93 -4.0362 1.00318 0
M  V30 29212 H 2785.51 -3.64521 -0.786067 0
M  V30 29213 N 2787.7 -0.372575 -1.53133 0
M  V30 29214 C 2788.66 0.458349 -2.2457 0
M  V30 29215 C 2789.66 1.004 -1.25604 0
M  V30 29216 O 2790.85 0.888646 -1.49829 0
M  V30 29217 C 2787.98 1.64134 -2.98785 0
M  V30 29218 H 2789.17 -0.166852 -2.99435 0
M  V30 29219 H 2786.73 -0.124384 -1.55804 0
M  V30 29220 H 2787.46 2.30444 -2.2818 0
M  V30 29221 H 2787.25 1.25697 -3.71406 0
M  V30 29222 H 2788.74 2.23002 -3.53072 0
M  V30 29223 N 2789.17 1.5727 -0.101929 0
M  V30 29224 C 2790.08 2.17927 0.868608 0
M  V30 29225 C 2791.1 1.15062 1.30525 0
M  V30 29226 O 2792.28 1.47461 1.37176 0
M  V30 29227 C 2789.34 2.75313 2.10722 0
M  V30 29228 C 2788.4 3.93157 1.72413 0
M  V30 29229 C 2787.64 4.47796 2.9037 0
M  V30 29230 O 2787.86 4.0136 4.05298 0
M  V30 29231 O 2786.79 5.38724 2.68441 0
M  V30 29232 H 2790.62 3.01282 0.382491 0
M  V30 29233 H 2788.2 1.48895 0.122786 0
M  V30 29234 H 2790.09 3.11963 2.83297 0
M  V30 29235 H 2788.76 1.95 2.58373 0
M  V30 29236 H 2787.67 3.61306 0.969975 0
M  V30 29237 H 2789 4.74853 1.29519 0
M  V30 29238 N 2790.65 -0.171793 1.56661 0
M  V30 29239 C 2791.6 -1.2127 1.96373 0
M  V30 29240 C 2792.57 -1.44015 0.827585 0
M  V30 29241 O 2793.75 -1.56762 1.08767 0
M  V30 29242 C 2790.89 -2.54712 2.32843 0
M  V30 29243 C 2790.01 -2.3935 3.59633 0
M  V30 29244 C 2789.14 -3.65656 3.85317 0
M  V30 29245 C 2788.18 -3.45225 5.05456 0
M  V30 29246 N 2787.32 -4.63599 5.27276 0
M  V30 29247 H 2792.16 -0.86704 2.85108 0
M  V30 29248 H 2789.7 -0.416719 1.41074 0
M  V30 29249 H 2791.65 -3.32486 2.5201 0
M  V30 29250 H 2790.28 -2.87274 1.47219 0
M  V30 29251 H 2789.34 -1.52755 3.48382 0
M  V30 29252 H 2790.65 -2.20199 4.47564 0
M  V30 29253 H 2789.8 -4.51865 4.04849 0
M  V30 29254 H 2788.54 -3.87785 2.9576 0
M  V30 29255 H 2787.55 -2.57402 4.85823 0
M  V30 29256 H 2788.77 -3.24518 5.96544 0
M  V30 29257 H 2786.72 -4.85948 4.4067 0
M  V30 29258 H 2786.63 -4.4736 6.0943 0
M  V30 29259 H 2787.9 -5.51093 5.51286 0
M  V30 29260 N 2792.13 -1.51324 -0.44033 0
M  V30 29261 C 2793.38 -1.64087 -1.19178 0
M  V30 29262 C 2793.71 -0.354609 -1.90935 0
M  V30 29263 O 2792.98 0.645643 -1.83471 0
M  V30 29264 C 2793.27 -2.84218 -2.21115 0
M  V30 29265 C 2793.12 -4.22812 -1.5346 0
M  V30 29266 C 2794.44 -2.9987 -3.22127 0
M  V30 29267 H 2791.56 -0.597176 -0.431914 0
M  V30 29268 H 2794.2 -1.838 -0.48141 0
M  V30 29269 H 2792.35 -2.67542 -2.81698 0
M  V30 29270 H 2794.02 -4.5115 -0.962376 0
M  V30 29271 H 2792.27 -4.25648 -0.837011 0
M  V30 29272 H 2792.94 -5.02856 -2.27685 0
M  V30 29273 H 2795.41 -3.15238 -2.71596 0
M  V30 29274 H 2794.29 -3.85495 -3.90749 0
M  V30 29275 H 2794.55 -2.1181 -3.88058 0
M  V30 29276 N 2793.61 0.695578 -1.41419 0
M  V30 29277 C 2794.57 1.79126 -1.42991 0
M  V30 29278 C 2795.57 1.57573 -0.320542 0
M  V30 29279 O 2796.76 1.64246 -0.580419 0
M  V30 29280 C 2793.89 3.17498 -1.24128 0
M  V30 29281 H 2795.09 1.79125 -2.40529 0
M  V30 29282 H 2792.64 0.903203 -1.27562 0
M  V30 29283 H 2793.37 3.23138 -0.274309 0
M  V30 29284 H 2793.16 3.34544 -2.04506 0
M  V30 29285 H 2794.65 3.97479 -1.28063 0
M  V30 29286 N 2795.09 1.27247 0.929833 0
M  V30 29287 C 2796.03 1.09788 2.03015 0
M  V30 29288 C 2797 -0.000427548 1.661 0
M  V30 29289 O 2798.19 0.161495 1.90115 0
M  V30 29290 C 2795.33 0.748875 3.36877 0
M  V30 29291 C 2794.44 1.9246 3.8676 0
M  V30 29292 C 2793.58 1.51767 5.09058 0
M  V30 29293 C 2792.62 2.66101 5.51232 0
M  V30 29294 N 2791.75 2.26011 6.64728 0
M  V30 29295 H 2796.59 2.03943 2.17282 0
M  V30 29296 H 2794.13 1.01526 1.06447 0
M  V30 29297 H 2796.09 0.527356 4.13854 0
M  V30 29298 H 2794.72 -0.155714 3.22424 0
M  V30 29299 H 2793.77 2.25872 3.06082 0
M  V30 29300 H 2795.08 2.78235 4.13989 0
M  V30 29301 H 2794.24 1.25726 5.9353 0
M  V30 29302 H 2792.98 0.630981 4.83601 0
M  V30 29303 H 2791.98 2.92857 4.65311 0
M  V30 29304 H 2793.21 3.55387 5.78686 0
M  V30 29305 H 2791.15 1.39791 6.40933 0
M  V30 29306 H 2791.07 3.05325 6.91601 0
M  V30 29307 H 2792.34 2.03212 7.52546 0
M  V30 29308 N 2796.57 -1.13603 1.09235 0
M  V30 29309 C 2797.81 -1.84469 0.825558 0
M  V30 29310 C 2798.13 -1.83824 -0.650669 0
M  V30 29311 O 2797.4 -1.29261 -1.47202 0
M  V30 29312 H 2795.98 -0.683049 0.302412 0
M  V30 29313 H 2798.65 -1.37622 1.38008 0
M  V30 29314 H 2797.74 -2.89042 1.17732 0
M  V30 29315 N 2798.04 -0.879253 -1.30793 0
M  V30 29316 C 2798.99 -0.340008 -2.28282 0
M  V30 29317 C 2799.96 0.566658 -1.56135 0
M  V30 29318 O 2801.15 0.496306 -1.84232 0
M  V30 29319 C 2798.29 0.444441 -3.42226 0
M  V30 29320 C 2797.4 -0.490793 -4.29203 0
M  V30 29321 C 2796.53 0.308691 -5.30302 0
M  V30 29322 C 2795.57 -0.622379 -6.08928 0
M  V30 29323 N 2794.71 0.141427 -7.01958 0
M  V30 29324 H 2799.55 -1.17652 -2.73792 0
M  V30 29325 H 2797.09 -0.591551 -1.34681 0
M  V30 29326 H 2799.04 0.915114 -4.0704 0
M  V30 29327 H 2797.67 1.24557 -2.97801 0
M  V30 29328 H 2796.73 -1.07994 -3.64748 0
M  V30 29329 H 2798.04 -1.20433 -4.84043 0
M  V30 29330 H 2797.19 0.84147 -6.00836 0
M  V30 29331 H 2795.93 1.05547 -4.76142 0
M  V30 29332 H 2794.94 -1.16683 -5.37276 0
M  V30 29333 H 2796.16 -1.36816 -6.65175 0
M  V30 29334 H 2794.11 0.870851 -6.50194 0
M  V30 29335 H 2794.02 -0.512592 -7.5426 0
M  V30 29336 H 2795.29 0.655135 -7.76742 0
M  V30 29337 N 2799.52 1.44037 -0.639624 0
M  V30 29338 C 2800.75 2.06834 -0.153153 0
M  V30 29339 C 2801.17 1.47543 1.16673 0
M  V30 29340 O 2800.53 0.580123 1.71768 0
M  V30 29341 C 2800.58 3.60548 -0.0609802 0
M  V30 29342 O 2799.68 4.00571 0.98064 0
M  V30 29343 H 2799.02 0.658055 -0.0886518 0
M  V30 29344 H 2801.55 1.8477 -0.878706 0
M  V30 29345 H 2801.56 4.07803 0.12682 0
M  V30 29346 H 2800.24 4.03082 -1.02457 0
M  V30 29347 H 2798.81 3.64933 0.766725 0
M  V30 29348 N 2801 0.380691 1.52933 0
M  V30 29349 C 2802.42 0.030271 1.59571 0
M  V30 29350 C 2802.62 -1.45391 1.39512 0
M  V30 29351 O 2801.67 -2.21739 1.20781 0
M  V30 29352 C 2802.98 0.499743 2.96518 0
M  V30 29353 C 2804.53 0.455259 3.09671 0
M  V30 29354 C 2805.01 0.900782 4.49054 0
M  V30 29355 N 2806.5 0.856447 4.55213 0
M  V30 29356 C 2807.23 1.17269 5.6128 0
M  V30 29357 N 2806.73 1.55897 6.75032 0
M  V30 29358 N 2808.52 1.0945 5.51341 0
M  V30 29359 H 2800.67 1.34703 1.64222 0
M  V30 29360 H 2802.94 0.551568 0.771023 0
M  V30 29361 H 2802.64 1.536 3.16386 0
M  V30 29362 H 2802.52 -0.105723 3.77052 0
M  V30 29363 H 2804.9 -0.571898 2.89505 0
M  V30 29364 H 2804.98 1.09642 2.31111 0
M  V30 29365 H 2804.63 1.92613 4.6996 0
M  V30 29366 H 2804.56 0.236721 5.26068 0
M  V30 29367 H 2807.05 0.572079 3.73545 0
M  V30 29368 H 2807.36 1.78413 7.51923 0
M  V30 29369 H 2805.71 1.59776 6.76385 0
M  V30 29370 H 2808.9 0.791794 4.61355 0
M  V30 29371 H 2809.07 1.34428 6.33903 0
M  V30 29372 N 2802.48 -1.57214 0.110268 0
M  V30 29373 C 2803.41 -2.17869 -0.839964 0
M  V30 29374 C 2804.39 -1.11626 -1.2835 0
M  V30 29375 O 2805.57 -1.39826 -1.34767 0
M  V30 29376 C 2802.7 -2.77114 -2.09344 0
M  V30 29377 C 2801.66 -3.88863 -1.788 0
M  V30 29378 C 2800.98 -4.34877 -3.11104 0
M  V30 29379 C 2802.28 -5.11366 -1.06311 0
M  V30 29380 H 2803.98 -2.97525 -0.334555 0
M  V30 29381 H 2801.52 -1.43114 -0.159477 0
M  V30 29382 H 2803.48 -3.18203 -2.76269 0
M  V30 29383 H 2802.2 -1.94735 -2.62194 0
M  V30 29384 H 2800.86 -3.48337 -1.14267 0
M  V30 29385 H 2800.51 -3.49368 -3.61871 0
M  V30 29386 H 2800.21 -5.10229 -2.91444 0
M  V30 29387 H 2801.73 -4.78611 -3.79162 0
M  V30 29388 H 2803.15 -5.49529 -1.63374 0
M  V30 29389 H 2801.54 -5.92245 -0.967772 0
M  V30 29390 H 2802.61 -4.84876 -0.0483717 0
M  V30 29391 N 2803.96 0.163482 -1.5675 0
M  V30 29392 C 2805.2 0.877179 -1.81627 0
M  V30 29393 C 2805.52 1.8307 -0.688823 0
M  V30 29394 O 2806.72 2.58734 -0.822743 0
M  V30 29395 C 2805.18 1.6104 -3.21861 0
M  V30 29396 C 2804.79 0.700118 -4.42496 0
M  V30 29397 C 2806.53 2.31185 -3.56025 0
M  V30 29398 C 2804.44 1.43402 -5.73751 0
M  V30 29399 H 2803.37 0.3313 -0.677316 0
M  V30 29400 H 2806.02 0.130028 -1.83039 0
M  V30 29401 H 2804.4 2.40258 -3.14789 0
M  V30 29402 H 2805.58 -0.0556659 -4.60766 0
M  V30 29403 H 2803.89 0.107916 -4.1626 0
M  V30 29404 H 2806.49 2.86702 -4.51338 0
M  V30 29405 H 2806.83 3.06897 -2.81283 0
M  V30 29406 H 2807.36 1.58902 -3.64685 0
M  V30 29407 H 2804.1 0.719072 -6.51544 0
M  V30 29408 H 2803.62 2.16293 -5.59444 0
M  V30 29409 H 2805.3 1.97939 -6.15978 0
M  V30 29410 N 2805.43 1.51555 0.432299 0
M  V30 29411 C 2806.34 1.76085 1.5502 0
M  V30 29412 C 2807.36 0.645294 1.61592 0
M  V30 29413 O 2808.54 0.928117 1.7874 0
M  V30 29414 C 2805.6 1.88528 2.90961 0
M  V30 29415 C 2804.66 3.12393 2.94464 0
M  V30 29416 C 2803.89 3.24233 4.23921 0
M  V30 29417 O 2804.12 2.41889 5.16571 0
M  V30 29418 O 2803.05 4.17243 4.33811 0
M  V30 29419 H 2806.88 2.70925 1.37234 0
M  V30 29420 H 2804.46 1.36118 0.615821 0
M  V30 29421 H 2806.34 1.98669 3.7163 0
M  V30 29422 H 2805.02 0.968755 3.08864 0
M  V30 29423 H 2803.93 3.07727 2.12732 0
M  V30 29424 H 2805.26 4.03751 2.81507 0
M  V30 29425 N 2806.91 -0.688069 1.41786 0
M  V30 29426 C 2807.87 -1.78365 1.43939 0
M  V30 29427 C 2808.87 -1.57401 0.328894 0
M  V30 29428 O 2810.06 -1.63936 0.589121 0
M  V30 29429 C 2807.2 -3.16835 1.2581 0
M  V30 29430 H 2808.39 -1.77847 2.41475 0
M  V30 29431 H 2805.94 -0.896425 1.28039 0
M  V30 29432 H 2806.68 -3.22988 0.291442 0
M  V30 29433 H 2806.46 -3.33455 2.06278 0
M  V30 29434 H 2807.95 -3.96794 1.30169 0
M  V30 29435 N 2808.39 -1.27739 -0.923072 0
M  V30 29436 C 2809.61 -1.17286 -1.71052 0
M  V30 29437 C 2810.04 0.26612 -1.86208 0
M  V30 29438 O 2809.4 1.19267 -1.36547 0
M  V30 29439 C 2809.45 -1.86647 -3.08537 0
M  V30 29440 O 2808.55 -1.16759 -3.95526 0
M  V30 29441 H 2807.89 -0.407658 -0.524129 0
M  V30 29442 H 2810.42 -1.68892 -1.15484 0
M  V30 29443 H 2810.43 -1.94188 -3.58824 0
M  V30 29444 H 2809.11 -2.91323 -2.96823 0
M  V30 29445 H 2807.68 -1.17318 -3.53965 0
M  V30 29446 N 2809.87 1.13022 -1.09836 0
M  V30 29447 C 2811.09 1.88769 -0.859123 0
M  V30 29448 C 2811.52 1.78792 0.58437 0
M  V30 29449 O 2810.88 1.13845 1.41099 0
M  V30 29450 C 2810.92 3.36184 -1.30433 0
M  V30 29451 O 2810.03 4.09765 -0.46544 0
M  V30 29452 H 2809.37 0.586772 -0.310797 0
M  V30 29453 H 2811.9 1.42971 -1.46357 0
M  V30 29454 H 2811.91 3.87017 -1.29157 0
M  V30 29455 H 2810.58 3.42763 -2.35556 0
M  V30 29456 H 2809.16 3.68927 -0.542879 0
M  V30 29457 N 2811.35 0.886177 1.30325 0
M  V30 29458 C 2812.28 0.370068 2.30549 0
M  V30 29459 C 2813.26 -0.547722 1.6104 0
M  V30 29460 O 2814.44 -0.461319 1.88641 0
M  V30 29461 C 2811.57 -0.415214 3.44809 0
M  V30 29462 C 2810.53 0.410925 4.26023 0
M  V30 29463 C 2809.85 -0.501034 5.32347 0
M  V30 29464 C 2811.15 1.65368 4.9543 0
M  V30 29465 H 2812.85 1.20758 2.73967 0
M  V30 29466 H 2810.39 0.58212 1.31709 0
M  V30 29467 H 2812.35 -0.786917 4.13987 0
M  V30 29468 H 2811.07 -1.28639 3.00199 0
M  V30 29469 H 2809.73 0.764782 3.58534 0
M  V30 29470 H 2809.38 -1.36995 4.83985 0
M  V30 29471 H 2809.08 0.0479389 5.8758 0
M  V30 29472 H 2810.6 -0.869227 6.04381 0
M  V30 29473 H 2812.01 1.35249 5.57118 0
M  V30 29474 H 2810.41 2.14294 5.60534 0
M  V30 29475 H 2811.48 2.3974 4.21488 0
M  V30 29476 N 2812.82 -1.43695 0.647253 0
M  V30 29477 C 2813.77 -2.32523 -0.0599696 0
M  V30 29478 C 2814.77 -1.48272 -0.819251 0
M  V30 29479 O 2815.97 -1.64518 -0.730327 0
M  V30 29480 H 2812.35 -0.75103 -0.038174 0
M  V30 29481 H 2814.32 -2.89903 0.707029 0
M  V30 29482 C 2813.07 -3.32499 -1.01684 0
M  V30 29483 H 2812.39 -3.97349 -0.442014 0
M  V30 29484 H 2813.83 -3.97298 -1.48088 0
M  V30 29485 C 2812.29 -2.62644 -2.10997 0
M  V30 29486 O 2812.82 -2.43746 -3.19297 0
M  V30 29487 N 2811.03 -2.22116 -1.87384 0
M  V30 29488 H 2810.57 -2.37686 -0.993132 0
M  V30 29489 H 2810.53 -1.75706 -2.6072 0
M  V30 29490 N 2814.3 -0.388796 -1.52729 0
M  V30 29491 C 2815.58 0.251099 -1.93982 0
M  V30 29492 C 2815.96 1.64402 -1.32421 0
M  V30 29493 O 2815.31 2.23138 -0.492113 0
M  V30 29494 C 2815.52 0.277959 -3.47891 0
M  V30 29495 C 2816.87 0.507155 -4.2156 0
M  V30 29496 O 2817.89 0.35819 -3.54394 0
M  V30 29497 O 2816.75 0.798999 -5.40628 0
M  V30 29498 H 2813.84 0.155966 -0.81216 0
M  V30 29499 H 2816.39 -0.443266 -1.63809 0
M  V30 29500 H 2815.16 -0.697737 -3.85029 0
M  V30 29501 H 2814.78 1.01727 -3.84366 0
M  V30 29502 N 2815.78 1.57153 -0.118604 0
M  V30 29503 C 2817.01 1.99959 0.550547 0
M  V30 29504 C 2817.43 0.997765 1.59456 0
M  V30 29505 O 2816.79 -0.0305951 1.81274 0
M  V30 29506 C 2816.84 3.41645 1.15373 0
M  V30 29507 O 2815.94 3.44352 2.26926 0
M  V30 29508 H 2815.28 0.649596 0.137555 0
M  V30 29509 H 2817.81 2.03551 -0.206961 0
M  V30 29510 H 2817.82 3.79845 1.48935 0
M  V30 29511 H 2816.5 4.14077 0.389014 0
M  V30 29512 H 2815.07 3.1797 1.94806 0
M  V30 29513 N 2817.26 -0.155167 1.56834 0
M  V30 29514 C 2818.5 -0.870435 1.8317 0
M  V30 29515 C 2818.84 -1.81185 0.698961 0
M  V30 29516 O 2818.11 -1.92204 -0.298001 0
M  V30 29517 C 2818.4 -1.65205 3.19968 0
M  V30 29518 C 2818.25 -0.732666 4.43793 0
M  V30 29519 C 2819.57 -2.6163 3.5389 0
M  V30 29520 H 2816.69 -0.314995 0.666294 0
M  V30 29521 H 2819.33 -0.135954 1.89513 0
M  V30 29522 H 2817.48 -2.27819 3.14691 0
M  V30 29523 H 2819.15 -0.118154 4.61149 0
M  V30 29524 H 2817.39 -0.0417143 4.3378 0
M  V30 29525 H 2818.06 -1.31542 5.36098 0
M  V30 29526 H 2820.54 -2.09136 3.59724 0
M  V30 29527 H 2819.42 -3.13374 4.50653 0
M  V30 29528 H 2819.68 -3.426 2.79424 0
M  V30 29529 N 2818.74 -1.51782 -0.424256 0
M  V30 29530 C 2819.7 -1.73434 -1.49845 0
M  V30 29531 C 2820.7 -0.604251 -1.49015 0
M  V30 29532 O 2821.89 -0.871962 -1.50806 0
M  V30 29533 C 2819.02 -1.80282 -2.89329 0
M  V30 29534 H 2820.21 -2.69315 -1.31946 0
M  V30 29535 H 2817.77 -1.4197 -0.653784 0
M  V30 29536 H 2818.5 -0.862623 -3.12617 0
M  V30 29537 H 2818.29 -2.62424 -2.91335 0
M  V30 29538 H 2819.78 -1.98827 -3.67229 0
M  V30 29539 N 2820.21 0.68054 -1.42149 0
M  V30 29540 C 2821.15 1.80515 -1.39605 0
M  V30 29541 C 2822.13 1.6049 -0.261126 0
M  V30 29542 O 2823.31 1.83039 -0.450436 0
M  V30 29543 C 2820.44 3.17428 -1.18139 0
M  V30 29544 C 2819.48 3.56214 -2.3455 0
M  V30 29545 S 2820.32 3.59299 -3.9707 0
M  V30 29546 C 2821.47 4.98915 -3.77935 0
M  V30 29547 H 2821.7 1.82398 -2.34773 0
M  V30 29548 H 2819.24 0.850669 -1.28853 0
M  V30 29549 H 2821.2 3.9646 -1.06441 0
M  V30 29550 H 2819.86 3.13138 -0.245667 0
M  V30 29551 H 2819.05 4.55717 -2.15263 0
M  V30 29552 H 2818.65 2.84529 -2.42733 0
M  V30 29553 H 2820.94 5.86836 -3.3857 0
M  V30 29554 H 2821.89 5.23247 -4.77093 0
M  V30 29555 H 2822.29 4.71162 -3.10913 0
M  V30 29556 N 2821.69 1.28226 0.916285 0
M  V30 29557 C 2823.11 1.05878 1.19424 0
M  V30 29558 C 2823.31 -0.200464 2.005 0
M  V30 29559 O 2822.36 -0.902832 2.35808 0
M  V30 29560 C 2823.68 2.30482 1.93129 0
M  V30 29561 C 2825.23 2.35635 2.06022 0
M  V30 29562 C 2825.7 3.59999 2.83134 0
M  V30 29563 N 2827.19 3.60624 2.90697 0
M  V30 29564 C 2827.93 4.53527 3.50857 0
M  V30 29565 N 2827.42 5.56746 4.12317 0
M  V30 29566 N 2829.22 4.41128 3.48372 0
M  V30 29567 H 2821.37 2.09065 0.374923 0
M  V30 29568 H 2823.63 0.920046 0.228515 0
M  V30 29569 H 2823.34 3.22207 1.4098 0
M  V30 29570 H 2823.21 2.36696 2.93692 0
M  V30 29571 H 2825.6 1.44408 2.57352 0
M  V30 29572 H 2825.68 2.33417 1.04643 0
M  V30 29573 H 2825.32 4.51568 2.32484 0
M  V30 29574 H 2825.25 3.5947 3.84823 0
M  V30 29575 H 2827.74 2.85981 2.47029 0
M  V30 29576 H 2828.06 6.23784 4.56194 0
M  V30 29577 H 2826.4 5.60575 4.10829 0
M  V30 29578 H 2829.59 3.59692 2.99566 0
M  V30 29579 H 2829.76 5.13718 3.94965 0
M  V30 29580 N 2823.17 -1.12438 1.10433 0
M  V30 29581 C 2824.1 -2.17894 0.710983 0
M  V30 29582 C 2825.12 -1.60833 -0.252287 0
M  V30 29583 O 2826.3 -1.78462 -0.0367587 0
M  V30 29584 C 2823.4 -3.38888 0.0284858 0
M  V30 29585 C 2822.58 -4.25438 1.01593 0
M  V30 29586 C 2821.64 -5.24933 0.364918 0
M  V30 29587 O 2820.66 -5.60064 1.01571 0
M  V30 29588 N 2821.86 -5.73843 -0.87664 0
M  V30 29589 H 2824.63 -2.52252 1.6183 0
M  V30 29590 H 2822.19 -1.27859 0.993155 0
M  V30 29591 H 2824.18 -4.0253 -0.418498 0
M  V30 29592 H 2822.75 -3.0268 -0.781241 0
M  V30 29593 H 2821.97 -3.58412 1.64117 0
M  V30 29594 H 2823.26 -4.80112 1.68433 0
M  V30 29595 H 2822.66 -5.47465 -1.42473 0
M  V30 29596 H 2821.22 -6.39372 -1.26677 0
M  V30 29597 N 2824.65 -0.893076 -1.29853 0
M  V30 29598 C 2825.88 -0.530823 -1.99975 0
M  V30 29599 C 2826.29 0.88277 -1.66891 0
M  V30 29600 O 2825.65 1.58172 -0.91038 0
M  V30 29601 C 2825.7 -0.705649 -3.54546 0
M  V30 29602 O 2825.42 -2.0636 -3.86455 0
M  V30 29603 C 2826.92 -0.347464 -4.41936 0
M  V30 29604 H 2824.14 -0.20435 -0.639126 0
M  V30 29605 H 2826.69 -1.2006 -1.65547 0
M  V30 29606 H 2824.84 -0.0831366 -3.87311 0
M  V30 29607 H 2825.26 -2.08812 -4.81142 0
M  V30 29608 H 2826.73 -0.520654 -5.49539 0
M  V30 29609 H 2827.21 0.715063 -4.3334 0
M  V30 29610 H 2827.81 -0.94664 -4.14631 0
M  V30 29611 N 2826.13 1.4335 -0.654865 0
M  V30 29612 C 2827.37 2.01794 -0.168928 0
M  V30 29613 C 2827.7 1.51667 1.21767 0
M  V30 29614 O 2826.96 0.700952 1.82716 0
M  V30 29615 C 2827.26 3.57162 -0.130487 0
M  V30 29616 C 2826.92 4.26641 -1.45905 0
M  V30 29617 C 2825.58 4.45337 -1.82287 0
M  V30 29618 C 2827.94 4.65972 -2.33493 0
M  V30 29619 C 2825.26 5.0063 -3.05919 0
M  V30 29620 C 2827.62 5.22636 -3.56419 0
M  V30 29621 C 2826.28 5.39548 -3.92994 0
M  V30 29622 H 2825.55 0.738417 -0.061815 0
M  V30 29623 H 2828.2 1.71805 -0.845899 0
M  V30 29624 H 2826.5 3.86703 0.62994 0
M  V30 29625 H 2828.2 4.00141 0.262395 0
M  V30 29626 H 2824.79 4.12435 -1.16599 0
M  V30 29627 H 2828.97 4.51219 -2.06676 0
M  V30 29628 H 2824.23 5.11909 -3.34304 0
M  V30 29629 H 2828.4 5.52059 -4.24505 0
M  V30 29630 H 2826.03 5.82158 -4.88872 0
M  V30 29631 N 2827.61 0.39689 1.52521 0
M  V30 29632 C 2828.85 -0.182501 2.01274 0
M  V30 29633 C 2829.17 -1.46683 1.28488 0
M  V30 29634 O 2828.44 -1.91622 0.407167 0
M  V30 29635 H 2827.02 -0.0704311 0.743672 0
M  V30 29636 H 2829.69 0.530322 1.87546 0
M  V30 29637 H 2828.78 -0.387331 3.09687 0
M  V30 29638 N 2829.08 -1.57088 0.126936 0
M  V30 29639 C 2830.03 -2.16996 -0.83758 0
M  V30 29640 C 2831.03 -1.12136 -1.26972 0
M  V30 29641 O 2832.23 -1.30425 -1.24054 0
M  V30 29642 H 2828.61 -0.694564 -0.288243 0
M  V30 29643 H 2830.58 -2.96807 -0.307905 0
M  V30 29644 C 2829.33 -2.7902 -2.07469 0
M  V30 29645 H 2828.65 -3.59411 -1.75111 0
M  V30 29646 H 2830.09 -3.24465 -2.72944 0
M  V30 29647 C 2828.55 -1.76503 -2.86964 0
M  V30 29648 O 2829.08 -1.22323 -3.82623 0
M  V30 29649 N 2827.28 -1.46262 -2.51109 0
M  V30 29650 H 2826.83 -1.90513 -1.73386 0
M  V30 29651 H 2826.79 -0.779139 -3.04593 0
M  V30 29652 N 2830.56 0.146848 -1.56914 0
M  V30 29653 C 2831.49 1.18306 -2.0131 0
M  V30 29654 C 2832.47 1.44793 -0.89269 0
M  V30 29655 O 2833.66 1.55711 -1.16051 0
M  V30 29656 C 2830.79 2.5162 -2.39384 0
M  V30 29657 C 2829.74 2.39654 -3.54612 0
M  V30 29658 C 2829.07 3.77679 -3.785 0
M  V30 29659 C 2830.37 1.8805 -4.87273 0
M  V30 29660 H 2832.06 0.813913 -2.88125 0
M  V30 29661 H 2829.61 0.390075 -1.38616 0
M  V30 29662 H 2831.56 3.24336 -2.69043 0
M  V30 29663 H 2830.28 2.90371 -1.49507 0
M  V30 29664 H 2828.94 1.6939 -3.25119 0
M  V30 29665 H 2828.59 4.13866 -2.85874 0
M  V30 29666 H 2828.29 3.70535 -4.56046 0
M  V30 29667 H 2829.82 4.51944 -4.10584 0
M  V30 29668 H 2831.23 2.50559 -5.15648 0
M  V30 29669 H 2829.63 1.91795 -5.68625 0
M  V30 29670 H 2830.7 0.836193 -4.77636 0
M  V30 29671 N 2832.04 1.52005 0.4162 0
M  V30 29672 C 2833.27 1.69309 1.18398 0
M  V30 29673 C 2833.68 0.399104 1.84943 0
M  V30 29674 O 2833.02 -0.634147 1.72407 0
M  V30 29675 C 2833.08 2.76746 2.2946 0
M  V30 29676 C 2832.75 4.18712 1.8311 0
M  V30 29677 C 2833.74 5.02791 1.32277 0
M  V30 29678 C 2831.43 4.64914 1.90158 0
M  V30 29679 C 2833.42 6.31141 0.891067 0
M  V30 29680 C 2831.11 5.93255 1.46599 0
M  V30 29681 C 2832.11 6.76197 0.961577 0
M  V30 29682 O 2831.8 8.02136 0.532247 0
M  V30 29683 H 2831.53 0.570849 0.362088 0
M  V30 29684 H 2834.08 1.99303 0.496729 0
M  V30 29685 H 2832.31 2.42112 3.01527 0
M  V30 29686 H 2834 2.82719 2.91247 0
M  V30 29687 H 2834.77 4.68291 1.2621 0
M  V30 29688 H 2830.65 4.00463 2.28364 0
M  V30 29689 H 2834.19 6.9583 0.496665 0
M  V30 29690 H 2830.09 6.27265 1.52344 0
M  V30 29691 H 2830.85 8.15865 0.656195 0
M  V30 29692 N 2833.52 -0.672992 1.42508 0
M  V30 29693 C 2834.46 -1.78649 1.46127 0
M  V30 29694 C 2835.43 -1.63124 0.313036 0
M  V30 29695 O 2836.62 -1.83652 0.51737 0
M  V30 29696 C 2833.76 -3.16691 1.37116 0
M  V30 29697 C 2832.87 -3.4349 2.61989 0
M  V30 29698 C 2832.01 -4.71271 2.45107 0
M  V30 29699 C 2831.05 -4.9111 3.65345 0
M  V30 29700 N 2830.18 -6.10133 3.47394 0
M  V30 29701 H 2835.02 -1.7489 2.41283 0
M  V30 29702 H 2832.56 -0.853745 1.1979 0
M  V30 29703 H 2834.52 -3.96465 1.29888 0
M  V30 29704 H 2833.15 -3.19569 0.455546 0
M  V30 29705 H 2832.2 -2.57956 2.79576 0
M  V30 29706 H 2833.51 -3.54043 3.51361 0
M  V30 29707 H 2832.67 -5.59139 2.35475 0
M  V30 29708 H 2831.41 -4.63004 1.53227 0
M  V30 29709 H 2830.41 -4.01684 3.75407 0
M  V30 29710 H 2831.64 -5.01221 4.58208 0
M  V30 29711 H 2829.58 -6.03036 2.58233 0
M  V30 29712 H 2829.5 -6.21555 4.30355 0
M  V30 29713 H 2830.77 -7.00675 3.41578 0
M  V30 29714 N 2835 -1.2871 -0.909472 0
M  V30 29715 C 2836.22 -1.18976 -1.6927 0
M  V30 29716 C 2836.64 0.251015 -1.87124 0
M  V30 29717 O 2836 1.16919 -1.40129 0
M  V30 29718 C 2836.05 -1.88844 -3.08253 0
M  V30 29719 O 2835.77 -3.27294 -2.91222 0
M  V30 29720 C 2837.27 -1.85464 -4.02639 0
M  V30 29721 H 2834.49 -0.412806 -0.528992 0
M  V30 29722 H 2837.03 -1.69911 -1.138 0
M  V30 29723 H 2835.19 -1.41769 -3.60528 0
M  V30 29724 H 2835.6 -3.62346 -3.79217 0
M  V30 29725 H 2837.08 -2.38933 -4.97609 0
M  V30 29726 H 2837.55 -0.827969 -4.31325 0
M  V30 29727 H 2838.16 -2.32239 -3.56294 0
M  V30 29728 N 2836.47 1.1185 -1.11028 0
M  V30 29729 C 2837.72 1.83495 -0.856493 0
M  V30 29730 C 2838.05 1.84424 0.617905 0
M  V30 29731 O 2837.3 1.28969 1.47192 0
M  V30 29732 C 2837.6 3.30602 -1.35783 0
M  V30 29733 C 2837.27 3.49838 -2.84471 0
M  V30 29734 C 2835.93 3.54796 -3.25074 0
M  V30 29735 C 2838.28 3.56446 -3.80257 0
M  V30 29736 C 2835.61 3.63913 -4.602 0
M  V30 29737 C 2837.96 3.67093 -5.15195 0
M  V30 29738 C 2836.63 3.7031 -5.55362 0
M  V30 29739 H 2835.9 0.671456 -0.313413 0
M  V30 29740 H 2838.54 1.31941 -1.38795 0
M  V30 29741 H 2836.85 3.84622 -0.746522 0
M  V30 29742 H 2838.55 3.84518 -1.13786 0
M  V30 29743 H 2835.14 3.46646 -2.5206 0
M  V30 29744 H 2839.32 3.5188 -3.49992 0
M  V30 29745 H 2834.58 3.64678 -4.90734 0
M  V30 29746 H 2838.75 3.71149 -5.89255 0
M  V30 29747 H 2836.38 3.77126 -6.60061 0
M  V30 29748 N 2837.95 0.89995 1.29378 0
M  V30 29749 C 2838.9 0.349204 2.2531 0
M  V30 29750 C 2839.89 -0.530866 1.5189 0
M  V30 29751 O 2841.08 -0.372842 1.73029 0
M  V30 29752 C 2838.21 -0.421996 3.40696 0
M  V30 29753 C 2837.29 0.473009 4.21454 0
M  V30 29754 N 2837.68 1.58034 4.80478 0
M  V30 29755 C 2835.98 0.270845 4.45177 0
M  V30 29756 C 2836.68 2.13475 5.41113 0
M  V30 29757 N 2835.66 1.42775 5.24515 0
M  V30 29758 H 2839.46 1.19509 2.68505 0
M  V30 29759 H 2836.97 0.751031 1.43991 0
M  V30 29760 H 2838.97 -0.833298 4.08487 0
M  V30 29761 H 2837.63 -1.26514 2.99039 0
M  V30 29762 H 2838.64 1.96308 4.79253 0
M  V30 29763 H 2835.32 -0.533915 4.14072 0
M  V30 29764 H 2836.71 3.06548 5.97895 0
M  V30 29765 N 2839.43 -1.43001 0.662458 0
M  V30 29766 C 2840.36 -2.33498 -0.00975705 0
M  V30 29767 C 2841.34 -1.4999 -0.802303 0
M  V30 29768 O 2842.53 -1.78629 -0.761932 0
M  V30 29769 C 2839.66 -3.33468 -0.970388 0
M  V30 29770 C 2838.61 -4.27035 -0.287308 0
M  V30 29771 C 2837.94 -5.17114 -1.36003 0
M  V30 29772 C 2839.24 -5.15727 0.826041 0
M  V30 29773 H 2840.93 -2.89957 0.74601 0
M  V30 29774 H 2838.48 -1.39422 0.360197 0
M  V30 29775 H 2840.43 -3.95681 -1.44964 0
M  V30 29776 H 2839.15 -2.75285 -1.75743 0
M  V30 29777 H 2837.81 -3.66198 0.171584 0
M  V30 29778 H 2837.46 -4.55266 -2.13874 0
M  V30 29779 H 2837.16 -5.80539 -0.908174 0
M  V30 29780 H 2838.68 -5.82202 -1.84045 0
M  V30 29781 H 2840.1 -5.71696 0.428551 0
M  V30 29782 H 2838.5 -5.8792 1.20292 0
M  V30 29783 H 2839.57 -4.54863 1.68011 0
M  V30 29784 N 2840.91 -0.404973 -1.52308 0
M  V30 29785 C 2841.86 0.437281 -2.28453 0
M  V30 29786 C 2842.85 1.04946 -1.32977 0
M  V30 29787 O 2844.06 0.988132 -1.50452 0
M  V30 29788 H 2840.43 0.159792 -0.734827 0
M  V30 29789 H 2842.4 -0.226202 -2.97541 0
M  V30 29790 C 2841.15 1.54399 -3.11539 0
M  V30 29791 H 2840.47 1.08227 -3.84873 0
M  V30 29792 H 2841.91 2.10722 -3.6793 0
M  V30 29793 C 2840.37 2.50898 -2.24838 0
M  V30 29794 O 2840.9 3.54683 -1.8858 0
M  V30 29795 N 2839.11 2.21009 -1.88689 0
M  V30 29796 H 2838.66 1.36642 -2.18373 0
M  V30 29797 H 2838.61 2.85822 -1.30971 0
M  V30 29798 N 2842.39 1.57018 -0.135265 0
M  V30 29799 C 2843.8 1.82635 0.387489 0
M  V30 29800 C 2844.15 1.05335 1.65526 0
M  V30 29801 O 2843.27 0.294963 2.1438 0
M  V30 29802 C 2843.87 3.31281 0.709794 0
M  V30 29803 C 2842.43 3.57521 1.17712 0
M  V30 29804 C 2841.57 2.7662 0.194134 0
M  V30 29805 H 2844.53 1.54559 -0.360153 0
M  V30 29806 H 2844.55 3.46797 1.56564 0
M  V30 29807 H 2844.06 3.87515 -0.213092 0
M  V30 29808 H 2842.16 3.06662 2.11634 0
M  V30 29809 H 2842.27 4.66036 1.1112 0
M  V30 29810 H 2840.64 2.45332 0.684435 0
M  V30 29811 H 2841.42 3.35619 -0.722135 0
M  V30 29812 N 2843.86 -0.138524 1.5699 0
M  V30 29813 C 2845.11 -0.848021 1.83448 0
M  V30 29814 C 2845.43 -1.81321 0.717472 0
M  V30 29815 O 2844.7 -1.94164 -0.260194 0
M  V30 29816 H 2843.28 -0.316154 0.676798 0
M  V30 29817 H 2845.95 -0.130504 1.94463 0
M  V30 29818 H 2845.04 -1.40513 2.7868 0
M  V30 29819 N 2845.34 -1.52224 -0.408133 0
M  V30 29820 C 2846.59 -1.65559 -1.15209 0
M  V30 29821 C 2846.9 -0.39213 -1.91629 0
M  V30 29822 O 2848.11 -0.405303 -2.68458 0
M  V30 29823 C 2846.57 -2.92506 -2.09686 0
M  V30 29824 C 2846.17 -4.25963 -1.38778 0
M  V30 29825 C 2847.92 -3.15205 -2.84334 0
M  V30 29826 C 2845.83 -5.44033 -2.3191 0
M  V30 29827 H 2844.76 -0.616736 -0.433765 0
M  V30 29828 H 2847.41 -1.78711 -0.416468 0
M  V30 29829 H 2845.79 -2.73055 -2.86805 0
M  V30 29830 H 2846.96 -4.55901 -0.670168 0
M  V30 29831 H 2845.28 -4.09375 -0.761669 0
M  V30 29832 H 2847.87 -4.00594 -3.54159 0
M  V30 29833 H 2848.22 -2.29479 -3.4734 0
M  V30 29834 H 2848.75 -3.35133 -2.14315 0
M  V30 29835 H 2845.49 -6.32108 -1.73549 0
M  V30 29836 H 2845.01 -5.18433 -3.01641 0
M  V30 29837 H 2846.69 -5.77151 -2.92413 0
M  V30 29838 N 2846.82 0.665425 -1.42863 0
M  V30 29839 C 2848.07 1.42754 -1.44045 0
M  V30 29840 C 2848.4 1.94107 -0.059997 0
M  V30 29841 O 2847.67 1.71513 0.917256 0
M  V30 29842 C 2847.96 2.61781 -2.4727 0
M  V30 29843 C 2847.81 2.16 -3.94543 0
M  V30 29844 C 2849.13 3.63999 -2.47372 0
M  V30 29845 H 2846.25 0.517739 -0.524515 0
M  V30 29846 H 2848.89 0.755435 -1.74336 0
M  V30 29847 H 2847.04 3.19122 -2.21571 0
M  V30 29848 H 2848.71 1.63754 -4.31257 0
M  V30 29849 H 2846.96 1.47484 -4.07959 0
M  V30 29850 H 2847.63 3.01538 -4.62363 0
M  V30 29851 H 2850.1 3.16394 -2.70248 0
M  V30 29852 H 2848.98 4.44849 -3.2156 0
M  V30 29853 H 2849.24 4.15765 -1.50307 0
M  V30 29854 N 2848.3 1.29191 0.902633 0
M  V30 29855 C 2849.53 1.19872 1.68637 0
M  V30 29856 C 2849.94 -0.241088 1.87254 0
M  V30 29857 O 2849.3 -1.16174 1.40747 0
M  V30 29858 C 2849.35 1.90476 3.07247 0
M  V30 29859 O 2849.07 3.28834 2.89482 0
M  V30 29860 C 2850.57 1.87597 4.01649 0
M  V30 29861 H 2847.79 0.415606 0.526795 0
M  V30 29862 H 2850.34 1.70512 1.12898 0
M  V30 29863 H 2848.49 1.43679 3.59771 0
M  V30 29864 H 2848.9 3.64352 3.7729 0
M  V30 29865 H 2850.38 2.41569 4.96335 0
M  V30 29866 H 2850.86 0.850832 4.3088 0
M  V30 29867 H 2851.46 2.34125 3.55057 0
M  V30 29868 N 2849.78 -1.1126 1.1162 0
M  V30 29869 C 2851.02 -1.82677 0.864501 0
M  V30 29870 C 2851.35 -1.85163 -0.611531 0
M  V30 29871 O 2850.62 -1.32354 -1.44427 0
M  V30 29872 H 2849.2 -0.676481 0.316833 0
M  V30 29873 H 2851.86 -1.34664 1.40896 0
M  V30 29874 H 2850.95 -2.8648 1.23837 0
M  V30 29875 N 2851.25 -0.906798 -1.28899 0
M  V30 29876 C 2852.48 -0.551338 -1.99938 0
M  V30 29877 C 2852.9 0.858466 -1.67368 0
M  V30 29878 O 2852.26 1.57258 -0.902204 0
M  V30 29879 C 2852.31 -0.758999 -3.52522 0
M  V30 29880 O 2851.41 0.185236 -4.11984 0
M  V30 29881 H 2850.76 -0.214579 -0.628372 0
M  V30 29882 H 2853.29 -1.22033 -1.64223 0
M  V30 29883 H 2853.3 -0.6664 -4.02521 0
M  V30 29884 H 2851.97 -1.78678 -3.75562 0
M  V30 29885 H 2850.55 0.0444922 -3.72873 0
M  V30 29886 N 2852.73 1.42648 -0.670032 0
M  V30 29887 C 2853.7 2.292 0.00200631 0
M  V30 29888 C 2854.7 1.43081 0.733792 0
M  V30 29889 O 2855.89 1.64523 0.572511 0
M  V30 29890 C 2853.02 3.25485 1.01353 0
M  V30 29891 H 2854.21 2.90117 -0.759747 0
M  V30 29892 H 2851.76 1.50208 -0.432131 0
M  V30 29893 H 2852.5 2.69497 1.80394 0
M  V30 29894 H 2852.28 3.88998 0.492255 0
M  V30 29895 H 2853.77 3.90406 1.48233 0
M  V30 29896 N 2854.21 0.413044 1.52091 0
M  V30 29897 C 2855.46 -0.161701 2.02154 0
M  V30 29898 C 2855.79 -1.44457 1.29792 0
M  V30 29899 O 2855.07 -1.90228 0.405411 0
M  V30 29900 C 2855.35 -0.4054 3.57811 0
M  V30 29901 C 2855.2 0.894412 4.40818 0
M  V30 29902 C 2856.52 -1.18584 4.23823 0
M  V30 29903 H 2853.64 -0.0572948 0.73477 0
M  V30 29904 H 2856.28 0.547279 1.81947 0
M  V30 29905 H 2854.43 -1.00934 3.75159 0
M  V30 29906 H 2856.1 1.53046 4.35172 0
M  V30 29907 H 2854.35 1.50452 4.06874 0
M  V30 29908 H 2855.02 0.678241 5.47817 0
M  V30 29909 H 2857.49 -0.674501 4.10597 0
M  V30 29910 H 2856.37 -1.3251 5.32665 0
M  V30 29911 H 2856.63 -2.20751 3.83042 0
M  V30 29912 N 2855.69 -1.56945 0.143591 0
M  V30 29913 C 2856.94 -1.95628 -0.507368 0
M  V30 29914 C 2857.26 -1.02925 -1.65624 0
M  V30 29915 O 2856.53 -0.090148 -1.95692 0
M  V30 29916 H 2855.11 -0.722321 -0.190424 0
M  V30 29917 H 2857.77 -1.93674 0.218292 0
M  V30 29918 H 2856.87 -2.99267 -0.885764 0
M  V30 29919 N 2857.17 0.130197 -1.57061 0
M  V30 29920 C 2858.41 0.84596 -1.86072 0
M  V30 29921 C 2858.77 1.77576 -0.730121 0
M  V30 29922 O 2859.97 2.53225 -0.901708 0
M  V30 29923 C 2858.24 1.58573 -3.20296 0
M  V30 29924 S 2859.8 2.34461 -3.70909 0
M  V30 29925 H 2856.62 0.282567 -0.652439 0
M  V30 29926 H 2859.22 0.104945 -1.95218 0
M  V30 29927 H 2857.93 0.894438 -4.00535 0
M  V30 29928 H 2857.46 2.36733 -3.14199 0
M  V30 29929 H 2859.47 3.59975 -3.41515 0
M  V30 29930 N 2858.65 1.52438 0.400055 0
M  V30 29931 C 2859.92 1.57513 1.1597 0
M  V30 29932 C 2860.3 0.361609 2.0798 0
M  V30 29933 O 2859.65 -0.650891 2.19033 0
M  V30 29934 C 2859.86 2.9084 1.92907 0
M  V30 29935 C 2861.21 3.44173 2.48656 0
M  V30 29936 O 2862.23 2.92641 2.03076 0
M  V30 29937 O 2861.09 4.34182 3.31886 0
M  V30 29938 H 2858.19 0.634836 0.530012 0
M  V30 29939 H 2860.73 1.64769 0.406101 0
M  V30 29940 H 2859.5 3.70609 1.25557 0
M  V30 29941 H 2859.13 2.86918 2.75252 0
M  V30 29942 N 2860.12 -0.657839 1.43214 0
M  V30 29943 C 2861.53 -1.2389 1.39671 0
M  V30 29944 C 2861.89 -1.95953 0.0984561 0
M  V30 29945 O 2861.01 -2.00979 -0.802265 0
M  V30 29946 C 2861.61 -2.25327 2.53008 0
M  V30 29947 C 2860.16 -2.78921 2.52745 0
M  V30 29948 C 2859.31 -1.53493 2.30944 0
M  V30 29949 H 2862.26 -0.450146 1.52182 0
M  V30 29950 H 2862.28 -3.07409 2.24232 0
M  V30 29951 H 2861.8 -1.7285 3.47483 0
M  V30 29952 H 2859.9 -3.35474 1.62136 0
M  V30 29953 H 2860.01 -3.26781 3.50358 0
M  V30 29954 H 2858.37 -1.80675 1.79524 0
M  V30 29955 H 2859.16 -1.02958 3.27498 0
M  V30 29956 N 2861.6 -1.29668 -0.895769 0
M  V30 29957 C 2862.88 -1.08541 -1.62721 0
M  V30 29958 C 2863.26 0.369083 -2.07848 0
M  V30 29959 O 2862.61 1.35861 -1.83723 0
M  V30 29960 C 2862.82 -2.07653 -2.80502 0
M  V30 29961 C 2864.16 -2.38786 -3.51093 0
M  V30 29962 O 2865.19 -2.05879 -2.90676 0
M  V30 29963 O 2864.05 -2.95028 -4.60023 0
M  V30 29964 H 2861.14 -0.416119 -0.714685 0
M  V30 29965 H 2863.69 -1.41054 -0.943492 0
M  V30 29966 H 2862.46 -3.05604 -2.44381 0
M  V30 29967 H 2862.08 -1.75893 -3.56577 0
M  V30 29968 N 2863.08 1.10667 -1.12208 0
M  V30 29969 C 2864.33 1.82847 -0.877204 0
M  V30 29970 C 2864.66 1.84843 0.595539 0
M  V30 29971 O 2863.93 1.30734 1.4401 0
M  V30 29972 C 2864.22 3.29633 -1.44963 0
M  V30 29973 C 2864.07 3.35984 -2.99057 0
M  V30 29974 C 2865.39 4.25945 -1.10722 0
M  V30 29975 H 2862.51 0.663849 -0.320115 0
M  V30 29976 H 2865.15 1.29717 -1.38829 0
M  V30 29977 H 2863.3 3.75008 -1.01495 0
M  V30 29978 H 2864.97 2.99107 -3.51188 0
M  V30 29979 H 2863.21 2.75956 -3.3471 0
M  V30 29980 H 2863.89 4.39333 -3.34201 0
M  V30 29981 H 2866.36 3.88791 -1.4826 0
M  V30 29982 H 2865.24 5.27018 -1.5344 0
M  V30 29983 H 2865.5 4.42096 -0.0190777 0
M  V30 29984 N 2864.56 0.913621 1.28416 0
M  V30 29985 C 2865.8 0.546708 1.9498 0
M  V30 29986 C 2866.13 -0.909576 1.71921 0
M  V30 29987 O 2865.39 -1.66205 1.03317 0
M  V30 29988 C 2865.69 0.80216 3.48282 0
M  V30 29989 C 2865.35 2.23797 3.9144 0
M  V30 29990 C 2864.01 2.63053 4.02935 0
M  V30 29991 C 2866.37 3.17234 4.13536 0
M  V30 29992 C 2863.69 3.94899 4.33903 0
M  V30 29993 C 2866.05 4.48644 4.45984 0
M  V30 29994 C 2864.71 4.87754 4.55689 0
M  V30 29995 H 2863.98 0.200055 0.713484 0
M  V30 29996 H 2866.63 1.15492 1.52754 0
M  V30 29997 H 2864.93 0.111145 3.91642 0
M  V30 29998 H 2866.63 0.497445 3.97903 0
M  V30 29999 H 2863.22 1.92336 3.8302 0
M  V30 30000 H 2867.4 2.88114 4.04109 0
M  V30 30001 H 2862.66 4.24902 4.39623 0
M  V30 30002 H 2866.83 5.21059 4.62029 0
M  V30 30003 H 2864.46 5.8995 4.7944 0
M  V30 30004 N 2866.04 -1.4229 0.677588 0
M  V30 30005 C 2867.28 -2.02313 0.209998 0
M  V30 30006 C 2867.64 -1.52633 -1.17137 0
M  V30 30007 O 2866.93 -0.719969 -1.77558 0
M  V30 30008 C 2867.12 -3.56909 0.187292 0
M  V30 30009 C 2866.95 -4.21593 1.56492 0
M  V30 30010 C 2865.72 -4.56647 2.16337 0
M  V30 30011 C 2867.92 -4.48996 2.50813 0
M  V30 30012 N 2865.9 -5.06525 3.46851 0
M  V30 30013 C 2867.27 -5.00455 3.65985 0
M  V30 30014 C 2869.33 -4.30987 2.49307 0
M  V30 30015 C 2868.03 -5.35799 4.79909 0
M  V30 30016 C 2870.06 -4.67409 3.6233 0
M  V30 30017 C 2869.42 -5.19023 4.7623 0
M  V30 30018 H 2865.52 -0.772452 0.121828 0
M  V30 30019 H 2868.1 -1.73107 0.891179 0
M  V30 30020 H 2866.27 -3.85627 -0.463312 0
M  V30 30021 H 2868.01 -4.03635 -0.293441 0
M  V30 30022 H 2864.76 -4.42498 1.68798 0
M  V30 30023 H 2865.18 -5.35891 4.13703 0
M  V30 30024 H 2869.83 -3.90336 1.62474 0
M  V30 30025 H 2867.54 -5.75382 5.67416 0
M  V30 30026 H 2871.13 -4.55149 3.62396 0
M  V30 30027 H 2870.01 -5.46679 5.62238 0
M  V30 30028 N 2867.51 -0.421104 -1.5187 0
M  V30 30029 C 2868.74 0.152334 -2.0684 0
M  V30 30030 C 2869.16 1.37081 -1.28804 0
M  V30 30031 O 2868.52 1.78426 -0.321513 0
M  V30 30032 C 2868.57 0.469305 -3.57533 0
M  V30 30033 O 2867.67 1.55842 -3.81821 0
M  V30 30034 H 2867.01 0.00897419 -0.663939 0
M  V30 30035 H 2869.54 -0.597759 -1.95673 0
M  V30 30036 H 2869.55 0.724482 -4.01516 0
M  V30 30037 H 2868.23 -0.421349 -4.1376 0
M  V30 30038 H 2866.81 1.29447 -3.49711 0
M  V30 30039 N 2868.99 1.56866 -0.151912 0
M  V30 30040 C 2869.94 2.17008 0.785897 0
M  V30 30041 C 2870.91 1.10437 1.24068 0
M  V30 30042 O 2872.09 1.38501 1.31233 0
M  V30 30043 C 2869.23 2.79972 2.01766 0
M  V30 30044 C 2868.35 4.00949 1.60823 0
M  V30 30045 C 2867.48 4.51898 2.79216 0
M  V30 30046 C 2866.52 5.65328 2.3467 0
M  V30 30047 N 2865.66 6.10874 3.46089 0
M  V30 30048 H 2870.5 2.96808 0.266234 0
M  V30 30049 H 2868.04 1.46612 0.119694 0
M  V30 30050 H 2869.99 3.14625 2.73983 0
M  V30 30051 H 2868.62 2.02808 2.51135 0
M  V30 30052 H 2867.68 3.72243 0.783527 0
M  V30 30053 H 2868.99 4.83113 1.2411 0
M  V30 30054 H 2868.14 4.88631 3.59617 0
M  V30 30055 H 2866.88 3.68751 3.19177 0
M  V30 30056 H 2865.89 5.28166 1.52711 0
M  V30 30057 H 2867.11 6.50264 1.9579 0
M  V30 30058 H 2865.06 5.30661 3.85662 0
M  V30 30059 H 2864.97 6.87977 3.13407 0
M  V30 30060 H 2866.24 6.52253 4.26832 0
M  V30 30061 N 2870.47 -0.121866 1.57128 0
M  V30 30062 C 2871.72 -0.828716 1.83889 0
M  V30 30063 C 2872.03 -1.81179 0.737119 0
M  V30 30064 O 2873.24 -2.56462 0.891052 0
M  V30 30065 C 2871.69 -1.52449 3.26017 0
M  V30 30066 C 2871.3 -0.582552 4.44196 0
M  V30 30067 C 2873.05 -2.21665 3.62029 0
M  V30 30068 C 2870.95 -1.28139 5.77351 0
M  V30 30069 H 2869.88 -0.313226 0.685861 0
M  V30 30070 H 2872.53 -0.0814529 1.83319 0
M  V30 30071 H 2870.92 -2.31828 3.21048 0
M  V30 30072 H 2872.09 0.17781 4.60457 0
M  V30 30073 H 2870.41 0.00248548 4.164 0
M  V30 30074 H 2873 -2.74635 4.58781 0
M  V30 30075 H 2873.35 -2.99331 2.89321 0
M  V30 30076 H 2873.88 -1.49177 3.6877 0
M  V30 30077 H 2870.62 -0.546074 6.53221 0
M  V30 30078 H 2870.14 -2.01384 5.64982 0
M  V30 30079 H 2871.82 -1.81538 6.2101 0
M  V30 30080 N 2871.95 -1.52648 -0.391965 0
M  V30 30081 C 2873.36 -1.59522 -0.970036 0
M  V30 30082 C 2873.71 -0.44624 -1.91058 0
M  V30 30083 O 2872.84 0.431088 -2.12063 0
M  V30 30084 C 2873.43 -2.89128 -1.76609 0
M  V30 30085 C 2871.99 -2.98424 -2.29391 0
M  V30 30086 C 2871.14 -2.5461 -1.09859 0
M  V30 30087 H 2874.09 -1.57769 -0.17161 0
M  V30 30088 H 2874.11 -2.75447 -2.62506 0
M  V30 30089 H 2873.62 -3.72733 -1.08129 0
M  V30 30090 H 2871.72 -2.1935 -3.01192 0
M  V30 30091 H 2871.83 -4.03006 -2.59081 0
M  V30 30092 H 2870.2 -2.0886 -1.45773 0
M  V30 30093 H 2870.98 -3.40607 -0.42919 0
M  V30 30094 N 2873.43 0.650235 -1.43561 0
M  V30 30095 C 2874.67 1.41219 -1.45551 0
M  V30 30096 C 2875.01 1.94033 -0.0805813 0
M  V30 30097 O 2874.28 1.72476 0.899013 0
M  V30 30098 C 2874.56 2.59144 -2.50033 0
M  V30 30099 C 2874.42 2.11803 -3.96812 0
M  V30 30100 C 2875.74 3.61355 -2.51218 0
M  V30 30101 H 2872.85 0.512146 -0.529976 0
M  V30 30102 H 2875.5 0.736902 -1.75128 0
M  V30 30103 H 2873.65 3.16754 -2.24943 0
M  V30 30104 H 2875.32 1.59171 -4.32969 0
M  V30 30105 H 2873.56 1.43149 -4.09501 0
M  V30 30106 H 2874.23 2.96617 -4.65535 0
M  V30 30107 H 2876.71 3.1351 -2.73589 0
M  V30 30108 H 2875.58 4.41413 -3.2626 0
M  V30 30109 H 2875.85 4.14147 -1.54708 0
M  V30 30110 N 2874.9 1.30141 0.88888 0
M  V30 30111 C 2875.84 1.10517 1.99653 0
M  V30 30112 C 2876.82 0.013922 1.62594 0
M  V30 30113 O 2878 0.166722 1.87761 0
M  V30 30114 C 2875.13 0.684713 3.31707 0
M  V30 30115 C 2874.17 1.77626 3.87752 0
M  V30 30116 S 2875.01 3.37784 4.15526 0
M  V30 30117 C 2876.16 2.97632 5.50605 0
M  V30 30118 H 2876.39 2.0429 2.15992 0
M  V30 30119 H 2873.93 1.14411 1.0368 0
M  V30 30120 H 2875.89 0.448854 4.08039 0
M  V30 30121 H 2874.55 -0.233593 3.1323 0
M  V30 30122 H 2873.74 1.43425 4.83162 0
M  V30 30123 H 2873.34 1.9662 3.18146 0
M  V30 30124 H 2875.63 2.4535 6.31514 0
M  V30 30125 H 2876.58 3.91934 5.8974 0
M  V30 30126 H 2876.98 2.35612 5.12979 0
M  V30 30127 N 2876.38 -1.1007 1.12794 0
M  V30 30128 C 2877.31 -2.18563 0.821727 0
M  V30 30129 C 2878.29 -1.68722 -0.21609 0
M  V30 30130 O 2879.48 -1.94049 -0.076459 0
M  V30 30131 C 2876.61 -3.46172 0.279685 0
M  V30 30132 C 2875.56 -4.09309 1.25099 0
M  V30 30133 C 2874.89 -5.31664 0.56901 0
M  V30 30134 C 2876.19 -4.52581 2.60706 0
M  V30 30135 H 2877.88 -2.44435 1.72893 0
M  V30 30136 H 2875.43 -1.17481 0.832723 0
M  V30 30137 H 2877.38 -4.21366 0.0531731 0
M  V30 30138 H 2876.11 -3.19802 -0.662872 0
M  V30 30139 H 2874.76 -3.36126 1.46338 0
M  V30 30140 H 2874.41 -5.01572 -0.37881 0
M  V30 30141 H 2874.11 -5.7486 1.21697 0
M  V30 30142 H 2875.64 -6.09587 0.351624 0
M  V30 30143 H 2877.05 -5.19031 2.43474 0
M  V30 30144 H 2875.45 -5.06639 3.21616 0
M  V30 30145 H 2876.52 -3.65311 3.18867 0
M  V30 30146 N 2877.86 -0.920419 -1.2793 0
M  V30 30147 C 2879.14 -0.475721 -1.89727 0
M  V30 30148 C 2879.52 1.04584 -1.83372 0
M  V30 30149 O 2878.87 1.89683 -1.27408 0
M  V30 30150 C 2879.08 -1.0136 -3.33957 0
M  V30 30151 C 2880.42 -1.0697 -4.10905 0
M  V30 30152 O 2881.45 -0.962707 -3.42944 0
M  V30 30153 O 2880.31 -1.23352 -5.32397 0
M  V30 30154 H 2877.4 -0.151859 -0.812938 0
M  V30 30155 H 2879.95 -1.01164 -1.3625 0
M  V30 30156 H 2878.72 -2.05752 -3.32839 0
M  V30 30157 H 2878.34 -0.458898 -3.94943 0
M  V30 30158 N 2879.34 1.41929 -0.685124 0
M  V30 30159 C 2880.59 2.00993 -0.211275 0
M  V30 30160 C 2880.91 1.54494 1.18982 0
M  V30 30161 O 2880.18 0.771032 1.80089 0
M  V30 30162 H 2878.76 0.743213 -0.075119 0
M  V30 30163 H 2881.42 1.73702 -0.883946 0
M  V30 30164 H 2880.52 3.1132 -0.220568 0
M  V30 30165 N 2880.82 0.429152 1.51644 0
M  V30 30166 C 2881.77 -0.404177 2.24389 0
M  V30 30167 C 2882.75 -0.996911 1.26295 0
M  V30 30168 O 2883.94 -0.916408 1.5143 0
M  V30 30169 C 2881.07 -1.50933 3.08341 0
M  V30 30170 C 2880.16 -0.926391 4.13858 0
M  V30 30171 N 2880.55 -0.0718844 5.05749 0
M  V30 30172 C 2878.85 -1.19483 4.29697 0
M  V30 30173 C 2879.55 0.254631 5.81142 0
M  V30 30174 N 2878.52 -0.359668 5.42409 0
M  V30 30175 H 2882.33 0.254748 2.92794 0
M  V30 30176 H 2879.84 0.24074 1.60606 0
M  V30 30177 H 2881.84 -2.11911 3.59025 0
M  V30 30178 H 2880.5 -2.17067 2.41478 0
M  V30 30179 H 2881.51 0.293944 5.17065 0
M  V30 30180 H 2878.18 -1.85428 3.74063 0
M  V30 30181 H 2879.57 0.949481 6.65157 0
M  V30 30182 N 2882.29 -1.56783 0.160229 0
M  V30 30183 C 2883.22 -2.20431 -0.770225 0
M  V30 30184 C 2884.21 -1.15653 -1.24734 0
M  V30 30185 O 2885.39 -1.44043 -1.30251 0
M  V30 30186 C 2882.52 -2.83634 -2.00422 0
M  V30 30187 C 2881.47 -3.94355 -1.66338 0
M  V30 30188 C 2880.8 -4.44555 -2.97111 0
M  V30 30189 C 2882.1 -5.14489 -0.899882 0
M  V30 30190 H 2883.79 -2.98439 -0.239731 0
M  V30 30191 H 2881.34 -1.43549 -0.113866 0
M  V30 30192 H 2883.29 -3.26831 -2.66006 0
M  V30 30193 H 2882.02 -2.02978 -2.55866 0
M  V30 30194 H 2880.68 -3.51796 -1.03127 0
M  V30 30195 H 2880.32 -3.60704 -3.50573 0
M  V30 30196 H 2880.02 -5.19243 -2.75064 0
M  V30 30197 H 2881.55 -4.90431 -3.63744 0
M  V30 30198 H 2882.96 -5.54448 -1.45808 0
M  V30 30199 H 2881.36 -5.95024 -0.778864 0
M  V30 30200 H 2882.43 -4.84784 0.105912 0
M  V30 30201 N 2883.77 0.113531 -1.57191 0
M  V30 30202 C 2885.02 0.818952 -1.84326 0
M  V30 30203 C 2885.34 1.80786 -0.746717 0
M  V30 30204 O 2886.54 2.55985 -0.904641 0
M  V30 30205 C 2885 1.50718 -3.26821 0
M  V30 30206 C 2884.61 0.558987 -4.44499 0
M  V30 30207 C 2886.35 2.19742 -3.63199 0
M  V30 30208 C 2884.26 1.25076 -5.78023 0
M  V30 30209 H 2883.19 0.309584 -0.687513 0
M  V30 30210 H 2885.84 0.0717299 -1.8336 0
M  V30 30211 H 2884.22 2.30122 -3.22273 0
M  V30 30212 H 2885.39 -0.202227 -4.60356 0
M  V30 30213 H 2883.71 -0.0245681 -4.16393 0
M  V30 30214 H 2886.31 2.72198 -4.60231 0
M  V30 30215 H 2886.65 2.97793 -2.90904 0
M  V30 30216 H 2887.18 1.4722 -3.69555 0
M  V30 30217 H 2883.92 0.511424 -6.53502 0
M  V30 30218 H 2883.44 1.98385 -5.66042 0
M  V30 30219 H 2885.12 1.78242 -6.21964 0
M  V30 30220 N 2885.25 1.52854 0.383864 0
M  V30 30221 C 2886.21 1.77345 1.45194 0
M  V30 30222 C 2887.21 0.643548 1.4736 0
M  V30 30223 O 2888.4 0.911639 1.48441 0
M  V30 30224 C 2885.54 1.8789 2.84447 0
M  V30 30225 H 2886.73 2.72718 1.24759 0
M  V30 30226 H 2884.28 1.43653 0.615914 0
M  V30 30227 H 2885.02 0.945205 3.1022 0
M  V30 30228 H 2884.8 2.70056 2.84275 0
M  V30 30229 H 2886.29 2.08494 3.61829 0
M  V30 30230 N 2886.73 -0.642612 1.43904 0
M  V30 30231 C 2887.98 -1.40237 1.46082 0
M  V30 30232 C 2888.3 -1.94296 0.0890676 0
M  V30 30233 O 2887.56 -1.73387 -0.907503 0
M  V30 30234 C 2887.86 -2.59349 2.45912 0
M  V30 30235 C 2887.52 -2.23647 3.91526 0
M  V30 30236 C 2886.19 -2.13622 4.31183 0
M  V30 30237 C 2888.54 -1.95252 4.83245 0
M  V30 30238 C 2885.87 -1.73375 5.60498 0
M  V30 30239 C 2888.22 -1.565 6.12936 0
M  V30 30240 C 2886.88 -1.45008 6.51559 0
M  V30 30241 H 2886.15 -0.513163 0.534551 0
M  V30 30242 H 2888.8 -0.729809 1.77048 0
M  V30 30243 H 2887.1 -3.31786 2.08387 0
M  V30 30244 H 2888.8 -3.1757 2.44848 0
M  V30 30245 H 2885.39 -2.32363 3.60146 0
M  V30 30246 H 2889.58 -2.01912 4.53371 0
M  V30 30247 H 2884.83 -1.63072 5.89252 0
M  V30 30248 H 2889.01 -1.33564 6.83472 0
M  V30 30249 H 2886.63 -1.13593 7.51665 0
M  V30 30250 N 2888.21 -1.30611 -0.881966 0
M  V30 30251 C 2889.48 -1.10261 -1.61561 0
M  V30 30252 C 2889.86 0.347017 -2.08228 0
M  V30 30253 O 2889.21 1.33905 -1.85153 0
M  V30 30254 C 2889.42 -2.10617 -2.78283 0
M  V30 30255 C 2890.77 -2.42496 -3.48541 0
M  V30 30256 O 2891.79 -2.0895 -2.88476 0
M  V30 30257 O 2890.65 -2.99891 -4.56867 0
M  V30 30258 H 2887.75 -0.423675 -0.710231 0
M  V30 30259 H 2890.29 -1.42047 -0.928478 0
M  V30 30260 H 2889.07 -3.08179 -2.41126 0
M  V30 30261 H 2888.69 -1.79665 -3.54692 0
M  V30 30262 N 2889.69 1.0947 -1.13376 0
M  V30 30263 C 2890.92 1.85132 -0.917052 0
M  V30 30264 C 2891.32 1.81403 0.537536 0
M  V30 30265 O 2890.67 1.20814 1.38383 0
M  V30 30266 C 2890.73 3.34131 -1.32652 0
M  V30 30267 C 2890.39 3.61608 -2.79444 0
M  V30 30268 C 2891.39 3.57368 -3.77603 0
M  V30 30269 C 2889.07 3.89967 -3.16593 0
M  V30 30270 C 2891.07 3.81099 -5.10923 0
M  V30 30271 C 2888.76 4.13353 -4.50092 0
M  V30 30272 C 2889.75 4.08911 -5.47066 0
M  V30 30273 O 2889.44 4.31693 -6.78157 0
M  V30 30274 H 2889.17 0.591644 -0.327008 0
M  V30 30275 H 2891.73 1.39236 -1.51005 0
M  V30 30276 H 2889.96 3.80732 -0.676786 0
M  V30 30277 H 2891.65 3.91203 -1.08236 0
M  V30 30278 H 2892.41 3.35486 -3.50248 0
M  V30 30279 H 2888.29 3.9255 -2.41714 0
M  V30 30280 H 2891.84 3.77548 -5.86603 0
M  V30 30281 H 2887.73 4.34716 -4.77171 0
M  V30 30282 H 2888.5 4.49156 -6.84252 0
M  V30 30283 N 2891.16 0.92719 1.2744 0
M  V30 30284 C 2892.39 0.583077 1.99035 0
M  V30 30285 C 2892.81 -0.831731 1.68712 0
M  V30 30286 O 2892.17 -1.55802 0.927108 0
M  V30 30287 C 2892.22 0.814986 3.5127 0
M  V30 30288 O 2891.32 -0.119669 4.12226 0
M  V30 30289 H 2890.66 0.224549 0.624879 0
M  V30 30290 H 2893.19 1.2463 1.6226 0
M  V30 30291 H 2893.2 0.730353 4.0141 0
M  V30 30292 H 2891.88 1.8463 3.72672 0
M  V30 30293 H 2890.46 0.0148344 3.72897 0
M  V30 30294 N 2892.64 -1.41564 0.692641 0
M  V30 30295 C 2893.89 -2.00878 0.221931 0
M  V30 30296 C 2894.21 -1.55122 -1.18161 0
M  V30 30297 O 2893.48 -0.780572 -1.79677 0
M  V30 30298 H 2892.06 -0.742805 0.0790594 0
M  V30 30299 H 2894.72 -1.73231 0.893145 0
M  V30 30300 H 2893.82 -3.11198 0.237075 0
M  V30 30301 N 2894.12 -0.437188 -1.51415 0
M  V30 30302 C 2895.35 0.127823 -2.06204 0
M  V30 30303 C 2895.76 1.37023 -1.30466 0
M  V30 30304 O 2895.1 1.80187 -0.357548 0
M  V30 30305 C 2895.16 0.51557 -3.55784 0
M  V30 30306 C 2894.83 -0.620017 -4.52775 0
M  V30 30307 C 2895.82 -1.4921 -4.98029 0
M  V30 30308 C 2893.51 -0.800706 -4.95877 0
M  V30 30309 C 2895.5 -2.52957 -5.85057 0
M  V30 30310 C 2893.19 -1.84145 -5.82695 0
M  V30 30311 C 2894.19 -2.70427 -6.27183 0
M  V30 30312 O 2893.88 -3.72714 -7.12278 0
M  V30 30313 H 2893.61 0.0114301 -0.675903 0
M  V30 30314 H 2896.16 -0.615021 -1.95976 0
M  V30 30315 H 2894.39 1.31111 -3.63795 0
M  V30 30316 H 2896.08 1.01172 -3.93089 0
M  V30 30317 H 2896.85 -1.36404 -4.65424 0
M  V30 30318 H 2892.73 -0.138698 -4.60791 0
M  V30 30319 H 2896.27 -3.20336 -6.19702 0
M  V30 30320 H 2892.17 -1.96971 -6.14713 0
M  V30 30321 H 2892.93 -3.69293 -7.30455 0
M  V30 30322 N 2895.6 1.56696 -0.168541 0
M  V30 30323 C 2896.87 1.88469 0.523334 0
M  V30 30324 C 2897.25 1.07799 1.81501 0
M  V30 30325 O 2896.6 0.171085 2.27859 0
M  V30 30326 C 2896.81 3.40447 0.767931 0
M  V30 30327 C 2898.16 4.10126 1.09917 0
M  V30 30328 O 2899.18 3.45748 0.856564 0
M  V30 30329 O 2898.04 5.23859 1.55672 0
M  V30 30330 H 2895.14 0.781879 0.269433 0
M  V30 30331 H 2897.68 1.68436 -0.206769 0
M  V30 30332 H 2896.46 3.9103 -0.145323 0
M  V30 30333 H 2896.08 3.66082 1.55145 0
M  V30 30334 N 2897.08 -0.105193 1.57249 0
M  V30 30335 C 2898.04 -1.11249 2.0039 0
M  V30 30336 C 2899.04 -1.33526 0.895964 0
M  V30 30337 O 2900.23 -1.29809 1.16169 0
M  V30 30338 C 2897.36 -2.46391 2.35593 0
M  V30 30339 H 2898.55 -0.741373 2.90592 0
M  V30 30340 H 2896.11 -0.349929 1.52332 0
M  V30 30341 H 2896.84 -2.88398 1.48315 0
M  V30 30342 H 2896.63 -2.31572 3.16412 0
M  V30 30343 H 2898.12 -3.18859 2.69663 0
M  V30 30344 N 2898.55 -1.53055 -0.375752 0
M  V30 30345 C 2899.78 -1.72942 -1.14481 0
M  V30 30346 C 2900.2 -0.4527 -1.82571 0
M  V30 30347 O 2899.56 0.592537 -1.71344 0
M  V30 30348 C 2899.61 -2.88861 -2.15852 0
M  V30 30349 O 2898.71 -2.56759 -3.22721 0
M  V30 30350 H 2898.06 -0.574662 -0.332656 0
M  V30 30351 H 2900.59 -1.99901 -0.43599 0
M  V30 30352 H 2900.6 -3.14736 -2.59625 0
M  V30 30353 H 2899.27 -3.81474 -1.65683 0
M  V30 30354 H 2897.85 -2.41668 -2.83991 0
M  V30 30355 N 2900.03 0.634971 -1.44242 0
M  V30 30356 C 2900.96 1.75837 -1.53635 0
M  V30 30357 C 2901.94 1.65577 -0.389632 0
M  V30 30358 O 2903.13 1.84396 -0.609252 0
M  V30 30359 C 2900.26 3.14351 -1.4765 0
M  V30 30360 C 2899.21 3.39395 -2.60758 0
M  V30 30361 C 2898.54 4.77899 -2.39825 0
M  V30 30362 C 2899.84 3.32336 -4.02927 0
M  V30 30363 H 2901.53 1.68234 -2.47665 0
M  V30 30364 H 2899.08 0.807948 -1.19198 0
M  V30 30365 H 2901.03 3.92713 -1.52822 0
M  V30 30366 H 2899.76 3.22729 -0.501341 0
M  V30 30367 H 2898.41 2.63412 -2.54969 0
M  V30 30368 H 2898.06 4.82976 -1.40511 0
M  V30 30369 H 2897.76 4.95615 -3.15658 0
M  V30 30370 H 2899.29 5.58496 -2.46809 0
M  V30 30371 H 2900.7 4.00608 -4.10105 0
M  V30 30372 H 2899.1 3.61586 -4.78932 0
M  V30 30373 H 2900.17 2.30208 -4.2677 0
M  V30 30374 N 2901.51 1.31076 0.875027 0
M  V30 30375 C 2902.74 1.23553 1.66581 0
M  V30 30376 C 2903.16 -0.196827 1.87067 0
M  V30 30377 O 2902.52 -1.14117 1.40879 0
M  V30 30378 C 2902.57 1.9797 3.01397 0
M  V30 30379 O 2901.67 1.31358 3.9092 0
M  V30 30380 H 2901.01 0.42683 0.508638 0
M  V30 30381 H 2903.54 1.73062 1.09136 0
M  V30 30382 H 2903.55 2.07372 3.5137 0
M  V30 30383 H 2902.23 3.02138 2.85806 0
M  V30 30384 H 2900.8 1.30374 3.49366 0
M  V30 30385 N 2902.99 -1.08867 1.13955 0
M  V30 30386 C 2904.4 -1.62647 0.916677 0
M  V30 30387 C 2904.75 -1.88463 -0.545556 0
M  V30 30388 O 2903.88 -1.63859 -1.41348 0
M  V30 30389 C 2904.47 -2.95483 1.65757 0
M  V30 30390 C 2903.03 -3.46065 1.48041 0
M  V30 30391 C 2902.18 -2.2038 1.68309 0
M  V30 30392 H 2905.13 -0.921549 1.29202 0
M  V30 30393 H 2905.15 -3.63705 1.118 0
M  V30 30394 H 2904.66 -2.76662 2.72176 0
M  V30 30395 H 2902.76 -3.69999 0.439481 0
M  V30 30396 H 2902.87 -4.23125 2.24726 0
M  V30 30397 H 2901.24 -2.29319 1.10837 0
M  V30 30398 H 2902.02 -2.04072 2.76061 0
M  V30 30399 N 2904.47 -0.933936 -1.26946 0
M  V30 30400 C 2905.71 -0.578514 -1.94373 0
M  V30 30401 C 2906.05 0.879018 -1.73167 0
M  V30 30402 O 2905.32 1.6279 -1.06441 0
M  V30 30403 C 2905.6 -0.9128 -3.48339 0
M  V30 30404 C 2905.46 -2.42454 -3.78861 0
M  V30 30405 C 2906.78 -0.42308 -4.38062 0
M  V30 30406 H 2903.89 -0.211652 -0.705955 0
M  V30 30407 H 2906.54 -1.16684 -1.49949 0
M  V30 30408 H 2904.69 -0.412126 -3.86308 0
M  V30 30409 H 2906.36 -2.99739 -3.50649 0
M  V30 30410 H 2904.6 -2.8711 -3.25193 0
M  V30 30411 H 2905.27 -2.60896 -4.86454 0
M  V30 30412 H 2907.75 -0.852262 -4.07278 0
M  V30 30413 H 2906.62 -0.685872 -5.44598 0
M  V30 30414 H 2906.89 0.676917 -4.36887 0
M  V30 30415 N 2905.94 1.41194 -0.700139 0
M  V30 30416 C 2907.19 2.01953 -0.242157 0
M  V30 30417 C 2907.55 1.54477 1.14694 0
M  V30 30418 O 2906.84 0.748126 1.76391 0
M  V30 30419 C 2907.03 3.56566 -0.244049 0
M  V30 30420 C 2906.86 4.1905 -1.63179 0
M  V30 30421 C 2905.63 4.53148 -2.23574 0
M  V30 30422 C 2907.83 4.44949 -2.57924 0
M  V30 30423 N 2905.81 5.00943 -3.54865 0
M  V30 30424 C 2907.18 4.94569 -3.739 0
M  V30 30425 C 2909.24 4.26967 -2.56133 0
M  V30 30426 C 2907.94 5.28096 -4.88372 0
M  V30 30427 C 2909.97 4.61585 -3.6972 0
M  V30 30428 C 2909.33 5.1138 -4.84427 0
M  V30 30429 H 2905.43 0.770416 -0.134102 0
M  V30 30430 H 2908.01 1.71667 -0.918606 0
M  V30 30431 H 2906.18 3.86315 0.401904 0
M  V30 30432 H 2907.91 4.04051 0.22919 0
M  V30 30433 H 2904.67 4.39756 -1.75816 0
M  V30 30434 H 2905.09 5.29241 -4.22176 0
M  V30 30435 H 2909.74 3.87702 -1.68663 0
M  V30 30436 H 2907.45 5.66282 -5.76498 0
M  V30 30437 H 2911.04 4.49326 -3.69591 0
M  V30 30438 H 2909.92 5.37665 -5.70864 0
M  V30 30439 N 2907.42 0.445212 1.51181 0
M  V30 30440 C 2908.67 -0.118609 2.02152 0
M  V30 30441 C 2909 -1.42023 1.3289 0
M  V30 30442 O 2908.25 -1.90802 0.435075 0
M  V30 30443 C 2908.55 -0.376735 3.55409 0
M  V30 30444 C 2908.22 0.840023 4.43006 0
M  V30 30445 C 2906.88 1.17369 4.66667 0
M  V30 30446 C 2909.23 1.65136 4.94348 0
M  V30 30447 C 2906.56 2.31922 5.38915 0
M  V30 30448 C 2908.91 2.78796 5.67852 0
M  V30 30449 C 2907.58 3.12607 5.89774 0
M  V30 30450 H 2906.85 -0.0434022 0.739728 0
M  V30 30451 H 2909.49 0.594016 1.82054 0
M  V30 30452 H 2907.8 -1.17134 3.73881 0
M  V30 30453 H 2909.49 -0.826533 3.92389 0
M  V30 30454 H 2906.08 0.570033 4.24792 0
M  V30 30455 H 2910.27 1.40678 4.75945 0
M  V30 30456 H 2905.52 2.58423 5.54101 0
M  V30 30457 H 2909.7 3.42028 6.06622 0
M  V30 30458 H 2907.33 4.01483 6.45535 0
M  V30 30459 N 2908.9 -1.56605 0.176849 0
M  V30 30460 C 2909.86 -2.17014 -0.737391 0
M  V30 30461 C 2910.86 -1.11967 -1.15412 0
M  V30 30462 O 2912.05 -1.37451 -1.07018 0
M  V30 30463 C 2909.19 -2.75748 -2.0044 0
M  V30 30464 H 2910.38 -2.99154 -0.211403 0
M  V30 30465 H 2907.93 -1.56131 -0.0727308 0
M  V30 30466 H 2908.67 -1.97357 -2.57334 0
M  V30 30467 H 2908.45 -3.52629 -1.7145 0
M  V30 30468 H 2909.94 -3.22192 -2.65673 0
M  V30 30469 N 2910.38 0.0968524 -1.57302 0
M  V30 30470 C 2911.62 0.806301 -1.87825 0
M  V30 30471 C 2911.98 1.75987 -0.767624 0
M  V30 30472 O 2913.18 2.51255 -0.955217 0
M  V30 30473 C 2911.45 1.51743 -3.23587 0
M  V30 30474 S 2913.01 2.26541 -3.75799 0
M  V30 30475 H 2909.83 0.268665 -0.658286 0
M  V30 30476 H 2912.43 0.0635132 -1.95397 0
M  V30 30477 H 2911.14 0.809278 -4.02342 0
M  V30 30478 H 2910.67 2.30016 -3.19149 0
M  V30 30479 H 2912.68 3.5265 -3.49074 0
M  V30 30480 N 2911.86 1.53252 0.36763 0
M  V30 30481 C 2912.79 1.82523 1.45628 0
M  V30 30482 C 2913.77 0.678595 1.55978 0
M  V30 30483 O 2914.95 0.928247 1.70579 0
M  V30 30484 C 2912.08 2.01329 2.82991 0
M  V30 30485 C 2911.04 3.17091 2.87467 0
M  V30 30486 C 2910.36 3.21187 4.27485 0
M  V30 30487 C 2911.66 4.55723 2.55174 0
M  V30 30488 H 2913.36 2.73691 1.21382 0
M  V30 30489 H 2910.9 1.31693 0.582486 0
M  V30 30490 H 2912.86 2.20389 3.59175 0
M  V30 30491 H 2911.58 1.0687 3.0862 0
M  V30 30492 H 2910.24 2.97848 2.13734 0
M  V30 30493 H 2909.89 2.24369 4.50186 0
M  V30 30494 H 2909.59 3.98963 4.31396 0
M  V30 30495 H 2911.11 3.42428 5.05544 0
M  V30 30496 H 2912.52 4.74958 3.21072 0
M  V30 30497 H 2910.92 5.35725 2.70405 0
M  V30 30498 H 2911.99 4.60975 1.50431 0
M  V30 30499 N 2913.34 -0.627313 1.44577 0
M  V30 30500 C 2914.28 -1.73909 1.51737 0
M  V30 30501 C 2915.25 -1.62045 0.364774 0
M  V30 30502 O 2916.44 -1.81913 0.575535 0
M  V30 30503 C 2913.58 -3.12169 1.47121 0
M  V30 30504 C 2912.69 -3.34982 2.72784 0
M  V30 30505 C 2911.83 -4.63234 2.59976 0
M  V30 30506 C 2910.86 -4.79239 3.80784 0
M  V30 30507 N 2910 -5.98772 3.66629 0
M  V30 30508 H 2914.84 -1.67126 2.46725 0
M  V30 30509 H 2912.38 -0.815203 1.22445 0
M  V30 30510 H 2914.34 -3.92132 1.42436 0
M  V30 30511 H 2912.97 -3.17958 0.556984 0
M  V30 30512 H 2912.02 -2.48931 2.87641 0
M  V30 30513 H 2913.33 -3.42686 3.62447 0
M  V30 30514 H 2912.48 -5.51364 2.53145 0
M  V30 30515 H 2911.22 -4.57895 1.6788 0
M  V30 30516 H 2910.23 -3.89537 3.87996 0
M  V30 30517 H 2911.45 -4.8639 4.73922 0
M  V30 30518 H 2909.4 -5.94515 2.77287 0
M  V30 30519 H 2909.32 -6.07549 4.49911 0
M  V30 30520 H 2910.58 -6.89453 3.63696 0
M  V30 30521 N 2914.81 -1.31539 -0.868063 0
M  V30 30522 C 2915.74 -1.21942 -1.99129 0
M  V30 30523 C 2916.72 -0.106196 -1.69768 0
M  V30 30524 O 2917.91 -0.291115 -1.92006 0
M  V30 30525 C 2915.04 -0.927938 -3.34674 0
M  V30 30526 C 2913.99 -2.00094 -3.78347 0
M  V30 30527 C 2913.32 -1.56212 -5.11373 0
M  V30 30528 C 2914.62 -3.41431 -3.9525 0
M  V30 30529 H 2916.31 -2.15915 -2.07416 0
M  V30 30530 H 2913.86 -1.03946 -0.996551 0
M  V30 30531 H 2915.81 -0.847399 -4.12792 0
M  V30 30532 H 2914.54 0.0474468 -3.26566 0
M  V30 30533 H 2913.2 -2.07141 -3.0247 0
M  V30 30534 H 2912.84 -0.574538 -4.99708 0
M  V30 30535 H 2912.54 -2.27995 -5.41564 0
M  V30 30536 H 2914.07 -1.49569 -5.91998 0
M  V30 30537 H 2915.48 -3.37048 -4.63758 0
M  V30 30538 H 2913.88 -4.11448 -4.36842 0
M  V30 30539 H 2914.95 -3.82077 -2.98572 0
M  V30 30540 N 2916.29 1.08262 -1.1453 0
M  V30 30541 C 2917.22 2.17228 -0.856394 0
M  V30 30542 C 2918.2 1.69044 0.189221 0
M  V30 30543 O 2919.39 1.94147 0.0455778 0
M  V30 30544 C 2916.52 3.45683 -0.334723 0
M  V30 30545 C 2915.47 4.07267 -1.31595 0
M  V30 30546 C 2914.8 5.30691 -0.653521 0
M  V30 30547 C 2916.1 4.48376 -2.67874 0
M  V30 30548 H 2917.79 2.41654 -1.76759 0
M  V30 30549 H 2915.34 1.16141 -0.851308 0
M  V30 30550 H 2917.29 4.21229 -0.120202 0
M  V30 30551 H 2916.01 3.20816 0.611911 0
M  V30 30552 H 2914.67 3.33755 -1.51667 0
M  V30 30553 H 2914.32 5.02111 0.298966 0
M  V30 30554 H 2914.02 5.72851 -1.30827 0
M  V30 30555 H 2915.55 6.0895 -0.44856 0
M  V30 30556 H 2916.96 5.15092 -2.51701 0
M  V30 30557 H 2915.36 5.01458 -3.29636 0
M  V30 30558 H 2916.43 3.60192 -3.24638 0
M  V30 30559 N 2917.77 0.940655 1.26449 0
M  V30 30560 C 2918.7 0.467519 2.28772 0
M  V30 30561 C 2919.68 -0.478927 1.63219 0
M  V30 30562 O 2920.87 -0.380895 1.90428 0
M  V30 30563 C 2918 -0.268595 3.4626 0
M  V30 30564 C 2916.95 0.591246 4.23897 0
M  V30 30565 C 2916.28 -0.274797 5.33993 0
M  V30 30566 C 2917.58 1.86232 4.8797 0
M  V30 30567 H 2919.27 1.3227 2.68598 0
M  V30 30568 H 2916.82 0.637458 1.29122 0
M  V30 30569 H 2918.77 -0.610623 4.16952 0
M  V30 30570 H 2917.49 -1.15791 3.05385 0
M  V30 30571 H 2916.15 0.916161 3.54968 0
M  V30 30572 H 2915.8 -1.16345 4.8936 0
M  V30 30573 H 2915.5 0.297109 5.86848 0
M  V30 30574 H 2917.02 -0.612106 6.07524 0
M  V30 30575 H 2918.44 1.58757 5.5088 0
M  V30 30576 H 2916.83 2.37875 5.5094 0
M  V30 30577 H 2917.9 2.57402 4.10941 0
M  V30 30578 N 2919.25 -1.40821 0.707617 0
M  V30 30579 C 2920.16 -2.34545 0.0507658 0
M  V30 30580 C 2921.17 -1.56877 -0.7527 0
M  V30 30581 O 2922.35 -1.89303 -0.687491 0
M  V30 30582 C 2919.41 -3.35719 -0.865672 0
M  V30 30583 C 2918.48 -4.29267 -0.0530559 0
M  V30 30584 C 2917.71 -5.25608 -0.925846 0
M  V30 30585 O 2917.93 -5.27707 -2.16521 0
M  V30 30586 O 2916.87 -6.00767 -0.369088 0
M  V30 30587 H 2920.69 -2.92318 0.823639 0
M  V30 30588 H 2918.28 -1.4188 0.468035 0
M  V30 30589 H 2920.16 -3.97786 -1.39084 0
M  V30 30590 H 2918.83 -2.80371 -1.61783 0
M  V30 30591 H 2917.74 -3.7051 0.516996 0
M  V30 30592 H 2919.07 -4.87745 0.660702 0
M  V30 30593 N 2920.73 -0.453223 -1.50943 0
M  V30 30594 C 2921.67 0.350157 -2.28128 0
M  V30 30595 C 2922.64 1.00297 -1.324 0
M  V30 30596 O 2923.83 1.01884 -1.61321 0
M  V30 30597 C 2920.97 1.43643 -3.13784 0
M  V30 30598 C 2920.08 0.80018 -4.24525 0
M  V30 30599 C 2919.22 1.86284 -4.97465 0
M  V30 30600 C 2918.25 1.20587 -6.00104 0
M  V30 30601 N 2917.39 2.21059 -6.66391 0
M  V30 30602 H 2922.23 -0.314392 -2.96337 0
M  V30 30603 H 2919.77 -0.166889 -1.4615 0
M  V30 30604 H 2921.73 2.0777 -3.61784 0
M  V30 30605 H 2920.36 2.07039 -2.47658 0
M  V30 30606 H 2919.41 0.0467982 -3.80371 0
M  V30 30607 H 2920.72 0.280689 -4.9801 0
M  V30 30608 H 2919.87 2.58035 -5.49093 0
M  V30 30609 H 2918.61 2.4161 -4.23646 0
M  V30 30610 H 2917.62 0.473903 -5.47754 0
M  V30 30611 H 2918.84 0.65974 -6.75888 0
M  V30 30612 H 2916.79 2.75435 -5.95375 0
M  V30 30613 H 2916.71 1.74046 -7.35693 0
M  V30 30614 H 2917.97 2.92245 -7.22643 0
M  V30 30615 N 2922.2 1.56509 -0.185151 0
M  V30 30616 C 2923.13 2.21628 0.735059 0
M  V30 30617 C 2924.11 1.17622 1.22878 0
M  V30 30618 O 2925.3 1.46097 1.27942 0
M  V30 30619 C 2922.43 2.86787 1.95884 0
M  V30 30620 C 2921.38 3.96951 1.60043 0
M  V30 30621 C 2920.71 4.49225 2.90001 0
M  V30 30622 C 2922.01 5.15856 0.817917 0
M  V30 30623 H 2923.7 2.98782 0.192221 0
M  V30 30624 H 2921.25 1.43712 0.0910141 0
M  V30 30625 H 2923.2 3.31022 2.60773 0
M  V30 30626 H 2921.93 2.07023 2.52605 0
M  V30 30627 H 2920.59 3.53392 0.975174 0
M  V30 30628 H 2920.23 3.66236 3.4479 0
M  V30 30629 H 2919.93 5.23553 2.66769 0
M  V30 30630 H 2921.46 4.96156 3.55896 0
M  V30 30631 H 2922.87 5.56698 1.36969 0
M  V30 30632 H 2921.27 5.96188 0.684102 0
M  V30 30633 H 2922.34 4.84554 -0.183024 0
M  V30 30634 N 2923.68 -0.0885089 1.57351 0
M  V30 30635 C 2924.93 -0.789229 1.86053 0
M  V30 30636 C 2925.25 -1.78947 0.774795 0
M  V30 30637 O 2924.52 -1.94894 -0.19829 0
M  V30 30638 H 2923.1 -0.294462 0.686514 0
M  V30 30639 H 2925.76 -0.0685712 1.94779 0
M  V30 30640 H 2924.86 -1.31576 2.83009 0
M  V30 30641 N 2925.16 -1.53445 -0.359498 0
M  V30 30642 C 2926.39 -1.73587 -1.12032 0
M  V30 30643 C 2926.8 -0.46747 -1.83334 0
M  V30 30644 O 2926.14 0.569722 -1.74642 0
M  V30 30645 C 2926.2 -2.85071 -2.19031 0
M  V30 30646 C 2925.87 -4.2522 -1.67443 0
M  V30 30647 C 2926.86 -5.07354 -1.13525 0
M  V30 30648 C 2924.55 -4.71651 -1.72772 0
M  V30 30649 C 2926.54 -6.34013 -0.656209 0
M  V30 30650 C 2924.23 -5.98288 -1.2448 0
M  V30 30651 C 2925.23 -6.793 -0.709948 0
M  V30 30652 O 2924.92 -8.03559 -0.234173 0
M  V30 30653 H 2924.65 -0.583894 -0.340651 0
M  V30 30654 H 2927.2 -2.01009 -0.422417 0
M  V30 30655 H 2925.43 -2.53137 -2.92333 0
M  V30 30656 H 2927.12 -2.93333 -2.80554 0
M  V30 30657 H 2927.89 -4.72652 -1.08743 0
M  V30 30658 H 2923.77 -4.08663 -2.13344 0
M  V30 30659 H 2927.31 -6.97194 -0.23807 0
M  V30 30660 H 2923.21 -6.32487 -1.28958 0
M  V30 30661 H 2923.97 -8.17739 -0.35294 0
M  V30 30662 N 2926.64 0.619637 -1.44908 0
M  V30 30663 C 2927.87 1.40588 -1.51798 0
M  V30 30664 C 2928.28 1.8823 -0.146586 0
M  V30 30665 O 2927.64 1.61514 0.849669 0
M  V30 30666 C 2927.69 2.61849 -2.49233 0
M  V30 30667 O 2927.41 2.1619 -3.81043 0
M  V30 30668 C 2928.91 3.54848 -2.65703 0
M  V30 30669 H 2926.13 0.430768 -0.51447 0
M  V30 30670 H 2928.67 0.75678 -1.89982 0
M  V30 30671 H 2926.83 3.22826 -2.14154 0
M  V30 30672 H 2927.24 2.94889 -4.33752 0
M  V30 30673 H 2928.72 4.36509 -3.37882 0
M  V30 30674 H 2929.19 4.04407 -1.71323 0
M  V30 30675 H 2929.8 2.99732 -3.0173 0
M  V30 30676 N 2928.12 1.31997 0.861075 0
M  V30 30677 C 2929.06 1.2034 1.9905 0
M  V30 30678 C 2930.06 0.109653 1.69045 0
M  V30 30679 O 2931.26 0.272148 1.77931 0
M  V30 30680 H 2927.64 0.372854 0.653057 0
M  V30 30681 H 2929.61 2.15875 2.06011 0
M  V30 30682 C 2928.36 0.936722 3.34844 0
M  V30 30683 H 2927.68 1.77052 3.58459 0
M  V30 30684 H 2929.12 0.895375 4.14438 0
M  V30 30685 C 2927.58 -0.360548 3.34965 0
M  V30 30686 O 2928.11 -1.37449 3.77453 0
M  V30 30687 N 2926.32 -0.380246 2.88102 0
M  V30 30688 H 2925.86 0.445396 2.5372 0
M  V30 30689 H 2925.82 -1.24811 2.88565 0
M  V30 30690 N 2929.59 -1.07653 1.15103 0
M  V30 30691 C 2930.54 -2.14775 0.844995 0
M  V30 30692 C 2931.51 -1.64882 -0.200769 0
M  V30 30693 O 2932.7 -1.90675 -0.0689943 0
M  V30 30694 C 2929.84 -3.4345 0.337079 0
M  V30 30695 C 2928.95 -4.0715 1.44405 0
M  V30 30696 C 2928.08 -5.23647 0.892579 0
M  V30 30697 C 2927.12 -5.79304 1.9767 0
M  V30 30698 N 2926.26 -6.87136 1.44183 0
M  V30 30699 H 2931.1 -2.40294 1.76246 0
M  V30 30700 H 2928.64 -1.17915 0.879455 0
M  V30 30701 H 2930.6 -4.17193 0.0243293 0
M  V30 30702 H 2929.23 -3.18192 -0.543475 0
M  V30 30703 H 2928.28 -3.31091 1.87305 0
M  V30 30704 H 2929.59 -4.44526 2.26269 0
M  V30 30705 H 2928.74 -6.04361 0.532189 0
M  V30 30706 H 2927.48 -4.87681 0.0430712 0
M  V30 30707 H 2926.49 -4.97238 2.34595 0
M  V30 30708 H 2927.71 -6.17326 2.82993 0
M  V30 30709 H 2925.66 -6.53114 0.614632 0
M  V30 30710 H 2925.58 -7.23379 2.19678 0
M  V30 30711 H 2926.84 -7.71562 1.10959 0
M  V30 30712 N 2931.07 -0.947348 -1.25949 0
M  V30 30713 C 2931.98 -0.46812 -2.29882 0
M  V30 30714 C 2933 0.460946 -1.67783 0
M  V30 30715 O 2934.17 0.338971 -1.98527 0
M  V30 30716 C 2931.24 0.253254 -3.45774 0
M  V30 30717 C 2930.3 -0.713129 -4.23336 0
M  V30 30718 C 2929.53 -0.0260868 -5.33694 0
M  V30 30719 O 2929.76 1.18968 -5.57856 0
M  V30 30720 O 2928.69 -0.707925 -5.97722 0
M  V30 30721 H 2932.52 -1.33161 -2.7295 0
M  V30 30722 H 2930.1 -0.713491 -1.31262 0
M  V30 30723 H 2931.98 0.65935 -4.1621 0
M  V30 30724 H 2930.66 1.09204 -3.04723 0
M  V30 30725 H 2929.57 -1.16929 -3.55357 0
M  V30 30726 H 2930.9 -1.51971 -4.68151 0
M  V30 30727 N 2932.55 1.40444 -0.715075 0
M  V30 30728 C 2933.78 2.05209 -0.263995 0
M  V30 30729 C 2934.19 1.53873 1.094 0
M  V30 30730 O 2933.55 0.695094 1.68744 0
M  V30 30731 C 2933.6 3.60738 -0.234608 0
M  V30 30732 O 2933.32 4.10179 -1.53898 0
M  V30 30733 C 2934.82 4.42676 0.235086 0
M  V30 30734 H 2932.04 0.660405 -0.118771 0
M  V30 30735 H 2934.59 1.79862 -0.973139 0
M  V30 30736 H 2932.74 3.85056 0.425496 0
M  V30 30737 H 2933.16 5.0437 -1.43912 0
M  V30 30738 H 2934.63 5.51621 0.204501 0
M  V30 30739 H 2935.11 4.2022 1.27716 0
M  V30 30740 H 2935.71 4.23464 -0.394723 0
M  V30 30741 N 2934.03 0.461222 1.507 0
M  V30 30742 C 2934.98 -0.352191 2.29918 0
M  V30 30743 C 2935.97 -0.999379 1.3678 0
M  V30 30744 O 2937.18 -0.931612 1.54016 0
M  V30 30745 H 2933.55 -0.13241 0.740251 0
M  V30 30746 H 2935.52 0.336477 2.96497 0
M  V30 30747 C 2934.27 -1.4273 3.17054 0
M  V30 30748 H 2933.59 -0.938678 3.88624 0
M  V30 30749 H 2935.03 -1.96922 3.75497 0
M  V30 30750 C 2933.49 -2.4238 2.33995 0
M  V30 30751 O 2934.02 -3.4744 2.01614 0
M  V30 30752 N 2932.23 -2.13853 1.96761 0
M  V30 30753 H 2931.78 -1.28443 2.23294 0
M  V30 30754 H 2931.73 -2.80764 1.41489 0
M  V30 30755 N 2935.51 -1.56408 0.193449 0
M  V30 30756 C 2936.74 -2.01623 -0.450748 0
M  V30 30757 C 2937.14 -1.07275 -1.55848 0
M  V30 30758 O 2936.49 -0.0695198 -1.83568 0
M  V30 30759 C 2936.55 -3.43236 -1.06907 0
M  V30 30760 C 2936.21 -4.5689 -0.100272 0
M  V30 30761 C 2937.21 -5.15305 0.689724 0
M  V30 30762 C 2934.9 -5.02299 0.0103318 0
M  V30 30763 C 2936.89 -6.17576 1.5773 0
M  V30 30764 C 2934.58 -6.04414 0.901474 0
M  V30 30765 C 2935.57 -6.61926 1.68353 0
M  V30 30766 O 2935.26 -7.62058 2.55974 0
M  V30 30767 H 2934.99 -0.665682 -0.117659 0
M  V30 30768 H 2937.55 -2.03213 0.298935 0
M  V30 30769 H 2935.78 -3.38628 -1.86731 0
M  V30 30770 H 2937.47 -3.72269 -1.61774 0
M  V30 30771 H 2938.23 -4.8109 0.614569 0
M  V30 30772 H 2934.11 -4.57232 -0.58821 0
M  V30 30773 H 2937.66 -6.62393 2.18817 0
M  V30 30774 H 2933.55 -6.38052 0.977749 0
M  V30 30775 H 2934.32 -7.79471 2.49735 0
M  V30 30776 N 2936.98 0.0801629 -1.57396 0
M  V30 30777 C 2938.23 0.779669 -1.86022 0
M  V30 30778 C 2938.55 1.79161 -0.784896 0
M  V30 30779 O 2939.75 2.54009 -0.958735 0
M  V30 30780 C 2938.21 1.43752 -3.29944 0
M  V30 30781 C 2937.82 0.464576 -4.45585 0
M  V30 30782 C 2939.56 2.11988 -3.67779 0
M  V30 30783 C 2937.47 1.12787 -5.80546 0
M  V30 30784 H 2936.4 0.294931 -0.693925 0
M  V30 30785 H 2939.05 0.0328205 -1.83471 0
M  V30 30786 H 2937.43 2.23234 -3.27082 0
M  V30 30787 H 2938.6 -0.29983 -4.59824 0
M  V30 30788 H 2936.92 -0.112886 -4.16247 0
M  V30 30789 H 2939.52 2.62374 -4.65901 0
M  V30 30790 H 2939.86 2.91555 -2.97155 0
M  V30 30791 H 2940.39 1.39348 -3.72595 0
M  V30 30792 H 2937.13 0.372692 -6.5444 0
M  V30 30793 H 2936.65 1.86334 -5.70123 0
M  V30 30794 H 2938.33 1.65009 -6.25604 0
M  V30 30795 N 2938.46 1.53634 0.351355 0
M  V30 30796 C 2939.74 1.61122 1.10901 0
M  V30 30797 C 2940.12 0.427593 2.06724 0
M  V30 30798 O 2939.47 -0.580877 2.20993 0
M  V30 30799 C 2939.68 2.9683 1.83556 0
M  V30 30800 C 2941.03 3.5191 2.37581 0
M  V30 30801 O 2942.05 2.98953 1.93663 0
M  V30 30802 O 2940.91 4.44521 3.17905 0
M  V30 30803 H 2938 0.651377 0.509546 0
M  V30 30804 H 2940.55 1.65978 0.353475 0
M  V30 30805 H 2939.32 3.74416 1.13703 0
M  V30 30806 H 2938.94 2.9553 2.65985 0
M  V30 30807 N 2939.94 -0.611943 1.45234 0
M  V30 30808 C 2941.17 -1.39578 1.5232 0
M  V30 30809 C 2941.58 -1.88579 0.153126 0
M  V30 30810 O 2940.92 -1.62602 -0.854763 0
M  V30 30811 C 2940.98 -2.63771 2.44265 0
M  V30 30812 C 2940.65 -2.36438 3.91083 0
M  V30 30813 C 2941.64 -1.9707 4.81102 0
M  V30 30814 C 2939.33 -2.49484 4.35962 0
M  V30 30815 C 2941.32 -1.71104 6.14005 0
M  V30 30816 C 2939.01 -2.23132 5.68907 0
M  V30 30817 C 2940.01 -1.84003 6.57748 0
M  V30 30818 O 2939.7 -1.57956 7.88229 0
M  V30 30819 H 2939.43 -0.433821 0.518435 0
M  V30 30820 H 2941.98 -0.753803 1.91068 0
M  V30 30821 H 2940.21 -3.30673 2.0048 0
M  V30 30822 H 2941.9 -3.25808 2.42083 0
M  V30 30823 H 2942.67 -1.86531 4.47695 0
M  V30 30824 H 2938.55 -2.78908 3.67058 0
M  V30 30825 H 2942.09 -1.40488 6.83307 0
M  V30 30826 H 2937.99 -2.33287 6.0187 0
M  V30 30827 H 2938.76 -1.72044 8.00214 0
M  V30 30828 N 2941.42 -1.32452 -0.854063 0
M  V30 30829 C 2942.35 -1.24048 -1.97824 0
M  V30 30830 C 2943.33 -0.124196 -1.69646 0
M  V30 30831 O 2944.51 -0.311464 -1.91686 0
M  V30 30832 C 2941.64 -0.963383 -3.33671 0
M  V30 30833 C 2940.6 -2.04096 -3.76203 0
M  V30 30834 C 2939.92 -1.61627 -5.09687 0
M  V30 30835 C 2941.22 -3.45604 -3.91606 0
M  V30 30836 H 2942.92 -2.18102 -2.05114 0
M  V30 30837 H 2940.46 -1.04998 -0.98547 0
M  V30 30838 H 2942.42 -0.891134 -4.1187 0
M  V30 30839 H 2941.14 0.0128074 -3.26597 0
M  V30 30840 H 2939.8 -2.10337 -3.00256 0
M  V30 30841 H 2939.45 -0.627506 -4.9907 0
M  V30 30842 H 2939.15 -2.33726 -5.39116 0
M  V30 30843 H 2940.67 -1.55839 -5.90378 0
M  V30 30844 H 2942.09 -3.41948 -4.60157 0
M  V30 30845 H 2940.48 -4.16058 -4.32453 0
M  V30 30846 H 2941.55 -3.85222 -2.94503 0
M  V30 30847 N 2942.9 1.07041 -1.15672 0
M  V30 30848 C 2944.14 1.81289 -0.944121 0
M  V30 30849 C 2944.5 1.84845 0.519273 0
M  V30 30850 O 2945.7 2.54996 0.850312 0
M  V30 30851 C 2943.97 3.22264 -1.54534 0
M  V30 30852 S 2945.53 4.1322 -1.4763 0
M  V30 30853 H 2942.35 0.624596 -0.339707 0
M  V30 30854 H 2944.95 1.28566 -1.47279 0
M  V30 30855 H 2943.66 3.17267 -2.60327 0
M  V30 30856 H 2943.19 3.80063 -1.01567 0
M  V30 30857 H 2945.2 4.93956 -0.471347 0
M  V30 30858 N 2944.38 0.954014 1.25445 0
M  V30 30859 C 2945.32 0.46482 2.27908 0
M  V30 30860 C 2946.32 -0.464578 1.62905 0
M  V30 30861 O 2947.52 -0.341376 1.76733 0
M  V30 30862 H 2943.9 0.131811 0.740358 0
M  V30 30863 H 2945.87 1.34127 2.66557 0
M  V30 30864 C 2944.62 -0.242528 3.46853 0
M  V30 30865 H 2943.94 0.463488 3.97104 0
M  V30 30866 H 2945.38 -0.548845 4.20433 0
M  V30 30867 C 2943.84 -1.46482 3.03389 0
M  V30 30868 O 2944.37 -2.56257 3.09347 0
M  V30 30869 N 2942.58 -1.32595 2.58587 0
M  V30 30870 H 2942.12 -0.432789 2.53938 0
M  V30 30871 H 2942.08 -2.14493 2.2987 0
M  V30 30872 N 2945.85 -1.40063 0.722513 0
M  V30 30873 C 2947.08 -2.05589 0.273483 0
M  V30 30874 C 2947.5 -1.54095 -1.07872 0
M  V30 30875 O 2946.86 -0.679282 -1.68094 0
M  V30 30876 C 2946.91 -3.5958 0.271087 0
M  V30 30877 O 2946.01 -4.05607 -0.745427 0
M  V30 30878 H 2945.35 -0.651767 0.126867 0
M  V30 30879 H 2947.88 -1.79332 0.984938 0
M  V30 30880 H 2947.89 -4.07849 0.111156 0
M  V30 30881 H 2946.57 -3.96423 1.25783 0
M  V30 30882 H 2945.15 -3.68782 -0.552655 0
M  V30 30883 N 2947.33 -0.469207 -1.50453 0
M  V30 30884 C 2948.28 0.344542 -2.25382 0
M  V30 30885 C 2949.27 0.963075 -1.28894 0
M  V30 30886 O 2950.46 0.875937 -1.53806 0
M  V30 30887 C 2947.59 1.42705 -3.12234 0
M  V30 30888 C 2946.67 0.816338 -4.16169 0
M  V30 30889 N 2947.06 -0.0622313 -5.05762 0
M  V30 30890 C 2945.36 1.08049 -4.32714 0
M  V30 30891 C 2946.06 -0.408621 -5.80263 0
M  V30 30892 N 2945.04 0.215732 -5.43172 0
M  V30 30893 H 2948.84 -0.332288 -2.92016 0
M  V30 30894 H 2946.35 -0.283238 -1.59911 0
M  V30 30895 H 2948.35 2.02318 -3.64518 0
M  V30 30896 H 2947.01 2.10589 -2.47149 0
M  V30 30897 H 2948.02 -0.430932 -5.16104 0
M  V30 30898 H 2944.7 1.75445 -3.78847 0
M  V30 30899 H 2946.09 -1.1255 -6.62406 0
M  V30 30900 N 2948.81 1.56303 -0.201741 0
M  V30 30901 C 2949.76 2.16018 0.729406 0
M  V30 30902 C 2950.74 1.10281 1.17162 0
M  V30 30903 O 2951.94 1.36326 1.12891 0
M  V30 30904 C 2949.06 2.82825 1.94589 0
M  V30 30905 C 2948.15 3.95761 1.52427 0
M  V30 30906 N 2948.54 4.99207 0.814019 0
M  V30 30907 C 2946.84 4.07485 1.81307 0
M  V30 30908 C 2947.54 5.78579 0.601794 0
M  V30 30909 N 2946.52 5.31242 1.15253 0
M  V30 30910 H 2950.32 2.9336 0.178111 0
M  V30 30911 H 2947.83 1.624 -0.00220893 0
M  V30 30912 H 2949.83 3.24002 2.62351 0
M  V30 30913 H 2948.49 2.06973 2.50184 0
M  V30 30914 H 2949.5 5.15774 0.468781 0
M  V30 30915 H 2946.18 3.42767 2.38364 0
M  V30 30916 H 2947.57 6.71889 0.0378938 0
M  V30 30917 N 2950.29 -0.0718147 1.57436 0
M  V30 30918 C 2951.22 -1.08567 2.06726 0
M  V30 30919 C 2952.2 -1.40369 0.960756 0
M  V30 30920 O 2953.38 -1.49997 1.23348 0
M  V30 30921 C 2950.51 -2.39912 2.51117 0
M  V30 30922 C 2949.47 -2.22462 3.65643 0
M  V30 30923 C 2948.79 -3.59191 3.96089 0
M  V30 30924 C 2950.09 -1.64587 4.9569 0
M  V30 30925 H 2951.79 -0.675518 2.9168 0
M  V30 30926 H 2949.33 -0.323496 1.40319 0
M  V30 30927 H 2951.29 -3.1113 2.84211 0
M  V30 30928 H 2950.01 -2.82907 1.63191 0
M  V30 30929 H 2948.67 -1.53685 3.32831 0
M  V30 30930 H 2948.32 -3.99756 3.05294 0
M  V30 30931 H 2948.02 -3.48354 4.73205 0
M  V30 30932 H 2949.54 -4.31839 4.31679 0
M  V30 30933 H 2950.96 -2.25671 5.27015 0
M  V30 30934 H 2949.35 -1.64447 5.77128 0
M  V30 30935 H 2950.42 -0.607355 4.81081 0
M  V30 30936 N 2951.77 -1.53818 -0.343203 0
M  V30 30937 C 2953 -1.74765 -1.10185 0
M  V30 30938 C 2953.4 -0.486889 -1.82828 0
M  V30 30939 O 2952.75 0.551167 -1.75237 0
M  V30 30940 C 2952.81 -2.87379 -2.15995 0
M  V30 30941 C 2952.47 -4.26972 -1.62924 0
M  V30 30942 C 2953.47 -5.08529 -1.08138 0
M  V30 30943 C 2951.15 -4.73457 -1.6776 0
M  V30 30944 C 2953.15 -6.34673 -0.588927 0
M  V30 30945 C 2950.84 -5.99574 -1.18127 0
M  V30 30946 C 2951.83 -6.80015 -0.63786 0
M  V30 30947 O 2951.52 -8.03762 -0.148931 0
M  V30 30948 H 2951.25 -0.587475 -0.334439 0
M  V30 30949 H 2953.81 -2.01446 -0.401073 0
M  V30 30950 H 2952.04 -2.56223 -2.89632 0
M  V30 30951 H 2953.73 -2.96292 -2.77427 0
M  V30 30952 H 2954.49 -4.73779 -1.03723 0
M  V30 30953 H 2950.37 -4.10903 -2.08997 0
M  V30 30954 H 2953.92 -6.97407 -0.16411 0
M  V30 30955 H 2949.81 -6.33819 -1.22243 0
M  V30 30956 H 2950.58 -8.18067 -0.266188 0
M  V30 30957 N 2953.24 0.604233 -1.45557 0
M  V30 30958 C 2954.66 0.925345 -1.30037 0
M  V30 30959 C 2954.86 1.99869 -0.255868 0
M  V30 30960 O 2953.92 2.50076 0.349032 0
M  V30 30961 C 2955.23 1.36309 -2.6803 0
M  V30 30962 C 2956.78 1.47712 -2.75953 0
M  V30 30963 C 2957.25 1.94861 -4.14479 0
M  V30 30964 N 2958.74 2.02089 -4.1679 0
M  V30 30965 C 2959.48 2.398 -5.20849 0
M  V30 30966 N 2958.97 2.76456 -6.35251 0
M  V30 30967 N 2960.77 2.40168 -5.08208 0
M  V30 30968 H 2952.92 -0.105157 -2.1214 0
M  V30 30969 H 2955.18 0.0156137 -0.947871 0
M  V30 30970 H 2954.89 0.648568 -3.45668 0
M  V30 30971 H 2954.76 2.32894 -2.96715 0
M  V30 30972 H 2957.15 2.18255 -1.98617 0
M  V30 30973 H 2957.23 0.494327 -2.50978 0
M  V30 30974 H 2956.87 1.24904 -4.92302 0
M  V30 30975 H 2956.8 2.9406 -4.36848 0
M  V30 30976 H 2959.29 1.76338 -3.34236 0
M  V30 30977 H 2959.61 3.04122 -7.10443 0
M  V30 30978 H 2957.95 2.74144 -6.38647 0
M  V30 30979 H 2961.14 2.1094 -4.17878 0
M  V30 30980 H 2961.32 2.69231 -5.89422 0
M  V30 30981 N 2954.72 1.32903 0.847027 0
M  V30 30982 C 2956 1.14506 1.58581 0
M  V30 30983 C 2956.38 -0.291687 2.09075 0
M  V30 30984 O 2955.73 -1.28949 1.88638 0
M  V30 30985 C 2955.94 2.17921 2.72601 0
M  V30 30986 C 2957.28 2.51652 3.41989 0
M  V30 30987 O 2958.31 2.16525 2.82834 0
M  V30 30988 O 2957.17 3.11898 4.48756 0
M  V30 30989 H 2954.26 0.442357 0.698748 0
M  V30 30990 H 2956.81 1.44459 0.890491 0
M  V30 30991 H 2955.58 3.14463 2.3287 0
M  V30 30992 H 2955.2 1.89006 3.49803 0
M  V30 30993 N 2956.2 -1.06426 1.16238 0
M  V30 30994 C 2957.15 -2.13867 0.867728 0
M  V30 30995 C 2958.12 -1.65086 -0.183269 0
M  V30 30996 O 2959.3 -1.90738 -0.0487667 0
M  V30 30997 C 2956.44 -3.43073 0.373487 0
M  V30 30998 C 2955.55 -4.05596 1.48715 0
M  V30 30999 C 2954.69 -5.22671 0.948069 0
M  V30 31000 C 2953.73 -5.77175 2.03803 0
M  V30 31001 N 2952.87 -6.85568 1.51463 0
M  V30 31002 H 2957.71 -2.38411 1.78785 0
M  V30 31003 H 2955.24 -1.16976 0.891912 0
M  V30 31004 H 2957.2 -4.17144 0.0685768 0
M  V30 31005 H 2955.83 -3.18751 -0.509696 0
M  V30 31006 H 2954.88 -3.29086 1.90806 0
M  V30 31007 H 2956.19 -4.42101 2.30971 0
M  V30 31008 H 2955.35 -6.03763 0.59626 0
M  V30 31009 H 2954.09 -4.87608 0.0947938 0
M  V30 31010 H 2953.09 -4.94721 2.39856 0
M  V30 31011 H 2954.32 -6.1429 2.89525 0
M  V30 31012 H 2952.26 -6.52426 0.683869 0
M  V30 31013 H 2952.18 -7.21009 2.27338 0
M  V30 31014 H 2953.45 -7.70342 1.19136 0
M  V30 31015 N 2957.68 -0.960653 -1.24937 0
M  V30 31016 C 2958.63 -0.456305 -2.23387 0
M  V30 31017 C 2959.61 0.457792 -1.5425 0
M  V30 31018 O 2960.8 0.289863 -1.7461 0
M  V30 31019 C 2957.93 0.258964 -3.42322 0
M  V30 31020 C 2957.02 -0.673552 -4.18717 0
M  V30 31021 N 2957.41 -1.80779 -4.7239 0
M  V30 31022 C 2955.71 -0.482937 -4.43378 0
M  V30 31023 C 2956.41 -2.39049 -5.30312 0
M  V30 31024 N 2955.39 -1.67638 -5.17106 0
M  V30 31025 H 2959.19 -1.32184 -2.62497 0
M  V30 31026 H 2956.7 -0.818876 -1.40243 0
M  V30 31027 H 2958.7 0.637454 -4.11998 0
M  V30 31028 H 2957.36 1.12103 -3.04734 0
M  V30 31029 H 2958.37 -2.1895 -4.69341 0
M  V30 31030 H 2955.05 0.335748 -4.16148 0
M  V30 31031 H 2956.44 -3.34725 -5.82588 0
M  V30 31032 N 2959.16 1.39677 -0.729931 0
M  V30 31033 C 2960.39 2.0462 -0.285331 0
M  V30 31034 C 2960.79 1.55137 1.08301 0
M  V30 31035 O 2960.14 0.709176 1.69459 0
M  V30 31036 C 2960.2 3.58925 -0.203192 0
M  V30 31037 C 2959.86 4.31362 -1.50917 0
M  V30 31038 C 2960.86 4.58345 -2.45389 0
M  V30 31039 C 2958.55 4.70003 -1.77206 0
M  V30 31040 C 2960.54 5.22972 -3.64388 0
M  V30 31041 C 2958.23 5.3436 -2.96484 0
M  V30 31042 C 2959.22 5.60776 -3.89896 0
M  V30 31043 O 2958.91 6.23799 -5.0708 0
M  V30 31044 H 2958.64 0.664644 -0.123385 0
M  V30 31045 H 2961.2 1.79805 -0.992933 0
M  V30 31046 H 2959.43 3.82617 0.560471 0
M  V30 31047 H 2961.12 4.05363 0.20874 0
M  V30 31048 H 2961.88 4.28943 -2.26347 0
M  V30 31049 H 2957.76 4.48802 -1.05345 0
M  V30 31050 H 2961.31 5.43507 -4.37316 0
M  V30 31051 H 2957.2 5.63183 -3.15429 0
M  V30 31052 H 2957.97 6.42294 -5.07347 0
M  V30 31053 N 2960.63 0.47718 1.50202 0
M  V30 31054 C 2961.88 -0.0757029 2.02358 0
M  V30 31055 C 2962.21 -1.39172 1.35873 0
M  V30 31056 O 2961.46 -1.89837 0.475449 0
M  V30 31057 C 2961.76 -0.301262 3.56128 0
M  V30 31058 C 2961.43 0.933802 4.41125 0
M  V30 31059 C 2960.09 1.27241 4.64072 0
M  V30 31060 C 2962.44 1.75585 4.90734 0
M  V30 31061 C 2959.77 2.43301 5.33874 0
M  V30 31062 C 2962.12 2.90778 5.6181 0
M  V30 31063 C 2960.79 3.25047 5.8301 0
M  V30 31064 H 2960.06 -0.0277017 0.740482 0
M  V30 31065 H 2962.7 0.632499 1.80753 0
M  V30 31066 H 2961.01 -1.09177 3.76281 0
M  V30 31067 H 2962.71 -0.743115 3.94054 0
M  V30 31068 H 2959.3 0.660009 4.23488 0
M  V30 31069 H 2963.48 1.50742 4.72854 0
M  V30 31070 H 2958.74 2.70118 5.48494 0
M  V30 31071 H 2962.91 3.54818 5.99231 0
M  V30 31072 H 2960.54 4.15085 6.36874 0
M  V30 31073 N 2962.11 -1.56194 0.210027 0
M  V30 31074 C 2963.36 -1.98288 -0.425407 0
M  V30 31075 C 2963.69 -1.09727 -1.6023 0
M  V30 31076 O 2962.97 -0.152448 -1.93902 0
M  V30 31077 C 2963.25 -3.49404 -0.871127 0
M  V30 31078 C 2963.1 -4.4874 0.308606 0
M  V30 31079 C 2964.42 -4.04612 -1.73139 0
M  V30 31080 H 2961.54 -0.720911 -0.153157 0
M  V30 31081 H 2964.18 -1.87553 0.303949 0
M  V30 31082 H 2962.33 -3.58683 -1.4926 0
M  V30 31083 H 2964 -4.51484 0.946567 0
M  V30 31084 H 2962.25 -4.23091 0.957952 0
M  V30 31085 H 2962.92 -5.51981 -0.0460172 0
M  V30 31086 H 2965.39 -3.98206 -1.20713 0
M  V30 31087 H 2964.27 -5.10688 -2.01219 0
M  V30 31088 H 2964.53 -3.50785 -2.69077 0
M  V30 31089 N 2963.59 0.0634645 -1.57472 0
M  V30 31090 C 2965.01 0.418439 -1.54017 0
M  V30 31091 C 2965.21 1.78681 -0.931407 0
M  V30 31092 O 2964.26 2.46713 -0.537508 0
M  V30 31093 C 2965.58 0.351854 -2.98634 0
M  V30 31094 C 2967.12 0.431439 -3.10012 0
M  V30 31095 C 2967.6 0.394673 -4.56296 0
M  V30 31096 N 2969.09 0.454502 -4.60965 0
M  V30 31097 C 2969.82 0.448401 -5.71644 0
M  V30 31098 N 2969.32 0.39662 -6.91664 0
M  V30 31099 N 2971.11 0.495579 -5.59911 0
M  V30 31100 H 2963.26 -0.832442 -1.95408 0
M  V30 31101 H 2965.53 -0.313212 -0.894764 0
M  V30 31102 H 2965.23 -0.587109 -3.46765 0
M  V30 31103 H 2965.11 1.15887 -3.58957 0
M  V30 31104 H 2967.49 1.36083 -2.6185 0
M  V30 31105 H 2967.58 -0.404303 -2.52585 0
M  V30 31106 H 2967.22 -0.5309 -5.05118 0
M  V30 31107 H 2967.15 1.24806 -5.11597 0
M  V30 31108 H 2969.64 0.49843 -3.74599 0
M  V30 31109 H 2969.95 0.39612 -7.71784 0
M  V30 31110 H 2968.3 0.363182 -6.9405 0
M  V30 31111 H 2971.49 0.533782 -4.65047 0
M  V30 31112 H 2971.66 0.487355 -6.46165 0
M  V30 31113 N 2965.07 1.53998 0.33504 0
M  V30 31114 C 2966.32 1.71314 1.0722 0
M  V30 31115 C 2966.64 0.483519 1.8891 0
M  V30 31116 O 2965.91 -0.502537 1.89345 0
M  V30 31117 H 2964.49 0.631617 0.398834 0
M  V30 31118 H 2967.15 1.91273 0.374254 0
M  V30 31119 H 2966.25 2.58775 1.74475 0
M  V30 31120 N 2966.55 -0.596505 1.45875 0
M  V30 31121 C 2967.79 -1.35251 1.50172 0
M  V30 31122 C 2968.12 -1.94428 0.14928 0
M  V30 31123 O 2967.39 -1.7779 -0.822648 0
M  V30 31124 H 2965.97 -0.502129 0.55306 0
M  V30 31125 H 2968.63 -0.699639 1.81909 0
M  V30 31126 H 2967.72 -2.16628 2.24674 0
M  V30 31127 N 2968.02 -1.3335 -0.839967 0
M  V30 31128 C 2968.96 -1.17851 -1.95413 0
M  V30 31129 C 2969.94 -0.0742581 -1.6243 0
M  V30 31130 O 2971.12 -0.236293 -1.87013 0
M  V30 31131 C 2968.25 -0.807352 -3.28937 0
M  V30 31132 C 2967.29 -1.91894 -3.80892 0
M  V30 31133 S 2968.13 -3.52974 -4.02703 0
M  V30 31134 C 2969.28 -3.17862 -5.39179 0
M  V30 31135 H 2969.51 -2.12166 -2.08261 0
M  V30 31136 H 2967.05 -1.1818 -0.993622 0
M  V30 31137 H 2969.01 -0.599985 -4.06092 0
M  V30 31138 H 2967.67 0.117179 -3.13881 0
M  V30 31139 H 2966.86 -1.61259 -4.77506 0
M  V30 31140 H 2966.46 -2.08292 -3.10629 0
M  V30 31141 H 2968.75 -2.68619 -6.21973 0
M  V30 31142 H 2969.7 -4.13552 -5.74787 0
M  V30 31143 H 2970.1 -2.54489 -5.03881 0
M  V30 31144 N 2969.5 1.05808 -1.16801 0
M  V30 31145 C 2970.91 1.60159 -0.959478 0
M  V30 31146 C 2971.26 1.89843 0.495396 0
M  V30 31147 O 2970.39 1.67549 1.36954 0
M  V30 31148 C 2970.98 2.90984 -1.73533 0
M  V30 31149 C 2969.54 3.42018 -1.57164 0
M  V30 31150 C 2968.69 2.1584 -1.74093 0
M  V30 31151 H 2971.64 0.886969 -1.316 0
M  V30 31152 H 2971.66 3.60613 -1.21404 0
M  V30 31153 H 2971.17 2.69348 -2.79416 0
M  V30 31154 H 2969.28 3.68704 -0.537425 0
M  V30 31155 H 2969.39 4.17018 -2.35866 0
M  V30 31156 H 2967.75 2.263 -1.16878 0
M  V30 31157 H 2968.54 1.96681 -2.81374 0
M  V30 31158 N 2970.98 0.967265 1.24426 0
M  V30 31159 C 2972.21 0.646103 1.97079 0
M  V30 31160 C 2972.63 -0.777635 1.71273 0
M  V30 31161 O 2971.99 -1.52774 0.976206 0
M  V30 31162 C 2972.04 0.926328 3.48499 0
M  V30 31163 O 2971.14 0.0115378 4.12398 0
M  V30 31164 H 2970.48 0.244315 0.617419 0
M  V30 31165 H 2973.01 1.2973 1.58213 0
M  V30 31166 H 2973.02 0.857689 3.98883 0
M  V30 31167 H 2971.7 1.96393 3.6661 0
M  V30 31168 H 2970.27 0.133461 3.72661 0
M  V30 31169 N 2972.46 -1.39288 0.737328 0
M  V30 31170 C 2973.71 -2.0007 0.285727 0
M  V30 31171 C 2974.03 -1.58803 -1.13166 0
M  V30 31172 O 2973.3 -0.837339 -1.77103 0
M  V30 31173 H 2971.88 -0.739913 0.102651 0
M  V30 31174 H 2974.54 -1.70302 0.947805 0
M  V30 31175 H 2973.64 -3.10287 0.33596 0
M  V30 31176 N 2973.94 -0.485139 -1.49947 0
M  V30 31177 C 2975.18 0.0635369 -2.04301 0
M  V30 31178 C 2975.54 1.35723 -1.35806 0
M  V30 31179 O 2976.74 1.98915 -1.80793 0
M  V30 31180 C 2975.01 0.2289 -3.56666 0
M  V30 31181 S 2976.57 0.734109 -4.32616 0
M  V30 31182 H 2973.39 0.00930645 -0.710939 0
M  V30 31183 H 2975.99 -0.655487 -1.84184 0
M  V30 31184 H 2974.7 -0.718219 -4.04067 0
M  V30 31185 H 2974.23 0.973629 -3.81161 0
M  V30 31186 H 2976.24 2.00557 -4.53862 0
M  V30 31187 N 2975.42 1.56081 -0.218307 0
M  V30 31188 C 2976.64 2.03056 0.422266 0
M  V30 31189 C 2977.07 1.09715 1.52788 0
M  V30 31190 O 2976.42 0.0847505 1.81102 0
M  V30 31191 C 2976.47 3.48291 0.934116 0
M  V30 31192 O 2975.58 3.58087 2.04567 0
M  V30 31193 H 2974.92 0.657029 0.0959648 0
M  V30 31194 H 2977.45 2.01822 -0.335993 0
M  V30 31195 H 2977.46 3.88548 1.24477 0
M  V30 31196 H 2976.13 4.15712 0.12489 0
M  V30 31197 H 2974.71 3.29715 1.7419 0
M  V30 31198 N 2976.89 -0.0551124 1.57504 0
M  V30 31199 C 2978.14 -0.749587 1.87685 0
M  V30 31200 C 2978.46 -1.77263 0.812578 0
M  V30 31201 O 2977.73 -1.95271 -0.156906 0
M  V30 31202 H 2976.31 -0.279834 0.692605 0
M  V30 31203 H 2978.97 -0.0272402 1.94881 0
M  V30 31204 H 2978.07 -1.25543 2.85736 0
M  V30 31205 N 2978.37 -1.54173 -0.326869 0
M  V30 31206 C 2979.6 -1.76179 -1.08483 0
M  V30 31207 C 2980.01 -0.508819 -1.81814 0
M  V30 31208 O 2979.37 0.520331 -1.74925 0
M  V30 31209 C 2979.42 -2.9528 -2.08547 0
M  V30 31210 O 2979.14 -4.15733 -1.38194 0
M  V30 31211 C 2980.64 -3.29471 -2.96587 0
M  V30 31212 H 2977.86 -0.588239 -0.322825 0
M  V30 31213 H 2980.41 -2.01051 -0.374001 0
M  V30 31214 H 2978.56 -2.72692 -2.75169 0
M  V30 31215 H 2978.98 -4.82703 -2.05177 0
M  V30 31216 H 2980.45 -4.16116 -3.62701 0
M  V30 31217 H 2980.93 -2.46494 -3.63507 0
M  V30 31218 H 2981.53 -3.54126 -2.35531 0
M  V30 31219 N 2979.85 0.58876 -1.4619 0
M  V30 31220 C 2981.07 1.37823 -1.54982 0
M  V30 31221 C 2981.5 1.87143 -0.189531 0
M  V30 31222 O 2980.86 1.61223 0.829264 0
M  V30 31223 C 2980.91 2.54591 -2.55374 0
M  V30 31224 O 2980.01 3.55836 -2.08458 0
M  V30 31225 H 2979.35 0.410701 -0.521748 0
M  V30 31226 H 2981.88 0.714745 -1.9171 0
M  V30 31227 H 2981.89 3.01589 -2.74788 0
M  V30 31228 H 2980.57 2.18046 -3.54159 0
M  V30 31229 H 2979.14 3.15359 -1.99005 0
M  V30 31230 N 2981.33 1.33794 0.832883 0
M  V30 31231 C 2982.58 1.24935 1.58348 0
M  V30 31232 C 2982.89 -0.181669 1.94755 0
M  V30 31233 O 2984.1 -0.392328 2.6865 0
M  V30 31234 C 2982.55 2.18948 2.8564 0
M  V30 31235 C 2982.16 3.67252 2.56574 0
M  V30 31236 C 2983.9 2.18974 3.63663 0
M  V30 31237 C 2981.81 4.53162 3.79998 0
M  V30 31238 H 2980.74 0.464068 0.59427 0
M  V30 31239 H 2983.39 1.58896 0.917832 0
M  V30 31240 H 2981.77 1.77925 3.53778 0
M  V30 31241 H 2982.95 4.16751 1.9661 0
M  V30 31242 H 2981.26 3.69574 1.91844 0
M  V30 31243 H 2983.86 2.80387 4.55288 0
M  V30 31244 H 2984.2 1.18638 3.99037 0
M  V30 31245 H 2984.74 2.5839 3.02456 0
M  V30 31246 H 2981.47 5.54396 3.49751 0
M  V30 31247 H 2980.99 4.08403 4.3928 0
M  V30 31248 H 2982.67 4.67268 4.47515 0
M  V30 31249 N 2982.81 -1.05187 1.1736 0
M  V30 31250 C 2984.05 -1.78189 0.962019 0
M  V30 31251 C 2984.38 -1.87713 -0.50933 0
M  V30 31252 O 2983.64 -1.37331 -1.39423 0
M  V30 31253 C 2983.93 -3.22123 1.54827 0
M  V30 31254 C 2983.6 -3.32658 3.04384 0
M  V30 31255 C 2982.26 -3.3524 3.45207 0
M  V30 31256 C 2984.61 -3.33669 4.00392 0
M  V30 31257 C 2981.94 -3.36463 4.80635 0
M  V30 31258 C 2984.29 -3.36431 5.35721 0
M  V30 31259 C 2982.96 -3.373 5.76008 0
M  V30 31260 H 2982.23 -0.652041 0.352028 0
M  V30 31261 H 2984.88 -1.23624 1.46251 0
M  V30 31262 H 2983.18 -3.79616 0.969498 0
M  V30 31263 H 2984.88 -3.77229 1.36011 0
M  V30 31264 H 2981.47 -3.31361 2.71842 0
M  V30 31265 H 2985.65 -3.30876 3.69912 0
M  V30 31266 H 2980.91 -3.35446 5.11161 0
M  V30 31267 H 2985.08 -3.36162 6.09892 0
M  V30 31268 H 2982.71 -3.38001 6.80925 0
M  V30 31269 N 2984.28 -0.97385 -1.23911 0
M  V30 31270 C 2985.23 -0.501019 -2.2714 0
M  V30 31271 C 2986.23 0.438602 -1.63623 0
M  V30 31272 O 2987.43 0.313216 -1.77254 0
M  V30 31273 H 2983.81 -0.143573 -0.738167 0
M  V30 31274 H 2985.78 -1.38351 -2.64389 0
M  V30 31275 C 2984.53 0.187316 -3.47195 0
M  V30 31276 H 2983.85 -0.526605 -3.96317 0
M  V30 31277 H 2985.29 0.481888 -4.21253 0
M  V30 31278 C 2983.75 1.41637 -3.05681 0
M  V30 31279 O 2984.28 2.51303 -3.13384 0
M  V30 31280 N 2982.48 1.28464 -2.60663 0
M  V30 31281 H 2982.03 0.392335 -2.54595 0
M  V30 31282 H 2981.99 2.10809 -2.33253 0
M  V30 31283 N 2985.76 1.38895 -0.744705 0
M  V30 31284 C 2986.99 2.05128 -0.306155 0
M  V30 31285 C 2987.41 1.55791 1.05407 0
M  V30 31286 O 2986.77 0.705938 1.66992 0
M  V30 31287 C 2986.82 3.59103 -0.328258 0
M  V30 31288 O 2985.92 4.06742 0.680804 0
M  V30 31289 H 2985.26 0.649666 -0.13722 0
M  V30 31290 H 2987.79 1.77743 -1.01334 0
M  V30 31291 H 2987.8 4.0762 -0.176027 0
M  V30 31292 H 2986.48 3.94372 -1.32074 0
M  V30 31293 H 2985.05 3.69615 0.493915 0
M  V30 31294 N 2987.24 0.493084 1.49688 0
M  V30 31295 C 2988.17 -0.336022 2.25712 0
M  V30 31296 C 2989.15 -0.977271 1.29955 0
M  V30 31297 O 2990.34 -1.00892 1.59227 0
M  V30 31298 C 2987.46 -1.47258 3.05013 0
M  V30 31299 C 2986.51 -0.946502 4.15865 0
M  V30 31300 S 2987.34 0.156417 5.35272 0
M  V30 31301 C 2988.5 -0.983492 6.18125 0
M  V30 31302 H 2988.73 0.309267 2.95687 0
M  V30 31303 H 2986.26 0.278265 1.51872 0
M  V30 31304 H 2988.22 -2.12384 3.51288 0
M  V30 31305 H 2986.88 -2.08945 2.34522 0
M  V30 31306 H 2986.08 -1.79802 4.70837 0
M  V30 31307 H 2985.68 -0.372582 3.7214 0
M  V30 31308 H 2987.97 -1.89044 6.50591 0
M  V30 31309 H 2988.91 -0.472563 7.06521 0
M  V30 31310 H 2989.32 -1.24725 5.50549 0
M  V30 31311 N 2988.72 -1.55963 0.226582 0
M  V30 31312 C 2989.97 -1.9761 -0.404135 0
M  V30 31313 C 2990.28 -1.11743 -1.6054 0
M  V30 31314 O 2991.49 -1.43311 -2.30595 0
M  V30 31315 C 2989.94 -3.51558 -0.770404 0
M  V30 31316 C 2989.55 -4.46135 0.408322 0
M  V30 31317 C 2991.29 -4.01906 -1.36644 0
M  V30 31318 C 2989.2 -5.91397 0.0193386 0
M  V30 31319 H 2988.13 -0.737945 -0.154767 0
M  V30 31320 H 2990.78 -1.80624 0.323589 0
M  V30 31321 H 2989.16 -3.64162 -1.55569 0
M  V30 31322 H 2990.34 -4.45281 1.18583 0
M  V30 31323 H 2988.65 -4.06156 0.91793 0
M  V30 31324 H 2991.25 -5.07937 -1.67046 0
M  V30 31325 H 2991.59 -3.48053 -2.28397 0
M  V30 31326 H 2992.13 -3.92545 -0.644487 0
M  V30 31327 H 2988.87 -6.49244 0.903474 0
M  V30 31328 H 2988.39 -5.95434 -0.722381 0
M  V30 31329 H 2990.06 -6.45727 -0.405597 0
M  V30 31330 N 2990.2 0.0467589 -1.57531 0
M  V30 31331 C 2991.14 1.07136 -2.06457 0
M  V30 31332 C 2992.14 1.38545 -0.974768 0
M  V30 31333 O 2993.34 1.37657 -1.15976 0
M  V30 31334 H 2989.72 0.36295 -0.658613 0
M  V30 31335 H 2991.69 0.632762 -2.91614 0
M  V30 31336 C 2990.44 2.36923 -2.54486 0
M  V30 31337 H 2989.76 2.13611 -3.3795 0
M  V30 31338 H 2991.2 3.07002 -2.92448 0
M  V30 31339 C 2989.66 3.0465 -1.43841 0
M  V30 31340 O 2990.19 3.93763 -0.7946 0
M  V30 31341 N 2988.4 2.65684 -1.17731 0
M  V30 31342 H 2987.94 1.93304 -1.70268 0
M  V30 31343 H 2987.9 3.11319 -0.439105 0
M  V30 31344 N 2991.67 1.54344 0.318688 0
M  V30 31345 C 2992.62 1.848 1.41251 0
M  V30 31346 C 2993.62 0.720283 1.53324 0
M  V30 31347 O 2994.82 0.904019 1.55652 0
M  V30 31348 H 2991.2 0.58586 0.471458 0
M  V30 31349 H 2993.17 2.76262 1.1279 0
M  V30 31350 C 2991.92 2.09642 2.77391 0
M  V30 31351 H 2991.24 2.95881 2.68876 0
M  V30 31352 H 2992.68 2.34902 3.52983 0
M  V30 31353 C 2991.14 0.889455 3.24947 0
M  V30 31354 O 2991.67 0.101133 4.01573 0
M  V30 31355 N 2989.88 0.699734 2.8205 0
M  V30 31356 H 2989.42 1.34244 2.19855 0
M  V30 31357 H 2989.38 -0.106313 3.1422 0
M  V30 31358 N 2993.15 -0.580999 1.465 0
M  V30 31359 C 2994.4 -1.33537 1.51165 0
M  V30 31360 C 2994.71 -1.94873 0.168467 0
M  V30 31361 O 2995.92 -2.71341 0.0929307 0
M  V30 31362 C 2994.38 -2.42027 2.66366 0
M  V30 31363 C 2993.98 -1.86987 4.07112 0
M  V30 31364 C 2995.73 -3.18796 2.80303 0
M  V30 31365 C 2993.64 -2.93116 5.13651 0
M  V30 31366 H 2992.57 -0.502011 0.562584 0
M  V30 31367 H 2995.22 -0.619833 1.72715 0
M  V30 31368 H 2993.6 -3.16387 2.38149 0
M  V30 31369 H 2994.77 -1.19158 4.45127 0
M  V30 31370 H 2993.09 -1.2288 3.97856 0
M  V30 31371 H 2995.68 -3.98004 3.57067 0
M  V30 31372 H 2996.03 -3.71492 1.87881 0
M  V30 31373 H 2996.56 -2.51542 3.08174 0
M  V30 31374 H 2993.3 -2.45305 6.0787 0
M  V30 31375 H 2992.82 -3.59429 4.80178 0
M  V30 31376 H 2994.5 -3.57036 5.39568 0
M  V30 31377 N 2994.63 -1.34234 -0.825776 0
M  V30 31378 C 2995.88 -1.25773 -1.57684 0
M  V30 31379 C 2996.19 0.171338 -1.94848 0
M  V30 31380 O 2997.4 0.378076 -2.68855 0
M  V30 31381 C 2995.85 -2.20459 -2.84474 0
M  V30 31382 C 2995.46 -3.68607 -2.54623 0
M  V30 31383 C 2997.21 -2.209 -3.62496 0
M  V30 31384 C 2995.11 -4.55171 -3.77589 0
M  V30 31385 H 2994.04 -0.467213 -0.591801 0
M  V30 31386 H 2996.69 -1.59381 -0.909393 0
M  V30 31387 H 2995.08 -1.79799 -3.52829 0
M  V30 31388 H 2996.25 -4.17788 -1.94397 0
M  V30 31389 H 2994.57 -3.70586 -1.89882 0
M  V30 31390 H 2997.16 -2.82797 -4.53795 0
M  V30 31391 H 2997.51 -1.20753 -3.98402 0
M  V30 31392 H 2998.04 -2.5999 -3.01081 0
M  V30 31393 H 2994.78 -5.56243 -3.46806 0
M  V30 31394 H 2994.3 -4.10727 -4.37108 0
M  V30 31395 H 2995.98 -4.69635 -4.4503 0
M  V30 31396 N 2996.11 1.04563 -1.17917 0
M  V30 31397 C 2997.36 1.77071 -0.965847 0
M  V30 31398 C 2997.67 1.88943 0.505972 0
M  V30 31399 O 2998.88 2.58254 0.837671 0
M  V30 31400 C 2997.33 3.18336 -1.67899 0
M  V30 31401 C 2996.94 3.14575 -3.18978 0
M  V30 31402 C 2998.68 3.95257 -1.5483 0
M  V30 31403 C 2996.59 4.50667 -3.82953 0
M  V30 31404 H 2995.52 0.66373 -0.357741 0
M  V30 31405 H 2998.17 1.17151 -1.41237 0
M  V30 31406 H 2996.55 3.78622 -1.16022 0
M  V30 31407 H 2997.73 2.63769 -3.77839 0
M  V30 31408 H 2996.04 2.51153 -3.32131 0
M  V30 31409 H 2998.64 4.9589 -1.99993 0
M  V30 31410 H 2998.98 4.13289 -0.4998 0
M  V30 31411 H 2999.52 3.41534 -2.03959 0
M  V30 31412 H 2996.26 4.3784 -4.87828 0
M  V30 31413 H 2995.78 5.01596 -3.28879 0
M  V30 31414 H 2997.45 5.19594 -3.85528 0
M  V30 31415 N 2997.59 0.980408 1.23393 0
M  V30 31416 C 2999 0.689033 1.4396 0
M  V30 31417 C 2999.2 -0.744776 1.87231 0
M  V30 31418 O 2998.26 -1.51721 2.01834 0
M  V30 31419 C 2999.57 1.68397 2.49125 0
M  V30 31420 C 3001.12 1.69801 2.62938 0
M  V30 31421 C 3001.59 2.68125 3.71313 0
M  V30 31422 N 3003.09 2.66643 3.78755 0
M  V30 31423 C 3003.82 3.39391 4.6217 0
M  V30 31424 N 3003.32 4.21698 5.49675 0
M  V30 31425 N 3005.11 3.28155 4.56367 0
M  V30 31426 H 2997.26 1.90661 0.936073 0
M  V30 31427 H 2999.52 0.821563 0.473009 0
M  V30 31428 H 2999.23 2.70935 2.24248 0
M  V30 31429 H 2999.1 1.46682 3.47512 0
M  V30 31430 H 3001.49 0.679668 2.87166 0
M  V30 31431 H 3001.57 1.95582 1.64868 0
M  V30 31432 H 3001.22 3.70101 3.47833 0
M  V30 31433 H 3001.15 2.39618 4.68925 0
M  V30 31434 H 3003.64 2.0691 3.16223 0
M  V30 31435 H 3003.95 4.74063 6.10314 0
M  V30 31436 H 3002.29 4.25789 5.49298 0
M  V30 31437 H 3005.49 2.63305 3.87024 0
M  V30 31438 H 3005.66 3.85111 5.21146 0
M  V30 31439 N 2999.06 -1.38498 0.75206 0
M  V30 31440 C 3000.29 -2.04437 0.31831 0
M  V30 31441 C 3000.71 -1.5672 -1.05282 0
M  V30 31442 O 3000.06 -0.739589 -1.66842 0
M  V30 31443 C 3000.12 -3.59989 0.330169 0
M  V30 31444 O 2999.84 -4.05955 1.64719 0
M  V30 31445 C 3001.34 -4.43144 -0.117635 0
M  V30 31446 H 2998.56 -0.657024 0.136239 0
M  V30 31447 H 3001.1 -1.77218 1.02048 0
M  V30 31448 H 2999.26 -3.86049 -0.323255 0
M  V30 31449 H 2999.67 -5.00378 1.57234 0
M  V30 31450 H 3001.14 -5.51969 -0.0581764 0
M  V30 31451 H 3001.62 -4.23459 -1.1653 0
M  V30 31452 H 3002.23 -4.22269 0.506858 0
M  V30 31453 N 3000.54 -0.501015 -1.49424 0
M  V30 31454 C 3001.47 0.266734 -2.31972 0
M  V30 31455 C 3002.45 0.962538 -1.40247 0
M  V30 31456 O 3003.64 0.953938 -1.69156 0
M  V30 31457 C 3000.77 1.33157 -3.20759 0
M  V30 31458 C 2999.72 0.755646 -4.21277 0
M  V30 31459 C 2999.05 1.921 -4.99001 0
M  V30 31460 C 3000.35 -0.253304 -5.21685 0
M  V30 31461 H 3002.04 -0.422289 -2.96407 0
M  V30 31462 H 2999.59 -0.20453 -1.4254 0
M  V30 31463 H 3001.54 1.8764 -3.77319 0
M  V30 31464 H 3000.27 2.04978 -2.54266 0
M  V30 31465 H 2998.92 0.232573 -3.65862 0
M  V30 31466 H 2998.57 2.6269 -4.28956 0
M  V30 31467 H 2998.27 1.54172 -5.67014 0
M  V30 31468 H 2999.8 2.47016 -5.58404 0
M  V30 31469 H 3001.21 0.203382 -5.72939 0
M  V30 31470 H 2999.61 -0.548427 -5.97589 0
M  V30 31471 H 3000.68 -1.16918 -4.70594 0
M  V30 31472 N 3002.02 1.5584 -0.234849 0
M  V30 31473 C 3002.95 2.16871 0.710096 0
M  V30 31474 C 3003.93 1.11708 1.18153 0
M  V30 31475 O 3005.12 1.40034 1.26186 0
M  V30 31476 C 3002.24 2.7597 1.96363 0
M  V30 31477 C 3001.29 3.94079 1.63107 0
M  V30 31478 S 3002.12 5.30303 0.744214 0
M  V30 31479 C 3003.28 5.92849 2.00701 0
M  V30 31480 H 3003.51 2.96683 0.191408 0
M  V30 31481 H 3001.04 1.54388 -0.0194126 0
M  V30 31482 H 3003 3.10657 2.68332 0
M  V30 31483 H 3001.66 1.96126 2.45344 0
M  V30 31484 H 3000.86 4.33979 2.56277 0
M  V30 31485 H 3000.46 3.60607 0.991904 0
M  V30 31486 H 3002.75 6.09632 2.95559 0
M  V30 31487 H 3003.69 6.88567 1.6517 0
M  V30 31488 H 3004.1 5.21804 2.15361 0
M  V30 31489 N 3003.5 -0.038404 1.57553 0
M  V30 31490 C 3004.43 -1.04158 2.08982 0
M  V30 31491 C 3005.41 -1.383 0.990314 0
M  V30 31492 O 3006.6 -1.47347 1.26502 0
M  V30 31493 C 3003.73 -2.34531 2.56149 0
M  V30 31494 C 3002.68 -2.14656 3.70279 0
M  V30 31495 C 3002.01 -3.50708 4.03618 0
M  V30 31496 C 3003.31 -1.54036 4.99069 0
M  V30 31497 H 3005 -0.613497 2.93047 0
M  V30 31498 H 3002.55 -0.293659 1.40974 0
M  V30 31499 H 3004.5 -3.05032 2.90747 0
M  V30 31500 H 3003.22 -2.79382 1.69155 0
M  V30 31501 H 3001.88 -1.46591 3.36016 0
M  V30 31502 H 3001.53 -3.9319 3.13705 0
M  V30 31503 H 3001.23 -3.38238 4.80488 0
M  V30 31504 H 3002.75 -4.22586 4.40742 0
M  V30 31505 H 3004.17 -2.14442 5.31684 0
M  V30 31506 H 3002.56 -1.52168 5.80487 0
M  V30 31507 H 3003.63 -0.505174 4.82261 0
M  V30 31508 N 3004.98 -1.54511 -0.310498 0
M  V30 31509 C 3005.92 -1.84804 -1.38261 0
M  V30 31510 C 3006.89 -0.696168 -1.50807 0
M  V30 31511 O 3008.08 -0.943875 -1.65818 0
M  V30 31512 C 3005.22 -2.09257 -2.74419 0
M  V30 31513 C 3004.33 -3.3691 -2.70399 0
M  V30 31514 C 3003.47 -3.51255 -3.98489 0
M  V30 31515 C 3002.51 -4.72736 -3.88828 0
M  V30 31516 N 3001.64 -4.83937 -5.08674 0
M  V30 31517 H 3006.48 -2.76263 -1.11727 0
M  V30 31518 H 3004.02 -1.36807 -0.540585 0
M  V30 31519 H 3005.98 -2.21428 -3.5359 0
M  V30 31520 H 3004.61 -1.21076 -2.99233 0
M  V30 31521 H 3003.66 -3.33409 -1.83146 0
M  V30 31522 H 3004.97 -4.26197 -2.59147 0
M  V30 31523 H 3004.13 -3.63039 -4.86094 0
M  V30 31524 H 3002.87 -2.60084 -4.12562 0
M  V30 31525 H 3001.87 -4.60995 -2.99606 0
M  V30 31526 H 3003.1 -5.65305 -3.76308 0
M  V30 31527 H 3001.04 -3.95686 -5.23229 0
M  V30 31528 H 3000.96 -5.6721 -4.99809 0
M  V30 31529 H 3002.23 -5.00067 -5.97957 0
M  V30 31530 N 3006.46 0.573222 -1.46806 0
M  V30 31531 C 3007.7 1.33305 -1.52832 0
M  V30 31532 C 3008.03 1.93333 -0.183321 0
M  V30 31533 O 3007.31 1.76999 0.806323 0
M  V30 31534 C 3007.59 2.45526 -2.63418 0
M  V30 31535 C 3007.45 1.90471 -4.07481 0
M  V30 31536 C 3008.76 3.4753 -2.7002 0
M  V30 31537 H 3005.88 0.483333 -0.556379 0
M  V30 31538 H 3008.53 0.643035 -1.78788 0
M  V30 31539 H 3006.68 3.04385 -2.41417 0
M  V30 31540 H 3008.35 1.35996 -4.40798 0
M  V30 31541 H 3006.59 1.21241 -4.16513 0
M  V30 31542 H 3007.26 2.71523 -4.80603 0
M  V30 31543 H 3009.74 2.98567 -2.89823 0
M  V30 31544 H 3008.61 4.23498 -3.492 0
M  V30 31545 H 3008.87 4.05364 -1.76444 0
M  V30 31546 N 3007.93 1.3467 0.818645 0
M  V30 31547 C 3009.16 1.30165 1.60439 0
M  V30 31548 C 3009.57 -0.125546 1.88783 0
M  V30 31549 O 3008.91 -1.08434 1.48282 0
M  V30 31550 C 3008.98 2.02869 2.9679 0
M  V30 31551 C 3008.64 3.5211 2.91321 0
M  V30 31552 C 3009.64 4.46935 2.65604 0
M  V30 31553 C 3007.32 3.94585 3.10818 0
M  V30 31554 C 3009.32 5.8221 2.59442 0
M  V30 31555 C 3007 5.29959 3.0428 0
M  V30 31556 C 3008 6.23584 2.78626 0
M  V30 31557 O 3007.69 7.56476 2.72029 0
M  V30 31558 H 3007.42 0.449086 0.50527 0
M  V30 31559 H 3009.98 1.77922 1.02629 0
M  V30 31560 H 3008.21 1.49731 3.56535 0
M  V30 31561 H 3009.89 1.91598 3.57834 0
M  V30 31562 H 3010.66 4.15439 2.50271 0
M  V30 31563 H 3006.54 3.22106 3.29801 0
M  V30 31564 H 3010.08 6.55258 2.39338 0
M  V30 31565 H 3005.98 5.61073 3.19167 0
M  V30 31566 H 3006.75 7.66262 2.87725 0
M  V30 31567 N 3009.41 -1.03936 1.1847 0
M  V30 31568 C 3010.36 -2.11978 0.912897 0
M  V30 31569 C 3011.33 -1.65437 -0.148211 0
M  V30 31570 O 3012.51 -1.90798 -0.00829747 0
M  V30 31571 C 3009.65 -3.42204 0.446174 0
M  V30 31572 C 3008.77 -4.0235 1.57285 0
M  V30 31573 C 3007.9 -5.20543 1.05872 0
M  V30 31574 C 3006.94 -5.72722 2.16 0
M  V30 31575 N 3006.08 -6.82201 1.65971 0
M  V30 31576 H 3010.92 -2.34565 1.83802 0
M  V30 31577 H 3008.45 -1.15058 0.916524 0
M  V30 31578 H 3010.41 -4.16904 0.157044 0
M  V30 31579 H 3009.04 -3.1976 -0.441969 0
M  V30 31580 H 3008.09 -3.24964 1.97743 0
M  V30 31581 H 3009.41 -4.37103 2.40297 0
M  V30 31582 H 3008.56 -6.02362 0.724193 0
M  V30 31583 H 3007.3 -4.87297 0.198201 0
M  V30 31584 H 3006.3 -4.89522 2.50296 0
M  V30 31585 H 3007.53 -6.08011 3.0249 0
M  V30 31586 H 3005.48 -6.50828 0.822105 0
M  V30 31587 H 3005.39 -7.16024 2.4258 0
M  V30 31588 H 3006.66 -7.67642 1.3545 0
M  V30 31589 N 3010.89 -0.986938 -1.22871 0
M  V30 31590 C 3012.14 -0.658155 -1.91083 0
M  V30 31591 C 3012.46 0.811644 -1.77306 0
M  V30 31592 O 3011.73 1.58119 -1.15651 0
M  V30 31593 H 3010.31 -0.240439 -0.707247 0
M  V30 31594 H 3012.97 -1.25216 -1.49355 0
M  V30 31595 H 3012.07 -0.915481 -2.98371 0
M  V30 31596 N 3012.37 1.38098 -0.759394 0
M  V30 31597 C 3013.62 1.99227 -0.314899 0
M  V30 31598 C 3013.93 1.60966 1.11127 0
M  V30 31599 O 3015.14 2.15108 1.65653 0
M  V30 31600 C 3013.59 3.56239 -0.512064 0
M  V30 31601 C 3013.2 4.03446 -1.94769 0
M  V30 31602 C 3014.94 4.24299 -0.130572 0
M  V30 31603 C 3012.85 5.53121 -2.09311 0
M  V30 31604 H 3011.78 0.745333 -0.113991 0
M  V30 31605 H 3014.43 1.57788 -0.936764 0
M  V30 31606 H 3012.81 3.95595 0.179074 0
M  V30 31607 H 3013.99 3.75366 -2.67277 0
M  V30 31608 H 3012.3 3.48129 -2.28463 0
M  V30 31609 H 3014.9 5.34256 -0.217904 0
M  V30 31610 H 3015.24 4.06062 0.917572 0
M  V30 31611 H 3015.78 3.90202 -0.773784 0
M  V30 31612 H 3012.51 5.76269 -3.124 0
M  V30 31613 H 3012.03 5.82926 -1.41271 0
M  V30 31614 H 3013.71 6.18907 -1.88581 0
M  V30 31615 N 3013.85 0.508932 1.49156 0
M  V30 31616 C 3015.12 -0.0961569 1.95364 0
M  V30 31617 C 3015.5 -1.53359 1.45066 0
M  V30 31618 O 3014.85 -2.18522 0.667874 0
M  V30 31619 C 3015.06 -0.000627536 3.49 0
M  V30 31620 C 3016.41 -0.170558 4.24257 0
M  V30 31621 O 3017.43 -0.0754368 3.5612 0
M  V30 31622 O 3016.29 -0.366862 5.45267 0
M  V30 31623 H 3013.39 -0.0909345 0.821985 0
M  V30 31624 H 3015.93 0.572035 1.59768 0
M  V30 31625 H 3014.7 1.00149 3.78267 0
M  V30 31626 H 3014.33 -0.708613 3.91235 0
M  V30 31627 N 3015.32 -1.55714 0.243111 0
M  V30 31628 C 3016.25 -2.24204 -0.652297 0
M  V30 31629 C 3017.23 -1.22102 -1.18428 0
M  V30 31630 O 3018.42 -1.50745 -1.22432 0
M  V30 31631 C 3015.55 -2.93859 -1.85105 0
M  V30 31632 C 3014.5 -4.02617 -1.45201 0
M  V30 31633 C 3013.83 -4.59679 -2.73129 0
M  V30 31634 C 3015.13 -5.18536 -0.625897 0
M  V30 31635 H 3016.82 -2.9929 -0.0811978 0
M  V30 31636 H 3014.37 -1.43951 -0.0376135 0
M  V30 31637 H 3016.32 -3.40472 -2.48308 0
M  V30 31638 H 3015.05 -2.16255 -2.44747 0
M  V30 31639 H 3013.71 -3.56768 -0.843343 0
M  V30 31640 H 3013.35 -3.7878 -3.3096 0
M  V30 31641 H 3013.05 -5.33094 -2.47154 0
M  V30 31642 H 3014.58 -5.09023 -3.37236 0
M  V30 31643 H 3015.99 -5.61398 -1.16213 0
M  V30 31644 H 3014.39 -5.98316 -0.462359 0
M  V30 31645 H 3015.46 -4.83541 0.362737 0
M  V30 31646 N 3016.8 0.030048 -1.57571 0
M  V30 31647 C 3018.08 0.756415 -1.80382 0
M  V30 31648 C 3018.46 1.93627 -0.84094 0
M  V30 31649 O 3017.81 2.282 0.117103 0
M  V30 31650 C 3018.02 1.19037 -3.28072 0
M  V30 31651 C 3019.37 1.60669 -3.93028 0
M  V30 31652 O 3020.39 1.28498 -3.32215 0
M  V30 31653 O 3019.25 2.20377 -5.00096 0
M  V30 31654 H 3016.34 0.365712 -0.741744 0
M  V30 31655 H 3018.89 0.00690194 -1.69699 0
M  V30 31656 H 3017.66 0.348059 -3.89749 0
M  V30 31657 H 3017.28 1.99993 -3.4364 0
M  V30 31658 N 3018.28 1.54674 0.3023 0
M  V30 31659 C 3019.21 1.81905 1.39439 0
M  V30 31660 C 3020.23 0.701939 1.4689 0
M  V30 31661 O 3021.41 0.979395 1.49232 0
M  V30 31662 C 3018.51 1.94085 2.7782 0
M  V30 31663 C 3017.69 3.24474 2.93318 0
M  V30 31664 C 3016.75 3.27087 4.1219 0
M  V30 31665 O 3015.77 4.00624 4.04337 0
M  V30 31666 N 3016.97 2.52385 5.22764 0
M  V30 31667 H 3019.74 2.76157 1.16436 0
M  V30 31668 H 3017.3 1.54232 0.492365 0
M  V30 31669 H 3019.29 1.93237 3.55586 0
M  V30 31670 H 3017.86 1.06833 2.93778 0
M  V30 31671 H 3017.08 3.38107 2.02676 0
M  V30 31672 H 3018.37 4.10521 3.00583 0
M  V30 31673 H 3017.77 1.92268 5.32024 0
M  V30 31674 H 3016.33 2.57292 5.98869 0
M  V30 31675 N 3019.76 -0.565428 1.47108 0
M  V30 31676 C 3021.01 -1.32296 1.5331 0
M  V30 31677 C 3021.33 -1.93551 0.191934 0
M  V30 31678 O 3020.59 -1.77953 -0.814318 0
M  V30 31679 C 3020.89 -2.4595 2.59314 0
M  V30 31680 C 3020.55 -2.02578 4.02831 0
M  V30 31681 C 3019.22 -1.90466 4.41901 0
M  V30 31682 C 3021.57 -1.69362 4.92916 0
M  V30 31683 C 3018.9 -1.4342 5.689 0
M  V30 31684 C 3021.25 -1.23789 6.2037 0
M  V30 31685 C 3019.91 -1.10267 6.58329 0
M  V30 31686 H 3019.18 -0.484106 0.561001 0
M  V30 31687 H 3021.83 -0.634934 1.80668 0
M  V30 31688 H 3020.13 -3.20273 2.25682 0
M  V30 31689 H 3021.83 -3.04144 2.61337 0
M  V30 31690 H 3018.42 -2.12946 3.71957 0
M  V30 31691 H 3022.6 -1.77596 4.63436 0
M  V30 31692 H 3017.86 -1.31608 5.97067 0
M  V30 31693 H 3022.03 -0.971465 6.89591 0
M  V30 31694 H 3019.66 -0.735894 7.5663 0
M  V30 31695 N 3021.24 -1.35102 -0.811492 0
M  V30 31696 C 3022.65 -1.15033 -1.10632 0
M  V30 31697 C 3022.85 0.0405025 -2.01459 0
M  V30 31698 O 3021.91 0.712592 -2.42236 0
M  V30 31699 C 3023.22 -2.451 -1.74203 0
M  V30 31700 C 3024.77 -2.51262 -1.86645 0
M  V30 31701 C 3025.24 -3.81359 -2.53632 0
M  V30 31702 N 3026.74 -3.82583 -2.61121 0
M  V30 31703 C 3027.47 -4.79974 -3.13708 0
M  V30 31704 N 3026.97 -5.87751 -3.66771 0
M  V30 31705 N 3028.76 -4.67416 -3.12216 0
M  V30 31706 H 3020.91 -2.11383 -0.207604 0
M  V30 31707 H 3023.17 -0.935296 -0.154681 0
M  V30 31708 H 3022.88 -3.32391 -1.1493 0
M  V30 31709 H 3022.75 -2.59286 -2.73954 0
M  V30 31710 H 3025.14 -1.64402 -2.45063 0
M  V30 31711 H 3025.22 -2.40994 -0.857636 0
M  V30 31712 H 3024.87 -4.68614 -1.95865 0
M  V30 31713 H 3024.8 -3.88914 -3.5504 0
M  V30 31714 H 3027.29 -3.04707 -2.23522 0
M  V30 31715 H 3027.6 -6.58063 -4.05183 0
M  V30 31716 H 3025.94 -5.91449 -3.64983 0
M  V30 31717 H 3029.14 -3.82359 -2.70035 0
M  V30 31718 H 3029.31 -5.4348 -3.52893 0
M  V30 31719 N 3022.71 1.03306 -1.19019 0
M  V30 31720 C 3023.65 2.11068 -0.867494 0
M  V30 31721 C 3024.63 1.61669 0.173724 0
M  V30 31722 O 3025.81 1.88431 0.0509746 0
M  V30 31723 C 3022.94 3.37391 -0.297518 0
M  V30 31724 C 3021.98 4.05653 -1.31713 0
M  V30 31725 S 3022.82 4.51716 -2.87599 0
M  V30 31726 C 3023.97 5.81262 -2.32133 0
M  V30 31727 H 3024.2 2.38116 -1.78012 0
M  V30 31728 H 3021.74 1.16185 -1.01688 0
M  V30 31729 H 3023.7 4.10492 0.0248167 0
M  V30 31730 H 3022.36 3.08445 0.593346 0
M  V30 31731 H 3021.55 4.96481 -0.867351 0
M  V30 31732 H 3021.15 3.38702 -1.58609 0
M  V30 31733 H 3023.44 6.556 -1.70866 0
M  V30 31734 H 3024.39 6.31013 -3.21291 0
M  V30 31735 H 3024.79 5.36733 -1.74867 0
M  V30 31736 N 3024.19 0.99344 1.22346 0
M  V30 31737 C 3025.44 0.665053 1.9042 0
M  V30 31738 C 3025.75 -0.80648 1.782 0
M  V30 31739 O 3026.96 -1.24647 2.41196 0
M  V30 31740 C 3025.42 1.13899 3.41401 0
M  V30 31741 C 3025.02 2.63579 3.62257 0
M  V30 31742 C 3026.77 0.884957 4.15173 0
M  V30 31743 C 3024.68 3.04573 5.06941 0
M  V30 31744 H 3023.61 0.245049 0.713069 0
M  V30 31745 H 3026.26 1.20307 1.38558 0
M  V30 31746 H 3024.64 0.529096 3.92449 0
M  V30 31747 H 3025.81 3.29918 3.21699 0
M  V30 31748 H 3024.13 2.8687 3.01819 0
M  V30 31749 H 3026.72 1.16693 5.21811 0
M  V30 31750 H 3027.07 -0.178909 4.15915 0
M  V30 31751 H 3027.6 1.45707 3.70154 0
M  V30 31752 H 3024.34 4.10137 5.11339 0
M  V30 31753 H 3023.86 2.42937 5.48399 0
M  V30 31754 H 3025.54 2.95904 5.75369 0
M  V30 31755 N 3025.67 -1.37693 0.766707 0
M  V30 31756 C 3026.63 -2.28669 0.155889 0
M  V30 31757 C 3027.63 -1.47796 -0.633483 0
M  V30 31758 O 3028.82 -1.68076 -0.457814 0
M  V30 31759 C 3025.96 -3.31694 -0.786907 0
M  V30 31760 H 3027.15 -2.84194 0.957798 0
M  V30 31761 H 3024.7 -1.46874 0.534579 0
M  V30 31762 H 3025.44 -2.81283 -1.61401 0
M  V30 31763 H 3025.22 -3.91465 -0.223113 0
M  V30 31764 H 3026.71 -3.9969 -1.20987 0
M  V30 31765 N 3027.15 -0.516835 -1.48884 0
M  V30 31766 C 3028.38 0.0183387 -2.06592 0
M  V30 31767 C 3028.79 1.29915 -1.37545 0
M  V30 31768 O 3028.13 1.78038 -0.452558 0
M  V30 31769 C 3028.19 0.326252 -3.58017 0
M  V30 31770 C 3027.86 -0.859151 -4.48851 0
M  V30 31771 C 3028.85 -1.754 -4.89419 0
M  V30 31772 C 3026.54 -1.06243 -4.90935 0
M  V30 31773 C 3028.53 -2.83614 -5.70826 0
M  V30 31774 C 3026.22 -2.14773 -5.72115 0
M  V30 31775 C 3027.22 -3.03292 -6.11966 0
M  V30 31776 O 3026.9 -4.09947 -6.91519 0
M  V30 31777 H 3026.64 -0.0244141 -0.675559 0
M  V30 31778 H 3029.19 -0.718039 -1.92441 0
M  V30 31779 H 3027.42 1.11643 -3.70233 0
M  V30 31780 H 3029.11 0.801929 -3.97899 0
M  V30 31781 H 3029.88 -1.60883 -4.57539 0
M  V30 31782 H 3025.75 -0.382758 -4.59408 0
M  V30 31783 H 3029.3 -3.52734 -6.01851 0
M  V30 31784 H 3025.2 -2.29279 -6.03408 0
M  V30 31785 H 3025.96 -4.07494 -7.09853 0
M  V30 31786 N 3028.63 1.55583 -0.251365 0
M  V30 31787 C 3029.87 1.98658 0.371399 0
M  V30 31788 C 3030.2 1.1409 1.58141 0
M  V30 31789 O 3029.47 0.224742 1.94607 0
M  V30 31790 H 3028.05 0.733723 0.140212 0
M  V30 31791 H 3030.71 1.9171 -0.351191 0
M  V30 31792 H 3029.8 3.04658 0.677501 0
M  V30 31793 N 3030.1 -0.0216912 1.57585 0
M  V30 31794 C 3031.38 -0.746838 1.80781 0
M  V30 31795 C 3031.76 -1.93178 0.851197 0
M  V30 31796 O 3031.11 -2.28259 -0.104999 0
M  V30 31797 C 3031.32 -1.17296 3.28698 0
M  V30 31798 C 3032.67 -1.58582 3.93874 0
M  V30 31799 O 3033.69 -1.26734 3.32892 0
M  V30 31800 O 3032.55 -2.17722 5.01258 0
M  V30 31801 H 3029.64 -0.361773 0.743673 0
M  V30 31802 H 3032.19 0.00209768 1.697 0
M  V30 31803 H 3030.96 -0.327385 3.89928 0
M  V30 31804 H 3030.59 -1.98168 3.44696 0
M  V30 31805 N 3031.58 -1.54832 -0.294093 0
M  V30 31806 C 3032.86 -1.65127 -1.04844 0
M  V30 31807 C 3033.24 -0.504022 -2.04995 0
M  V30 31808 O 3032.59 0.498457 -2.22997 0
M  V30 31809 C 3032.8 -3.03438 -1.72413 0
M  V30 31810 C 3034.15 -3.60485 -2.24356 0
M  V30 31811 O 3035.17 -3.05935 -1.82434 0
M  V30 31812 O 3034.03 -4.56013 -3.01188 0
M  V30 31813 H 3031.12 -0.669839 -0.48502 0
M  V30 31814 H 3033.67 -1.67175 -0.29163 0
M  V30 31815 H 3032.44 -3.78378 -0.997285 0
M  V30 31816 H 3032.06 -3.05198 -2.54833 0
M  V30 31817 N 3033.06 0.557619 -1.47405 0
M  V30 31818 C 3034.31 1.31676 -1.54238 0
M  V30 31819 C 3034.64 1.93128 -0.203816 0
M  V30 31820 O 3033.92 1.77844 0.787505 0
M  V30 31821 C 3034.2 2.42718 -2.66007 0
M  V30 31822 C 3034.05 1.86138 -4.09478 0
M  V30 31823 C 3035.37 3.44647 -2.73691 0
M  V30 31824 H 3032.49 0.477405 -0.561474 0
M  V30 31825 H 3035.13 0.624036 -1.7946 0
M  V30 31826 H 3033.28 3.01807 -2.44632 0
M  V30 31827 H 3034.95 1.31313 -4.42215 0
M  V30 31828 H 3033.2 1.16816 -4.17776 0
M  V30 31829 H 3033.87 2.6641 -4.83456 0
M  V30 31830 H 3036.34 2.95476 -2.92973 0
M  V30 31831 H 3035.22 4.19771 -3.53672 0
M  V30 31832 H 3035.48 4.0347 -1.80733 0
M  V30 31833 N 3034.54 1.35531 0.804316 0
M  V30 31834 C 3035.79 1.28265 1.55663 0
M  V30 31835 C 3036.1 -0.140317 1.95096 0
M  V30 31836 O 3037.31 -0.335255 2.69422 0
M  V30 31837 C 3035.76 2.24957 2.80931 0
M  V30 31838 C 3035.37 3.72611 2.48726 0
M  V30 31839 C 3037.12 2.26639 3.58936 0
M  V30 31840 C 3035.02 4.6112 3.703 0
M  V30 31841 H 3033.95 0.476569 0.584293 0
M  V30 31842 H 3036.6 1.60808 0.883922 0
M  V30 31843 H 3034.99 1.85389 3.49924 0
M  V30 31844 H 3036.16 4.20827 1.87726 0
M  V30 31845 H 3034.47 3.7356 1.83962 0
M  V30 31846 H 3037.07 2.89981 4.49238 0
M  V30 31847 H 3037.41 1.27076 3.96431 0
M  V30 31848 H 3037.95 2.64747 2.96907 0
M  V30 31849 H 3034.69 5.6169 3.37912 0
M  V30 31850 H 3034.21 4.17629 4.30519 0
M  V30 31851 H 3035.89 4.76655 4.37503 0
M  V30 31852 N 3036.02 -1.02674 1.19565 0
M  V30 31853 C 3036.98 -2.09162 0.937218 0
M  V30 31854 C 3037.98 -1.60585 -0.0831644 0
M  V30 31855 O 3039.17 -1.73537 0.15181 0
M  V30 31856 C 3036.3 -3.38438 0.408971 0
M  V30 31857 H 3037.5 -2.33522 1.88168 0
M  V30 31858 H 3035.05 -1.19317 1.00961 0
M  V30 31859 H 3035.78 -3.19748 -0.541441 0
M  V30 31860 H 3035.57 -3.75018 1.14471 0
M  V30 31861 H 3037.06 -4.16867 0.247316 0
M  V30 31862 N 3037.5 -0.999914 -1.21817 0
M  V30 31863 C 3038.72 -0.698128 -1.95297 0
M  V30 31864 C 3039.15 0.731952 -1.73275 0
M  V30 31865 O 3038.5 1.50132 -1.01637 0
M  V30 31866 C 3038.55 -1.0184 -3.4592 0
M  V30 31867 O 3037.66 -0.120874 -4.12223 0
M  V30 31868 H 3037 -0.260599 -0.610724 0
M  V30 31869 H 3039.53 -1.33879 -1.54718 0
M  V30 31870 H 3039.54 -0.963144 -3.96469 0
M  V30 31871 H 3038.21 -2.06044 -3.61274 0
M  V30 31872 H 3036.79 -0.232219 -3.72176 0
M  V30 31873 N 3038.97 1.37284 -0.773999 0
M  V30 31874 C 3040.2 2.03609 -0.350285 0
M  V30 31875 C 3040.61 1.58504 1.03311 0
M  V30 31876 O 3039.95 0.762729 1.67117 0
M  V30 31877 C 3040.02 3.58097 -0.317278 0
M  V30 31878 C 3039.68 4.26342 -1.64564 0
M  V30 31879 C 3040.68 4.50306 -2.59847 0
M  V30 31880 C 3038.36 4.64128 -1.92069 0
M  V30 31881 C 3040.36 5.11115 -3.80842 0
M  V30 31882 C 3038.04 5.24657 -3.13334 0
M  V30 31883 C 3039.04 5.48088 -4.07539 0
M  V30 31884 O 3038.73 6.07351 -5.26669 0
M  V30 31885 H 3038.46 0.660383 -0.144467 0
M  V30 31886 H 3041.02 1.76556 -1.04963 0
M  V30 31887 H 3039.25 3.84206 0.438461 0
M  V30 31888 H 3040.93 4.05822 0.0796714 0
M  V30 31889 H 3041.7 4.21525 -2.39879 0
M  V30 31890 H 3037.58 4.45224 -1.1957 0
M  V30 31891 H 3041.12 5.29319 -4.54386 0
M  V30 31892 H 3037.02 5.52863 -3.33186 0
M  V30 31893 H 3037.79 6.25828 -5.27524 0
M  V30 31894 N 3040.45 0.524724 1.48608 0
M  V30 31895 C 3041.86 0.0829174 1.86516 0
M  V30 31896 C 3042.21 -1.3382 1.43481 0
M  V30 31897 O 3041.34 -2.00132 0.823174 0
M  V30 31898 C 3041.93 0.143699 3.38495 0
M  V30 31899 C 3040.49 -0.242885 3.75616 0
M  V30 31900 C 3039.64 0.505795 2.72648 0
M  V30 31901 H 3042.59 0.736257 1.40588 0
M  V30 31902 H 3042.61 -0.645889 3.74978 0
M  V30 31903 H 3042.12 1.17812 3.69786 0
M  V30 31904 H 3040.22 -1.27964 3.49937 0
M  V30 31905 H 3040.34 0.0930676 4.7901 0
M  V30 31906 H 3038.7 -0.0473034 2.54656 0
M  V30 31907 H 3039.48 1.54074 3.06783 0
M  V30 31908 N 3041.93 -1.55447 0.259613 0
M  V30 31909 C 3043.18 -2.00275 -0.355171 0
M  V30 31910 C 3043.53 -1.1448 -1.54635 0
M  V30 31911 O 3042.82 -0.203248 -1.90519 0
M  V30 31912 C 3043.02 -3.4827 -0.802666 0
M  V30 31913 C 3042.85 -4.48385 0.343609 0
M  V30 31914 C 3041.62 -4.98563 0.822405 0
M  V30 31915 C 3043.81 -5.007 1.17491 0
M  V30 31916 N 3041.8 -5.82449 1.93976 0
M  V30 31917 C 3043.17 -5.81881 2.14042 0
M  V30 31918 C 3045.22 -4.82973 1.21002 0
M  V30 31919 C 3043.93 -6.47227 3.13831 0
M  V30 31920 C 3045.95 -5.49106 2.19628 0
M  V30 31921 C 3045.31 -6.30086 3.14914 0
M  V30 31922 H 3041.41 -0.776138 -0.0955687 0
M  V30 31923 H 3044 -1.90954 0.380096 0
M  V30 31924 H 3042.17 -3.57964 -1.50719 0
M  V30 31925 H 3043.9 -3.79953 -1.39347 0
M  V30 31926 H 3040.65 -4.71871 0.404355 0
M  V30 31927 H 3041.08 -6.29086 2.50159 0
M  V30 31928 H 3045.72 -4.19984 0.487178 0
M  V30 31929 H 3043.44 -7.09375 3.87057 0
M  V30 31930 H 3047.02 -5.37338 2.23067 0
M  V30 31931 H 3045.9 -6.80355 3.89982 0
M  V30 31932 N 3043.41 0.0133338 -1.57594 0
M  V30 31933 C 3044.82 0.557905 -1.78169 0
M  V30 31934 C 3045.17 1.74718 -0.892646 0
M  V30 31935 O 3044.29 2.16206 -0.0915871 0
M  V30 31936 C 3044.89 1.01888 -3.23116 0
M  V30 31937 C 3043.45 1.50886 -3.44834 0
M  V30 31938 C 3042.6 0.453996 -2.73558 0
M  V30 31939 H 3045.55 -0.21287 -1.57266 0
M  V30 31940 H 3045.57 1.88554 -3.30496 0
M  V30 31941 H 3045.08 0.153107 -3.87798 0
M  V30 31942 H 3043.18 2.39597 -2.85349 0
M  V30 31943 H 3043.29 1.54551 -4.53487 0
M  V30 31944 H 3041.66 0.912624 -2.37788 0
M  V30 31945 H 3042.44 -0.402584 -3.40931 0
M  V30 31946 N 3044.89 1.54985 0.285878 0
M  V30 31947 C 3046.13 1.74191 1.01688 0
M  V30 31948 C 3046.45 0.543168 1.87907 0
M  V30 31949 O 3047.65 0.617352 2.64388 0
M  V30 31950 C 3046.11 3.08244 1.85779 0
M  V30 31951 C 3045.72 4.35644 1.0449 0
M  V30 31952 C 3047.46 3.36803 2.58388 0
M  V30 31953 C 3045.37 5.60741 1.87945 0
M  V30 31954 H 3044.3 0.649255 0.383385 0
M  V30 31955 H 3046.95 1.81456 0.273138 0
M  V30 31956 H 3045.33 2.94982 2.642 0
M  V30 31957 H 3046.51 4.59784 0.305766 0
M  V30 31958 H 3044.82 4.14133 0.43395 0
M  V30 31959 H 3047.42 4.2747 3.21206 0
M  V30 31960 H 3047.76 2.56355 3.28006 0
M  V30 31961 H 3048.29 3.51103 1.87006 0
M  V30 31962 H 3045.03 6.43901 1.2277 0
M  V30 31963 H 3044.55 5.40764 2.5949 0
M  V30 31964 H 3046.23 5.98563 2.45625 0
M  V30 31965 N 3046.36 -0.549794 1.47699 0
M  V30 31966 C 3047.64 -1.31072 1.45188 0
M  V30 31967 C 3048.02 -2.10546 0.152805 0
M  V30 31968 O 3047.37 -2.11467 -0.865669 0
M  V30 31969 C 3047.58 -2.20897 2.70195 0
M  V30 31970 C 3048.93 -2.81678 3.17715 0
M  V30 31971 O 3049.95 -2.31195 2.70975 0
M  V30 31972 O 3048.81 -3.73453 3.98992 0
M  V30 31973 H 3045.9 -0.590567 0.57893 0
M  V30 31974 H 3048.45 -0.568084 1.59909 0
M  V30 31975 H 3047.22 -1.61822 3.56272 0
M  V30 31976 H 3046.85 -3.02443 2.58097 0
M  V30 31977 N 3047.84 -1.35955 -0.797117 0
M  V30 31978 C 3048.81 -1.29512 -1.89102 0
M  V30 31979 C 3049.81 -0.204472 -1.59495 0
M  V30 31980 O 3051 -0.458775 -1.6805 0
M  V30 31981 C 3048.13 -1.00582 -3.25724 0
M  V30 31982 H 3049.32 -2.26788 -1.96233 0
M  V30 31983 H 3046.87 -1.20616 -0.994053 0
M  V30 31984 H 3047.61 -0.0373089 -3.24279 0
M  V30 31985 H 3047.39 -1.79498 -3.48601 0
M  V30 31986 H 3048.88 -0.98658 -4.05779 0
M  V30 31987 N 3049.32 1.02038 -1.20108 0
M  V30 31988 C 3050.55 1.79721 -1.03514 0
M  V30 31989 C 3050.97 1.83548 0.411296 0
M  V30 31990 O 3050.33 1.26775 1.29606 0
M  V30 31991 C 3050.38 3.22221 -1.61882 0
M  V30 31992 O 3049.48 4.03463 -0.853884 0
M  V30 31993 H 3048.82 0.554477 -0.365309 0
M  V30 31994 H 3051.35 1.2837 -1.59318 0
M  V30 31995 H 3051.36 3.72945 -1.65457 0
M  V30 31996 H 3050.04 3.1875 -2.67154 0
M  V30 31997 H 3048.61 3.62073 -0.892046 0
M  V30 31998 N 3050.8 1.00636 1.21285 0
M  V30 31999 C 3051.73 0.588128 2.25972 0
M  V30 32000 C 3052.71 -0.391735 1.65528 0
M  V30 32001 O 3053.89 -0.279418 1.92179 0
M  V30 32002 C 3051.02 -0.0846726 3.47197 0
M  V30 32003 C 3049.98 0.815113 4.20167 0
M  V30 32004 C 3049.3 0.00864792 5.34699 0
M  V30 32005 C 3050.6 2.11836 4.77412 0
M  V30 32006 H 3052.3 1.46322 2.61209 0
M  V30 32007 H 3049.84 0.705007 1.25561 0
M  V30 32008 H 3051.8 -0.388747 4.19603 0
M  V30 32009 H 3050.52 -0.994401 3.11094 0
M  V30 32010 H 3049.18 1.10303 3.49612 0
M  V30 32011 H 3048.83 -0.902412 4.94839 0
M  V30 32012 H 3048.53 0.607767 5.84448 0
M  V30 32013 H 3050.05 -0.28921 6.09915 0
M  V30 32014 H 3051.47 1.87735 5.41691 0
M  V30 32015 H 3049.86 2.66745 5.37557 0
M  V30 32016 H 3050.93 2.78823 3.96719 0
M  V30 32017 N 3052.28 -1.36872 0.781268 0
M  V30 32018 C 3053.21 -2.32741 0.188169 0
M  V30 32019 C 3054.19 -1.5625 -0.672299 0
M  V30 32020 O 3055.37 -1.84444 -0.607802 0
M  V30 32021 C 3052.5 -3.40492 -0.684281 0
M  V30 32022 C 3051.46 -4.27933 0.0756394 0
M  V30 32023 C 3050.78 -5.2678 -0.916875 0
M  V30 32024 C 3052.08 -5.0687 1.26015 0
M  V30 32025 H 3053.78 -2.82591 0.989066 0
M  V30 32026 H 3051.32 -1.35868 0.477062 0
M  V30 32027 H 3053.28 -4.06543 -1.10908 0
M  V30 32028 H 3052 -2.89189 -1.5178 0
M  V30 32029 H 3050.66 -3.63427 0.481322 0
M  V30 32030 H 3050.31 -4.71754 -1.7452 0
M  V30 32031 H 3050.01 -5.86148 -0.412897 0
M  V30 32032 H 3051.53 -5.95706 -1.34041 0
M  V30 32033 H 3052.94 -5.66007 0.911524 0
M  V30 32034 H 3051.34 -5.7561 1.69686 0
M  V30 32035 H 3052.41 -4.38988 2.05956 0
M  V30 32036 N 3053.75 -0.532597 -1.48328 0
M  V30 32037 C 3054.72 0.218029 -2.28161 0
M  V30 32038 C 3055.72 0.865385 -1.35528 0
M  V30 32039 O 3056.91 0.725033 -1.58395 0
M  V30 32040 C 3054.04 1.31581 -3.14483 0
M  V30 32041 H 3055.23 -0.482917 -2.95986 0
M  V30 32042 H 3052.79 -0.28863 -1.53612 0
M  V30 32043 H 3053.52 2.04992 -2.51294 0
M  V30 32044 H 3053.31 0.856711 -3.82626 0
M  V30 32045 H 3054.8 1.8437 -3.74696 0
M  V30 32046 N 3055.23 1.55307 -0.267853 0
M  V30 32047 C 3056.14 2.25898 0.633015 0
M  V30 32048 C 3057.16 1.28233 1.1761 0
M  V30 32049 O 3058.33 1.61155 1.20794 0
M  V30 32050 C 3055.4 2.96074 1.80391 0
M  V30 32051 C 3054.46 4.092 1.29822 0
M  V30 32052 C 3053.69 4.7602 2.41331 0
M  V30 32053 O 3053.92 4.42012 3.60529 0
M  V30 32054 O 3052.85 5.64115 2.09899 0
M  V30 32055 H 3056.68 3.03638 0.0613848 0
M  V30 32056 H 3054.26 1.49358 -0.0355334 0
M  V30 32057 H 3056.14 3.40201 2.48679 0
M  V30 32058 H 3054.82 2.21257 2.36277 0
M  V30 32059 H 3053.73 3.69545 0.582021 0
M  V30 32060 H 3055.06 4.85897 0.785202 0
M  V30 32061 N 3056.71 -0.00497598 1.57599 0
M  V30 32062 C 3057.67 -0.982796 2.0706 0
M  V30 32063 C 3058.67 -1.27557 0.979068 0
M  V30 32064 O 3059.86 -1.22159 1.24189 0
M  V30 32065 C 3057 -2.30909 2.50786 0
M  V30 32066 H 3058.19 -0.555067 2.94719 0
M  V30 32067 H 3055.74 -0.252343 1.5425 0
M  V30 32068 H 3056.48 -2.78382 1.66356 0
M  V30 32069 H 3056.26 -2.10981 3.30499 0
M  V30 32070 H 3057.75 -3.01064 2.89396 0
M  V30 32071 N 3058.19 -1.55135 -0.277654 0
M  V30 32072 C 3059.44 -1.75175 -1.00788 0
M  V30 32073 C 3059.76 -0.553299 -1.86986 0
M  V30 32074 O 3059.03 0.431917 -1.91079 0
M  V30 32075 H 3057.61 -0.645984 -0.375118 0
M  V30 32076 H 3060.27 -1.9253 -0.303007 0
M  V30 32077 H 3059.37 -2.65073 -1.64751 0
M  V30 32078 N 3059.67 0.541953 -1.47989 0
M  V30 32079 C 3060.61 1.64767 -1.61618 0
M  V30 32080 C 3061.58 1.59643 -0.45863 0
M  V30 32081 O 3062.77 1.78248 -0.680617 0
M  V30 32082 C 3059.91 3.0306 -1.65072 0
M  V30 32083 C 3059.02 3.18508 -2.91851 0
M  V30 32084 C 3058.16 4.47289 -2.86541 0
M  V30 32085 C 3057.2 4.56223 -4.08078 0
M  V30 32086 N 3056.33 5.76378 -4.00915 0
M  V30 32087 H 3061.17 1.52456 -2.56049 0
M  V30 32088 H 3058.71 0.742427 -1.2699 0
M  V30 32089 H 3060.67 3.83161 -1.65056 0
M  V30 32090 H 3059.3 3.1417 -0.741416 0
M  V30 32091 H 3058.35 2.31738 -3.01665 0
M  V30 32092 H 3059.66 3.20971 -3.8181 0
M  V30 32093 H 3058.82 5.35667 -2.8486 0
M  V30 32094 H 3057.55 4.47328 -1.94291 0
M  V30 32095 H 3056.56 3.66253 -4.10047 0
M  V30 32096 H 3057.78 4.57931 -5.01474 0
M  V30 32097 H 3055.73 5.77337 -3.11477 0
M  V30 32098 H 3055.65 5.80285 -4.84568 0
M  V30 32099 H 3056.92 6.67076 -4.03274 0
M  V30 32100 N 3061.15 1.36376 0.789896 0
M  V30 32101 C 3062.42 1.21128 1.53581 0
M  V30 32102 C 3062.8 -0.202748 2.10124 0
M  V30 32103 O 3062.15 -1.20832 1.93938 0
M  V30 32104 C 3062.36 2.29287 2.63113 0
M  V30 32105 C 3063.71 2.6593 3.31008 0
M  V30 32106 O 3064.73 2.28326 2.73396 0
M  V30 32107 O 3063.59 3.30651 4.35123 0
M  V30 32108 H 3060.69 0.471595 0.679358 0
M  V30 32109 H 3063.23 1.48106 0.82842 0
M  V30 32110 H 3062 3.24057 2.19323 0
M  V30 32111 H 3061.63 2.03672 3.41472 0
M  V30 32112 N 3062.62 -1.014 1.20647 0
M  V30 32113 C 3063.85 -1.78374 1.04241 0
M  V30 32114 C 3064.26 -1.84675 -0.411294 0
M  V30 32115 O 3063.6 -1.30059 -1.29731 0
M  V30 32116 C 3063.67 -3.24199 1.55354 0
M  V30 32117 C 3063.33 -3.41499 3.0369 0
M  V30 32118 C 3064.33 -3.30507 4.01324 0
M  V30 32119 C 3062.01 -3.67231 3.42705 0
M  V30 32120 C 3064.01 -3.44998 5.35962 0
M  V30 32121 C 3061.69 -3.81365 4.77498 0
M  V30 32122 C 3062.69 -3.70253 5.73935 0
M  V30 32123 O 3062.38 -3.8395 7.06284 0
M  V30 32124 H 3062.11 -0.567711 0.366988 0
M  V30 32125 H 3064.67 -1.28503 1.60238 0
M  V30 32126 H 3062.9 -3.75165 0.937456 0
M  V30 32127 H 3064.58 -3.82818 1.34928 0
M  V30 32128 H 3065.35 -3.10562 3.72527 0
M  V30 32129 H 3061.23 -3.74966 2.68181 0
M  V30 32130 H 3064.77 -3.36241 6.11218 0
M  V30 32131 H 3060.67 -4.00812 5.05984 0
M  V30 32132 H 3061.44 -4.00952 7.13568 0
M  V30 32133 N 3064.1 -1.01278 -1.2075 0
M  V30 32134 C 3065.35 -0.698538 -1.89644 0
M  V30 32135 C 3065.67 0.773852 -1.78988 0
M  V30 32136 O 3064.94 1.5563 -1.18979 0
M  V30 32137 H 3063.52 -0.255387 -0.701987 0
M  V30 32138 H 3066.18 -1.28356 -1.46666 0
M  V30 32139 H 3065.28 -0.978564 -2.96362 0
M  V30 32140 N 3065.58 1.36456 -0.788516 0
M  V30 32141 C 3066.51 2.32638 -0.200509 0
M  V30 32142 C 3067.49 1.56605 0.664003 0
M  V30 32143 O 3068.68 1.84763 0.598012 0
M  V30 32144 C 3065.81 3.4085 0.666214 0
M  V30 32145 C 3064.76 4.27887 -0.0983326 0
M  V30 32146 C 3064.09 5.27259 0.888926 0
M  V30 32147 C 3065.39 5.06195 -1.28701 0
M  V30 32148 H 3067.08 2.82063 -1.00404 0
M  V30 32149 H 3064.63 1.35613 -0.484261 0
M  V30 32150 H 3066.58 4.07126 1.0875 0
M  V30 32151 H 3065.3 2.8999 1.50244 0
M  V30 32152 H 3063.96 3.63166 -0.500589 0
M  V30 32153 H 3063.61 4.72673 1.72016 0
M  V30 32154 H 3063.31 5.86358 0.381806 0
M  V30 32155 H 3064.83 5.96408 1.3088 0
M  V30 32156 H 3066.25 5.65516 -0.941528 0
M  V30 32157 H 3064.64 5.74702 -1.72736 0
M  V30 32158 H 3065.71 4.37889 -2.08281 0
M  V30 32159 N 3067.06 0.540456 1.48043 0
M  V30 32160 C 3068.31 0.00813507 2.01698 0
M  V30 32161 C 3068.62 -1.34322 1.42186 0
M  V30 32162 O 3069.83 -1.9645 1.87402 0
M  V30 32163 C 3068.28 -0.0358697 3.59882 0
M  V30 32164 C 3067.89 1.31123 4.28382 0
M  V30 32165 C 3069.63 -0.516466 4.21347 0
M  V30 32166 C 3067.54 1.22724 5.78526 0
M  V30 32167 H 3066.47 -0.00072892 0.754 0
M  V30 32168 H 3069.12 0.685805 1.70203 0
M  V30 32169 H 3067.5 -0.778838 3.88266 0
M  V30 32170 H 3068.68 2.07059 4.11659 0
M  V30 32171 H 3066.99 1.7284 3.78834 0
M  V30 32172 H 3069.59 -0.597436 5.31352 0
M  V30 32173 H 3069.93 -1.52466 3.87375 0
M  V30 32174 H 3070.47 0.171133 3.97432 0
M  V30 32175 H 3067.2 2.21091 6.17089 0
M  V30 32176 H 3066.72 0.509415 5.97633 0
M  V30 32177 H 3068.4 0.922273 6.40393 0
M  V30 32178 N 3068.54 -1.55163 0.276085 0
M  V30 32179 C 3069.47 -2.18677 -0.652347 0
M  V30 32180 C 3070.45 -1.14802 -1.15149 0
M  V30 32181 O 3071.63 -1.4333 -1.22428 0
M  V30 32182 C 3068.76 -2.81079 -1.88977 0
M  V30 32183 C 3067.8 -3.98265 -1.52602 0
M  V30 32184 S 3068.64 -5.3209 -0.603351 0
M  V30 32185 C 3069.79 -5.97962 -1.84913 0
M  V30 32186 H 3070.03 -2.97086 -0.112681 0
M  V30 32187 H 3067.56 -1.54282 0.060339 0
M  V30 32188 H 3069.52 -3.17662 -2.60002 0
M  V30 32189 H 3068.18 -2.02562 -2.40058 0
M  V30 32190 H 3067.37 -4.40621 -2.44681 0
M  V30 32191 H 3066.97 -3.6311 -0.895946 0
M  V30 32192 H 3069.26 -6.17254 -2.79292 0
M  V30 32193 H 3070.21 -6.92704 -1.46856 0
M  V30 32194 H 3070.62 -5.27331 -2.01451 0
M  V30 32195 N 3070.01 -0.00338196 -1.576 0
M  V30 32196 C 3071.24 0.69165 -1.94997 0
M  V30 32197 C 3071.66 1.6712 -0.878434 0
M  V30 32198 O 3071.01 1.81944 0.142311 0
M  V30 32199 C 3071.06 1.42057 -3.32419 0
M  V30 32200 O 3070.79 0.480303 -4.35459 0
M  V30 32201 C 3072.29 2.2098 -3.84295 0
M  V30 32202 H 3069.51 0.192423 -0.642818 0
M  V30 32203 H 3072.05 -0.0555066 -2.04425 0
M  V30 32204 H 3070.21 2.11933 -3.24289 0
M  V30 32205 H 3070.62 0.994964 -5.14976 0
M  V30 32206 H 3072.09 2.67474 -4.82868 0
M  V30 32207 H 3072.57 3.03799 -3.17179 0
M  V30 32208 H 3073.18 1.56114 -3.95612 0
M  V30 32209 N 3071.49 1.5528 0.269423 0
M  V30 32210 C 3072.9 1.66726 0.840204 0
M  V30 32211 C 3073.25 0.596654 1.86908 0
M  V30 32212 O 3072.38 -0.261209 2.14818 0
M  V30 32213 C 3072.97 3.02248 1.53075 0
M  V30 32214 C 3071.53 3.15709 2.04951 0
M  V30 32215 C 3070.68 2.62535 0.892792 0
M  V30 32216 H 3073.63 1.58634 0.0456957 0
M  V30 32217 H 3073.65 2.95436 2.39787 0
M  V30 32218 H 3073.16 3.80147 0.781674 0
M  V30 32219 H 3071.26 2.4259 2.82809 0
M  V30 32220 H 3071.38 4.2232 2.26236 0
M  V30 32221 H 3069.74 2.19783 1.28715 0
M  V30 32222 H 3070.52 3.4294 0.157169 0
M  V30 32223 N 3072.97 -0.534097 1.48274 0
M  V30 32224 C 3073.93 -1.62124 1.62013 0
M  V30 32225 C 3074.93 -1.53034 0.49368 0
M  V30 32226 O 3076.12 -1.56778 0.759364 0
M  V30 32227 C 3073.25 -3.01736 1.58645 0
M  V30 32228 H 3074.45 -1.51284 2.58946 0
M  V30 32229 H 3072 -0.755837 1.36809 0
M  V30 32230 H 3072.74 -3.18087 0.631741 0
M  V30 32231 H 3072.52 -3.09743 2.4042 0
M  V30 32232 H 3074.01 -3.80784 1.71445 0
M  V30 32233 N 3074.45 -1.36793 -0.782652 0
M  V30 32234 C 3075.72 -1.21941 -1.52937 0
M  V30 32235 C 3076.1 0.191602 -2.10229 0
M  V30 32236 O 3075.45 1.19802 -1.94576 0
M  V30 32237 C 3075.66 -2.30679 -2.61894 0
M  V30 32238 C 3077.01 -2.67682 -3.29593 0
M  V30 32239 O 3078.03 -2.29773 -2.72182 0
M  V30 32240 O 3076.89 -3.32954 -4.33364 0
M  V30 32241 H 3073.99 -0.475191 -0.676847 0
M  V30 32242 H 3076.53 -1.48543 -0.820554 0
M  V30 32243 H 3075.31 -3.25216 -2.17602 0
M  V30 32244 H 3074.93 -2.0548 -3.40387 0
M  V30 32245 N 3075.93 1.00759 -1.21184 0
M  V30 32246 C 3076.87 2.09483 -0.968778 0
M  V30 32247 C 3077.84 1.65772 0.104296 0
M  V30 32248 O 3079.03 1.90753 -0.0422922 0
M  V30 32249 C 3076.17 3.409 -0.536746 0
M  V30 32250 C 3075.28 3.98038 -1.67897 0
M  V30 32251 C 3074.42 5.17553 -1.19636 0
M  V30 32252 C 3073.46 5.66794 -2.31109 0
M  V30 32253 N 3072.59 6.77561 -1.84 0
M  V30 32254 H 3077.43 2.2961 -1.89956 0
M  V30 32255 H 3074.97 1.12587 -0.946707 0
M  V30 32256 H 3076.93 4.16341 -0.267523 0
M  V30 32257 H 3075.56 3.20819 0.357035 0
M  V30 32258 H 3074.61 3.19607 -2.06289 0
M  V30 32259 H 3075.92 4.30578 -2.51802 0
M  V30 32260 H 3075.08 6.0023 -0.883644 0
M  V30 32261 H 3073.81 4.866 -0.32733 0
M  V30 32262 H 3072.82 4.82714 -2.63186 0
M  V30 32263 H 3074.04 5.99777 -3.18504 0
M  V30 32264 H 3071.99 6.4842 -0.994371 0
M  V30 32265 H 3071.91 7.09341 -2.61479 0
M  V30 32266 H 3073.18 7.63781 -1.55755 0
M  V30 32267 N 3077.4 1.01917 1.20211 0
M  V30 32268 C 3078.65 0.708586 1.89271 0
M  V30 32269 C 3078.97 -0.764349 1.79395 0
M  V30 32270 O 3078.24 -1.54997 1.19803 0
M  V30 32271 H 3076.82 0.259106 0.700623 0
M  V30 32272 H 3079.49 1.29132 1.45983 0
M  V30 32273 H 3078.58 0.994267 2.95839 0
M  V30 32274 N 3078.88 -1.36036 0.795742 0
M  V30 32275 C 3079.79 -2.33747 0.199825 0
M  V30 32276 C 3080.81 -1.61346 -0.651408 0
M  V30 32277 O 3081.98 -1.93292 -0.56571 0
M  V30 32278 C 3079.05 -3.40544 -0.650415 0
M  V30 32279 C 3078.11 -4.28736 0.220049 0
M  V30 32280 C 3077.34 -5.30432 -0.589705 0
M  V30 32281 O 3077.57 -5.40409 -1.82523 0
M  V30 32282 O 3076.5 -6.01898 0.0137245 0
M  V30 32283 H 3080.33 -2.86488 1.00787 0
M  V30 32284 H 3077.91 -1.38616 0.557317 0
M  V30 32285 H 3079.79 -4.05826 -1.13505 0
M  V30 32286 H 3078.47 -2.90092 -1.43625 0
M  V30 32287 H 3077.38 -3.66472 0.75158 0
M  V30 32288 H 3078.71 -4.82556 0.969553 0
M  V30 32289 N 3080.36 -0.5483 -1.47755 0
M  V30 32290 C 3081.6 -0.0231714 -2.04387 0
M  V30 32291 C 3081.96 1.2984 -1.41441 0
M  V30 32292 O 3083.17 1.91068 -1.89067 0
M  V30 32293 C 3081.44 0.0774192 -3.57316 0
M  V30 32294 S 3083 0.549961 -4.3534 0
M  V30 32295 H 3079.81 -0.0208553 -0.710694 0
M  V30 32296 H 3082.42 -0.733016 -1.81238 0
M  V30 32297 H 3081.12 -0.888951 -4.00657 0
M  V30 32298 H 3080.65 0.811089 -3.84948 0
M  V30 32299 H 3082.67 1.81127 -4.6196 0
M  V30 32300 N 3081.84 1.55014 -0.28431 0
M  V30 32301 C 3083.09 1.99796 0.329828 0
M  V30 32302 C 3083.41 1.17273 1.55169 0
M  V30 32303 O 3082.67 0.232701 1.94312 0
M  V30 32304 C 3082.97 3.49503 0.747158 0
M  V30 32305 C 3082.63 4.4937 -0.371089 0
M  V30 32306 C 3081.3 4.76398 -0.678118 0
M  V30 32307 C 3083.65 5.08933 -1.12415 0
M  V30 32308 C 3080.98 5.60254 -1.74162 0
M  V30 32309 C 3083.33 5.93944 -2.17745 0
M  V30 32310 C 3081.99 6.19289 -2.49072 0
M  V30 32311 H 3081.26 0.731105 0.120693 0
M  V30 32312 H 3083.91 1.87277 -0.399936 0
M  V30 32313 H 3082.21 3.59545 1.55674 0
M  V30 32314 H 3083.91 3.81566 1.23324 0
M  V30 32315 H 3080.5 4.28427 -0.121675 0
M  V30 32316 H 3084.68 4.88068 -0.900205 0
M  V30 32317 H 3079.94 5.78134 -1.98925 0
M  V30 32318 H 3084.11 6.39128 -2.76565 0
M  V30 32319 H 3081.74 6.84059 -3.31614 0
M  V30 32320 N 3083.32 0.0117398 1.57596 0
M  V30 32321 C 3084.26 -0.993998 2.10291 0
M  V30 32322 C 3085.26 -1.34831 1.02552 0
M  V30 32323 O 3086.46 -1.33258 1.21005 0
M  V30 32324 H 3082.84 -0.338256 0.67163 0
M  V30 32325 H 3084.81 -0.524095 2.93761 0
M  V30 32326 C 3083.56 -2.27314 2.63103 0
M  V30 32327 H 3082.88 -2.00921 3.45645 0
M  V30 32328 H 3084.32 -2.95937 3.0364 0
M  V30 32329 C 3082.78 -2.99101 1.55049 0
M  V30 32330 O 3083.31 -3.90542 0.940195 0
M  V30 32331 N 3081.52 -2.61131 1.27511 0
M  V30 32332 H 3081.06 -1.86852 1.77325 0
M  V30 32333 H 3081.02 -3.09474 0.554347 0
M  V30 32334 N 3084.79 -1.55421 -0.261185 0
M  V30 32335 C 3085.7 -1.92223 -1.3449 0
M  V30 32336 C 3086.72 -0.820887 -1.53419 0
M  V30 32337 O 3087.9 -1.12102 -1.67318 0
M  V30 32338 C 3084.96 -2.19697 -2.68205 0
M  V30 32339 C 3084.02 -3.43184 -2.57921 0
M  V30 32340 C 3083.26 -3.69338 -3.8526 0
M  V30 32341 O 3083.48 -2.97801 -4.86488 0
M  V30 32342 O 3082.41 -4.62871 -3.84752 0
M  V30 32343 H 3086.24 -2.84499 -1.06273 0
M  V30 32344 H 3083.82 -1.42119 -0.460727 0
M  V30 32345 H 3085.71 -2.3874 -3.47248 0
M  V30 32346 H 3084.38 -1.30602 -2.96184 0
M  V30 32347 H 3083.29 -3.29463 -1.77214 0
M  V30 32348 H 3084.62 -4.32536 -2.3489 0
M  V30 32349 N 3086.27 0.526227 -1.48555 0
M  V30 32350 C 3087.52 1.28375 -1.56996 0
M  V30 32351 C 3087.85 1.92652 -0.244735 0
M  V30 32352 O 3087.13 1.79475 0.749604 0
M  V30 32353 C 3087.41 2.37021 -2.71096 0
M  V30 32354 C 3087.26 1.77411 -4.13335 0
M  V30 32355 C 3088.58 3.38764 -2.8094 0
M  V30 32356 H 3085.7 0.465388 -0.571474 0
M  V30 32357 H 3088.34 0.585829 -1.80743 0
M  V30 32358 H 3086.49 2.9655 -2.50979 0
M  V30 32359 H 3088.16 1.21904 -4.44901 0
M  V30 32360 H 3086.41 1.07928 -4.20159 0
M  V30 32361 H 3087.08 2.56095 -4.88998 0
M  V30 32362 H 3089.55 2.89195 -2.99175 0
M  V30 32363 H 3088.43 4.12174 -3.62496 0
M  V30 32364 H 3088.69 3.99546 -1.89251 0
M  V30 32365 N 3087.75 1.37206 0.775387 0
M  V30 32366 C 3088.98 1.35399 1.56444 0
M  V30 32367 C 3089.39 -0.0615106 1.887 0
M  V30 32368 O 3088.75 -1.0223 1.51179 0
M  V30 32369 C 3088.8 2.18894 2.87694 0
M  V30 32370 O 3088.52 3.54928 2.56822 0
M  V30 32371 C 3090.02 2.25026 3.8194 0
M  V30 32372 H 3087.24 0.463924 0.484784 0
M  V30 32373 H 3089.79 1.80497 0.961314 0
M  V30 32374 H 3087.94 1.77316 3.44439 0
M  V30 32375 H 3088.36 3.98655 3.40844 0
M  V30 32376 H 3089.83 2.87777 4.7105 0
M  V30 32377 H 3090.31 1.25765 4.20809 0
M  V30 32378 H 3090.91 2.66901 3.31125 0
M  V30 32379 N 3089.23 -1.00115 1.21716 0
M  V30 32380 C 3090.47 -1.74304 1.04832 0
M  V30 32381 C 3090.83 -1.87907 -0.413354 0
M  V30 32382 O 3090.12 -1.40514 -1.30255 0
M  V30 32383 C 3090.32 -3.15267 1.6835 0
M  V30 32384 C 3090.15 -3.15409 3.20543 0
M  V30 32385 C 3088.92 -3.21769 3.89606 0
M  V30 32386 C 3091.11 -3.00217 4.17582 0
M  V30 32387 N 3089.1 -3.11578 5.28954 0
M  V30 32388 C 3090.47 -2.97965 5.43707 0
M  V30 32389 C 3092.52 -2.84547 4.0858 0
M  V30 32390 C 3091.22 -2.81649 6.61866 0
M  V30 32391 C 3093.25 -2.69589 5.2638 0
M  V30 32392 C 3092.61 -2.68017 6.51419 0
M  V30 32393 H 3088.71 -0.647844 0.437975 0
M  V30 32394 H 3091.3 -1.18962 1.5413 0
M  V30 32395 H 3089.47 -3.68869 1.21614 0
M  V30 32396 H 3091.2 -3.77972 1.44635 0
M  V30 32397 H 3087.95 -3.2912 3.40554 0
M  V30 32398 H 3088.38 -3.09814 6.0195 0
M  V30 32399 H 3093.02 -2.84566 3.12701 0
M  V30 32400 H 3090.74 -2.80377 7.57901 0
M  V30 32401 H 3094.32 -2.58459 5.21239 0
M  V30 32402 H 3093.2 -2.5658 7.41037 0
M  V30 32403 N 3090.71 -1.02553 -1.19669 0
M  V30 32404 C 3091.94 -0.739547 -1.93231 0
M  V30 32405 C 3092.35 0.701127 -1.75299 0
M  V30 32406 O 3091.71 1.47645 -1.07272 0
M  V30 32407 C 3091.76 -1.07703 -3.45083 0
M  V30 32408 O 3091.48 -2.46113 -3.62436 0
M  V30 32409 C 3092.98 -0.813374 -4.35774 0
M  V30 32410 H 3090.2 -0.270864 -0.6139 0
M  V30 32411 H 3092.74 -1.36911 -1.51906 0
M  V30 32412 H 3090.9 -0.492702 -3.84254 0
M  V30 32413 H 3091.31 -2.58575 -4.56332 0
M  V30 32414 H 3092.79 -1.09951 -5.40939 0
M  V30 32415 H 3093.26 0.252282 -4.38475 0
M  V30 32416 H 3093.87 -1.38028 -4.02279 0
M  V30 32417 N 3092.19 1.35612 -0.802945 0
M  V30 32418 C 3093.13 2.31749 -0.198824 0
M  V30 32419 C 3094.13 1.56459 0.649388 0
M  V30 32420 O 3095.33 1.71616 0.542959 0
M  V30 32421 H 3091.71 0.75062 -0.0455309 0
M  V30 32422 H 3093.68 2.80249 -1.02484 0
M  V30 32423 C 3092.43 3.4174 0.641006 0
M  V30 32424 H 3091.75 3.998 -0.00233272 0
M  V30 32425 H 3093.19 4.11295 1.03015 0
M  V30 32426 C 3091.65 2.84467 1.805 0
M  V30 32427 O 3092.18 2.77722 2.9023 0
M  V30 32428 N 3090.39 2.41566 1.61538 0
M  V30 32429 H 3089.93 2.47251 0.722819 0
M  V30 32430 H 3089.89 2.03593 2.39577 0
M  V30 32431 N 3093.66 0.556128 1.47462 0
M  V30 32432 C 3094.91 0.0317162 2.02775 0
M  V30 32433 C 3095.24 -1.31428 1.4297 0
M  V30 32434 O 3094.52 -1.85498 0.584879 0
M  V30 32435 C 3094.8 -0.0625109 3.60046 0
M  V30 32436 C 3094.65 1.3105 4.30286 0
M  V30 32437 C 3095.97 -0.776476 4.33196 0
M  V30 32438 H 3093.09 0.0129999 0.736885 0
M  V30 32439 H 3095.73 0.718208 1.75903 0
M  V30 32440 H 3093.88 -0.647163 3.83072 0
M  V30 32441 H 3095.56 1.93827 4.18603 0
M  V30 32442 H 3093.8 1.88547 3.90682 0
M  V30 32443 H 3094.47 1.1973 5.38859 0
M  V30 32444 H 3096.95 -0.280074 4.15156 0
M  V30 32445 H 3095.82 -0.811365 5.4287 0
M  V30 32446 H 3096.08 -1.83237 4.02339 0
M  V30 32447 N 3095.14 -1.54861 0.292527 0
M  V30 32448 C 3096.37 -2.04378 -0.322078 0
M  V30 32449 C 3096.78 -1.17019 -1.48162 0
M  V30 32450 O 3096.14 -0.193982 -1.81466 0
M  V30 32451 C 3096.19 -3.52842 -0.786444 0
M  V30 32452 O 3095.91 -4.36878 0.326939 0
M  V30 32453 C 3097.41 -4.1832 -1.46708 0
M  V30 32454 H 3094.63 -0.667212 -0.0711956 0
M  V30 32455 H 3097.18 -1.99935 0.429692 0
M  V30 32456 H 3095.33 -3.57673 -1.48826 0
M  V30 32457 H 3095.75 -5.2449 -0.0330636 0
M  V30 32458 H 3097.22 -5.23751 -1.74324 0
M  V30 32459 H 3097.7 -3.67542 -2.40436 0
M  V30 32460 H 3098.3 -4.17541 -0.808662 0
M  V30 32461 N 3096.62 -0.0200973 -1.57587 0
M  V30 32462 C 3097.87 0.660491 -1.91426 0
M  V30 32463 C 3098.19 1.72651 -0.895656 0
M  V30 32464 O 3097.45 1.95461 0.0967366 0
M  V30 32465 C 3097.75 1.32317 -3.32004 0
M  V30 32466 C 3097.41 0.388408 -4.49224 0
M  V30 32467 C 3096.08 0.131099 -4.81021 0
M  V30 32468 C 3098.43 -0.253997 -5.20581 0
M  V30 32469 C 3095.76 -0.776573 -5.81538 0
M  V30 32470 C 3098.11 -1.14967 -6.22065 0
M  V30 32471 C 3096.77 -1.41596 -6.52309 0
M  V30 32472 H 3096.04 0.241691 -0.700476 0
M  V30 32473 H 3098.69 -0.0799327 -1.91333 0
M  V30 32474 H 3096.99 2.13813 -3.28316 0
M  V30 32475 H 3098.69 1.85617 -3.55454 0
M  V30 32476 H 3095.28 0.599132 -4.24392 0
M  V30 32477 H 3099.47 -0.0682513 -4.96253 0
M  V30 32478 H 3094.72 -0.990681 -6.0332 0
M  V30 32479 H 3098.9 -1.65369 -6.76481 0
M  V30 32480 H 3096.52 -2.12096 -7.30013 0
M  V30 32481 N 3098.1 1.55557 0.252939 0
M  V30 32482 C 3099.03 1.92822 1.31688 0
M  V30 32483 C 3100.01 0.792426 1.50515 0
M  V30 32484 O 3101.19 1.05222 1.63224 0
M  V30 32485 C 3098.32 2.21766 2.67277 0
M  V30 32486 C 3097.28 3.37541 2.63154 0
M  V30 32487 C 3096.6 3.52012 4.02482 0
M  V30 32488 C 3097.9 4.73396 2.20667 0
M  V30 32489 H 3099.6 2.81941 1.00746 0
M  V30 32490 H 3097.14 1.35651 0.483195 0
M  V30 32491 H 3099.1 2.46425 3.41837 0
M  V30 32492 H 3097.82 1.29468 2.99843 0
M  V30 32493 H 3096.48 3.12882 1.91052 0
M  V30 32494 H 3096.13 2.57144 4.32303 0
M  V30 32495 H 3095.83 4.29864 4.00613 0
M  V30 32496 H 3097.35 3.78985 4.78751 0
M  V30 32497 H 3098.77 4.97466 2.84957 0
M  V30 32498 H 3097.16 5.54307 2.29921 0
M  V30 32499 H 3098.23 4.70864 1.15823 0
M  V30 32500 N 3099.58 -0.518341 1.48832 0
M  V30 32501 C 3100.52 -1.62175 1.64219 0
M  V30 32502 C 3101.49 -1.58893 0.48397 0
M  V30 32503 O 3102.68 -1.77142 0.708888 0
M  V30 32504 C 3099.82 -3.00396 1.69872 0
M  V30 32505 C 3098.93 -3.13824 2.96881 0
M  V30 32506 C 3098.07 -4.42674 2.93621 0
M  V30 32507 C 3097.1 -4.49673 4.15284 0
M  V30 32508 N 3096.24 -5.69927 4.10034 0
M  V30 32509 H 3101.08 -1.48364 2.58442 0
M  V30 32510 H 3098.62 -0.72213 1.28155 0
M  V30 32511 H 3100.58 -3.80487 1.71131 0
M  V30 32512 H 3099.21 -3.12951 0.791304 0
M  V30 32513 H 3098.26 -2.26909 3.05314 0
M  V30 32514 H 3099.57 -3.14856 3.86868 0
M  V30 32515 H 3098.72 -5.31068 2.93346 0
M  V30 32516 H 3097.46 -4.4418 2.01383 0
M  V30 32517 H 3096.47 -3.59684 4.15822 0
M  V30 32518 H 3097.69 -4.49895 5.08695 0
M  V30 32519 H 3095.64 -5.72308 3.20623 0
M  V30 32520 H 3095.56 -5.72502 4.93738 0
M  V30 32521 H 3096.82 -6.60576 4.13836 0
M  V30 32522 N 3101.05 -1.37615 -0.7681 0
M  V30 32523 C 3102.47 -1.18495 -1.06917 0
M  V30 32524 C 3102.67 -0.0236107 -2.01486 0
M  V30 32525 O 3101.73 0.635166 -2.44381 0
M  V30 32526 C 3103.04 -2.50518 -1.66317 0
M  V30 32527 C 3104.59 -2.57073 -1.78557 0
M  V30 32528 C 3105.06 -3.89235 -2.41371 0
M  V30 32529 N 3106.55 -3.90697 -2.48817 0
M  V30 32530 C 3107.29 -4.89711 -2.98279 0
M  V30 32531 N 3106.78 -5.99122 -3.47887 0
M  V30 32532 N 3108.58 -4.77112 -2.97187 0
M  V30 32533 H 3100.73 -2.11936 -0.140249 0
M  V30 32534 H 3102.99 -0.939743 -0.124847 0
M  V30 32535 H 3102.7 -3.3588 -1.04297 0
M  V30 32536 H 3102.57 -2.6787 -2.65566 0
M  V30 32537 H 3104.96 -1.72116 -2.39709 0
M  V30 32538 H 3105.04 -2.43601 -0.780531 0
M  V30 32539 H 3104.68 -4.74608 -1.80857 0
M  V30 32540 H 3104.61 -4.00012 -3.42488 0
M  V30 32541 H 3107.1 -3.11664 -2.13715 0
M  V30 32542 H 3107.42 -6.7062 -3.84042 0
M  V30 32543 H 3105.76 -6.02762 -3.45982 0
M  V30 32544 H 3108.95 -3.90757 -2.57734 0
M  V30 32545 H 3109.13 -5.54432 -3.35424 0
M  V30 32546 N 3102.53 0.994677 -1.22245 0
M  V30 32547 C 3103.76 1.76693 -1.07065 0
M  V30 32548 C 3104.17 1.85306 0.381862 0
M  V30 32549 O 3103.51 1.32107 1.27646 0
M  V30 32550 C 3103.57 3.21687 -1.60492 0
M  V30 32551 C 3103.24 3.36624 -3.09085 0
M  V30 32552 C 3104.24 3.24081 -4.06531 0
M  V30 32553 C 3101.92 3.61733 -3.48504 0
M  V30 32554 C 3103.91 3.36427 -5.41383 0
M  V30 32555 C 3101.6 3.7372 -4.83504 0
M  V30 32556 C 3102.6 3.61075 -5.79753 0
M  V30 32557 O 3102.29 3.72665 -7.12303 0
M  V30 32558 H 3102.02 0.561801 -0.375973 0
M  V30 32559 H 3104.57 1.25938 -1.62262 0
M  V30 32560 H 3102.8 3.73626 -0.997023 0
M  V30 32561 H 3104.49 3.80623 -1.41001 0
M  V30 32562 H 3105.26 3.04596 -3.77421 0
M  V30 32563 H 3101.14 3.70652 -2.74113 0
M  V30 32564 H 3104.68 3.26474 -6.1649 0
M  V30 32565 H 3100.58 3.92712 -5.12297 0
M  V30 32566 H 3101.35 3.89549 -7.19857 0
M  V30 32567 N 3104.01 1.03186 1.19123 0
M  V30 32568 C 3105.26 0.730063 1.88882 0
M  V30 32569 C 3105.58 -0.74157 1.79808 0
M  V30 32570 O 3104.84 -1.55601 1.18688 0
M  V30 32571 C 3105.14 1.13047 3.3905 0
M  V30 32572 C 3104.8 2.60088 3.68327 0
M  V30 32573 C 3103.47 3.00261 3.76028 0
M  V30 32574 C 3105.82 3.55205 3.81416 0
M  V30 32575 C 3103.15 4.34458 3.94288 0
M  V30 32576 C 3105.5 4.8911 4.01191 0
M  V30 32577 C 3104.16 5.28966 4.07125 0
M  V30 32578 H 3103.43 0.267149 0.691167 0
M  V30 32579 H 3106.08 1.29526 1.41051 0
M  V30 32580 H 3104.38 0.483929 3.888 0
M  V30 32581 H 3106.08 0.874437 3.9135 0
M  V30 32582 H 3102.67 2.27968 3.62944 0
M  V30 32583 H 3106.86 3.25319 3.74808 0
M  V30 32584 H 3102.11 4.64869 3.97123 0
M  V30 32585 H 3106.29 5.62724 4.10261 0
M  V30 32586 H 3103.91 6.32961 4.21027 0
M  V30 32587 N 3105.49 -1.35184 0.810125 0
M  V30 32588 C 3106.9 -1.51753 0.494295 0
M  V30 32589 C 3107.1 -1.75847 -0.983876 0
M  V30 32590 O 3106.16 -1.80195 -1.76879 0
M  V30 32591 C 3107.47 -2.69056 1.34272 0
M  V30 32592 C 3109.02 -2.82935 1.33853 0
M  V30 32593 C 3109.5 -4.03268 2.17116 0
M  V30 32594 N 3110.99 -4.10452 2.14671 0
M  V30 32595 C 3111.72 -5.02686 2.75852 0
M  V30 32596 N 3111.22 -6.00229 3.45973 0
M  V30 32597 N 3113.01 -4.95459 2.65474 0
M  V30 32598 H 3105.16 -1.17802 1.76738 0
M  V30 32599 H 3107.43 -0.576663 0.752439 0
M  V30 32600 H 3107.13 -2.57841 2.39188 0
M  V30 32601 H 3107.01 -3.63746 0.998426 0
M  V30 32602 H 3109.39 -2.93599 0.297212 0
M  V30 32603 H 3109.47 -1.89092 1.72272 0
M  V30 32604 H 3109.12 -3.93364 3.2129 0
M  V30 32605 H 3109.05 -4.96299 1.76054 0
M  V30 32606 H 3111.54 -3.40626 1.63654 0
M  V30 32607 H 3111.85 -6.67212 3.89934 0
M  V30 32608 H 3110.2 -6.00392 3.50078 0
M  V30 32609 H 3113.39 -4.18212 2.10278 0
M  V30 32610 H 3113.56 -5.67149 3.13443 0
M  V30 32611 N 3106.97 -0.56394 -1.47165 0
M  V30 32612 C 3107.93 0.169583 -2.28572 0
M  V30 32613 C 3108.93 0.836443 -1.37333 0
M  V30 32614 O 3110.12 0.691272 -1.59897 0
M  V30 32615 C 3107.25 1.2488 -3.17203 0
M  V30 32616 H 3108.44 -0.545591 -2.94895 0
M  V30 32617 H 3106 -0.321148 -1.52965 0
M  V30 32618 H 3106.73 1.99616 -2.55585 0
M  V30 32619 H 3106.52 0.775358 -3.84357 0
M  V30 32620 H 3108.01 1.76381 -3.78523 0
M  V30 32621 N 3108.44 1.54704 -0.300735 0
M  V30 32622 C 3109.72 1.92226 0.361723 0
M  V30 32623 C 3110.1 1.22793 1.71712 0
M  V30 32624 O 3109.45 0.363581 2.25589 0
M  V30 32625 C 3109.66 3.4573 0.476638 0
M  V30 32626 C 3111.01 4.17966 0.747627 0
M  V30 32627 O 3112.03 3.51763 0.560459 0
M  V30 32628 O 3110.89 5.35168 1.10715 0
M  V30 32629 H 3107.98 0.801901 0.202199 0
M  V30 32630 H 3110.53 1.66077 -0.348775 0
M  V30 32631 H 3109.3 3.88392 -0.4762 0
M  V30 32632 H 3108.93 3.77913 1.23561 0
M  V30 32633 N 3109.92 0.0284543 1.57574 0
M  V30 32634 C 3110.83 -0.969322 2.13638 0
M  V30 32635 C 3111.85 -1.3575 1.08848 0
M  V30 32636 O 3113.02 -1.43905 1.40902 0
M  V30 32637 C 3110.09 -2.23335 2.65183 0
M  V30 32638 C 3109.15 -1.90565 3.84686 0
M  V30 32639 C 3108.38 -3.10942 4.33763 0
M  V30 32640 O 3108.61 -4.23579 3.82017 0
M  V30 32641 O 3107.54 -2.93279 5.25615 0
M  V30 32642 H 3111.37 -0.522617 2.9917 0
M  V30 32643 H 3108.95 -0.192109 1.4816 0
M  V30 32644 H 3110.83 -2.97541 2.98408 0
M  V30 32645 H 3109.51 -2.67188 1.82735 0
M  V30 32646 H 3108.42 -1.13746 3.56388 0
M  V30 32647 H 3109.75 -1.51529 4.68294 0
M  V30 32648 N 3111.4 -1.55689 -0.244686 0
M  V30 32649 C 3112.33 -1.86954 -1.32592 0
M  V30 32650 C 3113.35 -0.755973 -1.44184 0
M  V30 32651 O 3114.53 -1.03411 -1.45494 0
M  V30 32652 C 3111.63 -2.04263 -2.70426 0
M  V30 32653 C 3110.81 -3.35136 -2.81074 0
M  V30 32654 C 3109.87 -3.4216 -3.99767 0
M  V30 32655 O 3108.89 -4.15355 -3.8919 0
M  V30 32656 N 3110.09 -2.71614 -5.13036 0
M  V30 32657 H 3112.86 -2.80288 -1.06106 0
M  V30 32658 H 3110.42 -1.55953 -0.434783 0
M  V30 32659 H 3112.41 -2.06301 -3.4817 0
M  V30 32660 H 3110.98 -1.17663 -2.8961 0
M  V30 32661 H 3110.2 -3.45396 -1.89988 0
M  V30 32662 H 3111.49 -4.21394 -2.8514 0
M  V30 32663 H 3110.89 -2.11881 -5.24521 0
M  V30 32664 H 3109.45 -2.79341 -5.88907 0
M  V30 32665 N 3112.88 0.510441 -1.49105 0
M  V30 32666 C 3114.11 1.28754 -1.61574 0
M  V30 32667 C 3114.52 1.87076 -0.282671 0
M  V30 32668 O 3113.86 1.68104 0.740719 0
M  V30 32669 C 3113.92 2.46317 -2.61855 0
M  V30 32670 C 3113.59 2.08935 -4.06442 0
M  V30 32671 C 3114.58 1.6346 -4.93535 0
M  V30 32672 C 3112.27 2.18859 -4.52113 0
M  V30 32673 C 3114.26 1.284 -6.24333 0
M  V30 32674 C 3111.95 1.83411 -5.82927 0
M  V30 32675 C 3112.95 1.38255 -6.68861 0
M  V30 32676 O 3112.63 1.03281 -7.97238 0
M  V30 32677 H 3112.37 0.397076 -0.547089 0
M  V30 32678 H 3114.92 0.62039 -1.95807 0
M  V30 32679 H 3113.15 3.16077 -2.22783 0
M  V30 32680 H 3114.84 3.08357 -2.63952 0
M  V30 32681 H 3115.61 1.55247 -4.59482 0
M  V30 32682 H 3111.48 2.5296 -3.85399 0
M  V30 32683 H 3115.03 0.930825 -6.91362 0
M  V30 32684 H 3110.93 1.91271 -6.16511 0
M  V30 32685 H 3111.69 1.16511 -8.10165 0
M  V30 32686 N 3114.36 1.38021 0.760791 0
M  V30 32687 C 3115.77 1.30239 1.33771 0
M  V30 32688 C 3116.12 -0.0450808 1.96148 0
M  V30 32689 O 3115.24 -0.947066 1.94575 0
M  V30 32690 C 3115.84 2.35856 2.43223 0
M  V30 32691 C 3114.4 2.31674 2.96655 0
M  V30 32692 C 3113.54 2.19103 1.69968 0
M  V30 32693 H 3116.5 1.48483 0.560211 0
M  V30 32694 H 3116.52 2.01155 3.22981 0
M  V30 32695 H 3116.03 3.33915 1.97794 0
M  V30 32696 H 3114.13 1.37174 3.46431 0
M  V30 32697 H 3114.24 3.25527 3.51523 0
M  V30 32698 H 3112.61 1.65833 1.93317 0
M  V30 32699 H 3113.39 3.19093 1.26627 0
M  V30 32700 N 3115.83 -0.98818 1.22771 0
M  V30 32701 C 3117.08 -1.72839 1.05512 0
M  V30 32702 C 3117.41 -1.90149 -0.409111 0
M  V30 32703 O 3116.66 -1.44529 -1.31947 0
M  V30 32704 C 3116.96 -3.13463 1.71684 0
M  V30 32705 C 3116.63 -3.16055 3.2159 0
M  V30 32706 C 3115.29 -3.1647 3.62492 0
M  V30 32707 C 3117.64 -3.11976 4.17517 0
M  V30 32708 C 3114.97 -3.10512 4.97794 0
M  V30 32709 C 3117.32 -3.07561 5.52801 0
M  V30 32710 C 3115.99 -3.06293 5.93077 0
M  V30 32711 H 3115.26 -0.632464 0.386096 0
M  V30 32712 H 3117.9 -1.15698 1.52598 0
M  V30 32713 H 3116.21 -3.73943 1.16936 0
M  V30 32714 H 3117.91 -3.69489 1.55816 0
M  V30 32715 H 3114.5 -3.16485 2.89024 0
M  V30 32716 H 3118.68 -3.10802 3.86931 0
M  V30 32717 H 3113.94 -3.07879 5.28224 0
M  V30 32718 H 3118.11 -3.03361 6.26853 0
M  V30 32719 H 3115.74 -3.01432 6.97885 0
M  V30 32720 N 3117.31 -1.03816 -1.18575 0
M  V30 32721 C 3118.24 -0.647834 -2.24333 0
M  V30 32722 C 3119.22 0.34771 -1.66508 0
M  V30 32723 O 3120.41 0.228367 -1.92853 0
M  V30 32724 C 3117.54 -0.00741027 -3.47299 0
M  V30 32725 C 3116.49 -0.926226 -4.17858 0
M  V30 32726 C 3115.82 -0.150411 -5.34488 0
M  V30 32727 C 3117.12 -2.2442 -4.71628 0
M  V30 32728 H 3118.81 -1.53196 -2.57238 0
M  V30 32729 H 3116.36 -0.738049 -1.23648 0
M  V30 32730 H 3118.31 0.27736 -4.20486 0
M  V30 32731 H 3117.04 0.911571 -3.13621 0
M  V30 32732 H 3115.69 -1.19534 -3.46565 0
M  V30 32733 H 3115.34 0.770897 -4.97058 0
M  V30 32734 H 3115.04 -0.762509 -5.82632 0
M  V30 32735 H 3116.57 0.127401 -6.10467 0
M  V30 32736 H 3117.98 -2.02031 -5.36523 0
M  V30 32737 H 3116.38 -2.80904 -5.30295 0
M  V30 32738 H 3117.45 -2.89243 -3.89187 0
M  V30 32739 N 3118.79 1.34753 -0.817283 0
M  V30 32740 C 3120.04 1.9875 -0.403279 0
M  V30 32741 C 3120.37 1.6466 1.0296 0
M  V30 32742 O 3119.64 0.915344 1.71615 0
M  V30 32743 C 3119.93 3.55079 -0.59925 0
M  V30 32744 C 3119.78 3.98931 -2.07784 0
M  V30 32745 C 3121.1 4.40089 -0.0316429 0
M  V30 32746 H 3118.22 0.721987 -0.148001 0
M  V30 32747 H 3120.86 1.59736 -1.0288 0
M  V30 32748 H 3119.01 3.88443 -0.0667799 0
M  V30 32749 H 3120.68 3.75927 -2.67352 0
M  V30 32750 H 3118.93 3.49448 -2.57037 0
M  V30 32751 H 3119.6 5.07737 -2.1658 0
M  V30 32752 H 3122.07 4.13246 -0.486512 0
M  V30 32753 H 3120.95 5.48541 -0.198604 0
M  V30 32754 H 3121.21 4.29132 1.06295 0
M  V30 32755 N 3120.27 0.571737 1.46864 0
M  V30 32756 C 3121.22 -0.188463 2.2722 0
M  V30 32757 C 3122.2 -0.871995 1.35222 0
M  V30 32758 O 3123.4 -0.767902 1.59475 0
M  V30 32759 C 3120.52 -1.20857 3.21323 0
M  V30 32760 C 3119.61 -0.527709 4.20804 0
M  V30 32761 N 3120 0.410492 5.04132 0
M  V30 32762 C 3118.3 -0.779832 4.39129 0
M  V30 32763 C 3119 0.807381 5.7607 0
M  V30 32764 N 3117.98 0.15896 5.43368 0
M  V30 32765 H 3121.78 0.532662 2.89033 0
M  V30 32766 H 3119.29 0.392724 1.5758 0
M  V30 32767 H 3121.29 -1.76726 3.77589 0
M  V30 32768 H 3119.95 -1.93063 2.61069 0
M  V30 32769 H 3120.96 0.785441 5.11909 0
M  V30 32770 H 3117.64 -1.4893 3.90033 0
M  V30 32771 H 3119.03 1.57915 6.53079 0
M  V30 32772 N 3121.75 -1.54542 0.308935 0
M  V30 32773 C 3123.16 -1.8581 -0.182111 0
M  V30 32774 C 3123.51 -1.23079 -1.52794 0
M  V30 32775 O 3122.63 -0.531395 -2.09774 0
M  V30 32776 C 3123.23 -3.37118 -0.337215 0
M  V30 32777 C 3121.79 -3.68388 -0.772481 0
M  V30 32778 C 3120.94 -2.77064 0.1145 0
M  V30 32779 H 3123.89 -1.49599 0.529697 0
M  V30 32780 H 3123.91 -3.62049 -1.17052 0
M  V30 32781 H 3123.42 -3.82746 0.64245 0
M  V30 32782 H 3121.52 -3.28283 -1.76241 0
M  V30 32783 H 3121.63 -4.75498 -0.586369 0
M  V30 32784 H 3120 -2.51418 -0.407537 0
M  V30 32785 H 3120.78 -3.25514 1.09066 0
M  V30 32786 N 3123.23 -0.0368104 -1.57557 0
M  V30 32787 C 3124.47 0.641099 -1.924 0
M  V30 32788 C 3124.8 1.71335 -0.914222 0
M  V30 32789 O 3124.08 1.94401 0.0619274 0
M  V30 32790 C 3124.36 1.25046 -3.37691 0
M  V30 32791 C 3124.22 0.187247 -4.4941 0
M  V30 32792 C 3125.53 2.16627 -3.83094 0
M  V30 32793 H 3122.65 0.231584 -0.69967 0
M  V30 32794 H 3125.3 -0.0956416 -1.89759 0
M  V30 32795 H 3123.45 1.87837 -3.40073 0
M  V30 32796 H 3125.12 -0.443816 -4.5916 0
M  V30 32797 H 3123.36 -0.486388 -4.31065 0
M  V30 32798 H 3124.03 0.653363 -5.4812 0
M  V30 32799 H 3126.51 1.63814 -3.82497 0
M  V30 32800 H 3125.38 2.56213 -4.85434 0
M  V30 32801 H 3125.64 3.06056 -3.19033 0
M  V30 32802 N 3124.7 1.55817 0.236426 0
M  V30 32803 C 3125.64 1.86179 1.31957 0
M  V30 32804 C 3126.61 0.717794 1.45899 0
M  V30 32805 O 3127.8 0.964634 1.61948 0
M  V30 32806 C 3124.93 2.05572 2.6918 0
M  V30 32807 C 3123.97 3.28234 2.72332 0
M  V30 32808 S 3124.8 4.84589 2.27889 0
M  V30 32809 C 3125.96 5.07001 3.67016 0
M  V30 32810 H 3126.19 2.77759 1.06006 0
M  V30 32811 H 3123.73 1.48059 0.437935 0
M  V30 32812 H 3125.68 2.1743 3.48188 0
M  V30 32813 H 3124.35 1.14816 2.92363 0
M  V30 32814 H 3123.54 3.38802 3.73134 0
M  V30 32815 H 3123.14 3.15156 2.01377 0
M  V30 32816 H 3125.43 4.94987 4.62595 0
M  V30 32817 H 3126.38 6.08945 3.61375 0
M  V30 32818 H 3126.78 4.34798 3.60015 0
M  V30 32819 N 3126.18 -0.502526 1.49373 0
M  V30 32820 C 3127.59 -1.08408 1.52002 0
M  V30 32821 C 3127.94 -1.93809 0.305351 0
M  V30 32822 O 3127.07 -2.08343 -0.584986 0
M  V30 32823 C 3127.66 -1.97276 2.75441 0
M  V30 32824 C 3126.22 -2.50597 2.80853 0
M  V30 32825 C 3125.37 -1.28181 2.45896 0
M  V30 32826 H 3128.32 -0.286506 1.56092 0
M  V30 32827 H 3128.34 -2.81943 2.55516 0
M  V30 32828 H 3127.85 -1.35092 3.63829 0
M  V30 32829 H 3125.95 -3.16424 1.9674 0
M  V30 32830 H 3126.07 -2.87854 3.82985 0
M  V30 32831 H 3124.43 -1.60654 1.97642 0
M  V30 32832 H 3125.21 -0.67708 3.36557 0
M  V30 32833 N 3127.66 -1.38422 -0.75346 0
M  V30 32834 C 3128.59 -1.3004 -1.87523 0
M  V30 32835 C 3129.57 -0.177407 -1.61629 0
M  V30 32836 O 3130.75 -0.354748 -1.85132 0
M  V30 32837 C 3127.88 -1.01491 -3.23137 0
M  V30 32838 C 3126.93 -2.15729 -3.67917 0
M  V30 32839 S 3127.76 -3.7787 -3.7944 0
M  V30 32840 C 3128.92 -3.51509 -5.17873 0
M  V30 32841 H 3129.15 -2.24981 -1.94347 0
M  V30 32842 H 3126.68 -1.2426 -0.916453 0
M  V30 32843 H 3128.64 -0.85703 -4.01454 0
M  V30 32844 H 3127.3 -0.0826751 -3.13991 0
M  V30 32845 H 3126.49 -1.913 -4.66284 0
M  V30 32846 H 3126.1 -2.27625 -2.96754 0
M  V30 32847 H 3128.39 -3.0763 -6.03631 0
M  V30 32848 H 3129.33 -4.49269 -5.47323 0
M  V30 32849 H 3129.74 -2.86018 -4.86676 0
M  V30 32850 N 3129.14 0.981655 -1.23294 0
M  V30 32851 C 3130.08 2.07381 -1.01299 0
M  V30 32852 C 3131.05 1.65956 0.0691098 0
M  V30 32853 O 3132.24 1.9062 -0.0827443 0
M  V30 32854 C 3129.38 3.39685 -0.608936 0
M  V30 32855 C 3128.49 3.94387 -1.76303 0
M  V30 32856 C 3127.63 5.14898 -1.30587 0
M  V30 32857 C 3126.67 5.61764 -2.43079 0
M  V30 32858 N 3125.8 6.73505 -1.98331 0
M  V30 32859 H 3130.64 2.25529 -1.94784 0
M  V30 32860 H 3128.18 1.10554 -0.970376 0
M  V30 32861 H 3130.14 4.1568 -0.355775 0
M  V30 32862 H 3128.77 3.21505 0.288904 0
M  V30 32863 H 3127.82 3.1516 -2.13022 0
M  V30 32864 H 3129.13 4.2514 -2.60878 0
M  V30 32865 H 3128.29 5.98221 -1.01076 0
M  V30 32866 H 3127.03 4.85796 -0.430471 0
M  V30 32867 H 3126.03 4.77023 -2.73366 0
M  V30 32868 H 3127.26 5.92886 -3.31154 0
M  V30 32869 H 3125.2 6.46165 -1.13169 0
M  V30 32870 H 3125.12 7.03635 -2.76466 0
M  V30 32871 H 3126.39 7.60305 -1.7192 0
M  V30 32872 N 3130.62 1.04444 1.18022 0
M  V30 32873 C 3131.89 0.664157 1.83979 0
M  V30 32874 C 3132.27 -0.856082 1.92962 0
M  V30 32875 O 3131.62 -1.75904 1.45842 0
M  V30 32876 C 3131.83 1.34439 3.22067 0
M  V30 32877 C 3133.18 1.47761 3.9806 0
M  V30 32878 O 3134.2 1.3028 3.3152 0
M  V30 32879 O 3133.06 1.76281 5.17288 0
M  V30 32880 H 3130.16 0.232864 0.793539 0
M  V30 32881 H 3132.7 1.14356 1.25383 0
M  V30 32882 H 3131.47 2.38189 3.10454 0
M  V30 32883 H 3131.1 0.85385 3.88324 0
M  V30 32884 N 3132.09 -1.34317 0.824418 0
M  V30 32885 C 3133.34 -1.97497 0.409594 0
M  V30 32886 C 3133.66 -1.66085 -1.0332 0
M  V30 32887 O 3134.86 -2.22766 -1.55201 0
M  V30 32888 C 3133.32 -3.5339 0.681446 0
M  V30 32889 C 3132.93 -3.93694 2.13796 0
M  V30 32890 C 3134.67 -4.23193 0.332862 0
M  V30 32891 C 3132.58 -5.42505 2.35463 0
M  V30 32892 H 3131.51 -0.739046 0.149422 0
M  V30 32893 H 3134.16 -1.53139 1.01098 0
M  V30 32894 H 3132.54 -3.95999 0.00987336 0
M  V30 32895 H 3133.71 -3.62186 2.84882 0
M  V30 32896 H 3132.03 -3.36832 2.44813 0
M  V30 32897 H 3134.63 -5.32608 0.472556 0
M  V30 32898 H 3134.97 -4.09977 -0.72279 0
M  V30 32899 H 3135.5 -3.86066 0.959073 0
M  V30 32900 H 3132.24 -5.60708 3.39539 0
M  V30 32901 H 3131.76 -5.75522 1.68922 0
M  V30 32902 H 3133.44 -6.09205 2.17896 0
M  V30 32903 N 3133.57 -0.579517 -1.46558 0
M  V30 32904 C 3134.52 0.17641 -2.27317 0
M  V30 32905 C 3135.51 0.864811 -1.35683 0
M  V30 32906 O 3136.7 0.759434 -1.5988 0
M  V30 32907 C 3133.83 1.19151 -3.2196 0
M  V30 32908 C 3132.91 0.505385 -4.21078 0
M  V30 32909 N 3133.3 -0.437222 -5.03907 0
M  V30 32910 C 3131.6 0.756533 -4.39537 0
M  V30 32911 C 3132.3 -0.83792 -5.75633 0
M  V30 32912 N 3131.28 -0.187774 -5.43276 0
M  V30 32913 H 3135.08 -0.547983 -2.88746 0
M  V30 32914 H 3132.59 -0.401075 -1.57369 0
M  V30 32915 H 3134.59 1.74721 -3.78521 0
M  V30 32916 H 3133.25 1.91676 -2.62089 0
M  V30 32917 H 3134.26 -0.812578 -5.11486 0
M  V30 32918 H 3130.94 1.4686 -3.90818 0
M  V30 32919 H 3132.33 -1.61376 -6.52233 0
M  V30 32920 N 3135.05 1.54376 -0.317127 0
M  V30 32921 C 3135.96 2.27798 0.560827 0
M  V30 32922 C 3136.98 1.3191 1.13471 0
M  V30 32923 O 3138.15 1.64916 1.15606 0
M  V30 32924 C 3135.22 3.01663 1.70881 0
M  V30 32925 C 3134.28 4.13123 1.16738 0
M  V30 32926 C 3133.51 4.83457 2.26065 0
M  V30 32927 O 3133.73 4.53258 3.46284 0
M  V30 32928 O 3132.67 5.70507 1.91846 0
M  V30 32929 H 3136.49 3.0368 -0.0352464 0
M  V30 32930 H 3134.08 1.49169 -0.0830325 0
M  V30 32931 H 3135.96 3.47941 2.3773 0
M  V30 32932 H 3134.64 2.28662 2.29118 0
M  V30 32933 H 3133.54 3.71209 0.464159 0
M  V30 32934 H 3134.88 4.88149 0.630221 0
M  V30 32935 N 3136.53 0.0451655 1.57535 0
M  V30 32936 C 3137.75 -0.643225 1.97173 0
M  V30 32937 C 3138.18 -1.63937 0.922295 0
M  V30 32938 O 3137.54 -1.80934 -0.115123 0
M  V30 32939 C 3137.58 -1.31184 3.35891 0
M  V30 32940 O 3136.69 -2.42743 3.33391 0
M  V30 32941 H 3136.03 -0.167708 0.642472 0
M  V30 32942 H 3138.56 0.111783 2.04294 0
M  V30 32943 H 3138.57 -1.66492 3.72484 0
M  V30 32944 H 3137.24 -0.581751 4.11811 0
M  V30 32945 H 3135.82 -2.09427 3.08537 0
M  V30 32946 N 3138.01 -1.5594 -0.228159 0
M  V30 32947 C 3139.26 -1.77845 -0.951532 0
M  V30 32948 C 3139.57 -0.612534 -1.85762 0
M  V30 32949 O 3140.77 -0.715052 -2.61915 0
M  V30 32950 C 3139.23 -3.14926 -1.74211 0
M  V30 32951 C 3138.84 -4.39222 -0.882492 0
M  V30 32952 C 3140.58 -3.46161 -2.45709 0
M  V30 32953 C 3138.49 -5.6733 -1.67004 0
M  V30 32954 H 3137.42 -0.663037 -0.359024 0
M  V30 32955 H 3140.07 -1.82345 -0.205604 0
M  V30 32956 H 3138.45 -3.04585 -2.5307 0
M  V30 32957 H 3139.63 -4.60602 -0.134909 0
M  V30 32958 H 3137.94 -4.15458 -0.279949 0
M  V30 32959 H 3140.54 -4.39097 -3.0512 0
M  V30 32960 H 3140.88 -2.68352 -3.18266 0
M  V30 32961 H 3141.41 -3.57802 -1.73846 0
M  V30 32962 H 3138.15 -6.48013 -0.987872 0
M  V30 32963 H 3137.67 -5.50022 -2.39241 0
M  V30 32964 H 3139.35 -6.07266 -2.23241 0
M  V30 32965 N 3139.48 0.494597 -1.49638 0
M  V30 32966 C 3140.9 0.826337 -1.36542 0
M  V30 32967 C 3141.1 1.9742 -0.403421 0
M  V30 32968 O 3140.16 2.51976 0.16257 0
M  V30 32969 C 3141.47 1.16052 -2.77403 0
M  V30 32970 C 3143.02 1.26835 -2.8615 0
M  V30 32971 C 3143.49 1.63579 -4.27792 0
M  V30 32972 N 3144.98 1.70616 -4.30633 0
M  V30 32973 C 3145.72 2.00504 -5.37202 0
M  V30 32974 N 3145.21 2.28573 -6.54008 0
M  V30 32975 N 3147.01 2.01809 -5.24623 0
M  V30 32976 H 3139.16 -0.262227 -2.10775 0
M  V30 32977 H 3141.42 -0.0547401 -0.946418 0
M  V30 32978 H 3141.13 0.390373 -3.49527 0
M  V30 32979 H 3141 2.10243 -3.13173 0
M  V30 32980 H 3143.39 2.02921 -2.1426 0
M  V30 32981 H 3143.47 0.306795 -2.53954 0
M  V30 32982 H 3143.11 0.880419 -5.00211 0
M  V30 32983 H 3143.04 2.60846 -4.57457 0
M  V30 32984 H 3145.53 1.51059 -3.46395 0
M  V30 32985 H 3145.85 2.50585 -7.31045 0
M  V30 32986 H 3144.19 2.26015 -6.57223 0
M  V30 32987 H 3147.38 1.79362 -4.32374 0
M  V30 32988 H 3147.56 2.24768 -6.07769 0
M  V30 32989 N 3140.96 1.3882 0.746109 0
M  V30 32990 C 3142.21 1.36643 1.50666 0
M  V30 32991 C 3142.56 -0.0411174 1.92356 0
M  V30 32992 O 3141.86 -1.00534 1.63106 0
M  V30 32993 C 3142.05 2.26291 2.76635 0
M  V30 32994 C 3141.88 3.75622 2.47262 0
M  V30 32995 C 3140.65 4.44608 2.40109 0
M  V30 32996 C 3142.85 4.67873 2.1354 0
M  V30 32997 N 3140.83 5.79334 2.03088 0
M  V30 32998 C 3142.2 5.91167 1.86873 0
M  V30 32999 C 3144.26 4.56003 1.99914 0
M  V30 33000 C 3142.96 7.03919 1.47953 0
M  V30 33001 C 3144.98 5.68667 1.62396 0
M  V30 33002 C 3144.35 6.91027 1.36606 0
M  V30 33003 H 3140.45 0.555291 0.550614 0
M  V30 33004 H 3143.03 1.74274 0.868149 0
M  V30 33005 H 3141.2 1.90836 3.38284 0
M  V30 33006 H 3142.93 2.15186 3.42749 0
M  V30 33007 H 3139.69 3.97912 2.56832 0
M  V30 33008 H 3140.11 6.50603 1.87203 0
M  V30 33009 H 3144.75 3.61949 2.18525 0
M  V30 33010 H 3142.47 7.97885 1.28082 0
M  V30 33011 H 3146.06 5.61465 1.52474 0
M  V30 33012 H 3144.94 7.76726 1.08008 0
M  V30 33013 N 3142.44 -0.975103 1.23812 0
M  V30 33014 C 3143.67 -1.75222 1.10022 0
M  V30 33015 C 3144.08 -1.85567 -0.347878 0
M  V30 33016 O 3143.44 -1.33867 -1.2404 0
M  V30 33017 C 3143.49 -3.17647 1.72577 0
M  V30 33018 O 3143.21 -3.0783 3.11725 0
M  V30 33019 C 3144.71 -4.11729 1.64299 0
M  V30 33020 H 3141.93 -0.549721 0.38477 0
M  V30 33021 H 3144.48 -1.22473 1.6377 0
M  V30 33022 H 3142.63 -3.67405 1.2285 0
M  V30 33023 H 3143.05 -3.97527 3.42159 0
M  V30 33024 H 3144.52 -5.09349 2.12763 0
M  V30 33025 H 3145 -4.35044 0.602799 0
M  V30 33026 H 3145.6 -3.67876 2.13418 0
M  V30 33027 N 3143.92 -1.05068 -1.17467 0
M  V30 33028 C 3144.87 -0.650551 -2.21442 0
M  V30 33029 C 3145.84 0.346674 -1.62442 0
M  V30 33030 O 3147.02 0.238371 -1.89305 0
M  V30 33031 C 3144.16 -0.0301621 -3.45087 0
M  V30 33032 C 3143.27 -1.07607 -4.18384 0
M  V30 33033 C 3142.41 -0.423131 -5.29512 0
M  V30 33034 C 3141.45 -1.45343 -5.94594 0
M  V30 33035 N 3140.58 -0.824745 -6.97239 0
M  V30 33036 H 3145.42 -1.54167 -2.55022 0
M  V30 33037 H 3142.96 -0.771054 -1.25272 0
M  V30 33038 H 3144.92 0.346959 -4.15755 0
M  V30 33039 H 3143.55 0.824426 -3.12095 0
M  V30 33040 H 3142.6 -1.57103 -3.46443 0
M  V30 33041 H 3143.91 -1.85821 -4.62895 0
M  V30 33042 H 3143.07 0.00764311 -6.067 0
M  V30 33043 H 3141.81 0.391007 -4.8613 0
M  V30 33044 H 3140.81 -1.89424 -5.16138 0
M  V30 33045 H 3142.04 -2.26945 -6.40057 0
M  V30 33046 H 3139.98 -0.0310957 -6.55993 0
M  V30 33047 H 3139.9 -1.54445 -7.40056 0
M  V30 33048 H 3141.17 -0.418703 -7.78375 0
M  V30 33049 N 3145.4 1.33878 -0.831529 0
M  V30 33050 C 3146.67 1.92517 -0.345941 0
M  V30 33051 C 3147.05 1.75856 1.16781 0
M  V30 33052 O 3146.4 1.14249 1.97887 0
M  V30 33053 C 3146.61 3.40063 -0.784752 0
M  V30 33054 C 3147.96 4.17214 -0.788534 0
M  V30 33055 O 3148.98 3.48684 -0.727884 0
M  V30 33056 O 3147.84 5.39537 -0.869576 0
M  V30 33057 H 3144.94 0.821366 -0.0963713 0
M  V30 33058 H 3147.48 1.42798 -0.916893 0
M  V30 33059 H 3146.25 3.46028 -1.82703 0
M  V30 33060 H 3145.88 3.97146 -0.189967 0
M  V30 33061 N 3146.87 0.587281 1.46249 0
M  V30 33062 C 3148.29 0.161951 1.85996 0
M  V30 33063 C 3148.64 -1.27614 1.49027 0
M  V30 33064 O 3147.76 -1.96461 0.907316 0
M  V30 33065 C 3148.36 0.287137 3.37581 0
M  V30 33066 C 3146.92 -0.083355 3.76308 0
M  V30 33067 C 3146.06 0.620979 2.70258 0
M  V30 33068 H 3149.01 0.795223 1.37339 0
M  V30 33069 H 3149.03 -0.486266 3.7738 0
M  V30 33070 H 3148.55 1.3339 3.64457 0
M  V30 33071 H 3146.65 -1.13007 3.55049 0
M  V30 33072 H 3146.76 0.296148 4.78184 0
M  V30 33073 H 3145.12 0.0607475 2.54628 0
M  V30 33074 H 3145.91 1.66948 2.99972 0
M  V30 33075 N 3148.35 -1.54206 0.325309 0
M  V30 33076 C 3149.3 -2.24398 -0.53985 0
M  V30 33077 C 3150.27 -1.23542 -1.11026 0
M  V30 33078 O 3151.45 -1.52228 -1.15027 0
M  V30 33079 C 3148.59 -3.00662 -1.694 0
M  V30 33080 C 3147.71 -4.16339 -1.15266 0
M  V30 33081 C 3146.84 -4.8013 -2.27263 0
M  V30 33082 C 3145.88 -5.87907 -1.70387 0
M  V30 33083 N 3145.02 -6.45553 -2.76054 0
M  V30 33084 H 3149.86 -2.97928 0.0652842 0
M  V30 33085 H 3147.4 -1.47034 0.0439899 0
M  V30 33086 H 3149.35 -3.43126 -2.37319 0
M  V30 33087 H 3147.98 -2.29462 -2.27039 0
M  V30 33088 H 3147.04 -3.78645 -0.364967 0
M  V30 33089 H 3148.35 -4.93913 -0.69649 0
M  V30 33090 H 3147.5 -5.25572 -3.03083 0
M  V30 33091 H 3146.24 -4.0194 -2.76217 0
M  V30 33092 H 3145.25 -5.41866 -0.930657 0
M  V30 33093 H 3146.47 -6.67995 -1.22308 0
M  V30 33094 H 3144.42 -5.70235 -3.24296 0
M  V30 33095 H 3144.33 -7.18546 -2.35005 0
M  V30 33096 H 3145.6 -6.9565 -3.51697 0
M  V30 33097 N 3149.83 -0.0535194 -1.57509 0
M  V30 33098 C 3150.78 0.937893 -2.12853 0
M  V30 33099 C 3151.77 1.32065 -1.0609 0
M  V30 33100 O 3152.98 1.30003 -1.24496 0
M  V30 33101 H 3149.35 0.32033 -0.680362 0
M  V30 33102 H 3151.33 0.446025 -2.95048 0
M  V30 33103 C 3150.07 2.20259 -2.69038 0
M  V30 33104 H 3149.4 1.91686 -3.50851 0
M  V30 33105 H 3150.84 2.87782 -3.1138 0
M  V30 33106 C 3149.3 2.94885 -1.62925 0
M  V30 33107 O 3149.83 3.87912 -1.04341 0
M  V30 33108 N 3148.03 2.57658 -1.34389 0
M  V30 33109 H 3147.58 1.82084 -1.82217 0
M  V30 33110 H 3147.54 3.07896 -0.636203 0
M  V30 33111 N 3151.31 1.56059 0.219886 0
M  V30 33112 C 3152.54 1.83234 0.960882 0
M  V30 33113 C 3152.95 0.632859 1.77877 0
M  V30 33114 O 3152.31 -0.398593 1.78094 0
M  V30 33115 C 3152.36 3.08945 1.8771 0
M  V30 33116 O 3152.08 4.24265 1.09227 0
M  V30 33117 C 3153.58 3.4912 2.73186 0
M  V30 33118 H 3150.8 0.60908 0.281535 0
M  V30 33119 H 3153.35 2.0315 0.234613 0
M  V30 33120 H 3151.5 2.91 2.5573 0
M  V30 33121 H 3151.92 4.95691 1.71438 0
M  V30 33122 H 3153.39 4.40113 3.33174 0
M  V30 33123 H 3153.87 2.7095 3.45663 0
M  V30 33124 H 3154.47 3.6951 2.10576 0
M  V30 33125 N 3152.79 -0.486655 1.49898 0
M  V30 33126 C 3153.72 -1.60362 1.63758 0
M  V30 33127 C 3154.73 -1.54284 0.519641 0
M  V30 33128 O 3155.92 -1.59955 0.792247 0
M  V30 33129 C 3153.02 -2.99202 1.59158 0
M  V30 33130 C 3152.19 -3.30314 2.86726 0
M  V30 33131 C 3151.25 -4.48633 2.74982 0
M  V30 33132 O 3150.28 -4.49707 3.4893 0
M  V30 33133 N 3151.48 -5.49389 1.87489 0
M  V30 33134 H 3154.25 -1.48895 2.60097 0
M  V30 33135 H 3151.81 -0.674799 1.47167 0
M  V30 33136 H 3153.8 -3.76298 1.48936 0
M  V30 33137 H 3152.37 -3.04519 0.706187 0
M  V30 33138 H 3151.59 -2.41978 3.11192 0
M  V30 33139 H 3152.88 -3.47904 3.71268 0
M  V30 33140 H 3152.28 -5.5133 1.26693 0
M  V30 33141 H 3150.83 -6.2553 1.8318 0
M  V30 33142 N 3154.27 -1.39214 -0.738737 0
M  V30 33143 C 3155.54 -1.26745 -1.4898 0
M  V30 33144 C 3155.92 0.124623 -2.10732 0
M  V30 33145 O 3155.27 1.13551 -1.98289 0
M  V30 33146 C 3155.48 -2.38894 -2.54422 0
M  V30 33147 C 3156.83 -2.78032 -3.2091 0
M  V30 33148 O 3157.85 -2.38316 -2.64734 0
M  V30 33149 O 3156.71 -3.46572 -4.22552 0
M  V30 33150 H 3153.81 -0.496484 -0.661387 0
M  V30 33151 H 3156.35 -1.51078 -0.77288 0
M  V30 33152 H 3155.12 -3.31974 -2.07145 0
M  V30 33153 H 3154.75 -2.16206 -3.33678 0
M  V30 33154 N 3155.74 0.968523 -1.24328 0
M  V30 33155 C 3156.69 2.04805 -1.00195 0
M  V30 33156 C 3157.68 1.60801 0.0563242 0
M  V30 33157 O 3158.87 1.763 -0.157299 0
M  V30 33158 C 3156 3.37877 -0.607809 0
M  V30 33159 C 3155.08 3.88444 -1.70211 0
M  V30 33160 N 3155.48 4.11957 -2.9347 0
M  V30 33161 C 3153.77 4.17097 -1.57943 0
M  V30 33162 C 3154.47 4.53414 -3.64404 0
M  V30 33163 N 3153.45 4.58539 -2.91964 0
M  V30 33164 H 3157.25 2.20958 -1.9379 0
M  V30 33165 H 3154.77 1.15225 -1.14442 0
M  V30 33166 H 3156.76 4.14818 -0.416152 0
M  V30 33167 H 3155.42 3.2311 0.32097 0
M  V30 33168 H 3156.43 3.99433 -3.29657 0
M  V30 33169 H 3153.11 4.11269 -0.718625 0
M  V30 33170 H 3154.5 4.80026 -4.70133 0
M  V30 33171 N 3157.22 1.0569 1.16908 0
M  V30 33172 C 3158.47 0.771104 1.87568 0
M  V30 33173 C 3158.8 -0.700367 1.81131 0
M  V30 33174 O 3158.08 -1.51257 1.22276 0
M  V30 33175 C 3158.36 1.25857 3.3739 0
M  V30 33176 C 3158.21 2.79335 3.52551 0
M  V30 33177 C 3159.53 0.861588 4.31584 0
M  V30 33178 H 3156.65 0.281591 0.681084 0
M  V30 33179 H 3159.29 1.31176 1.37451 0
M  V30 33180 H 3157.44 0.798629 3.80203 0
M  V30 33181 H 3159.11 3.33491 3.18719 0
M  V30 33182 H 3157.36 3.18365 2.94663 0
M  V30 33183 H 3158.03 3.08506 4.57742 0
M  V30 33184 H 3160.5 1.25763 3.9664 0
M  V30 33185 H 3159.38 1.23021 5.34936 0
M  V30 33186 H 3159.64 -0.234011 4.4148 0
M  V30 33187 N 3158.7 -1.33435 0.838617 0
M  V30 33188 C 3160.12 -1.5067 0.526373 0
M  V30 33189 C 3160.32 -1.77894 -0.946355 0
M  V30 33190 O 3159.37 -1.83906 -1.73017 0
M  V30 33191 C 3160.68 -2.66148 1.39949 0
M  V30 33192 C 3162.23 -2.80032 1.39824 0
M  V30 33193 C 3162.71 -3.98572 2.25621 0
M  V30 33194 N 3164.2 -4.05806 2.23329 0
M  V30 33195 C 3164.93 -4.96722 2.86452 0
M  V30 33196 N 3164.43 -5.92755 3.58627 0
M  V30 33197 N 3166.22 -4.89717 2.75924 0
M  V30 33198 H 3158.37 -1.14026 1.79197 0
M  V30 33199 H 3160.64 -0.560573 0.764501 0
M  V30 33200 H 3160.34 -2.52709 2.44603 0
M  V30 33201 H 3160.22 -3.61547 1.07536 0
M  V30 33202 H 3162.6 -2.92903 0.359422 0
M  V30 33203 H 3162.68 -1.85395 1.76245 0
M  V30 33204 H 3162.33 -3.8646 3.29562 0
M  V30 33205 H 3162.26 -4.92453 1.86542 0
M  V30 33206 H 3164.75 -3.37078 1.70842 0
M  V30 33207 H 3165.06 -6.58791 4.03998 0
M  V30 33208 H 3163.41 -5.92831 3.62734 0
M  V30 33209 H 3166.6 -4.13657 2.19101 0
M  V30 33210 H 3166.77 -5.60372 3.25403 0
M  V30 33211 N 3160.18 -0.595029 -1.45935 0
M  V30 33212 C 3161.4 -0.089478 -2.07207 0
M  V30 33213 C 3161.83 1.21155 -1.43886 0
M  V30 33214 O 3161.19 1.73471 -0.527029 0
M  V30 33215 C 3161.23 0.0499194 -3.60565 0
M  V30 33216 O 3160.34 1.10335 -3.97366 0
M  V30 33217 H 3159.68 -0.0683743 -0.66047 0
M  V30 33218 H 3162.21 -0.821473 -1.87385 0
M  V30 33219 H 3162.22 0.252162 -4.0722 0
M  V30 33220 H 3160.89 -0.900132 -4.06042 0
M  V30 33221 H 3159.47 0.878581 -3.62402 0
M  V30 33222 N 3161.66 1.54031 -0.333483 0
M  V30 33223 C 3162.59 2.27625 0.52047 0
M  V30 33224 C 3163.57 1.28799 1.11107 0
M  V30 33225 O 3164.75 1.57627 1.13435 0
M  V30 33226 C 3161.88 3.04152 1.67658 0
M  V30 33227 C 3160.84 4.10398 1.2148 0
M  V30 33228 C 3160.16 4.74821 2.45863 0
M  V30 33229 C 3161.46 5.21303 0.322511 0
M  V30 33230 H 3163.16 2.99254 -0.0934349 0
M  V30 33231 H 3160.7 1.43925 -0.0463779 0
M  V30 33232 H 3162.65 3.5437 2.28035 0
M  V30 33233 H 3161.38 2.30157 2.31722 0
M  V30 33234 H 3160.04 3.61078 0.633903 0
M  V30 33235 H 3159.69 3.97432 3.08313 0
M  V30 33236 H 3159.39 5.46597 2.15652 0
M  V30 33237 H 3160.91 5.27819 3.06985 0
M  V30 33238 H 3162.32 5.67218 0.832842 0
M  V30 33239 H 3160.72 5.99994 0.112737 0
M  V30 33240 H 3161.79 4.80604 -0.644038 0
M  V30 33241 N 3163.13 0.0618717 1.57479 0
M  V30 33242 C 3164.37 -0.613275 1.94983 0
M  V30 33243 C 3164.74 -1.67373 0.940759 0
M  V30 33244 O 3165.94 -2.40372 1.20311 0
M  V30 33245 C 3164.21 -1.18424 3.3721 0
M  V30 33246 S 3165.77 -1.87589 3.96681 0
M  V30 33247 H 3162.59 -0.201084 0.681972 0
M  V30 33248 H 3165.19 0.133362 1.95045 0
M  V30 33249 H 3163.89 -0.400451 4.08442 0
M  V30 33250 H 3163.42 -1.96745 3.40668 0
M  V30 33251 H 3165.44 -3.15747 3.82777 0
M  V30 33252 N 3164.61 -1.56173 -0.211607 0
M  V30 33253 C 3165.54 -1.96246 -1.26529 0
M  V30 33254 C 3166.52 -0.832054 -1.48361 0
M  V30 33255 O 3167.71 -1.09513 -1.60376 0
M  V30 33256 C 3164.84 -2.28775 -2.61303 0
M  V30 33257 C 3163.79 -3.44399 -2.54112 0
M  V30 33258 C 3163.12 -3.62559 -3.93007 0
M  V30 33259 C 3164.42 -4.7908 -2.08038 0
M  V30 33260 H 3166.11 -2.84513 -0.932357 0
M  V30 33261 H 3163.66 -1.36885 -0.44706 0
M  V30 33262 H 3165.61 -2.55402 -3.35184 0
M  V30 33263 H 3164.34 -1.37372 -2.96305 0
M  V30 33264 H 3162.99 -3.17837 -1.82689 0
M  V30 33265 H 3162.64 -2.68516 -4.25333 0
M  V30 33266 H 3162.34 -4.40334 -3.89075 0
M  V30 33267 H 3163.87 -3.91545 -4.68535 0
M  V30 33268 H 3165.28 -5.04846 -2.71667 0
M  V30 33269 H 3163.68 -5.60208 -2.15144 0
M  V30 33270 H 3164.75 -4.73769 -1.03298 0
M  V30 33271 N 3166.09 0.478699 -1.50154 0
M  V30 33272 C 3167.02 1.58584 -1.71387 0
M  V30 33273 C 3168 1.60522 -0.562733 0
M  V30 33274 O 3169.19 1.76909 -0.801041 0
M  V30 33275 C 3166.32 2.96954 -1.80099 0
M  V30 33276 C 3165.27 3.09882 -2.95224 0
M  V30 33277 C 3164.6 4.49824 -2.89071 0
M  V30 33278 C 3165.9 2.87812 -4.35846 0
M  V30 33279 H 3167.59 1.41069 -2.64083 0
M  V30 33280 H 3165.14 0.677217 -1.27082 0
M  V30 33281 H 3167.09 3.74327 -1.93538 0
M  V30 33282 H 3165.81 3.15608 -0.840186 0
M  V30 33283 H 3164.47 2.34939 -2.81423 0
M  V30 33284 H 3164.12 4.65386 -1.90852 0
M  V30 33285 H 3163.82 4.59412 -3.66353 0
M  V30 33286 H 3165.34 5.29228 -3.04548 0
M  V30 33287 H 3166.76 3.5494 -4.50212 0
M  V30 33288 H 3165.16 3.08851 -5.1452 0
M  V30 33289 H 3166.23 1.83734 -4.48743 0
M  V30 33290 N 3167.57 1.39603 0.731343 0
M  V30 33291 C 3168.53 1.38386 1.82707 0
M  V30 33292 C 3169.53 0.280337 1.58337 0
M  V30 33293 O 3170.72 0.538432 1.6567 0
M  V30 33294 C 3167.85 1.16008 3.20554 0
M  V30 33295 H 3169.05 2.35892 1.85189 0
M  V30 33296 H 3166.6 1.25222 0.935374 0
M  V30 33297 H 3167.33 0.191984 3.23731 0
M  V30 33298 H 3167.12 1.95926 3.3964 0
M  V30 33299 H 3168.61 1.17906 4.0061 0
M  V30 33300 N 3169.05 -0.961916 1.2484 0
M  V30 33301 C 3170.29 -1.70881 1.10324 0
M  V30 33302 C 3170.65 -1.89127 -0.353364 0
M  V30 33303 O 3169.94 -1.44587 -1.25719 0
M  V30 33304 C 3170.13 -3.09751 1.78295 0
M  V30 33305 C 3169.96 -3.05051 3.30415 0
M  V30 33306 C 3168.73 -3.09211 3.99646 0
M  V30 33307 C 3170.93 -2.8678 4.26921 0
M  V30 33308 N 3168.91 -2.94592 5.38599 0
M  V30 33309 C 3170.28 -2.80516 5.52911 0
M  V30 33310 C 3172.34 -2.71404 4.17426 0
M  V30 33311 C 3171.04 -2.60449 6.70491 0
M  V30 33312 C 3173.07 -2.52706 5.3469 0
M  V30 33313 C 3172.43 -2.47157 6.59616 0
M  V30 33314 H 3168.53 -0.633582 0.458364 0
M  V30 33315 H 3171.11 -1.13998 1.57837 0
M  V30 33316 H 3169.28 -3.64814 1.33287 0
M  V30 33317 H 3171.02 -3.73179 1.56587 0
M  V30 33318 H 3167.77 -3.18119 3.50852 0
M  V30 33319 H 3168.2 -2.90507 6.11502 0
M  V30 33320 H 3172.84 -2.74473 3.21596 0
M  V30 33321 H 3170.56 -2.56123 7.66438 0
M  V30 33322 H 3174.14 -2.41745 5.29198 0
M  V30 33323 H 3173.02 -2.32875 7.48825 0
M  V30 33324 N 3170.52 -1.06308 -1.16346 0
M  V30 33325 C 3171.47 -0.643985 -2.18716 0
M  V30 33326 C 3172.46 0.325418 -1.57575 0
M  V30 33327 O 3173.65 0.140837 -1.76439 0
M  V30 33328 C 3170.78 -0.0320869 -3.43285 0
M  V30 33329 C 3169.87 -1.02599 -4.11502 0
M  V30 33330 N 3170.26 -2.20163 -4.5537 0
M  V30 33331 C 3168.55 -0.856964 -4.3769 0
M  V30 33332 C 3169.26 -2.83133 -5.08144 0
M  V30 33333 N 3168.23 -2.1086 -5.01038 0
M  V30 33334 H 3172.03 -1.53955 -2.5035 0
M  V30 33335 H 3169.55 -0.934786 -1.32799 0
M  V30 33336 H 3171.54 0.285991 -4.15918 0
M  V30 33337 H 3170.2 0.858731 -3.13139 0
M  V30 33338 H 3171.22 -2.57939 -4.49097 0
M  V30 33339 H 3167.89 -0.0181476 -4.17496 0
M  V30 33340 H 3169.28 -3.82895 -5.52124 0
M  V30 33341 N 3172 1.32989 -0.845682 0
M  V30 33342 C 3172.95 2.30999 -0.272453 0
M  V30 33343 C 3173.94 1.58445 0.599284 0
M  V30 33344 O 3175.15 1.73256 0.488086 0
M  V30 33345 H 3171.53 0.748792 -0.0693883 0
M  V30 33346 H 3173.5 2.76847 -1.11348 0
M  V30 33347 C 3172.25 3.43607 0.531959 0
M  V30 33348 H 3171.57 3.9959 -0.129525 0
M  V30 33349 H 3173.01 4.14365 0.89878 0
M  V30 33350 C 3171.47 2.90065 1.71359 0
M  V30 33351 O 3172 2.86815 2.81247 0
M  V30 33352 N 3170.2 2.46583 1.53771 0
M  V30 33353 H 3169.75 2.49425 0.643792 0
M  V30 33354 H 3169.71 2.11112 2.32979 0
M  V30 33355 N 3173.48 0.60276 1.45618 0
M  V30 33356 C 3174.73 0.0958795 2.01872 0
M  V30 33357 C 3175.05 -1.2763 1.4743 0
M  V30 33358 O 3174.32 -1.84207 0.666684 0
M  V30 33359 H 3172.9 0.032454 0.746295 0
M  V30 33360 H 3175.56 0.783068 1.78477 0
M  V30 33361 H 3174.66 0.0420055 3.12072 0
M  V30 33362 N 3174.96 -1.53852 0.341647 0
M  V30 33363 C 3175.87 -2.28661 -0.524515 0
M  V30 33364 C 3176.88 -1.33699 -1.11358 0
M  V30 33365 O 3178.06 -1.66734 -1.12967 0
M  V30 33366 C 3175.13 -3.04344 -1.6606 0
M  V30 33367 C 3174.19 -4.14928 -1.10151 0
M  V30 33368 C 3173.42 -4.86992 -2.18345 0
M  V30 33369 O 3173.64 -4.5871 -3.3903 0
M  V30 33370 O 3172.58 -5.73487 -1.82746 0
M  V30 33371 H 3176.4 -3.03585 0.0835547 0
M  V30 33372 H 3173.99 -1.49018 0.106753 0
M  V30 33373 H 3175.87 -3.51679 -2.32164 0
M  V30 33374 H 3174.54 -2.32279 -2.25451 0
M  V30 33375 H 3173.45 -3.71901 -0.405044 0
M  V30 33376 H 3174.78 -4.89089 -0.552481 0
M  V30 33377 N 3176.44 -0.0702223 -1.57443 0
M  V30 33378 C 3177.39 0.907633 -2.09156 0
M  V30 33379 C 3178.37 1.2598 -1.00089 0
M  V30 33380 O 3179.56 1.23904 -1.264 0
M  V30 33381 C 3176.69 2.17576 -2.65548 0
M  V30 33382 C 3175.78 1.85014 -3.81616 0
M  V30 33383 N 3176.17 1.22895 -4.90643 0
M  V30 33384 C 3174.47 2.14773 -3.90882 0
M  V30 33385 C 3175.17 1.0839 -5.71513 0
M  V30 33386 N 3174.14 1.59309 -5.19732 0
M  V30 33387 H 3177.95 0.423 -2.9084 0
M  V30 33388 H 3175.46 0.133711 -1.61849 0
M  V30 33389 H 3177.46 2.88547 -3.00909 0
M  V30 33390 H 3176.12 2.66628 -1.85309 0
M  V30 33391 H 3177.13 0.898788 -5.10041 0
M  V30 33392 H 3173.8 2.66214 -3.21615 0
M  V30 33393 H 3175.19 0.600066 -6.69215 0
M  V30 33394 N 3177.91 1.56283 0.203321 0
M  V30 33395 C 3178.82 1.97082 1.27263 0
M  V30 33396 C 3179.84 0.877262 1.50267 0
M  V30 33397 O 3181.02 1.18234 1.63042 0
M  V30 33398 C 3178.08 2.295 2.59867 0
M  V30 33399 C 3177.14 3.5252 2.45006 0
M  V30 33400 C 3176.38 3.83382 3.71287 0
M  V30 33401 O 3176.6 3.15652 4.751 0
M  V30 33402 O 3175.53 4.76832 3.67307 0
M  V30 33403 H 3179.36 2.88247 0.95641 0
M  V30 33404 H 3176.94 1.43731 0.407663 0
M  V30 33405 H 3178.83 2.51464 3.38148 0
M  V30 33406 H 3177.5 1.41505 2.91132 0
M  V30 33407 H 3176.41 3.35814 1.64864 0
M  V30 33408 H 3177.74 4.40956 2.18675 0
M  V30 33409 N 3179.39 -0.470729 1.50406 0
M  V30 33410 C 3180.62 -1.24425 1.64931 0
M  V30 33411 C 3181.03 -1.86261 0.332172 0
M  V30 33412 O 3180.37 -1.70009 -0.695889 0
M  V30 33413 C 3180.44 -2.39288 2.68294 0
M  V30 33414 C 3180.1 -1.98086 4.11839 0
M  V30 33415 C 3181.1 -1.50317 4.97695 0
M  V30 33416 C 3178.78 -2.06795 4.57756 0
M  V30 33417 C 3180.78 -1.11802 6.27518 0
M  V30 33418 C 3178.46 -1.67891 5.87585 0
M  V30 33419 C 3179.46 -1.20473 6.72291 0
M  V30 33420 O 3179.15 -0.821078 7.99696 0
M  V30 33421 H 3178.88 -0.382432 0.557424 0
M  V30 33422 H 3181.44 -0.568257 1.97383 0
M  V30 33423 H 3179.67 -3.10059 2.31085 0
M  V30 33424 H 3181.35 -3.0125 2.72035 0
M  V30 33425 H 3182.12 -1.4301 4.63436 0
M  V30 33426 H 3178 -2.42653 3.9197 0
M  V30 33427 H 3181.54 -0.747195 6.93587 0
M  V30 33428 H 3177.44 -1.74858 6.21365 0
M  V30 33429 H 3178.21 -0.949895 8.12969 0
M  V30 33430 N 3180.87 -1.39989 -0.72393 0
M  V30 33431 C 3181.78 -1.4189 -1.86827 0
M  V30 33432 C 3182.8 -0.312431 -1.71172 0
M  V30 33433 O 3183.97 -0.555685 -1.93582 0
M  V30 33434 C 3181.04 -1.2716 -3.22539 0
M  V30 33435 C 3180.1 -2.47877 -3.50508 0
M  V30 33436 C 3179.33 -2.3384 -4.79744 0
M  V30 33437 O 3179.56 -1.34775 -5.54249 0
M  V30 33438 O 3178.49 -3.23048 -5.07862 0
M  V30 33439 H 3182.32 -2.38375 -1.88179 0
M  V30 33440 H 3179.9 -1.21223 -0.873237 0
M  V30 33441 H 3181.78 -1.21121 -4.03618 0
M  V30 33442 H 3180.46 -0.337771 -3.21933 0
M  V30 33443 H 3179.36 -2.59493 -2.69471 0
M  V30 33444 H 3180.7 -3.39991 -3.55903 0
M  V30 33445 N 3182.35 0.955282 -1.25348 0
M  V30 33446 C 3183.26 2.08564 -1.07415 0
M  V30 33447 C 3184.28 1.73996 -0.0114729 0
M  V30 33448 O 3185.45 2.00278 -0.212271 0
M  V30 33449 C 3182.52 3.39679 -0.694201 0
M  V30 33450 C 3181.58 3.88118 -1.83475 0
M  V30 33451 C 3180.81 5.12975 -1.47283 0
M  V30 33452 O 3181.03 5.6921 -0.368186 0
M  V30 33453 O 3179.97 5.56107 -2.30279 0
M  V30 33454 H 3183.79 2.26594 -2.0221 0
M  V30 33455 H 3181.38 1.06986 -1.0428 0
M  V30 33456 H 3183.26 4.1849 -0.494399 0
M  V30 33457 H 3181.94 3.22921 0.224488 0
M  V30 33458 H 3180.84 3.10314 -2.0894 0
M  V30 33459 H 3182.18 4.09374 -2.73265 0
M  V30 33460 N 3183.83 1.06924 1.1578 0
M  V30 33461 C 3185.07 0.789784 1.86464 0
M  V30 33462 C 3185.4 -0.68399 1.82076 0
M  V30 33463 O 3184.66 -1.51746 1.23578 0
M  V30 33464 C 3184.96 1.23776 3.35282 0
M  V30 33465 C 3184.62 2.71675 3.59866 0
M  V30 33466 C 3183.28 3.12072 3.66285 0
M  V30 33467 C 3185.64 3.6716 3.69923 0
M  V30 33468 C 3182.96 4.46782 3.80267 0
M  V30 33469 C 3185.32 5.01626 3.85428 0
M  V30 33470 C 3183.98 5.41651 3.9009 0
M  V30 33471 H 3183.25 0.289003 0.682318 0
M  V30 33472 H 3185.9 1.33948 1.36859 0
M  V30 33473 H 3184.2 0.607377 3.87064 0
M  V30 33474 H 3185.9 0.998499 3.8837 0
M  V30 33475 H 3182.49 2.39399 3.55508 0
M  V30 33476 H 3186.67 3.37079 3.64268 0
M  V30 33477 H 3181.93 4.77268 3.82132 0
M  V30 33478 H 3186.1 5.75492 3.92151 0
M  V30 33479 H 3183.73 6.46036 4.00677 0
M  V30 33480 N 3185.31 -1.32538 0.852723 0
M  V30 33481 C 3186.55 -1.96584 0.451394 0
M  V30 33482 C 3186.87 -1.68239 -0.997743 0
M  V30 33483 O 3188.07 -2.26008 -1.50441 0
M  V30 33484 C 3186.53 -3.51865 0.756252 0
M  V30 33485 C 3186.14 -3.89071 2.22099 0
M  V30 33486 C 3187.88 -4.22392 0.422553 0
M  V30 33487 C 3185.79 -5.37388 2.46917 0
M  V30 33488 H 3184.72 -0.73571 0.165065 0
M  V30 33489 H 3187.37 -1.5096 1.04324 0
M  V30 33490 H 3185.75 -3.95889 0.0938683 0
M  V30 33491 H 3186.93 -3.56062 2.925 0
M  V30 33492 H 3185.24 -3.31563 2.51902 0
M  V30 33493 H 3187.84 -5.31486 0.585424 0
M  V30 33494 H 3188.18 -4.11418 -0.635665 0
M  V30 33495 H 3188.71 -3.83944 1.04075 0
M  V30 33496 H 3185.45 -5.5338 3.51356 0
M  V30 33497 H 3184.97 -5.71809 1.81092 0
M  V30 33498 H 3186.65 -6.04446 2.30769 0
M  V30 33499 N 3186.78 -0.610474 -1.45296 0
M  V30 33500 C 3188.2 -0.27436 -1.57224 0
M  V30 33501 C 3188.4 1.22304 -1.60138 0
M  V30 33502 O 3187.46 2.00619 -1.53323 0
M  V30 33503 C 3188.77 -0.948078 -2.85363 0
M  V30 33504 C 3190.32 -0.924269 -2.99042 0
M  V30 33505 C 3190.79 -1.57805 -4.29955 0
M  V30 33506 N 3192.28 -1.54368 -4.36721 0
M  V30 33507 C 3193.02 -2.01867 -5.36691 0
M  V30 33508 N 3192.51 -2.57464 -6.43183 0
M  V30 33509 N 3194.31 -1.92618 -5.28067 0
M  V30 33510 H 3186.46 -1.5827 -1.41648 0
M  V30 33511 H 3188.72 -0.66317 -0.677429 0
M  V30 33512 H 3188.43 -2.00254 -2.89121 0
M  V30 33513 H 3188.3 -0.473127 -3.74221 0
M  V30 33514 H 3190.69 0.121657 -2.94849 0
M  V30 33515 H 3190.77 -1.43751 -2.11587 0
M  V30 33516 H 3190.41 -2.62332 -4.34907 0
M  V30 33517 H 3190.34 -1.03981 -5.16232 0
M  V30 33518 H 3192.83 -1.13756 -3.60372 0
M  V30 33519 H 3193.15 -2.91494 -7.15717 0
M  V30 33520 H 3191.49 -2.61505 -6.43926 0
M  V30 33521 H 3194.68 -1.48919 -4.4378 0
M  V30 33522 H 3194.86 -2.29948 -6.05828 0
M  V30 33523 N 3188.26 1.53669 -0.349801 0
M  V30 33524 C 3189.21 2.25228 0.504082 0
M  V30 33525 C 3190.18 1.25292 1.09046 0
M  V30 33526 O 3191.36 1.54039 1.12591 0
M  V30 33527 C 3188.5 3.03319 1.64595 0
M  V30 33528 C 3187.62 4.1812 1.08628 0
M  V30 33529 C 3186.75 4.83685 2.19596 0
M  V30 33530 C 3185.79 5.90543 1.61012 0
M  V30 33531 N 3184.93 6.49863 2.65749 0
M  V30 33532 H 3189.77 2.97787 -0.112674 0
M  V30 33533 H 3187.3 1.46946 -0.0673762 0
M  V30 33534 H 3189.26 3.46858 2.3183 0
M  V30 33535 H 3187.89 2.33045 2.2336 0
M  V30 33536 H 3186.94 3.79178 0.304682 0
M  V30 33537 H 3188.26 4.94959 0.617824 0
M  V30 33538 H 3187.41 5.30327 2.94683 0
M  V30 33539 H 3186.15 4.06283 2.69788 0
M  V30 33540 H 3185.15 5.43278 0.844333 0
M  V30 33541 H 3186.38 6.69857 1.11665 0
M  V30 33542 H 3184.33 5.75322 3.15183 0
M  V30 33543 H 3184.24 7.22194 2.23544 0
M  V30 33544 H 3185.51 7.01157 3.40586 0
M  V30 33545 N 3189.74 0.0785709 1.57404 0
M  V30 33546 C 3190.99 -0.588592 1.92921 0
M  V30 33547 C 3191.3 -1.70357 0.961136 0
M  V30 33548 O 3192.51 -2.43076 1.20938 0
M  V30 33549 C 3190.96 -1.09833 3.42731 0
M  V30 33550 C 3190.57 -0.0139985 4.47998 0
M  V30 33551 C 3192.32 -1.73917 3.87238 0
M  V30 33552 C 3190.22 -0.538166 5.88946 0
M  V30 33553 H 3189.15 -0.223632 0.720073 0
M  V30 33554 H 3191.8 0.151902 1.8287 0
M  V30 33555 H 3190.19 -1.892 3.47878 0
M  V30 33556 H 3191.36 0.760853 4.54475 0
M  V30 33557 H 3189.67 0.531023 4.13 0
M  V30 33558 H 3192.27 -2.14178 4.89931 0
M  V30 33559 H 3192.61 -2.60185 3.24976 0
M  V30 33560 H 3193.15 -1.01161 3.84722 0
M  V30 33561 H 3189.89 0.287511 6.54869 0
M  V30 33562 H 3189.41 -1.28039 5.85974 0
M  V30 33563 H 3191.09 -1.01242 6.3903 0
M  V30 33564 N 3191.22 -1.56389 -0.19503 0
M  V30 33565 C 3192.63 -1.49975 -0.545868 0
M  V30 33566 C 3192.83 -0.778601 -1.8585 0
M  V30 33567 O 3191.89 -0.329149 -2.50345 0
M  V30 33568 C 3193.2 -2.94642 -0.600547 0
M  V30 33569 C 3194.75 -3.05314 -0.689375 0
M  V30 33570 C 3195.23 -4.51393 -0.775164 0
M  V30 33571 N 3196.72 -4.55544 -0.838689 0
M  V30 33572 C 3197.45 -5.65886 -0.925237 0
M  V30 33573 N 3196.95 -6.85918 -0.974083 0
M  V30 33574 N 3198.74 -5.53799 -0.962431 0
M  V30 33575 H 3190.89 -2.01689 0.665985 0
M  V30 33576 H 3193.15 -0.917837 0.237231 0
M  V30 33577 H 3192.86 -3.50462 0.294841 0
M  V30 33578 H 3192.73 -3.47999 -1.45522 0
M  V30 33579 H 3195.12 -2.49543 -1.57519 0
M  V30 33580 H 3195.2 -2.55082 0.191496 0
M  V30 33581 H 3194.85 -5.07789 0.106304 0
M  V30 33582 H 3194.78 -4.99357 -1.67184 0
M  V30 33583 H 3197.27 -3.69113 -0.810184 0
M  V30 33584 H 3197.58 -7.65761 -1.04064 0
M  V30 33585 H 3195.93 -6.88576 -0.94276 0
M  V30 33586 H 3199.12 -4.58948 -0.921108 0
M  V30 33587 H 3199.29 -6.39819 -1.02642 0
M  V30 33588 N 3192.7 0.462746 -1.50653 0
M  V30 33589 C 3193.92 1.24193 -1.66105 0
M  V30 33590 C 3194.35 1.84863 -0.347453 0
M  V30 33591 O 3193.7 1.67671 0.689643 0
M  V30 33592 C 3193.75 2.32032 -2.76031 0
M  V30 33593 O 3192.86 3.36889 -2.37865 0
M  V30 33594 H 3192.2 0.365005 -0.554678 0
M  V30 33595 H 3194.73 0.549699 -1.97077 0
M  V30 33596 H 3194.74 2.77215 -2.99359 0
M  V30 33597 H 3193.41 1.87247 -3.71364 0
M  V30 33598 H 3191.99 2.97359 -2.25016 0
M  V30 33599 N 3194.17 1.40371 0.716495 0
M  V30 33600 C 3195.42 1.38805 1.47854 0
M  V30 33601 C 3195.75 -0.0100194 1.94197 0
M  V30 33602 O 3195.03 -0.978491 1.68095 0
M  V30 33603 C 3195.31 2.37672 2.70526 0
M  V30 33604 C 3195.16 3.865 2.30083 0
M  V30 33605 C 3196.48 2.34088 3.7268 0
M  V30 33606 H 3193.6 0.505509 0.536311 0
M  V30 33607 H 3196.24 1.715 0.817794 0
M  V30 33608 H 3194.39 2.09922 3.26902 0
M  V30 33609 H 3196.07 4.25073 1.79195 0
M  V30 33610 H 3194.31 4.02377 1.62095 0
M  V30 33611 H 3194.98 4.51191 3.1801 0
M  V30 33612 H 3197.46 2.58666 3.25931 0
M  V30 33613 H 3196.33 3.05314 4.56152 0
M  V30 33614 H 3196.59 1.3522 4.20913 0
M  V30 33615 N 3195.65 -0.948621 1.25853 0
M  V30 33616 C 3197.06 -1.5087 1.09978 0
M  V30 33617 C 3197.41 -1.93532 -0.322462 0
M  V30 33618 O 3196.54 -1.79199 -1.21313 0
M  V30 33619 C 3197.13 -2.74179 1.99026 0
M  V30 33620 C 3195.69 -3.26479 1.87319 0
M  V30 33621 C 3194.84 -1.99289 1.92819 0
M  V30 33622 H 3197.79 -0.764883 1.39051 0
M  V30 33623 H 3197.81 -3.48218 1.53378 0
M  V30 33624 H 3197.32 -2.43098 3.02531 0
M  V30 33625 H 3195.43 -3.62368 0.8672 0
M  V30 33626 H 3195.54 -3.94089 2.72453 0
M  V30 33627 H 3193.9 -2.14858 1.36778 0
M  V30 33628 H 3194.69 -1.70549 2.97939 0
M  V30 33629 N 3197.13 -1.07536 -1.15212 0
M  V30 33630 C 3198.38 -0.800847 -1.86318 0
M  V30 33631 C 3198.71 0.671462 -1.82222 0
M  V30 33632 O 3197.98 1.49293 -1.24667 0
M  V30 33633 C 3198.27 -1.31209 -3.35345 0
M  V30 33634 C 3198.12 -2.84908 -3.48062 0
M  V30 33635 C 3199.44 -0.93014 -4.30159 0
M  V30 33636 H 3196.56 -0.292391 -0.676518 0
M  V30 33637 H 3199.2 -1.33346 -1.35347 0
M  V30 33638 H 3197.35 -0.859015 -3.78884 0
M  V30 33639 H 3199.02 -3.38519 -3.13373 0
M  V30 33640 H 3197.27 -3.23013 -2.8956 0
M  V30 33641 H 3197.94 -3.15749 -4.52776 0
M  V30 33642 H 3200.41 -1.32057 -3.94589 0
M  V30 33643 H 3199.29 -1.31516 -5.32912 0
M  V30 33644 H 3199.55 0.163746 -4.41797 0
M  V30 33645 N 3198.61 1.32084 -0.85974 0
M  V30 33646 C 3199.86 1.96685 -0.464696 0
M  V30 33647 C 3200.18 1.68347 0.984091 0
M  V30 33648 O 3199.45 0.993391 1.68845 0
M  V30 33649 H 3198.03 0.727666 -0.168851 0
M  V30 33650 H 3200.69 1.61077 -1.09728 0
M  V30 33651 H 3199.79 3.06002 -0.613958 0
M  V30 33652 N 3200.09 0.618171 1.4497 0
M  V30 33653 C 3201.5 0.282694 1.57076 0
M  V30 33654 C 3201.7 -1.21453 1.60784 0
M  V30 33655 O 3200.76 -1.99804 1.54385 0
M  V30 33656 C 3202.07 0.963198 2.84856 0
M  V30 33657 C 3203.62 0.940115 2.98548 0
M  V30 33658 C 3204.09 1.60083 4.29112 0
M  V30 33659 N 3205.59 1.56681 4.35896 0
M  V30 33660 C 3206.32 2.0471 5.35613 0
M  V30 33661 N 3205.82 2.60872 6.41808 0
M  V30 33662 N 3207.61 1.95415 5.27038 0
M  V30 33663 H 3199.76 1.59019 1.40807 0
M  V30 33664 H 3202.02 0.666753 0.673902 0
M  V30 33665 H 3201.73 2.01785 2.88055 0
M  V30 33666 H 3201.6 0.492967 3.73965 0
M  V30 33667 H 3203.99 -0.106019 2.94909 0
M  V30 33668 H 3204.07 1.44871 2.10822 0
M  V30 33669 H 3203.72 2.64635 4.3351 0
M  V30 33670 H 3203.65 1.06717 5.15673 0
M  V30 33671 H 3206.14 1.15665 3.59764 0
M  V30 33672 H 3206.45 2.95286 7.14161 0
M  V30 33673 H 3204.79 2.64916 6.4253 0
M  V30 33674 H 3207.99 1.51271 4.42984 0
M  V30 33675 H 3208.16 2.33158 6.046 0
M  V30 33676 N 3201.56 -1.53481 0.357946 0
M  V30 33677 C 3202.8 -2.03053 -0.234294 0
M  V30 33678 C 3203.17 -1.23971 -1.46612 0
M  V30 33679 O 3204.37 -1.63511 -2.13348 0
M  V30 33680 C 3202.64 -3.53499 -0.526591 0
M  V30 33681 S 3204.2 -4.24954 -1.09359 0
M  V30 33682 H 3201.02 -0.707666 -0.0687724 0
M  V30 33683 H 3203.62 -1.89023 0.499044 0
M  V30 33684 H 3202.32 -4.0866 0.377535 0
M  V30 33685 H 3201.85 -3.71676 -1.28921 0
M  V30 33686 H 3203.87 -4.35486 -2.37838 0
M  V30 33687 N 3203.04 -0.0869173 -1.5736 0
M  V30 33688 C 3203.97 0.872214 -2.16598 0
M  V30 33689 C 3204.95 1.29993 -1.09708 0
M  V30 33690 O 3206.14 1.36828 -1.3781 0
M  V30 33691 C 3203.27 2.13435 -2.73976 0
M  V30 33692 C 3202.22 1.84553 -3.86166 0
M  V30 33693 C 3201.55 3.17526 -4.30211 0
M  V30 33694 C 3202.85 1.1389 -5.09732 0
M  V30 33695 H 3204.54 0.378686 -2.96996 0
M  V30 33696 H 3202.09 0.180705 -1.42862 0
M  V30 33697 H 3204.04 2.80963 -3.14067 0
M  V30 33698 H 3202.77 2.65056 -1.90821 0
M  V30 33699 H 3201.42 1.19426 -3.46602 0
M  V30 33700 H 3201.07 3.67018 -3.43958 0
M  V30 33701 H 3200.77 2.98987 -5.05847 0
M  V30 33702 H 3202.3 3.86226 -4.72929 0
M  V30 33703 H 3203.71 1.71513 -5.47043 0
M  V30 33704 H 3202.11 1.05558 -5.90743 0
M  V30 33705 H 3203.18 0.120347 -4.84751 0
M  V30 33706 N 3204.52 1.5649 0.186734 0
M  V30 33707 C 3205.75 1.85231 0.9218 0
M  V30 33708 C 3206.16 0.670447 1.76495 0
M  V30 33709 O 3205.52 -0.360727 1.78899 0
M  V30 33710 C 3205.57 3.12857 1.81115 0
M  V30 33711 O 3205.29 4.26487 1.00203 0
M  V30 33712 C 3206.79 3.54836 2.65719 0
M  V30 33713 H 3204.01 0.614915 0.268553 0
M  V30 33714 H 3206.56 2.03602 0.191469 0
M  V30 33715 H 3204.71 2.96358 2.495 0
M  V30 33716 H 3205.13 4.99216 1.60885 0
M  V30 33717 H 3206.6 4.47081 3.23763 0
M  V30 33718 H 3207.08 2.78221 3.39838 0
M  V30 33719 H 3207.68 3.73894 2.02691 0
M  V30 33720 N 3206 -0.45475 1.50897 0
M  V30 33721 C 3206.93 -1.55837 1.73888 0
M  V30 33722 C 3207.91 -1.59606 0.5882 0
M  V30 33723 O 3209.09 -1.75613 0.829085 0
M  V30 33724 C 3206.22 -2.94051 1.84801 0
M  V30 33725 C 3205.18 -3.05146 3.00116 0
M  V30 33726 C 3204.5 -4.45169 2.96191 0
M  V30 33727 C 3205.8 -2.80842 4.4037 0
M  V30 33728 H 3207.5 -1.3685 2.66294 0
M  V30 33729 H 3205.04 -0.656913 1.28143 0
M  V30 33730 H 3207 -3.71201 1.99469 0
M  V30 33731 H 3205.72 -3.14231 0.89029 0
M  V30 33732 H 3204.38 -2.30432 2.85125 0
M  V30 33733 H 3204.03 -4.62291 1.98232 0
M  V30 33734 H 3203.73 -4.53525 3.73616 0
M  V30 33735 H 3205.25 -5.24316 3.12929 0
M  V30 33736 H 3206.67 -3.47733 4.55801 0
M  V30 33737 H 3205.06 -3.00627 5.19368 0
M  V30 33738 H 3206.13 -1.76571 4.51609 0
M  V30 33739 N 3207.48 -1.40749 -0.709041 0
M  V30 33740 C 3208.89 -1.35114 -1.28845 0
M  V30 33741 C 3209.24 -0.0277494 -1.9618 0
M  V30 33742 O 3208.36 0.874198 -1.97956 0
M  V30 33743 C 3208.96 -2.4472 -2.34302 0
M  V30 33744 C 3207.52 -2.42525 -2.87852 0
M  V30 33745 C 3206.66 -2.2526 -1.61719 0
M  V30 33746 H 3209.62 -1.5046 -0.504716 0
M  V30 33747 H 3209.64 -2.13004 -3.15293 0
M  V30 33748 H 3209.15 -3.41026 -1.85265 0
M  V30 33749 H 3207.25 -1.49937 -3.41101 0
M  V30 33750 H 3207.36 -3.3835 -3.392 0
M  V30 33751 H 3205.73 -1.72893 -1.87029 0
M  V30 33752 H 3206.51 -3.23573 -1.14697 0
M  V30 33753 N 3208.96 0.941933 -1.26354 0
M  V30 33754 C 3209.92 2.02209 -1.07908 0
M  V30 33755 C 3210.92 1.60776 -0.0276566 0
M  V30 33756 O 3212.11 1.72079 -0.270996 0
M  V30 33757 C 3209.24 3.34817 -0.641142 0
M  V30 33758 H 3210.43 2.20005 -2.03808 0
M  V30 33759 H 3207.99 1.12079 -1.08941 0
M  V30 33760 H 3208.72 3.22718 0.319887 0
M  V30 33761 H 3208.51 3.66242 -1.40033 0
M  V30 33762 H 3210 4.14173 -0.533899 0
M  V30 33763 N 3210.43 1.08146 1.1464 0
M  V30 33764 C 3211.68 0.809517 1.85615 0
M  V30 33765 C 3212.01 -0.66464 1.82792 0
M  V30 33766 O 3211.26 -1.50427 1.25181 0
M  V30 33767 C 3211.56 1.27325 3.33951 0
M  V30 33768 C 3211.23 2.75476 3.56965 0
M  V30 33769 C 3209.89 3.15939 3.62954 0
M  V30 33770 C 3212.24 3.71063 3.66008 0
M  V30 33771 C 3209.57 4.5079 3.75507 0
M  V30 33772 C 3211.92 5.05685 3.80085 0
M  V30 33773 C 3210.59 5.45758 3.84323 0
M  V30 33774 H 3209.86 0.296223 0.679215 0
M  V30 33775 H 3212.5 1.35392 1.3543 0
M  V30 33776 H 3210.81 0.648396 3.86398 0
M  V30 33777 H 3212.51 1.03964 3.87289 0
M  V30 33778 H 3209.1 2.43156 3.52949 0
M  V30 33779 H 3213.28 3.40924 3.60673 0
M  V30 33780 H 3208.54 4.81295 3.77048 0
M  V30 33781 H 3212.71 5.79619 3.86025 0
M  V30 33782 H 3210.34 6.50249 3.93802 0
M  V30 33783 N 3211.91 -1.31626 0.866732 0
M  V30 33784 C 3213.14 -2.01538 0.489596 0
M  V30 33785 C 3213.56 -1.64649 -0.909527 0
M  V30 33786 O 3212.92 -0.853419 -1.59958 0
M  V30 33787 C 3212.97 -3.54689 0.650238 0
M  V30 33788 O 3212.07 -4.11219 -0.311836 0
M  V30 33789 H 3211.41 -0.634674 0.195155 0
M  V30 33790 H 3213.94 -1.67897 1.16926 0
M  V30 33791 H 3213.95 -4.0438 0.542307 0
M  V30 33792 H 3212.63 -3.80879 1.67044 0
M  V30 33793 H 3211.2 -3.7256 -0.159132 0
M  V30 33794 N 3213.39 -0.62585 -1.4464 0
M  V30 33795 C 3214.62 -0.135153 -2.06458 0
M  V30 33796 C 3215.03 1.18809 -1.46731 0
M  V30 33797 O 3214.39 1.72761 -0.58821 0
M  V30 33798 C 3214.44 -0.00856468 -3.61499 0
M  V30 33799 O 3214.16 -1.27947 -4.19 0
M  V30 33800 C 3215.66 0.51145 -4.4034 0
M  V30 33801 H 3212.88 -0.0772411 -0.666539 0
M  V30 33802 H 3215.43 -0.858759 -1.85595 0
M  V30 33803 H 3213.58 0.665455 -3.81642 0
M  V30 33804 H 3214 -1.1209 -5.12383 0
M  V30 33805 H 3215.47 0.549053 -5.49263 0
M  V30 33806 H 3215.95 1.53745 -4.11411 0
M  V30 33807 H 3216.55 -0.12914 -4.25104 0
M  V30 33808 N 3214.87 1.53289 -0.36608 0
M  V30 33809 C 3215.8 2.28678 0.47207 0
M  V30 33810 C 3216.78 1.31127 1.0835 0
M  V30 33811 O 3217.96 1.59997 1.10066 0
M  V30 33812 C 3215.09 3.07639 1.61168 0
M  V30 33813 C 3214.05 4.12883 1.12747 0
M  V30 33814 C 3213.37 4.7993 2.35736 0
M  V30 33815 C 3214.67 5.2187 0.211862 0
M  V30 33816 H 3216.37 2.98989 -0.15689 0
M  V30 33817 H 3213.91 1.43795 -0.0768962 0
M  V30 33818 H 3215.87 3.59127 2.20467 0
M  V30 33819 H 3214.59 2.3502 2.26788 0
M  V30 33820 H 3213.25 3.62341 0.55717 0
M  V30 33821 H 3212.9 4.03882 2.99814 0
M  V30 33822 H 3212.6 5.51048 2.0401 0
M  V30 33823 H 3214.12 5.34212 2.9572 0
M  V30 33824 H 3215.54 5.68857 0.71234 0
M  V30 33825 H 3213.93 6.00098 -0.0145556 0
M  V30 33826 H 3215 4.7913 -0.745837 0
M  V30 33827 N 3216.35 0.0952613 1.57312 0
M  V30 33828 C 3217.76 -0.261388 1.57445 0
M  V30 33829 C 3217.96 -1.68406 1.10642 0
M  V30 33830 O 3217.02 -2.40054 0.782954 0
M  V30 33831 C 3218.33 -0.0496678 3.00659 0
M  V30 33832 C 3219.88 -0.117404 3.1278 0
M  V30 33833 C 3220.35 0.0663246 4.57952 0
M  V30 33834 N 3221.84 0.011496 4.63199 0
M  V30 33835 C 3222.58 0.1289 5.73255 0
M  V30 33836 N 3222.08 0.301147 6.92145 0
M  V30 33837 N 3223.87 0.0701587 5.62056 0
M  V30 33838 H 3216.02 1.02478 1.86043 0
M  V30 33839 H 3218.28 0.40163 0.858719 0
M  V30 33840 H 3217.99 0.932948 3.391 0
M  V30 33841 H 3217.86 -0.79191 3.68793 0
M  V30 33842 H 3220.25 -1.09052 2.74211 0
M  V30 33843 H 3220.33 0.656331 2.47237 0
M  V30 33844 H 3219.97 1.03631 4.97215 0
M  V30 33845 H 3219.9 -0.727106 5.21556 0
M  V30 33846 H 3222.4 -0.119087 3.77712 0
M  V30 33847 H 3222.71 0.38224 7.71854 0
M  V30 33848 H 3221.05 0.336817 6.94183 0
M  V30 33849 H 3224.24 -0.0632765 4.68057 0
M  V30 33850 H 3224.42 0.165105 6.4779 0
M  V30 33851 N 3217.82 -1.56587 -0.178432 0
M  V30 33852 C 3219.24 -1.50545 -0.52993 0
M  V30 33853 C 3219.44 -0.798269 -1.85013 0
M  V30 33854 O 3218.5 -0.355683 -2.49982 0
M  V30 33855 C 3219.81 -2.95262 -0.569262 0
M  V30 33856 C 3221.36 -3.06028 -0.656954 0
M  V30 33857 C 3221.83 -4.52189 -0.727244 0
M  V30 33858 N 3223.32 -4.56408 -0.790325 0
M  V30 33859 C 3224.06 -5.66835 -0.865165 0
M  V30 33860 N 3223.55 -6.86913 -0.901278 0
M  V30 33861 N 3225.35 -5.54789 -0.903639 0
M  V30 33862 H 3217.5 -2.00971 0.687339 0
M  V30 33863 H 3219.76 -0.91527 0.246952 0
M  V30 33864 H 3219.47 -3.5013 0.331996 0
M  V30 33865 H 3219.34 -3.49523 -1.41822 0
M  V30 33866 H 3221.73 -2.512 -1.54864 0
M  V30 33867 H 3221.81 -2.54865 0.21854 0
M  V30 33868 H 3221.45 -5.07647 0.160156 0
M  V30 33869 H 3221.38 -5.01102 -1.61878 0
M  V30 33870 H 3223.87 -3.69952 -0.770989 0
M  V30 33871 H 3224.19 -7.66822 -0.95936 0
M  V30 33872 H 3222.53 -6.89537 -0.869674 0
M  V30 33873 H 3225.72 -4.59899 -0.872378 0
M  V30 33874 H 3225.9 -6.40872 -0.958502 0
M  V30 33875 N 3219.3 0.446741 -1.51136 0
M  V30 33876 C 3220.25 1.54155 -1.7177 0
M  V30 33877 C 3221.22 1.56403 -0.559229 0
M  V30 33878 O 3222.4 1.73558 -0.792598 0
M  V30 33879 C 3219.54 2.91949 -1.84011 0
M  V30 33880 C 3218.66 2.99302 -3.11516 0
M  V30 33881 C 3217.79 4.28161 -3.14407 0
M  V30 33882 C 3216.83 4.29347 -4.36266 0
M  V30 33883 N 3215.97 5.49714 -4.36759 0
M  V30 33884 H 3220.81 1.35864 -2.65226 0
M  V30 33885 H 3218.34 0.660163 -1.31454 0
M  V30 33886 H 3220.3 3.71888 -1.8909 0
M  V30 33887 H 3218.93 3.08819 -0.939715 0
M  V30 33888 H 3217.98 2.12084 -3.15792 0
M  V30 33889 H 3219.3 2.9604 -4.0145 0
M  V30 33890 H 3218.45 5.16467 -3.1835 0
M  V30 33891 H 3217.19 4.34066 -2.22346 0
M  V30 33892 H 3216.19 3.39435 -4.32509 0
M  V30 33893 H 3217.42 4.25113 -5.29581 0
M  V30 33894 H 3215.37 5.56359 -3.47563 0
M  V30 33895 H 3215.28 5.48293 -5.20491 0
M  V30 33896 H 3216.55 6.40079 -4.44882 0
M  V30 33897 N 3220.78 1.41123 0.701567 0
M  V30 33898 C 3222.03 1.41367 1.46243 0
M  V30 33899 C 3222.38 0.0201 1.9239 0
M  V30 33900 O 3221.67 -0.952941 1.66221 0
M  V30 33901 C 3221.87 2.34977 2.69296 0
M  V30 33902 C 3221.7 3.83298 2.35186 0
M  V30 33903 C 3220.47 4.52021 2.25842 0
M  V30 33904 C 3222.66 4.7443 1.98547 0
M  V30 33905 N 3220.65 5.85502 1.84554 0
M  V30 33906 C 3222.02 5.96813 1.67971 0
M  V30 33907 C 3224.07 4.62133 1.85305 0
M  V30 33908 C 3222.78 7.0827 1.25483 0
M  V30 33909 C 3224.8 5.73545 1.44222 0
M  V30 33910 C 3224.16 6.95023 1.14552 0
M  V30 33911 H 3220.26 0.572528 0.532669 0
M  V30 33912 H 3222.85 1.76947 0.812265 0
M  V30 33913 H 3221.02 2.01502 3.32041 0
M  V30 33914 H 3222.75 2.25982 3.3573 0
M  V30 33915 H 3219.5 4.05882 2.44043 0
M  V30 33916 H 3219.93 6.56229 1.66409 0
M  V30 33917 H 3224.57 3.68718 2.06899 0
M  V30 33918 H 3222.29 8.01556 1.02633 0
M  V30 33919 H 3225.87 5.66032 1.34534 0
M  V30 33920 H 3224.75 7.79769 0.832419 0
M  V30 33921 N 3222.26 -0.935219 1.26852 0
M  V30 33922 C 3223.19 -2.05194 1.11434 0
M  V30 33923 C 3224.17 -1.70091 0.0178661 0
M  V30 33924 O 3225.35 -1.93259 0.190985 0
M  V30 33925 C 3222.48 -3.39042 0.752839 0
M  V30 33926 C 3221.44 -3.8823 1.80171 0
M  V30 33927 C 3220.76 -5.18797 1.29437 0
M  V30 33928 C 3222.06 -4.12452 3.20439 0
M  V30 33929 H 3223.76 -2.18351 2.04849 0
M  V30 33930 H 3221.3 -1.0492 0.986295 0
M  V30 33931 H 3223.26 -4.16636 0.63183 0
M  V30 33932 H 3221.98 -3.25878 -0.217018 0
M  V30 33933 H 3220.64 -3.12822 1.91149 0
M  V30 33934 H 3220.29 -5.02018 0.314188 0
M  V30 33935 H 3219.99 -5.52677 1.99556 0
M  V30 33936 H 3221.51 -5.98968 1.18615 0
M  V30 33937 H 3222.93 -4.8064 3.12503 0
M  V30 33938 H 3221.32 -4.57625 3.88201 0
M  V30 33939 H 3222.39 -3.18016 3.66052 0
M  V30 33940 N 3223.74 -1.08752 -1.14065 0
M  V30 33941 C 3225.01 -0.731982 -1.81387 0
M  V30 33942 C 3225.39 0.783876 -1.96007 0
M  V30 33943 O 3224.74 1.7037 -1.5227 0
M  V30 33944 C 3224.95 -1.46299 -3.16856 0
M  V30 33945 C 3226.3 -1.62433 -3.92302 0
M  V30 33946 O 3227.32 -1.42494 -3.26457 0
M  V30 33947 O 3226.18 -1.95359 -5.10389 0
M  V30 33948 H 3223.28 -0.262155 -0.784349 0
M  V30 33949 H 3225.82 -1.18931 -1.21052 0
M  V30 33950 H 3224.59 -2.49547 -3.014 0
M  V30 33951 H 3224.22 -0.997386 -3.84887 0
M  V30 33952 N 3225.21 1.31165 -0.873701 0
M  V30 33953 C 3226.44 2.01276 -0.500277 0
M  V30 33954 C 3226.86 1.65129 0.900782 0
M  V30 33955 O 3226.22 0.86189 1.59503 0
M  V30 33956 C 3226.27 3.54339 -0.669039 0
M  V30 33957 O 3225.37 4.11379 0.290023 0
M  V30 33958 H 3224.72 0.63363 -0.198518 0
M  V30 33959 H 3227.25 1.67275 -1.17814 0
M  V30 33960 H 3227.26 4.04087 -0.563745 0
M  V30 33961 H 3225.93 3.79988 -1.69062 0
M  V30 33962 H 3224.51 3.72639 0.139372 0
M  V30 33963 N 3226.69 0.633512 1.44307 0
M  V30 33964 C 3227.94 0.138952 2.02023 0
M  V30 33965 C 3228.27 -1.24006 1.49843 0
M  V30 33966 O 3227.52 -1.83736 0.67375 0
M  V30 33967 C 3227.82 0.0774514 3.57316 0
M  V30 33968 C 3227.49 1.39556 4.2876 0
M  V30 33969 C 3226.15 1.75656 4.47994 0
M  V30 33970 C 3228.5 2.2655 4.69387 0
M  V30 33971 C 3225.83 2.98453 5.05116 0
M  V30 33972 C 3228.18 3.48621 5.2787 0
M  V30 33973 C 3226.85 3.84941 5.45322 0
M  V30 33974 H 3226.12 0.0508463 0.739253 0
M  V30 33975 H 3228.76 0.820301 1.73041 0
M  V30 33976 H 3227.07 -0.687277 3.85725 0
M  V30 33977 H 3228.76 -0.321767 3.99707 0
M  V30 33978 H 3225.35 1.10463 4.14121 0
M  V30 33979 H 3229.54 1.99954 4.54238 0
M  V30 33980 H 3224.79 3.26667 5.16816 0
M  V30 33981 H 3228.97 4.16262 5.583 0
M  V30 33982 H 3226.6 4.80176 5.89351 0
M  V30 33983 O 3228.21 -1.53021 0.516401 0
M  V30 33984 H 3228.9 -1.937 0.00284507 0
M  V30 END ATOM
M  V30 BEGIN BOND
M  V30 END BOND
M  V30 END CTAB
M  END
$$$$
