drugbank_target|O93182 Gag polyprotein (DB06039)
 OpenBabel12092120323D

  0  0  0     0  0            999 V3000
M  V30 BEGIN CTAB
M  V30 COUNTS 7847 7927 0 0 0
M  V30 BEGIN ATOM
M  V30 1 H -0.908 1.98254 -0.117106 0
M  V30 2 N 0 1.576 0 0
M  V30 3 C 0.933 2.03868 1.02534 0
M  V30 4 C 1.911 0.928543 1.3348 0
M  V30 5 O 3.095 1.19667 1.45644 0
M  V30 6 C 0.222 2.43627 2.35294 0
M  V30 7 C -0.732 3.65373 2.2001 0
M  V30 8 S 0.101 5.13292 1.52614 0
M  V30 9 C 1.257 5.56322 2.86805 0
M  V30 10 H 1.49 2.90518 0.631377 0
M  V30 11 H -0.977 1.52953 0.210867 0
M  V30 12 H 0.981 2.67203 3.11629 0
M  V30 13 H -0.358 1.57376 2.7183 0
M  V30 14 H -1.165 3.90944 3.18086 0
M  V30 15 H -1.563 3.418 1.51819 0
M  V30 16 H 0.729 5.58782 3.83104 0
M  V30 17 H 1.672 6.56266 2.65933 0
M  V30 18 H 2.08 4.83886 2.90714 0
M  V30 19 N 1.4781 -0.272755 1.55222 0
M  V30 20 C 2.7261 -1.00234 1.75492 0
M  V30 21 C 3.0471 -1.8681 0.5592 0
M  V30 22 O 2.3171 -1.91215 -0.425882 0
M  V30 23 H 0.8971 -0.373076 0.647166 0
M  V30 24 H 3.5591 -0.296926 1.92625 0
M  V30 25 H 2.6551 -1.63913 2.65592 0
M  V30 26 N 2.9562 -1.48159 -0.537278 0
M  V30 27 C 3.9192 -1.61665 -1.62472 0
M  V30 28 C 4.9192 -0.490395 -1.5314 0
M  V30 29 O 6.1092 -0.755998 -1.5694 0
M  V30 30 C 3.2412 -1.57997 -3.02076 0
M  V30 31 H 4.4342 -2.58621 -1.51839 0
M  V30 32 H 1.9872 -1.36647 -0.758771 0
M  V30 33 H 2.7222 -0.624913 -3.18222 0
M  V30 34 H 2.5072 -2.39755 -3.10258 0
M  V30 35 H 3.9972 -1.70627 -3.81151 0
M  V30 36 N 4.4343 0.785586 -1.36625 0
M  V30 37 C 5.8503 1.08419 -1.17122 0
M  V30 38 C 6.0503 2.015 0.00208491 0
M  V30 39 O 5.1063 2.43551 0.666278 0
M  V30 40 C 6.4193 1.69498 -2.48377 0
M  V30 41 C 7.9673 1.81821 -2.54775 0
M  V30 42 C 8.4423 2.46315 -3.86126 0
M  V30 43 N 9.9333 2.53779 -3.87492 0
M  V30 44 C 10.6683 3.045 -4.85868 0
M  V30 45 N 10.1643 3.55499 -5.94637 0
M  V30 46 N 11.9573 3.03247 -4.73284 0
M  V30 47 H 4.1083 0.167264 -2.1174 0
M  V30 48 H 6.3713 0.13682 -0.938075 0
M  V30 49 H 6.0773 1.08571 -3.34522 0
M  V30 50 H 5.9513 2.6896 -2.64462 0
M  V30 51 H 8.3383 2.41884 -1.69045 0
M  V30 52 H 8.4193 0.811532 -2.42586 0
M  V30 53 H 8.0633 1.86895 -4.72263 0
M  V30 54 H 7.9933 3.47561 -3.95612 0
M  V30 55 H 10.4843 2.17672 -3.08913 0
M  V30 56 H 10.7973 3.92562 -6.65669 0
M  V30 57 H 9.1423 3.5364 -5.98301 0
M  V30 58 H 12.3333 2.62696 -3.87438 0
M  V30 59 H 12.5063 3.42467 -5.50109 0
M  V30 60 N 5.9124 1.20967 1.01018 0
M  V30 61 C 6.8754 0.965918 2.07853 0
M  V30 62 C 7.8754 -0.0610545 1.60684 0
M  V30 63 O 9.0654 0.175681 1.73312 0
M  V30 64 C 6.1974 0.455513 3.37843 0
M  V30 65 H 7.3904 1.91365 2.3091 0
M  V30 66 H 4.9434 1.02594 1.17916 0
M  V30 67 H 5.6784 -0.497381 3.20463 0
M  V30 68 H 5.4634 1.19622 3.73407 0
M  V30 69 H 6.9534 0.304667 4.16487 0
M  V30 70 N 7.3905 -1.2043 1.01659 0
M  V30 71 C 8.6155 -1.94318 0.724942 0
M  V30 72 C 9.0405 -1.74266 -0.708034 0
M  V30 73 O 8.3985 -1.03694 -1.48719 0
M  V30 74 C 8.4465 -3.44486 1.06591 0
M  V30 75 O 7.5505 -4.12017 0.177599 0
M  V30 76 H 6.8915 -0.60708 0.26898 0
M  V30 77 H 9.4215 -1.52861 1.35995 0
M  V30 78 H 9.4315 -3.95106 1.01762 0
M  V30 79 H 8.1065 -3.58404 2.10997 0
M  V30 80 H 6.6835 -3.71821 0.283421 0
M  V30 81 N 8.8686 -0.792821 -1.36206 0
M  V30 82 C 10.1146 -0.36733 -1.99446 0
M  V30 83 C 10.4476 1.05917 -1.62774 0
M  V30 84 O 9.7226 1.7324 -0.88421 0
M  V30 85 C 10.0056 -0.535044 -3.56103 0
M  V30 86 C 9.8586 -2.00548 -4.02617 0
M  V30 87 C 11.1776 0.0478191 -4.40074 0
M  V30 88 H 8.2966 -0.134941 -0.724541 0
M  V30 89 H 10.9386 -0.999794 -1.61568 0
M  V30 90 H 9.0886 0.00336329 -3.885 0
M  V30 91 H 10.7606 -2.60521 -3.80692 0
M  V30 92 H 9.0036 -2.50686 -3.54032 0
M  V30 93 H 9.6746 -2.07377 -5.11565 0
M  V30 94 H 12.1506 -0.411822 -4.14057 0
M  V30 95 H 11.0266 -0.0995336 -5.4881 0
M  V30 96 H 11.2876 1.14025 -4.27142 0
M  V30 97 N 10.3467 1.47872 -0.545128 0
M  V30 98 C 11.2767 2.32661 0.197793 0
M  V30 99 C 12.2577 1.43041 0.920504 0
M  V30 100 O 13.4427 1.71912 0.90333 0
M  V30 101 C 10.5727 3.24569 1.23582 0
M  V30 102 C 9.5267 4.23333 0.630323 0
M  V30 103 C 8.8527 5.0448 1.77211 0
M  V30 104 C 10.1527 5.20704 -0.407974 0
M  V30 105 H 11.8467 2.95024 -0.510045 0
M  V30 106 H 9.3927 1.4187 -0.246731 0
M  V30 107 H 11.3457 3.8272 1.76362 0
M  V30 108 H 10.0697 2.60236 1.97344 0
M  V30 109 H 8.7287 3.6639 0.123922 0
M  V30 110 H 8.3767 4.36561 2.49847 0
M  V30 111 H 8.0767 5.71339 1.37281 0
M  V30 112 H 9.6007 5.65487 2.3034 0
M  V30 113 H 11.0147 5.7329 0.033305 0
M  V30 114 H 9.4117 5.95699 -0.725486 0
M  V30 115 H 10.4817 4.66917 -1.30828 0
M  V30 116 N 11.8248 0.280983 1.55075 0
M  V30 117 C 13.0498 -0.340154 2.04592 0
M  V30 118 C 13.4748 -1.48246 1.15779 0
M  V30 119 O 12.8328 -1.80614 0.15761 0
M  V30 120 C 12.8808 -0.793104 3.5177 0
M  V30 121 O 11.9848 -1.89981 3.66034 0
M  V30 122 H 11.3258 -0.0694289 0.66036 0
M  V30 123 H 13.8558 0.416993 2.00306 0
M  V30 124 H 13.8658 -1.08729 3.93245 0
M  V30 125 H 12.5408 0.0426163 4.15878 0
M  V30 126 H 11.1178 -1.60771 3.36463 0
M  V30 127 N 13.3029 -1.57598 0.00835791 0
M  V30 128 C 14.5509 -1.90551 -0.6734 0
M  V30 129 C 14.8719 -0.883301 -1.73847 0
M  V30 130 O 14.1419 0.0781442 -1.95744 0
M  V30 131 H 12.7219 -0.703312 -0.251717 0
M  V30 132 H 15.3839 -1.94833 0.0512592 0
M  V30 133 H 14.4799 -2.9056 -1.13935 0
M  V30 134 N 14.781 0.264519 -1.55364 0
M  V30 135 C 16.029 0.993021 -1.76021 0
M  V30 136 C 16.35 1.86511 -0.569099 0
M  V30 137 O 15.62 1.91438 0.415735 0
M  V30 138 H 14.2 0.369639 -0.649135 0
M  V30 139 H 16.862 0.286707 -1.9278 0
M  V30 140 H 15.958 1.62502 -2.66457 0
M  V30 141 N 16.2591 1.48442 0.529413 0
M  V30 142 C 17.2061 1.63007 1.63394 0
M  V30 143 C 18.1761 0.47212 1.59249 0
M  V30 144 O 19.3611 0.695673 1.77666 0
M  V30 145 C 16.5011 1.6763 3.01653 0
M  V30 146 C 15.6141 2.94535 3.16027 0
M  V30 147 C 14.7491 2.90316 4.44849 0
M  V30 148 C 13.7881 4.11923 4.52754 0
M  V30 149 N 12.9251 4.05777 5.72965 0
M  V30 150 H 17.7651 2.5733 1.50285 0
M  V30 151 H 15.3021 1.27613 0.731656 0
M  V30 152 H 17.2601 1.68292 3.81751 0
M  V30 153 H 15.8901 0.76797 3.13532 0
M  V30 154 H 14.9421 3.03615 2.29177 0
M  V30 155 H 16.2541 3.84512 3.17729 0
M  V30 156 H 15.4081 2.89382 5.33238 0
M  V30 157 H 14.1471 1.98068 4.45668 0
M  V30 158 H 13.1521 4.13131 3.62771 0
M  V30 159 H 14.3771 5.0533 4.53672 0
M  V30 160 H 12.3231 3.16351 5.74681 0
M  V30 161 H 12.2401 4.8946 5.76164 0
M  V30 162 H 13.5081 4.08904 6.6364 0
M  V30 163 N 17.7372 -0.778329 1.37039 0
M  V30 164 C 18.6672 -1.90546 1.34962 0
M  V30 165 C 19.6482 -1.68681 0.219274 0
M  V30 166 O 20.8332 -1.89634 0.418624 0
M  V30 167 C 17.9632 -3.27734 1.14925 0
M  V30 168 C 16.9172 -3.64147 2.24902 0
M  V30 169 C 16.2432 -4.99806 1.89996 0
M  V30 170 C 17.5432 -3.71579 3.67051 0
M  V30 171 H 19.2372 -1.92541 2.29277 0
M  V30 172 H 16.7832 -0.924948 1.10366 0
M  V30 173 H 18.7362 -4.06215 1.12104 0
M  V30 174 H 17.4602 -3.26154 0.170631 0
M  V30 175 H 16.1192 -2.8797 2.26868 0
M  V30 176 H 15.7672 -4.94759 0.906796 0
M  V30 177 H 15.4672 -5.25139 2.63634 0
M  V30 178 H 16.9912 -5.80694 1.88749 0
M  V30 179 H 18.4052 -4.40227 3.67251 0
M  V30 180 H 16.8022 -4.08405 4.39688 0
M  V30 181 H 17.8722 -2.72404 4.01154 0
M  V30 182 N 19.2153 -1.21501 -1.00376 0
M  V30 183 C 20.4923 -0.941745 -1.71437 0
M  V30 184 C 20.8723 0.546114 -2.03914 0
M  V30 185 O 20.2203 1.51128 -1.71384 0
M  V30 186 C 20.4303 -1.82812 -2.97289 0
M  V30 187 C 21.7783 -2.07771 -3.70292 0
M  V30 188 O 22.8023 -1.80171 -3.07273 0
M  V30 189 O 21.6613 -2.54456 -4.83647 0
M  V30 190 H 18.7553 -0.353243 -0.747762 0
M  V30 191 H 21.3013 -1.32436 -1.06108 0
M  V30 192 H 20.0733 -2.83501 -2.69709 0
M  V30 193 H 19.6963 -1.4464 -3.70358 0
M  V30 194 N 20.6934 1.19889 -1.02296 0
M  V30 195 C 21.6564 2.21116 -0.603351 0
M  V30 196 C 22.6564 1.5738 0.329884 0
M  V30 197 O 23.8464 1.73802 0.117702 0
M  V30 198 C 20.9784 3.40696 0.117992 0
M  V30 199 H 22.1714 2.59754 -1.49893 0
M  V30 200 H 19.7244 1.33463 -0.813468 0
M  V30 201 H 20.4594 3.07569 1.0282 0
M  V30 202 H 20.2444 3.88188 -0.552511 0
M  V30 203 H 21.7344 4.15692 0.398696 0
M  V30 204 N 22.1715 0.800033 1.35784 0
M  V30 205 C 23.4175 0.38701 1.99684 0
M  V30 206 C 23.7725 -1.03268 1.62338 0
M  V30 207 O 23.0655 -1.70543 0.87325 0
M  V30 208 C 23.2595 0.500276 3.53881 0
M  V30 209 C 23.0885 1.92942 4.06206 0
M  V30 210 C 21.8585 2.55637 4.35865 0
M  V30 211 C 24.0565 2.89307 4.25213 0
M  V30 212 N 22.0385 3.9003 4.74078 0
M  V30 213 C 23.4095 4.08556 4.66349 0
M  V30 214 C 25.4645 2.86225 4.07406 0
M  V30 215 C 24.1675 5.25146 4.91543 0
M  V30 216 C 26.1935 4.02011 4.33752 0
M  V30 217 C 25.5555 5.20007 4.75155 0
M  V30 218 H 21.6545 0.189252 0.758754 0
M  V30 219 H 24.2385 1.03988 1.64604 0
M  V30 220 H 22.4095 -0.122568 3.88207 0
M  V30 221 H 24.1415 0.0624733 4.04652 0
M  V30 222 H 20.8965 2.07039 4.25948 0
M  V30 223 H 21.3205 4.59205 4.97454 0
M  V30 224 H 25.9625 1.96154 3.74544 0
M  V30 225 H 23.6805 6.15794 5.23281 0
M  V30 226 H 27.2665 4.00999 4.21534 0
M  V30 227 H 26.1465 6.08113 4.95145 0
M  V30 228 N 23.6496 -1.47581 0.552962 0
M  V30 229 C 24.5596 -2.33743 -0.200353 0
M  V30 230 C 25.5756 -1.47928 -0.916151 0
M  V30 231 O 26.7516 -1.80865 -0.885993 0
M  V30 232 C 23.8166 -3.24536 -1.21973 0
M  V30 233 C 22.8776 -4.26238 -0.511819 0
M  V30 234 C 22.1106 -5.12693 -1.48263 0
M  V30 235 O 22.3336 -5.01525 -2.71714 0
M  V30 236 O 21.2676 -5.93375 -1.00945 0
M  V30 237 H 25.0936 -2.9945 0.506304 0
M  V30 238 H 22.6786 -1.46071 0.313622 0
M  V30 239 H 24.5606 -3.80631 -1.80827 0
M  V30 240 H 23.2356 -2.61462 -1.90839 0
M  V30 241 H 22.1426 -3.73914 0.117799 0
M  V30 242 H 23.4756 -4.92014 0.135308 0
M  V30 243 N 25.1277 -0.289203 -1.54924 0
M  V30 244 C 26.0747 0.592115 -2.23075 0
M  V30 245 C 27.0447 1.13881 -1.20915 0
M  V30 246 O 28.2297 1.18551 -1.495 0
M  V30 247 C 25.3697 1.76376 -2.96623 0
M  V30 248 C 24.4827 1.24959 -4.13533 0
M  V30 249 C 23.6177 2.38416 -4.74691 0
M  V30 250 C 22.6567 1.84072 -5.83767 0
M  V30 251 N 21.7937 2.91057 -6.38929 0
M  V30 252 H 26.6337 0.00432038 -2.98 0
M  V30 253 H 24.1707 -0.00963529 -1.47097 0
M  V30 254 H 26.1287 2.45268 -3.3749 0
M  V30 255 H 24.7587 2.32337 -2.24097 0
M  V30 256 H 23.8107 0.453307 -3.77689 0
M  V30 257 H 25.1227 0.811662 -4.92152 0
M  V30 258 H 24.2767 3.15276 -5.18349 0
M  V30 259 H 23.0157 2.8553 -3.95378 0
M  V30 260 H 22.0207 1.05697 -5.39545 0
M  V30 261 H 23.2457 1.37877 -6.64956 0
M  V30 262 H 21.1917 3.37526 -5.62505 0
M  V30 263 H 21.1087 2.51724 -7.12861 0
M  V30 264 H 22.3767 3.6785 -6.87246 0
M  V30 265 N 26.6058 1.57591 -0.0167156 0
M  V30 266 C 27.8548 1.90461 0.663877 0
M  V30 267 C 28.1678 0.893515 1.73999 0
M  V30 268 O 29.3738 1.11302 2.47637 0
M  V30 269 C 27.8298 3.38155 1.23204 0
M  V30 270 C 27.4378 4.47597 0.189866 0
M  V30 271 C 29.1818 3.80111 1.88986 0
M  V30 272 C 27.0888 5.86379 0.768964 0
M  V30 273 H 26.0188 0.710738 0.251729 0
M  V30 274 H 28.6698 1.83326 -0.0799926 0
M  V30 275 H 27.0518 3.40182 2.02712 0
M  V30 276 H 28.2258 4.57112 -0.581846 0
M  V30 277 H 26.5408 4.14766 -0.368475 0
M  V30 278 H 29.1378 4.81145 2.33247 0
M  V30 279 H 29.4808 3.14511 2.72743 0
M  V30 280 H 30.0138 3.80454 1.16187 0
M  V30 281 H 26.7528 6.55493 -0.0301957 0
M  V30 282 H 26.2728 5.80496 1.50945 0
M  V30 283 H 27.9518 6.34563 1.26251 0
M  V30 284 N 28.0839 -0.256276 1.55502 0
M  V30 285 C 29.4999 -0.604325 1.47716 0
M  V30 286 C 29.6999 -1.88763 0.705039 0
M  V30 287 O 28.7559 -2.51445 0.230613 0
M  V30 288 C 30.0689 -0.715756 2.92057 0
M  V30 289 C 31.6169 -0.808706 3.02372 0
M  V30 290 C 32.0919 -0.951777 4.48001 0
M  V30 291 N 33.5829 -1.01688 4.519 0
M  V30 292 C 34.3179 -1.14668 5.61817 0
M  V30 293 N 33.8139 -1.24261 6.81565 0
M  V30 294 N 35.6069 -1.1791 5.49594 0
M  V30 295 H 27.7579 0.586291 2.04148 0
M  V30 296 H 30.0209 0.201015 0.926443 0
M  V30 297 H 29.7269 0.157027 3.51349 0
M  V30 298 H 29.6009 -1.59071 3.42018 0
M  V30 299 H 31.9879 -1.67195 2.43166 0
M  V30 300 H 32.0689 0.0912063 2.55637 0
M  V30 301 H 31.7129 -0.0931291 5.07815 0
M  V30 302 H 31.6429 -1.86659 4.92408 0
M  V30 303 H 34.1339 -0.954468 3.65648 0
M  V30 304 H 34.4469 -1.34046 7.61086 0
M  V30 305 H 32.7919 -1.21236 6.84344 0
M  V30 306 H 35.9829 -1.10057 4.54978 0
M  V30 307 H 36.1559 -1.27681 6.35296 0
M  V30 308 N 29.562 -1.4872 -0.521534 0
M  V30 309 C 30.492 -1.66771 -1.63431 0
M  V30 310 C 31.473 -0.516499 -1.62069 0
M  V30 311 O 32.658 -0.750013 -1.79132 0
M  V30 312 C 29.788 -1.71515 -3.01993 0
M  V30 313 C 28.742 -2.86222 -3.18216 0
M  V30 314 C 28.068 -2.76061 -4.57924 0
M  V30 315 C 29.368 -4.27419 -3.00184 0
M  V30 316 H 31.062 -2.59932 -1.48579 0
M  V30 317 H 28.608 -1.25089 -0.713358 0
M  V30 318 H 30.561 -1.82731 -3.7972 0
M  V30 319 H 29.285 -0.749393 -3.17886 0
M  V30 320 H 27.944 -2.74575 -2.42908 0
M  V30 321 H 27.592 -1.77437 -4.70665 0
M  V30 322 H 27.292 -3.53037 -4.69722 0
M  V30 323 H 28.816 -2.89256 -5.37739 0
M  V30 324 H 30.23 -4.39855 -3.67697 0
M  V30 325 H 28.627 -5.05458 -3.2347 0
M  V30 326 H 29.697 -4.43293 -1.96518 0
M  V30 327 N 31.0401 0.771051 -1.3745 0
M  V30 328 C 32.4561 1.07171 -1.18265 0
M  V30 329 C 32.6561 2.01491 -0.019287 0
M  V30 330 O 31.7121 2.44244 0.640408 0
M  V30 331 C 33.0251 1.66854 -2.50161 0
M  V30 332 C 34.5731 1.79109 -2.56689 0
M  V30 333 C 35.0481 2.42205 -3.88717 0
M  V30 334 N 36.5391 2.49655 -3.90162 0
M  V30 335 C 37.2741 2.9933 -4.8907 0
M  V30 336 N 36.7701 3.49172 -5.98374 0
M  V30 337 N 38.5631 2.9821 -4.76474 0
M  V30 338 H 30.7141 0.144796 -2.11906 0
M  V30 339 H 32.9771 0.126863 -0.939473 0
M  V30 340 H 32.6831 1.05017 -3.35655 0
M  V30 341 H 32.5571 2.6614 -2.673 0
M  V30 342 H 34.9441 2.40077 -1.71601 0
M  V30 343 H 35.0251 0.785757 -2.43433 0
M  V30 344 H 34.6691 1.81875 -4.74219 0
M  V30 345 H 34.5991 3.43345 -3.99276 0
M  V30 346 H 37.0901 2.14383 -3.11205 0
M  V30 347 H 37.4031 3.8548 -6.69795 0
M  V30 348 H 35.7481 3.47275 -6.02018 0
M  V30 349 H 38.9391 2.58572 -3.90203 0
M  V30 350 H 39.1121 3.36613 -5.53711 0
M  V30 351 N 32.5182 1.22032 0.997298 0
M  V30 352 C 33.9292 1.0397 1.55071 0
M  V30 353 C 34.2802 -0.398192 1.92117 0
M  V30 354 O 33.4052 -1.28254 1.74298 0
M  V30 355 C 34.0002 1.88109 2.81781 0
M  V30 356 C 32.5592 1.74357 3.33581 0
M  V30 357 C 31.7062 1.84846 2.06706 0
M  V30 358 H 34.6572 1.35941 0.818883 0
M  V30 359 H 34.6782 1.39589 3.53971 0
M  V30 360 H 34.1902 2.92754 2.54787 0
M  V30 361 H 32.2912 0.72427 3.65493 0
M  V30 362 H 32.4042 2.56772 4.04481 0
M  V30 363 H 30.7682 1.28238 2.20062 0
M  V30 364 H 31.5512 2.91014 1.82114 0
M  V30 365 N 33.9963 -1.19345 1.0293 0
M  V30 366 C 35.2443 -1.88665 0.724574 0
M  V30 367 C 35.5653 -1.80036 -0.749144 0
M  V30 368 O 34.8353 -1.2111 -1.53978 0
M  V30 369 H 33.4153 -0.698406 0.265025 0
M  V30 370 H 36.0773 -1.44885 1.30362 0
M  V30 371 H 35.1733 -2.94987 1.01926 0
M  V30 372 N 35.4744 -0.807222 -1.35358 0
M  V30 373 C 36.7224 -0.387122 -1.98358 0
M  V30 374 C 37.0434 1.04942 -1.64354 0
M  V30 375 O 36.3134 1.72615 -0.926339 0
M  V30 376 H 34.8934 -0.140154 -0.733734 0
M  V30 377 H 37.5554 -1.0332 -1.6526 0
M  V30 378 H 36.6514 -0.493352 -3.08176 0
M  V30 379 N 36.9525 1.47285 -0.560781 0
M  V30 380 C 37.8995 2.30058 0.18491 0
M  V30 381 C 38.8695 1.39281 0.904986 0
M  V30 382 O 40.0545 1.68241 0.899979 0
M  V30 383 C 37.1945 3.23317 1.20666 0
M  V30 384 C 36.3075 4.29186 0.492285 0
M  V30 385 C 35.4425 5.09592 1.49964 0
M  V30 386 C 34.4815 6.07232 0.770439 0
M  V30 387 N 33.6185 6.80584 1.72479 0
M  V30 388 H 38.4585 2.93302 -0.527048 0
M  V30 389 H 35.9955 1.44568 -0.271738 0
M  V30 390 H 37.9535 3.75811 1.81168 0
M  V30 391 H 36.5835 2.61929 1.88661 0
M  V30 392 H 35.6355 3.7972 -0.227333 0
M  V30 393 H 36.9475 4.98738 -0.0787929 0
M  V30 394 H 36.1015 5.66254 2.17809 0
M  V30 395 H 34.8405 4.3995 2.10464 0
M  V30 396 H 33.8455 5.49745 0.0780846 0
M  V30 397 H 35.0705 6.78884 0.171134 0
M  V30 398 H 33.0165 6.1367 2.3183 0
M  V30 399 H 32.9335 7.46319 1.20596 0
M  V30 400 H 34.2015 7.41818 2.39428 0
M  V30 401 N 38.4306 0.297415 1.54768 0
M  V30 402 C 39.3776 -0.580276 2.23386 0
M  V30 403 C 40.3476 -1.13238 1.21517 0
M  V30 404 O 41.5326 -1.17757 1.50126 0
M  V30 405 C 38.6726 -1.74801 2.97555 0
M  V30 406 C 37.7856 -1.22764 4.1419 0
M  V30 407 C 36.9206 -2.35895 4.75949 0
M  V30 408 C 35.9596 -1.80974 5.84735 0
M  V30 409 N 35.0966 -2.87664 6.40464 0
M  V30 410 H 39.9366 0.0114833 2.97998 0
M  V30 411 H 37.4736 0.0174361 1.4709 0
M  V30 412 H 39.4316 -2.43475 3.38786 0
M  V30 413 H 38.0616 -2.31145 2.25326 0
M  V30 414 H 37.1136 -0.433271 3.77924 0
M  V30 415 H 38.4256 -0.785551 4.92575 0
M  V30 416 H 37.5796 -3.12523 5.20014 0
M  V30 417 H 36.3186 -2.83429 3.96887 0
M  V30 418 H 35.3236 -1.02834 5.40097 0
M  V30 419 H 36.5486 -1.34348 6.65678 0
M  V30 420 H 34.4946 -3.34538 5.64287 0
M  V30 421 H 34.4116 -2.4794 7.14186 0
M  V30 422 H 35.6796 -3.642 6.89187 0
M  V30 423 N 39.9087 -1.5758 0.0250728 0
M  V30 424 C 40.8557 -2.09973 -0.958129 0
M  V30 425 C 41.8257 -1.00085 -1.3256 0
M  V30 426 O 43.0107 -1.27481 -1.41962 0
M  V30 427 C 40.1507 -2.62812 -2.2366 0
M  V30 428 C 39.2637 -3.86693 -1.92594 0
M  V30 429 C 38.3987 -4.27941 -3.14707 0
M  V30 430 C 37.4377 -5.44591 -2.79442 0
M  V30 431 N 36.5747 -5.81014 -3.94167 0
M  V30 432 H 41.4147 -2.937 -0.504428 0
M  V30 433 H 38.9517 -1.45172 -0.237392 0
M  V30 434 H 40.9097 -2.91536 -2.98434 0
M  V30 435 H 39.5397 -1.81922 -2.66654 0
M  V30 436 H 38.5917 -3.64723 -1.0808 0
M  V30 437 H 39.9037 -4.71547 -1.62619 0
M  V30 438 H 39.0577 -4.58079 -3.97804 0
M  V30 439 H 37.7967 -3.41845 -3.4784 0
M  V30 440 H 36.8017 -5.1415 -1.94755 0
M  V30 441 H 38.0267 -6.32382 -2.47528 0
M  V30 442 H 35.9727 -4.97874 -4.2715 0
M  V30 443 H 35.8897 -6.60498 -3.67801 0
M  V30 444 H 37.1577 -6.15756 -4.7798 0
M  V30 445 N 41.3868 0.248026 -1.55636 0
M  V30 446 C 42.6168 0.992367 -1.81206 0
M  V30 447 C 43.0248 1.7949 -0.598324 0
M  V30 448 O 42.3678 1.78292 0.442434 0
M  V30 449 C 42.4298 1.97926 -3.00109 0
M  V30 450 C 42.0938 1.36377 -4.36177 0
M  V30 451 C 43.0908 0.76682 -5.14214 0
M  V30 452 C 40.7758 1.38347 -4.82872 0
M  V30 453 C 42.7698 0.197778 -6.37093 0
M  V30 454 C 40.4568 0.810574 -6.057 0
M  V30 455 C 41.4548 0.218754 -6.8265 0
M  V30 456 O 41.1428 -0.345298 -8.03158 0
M  V30 457 H 40.8748 0.297704 -0.606917 0
M  V30 458 H 43.4288 0.276517 -2.0353 0
M  V30 459 H 41.6588 2.73339 -2.73538 0
M  V30 460 H 43.3478 2.58694 -3.12781 0
M  V30 461 H 44.1138 0.744114 -4.79258 0
M  V30 462 H 39.9928 1.8335 -4.2297 0
M  V30 463 H 43.5368 -0.264788 -6.97097 0
M  V30 464 H 39.4338 0.830604 -6.40134 0
M  V30 465 H 40.2018 -0.237055 -8.18157 0
M  V30 466 N 42.8649 1.48995 0.513639 0
M  V30 467 C 44.2809 1.35478 0.843682 0
M  V30 468 C 44.4809 0.378213 1.97919 0
M  V30 469 O 43.5369 -0.194689 2.51748 0
M  V30 470 C 44.8499 2.75901 1.1958 0
M  V30 471 C 46.3979 2.84509 1.30474 0
M  V30 472 C 46.8729 4.25671 1.69021 0
M  V30 473 N 48.3639 4.28422 1.76094 0
M  V30 474 C 49.0989 5.34601 2.07338 0
M  V30 475 N 48.5949 6.5104 2.36894 0
M  V30 476 N 50.3879 5.22007 2.08483 0
M  V30 477 H 42.5389 2.11092 -0.235328 0
M  V30 478 H 44.8019 0.947039 -0.0426669 0
M  V30 479 H 44.5079 3.49001 0.434913 0
M  V30 480 H 44.3819 3.10467 2.1422 0
M  V30 481 H 46.7689 2.11655 2.05637 0
M  V30 482 H 46.8499 2.53542 0.339155 0
M  V30 483 H 46.4939 4.99048 0.944135 0
M  V30 484 H 46.4239 4.54094 2.66658 0
M  V30 485 H 48.9149 3.44441 1.55464 0
M  V30 486 H 49.2279 7.2779 2.59887 0
M  V30 487 H 47.5729 6.54287 2.34378 0
M  V30 488 H 50.7639 4.30051 1.84861 0
M  V30 489 H 50.9369 6.04854 2.325 0
M  V30 490 N 44.343 -0.763751 1.37857 0
M  V30 491 C 45.273 -1.89103 1.36975 0
M  V30 492 C 46.254 -1.68439 0.237152 0
M  V30 493 O 47.439 -1.8918 0.438713 0
M  V30 494 C 44.569 -3.26496 1.18395 0
M  V30 495 C 43.523 -3.61741 2.28751 0
M  V30 496 C 42.849 -4.97762 1.95286 0
M  V30 497 C 44.149 -3.67665 3.70972 0
M  V30 498 H 45.843 -1.90099 2.31307 0
M  V30 499 H 43.389 -0.91319 1.11341 0
M  V30 500 H 45.342 -4.05003 1.16406 0
M  V30 501 H 44.066 -3.25955 0.205215 0
M  V30 502 H 42.725 -2.85547 2.29909 0
M  V30 503 H 42.373 -4.93769 0.959221 0
M  V30 504 H 42.073 -5.22313 2.69189 0
M  V30 505 H 43.597 -5.7866 1.94898 0
M  V30 506 H 45.011 -4.36307 3.719 0
M  V30 507 H 43.408 -4.03718 4.43995 0
M  V30 508 H 44.478 -2.68134 4.0402 0
M  V30 509 N 45.8211 -1.22559 -0.990812 0
M  V30 510 C 46.7681 -0.997519 -2.0813 0
M  V30 511 C 47.7381 0.0814702 -1.659 0
M  V30 512 O 48.9231 -0.0685424 -1.90677 0
M  V30 513 C 46.0631 -0.583615 -3.40129 0
M  V30 514 C 45.1761 -1.7336 -3.9569 0
M  V30 515 C 44.3111 -1.26748 -5.15857 0
M  V30 516 C 43.3501 -2.38888 -5.63559 0
M  V30 517 N 42.4871 -1.93308 -6.74964 0
M  V30 518 H 47.3271 -1.93099 -2.26973 0
M  V30 519 H 44.8641 -0.962114 -1.11273 0
M  V30 520 H 46.8221 -0.324801 -4.15934 0
M  V30 521 H 45.4521 0.312845 -3.2128 0
M  V30 522 H 44.5041 -2.10669 -3.16738 0
M  V30 523 H 45.8161 -2.57704 -4.27071 0
M  V30 524 H 44.9701 -0.966173 -5.98957 0
M  V30 525 H 43.7091 -0.394272 -4.86104 0
M  V30 526 H 42.7141 -2.69805 -4.79046 0
M  V30 527 H 43.9391 -3.26728 -5.95336 0
M  V30 528 H 41.8851 -1.08352 -6.4699 0
M  V30 529 H 41.8021 -2.71217 -7.05675 0
M  V30 530 H 43.0701 -1.66252 -7.61564 0
M  V30 531 N 47.2992 1.18797 -1.03562 0
M  V30 532 C 48.2492 2.20161 -0.592724 0
M  V30 533 C 49.2332 1.56772 0.362133 0
M  V30 534 O 50.4252 1.76062 0.182009 0
M  V30 535 C 47.5542 3.43266 0.0481024 0
M  V30 536 C 46.6402 4.13786 -0.9296 0
M  V30 537 N 47.0312 4.60388 -2.09467 0
M  V30 538 C 45.3292 4.39572 -0.754499 0
M  V30 539 C 46.0302 5.14619 -2.71187 0
M  V30 540 N 45.0062 5.05826 -1.991 0
M  V30 541 H 48.8082 2.53877 -1.48066 0
M  V30 542 H 46.3222 1.34946 -0.903514 0
M  V30 543 H 48.3192 4.15136 0.383058 0
M  V30 544 H 46.9792 3.11048 0.931636 0
M  V30 545 H 47.9902 4.54999 -2.47379 0
M  V30 546 H 44.6672 4.17425 0.0793713 0
M  V30 547 H 46.0572 5.60917 -3.69895 0
M  V30 548 N 48.7773 0.814389 1.34928 0
M  V30 549 C 49.7073 0.244827 2.32213 0
M  V30 550 C 50.6883 -0.634024 1.57842 0
M  V30 551 O 51.8733 -0.562676 1.8587 0
M  V30 552 C 49.0033 -0.601106 3.42058 0
M  V30 553 C 47.9573 0.179896 4.27622 0
M  V30 554 C 47.2833 -0.788237 5.28858 0
M  V30 555 C 48.5833 1.38329 5.03649 0
M  V30 556 H 50.2773 1.05763 2.80097 0
M  V30 557 H 47.8233 0.510029 1.34665 0
M  V30 558 H 49.7763 -1.00968 4.09125 0
M  V30 559 H 48.5003 -1.44688 2.92802 0
M  V30 560 H 47.1593 0.569739 3.62146 0
M  V30 561 H 46.8073 -1.62973 4.75866 0
M  V30 562 H 46.5073 -0.269942 5.8698 0
M  V30 563 H 48.0313 -1.19485 5.98795 0
M  V30 564 H 49.4453 1.04918 5.63618 0
M  V30 565 H 47.8423 1.83662 5.71304 0
M  V30 566 H 48.9123 2.16592 4.33839 0
M  V30 567 N 50.2554 -1.46986 0.568584 0
M  V30 568 C 51.5014 -2.02741 0.0488709 0
M  V30 569 C 51.8344 -1.44077 -1.30214 0
M  V30 570 O 51.1094 -0.600552 -1.84996 0
M  V30 571 C 51.3924 -3.60086 -0.032047 0
M  V30 572 C 51.2454 -4.29162 1.34686 0
M  V30 573 C 52.5644 -4.33838 -0.739798 0
M  V30 574 H 49.6834 -0.736749 0.0192338 0
M  V30 575 H 52.3254 -1.75289 0.733065 0
M  V30 576 H 50.4754 -3.83606 -0.61473 0
M  V30 577 H 52.1474 -4.16948 1.97362 0
M  V30 578 H 50.3904 -3.89073 1.91846 0
M  V30 579 H 51.0614 -5.37826 1.24285 0
M  V30 580 H 53.5374 -4.15378 -0.244939 0
M  V30 581 H 52.4134 -5.43537 -0.765406 0
M  V30 582 H 52.6744 -4.03875 -1.79827 0
M  V30 583 N 51.7335 -0.305618 -1.54608 0
M  V30 584 C 52.9795 0.295595 -2.01241 0
M  V30 585 C 53.3345 1.51171 -1.19018 0
M  V30 586 O 52.6275 1.89832 -0.259684 0
M  V30 587 C 52.8215 0.698983 -3.50498 0
M  V30 588 C 52.6505 -0.476491 -4.47168 0
M  V30 589 C 51.4205 -0.969963 -4.95903 0
M  V30 590 C 53.6185 -1.32294 -4.96994 0
M  V30 591 N 51.6005 -2.11172 -5.76437 0
M  V30 592 C 52.9715 -2.31212 -5.75275 0
M  V30 593 C 55.0265 -1.35278 -4.7917 0
M  V30 594 C 53.7295 -3.32896 -6.37631 0
M  V30 595 C 55.7555 -2.35823 -5.42348 0
M  V30 596 C 55.1175 -3.33469 -6.20466 0
M  V30 597 H 51.2165 0.0724992 -0.778632 0
M  V30 598 H 53.8005 -0.436583 -1.89742 0
M  V30 599 H 51.9715 1.40032 -3.62278 0
M  V30 600 H 53.7035 1.28013 -3.8392 0
M  V30 601 H 50.4585 -0.544178 -4.70463 0
M  V30 602 H 50.8825 -2.68714 -6.21387 0
M  V30 603 H 55.5245 -0.61157 -4.18354 0
M  V30 604 H 53.2425 -4.07933 -6.97579 0
M  V30 605 H 56.8285 -2.38911 -5.30484 0
M  V30 606 H 55.7085 -4.09996 -6.68485 0
M  V30 607 N 53.2116 1.57565 -0.0334293 0
M  V30 608 C 54.1746 2.09393 0.932048 0
M  V30 609 C 55.1746 1.00986 1.25134 0
M  V30 610 O 56.3646 1.27129 1.19096 0
M  V30 611 C 53.4966 2.56338 2.2473 0
M  V30 612 H 54.6896 2.95984 0.483085 0
M  V30 613 H 52.2426 1.54819 0.21468 0
M  V30 614 H 52.9776 1.7309 2.74245 0
M  V30 615 H 52.7626 3.35542 2.02865 0
M  V30 616 H 54.2526 2.96646 2.93923 0
M  V30 617 N 54.6897 -0.239769 1.55765 0
M  V30 618 C 55.9147 -0.988373 1.82335 0
M  V30 619 C 56.3397 -1.77886 0.611421 0
M  V30 620 O 55.6977 -1.75889 -0.439639 0
M  V30 621 C 55.7457 -1.89627 3.06715 0
M  V30 622 O 54.8497 -2.98904 2.84131 0
M  V30 623 H 54.1907 -0.280858 0.601677 0
M  V30 624 H 56.7207 -0.258597 2.02959 0
M  V30 625 H 56.7307 -2.30957 3.36338 0
M  V30 626 H 55.4057 -1.31511 3.9456 0
M  V30 627 H 53.9827 -2.61651 2.65694 0
M  V30 628 N 56.1678 -1.49265 -0.50573 0
M  V30 629 C 57.5838 -1.35923 -0.836486 0
M  V30 630 C 57.7838 -0.388704 -1.97715 0
M  V30 631 O 56.8398 0.181336 -2.51848 0
M  V30 632 C 58.1528 -2.76531 -1.18115 0
M  V30 633 C 59.7008 -2.85197 -1.28964 0
M  V30 634 C 60.1758 -4.26561 -1.66761 0
M  V30 635 N 61.6668 -4.2935 -1.73819 0
M  V30 636 C 62.4018 -5.35693 -2.045 0
M  V30 637 N 61.8978 -6.52287 -2.33438 0
M  V30 638 N 63.6908 -5.23105 -2.05711 0
M  V30 639 H 55.8418 -2.10965 0.246519 0
M  V30 640 H 58.1048 -0.9468 0.0476887 0
M  V30 641 H 57.8108 -3.49226 -0.416398 0
M  V30 642 H 57.6848 -3.11599 -2.1257 0
M  V30 643 H 60.0718 -2.12742 -2.04511 0
M  V30 644 H 60.1528 -2.53718 -0.325704 0
M  V30 645 H 59.7968 -4.99541 -0.917656 0
M  V30 646 H 59.7268 -4.55502 -2.64246 0
M  V30 647 H 62.2178 -3.4526 -1.53635 0
M  V30 648 H 62.5308 -7.29158 -2.56024 0
M  V30 649 H 60.8758 -6.55521 -2.30905 0
M  V30 650 H 64.0668 -4.31026 -1.82577 0
M  V30 651 H 64.2398 -6.06078 -2.29289 0
M  V30 652 N 57.6459 0.756429 -1.3826 0
M  V30 653 C 58.5559 1.9009 -1.37488 0
M  V30 654 C 59.5719 1.71855 -0.272366 0
M  V30 655 O 60.7479 1.94827 -0.510318 0
M  V30 656 C 57.8129 3.25421 -1.19592 0
M  V30 657 C 56.8739 3.56202 -2.39622 0
M  V30 658 C 56.1069 4.85075 -2.2257 0
M  V30 659 O 56.3299 5.57246 -1.21793 0
M  V30 660 O 55.2639 5.15269 -3.11098 0
M  V30 661 H 59.0899 1.93695 -2.33914 0
M  V30 662 H 56.6749 0.901313 -1.1915 0
M  V30 663 H 58.5569 4.06337 -1.11661 0
M  V30 664 H 57.2319 3.22634 -0.262486 0
M  V30 665 H 56.1389 2.75458 -2.53128 0
M  V30 666 H 57.4719 3.63747 -3.31586 0
M  V30 667 N 59.124 1.23083 0.984299 0
M  V30 668 C 60.054 1.03292 2.09411 0
M  V30 669 C 61.035 -0.048923 1.7003 0
M  V30 670 O 62.22 0.114967 1.93859 0
M  V30 671 C 59.35 0.619155 3.41736 0
M  V30 672 C 58.304 1.64791 3.95004 0
M  V30 673 C 57.63 1.0897 5.23478 0
M  V30 674 C 58.93 3.03999 4.24714 0
M  V30 675 H 60.624 1.96119 2.26225 0
M  V30 676 H 58.17 0.944344 1.08711 0
M  V30 677 H 60.123 0.467777 4.18796 0
M  V30 678 H 58.847 -0.344786 3.24775 0
M  V30 679 H 57.506 1.78721 3.20085 0
M  V30 680 H 57.154 0.11686 5.02864 0
M  V30 681 H 56.854 1.77704 5.60085 0
M  V30 682 H 58.378 0.950093 6.03163 0
M  V30 683 H 59.792 2.93393 4.92538 0
M  V30 684 H 58.189 3.69936 4.72512 0
M  V30 685 H 59.259 3.53285 3.32142 0
M  V30 686 N 60.6021 -1.18246 1.0419 0
M  V30 687 C 61.5121 -2.25574 0.644476 0
M  V30 688 C 62.5281 -1.70845 -0.329826 0
M  V30 689 O 63.7041 -2.00554 -0.184443 0
M  V30 690 C 60.7691 -3.46697 0.014877 0
M  V30 691 C 59.8301 -4.16554 1.03834 0
M  V30 692 C 59.0631 -5.31894 0.438692 0
M  V30 693 O 59.2861 -5.65385 -0.754752 0
M  V30 694 O 58.2201 -5.90459 1.168 0
M  V30 695 H 62.0461 -2.61836 1.53869 0
M  V30 696 H 59.6311 -1.25352 0.812854 0
M  V30 697 H 61.5131 -4.20062 -0.335538 0
M  V30 698 H 60.1881 -3.12255 -0.853138 0
M  V30 699 H 59.0951 -3.45251 1.44057 0
M  V30 700 H 60.4281 -4.54998 1.87716 0
M  V30 701 N 62.0802 -0.821533 -1.34494 0
M  V30 702 C 63.4962 -0.507117 -1.51329 0
M  V30 703 C 63.6962 0.968964 -1.76673 0
M  V30 704 O 62.7522 1.75348 -1.81685 0
M  V30 705 C 64.0652 -1.36544 -2.67911 0
M  V30 706 C 65.6132 -1.36242 -2.81793 0
M  V30 707 C 66.0882 -2.2052 -4.01416 0
M  V30 708 N 67.5792 -2.18136 -4.08621 0
M  V30 709 C 68.3142 -2.80095 -5.00334 0
M  V30 710 N 67.8102 -3.51039 -5.9728 0
M  V30 711 N 69.6032 -2.69656 -4.93196 0
M  V30 712 H 61.7542 -1.77729 -1.16302 0
M  V30 713 H 64.0172 -0.757291 -0.570276 0
M  V30 714 H 63.7232 -2.41361 -2.55808 0
M  V30 715 H 63.5972 -1.02917 -3.62888 0
M  V30 716 H 65.9842 -0.322041 -2.93338 0
M  V30 717 H 66.0652 -1.73866 -1.87628 0
M  V30 718 H 65.7092 -3.24607 -3.90631 0
M  V30 719 H 65.6392 -1.80247 -4.94791 0
M  V30 720 H 68.1302 -1.6653 -3.39229 0
M  V30 721 H 68.4432 -3.95565 -6.63889 0
M  V30 722 H 66.7882 -3.55145 -5.97409 0
M  V30 723 H 69.9792 -2.13808 -4.16418 0
M  V30 724 H 70.1522 -3.1823 -5.64476 0
M  V30 725 N 63.5583 1.46682 -0.576371 0
M  V30 726 C 64.8053 2.02412 -0.0595339 0
M  V30 727 C 65.1333 1.44859 1.29793 0
M  V30 728 O 64.3883 0.601099 1.8624 0
M  V30 729 C 64.6873 3.57345 0.062886 0
M  V30 730 C 64.3533 4.33908 -1.22616 0
M  V30 731 C 63.0153 4.54544 -1.57933 0
M  V30 732 C 65.3673 4.77919 -2.07948 0
M  V30 733 C 62.6953 5.16444 -2.78393 0
M  V30 734 C 65.0473 5.41149 -3.27629 0
M  V30 735 C 63.7113 5.60014 -3.63236 0
M  V30 736 H 62.9813 0.74068 -0.021785 0
M  V30 737 H 65.6283 1.76128 -0.751735 0
M  V30 738 H 63.9333 3.82729 0.838178 0
M  V30 739 H 65.6303 3.98136 0.478439 0
M  V30 740 H 62.2203 4.18138 -0.941202 0
M  V30 741 H 66.4043 4.61738 -1.81967 0
M  V30 742 H 61.6603 5.29242 -3.06126 0
M  V30 743 H 65.8343 5.74211 -3.94023 0
M  V30 744 H 63.4613 6.07748 -4.56669 0
M  V30 745 N 65.0364 0.313813 1.54444 0
M  V30 746 C 65.9994 -0.54379 2.22656 0
M  V30 747 C 66.9994 -1.05124 1.21678 0
M  V30 748 O 68.1894 -0.945225 1.46325 0
M  V30 749 C 65.3214 -1.75427 2.92298 0
M  V30 750 H 66.5144 0.0523599 2.99854 0
M  V30 751 H 64.0674 0.0647834 1.56166 0
M  V30 752 H 64.8024 -2.38991 2.19211 0
M  V30 753 H 64.5874 -1.39791 3.66334 0
M  V30 754 H 66.0774 -2.36325 3.44297 0
M  V30 755 N 66.5145 -1.57545 0.0417849 0
M  V30 756 C 67.4445 -2.14009 -0.933929 0
M  V30 757 C 68.4255 -1.05938 -1.33083 0
M  V30 758 O 69.6105 -1.33833 -1.40721 0
M  V30 759 C 66.7405 -2.67747 -2.21199 0
M  V30 760 C 65.6945 -3.80718 -1.95544 0
M  V30 761 C 65.0205 -4.20935 -3.29724 0
M  V30 762 C 66.3205 -5.06258 -1.28452 0
M  V30 763 H 68.0145 -2.95788 -0.463645 0
M  V30 764 H 65.5605 -1.42285 -0.221573 0
M  V30 765 H 67.5135 -3.05886 -2.89848 0
M  V30 766 H 66.2375 -1.83147 -2.70416 0
M  V30 767 H 64.8965 -3.43037 -1.2931 0
M  V30 768 H 64.5445 -3.33298 -3.76724 0
M  V30 769 H 64.2445 -4.9707 -3.13361 0
M  V30 770 H 65.7685 -4.61666 -3.9962 0
M  V30 771 H 67.1825 -5.41903 -1.8712 0
M  V30 772 H 65.5795 -5.87475 -1.22445 0
M  V30 773 H 66.6495 -4.84207 -0.259219 0
M  V30 774 N 67.9926 0.231505 -1.5589 0
M  V30 775 C 68.9406 1.30649 -1.92441 0
M  V30 776 C 69.9346 1.49037 -0.805254 0
M  V30 777 O 71.1406 1.50329 -0.990007 0
M  V30 778 H 67.5156 0.437812 -0.611412 0
M  V30 779 H 69.4866 0.970973 -2.82161 0
M  V30 780 C 68.2356 2.65179 -2.24889 0
M  V30 781 H 67.5586 2.51835 -3.10514 0
M  V30 782 H 68.9986 3.39234 -2.54355 0
M  V30 783 C 67.4576 3.19439 -1.07054 0
M  V30 784 O 67.9876 4.00371 -0.326499 0
M  V30 785 N 66.1936 2.77675 -0.85703 0
M  V30 786 H 65.7406 2.11969 -1.46379 0
M  V30 787 H 65.6986 3.14321 -0.0703223 0
M  V30 788 N 69.4707 1.49531 0.497807 0
M  V30 789 C 70.8817 1.52344 1.07927 0
M  V30 790 C 71.2327 0.311469 1.93712 0
M  V30 791 O 70.3577 -0.578405 2.08527 0
M  V30 792 C 70.9527 2.76062 1.96405 0
M  V30 793 C 69.5117 2.81643 2.49709 0
M  V30 794 C 68.6587 2.46299 1.27404 0
M  V30 795 H 71.6097 1.56182 0.281576 0
M  V30 796 H 71.6307 2.56405 2.81135 0
M  V30 797 H 71.1427 3.64254 1.33943 0
M  V30 798 H 69.2437 1.97739 3.15801 0
M  V30 799 H 69.3567 3.83891 2.86643 0
M  V30 800 H 67.7207 1.98148 1.60029 0
M  V30 801 H 68.5037 3.36769 0.66645 0
M  V30 802 N 70.9488 -0.749086 1.3866 0
M  V30 803 C 72.1968 -1.50535 1.34847 0
M  V30 804 C 72.5178 -1.94909 -0.0595016 0
M  V30 805 O 71.7878 -1.67973 -1.00806 0
M  V30 806 H 70.3678 -0.558395 0.49619 0
M  V30 807 H 73.0298 -0.890165 1.73384 0
M  V30 808 H 72.1258 -2.39413 2.00219 0
M  V30 809 N 72.4269 -1.23603 -0.977757 0
M  V30 810 C 73.3569 -1.04401 -2.0886 0
M  V30 811 C 74.3379 0.0399052 -1.70053 0
M  V30 812 O 75.5229 -0.125246 -1.93796 0
M  V30 813 C 72.6529 -0.637269 -3.41403 0
M  V30 814 C 71.6069 -1.66883 -3.94124 0
M  V30 815 C 70.9329 -1.11745 -5.22893 0
M  V30 816 C 72.2329 -3.06247 -4.23096 0
M  V30 817 H 73.9269 -1.97316 -2.25182 0
M  V30 818 H 71.4729 -0.950096 -1.08209 0
M  V30 819 H 73.4259 -0.48998 -4.18542 0
M  V30 820 H 72.1499 0.327557 -3.24953 0
M  V30 821 H 70.8089 -1.80416 -3.19133 0
M  V30 822 H 70.4569 -0.143527 -5.02795 0
M  V30 823 H 70.1569 -1.80672 -5.59134 0
M  V30 824 H 71.6809 -0.982067 -6.02651 0
M  V30 825 H 73.0949 -2.96001 -4.90975 0
M  V30 826 H 71.4919 -3.72436 -4.70544 0
M  V30 827 H 72.5619 -3.55041 -3.30263 0
M  V30 828 N 73.905 1.17692 -1.04816 0
M  V30 829 C 74.835 2.23777 -0.666791 0
M  V30 830 C 75.816 1.66796 0.33361 0
M  V30 831 O 77.001 1.93039 0.212042 0
M  V30 832 C 74.131 3.47281 -0.0367933 0
M  V30 833 C 73.085 4.17059 -0.961546 0
M  V30 834 C 72.411 5.34342 -0.195626 0
M  V30 835 C 73.711 4.69713 -2.28402 0
M  V30 836 H 75.405 2.55933 -1.55367 0
M  V30 837 H 72.951 1.23019 -0.748484 0
M  V30 838 H 74.904 4.20706 0.241775 0
M  V30 839 H 73.628 3.14381 0.885004 0
M  V30 840 H 72.287 3.45541 -1.22462 0
M  V30 841 H 71.935 4.97692 0.728816 0
M  V30 842 H 71.635 5.81966 -0.811775 0
M  V30 843 H 73.159 6.10553 0.0757473 0
M  V30 844 H 74.573 5.34794 -2.06563 0
M  V30 845 H 72.97 5.279 -2.8538 0
M  V30 846 H 74.04 3.86726 -2.92525 0
M  V30 847 N 75.3831 0.828654 1.34056 0
M  V30 848 C 76.2931 0.256725 2.33191 0
M  V30 849 C 77.3091 -0.611898 1.62886 0
M  V30 850 O 78.4851 -0.51844 1.94613 0
M  V30 851 C 75.5501 -0.567238 3.42028 0
M  V30 852 C 74.6111 0.324458 4.28072 0
M  V30 853 C 73.8441 -0.460274 5.31712 0
M  V30 854 O 74.0671 -1.693 5.44696 0
M  V30 855 O 73.0011 0.160391 6.01686 0
M  V30 856 H 76.8271 1.07739 2.83947 0
M  V30 857 H 74.4121 0.59093 1.37217 0
M  V30 858 H 76.2941 -1.03582 4.08471 0
M  V30 859 H 74.9691 -1.36513 2.93506 0
M  V30 860 H 73.8761 0.840659 3.64532 0
M  V30 861 H 75.2091 1.08685 4.8005 0
M  V30 862 N 76.8612 -1.46375 0.584142 0
M  V30 863 C 78.0892 -2.06761 0.0759296 0
M  V30 864 C 78.5042 -1.43266 -1.22965 0
M  V30 865 O 77.8612 -0.538458 -1.74376 0
M  V30 866 C 77.9122 -3.61375 -0.0950384 0
M  V30 867 O 77.6332 -4.22495 1.15887 0
M  V30 868 C 79.1342 -4.38693 -0.637434 0
M  V30 869 H 76.3542 -0.668479 0.0581075 0
M  V30 870 H 78.8982 -1.8798 0.805218 0
M  V30 871 H 77.0532 -3.79578 -0.774554 0
M  V30 872 H 77.4672 -5.15385 0.973598 0
M  V30 873 H 78.9412 -5.47464 -0.706237 0
M  V30 874 H 79.4182 -4.06836 -1.65472 0
M  V30 875 H 80.0242 -4.25299 0.00725967 0
M  V30 876 N 78.3393 -0.321999 -1.54275 0
M  V30 877 C 79.7503 0.166384 -1.85957 0
M  V30 878 C 80.1013 1.51747 -1.24367 0
M  V30 879 O 79.2263 2.09317 -0.549124 0
M  V30 880 C 79.8213 0.308681 -3.37391 0
M  V30 881 C 78.3803 0.741286 -3.69028 0
M  V30 882 C 77.5273 -0.137937 -2.76957 0
M  V30 883 H 80.4783 -0.542335 -1.49146 0
M  V30 884 H 80.4993 1.13984 -3.63026 0
M  V30 885 H 80.0113 -0.674809 -3.82188 0
M  V30 886 H 78.1123 1.73458 -3.29762 0
M  V30 887 H 78.2253 0.546118 -4.75977 0
M  V30 888 H 76.5893 0.386251 -2.51754 0
M  V30 889 H 77.3723 -1.11816 -3.2458 0
M  V30 890 N 79.8174 1.5752 -0.0501392 0
M  V30 891 C 80.7274 2.14952 0.939827 0
M  V30 892 C 81.7434 1.10706 1.34239 0
M  V30 893 O 82.9194 1.42869 1.41952 0
M  V30 894 C 79.9844 2.68232 2.19665 0
M  V30 895 C 79.0454 3.87272 1.85253 0
M  V30 896 C 78.2784 4.38002 3.04943 0
M  V30 897 O 78.5014 3.87811 4.18281 0
M  V30 898 O 77.4354 5.29602 2.86017 0
M  V30 899 H 81.2614 2.9986 0.481392 0
M  V30 900 H 78.8464 1.4841 0.171699 0
M  V30 901 H 80.7284 3.02475 2.93406 0
M  V30 902 H 79.4034 1.86395 2.64648 0
M  V30 903 H 78.3104 3.5792 1.0883 0
M  V30 904 H 79.6434 4.70336 1.4507 0
M  V30 905 N 81.2955 -0.223234 1.56011 0
M  V30 906 C 82.5435 -0.946003 1.78592 0
M  V30 907 C 82.8645 -1.84936 0.618349 0
M  V30 908 O 82.1345 -1.92473 -0.364833 0
M  V30 909 H 80.7145 -0.352298 0.658707 0
M  V30 910 H 83.3765 -0.235494 1.93472 0
M  V30 911 H 82.4725 -1.55381 2.70672 0
M  V30 912 N 82.7736 -1.49793 -0.48987 0
M  V30 913 C 84.0136 -1.61466 -1.25332 0
M  V30 914 C 84.3776 -0.299688 -1.89647 0
M  V30 915 O 85.5786 -0.291687 -2.67213 0
M  V30 916 C 83.8496 -2.74944 -2.28343 0
M  V30 917 S 85.4086 -3.06637 -3.13878 0
M  V30 918 H 82.2266 -0.569411 -0.425784 0
M  V30 919 H 84.8286 -1.875 -0.553541 0
M  V30 920 H 83.5326 -3.68994 -1.79643 0
M  V30 921 H 83.0636 -2.50938 -3.02975 0
M  V30 922 H 85.0786 -2.49015 -4.29192 0
M  V30 923 N 84.2517 0.741722 -1.39055 0
M  V30 924 C 85.1817 1.869 -1.39966 0
M  V30 925 C 86.1627 1.6804 -0.26392 0
M  V30 926 O 87.3477 1.88458 -0.468755 0
M  V30 927 C 84.4777 3.24572 -1.23574 0
M  V30 928 C 83.4317 3.58056 -2.34477 0
M  V30 929 C 82.7577 4.94593 -2.0318 0
M  V30 930 C 84.0577 3.61716 -3.76774 0
M  V30 931 H 85.7517 1.86395 -2.34302 0
M  V30 932 H 83.2977 0.895361 -1.1278 0
M  V30 933 H 85.2507 4.031 -1.22834 0
M  V30 934 H 83.9747 3.25587 -0.257045 0
M  V30 935 H 82.6337 2.81854 -2.34423 0
M  V30 936 H 82.2817 4.92181 -1.03765 0
M  V30 937 H 81.9817 5.17964 -2.77465 0
M  V30 938 H 83.5057 5.75486 -2.04079 0
M  V30 939 H 84.9197 4.30335 -3.78794 0
M  V30 940 H 83.3167 3.96603 -4.50362 0
M  V30 941 H 84.3867 2.61672 -4.08235 0
M  V30 942 N 85.7298 1.2412 0.971189 0
M  V30 943 C 86.6618 0.988349 2.06795 0
M  V30 944 C 87.6748 -0.0409541 1.62748 0
M  V30 945 O 88.8638 0.195673 1.77424 0
M  V30 946 C 85.9638 0.469023 3.35639 0
M  V30 947 C 85.1368 1.56065 4.08611 0
M  V30 948 C 84.1958 1.04458 5.15728 0
M  V30 949 O 83.2218 1.73553 5.42096 0
M  V30 950 N 84.4238 -0.122817 5.8037 0
M  V30 951 H 87.1888 1.93265 2.29061 0
M  V30 952 H 84.7498 1.15102 1.13856 0
M  V30 953 H 86.7418 0.108613 4.04554 0
M  V30 954 H 85.3118 -0.380919 3.1027 0
M  V30 955 H 84.5318 2.09341 3.34021 0
M  V30 956 H 85.8198 2.29449 4.54126 0
M  V30 957 H 85.2178 -0.700563 5.61345 0
M  V30 958 H 83.7748 -0.424404 6.50417 0
M  V30 959 N 87.2079 -1.17134 1.05439 0
M  V30 960 C 88.4569 -1.86791 0.761049 0
M  V30 961 C 88.7699 -1.82072 -0.714795 0
M  V30 962 O 89.9759 -2.47223 -1.12218 0
M  V30 963 C 88.4319 -3.35166 1.31117 0
M  V30 964 C 88.0399 -3.48381 2.81664 0
M  V30 965 C 89.7839 -4.10134 1.09499 0
M  V30 966 C 87.6909 -4.90793 3.29964 0
M  V30 967 H 86.6209 -0.699681 0.281002 0
M  V30 968 H 89.2719 -1.3226 1.27199 0
M  V30 969 H 87.6539 -3.8925 0.72803 0
M  V30 970 H 88.8279 -3.04502 3.45855 0
M  V30 971 H 87.1429 -2.86836 3.01851 0
M  V30 972 H 89.7399 -5.152 1.43084 0
M  V30 973 H 90.0829 -4.16287 0.0328772 0
M  V30 974 H 90.6159 -3.62264 1.64346 0
M  V30 975 H 87.3549 -4.89816 4.35616 0
M  V30 976 H 86.8749 -5.35333 2.70516 0
M  V30 977 H 88.5539 -5.59573 3.24787 0
M  V30 978 N 88.686 -0.835752 -1.33615 0
M  V30 979 C 89.935 -0.426289 -1.97144 0
M  V30 980 C 90.248 1.01912 -1.66953 0
M  V30 981 O 91.454 1.53311 -2.24072 0
M  V30 982 C 89.91 -0.711321 -3.52801 0
M  V30 983 C 89.518 -2.1712 -3.91871 0
M  V30 984 C 91.262 -0.368654 -4.22896 0
M  V30 985 C 89.169 -2.40044 -5.40493 0
M  V30 986 H 88.099 -0.15567 -0.737755 0
M  V30 987 H 90.75 -1.0239 -1.52278 0
M  V30 988 H 89.132 -0.0433766 -3.95976 0
M  V30 989 H 90.306 -2.87936 -3.59763 0
M  V30 990 H 88.621 -2.47654 -3.34749 0
M  V30 991 H 91.218 -0.517601 -5.32189 0
M  V30 992 H 91.561 0.688078 -4.10574 0
M  V30 993 H 92.094 -0.991702 -3.8524 0
M  V30 994 H 88.833 -3.44271 -5.57815 0
M  V30 995 H 88.353 -1.73785 -5.74072 0
M  V30 996 H 90.032 -2.23042 -6.0734 0
M  V30 997 N 90.1641 1.46063 -0.591896 0
M  V30 998 C 91.0741 2.34192 0.13831 0
M  V30 999 C 92.0901 1.50305 0.876608 0
M  V30 1000 O 93.2661 1.8315 0.837728 0
M  V30 1001 C 90.3311 3.27656 1.13326 0
M  V30 1002 C 89.3921 4.27445 0.39863 0
M  V30 1003 C 88.6251 5.16443 1.34618 0
M  V30 1004 O 88.8481 5.08553 2.58321 0
M  V30 1005 O 87.7821 5.95843 0.851768 0
M  V30 1006 H 91.6081 2.98002 -0.58552 0
M  V30 1007 H 89.1931 1.45188 -0.352239 0
M  V30 1008 H 91.0751 3.85291 1.70671 0
M  V30 1009 H 89.7501 2.6643 1.83839 0
M  V30 1010 H 88.6571 3.73471 -0.216895 0
M  V30 1011 H 89.9901 4.91482 -0.265709 0
M  V30 1012 N 91.6422 0.330177 1.54103 0
M  V30 1013 C 92.5742 -0.566902 2.22079 0
M  V30 1014 C 93.5872 -1.07462 1.22294 0
M  V30 1015 O 94.7762 -0.987065 1.48726 0
M  V30 1016 C 91.8762 -1.79138 2.87685 0
M  V30 1017 C 91.0492 -1.42123 4.13666 0
M  V30 1018 C 90.1082 -2.50394 4.62806 0
M  V30 1019 O 89.1342 -2.14261 5.27334 0
M  V30 1020 N 90.3362 -3.81433 4.37595 0
M  V30 1021 H 93.1012 0.0151844 2.99696 0
M  V30 1022 H 90.6622 0.153681 1.61169 0
M  V30 1023 H 92.6542 -2.50975 3.1748 0
M  V30 1024 H 91.2242 -2.28115 2.13734 0
M  V30 1025 H 90.4442 -0.534201 3.90564 0
M  V30 1026 H 91.7322 -1.14971 4.9564 0
M  V30 1027 H 91.1302 -4.13584 3.8596 0
M  V30 1028 H 89.6872 -4.4948 4.72029 0
M  V30 1029 N 93.1203 -1.57491 0.0584922 0
M  V30 1030 C 94.3693 -1.92155 -0.613146 0
M  V30 1031 C 94.6823 -0.939334 -1.71569 0
M  V30 1032 O 95.8883 -1.17829 -2.44599 0
M  V30 1033 C 94.3443 -3.41303 -1.14195 0
M  V30 1034 C 93.9523 -4.47944 -0.0711265 0
M  V30 1035 C 95.6963 -3.84988 -1.78841 0
M  V30 1036 C 93.6033 -5.88212 -0.613225 0
M  V30 1037 H 92.5333 -0.717162 -0.232796 0
M  V30 1038 H 95.1843 -1.83049 0.12857 0
M  V30 1039 H 93.5663 -3.45437 -1.93621 0
M  V30 1040 H 94.7403 -4.55408 0.702836 0
M  V30 1041 H 93.0553 -4.13644 0.478313 0
M  V30 1042 H 95.6523 -4.87159 -2.20408 0
M  V30 1043 H 95.9953 -3.21632 -2.64308 0
M  V30 1044 H 96.5283 -3.83401 -1.06059 0
M  V30 1045 H 93.2673 -6.55183 0.203978 0
M  V30 1046 H 92.7873 -5.84294 -1.35501 0
M  V30 1047 H 94.4663 -6.37687 -1.09383 0
M  V30 1048 N 94.5984 0.214957 -1.56127 0
M  V30 1049 C 95.5304 1.29004 -1.89448 0
M  V30 1050 C 96.5434 1.42716 -0.783326 0
M  V30 1051 O 97.7324 1.43496 -1.06166 0
M  V30 1052 C 94.8324 2.66482 -2.09381 0
M  V30 1053 C 94.0054 2.74633 -3.40434 0
M  V30 1054 C 93.0644 3.9317 -3.49719 0
M  V30 1055 O 92.0904 3.812 -4.227 0
M  V30 1056 N 93.2924 5.07765 -2.81346 0
M  V30 1057 H 96.0574 1.00743 -2.82261 0
M  V30 1058 H 93.6184 0.40497 -1.56753 0
M  V30 1059 H 95.6104 3.44173 -2.12901 0
M  V30 1060 H 94.1804 2.87314 -1.23163 0
M  V30 1061 H 93.4004 1.83368 -3.48955 0
M  V30 1062 H 94.6884 2.77054 -4.26754 0
M  V30 1063 H 94.0864 5.20386 -2.21843 0
M  V30 1064 H 92.6434 5.83474 -2.90519 0
M  V30 1065 N 96.0765 1.50051 0.48192 0
M  V30 1066 C 97.4875 1.5348 1.06305 0
M  V30 1067 C 97.8385 0.331997 1.93371 0
M  V30 1068 O 96.9635 -0.556256 2.09129 0
M  V30 1069 C 97.5585 2.7813 1.93466 0
M  V30 1070 C 96.1175 2.84275 2.46707 0
M  V30 1071 C 95.2645 2.47637 1.24785 0
M  V30 1072 H 98.2155 1.56472 0.264995 0
M  V30 1073 H 98.2365 2.59372 2.78399 0
M  V30 1074 H 97.7485 3.65654 1.30072 0
M  V30 1075 H 95.8495 2.01077 3.13686 0
M  V30 1076 H 95.9625 3.8691 2.82555 0
M  V30 1077 H 94.3265 1.99835 1.57918 0
M  V30 1078 H 95.1095 3.37457 0.630694 0
M  V30 1079 N 97.5546 -0.734337 1.39446 0
M  V30 1080 C 98.5176 -1.83004 1.37994 0
M  V30 1081 C 99.5176 -1.58397 0.276938 0
M  V30 1082 O 100.708 -1.65785 0.534875 0
M  V30 1083 C 97.8396 -3.20802 1.1532 0
M  V30 1084 H 99.0326 -1.85694 2.35494 0
M  V30 1085 H 96.5856 -0.938059 1.25021 0
M  V30 1086 H 97.3206 -3.23772 0.185036 0
M  V30 1087 H 97.1056 -3.4006 1.95197 0
M  V30 1088 H 98.5956 -4.00862 1.17046 0
M  V30 1089 N 99.0327 -1.24633 -0.964593 0
M  V30 1090 C 100.282 -1.08188 -1.7023 0
M  V30 1091 C 100.595 0.37873 -1.91898 0
M  V30 1092 O 101.801 0.663427 -2.6327 0
M  V30 1093 C 100.257 -1.88773 -3.06419 0
M  V30 1094 C 99.8647 -3.39263 -2.92582 0
M  V30 1095 C 101.609 -1.80867 -3.84041 0
M  V30 1096 C 99.5157 -4.1218 -4.24101 0
M  V30 1097 H 98.4457 -0.401245 -0.638372 0
M  V30 1098 H 101.097 -1.48742 -1.07462 0
M  V30 1099 H 99.4787 -1.41035 -3.70034 0
M  V30 1100 H 100.653 -3.94603 -2.37961 0
M  V30 1101 H 98.9677 -3.48154 -2.28424 0
M  V30 1102 H 101.565 -2.32646 -4.81435 0
M  V30 1103 H 101.908 -0.774543 -4.09031 0
M  V30 1104 H 102.441 -2.26301 -3.27159 0
M  V30 1105 H 99.1797 -5.15965 -4.04303 0
M  V30 1106 H 98.6997 -3.61626 -4.78526 0
M  V30 1107 H 100.379 -4.19349 -4.92702 0
M  V30 1108 N 100.511 1.16574 -1.06058 0
M  V30 1109 C 101.458 2.20883 -0.669263 0
M  V30 1110 C 102.428 1.62729 0.332918 0
M  V30 1111 O 103.613 1.895 0.222346 0
M  V30 1112 C 100.753 3.45049 -0.0593572 0
M  V30 1113 C 99.8658 4.17458 -1.11143 0
M  V30 1114 C 99.0008 5.29135 -0.467916 0
M  V30 1115 C 98.0398 5.93343 -1.50369 0
M  V30 1116 N 97.1768 6.96516 -0.883706 0
M  V30 1117 H 102.017 2.53709 -1.5632 0
M  V30 1118 H 99.5538 1.24616 -0.781625 0
M  V30 1119 H 101.512 4.16033 0.311771 0
M  V30 1120 H 100.142 3.12781 0.797992 0
M  V30 1121 H 99.1938 3.45101 -1.60029 0
M  V30 1122 H 100.506 4.61307 -1.89731 0
M  V30 1123 H 99.6598 6.06684 -0.0436871 0
M  V30 1124 H 98.3988 4.86443 0.349864 0
M  V30 1125 H 97.4038 5.14517 -1.93784 0
M  V30 1126 H 98.6288 6.38114 -2.32352 0
M  V30 1127 H 96.5748 6.55943 -0.086595 0
M  V30 1128 H 96.4918 7.38723 -1.607 0
M  V30 1129 H 97.7598 7.77993 -0.484543 0
M  V30 1130 N 101.989 0.842826 1.3317 0
M  V30 1131 C 103.217 0.454055 2.01856 0
M  V30 1132 C 103.632 -0.94587 1.63397 0
M  V30 1133 O 102.989 -1.61534 0.849302 0
M  V30 1134 C 103.04 0.569715 3.56982 0
M  V30 1135 O 102.761 1.91448 3.94055 0
M  V30 1136 C 104.262 0.178412 4.42941 0
M  V30 1137 H 101.482 0.17979 0.646465 0
M  V30 1138 H 104.026 1.1365 1.70012 0
M  V30 1139 H 102.181 -0.0648587 3.87346 0
M  V30 1140 H 102.595 1.90282 4.88767 0
M  V30 1141 H 104.069 0.310376 5.51127 0
M  V30 1142 H 104.546 -0.880056 4.30293 0
M  V30 1143 H 105.152 0.787579 4.17944 0
M  V30 1144 N 103.467 -1.45747 0.599634 0
M  V30 1145 C 104.715 -2.01893 0.0915472 0
M  V30 1146 C 105.036 -1.47155 -1.27946 0
M  V30 1147 O 104.306 -0.66273 -1.84349 0
M  V30 1148 H 102.886 -0.746363 0.0308524 0
M  V30 1149 H 105.548 -1.78645 0.779237 0
M  V30 1150 H 104.644 -3.1208 0.0353086 0
M  V30 1151 N 104.945 -0.338344 -1.53925 0
M  V30 1152 C 106.173 0.261298 -2.05243 0
M  V30 1153 C 106.588 1.44625 -1.21363 0
M  V30 1154 O 105.945 1.80811 -0.247736 0
M  V30 1155 C 105.996 0.681412 -3.5502 0
M  V30 1156 O 105.717 -0.456414 -4.35716 0
M  V30 1157 C 107.218 1.34232 -4.22489 0
M  V30 1158 H 104.438 0.0513685 -0.669031 0
M  V30 1159 H 106.982 -0.488822 -1.98572 0
M  V30 1160 H 105.137 1.38148 -3.61931 0
M  V30 1161 H 105.551 -0.122564 -5.24357 0
M  V30 1162 H 107.025 1.58708 -5.28693 0
M  V30 1163 H 107.502 2.29426 -3.74514 0
M  V30 1164 H 108.108 0.684424 -4.19757 0
M  V30 1165 N 106.423 1.57458 -0.0668435 0
M  V30 1166 C 107.333 2.15937 0.916975 0
M  V30 1167 C 108.349 1.12123 1.33058 0
M  V30 1168 O 109.525 1.44366 1.40429 0
M  V30 1169 C 106.59 2.70547 2.16807 0
M  V30 1170 C 105.651 3.89215 1.81135 0
M  V30 1171 C 104.884 4.41211 3.0028 0
M  V30 1172 O 105.107 3.92225 4.14144 0
M  V30 1173 O 104.041 5.32605 2.80384 0
M  V30 1174 H 107.867 3.00354 0.449561 0
M  V30 1175 H 105.452 1.48584 0.155949 0
M  V30 1176 H 107.334 3.0557 2.90181 0
M  V30 1177 H 106.009 1.89192 2.62656 0
M  V30 1178 H 104.916 3.59054 1.05028 0
M  V30 1179 H 106.249 4.71848 1.40073 0
M  V30 1180 N 107.901 -0.206675 1.56239 0
M  V30 1181 C 108.811 -1.27686 1.96808 0
M  V30 1182 C 109.827 -1.50455 0.874035 0
M  V30 1183 O 111.003 -1.63295 1.17884 0
M  V30 1184 C 108.068 -2.60358 2.28942 0
M  V30 1185 C 107.129 -2.45762 3.51994 0
M  V30 1186 C 106.362 -3.72108 3.82585 0
M  V30 1187 O 106.585 -4.75776 3.14631 0
M  V30 1188 O 105.519 -3.6833 4.76043 0
M  V30 1189 H 109.345 -0.962593 2.88041 0
M  V30 1190 H 106.93 -0.410746 1.43643 0
M  V30 1191 H 108.812 -3.38687 2.50737 0
M  V30 1192 H 107.487 -2.91435 1.4088 0
M  V30 1193 H 106.394 -1.65584 3.35459 0
M  V30 1194 H 107.727 -2.19621 4.40486 0
M  V30 1195 N 109.379 -1.50304 -0.473955 0
M  V30 1196 C 110.309 -1.71886 -1.58042 0
M  V30 1197 C 111.29 -0.567799 -1.60344 0
M  V30 1198 O 112.475 -0.806623 -1.76656 0
M  V30 1199 C 109.605 -1.81036 -2.96384 0
M  V30 1200 C 108.559 -2.962 -3.08949 0
M  V30 1201 C 107.885 -2.9049 -4.48909 0
M  V30 1202 C 109.185 -4.36752 -2.86434 0
M  V30 1203 H 110.879 -2.64527 -1.40234 0
M  V30 1204 H 108.425 -1.27295 -0.673201 0
M  V30 1205 H 110.378 -1.94719 -3.73714 0
M  V30 1206 H 109.102 -0.850147 -3.15341 0
M  V30 1207 H 107.761 -2.82164 -2.3405 0
M  V30 1208 H 107.409 -1.92321 -4.64781 0
M  V30 1209 H 107.109 -3.67802 -4.58253 0
M  V30 1210 H 108.633 -3.06218 -5.28264 0
M  V30 1211 H 110.047 -4.5133 -3.53517 0
M  V30 1212 H 108.444 -5.15493 -3.07225 0
M  V30 1213 H 109.514 -4.49321 -1.82316 0
M  V30 1214 N 110.857 0.726932 -1.39834 0
M  V30 1215 C 111.804 1.841 -1.39197 0
M  V30 1216 C 112.774 1.642 -0.250502 0
M  V30 1217 O 113.959 1.85494 -0.446846 0
M  V30 1218 C 111.099 3.21697 -1.24919 0
M  V30 1219 C 110.212 3.53247 -2.48678 0
M  V30 1220 C 109.347 4.80289 -2.26928 0
M  V30 1221 C 108.386 5.04707 -3.4632 0
M  V30 1222 N 107.523 6.22956 -3.23836 0
M  V30 1223 H 112.363 1.83979 -2.34427 0
M  V30 1224 H 109.9 0.898876 -1.16442 0
M  V30 1225 H 111.858 4.01137 -1.1465 0
M  V30 1226 H 110.488 3.21076 -0.333153 0
M  V30 1227 H 109.54 2.68447 -2.69519 0
M  V30 1228 H 110.852 3.67205 -3.37582 0
M  V30 1229 H 110.006 5.67725 -2.13947 0
M  V30 1230 H 108.745 4.68519 -1.35431 0
M  V30 1231 H 107.75 4.1573 -3.5979 0
M  V30 1232 H 108.975 5.18357 -4.38729 0
M  V30 1233 H 106.921 6.12459 -2.35011 0
M  V30 1234 H 106.838 6.37539 -4.063 0
M  V30 1235 H 108.106 7.1321 -3.14566 0
M  V30 1236 N 112.336 1.25143 0.95797 0
M  V30 1237 C 113.561 1.12521 1.74223 0
M  V30 1238 C 113.986 -0.317402 1.85403 0
M  V30 1239 O 113.344 -1.2299 1.33204 0
M  V30 1240 C 113.392 1.78062 3.1357 0
M  V30 1241 O 112.496 1.058 3.98598 0
M  V30 1242 H 111.837 0.39304 0.535178 0
M  V30 1243 H 114.367 1.65641 1.201 0
M  V30 1244 H 114.377 1.84213 3.64046 0
M  V30 1245 H 113.052 2.83021 3.04749 0
M  V30 1246 H 111.629 1.07506 3.57067 0
M  V30 1247 N 113.814 -1.1601 1.06675 0
M  V30 1248 C 114.744 -2.22688 0.702307 0
M  V30 1249 C 115.725 -1.67306 -0.307032 0
M  V30 1250 O 116.91 -1.93352 -0.181305 0
M  V30 1251 C 114.04 -3.47178 0.092038 0
M  V30 1252 C 112.994 -4.15477 1.02777 0
M  V30 1253 C 112.32 -5.33963 0.28061 0
M  V30 1254 C 113.62 -4.66019 2.35846 0
M  V30 1255 H 115.314 -2.53429 1.59419 0
M  V30 1256 H 112.86 -1.21813 0.767961 0
M  V30 1257 H 114.813 -4.21037 -0.174814 0
M  V30 1258 H 113.537 -3.15749 -0.834877 0
M  V30 1259 H 112.196 -3.43549 1.27944 0
M  V30 1260 H 111.844 -4.98788 -0.649545 0
M  V30 1261 H 111.544 -5.806 0.904258 0
M  V30 1262 H 113.068 -6.10596 0.021396 0
M  V30 1263 H 114.482 -5.3144 2.15045 0
M  V30 1264 H 112.879 -5.23293 2.93743 0
M  V30 1265 H 113.949 -3.82023 2.98641 0
M  V30 1266 N 115.292 -0.849877 -1.32721 0
M  V30 1267 C 116.539 -0.450923 -1.97416 0
M  V30 1268 C 116.867 0.992376 -1.67279 0
M  V30 1269 O 116.122 1.71048 -0.950845 0
M  V30 1270 C 116.421 -0.631272 -3.51781 0
M  V30 1271 C 116.087 -2.04432 -4.01894 0
M  V30 1272 C 114.749 -2.4308 -4.1529 0
M  V30 1273 C 117.101 -2.96679 -4.28522 0
M  V30 1274 C 114.429 -3.73257 -4.52654 0
M  V30 1275 C 116.781 -4.26349 -4.67343 0
M  V30 1276 C 115.445 -4.64939 -4.78945 0
M  V30 1277 H 114.715 -0.165004 -0.722395 0
M  V30 1278 H 117.362 -1.07901 -1.58207 0
M  V30 1279 H 115.667 0.0800767 -3.91718 0
M  V30 1280 H 117.364 -0.302709 -3.99856 0
M  V30 1281 H 113.954 -1.73419 -3.91949 0
M  V30 1282 H 118.138 -2.68054 -4.17685 0
M  V30 1283 H 113.394 -4.02946 -4.59831 0
M  V30 1284 H 117.568 -4.97895 -4.86902 0
M  V30 1285 H 115.195 -5.65855 -5.07654 0
M  V30 1286 N 116.77 1.45427 -0.607355 0
M  V30 1287 C 117.718 2.32269 0.12411 0
M  V30 1288 C 118.712 1.45955 0.859854 0
M  V30 1289 O 119.918 1.6244 0.775447 0
M  V30 1290 H 116.293 0.749691 0.0588839 0
M  V30 1291 H 118.264 2.91743 -0.626762 0
M  V30 1292 C 117.013 3.29567 1.1082 0
M  V30 1293 H 116.336 3.95978 0.551492 0
M  V30 1294 H 117.776 3.93061 1.58995 0
M  V30 1295 C 116.235 2.56722 2.18164 0
M  V30 1296 O 116.765 2.34842 3.25902 0
M  V30 1297 N 114.971 2.16861 1.93442 0
M  V30 1298 H 114.518 2.34855 1.05834 0
M  V30 1299 H 114.476 1.68444 2.65469 0
M  V30 1300 N 118.248 0.346503 1.53744 0
M  V30 1301 C 119.178 -0.501193 2.28058 0
M  V30 1302 C 120.159 -1.10014 1.29734 0
M  V30 1303 O 121.344 -1.12097 1.58581 0
M  V30 1304 C 118.474 -1.65078 3.05559 0
M  V30 1305 C 117.428 -1.18003 4.11411 0
M  V30 1306 C 116.754 -2.41837 4.76884 0
M  V30 1307 C 118.054 -0.278394 5.21558 0
M  V30 1308 H 119.748 0.11875 2.99164 0
M  V30 1309 H 117.294 0.0585531 1.43881 0
M  V30 1310 H 119.247 -2.25028 3.56287 0
M  V30 1311 H 117.971 -2.29767 2.32109 0
M  V30 1312 H 116.63 -0.603331 3.61601 0
M  V30 1313 H 116.278 -3.0494 4.00026 0
M  V30 1314 H 115.978 -2.1102 5.48402 0
M  V30 1315 H 117.502 -3.02508 5.30397 0
M  V30 1316 H 118.916 -0.784823 5.67903 0
M  V30 1317 H 117.313 -0.0619707 6.00068 0
M  V30 1318 H 118.383 0.684677 4.80042 0
M  V30 1319 N 119.726 -1.57421 0.075193 0
M  V30 1320 C 120.972 -1.93905 -0.594025 0
M  V30 1321 C 121.305 -0.955701 -1.69056 0
M  V30 1322 O 120.58 0.0145373 -1.94495 0
M  V30 1323 C 120.863 -3.40638 -1.1678 0
M  V30 1324 C 120.716 -4.49733 -0.0776792 0
M  V30 1325 C 122.035 -3.88259 -2.07228 0
M  V30 1326 H 119.154 -0.705105 -0.214466 0
M  V30 1327 H 121.796 -1.8947 0.141854 0
M  V30 1328 H 119.946 -3.44549 -1.79494 0
M  V30 1329 H 121.618 -4.57942 0.555573 0
M  V30 1330 H 119.861 -4.29751 0.591286 0
M  V30 1331 H 120.532 -5.49549 -0.519603 0
M  V30 1332 H 123.008 -3.86376 -1.54445 0
M  V30 1333 H 121.884 -4.91533 -2.44308 0
M  V30 1334 H 122.145 -3.26396 -2.98191 0
M  V30 1335 N 121.204 0.198386 -1.56346 0
M  V30 1336 C 122.167 1.22952 -1.93431 0
M  V30 1337 C 123.167 1.38611 -0.815092 0
M  V30 1338 O 124.357 1.36479 -1.08255 0
M  V30 1339 C 121.489 2.59946 -2.20546 0
M  V30 1340 H 122.682 0.912626 -2.85677 0
M  V30 1341 H 120.235 0.43977 -1.49986 0
M  V30 1342 H 120.97 2.96696 -1.30927 0
M  V30 1343 H 120.755 2.49953 -3.02102 0
M  V30 1344 H 122.245 3.3431 -2.50253 0
M  V30 1345 N 122.682 1.50554 0.465978 0
M  V30 1346 C 123.928 1.62038 1.21949 0
M  V30 1347 C 124.261 0.322116 1.9151 0
M  V30 1348 O 123.536 -0.676723 1.82348 0
M  V30 1349 C 123.819 2.80421 2.25912 0
M  V30 1350 C 123.672 4.20144 1.60622 0
M  V30 1351 C 124.991 2.94354 3.27176 0
M  V30 1352 H 122.11 0.589752 0.441998 0
M  V30 1353 H 124.752 1.82956 0.51257 0
M  V30 1354 H 122.902 2.62717 2.86203 0
M  V30 1355 H 124.574 4.49449 1.03889 0
M  V30 1356 H 122.817 4.24165 0.909211 0
M  V30 1357 H 123.488 4.98914 2.36196 0
M  V30 1358 H 125.964 3.10578 2.76913 0
M  V30 1359 H 124.84 3.788 3.97242 0
M  V30 1360 H 125.101 2.05186 3.916 0
M  V30 1361 N 124.16 -0.719506 1.40217 0
M  V30 1362 C 125.09 -1.8465 1.42922 0
M  V30 1363 C 126.071 -1.67599 0.29062 0
M  V30 1364 O 127.256 -1.87688 0.498677 0
M  V30 1365 C 124.386 -3.22565 1.28722 0
M  V30 1366 C 123.34 -3.54281 2.40144 0
M  V30 1367 C 122.666 -4.91298 2.11023 0
M  V30 1368 C 123.966 -3.55676 3.82481 0
M  V30 1369 H 125.66 -1.82644 2.37237 0
M  V30 1370 H 123.206 -0.877305 1.1419 0
M  V30 1371 H 125.159 -4.01095 1.29232 0
M  V30 1372 H 123.883 -3.25137 0.308811 0
M  V30 1373 H 122.542 -2.78088 2.38877 0
M  V30 1374 H 122.19 -4.90468 1.11582 0
M  V30 1375 H 121.89 -5.13485 2.8567 0
M  V30 1376 H 123.414 -5.72166 2.13209 0
M  V30 1377 H 124.828 -4.24254 3.85592 0
M  V30 1378 H 123.225 -3.89388 4.56614 0
M  V30 1379 H 124.295 -2.55144 4.12346 0
M  V30 1380 N 125.638 -1.25649 -0.95132 0
M  V30 1381 C 126.868 -1.13179 -1.72841 0
M  V30 1382 C 127.276 0.316827 -1.86528 0
M  V30 1383 O 126.619 1.22948 -1.3649 0
M  V30 1384 C 126.681 -1.71644 -3.15878 0
M  V30 1385 C 126.345 -3.20667 -3.25609 0
M  V30 1386 C 127.342 -4.17616 -3.09666 0
M  V30 1387 C 125.027 -3.6094 -3.49324 0
M  V30 1388 C 127.021 -5.52817 -3.17289 0
M  V30 1389 C 124.708 -4.96278 -3.56584 0
M  V30 1390 C 125.706 -5.92025 -3.40581 0
M  V30 1391 O 125.394 -7.24899 -3.47528 0
M  V30 1392 H 125.126 -0.395389 -0.54831 0
M  V30 1393 H 127.68 -1.66566 -1.20187 0
M  V30 1394 H 125.91 -1.12707 -3.69911 0
M  V30 1395 H 127.599 -1.54225 -3.75459 0
M  V30 1396 H 128.365 -3.87842 -2.91211 0
M  V30 1397 H 124.244 -2.86907 -3.6084 0
M  V30 1398 H 127.788 -6.2753 -3.04716 0
M  V30 1399 H 123.685 -5.25716 -3.74556 0
M  V30 1400 H 124.453 -7.33039 -3.64138 0
M  V30 1401 N 127.117 1.15442 -1.07289 0
M  V30 1402 C 128.357 1.8788 -0.805012 0
M  V30 1403 C 128.721 1.80413 0.656907 0
M  V30 1404 O 129.922 2.47874 1.0398 0
M  V30 1405 C 128.193 3.3298 -1.29843 0
M  V30 1406 S 129.752 4.23158 -1.16114 0
M  V30 1407 H 126.57 0.64839 -0.291739 0
M  V30 1408 H 129.172 1.39285 -1.37186 0
M  V30 1409 H 127.876 3.35958 -2.35712 0
M  V30 1410 H 127.407 3.86629 -0.726767 0
M  V30 1411 H 129.422 4.96103 -0.0982778 0
M  V30 1412 N 128.595 0.856903 1.32268 0
M  V30 1413 C 129.841 0.462069 1.97466 0
M  V30 1414 C 130.174 -0.980298 1.67642 0
M  V30 1415 O 129.449 -1.68824 0.965858 0
M  V30 1416 C 129.732 0.704336 3.53145 0
M  V30 1417 C 129.585 2.19529 3.9259 0
M  V30 1418 C 130.904 0.1622 4.39801 0
M  V30 1419 H 128.023 0.169357 0.717278 0
M  V30 1420 H 130.665 1.07574 1.56614 0
M  V30 1421 H 128.815 0.181999 3.88073 0
M  V30 1422 H 130.487 2.78387 3.67829 0
M  V30 1423 H 128.73 2.67292 3.41668 0
M  V30 1424 H 129.401 2.31549 5.01088 0
M  V30 1425 H 131.877 0.608905 4.11621 0
M  V30 1426 H 130.753 0.361265 5.4771 0
M  V30 1427 H 131.014 -0.935158 4.32096 0
M  V30 1428 N 130.073 -1.45103 0.615059 0
M  V30 1429 C 131.023 -2.27679 -0.120966 0
M  V30 1430 C 132.007 -1.3775 -0.831491 0
M  V30 1431 O 133.199 -1.61683 -0.720249 0
M  V30 1432 C 130.328 -3.24767 -1.1127 0
M  V30 1433 C 129.414 -4.22184 -0.402627 0
M  V30 1434 N 129.805 -5.02692 0.559884 0
M  V30 1435 C 128.103 -4.4125 -0.649202 0
M  V30 1436 C 128.804 -5.73421 0.977942 0
M  V30 1437 N 127.78 -5.42657 0.320104 0
M  V30 1438 H 131.582 -2.87325 0.618181 0
M  V30 1439 H 129.096 -1.56345 0.439304 0
M  V30 1440 H 131.093 -3.82666 -1.65446 0
M  V30 1441 H 129.753 -2.66682 -1.85232 0
M  V30 1442 H 130.764 -5.09354 0.936976 0
M  V30 1443 H 127.441 -3.9428 -1.37293 0
M  V30 1444 H 128.831 -6.48107 1.77222 0
M  V30 1445 N 131.551 -0.354651 -1.53558 0
M  V30 1446 C 132.967 -0.00315426 -1.596 0
M  V30 1447 C 133.167 1.47741 -1.37021 0
M  V30 1448 O 132.223 2.23759 -1.16996 0
M  V30 1449 C 133.536 -0.44929 -2.97325 0
M  V30 1450 C 135.084 -0.402578 -3.104 0
M  V30 1451 C 135.559 -0.824355 -4.5052 0
M  V30 1452 N 137.05 -0.778979 -4.56603 0
M  V30 1453 C 137.785 -1.07715 -5.63192 0
M  V30 1454 N 137.281 -1.44405 -6.77583 0
M  V30 1455 N 139.074 -1.00066 -5.53121 0
M  V30 1456 H 131.225 -1.31893 -1.66487 0
M  V30 1457 H 133.488 -0.538388 -0.780284 0
M  V30 1458 H 133.194 -1.48202 -3.1895 0
M  V30 1459 H 133.068 0.169772 -3.76818 0
M  V30 1460 H 135.455 0.621004 -2.88492 0
M  V30 1461 H 135.536 -1.05699 -2.32941 0
M  V30 1462 H 135.18 -1.846 -4.73165 0
M  V30 1463 H 135.11 -0.147304 -5.26394 0
M  V30 1464 H 137.601 -0.508528 -3.74463 0
M  V30 1465 H 137.914 -1.65612 -7.54846 0
M  V30 1466 H 136.259 -1.4826 -6.79002 0
M  V30 1467 H 139.45 -0.713293 -4.62633 0
M  V30 1468 H 139.623 -1.23638 -6.36096 0
M  V30 1469 N 133.029 1.57378 -0.0835403 0
M  V30 1470 C 133.976 2.13384 0.879539 0
M  V30 1471 C 134.946 1.04936 1.28754 0
M  V30 1472 O 136.131 1.32662 1.37133 0
M  V30 1473 C 133.271 2.70932 2.13752 0
M  V30 1474 C 132.384 3.93575 1.7811 0
M  V30 1475 C 131.519 4.39326 2.98607 0
M  V30 1476 C 130.558 5.54587 2.59037 0
M  V30 1477 N 129.695 5.95243 3.72331 0
M  V30 1478 H 134.535 2.9537 0.395076 0
M  V30 1479 H 132.072 1.45953 0.183349 0
M  V30 1480 H 134.03 3.02411 2.87408 0
M  V30 1481 H 132.66 1.91693 2.59718 0
M  V30 1482 H 131.712 3.68483 0.94469 0
M  V30 1483 H 133.024 4.77258 1.45005 0
M  V30 1484 H 132.178 4.72528 3.80529 0
M  V30 1485 H 130.917 3.5452 3.34913 0
M  V30 1486 H 129.922 5.21024 1.75539 0
M  V30 1487 H 131.147 6.41133 2.23887 0
M  V30 1488 H 129.093 5.13385 4.08378 0
M  V30 1489 H 129.01 6.73694 3.43034 0
M  V30 1490 H 130.278 6.33072 4.54797 0
M  V30 1491 N 134.507 -0.190092 1.56449 0
M  V30 1492 C 135.756 -0.907912 1.80111 0
M  V30 1493 C 136.069 -1.84214 0.657619 0
M  V30 1494 O 137.275 -2.60094 0.778663 0
M  V30 1495 C 135.731 -1.66485 3.19078 0
M  V30 1496 C 135.339 -0.7752 4.41242 0
M  V30 1497 C 137.083 -2.37201 3.52045 0
M  V30 1498 C 134.99 -1.53129 5.71231 0
M  V30 1499 H 133.92 -0.34276 0.671589 0
M  V30 1500 H 136.571 -0.161109 1.82791 0
M  V30 1501 H 134.953 -2.45572 3.10661 0
M  V30 1502 H 136.127 -0.0226298 4.60794 0
M  V30 1503 H 134.442 -0.178627 4.16017 0
M  V30 1504 H 137.039 -2.94329 4.46402 0
M  V30 1505 H 137.382 -3.11632 2.76028 0
M  V30 1506 H 137.915 -1.65075 3.61932 0
M  V30 1507 H 134.654 -0.82967 6.50228 0
M  V30 1508 H 134.174 -2.25767 5.55688 0
M  V30 1509 H 135.853 -2.08377 6.12526 0
M  V30 1510 N 135.985 -1.50799 -0.457987 0
M  V30 1511 C 137.262 -1.52968 -1.21902 0
M  V30 1512 C 137.642 -0.281906 -2.09209 0
M  V30 1513 O 136.99 0.734076 -2.16388 0
M  V30 1514 C 137.2 -2.8326 -2.03875 0
M  V30 1515 C 138.548 -3.34425 -2.6162 0
M  V30 1516 O 139.572 -2.8467 -2.14106 0
M  V30 1517 O 138.431 -4.21188 -3.48228 0
M  V30 1518 H 135.525 -0.614129 -0.553873 0
M  V30 1519 H 138.071 -1.63098 -0.468739 0
M  V30 1520 H 136.843 -3.65543 -1.39621 0
M  V30 1521 H 136.466 -2.76195 -2.8601 0
M  V30 1522 N 137.463 0.71206 -1.40597 0
M  V30 1523 C 138.709 1.47416 -1.39271 0
M  V30 1524 C 139.042 1.942 0.00388791 0
M  V30 1525 O 138.317 1.68403 0.973179 0
M  V30 1526 C 138.6 2.69774 -2.38525 0
M  V30 1527 C 138.453 2.28861 -3.87224 0
M  V30 1528 C 139.772 3.71939 -2.35264 0
M  V30 1529 H 136.891 0.534713 -0.5072 0
M  V30 1530 H 139.533 0.812375 -1.71757 0
M  V30 1531 H 137.683 3.26238 -2.10953 0
M  V30 1532 H 139.355 1.77852 -4.25636 0
M  V30 1533 H 137.598 1.60824 -4.02887 0
M  V30 1534 H 138.269 3.16584 -4.52193 0
M  V30 1535 H 140.745 3.25113 -2.59694 0
M  V30 1536 H 139.621 4.55186 -3.06753 0
M  V30 1537 H 139.882 4.20484 -1.36549 0
M  V30 1538 N 138.941 1.26152 0.944643 0
M  V30 1539 C 139.888 1.07408 2.04285 0
M  V30 1540 C 140.858 -0.0198413 1.66088 0
M  V30 1541 O 142.043 0.139264 1.90291 0
M  V30 1542 C 139.183 0.70945 3.37729 0
M  V30 1543 C 138.296 1.87926 3.88983 0
M  V30 1544 C 137.431 1.45807 5.10797 0
M  V30 1545 C 136.47 2.5964 5.54305 0
M  V30 1546 N 135.607 2.18226 6.67324 0
M  V30 1547 H 140.447 2.01389 2.1965 0
M  V30 1548 H 137.984 1.00275 1.07626 0
M  V30 1549 H 139.942 0.478948 4.14442 0
M  V30 1550 H 138.572 -0.193389 3.2222 0
M  V30 1551 H 137.624 2.22279 3.08701 0
M  V30 1552 H 138.936 2.73377 4.17213 0
M  V30 1553 H 138.09 1.18781 5.94959 0
M  V30 1554 H 136.829 0.574414 4.84305 0
M  V30 1555 H 135.834 2.87399 4.68702 0
M  V30 1556 H 137.059 3.48599 5.828 0
M  V30 1557 H 135.005 1.3229 6.42523 0
M  V30 1558 H 134.922 2.97221 6.95123 0
M  V30 1559 H 136.19 1.94403 7.54869 0
M  V30 1560 N 140.419 -1.14872 1.07899 0
M  V30 1561 C 141.696 -1.81928 0.71845 0
M  V30 1562 C 142.076 -1.95417 -0.798455 0
M  V30 1563 O 141.424 -1.50997 -1.715 0
M  V30 1564 C 141.634 -3.17937 1.43935 0
M  V30 1565 C 142.982 -3.93501 1.59506 0
M  V30 1566 O 144.006 -3.27509 1.40058 0
M  V30 1567 O 142.865 -5.1183 1.91551 0
M  V30 1568 H 139.959 -0.78628 0.256305 0
M  V30 1569 H 142.505 -1.21934 1.18026 0
M  V30 1570 H 141.277 -3.0325 2.47295 0
M  V30 1571 H 140.9 -3.85619 0.968687 0
M  V30 1572 N 141.898 -0.863906 -1.31812 0
M  V30 1573 C 143.126 -0.486111 -2.01108 0
M  V30 1574 C 143.541 0.919755 -1.64882 0
M  V30 1575 O 142.898 1.60162 -0.874893 0
M  V30 1576 C 142.949 -0.626435 -3.56031 0
M  V30 1577 O 142.67 -1.97693 -3.90959 0
M  V30 1578 C 144.171 -0.248857 -4.42601 0
M  V30 1579 H 141.391 -0.190052 -0.643523 0
M  V30 1580 H 143.935 -1.1634 -1.68182 0
M  V30 1581 H 142.09 0.00322717 -3.874 0
M  V30 1582 H 142.504 -1.98034 -4.85678 0
M  V30 1583 H 143.978 -0.398016 -5.50563 0
M  V30 1584 H 144.455 0.811489 -4.31638 0
M  V30 1585 H 145.061 -0.853971 -4.16638 0
M  V30 1586 N 143.376 1.44774 -0.622745 0
M  V30 1587 C 144.323 2.30635 0.0871679 0
M  V30 1588 C 145.293 1.42994 0.845097 0
M  V30 1589 O 146.478 1.71907 0.827812 0
M  V30 1590 C 143.618 3.28144 1.06844 0
M  V30 1591 C 142.731 4.30888 0.309809 0
M  V30 1592 C 141.866 5.15494 1.28215 0
M  V30 1593 C 140.905 6.09953 0.512198 0
M  V30 1594 N 140.042 6.87287 1.43458 0
M  V30 1595 H 144.882 2.90803 -0.650974 0
M  V30 1596 H 142.419 1.43286 -0.33281 0
M  V30 1597 H 144.377 3.83157 1.65066 0
M  V30 1598 H 143.007 2.69695 1.77382 0
M  V30 1599 H 142.059 3.78414 -0.388181 0
M  V30 1600 H 143.371 4.97955 -0.290254 0
M  V30 1601 H 142.525 5.74983 1.93596 0
M  V30 1602 H 141.264 4.48481 1.91614 0
M  V30 1603 H 140.269 5.49581 -0.155151 0
M  V30 1604 H 141.494 6.78999 -0.116958 0
M  V30 1605 H 139.44 6.2295 2.05594 0
M  V30 1606 H 139.357 7.50763 0.888335 0
M  V30 1607 H 140.625 7.51306 2.07749 0
M  V30 1608 N 144.854 0.36279 1.53368 0
M  V30 1609 C 145.764 -0.492994 2.29362 0
M  V30 1610 C 146.78 -1.09507 1.35219 0
M  V30 1611 O 147.956 -1.10662 1.68273 0
M  V30 1612 C 145.021 -1.61855 3.066 0
M  V30 1613 C 144.082 -1.04429 4.16405 0
M  V30 1614 C 143.315 -2.11621 4.89951 0
M  V30 1615 O 143.538 -3.32684 4.63333 0
M  V30 1616 O 142.472 -1.74835 5.75948 0
M  V30 1617 H 146.298 0.125331 3.03441 0
M  V30 1618 H 143.883 0.127253 1.48857 0
M  V30 1619 H 145.765 -2.27302 3.54841 0
M  V30 1620 H 144.44 -2.22233 2.3536 0
M  V30 1621 H 143.347 -0.353819 3.72423 0
M  V30 1622 H 144.68 -0.485113 4.89804 0
M  V30 1623 N 146.332 -1.57332 0.0918853 0
M  V30 1624 C 147.295 -2.12708 -0.85369 0
M  V30 1625 C 148.295 -1.05561 -1.213 0
M  V30 1626 O 149.485 -1.31461 -1.14296 0
M  V30 1627 C 146.617 -2.64503 -2.15061 0
M  V30 1628 H 147.81 -2.97573 -0.3729 0
M  V30 1629 H 145.363 -1.55509 -0.157072 0
M  V30 1630 H 146.098 -1.83149 -2.67632 0
M  V30 1631 H 145.883 -3.4284 -1.90272 0
M  V30 1632 H 147.373 -3.07351 -2.82711 0
M  V30 1633 N 147.81 0.181792 -1.56548 0
M  V30 1634 C 148.74 1.22765 -1.98623 0
M  V30 1635 C 149.721 1.46747 -0.860189 0
M  V30 1636 O 150.906 1.58259 -1.12551 0
M  V30 1637 C 148.036 2.56894 -2.33715 0
M  V30 1638 C 146.99 2.475 -3.49182 0
M  V30 1639 C 146.316 3.86023 -3.69986 0
M  V30 1640 C 147.616 1.98866 -4.82959 0
M  V30 1641 H 149.31 0.877942 -2.86239 0
M  V30 1642 H 146.856 0.42088 -1.37712 0
M  V30 1643 H 148.809 3.30253 -2.61746 0
M  V30 1644 H 147.533 2.93632 -1.42997 0
M  V30 1645 H 146.192 1.76596 -3.21262 0
M  V30 1646 H 145.84 4.20136 -2.76576 0
M  V30 1647 H 145.54 3.80609 -4.47672 0
M  V30 1648 H 147.064 4.60984 -4.00407 0
M  V30 1649 H 148.478 2.61992 -5.09934 0
M  V30 1650 H 146.875 2.04424 -5.64208 0
M  V30 1651 H 147.945 0.942465 -4.75653 0
M  V30 1652 N 149.288 1.51039 0.449983 0
M  V30 1653 C 150.565 1.53612 1.21089 0
M  V30 1654 C 150.945 0.292997 2.09057 0
M  V30 1655 O 150.293 -0.72259 2.16774 0
M  V30 1656 C 150.503 2.84337 2.0237 0
M  V30 1657 C 151.851 3.35807 2.59843 0
M  V30 1658 O 152.875 2.85802 2.12593 0
M  V30 1659 O 151.734 4.23029 3.45989 0
M  V30 1660 H 148.828 0.617057 0.550608 0
M  V30 1661 H 151.374 1.63344 0.460082 0
M  V30 1662 H 150.146 3.66278 1.37681 0
M  V30 1663 H 149.769 2.77708 2.84542 0
M  V30 1664 N 150.766 -0.704594 1.40972 0
M  V30 1665 C 151.713 -1.81862 1.42109 0
M  V30 1666 C 152.683 -1.63781 0.276593 0
M  V30 1667 O 153.868 -1.84759 0.4763 0
M  V30 1668 C 151.008 -3.19669 1.30022 0
M  V30 1669 C 150.121 -3.49246 2.54267 0
M  V30 1670 C 149.256 -4.76618 2.3454 0
M  V30 1671 C 148.295 -4.99133 3.54306 0
M  V30 1672 N 147.432 -6.17726 3.33706 0
M  V30 1673 H 152.272 -1.80226 2.37324 0
M  V30 1674 H 149.809 -0.880238 1.17857 0
M  V30 1675 H 151.767 -3.99263 1.21018 0
M  V30 1676 H 150.397 -3.20506 0.384192 0
M  V30 1677 H 149.449 -2.64125 2.73756 0
M  V30 1678 H 150.761 -3.61788 3.43381 0
M  V30 1679 H 149.915 -5.64249 2.22952 0
M  V30 1680 H 148.654 -4.66305 1.42867 0
M  V30 1681 H 147.659 -4.09953 3.66359 0
M  V30 1682 H 148.884 -5.11311 4.4692 0
M  V30 1683 H 146.83 -6.08642 2.44725 0
M  V30 1684 H 146.747 -6.30995 4.16391 0
M  V30 1685 H 148.015 -7.08115 3.25873 0
M  V30 1686 N 152.244 -1.26651 -0.937939 0
M  V30 1687 C 153.493 -1.11775 -1.67897 0
M  V30 1688 C 153.806 0.33794 -1.92659 0
M  V30 1689 O 155.012 0.607434 -2.64618 0
M  V30 1690 C 153.468 -1.9523 -3.02346 0
M  V30 1691 C 153.076 -3.45393 -2.8532 0
M  V30 1692 C 154.82 -1.88972 -3.80118 0
M  V30 1693 C 152.727 -4.21083 -4.15263 0
M  V30 1694 H 151.657 -0.414696 -0.629717 0
M  V30 1695 H 154.308 -1.50988 -1.04283 0
M  V30 1696 H 152.69 -1.48853 -3.66959 0
M  V30 1697 H 153.864 -3.99561 -2.29537 0
M  V30 1698 H 152.179 -3.52921 -2.20988 0
M  V30 1699 H 154.776 -2.42805 -4.76392 0
M  V30 1700 H 155.119 -0.86113 -4.07296 0
M  V30 1701 H 155.652 -2.33189 -3.22285 0
M  V30 1702 H 152.391 -5.24425 -3.93267 0
M  V30 1703 H 151.911 -3.71695 -4.70747 0
M  V30 1704 H 153.59 -4.29706 -4.83696 0
M  V30 1705 N 153.722 1.14298 -1.08507 0
M  V30 1706 C 154.632 2.23027 -0.727753 0
M  V30 1707 C 155.648 1.71952 0.26619 0
M  V30 1708 O 156.824 2.011 0.109882 0
M  V30 1709 C 153.889 3.46403 -0.143541 0
M  V30 1710 C 152.95 4.12413 -1.19223 0
M  V30 1711 C 152.183 5.29899 -0.635798 0
M  V30 1712 O 152.406 5.67796 0.544393 0
M  V30 1713 O 151.34 5.85717 -1.38634 0
M  V30 1714 H 155.166 2.55945 -1.63481 0
M  V30 1715 H 152.751 1.22248 -0.858817 0
M  V30 1716 H 154.633 4.21018 0.179404 0
M  V30 1717 H 153.308 3.15206 0.736659 0
M  V30 1718 H 152.215 3.39667 -1.56772 0
M  V30 1719 H 153.548 4.47718 -2.04474 0
M  V30 1720 N 155.201 0.870884 1.31352 0
M  V30 1721 C 156.111 0.330783 2.32256 0
M  V30 1722 C 157.127 -0.559767 1.6475 0
M  V30 1723 O 158.303 -0.456263 1.96164 0
M  V30 1724 C 155.368 -0.458137 3.4366 0
M  V30 1725 C 154.429 0.460482 4.26823 0
M  V30 1726 C 153.662 -0.290881 5.32907 0
M  V30 1727 O 153.885 -1.51885 5.49806 0
M  V30 1728 O 152.819 0.351732 6.00871 0
M  V30 1729 H 156.645 1.16718 2.80376 0
M  V30 1730 H 154.23 0.634285 1.35267 0
M  V30 1731 H 156.112 -0.905343 4.1156 0
M  V30 1732 H 154.787 -1.27106 2.97701 0
M  V30 1733 H 153.694 0.956207 3.61673 0
M  V30 1734 H 155.027 1.23903 4.7635 0
M  V30 1735 N 156.679 -1.44442 0.630414 0
M  V30 1736 C 157.928 -2.01267 0.132073 0
M  V30 1737 C 158.241 -1.50172 -1.25331 0
M  V30 1738 O 159.447 -1.9912 -1.84562 0
M  V30 1739 C 157.903 -3.59422 0.185362 0
M  V30 1740 C 157.511 -4.19514 1.57201 0
M  V30 1741 C 159.255 -4.23724 -0.256553 0
M  V30 1742 C 157.162 -5.69891 1.58045 0
M  V30 1743 H 156.092 -0.752619 0.0456092 0
M  V30 1744 H 158.743 -1.65666 0.789106 0
M  V30 1745 H 157.125 -3.92318 -0.538759 0
M  V30 1746 H 158.299 -3.98156 2.31966 0
M  V30 1747 H 156.614 -3.67496 1.95795 0
M  V30 1748 H 159.211 -5.34019 -0.269767 0
M  V30 1749 H 159.554 -3.96013 -1.28372 0
M  V30 1750 H 160.087 -3.95629 0.41505 0
M  V30 1751 H 156.826 -6.02336 2.58597 0
M  V30 1752 H 156.346 -5.93373 0.875725 0
M  V30 1753 H 158.025 -6.33515 1.31408 0
M  V30 1754 N 158.157 -0.370918 -1.53173 0
M  V30 1755 C 159.089 0.507823 -2.23503 0
M  V30 1756 C 160.102 1.04182 -1.251 0
M  V30 1757 O 161.291 0.947286 -1.5129 0
M  V30 1758 C 158.391 1.71447 -2.92334 0
M  V30 1759 C 157.564 1.31105 -4.17289 0
M  V30 1760 C 156.623 2.38035 -4.69282 0
M  V30 1761 O 155.649 2.00204 -5.32829 0
M  V30 1762 N 156.851 3.69697 -4.47554 0
M  V30 1763 H 159.616 -0.0946382 -2.99551 0
M  V30 1764 H 157.177 -0.196358 -1.60705 0
M  V30 1765 H 159.169 2.42469 -3.24023 0
M  V30 1766 H 157.739 2.22368 -2.19707 0
M  V30 1767 H 156.959 0.430462 -3.91843 0
M  V30 1768 H 158.247 1.0179 -4.98514 0
M  V30 1769 H 157.645 4.03205 -3.9679 0
M  V30 1770 H 156.202 4.36807 -4.8378 0
M  V30 1771 N 159.635 1.57281 -0.100228 0
M  V30 1772 C 160.583 2.15542 0.874328 0
M  V30 1773 C 161.577 1.09962 1.28859 0
M  V30 1774 O 162.783 1.28298 1.26252 0
M  V30 1775 H 159.158 0.689567 0.300003 0
M  V30 1776 H 161.129 2.96241 0.35829 0
M  V30 1777 C 159.878 2.75454 2.1218 0
M  V30 1778 H 159.201 3.56384 1.81193 0
M  V30 1779 H 160.641 3.19781 2.78417 0
M  V30 1780 C 159.1 1.71602 2.89921 0
M  V30 1781 O 159.63 1.15804 3.84646 0
M  V30 1782 N 157.836 1.41975 2.53558 0
M  V30 1783 H 157.383 1.87539 1.76598 0
M  V30 1784 H 157.341 0.727274 3.05873 0
M  V30 1785 N 161.113 -0.173488 1.56642 0
M  V30 1786 C 162.06 -1.21482 1.96242 0
M  V30 1787 C 163.03 -1.44104 0.826027 0
M  V30 1788 O 164.215 -1.5688 1.08597 0
M  V30 1789 C 161.355 -2.54964 2.32567 0
M  V30 1790 C 160.468 -2.39739 3.59373 0
M  V30 1791 C 159.603 -3.66072 3.84921 0
M  V30 1792 C 158.642 -3.45771 5.05083 0
M  V30 1793 N 157.779 -4.64169 5.26775 0
M  V30 1794 H 162.619 -0.870123 2.85014 0
M  V30 1795 H 160.156 -0.418245 1.41029 0
M  V30 1796 H 162.114 -3.32758 2.5165 0
M  V30 1797 H 160.744 -2.87433 1.46908 0
M  V30 1798 H 159.796 -1.53131 3.48217 0
M  V30 1799 H 161.108 -2.20683 4.47326 0
M  V30 1800 H 160.262 -4.52303 4.0436 0
M  V30 1801 H 159.001 -3.88105 2.9534 0
M  V30 1802 H 158.006 -2.57927 4.85545 0
M  V30 1803 H 159.231 -3.25163 5.96193 0
M  V30 1804 H 157.177 -4.86425 4.40144 0
M  V30 1805 H 157.094 -4.48019 6.08946 0
M  V30 1806 H 158.362 -5.51689 5.5069 0
M  V30 1807 N 162.591 -1.51276 -0.441967 0
M  V30 1808 C 163.816 -1.67799 -1.21895 0
M  V30 1809 C 164.241 -0.372864 -1.84367 0
M  V30 1810 O 163.599 0.666501 -1.68604 0
M  V30 1811 C 163.647 -2.79199 -2.28211 0
M  V30 1812 O 162.751 -2.42479 -3.33583 0
M  V30 1813 H 162.092 -0.559649 -0.357336 0
M  V30 1814 H 164.622 -1.97815 -0.522522 0
M  V30 1815 H 164.632 -3.03146 -2.73069 0
M  V30 1816 H 163.307 -3.73906 -1.82118 0
M  V30 1817 H 161.884 -2.29087 -2.94234 0
M  V30 1818 N 164.069 0.697108 -1.41344 0
M  V30 1819 C 165.001 1.8224 -1.39001 0
M  V30 1820 C 166.014 1.60152 -0.292428 0
M  V30 1821 O 167.203 1.69684 -0.554048 0
M  V30 1822 C 164.303 3.18976 -1.14489 0
M  V30 1823 C 163.476 3.68105 -2.36258 0
M  V30 1824 C 162.535 4.83506 -2.07625 0
M  V30 1825 O 161.561 4.95201 -2.8065 0
M  V30 1826 N 162.763 5.70637 -1.06555 0
M  V30 1827 H 165.528 1.84742 -2.35988 0
M  V30 1828 H 163.089 0.87937 -1.35936 0
M  V30 1829 H 165.081 3.93801 -0.932885 0
M  V30 1830 H 163.651 3.11508 -0.261043 0
M  V30 1831 H 162.871 2.84204 -2.7317 0
M  V30 1832 H 164.159 3.97667 -3.17393 0
M  V30 1833 H 163.557 5.63817 -0.461125 0
M  V30 1834 H 162.114 6.45368 -0.913444 0
M  V30 1835 N 165.547 1.27147 0.931209 0
M  V30 1836 C 166.479 1.05364 2.03546 0
M  V30 1837 C 167.492 0.0108438 1.62796 0
M  V30 1838 O 168.681 0.25202 1.76712 0
M  V30 1839 C 165.781 0.575566 3.33977 0
M  V30 1840 C 164.954 1.68985 4.03439 0
M  V30 1841 C 164.013 1.20813 5.12143 0
M  V30 1842 O 163.039 1.90712 5.363 0
M  V30 1843 N 164.241 0.0618851 5.80467 0
M  V30 1844 H 167.006 2.00454 2.22796 0
M  V30 1845 H 164.567 1.18666 1.10136 0
M  V30 1846 H 166.559 0.237264 4.04004 0
M  V30 1847 H 165.129 -0.282016 3.11325 0
M  V30 1848 H 164.349 2.19861 3.27192 0
M  V30 1849 H 165.637 2.4378 4.46597 0
M  V30 1850 H 165.035 -0.521621 5.6329 0
M  V30 1851 H 163.592 -0.217264 6.51438 0
M  V30 1852 N 167.025 -1.13721 1.09112 0
M  V30 1853 C 167.972 -2.19031 0.727591 0
M  V30 1854 C 168.942 -1.63555 -0.289656 0
M  V30 1855 O 170.127 -1.90023 -0.172026 0
M  V30 1856 C 167.267 -3.4477 0.15082 0
M  V30 1857 C 166.38 -4.14365 1.22172 0
M  V30 1858 C 165.515 -5.27709 0.608042 0
M  V30 1859 C 164.554 -5.89147 1.66047 0
M  V30 1860 N 163.691 -6.93929 1.06806 0
M  V30 1861 H 168.531 -2.49475 1.62991 0
M  V30 1862 H 166.068 -1.22499 0.81439 0
M  V30 1863 H 168.026 -4.16714 -0.201358 0
M  V30 1864 H 166.656 -3.14787 -0.714783 0
M  V30 1865 H 165.708 -3.40737 1.69122 0
M  V30 1866 H 167.02 -4.56114 2.01895 0
M  V30 1867 H 166.174 -6.06355 0.204523 0
M  V30 1868 H 164.913 -4.872 -0.220769 0
M  V30 1869 H 163.918 -5.09198 2.07357 0
M  V30 1870 H 165.143 -6.31729 2.49189 0
M  V30 1871 H 163.089 -6.55483 0.260476 0
M  V30 1872 H 163.006 -7.34202 1.8023 0
M  V30 1873 H 164.274 -7.76434 0.690644 0
M  V30 1874 N 168.503 -0.877838 -1.30888 0
M  V30 1875 C 169.731 -0.507414 -2.00581 0
M  V30 1876 C 170.146 0.902216 -1.65848 0
M  V30 1877 O 169.503 1.59225 -0.891831 0
M  V30 1878 C 169.554 -0.664162 -3.55347 0
M  V30 1879 O 169.275 -2.01829 -3.8884 0
M  V30 1880 C 170.776 -0.295787 -4.42312 0
M  V30 1881 H 167.996 -0.196866 -0.641471 0
M  V30 1882 H 170.54 -1.18117 -1.66939 0
M  V30 1883 H 168.695 -0.0378619 -3.87381 0
M  V30 1884 H 169.109 -2.03174 -4.8355 0
M  V30 1885 H 170.583 -0.456388 -5.5011 0
M  V30 1886 H 171.06 0.765663 -4.32475 0
M  V30 1887 H 171.666 -0.898113 -4.15709 0
M  V30 1888 N 169.982 1.44106 -0.638065 0
M  V30 1889 C 170.914 2.28976 0.101205 0
M  V30 1890 C 171.927 1.4167 0.802088 0
M  V30 1891 O 173.116 1.65755 0.662375 0
M  V30 1892 C 170.216 3.18217 1.16581 0
M  V30 1893 C 169.389 4.33978 0.546066 0
M  V30 1894 C 168.448 5.04202 1.50554 0
M  V30 1895 O 167.474 5.59986 1.01999 0
M  V30 1896 N 168.676 5.06296 2.8398 0
M  V30 1897 H 171.441 2.93064 -0.627186 0
M  V30 1898 H 169.002 1.54629 -0.479731 0
M  V30 1899 H 170.994 3.62061 1.80815 0
M  V30 1900 H 169.564 2.55833 1.79634 0
M  V30 1901 H 168.784 3.93239 -0.275046 0
M  V30 1902 H 170.072 5.08675 0.112793 0
M  V30 1903 H 169.47 4.62319 3.26002 0
M  V30 1904 H 168.027 5.53907 3.43556 0
M  V30 1905 N 171.46 0.379036 1.52974 0
M  V30 1906 C 172.392 -0.495963 2.2377 0
M  V30 1907 C 173.405 -1.03517 1.25651 0
M  V30 1908 O 174.594 -0.939249 1.51791 0
M  V30 1909 C 171.694 -1.69894 2.93239 0
M  V30 1910 C 170.867 -1.2889 4.17979 0
M  V30 1911 C 169.926 -2.35543 4.70538 0
M  V30 1912 O 168.952 -1.97375 5.33883 0
M  V30 1913 N 170.154 -3.67318 4.49508 0
M  V30 1914 H 172.919 0.110523 2.99496 0
M  V30 1915 H 170.48 0.204878 1.60598 0
M  V30 1916 H 172.472 -2.40747 3.25304 0
M  V30 1917 H 171.042 -2.212 2.20883 0
M  V30 1918 H 170.262 -0.409676 3.92065 0
M  V30 1919 H 171.55 -0.991443 4.99047 0
M  V30 1920 H 170.948 -4.01095 3.98923 0
M  V30 1921 H 169.505 -4.34235 4.8609 0
M  V30 1922 N 172.938 -1.57226 0.108567 0
M  V30 1923 C 173.901 -2.13602 -0.831082 0
M  V30 1924 C 174.901 -1.06841 -1.20173 0
M  V30 1925 O 176.091 -1.32666 -1.12895 0
M  V30 1926 C 173.223 -2.66769 -2.12243 0
M  V30 1927 H 174.416 -2.97951 -0.341317 0
M  V30 1928 H 171.969 -1.55667 -0.14057 0
M  V30 1929 H 172.704 -1.85977 -2.65675 0
M  V30 1930 H 172.489 -3.44839 -1.86625 0
M  V30 1931 H 173.979 -3.10332 -2.79435 0
M  V30 1932 N 174.416 0.165178 -1.56732 0
M  V30 1933 C 175.379 1.18822 -1.95995 0
M  V30 1934 C 176.379 1.3685 -0.84431 0
M  V30 1935 O 177.569 1.34152 -1.11126 0
M  V30 1936 C 174.701 2.5521 -2.26011 0
M  V30 1937 H 175.894 0.851825 -2.87548 0
M  V30 1938 H 173.447 0.407857 -1.50885 0
M  V30 1939 H 174.182 2.93852 -1.37191 0
M  V30 1940 H 173.967 2.43489 -3.07336 0
M  V30 1941 H 175.457 3.28927 -2.57288 0
M  V30 1942 N 175.894 1.51508 0.433938 0
M  V30 1943 C 176.857 1.72473 1.50949 0
M  V30 1944 C 177.857 0.594725 1.49398 0
M  V30 1945 O 179.047 0.862315 1.5136 0
M  V30 1946 C 176.179 1.78431 2.90474 0
M  V30 1947 H 177.372 2.68467 1.33662 0
M  V30 1948 H 174.925 1.41549 0.662836 0
M  V30 1949 H 175.66 0.842645 3.13161 0
M  V30 1950 H 175.445 2.60558 2.93005 0
M  V30 1951 H 176.935 1.96479 3.68491 0
M  V30 1952 N 177.372 -0.689602 1.41712 0
M  V30 1953 C 178.649 -1.44457 1.31877 0
M  V30 1954 C 179.029 -2.11039 -0.0508537 0
M  V30 1955 O 178.377 -2.02138 -1.06547 0
M  V30 1956 C 178.587 -2.45913 2.47645 0
M  V30 1957 C 179.935 -3.10991 2.89084 0
M  V30 1958 O 180.959 -2.56238 2.47428 0
M  V30 1959 O 179.818 -4.10174 3.61137 0
M  V30 1960 H 176.912 -0.64362 0.519309 0
M  V30 1961 H 179.458 -0.719576 1.53689 0
M  V30 1962 H 178.23 -1.95409 3.39015 0
M  V30 1963 H 177.853 -3.25913 2.27742 0
M  V30 1964 N 178.85 -1.27639 -0.924453 0
M  V30 1965 C 179.797 -1.10644 -2.0255 0
M  V30 1966 C 180.767 -0.00658438 -1.66099 0
M  V30 1967 O 181.952 -0.16952 -1.90045 0
M  V30 1968 C 179.092 -0.76309 -3.36557 0
M  V30 1969 C 178.205 -1.94091 -3.85944 0
M  V30 1970 C 177.34 -1.53914 -5.08413 0
M  V30 1971 C 176.379 -2.68425 -5.50104 0
M  V30 1972 N 175.516 -2.28815 -6.63768 0
M  V30 1973 H 180.356 -2.04858 -2.16419 0
M  V30 1974 H 177.893 -1.01974 -1.06017 0
M  V30 1975 H 179.851 -0.544822 -4.13627 0
M  V30 1976 H 178.481 0.142102 -3.22487 0
M  V30 1977 H 177.533 -2.27162 -3.05125 0
M  V30 1978 H 178.845 -2.7998 -4.12811 0
M  V30 1979 H 177.999 -1.28231 -5.92994 0
M  V30 1980 H 176.738 -0.651391 -4.8333 0
M  V30 1981 H 175.743 -2.94819 -4.64071 0
M  V30 1982 H 176.968 -3.57826 -5.7718 0
M  V30 1983 H 174.914 -1.42495 -6.40337 0
M  V30 1984 H 174.831 -3.08242 -6.90306 0
M  V30 1985 H 176.099 -2.06387 -7.51681 0
M  V30 1986 N 180.328 1.1314 -1.09713 0
M  V30 1987 C 181.238 2.22242 -0.751367 0
M  V30 1988 C 182.254 1.72224 0.247938 0
M  V30 1989 O 183.43 2.01205 0.0885463 0
M  V30 1990 C 180.495 3.46231 -0.180274 0
M  V30 1991 C 179.556 4.11125 -1.2359 0
M  V30 1992 C 178.789 5.29195 -0.691966 0
M  V30 1993 O 179.012 5.68342 0.48414 0
M  V30 1994 O 177.946 5.84214 -1.44838 0
M  V30 1995 H 181.772 2.54197 -1.66186 0
M  V30 1996 H 179.357 1.21331 -0.871735 0
M  V30 1997 H 181.239 4.21185 0.134739 0
M  V30 1998 H 179.914 3.1597 0.703185 0
M  V30 1999 H 178.821 3.37985 -1.60366 0
M  V30 2000 H 180.154 4.45524 -2.09211 0
M  V30 2001 N 181.806 0.884767 1.30421 0
M  V30 2002 C 182.753 0.349642 2.28136 0
M  V30 2003 C 183.723 -0.560061 1.56373 0
M  V30 2004 O 184.908 -0.488524 1.8444 0
M  V30 2005 C 182.048 -0.42999 3.42411 0
M  V30 2006 C 181.161 0.508907 4.28992 0
M  V30 2007 C 180.296 -0.286301 5.30428 0
M  V30 2008 C 179.335 0.648079 6.08659 0
M  V30 2009 N 178.472 -0.111792 7.02011 0
M  V30 2010 H 183.312 1.18807 2.73293 0
M  V30 2011 H 180.849 0.597231 1.3443 0
M  V30 2012 H 182.807 -0.897923 4.07423 0
M  V30 2013 H 181.437 -1.23299 2.98324 0
M  V30 2014 H 180.489 1.09533 3.64289 0
M  V30 2015 H 181.801 1.22475 4.8353 0
M  V30 2016 H 180.955 -0.816098 6.01186 0
M  V30 2017 H 179.694 -1.03536 4.76583 0
M  V30 2018 H 178.699 1.18951 5.36778 0
M  V30 2019 H 179.924 1.39623 6.64592 0
M  V30 2020 H 177.87 -0.843395 6.50556 0
M  V30 2021 H 177.787 0.544429 7.54037 0
M  V30 2022 H 179.055 -0.622339 7.77012 0
M  V30 2023 N 183.284 -1.43765 0.645699 0
M  V30 2024 C 184.561 -1.9541 0.0862963 0
M  V30 2025 C 184.941 -1.58725 -1.39175 0
M  V30 2026 O 184.289 -0.868581 -2.11348 0
M  V30 2027 C 184.499 -3.47488 0.324565 0
M  V30 2028 C 185.847 -4.24001 0.225497 0
M  V30 2029 O 186.871 -3.55274 0.256715 0
M  V30 2030 O 185.73 -5.46313 0.142801 0
M  V30 2031 H 182.824 -0.826882 -0.0139483 0
M  V30 2032 H 185.37 -1.53743 0.718415 0
M  V30 2033 H 184.142 -3.67289 1.3496 0
M  V30 2034 H 183.765 -3.96135 -0.340987 0
M  V30 2035 N 184.763 -0.387143 -1.52771 0
M  V30 2036 C 185.711 0.463953 -2.27926 0
M  V30 2037 C 186.705 1.06493 -1.31741 0
M  V30 2038 O 187.911 1.00565 -1.49287 0
M  V30 2039 H 184.286 0.16837 -0.732909 0
M  V30 2040 H 186.257 -0.19141 -2.97785 0
M  V30 2041 C 185.006 1.5803 -3.09713 0
M  V30 2042 H 184.329 1.12718 -3.83581 0
M  V30 2043 H 185.769 2.15008 -3.65442 0
M  V30 2044 C 184.228 2.53509 -2.2189 0
M  V30 2045 O 184.758 3.56863 -1.84422 0
M  V30 2046 N 182.964 2.23199 -1.86093 0
M  V30 2047 H 182.511 1.39185 -2.16761 0
M  V30 2048 H 182.469 2.87333 -1.27621 0
M  V30 2049 N 186.241 1.57166 -0.116904 0
M  V30 2050 C 187.188 2.15202 0.83408 0
M  V30 2051 C 188.158 1.07644 1.26499 0
M  V30 2052 O 189.343 1.35541 1.34288 0
M  V30 2053 C 186.483 2.75405 2.07957 0
M  V30 2054 C 185.596 3.97264 1.69721 0
M  V30 2055 C 184.731 4.45561 2.89221 0
M  V30 2056 C 183.77 5.59956 2.47215 0
M  V30 2057 N 182.907 6.03006 3.59622 0
M  V30 2058 H 187.747 2.96141 0.332335 0
M  V30 2059 H 185.284 1.46309 0.152349 0
M  V30 2060 H 187.242 3.08439 2.80929 0
M  V30 2061 H 185.872 1.97159 2.55594 0
M  V30 2062 H 184.924 3.70404 0.866316 0
M  V30 2063 H 186.236 4.80226 1.34849 0
M  V30 2064 H 185.39 4.80493 3.7042 0
M  V30 2065 H 184.129 3.61544 3.27318 0
M  V30 2066 H 183.134 5.2463 1.64448 0
M  V30 2067 H 184.359 6.45738 2.10238 0
M  V30 2068 H 182.305 5.21931 3.97396 0
M  V30 2069 H 182.222 6.80819 3.28667 0
M  V30 2070 H 183.49 6.42576 4.41267 0
M  V30 2071 N 187.719 -0.156864 1.56817 0
M  V30 2072 C 188.965 -0.872416 1.83076 0
M  V30 2073 C 189.298 -1.81261 0.697001 0
M  V30 2074 O 188.573 -1.92171 -0.30008 0
M  V30 2075 C 188.856 -1.65551 3.19789 0
M  V30 2076 C 188.709 -0.737467 4.43713 0
M  V30 2077 C 190.028 -2.62012 3.53606 0
M  V30 2078 H 187.147 -0.315715 0.665953 0
M  V30 2079 H 189.789 -0.138004 1.89498 0
M  V30 2080 H 187.939 -2.28159 3.14445 0
M  V30 2081 H 189.611 -0.123143 4.61136 0
M  V30 2082 H 187.854 -0.0464067 4.33775 0
M  V30 2083 H 188.525 -1.32122 5.35955 0
M  V30 2084 H 191.001 -2.09525 3.59497 0
M  V30 2085 H 189.877 -3.13861 4.50314 0
M  V30 2086 H 190.138 -3.42902 2.79053 0
M  V30 2087 N 189.197 -1.51736 -0.425897 0
M  V30 2088 C 190.422 -1.69082 -1.20108 0
M  V30 2089 C 190.847 -0.392398 -1.83962 0
M  V30 2090 O 190.205 0.64858 -1.69302 0
M  V30 2091 C 190.253 -2.81604 -2.25237 0
M  V30 2092 O 189.357 -2.46004 -3.30992 0
M  V30 2093 H 188.698 -0.563408 -0.35138 0
M  V30 2094 H 191.228 -1.98358 -0.501512 0
M  V30 2095 H 191.238 -3.06025 -2.69838 0
M  V30 2096 H 189.913 -3.75817 -1.78142 0
M  V30 2097 H 188.49 -2.32195 -2.91787 0
M  V30 2098 N 190.675 0.682077 -1.42076 0
M  V30 2099 C 191.607 1.80755 -1.40926 0
M  V30 2100 C 192.62 1.59833 -0.309398 0
M  V30 2101 O 193.809 1.69087 -0.572014 0
M  V30 2102 C 190.909 3.17744 -1.17865 0
M  V30 2103 C 190.082 3.65578 -2.40149 0
M  V30 2104 C 189.141 4.81277 -2.12742 0
M  V30 2105 O 188.167 4.92197 -2.85887 0
M  V30 2106 N 189.369 5.69474 -1.12602 0
M  V30 2107 H 192.134 1.82229 -2.37935 0
M  V30 2108 H 189.695 0.864903 -1.36861 0
M  V30 2109 H 191.687 3.9279 -0.9746 0
M  V30 2110 H 190.257 3.11214 -0.294068 0
M  V30 2111 H 189.477 2.81291 -2.76169 0
M  V30 2112 H 190.765 3.94278 -3.21593 0
M  V30 2113 H 190.163 5.63297 -0.520899 0
M  V30 2114 H 188.72 6.44363 -0.981842 0
M  V30 2115 N 192.153 1.28127 0.917671 0
M  V30 2116 C 193.101 1.11569 2.04096 0
M  V30 2117 C 194.095 0.0360242 1.69362 0
M  V30 2118 O 195.301 0.194501 1.78946 0
M  V30 2119 H 191.676 0.344097 0.668656 0
M  V30 2120 H 193.647 2.06711 2.15205 0
M  V30 2121 C 192.396 0.790197 3.38602 0
M  V30 2122 H 191.719 1.61293 3.6582 0
M  V30 2123 H 193.159 0.714271 4.1794 0
M  V30 2124 C 191.618 -0.505897 3.3308 0
M  V30 2125 O 192.148 -1.53736 3.71117 0
M  V30 2126 N 190.354 -0.505193 2.86175 0
M  V30 2127 H 189.901 0.334621 2.55417 0
M  V30 2128 H 189.859 -1.37243 2.82863 0
M  V30 2129 N 193.631 -1.12557 1.10312 0
M  V30 2130 C 194.861 -1.87592 0.865617 0
M  V30 2131 C 195.269 -1.79851 -0.587389 0
M  V30 2132 O 194.612 -1.16949 -1.41664 0
M  V30 2133 C 194.674 -3.37665 1.23381 0
M  V30 2134 C 194.338 -3.69181 2.69359 0
M  V30 2135 C 195.335 -3.67652 3.67597 0
M  V30 2136 C 193.02 -3.98555 3.05711 0
M  V30 2137 C 195.014 -3.95053 5.00212 0
M  V30 2138 C 192.701 -4.25616 4.38514 0
M  V30 2139 C 193.699 -4.23851 5.35574 0
M  V30 2140 O 193.387 -4.50242 6.65986 0
M  V30 2141 H 193.119 -0.600442 0.310557 0
M  V30 2142 H 195.673 -1.4335 1.47105 0
M  V30 2143 H 193.903 -3.82454 0.571467 0
M  V30 2144 H 195.592 -3.94041 0.973994 0
M  V30 2145 H 196.358 -3.45024 3.40857 0
M  V30 2146 H 192.237 -3.99071 2.30789 0
M  V30 2147 H 195.781 -3.93591 5.75962 0
M  V30 2148 H 191.678 -4.47718 4.64994 0
M  V30 2149 H 192.446 -4.67867 6.71597 0
M  V30 2150 N 195.109 -0.891671 -1.2995 0
M  V30 2151 C 196.52 -0.563104 -1.78006 0
M  V30 2152 C 196.871 0.920978 -1.73241 0
M  V30 2153 O 195.996 1.71987 -1.31337 0
M  V30 2154 C 196.591 -1.01539 -3.23226 0
M  V30 2155 C 195.15 -0.738124 -3.69092 0
M  V30 2156 C 194.297 -1.19461 -2.50249 0
M  V30 2157 H 197.248 -1.07522 -1.16725 0
M  V30 2158 H 197.269 -0.347217 -3.78912 0
M  V30 2159 H 196.781 -2.09555 -3.26662 0
M  V30 2160 H 194.882 0.329766 -3.71138 0
M  V30 2161 H 194.995 -1.33037 -4.60259 0
M  V30 2162 H 193.359 -0.613787 -2.47194 0
M  V30 2163 H 194.142 -2.28265 -2.56417 0
M  V30 2164 N 196.587 1.43421 -0.653314 0
M  V30 2165 C 197.836 2.01032 -0.164076 0
M  V30 2166 C 198.149 1.52147 1.22926 0
M  V30 2167 O 199.355 2.02031 1.81371 0
M  V30 2168 C 197.811 3.59082 -0.24252 0
M  V30 2169 C 197.419 4.1696 -1.63855 0
M  V30 2170 C 199.163 4.24079 0.18911 0
M  V30 2171 C 197.07 5.67304 -1.67092 0
M  V30 2172 H 196 0.751798 -0.0575769 0
M  V30 2173 H 198.651 1.6439 -0.815362 0
M  V30 2174 H 197.033 3.93125 0.476276 0
M  V30 2175 H 198.207 3.94416 -2.38271 0
M  V30 2176 H 196.522 3.64335 -2.01616 0
M  V30 2177 H 199.119 5.34381 0.184775 0
M  V30 2178 H 199.462 3.98005 1.22056 0
M  V30 2179 H 199.995 3.94918 -0.477938 0
M  V30 2180 H 196.734 5.98145 -2.68146 0
M  V30 2181 H 196.254 5.91904 -0.970014 0
M  V30 2182 H 197.933 6.31344 -1.4147 0
M  V30 2183 N 198.065 0.39524 1.52563 0
M  V30 2184 C 199.311 -0.185318 2.01952 0
M  V30 2185 C 199.644 -1.45964 1.28095 0
M  V30 2186 O 198.919 -1.90689 0.38315 0
M  V30 2187 C 199.202 -0.447193 3.57312 0
M  V30 2188 C 199.055 0.842828 4.41833 0
M  V30 2189 C 200.374 -1.23529 4.22408 0
M  V30 2190 H 197.493 -0.0658788 0.73405 0
M  V30 2191 H 200.135 0.525975 1.82575 0
M  V30 2192 H 198.285 -1.05312 3.73954 0
M  V30 2193 H 199.957 1.4795 4.36931 0
M  V30 2194 H 198.2 1.45686 4.08605 0
M  V30 2195 H 198.871 0.614165 5.48573 0
M  V30 2196 H 201.347 -0.722445 4.0978 0
M  V30 2197 H 200.223 -1.38727 5.3108 0
M  V30 2198 H 200.484 -2.25213 3.80436 0
M  V30 2199 N 199.544 -1.57102 0.125237 0
M  V30 2200 C 200.476 -2.12726 -0.853237 0
M  V30 2201 C 201.489 -1.07145 -1.22571 0
M  V30 2202 O 202.678 -1.34497 -1.17358 0
M  V30 2203 C 199.778 -2.61709 -2.15317 0
M  V30 2204 C 198.951 -3.91456 -1.95143 0
M  V30 2205 C 198.01 -4.25973 -3.08923 0
M  V30 2206 O 197.036 -4.94682 -2.81564 0
M  V30 2207 N 198.238 -3.83795 -4.35524 0
M  V30 2208 H 201.003 -2.97307 -0.377964 0
M  V30 2209 H 198.564 -1.61792 -0.0590011 0
M  V30 2210 H 200.556 -2.81826 -2.90441 0
M  V30 2211 H 199.126 -1.81974 -2.54174 0
M  V30 2212 H 198.346 -3.80185 -1.04177 0
M  V30 2213 H 199.634 -4.76283 -1.78976 0
M  V30 2214 H 199.032 -3.2839 -4.60626 0
M  V30 2215 H 197.589 -4.09008 -5.07499 0
M  V30 2216 N 201.022 0.148545 -1.56898 0
M  V30 2217 C 201.97 1.20265 -1.99096 0
M  V30 2218 C 202.964 1.44559 -0.883123 0
M  V30 2219 O 204.17 1.4487 -1.0683 0
M  V30 2220 H 200.545 0.404786 -0.63376 0
M  V30 2221 H 202.516 0.82004 -2.86911 0
M  V30 2222 C 201.265 2.52886 -2.3863 0
M  V30 2223 H 200.588 2.35021 -3.23427 0
M  V30 2224 H 202.028 3.25274 -2.7198 0
M  V30 2225 C 200.487 3.13315 -1.23837 0
M  V30 2226 O 201.017 3.98077 -0.538268 0
M  V30 2227 N 199.223 2.72742 -1.00301 0
M  V30 2228 H 198.77 2.03912 -1.5741 0
M  V30 2229 H 198.728 3.13507 -0.236838 0
M  V30 2230 N 202.5 1.5196 0.417844 0
M  V30 2231 C 203.463 1.74065 1.49111 0
M  V30 2232 C 204.463 0.610537 1.48758 0
M  V30 2233 O 205.653 0.87832 1.50437 0
M  V30 2234 C 202.785 1.81502 2.88565 0
M  V30 2235 H 203.978 2.69869 1.30807 0
M  V30 2236 H 201.531 1.42244 0.647785 0
M  V30 2237 H 202.266 0.875813 3.1225 0
M  V30 2238 H 202.051 2.63651 2.90225 0
M  V30 2239 H 203.541 2.00376 3.66387 0
M  V30 2240 N 203.978 -0.674533 1.42435 0
M  V30 2241 C 204.91 -1.80005 1.41883 0
M  V30 2242 C 205.923 -1.59667 0.31787 0
M  V30 2243 O 207.112 -1.68781 0.580973 0
M  V30 2244 C 204.212 -3.17114 1.19549 0
M  V30 2245 C 203.385 -3.64299 2.42084 0
M  V30 2246 C 202.444 -4.80142 2.15291 0
M  V30 2247 O 201.47 -4.90673 2.88493 0
M  V30 2248 N 202.672 -5.68869 1.1562 0
M  V30 2249 H 205.437 -1.80964 2.38898 0
M  V30 2250 H 202.998 -0.857633 1.37318 0
M  V30 2251 H 204.99 -3.92267 0.995417 0
M  V30 2252 H 203.56 -3.11053 0.310569 0
M  V30 2253 H 202.78 -2.79822 2.77657 0
M  V30 2254 H 204.068 -3.92567 3.23679 0
M  V30 2255 H 203.466 -5.63012 0.550765 0
M  V30 2256 H 202.023 -6.43833 1.016 0
M  V30 2257 N 205.456 -1.28612 -0.910864 0
M  V30 2258 C 206.704 -1.15705 -1.65701 0
M  V30 2259 C 207.025 0.29416 -1.92769 0
M  V30 2260 O 206.295 1.20331 -1.54588 0
M  V30 2261 H 204.875 -0.425216 -0.614167 0
M  V30 2262 H 207.537 -1.61381 -1.0928 0
M  V30 2263 H 206.633 -1.6988 -2.61815 0
M  V30 2264 N 206.934 1.1197 -1.10907 0
M  V30 2265 C 207.866 2.17592 -0.720175 0
M  V30 2266 C 208.879 1.60938 0.245495 0
M  V30 2267 O 210.068 1.78476 0.0292245 0
M  V30 2268 C 207.168 3.38873 -0.0427917 0
M  V30 2269 C 206.341 4.25006 -1.03388 0
M  V30 2270 C 205.4 5.24774 -0.387075 0
M  V30 2271 O 204.426 5.59631 -1.03934 0
M  V30 2272 N 205.628 5.74208 0.852407 0
M  V30 2273 H 208.393 2.51567 -1.62893 0
M  V30 2274 H 205.954 1.27439 -0.998543 0
M  V30 2275 H 207.946 4.02703 0.401501 0
M  V30 2276 H 206.516 3.03007 0.768456 0
M  V30 2277 H 205.736 3.57716 -1.65629 0
M  V30 2278 H 207.024 4.79397 -1.70458 0
M  V30 2279 H 206.422 5.48062 1.40161 0
M  V30 2280 H 204.979 6.39901 1.23977 0
M  V30 2281 N 208.412 0.89855 1.29475 0
M  V30 2282 C 209.345 0.319981 2.25945 0
M  V30 2283 C 210.323 -0.567189 1.52387 0
M  V30 2284 O 211.507 -0.514254 1.8135 0
M  V30 2285 C 208.634 -0.544013 3.34303 0
M  V30 2286 C 207.68 0.275682 4.25608 0
M  V30 2287 S 208.513 1.67272 5.08704 0
M  V30 2288 C 209.669 0.815621 6.20563 0
M  V30 2289 H 209.902 1.13767 2.74671 0
M  V30 2290 H 207.435 0.69882 1.3768 0
M  V30 2291 H 209.393 -1.03673 3.97193 0
M  V30 2292 H 208.054 -1.33593 2.84274 0
M  V30 2293 H 207.247 -0.384263 5.02533 0
M  V30 2294 H 206.849 0.701496 3.67362 0
M  V30 2295 H 209.141 0.0385042 6.77489 0
M  V30 2296 H 210.084 1.55691 6.90772 0
M  V30 2297 H 210.492 0.370516 5.63283 0
M  V30 2298 N 209.89 -1.43072 0.660911 0
M  V30 2299 C 211.136 -2.0202 0.177708 0
M  V30 2300 C 211.469 -1.52066 -1.20787 0
M  V30 2301 O 210.744 -0.716987 -1.80802 0
M  V30 2302 C 211.027 -3.59561 0.197019 0
M  V30 2303 C 210.88 -4.19727 1.61706 0
M  V30 2304 C 212.199 -4.37664 -0.462396 0
M  V30 2305 H 209.318 -0.734034 0.0660494 0
M  V30 2306 H 211.96 -1.70272 0.843058 0
M  V30 2307 H 210.11 -3.86739 -0.369527 0
M  V30 2308 H 211.782 -4.03553 2.23479 0
M  V30 2309 H 210.025 -3.76084 2.16201 0
M  V30 2310 H 210.696 -5.28834 1.58237 0
M  V30 2311 H 213.172 -4.16095 0.0197215 0
M  V30 2312 H 212.048 -5.47305 -0.418188 0
M  V30 2313 H 212.309 -4.14493 -1.53778 0
M  V30 2314 N 211.368 -0.403325 -1.52352 0
M  V30 2315 C 212.318 0.442244 -2.2367 0
M  V30 2316 C 213.302 1.01823 -1.24583 0
M  V30 2317 O 214.494 0.942005 -1.49851 0
M  V30 2318 C 211.623 1.5615 -3.05732 0
M  V30 2319 C 210.709 0.996575 -4.12225 0
M  V30 2320 N 211.1 0.157804 -5.05554 0
M  V30 2321 C 209.398 1.26767 -4.27605 0
M  V30 2322 C 210.099 -0.155853 -5.81491 0
M  V30 2323 N 209.075 0.451775 -5.41719 0
M  V30 2324 H 212.877 -0.204964 -2.93184 0
M  V30 2325 H 210.391 -0.213418 -1.60992 0
M  V30 2326 H 212.388 2.17981 -3.55373 0
M  V30 2327 H 211.048 2.21139 -2.37755 0
M  V30 2328 H 212.059 -0.206049 -5.1749 0
M  V30 2329 H 208.736 1.91757 -3.70858 0
M  V30 2330 H 210.126 -0.836329 -6.66675 0
M  V30 2331 N 212.846 1.57033 -0.133567 0
M  V30 2332 C 213.778 2.13176 0.841944 0
M  V30 2333 C 214.791 1.07794 1.22001 0
M  V30 2334 O 215.98 1.35117 1.16643 0
M  V30 2335 C 213.08 2.62847 2.13926 0
M  V30 2336 C 212.253 3.92486 1.93064 0
M  V30 2337 C 211.312 4.27605 3.0666 0
M  V30 2338 O 210.338 4.96168 2.78937 0
M  V30 2339 N 211.54 3.861 4.33483 0
M  V30 2340 H 214.305 2.97503 0.362192 0
M  V30 2341 H 211.866 1.61821 0.05042 0
M  V30 2342 H 213.858 2.83363 2.88942 0
M  V30 2343 H 212.428 1.83319 2.53205 0
M  V30 2344 H 211.648 3.80732 1.02159 0
M  V30 2345 H 212.936 4.77225 1.76447 0
M  V30 2346 H 212.334 3.30828 4.58878 0
M  V30 2347 H 210.891 4.11694 5.05323 0
M  V30 2348 N 214.325 -0.140222 1.56975 0
M  V30 2349 C 215.288 -1.15689 1.97861 0
M  V30 2350 C 216.288 -1.3549 0.865974 0
M  V30 2351 O 217.478 -1.32367 1.13246 0
M  V30 2352 C 214.61 -2.51582 2.30042 0
M  V30 2353 H 215.803 -0.805971 2.88867 0
M  V30 2354 H 213.356 -0.383801 1.51515 0
M  V30 2355 H 214.091 -2.91632 1.41849 0
M  V30 2356 H 213.876 -2.38569 3.11171 0
M  V30 2357 H 215.366 -3.24792 2.62488 0
M  V30 2358 N 215.803 -1.52179 -0.40978 0
M  V30 2359 C 217.052 -1.65434 -1.15388 0
M  V30 2360 C 217.365 -0.390056 -1.91671 0
M  V30 2361 O 218.571 -0.402399 -2.68501 0
M  V30 2362 C 217.027 -2.92279 -2.10003 0
M  V30 2363 C 216.635 -4.25813 -1.39239 0
M  V30 2364 C 218.379 -3.14897 -2.84675 0
M  V30 2365 C 216.286 -5.43782 -2.32498 0
M  V30 2366 H 215.216 -0.616267 -0.434432 0
M  V30 2367 H 217.867 -1.78666 -0.418401 0
M  V30 2368 H 216.249 -2.72744 -2.871 0
M  V30 2369 H 217.423 -4.55828 -0.675099 0
M  V30 2370 H 215.738 -4.09292 -0.766097 0
M  V30 2371 H 218.335 -4.0021 -3.54593 0
M  V30 2372 H 218.678 -2.29103 -3.47588 0
M  V30 2373 H 219.211 -3.34901 -2.14677 0
M  V30 2374 H 215.95 -6.3192 -1.74233 0
M  V30 2375 H 215.47 -5.18106 -3.02201 0
M  V30 2376 H 217.149 -5.76834 -2.93038 0
M  V30 2377 N 217.281 0.66697 -1.42791 0
M  V30 2378 C 218.506 1.46004 -1.47301 0
M  V30 2379 C 218.931 1.87894 -0.0880317 0
M  V30 2380 O 218.289 1.56502 0.915253 0
M  V30 2381 C 218.337 2.68031 -2.41229 0
M  V30 2382 O 217.441 3.6659 -1.88906 0
M  V30 2383 H 216.782 0.43832 -0.49877 0
M  V30 2384 H 219.312 0.817391 -1.87563 0
M  V30 2385 H 219.322 3.1601 -2.58073 0
M  V30 2386 H 217.997 2.36883 -3.41847 0
M  V30 2387 H 216.574 3.25661 -1.81656 0
M  V30 2388 N 218.759 1.29093 0.90403 0
M  V30 2389 C 220.17 1.15186 1.46932 0
M  V30 2390 C 220.521 -0.254587 1.94541 0
M  V30 2391 O 219.646 -1.14972 1.83332 0
M  V30 2392 C 220.241 2.08492 2.67051 0
M  V30 2393 C 218.8 1.98621 3.19729 0
M  V30 2394 C 217.947 1.9967 1.92425 0
M  V30 2395 H 220.898 1.41641 0.715789 0
M  V30 2396 H 220.919 1.65461 3.42641 0
M  V30 2397 H 220.431 3.10847 2.3237 0
M  V30 2398 H 218.532 0.993389 3.59114 0
M  V30 2399 H 218.645 2.86068 3.8432 0
M  V30 2400 H 217.009 1.44208 2.09943 0
M  V30 2401 H 217.792 3.03721 1.60026 0
M  V30 2402 N 220.237 -1.11381 1.11499 0
M  V30 2403 C 221.653 -1.35143 0.849031 0
M  V30 2404 C 221.853 -1.94515 -0.525938 0
M  V30 2405 O 220.909 -2.1785 -1.27662 0
M  V30 2406 C 222.222 -2.28249 1.95762 0
M  V30 2407 C 223.77 -2.41812 1.98736 0
M  V30 2408 C 224.245 -3.3824 3.088 0
M  V30 2409 N 225.736 -3.45803 3.08179 0
M  V30 2410 C 226.471 -4.20358 3.89982 0
M  V30 2411 N 225.967 -4.97884 4.8175 0
M  V30 2412 N 227.76 -4.15877 3.78157 0
M  V30 2413 H 219.911 -0.712062 2.00109 0
M  V30 2414 H 222.174 -0.376025 0.870235 0
M  V30 2415 H 221.88 -1.91817 2.94787 0
M  V30 2416 H 221.754 -3.28473 1.85433 0
M  V30 2417 H 224.141 -2.77518 1.00338 0
M  V30 2418 H 224.222 -1.41437 2.13141 0
M  V30 2419 H 223.866 -3.03261 4.07425 0
M  V30 2420 H 223.796 -4.38471 2.91635 0
M  V30 2421 H 226.287 -2.90506 2.41691 0
M  V30 2422 H 226.6 -5.52142 5.40702 0
M  V30 2423 H 224.945 -4.97043 4.85771 0
M  V30 2424 H 228.136 -3.544 3.05808 0
M  V30 2425 H 228.309 -4.73723 4.42143 0
M  V30 2426 N 221.715 -0.905404 -1.28997 0
M  V30 2427 C 222.943 -0.549846 -1.9946 0
M  V30 2428 C 223.358 0.866834 -1.67724 0
M  V30 2429 O 222.715 1.57298 -0.925404 0
M  V30 2430 C 222.766 -0.739387 -3.53858 0
M  V30 2431 O 222.487 -2.10031 -3.84472 0
M  V30 2432 C 223.988 -0.389541 -4.41585 0
M  V30 2433 H 221.208 -0.210429 -0.637151 0
M  V30 2434 H 223.752 -1.21632 -1.64396 0
M  V30 2435 H 221.907 -0.120023 -3.87214 0
M  V30 2436 H 222.321 -2.13385 -4.79132 0
M  V30 2437 H 223.795 -0.572972 -5.49018 0
M  V30 2438 H 224.272 0.673756 -4.34001 0
M  V30 2439 H 224.878 -0.986089 -4.1371 0
M  V30 2440 N 223.193 1.4272 -0.668489 0
M  V30 2441 C 224.123 2.335 -0.000100175 0
M  V30 2442 C 225.104 1.50328 0.795964 0
M  V30 2443 O 226.289 1.78949 0.754385 0
M  V30 2444 C 223.419 3.33874 0.956302 0
M  V30 2445 C 222.373 4.27152 0.269278 0
M  V30 2446 C 221.699 5.17684 1.33818 0
M  V30 2447 C 222.999 5.15373 -0.847805 0
M  V30 2448 H 224.693 2.89639 -0.758244 0
M  V30 2449 H 222.239 1.39269 -0.366079 0
M  V30 2450 H 224.192 3.9629 1.43292 0
M  V30 2451 H 222.916 2.76025 1.74579 0
M  V30 2452 H 221.575 3.66123 -0.187042 0
M  V30 2453 H 221.223 4.56165 2.1195 0
M  V30 2454 H 220.923 5.80918 0.883659 0
M  V30 2455 H 222.447 5.82974 1.81586 0
M  V30 2456 H 223.861 5.7151 -0.452681 0
M  V30 2457 H 222.258 5.87407 -1.22773 0
M  V30 2458 H 223.328 4.5415 -1.69929 0
M  V30 2459 N 224.671 0.411399 1.52136 0
M  V30 2460 C 225.619 -0.427633 2.28635 0
M  V30 2461 C 226.613 -1.04383 1.33419 0
M  V30 2462 O 227.819 -0.981772 1.50868 0
M  V30 2463 H 224.194 -0.156689 0.735495 0
M  V30 2464 H 226.165 0.238761 2.97443 0
M  V30 2465 C 224.914 -1.53082 3.12188 0
M  V30 2466 H 224.237 -1.06601 3.85326 0
M  V30 2467 H 225.677 -2.09167 3.68816 0
M  V30 2468 C 224.136 -2.49946 2.25895 0
M  V30 2469 O 224.666 -3.53884 1.90076 0
M  V30 2470 N 222.872 -2.2021 1.8962 0
M  V30 2471 H 222.419 -1.35719 2.18948 0
M  V30 2472 H 222.377 -2.85266 1.32176 0
M  V30 2473 N 226.149 -1.5696 0.141893 0
M  V30 2474 C 227.112 -2.15316 -0.785587 0
M  V30 2475 C 228.112 -1.09366 -1.1788 0
M  V30 2476 O 229.302 -1.35031 -1.10056 0
M  V30 2477 C 226.434 -2.71211 -2.06537 0
M  V30 2478 H 227.627 -2.98608 -0.278041 0
M  V30 2479 H 225.18 -1.5593 -0.107519 0
M  V30 2480 H 225.915 -1.91571 -2.6167 0
M  V30 2481 H 225.7 -3.4872 -1.79268 0
M  V30 2482 H 227.19 -3.16189 -2.72789 0
M  V30 2483 N 227.627 0.131896 -1.57047 0
M  V30 2484 C 228.873 0.838268 -1.85323 0
M  V30 2485 C 229.228 1.78098 -0.727937 0
M  V30 2486 O 228.521 1.89645 0.27304 0
M  V30 2487 C 228.715 1.63703 -3.17704 0
M  V30 2488 C 228.544 0.773167 -4.43004 0
M  V30 2489 C 227.314 0.432956 -5.03442 0
M  V30 2490 C 229.512 0.0966216 -5.14209 0
M  V30 2491 N 227.494 -0.442924 -6.123 0
M  V30 2492 C 228.865 -0.638778 -6.16701 0
M  V30 2493 C 230.92 0.018861 -4.97896 0
M  V30 2494 C 229.623 -1.44462 -7.04644 0
M  V30 2495 C 231.649 -0.773762 -5.86316 0
M  V30 2496 C 231.011 -1.4974 -6.883 0
M  V30 2497 H 227.11 0.284086 -0.728573 0
M  V30 2498 H 229.694 0.102731 -1.94429 0
M  V30 2499 H 227.865 2.3437 -3.09718 0
M  V30 2500 H 229.597 2.28774 -3.33833 0
M  V30 2501 H 226.352 0.772237 -4.67262 0
M  V30 2502 H 226.776 -0.872332 -6.71356 0
M  V30 2503 H 231.418 0.56397 -4.19022 0
M  V30 2504 H 229.136 -2.00093 -7.82936 0
M  V30 2505 H 232.722 -0.83612 -5.75761 0
M  V30 2506 H 231.602 -2.10087 -7.55535 0
M  V30 2507 N 229.106 1.52395 0.401703 0
M  V30 2508 C 230.352 1.67065 1.14966 0
M  V30 2509 C 230.685 0.403052 1.89971 0
M  V30 2510 O 229.96 -0.598774 1.85054 0
M  V30 2511 C 230.243 2.8975 2.13815 0
M  V30 2512 C 230.096 4.26578 1.42658 0
M  V30 2513 C 231.415 3.07965 3.14397 0
M  V30 2514 H 228.534 0.607968 0.416587 0
M  V30 2515 H 231.176 1.84965 0.434511 0
M  V30 2516 H 229.326 2.74619 2.74803 0
M  V30 2517 H 230.998 4.53451 0.847329 0
M  V30 2518 H 229.241 4.27639 0.72849 0
M  V30 2519 H 229.912 5.08483 2.14823 0
M  V30 2520 H 232.388 3.22043 2.63491 0
M  V30 2521 H 231.264 3.95308 3.80819 0
M  V30 2522 H 231.525 2.21611 3.82545 0
M  V30 2523 N 230.584 -0.659388 1.43143 0
M  V30 2524 C 231.531 -1.77249 1.47822 0
M  V30 2525 C 232.501 -1.62818 0.328558 0
M  V30 2526 O 233.686 -1.83151 0.534838 0
M  V30 2527 C 230.826 -3.15371 1.40126 0
M  V30 2528 C 229.939 -3.4098 2.65249 0
M  V30 2529 C 229.074 -4.68915 2.49584 0
M  V30 2530 C 228.113 -4.87608 3.70006 0
M  V30 2531 N 227.25 -6.06796 3.53189 0
M  V30 2532 H 232.09 -1.72584 2.42938 0
M  V30 2533 H 229.627 -0.842297 1.20598 0
M  V30 2534 H 231.585 -3.9521 1.33659 0
M  V30 2535 H 230.215 -3.19121 0.485964 0
M  V30 2536 H 229.267 -2.55282 2.8202 0
M  V30 2537 H 230.579 -3.50681 3.54717 0
M  V30 2538 H 229.733 -5.56871 2.4079 0
M  V30 2539 H 228.472 -4.61524 1.5763 0
M  V30 2540 H 227.477 -3.9809 3.79215 0
M  V30 2541 H 228.702 -4.96834 4.62961 0
M  V30 2542 H 226.648 -6.00549 2.63965 0
M  V30 2543 H 226.565 -6.17428 4.36255 0
M  V30 2544 H 227.833 -6.9739 3.48236 0
M  V30 2545 N 232.062 -1.29571 -0.897171 0
M  V30 2546 C 233.308 -1.17863 -1.65034 0
M  V30 2547 C 233.641 0.268729 -1.92332 0
M  V30 2548 O 232.916 1.19378 -1.53555 0
M  V30 2549 C 233.199 -1.995 -2.99786 0
M  V30 2550 C 233.052 -3.5239 -2.79538 0
M  V30 2551 C 234.371 -1.82335 -4.00552 0
M  V30 2552 H 231.49 -0.429528 -0.598895 0
M  V30 2553 H 234.132 -1.59072 -1.03905 0
M  V30 2554 H 232.282 -1.64485 -3.51962 0
M  V30 2555 H 233.954 -3.97401 -2.34244 0
M  V30 2556 H 232.197 -3.77187 -2.14273 0
M  V30 2557 H 232.868 -4.04787 -3.75302 0
M  V30 2558 H 235.344 -2.12924 -3.57495 0
M  V30 2559 H 234.22 -2.41801 -4.92771 0
M  V30 2560 H 234.481 -0.779209 -4.35179 0
M  V30 2561 N 233.54 1.10788 -1.12088 0
M  V30 2562 C 234.786 1.82942 -0.875226 0
M  V30 2563 C 235.119 1.84779 0.597538 0
M  V30 2564 O 234.394 1.30578 1.44152 0
M  V30 2565 C 234.677 3.29789 -1.44606 0
M  V30 2566 C 234.53 3.36307 -2.98693 0
M  V30 2567 C 235.849 4.26064 -1.10261 0
M  V30 2568 H 232.968 0.664195 -0.319397 0
M  V30 2569 H 235.61 1.29867 -1.38689 0
M  V30 2570 H 233.76 3.75118 -1.01089 0
M  V30 2571 H 235.432 2.99487 -3.50864 0
M  V30 2572 H 233.675 2.76318 -3.34411 0
M  V30 2573 H 234.346 4.39694 -3.33726 0
M  V30 2574 H 236.822 3.88951 -1.4784 0
M  V30 2575 H 235.698 5.27183 -1.52869 0
M  V30 2576 H 235.959 4.42098 -0.0142953 0
M  V30 2577 N 235.018 0.912232 1.28515 0
M  V30 2578 C 235.928 0.404506 2.31086 0
M  V30 2579 C 236.944 -0.50707 1.66448 0
M  V30 2580 O 238.12 -0.393624 1.97516 0
M  V30 2581 C 235.185 -0.348572 3.44943 0
M  V30 2582 C 234.246 0.59604 4.25142 0
M  V30 2583 C 233.479 -0.121194 5.33562 0
M  V30 2584 O 233.702 -1.34317 5.5436 0
M  V30 2585 O 232.636 0.542716 5.99448 0
M  V30 2586 H 236.462 1.25579 2.76521 0
M  V30 2587 H 234.047 0.676998 1.33181 0
M  V30 2588 H 235.929 -0.77395 4.14232 0
M  V30 2589 H 234.604 -1.17571 3.01594 0
M  V30 2590 H 233.511 1.07079 3.58448 0
M  V30 2591 H 234.844 1.38995 4.72167 0
M  V30 2592 N 236.496 -1.42363 0.676048 0
M  V30 2593 C 237.406 -2.346 -0.00153389 0
M  V30 2594 C 238.422 -1.5516 -0.787485 0
M  V30 2595 O 239.598 -1.87723 -0.729521 0
M  V30 2596 C 236.663 -3.33705 -0.940298 0
M  V30 2597 C 235.724 -4.29042 -0.148739 0
M  V30 2598 C 234.957 -5.23413 -1.04279 0
M  V30 2599 O 235.18 -5.22749 -2.28232 0
M  V30 2600 O 234.114 -5.99795 -0.502925 0
M  V30 2601 H 237.94 -2.94082 0.758268 0
M  V30 2602 H 235.525 -1.42888 0.436289 0
M  V30 2603 H 237.407 -3.94586 -1.47917 0
M  V30 2604 H 236.082 -2.76695 -1.67993 0
M  V30 2605 H 234.989 -3.71571 0.43427 0
M  V30 2606 H 236.322 -4.89097 0.551805 0
M  V30 2607 N 237.974 -0.419461 -1.51915 0
M  V30 2608 C 238.921 0.400927 -2.27291 0
M  V30 2609 C 239.891 1.03224 -1.30131 0
M  V30 2610 O 241.076 1.05455 -1.59009 0
M  V30 2611 C 238.216 1.50603 -3.10504 0
M  V30 2612 C 237.329 0.89462 -4.22635 0
M  V30 2613 C 236.464 1.97328 -4.93189 0
M  V30 2614 C 235.503 1.33935 -5.97267 0
M  V30 2615 N 234.64 2.3586 -6.61298 0
M  V30 2616 H 239.48 -0.248251 -2.96964 0
M  V30 2617 H 237.017 -0.134266 -1.46486 0
M  V30 2618 H 238.975 2.15783 -3.57062 0
M  V30 2619 H 237.605 2.12509 -2.42981 0
M  V30 2620 H 236.657 0.131583 -3.80172 0
M  V30 2621 H 237.969 0.391641 -4.9726 0
M  V30 2622 H 237.123 2.70211 -5.43204 0
M  V30 2623 H 235.862 2.50994 -4.18155 0
M  V30 2624 H 234.867 0.595896 -5.46561 0
M  V30 2625 H 236.092 0.810252 -6.74249 0
M  V30 2626 H 234.038 2.88639 -5.89087 0
M  V30 2627 H 233.955 1.90403 -7.3163 0
M  V30 2628 H 235.223 3.08282 -7.15949 0
M  V30 2629 N 239.452 1.56882 -0.150215 0
M  V30 2630 C 240.415 2.1573 0.774157 0
M  V30 2631 C 241.415 1.0999 1.17298 0
M  V30 2632 O 242.605 1.35613 1.09338 0
M  V30 2633 C 239.737 2.72302 2.05096 0
M  V30 2634 H 240.93 2.98752 0.262201 0
M  V30 2635 H 238.483 1.55985 0.099248 0
M  V30 2636 H 239.218 1.92956 2.6065 0
M  V30 2637 H 239.003 3.49665 1.77416 0
M  V30 2638 H 240.493 3.17632 2.71109 0
M  V30 2639 N 240.93 -0.123565 1.57115 0
M  V30 2640 C 242.177 -0.832153 1.84612 0
M  V30 2641 C 242.505 -1.80093 0.734627 0
M  V30 2642 O 241.76 -1.93766 -0.27442 0
M  V30 2643 C 242.059 -1.62016 3.18568 0
M  V30 2644 C 241.725 -0.796084 4.43817 0
M  V30 2645 C 240.387 -0.568816 4.77826 0
M  V30 2646 C 242.739 -0.221364 5.2073 0
M  V30 2647 C 240.067 0.243499 5.86194 0
M  V30 2648 C 242.419 0.578117 6.29953 0
M  V30 2649 C 241.083 0.815744 6.62497 0
M  V30 2650 H 240.353 -0.304507 0.675542 0
M  V30 2651 H 243 -0.0947248 1.91266 0
M  V30 2652 H 241.305 -2.42837 3.0747 0
M  V30 2653 H 243.002 -2.17231 3.37064 0
M  V30 2654 H 239.592 -0.983307 4.17168 0
M  V30 2655 H 243.776 -0.384173 4.94811 0
M  V30 2656 H 239.032 0.436871 6.09837 0
M  V30 2657 H 243.206 1.03046 6.88734 0
M  V30 2658 H 240.833 1.44701 7.46301 0
M  V30 2659 N 242.408 -1.52605 -0.393616 0
M  V30 2660 C 243.633 -1.71592 -1.16495 0
M  V30 2661 C 244.058 -0.43133 -1.83088 0
M  V30 2662 O 243.416 0.612523 -1.7064 0
M  V30 2663 C 243.464 -2.86318 -2.19213 0
M  V30 2664 O 242.568 -2.52969 -3.257 0
M  V30 2665 H 241.909 -0.570734 -0.33935 0
M  V30 2666 H 244.439 -1.99377 -0.459324 0
M  V30 2667 H 244.449 -3.1168 -2.63286 0
M  V30 2668 H 243.124 -3.79511 -1.7013 0
M  V30 2669 H 241.701 -2.38332 -2.86797 0
M  V30 2670 N 243.887 0.651787 -1.4349 0
M  V30 2671 C 245.298 1.233 -1.40193 0
M  V30 2672 C 245.649 1.9591 -0.106727 0
M  V30 2673 O 244.774 2.01316 0.793773 0
M  V30 2674 C 245.369 2.24257 -2.53957 0
M  V30 2675 C 243.928 2.77852 -2.5392 0
M  V30 2676 C 243.075 1.52517 -2.3159 0
M  V30 2677 H 246.026 0.443717 -1.52371 0
M  V30 2678 H 246.047 3.0646 -2.25528 0
M  V30 2679 H 245.559 1.71382 -3.4821 0
M  V30 2680 H 243.66 3.34786 -1.63551 0
M  V30 2681 H 243.773 3.25299 -3.51735 0
M  V30 2682 H 242.137 1.79915 -1.80285 0
M  V30 2683 H 242.92 1.01574 -3.27929 0
M  V30 2684 N 245.365 1.30045 0.890287 0
M  V30 2685 C 246.275 1.17885 2.02831 0
M  V30 2686 C 247.291 0.0999609 1.73713 0
M  V30 2687 O 248.467 0.313867 1.98939 0
M  V30 2688 C 245.532 0.866079 3.35708 0
M  V30 2689 C 244.593 2.02979 3.78283 0
M  V30 2690 C 243.826 1.73184 5.0482 0
M  V30 2691 O 244.049 0.657237 5.66601 0
M  V30 2692 O 242.983 2.58267 5.43674 0
M  V30 2693 H 246.809 2.13474 2.16015 0
M  V30 2694 H 244.394 1.09587 1.01543 0
M  V30 2695 H 246.276 0.706623 4.15433 0
M  V30 2696 H 244.951 -0.0599443 3.23644 0
M  V30 2697 H 243.858 2.24454 2.99285 0
M  V30 2698 H 245.191 2.93734 3.94944 0
M  V30 2699 N 246.843 -1.10192 1.12674 0
M  V30 2700 C 248.089 -1.82475 0.884915 0
M  V30 2701 C 248.422 -1.85093 -0.58773 0
M  V30 2702 O 247.697 -1.3134 -1.43457 0
M  V30 2703 C 247.98 -3.29018 1.46353 0
M  V30 2704 C 247.833 -3.34718 3.00473 0
M  V30 2705 C 249.152 -4.25473 1.12519 0
M  V30 2706 H 246.271 -0.662492 0.322915 0
M  V30 2707 H 248.913 -1.2913 1.39375 0
M  V30 2708 H 247.063 -3.74576 1.03077 0
M  V30 2709 H 248.735 -2.97622 3.52447 0
M  V30 2710 H 246.978 -2.74541 3.35872 0
M  V30 2711 H 247.649 -4.37918 3.36053 0
M  V30 2712 H 250.125 -3.88161 1.499 0
M  V30 2713 H 249.001 -5.26365 1.55663 0
M  V30 2714 H 249.262 -4.42084 0.0377407 0
M  V30 2715 N 248.321 -0.919034 -1.28029 0
M  V30 2716 C 249.57 -0.550802 -1.94034 0
M  V30 2717 C 249.883 0.910877 -1.73096 0
M  V30 2718 O 251.089 1.3875 -2.33368 0
M  V30 2719 C 249.545 -0.934249 -3.47563 0
M  V30 2720 C 249.153 -2.41602 -3.7727 0
M  V30 2721 C 250.897 -0.636854 -4.19696 0
M  V30 2722 C 248.804 -2.73932 -5.24133 0
M  V30 2723 H 247.734 -0.202273 -0.726362 0
M  V30 2724 H 250.385 -1.11867 -1.45458 0
M  V30 2725 H 248.767 -0.295115 -3.94899 0
M  V30 2726 H 249.941 -3.10233 -3.40723 0
M  V30 2727 H 248.256 -2.68441 -3.18321 0
M  V30 2728 H 250.853 -0.855005 -5.2782 0
M  V30 2729 H 251.196 0.425575 -4.14119 0
M  V30 2730 H 251.729 -1.23469 -3.78154 0
M  V30 2731 H 248.468 -3.79049 -5.34792 0
M  V30 2732 H 247.988 -2.09942 -5.61858 0
M  V30 2733 H 249.667 -2.61215 -5.91925 0
M  V30 2734 N 249.799 1.42003 -0.683588 0
M  V30 2735 C 251.21 1.84501 -0.285736 0
M  V30 2736 C 251.561 1.57213 1.17382 0
M  V30 2737 O 250.686 1.03642 1.89966 0
M  V30 2738 C 251.281 3.34912 -0.511821 0
M  V30 2739 C 249.84 3.76025 -0.168005 0
M  V30 2740 C 248.987 2.6551 -0.799983 0
M  V30 2741 H 251.938 1.31724 -0.885119 0
M  V30 2742 H 251.959 3.79784 0.233292 0
M  V30 2743 H 251.471 3.54741 -1.57418 0
M  V30 2744 H 249.572 3.61801 0.890567 0
M  V30 2745 H 249.685 4.75141 -0.614661 0
M  V30 2746 H 248.049 2.53654 -0.230568 0
M  V30 2747 H 248.832 2.8816 -1.86597 0
M  V30 2748 N 251.277 0.427512 1.51691 0
M  V30 2749 C 252.21 -0.433876 2.24037 0
M  V30 2750 C 253.188 -1.03287 1.25581 0
M  V30 2751 O 254.372 -1.07722 1.54688 0
M  V30 2752 C 251.499 -1.60385 2.98319 0
M  V30 2753 C 250.545 -1.12648 4.11355 0
M  V30 2754 S 251.378 -0.076543 5.35445 0
M  V30 2755 C 252.534 -1.25141 6.13262 0
M  V30 2756 H 252.767 0.180367 2.96752 0
M  V30 2757 H 250.3 0.211946 1.52938 0
M  V30 2758 H 252.258 -2.27462 3.41718 0
M  V30 2759 H 250.919 -2.18948 2.25213 0
M  V30 2760 H 250.112 -2.0011 4.62571 0
M  V30 2761 H 249.714 -0.534088 3.70167 0
M  V30 2762 H 252.006 -2.17162 6.41753 0
M  V30 2763 H 252.949 -0.779411 7.03797 0
M  V30 2764 H 253.357 -1.48553 5.44603 0
M  V30 2765 N 252.755 -1.56801 0.158532 0
M  V30 2766 C 254.002 -1.9649 -0.489679 0
M  V30 2767 C 254.33 -1.04394 -1.6411 0
M  V30 2768 O 253.585 -0.0754401 -1.95555 0
M  V30 2769 C 253.884 -3.4235 -1.02623 0
M  V30 2770 C 253.55 -4.50899 0.00794526 0
M  V30 2771 C 252.212 -4.80312 0.292207 0
M  V30 2772 C 254.564 -5.16333 0.710584 0
M  V30 2773 C 251.892 -5.72461 1.28472 0
M  V30 2774 C 254.244 -6.09553 1.69199 0
M  V30 2775 C 252.908 -6.37339 1.98383 0
M  V30 2776 H 252.178 -0.719009 -0.179186 0
M  V30 2777 H 254.825 -1.8989 0.247798 0
M  V30 2778 H 253.13 -3.45838 -1.84128 0
M  V30 2779 H 254.827 -3.70393 -1.53656 0
M  V30 2780 H 251.417 -4.28015 -0.22379 0
M  V30 2781 H 255.601 -4.93732 0.504174 0
M  V30 2782 H 250.857 -5.92278 1.51714 0
M  V30 2783 H 255.031 -6.59327 2.24189 0
M  V30 2784 H 252.658 -7.08546 2.7544 0
M  V30 2785 N 254.233 0.115231 -1.57178 0
M  V30 2786 C 255.458 0.840354 -1.89612 0
M  V30 2787 C 255.883 1.72464 -0.750845 0
M  V30 2788 O 255.241 1.78826 0.298478 0
M  V30 2789 C 255.289 1.64654 -3.20814 0
M  V30 2790 O 254.393 2.7538 -3.06985 0
M  V30 2791 H 253.734 0.232158 -0.622092 0
M  V30 2792 H 256.264 0.0964977 -2.04372 0
M  V30 2793 H 256.274 2.03499 -3.53627 0
M  V30 2794 H 254.949 0.997416 -4.03763 0
M  V30 2795 H 253.526 2.3971 -2.85646 0
M  V30 2796 N 255.711 1.52812 0.385517 0
M  V30 2797 C 256.674 1.77188 1.45386 0
M  V30 2798 C 257.674 0.641953 1.4743 0
M  V30 2799 O 258.864 0.910033 1.4854 0
M  V30 2800 C 255.996 1.87582 2.8465 0
M  V30 2801 H 257.189 2.72583 1.25054 0
M  V30 2802 H 254.742 1.43586 0.617467 0
M  V30 2803 H 255.477 0.941849 3.10322 0
M  V30 2804 H 255.262 2.69748 2.84567 0
M  V30 2805 H 256.752 2.08102 3.62054 0
M  V30 2806 N 257.189 -0.644168 1.43834 0
M  V30 2807 C 258.119 -1.76814 1.52509 0
M  V30 2808 C 259.1 -1.65823 0.379052 0
M  V30 2809 O 260.285 -1.84781 0.597466 0
M  V30 2810 C 257.415 -3.15288 1.4564 0
M  V30 2811 C 256.369 -3.41053 2.58586 0
M  V30 2812 C 255.695 -4.79421 2.36769 0
M  V30 2813 C 256.995 -3.34902 4.00797 0
M  V30 2814 H 258.689 -1.69812 2.46586 0
M  V30 2815 H 256.235 -0.815542 1.1868 0
M  V30 2816 H 258.188 -3.93681 1.50311 0
M  V30 2817 H 256.912 -3.23043 0.480725 0
M  V30 2818 H 255.571 -2.65035 2.53282 0
M  V30 2819 H 255.219 -4.83863 1.37424 0
M  V30 2820 H 254.919 -4.9762 3.12487 0
M  V30 2821 H 256.443 -5.6006 2.43238 0
M  V30 2822 H 257.857 -4.03218 4.07539 0
M  V30 2823 H 256.254 -3.64637 4.76613 0
M  V30 2824 H 257.324 -2.32928 4.25291 0
M  V30 2825 N 258.668 -1.30515 -0.883378 0
M  V30 2826 C 259.893 -1.22487 -1.67367 0
M  V30 2827 C 260.318 0.208767 -1.86938 0
M  V30 2828 O 259.676 1.15015 -1.40148 0
M  V30 2829 C 259.724 -1.96041 -3.02655 0
M  V30 2830 O 258.828 -1.28859 -3.91751 0
M  V30 2831 H 258.169 -0.423573 -0.511353 0
M  V30 2832 H 260.699 -1.72362 -1.10239 0
M  V30 2833 H 260.709 -2.05124 -3.52687 0
M  V30 2834 H 259.384 -3.00307 -2.8773 0
M  V30 2835 H 257.961 -1.28141 -3.50192 0
M  V30 2836 N 260.146 1.09593 -1.13257 0
M  V30 2837 C 261.056 2.19739 -0.821691 0
M  V30 2838 C 262.072 1.72926 0.19302 0
M  V30 2839 O 263.248 2.01385 0.0244895 0
M  V30 2840 C 260.313 3.45482 -0.290333 0
M  V30 2841 C 259.374 4.06985 -1.36607 0
M  V30 2842 C 258.607 5.26726 -0.859975 0
M  V30 2843 O 258.83 5.69594 0.303082 0
M  V30 2844 O 257.764 5.7931 -1.63351 0
M  V30 2845 H 261.59 2.48781 -1.74189 0
M  V30 2846 H 259.175 1.18496 -0.909894 0
M  V30 2847 H 261.057 4.214 0.000674022 0
M  V30 2848 H 259.732 3.18047 0.602306 0
M  V30 2849 H 258.639 3.32712 -1.71037 0
M  V30 2850 H 259.972 4.38643 -2.23279 0
M  V30 2851 N 261.624 0.925811 1.2754 0
M  V30 2852 C 262.872 0.564138 1.94067 0
M  V30 2853 C 263.193 -0.897188 1.73134 0
M  V30 2854 O 262.463 -1.63573 1.07799 0
M  V30 2855 H 261.043 0.205645 0.718136 0
M  V30 2856 H 263.705 1.1778 1.55287 0
M  V30 2857 H 262.801 0.76881 3.02483 0
M  V30 2858 N 263.102 -1.41638 0.69111 0
M  V30 2859 C 264.065 -2.29178 0.0319786 0
M  V30 2860 C 265.065 -1.44153 -0.712496 0
M  V30 2861 O 266.255 -1.65354 -0.548053 0
M  V30 2862 C 263.387 -3.26952 -0.965161 0
M  V30 2863 H 264.58 -2.88959 0.802681 0
M  V30 2864 H 262.133 -1.4955 0.454356 0
M  V30 2865 H 262.868 -2.72142 -1.76378 0
M  V30 2866 H 262.653 -3.89685 -0.434522 0
M  V30 2867 H 264.143 -3.92561 -1.42428 0
M  V30 2868 N 264.58 -0.43555 -1.51462 0
M  V30 2869 C 265.808 0.130242 -2.0649 0
M  V30 2870 C 266.223 1.36614 -1.30315 0
M  V30 2871 O 265.58 1.78869 -0.362223 0
M  V30 2872 C 265.631 0.454253 -3.58635 0
M  V30 2873 O 265.352 -0.73259 -4.31931 0
M  V30 2874 C 266.853 1.07091 -4.3017 0
M  V30 2875 H 264.073 0.00871669 -0.670943 0
M  V30 2876 H 266.617 -0.614117 -1.95061 0
M  V30 2877 H 264.772 1.14851 -3.69984 0
M  V30 2878 H 265.186 -0.455787 -5.22516 0
M  V30 2879 H 266.66 1.24764 -5.37716 0
M  V30 2880 H 267.137 2.05144 -3.88346 0
M  V30 2881 H 267.743 0.416089 -4.2326 0
M  V30 2882 N 266.058 1.56714 -0.166846 0
M  V30 2883 C 267.469 1.83378 0.350646 0
M  V30 2884 C 267.82 1.08646 1.63372 0
M  V30 2885 O 266.945 0.338058 2.13743 0
M  V30 2886 C 267.54 3.32643 0.642963 0
M  V30 2887 C 266.099 3.59818 1.10491 0
M  V30 2888 C 265.246 2.76954 0.138411 0
M  V30 2889 H 268.197 1.53803 -0.391193 0
M  V30 2890 H 268.218 3.49878 1.49551 0
M  V30 2891 H 267.73 3.87007 -0.291055 0
M  V30 2892 H 265.831 3.1086 2.05418 0
M  V30 2893 H 265.944 4.68178 1.01716 0
M  V30 2894 H 264.308 2.4666 0.634911 0
M  V30 2895 H 265.091 3.34097 -0.789549 0
M  V30 2896 N 267.536 -0.106894 1.57237 0
M  V30 2897 C 268.468 -1.15646 1.97885 0
M  V30 2898 C 269.481 -1.36981 0.879779 0
M  V30 2899 O 270.67 -1.35841 1.15799 0
M  V30 2900 C 267.77 -2.51425 2.27241 0
M  V30 2901 C 266.943 -2.50529 3.58545 0
M  V30 2902 C 266.002 -3.68145 3.75973 0
M  V30 2903 O 265.028 -3.51176 4.47956 0
M  V30 2904 N 266.23 -4.87177 3.15656 0
M  V30 2905 H 268.995 -0.81059 2.8853 0
M  V30 2906 H 266.556 -0.296024 1.59171 0
M  V30 2907 H 268.548 -3.28689 2.36105 0
M  V30 2908 H 267.118 -2.78147 1.42663 0
M  V30 2909 H 266.338 -1.58894 3.60758 0
M  V30 2910 H 267.626 -2.46997 4.44826 0
M  V30 2911 H 267.024 -5.03868 2.57165 0
M  V30 2912 H 265.581 -5.62075 3.30023 0
M  V30 2913 N 269.014 -1.53014 -0.377408 0
M  V30 2914 C 270.291 -1.59215 -1.13622 0
M  V30 2915 C 270.671 -0.392407 -2.07421 0
M  V30 2916 O 270.019 0.618342 -2.19975 0
M  V30 2917 C 270.229 -2.93669 -1.88573 0
M  V30 2918 C 271.577 -3.47822 -2.43526 0
M  V30 2919 O 272.601 -2.9562 -1.98715 0
M  V30 2920 O 271.46 -4.39055 -3.25412 0
M  V30 2921 H 268.554 -0.642625 -0.52054 0
M  V30 2922 H 271.1 -1.65353 -0.381625 0
M  V30 2923 H 269.872 -3.7243 -1.20048 0
M  V30 2924 H 269.495 -2.90968 -2.70968 0
M  V30 2925 N 270.492 0.636531 -1.44174 0
M  V30 2926 C 271.422 1.76003 -1.53444 0
M  V30 2927 C 272.403 1.65619 -0.387841 0
M  V30 2928 O 273.588 1.84461 -0.607257 0
M  V30 2929 C 270.718 3.14511 -1.4731 0
M  V30 2930 C 269.672 3.39677 -2.60391 0
M  V30 2931 C 268.998 4.78159 -2.39308 0
M  V30 2932 C 270.298 3.32772 -4.02567 0
M  V30 2933 H 271.992 1.68501 -2.47483 0
M  V30 2934 H 269.538 0.809237 -1.19111 0
M  V30 2935 H 271.491 3.92878 -1.52397 0
M  V30 2936 H 270.215 3.22783 -0.49785 0
M  V30 2937 H 268.874 2.63688 -2.54684 0
M  V30 2938 H 268.522 4.83128 -1.39988 0
M  V30 2939 H 268.222 4.95956 -3.15122 0
M  V30 2940 H 269.746 5.58762 -2.46205 0
M  V30 2941 H 271.16 4.01051 -4.09672 0
M  V30 2942 H 269.557 3.62104 -4.7854 0
M  V30 2943 H 270.627 2.30669 -4.2652 0
M  V30 2944 N 271.97 1.30982 0.876444 0
M  V30 2945 C 272.918 1.18006 2.00443 0
M  V30 2946 C 273.912 0.0898871 1.69161 0
M  V30 2947 O 275.118 0.251333 1.78237 0
M  V30 2948 H 271.493 0.365196 0.65737 0
M  V30 2949 H 273.464 2.13453 2.0852 0
M  V30 2950 C 272.213 0.897521 3.35916 0
M  V30 2951 H 271.536 1.7285 3.60504 0
M  V30 2952 H 272.976 0.846874 4.15456 0
M  V30 2953 C 271.435 -0.399674 3.34521 0
M  V30 2954 O 271.965 -1.41852 3.7582 0
M  V30 2955 N 270.171 -0.413893 2.87637 0
M  V30 2956 H 269.718 0.41571 2.54224 0
M  V30 2957 H 269.676 -1.28175 2.87086 0
M  V30 2958 N 273.449 -1.08991 1.13837 0
M  V30 2959 C 274.412 -2.13925 0.822715 0
M  V30 2960 C 275.412 -1.599 -0.1699 0
M  V30 2961 O 276.602 -1.74104 0.0577251 0
M  V30 2962 C 273.734 -3.40155 0.225318 0
M  V30 2963 H 274.927 -2.43358 1.75262 0
M  V30 2964 H 272.48 -1.24603 0.943594 0
M  V30 2965 H 273.215 -3.16352 -0.713594 0
M  V30 2966 H 273 -3.80661 0.940193 0
M  V30 2967 H 274.49 -4.17594 0.0214784 0
M  V30 2968 N 274.927 -0.932562 -1.27047 0
M  V30 2969 C 275.86 -0.379774 -2.25018 0
M  V30 2970 C 276.838 0.526587 -1.53837 0
M  V30 2971 O 278.022 0.465992 -1.82649 0
M  V30 2972 C 275.149 0.455187 -3.35627 0
M  V30 2973 C 274.195 -0.388428 -4.24728 0
M  V30 2974 S 275.028 -1.80701 -5.04091 0
M  V30 2975 C 276.184 -0.979865 -6.18182 0
M  V30 2976 H 276.417 -1.2101 -2.71558 0
M  V30 2977 H 273.95 -0.735078 -1.35779 0
M  V30 2978 H 275.908 0.931052 -3.99802 0
M  V30 2979 H 274.569 1.26009 -2.87716 0
M  V30 2980 H 273.762 0.25089 -5.03375 0
M  V30 2981 H 273.364 -0.798649 -3.65373 0
M  V30 2982 H 275.656 -0.218115 -6.77149 0
M  V30 2983 H 276.599 -1.73951 -6.86401 0
M  V30 2984 H 277.007 -0.51973 -5.62102 0
M  V30 2985 N 276.405 1.4127 -0.698611 0
M  V30 2986 C 277.335 2.33447 -0.049629 0
M  V30 2987 C 278.316 1.51982 0.763898 0
M  V30 2988 O 279.501 1.80509 0.716257 0
M  V30 2989 C 276.631 3.35828 0.885267 0
M  V30 2990 C 275.585 4.27627 0.178613 0
M  V30 2991 C 274.911 5.20406 1.22807 0
M  V30 2992 C 276.211 5.13459 -0.956933 0
M  V30 2993 H 277.905 2.87966 -0.81951 0
M  V30 2994 H 275.451 1.38461 -0.395538 0
M  V30 2995 H 277.404 3.9924 1.34854 0
M  V30 2996 H 276.128 2.79666 1.68685 0
M  V30 2997 H 274.787 3.65643 -0.26466 0
M  V30 2998 H 274.435 4.60558 2.02226 0
M  V30 2999 H 274.135 5.82661 0.760239 0
M  V30 3000 H 275.659 5.86695 1.69179 0
M  V30 3001 H 277.073 5.70421 -0.573805 0
M  V30 3002 H 275.47 5.8467 -1.35205 0
M  V30 3003 H 276.54 4.50443 -1.79524 0
M  V30 3004 N 277.883 0.443576 1.51229 0
M  V30 3005 C 278.831 -0.37904 2.29491 0
M  V30 3006 C 279.825 -1.0153 1.35603 0
M  V30 3007 O 281.031 -0.94955 1.52917 0
M  V30 3008 H 277.406 -0.141053 0.738653 0
M  V30 3009 H 279.377 0.301799 2.9687 0
M  V30 3010 C 278.126 -1.46426 3.15364 0
M  V30 3011 H 277.449 -0.984037 3.87501 0
M  V30 3012 H 278.889 -2.01297 3.7317 0
M  V30 3013 C 277.348 -2.45099 2.31146 0
M  V30 3014 O 277.878 -3.49773 1.9754 0
M  V30 3015 N 276.084 -2.16139 1.94249 0
M  V30 3016 H 275.631 -1.31044 2.21777 0
M  V30 3017 H 275.589 -2.82398 1.38198 0
M  V30 3018 N 279.361 -1.56624 0.175154 0
M  V30 3019 C 280.589 -2.01374 -0.474971 0
M  V30 3020 C 281.004 -1.05537 -1.56548 0
M  V30 3021 O 280.361 -0.0568668 -1.82411 0
M  V30 3022 C 280.412 -3.45923 -1.04975 0
M  V30 3023 O 280.133 -4.381 -0.00276605 0
M  V30 3024 C 281.634 -4.06093 -1.77773 0
M  V30 3025 H 278.854 -0.659962 -0.121206 0
M  V30 3026 H 281.398 -2.02601 0.27801 0
M  V30 3027 H 279.553 -3.45458 -1.75321 0
M  V30 3028 H 279.967 -5.22753 -0.427681 0
M  V30 3029 H 281.441 -5.09147 -2.13245 0
M  V30 3030 H 281.918 -3.48405 -2.67414 0
M  V30 3031 H 282.524 -4.10272 -1.12059 0
M  V30 3032 N 280.839 0.0985539 -1.57292 0
M  V30 3033 C 282.085 0.803867 -1.86188 0
M  V30 3034 C 282.418 1.78549 -0.763794 0
M  V30 3035 O 281.693 1.93153 0.22855 0
M  V30 3036 C 281.976 1.53568 -3.25713 0
M  V30 3037 C 281.829 0.572277 -4.46145 0
M  V30 3038 C 283.148 2.48708 -3.63087 0
M  V30 3039 H 280.267 0.290781 -0.677211 0
M  V30 3040 H 282.909 0.0675783 -1.8988 0
M  V30 3041 H 281.059 2.16332 -3.22696 0
M  V30 3042 H 282.731 -0.0480894 -4.61275 0
M  V30 3043 H 280.974 -0.114618 -4.33649 0
M  V30 3044 H 281.645 1.12139 -5.40489 0
M  V30 3045 H 284.121 1.96039 -3.67026 0
M  V30 3046 H 282.997 2.96932 -4.61652 0
M  V30 3047 H 283.258 3.32309 -2.91588 0
M  V30 3048 N 282.317 1.53212 0.369288 0
M  V30 3049 C 283.565 1.68881 1.11012 0
M  V30 3050 C 283.886 0.441285 1.89941 0
M  V30 3051 O 283.156 -0.544623 1.88177 0
M  V30 3052 H 281.736 0.622569 0.412816 0
M  V30 3053 H 284.398 1.90391 0.416802 0
M  V30 3054 H 283.494 2.54822 1.80201 0
M  V30 3055 N 283.795 -0.628877 1.44509 0
M  V30 3056 C 285.043 -1.38565 1.4712 0
M  V30 3057 C 285.364 -1.94712 0.105899 0
M  V30 3058 O 284.634 -1.75912 -0.862079 0
M  V30 3059 H 283.214 -0.514333 0.541729 0
M  V30 3060 H 285.876 -0.740018 1.80305 0
M  V30 3061 H 284.972 -2.21583 2.19789 0
M  V30 3062 N 285.273 -1.31445 -0.869486 0
M  V30 3063 C 286.223 -1.15731 -1.96444 0
M  V30 3064 C 287.207 -0.0681855 -1.60755 0
M  V30 3065 O 288.399 -0.293154 -1.74555 0
M  V30 3066 C 285.528 -0.867255 -3.32165 0
M  V30 3067 C 284.614 -1.99738 -3.74119 0
M  V30 3068 N 285.005 -3.24447 -3.88031 0
M  V30 3069 C 283.303 -1.89723 -4.03635 0
M  V30 3070 C 284.004 -3.98374 -4.23879 0
M  V30 3071 N 282.98 -3.26547 -4.3459 0
M  V30 3072 H 286.782 -2.10296 -2.05312 0
M  V30 3073 H 284.296 -1.23009 -1.06031 0
M  V30 3074 H 286.293 -0.735668 -4.10358 0
M  V30 3075 H 284.953 0.0701614 -3.24624 0
M  V30 3076 H 285.964 -3.59557 -3.72746 0
M  V30 3077 H 282.641 -1.03449 -4.04481 0
M  V30 3078 H 284.031 -5.05844 -4.42235 0
M  V30 3079 N 286.751 1.08385 -1.14413 0
M  V30 3080 C 287.683 2.1519 -0.789036 0
M  V30 3081 C 288.696 1.61638 0.19417 0
M  V30 3082 O 289.885 1.78479 -0.0275711 0
M  V30 3083 C 286.985 3.38565 -0.15058 0
M  V30 3084 C 286.158 4.21501 -1.16857 0
M  V30 3085 C 285.217 5.23277 -0.553832 0
M  V30 3086 O 284.243 5.56041 -1.21686 0
M  V30 3087 N 285.445 5.76629 0.669296 0
M  V30 3088 H 288.21 2.46257 -1.70814 0
M  V30 3089 H 285.771 1.24198 -1.03858 0
M  V30 3090 H 287.763 4.03777 0.273181 0
M  V30 3091 H 286.333 3.05299 0.671667 0
M  V30 3092 H 285.553 3.52265 -1.76926 0
M  V30 3093 H 286.841 4.73731 -1.85624 0
M  V30 3094 H 286.239 5.52243 1.22654 0
M  V30 3095 H 284.796 6.43521 1.03556 0
M  V30 3096 N 288.23 0.939286 1.26551 0
M  V30 3097 C 289.193 0.451987 2.24699 0
M  V30 3098 C 290.193 -0.435869 1.5478 0
M  V30 3099 O 291.383 -0.235314 1.72603 0
M  V30 3100 C 288.515 -0.348801 3.39111 0
M  V30 3101 H 289.708 1.3193 2.69322 0
M  V30 3102 H 287.261 0.721072 1.38673 0
M  V30 3103 H 287.996 -1.23444 2.99887 0
M  V30 3104 H 287.781 0.287945 3.91041 0
M  V30 3105 H 289.271 -0.679726 4.12031 0
M  V30 3106 N 289.708 -1.40897 0.706093 0
M  V30 3107 C 290.671 -2.29131 0.0562841 0
M  V30 3108 C 291.671 -1.44901 -0.697166 0
M  V30 3109 O 292.861 -1.65926 -0.530484 0
M  V30 3110 C 289.993 -3.27957 -0.93043 0
M  V30 3111 H 291.186 -2.88091 0.833284 0
M  V30 3112 H 288.739 -1.4906 0.470192 0
M  V30 3113 H 289.474 -2.73997 -1.73482 0
M  V30 3114 H 289.259 -3.90124 -0.393166 0
M  V30 3115 H 290.749 -3.94049 -1.38256 0
M  V30 3116 N 291.186 -0.45159 -1.50991 0
M  V30 3117 C 292.119 0.398179 -2.24699 0
M  V30 3118 C 293.097 1.01276 -1.27208 0
M  V30 3119 O 294.281 1.05247 -1.56382 0
M  V30 3120 C 291.408 1.55618 -3.00833 0
M  V30 3121 C 290.454 1.0609 -4.13095 0
M  V30 3122 S 291.287 -0.00865136 -5.35499 0
M  V30 3123 C 292.443 1.15369 -6.15175 0
M  V30 3124 H 292.676 -0.227555 -2.96428 0
M  V30 3125 H 290.209 -0.236251 -1.52582 0
M  V30 3126 H 292.167 2.21997 -3.45293 0
M  V30 3127 H 290.828 2.15337 -2.28667 0
M  V30 3128 H 290.021 1.92726 -4.65696 0
M  V30 3129 H 289.623 0.47513 -3.7097 0
M  V30 3130 H 291.915 2.06925 -6.45126 0
M  V30 3131 H 292.858 0.667344 -7.04948 0
M  V30 3132 H 293.266 1.3987 -5.46897 0
M  V30 3133 N 292.664 1.56529 -0.183458 0
M  V30 3134 C 293.596 2.15747 0.773697 0
M  V30 3135 C 294.609 1.1162 1.1851 0
M  V30 3136 O 295.798 1.3876 1.12285 0
M  V30 3137 C 292.898 2.6952 2.05456 0
M  V30 3138 C 292.071 3.98429 1.8048 0
M  V30 3139 C 291.13 4.37145 2.92901 0
M  V30 3140 O 290.156 5.04791 2.6301 0
M  V30 3141 N 291.358 3.99695 4.2098 0
M  V30 3142 H 294.123 2.98505 0.26736 0
M  V30 3143 H 291.684 1.619 -0.0010878 0
M  V30 3144 H 293.676 2.92412 2.79781 0
M  V30 3145 H 292.246 1.91282 2.47245 0
M  V30 3146 H 291.466 3.8379 0.899947 0
M  V30 3147 H 292.754 4.82597 1.61175 0
M  V30 3148 H 292.152 3.4526 4.48121 0
M  V30 3149 H 290.709 4.27562 4.9197 0
M  V30 3150 N 294.142 -0.090211 1.57342 0
M  V30 3151 C 295.075 -1.14035 1.97664 0
M  V30 3152 C 296.053 -1.38576 0.850616 0
M  V30 3153 O 297.237 -1.52255 1.11134 0
M  V30 3154 C 294.364 -2.48854 2.2976 0
M  V30 3155 C 293.41 -2.40564 3.52181 0
M  V30 3156 S 294.243 -1.81745 5.03715 0
M  V30 3157 C 295.399 -3.18178 5.38993 0
M  V30 3158 H 295.632 -0.796636 2.86428 0
M  V30 3159 H 293.165 -0.298072 1.51496 0
M  V30 3160 H 295.123 -3.26413 2.48927 0
M  V30 3161 H 293.784 -2.80393 1.41558 0
M  V30 3162 H 292.977 -3.39942 3.72096 0
M  V30 3163 H 292.579 -1.71135 3.32549 0
M  V30 3164 H 294.871 -4.14461 5.35937 0
M  V30 3165 H 295.814 -3.03062 6.39968 0
M  V30 3166 H 296.222 -3.17935 4.66452 0
M  V30 3167 N 295.62 -1.53406 -0.361157 0
M  V30 3168 C 296.55 -1.83136 -1.44857 0
M  V30 3169 C 297.531 -0.685174 -1.5569 0
M  V30 3170 O 298.716 -0.93544 -1.70186 0
M  V30 3171 C 295.846 -2.02522 -2.82138 0
M  V30 3172 C 294.8 -3.18302 -2.86126 0
M  V30 3173 C 294.126 -3.22989 -4.26125 0
M  V30 3174 C 295.426 -4.56796 -2.53248 0
M  V30 3175 H 297.12 -2.74201 -1.20226 0
M  V30 3176 H 294.666 -1.31938 -0.576922 0
M  V30 3177 H 296.619 -2.21904 -3.58241 0
M  V30 3178 H 295.343 -1.08172 -3.08166 0
M  V30 3179 H 294.002 -2.98747 -2.12475 0
M  V30 3180 H 293.65 -2.26267 -4.49235 0
M  V30 3181 H 293.35 -4.00781 -4.29708 0
M  V30 3182 H 294.874 -3.44559 -5.04094 0
M  V30 3183 H 296.288 -4.7631 -3.19064 0
M  V30 3184 H 294.685 -5.36862 -2.68141 0
M  V30 3185 H 295.755 -4.61606 -1.48484 0
M  V30 3186 N 297.098 0.621204 -1.44841 0
M  V30 3187 C 298.045 1.73267 -1.5247 0
M  V30 3188 C 299.015 1.6189 -0.371611 0
M  V30 3189 O 300.2 1.81668 -0.58321 0
M  V30 3190 C 297.34 3.11545 -1.48438 0
M  V30 3191 C 296.453 3.33827 -2.74196 0
M  V30 3192 C 295.588 4.62133 -2.61929 0
M  V30 3193 C 294.627 4.77627 -3.82804 0
M  V30 3194 N 293.764 5.97219 -3.69153 0
M  V30 3195 H 298.604 1.66082 -2.47428 0
M  V30 3196 H 296.141 0.810026 -1.22788 0
M  V30 3197 H 298.099 3.91528 -1.4409 0
M  V30 3198 H 296.729 3.1772 -0.570402 0
M  V30 3199 H 295.781 2.47715 -2.88689 0
M  V30 3200 H 297.093 3.41153 -3.6389 0
M  V30 3201 H 296.247 5.50291 -2.5547 0
M  V30 3202 H 294.986 4.57182 -1.69811 0
M  V30 3203 H 293.991 3.87896 -3.89637 0
M  V30 3204 H 295.216 4.84385 -4.75971 0
M  V30 3205 H 293.162 5.93339 -2.79794 0
M  V30 3206 H 293.079 6.05644 -4.52472 0
M  V30 3207 H 294.347 6.87912 -3.66603 0
M  V30 3208 N 298.576 1.31904 0.862503 0
M  V30 3209 C 299.853 1.12644 1.59908 0
M  V30 3210 C 300.233 -0.316104 2.0872 0
M  V30 3211 O 299.581 -1.31145 1.87118 0
M  V30 3212 C 299.791 2.1472 2.7513 0
M  V30 3213 C 301.139 2.47637 3.44907 0
M  V30 3214 O 302.163 2.13205 2.85346 0
M  V30 3215 O 301.022 3.06632 4.52371 0
M  V30 3216 H 298.116 0.43416 0.703871 0
M  V30 3217 H 300.662 1.43408 0.907314 0
M  V30 3218 H 299.434 3.1172 2.3653 0
M  V30 3219 H 299.057 1.84905 3.51989 0
M  V30 3220 N 300.054 -1.07777 1.14986 0
M  V30 3221 C 301.282 -1.84018 0.945773 0
M  V30 3222 C 301.697 -1.81897 -0.505863 0
M  V30 3223 O 301.054 -1.22726 -1.35072 0
M  V30 3224 C 301.105 -3.31287 1.44677 0
M  V30 3225 O 300.826 -3.33449 2.84154 0
M  V30 3226 C 302.327 -4.24311 1.28355 0
M  V30 3227 H 299.547 -0.580716 0.336169 0
M  V30 3228 H 302.091 -1.36077 1.52654 0
M  V30 3229 H 300.246 -3.76594 0.908625 0
M  V30 3230 H 300.66 -4.25427 3.06777 0
M  V30 3231 H 302.134 -5.2573 1.68261 0
M  V30 3232 H 302.611 -4.38612 0.227184 0
M  V30 3233 H 303.217 -3.84836 1.81056 0
M  V30 3234 N 301.532 -0.945985 -1.26051 0
M  V30 3235 C 302.781 -0.591836 -1.92822 0
M  V30 3236 C 303.094 0.873956 -1.7499 0
M  V30 3237 O 304.3 1.33769 -2.36259 0
M  V30 3238 C 302.756 -1.00776 -3.45503 0
M  V30 3239 C 302.364 -2.4955 -3.7206 0
M  V30 3240 C 304.108 -0.725735 -4.1825 0
M  V30 3241 C 302.015 -2.84988 -5.18205 0
M  V30 3242 H 300.945 -0.217635 -0.721908 0
M  V30 3243 H 303.596 -1.14927 -1.43052 0
M  V30 3244 H 301.978 -0.378812 -3.94184 0
M  V30 3245 H 303.152 -3.1739 -3.34066 0
M  V30 3246 H 301.467 -2.75133 -3.12555 0
M  V30 3247 H 304.064 -0.966771 -5.25887 0
M  V30 3248 H 304.407 0.337639 -4.14929 0
M  V30 3249 H 304.94 -1.31463 -3.7545 0
M  V30 3250 H 301.679 -3.90307 -5.26631 0
M  V30 3251 H 301.199 -2.21813 -5.57278 0
M  V30 3252 H 302.878 -2.73712 -5.86252 0
M  V30 3253 N 303.011 1.40521 -0.713556 0
M  V30 3254 C 303.959 2.32549 -0.0485227 0
M  V30 3255 C 304.953 1.51931 0.74922 0
M  V30 3256 O 306.159 1.67745 0.652816 0
M  V30 3257 H 302.534 0.751994 0.00311138 0
M  V30 3258 H 304.505 2.86291 -0.841443 0
M  V30 3259 C 303.254 3.36879 0.860687 0
M  V30 3260 H 302.577 3.98978 0.256246 0
M  V30 3261 H 304.017 4.03772 1.294 0
M  V30 3262 C 302.476 2.72197 1.9852 0
M  V30 3263 O 303.006 2.5837 3.07584 0
M  V30 3264 N 301.212 2.30612 1.76823 0
M  V30 3265 H 300.759 2.42059 0.881217 0
M  V30 3266 H 300.717 1.87672 2.52243 0
M  V30 3267 N 304.489 0.459591 1.5075 0
M  V30 3268 C 305.399 -0.34613 2.32033 0
M  V30 3269 C 306.415 -1.00686 1.41909 0
M  V30 3270 O 307.591 -0.997361 1.7497 0
M  V30 3271 C 304.656 -1.42029 3.16273 0
M  V30 3272 C 303.717 -0.777362 4.22203 0
M  V30 3273 C 302.95 -1.80034 5.02418 0
M  V30 3274 O 303.173 -3.02544 4.83553 0
M  V30 3275 O 302.107 -1.37853 5.85901 0
M  V30 3276 H 305.933 0.318054 3.0203 0
M  V30 3277 H 303.518 0.221663 1.47746 0
M  V30 3278 H 305.4 -2.04275 3.68578 0
M  V30 3279 H 304.075 -2.06815 2.49016 0
M  V30 3280 H 302.982 -0.116256 3.73919 0
M  V30 3281 H 304.315 -0.172634 4.91897 0
M  V30 3282 N 305.967 -1.56429 0.191757 0
M  V30 3283 C 306.877 -2.22541 -0.742481 0
M  V30 3284 C 307.893 -1.22342 -1.23727 0
M  V30 3285 O 309.069 -1.55069 -1.28513 0
M  V30 3286 C 306.134 -2.8692 -1.94623 0
M  V30 3287 C 305.195 -4.02378 -1.49633 0
M  V30 3288 C 304.428 -4.63678 -2.6427 0
M  V30 3289 O 304.651 -4.23895 -3.81666 0
M  V30 3290 O 303.585 -5.53202 -2.37174 0
M  V30 3291 H 307.411 -3.02977 -0.209462 0
M  V30 3292 H 304.996 -1.49353 -0.0373832 0
M  V30 3293 H 306.878 -3.27663 -2.64982 0
M  V30 3294 H 305.553 -2.09466 -2.46791 0
M  V30 3295 H 304.46 -3.66265 -0.761636 0
M  V30 3296 H 305.793 -4.81487 -1.02134 0
M  V30 3297 N 307.445 0.0818655 -1.57387 0
M  V30 3298 C 308.408 1.08265 -2.02018 0
M  V30 3299 C 309.408 1.32183 -0.915664 0
M  V30 3300 O 310.598 1.28073 -1.18081 0
M  V30 3301 C 307.73 2.42871 -2.39221 0
M  V30 3302 H 308.923 0.698204 -2.91659 0
M  V30 3303 H 306.476 0.327303 -1.52835 0
M  V30 3304 H 307.211 2.86167 -1.52575 0
M  V30 3305 H 306.996 2.26855 -3.19811 0
M  V30 3306 H 308.486 3.14826 -2.74362 0
M  V30 3307 N 308.923 1.53595 0.353017 0
M  V30 3308 C 309.886 1.80232 1.41594 0
M  V30 3309 C 310.886 0.673081 1.46035 0
M  V30 3310 O 312.076 0.941335 1.46576 0
M  V30 3311 C 309.208 1.93578 2.80607 0
M  V30 3312 H 310.401 2.75174 1.19244 0
M  V30 3313 H 307.954 1.44864 0.586872 0
M  V30 3314 H 308.689 1.00746 3.08254 0
M  V30 3315 H 308.474 2.75724 2.78781 0
M  V30 3316 H 309.964 2.15735 3.57558 0
M  V30 3317 N 310.401 -0.613514 1.45168 0
M  V30 3318 C 311.311 -1.75296 1.55912 0
M  V30 3319 C 312.327 -1.68244 0.443856 0
M  V30 3320 O 313.503 -1.88706 0.70371 0
M  V30 3321 C 310.568 -3.1174 1.5172 0
M  V30 3322 C 309.629 -3.30291 2.74238 0
M  V30 3323 C 308.862 -4.60226 2.70236 0
M  V30 3324 O 309.085 -5.42168 1.77229 0
M  V30 3325 O 308.019 -4.81361 3.61352 0
M  V30 3326 H 311.845 -1.69183 2.52212 0
M  V30 3327 H 309.43 -0.776886 1.27612 0
M  V30 3328 H 311.312 -3.93044 1.51968 0
M  V30 3329 H 309.987 -3.18357 0.585697 0
M  V30 3330 H 308.894 -2.48598 2.79553 0
M  V30 3331 H 310.227 -3.28547 3.66494 0
M  V30 3332 N 311.879 -1.3236 -0.855495 0
M  V30 3333 C 313.125 -1.24064 -1.61182 0
M  V30 3334 C 313.48 0.195914 -1.914 0
M  V30 3335 O 312.773 1.13345 -1.54478 0
M  V30 3336 C 312.967 -2.03275 -2.93963 0
M  V30 3337 C 312.796 -3.54486 -2.76712 0
M  V30 3338 C 311.566 -4.23824 -2.75139 0
M  V30 3339 C 313.764 -4.49154 -2.50531 0
M  V30 3340 N 311.746 -5.61095 -2.4909 0
M  V30 3341 C 313.117 -5.74195 -2.3388 0
M  V30 3342 C 315.172 -4.3842 -2.35992 0
M  V30 3343 C 313.875 -6.89716 -2.04168 0
M  V30 3344 C 315.901 -5.53739 -2.0767 0
M  V30 3345 C 315.263 -6.77779 -1.9182 0
M  V30 3346 H 311.362 -0.509139 -0.59355 0
M  V30 3347 H 313.946 -1.66715 -1.00569 0
M  V30 3348 H 312.117 -1.6297 -3.52555 0
M  V30 3349 H 313.849 -1.86881 -3.58967 0
M  V30 3350 H 310.604 -3.75934 -2.88047 0
M  V30 3351 H 311.028 -6.33411 -2.38996 0
M  V30 3352 H 315.67 -3.43172 -2.46967 0
M  V30 3353 H 313.388 -7.84977 -1.9193 0
M  V30 3354 H 316.974 -5.4736 -1.97201 0
M  V30 3355 H 315.854 -7.65504 -1.70217 0
M  V30 3356 N 313.357 1.07166 -1.15556 0
M  V30 3357 C 314.634 1.76546 -0.842069 0
M  V30 3358 C 315.014 2.00453 0.661939 0
M  V30 3359 O 314.362 1.62452 1.60691 0
M  V30 3360 C 314.572 3.07266 -1.65495 0
M  V30 3361 C 315.92 3.81578 -1.86234 0
M  V30 3362 O 316.944 3.17083 -1.62287 0
M  V30 3363 O 315.803 4.97419 -2.26355 0
M  V30 3364 H 312.897 0.766756 -0.309862 0
M  V30 3365 H 315.443 1.13514 -1.26145 0
M  V30 3366 H 314.215 2.85494 -2.67598 0
M  V30 3367 H 313.838 3.7803 -1.23203 0
M  V30 3368 N 314.835 0.952656 1.25548 0
M  V30 3369 C 316.251 0.656769 1.4546 0
M  V30 3370 C 316.451 -0.78633 1.85524 0
M  V30 3371 O 315.507 -1.56183 1.98402 0
M  V30 3372 C 316.82 1.62801 2.52817 0
M  V30 3373 C 318.368 1.63897 2.66659 0
M  V30 3374 C 318.843 2.5978 3.77198 0
M  V30 3375 N 320.334 2.58133 3.84606 0
M  V30 3376 C 321.069 3.29003 4.69621 0
M  V30 3377 N 320.565 4.09339 5.58939 0
M  V30 3378 N 322.358 3.179 4.63569 0
M  V30 3379 H 314.509 1.88526 0.978344 0
M  V30 3380 H 316.772 0.810815 0.491206 0
M  V30 3381 H 316.478 2.65869 2.30232 0
M  V30 3382 H 316.352 1.38898 3.50695 0
M  V30 3383 H 318.739 0.615481 2.8861 0
M  V30 3384 H 318.82 1.91858 1.69187 0
M  V30 3385 H 318.464 3.62254 3.55997 0
M  V30 3386 H 318.394 2.29105 4.7415 0
M  V30 3387 H 320.885 1.99809 3.20757 0
M  V30 3388 H 321.198 4.6034 6.20731 0
M  V30 3389 H 319.543 4.13438 5.58654 0
M  V30 3390 H 322.734 2.54612 3.92798 0
M  V30 3391 H 322.907 3.73398 5.29602 0
M  V30 3392 N 316.313 -1.40141 0.720998 0
M  V30 3393 C 317.559 -2.01084 0.263231 0
M  V30 3394 C 317.892 -1.57052 -1.14229 0
M  V30 3395 O 317.167 -0.793027 -1.77599 0
M  V30 3396 C 317.45 -3.58401 0.349344 0
M  V30 3397 C 317.303 -4.12491 1.79363 0
M  V30 3398 C 318.622 -4.39231 -0.276351 0
M  V30 3399 H 315.741 -0.730572 0.0971228 0
M  V30 3400 H 318.383 -1.66543 0.914518 0
M  V30 3401 H 316.533 -3.87958 -0.205165 0
M  V30 3402 H 318.205 -3.93711 2.40394 0
M  V30 3403 H 316.448 -3.66576 2.31958 0
M  V30 3404 H 317.119 -5.21646 1.80524 0
M  V30 3405 H 319.595 -4.15637 0.196184 0
M  V30 3406 H 318.471 -5.48586 -0.185681 0
M  V30 3407 H 318.732 -4.20643 -1.36059 0
M  V30 3408 N 317.792 -0.46758 -1.50504 0
M  V30 3409 C 318.742 0.34698 -2.25344 0
M  V30 3410 C 319.726 0.964469 -1.2879 0
M  V30 3411 O 320.918 0.8776 -1.53711 0
M  V30 3412 C 318.047 1.43042 -3.1208 0
M  V30 3413 C 317.133 0.82084 -4.16081 0
M  V30 3414 N 317.524 -0.0567602 -5.05768 0
M  V30 3415 C 315.822 1.08517 -4.32597 0
M  V30 3416 C 316.523 -0.402343 -5.80307 0
M  V30 3417 N 315.499 0.221607 -5.43148 0
M  V30 3418 H 319.301 -0.329129 -2.92051 0
M  V30 3419 H 316.815 -0.281508 -1.59942 0
M  V30 3420 H 318.812 2.02712 -3.64299 0
M  V30 3421 H 317.472 2.10856 -2.46921 0
M  V30 3422 H 318.483 -0.425349 -5.1615 0
M  V30 3423 H 315.16 1.75855 -3.78657 0
M  V30 3424 H 316.55 -1.11834 -6.62528 0
M  V30 3425 N 319.27 1.56325 -0.20005 0
M  V30 3426 C 320.681 1.8408 0.31167 0
M  V30 3427 C 321.032 1.12087 1.61031 0
M  V30 3428 O 320.157 0.38332 2.12978 0
M  V30 3429 C 320.752 3.33932 0.57226 0
M  V30 3430 C 319.311 3.6208 1.02834 0
M  V30 3431 C 318.458 2.77186 0.079634 0
M  V30 3432 H 321.409 1.52939 -0.423729 0
M  V30 3433 H 321.43 3.52971 1.42096 0
M  V30 3434 H 320.942 3.86303 -0.37308 0
M  V30 3435 H 319.043 3.15147 1.98778 0
M  V30 3436 H 319.156 4.7023 0.917624 0
M  V30 3437 H 317.52 2.47951 0.582448 0
M  V30 3438 H 318.303 3.32347 -0.860238 0
M  V30 3439 N 320.748 -0.0735177 1.57428 0
M  V30 3440 C 321.994 -0.774145 1.87443 0
M  V30 3441 C 322.327 -1.77311 0.792103 0
M  V30 3442 O 321.602 -1.93492 -0.197793 0
M  V30 3443 C 321.885 -1.48367 3.28115 0
M  V30 3444 C 321.738 -0.501227 4.46999 0
M  V30 3445 C 323.057 -2.429 3.66998 0
M  V30 3446 H 320.176 -0.279971 0.681752 0
M  V30 3447 H 322.818 -0.0373616 1.89963 0
M  V30 3448 H 320.968 -2.11171 3.26097 0
M  V30 3449 H 322.64 0.121468 4.6114 0
M  V30 3450 H 320.883 0.183593 4.33411 0
M  V30 3451 H 321.554 -1.03526 5.42205 0
M  V30 3452 H 324.03 -1.90175 3.70098 0
M  V30 3453 H 322.906 -2.89549 4.66318 0
M  V30 3454 H 323.167 -3.27628 2.96837 0
M  V30 3455 N 322.226 -1.5378 -0.344866 0
M  V30 3456 C 323.176 -1.78057 -1.42407 0
M  V30 3457 C 324.16 -0.635732 -1.47808 0
M  V30 3458 O 325.352 -0.89508 -1.527 0
M  V30 3459 C 322.481 -1.99242 -2.79566 0
M  V30 3460 C 321.567 -3.19787 -2.78562 0
M  V30 3461 N 321.958 -4.41284 -2.47189 0
M  V30 3462 C 320.256 -3.2093 -3.0971 0
M  V30 3463 C 320.957 -5.23128 -2.54385 0
M  V30 3464 N 319.933 -4.59813 -2.89953 0
M  V30 3465 H 323.735 -2.69588 -1.17046 0
M  V30 3466 H 321.249 -1.52687 -0.553217 0
M  V30 3467 H 323.246 -2.14768 -3.57324 0
M  V30 3468 H 321.906 -1.08953 -3.05875 0
M  V30 3469 H 322.917 -4.68657 -2.20411 0
M  V30 3470 H 319.594 -2.40603 -3.41199 0
M  V30 3471 H 320.984 -6.30096 -2.333 0
M  V30 3472 N 323.704 0.605807 -1.45491 0
M  V30 3473 C 324.667 1.69836 -1.5391 0
M  V30 3474 C 325.667 1.55261 -0.418424 0
M  V30 3475 O 326.857 1.60296 -0.681965 0
M  V30 3476 C 323.989 3.09117 -1.43734 0
M  V30 3477 H 325.182 1.63738 -2.51257 0
M  V30 3478 H 322.735 0.821689 -1.32959 0
M  V30 3479 H 323.47 3.20791 -0.475788 0
M  V30 3480 H 323.255 3.21104 -2.25021 0
M  V30 3481 H 324.745 3.88696 -1.52661 0
M  V30 3482 N 325.182 1.32811 0.848464 0
M  V30 3483 C 326.43 1.23479 1.59991 0
M  V30 3484 C 326.751 -0.201853 1.93952 0
M  V30 3485 O 326.021 -1.12818 1.60153 0
M  V30 3486 H 324.601 0.454034 0.593179 0
M  V30 3487 H 327.263 1.66412 1.01455 0
M  V30 3488 H 326.359 1.82178 2.53412 0
M  V30 3489 N 326.66 -1.06551 1.16123 0
M  V30 3490 C 328.071 -1.60768 0.949232 0
M  V30 3491 C 328.422 -1.89523 -0.507508 0
M  V30 3492 O 327.547 -1.66671 -1.38021 0
M  V30 3493 C 328.142 -2.92086 1.71671 0
M  V30 3494 C 326.701 -3.43015 1.54977 0
M  V30 3495 C 325.848 -2.16947 1.72711 0
M  V30 3496 H 328.799 -0.895354 1.31031 0
M  V30 3497 H 328.82 -3.6138 1.19099 0
M  V30 3498 H 328.332 -2.71127 2.7769 0
M  V30 3499 H 326.433 -3.69039 0.513873 0
M  V30 3500 H 326.546 -4.18516 2.33198 0
M  V30 3501 H 324.91 -2.27041 1.15431 0
M  V30 3502 H 325.693 -1.98473 2.80113 0
M  V30 3503 N 328.138 -0.959301 -1.25041 0
M  V30 3504 C 329.387 -0.612254 -1.92183 0
M  V30 3505 C 329.7 0.855347 -1.75907 0
M  V30 3506 O 330.906 1.31256 -2.37664 0
M  V30 3507 C 329.362 -1.04435 -3.44414 0
M  V30 3508 C 328.97 -2.53482 -3.69393 0
M  V30 3509 C 330.714 -0.770055 -4.17457 0
M  V30 3510 C 328.621 -2.90468 -5.15153 0
M  V30 3511 H 327.551 -0.225279 -0.719559 0
M  V30 3512 H 330.202 -1.16438 -1.41825 0
M  V30 3513 H 328.584 -0.4206 -3.9376 0
M  V30 3514 H 329.758 -3.20916 -3.30681 0
M  V30 3515 H 328.073 -2.78432 -3.0962 0
M  V30 3516 H 330.67 -1.02249 -5.24832 0
M  V30 3517 H 331.013 0.293611 -4.15263 0
M  V30 3518 H 331.546 -1.35437 -3.74034 0
M  V30 3519 H 328.285 -3.95871 -5.22462 0
M  V30 3520 H 327.805 -2.27711 -5.54894 0
M  V30 3521 H 329.484 -2.79914 -5.83315 0
M  V30 3522 N 329.616 1.39756 -0.72842 0
M  V30 3523 C 331.027 1.83498 -0.344289 0
M  V30 3524 C 331.378 1.60868 1.12321 0
M  V30 3525 O 330.503 1.09634 1.86573 0
M  V30 3526 C 331.098 3.33114 -0.618112 0
M  V30 3527 C 329.657 3.753 -0.287549 0
M  V30 3528 C 328.804 2.62831 -0.884048 0
M  V30 3529 H 331.755 1.28842 -0.926578 0
M  V30 3530 H 331.776 3.80334 0.112349 0
M  V30 3531 H 331.288 3.49553 -1.68625 0
M  V30 3532 H 329.389 3.64451 0.775012 0
M  V30 3533 H 329.502 4.72945 -0.765512 0
M  V30 3534 H 327.866 2.52792 -0.311149 0
M  V30 3535 H 328.649 2.82078 -1.95671 0
M  V30 3536 N 331.094 0.475555 1.50254 0
M  V30 3537 C 332.505 0.0215174 1.86688 0
M  V30 3538 C 332.856 -1.38467 1.39001 0
M  V30 3539 O 331.981 -2.02732 0.756894 0
M  V30 3540 C 332.576 0.0322715 3.38785 0
M  V30 3541 C 331.135 -0.366314 3.74613 0
M  V30 3542 C 330.282 0.415832 2.74164 0
M  V30 3543 H 333.233 0.689612 1.42934 0
M  V30 3544 H 333.254 -0.76889 3.7265 0
M  V30 3545 H 332.766 1.05584 3.73462 0
M  V30 3546 H 330.867 -1.39406 3.45538 0
M  V30 3547 H 330.98 -0.064555 4.79057 0
M  V30 3548 H 329.344 -0.131048 2.54363 0
M  V30 3549 H 330.127 1.43899 3.11686 0
M  V30 3550 N 332.573 -1.56217 0.208337 0
M  V30 3551 C 333.821 -1.97558 -0.426076 0
M  V30 3552 C 334.142 -1.09683 -1.61229 0
M  V30 3553 O 333.412 -0.170956 -1.95153 0
M  V30 3554 H 331.992 -0.729575 -0.160405 0
M  V30 3555 H 334.654 -1.92606 0.298155 0
M  V30 3556 H 333.75 -3.02672 -0.761312 0
M  V30 3557 N 334.051 0.0651679 -1.57465 0
M  V30 3558 C 334.983 1.10359 -2.00882 0
M  V30 3559 C 335.996 1.346 -0.915788 0
M  V30 3560 O 337.185 1.32723 -1.1936 0
M  V30 3561 C 334.285 2.45312 -2.33828 0
M  V30 3562 C 333.458 2.40934 -3.65061 0
M  V30 3563 C 332.517 3.58047 -3.85602 0
M  V30 3564 O 331.543 3.39175 -4.57109 0
M  V30 3565 N 332.745 4.78637 -3.28462 0
M  V30 3566 H 335.51 0.733807 -2.90578 0
M  V30 3567 H 333.071 0.253719 -1.599 0
M  V30 3568 H 335.063 3.22314 -2.44737 0
M  V30 3569 H 333.633 2.74267 -1.49988 0
M  V30 3570 H 332.853 1.49273 -3.64844 0
M  V30 3571 H 334.141 2.35117 -4.51218 0
M  V30 3572 H 333.539 4.96872 -2.70433 0
M  V30 3573 H 332.096 5.53127 -3.44809 0
M  V30 3574 N 335.529 1.53961 0.336706 0
M  V30 3575 C 336.462 1.77255 1.43722 0
M  V30 3576 C 337.44 0.62193 1.50236 0
M  V30 3577 O 338.624 0.857874 1.67847 0
M  V30 3578 C 335.751 1.87733 2.81912 0
M  V30 3579 C 334.797 3.09933 2.92991 0
M  V30 3580 S 335.63 4.68836 2.58753 0
M  V30 3581 C 336.786 4.82202 3.99039 0
M  V30 3582 H 337.019 2.70322 1.23748 0
M  V30 3583 H 334.552 1.44917 0.532777 0
M  V30 3584 H 336.51 1.94455 3.61521 0
M  V30 3585 H 335.171 0.956666 2.99177 0
M  V30 3586 H 334.364 3.1396 3.94265 0
M  V30 3587 H 333.966 3.01472 2.21338 0
M  V30 3588 H 336.258 4.64032 4.9364 0
M  V30 3589 H 337.201 5.84298 4.00002 0
M  V30 3590 H 337.609 4.10604 3.87382 0
M  V30 3591 N 337.007 -0.598083 1.45811 0
M  V30 3592 C 338.423 -0.919847 1.30426 0
M  V30 3593 C 338.623 -1.99759 0.264303 0
M  V30 3594 O 337.679 -2.50221 -0.338472 0
M  V30 3595 C 338.992 -1.35176 2.68603 0
M  V30 3596 C 340.54 -1.46546 2.76574 0
M  V30 3597 C 341.015 -1.9311 4.15298 0
M  V30 3598 N 342.506 -2.00328 4.1764 0
M  V30 3599 C 343.241 -2.37599 5.21856 0
M  V30 3600 N 342.737 -2.73771 6.36413 0
M  V30 3601 N 344.53 -2.38021 5.09218 0
M  V30 3602 H 336.681 0.114111 2.12093 0
M  V30 3603 H 338.944 -0.0116121 0.947929 0
M  V30 3604 H 338.65 -0.633969 3.45939 0
M  V30 3605 H 338.524 -2.3164 2.97696 0
M  V30 3606 H 340.911 -2.17415 1.99537 0
M  V30 3607 H 340.992 -0.483727 2.51185 0
M  V30 3608 H 340.636 -1.22824 4.92825 0
M  V30 3609 H 340.566 -2.92213 4.38086 0
M  V30 3610 H 343.057 -1.74925 3.34977 0
M  V30 3611 H 343.37 -3.0112 7.11721 0
M  V30 3612 H 341.715 -2.71445 6.39799 0
M  V30 3613 H 344.906 -2.09174 4.18765 0
M  V30 3614 H 345.079 -2.66741 5.90554 0
M  V30 3615 N 338.485 -1.33259 -0.841409 0
M  V30 3616 C 339.395 -1.25332 -1.98316 0
M  V30 3617 C 340.411 -0.164364 -1.73222 0
M  V30 3618 O 341.587 -0.387486 -1.97637 0
M  V30 3619 C 338.652 -0.990078 -3.32262 0
M  V30 3620 C 337.713 -2.16879 -3.70489 0
M  V30 3621 C 336.946 -1.91801 -4.98044 0
M  V30 3622 O 337.169 -0.867075 -5.63771 0
M  V30 3623 O 336.103 -2.78267 -5.33714 0
M  V30 3624 H 339.929 -2.21344 -2.07944 0
M  V30 3625 H 337.514 -1.1328 -0.974058 0
M  V30 3626 H 339.396 -0.860321 -4.12524 0
M  V30 3627 H 338.071 -0.0602155 -3.23644 0
M  V30 3628 H 336.978 -2.35407 -2.90748 0
M  V30 3629 H 338.311 -3.0819 -3.8377 0
M  V30 3630 N 339.963 1.05934 -1.16686 0
M  V30 3631 C 341.374 1.60263 -0.957745 0
M  V30 3632 C 341.725 1.89789 0.49745 0
M  V30 3633 O 340.85 1.67401 1.37135 0
M  V30 3634 C 341.445 2.91172 -1.73218 0
M  V30 3635 C 340.004 3.42188 -1.56794 0
M  V30 3636 C 339.151 2.16028 -1.73859 0
M  V30 3637 H 342.102 0.888392 -1.31504 0
M  V30 3638 H 342.123 3.60744 -1.21014 0
M  V30 3639 H 341.635 2.6965 -2.79124 0
M  V30 3640 H 339.736 3.68762 -0.533437 0
M  V30 3641 H 339.849 4.17273 -2.35414 0
M  V30 3642 H 338.213 2.26426 -1.16633 0
M  V30 3643 H 338.996 1.96985 -2.81161 0
M  V30 3644 N 341.441 0.965919 1.2453 0
M  V30 3645 C 342.857 0.67216 1.44756 0
M  V30 3646 C 343.057 -0.766609 1.86347 0
M  V30 3647 O 342.113 -1.5407 2.00047 0
M  V30 3648 C 343.426 1.65473 2.51076 0
M  V30 3649 C 344.974 1.66716 2.64905 0
M  V30 3650 C 345.449 2.63766 3.74421 0
M  V30 3651 N 346.94 2.62198 3.81846 0
M  V30 3652 C 347.675 3.33966 4.66106 0
M  V30 3653 N 347.171 4.15245 5.54566 0
M  V30 3654 N 348.964 3.22799 4.60171 0
M  V30 3655 H 341.115 1.89553 0.958293 0
M  V30 3656 H 343.378 0.815979 0.482579 0
M  V30 3657 H 343.084 2.68296 2.27399 0
M  V30 3658 H 342.958 1.4261 3.49202 0
M  V30 3659 H 345.345 0.646057 2.87941 0
M  V30 3660 H 345.426 1.93642 1.67142 0
M  V30 3661 H 345.07 3.6601 3.52135 0
M  V30 3662 H 345 2.34121 4.71694 0
M  V30 3663 H 347.491 2.032 3.18619 0
M  V30 3664 H 347.804 4.66898 6.15814 0
M  V30 3665 H 346.149 4.1934 5.54237 0
M  V30 3666 H 349.34 2.58764 3.90075 0
M  V30 3667 H 349.513 3.78994 5.25612 0
M  V30 3668 N 342.919 -1.39368 0.735821 0
M  V30 3669 C 344.167 -2.00101 0.283562 0
M  V30 3670 C 344.488 -1.5868 -1.13338 0
M  V30 3671 O 343.758 -0.835423 -1.77193 0
M  V30 3672 H 342.338 -0.740024 0.101851 0
M  V30 3673 H 345 -1.70404 0.945962 0
M  V30 3674 H 344.096 -3.10323 0.332604 0
M  V30 3675 N 344.397 -0.483516 -1.5 0
M  V30 3676 C 345.622 0.0667119 -2.07293 0
M  V30 3677 C 346.047 1.3164 -1.3436 0
M  V30 3678 O 345.405 1.76945 -0.394987 0
M  V30 3679 C 345.453 0.321126 -3.59167 0
M  V30 3680 O 344.557 1.39927 -3.87936 0
M  V30 3681 H 343.898 -0.0184758 -0.663743 0
M  V30 3682 H 346.428 -0.678125 -1.93035 0
M  V30 3683 H 346.438 0.557906 -4.04168 0
M  V30 3684 H 345.113 -0.592007 -4.11665 0
M  V30 3685 H 343.69 1.14882 -3.54763 0
M  V30 3686 N 345.875 1.56104 -0.216619 0
M  V30 3687 C 347.152 1.89988 0.465165 0
M  V30 3688 C 347.532 1.13326 1.78102 0
M  V30 3689 O 346.88 0.241033 2.27225 0
M  V30 3690 C 347.09 3.42646 0.662939 0
M  V30 3691 C 348.438 4.13311 0.972602 0
M  V30 3692 O 349.462 3.48217 0.749901 0
M  V30 3693 O 348.321 5.28396 1.39499 0
M  V30 3694 H 345.415 0.78979 0.245276 0
M  V30 3695 H 347.961 1.67721 -0.258436 0
M  V30 3696 H 346.733 3.90399 -0.26543 0
M  V30 3697 H 346.356 3.70677 1.43821 0
M  V30 3698 N 347.353 -0.0568162 1.57498 0
M  V30 3699 C 348.602 -0.752001 1.87157 0
M  V30 3700 C 348.915 -1.77978 0.811375 0
M  V30 3701 O 350.121 -2.52559 0.996293 0
M  V30 3702 C 348.577 -1.38844 3.3204 0
M  V30 3703 C 348.185 -0.398456 4.46225 0
M  V30 3704 C 349.929 -2.06512 3.70882 0
M  V30 3705 C 347.836 -1.04166 5.82154 0
M  V30 3706 H 346.766 -0.28461 0.698222 0
M  V30 3707 H 349.417 -0.00561272 1.83499 0
M  V30 3708 H 347.799 -2.1836 3.30356 0
M  V30 3709 H 348.973 0.367977 4.59328 0
M  V30 3710 H 347.288 0.174592 4.16034 0
M  V30 3711 H 349.885 -2.55437 4.6974 0
M  V30 3712 H 350.228 -2.87117 3.01445 0
M  V30 3713 H 350.761 -1.33808 3.7462 0
M  V30 3714 H 347.5 -0.275614 6.5492 0
M  V30 3715 H 347.02 -1.7786 5.72823 0
M  V30 3716 H 348.699 -1.55715 6.27982 0
M  V30 3717 N 348.832 -1.54138 -0.328536 0
M  V30 3718 C 349.795 -1.82462 -1.38709 0
M  V30 3719 C 350.795 -0.696229 -1.44946 0
M  V30 3720 O 351.985 -0.964535 -1.4506 0
M  V30 3721 C 349.117 -1.98018 -2.77492 0
M  V30 3722 H 350.31 -2.77037 -1.14851 0
M  V30 3723 H 347.863 -1.45779 -0.563751 0
M  V30 3724 H 348.598 -1.05637 -3.06613 0
M  V30 3725 H 348.383 -2.80124 -2.74359 0
M  V30 3726 H 349.873 -2.21396 -3.54081 0
M  V30 3727 N 350.31 0.590341 -1.46126 0
M  V30 3728 C 351.558 1.34616 -1.50742 0
M  V30 3729 C 351.879 1.94363 -0.157486 0
M  V30 3730 O 351.149 1.78136 0.815136 0
M  V30 3731 H 349.729 0.499789 -0.555175 0
M  V30 3732 H 352.391 0.691953 -1.82203 0
M  V30 3733 H 351.487 2.15678 -2.25587 0
M  V30 3734 N 351.788 1.33704 0.83433 0
M  V30 3735 C 353.016 1.28467 1.62185 0
M  V30 3736 C 353.431 -0.143526 1.88254 0
M  V30 3737 O 352.788 -1.08709 1.4659 0
M  V30 3738 C 352.839 2.06174 2.96942 0
M  V30 3739 O 352.56 3.43422 2.72016 0
M  V30 3740 C 354.061 2.08201 3.91366 0
M  V30 3741 H 351.281 0.4424 0.504503 0
M  V30 3742 H 353.825 1.76145 1.03891 0
M  V30 3743 H 351.98 1.62167 3.51825 0
M  V30 3744 H 352.394 3.83453 3.57861 0
M  V30 3745 H 353.868 2.67017 4.83121 0
M  V30 3746 H 354.345 1.07343 4.2588 0
M  V30 3747 H 354.951 2.52246 3.42421 0
M  V30 3748 N 353.266 -1.05314 1.17247 0
M  V30 3749 C 354.494 -1.81971 0.984593 0
M  V30 3750 C 354.909 -1.82929 -0.467166 0
M  V30 3751 O 354.266 -1.25564 -1.32438 0
M  V30 3752 C 354.317 -3.28143 1.51672 0
M  V30 3753 O 354.038 -3.27347 2.91163 0
M  V30 3754 C 355.539 -4.21493 1.37326 0
M  V30 3755 H 352.759 -0.573455 0.348411 0
M  V30 3756 H 355.303 -1.32808 1.55506 0
M  V30 3757 H 353.458 -3.74582 0.988302 0
M  V30 3758 H 353.872 -4.18824 3.15732 0
M  V30 3759 H 355.346 -5.22043 1.79375 0
M  V30 3760 H 355.823 -4.38031 0.320169 0
M  V30 3761 H 356.429 -3.80909 1.89178 0
M  V30 3762 N 354.744 -0.972509 -1.24016 0
M  V30 3763 C 355.969 -0.654417 -1.96805 0
M  V30 3764 C 356.394 0.770398 -1.716 0
M  V30 3765 O 355.752 1.52361 -0.982647 0
M  V30 3766 C 355.8 -0.941031 -3.48105 0
M  V30 3767 O 354.904 -0.0289472 -4.1239 0
M  V30 3768 H 354.245 -0.24692 -0.616382 0
M  V30 3769 H 356.775 -1.30396 -1.57664 0
M  V30 3770 H 356.785 -0.87452 -3.98517 0
M  V30 3771 H 355.46 -1.97939 -3.65777 0
M  V30 3772 H 354.037 -0.149192 -3.72601 0
M  V30 3773 N 356.222 1.38976 -0.743202 0
M  V30 3774 C 357.45 2.04636 -0.30525 0
M  V30 3775 C 357.865 1.56044 1.06281 0
M  V30 3776 O 357.222 0.728921 1.67311 0
M  V30 3777 C 357.273 3.60193 -0.307177 0
M  V30 3778 O 356.994 4.06998 -1.62124 0
M  V30 3779 C 358.495 4.4306 0.145928 0
M  V30 3780 H 355.715 0.65788 -0.132041 0
M  V30 3781 H 358.259 1.77866 -1.00915 0
M  V30 3782 H 356.414 3.85835 0.347898 0
M  V30 3783 H 356.828 5.01371 -1.54036 0
M  V30 3784 H 358.302 5.51921 0.0934183 0
M  V30 3785 H 358.779 4.22706 1.19231 0
M  V30 3786 H 359.385 4.22584 -0.479886 0
M  V30 3787 N 357.7 0.491464 1.49741 0
M  V30 3788 C 358.63 -0.28154 2.31796 0
M  V30 3789 C 359.611 -0.971473 1.3963 0
M  V30 3790 O 360.796 -0.964719 1.68543 0
M  V30 3791 C 357.926 -1.35203 3.19902 0
M  V30 3792 C 356.88 -0.782529 4.20786 0
M  V30 3793 C 356.206 -1.95283 4.97764 0
M  V30 3794 C 357.506 0.21999 5.21837 0
M  V30 3795 H 359.2 0.403355 2.96671 0
M  V30 3796 H 356.746 0.195425 1.42668 0
M  V30 3797 H 358.699 -1.90045 3.76113 0
M  V30 3798 H 357.423 -2.06598 2.52953 0
M  V30 3799 H 356.082 -0.255928 3.65706 0
M  V30 3800 H 355.73 -2.65423 4.2727 0
M  V30 3801 H 355.43 -1.57789 5.66018 0
M  V30 3802 H 356.954 -2.50577 5.56816 0
M  V30 3803 H 358.368 -0.23996 5.72798 0
M  V30 3804 H 356.765 0.51026 5.97927 0
M  V30 3805 H 357.835 1.13911 4.7133 0
M  V30 3806 N 359.178 -1.55987 0.224894 0
M  V30 3807 C 360.11 -2.17722 -0.716224 0
M  V30 3808 C 361.123 -1.14723 -1.15509 0
M  V30 3809 O 362.312 -1.41688 -1.08567 0
M  V30 3810 C 359.412 -2.74873 -1.98238 0
M  V30 3811 C 358.585 -4.03074 -1.69853 0
M  V30 3812 C 357.644 -4.44757 -2.81208 0
M  V30 3813 O 356.67 -5.11587 -2.49534 0
M  V30 3814 N 357.872 -4.10716 -4.10235 0
M  V30 3815 H 360.637 -2.99109 -0.188123 0
M  V30 3816 H 358.198 -1.6184 0.0440123 0
M  V30 3817 H 360.19 -2.99727 -2.7193 0
M  V30 3818 H 358.76 -1.9777 -2.42086 0
M  V30 3819 H 357.98 -3.86041 -0.797875 0
M  V30 3820 H 359.268 -4.86701 -1.48324 0
M  V30 3821 H 358.666 -3.57019 -4.38809 0
M  V30 3822 H 357.223 -4.40455 -4.80461 0
M  V30 3823 N 360.656 0.0484629 -1.57525 0
M  V30 3824 C 361.566 1.07241 -2.08654 0
M  V30 3825 C 362.582 1.409 -1.02095 0
M  V30 3826 O 363.758 1.50609 -1.33712 0
M  V30 3827 C 360.823 2.36008 -2.5397 0
M  V30 3828 C 359.884 2.09108 -3.7493 0
M  V30 3829 C 359.117 3.31736 -4.18075 0
M  V30 3830 O 359.34 4.41714 -3.60895 0
M  V30 3831 O 358.274 3.18576 -5.10679 0
M  V30 3832 H 362.1 0.667965 -2.96263 0
M  V30 3833 H 359.685 0.26417 -1.47046 0
M  V30 3834 H 361.567 3.11747 -2.83535 0
M  V30 3835 H 360.242 2.75786 -1.69481 0
M  V30 3836 H 359.149 1.31 -3.50414 0
M  V30 3837 H 360.482 1.74198 -4.60343 0
M  V30 3838 N 362.134 1.5431 0.320358 0
M  V30 3839 C 363.066 1.80262 1.41556 0
M  V30 3840 C 364.079 0.684723 1.477 0
M  V30 3841 O 365.268 0.961886 1.50366 0
M  V30 3842 C 362.368 1.90825 2.8007 0
M  V30 3843 C 361.541 3.21023 2.97091 0
M  V30 3844 C 360.6 3.22247 4.15985 0
M  V30 3845 O 359.626 3.95871 4.08992 0
M  V30 3846 N 360.828 2.46258 5.25678 0
M  V30 3847 H 363.593 2.74778 1.19655 0
M  V30 3848 H 361.154 1.53646 0.510358 0
M  V30 3849 H 363.146 1.89067 3.57821 0
M  V30 3850 H 361.716 1.03392 2.95006 0
M  V30 3851 H 360.936 3.35715 2.06614 0
M  V30 3852 H 362.224 4.0698 3.05361 0
M  V30 3853 H 361.622 1.86037 5.34235 0
M  V30 3854 H 360.179 2.50275 6.01835 0
M  V30 3855 N 363.613 -0.582584 1.46437 0
M  V30 3856 C 364.862 -1.337 1.5102 0
M  V30 3857 C 365.175 -1.94891 0.166359 0
M  V30 3858 O 366.381 -2.71351 0.0899954 0
M  V30 3859 C 364.837 -2.42315 2.66104 0
M  V30 3860 C 364.445 -1.87427 4.06909 0
M  V30 3861 C 366.189 -3.19099 2.79958 0
M  V30 3862 C 364.096 -2.93672 5.13333 0
M  V30 3863 H 363.026 -0.502619 0.562041 0
M  V30 3864 H 365.677 -0.621701 1.72647 0
M  V30 3865 H 364.059 -3.16645 2.37807 0
M  V30 3866 H 365.233 -1.19639 4.44998 0
M  V30 3867 H 363.548 -1.2331 3.97723 0
M  V30 3868 H 366.145 -3.9839 3.56636 0
M  V30 3869 H 366.488 -3.71695 1.87479 0
M  V30 3870 H 367.021 -2.51875 3.07902 0
M  V30 3871 H 363.76 -2.45962 6.07604 0
M  V30 3872 H 363.28 -3.59948 4.79789 0
M  V30 3873 H 364.959 -3.5762 5.39182 0
M  V30 3874 N 365.091 -1.34144 -0.827227 0
M  V30 3875 C 366.054 -1.25264 -1.91942 0
M  V30 3876 C 367.054 -0.168866 -1.59911 0
M  V30 3877 O 368.244 -0.421198 -1.69031 0
M  V30 3878 C 365.376 -0.932952 -3.27885 0
M  V30 3879 H 366.569 -2.22357 -2.0124 0
M  V30 3880 H 364.122 -1.1837 -1.0207 0
M  V30 3881 H 364.857 0.0349917 -3.24281 0
M  V30 3882 H 364.642 -1.71682 -3.52516 0
M  V30 3883 H 366.132 -0.895874 -4.07877 0
M  V30 3884 N 366.569 1.04691 -1.17803 0
M  V30 3885 C 367.815 1.78181 -0.980977 0
M  V30 3886 C 368.17 1.86191 0.484825 0
M  V30 3887 O 367.463 1.35436 1.35527 0
M  V30 3888 C 367.657 3.21467 -1.56186 0
M  V30 3889 C 367.486 3.27422 -3.08261 0
M  V30 3890 C 366.256 3.36415 -3.77032 0
M  V30 3891 C 368.454 3.15947 -4.0581 0
M  V30 3892 N 366.436 3.31554 -5.16667 0
M  V30 3893 C 367.807 3.18514 -5.31929 0
M  V30 3894 C 369.862 2.99945 -3.97413 0
M  V30 3895 C 368.565 3.06723 -6.50625 0
M  V30 3896 C 370.591 2.89497 -5.15699 0
M  V30 3897 C 369.953 2.92702 -6.40706 0
M  V30 3898 H 366.052 0.6641 -0.412911 0
M  V30 3899 H 368.636 1.24762 -1.49474 0
M  V30 3900 H 366.807 3.73245 -1.07436 0
M  V30 3901 H 368.539 3.8322 -1.30093 0
M  V30 3902 H 365.294 3.41887 -3.27735 0
M  V30 3903 H 365.718 3.3258 -5.89678 0
M  V30 3904 H 370.36 2.96302 -3.01604 0
M  V30 3905 H 368.078 3.0912 -7.46639 0
M  V30 3906 H 371.664 2.78179 -5.10987 0
M  V30 3907 H 370.544 2.84697 -7.30696 0
M  V30 3908 N 368.047 0.979072 1.23499 0
M  V30 3909 C 368.98 0.463027 2.23453 0
M  V30 3910 C 369.958 -0.469128 1.55685 0
M  V30 3911 O 371.142 -0.397882 1.84253 0
M  V30 3912 C 368.269 -0.330308 3.37086 0
M  V30 3913 C 367.315 0.545795 4.22993 0
M  V30 3914 S 368.148 1.99285 4.97037 0
M  V30 3915 C 369.304 1.20862 6.1412 0
M  V30 3916 H 369.537 1.31005 2.6688 0
M  V30 3917 H 367.07 0.784965 1.32957 0
M  V30 3918 H 369.028 -0.782027 4.02982 0
M  V30 3919 H 367.689 -1.15244 2.92194 0
M  V30 3920 H 366.882 -0.0638928 5.03959 0
M  V30 3921 H 366.484 0.933705 3.62157 0
M  V30 3922 H 368.776 0.469284 6.75873 0
M  V30 3923 H 369.719 1.99307 6.79472 0
M  V30 3924 H 370.127 0.727992 5.59786 0
M  V30 3925 N 369.525 -1.3858 0.750561 0
M  V30 3926 C 370.753 -2.04471 0.316098 0
M  V30 3927 C 371.168 -1.56606 -1.05452 0
M  V30 3928 O 370.525 -0.737784 -1.66922 0
M  V30 3929 C 370.576 -3.60025 0.326275 0
M  V30 3930 O 370.297 -4.06133 1.6428 0
M  V30 3931 C 371.798 -4.43131 -0.122429 0
M  V30 3932 H 369.018 -0.65717 0.135528 0
M  V30 3933 H 371.562 -1.77329 1.01857 0
M  V30 3934 H 369.717 -3.86014 -0.327431 0
M  V30 3935 H 370.131 -5.00547 1.56693 0
M  V30 3936 H 371.605 -5.51963 -0.0641473 0
M  V30 3937 H 372.082 -4.23333 -1.16988 0
M  V30 3938 H 372.688 -4.22323 0.50229 0
M  V30 3939 N 371.003 -0.499398 -1.49478 0
M  V30 3940 C 372.251 0.0455996 -2.02049 0
M  V30 3941 C 372.572 1.37633 -1.38138 0
M  V30 3942 O 371.842 1.8842 -0.536166 0
M  V30 3943 H 370.422 0.0198416 -0.746736 0
M  V30 3944 H 373.084 -0.656274 -1.83519 0
M  V30 3945 H 372.18 0.176445 -3.11601 0
M  V30 3946 N 372.481 1.55866 -0.233164 0
M  V30 3947 C 373.429 2.22176 0.68851 0
M  V30 3948 C 374.423 1.20487 1.19076 0
M  V30 3949 O 375.629 1.38536 1.14925 0
M  V30 3950 H 372.004 0.712511 0.240483 0
M  V30 3951 H 373.975 2.98212 0.105935 0
M  V30 3952 C 372.724 2.92446 1.88071 0
M  V30 3953 H 372.047 3.70458 1.50337 0
M  V30 3954 H 373.487 3.42226 2.50314 0
M  V30 3955 C 371.946 1.95555 2.74335 0
M  V30 3956 O 372.476 1.47986 3.73447 0
M  V30 3957 N 370.682 1.62953 2.40613 0
M  V30 3958 H 370.229 2.01831 1.60069 0
M  V30 3959 H 370.187 0.983886 2.98609 0
M  V30 3960 N 373.959 -0.0401083 1.57549 0
M  V30 3961 C 375.37 -0.588097 1.77196 0
M  V30 3962 C 375.721 -1.76209 0.862832 0
M  V30 3963 O 374.846 -2.16331 0.0548389 0
M  V30 3964 C 375.441 -1.07363 3.21339 0
M  V30 3965 C 374 -1.56723 3.42221 0
M  V30 3966 C 373.147 -0.50041 2.72747 0
M  V30 3967 H 376.098 0.186119 1.57605 0
M  V30 3968 H 376.119 -1.94143 3.27244 0
M  V30 3969 H 375.631 -0.218975 3.87482 0
M  V30 3970 H 373.732 -2.4441 2.81237 0
M  V30 3971 H 373.845 -1.62234 4.50796 0
M  V30 3972 H 372.209 -0.952894 2.36203 0
M  V30 3973 H 372.992 0.344599 3.41566 0
M  V30 3974 N 375.437 -1.54477 -0.31217 0
M  V30 3975 C 376.4 -1.83923 -1.36766 0
M  V30 3976 C 377.4 -0.711563 -1.44199 0
M  V30 3977 O 378.59 -0.979866 -1.44029 0
M  V30 3978 C 375.722 -2.0095 -2.75376 0
M  V30 3979 H 376.915 -2.78239 -1.11906 0
M  V30 3980 H 374.468 -1.46369 -0.548257 0
M  V30 3981 H 375.203 -1.08883 -3.05475 0
M  V30 3982 H 374.988 -2.83018 -2.71373 0
M  V30 3983 H 376.478 -2.2514 -3.51713 0
M  V30 3984 N 376.915 0.57481 -1.46744 0
M  V30 3985 C 378.164 1.32898 -1.51727 0
M  V30 3986 C 378.477 1.948 -0.176692 0
M  V30 3987 O 379.683 2.71299 -0.104385 0
M  V30 3988 C 378.139 2.40901 -2.67385 0
M  V30 3989 C 377.747 1.85266 -4.07898 0
M  V30 3990 C 379.491 3.17609 -2.81646 0
M  V30 3991 C 377.398 2.90945 -5.14883 0
M  V30 3992 H 376.328 0.499631 -0.564699 0
M  V30 3993 H 378.979 0.612536 -1.72975 0
M  V30 3994 H 377.361 3.15379 -2.39483 0
M  V30 3995 H 378.535 1.17278 -4.45626 0
M  V30 3996 H 376.85 1.21199 -3.98371 0
M  V30 3997 H 379.447 3.96493 -3.58744 0
M  V30 3998 H 379.79 3.70696 -1.89448 0
M  V30 3999 H 380.323 2.50239 -3.09233 0
M  V30 4000 H 377.062 2.42736 -6.089 0
M  V30 4001 H 376.582 3.57398 -4.81691 0
M  V30 4002 H 378.261 3.54755 -5.41071 0
M  V30 4003 N 378.394 1.34581 0.820102 0
M  V30 4004 C 379.805 1.24298 1.39309 0
M  V30 4005 C 380.156 -0.130351 1.95767 0
M  V30 4006 O 379.281 -1.0308 1.90272 0
M  V30 4007 C 379.876 2.25054 2.53251 0
M  V30 4008 C 378.435 2.18552 3.0645 0
M  V30 4009 C 377.582 2.11503 1.79337 0
M  V30 4010 H 380.533 1.45906 0.624262 0
M  V30 4011 H 380.554 1.86917 3.31425 0
M  V30 4012 H 380.066 3.24996 2.1213 0
M  V30 4013 H 378.167 1.21976 3.52069 0
M  V30 4014 H 378.28 3.0993 3.65349 0
M  V30 4015 H 376.644 1.57268 2.00347 0
M  V30 4016 H 377.427 3.13284 1.40386 0
M  V30 4017 N 379.872 -1.04064 1.18357 0
M  V30 4018 C 381.118 -1.77528 0.980397 0
M  V30 4019 C 381.451 -1.87948 -0.48879 0
M  V30 4020 O 380.726 -1.3876 -1.36293 0
M  V30 4021 C 381.009 -3.20797 1.63588 0
M  V30 4022 C 380.862 -3.1832 3.17793 0
M  V30 4023 C 382.181 -4.18911 1.34914 0
M  V30 4024 H 379.3 -0.644443 0.357578 0
M  V30 4025 H 381.942 -1.2156 1.46024 0
M  V30 4026 H 380.092 -3.68586 1.22788 0
M  V30 4027 H 381.764 -2.78521 3.67728 0
M  V30 4028 H 380.007 -2.56351 3.49952 0
M  V30 4029 H 380.678 -4.19489 3.58794 0
M  V30 4030 H 383.154 -3.7967 1.70265 0
M  V30 4031 H 382.03 -5.17374 1.83346 0
M  V30 4032 H 382.291 -4.41262 0.272027 0
M  V30 4033 N 381.35 -0.985608 -1.22978 0
M  V30 4034 C 382.598 -0.656087 -1.91154 0
M  V30 4035 C 382.919 0.813561 -1.77218 0
M  V30 4036 O 382.189 1.58244 -1.1548 0
M  V30 4037 H 380.769 -0.239674 -0.707506 0
M  V30 4038 H 383.431 -1.25054 -1.49491 0
M  V30 4039 H 382.527 -0.912253 -2.9847 0
M  V30 4040 N 382.828 1.3818 -0.7579 0
M  V30 4041 C 384.105 1.94106 -0.241306 0
M  V30 4042 C 384.485 1.69282 1.26122 0
M  V30 4043 O 383.833 1.03378 2.03777 0
M  V30 4044 C 384.043 3.43809 -0.59967 0
M  V30 4045 C 385.391 4.20868 -0.561717 0
M  V30 4046 O 386.415 3.5211 -0.538222 0
M  V30 4047 O 385.274 5.43451 -0.576478 0
M  V30 4048 H 382.368 0.825376 -0.0518042 0
M  V30 4049 H 384.914 1.47548 -0.838315 0
M  V30 4050 H 383.686 3.55403 -1.6372 0
M  V30 4051 H 383.309 3.97592 0.0251197 0
M  V30 4052 N 384.306 0.507319 1.49211 0
M  V30 4053 C 385.555 -0.0368315 2.01666 0
M  V30 4054 C 385.868 -1.37459 1.39156 0
M  V30 4055 O 387.074 -2.00579 1.82976 0
M  V30 4056 C 385.53 -0.116089 3.59713 0
M  V30 4057 C 385.138 1.2154 4.31198 0
M  V30 4058 C 386.882 -0.610268 4.2009 0
M  V30 4059 C 384.789 1.09796 5.81119 0
M  V30 4060 H 383.719 -0.0175376 0.753796 0
M  V30 4061 H 386.37 0.647691 1.71689 0
M  V30 4062 H 384.752 -0.8652 3.86433 0
M  V30 4063 H 385.926 1.9783 4.16173 0
M  V30 4064 H 384.241 1.64352 3.82593 0
M  V30 4065 H 386.838 -0.715742 5.29888 0
M  V30 4066 H 387.181 -1.61064 3.8388 0
M  V30 4067 H 387.714 0.0824916 3.97714 0
M  V30 4068 H 384.453 2.0728 6.21864 0
M  V30 4069 H 383.973 0.376058 5.9862 0
M  V30 4070 H 385.652 0.779281 6.4229 0
M  V30 4071 N 385.784 -1.5574 0.241426 0
M  V30 4072 C 387.014 -2.02913 -0.38857 0
M  V30 4073 C 387.422 -1.12014 -1.52478 0
M  V30 4074 O 386.765 -0.125903 -1.83268 0
M  V30 4075 C 386.827 -3.4636 -0.963075 0
M  V30 4076 C 386.491 -4.56982 0.0401916 0
M  V30 4077 C 387.488 -5.12941 0.847766 0
M  V30 4078 C 385.173 -5.0203 0.164699 0
M  V30 4079 C 387.167 -6.12437 1.76636 0
M  V30 4080 C 384.854 -6.01358 1.0868 0
M  V30 4081 C 385.852 -6.5644 1.88616 0
M  V30 4082 O 385.54 -7.53831 2.79273 0
M  V30 4083 H 385.272 -0.668983 -0.0971452 0
M  V30 4084 H 387.826 -2.02198 0.361248 0
M  V30 4085 H 386.056 -3.44206 -1.76235 0
M  V30 4086 H 387.745 -3.77065 -1.50257 0
M  V30 4087 H 388.511 -4.78974 0.762133 0
M  V30 4088 H 384.39 -4.58824 -0.447411 0
M  V30 4089 H 387.934 -6.55355 2.39071 0
M  V30 4090 H 383.831 -6.34746 1.17338 0
M  V30 4091 H 384.599 -7.71428 2.73572 0
M  V30 4092 N 387.262 0.0317525 -1.57568 0
M  V30 4093 C 388.209 1.0332 -2.06382 0
M  V30 4094 C 389.179 1.36082 -0.952414 0
M  V30 4095 O 390.364 1.46466 -1.2228 0
M  V30 4096 C 387.504 2.32989 -2.54578 0
M  V30 4097 C 386.617 2.0641 -3.79498 0
M  V30 4098 C 385.752 3.2993 -4.16317 0
M  V30 4099 C 384.791 2.98893 -5.34162 0
M  V30 4100 N 383.928 4.14857 -5.66426 0
M  V30 4101 H 388.768 0.609982 -2.9169 0
M  V30 4102 H 386.305 0.289573 -1.44222 0
M  V30 4103 H 388.263 3.0875 -2.80587 0
M  V30 4104 H 386.893 2.73039 -1.7219 0
M  V30 4105 H 385.945 1.21158 -3.6059 0
M  V30 4106 H 387.257 1.79513 -4.65378 0
M  V30 4107 H 386.411 4.1406 -4.4344 0
M  V30 4108 H 385.15 3.59938 -3.29083 0
M  V30 4109 H 384.155 2.13164 -5.06795 0
M  V30 4110 H 385.38 2.70165 -6.23047 0
M  V30 4111 H 383.326 4.44821 -4.82151 0
M  V30 4112 H 383.243 3.91374 -6.4681 0
M  V30 4113 H 384.511 4.99868 -5.98124 0
M  V30 4114 N 388.74 1.54641 0.303973 0
M  V30 4115 C 390.156 1.45788 0.649463 0
M  V30 4116 C 390.356 0.64666 1.90842 0
M  V30 4117 O 389.412 0.153183 2.52035 0
M  V30 4118 C 390.725 2.89718 0.805227 0
M  V30 4119 C 392.273 2.99742 0.901305 0
M  V30 4120 C 392.748 4.44863 1.08909 0
M  V30 4121 N 394.239 4.48559 1.15536 0
M  V30 4122 C 394.974 5.58026 1.3189 0
M  V30 4123 N 394.47 6.77422 1.45161 0
M  V30 4124 N 396.263 5.45708 1.34755 0
M  V30 4125 H 388.414 2.05854 -0.523237 0
M  V30 4126 H 390.677 0.932186 -0.172431 0
M  V30 4127 H 390.383 3.51666 -0.0489108 0
M  V30 4128 H 390.257 3.36964 1.69513 0
M  V30 4129 H 392.644 2.3791 1.74593 0
M  V30 4130 H 392.725 2.55797 -0.0125531 0
M  V30 4131 H 392.369 5.07288 0.249241 0
M  V30 4132 H 392.299 4.86436 2.01713 0
M  V30 4133 H 394.79 3.6254 1.06646 0
M  V30 4134 H 395.103 7.56604 1.57387 0
M  V30 4135 H 393.448 6.80292 1.42223 0
M  V30 4136 H 396.639 4.51378 1.23996 0
M  V30 4137 H 396.812 6.3107 1.47157 0
M  V30 4138 N 390.218 -0.567019 1.47046 0
M  V30 4139 C 391.464 -1.32434 1.54379 0
M  V30 4140 C 391.819 -1.91365 0.199276 0
M  V30 4141 O 391.112 -1.74378 -0.793915 0
M  V30 4142 C 391.306 -2.4623 2.59047 0
M  V30 4143 C 391.135 -1.98448 4.03545 0
M  V30 4144 C 389.905 -1.82741 4.71098 0
M  V30 4145 C 392.103 -1.53477 4.90866 0
M  V30 4146 N 390.085 -1.29196 6.00151 0
M  V30 4147 C 391.456 -1.1163 6.09868 0
M  V30 4148 C 393.511 -1.41438 4.77388 0
M  V30 4149 C 392.214 -0.589425 7.16881 0
M  V30 4150 C 394.24 -0.901528 5.84488 0
M  V30 4151 C 393.602 -0.492932 7.02673 0
M  V30 4152 H 389.701 -0.477005 0.61967 0
M  V30 4153 H 392.285 -0.643856 1.83746 0
M  V30 4154 H 390.456 -3.11821 2.31564 0
M  V30 4155 H 392.188 -3.13213 2.56281 0
M  V30 4156 H 388.943 -2.05162 4.26855 0
M  V30 4157 H 389.367 -1.0454 6.6888 0
M  V30 4158 H 394.009 -1.71643 3.86392 0
M  V30 4159 H 391.727 -0.274994 8.07632 0
M  V30 4160 H 395.313 -0.812071 5.76105 0
M  V30 4161 H 394.193 -0.102227 7.84133 0
M  V30 4162 N 391.696 -1.35014 -0.812953 0
M  V30 4163 C 392.945 -1.27269 -1.56479 0
M  V30 4164 C 393.258 0.152771 -1.95002 0
M  V30 4165 O 394.464 0.352451 -2.69203 0
M  V30 4166 C 392.92 -2.23159 -2.82362 0
M  V30 4167 C 392.528 -3.71016 -2.511 0
M  V30 4168 C 394.272 -2.24342 -3.60376 0
M  V30 4169 C 392.179 -4.58746 -3.73237 0
M  V30 4170 H 391.109 -0.472829 -0.587324 0
M  V30 4171 H 393.76 -1.6024 -0.894171 0
M  V30 4172 H 392.142 -1.83151 -3.51101 0
M  V30 4173 H 393.316 -4.1962 -1.90409 0
M  V30 4174 H 391.631 -3.72378 -1.86343 0
M  V30 4175 H 394.228 -2.87107 -4.51081 0
M  V30 4176 H 394.571 -1.24542 -3.97234 0
M  V30 4177 H 395.104 -2.62846 -2.98591 0
M  V30 4178 H 391.843 -5.59521 -3.41492 0
M  V30 4179 H 391.363 -4.14871 -4.33176 0
M  V30 4180 H 393.042 -4.73852 -4.40537 0
M  V30 4181 N 393.175 1.03435 -1.18907 0
M  V30 4182 C 394.424 1.76143 -0.982669 0
M  V30 4183 C 394.737 1.89416 0.487953 0
M  V30 4184 O 395.943 2.59041 0.813036 0
M  V30 4185 C 394.399 3.16722 -1.70924 0
M  V30 4186 C 394.007 3.11522 -3.21959 0
M  V30 4187 C 395.751 3.93764 -1.58588 0
M  V30 4188 C 393.658 4.46999 -3.87228 0
M  V30 4189 H 392.588 0.660292 -0.364047 0
M  V30 4190 H 395.239 1.158 -1.42347 0
M  V30 4191 H 393.621 3.775 -1.19623 0
M  V30 4192 H 394.795 2.60158 -3.80335 0
M  V30 4193 H 393.11 2.47978 -3.34508 0
M  V30 4194 H 395.707 4.93963 -2.04707 0
M  V30 4195 H 396.05 4.12794 -0.539142 0
M  V30 4196 H 396.583 3.39576 -2.07203 0
M  V30 4197 H 393.322 4.33174 -4.91976 0
M  V30 4198 H 392.842 4.98441 -3.33642 0
M  V30 4199 H 394.521 5.15898 -3.90459 0
M  V30 4200 N 394.653 0.992116 1.22453 0
M  V30 4201 C 395.583 0.561677 2.26644 0
M  V30 4202 C 396.564 -0.411055 1.65059 0
M  V30 4203 O 397.749 -0.301861 1.9184 0
M  V30 4204 C 394.879 -0.125247 3.47074 0
M  V30 4205 C 393.833 0.765948 4.21091 0
M  V30 4206 C 393.159 -0.0538484 5.34673 0
M  V30 4207 C 394.459 2.06242 4.79856 0
M  V30 4208 H 396.153 1.43259 2.62902 0
M  V30 4209 H 393.699 0.690283 1.26377 0
M  V30 4210 H 395.652 -0.437764 4.1912 0
M  V30 4211 H 394.376 -1.03069 3.0991 0
M  V30 4212 H 393.035 1.0621 3.50878 0
M  V30 4213 H 392.683 -0.960188 4.9375 0
M  V30 4214 H 392.383 0.539415 5.85119 0
M  V30 4215 H 393.907 -0.360477 6.09535 0
M  V30 4216 H 395.321 1.8139 5.43848 0
M  V30 4217 H 393.718 2.60444 5.40638 0
M  V30 4218 H 394.788 2.74167 3.99951 0
M  V30 4219 N 396.131 -1.37776 0.765217 0
M  V30 4220 C 397.379 -1.99454 0.325943 0
M  V30 4221 C 397.7 -1.61049 -1.09947 0
M  V30 4222 O 396.97 -0.872821 -1.75381 0
M  V30 4223 H 395.55 -0.737697 0.117525 0
M  V30 4224 H 398.212 -1.68359 0.981895 0
M  V30 4225 H 397.308 -3.09547 0.398353 0
M  V30 4226 N 397.609 -0.515225 -1.4894 0
M  V30 4227 C 398.539 0.244628 -2.32215 0
M  V30 4228 C 399.52 0.949136 -1.41157 0
M  V30 4229 O 400.705 0.937783 -1.70057 0
M  V30 4230 C 397.835 1.30096 -3.22013 0
M  V30 4231 C 396.789 0.715486 -4.21977 0
M  V30 4232 C 396.115 1.87339 -5.00808 0
M  V30 4233 C 397.415 -0.302982 -5.2142 0
M  V30 4234 H 399.109 -0.450501 -2.95991 0
M  V30 4235 H 396.655 -0.218098 -1.42339 0
M  V30 4236 H 398.608 1.84037 -3.79089 0
M  V30 4237 H 397.332 2.02547 -2.56207 0
M  V30 4238 H 395.991 0.197715 -3.66066 0
M  V30 4239 H 395.639 2.58592 -4.31438 0
M  V30 4240 H 395.339 1.48764 -5.68457 0
M  V30 4241 H 396.863 2.41686 -5.60732 0
M  V30 4242 H 398.277 0.148802 -5.73107 0
M  V30 4243 H 396.674 -0.60532 -5.97039 0
M  V30 4244 H 397.744 -1.21395 -4.69459 0
M  V30 4245 N 399.087 1.5561 -0.249682 0
M  V30 4246 C 400.035 2.22894 0.664906 0
M  V30 4247 C 401.029 1.21743 1.17792 0
M  V30 4248 O 402.235 1.39748 1.13449 0
M  V30 4249 H 398.61 0.715022 0.232912 0
M  V30 4250 H 400.581 2.98307 0.0742998 0
M  V30 4251 C 399.33 2.94424 1.84959 0
M  V30 4252 H 398.653 3.72031 1.46399 0
M  V30 4253 H 400.093 3.44862 2.4667 0
M  V30 4254 C 398.552 1.98454 2.72245 0
M  V30 4255 O 399.082 1.51939 3.71857 0
M  V30 4256 N 397.288 1.65496 2.38871 0
M  V30 4257 H 396.835 2.03517 1.57919 0
M  V30 4258 H 396.793 1.0155 2.97548 0
M  V30 4259 N 400.565 -0.0233959 1.57583 0
M  V30 4260 C 401.512 -1.02224 2.06927 0
M  V30 4261 C 402.482 -1.35575 0.959617 0
M  V30 4262 O 403.667 -1.45815 1.23055 0
M  V30 4263 C 400.807 -2.31636 2.5581 0
M  V30 4264 C 399.92 -2.04394 3.80588 0
M  V30 4265 C 399.055 -3.27717 4.18061 0
M  V30 4266 C 398.094 -2.96056 5.3574 0
M  V30 4267 N 397.231 -4.11847 5.68618 0
M  V30 4268 H 402.071 -0.594504 2.9201 0
M  V30 4269 H 399.608 -0.281921 1.44373 0
M  V30 4270 H 401.566 -3.07258 2.82221 0
M  V30 4271 H 400.196 -2.72122 1.73636 0
M  V30 4272 H 399.248 -1.19244 3.61227 0
M  V30 4273 H 400.56 -1.77042 4.66323 0
M  V30 4274 H 399.714 -4.11702 4.4563 0
M  V30 4275 H 398.453 -3.58188 3.30988 0
M  V30 4276 H 397.458 -2.10474 5.07918 0
M  V30 4277 H 398.683 -2.66857 6.24471 0
M  V30 4278 H 396.629 -4.42258 4.84504 0
M  V30 4279 H 396.546 -3.87938 6.48876 0
M  V30 4280 H 397.814 -4.96689 6.00766 0
M  V30 4281 N 402.043 -1.548 -0.295768 0
M  V30 4282 C 403.292 -1.73538 -1.02798 0
M  V30 4283 C 403.605 -0.531159 -1.8825 0
M  V30 4284 O 404.811 -0.600458 -2.64777 0
M  V30 4285 C 403.267 -3.07051 -1.87744 0
M  V30 4286 C 402.875 -4.34968 -1.07269 0
M  V30 4287 C 404.619 -3.35146 -2.60533 0
M  V30 4288 C 402.526 -5.5953 -1.91521 0
M  V30 4289 H 401.456 -0.646794 -0.387522 0
M  V30 4290 H 404.107 -1.81278 -0.284718 0
M  V30 4291 H 402.489 -2.93289 -2.66078 0
M  V30 4292 H 403.663 -4.5958 -0.335117 0
M  V30 4293 H 401.978 -4.13847 -0.460384 0
M  V30 4294 H 404.575 -4.2541 -3.23929 0
M  V30 4295 H 404.918 -2.54255 -3.29636 0
M  V30 4296 H 405.451 -3.49902 -1.89244 0
M  V30 4297 H 402.19 -6.43103 -1.26878 0
M  V30 4298 H 401.71 -5.39096 -2.62937 0
M  V30 4299 H 403.389 -5.96982 -2.49442 0
M  V30 4300 N 403.521 0.559213 -1.47345 0
M  V30 4301 C 404.767 1.31843 -1.54095 0
M  V30 4302 C 405.1 1.93149 -0.201726 0
M  V30 4303 O 404.375 1.77759 0.789428 0
M  V30 4304 C 404.658 2.43006 -2.65744 0
M  V30 4305 C 404.511 1.86581 -4.09277 0
M  V30 4306 C 405.83 3.44943 -2.73318 0
M  V30 4307 H 402.949 0.478012 -0.560957 0
M  V30 4308 H 405.591 0.625977 -1.79392 0
M  V30 4309 H 403.741 3.02072 -2.44305 0
M  V30 4310 H 405.413 1.31792 -4.42073 0
M  V30 4311 H 403.656 1.17268 -4.17649 0
M  V30 4312 H 404.327 2.66933 -4.83168 0
M  V30 4313 H 406.803 2.95793 -2.92653 0
M  V30 4314 H 405.679 4.20153 -3.53218 0
M  V30 4315 H 405.94 4.03665 -1.80296 0
M  V30 4316 N 404.999 1.35443 0.805782 0
M  V30 4317 C 406.415 1.15499 1.10146 0
M  V30 4318 C 406.615 -0.0319975 2.01475 0
M  V30 4319 O 405.671 -0.70236 2.42535 0
M  V30 4320 C 406.984 2.45833 1.73166 0
M  V30 4321 C 408.532 2.52047 1.85583 0
M  V30 4322 C 409.007 3.82427 2.52019 0
M  V30 4323 N 410.498 3.83682 2.59504 0
M  V30 4324 C 411.233 4.81294 3.11679 0
M  V30 4325 N 410.729 5.89294 3.64287 0
M  V30 4326 N 412.522 4.6873 3.1024 0
M  V30 4327 H 404.673 2.11469 0.198678 0
M  V30 4328 H 406.936 0.93594 0.150731 0
M  V30 4329 H 406.642 3.32874 1.13526 0
M  V30 4330 H 406.516 2.6044 2.72857 0
M  V30 4331 H 408.903 1.65435 2.44367 0
M  V30 4332 H 408.984 2.41354 0.847455 0
M  V30 4333 H 408.628 4.69437 1.93885 0
M  V30 4334 H 408.558 3.90409 3.53395 0
M  V30 4335 H 411.049 3.05648 2.22234 0
M  V30 4336 H 411.362 6.59768 4.02401 0
M  V30 4337 H 409.707 5.92985 3.62483 0
M  V30 4338 H 412.898 3.83496 2.68419 0
M  V30 4339 H 413.071 5.44965 3.50596 0
M  V30 4340 N 406.477 -1.02803 1.19454 0
M  V30 4341 C 407.41 -2.107 0.876396 0
M  V30 4342 C 408.388 -1.61741 -0.166897 0
M  V30 4343 O 409.572 -1.88451 -0.0430195 0
M  V30 4344 C 406.699 -3.37262 0.311758 0
M  V30 4345 C 405.745 -4.05093 1.33424 0
M  V30 4346 S 406.578 -4.50498 2.89503 0
M  V30 4347 C 407.734 -5.80277 2.34584 0
M  V30 4348 H 407.967 -2.37362 1.79016 0
M  V30 4349 H 405.5 -1.15755 1.02177 0
M  V30 4350 H 407.458 -4.10499 -0.00748752 0
M  V30 4351 H 406.119 -3.08693 -0.58032 0
M  V30 4352 H 405.312 -4.9611 0.888302 0
M  V30 4353 H 404.914 -3.3803 1.60037 0
M  V30 4354 H 407.206 -6.54873 1.73633 0
M  V30 4355 H 408.149 -6.29651 3.23952 0
M  V30 4356 H 408.557 -5.3599 1.77131 0
M  V30 4357 N 407.956 -0.998596 -1.21925 0
M  V30 4358 C 409.186 -0.695276 -1.94549 0
M  V30 4359 C 409.594 0.745079 -1.73911 0
M  V30 4360 O 408.937 1.51507 -1.03881 0
M  V30 4361 C 408.999 -0.928485 -3.47303 0
M  V30 4362 C 408.663 -2.35443 -3.91683 0
M  V30 4363 C 409.66 -3.33428 -3.98901 0
M  V30 4364 C 407.345 -2.69038 -4.24174 0
M  V30 4365 C 409.339 -4.63079 -4.37992 0
M  V30 4366 C 407.026 -3.98906 -4.62944 0
M  V30 4367 C 408.024 -4.95738 -4.69822 0
M  V30 4368 O 407.712 -6.23285 -5.07711 0
M  V30 4369 H 407.444 -0.255902 -0.625692 0
M  V30 4370 H 409.998 -1.33767 -1.5587 0
M  V30 4371 H 408.228 -0.228917 -3.86022 0
M  V30 4372 H 409.917 -0.619539 -4.01144 0
M  V30 4373 H 410.683 -3.08807 -3.73983 0
M  V30 4374 H 406.562 -1.94367 -4.18022 0
M  V30 4375 H 410.106 -5.38658 -4.43275 0
M  V30 4376 H 406.003 -4.23314 -4.87314 0
M  V30 4377 H 406.771 -6.27306 -5.25766 0
M  V30 4378 N 409.434 1.37368 -0.772513 0
M  V30 4379 C 410.659 2.0447 -0.347386 0
M  V30 4380 C 411.084 1.57882 1.0225 0
M  V30 4381 O 410.442 0.73941 1.65537 0
M  V30 4382 C 410.49 3.58369 -0.400479 0
M  V30 4383 O 409.594 4.0803 0.598789 0
M  V30 4384 H 408.935 0.646773 -0.15027 0
M  V30 4385 H 411.465 1.75667 -1.04892 0
M  V30 4386 H 411.475 4.07183 -0.258045 0
M  V30 4387 H 410.15 3.91633 -1.39986 0
M  V30 4388 H 408.727 3.70534 0.419411 0
M  V30 4389 N 410.912 0.523116 1.48665 0
M  V30 4390 C 412.323 0.0808997 1.86525 0
M  V30 4391 C 412.674 -1.33975 1.43336 0
M  V30 4392 O 411.799 -2.00221 0.821009 0
M  V30 4393 C 412.394 0.140037 3.3851 0
M  V30 4394 C 410.953 -0.246948 3.75589 0
M  V30 4395 C 410.1 0.502845 2.72703 0
M  V30 4396 H 413.051 0.734736 1.40667 0
M  V30 4397 H 413.072 -0.649945 3.74908 0
M  V30 4398 H 412.584 1.17412 3.69914 0
M  V30 4399 H 410.685 -1.28343 3.49798 0
M  V30 4400 H 410.798 0.0878859 4.79019 0
M  V30 4401 H 409.162 -0.0500581 2.54651 0
M  V30 4402 H 409.945 1.53743 3.0695 0
M  V30 4403 N 412.39 -1.55475 0.257931 0
M  V30 4404 C 413.636 -1.99502 -0.364266 0
M  V30 4405 C 413.969 -1.146 -1.56782 0
M  V30 4406 O 413.244 -0.211968 -1.93342 0
M  V30 4407 C 413.527 -3.51917 -0.763333 0
M  V30 4408 C 413.38 -4.4758 0.446371 0
M  V30 4409 C 414.699 -4.09742 -1.60623 0
M  V30 4410 H 411.818 -0.725277 -0.130929 0
M  V30 4411 H 414.46 -1.8653 0.361446 0
M  V30 4412 H 412.61 -3.63101 -1.38166 0
M  V30 4413 H 414.282 -4.48362 1.08487 0
M  V30 4414 H 412.525 -4.19947 1.08753 0
M  V30 4415 H 413.196 -5.51862 0.123645 0
M  V30 4416 H 415.672 -4.01727 -1.08418 0
M  V30 4417 H 414.548 -5.16631 -1.85429 0
M  V30 4418 H 414.809 -3.58889 -2.58169 0
M  V30 4419 N 413.868 0.0150385 -1.57593 0
M  V30 4420 C 415.093 0.718067 -1.94573 0
M  V30 4421 C 415.518 1.6734 -0.859005 0
M  V30 4422 O 414.876 1.80362 0.184147 0
M  V30 4423 C 414.924 1.43918 -3.30636 0
M  V30 4424 O 414.028 2.55299 -3.23876 0
M  V30 4425 H 413.369 0.192125 -0.635597 0
M  V30 4426 H 415.899 -0.0336708 -2.04572 0
M  V30 4427 H 415.909 1.80598 -3.65853 0
M  V30 4428 H 414.584 0.738619 -4.09289 0
M  V30 4429 H 413.161 2.21058 -3.00312 0
M  V30 4430 N 415.346 1.54954 0.287554 0
M  V30 4431 C 416.595 1.74081 1.01877 0
M  V30 4432 C 416.908 0.541135 1.87966 0
M  V30 4433 O 418.114 0.614491 2.64455 0
M  V30 4434 C 416.57 3.08042 1.86113 0
M  V30 4435 C 416.178 4.35531 1.04961 0
M  V30 4436 C 417.922 3.36523 2.58752 0
M  V30 4437 C 415.829 5.60538 1.88551 0
M  V30 4438 H 414.759 0.64884 0.384087 0
M  V30 4439 H 417.41 1.81426 0.275101 0
M  V30 4440 H 415.792 2.94696 2.64519 0
M  V30 4441 H 416.966 4.59751 0.31074 0
M  V30 4442 H 415.281 4.14085 0.43843 0
M  V30 4443 H 417.878 4.27122 3.21668 0
M  V30 4444 H 418.221 2.56 3.28283 0
M  V30 4445 H 418.754 3.50901 1.87386 0
M  V30 4446 H 415.493 6.43767 1.23466 0
M  V30 4447 H 415.013 5.40483 2.60074 0
M  V30 4448 H 416.692 5.98297 2.46273 0
M  V30 4449 N 416.824 -0.551391 1.4764 0
M  V30 4450 C 417.754 -1.66757 1.63445 0
M  V30 4451 C 418.735 -1.63077 0.483742 0
M  V30 4452 O 419.92 -1.80607 0.71377 0
M  V30 4453 C 417.05 -3.05387 1.65396 0
M  V30 4454 C 416.004 -3.23918 2.79752 0
M  V30 4455 C 415.33 -4.63393 2.66779 0
M  V30 4456 C 416.63 -3.08735 4.21284 0
M  V30 4457 H 418.324 -1.53786 2.56886 0
M  V30 4458 H 415.87 -0.738415 1.23626 0
M  V30 4459 H 417.823 -3.83325 1.75043 0
M  V30 4460 H 416.547 -3.19332 0.685195 0
M  V30 4461 H 415.206 -2.48391 2.69625 0
M  V30 4462 H 414.854 -4.74144 1.67918 0
M  V30 4463 H 414.554 -4.7674 3.43501 0
M  V30 4464 H 416.078 -5.43458 2.78364 0
M  V30 4465 H 417.492 -3.76484 4.32357 0
M  V30 4466 H 415.889 -3.33588 4.98838 0
M  V30 4467 H 416.959 -2.0541 4.39243 0
M  V30 4468 N 418.302 -1.35869 -0.798587 0
M  V30 4469 C 419.579 -1.20145 -1.54352 0
M  V30 4470 C 419.959 0.216161 -2.0999 0
M  V30 4471 O 419.307 1.22068 -1.93162 0
M  V30 4472 C 419.517 -2.27602 -2.64572 0
M  V30 4473 C 420.865 -2.63811 -3.32699 0
M  V30 4474 O 421.889 -2.26576 -2.74849 0
M  V30 4475 O 420.748 -3.27866 -4.37226 0
M  V30 4476 H 417.842 -0.467248 -0.682355 0
M  V30 4477 H 420.388 -1.47574 -0.837859 0
M  V30 4478 H 419.16 -3.2265 -2.21388 0
M  V30 4479 H 418.783 -2.01488 -3.42766 0
M  V30 4480 N 419.78 1.02168 -1.19998 0
M  V30 4481 C 421.029 1.75091 -1.0013 0
M  V30 4482 C 421.342 1.89923 0.467835 0
M  V30 4483 O 422.548 2.59888 0.785515 0
M  V30 4484 C 421.004 3.14892 -1.74273 0
M  V30 4485 C 420.612 3.0809 -3.25245 0
M  V30 4486 C 422.356 3.9206 -1.62755 0
M  V30 4487 C 420.263 4.42867 -3.91948 0
M  V30 4488 H 419.193 0.656394 -0.37103 0
M  V30 4489 H 421.844 1.14284 -1.43567 0
M  V30 4490 H 420.226 3.7621 -1.2362 0
M  V30 4491 H 421.4 2.5611 -3.83072 0
M  V30 4492 H 419.715 2.44416 -3.3712 0
M  V30 4493 H 422.312 4.91764 -2.09934 0
M  V30 4494 H 422.655 4.12199 -0.582894 0
M  V30 4495 H 423.188 3.37359 -2.10793 0
M  V30 4496 H 419.927 4.27931 -4.96543 0
M  V30 4497 H 419.447 4.94874 -3.3891 0
M  V30 4498 H 421.126 5.11728 -3.95909 0
M  V30 4499 N 421.258 1.00505 1.21394 0
M  V30 4500 C 422.205 0.565496 2.23765 0
M  V30 4501 C 423.175 -0.408466 1.60999 0
M  V30 4502 O 424.36 -0.310503 1.88257 0
M  V30 4503 C 421.5 -0.101667 3.4495 0
M  V30 4504 C 420.613 0.915479 4.22188 0
M  V30 4505 C 419.748 0.220574 5.30742 0
M  V30 4506 C 418.787 1.22527 5.99711 0
M  V30 4507 N 417.924 0.557831 6.9988 0
M  V30 4508 H 422.764 1.44314 2.60725 0
M  V30 4509 H 420.301 0.722643 1.28126 0
M  V30 4510 H 422.259 -0.505504 4.14126 0
M  V30 4511 H 420.889 -0.94303 3.08718 0
M  V30 4512 H 419.941 1.43756 3.52191 0
M  V30 4513 H 421.253 1.68005 4.69655 0
M  V30 4514 H 420.407 -0.239368 6.06228 0
M  V30 4515 H 419.146 -0.576401 4.84282 0
M  V30 4516 H 418.151 1.69571 5.22997 0
M  V30 4517 H 419.376 2.02332 6.48258 0
M  V30 4518 H 417.322 -0.219486 6.55633 0
M  V30 4519 H 417.239 1.26065 7.45415 0
M  V30 4520 H 418.507 0.121095 7.79406 0
M  V30 4521 N 422.737 -1.36956 0.779787 0
M  V30 4522 C 423.669 -2.28833 0.129639 0
M  V30 4523 C 424.682 -1.4902 -0.655511 0
M  V30 4524 O 425.871 -1.71578 -0.492279 0
M  V30 4525 C 422.971 -3.2833 -0.839792 0
M  V30 4526 C 422.144 -4.3727 -0.10675 0
M  V30 4527 C 421.203 -5.16789 -0.990717 0
M  V30 4528 O 420.229 -5.67406 -0.451516 0
M  V30 4529 N 421.431 -5.32294 -2.3161 0
M  V30 4530 H 424.196 -2.85268 0.918803 0
M  V30 4531 H 421.757 -1.49019 0.632841 0
M  V30 4532 H 423.749 -3.78413 -1.43477 0
M  V30 4533 H 422.319 -2.72605 -1.52988 0
M  V30 4534 H 421.539 -3.88478 0.669216 0
M  V30 4535 H 422.827 -5.07229 0.399464 0
M  V30 4536 H 422.225 -4.92768 -2.77843 0
M  V30 4537 H 420.782 -5.85656 -2.86095 0
M  V30 4538 N 424.215 -0.530993 -1.48385 0
M  V30 4539 C 425.463 0.00273189 -2.021 0
M  V30 4540 C 425.784 1.34672 -1.41027 0
M  V30 4541 O 425.054 1.8724 -0.576012 0
M  V30 4542 H 423.634 0.00399774 -0.746989 0
M  V30 4543 H 426.296 -0.695054 -1.82085 0
M  V30 4544 H 425.392 0.11031 -3.11905 0
M  V30 4545 N 425.693 1.55336 -0.266172 0
M  V30 4546 C 427.104 1.85236 0.233315 0
M  V30 4547 C 427.455 1.18816 1.56132 0
M  V30 4548 O 426.58 0.473307 2.11161 0
M  V30 4549 C 427.175 3.36059 0.430113 0
M  V30 4550 C 425.734 3.66116 0.873842 0
M  V30 4551 C 424.881 2.77274 -0.0380016 0
M  V30 4552 H 427.832 1.51004 -0.488214 0
M  V30 4553 H 427.853 3.58681 1.26998 0
M  V30 4554 H 427.365 3.84373 -0.536588 0
M  V30 4555 H 425.466 3.23295 1.85233 0
M  V30 4556 H 425.579 4.73699 0.717358 0
M  V30 4557 H 423.943 2.50198 0.476759 0
M  V30 4558 H 424.726 3.284 -1.00042 0
M  V30 4559 N 427.171 -0.0066808 1.57599 0
M  V30 4560 C 428.118 -1.00024 2.08 0
M  V30 4561 C 429.088 -1.34549 0.973943 0
M  V30 4562 O 430.273 -1.44502 1.24595 0
M  V30 4563 C 427.413 -2.2891 2.58252 0
M  V30 4564 C 426.526 -2.00346 3.82734 0
M  V30 4565 C 425.661 -3.23265 4.21513 0
M  V30 4566 C 424.7 -2.90357 5.3885 0
M  V30 4567 N 423.837 -4.05793 5.72954 0
M  V30 4568 H 428.677 -0.563499 2.92624 0
M  V30 4569 H 426.214 -0.266592 1.44664 0
M  V30 4570 H 428.172 -3.04247 2.85464 0
M  V30 4571 H 426.802 -2.70265 1.76512 0
M  V30 4572 H 425.854 -1.15406 3.62471 0
M  V30 4573 H 427.166 -1.72086 4.68175 0
M  V30 4574 H 426.32 -4.06953 4.49971 0
M  V30 4575 H 425.059 -3.54657 3.34768 0
M  V30 4576 H 424.064 -2.05075 5.10122 0
M  V30 4577 H 425.289 -2.60219 6.27266 0
M  V30 4578 H 423.235 -4.37094 4.89167 0
M  V30 4579 H 423.152 -3.81034 6.52954 0
M  V30 4580 H 424.42 -4.90289 6.06001 0
M  V30 4581 N 428.649 -1.55105 -0.279332 0
M  V30 4582 C 429.559 -1.90638 -1.36727 0
M  V30 4583 C 430.575 -0.802899 -1.54368 0
M  V30 4584 O 431.751 -1.10138 -1.68616 0
M  V30 4585 C 428.816 -2.16547 -2.70755 0
M  V30 4586 C 427.877 -3.40146 -2.61915 0
M  V30 4587 C 427.11 -3.6481 -3.8955 0
M  V30 4588 O 427.333 -2.92095 -4.89935 0
M  V30 4589 O 426.267 -4.58343 -3.90135 0
M  V30 4590 H 430.093 -2.83237 -1.09591 0
M  V30 4591 H 427.678 -1.4157 -0.477306 0
M  V30 4592 H 429.56 -2.34665 -3.50014 0
M  V30 4593 H 428.235 -1.27131 -2.9769 0
M  V30 4594 H 427.142 -3.2737 -1.81052 0
M  V30 4595 H 428.475 -4.29761 -2.3993 0
M  V30 4596 N 430.127 0.543554 -1.4793 0
M  V30 4597 C 431.538 1.12561 -1.48953 0
M  V30 4598 C 431.889 1.94578 -0.251754 0
M  V30 4599 O 431.014 2.0665 0.642255 0
M  V30 4600 C 431.609 2.04801 -2.69892 0
M  V30 4601 C 430.168 2.58251 -2.73831 0
M  V30 4602 C 429.315 1.34918 -2.42265 0
M  V30 4603 H 432.266 0.32947 -1.55242 0
M  V30 4604 H 432.287 2.88886 -2.47639 0
M  V30 4605 H 431.799 1.4508 -3.59963 0
M  V30 4606 H 429.9 3.21732 -1.87934 0
M  V30 4607 H 430.013 2.98312 -3.74895 0
M  V30 4608 H 428.377 1.66046 -1.93134 0
M  V30 4609 H 429.16 0.769693 -3.3456 0
M  V30 4610 N 431.605 1.3629 0.791371 0
M  V30 4611 C 432.852 1.30412 1.54916 0
M  V30 4612 C 433.18 -0.117162 1.94147 0
M  V30 4613 O 432.435 -1.08599 1.62803 0
M  V30 4614 C 432.734 2.17068 2.8393 0
M  V30 4615 C 432.4 3.65645 2.63846 0
M  V30 4616 C 431.062 4.0614 2.58077 0
M  V30 4617 C 433.414 4.59855 2.45322 0
M  V30 4618 C 430.742 5.3899 2.31748 0
M  V30 4619 C 433.094 5.9292 2.2052 0
M  V30 4620 C 431.758 6.32542 2.13183 0
M  V30 4621 H 431.028 0.47721 0.566879 0
M  V30 4622 H 433.675 1.68325 0.913172 0
M  V30 4623 H 431.98 1.72085 3.51986 0
M  V30 4624 H 433.677 2.09846 3.4171 0
M  V30 4625 H 430.267 3.33518 2.69191 0
M  V30 4626 H 434.451 4.29443 2.48782 0
M  V30 4627 H 429.707 5.68672 2.24548 0
M  V30 4628 H 433.881 6.65487 2.05182 0
M  V30 4629 H 431.508 7.35412 1.92544 0
M  V30 4630 N 433.083 -1.0153 1.20538 0
M  V30 4631 C 434.499 -1.27461 0.96051 0
M  V30 4632 C 434.699 -1.98273 -0.359193 0
M  V30 4633 O 433.755 -2.27886 -1.0874 0
M  V30 4634 C 435.068 -2.10837 2.14402 0
M  V30 4635 C 436.616 -2.24099 2.18515 0
M  V30 4636 C 437.091 -3.10852 3.36355 0
M  V30 4637 N 438.582 -3.18441 3.36377 0
M  V30 4638 C 439.317 -3.85795 4.24205 0
M  V30 4639 N 438.813 -4.55264 5.22213 0
M  V30 4640 N 440.606 -3.82331 4.12043 0
M  V30 4641 H 432.757 -0.539907 2.05423 0
M  V30 4642 H 435.02 -0.30092 0.898972 0
M  V30 4643 H 434.726 -1.66144 3.09983 0
M  V30 4644 H 434.6 -3.11576 2.12604 0
M  V30 4645 H 436.987 -2.68016 1.23497 0
M  V30 4646 H 437.068 -1.22865 2.24361 0
M  V30 4647 H 436.712 -2.6764 4.31661 0
M  V30 4648 H 436.642 -4.12177 3.27746 0
M  V30 4649 H 439.133 -2.68978 2.65442 0
M  V30 4650 H 439.446 -5.04331 5.85551 0
M  V30 4651 H 437.791 -4.54085 5.26148 0
M  V30 4652 H 440.982 -3.27207 3.34743 0
M  V30 4653 H 441.155 -4.34547 4.807 0
M  V30 4654 N 434.561 -1.01147 -1.20859 0
M  V30 4655 C 435.838 -0.613136 -1.85742 0
M  V30 4656 C 436.218 0.909004 -1.90526 0
M  V30 4657 O 435.566 1.79862 -1.40932 0
M  V30 4658 C 435.776 -1.255 -3.25654 0
M  V30 4659 C 437.124 -1.3672 -4.01986 0
M  V30 4660 O 438.148 -1.21082 -3.34989 0
M  V30 4661 O 437.007 -1.6194 -5.21956 0
M  V30 4662 H 434.101 -0.210878 -0.799662 0
M  V30 4663 H 436.647 -1.10853 -1.2849 0
M  V30 4664 H 435.419 -2.29532 -3.16908 0
M  V30 4665 H 435.042 -0.746369 -3.90532 0
M  V30 4666 N 436.039 1.36541 -0.78704 0
M  V30 4667 C 437.269 2.03266 -0.369662 0
M  V30 4668 C 437.677 1.59481 1.01796 0
M  V30 4669 O 437.02 0.778612 1.66383 0
M  V30 4670 C 437.082 3.57779 -0.351371 0
M  V30 4671 C 436.746 4.24756 -1.68617 0
M  V30 4672 C 437.743 4.47811 -2.64124 0
M  V30 4673 C 435.428 4.62277 -1.96481 0
M  V30 4674 C 437.422 5.07464 -3.85693 0
M  V30 4675 C 435.109 5.21649 -3.18317 0
M  V30 4676 C 436.107 5.44182 -4.12741 0
M  V30 4677 O 435.795 6.02307 -5.32429 0
M  V30 4678 H 435.527 0.658977 -0.150751 0
M  V30 4679 H 438.081 1.75548 -1.0664 0
M  V30 4680 H 436.311 3.84606 0.401847 0
M  V30 4681 H 438 4.05879 0.0410147 0
M  V30 4682 H 438.766 4.19221 -2.43883 0
M  V30 4683 H 434.645 4.44065 -1.23805 0
M  V30 4684 H 438.189 5.24968 -4.59407 0
M  V30 4685 H 434.086 5.49664 -3.38437 0
M  V30 4686 H 434.854 6.20775 -5.33461 0
M  V30 4687 N 437.518 0.538854 1.48102 0
M  V30 4688 C 438.764 0.00801365 2.02798 0
M  V30 4689 C 439.097 -1.3309 1.41424 0
M  V30 4690 O 438.372 -1.86169 0.563158 0
M  V30 4691 C 438.655 -0.104589 3.59948 0
M  V30 4692 C 438.508 1.26012 4.31788 0
M  V30 4693 C 439.827 -0.827055 4.32259 0
M  V30 4694 H 436.946 0.00438624 0.736987 0
M  V30 4695 H 439.588 0.6976 1.7673 0
M  V30 4696 H 437.738 -0.691893 3.82289 0
M  V30 4697 H 439.41 1.88922 4.2084 0
M  V30 4698 H 437.653 1.83968 3.92859 0
M  V30 4699 H 438.324 1.13424 5.40221 0
M  V30 4700 H 440.8 -0.328578 4.14801 0
M  V30 4701 H 439.676 -0.87476 5.41885 0
M  V30 4702 H 439.937 -1.87927 4.0017 0
M  V30 4703 N 438.996 -1.55193 0.274407 0
M  V30 4704 C 440.273 -1.91584 -0.394331 0
M  V30 4705 C 440.653 -1.19858 -1.73774 0
M  V30 4706 O 440.001 -0.3252 -2.26174 0
M  V30 4707 C 440.211 -3.4487 -0.535311 0
M  V30 4708 C 441.559 -4.16636 -0.818534 0
M  V30 4709 O 442.583 -3.5076 -0.620146 0
M  V30 4710 O 441.442 -5.33209 -1.19792 0
M  V30 4711 H 438.536 -0.798349 -0.215794 0
M  V30 4712 H 441.082 -1.66646 0.320507 0
M  V30 4713 H 439.854 -3.89145 0.410141 0
M  V30 4714 H 439.477 -3.75759 -1.29964 0
M  V30 4715 N 440.474 -0.00167713 -1.576 0
M  V30 4716 C 441.89 0.354422 -1.55615 0
M  V30 4717 C 442.09 1.74679 -1.00447 0
M  V30 4718 O 441.146 2.4428 -0.639022 0
M  V30 4719 C 442.459 0.22812 -2.99833 0
M  V30 4720 C 444.007 0.302934 -3.11531 0
M  V30 4721 C 444.482 0.205737 -4.57538 0
M  V30 4722 N 445.973 0.263584 -4.62449 0
M  V30 4723 C 446.708 0.211742 -5.73009 0
M  V30 4724 N 446.204 0.110399 -6.92712 0
M  V30 4725 N 447.997 0.263729 -5.61481 0
M  V30 4726 H 440.148 -0.912498 -1.918 0
M  V30 4727 H 442.411 -0.349928 -0.881053 0
M  V30 4728 H 442.117 -0.729934 -3.44042 0
M  V30 4729 H 441.991 1.00951 -3.6344 0
M  V30 4730 H 444.378 1.25143 -2.67251 0
M  V30 4731 H 444.459 -0.508357 -2.50698 0
M  V30 4732 H 444.103 -0.739225 -5.02492 0
M  V30 4733 H 444.033 1.03554 -5.16318 0
M  V30 4734 H 446.524 0.343173 -3.76339 0
M  V30 4735 H 446.837 0.0767828 -7.72762 0
M  V30 4736 H 445.182 0.0760025 -6.94958 0
M  V30 4737 H 448.373 0.34111 -4.66855 0
M  V30 4738 H 448.546 0.219862 -6.47627 0
M  V30 4739 N 441.952 1.55251 0.271103 0
M  V30 4740 C 443.199 1.75946 1.00245 0
M  V30 4741 C 443.527 0.561611 1.86215 0
M  V30 4742 O 442.782 -0.455832 1.90317 0
M  V30 4743 C 443.081 3.01879 1.91321 0
M  V30 4744 C 442.747 4.34337 1.21086 0
M  V30 4745 C 441.409 4.70338 1.01666 0
M  V30 4746 C 443.761 5.16325 0.71119 0
M  V30 4747 C 441.089 5.8588 0.310099 0
M  V30 4748 C 443.441 6.32597 0.0182157 0
M  V30 4749 C 442.105 6.67236 -0.18768 0
M  V30 4750 H 441.375 0.643833 0.366824 0
M  V30 4751 H 444.022 1.89521 0.27458 0
M  V30 4752 H 442.327 2.83212 2.70736 0
M  V30 4753 H 444.024 3.15088 2.48033 0
M  V30 4754 H 440.614 4.06043 1.37213 0
M  V30 4755 H 444.798 4.88987 0.848844 0
M  V30 4756 H 440.054 6.1124 0.139873 0
M  V30 4757 H 444.228 6.9538 -0.376711 0
M  V30 4758 H 441.855 7.56618 -0.73715 0
M  V30 4759 N 443.43 -0.535701 1.48216 0
M  V30 4760 C 444.677 -1.29183 1.55942 0
M  V30 4761 C 445.005 -1.93125 0.230857 0
M  V30 4762 O 444.26 -1.79556 -0.778331 0
M  V30 4763 C 444.559 -2.4068 2.64212 0
M  V30 4764 C 444.225 -1.94428 4.06827 0
M  V30 4765 C 442.887 -1.81532 4.45645 0
M  V30 4766 C 445.239 -1.59405 4.96225 0
M  V30 4767 C 442.567 -1.31939 5.71672 0
M  V30 4768 C 444.919 -1.11276 6.22736 0
M  V30 4769 C 443.583 -0.969924 6.60416 0
M  V30 4770 H 442.853 -0.472715 0.570632 0
M  V30 4771 H 445.5 -0.598437 1.81909 0
M  V30 4772 H 443.805 -3.15666 2.32083 0
M  V30 4773 H 445.502 -2.98822 2.67407 0
M  V30 4774 H 442.092 -2.05415 3.76168 0
M  V30 4775 H 446.276 -1.68231 4.66917 0
M  V30 4776 H 441.532 -1.19562 5.99596 0
M  V30 4777 H 445.706 -0.832453 6.91407 0
M  V30 4778 H 443.333 -0.583436 7.57958 0
M  V30 4779 N 444.908 -1.36708 -0.784132 0
M  V30 4780 C 445.855 -1.31466 -1.89698 0
M  V30 4781 C 446.825 -0.18239 -1.65096 0
M  V30 4782 O 448.01 -0.369762 -1.87183 0
M  V30 4783 C 445.15 -1.1151 -3.26588 0
M  V30 4784 C 444.263 -2.33859 -3.63227 0
M  V30 4785 C 443.398 -2.06873 -4.89262 0
M  V30 4786 C 442.437 -3.25154 -5.18595 0
M  V30 4787 N 441.574 -2.978 -6.35814 0
M  V30 4788 H 446.414 -2.26619 -1.93515 0
M  V30 4789 H 443.951 -1.12625 -0.946256 0
M  V30 4790 H 445.909 -0.979653 -4.05535 0
M  V30 4791 H 444.539 -0.200103 -3.22179 0
M  V30 4792 H 443.591 -2.58188 -2.79362 0
M  V30 4793 H 444.903 -3.22109 -3.8085 0
M  V30 4794 H 444.057 -1.90289 -5.76086 0
M  V30 4795 H 442.796 -1.15942 -4.73718 0
M  V30 4796 H 441.801 -3.42292 -4.30251 0
M  V30 4797 H 443.026 -4.1692 -5.36055 0
M  V30 4798 H 440.972 -2.09485 -6.21653 0
M  V30 4799 H 440.889 -3.7959 -6.53794 0
M  V30 4800 H 442.157 -2.84805 -7.25607 0
M  V30 4801 N 446.386 1.0089 -1.21074 0
M  V30 4802 C 447.614 1.78191 -1.05145 0
M  V30 4803 C 448.029 1.84537 0.398952 0
M  V30 4804 O 447.386 1.30393 1.27687 0
M  V30 4805 C 447.437 3.22288 -1.63746 0
M  V30 4806 O 447.158 3.16315 -3.03111 0
M  V30 4807 C 448.659 4.16106 -1.52875 0
M  V30 4808 H 445.879 0.560129 -0.369454 0
M  V30 4809 H 448.423 1.26945 -1.60328 0
M  V30 4810 H 446.578 3.70655 -1.12664 0
M  V30 4811 H 446.992 4.06817 -3.31059 0
M  V30 4812 H 448.466 5.15026 -1.98626 0
M  V30 4813 H 448.943 4.36541 -0.482521 0
M  V30 4814 H 449.549 3.73625 -2.03185 0
M  V30 4815 N 447.864 1.01787 1.20321 0
M  V30 4816 C 448.794 0.609625 2.25401 0
M  V30 4817 C 449.775 -0.375951 1.65893 0
M  V30 4818 O 450.96 -0.261101 1.92437 0
M  V30 4819 C 448.09 -0.0515995 3.47262 0
M  V30 4820 C 447.044 0.855095 4.19371 0
M  V30 4821 C 446.37 0.0595757 5.34667 0
M  V30 4822 C 447.67 2.16374 4.75373 0
M  V30 4823 H 449.364 1.48803 2.59804 0
M  V30 4824 H 446.91 0.716934 1.24884 0
M  V30 4825 H 448.863 -0.348764 4.19954 0
M  V30 4826 H 447.587 -0.964726 3.12027 0
M  V30 4827 H 446.246 1.13628 3.48546 0
M  V30 4828 H 445.894 -0.85524 4.95676 0
M  V30 4829 H 445.594 0.663406 5.83843 0
M  V30 4830 H 447.118 -0.231105 6.10162 0
M  V30 4831 H 448.532 1.92885 5.39878 0
M  V30 4832 H 446.929 2.71853 5.34991 0
M  V30 4833 H 447.999 2.82589 3.94045 0
M  V30 4834 N 449.342 -1.36122 0.79427 0
M  V30 4835 C 450.758 -1.5232 0.476525 0
M  V30 4836 C 450.958 -1.74685 -1.00436 0
M  V30 4837 O 450.014 -1.78115 -1.78973 0
M  V30 4838 C 451.327 -2.70607 1.31119 0
M  V30 4839 C 452.875 -2.8448 1.30537 0
M  V30 4840 C 453.35 -4.05778 2.12387 0
M  V30 4841 N 454.841 -4.12933 2.09859 0
M  V30 4842 C 455.576 -5.05876 2.69957 0
M  V30 4843 N 455.072 -6.04232 3.38934 0
M  V30 4844 N 456.865 -4.98528 2.59665 0
M  V30 4845 H 449.016 -1.1986 1.75349 0
M  V30 4846 H 451.279 -0.585418 0.745647 0
M  V30 4847 H 450.985 -2.60619 2.36158 0
M  V30 4848 H 450.859 -3.64888 0.955843 0
M  V30 4849 H 453.246 -2.93927 0.262876 0
M  V30 4850 H 453.327 -1.91093 1.70051 0
M  V30 4851 H 452.971 -3.97092 3.1667 0
M  V30 4852 H 452.901 -4.98323 1.70242 0
M  V30 4853 H 455.392 -3.42515 1.59662 0
M  V30 4854 H 455.705 -6.71724 3.82109 0
M  V30 4855 H 454.05 -6.04443 3.43036 0
M  V30 4856 H 457.241 -4.20641 2.05375 0
M  V30 4857 H 457.414 -5.70773 3.06793 0
M  V30 4858 N 450.82 -0.546701 -1.47814 0
M  V30 4859 C 451.783 0.196287 -2.28358 0
M  V30 4860 C 452.783 0.852437 -1.36346 0
M  V30 4861 O 453.973 0.709913 -1.59078 0
M  V30 4862 C 451.105 1.28579 -3.15722 0
M  V30 4863 H 452.298 -0.511086 -2.95513 0
M  V30 4864 H 449.851 -0.303248 -1.5333 0
M  V30 4865 H 450.586 2.0259 -2.53235 0
M  V30 4866 H 450.371 0.820229 -3.83425 0
M  V30 4867 H 451.861 1.80793 -3.76435 0
M  V30 4868 N 452.299 1.55045 -0.282633 0
M  V30 4869 C 453.209 2.26491 0.61147 0
M  V30 4870 C 454.225 1.29348 1.16384 0
M  V30 4871 O 455.401 1.62298 1.19253 0
M  V30 4872 C 452.466 2.97779 1.77563 0
M  V30 4873 C 451.527 4.10418 1.25919 0
M  V30 4874 C 450.76 4.78297 2.36786 0
M  V30 4875 O 450.983 4.45426 3.56303 0
M  V30 4876 O 449.917 5.66089 2.04517 0
M  V30 4877 H 453.743 3.03683 0.0324615 0
M  V30 4878 H 451.328 1.49317 -0.0497576 0
M  V30 4879 H 453.21 3.42554 2.45427 0
M  V30 4880 H 451.885 2.23498 2.34159 0
M  V30 4881 H 450.792 3.70082 0.546797 0
M  V30 4882 H 452.125 4.86622 0.738887 0
M  V30 4883 N 453.777 0.010035 1.57597 0
M  V30 4884 C 454.709 -1.00649 2.05918 0
M  V30 4885 C 455.722 -1.30077 0.978964 0
M  V30 4886 O 456.911 -1.26878 1.25556 0
M  V30 4887 C 454.011 -2.33876 2.45265 0
M  V30 4888 C 453.184 -2.23242 3.7614 0
M  V30 4889 C 452.243 -3.39242 4.02245 0
M  V30 4890 O 451.269 -3.1698 4.72771 0
M  V30 4891 N 452.471 -4.6242 3.50924 0
M  V30 4892 H 455.236 -0.594333 2.93748 0
M  V30 4893 H 452.797 -0.17714 1.60928 0
M  V30 4894 H 454.789 -3.1027 2.59836 0
M  V30 4895 H 453.359 -2.66799 1.62902 0
M  V30 4896 H 452.579 -1.31696 3.71551 0
M  V30 4897 H 453.867 -2.13321 4.61922 0
M  V30 4898 H 453.265 -4.83404 2.93832 0
M  V30 4899 H 451.822 -5.36046 3.70807 0
M  V30 4900 N 455.255 -1.55392 -0.262866 0
M  V30 4901 C 456.218 -1.88181 -1.30846 0
M  V30 4902 C 457.218 -0.757079 -1.41862 0
M  V30 4903 O 458.408 -1.02519 -1.40838 0
M  V30 4904 C 455.54 -2.09609 -2.68844 0
M  V30 4905 H 456.733 -2.81659 -1.02997 0
M  V30 4906 H 454.286 -1.48039 -0.501414 0
M  V30 4907 H 455.021 -1.18547 -3.01856 0
M  V30 4908 H 454.806 -2.91508 -2.62231 0
M  V30 4909 H 456.296 -2.36215 -3.44372 0
M  V30 4910 N 456.733 0.527833 -1.48498 0
M  V30 4911 C 457.961 1.30823 -1.6029 0
M  V30 4912 C 458.376 1.86945 -0.263974 0
M  V30 4913 O 457.733 1.6651 0.747034 0
M  V30 4914 C 457.784 2.45756 -2.65116 0
M  V30 4915 O 457.505 1.91946 -3.93813 0
M  V30 4916 C 459.006 3.37543 -2.87367 0
M  V30 4917 H 456.226 0.397763 -0.540394 0
M  V30 4918 H 458.77 0.636529 -1.94341 0
M  V30 4919 H 456.925 3.08806 -2.33917 0
M  V30 4920 H 457.339 2.67195 -4.51339 0
M  V30 4921 H 458.813 4.14532 -3.6451 0
M  V30 4922 H 459.29 3.92905 -1.9627 0
M  V30 4923 H 459.896 2.80283 -3.19878 0
M  V30 4924 N 458.211 1.37122 0.776871 0
M  V30 4925 C 459.143 1.28342 1.89897 0
M  V30 4926 C 460.156 0.200277 1.61563 0
M  V30 4927 O 461.345 0.456012 1.72577 0
M  V30 4928 C 458.445 0.960427 3.25006 0
M  V30 4929 C 457.618 2.148 3.81025 0
M  V30 4930 C 456.677 1.79608 4.94598 0
M  V30 4931 O 455.703 2.51845 5.10454 0
M  V30 4932 N 456.905 0.737171 5.758 0
M  V30 4933 H 459.67 2.25027 1.97947 0
M  V30 4934 H 457.231 1.3068 0.955739 0
M  V30 4935 H 459.223 0.705942 3.98495 0
M  V30 4936 H 457.793 0.0823066 3.12492 0
M  V30 4937 H 457.013 2.56454 2.99374 0
M  V30 4938 H 458.301 2.9411 4.15183 0
M  V30 4939 H 457.699 0.137637 5.65533 0
M  V30 4940 H 456.256 0.542534 6.49538 0
M  V30 4941 N 459.689 -1.00246 1.21608 0
M  V30 4942 C 460.966 -1.71336 0.943568 0
M  V30 4943 C 461.346 -2.03972 -0.543943 0
M  V30 4944 O 460.694 -1.71545 -1.50946 0
M  V30 4945 C 460.904 -2.97094 1.83128 0
M  V30 4946 C 462.252 -3.70071 2.08165 0
M  V30 4947 O 463.276 -3.07081 1.80498 0
M  V30 4948 O 462.135 -4.83376 2.54971 0
M  V30 4949 H 459.229 -0.747386 0.354039 0
M  V30 4950 H 461.775 -1.05967 1.32549 0
M  V30 4951 H 460.547 -2.69407 2.83788 0
M  V30 4952 H 460.17 -3.70204 1.45034 0
M  V30 4953 N 461.167 -1.02423 -1.1978 0
M  V30 4954 C 462.413 -0.719051 -1.89625 0
M  V30 4955 C 462.746 0.750083 -1.7913 0
M  V30 4956 O 462.021 1.54574 -1.18056 0
M  V30 4957 C 462.304 -1.16499 -3.40735 0
M  V30 4958 C 462.157 -2.695 -3.60125 0
M  V30 4959 C 463.476 -0.742166 -4.33797 0
M  V30 4960 H 460.595 -0.26269 -0.688595 0
M  V30 4961 H 463.237 -1.27333 -1.41018 0
M  V30 4962 H 461.387 -0.69341 -3.82262 0
M  V30 4963 H 463.059 -3.24569 -3.278 0
M  V30 4964 H 461.302 -3.10113 -3.03336 0
M  V30 4965 H 461.973 -2.95757 -4.66081 0
M  V30 4966 H 464.449 -1.1477 -3.99959 0
M  V30 4967 H 463.325 -1.08213 -5.38127 0
M  V30 4968 H 463.586 0.355747 -4.40666 0
M  V30 4969 N 462.645 1.35699 -0.801477 0
M  V30 4970 C 463.592 2.29876 -0.206294 0
M  V30 4971 C 464.562 1.52565 0.656752 0
M  V30 4972 O 465.747 1.81024 0.602906 0
M  V30 4973 C 462.887 3.39052 0.643272 0
M  V30 4974 C 462 4.31335 -0.239644 0
M  V30 4975 C 461.135 5.27599 0.61744 0
M  V30 4976 C 460.174 6.11521 -0.26619 0
M  V30 4977 N 459.311 6.99938 0.550571 0
M  V30 4978 H 464.151 2.80187 -1.01484 0
M  V30 4979 H 461.688 1.37902 -0.511997 0
M  V30 4980 H 463.646 4.0101 1.15094 0
M  V30 4981 H 462.276 2.9003 1.41713 0
M  V30 4982 H 461.328 3.70426 -0.865381 0
M  V30 4983 H 462.64 4.90243 -0.919985 0
M  V30 4984 H 461.794 5.94906 1.19045 0
M  V30 4985 H 460.533 4.69176 1.33137 0
M  V30 4986 H 459.538 5.43166 -0.851507 0
M  V30 4987 H 460.763 6.72022 -0.9779 0
M  V30 4988 H 458.709 6.44008 1.24856 0
M  V30 4989 H 458.626 7.55966 -0.071832 0
M  V30 4990 H 459.894 7.71599 1.10702 0
M  V30 4991 N 464.123 0.554532 1.47522 0
M  V30 4992 C 465.071 -0.207765 2.3167 0
M  V30 4993 C 466.065 -0.911914 1.4276 0
M  V30 4994 O 467.271 -0.833504 1.59539 0
M  V30 4995 H 463.646 -0.0858726 0.747081 0
M  V30 4996 H 465.617 0.521178 2.93813 0
M  V30 4997 C 464.366 -1.2263 3.25357 0
M  V30 4998 H 463.689 -0.693887 3.93732 0
M  V30 4999 H 465.129 -1.73062 3.87073 0
M  V30 5000 C 463.588 -2.27278 2.4869 0
M  V30 5001 O 464.118 -3.34156 2.22941 0
M  V30 5002 N 462.324 -2.01134 2.09746 0
M  V30 5003 H 461.871 -1.14232 2.30887 0
M  V30 5004 H 461.829 -2.71369 1.58765 0
M  V30 5005 N 465.601 -1.54893 0.290851 0
M  V30 5006 C 466.847 -2.00949 -0.314784 0
M  V30 5007 C 467.202 -1.1757 -1.52299 0
M  V30 5008 O 466.495 -0.241558 -1.90071 0
M  V30 5009 C 466.689 -3.49815 -0.732397 0
M  V30 5010 C 466.518 -4.47603 0.433799 0
M  V30 5011 C 465.288 -4.96806 0.922599 0
M  V30 5012 C 467.486 -4.98233 1.27546 0
M  V30 5013 N 465.468 -5.78426 2.05662 0
M  V30 5014 C 466.839 -5.77455 2.25712 0
M  V30 5015 C 468.894 -4.80439 1.307 0
M  V30 5016 C 467.597 -6.40778 3.26796 0
M  V30 5017 C 469.623 -5.44574 2.30637 0
M  V30 5018 C 468.985 -6.23619 3.27533 0
M  V30 5019 H 465.084 -0.777905 -0.0799257 0
M  V30 5020 H 467.668 -1.9015 0.418458 0
M  V30 5021 H 465.839 -3.60925 -1.43483 0
M  V30 5022 H 467.571 -3.82681 -1.31671 0
M  V30 5023 H 464.326 -4.70961 0.49926 0
M  V30 5024 H 464.75 -6.23923 2.62772 0
M  V30 5025 H 469.392 -4.18918 0.571622 0
M  V30 5026 H 467.11 -7.01439 4.01258 0
M  V30 5027 H 470.696 -5.32739 2.33838 0
M  V30 5028 H 469.576 -6.72367 4.03599 0
M  V30 5029 N 467.08 -0.0183926 -1.57589 0
M  V30 5030 C 468.013 1.00148 -2.0505 0
M  V30 5031 C 468.991 1.32387 -0.944058 0
M  V30 5032 O 470.175 1.44237 -1.21358 0
M  V30 5033 C 467.302 2.32435 -2.46357 0
M  V30 5034 C 466.348 2.15731 -3.67916 0
M  V30 5035 S 467.181 1.46613 -5.15039 0
M  V30 5036 C 468.337 2.80293 -5.59631 0
M  V30 5037 H 468.57 0.597429 -2.91235 0
M  V30 5038 H 466.103 0.193002 -1.53189 0
M  V30 5039 H 468.061 3.0849 -2.70822 0
M  V30 5040 H 466.722 2.69975 -1.60537 0
M  V30 5041 H 465.915 3.13502 -3.9463 0
M  V30 5042 H 465.517 1.4782 -3.43548 0
M  V30 5043 H 467.809 3.76557 -5.63215 0
M  V30 5044 H 468.752 2.58256 -6.59325 0
M  V30 5045 H 469.16 2.85047 -4.87246 0
M  V30 5046 N 468.558 1.5553 0.254621 0
M  V30 5047 C 469.786 1.81046 1.00149 0
M  V30 5048 C 470.201 0.593047 1.79244 0
M  V30 5049 O 469.558 -0.438196 1.77161 0
M  V30 5050 C 469.609 3.04684 1.94551 0
M  V30 5051 O 469.33 4.21725 1.18658 0
M  V30 5052 C 470.831 3.42943 2.80901 0
M  V30 5053 H 468.051 0.602653 0.295044 0
M  V30 5054 H 470.595 2.02576 0.279842 0
M  V30 5055 H 468.75 2.85226 2.62154 0
M  V30 5056 H 469.164 4.91746 1.82445 0
M  V30 5057 H 470.638 4.32576 3.42902 0
M  V30 5058 H 471.115 2.63176 3.51617 0
M  V30 5059 H 471.721 3.64724 2.18762 0
M  V30 5060 N 470.036 -0.519951 1.48776 0
M  V30 5061 C 470.946 -1.65025 1.66745 0
M  V30 5062 C 471.962 -1.6508 0.549954 0
M  V30 5063 O 473.138 -1.83848 0.822295 0
M  V30 5064 C 470.203 -3.0146 1.71238 0
M  V30 5065 C 469.264 -3.12182 2.94688 0
M  V30 5066 C 468.497 -4.42109 2.98958 0
M  V30 5067 O 468.72 -5.29799 2.1135 0
M  V30 5068 O 467.654 -4.57406 3.91233 0
M  V30 5069 H 471.48 -1.52801 2.62461 0
M  V30 5070 H 469.065 -0.694157 1.32294 0
M  V30 5071 H 470.947 -3.82584 1.76657 0
M  V30 5072 H 469.622 -3.13988 0.786975 0
M  V30 5073 H 468.529 -2.30316 2.94797 0
M  V30 5074 H 469.862 -3.04574 3.86646 0
M  V30 5075 N 471.514 -1.37532 -0.769588 0
M  V30 5076 C 472.742 -1.36059 -1.55871 0
M  V30 5077 C 473.157 0.053544 -1.88724 0
M  V30 5078 O 472.514 1.01591 -1.5161 0
M  V30 5079 C 472.565 -2.20107 -2.86767 0
M  V30 5080 O 472.286 -3.56009 -2.55321 0
M  V30 5081 C 473.787 -2.26636 -3.80987 0
M  V30 5082 H 471.007 -0.465967 -0.482821 0
M  V30 5083 H 473.551 -1.80901 -0.953686 0
M  V30 5084 H 471.706 -1.78768 -3.43687 0
M  V30 5085 H 472.12 -4.0009 -3.39158 0
M  V30 5086 H 473.594 -2.89763 -4.69831 0
M  V30 5087 H 474.071 -1.2754 -4.20274 0
M  V30 5088 H 474.677 -2.68296 -3.29996 0
M  V30 5089 N 472.992 0.995999 -1.22138 0
M  V30 5090 C 473.922 2.10387 -1.01289 0
M  V30 5091 C 474.903 1.69975 0.0651454 0
M  V30 5092 O 476.088 1.9396 -0.0964628 0
M  V30 5093 C 473.218 3.42312 -0.586517 0
M  V30 5094 C 472.172 3.96558 -1.61014 0
M  V30 5095 C 471.498 5.24494 -1.0397 0
M  V30 5096 C 472.798 4.27595 -2.99933 0
M  V30 5097 H 474.492 2.28086 -1.93951 0
M  V30 5098 H 472.038 1.09607 -0.933928 0
M  V30 5099 H 473.991 4.19223 -0.427793 0
M  V30 5100 H 472.715 3.24431 0.375761 0
M  V30 5101 H 471.374 3.21776 -1.75658 0
M  V30 5102 H 471.022 5.02953 -0.0688703 0
M  V30 5103 H 470.722 5.61755 -1.72352 0
M  V30 5104 H 472.246 6.04042 -0.892494 0
M  V30 5105 H 473.66 4.95315 -2.8868 0
M  V30 5106 H 472.057 4.76021 -3.6541 0
M  V30 5107 H 473.127 3.35498 -3.50099 0
M  V30 5108 N 474.47 1.03057 1.19235 0
M  V30 5109 C 475.4 0.633497 2.24742 0
M  V30 5110 C 476.381 -0.358335 1.66283 0
M  V30 5111 O 477.566 -0.240676 1.92703 0
M  V30 5112 C 474.696 -0.0147648 3.47297 0
M  V30 5113 C 473.65 0.899527 4.18441 0
M  V30 5114 C 472.976 0.116281 5.34574 0
M  V30 5115 C 474.276 2.21404 4.73051 0
M  V30 5116 H 475.97 1.5155 2.58211 0
M  V30 5117 H 473.516 0.73014 1.24117 0
M  V30 5118 H 475.469 -0.304202 4.20301 0
M  V30 5119 H 474.193 -0.931577 3.13032 0
M  V30 5120 H 472.852 1.17319 3.47321 0
M  V30 5121 H 472.5 -0.802619 4.96555 0
M  V30 5122 H 472.2 0.725293 5.83107 0
M  V30 5123 H 473.724 -0.166376 6.10373 0
M  V30 5124 H 475.138 1.98601 5.37802 0
M  V30 5125 H 473.535 2.77512 5.32078 0
M  V30 5126 H 474.605 2.86752 3.91026 0
M  V30 5127 N 475.948 -1.35272 0.808662 0
M  V30 5128 C 477.194 -1.99003 0.390581 0
M  V30 5129 C 477.527 -1.63999 -1.0401 0
M  V30 5130 O 476.802 -0.904368 -1.72196 0
M  V30 5131 C 477.085 -3.55454 0.576566 0
M  V30 5132 C 476.938 -4.00249 2.05233 0
M  V30 5133 C 478.257 -4.401 0.00354277 0
M  V30 5134 H 475.376 -0.722917 0.143388 0
M  V30 5135 H 478.018 -1.6039 1.01858 0
M  V30 5136 H 476.168 -3.88477 0.0419766 0
M  V30 5137 H 477.84 -3.77626 2.64946 0
M  V30 5138 H 476.083 -3.51082 2.54801 0
M  V30 5139 H 476.754 -5.0911 2.13333 0
M  V30 5140 H 479.23 -4.13548 0.460117 0
M  V30 5141 H 478.106 -5.48656 0.163575 0
M  V30 5142 H 478.367 -4.28444 -1.09032 0
M  V30 5143 N 477.426 -0.562348 -1.47226 0
M  V30 5144 C 478.358 0.220011 -2.28142 0
M  V30 5145 C 479.371 0.874596 -1.37312 0
M  V30 5146 O 480.56 0.747583 -1.62091 0
M  V30 5147 C 477.66 1.32953 -3.11732 0
M  V30 5148 C 476.833 0.770759 -4.30556 0
M  V30 5149 C 475.892 1.76541 -4.95701 0
M  V30 5150 O 474.918 1.3095 -5.53932 0
M  V30 5151 N 476.12 3.09896 -4.90861 0
M  V30 5152 H 478.885 -0.474107 -2.95926 0
M  V30 5153 H 476.446 -0.398761 -1.56912 0
M  V30 5154 H 478.438 1.99378 -3.5218 0
M  V30 5155 H 477.008 1.92681 -2.46156 0
M  V30 5156 H 476.228 -0.0704056 -3.94137 0
M  V30 5157 H 477.516 0.376872 -5.07402 0
M  V30 5158 H 476.914 3.49577 -4.44761 0
M  V30 5159 H 475.471 3.71865 -5.35313 0
M  V30 5160 N 478.904 1.54736 -0.299062 0
M  V30 5161 C 479.852 2.24897 0.593658 0
M  V30 5162 C 480.846 1.25429 1.13859 0
M  V30 5163 O 482.052 1.43286 1.08945 0
M  V30 5164 H 478.427 0.72207 0.210046 0
M  V30 5165 H 480.398 2.98393 -0.0206421 0
M  V30 5166 C 479.147 3.00159 1.75499 0
M  V30 5167 H 478.47 3.76501 1.34489 0
M  V30 5168 H 479.91 3.52535 2.35574 0
M  V30 5169 C 478.369 2.07015 2.65794 0
M  V30 5170 O 478.899 1.63692 3.66835 0
M  V30 5171 N 477.105 1.73012 2.33485 0
M  V30 5172 H 476.652 2.08439 1.51364 0
M  V30 5173 H 476.61 1.10965 2.94167 0
M  V30 5174 N 480.382 0.0267497 1.57577 0
M  V30 5175 C 481.345 -0.940916 2.08996 0
M  V30 5176 C 482.345 -1.25561 1.00455 0
M  V30 5177 O 483.535 -1.19634 1.26623 0
M  V30 5178 C 480.667 -2.25814 2.55384 0
M  V30 5179 H 481.86 -0.495628 2.95776 0
M  V30 5180 H 479.413 -0.221241 1.54726 0
M  V30 5181 H 480.148 -2.74976 1.71926 0
M  V30 5182 H 479.933 -2.04285 3.34679 0
M  V30 5183 H 481.423 -2.95178 2.95398 0
M  V30 5184 N 481.861 -1.55662 -0.24637 0
M  V30 5185 C 482.809 -1.91186 -1.3248 0
M  V30 5186 C 483.803 -0.790996 -1.49799 0
M  V30 5187 O 485.009 -0.975617 -1.51267 0
M  V30 5188 H 481.384 -0.607207 -0.443626 0
M  V30 5189 H 483.355 -2.81221 -0.997853 0
M  V30 5190 C 482.104 -2.22349 -2.67313 0
M  V30 5191 H 481.427 -3.08097 -2.54786 0
M  V30 5192 H 482.867 -2.51107 -3.41645 0
M  V30 5193 C 481.326 -1.04001 -3.20446 0
M  V30 5194 O 481.856 -0.28828 -4.00664 0
M  V30 5195 N 480.062 -0.830494 -2.7848 0
M  V30 5196 H 479.609 -1.4435 -2.13356 0
M  V30 5197 H 479.567 -0.0403258 -3.14374 0
M  V30 5198 N 483.339 0.512053 -1.4905 0
M  V30 5199 C 484.75 1.09376 -1.51307 0
M  V30 5200 C 485.101 1.94 -0.292971 0
M  V30 5201 O 484.226 2.07965 0.598277 0
M  V30 5202 C 484.821 1.99031 -2.74176 0
M  V30 5203 C 483.38 2.52385 -2.79247 0
M  V30 5204 C 482.527 1.29749 -2.45073 0
M  V30 5205 H 485.478 0.296467 -1.55906 0
M  V30 5206 H 485.499 2.83569 -2.53711 0
M  V30 5207 H 485.011 1.37412 -3.62959 0
M  V30 5208 H 483.112 3.17673 -1.94716 0
M  V30 5209 H 483.225 2.90293 -3.81139 0
M  V30 5210 H 481.589 1.61912 -1.96612 0
M  V30 5211 H 482.372 0.698555 -3.36118 0
M  V30 5212 N 484.817 1.37938 0.762283 0
M  V30 5213 C 486.094 1.24196 1.51112 0
M  V30 5214 C 486.474 -0.160409 2.1049 0
M  V30 5215 O 485.822 -1.16904 1.96331 0
M  V30 5216 C 486.032 2.34537 2.58445 0
M  V30 5217 C 487.38 2.7254 3.25588 0
M  V30 5218 O 488.404 2.33783 2.68745 0
M  V30 5219 O 487.263 3.39343 4.28379 0
M  V30 5220 H 484.357 0.485175 0.669727 0
M  V30 5221 H 486.903 1.49743 0.798438 0
M  V30 5222 H 485.675 3.28406 2.12756 0
M  V30 5223 H 485.298 2.10505 3.37303 0
M  V30 5224 N 486.295 -0.989507 1.22664 0
M  V30 5225 C 487.535 -1.7447 1.06488 0
M  V30 5226 C 487.899 -1.8794 -0.392737 0
M  V30 5227 O 489.1 -2.60175 -0.675446 0
M  V30 5228 C 487.371 -3.11043 1.76031 0
M  V30 5229 S 488.93 -4.02258 1.7531 0
M  V30 5230 H 485.748 -0.600123 0.381278 0
M  V30 5231 H 488.35 -1.18283 1.55658 0
M  V30 5232 H 487.054 -2.98884 2.81241 0
M  V30 5233 H 486.585 -3.72301 1.27105 0
M  V30 5234 H 488.6 -4.89623 0.805208 0
M  V30 5235 N 487.773 -1.03688 -1.18687 0
M  V30 5236 C 488.72 -0.624624 -2.22187 0
M  V30 5237 C 489.69 0.365636 -1.62026 0
M  V30 5238 O 490.875 0.260481 -1.89014 0
M  V30 5239 C 488.015 0.0101738 -3.45099 0
M  V30 5240 C 487.128 -1.02709 -4.19613 0
M  V30 5241 C 486.263 -0.361213 -5.2997 0
M  V30 5242 C 485.302 -1.38384 -5.96252 0
M  V30 5243 N 484.439 -0.743196 -6.98155 0
M  V30 5244 H 489.279 -1.51176 -2.56807 0
M  V30 5245 H 486.816 -0.75636 -1.26165 0
M  V30 5246 H 488.774 0.395528 -4.15321 0
M  V30 5247 H 487.404 0.860848 -3.1111 0
M  V30 5248 H 486.456 -1.53043 -3.48256 0
M  V30 5249 H 487.768 -1.80398 -4.65036 0
M  V30 5250 H 486.922 0.0785537 -6.06649 0
M  V30 5251 H 485.661 0.447799 -4.8564 0
M  V30 5252 H 484.666 -1.83378 -5.18317 0
M  V30 5253 H 485.891 -2.19448 -6.42666 0
M  V30 5254 H 483.837 0.0455789 -6.55984 0
M  V30 5255 H 483.754 -1.45784 -7.41811 0
M  V30 5256 H 485.022 -0.327698 -7.78811 0
M  V30 5257 N 489.251 1.34841 -0.815825 0
M  V30 5258 C 490.479 2.0273 -0.413294 0
M  V30 5259 C 490.894 1.61459 0.978599 0
M  V30 5260 O 490.251 0.816584 1.63212 0
M  V30 5261 C 490.302 3.58058 -0.497676 0
M  V30 5262 O 490.023 3.97832 -1.8347 0
M  V30 5263 C 491.524 4.4321 -0.0891339 0
M  V30 5264 H 488.744 0.649956 -0.166728 0
M  V30 5265 H 491.288 1.72267 -1.10201 0
M  V30 5266 H 489.443 3.87136 0.142886 0
M  V30 5267 H 489.857 4.92501 -1.80396 0
M  V30 5268 H 491.331 5.5164 -0.199274 0
M  V30 5269 H 491.808 4.28432 0.966571 0
M  V30 5270 H 492.414 4.19446 -0.703214 0
M  V30 5271 N 490.729 0.570148 1.46925 0
M  V30 5272 C 491.978 0.0487352 2.01641 0
M  V30 5273 C 492.291 -1.31433 1.44861 0
M  V30 5274 O 493.497 -1.92638 1.91318 0
M  V30 5275 C 491.953 0.0365817 3.59881 0
M  V30 5276 C 491.561 1.39719 4.25655 0
M  V30 5277 C 493.305 -0.431545 4.22301 0
M  V30 5278 C 491.212 1.34345 5.75939 0
M  V30 5279 H 490.142 0.0144492 0.753862 0
M  V30 5280 H 492.793 0.719928 1.68788 0
M  V30 5281 H 491.175 -0.700522 3.89755 0
M  V30 5282 H 492.349 2.15303 4.07408 0
M  V30 5283 H 490.664 1.80431 3.75278 0
M  V30 5284 H 493.261 -0.490354 5.32447 0
M  V30 5285 H 493.604 -1.44638 3.90366 0
M  V30 5286 H 494.137 0.251102 3.97007 0
M  V30 5287 H 490.876 2.33469 6.12513 0
M  V30 5288 H 490.396 0.629615 5.96486 0
M  V30 5289 H 492.075 1.051 6.38407 0
M  V30 5290 N 492.207 -1.54576 0.307264 0
M  V30 5291 C 493.137 -2.26708 -0.55907 0
M  V30 5292 C 494.118 -1.26893 -1.1328 0
M  V30 5293 O 495.303 -1.55677 -1.16097 0
M  V30 5294 C 492.433 -3.01259 -1.72801 0
M  V30 5295 C 491.387 -4.08275 -1.28435 0
M  V30 5296 C 490.713 -4.70575 -2.53895 0
M  V30 5297 C 492.013 -5.2068 -0.411038 0
M  V30 5298 H 493.707 -2.9937 0.042576 0
M  V30 5299 H 491.253 -1.43983 0.0219173 0
M  V30 5300 H 493.206 -3.50444 -2.34023 0
M  V30 5301 H 491.93 -2.26187 -2.356 0
M  V30 5302 H 490.589 -3.59949 -0.695161 0
M  V30 5303 H 490.237 -3.92136 -3.15021 0
M  V30 5304 H 489.937 -5.42854 -2.24908 0
M  V30 5305 H 491.461 -5.22527 -3.15908 0
M  V30 5306 H 492.875 -5.65721 -0.929097 0
M  V30 5307 H 491.272 -5.99716 -0.214664 0
M  V30 5308 H 492.342 -4.81629 0.562287 0
M  V30 5309 N 493.685 -0.035106 -1.57561 0
M  V30 5310 C 495.101 0.321334 -1.56332 0
M  V30 5311 C 495.301 1.72509 -1.04129 0
M  V30 5312 O 494.357 2.4287 -0.690694 0
M  V30 5313 C 495.67 0.164469 -3.0025 0
M  V30 5314 C 497.218 0.236786 -3.12103 0
M  V30 5315 C 497.693 0.10864 -4.57871 0
M  V30 5316 N 499.184 0.165433 -4.62904 0
M  V30 5317 C 499.919 0.0901506 -5.73329 0
M  V30 5318 N 499.415 -0.0365606 -6.9279 0
M  V30 5319 N 501.208 0.144572 -5.61914 0
M  V30 5320 H 493.359 -0.952976 -1.89821 0
M  V30 5321 H 495.622 -0.368537 -0.873432 0
M  V30 5322 H 495.328 -0.802746 -3.42416 0
M  V30 5323 H 495.202 0.932194 -3.655 0
M  V30 5324 H 497.589 1.19446 -2.69845 0
M  V30 5325 H 497.67 -0.561419 -2.49563 0
M  V30 5326 H 497.314 -0.845644 -5.00811 0
M  V30 5327 H 497.244 0.925786 -5.18398 0
M  V30 5328 H 499.735 0.263269 -3.76982 0
M  V30 5329 H 500.048 -0.0871487 -7.72751 0
M  V30 5330 H 498.393 -0.0714256 -6.94963 0
M  V30 5331 H 501.584 0.242006 -4.67474 0
M  V30 5332 H 501.757 0.0824413 -6.47948 0
M  V30 5333 N 495.163 1.55791 0.238111 0
M  V30 5334 C 496.126 1.90239 1.27835 0
M  V30 5335 C 497.126 0.779552 1.4064 0
M  V30 5336 O 498.316 1.04747 1.3919 0
M  V30 5337 C 495.448 2.13859 2.65475 0
M  V30 5338 H 496.641 2.83262 0.985034 0
M  V30 5339 H 494.194 1.48818 0.477799 0
M  V30 5340 H 494.929 1.23334 2.99932 0
M  V30 5341 H 494.714 2.95643 2.57561 0
M  V30 5342 H 496.204 2.41664 3.40571 0
M  V30 5343 N 496.642 -0.504142 1.49319 0
M  V30 5344 C 497.572 -1.61473 1.68667 0
M  V30 5345 C 498.553 -1.61455 0.535378 0
M  V30 5346 O 499.738 -1.78245 0.770868 0
M  V30 5347 C 496.868 -2.99971 1.75028 0
M  V30 5348 C 495.822 -3.14854 2.89916 0
M  V30 5349 C 495.148 -4.54671 2.81387 0
M  V30 5350 C 496.448 -2.95176 4.30893 0
M  V30 5351 H 498.142 -1.45535 2.61648 0
M  V30 5352 H 495.688 -0.698711 1.25913 0
M  V30 5353 H 497.641 -3.77562 1.8715 0
M  V30 5354 H 496.365 -3.1699 0.786441 0
M  V30 5355 H 495.024 -2.39687 2.77391 0
M  V30 5356 H 494.672 -4.68562 1.82917 0
M  V30 5357 H 494.372 -4.6557 3.58494 0
M  V30 5358 H 495.896 -5.34327 2.95512 0
M  V30 5359 H 497.31 -3.62538 4.44116 0
M  V30 5360 H 495.707 -3.17549 5.09198 0
M  V30 5361 H 496.777 -1.91332 4.45556 0
M  V30 5362 N 498.12 -1.38341 -0.754957 0
M  V30 5363 C 499.368 -1.34208 -1.51105 0
M  V30 5364 C 499.689 0.0677634 -1.94882 0
M  V30 5365 O 498.959 1.01517 -1.67544 0
M  V30 5366 H 497.539 -0.493819 -0.560493 0
M  V30 5367 H 500.201 -1.73005 -0.897507 0
M  V30 5368 H 499.297 -1.99203 -2.4026 0
M  V30 5369 N 499.598 0.982988 -1.23187 0
M  V30 5370 C 500.53 2.07729 -0.968572 0
M  V30 5371 C 501.543 1.62702 0.0564821 0
M  V30 5372 O 502.732 1.77603 -0.178733 0
M  V30 5373 C 499.832 3.36071 -0.436974 0
M  V30 5374 C 499.005 4.10081 -1.52159 0
M  V30 5375 C 498.064 5.16701 -0.99532 0
M  V30 5376 O 497.09 5.43727 -1.68373 0
M  V30 5377 N 498.292 5.80226 0.178192 0
M  V30 5378 H 501.057 2.30894 -1.9107 0
M  V30 5379 H 498.618 1.14949 -1.1401 0
M  V30 5380 H 500.61 4.04639 -0.0700051 0
M  V30 5381 H 499.18 3.09893 0.410509 0
M  V30 5382 H 498.4 3.36004 -2.06144 0
M  V30 5383 H 499.688 4.56295 -2.25105 0
M  V30 5384 H 499.086 5.60651 0.754096 0
M  V30 5385 H 497.643 6.49982 0.486449 0
M  V30 5386 N 501.076 1.04316 1.18135 0
M  V30 5387 C 502.324 0.746542 1.87806 0
M  V30 5388 C 502.645 -0.728082 1.80898 0
M  V30 5389 O 501.915 -1.52554 1.22899 0
M  V30 5390 H 500.495 0.273157 0.695265 0
M  V30 5391 H 503.157 1.32044 1.43354 0
M  V30 5392 H 502.253 1.05362 2.93778 0
M  V30 5393 N 502.554 -1.34406 0.822964 0
M  V30 5394 C 503.517 -2.2783 0.250271 0
M  V30 5395 C 504.517 -1.50288 -0.571854 0
M  V30 5396 O 505.707 -1.69825 -0.387952 0
M  V30 5397 C 502.839 -3.34663 -0.649137 0
M  V30 5398 H 504.032 -2.79992 1.07444 0
M  V30 5399 H 501.585 -1.44539 0.594829 0
M  V30 5400 H 502.32 -2.87714 -1.49637 0
M  V30 5401 H 502.105 -3.92052 -0.0611199 0
M  V30 5402 H 503.595 -4.04349 -1.04363 0
M  V30 5403 N 504.032 -0.577932 -1.46621 0
M  V30 5404 C 505.257 -0.0652536 -2.07297 0
M  V30 5405 C 505.682 1.22828 -1.4246 0
M  V30 5406 O 505.04 1.74075 -0.506718 0
M  V30 5407 C 505.088 0.0920589 -3.60482 0
M  V30 5408 O 504.192 1.14972 -3.96049 0
M  V30 5409 H 503.533 -0.06065 -0.661224 0
M  V30 5410 H 506.063 -0.799515 -1.88332 0
M  V30 5411 H 506.073 0.299741 -4.06897 0
M  V30 5412 H 504.748 -0.852612 -4.07067 0
M  V30 5413 H 503.325 0.920879 -3.61351 0
M  V30 5414 N 505.51 1.54411 -0.315457 0
M  V30 5415 C 506.759 1.99599 0.290395 0
M  V30 5416 C 507.072 1.20746 1.53882 0
M  V30 5417 O 508.278 1.56272 2.22017 0
M  V30 5418 C 506.734 3.5539 0.56797 0
M  V30 5419 C 506.342 4.43068 -0.662945 0
M  V30 5420 C 508.086 4.09067 1.13422 0
M  V30 5421 C 505.993 5.90317 -0.357722 0
M  V30 5422 H 504.923 0.745592 0.112286 0
M  V30 5423 H 507.574 1.78477 -0.426418 0
M  V30 5424 H 505.956 3.72468 1.34476 0
M  V30 5425 H 507.13 4.37765 -1.43869 0
M  V30 5426 H 505.445 4.00238 -1.14884 0
M  V30 5427 H 508.042 5.16663 1.37707 0
M  V30 5428 H 508.385 3.60552 2.08106 0
M  V30 5429 H 508.918 3.95589 0.418805 0
M  V30 5430 H 505.657 6.4301 -1.27351 0
M  V30 5431 H 505.177 5.98592 0.380472 0
M  V30 5432 H 506.856 6.4699 0.0354284 0
M  V30 5433 N 506.988 0.0434614 1.5754 0
M  V30 5434 C 507.898 -0.94893 2.14552 0
M  V30 5435 C 508.914 -1.34707 1.10136 0
M  V30 5436 O 510.09 -1.42557 1.42266 0
M  V30 5437 C 507.155 -2.208 2.67298 0
M  V30 5438 C 506.216 -1.86893 3.86484 0
M  V30 5439 C 505.449 -3.06797 4.36705 0
M  V30 5440 O 505.672 -4.19921 3.86034 0
M  V30 5441 O 504.606 -2.8826 5.28384 0
M  V30 5442 H 508.432 -0.494099 2.99654 0
M  V30 5443 H 506.017 -0.177989 1.48336 0
M  V30 5444 H 507.899 -2.94686 3.01228 0
M  V30 5445 H 506.574 -2.65436 1.85272 0
M  V30 5446 H 505.481 -1.10347 3.57455 0
M  V30 5447 H 506.814 -1.47062 4.69716 0
M  V30 5448 N 508.466 -1.55915 -0.229846 0
M  V30 5449 C 509.376 -1.94891 -1.30593 0
M  V30 5450 C 510.392 -0.851604 -1.51736 0
M  V30 5451 O 511.568 -1.15447 -1.65027 0
M  V30 5452 C 508.633 -2.25052 -2.63728 0
M  V30 5453 C 507.694 -3.48306 -2.5096 0
M  V30 5454 C 506.927 -3.77019 -3.77747 0
M  V30 5455 O 507.15 -3.07534 -4.80395 0
M  V30 5456 O 506.084 -4.70523 -3.75356 0
M  V30 5457 H 509.91 -2.86581 -1.00525 0
M  V30 5458 H 507.495 -1.43017 -0.432025 0
M  V30 5459 H 509.377 -2.45682 -3.42372 0
M  V30 5460 H 508.052 -1.36538 -2.93495 0
M  V30 5461 H 506.959 -3.32964 -1.70546 0
M  V30 5462 H 508.292 -4.37177 -2.26136 0
M  V30 5463 N 509.944 0.496216 -1.49584 0
M  V30 5464 C 510.877 1.61508 -1.61215 0
M  V30 5465 C 511.855 1.55927 -0.461045 0
M  V30 5466 O 513.039 1.75914 -0.677231 0
M  V30 5467 C 510.166 3.00035 -1.57152 0
M  V30 5468 C 509.212 3.23861 -2.77518 0
M  V30 5469 S 510.045 3.06466 -4.39134 0
M  V30 5470 C 511.201 4.4738 -4.37724 0
M  V30 5471 H 511.434 1.51398 -2.55863 0
M  V30 5472 H 508.967 0.681727 -1.38535 0
M  V30 5473 H 510.925 3.7991 -1.55494 0
M  V30 5474 H 509.586 3.07556 -0.637834 0
M  V30 5475 H 508.779 4.25 -2.70908 0
M  V30 5476 H 508.381 2.51716 -2.76614 0
M  V30 5477 H 510.673 5.39556 -4.09738 0
M  V30 5478 H 511.616 4.59038 -5.39156 0
M  V30 5479 H 512.024 4.28283 -3.67742 0
M  V30 5480 N 511.423 1.38739 0.74761 0
M  V30 5481 C 512.356 1.3083 1.86972 0
M  V30 5482 C 513.334 0.184229 1.61553 0
M  V30 5483 O 514.518 0.36256 1.8498 0
M  V30 5484 C 511.645 1.02854 3.22705 0
M  V30 5485 C 510.691 2.17281 3.67003 0
M  V30 5486 S 511.524 3.79468 3.77842 0
M  V30 5487 C 512.68 3.53692 5.16385 0
M  V30 5488 H 512.913 2.258 1.93395 0
M  V30 5489 H 510.446 1.24646 0.911199 0
M  V30 5490 H 512.404 0.87397 4.01089 0
M  V30 5491 H 511.065 0.0959295 3.13953 0
M  V30 5492 H 510.258 1.93267 4.65472 0
M  V30 5493 H 509.86 2.28876 2.9579 0
M  V30 5494 H 512.152 3.10176 6.02327 0
M  V30 5495 H 513.095 4.51576 5.45422 0
M  V30 5496 H 513.503 2.8807 4.85464 0
M  V30 5497 N 512.901 -0.976442 1.23707 0
M  V30 5498 C 514.129 -1.75341 1.09833 0
M  V30 5499 C 514.544 -1.8553 -0.349885 0
M  V30 5500 O 513.901 -1.33732 -1.24185 0
M  V30 5501 C 513.952 -3.17833 1.72233 0
M  V30 5502 O 513.673 -3.08167 3.11391 0
M  V30 5503 C 515.174 -4.11906 1.63853 0
M  V30 5504 H 512.394 -0.550137 0.384175 0
M  V30 5505 H 514.938 -1.2265 1.63638 0
M  V30 5506 H 513.093 -3.67538 1.22452 0
M  V30 5507 H 513.507 -3.97897 3.41729 0
M  V30 5508 H 514.981 -5.09579 2.12211 0
M  V30 5509 H 515.458 -4.35109 0.598092 0
M  V30 5510 H 516.064 -3.68107 2.13019 0
M  V30 5511 N 514.379 -1.04941 -1.1758 0
M  V30 5512 C 515.342 -0.652456 -2.19717 0
M  V30 5513 C 516.342 0.294745 -1.58076 0
M  V30 5514 O 517.532 0.0789579 -1.74021 0
M  V30 5515 C 514.664 0.0420712 -3.40874 0
M  V30 5516 H 515.857 -1.55642 -2.5635 0
M  V30 5517 H 513.41 -0.842995 -1.31618 0
M  V30 5518 H 514.145 0.95943 -3.09783 0
M  V30 5519 H 513.93 -0.638844 -3.86861 0
M  V30 5520 H 515.42 0.306 -4.16477 0
M  V30 5521 N 515.857 1.33968 -0.830081 0
M  V30 5522 C 517.097 1.99879 -0.427521 0
M  V30 5523 C 517.461 1.64355 0.992546 0
M  V30 5524 O 518.662 2.23164 1.49837 0
M  V30 5525 C 516.933 3.51771 -0.631815 0
M  V30 5526 S 518.492 4.37608 -0.323168 0
M  V30 5527 H 515.31 0.692485 -0.161202 0
M  V30 5528 H 517.912 1.63129 -1.07745 0
M  V30 5529 H 516.616 3.75113 -1.66488 0
M  V30 5530 H 516.147 3.93386 0.0325936 0
M  V30 5531 H 518.162 4.88683 0.860432 0
M  V30 5532 N 517.335 0.585699 1.46312 0
M  V30 5533 C 518.267 -0.183687 2.28463 0
M  V30 5534 C 519.28 -0.85264 1.38686 0
M  V30 5535 O 520.469 -0.721701 1.6326 0
M  V30 5536 C 517.569 -1.27977 3.13808 0
M  V30 5537 C 516.742 -0.702164 4.31727 0
M  V30 5538 C 515.801 -1.68633 4.98447 0
M  V30 5539 O 514.827 -1.22121 5.55945 0
M  V30 5540 N 516.029 -3.02047 4.95729 0
M  V30 5541 H 518.794 0.521127 2.95134 0
M  V30 5542 H 516.355 0.423673 1.56258 0
M  V30 5543 H 518.347 -1.9375 3.55307 0
M  V30 5544 H 516.917 -1.8874 2.4919 0
M  V30 5545 H 516.137 0.1331 3.93975 0
M  V30 5546 H 517.425 -0.296101 5.07938 0
M  V30 5547 H 516.823 -3.42457 4.50266 0
M  V30 5548 H 515.38 -3.63301 5.41161 0
M  V30 5549 N 518.813 -1.54241 0.323641 0
M  V30 5550 C 520.061 -2.00174 -0.278359 0
M  V30 5551 C 520.382 -1.2134 -1.52648 0
M  V30 5552 O 519.652 -0.315244 -1.93347 0
M  V30 5553 H 518.232 -0.739463 -0.105845 0
M  V30 5554 H 520.894 -1.89864 0.440204 0
M  V30 5555 H 519.99 -3.07486 -0.5347 0
M  V30 5556 N 520.291 -0.0518155 -1.57515 0
M  V30 5557 C 521.537 0.622745 -1.93002 0
M  V30 5558 C 521.87 1.70456 -0.930499 0
M  V30 5559 O 521.145 1.94452 0.0434086 0
M  V30 5560 C 521.428 1.21824 -3.38867 0
M  V30 5561 C 521.281 0.144434 -4.49568 0
M  V30 5562 C 522.6 2.12968 -3.8514 0
M  V30 5563 H 519.719 0.22491 -0.701844 0
M  V30 5564 H 522.361 -0.113711 -1.89659 0
M  V30 5565 H 520.511 1.8459 -3.41846 0
M  V30 5566 H 522.183 -0.48753 -4.58717 0
M  V30 5567 H 520.426 -0.527424 -4.30582 0
M  V30 5568 H 521.097 0.601127 -5.48717 0
M  V30 5569 H 523.573 1.60163 -3.8404 0
M  V30 5570 H 522.449 2.51578 -4.87852 0
M  V30 5571 H 522.71 3.03004 -3.21934 0
M  V30 5572 N 521.769 1.56035 0.221574 0
M  V30 5573 C 523.017 1.78693 0.944102 0
M  V30 5574 C 523.338 0.620317 1.8487 0
M  V30 5575 O 522.608 -0.362784 1.92512 0
M  V30 5576 H 521.188 0.659082 0.351597 0
M  V30 5577 H 523.85 1.93497 0.233435 0
M  V30 5578 H 522.946 2.70837 1.55093 0
M  V30 5579 N 523.247 -0.488276 1.49845 0
M  V30 5580 C 524.495 -1.23911 1.59657 0
M  V30 5581 C 524.816 -1.92816 0.291005 0
M  V30 5582 O 524.086 -1.83328 -0.690485 0
M  V30 5583 H 522.666 -0.460357 0.588286 0
M  V30 5584 H 525.328 -0.564794 1.86537 0
M  V30 5585 H 524.424 -1.99625 2.39909 0
M  V30 5586 N 524.725 -1.39134 -0.740242 0
M  V30 5587 C 526.136 -1.32208 -1.31825 0
M  V30 5588 C 526.487 0.0159919 -1.96193 0
M  V30 5589 O 525.612 0.918111 -1.95958 0
M  V30 5590 C 526.207 -2.39436 -2.39699 0
M  V30 5591 C 524.766 -2.36048 -2.93187 0
M  V30 5592 C 523.913 -2.21599 -1.66701 0
M  V30 5593 H 526.864 -1.49298 -0.538133 0
M  V30 5594 H 526.885 -2.05922 -3.19963 0
M  V30 5595 H 526.397 -3.36811 -1.92821 0
M  V30 5596 H 524.498 -1.42295 -3.44359 0
M  V30 5597 H 524.611 -3.30704 -3.46658 0
M  V30 5598 H 522.975 -1.68681 -1.90837 0
M  V30 5599 H 523.758 -3.20936 -1.21882 0
M  V30 5600 N 526.204 0.969867 -1.24223 0
M  V30 5601 C 527.429 1.75289 -1.10853 0
M  V30 5602 C 527.854 1.85091 0.335079 0
M  V30 5603 O 527.212 1.32024 1.24255 0
M  V30 5604 C 527.26 3.15255 -1.75062 0
M  V30 5605 O 526.364 3.99589 -1.01992 0
M  V30 5606 H 525.705 0.538904 -0.387915 0
M  V30 5607 H 528.235 1.21675 -1.64488 0
M  V30 5608 H 528.245 3.65787 -1.80731 0
M  V30 5609 H 526.92 3.07436 -2.801 0
M  V30 5610 H 525.497 3.58077 -1.04094 0
M  V30 5611 N 527.682 1.05563 1.17022 0
M  V30 5612 C 528.632 0.630007 2.19123 0
M  V30 5613 C 529.616 -0.335472 1.57364 0
M  V30 5614 O 530.808 -0.1521 1.76345 0
M  V30 5615 C 527.937 0.0101676 3.43298 0
M  V30 5616 C 527.023 0.999698 4.12149 0
M  V30 5617 N 527.414 2.17251 4.56766 0
M  V30 5618 C 525.712 0.829 4.38228 0
M  V30 5619 C 526.413 2.79883 5.09942 0
M  V30 5620 N 525.389 2.07656 5.02374 0
M  V30 5621 H 529.191 1.52353 2.51328 0
M  V30 5622 H 526.705 0.926288 1.33393 0
M  V30 5623 H 528.702 -0.312541 4.15727 0
M  V30 5624 H 527.362 -0.878707 3.12584 0
M  V30 5625 H 528.373 2.55067 4.50734 0
M  V30 5626 H 525.05 -0.00850974 4.17499 0
M  V30 5627 H 526.44 3.79362 5.54558 0
M  V30 5628 N 529.16 -1.33526 0.837174 0
M  V30 5629 C 530.107 -2.29248 0.267169 0
M  V30 5630 C 531.077 -1.54252 -0.616071 0
M  V30 5631 O 532.262 -1.82559 -0.554699 0
M  V30 5632 C 529.402 -3.40638 -0.553152 0
M  V30 5633 C 528.515 -4.30548 0.353921 0
M  V30 5634 C 527.65 -5.29051 -0.477339 0
M  V30 5635 C 526.689 -6.106 0.42823 0
M  V30 5636 N 525.826 -7.01152 -0.364801 0
M  V30 5637 H 530.666 -2.77398 1.08877 0
M  V30 5638 H 528.203 -1.36496 0.54838 0
M  V30 5639 H 530.161 -4.03921 -1.04422 0
M  V30 5640 H 528.791 -2.93685 -1.33973 0
M  V30 5641 H 527.843 -3.68001 0.963289 0
M  V30 5642 H 529.155 -4.87631 1.04964 0
M  V30 5643 H 528.309 -5.97853 -1.0323 0
M  V30 5644 H 527.048 -4.72541 -1.2065 0
M  V30 5645 H 526.053 -5.40718 0.995219 0
M  V30 5646 H 527.278 -6.69193 1.15573 0
M  V30 5647 H 525.224 -6.47092 -1.07738 0
M  V30 5648 H 525.141 -7.5551 0.272238 0
M  V30 5649 H 526.409 -7.74263 -0.902054 0
M  V30 5650 N 530.638 -0.59345 -1.46 0
M  V30 5651 C 531.601 0.123538 -2.28867 0
M  V30 5652 C 532.601 0.808628 -1.38989 0
M  V30 5653 O 533.791 0.658945 -1.61256 0
M  V30 5654 C 530.923 1.1847 -3.19653 0
M  V30 5655 H 532.116 -0.604843 -2.93737 0
M  V30 5656 H 529.669 -0.351875 -1.52288 0
M  V30 5657 H 530.404 1.94431 -2.59552 0
M  V30 5658 H 530.189 0.69783 -3.8584 0
M  V30 5659 H 531.679 1.68726 -3.81997 0
M  V30 5660 N 532.116 1.54067 -0.331816 0
M  V30 5661 C 533.532 1.59587 0.0205388 0
M  V30 5662 C 533.732 1.34813 1.49759 0
M  V30 5663 O 532.788 1.13661 2.25471 0
M  V30 5664 C 534.101 2.97959 -0.405103 0
M  V30 5665 C 535.649 3.10964 -0.356454 0
M  V30 5666 C 536.124 4.51694 -0.757384 0
M  V30 5667 N 537.615 4.57709 -0.71111 0
M  V30 5668 C 538.35 5.64729 -0.993427 0
M  V30 5669 N 537.846 6.79652 -1.3433 0
M  V30 5670 N 539.639 5.54546 -0.918442 0
M  V30 5671 H 531.79 1.68426 -1.29407 0
M  V30 5672 H 534.053 0.78819 -0.526745 0
M  V30 5673 H 533.759 3.21115 -1.43451 0
M  V30 5674 H 533.633 3.76524 0.225692 0
M  V30 5675 H 536.02 2.87538 0.663763 0
M  V30 5676 H 536.101 2.34484 -1.02229 0
M  V30 5677 H 535.745 4.75853 -1.77555 0
M  V30 5678 H 535.675 5.26555 -0.0691444 0
M  V30 5679 H 538.166 3.75176 -0.452883 0
M  V30 5680 H 538.479 7.57221 -1.54388 0
M  V30 5681 H 536.824 6.81128 -1.38164 0
M  V30 5682 H 540.015 4.63641 -0.644536 0
M  V30 5683 H 540.188 6.37861 -1.14181 0
M  V30 5684 N 533.594 0.0601682 1.57485 0
M  V30 5685 C 534.84 -0.612501 1.93329 0
M  V30 5686 C 535.173 -1.6996 0.939526 0
M  V30 5687 O 534.448 -1.94472 -0.0330957 0
M  V30 5688 C 534.731 -1.20025 3.39508 0
M  V30 5689 C 534.584 -0.12059 4.49638 0
M  V30 5690 C 535.903 -2.10923 3.86264 0
M  V30 5691 H 533.022 -0.221185 0.703027 0
M  V30 5692 H 535.664 0.123768 1.89596 0
M  V30 5693 H 533.814 -1.82774 3.42821 0
M  V30 5694 H 535.486 0.51185 4.58452 0
M  V30 5695 H 533.729 0.550251 4.30296 0
M  V30 5696 H 534.4 -0.572019 5.49028 0
M  V30 5697 H 536.876 -1.58124 3.84884 0
M  V30 5698 H 535.752 -2.48987 4.8918 0
M  V30 5699 H 536.013 -3.01292 3.23536 0
M  V30 5700 N 535.072 -1.5615 -0.213296 0
M  V30 5701 C 536.002 -1.96109 -1.26742 0
M  V30 5702 C 536.983 -0.830448 -1.48451 0
M  V30 5703 O 538.168 -1.09339 -1.60495 0
M  V30 5704 C 535.298 -2.28492 -2.61551 0
M  V30 5705 C 534.252 -3.44124 -2.54485 0
M  V30 5706 C 533.578 -3.62134 -3.93399 0
M  V30 5707 C 534.878 -4.78855 -2.08556 0
M  V30 5708 H 536.572 -2.84412 -0.935434 0
M  V30 5709 H 534.118 -1.36836 -0.44854 0
M  V30 5710 H 536.071 -2.55039 -3.3546 0
M  V30 5711 H 534.795 -1.37052 -2.96453 0
M  V30 5712 H 533.454 -3.17639 -1.83033 0
M  V30 5713 H 533.102 -2.68055 -4.25623 0
M  V30 5714 H 532.802 -4.39913 -3.89551 0
M  V30 5715 H 534.326 -3.91038 -4.68958 0
M  V30 5716 H 535.74 -5.04552 -2.72213 0
M  V30 5717 H 534.137 -5.59975 -2.1575 0
M  V30 5718 H 535.207 -4.73657 -1.03811 0
M  V30 5719 N 536.55 0.480323 -1.50102 0
M  V30 5720 C 537.513 1.56181 -1.6775 0
M  V30 5721 C 538.513 1.51156 -0.548503 0
M  V30 5722 O 539.703 1.5394 -0.815363 0
M  V30 5723 C 536.835 2.95823 -1.69415 0
M  V30 5724 H 538.028 1.41855 -2.6423 0
M  V30 5725 H 535.581 0.70605 -1.39444 0
M  V30 5726 H 536.316 3.15604 -0.745948 0
M  V30 5727 H 536.101 3.00878 -2.51425 0
M  V30 5728 H 537.591 3.74359 -1.85054 0
M  V30 5729 N 538.028 1.39524 0.732853 0
M  V30 5730 C 538.938 1.40695 1.87729 0
M  V30 5731 C 539.954 0.301496 1.71368 0
M  V30 5732 O 541.13 0.543313 1.93933 0
M  V30 5733 C 538.195 1.25098 3.23344 0
M  V30 5734 C 537.256 2.45634 3.52083 0
M  V30 5735 C 536.489 2.30772 4.81228 0
M  V30 5736 O 536.712 1.31233 5.55098 0
M  V30 5737 O 535.646 3.19799 5.09914 0
M  V30 5738 H 539.472 2.37168 1.89697 0
M  V30 5739 H 537.057 1.20663 0.880959 0
M  V30 5740 H 538.939 1.18541 4.04383 0
M  V30 5741 H 537.614 0.317209 3.22142 0
M  V30 5742 H 536.521 2.57767 2.71122 0
M  V30 5743 H 537.854 3.37712 3.58066 0
M  V30 5744 N 539.506 -0.963266 1.24736 0
M  V30 5745 C 540.469 -2.04013 1.04457 0
M  V30 5746 C 541.469 -1.608 0.000335555 0
M  V30 5747 O 542.659 -1.72515 0.241719 0
M  V30 5748 C 539.791 -3.35858 0.584162 0
M  V30 5749 H 540.984 -2.23436 2.00041 0
M  V30 5750 H 538.537 -1.13914 1.07021 0
M  V30 5751 H 539.272 -3.22128 -0.374673 0
M  V30 5752 H 539.057 -3.68568 1.3379 0
M  V30 5753 H 540.547 -4.1502 0.463451 0
M  V30 5754 N 540.985 -1.06182 -1.16461 0
M  V30 5755 C 541.918 -0.615859 -2.19733 0
M  V30 5756 C 542.896 0.360766 -1.58547 0
M  V30 5757 O 544.08 0.270009 -1.86556 0
M  V30 5758 C 541.207 0.097312 -3.3856 0
M  V30 5759 C 540.253 -0.835889 -4.18229 0
M  V30 5760 S 541.086 -2.33052 -4.82128 0
M  V30 5761 C 542.242 -1.62881 -6.04335 0
M  V30 5762 H 542.475 -1.49079 -2.57221 0
M  V30 5763 H 540.008 -0.874692 -1.27234 0
M  V30 5764 H 541.966 0.502563 -4.07412 0
M  V30 5765 H 540.627 0.948418 -2.99439 0
M  V30 5766 H 539.82 -0.283426 -5.03202 0
M  V30 5767 H 539.422 -1.18097 -3.54865 0
M  V30 5768 H 541.714 -0.933764 -6.71034 0
M  V30 5769 H 542.657 -2.45641 -6.64128 0
M  V30 5770 H 543.065 -1.11189 -5.53441 0
M  V30 5771 N 542.463 1.3308 -0.844243 0
M  V30 5772 C 543.688 2.02341 -0.455282 0
M  V30 5773 C 544.113 1.6308 0.93737 0
M  V30 5774 O 543.471 0.826118 1.61385 0
M  V30 5775 C 543.519 3.55743 -0.58988 0
M  V30 5776 O 542.623 4.1063 0.38166 0
M  V30 5777 H 541.964 0.637898 -0.184343 0
M  V30 5778 H 544.494 1.6986 -1.14056 0
M  V30 5779 H 544.504 4.05243 -0.473522 0
M  V30 5780 H 543.179 3.83662 -1.60549 0
M  V30 5781 H 541.756 3.72236 0.22241 0
M  V30 5782 N 543.941 0.601185 1.45683 0
M  V30 5783 C 544.873 -0.159446 2.28645 0
M  V30 5784 C 545.886 -0.837882 1.39583 0
M  V30 5785 O 547.075 -0.704344 1.64016 0
M  V30 5786 C 544.175 -1.24641 3.15147 0
M  V30 5787 C 543.348 -0.656334 4.32448 0
M  V30 5788 C 542.407 -1.63337 5.00208 0
M  V30 5789 O 541.433 -1.16217 5.57209 0
M  V30 5790 N 542.635 -2.96773 4.98905 0
M  V30 5791 H 545.4 0.5524 2.94565 0
M  V30 5792 H 542.961 0.440223 1.558 0
M  V30 5793 H 544.953 -1.8997 3.57342 0
M  V30 5794 H 543.523 -1.86087 2.51178 0
M  V30 5795 H 542.743 0.174879 3.93812 0
M  V30 5796 H 544.031 -0.242211 5.08223 0
M  V30 5797 H 543.429 -3.37662 4.53873 0
M  V30 5798 H 541.986 -3.57541 5.44984 0
M  V30 5799 N 545.419 -1.53889 0.339982 0
M  V30 5800 C 546.665 -2.01152 -0.258003 0
M  V30 5801 C 546.998 -1.22749 -1.50487 0
M  V30 5802 O 546.273 -0.314156 -1.91946 0
M  V30 5803 C 546.556 -3.55468 -0.575717 0
M  V30 5804 C 546.409 -4.44584 0.682996 0
M  V30 5805 C 547.728 -4.1768 -1.38677 0
M  V30 5806 H 544.847 -0.731198 -0.0922992 0
M  V30 5807 H 547.489 -1.84352 0.459814 0
M  V30 5808 H 545.639 -3.69914 -1.18725 0
M  V30 5809 H 547.311 -4.41981 1.32102 0
M  V30 5810 H 545.554 -4.13592 1.3086 0
M  V30 5811 H 546.225 -5.5043 0.416001 0
M  V30 5812 H 548.701 -4.0691 -0.869705 0
M  V30 5813 H 547.577 -5.25734 -1.57783 0
M  V30 5814 H 547.838 -3.72069 -2.38782 0
M  V30 5815 N 546.897 -0.0685191 -1.57451 0
M  V30 5816 C 548.125 0.610462 -1.97689 0
M  V30 5817 C 548.54 1.63346 -0.946758 0
M  V30 5818 O 547.897 1.82377 0.0669868 0
M  V30 5819 C 547.948 1.28196 -3.38006 0
M  V30 5820 O 547.669 0.299906 -4.37072 0
M  V30 5821 C 549.17 2.04907 -3.931 0
M  V30 5822 H 546.39 0.165689 -0.650222 0
M  V30 5823 H 548.934 -0.139953 -2.04021 0
M  V30 5824 H 547.089 1.98348 -3.32771 0
M  V30 5825 H 547.503 0.78126 -5.18649 0
M  V30 5826 H 548.977 2.47287 -4.93511 0
M  V30 5827 H 549.454 2.9043 -3.29465 0
M  V30 5828 H 550.06 1.39629 -4.01726 0
M  V30 5829 N 548.375 1.56261 0.205012 0
M  V30 5830 C 549.323 1.94631 1.27364 0
M  V30 5831 C 550.317 0.830434 1.47649 0
M  V30 5832 O 551.523 1.01538 1.48627 0
M  V30 5833 H 547.898 0.618755 0.427371 0
M  V30 5834 H 549.869 2.83768 0.922941 0
M  V30 5835 C 548.618 2.29358 2.61324 0
M  V30 5836 H 547.941 3.14744 2.46528 0
M  V30 5837 H 549.381 2.60076 3.34868 0
M  V30 5838 C 547.84 1.12461 3.17575 0
M  V30 5839 O 548.37 0.394407 3.99759 0
M  V30 5840 N 546.576 0.904036 2.7618 0
M  V30 5841 H 546.123 1.49956 2.09454 0
M  V30 5842 H 546.081 0.123662 3.14157 0
M  V30 5843 N 549.853 -0.472356 1.50355 0
M  V30 5844 C 551.081 -1.24784 1.65035 0
M  V30 5845 C 551.496 -1.85837 0.333176 0
M  V30 5846 O 550.853 -1.69168 -0.68472 0
M  V30 5847 C 550.904 -2.35747 2.74054 0
M  V30 5848 O 550.625 -1.77197 4.00665 0
M  V30 5849 C 552.126 -3.26645 2.99696 0
M  V30 5850 H 549.346 -0.377432 0.554785 0
M  V30 5851 H 551.89 -0.563962 1.9657 0
M  V30 5852 H 550.045 -2.99912 2.45217 0
M  V30 5853 H 550.459 -2.5026 4.60945 0
M  V30 5854 H 551.933 -4.00718 3.79644 0
M  V30 5855 H 552.41 -3.8535 2.10718 0
M  V30 5856 H 553.016 -2.68218 3.3006 0
M  V30 5857 N 551.331 -1.39911 -0.725443 0
M  V30 5858 C 552.279 -1.39552 -1.86086 0
M  V30 5859 C 553.273 -0.277334 -1.67114 0
M  V30 5860 O 554.479 -0.447865 -1.74339 0
M  V30 5861 H 550.854 -0.435993 -0.612711 0
M  V30 5862 H 552.825 -2.35305 -1.83505 0
M  V30 5863 C 551.574 -1.26529 -3.2386 0
M  V30 5864 H 550.897 -2.11845 -3.3906 0
M  V30 5865 H 552.337 -1.30336 -4.03471 0
M  V30 5866 C 550.796 0.0254168 -3.3689 0
M  V30 5867 O 551.326 0.992048 -3.89257 0
M  V30 5868 N 549.532 0.0916528 -2.90455 0
M  V30 5869 H 549.079 -0.695675 -2.48028 0
M  V30 5870 H 549.037 0.954745 -2.99553 0
M  V30 5871 N 552.809 0.956637 -1.25245 0
M  V30 5872 C 554.037 1.73571 -1.12608 0
M  V30 5873 C 554.452 1.86063 0.320324 0
M  V30 5874 O 553.809 1.35691 1.22042 0
M  V30 5875 C 553.86 3.15053 -1.77268 0
M  V30 5876 O 553.581 3.03174 -3.16255 0
M  V30 5877 C 555.082 4.09248 -1.70386 0
M  V30 5878 H 552.302 0.543955 -0.392879 0
M  V30 5879 H 554.846 1.20031 -1.65568 0
M  V30 5880 H 553.001 3.65543 -1.28284 0
M  V30 5881 H 553.415 3.9241 -3.48015 0
M  V30 5882 H 554.889 5.06138 -2.20291 0
M  V30 5883 H 555.366 4.34102 -0.667239 0
M  V30 5884 H 555.972 3.64672 -2.18849 0
M  V30 5885 N 554.287 1.06798 1.15896 0
M  V30 5886 C 555.25 0.687328 2.18651 0
M  V30 5887 C 556.25 -0.269559 1.58524 0
M  V30 5888 O 557.44 -0.0512627 1.74125 0
M  V30 5889 C 554.572 0.0121642 3.40898 0
M  V30 5890 H 555.765 1.59701 2.53842 0
M  V30 5891 H 553.318 0.863828 1.3026 0
M  V30 5892 H 554.053 -0.910025 3.1127 0
M  V30 5893 H 553.838 0.700309 3.85795 0
M  V30 5894 H 555.328 -0.239703 4.16911 0
M  V30 5895 N 555.766 -1.3263 0.851289 0
M  V30 5896 C 557.015 -1.96633 0.449267 0
M  V30 5897 C 557.328 -1.68131 -0.999562 0
M  V30 5898 O 558.534 -2.25845 -1.50685 0
M  V30 5899 C 556.99 -3.51946 0.752446 0
M  V30 5900 C 556.598 -3.89311 2.21678 0
M  V30 5901 C 558.342 -4.22437 0.417983 0
M  V30 5902 C 556.249 -5.37655 2.46336 0
M  V30 5903 H 555.179 -0.735888 0.164269 0
M  V30 5904 H 557.83 -1.51073 1.0416 0
M  V30 5905 H 556.212 -3.95899 0.0895858 0
M  V30 5906 H 557.386 -3.56378 2.92115 0
M  V30 5907 H 555.701 -3.31836 2.51543 0
M  V30 5908 H 558.298 -5.31549 0.579674 0
M  V30 5909 H 558.641 -4.11349 -0.640115 0
M  V30 5910 H 559.174 -3.84057 1.03659 0
M  V30 5911 H 555.913 -5.5376 3.50757 0
M  V30 5912 H 555.433 -5.72005 1.80473 0
M  V30 5913 H 557.112 -6.04695 2.30115 0
M  V30 5914 N 557.244 -0.608902 -1.45362 0
M  V30 5915 C 558.177 0.158059 -2.27652 0
M  V30 5916 C 559.155 0.872397 -1.37215 0
M  V30 5917 O 560.339 0.881002 -1.66645 0
M  V30 5918 C 557.466 1.22896 -3.15617 0
M  V30 5919 C 556.512 0.617607 -4.22005 0
M  V30 5920 S 557.345 -0.575518 -5.32398 0
M  V30 5921 C 558.501 0.495938 -6.23932 0
M  V30 5922 H 558.734 -0.540095 -2.92353 0
M  V30 5923 H 556.267 -0.396456 -1.49223 0
M  V30 5924 H 558.225 1.84195 -3.66855 0
M  V30 5925 H 556.886 1.89919 -2.50179 0
M  V30 5926 H 556.079 1.42341 -4.83482 0
M  V30 5927 H 555.681 0.0797273 -3.73915 0
M  V30 5928 H 557.973 1.37465 -6.63408 0
M  V30 5929 H 558.916 -0.0827108 -7.08052 0
M  V30 5930 H 559.324 0.811856 -5.58631 0
M  V30 5931 N 558.722 1.53707 -0.348139 0
M  V30 5932 C 559.655 2.21481 0.549667 0
M  V30 5933 C 560.633 1.20046 1.09671 0
M  V30 5934 O 561.817 1.48883 1.15612 0
M  V30 5935 C 558.944 2.89585 1.75664 0
M  V30 5936 C 557.99 4.04948 1.33864 0
M  V30 5937 S 558.823 5.34325 0.354577 0
M  V30 5938 C 559.979 6.05934 1.56828 0
M  V30 5939 H 560.212 2.97289 -0.0259755 0
M  V30 5940 H 557.745 1.53833 -0.132216 0
M  V30 5941 H 559.703 3.29441 2.44906 0
M  V30 5942 H 558.364 2.13535 2.30351 0
M  V30 5943 H 557.557 4.51552 2.23868 0
M  V30 5944 H 557.159 3.66893 0.725651 0
M  V30 5945 H 559.451 6.29606 2.50205 0
M  V30 5946 H 560.394 6.98799 1.14395 0
M  V30 5947 H 560.802 5.36151 1.76642 0
M  V30 5948 N 560.2 0.0768682 1.57412 0
M  V30 5949 C 561.132 -0.918248 2.10002 0
M  V30 5950 C 562.145 -1.25808 1.03325 0
M  V30 5951 O 563.334 -1.21438 1.30824 0
M  V30 5952 C 560.434 -2.23263 2.54964 0
M  V30 5953 C 559.607 -2.07088 3.8527 0
M  V30 5954 C 558.666 -3.21876 4.16272 0
M  V30 5955 O 557.692 -2.96643 4.8579 0
M  V30 5956 N 558.894 -4.4712 3.70221 0
M  V30 5957 H 561.659 -0.469209 2.96004 0
M  V30 5958 H 559.22 -0.108725 1.61535 0
M  V30 5959 H 561.212 -2.9897 2.72762 0
M  V30 5960 H 559.782 -2.59649 1.74072 0
M  V30 5961 H 559.002 -1.15818 3.76802 0
M  V30 5962 H 560.29 -1.93537 4.70554 0
M  V30 5963 H 559.688 -4.70506 3.1407 0
M  V30 5964 H 558.245 -5.19837 3.93209 0
M  V30 5965 N 561.678 -1.56367 -0.196722 0
M  V30 5966 C 562.625 -1.94417 -1.24382 0
M  V30 5967 C 563.595 -0.804543 -1.45315 0
M  V30 5968 O 564.78 -1.06256 -1.58475 0
M  V30 5969 C 561.92 -2.28757 -2.58388 0
M  V30 5970 C 561.033 -3.55775 -2.45047 0
M  V30 5971 C 560.168 -3.79445 -3.71746 0
M  V30 5972 C 559.207 -4.99894 -3.53231 0
M  V30 5973 N 558.344 -5.19826 -4.71938 0
M  V30 5974 H 563.184 -2.83691 -0.912338 0
M  V30 5975 H 560.721 -1.40392 -0.439135 0
M  V30 5976 H 562.679 -2.46682 -3.36457 0
M  V30 5977 H 561.309 -1.42625 -2.89582 0
M  V30 5978 H 560.361 -3.45905 -1.58284 0
M  V30 5979 H 561.673 -4.44 -2.27299 0
M  V30 5980 H 560.827 -3.97601 -4.58256 0
M  V30 5981 H 559.566 -2.89546 -3.92446 0
M  V30 5982 H 558.571 -4.81662 -2.65107 0
M  V30 5983 H 559.796 -5.913 -3.33978 0
M  V30 5984 H 557.742 -4.32875 -4.92905 0
M  V30 5985 H 557.659 -6.02228 -4.57009 0
M  V30 5986 H 558.927 -5.42439 -5.59803 0
M  V30 5987 N 563.156 0.464375 -1.50603 0
M  V30 5988 C 564.404 1.21356 -1.61608 0
M  V30 5989 C 564.725 1.92329 -0.321643 0
M  V30 5990 O 563.995 1.84403 0.661232 0
M  V30 5991 H 562.575 0.45094 -0.595535 0
M  V30 5992 H 565.237 0.535046 -1.87412 0
M  V30 5993 H 564.333 1.95783 -2.43054 0
M  V30 5994 N 564.634 1.40294 0.718013 0
M  V30 5995 C 565.582 1.40536 1.85344 0
M  V30 5996 C 566.576 0.286192 1.66965 0
M  V30 5997 O 567.782 0.457105 1.74099 0
M  V30 5998 H 564.157 0.439236 0.61039 0
M  V30 5999 H 566.128 2.36275 1.82255 0
M  V30 6000 C 564.877 1.28245 3.23185 0
M  V30 6001 H 564.2 2.1364 3.37932 0
M  V30 6002 H 565.64 1.32474 4.02774 0
M  V30 6003 C 564.099 -0.0075503 3.36899 0
M  V30 6004 O 564.629 -0.971391 3.89778 0
M  V30 6005 N 562.835 -0.0762479 2.905 0
M  V30 6006 H 562.382 0.708819 2.47656 0
M  V30 6007 H 562.34 -0.938846 3.00055 0
M  V30 6008 N 566.112 -0.949982 1.2575 0
M  V30 6009 C 567.359 -1.69515 1.10774 0
M  V30 6010 C 567.687 -1.91316 -0.350479 0
M  V30 6011 O 566.942 -1.48515 -1.27443 0
M  V30 6012 C 567.241 -3.08039 1.81237 0
M  V30 6013 C 566.907 -3.06023 3.31151 0
M  V30 6014 C 565.569 -3.0518 3.72047 0
M  V30 6015 C 567.921 -2.98998 4.26907 0
M  V30 6016 C 565.249 -2.95067 5.07102 0
M  V30 6017 C 567.601 -2.90426 5.61992 0
M  V30 6018 C 566.265 -2.87922 6.0221 0
M  V30 6019 H 565.535 -0.6203 0.405351 0
M  V30 6020 H 568.182 -1.10953 1.56082 0
M  V30 6021 H 566.487 -3.70172 1.28373 0
M  V30 6022 H 568.184 -3.64526 1.67098 0
M  V30 6023 H 564.774 -3.07453 2.98614 0
M  V30 6024 H 568.958 -2.98764 3.963 0
M  V30 6025 H 564.214 -2.915 5.37436 0
M  V30 6026 H 568.388 -2.83952 6.35881 0
M  V30 6027 H 566.015 -2.79841 7.06819 0
M  V30 6028 N 567.59 -1.07411 -1.15328 0
M  V30 6029 C 568.537 -0.694995 -2.20087 0
M  V30 6030 C 569.507 0.313904 -1.63107 0
M  V30 6031 O 570.692 0.200216 -1.89747 0
M  V30 6032 C 567.832 -0.0996218 -3.44956 0
M  V30 6033 C 566.945 -1.16007 -4.16133 0
M  V30 6034 C 566.08 -0.529636 -5.28553 0
M  V30 6035 C 565.119 -1.57283 -5.91548 0
M  V30 6036 N 564.256 -0.964932 -6.95438 0
M  V30 6037 H 569.096 -1.5927 -2.51867 0
M  V30 6038 H 566.633 -0.796115 -1.23695 0
M  V30 6039 H 568.591 0.263197 -4.16369 0
M  V30 6040 H 567.221 0.761435 -3.13691 0
M  V30 6041 H 566.273 -1.64045 -3.4321 0
M  V30 6042 H 567.585 -1.95101 -4.59061 0
M  V30 6043 H 566.739 -0.114487 -6.06592 0
M  V30 6044 H 565.478 0.29307 -4.86819 0
M  V30 6045 H 564.483 -1.99775 -5.12221 0
M  V30 6046 H 565.708 -2.39783 -6.35359 0
M  V30 6047 H 563.654 -0.16314 -6.55797 0
M  V30 6048 H 563.571 -1.69311 -7.36797 0
M  V30 6049 H 564.839 -0.575305 -7.77374 0
M  V30 6050 N 569.068 1.32177 -0.85831 0
M  V30 6051 C 570.316 1.96735 -0.462568 0
M  V30 6052 C 570.637 1.6824 0.985911 0
M  V30 6053 O 569.907 0.991564 1.68952 0
M  V30 6054 H 568.487 0.727849 -0.168064 0
M  V30 6055 H 571.149 1.61195 -1.09554 0
M  V30 6056 H 570.245 3.06068 -0.610647 0
M  V30 6057 N 570.547 0.616602 1.45037 0
M  V30 6058 C 571.479 -0.135186 2.28801 0
M  V30 6059 C 572.492 -0.82303 1.40464 0
M  V30 6060 O 573.681 -0.686909 1.64754 0
M  V30 6061 C 570.781 -1.21292 3.16451 0
M  V30 6062 C 569.954 -0.61043 4.3312 0
M  V30 6063 C 569.013 -1.58022 5.01912 0
M  V30 6064 O 568.039 -1.10301 5.58411 0
M  V30 6065 N 569.241 -2.91464 5.02025 0
M  V30 6066 H 572.006 0.583612 2.93963 0
M  V30 6067 H 569.567 0.456723 1.55324 0
M  V30 6068 H 571.559 -1.86169 3.59337 0
M  V30 6069 H 570.129 -1.83412 2.53138 0
M  V30 6070 H 569.349 0.216638 3.93604 0
M  V30 6071 H 570.637 -0.188293 5.08451 0
M  V30 6072 H 570.035 -3.32829 4.57429 0
M  V30 6073 H 568.592 -3.51741 5.48745 0
M  V30 6074 N 572.025 -1.5352 0.356285 0
M  V30 6075 C 573.441 -1.59599 0.00485267 0
M  V30 6076 C 573.641 -1.37179 -1.47595 0
M  V30 6077 O 572.697 -1.17234 -2.23635 0
M  V30 6078 C 574.01 -2.97277 0.452454 0
M  V30 6079 C 575.558 -3.10357 0.405881 0
M  V30 6080 C 576.033 -4.50432 0.829148 0
M  V30 6081 N 577.524 -4.5652 0.783838 0
M  V30 6082 C 578.259 -5.63077 1.08315 0
M  V30 6083 N 577.755 -6.77429 1.45126 0
M  V30 6084 N 579.548 -5.53014 1.00655 0
M  V30 6085 H 571.699 -1.66346 1.32071 0
M  V30 6086 H 573.962 -0.77971 0.539218 0
M  V30 6087 H 573.668 -3.18792 1.48542 0
M  V30 6088 H 573.542 -3.76836 -0.165762 0
M  V30 6089 H 575.929 -2.88558 -0.617934 0
M  V30 6090 H 576.01 -2.32828 1.05947 0
M  V30 6091 H 575.654 -4.72968 1.85103 0
M  V30 6092 H 575.584 -5.26378 0.152906 0
M  V30 6093 H 578.075 -3.74408 0.512513 0
M  V30 6094 H 578.388 -7.54669 1.66415 0
M  V30 6095 H 576.733 -6.78844 1.48983 0
M  V30 6096 H 579.924 -4.62557 0.718215 0
M  V30 6097 H 580.097 -6.35964 1.24315 0
M  V30 6098 N 573.503 -0.0852151 -1.57369 0
M  V30 6099 C 574.45 0.877268 -2.13478 0
M  V30 6100 C 575.42 1.28642 -1.05073 0
M  V30 6101 O 576.605 1.36992 -1.32808 0
M  V30 6102 C 573.745 2.13464 -2.71159 0
M  V30 6103 C 572.858 1.77691 -3.93764 0
M  V30 6104 C 571.993 2.98139 -4.39643 0
M  V30 6105 C 571.032 2.58447 -5.54862 0
M  V30 6106 N 570.169 3.71698 -5.95639 0
M  V30 6107 H 575.009 0.391933 -2.95411 0
M  V30 6108 H 572.546 0.181796 -1.45972 0
M  V30 6109 H 574.504 2.87086 -3.02717 0
M  V30 6110 H 573.134 2.59514 -1.91969 0
M  V30 6111 H 572.186 0.940768 -3.68583 0
M  V30 6112 H 573.498 1.44497 -4.77412 0
M  V30 6113 H 572.652 3.80026 -4.72933 0
M  V30 6114 H 571.391 3.34536 -3.54876 0
M  V30 6115 H 570.396 1.74984 -5.21211 0
M  V30 6116 H 571.621 2.23205 -6.41371 0
M  V30 6117 H 569.567 4.07831 -5.13819 0
M  V30 6118 H 569.484 3.42317 -6.74059 0
M  V30 6119 H 570.752 4.54123 -6.33555 0
M  V30 6120 N 574.981 1.5647 0.188427 0
M  V30 6121 C 576.228 1.81013 0.907779 0
M  V30 6122 C 576.556 0.65953 1.82977 0
M  V30 6123 O 575.811 -0.354308 1.92466 0
M  V30 6124 C 576.11 3.11596 1.7505 0
M  V30 6125 C 575.776 4.40145 0.978922 0
M  V30 6126 C 574.438 4.75066 0.765912 0
M  V30 6127 C 576.79 5.19369 0.436498 0
M  V30 6128 C 574.118 5.867 -0.00089868 0
M  V30 6129 C 576.47 6.31805 -0.317136 0
M  V30 6130 C 575.134 6.65303 -0.541103 0
M  V30 6131 H 574.404 0.662373 0.33218 0
M  V30 6132 H 577.051 1.9071 0.173732 0
M  V30 6133 H 575.356 2.97165 2.55343 0
M  V30 6134 H 577.053 3.27793 2.30983 0
M  V30 6135 H 573.643 4.12745 1.15497 0
M  V30 6136 H 577.827 4.92799 0.588449 0
M  V30 6137 H 573.083 6.11122 -0.184329 0
M  V30 6138 H 577.257 6.92406 -0.744788 0
M  V30 6139 H 574.884 7.51646 -1.13718 0
M  V30 6140 N 576.459 -0.456382 1.50847 0
M  V30 6141 C 577.705 -1.20914 1.62811 0
M  V30 6142 C 578.038 -1.91301 0.334304 0
M  V30 6143 O 577.313 -1.82775 -0.665098 0
M  V30 6144 C 577.596 -2.24122 2.81853 0
M  V30 6145 C 577.449 -1.57944 4.21158 0
M  V30 6146 C 578.768 -3.25295 2.96431 0
M  V30 6147 H 575.887 -0.438233 0.592554 0
M  V30 6148 H 578.529 -0.50091 1.83278 0
M  V30 6149 H 576.679 -2.84524 2.64534 0
M  V30 6150 H 578.351 -1.01025 4.50102 0
M  V30 6151 H 576.594 -0.882185 4.24735 0
M  V30 6152 H 577.265 -2.33014 5.00408 0
M  V30 6153 H 579.741 -2.7493 3.12335 0
M  V30 6154 H 578.617 -3.94822 3.81322 0
M  V30 6155 H 578.878 -3.90286 2.07676 0
M  V30 6156 N 577.937 -1.40673 -0.710563 0
M  V30 6157 C 578.884 -1.41336 -1.82463 0
M  V30 6158 C 579.854 -0.269648 -1.63897 0
M  V30 6159 O 581.039 -0.468463 -1.8496 0
M  V30 6160 C 578.179 -1.28665 -3.20218 0
M  V30 6161 C 577.292 -2.52784 -3.5032 0
M  V30 6162 C 576.427 -2.32517 -4.77608 0
M  V30 6163 C 575.466 -3.52187 -5.0063 0
M  V30 6164 N 574.603 -3.31084 -6.19135 0
M  V30 6165 H 579.443 -2.36558 -1.8123 0
M  V30 6166 H 576.98 -1.17483 -0.885226 0
M  V30 6167 H 578.938 -1.19324 -3.99772 0
M  V30 6168 H 577.568 -0.370602 -3.20666 0
M  V30 6169 H 576.62 -2.72634 -2.65283 0
M  V30 6170 H 577.932 -3.41845 -3.63241 0
M  V30 6171 H 577.086 -2.20558 -5.65189 0
M  V30 6172 H 575.825 -1.40889 -4.66906 0
M  V30 6173 H 574.83 -3.64617 -4.11502 0
M  V30 6174 H 576.055 -4.44749 -5.13201 0
M  V30 6175 H 574.001 -2.42143 -6.09674 0
M  V30 6176 H 573.918 -4.13713 -6.32754 0
M  V30 6177 H 575.186 -3.22868 -7.0949 0
M  V30 6178 N 579.415 0.9433 -1.26252 0
M  V30 6179 C 580.655 1.70397 -1.1289 0
M  V30 6180 C 581.019 1.89268 0.322713 0
M  V30 6181 O 582.22 2.62503 0.578418 0
M  V30 6182 C 580.491 3.04296 -1.87453 0
M  V30 6183 S 582.05 3.95475 -1.90119 0
M  V30 6184 H 578.868 0.585559 -0.403289 0
M  V30 6185 H 581.47 1.12424 -1.59941 0
M  V30 6186 H 580.174 2.8824 -2.9214 0
M  V30 6187 H 579.705 3.67327 -1.40835 0
M  V30 6188 H 581.72 4.86297 -0.986373 0
M  V30 6189 N 580.893 1.08022 1.14757 0
M  V30 6190 C 582.14 0.807509 1.85703 0
M  V30 6191 C 582.468 -0.666617 1.8272 0
M  V30 6192 O 581.723 -1.50562 1.25018 0
M  V30 6193 C 582.022 1.26964 3.34088 0
M  V30 6194 C 581.688 2.7509 3.57262 0
M  V30 6195 C 580.35 3.15547 3.63296 0
M  V30 6196 C 582.702 3.70667 3.66409 0
M  V30 6197 C 580.03 4.50384 3.75994 0
M  V30 6198 C 582.382 5.05274 3.80632 0
M  V30 6199 C 581.046 5.45342 3.84913 0
M  V30 6200 H 580.316 0.295488 0.679535 0
M  V30 6201 H 582.963 1.35245 1.35577 0
M  V30 6202 H 581.268 0.644216 3.86467 0
M  V30 6203 H 582.965 1.03544 3.87401 0
M  V30 6204 H 579.555 2.42775 3.53212 0
M  V30 6205 H 583.739 3.40533 3.61041 0
M  V30 6206 H 578.995 4.80886 3.77569 0
M  V30 6207 H 583.169 5.79201 3.86652 0
M  V30 6208 H 580.796 6.49823 3.94505 0
M  V30 6209 N 582.371 -1.3172 0.865308 0
M  V30 6210 C 583.319 -2.30569 0.306674 0
M  V30 6211 C 584.313 -1.59317 -0.575724 0
M  V30 6212 O 585.519 -1.73961 -0.462343 0
M  V30 6213 H 581.894 -0.747681 0.0804834 0
M  V30 6214 H 583.865 -2.75165 1.15441 0
M  V30 6215 C 582.614 -3.44358 -0.480952 0
M  V30 6216 H 581.937 -3.99354 0.18876 0
M  V30 6217 H 583.377 -4.15652 -0.837241 0
M  V30 6218 C 581.836 -2.92574 -1.67039 0
M  V30 6219 O 582.366 -2.90954 -2.76964 0
M  V30 6220 N 580.572 -2.48835 -1.50097 0
M  V30 6221 H 580.119 -2.50353 -0.606738 0
M  V30 6222 H 580.077 -2.14543 -2.29823 0
M  V30 6223 N 583.85 -0.624285 -1.44708 0
M  V30 6224 C 585.09 -0.129273 -2.03991 0
M  V30 6225 C 585.454 1.22321 -1.47992 0
M  V30 6226 O 586.654 1.80993 -1.98734 0
M  V30 6227 C 584.926 -0.108231 -3.57236 0
M  V30 6228 S 586.485 0.323158 -4.37608 0
M  V30 6229 H 583.303 -0.0577318 -0.708652 0
M  V30 6230 H 585.904 -0.826139 -1.77187 0
M  V30 6231 H 584.609 -1.0958 -3.955 0
M  V30 6232 H 584.139 0.610101 -3.8864 0
M  V30 6233 H 586.154 1.56894 -4.70743 0
M  V30 6234 N 585.328 1.53329 -0.364422 0
M  V30 6235 C 586.576 2.00842 0.225189 0
M  V30 6236 C 586.897 1.25345 1.49378 0
M  V30 6237 O 586.167 0.366396 1.92443 0
M  V30 6238 H 584.747 0.742009 0.0862027 0
M  V30 6239 H 587.409 1.8863 -0.490389 0
M  V30 6240 H 586.505 3.08795 0.452987 0
M  V30 6241 N 586.806 0.0935595 1.57322 0
M  V30 6242 C 587.753 -0.865935 2.1394 0
M  V30 6243 C 588.723 -1.28083 1.05754 0
M  V30 6244 O 589.908 -1.36285 1.33533 0
M  V30 6245 C 587.048 -2.12023 2.72287 0
M  V30 6246 C 586.161 -1.756 3.94701 0
M  V30 6247 C 585.296 -2.95804 4.41218 0
M  V30 6248 C 584.335 -2.555 5.56225 0
M  V30 6249 N 583.472 -3.68534 5.97601 0
M  V30 6250 H 588.312 -0.376261 2.95615 0
M  V30 6251 H 585.849 -0.174052 1.46067 0
M  V30 6252 H 587.807 -2.85477 3.04235 0
M  V30 6253 H 586.437 -2.58492 1.93343 0
M  V30 6254 H 585.489 -0.921208 3.69077 0
M  V30 6255 H 586.801 -1.41964 4.78171 0
M  V30 6256 H 585.955 -3.77513 4.74941 0
M  V30 6257 H 584.694 -3.32649 3.56645 0
M  V30 6258 H 583.699 -1.72218 5.22131 0
M  V30 6259 H 584.924 -2.19801 6.42545 0
M  V30 6260 H 582.87 -4.051 5.15974 0
M  V30 6261 H 582.787 -3.38737 6.75865 0
M  V30 6262 H 584.055 -4.50757 6.35955 0
M  V30 6263 N 588.284 -1.56567 -0.180126 0
M  V30 6264 C 589.194 -1.98947 -1.24327 0
M  V30 6265 C 590.21 -0.899446 -1.4895 0
M  V30 6266 O 591.386 -1.20639 -1.61271 0
M  V30 6267 C 588.451 -2.33328 -2.56435 0
M  V30 6268 C 587.512 -3.56114 -2.39752 0
M  V30 6269 C 586.745 -3.88845 -3.65561 0
M  V30 6270 O 586.968 -3.22662 -4.70368 0
M  V30 6271 O 585.902 -4.82226 -3.60197 0
M  V30 6272 H 589.728 -2.89634 -0.913565 0
M  V30 6273 H 587.313 -1.44319 -0.386306 0
M  V30 6274 H 589.195 -2.5645 -3.34382 0
M  V30 6275 H 587.87 -1.45806 -2.89002 0
M  V30 6276 H 586.777 -3.38221 -1.59866 0
M  V30 6277 H 588.11 -4.4415 -2.12113 0
M  V30 6278 N 589.762 0.448376 -1.51087 0
M  V30 6279 C 591.01 1.19635 -1.62886 0
M  V30 6280 C 591.331 1.91977 -0.342024 0
M  V30 6281 O 590.601 1.85094 0.641636 0
M  V30 6282 H 589.181 0.444598 -0.600285 0
M  V30 6283 H 591.843 0.515138 -1.87969 0
M  V30 6284 H 590.939 1.93194 -2.45117 0
M  V30 6285 N 591.24 1.41047 0.703093 0
M  V30 6286 C 592.19 1.38774 1.80903 0
M  V30 6287 C 593.174 0.263275 1.58731 0
M  V30 6288 O 594.366 0.503362 1.69692 0
M  V30 6289 C 591.495 1.26497 3.19145 0
M  V30 6290 C 590.581 2.43775 3.47037 0
M  V30 6291 N 590.972 3.69249 3.45672 0
M  V30 6292 C 589.27 2.37425 3.77552 0
M  V30 6293 C 589.971 4.46989 3.72258 0
M  V30 6294 N 588.947 3.76998 3.91629 0
M  V30 6295 H 592.749 2.33714 1.78199 0
M  V30 6296 H 590.263 1.34996 0.902762 0
M  V30 6297 H 592.26 1.2295 3.98358 0
M  V30 6298 H 590.92 0.32534 3.23066 0
M  V30 6299 H 591.931 4.02239 3.26228 0
M  V30 6300 H 588.608 1.51895 3.88888 0
M  V30 6301 H 589.998 5.55894 3.77402 0
M  V30 6302 N 592.718 -0.936591 1.26751 0
M  V30 6303 C 593.967 -1.67778 1.11953 0
M  V30 6304 C 594.28 -1.92694 -0.33589 0
M  V30 6305 O 595.486 -2.64682 -0.604618 0
M  V30 6306 C 593.942 -3.02138 1.95551 0
M  V30 6307 C 593.55 -2.84953 3.45696 0
M  V30 6308 C 595.294 -3.79917 1.89377 0
M  V30 6309 C 593.201 -4.14814 4.21525 0
M  V30 6310 H 592.131 -0.629275 0.415366 0
M  V30 6311 H 594.782 -1.04122 1.51099 0
M  V30 6312 H 593.164 -3.668 1.49243 0
M  V30 6313 H 594.338 -2.29112 3.99805 0
M  V30 6314 H 592.653 -2.20612 3.53156 0
M  V30 6315 H 595.25 -4.76134 2.43312 0
M  V30 6316 H 595.593 -4.07204 0.865464 0
M  V30 6317 H 596.126 -3.22037 2.33532 0
M  V30 6318 H 592.865 -3.92709 5.24843 0
M  V30 6319 H 592.385 -4.70352 3.72195 0
M  V30 6320 H 594.064 -4.83239 4.3022 0
M  V30 6321 N 594.196 -1.08629 -1.14182 0
M  V30 6322 C 595.159 -0.722027 -2.1753 0
M  V30 6323 C 596.159 0.244305 -1.58933 0
M  V30 6324 O 597.349 0.0235545 -1.74184 0
M  V30 6325 C 594.481 -0.0663966 -3.40835 0
M  V30 6326 H 595.674 -1.63719 -2.51269 0
M  V30 6327 H 593.227 -0.884442 -1.28869 0
M  V30 6328 H 593.962 0.860389 -3.12678 0
M  V30 6329 H 593.747 -0.761598 -3.84632 0
M  V30 6330 H 595.237 0.173346 -4.1724 0
M  V30 6331 N 595.674 1.31259 -0.872281 0
M  V30 6332 C 597.09 1.49283 -0.564521 0
M  V30 6333 C 597.29 1.80243 0.900807 0
M  V30 6334 O 596.346 1.88246 1.68284 0
M  V30 6335 C 597.659 2.62503 -1.46673 0
M  V30 6336 C 599.207 2.76386 -1.46901 0
M  V30 6337 C 599.682 3.92705 -2.35684 0
M  V30 6338 N 601.173 3.99995 -2.33577 0
M  V30 6339 C 601.908 4.89276 -2.98992 0
M  V30 6340 N 601.404 5.83443 -3.73585 0
M  V30 6341 N 603.197 4.82541 -2.88289 0
M  V30 6342 H 595.348 1.09432 -1.82039 0
M  V30 6343 H 597.611 0.540949 -0.77851 0
M  V30 6344 H 597.317 2.46407 -2.50951 0
M  V30 6345 H 597.191 3.58695 -1.16696 0
M  V30 6346 H 599.578 2.91894 -0.433796 0
M  V30 6347 H 599.659 1.80853 -1.80903 0
M  V30 6348 H 599.303 3.77954 -3.39283 0
M  V30 6349 H 599.233 4.87549 -1.99006 0
M  V30 6350 H 601.724 3.32624 -1.7936 0
M  V30 6351 H 602.037 6.48303 -4.20622 0
M  V30 6352 H 600.382 5.83415 -3.77694 0
M  V30 6353 H 603.573 4.07951 -2.2955 0
M  V30 6354 H 603.746 5.51916 -3.39549 0
M  V30 6355 N 597.152 0.631951 1.44375 0
M  V30 6356 C 598.1 -0.0846693 2.32446 0
M  V30 6357 C 599.094 -0.834957 1.47393 0
M  V30 6358 O 600.3 -0.747764 1.63733 0
M  V30 6359 H 596.675 -0.0461508 0.750583 0
M  V30 6360 H 598.646 0.67619 2.90638 0
M  V30 6361 C 597.395 -1.05211 3.314 0
M  V30 6362 H 596.718 -0.484203 3.96857 0
M  V30 6363 H 598.158 -1.523 3.95703 0
M  V30 6364 C 596.617 -2.13776 2.60387 0
M  V30 6365 O 597.147 -3.21869 2.4034 0
M  V30 6366 N 595.353 -1.89733 2.20113 0
M  V30 6367 H 594.9 -1.01833 2.36618 0
M  V30 6368 H 594.858 -2.62572 1.72926 0
M  V30 6369 N 598.631 -1.53133 0.372548 0
M  V30 6370 C 599.871 -2.03267 -0.214943 0
M  V30 6371 C 600.235 -1.25362 -1.45425 0
M  V30 6372 O 601.436 -1.65536 -2.11781 0
M  V30 6373 C 599.707 -3.53985 -0.492897 0
M  V30 6374 S 601.266 -4.25977 -1.05307 0
M  V30 6375 H 598.084 -0.708289 -0.062029 0
M  V30 6376 H 600.686 -1.88539 0.517025 0
M  V30 6377 H 599.39 -4.08282 0.416442 0
M  V30 6378 H 598.921 -3.72887 -1.25375 0
M  V30 6379 H 600.936 -4.37731 -2.33679 0
M  V30 6380 N 600.109 -0.101901 -1.5727 0
M  V30 6381 C 601.525 0.254739 -1.57554 0
M  V30 6382 C 601.725 1.67937 -1.11352 0
M  V30 6383 O 600.781 2.39722 -0.793081 0
M  V30 6384 C 602.094 0.036975 -3.00677 0
M  V30 6385 C 603.642 0.104199 -3.12827 0
M  V30 6386 C 604.117 -0.0856565 -4.5792 0
M  V30 6387 N 605.608 -0.0310498 -4.6319 0
M  V30 6388 C 606.343 -0.153099 -5.73196 0
M  V30 6389 N 605.839 -0.330364 -6.92012 0
M  V30 6390 N 607.632 -0.0938854 -5.62022 0
M  V30 6391 H 599.783 -1.03263 -1.85609 0
M  V30 6392 H 602.046 -0.405251 -0.857016 0
M  V30 6393 H 601.752 -0.947254 -3.38703 0
M  V30 6394 H 601.626 0.776335 -3.69124 0
M  V30 6395 H 604.013 1.07894 -2.74669 0
M  V30 6396 H 604.094 -0.666762 -2.46957 0
M  V30 6397 H 603.738 -1.05729 -4.96773 0
M  V30 6398 H 603.668 0.705082 -5.21858 0
M  V30 6399 H 606.159 0.103141 -3.77759 0
M  V30 6400 H 606.472 -0.41482 -7.71686 0
M  V30 6401 H 604.817 -0.366119 -6.94035 0
M  V30 6402 H 608.008 0.0435168 -4.6808 0
M  V30 6403 H 608.181 -0.19245 -6.47714 0
M  V30 6404 N 601.587 1.56661 0.17182 0
M  V30 6405 C 602.55 1.9549 1.19651 0
M  V30 6406 C 603.55 0.838501 1.37207 0
M  V30 6407 O 604.74 1.10556 1.34622 0
M  V30 6408 C 601.872 2.24927 2.56166 0
M  V30 6409 H 603.065 2.87184 0.864007 0
M  V30 6410 H 600.618 1.50711 0.41425 0
M  V30 6411 H 601.353 1.35944 2.94431 0
M  V30 6412 H 601.138 3.06301 2.4479 0
M  V30 6413 H 602.628 2.55891 3.30014 0
M  V30 6414 N 603.065 -0.440357 1.51323 0
M  V30 6415 C 604.476 -1.02032 1.56353 0
M  V30 6416 C 604.827 -1.92382 0.385197 0
M  V30 6417 O 603.952 -2.10583 -0.498373 0
M  V30 6418 C 604.547 -1.85723 2.83359 0
M  V30 6419 C 603.106 -2.38774 2.90971 0
M  V30 6420 C 602.253 -1.17908 2.50984 0
M  V30 6421 H 605.204 -0.221744 1.57143 0
M  V30 6422 H 605.225 -2.71141 2.66951 0
M  V30 6423 H 604.737 -1.19939 3.69102 0
M  V30 6424 H 602.838 -3.08021 2.09651 0
M  V30 6425 H 602.951 -2.71778 3.94555 0
M  V30 6426 H 601.315 -1.52347 2.04114 0
M  V30 6427 H 602.098 -0.537393 3.39068 0
M  V30 6428 N 604.543 -1.41418 -0.695603 0
M  V30 6429 C 605.959 -1.23887 -1.00619 0
M  V30 6430 C 606.159 -0.128206 -2.01092 0
M  V30 6431 O 605.215 0.507408 -2.47349 0
M  V30 6432 C 606.528 -2.58816 -1.53083 0
M  V30 6433 C 608.076 -2.65998 -1.64967 0
M  V30 6434 C 608.551 -4.01244 -2.20833 0
M  V30 6435 N 610.042 -4.0309 -2.28194 0
M  V30 6436 C 610.777 -5.04539 -2.72448 0
M  V30 6437 N 610.273 -6.16378 -3.16306 0
M  V30 6438 N 612.066 -4.91901 -2.72011 0
M  V30 6439 H 604.217 -2.12379 -0.0300061 0
M  V30 6440 H 606.48 -0.944958 -0.0758797 0
M  V30 6441 H 606.186 -3.40842 -0.867147 0
M  V30 6442 H 606.06 -2.81299 -2.51298 0
M  V30 6443 H 608.447 -1.84331 -2.30448 0
M  V30 6444 H 608.528 -2.47325 -0.652982 0
M  V30 6445 H 608.172 -4.83359 -1.55968 0
M  V30 6446 H 608.102 -4.17257 -3.21254 0
M  V30 6447 H 610.593 -3.22341 -1.97242 0
M  V30 6448 H 610.906 -6.89658 -3.487 0
M  V30 6449 H 609.251 -6.19914 -3.14215 0
M  V30 6450 H 612.442 -4.03613 -2.37095 0
M  V30 6451 H 612.615 -5.71102 -3.06181 0
M  V30 6452 N 606.021 0.929856 -1.27246 0
M  V30 6453 C 606.968 2.03017 -1.09785 0
M  V30 6454 C 607.938 1.661 0.000456744 0
M  V30 6455 O 609.123 1.90116 -0.161462 0
M  V30 6456 C 606.263 3.36878 -0.748816 0
M  V30 6457 C 605.376 3.86763 -1.92453 0
M  V30 6458 C 604.511 5.09061 -1.51758 0
M  V30 6459 C 603.55 5.51237 -2.66091 0
M  V30 6460 N 602.687 6.64732 -2.25999 0
M  V30 6461 H 607.527 2.17285 -2.03939 0
M  V30 6462 H 605.064 1.06448 -1.01524 0
M  V30 6463 H 607.022 4.13855 -0.527283 0
M  V30 6464 H 605.652 3.22424 0.155771 0
M  V30 6465 H 604.704 3.06086 -2.25867 0
M  V30 6466 H 606.016 4.13994 -2.78227 0
M  V30 6467 H 605.17 5.93532 -1.25716 0
M  V30 6468 H 603.909 4.83602 -0.630896 0
M  V30 6469 H 602.914 4.65316 -2.92849 0
M  V30 6470 H 604.139 5.78692 -3.55377 0
M  V30 6471 H 602.085 6.40935 -1.3978 0
M  V30 6472 H 602.002 6.91607 -3.05313 0
M  V30 6473 H 603.27 7.52549 -2.03199 0
M  V30 6474 N 607.499 1.09233 1.13605 0
M  V30 6475 C 608.446 0.729921 2.18954 0
M  V30 6476 C 609.416 -0.287916 1.63586 0
M  V30 6477 O 610.601 -0.170003 1.90041 0
M  V30 6478 C 607.741 0.154489 3.44754 0
M  V30 6479 C 606.854 1.22613 4.14234 0
M  V30 6480 C 605.989 0.613657 5.27644 0
M  V30 6481 C 605.028 1.66674 5.8897 0
M  V30 6482 N 604.165 1.07545 6.93814 0
M  V30 6483 H 609.005 1.63257 2.49302 0
M  V30 6484 H 606.542 0.815693 1.22413 0
M  V30 6485 H 608.5 -0.196923 4.16735 0
M  V30 6486 H 607.13 -0.711433 3.14863 0
M  V30 6487 H 606.182 1.69485 3.40557 0
M  V30 6488 H 607.494 2.0238 4.55899 0
M  V30 6489 H 606.648 0.210976 6.06333 0
M  V30 6490 H 605.387 -0.215584 4.87223 0
M  V30 6491 H 604.392 2.07899 5.08978 0
M  V30 6492 H 605.617 2.49861 6.31464 0
M  V30 6493 H 603.563 0.267451 6.55455 0
M  V30 6494 H 603.48 1.81011 7.3401 0
M  V30 6495 H 604.748 0.698906 7.7636 0
M  V30 6496 N 608.977 -1.30795 0.87923 0
M  V30 6497 C 610.225 -1.95974 0.493809 0
M  V30 6498 C 610.546 -1.69787 -0.959021 0
M  V30 6499 O 609.816 -1.01832 -1.67353 0
M  V30 6500 H 608.396 -0.725083 0.179622 0
M  V30 6501 H 611.058 -1.59432 1.12105 0
M  V30 6502 H 610.154 -3.05058 0.659263 0
M  V30 6503 N 610.455 -0.639598 -1.44038 0
M  V30 6504 C 611.695 -0.150902 -2.03842 0
M  V30 6505 C 612.059 1.20744 -1.49281 0
M  V30 6506 O 613.26 1.78875 -2.00642 0
M  V30 6507 C 611.531 -0.146114 -3.57101 0
M  V30 6508 S 613.09 0.276725 -4.37927 0
M  V30 6509 H 609.908 -0.0652447 -0.708 0
M  V30 6510 H 612.51 -0.844886 -1.76301 0
M  V30 6511 H 611.214 -1.13769 -3.94316 0
M  V30 6512 H 610.745 0.568846 -3.89266 0
M  V30 6513 H 612.76 1.51893 -4.7238 0
M  V30 6514 N 611.933 1.52934 -0.380664 0
M  V30 6515 C 613.179 2.02443 0.197089 0
M  V30 6516 C 613.534 1.26249 1.45186 0
M  V30 6517 O 612.827 0.351964 1.8834 0
M  V30 6518 C 613.021 3.5349 0.527199 0
M  V30 6519 C 612.85 4.44312 -0.694027 0
M  V30 6520 C 611.62 4.90582 -1.21068 0
M  V30 6521 C 613.818 4.8995 -1.56377 0
M  V30 6522 N 611.8 5.65451 -2.39036 0
M  V30 6523 C 613.171 5.63313 -2.58995 0
M  V30 6524 C 615.226 4.72002 -1.58488 0
M  V30 6525 C 613.929 6.20635 -3.63599 0
M  V30 6526 C 615.955 5.30201 -2.61995 0
M  V30 6527 C 615.317 6.03463 -3.63335 0
M  V30 6528 H 611.416 0.781241 0.0344357 0
M  V30 6529 H 614 1.87387 -0.528609 0
M  V30 6530 H 612.171 3.68677 1.22196 0
M  V30 6531 H 613.903 3.89707 1.09135 0
M  V30 6532 H 610.658 4.67249 -0.772995 0
M  V30 6533 H 611.082 6.07541 -2.98701 0
M  V30 6534 H 615.724 4.14873 -0.814891 0
M  V30 6535 H 613.442 6.76852 -4.41472 0
M  V30 6536 H 617.028 5.182 -2.645 0
M  V30 6537 H 615.908 6.47693 -4.42113 0
M  V30 6538 N 613.412 0.11024 1.57214 0
M  V30 6539 C 614.359 -0.843195 2.14846 0
M  V30 6540 C 615.329 -1.26954 1.07107 0
M  V30 6541 O 616.514 -1.34861 1.34971 0
M  V30 6542 C 613.654 -2.09123 2.74521 0
M  V30 6543 C 612.767 -1.71404 3.96541 0
M  V30 6544 C 611.902 -2.91107 4.44331 0
M  V30 6545 C 610.941 -2.49586 5.58903 0
M  V30 6546 N 610.078 -3.62175 6.01477 0
M  V30 6547 H 614.918 -0.344886 2.95998 0
M  V30 6548 H 612.455 -0.15855 1.46243 0
M  V30 6549 H 614.413 -2.82234 3.07246 0
M  V30 6550 H 613.043 -2.56427 1.96074 0
M  V30 6551 H 612.095 -0.88201 3.70033 0
M  V30 6552 H 613.407 -1.36884 4.7965 0
M  V30 6553 H 612.561 -3.72454 4.78919 0
M  V30 6554 H 611.3 -3.28848 3.60153 0
M  V30 6555 H 610.305 -1.6667 5.23929 0
M  V30 6556 H 611.53 -2.12973 6.4484 0
M  V30 6557 H 609.476 -3.99605 5.20242 0
M  V30 6558 H 609.393 -3.3155 6.79419 0
M  V30 6559 H 610.661 -4.43987 6.407 0
M  V30 6560 N 614.89 -1.56749 -0.16351 0
M  V30 6561 C 616.13 -1.84234 -0.885271 0
M  V30 6562 C 616.494 -0.692259 -1.79086 0
M  V30 6563 O 617.695 -0.847747 -2.55082 0
M  V30 6564 C 615.966 -3.16857 -1.65337 0
M  V30 6565 S 617.525 -3.65848 -2.42282 0
M  V30 6566 H 614.343 -0.646293 -0.296354 0
M  V30 6567 H 616.945 -1.94951 -0.146365 0
M  V30 6568 H 615.649 -3.98546 -0.979266 0
M  V30 6569 H 615.18 -3.09102 -2.4335 0
M  V30 6570 H 617.195 -3.33796 -3.67143 0
M  V30 6571 N 616.368 0.432326 -1.51554 0
M  V30 6572 C 617.616 1.17901 -1.64146 0
M  V30 6573 C 617.937 1.91604 -0.362367 0
M  V30 6574 O 617.207 1.85764 0.621968 0
M  V30 6575 H 615.787 0.438206 -0.604966 0
M  V30 6576 H 618.449 0.495172 -1.88505 0
M  V30 6577 H 617.545 1.90584 -2.47152 0
M  V30 6578 N 617.846 1.41785 0.688094 0
M  V30 6579 C 619.262 1.24419 0.999608 0
M  V30 6580 C 619.462 0.138868 2.01021 0
M  V30 6581 O 618.518 -0.494283 2.47615 0
M  V30 6582 C 619.831 2.59625 1.51709 0
M  V30 6583 C 621.379 2.66869 1.63554 0
M  V30 6584 C 621.854 4.0241 2.18702 0
M  V30 6585 N 623.345 4.04295 2.26053 0
M  V30 6586 C 624.08 5.05977 2.69768 0
M  V30 6587 N 623.576 6.18047 3.13033 0
M  V30 6588 N 625.369 4.93336 2.69398 0
M  V30 6589 H 617.52 2.12392 0.0187427 0
M  V30 6590 H 619.783 0.945347 0.0708673 0
M  V30 6591 H 619.489 3.41297 0.849059 0
M  V30 6592 H 619.363 2.82628 2.49803 0
M  V30 6593 H 621.75 1.8555 2.29467 0
M  V30 6594 H 621.831 2.47668 0.639857 0
M  V30 6595 H 621.475 4.8418 1.53402 0
M  V30 6596 H 621.405 4.18955 3.19037 0
M  V30 6597 H 623.896 3.23383 1.9553 0
M  V30 6598 H 624.209 6.91498 3.45038 0
M  V30 6599 H 622.554 6.21572 3.10923 0
M  V30 6600 H 625.745 4.04865 2.34952 0
M  V30 6601 H 625.918 5.72717 3.03148 0
M  V30 6602 N 619.324 -0.923095 1.27737 0
M  V30 6603 C 620.234 -2.05765 1.12685 0
M  V30 6604 C 621.25 -1.73911 0.0557197 0
M  V30 6605 O 622.426 -1.99674 0.263137 0
M  V30 6606 C 619.491 -3.37804 0.780363 0
M  V30 6607 C 618.552 -3.83326 1.93286 0
M  V30 6608 C 617.785 -5.09064 1.60281 0
M  V30 6609 O 618.008 -5.6809 0.512828 0
M  V30 6610 O 616.942 -5.50071 2.44347 0
M  V30 6611 H 620.768 -2.21378 2.07907 0
M  V30 6612 H 618.353 -1.04299 1.06968 0
M  V30 6613 H 620.235 -4.17097 0.600668 0
M  V30 6614 H 618.91 -3.23387 -0.142291 0
M  V30 6615 H 617.817 -3.049 2.16764 0
M  V30 6616 H 619.15 -4.02292 2.83588 0
M  V30 6617 N 620.802 -1.09834 -1.13024 0
M  V30 6618 C 622.05 -0.835297 -1.8403 0
M  V30 6619 C 622.371 0.640944 -1.84165 0
M  V30 6620 O 621.641 1.46517 -1.30037 0
M  V30 6621 H 620.221 -0.306018 -0.681441 0
M  V30 6622 H 622.883 -1.38734 -1.36891 0
M  V30 6623 H 621.979 -1.19258 -2.88416 0
M  V30 6624 N 622.28 1.30327 -0.886154 0
M  V30 6625 C 623.23 2.25668 -0.325248 0
M  V30 6626 C 624.214 1.51318 0.546972 0
M  V30 6627 O 625.406 1.72623 0.391203 0
M  V30 6628 C 622.535 3.40229 0.458167 0
M  V30 6629 C 621.621 4.21933 -0.428208 0
M  V30 6630 N 622.012 4.82129 -1.52921 0
M  V30 6631 C 620.31 4.45439 -0.223535 0
M  V30 6632 C 621.011 5.43351 -2.07714 0
M  V30 6633 N 619.987 5.26002 -1.37195 0
M  V30 6634 H 623.789 2.69759 -1.1665 0
M  V30 6635 H 621.303 1.4478 -0.735691 0
M  V30 6636 H 623.3 4.07579 0.876648 0
M  V30 6637 H 621.96 2.97678 1.29684 0
M  V30 6638 H 622.971 4.81312 -1.91205 0
M  V30 6639 H 619.648 4.13481 0.577875 0
M  V30 6640 H 621.038 6.01118 -3.00178 0
M  V30 6641 N 623.758 0.647228 1.43697 0
M  V30 6642 C 624.69 -0.0866232 2.29036 0
M  V30 6643 C 625.703 -0.793051 1.42178 0
M  V30 6644 O 626.892 -0.651807 1.66174 0
M  V30 6645 C 623.992 -1.14552 3.18953 0
M  V30 6646 C 623.165 -0.518422 4.34317 0
M  V30 6647 C 622.224 -1.4734 5.05151 0
M  V30 6648 O 621.25 -0.984312 5.60625 0
M  V30 6649 N 622.452 -2.8075 5.08094 0
M  V30 6650 H 625.217 0.645834 2.92659 0
M  V30 6651 H 622.778 0.489567 1.54321 0
M  V30 6652 H 624.77 -1.78505 3.63205 0
M  V30 6653 H 623.34 -1.78001 2.56971 0
M  V30 6654 H 622.56 0.300079 3.93056 0
M  V30 6655 H 623.848 -0.080401 5.08736 0
M  V30 6656 H 623.246 -3.23052 4.64386 0
M  V30 6657 H 621.803 -3.40022 5.56083 0
M  V30 6658 N 625.236 -1.5273 0.388769 0
M  V30 6659 C 626.169 -2.22861 -0.490752 0
M  V30 6660 C 627.147 -1.22912 -1.06449 0
M  V30 6661 O 628.331 -1.51896 -1.11624 0
M  V30 6662 C 625.458 -2.94141 -1.67925 0
M  V30 6663 C 624.504 -4.08355 -1.23081 0
M  V30 6664 S 625.337 -5.35077 -0.212786 0
M  V30 6665 C 626.493 -6.09879 -1.40708 0
M  V30 6666 H 626.726 -2.97115 0.104787 0
M  V30 6667 H 624.259 -1.53428 0.172956 0
M  V30 6668 H 626.217 -3.35818 -2.36085 0
M  V30 6669 H 624.878 -2.19568 -2.24608 0
M  V30 6670 H 624.071 -4.57328 -2.11818 0
M  V30 6671 H 623.673 -3.68688 -0.628121 0
M  V30 6672 H 625.965 -6.36018 -2.33424 0
M  V30 6673 H 626.908 -7.01586 -0.958271 0
M  V30 6674 H 627.316 -5.40646 -1.62364 0
M  V30 6675 N 626.714 -0.118576 -1.57153 0
M  V30 6676 C 627.661 0.831789 -2.1529 0
M  V30 6677 C 628.631 1.26385 -1.07778 0
M  V30 6678 O 629.816 1.34144 -1.35684 0
M  V30 6679 C 626.956 2.07664 -2.75626 0
M  V30 6680 C 626.069 1.69298 -3.97444 0
M  V30 6681 C 625.204 2.88747 -4.45868 0
M  V30 6682 C 624.243 2.46619 -5.60219 0
M  V30 6683 N 623.38 3.5898 -6.03389 0
M  V30 6684 H 628.22 0.329183 -2.96176 0
M  V30 6685 H 625.757 0.150792 -1.46325 0
M  V30 6686 H 627.715 2.80601 -3.08738 0
M  V30 6687 H 626.345 2.55384 -1.97431 0
M  V30 6688 H 625.397 0.862374 -3.70496 0
M  V30 6689 H 626.709 1.34338 -4.80369 0
M  V30 6690 H 625.863 3.69909 -4.80887 0
M  V30 6691 H 624.602 3.26933 -3.61892 0
M  V30 6692 H 623.607 1.63889 -5.24805 0
M  V30 6693 H 624.832 2.0955 -6.45961 0
M  V30 6694 H 622.778 3.9684 -5.22354 0
M  V30 6695 H 622.695 3.27942 -6.81168 0
M  V30 6696 H 623.963 4.40583 -6.43045 0
M  V30 6697 N 628.193 1.56834 0.155195 0
M  V30 6698 C 629.47 1.73799 0.897395 0
M  V30 6699 C 629.85 0.684379 1.99698 0
M  V30 6700 O 629.198 -0.298111 2.26547 0
M  V30 6701 C 629.408 3.17572 1.44737 0
M  V30 6702 C 630.756 3.79014 1.91399 0
M  V30 6703 O 631.78 3.20951 1.54496 0
M  V30 6704 O 630.639 4.80998 2.59429 0
M  V30 6705 H 627.733 0.710329 0.423511 0
M  V30 6706 H 630.279 1.69107 0.141761 0
M  V30 6707 H 629.051 3.85749 0.656741 0
M  V30 6708 H 628.674 3.26657 2.26674 0
M  V30 6709 N 629.671 -0.424282 1.51781 0
M  V30 6710 C 630.911 -1.18194 1.66762 0
M  V30 6711 C 631.275 -1.88164 0.381857 0
M  V30 6712 O 632.476 -2.65692 0.407586 0
M  V30 6713 C 630.747 -2.16173 2.84612 0
M  V30 6714 S 632.306 -3.0025 3.19993 0
M  V30 6715 H 629.124 -0.400626 0.587384 0
M  V30 6716 H 631.726 -0.471499 1.89729 0
M  V30 6717 H 630.43 -1.6343 3.76455 0
M  V30 6718 H 629.961 -2.91778 2.63873 0
M  V30 6719 H 631.976 -4.1796 2.67439 0
M  V30 6720 N 631.149 -1.42148 -0.680565 0
M  V30 6721 C 632.377 -1.45696 -1.46902 0
M  V30 6722 C 632.792 -0.0665858 -1.88683 0
M  V30 6723 O 632.149 0.917436 -1.57764 0
M  V30 6724 C 632.2 -2.37898 -2.72188 0
M  V30 6725 O 631.921 -3.71526 -2.32163 0
M  V30 6726 C 633.422 -2.50407 -3.65802 0
M  V30 6727 H 630.642 -0.495729 -0.45221 0
M  V30 6728 H 633.186 -1.866 -0.836709 0
M  V30 6729 H 631.341 -2.00263 -3.31622 0
M  V30 6730 H 631.755 -4.20849 -3.13027 0
M  V30 6731 H 633.229 -3.19056 -4.50452 0
M  V30 6732 H 633.706 -1.5401 -4.11312 0
M  V30 6733 H 634.312 -2.8874 -3.12265 0
M  V30 6734 N 632.627 0.916307 -1.28225 0
M  V30 6735 C 633.537 2.05165 -1.13775 0
M  V30 6736 C 634.553 1.73879 -0.0649418 0
M  V30 6737 O 635.729 1.99531 -0.273722 0
M  V30 6738 C 632.794 3.37385 -0.798267 0
M  V30 6739 C 631.855 3.82296 -1.95316 0
M  V30 6740 C 631.088 5.08206 -1.62978 0
M  V30 6741 O 631.311 5.6781 -0.542948 0
M  V30 6742 O 630.245 5.48768 -2.47261 0
M  V30 6743 H 634.071 2.20273 -2.09078 0
M  V30 6744 H 631.656 1.0373 -1.07519 0
M  V30 6745 H 633.538 4.16773 -0.62278 0
M  V30 6746 H 632.213 3.23458 0.125139 0
M  V30 6747 H 631.12 3.03746 -2.18378 0
M  V30 6748 H 632.453 4.00782 -2.85718 0
M  V30 6749 N 634.105 1.10431 1.1244 0
M  V30 6750 C 635.521 0.836096 1.35947 0
M  V30 6751 C 635.721 -0.544475 1.94004 0
M  V30 6752 O 634.777 -1.29735 2.16622 0
M  V30 6753 C 636.09 1.93575 2.30107 0
M  V30 6754 C 637.638 1.9642 2.43697 0
M  V30 6755 C 638.113 3.05559 3.41171 0
M  V30 6756 N 639.604 3.04865 3.48728 0
M  V30 6757 C 640.339 3.85954 4.24061 0
M  V30 6758 N 639.835 4.76977 5.02458 0
M  V30 6759 N 641.628 3.74172 4.19466 0
M  V30 6760 H 633.779 1.9942 0.731124 0
M  V30 6761 H 636.042 0.866607 0.384312 0
M  V30 6762 H 635.748 2.92943 1.94621 0
M  V30 6763 H 635.622 1.8229 3.30227 0
M  V30 6764 H 638.009 0.97685 2.78463 0
M  V30 6765 H 638.09 2.11782 1.43465 0
M  V30 6766 H 637.734 4.04513 3.07135 0
M  V30 6767 H 637.664 2.87438 4.41234 0
M  V30 6768 H 640.155 2.38908 2.92799 0
M  V30 6769 H 640.468 5.35409 5.57277 0
M  V30 6770 H 638.813 4.81006 5.01655 0
M  V30 6771 H 642.004 3.02412 3.57302 0
M  V30 6772 H 642.177 4.37602 4.77921 0
M  V30 6773 N 635.583 -1.29855 0.893053 0
M  V30 6774 C 636.515 -2.26911 0.32311 0
M  V30 6775 C 637.528 -1.54039 -0.526858 0
M  V30 6776 O 638.717 -1.75132 -0.345095 0
M  V30 6777 C 635.817 -3.34266 -0.558509 0
M  V30 6778 C 634.99 -4.36601 0.264222 0
M  V30 6779 C 634.049 -5.23326 -0.549171 0
M  V30 6780 O 633.075 -5.69192 0.0309883 0
M  V30 6781 N 634.277 -5.50008 -1.85664 0
M  V30 6782 H 637.042 -2.76455 1.15726 0
M  V30 6783 H 634.603 -1.4312 0.756859 0
M  V30 6784 H 636.595 -3.89211 -1.1089 0
M  V30 6785 H 635.165 -2.8459 -1.29334 0
M  V30 6786 H 634.385 -3.81409 0.996046 0
M  V30 6787 H 635.673 -5.02019 0.827906 0
M  V30 6788 H 635.071 -5.14542 -2.35081 0
M  V30 6789 H 633.628 -6.07796 -2.35431 0
M  V30 6790 N 637.061 -0.65484 -1.43351 0
M  V30 6791 C 638.024 0.0263562 -2.29185 0
M  V30 6792 C 639.024 0.748951 -1.42293 0
M  V30 6793 O 640.214 0.589957 -1.63906 0
M  V30 6794 C 637.346 1.04806 -3.2439 0
M  V30 6795 H 638.539 -0.728883 -2.90908 0
M  V30 6796 H 636.092 -0.416149 -1.50658 0
M  V30 6797 H 636.827 1.83247 -2.67565 0
M  V30 6798 H 636.612 0.533554 -3.88453 0
M  V30 6799 H 638.102 1.52372 -3.88809 0
M  V30 6800 N 638.539 1.52521 -0.396863 0
M  V30 6801 C 639.487 2.28217 0.44943 0
M  V30 6802 C 640.481 1.32416 1.05652 0
M  V30 6803 O 641.687 1.49925 0.996124 0
M  V30 6804 H 638.062 0.733966 0.1637 0
M  V30 6805 H 640.033 2.97658 -0.210367 0
M  V30 6806 C 638.782 3.10713 1.56054 0
M  V30 6807 H 638.105 3.84291 1.10273 0
M  V30 6808 H 639.545 3.66803 2.12677 0
M  V30 6809 C 638.004 2.23499 2.52091 0
M  V30 6810 O 638.534 1.8669 3.55682 0
M  V30 6811 N 636.74 1.8751 2.2201 0
M  V30 6812 H 636.287 2.17643 1.37802 0
M  V30 6813 H 636.245 1.29448 2.86514 0
M  V30 6814 N 640.017 0.126909 1.57088 0
M  V30 6815 C 641.264 -0.529168 1.95464 0
M  V30 6816 C 641.592 -1.6618 1.01067 0
M  V30 6817 O 640.847 -1.95667 0.0360254 0
M  V30 6818 C 641.146 -1.095 3.40212 0
M  V30 6819 C 640.812 -0.0829015 4.50824 0
M  V30 6820 C 639.474 0.195377 4.80803 0
M  V30 6821 C 641.826 0.606411 5.1766 0
M  V30 6822 C 639.154 1.16912 5.74933 0
M  V30 6823 C 641.506 1.56884 6.12838 0
M  V30 6824 C 640.17 1.85502 6.41206 0
M  V30 6825 H 639.44 -0.193636 0.715252 0
M  V30 6826 H 642.087 0.209489 1.90351 0
M  V30 6827 H 640.392 -1.91058 3.42059 0
M  V30 6828 H 642.089 -1.61087 3.67222 0
M  V30 6829 H 638.679 -0.309979 4.27478 0
M  V30 6830 H 642.863 0.404597 4.94648 0
M  V30 6831 H 638.119 1.3975 5.95214 0
M  V30 6832 H 642.293 2.10859 6.6371 0
M  V30 6833 H 639.92 2.61109 7.13951 0
M  V30 6834 N 641.495 -1.56914 -0.146875 0
M  V30 6835 C 642.425 -2.01308 -1.1831 0
M  V30 6836 C 643.406 -0.892664 -1.44795 0
M  V30 6837 O 644.591 -1.16048 -1.55713 0
M  V30 6838 C 641.721 -2.3938 -2.51624 0
M  V30 6839 C 640.675 -3.54608 -2.3966 0
M  V30 6840 C 640.001 -3.78493 -3.77686 0
M  V30 6841 C 641.301 -4.87269 -1.88058 0
M  V30 6842 H 642.995 -2.88123 -0.813964 0
M  V30 6843 H 640.541 -1.38615 -0.3901 0
M  V30 6844 H 642.494 -2.69037 -3.24341 0
M  V30 6845 H 641.218 -1.49502 -2.90373 0
M  V30 6846 H 639.877 -3.25116 -1.69396 0
M  V30 6847 H 639.525 -2.85866 -4.13871 0
M  V30 6848 H 639.225 -4.56039 -3.70543 0
M  V30 6849 H 640.749 -4.10576 -4.51951 0
M  V30 6850 H 642.163 -5.15644 -2.50568 0
M  V30 6851 H 640.56 -5.68622 -1.91805 0
M  V30 6852 H 641.63 -4.77634 -0.836277 0
M  V30 6853 N 642.974 0.416227 -1.52004 0
M  V30 6854 C 644.222 1.16153 -1.65387 0
M  V30 6855 C 644.543 1.91208 -0.382669 0
M  V30 6856 O 643.813 1.86413 0.602231 0
M  V30 6857 H 642.393 0.431765 -0.60958 0
M  V30 6858 H 645.055 0.475151 -1.89019 0
M  V30 6859 H 644.151 1.87952 -2.4916 0
M  V30 6860 N 644.452 1.42507 0.673017 0
M  V30 6861 C 645.399 1.46124 1.78651 0
M  V30 6862 C 646.369 0.313007 1.63124 0
M  V30 6863 O 647.554 0.517337 1.83653 0
M  V30 6864 C 644.694 1.3711 3.16694 0
M  V30 6865 C 643.807 2.61983 3.43495 0
M  V30 6866 C 642.942 2.45098 4.71275 0
M  V30 6867 C 641.981 3.65336 4.91117 0
M  V30 6868 N 641.118 3.47383 6.10139 0
M  V30 6869 H 645.958 2.4128 1.74895 0
M  V30 6870 H 643.495 1.19788 0.853766 0
M  V30 6871 H 645.453 1.29881 3.96468 0
M  V30 6872 H 644.083 0.45549 3.1957 0
M  V30 6873 H 643.135 2.79571 2.57961 0
M  V30 6874 H 644.447 3.51355 3.5405 0
M  V30 6875 H 643.601 2.35466 5.59143 0
M  V30 6876 H 642.34 1.53219 4.63007 0
M  V30 6877 H 641.345 3.754 4.0169 0
M  V30 6878 H 642.57 4.58199 5.01229 0
M  V30 6879 H 640.516 2.58222 6.0304 0
M  V30 6880 H 640.433 4.30344 6.21563 0
M  V30 6881 H 641.701 3.41565 7.00681 0
M  V30 6882 N 645.93 -0.909495 1.28709 0
M  V30 6883 C 647.179 -1.65365 1.15487 0
M  V30 6884 C 647.492 -1.93364 -0.294941 0
M  V30 6885 O 648.698 -2.65905 -0.548338 0
M  V30 6886 C 647.154 -2.97923 2.01916 0
M  V30 6887 C 646.762 -2.77556 3.51663 0
M  V30 6888 C 648.506 -3.75814 1.97393 0
M  V30 6889 C 646.413 -4.0578 4.30229 0
M  V30 6890 H 645.343 -0.620323 0.42862 0
M  V30 6891 H 647.994 -1.00894 1.53273 0
M  V30 6892 H 646.376 -3.63552 1.5699 0
M  V30 6893 H 647.55 -2.2058 4.04575 0
M  V30 6894 H 645.865 -2.13072 3.57756 0
M  V30 6895 H 648.462 -4.70866 2.53357 0
M  V30 6896 H 648.805 -4.05277 0.951643 0
M  V30 6897 H 649.338 -3.1701 2.40311 0
M  V30 6898 H 646.077 -3.81488 5.33055 0
M  V30 6899 H 645.597 -4.62351 3.82089 0
M  V30 6900 H 647.276 -4.74004 4.40374 0
M  V30 6901 N 647.408 -1.11026 -1.11852 0
M  V30 6902 C 648.654 -0.867633 -1.83967 0
M  V30 6903 C 649.009 0.600309 -1.82795 0
M  V30 6904 O 648.302 1.43731 -1.26696 0
M  V30 6905 C 648.496 -1.35777 -3.30604 0
M  V30 6906 C 648.325 -2.87183 -3.46058 0
M  V30 6907 C 647.095 -3.55256 -3.59334 0
M  V30 6908 C 649.293 -3.85258 -3.40706 0
M  V30 6909 N 647.275 -4.94923 -3.63215 0
M  V30 6910 C 648.646 -5.1097 -3.51155 0
M  V30 6911 C 650.701 -3.77879 -3.2421 0
M  V30 6912 C 649.404 -6.30171 -3.46809 0
M  V30 6913 C 651.43 -4.96586 -3.2118 0
M  V30 6914 C 650.792 -6.21149 -3.32196 0
M  V30 6915 H 646.891 -0.370574 -0.688621 0
M  V30 6916 H 649.475 -1.41379 -1.33865 0
M  V30 6917 H 647.646 -0.83885 -3.79233 0
M  V30 6918 H 649.378 -1.05874 -3.90606 0
M  V30 6919 H 646.133 -3.05714 -3.61713 0
M  V30 6920 H 646.557 -5.67726 -3.68804 0
M  V30 6921 H 651.199 -2.82485 -3.14582 0
M  V30 6922 H 648.917 -7.25847 -3.55206 0
M  V30 6923 H 652.503 -4.92591 -3.09589 0
M  V30 6924 H 651.383 -7.11463 -3.29834 0
M  V30 6925 N 648.886 1.2938 -0.899927 0
M  V30 6926 C 650.297 1.77644 -0.574427 0
M  V30 6927 C 650.648 1.73824 0.909928 0
M  V30 6928 O 649.773 1.32429 1.71147 0
M  V30 6929 C 650.368 3.22573 -1.03595 0
M  V30 6930 C 648.927 3.68614 -0.76161 0
M  V30 6931 C 648.074 2.49483 -1.21052 0
M  V30 6932 H 651.025 1.16038 -1.08263 0
M  V30 6933 H 651.046 3.78684 -0.371337 0
M  V30 6934 H 650.558 3.25321 -2.11631 0
M  V30 6935 H 648.659 3.7134 0.306127 0
M  V30 6936 H 648.772 4.59402 -1.35965 0
M  V30 6937 H 647.136 2.46798 -0.629515 0
M  V30 6938 H 647.919 2.54959 -2.29893 0
M  V30 6939 N 650.364 0.662433 1.43002 0
M  V30 6940 C 651.589 0.186003 2.06564 0
M  V30 6941 C 652.014 -1.14314 1.49379 0
M  V30 6942 O 651.372 -1.70824 0.607346 0
M  V30 6943 C 651.42 0.118269 3.60406 0
M  V30 6944 O 650.524 -0.916859 4.02079 0
M  V30 6945 H 649.865 0.0990981 0.656563 0
M  V30 6946 H 652.395 0.907958 1.8335 0
M  V30 6947 H 652.405 -0.0619981 4.07953 0
M  V30 6948 H 651.08 1.08849 4.01403 0
M  V30 6949 H 649.657 -0.708635 3.66105 0
M  V30 6950 N 651.842 -1.52309 0.404946 0
M  V30 6951 C 653.067 -2.06666 -0.1743 0
M  V30 6952 C 653.492 -1.27341 -1.38441 0
M  V30 6953 O 652.85 -0.302539 -1.78758 0
M  V30 6954 C 652.898 -3.57014 -0.507262 0
M  V30 6955 O 652.002 -3.80144 -1.59889 0
M  V30 6956 H 651.343 -0.663807 -0.0160273 0
M  V30 6957 H 653.873 -1.96297 0.576937 0
M  V30 6958 H 653.883 -4.00724 -0.767098 0
M  V30 6959 H 652.558 -4.14184 0.377368 0
M  V30 6960 H 651.135 -3.48316 -1.33155 0
M  V30 6961 N 653.32 -0.135238 -1.57019 0
M  V30 6962 C 654.267 0.808908 -2.1616 0
M  V30 6963 C 655.237 1.25234 -1.09113 0
M  V30 6964 O 656.422 1.32697 -1.37099 0
M  V30 6965 C 653.562 2.04729 -2.77813 0
M  V30 6966 C 652.675 1.65074 -3.99218 0
M  V30 6967 C 651.81 2.84002 -4.48906 0
M  V30 6968 C 650.849 2.40663 -5.62803 0
M  V30 6969 N 649.986 3.5256 -6.07162 0
M  V30 6970 H 654.826 0.297751 -2.96509 0
M  V30 6971 H 652.363 0.135264 -1.46477 0
M  V30 6972 H 654.321 2.7731 -3.11697 0
M  V30 6973 H 652.951 2.53275 -2.00128 0
M  V30 6974 H 652.003 0.823029 -3.7139 0
M  V30 6975 H 653.315 1.29236 -4.81767 0
M  V30 6976 H 652.469 3.64788 -4.84783 0
M  V30 6977 H 651.208 3.23076 -3.65339 0
M  V30 6978 H 650.213 1.58314 -5.26514 0
M  V30 6979 H 651.438 2.02687 -6.48147 0
M  V30 6980 H 649.384 3.91278 -5.26534 0
M  V30 6981 H 649.301 3.20699 -6.84608 0
M  V30 6982 H 650.569 4.33738 -6.47682 0
M  V30 6983 N 654.798 1.5699 0.138552 0
M  V30 6984 C 656.046 1.83446 0.848053 0
M  V30 6985 C 656.367 0.71744 1.81322 0
M  V30 6986 O 655.637 -0.260228 1.94164 0
M  V30 6987 H 654.217 0.676792 0.316166 0
M  V30 6988 H 656.879 1.94462 0.130538 0
M  V30 6989 H 655.975 2.78677 1.40518 0
M  V30 6990 N 656.276 -0.40816 1.52223 0
M  V30 6991 C 657.692 -0.74685 1.41047 0
M  V30 6992 C 657.892 -1.94788 0.51573 0
M  V30 6993 O 656.948 -2.52494 -0.0181156 0
M  V30 6994 C 658.261 -0.999878 2.83589 0
M  V30 6995 C 659.809 -1.10253 2.92939 0
M  V30 6996 C 660.284 -1.38832 4.36451 0
M  V30 6997 N 661.775 -1.45694 4.3969 0
M  V30 6998 C 662.51 -1.69435 5.47795 0
M  V30 6999 N 662.006 -1.90774 6.66016 0
M  V30 7000 N 663.799 -1.71458 5.35312 0
M  V30 7001 H 655.95 0.382409 2.08929 0
M  V30 7002 H 658.213 0.108807 0.941735 0
M  V30 7003 H 657.919 -0.189723 3.51188 0
M  V30 7004 H 657.793 -1.91978 3.24691 0
M  V30 7005 H 660.18 -1.90328 2.2552 0
M  V30 7006 H 660.261 -0.160973 2.55293 0
M  V30 7007 H 659.905 -0.592741 5.04429 0
M  V30 7008 H 659.835 -2.34241 4.71634 0
M  V30 7009 H 662.326 -1.3099 3.54472 0
M  V30 7010 H 662.639 -2.08342 7.44186 0
M  V30 7011 H 660.984 -1.88037 6.69079 0
M  V30 7012 H 664.175 -1.54326 4.41929 0
M  V30 7013 H 664.348 -1.89621 6.19635 0
M  V30 7014 N 657.755 -1.42862 -0.66545 0
M  V30 7015 C 659.166 -1.3901 -1.24632 0
M  V30 7016 C 659.517 -0.0880285 -1.96002 0
M  V30 7017 O 658.642 0.812947 -2.0055 0
M  V30 7018 C 659.237 -2.51806 -2.2667 0
M  V30 7019 C 657.796 -2.51257 -2.80262 0
M  V30 7020 C 656.943 -2.30124 -1.5472 0
M  V30 7021 H 659.894 -1.5194 -0.458237 0
M  V30 7022 H 659.915 -2.22593 -3.08598 0
M  V30 7023 H 659.427 -3.46558 -1.74697 0
M  V30 7024 H 657.528 -1.60349 -3.36332 0
M  V30 7025 H 657.641 -3.48614 -3.28641 0
M  V30 7026 H 656.005 -1.7856 -1.81627 0
M  V30 7027 H 656.788 -3.26945 -1.04699 0
M  V30 7028 N 659.233 0.902656 -1.29189 0
M  V30 7029 C 660.481 1.6496 -1.16758 0
M  V30 7030 C 660.802 1.92952 0.28188 0
M  V30 7031 O 660.072 1.55351 1.19344 0
M  V30 7032 H 658.652 0.611447 -0.429118 0
M  V30 7033 H 661.314 1.0825 -1.62074 0
M  V30 7034 H 660.41 2.60728 -1.71544 0
M  V30 7035 N 660.711 1.11618 1.11262 0
M  V30 7036 C 661.659 0.771291 2.1944 0
M  V30 7037 C 662.653 -0.238073 1.67719 0
M  V30 7038 O 663.859 -0.0971628 1.79738 0
M  V30 7039 H 660.234 0.231548 0.715465 0
M  V30 7040 H 662.205 1.69226 2.45775 0
M  V30 7041 C 660.954 0.232765 3.4692 0
M  V30 7042 H 660.277 1.00072 3.87073 0
M  V30 7043 H 661.717 0.0296561 4.2399 0
M  V30 7044 C 660.176 -1.03738 3.20531 0
M  V30 7045 O 660.706 -2.11675 3.41404 0
M  V30 7046 N 658.912 -0.960906 2.74253 0
M  V30 7047 H 658.459 -0.0824323 2.57468 0
M  V30 7048 H 658.417 -1.8114 2.56974 0
M  V30 7049 N 662.189 -1.289 0.906776 0
M  V30 7050 C 663.436 -1.95269 0.536326 0
M  V30 7051 C 663.764 -1.71435 -0.918711 0
M  V30 7052 O 663.019 -1.02431 -1.66752 0
M  V30 7053 C 663.318 -3.48704 0.783617 0
M  V30 7054 C 662.984 -3.92626 2.21711 0
M  V30 7055 C 661.646 -4.04329 2.60906 0
M  V30 7056 C 663.998 -4.15218 3.15029 0
M  V30 7057 C 661.326 -4.35998 3.92584 0
M  V30 7058 C 663.678 -4.48365 4.46264 0
M  V30 7059 C 662.342 -4.58278 4.85322 0
M  V30 7060 H 661.612 -0.714538 0.196256 0
M  V30 7061 H 664.259 -1.53366 1.14678 0
M  V30 7062 H 662.564 -3.91696 0.0903048 0
M  V30 7063 H 664.261 -3.98162 0.476267 0
M  V30 7064 H 660.851 -3.84038 1.90296 0
M  V30 7065 H 665.035 -4.05636 2.8596 0
M  V30 7066 H 660.291 -4.41878 4.22557 0
M  V30 7067 H 664.465 -4.64795 5.18593 0
M  V30 7068 H 662.092 -4.82573 5.87391 0
M  V30 7069 N 663.667 -0.670007 -1.42649 0
M  V30 7070 C 664.597 -0.00258501 -2.335 0
M  V30 7071 C 665.578 0.794364 -1.50412 0
M  V30 7072 O 666.763 0.75248 -1.79029 0
M  V30 7073 C 663.893 0.952748 -3.33976 0
M  V30 7074 C 662.847 0.264733 -4.2718 0
M  V30 7075 C 662.173 1.33267 -5.17826 0
M  V30 7076 C 663.473 -0.853289 -5.15283 0
M  V30 7077 H 665.167 -0.761326 -2.89559 0
M  V30 7078 H 662.713 -0.367561 -1.3923 0
M  V30 7079 H 664.666 1.4287 -3.96442 0
M  V30 7080 H 663.39 1.74285 -2.7621 0
M  V30 7081 H 662.049 -0.190938 -3.66102 0
M  V30 7082 H 661.697 2.11464 -4.5639 0
M  V30 7083 H 661.397 0.877476 -5.81011 0
M  V30 7084 H 662.921 1.80965 -5.83167 0
M  V30 7085 H 664.335 -0.458763 -5.71462 0
M  V30 7086 H 662.732 -1.23398 -5.87276 0
M  V30 7087 H 663.802 -1.70412 -4.53969 0
M  V30 7088 N 665.145 1.52092 -0.413018 0
M  V30 7089 C 666.077 2.24819 0.445994 0
M  V30 7090 C 667.09 1.27925 1.00692 0
M  V30 7091 O 668.279 1.53845 0.905204 0
M  V30 7092 C 665.379 2.96951 1.6332 0
M  V30 7093 C 664.552 4.20746 1.19548 0
M  V30 7094 C 663.611 4.75668 2.25003 0
M  V30 7095 O 662.637 5.38148 1.85434 0
M  V30 7096 N 663.839 4.57579 3.57214 0
M  V30 7097 H 666.604 2.99176 -0.177209 0
M  V30 7098 H 664.165 1.60102 -0.240601 0
M  V30 7099 H 666.157 3.30586 2.33441 0
M  V30 7100 H 664.727 2.25756 2.16225 0
M  V30 7101 H 663.947 3.92881 0.32224 0
M  V30 7102 H 665.235 5.01132 0.880033 0
M  V30 7103 H 664.633 4.07758 3.92109 0
M  V30 7104 H 663.19 4.95642 4.23299 0
M  V30 7105 N 666.623 0.143563 1.56945 0
M  V30 7106 C 667.848 -0.518701 2.00809 0
M  V30 7107 C 668.273 -1.5785 1.02298 0
M  V30 7108 O 667.631 -1.813 -0.0017839 0
M  V30 7109 C 667.679 -1.09929 3.43436 0
M  V30 7110 O 666.783 -2.21425 3.47915 0
M  V30 7111 H 666.124 -0.127215 0.6517 0
M  V30 7112 H 668.654 0.239283 2.03196 0
M  V30 7113 H 668.664 -1.4288 3.82164 0
M  V30 7114 H 667.339 -0.323162 4.14643 0
M  V30 7115 H 665.916 -1.89728 3.21026 0
M  V30 7116 N 668.101 -1.57061 -0.130224 0
M  V30 7117 C 669.517 -1.52103 -0.483413 0
M  V30 7118 C 669.717 -0.854752 -1.82473 0
M  V30 7119 O 668.773 -0.432342 -2.48771 0
M  V30 7120 C 670.086 -2.96872 -0.47825 0
M  V30 7121 C 671.634 -3.07902 -0.562592 0
M  V30 7122 C 672.109 -4.54211 -0.587929 0
M  V30 7123 N 673.6 -4.58621 -0.649684 0
M  V30 7124 C 674.335 -5.69227 -0.690551 0
M  V30 7125 N 673.831 -6.89358 -0.689743 0
M  V30 7126 N 675.624 -5.57304 -0.732708 0
M  V30 7127 H 667.775 -1.98764 0.748779 0
M  V30 7128 H 670.038 -0.907248 0.274965 0
M  V30 7129 H 669.744 -3.48944 0.439444 0
M  V30 7130 H 669.618 -3.53716 -1.31013 0
M  V30 7131 H 672.005 -2.5584 -1.47071 0
M  V30 7132 H 672.086 -2.54073 0.296764 0
M  V30 7133 H 671.73 -5.06915 0.316096 0
M  V30 7134 H 671.66 -5.0584 -1.46401 0
M  V30 7135 H 674.151 -3.72146 -0.656927 0
M  V30 7136 H 674.464 -7.69408 -0.723239 0
M  V30 7137 H 672.809 -6.91884 -0.657347 0
M  V30 7138 H 676 -4.62363 -0.730625 0
M  V30 7139 H 676.173 -6.43515 -0.76109 0
M  V30 7140 N 669.579 0.400081 -1.52437 0
M  V30 7141 C 670.99 0.97851 -1.59003 0
M  V30 7142 C 671.341 1.91293 -0.436068 0
M  V30 7143 O 670.466 2.1183 0.442365 0
M  V30 7144 C 671.061 1.78145 -2.88184 0
M  V30 7145 C 669.62 2.30976 -2.97199 0
M  V30 7146 C 668.767 1.11212 -2.54022 0
M  V30 7147 H 671.718 0.180002 -1.57676 0
M  V30 7148 H 671.739 2.63968 -2.74046 0
M  V30 7149 H 671.251 1.1011 -3.72152 0
M  V30 7150 H 669.352 3.02355 -2.17744 0
M  V30 7151 H 669.465 2.61221 -4.01622 0
M  V30 7152 H 667.829 1.46882 -2.08081 0
M  V30 7153 H 668.612 0.447307 -3.40373 0
M  V30 7154 N 671.057 1.43213 0.657864 0
M  V30 7155 C 671.967 1.50448 1.80007 0
M  V30 7156 C 672.983 0.39191 1.69529 0
M  V30 7157 O 674.159 0.645349 1.90781 0
M  V30 7158 C 671.224 1.42062 3.16258 0
M  V30 7159 C 670.285 2.63951 3.38568 0
M  V30 7160 C 669.518 2.55956 4.68318 0
M  V30 7161 O 669.741 1.60473 5.47361 0
M  V30 7162 O 668.675 3.46378 4.92245 0
M  V30 7163 H 672.501 2.4689 1.76858 0
M  V30 7164 H 670.086 1.25163 0.81576 0
M  V30 7165 H 671.968 1.3981 3.97531 0
M  V30 7166 H 670.643 0.487524 3.20008 0
M  V30 7167 H 669.55 2.71776 2.57077 0
M  V30 7168 H 670.883 3.56217 3.39662 0
M  V30 7169 N 672.536 -0.895792 1.29666 0
M  V30 7170 C 673.947 -1.46195 1.1612 0
M  V30 7171 C 674.298 -1.94699 -0.242195 0
M  V30 7172 O 673.423 -1.8406 -1.13802 0
M  V30 7173 C 674.018 -2.65718 2.10189 0
M  V30 7174 C 672.577 -3.18458 2.00653 0
M  V30 7175 C 671.724 -1.91149 2.00891 0
M  V30 7176 H 674.675 -0.706756 1.42094 0
M  V30 7177 H 674.696 -3.4158 1.6764 0
M  V30 7178 H 674.208 -2.30386 3.12321 0
M  V30 7179 H 672.309 -3.58474 1.01623 0
M  V30 7180 H 672.422 -3.82491 2.88509 0
M  V30 7181 H 670.786 -2.09021 1.45542 0
M  V30 7182 H 671.569 -1.58089 3.04734 0
M  V30 7183 N 674.014 -1.12206 -1.10668 0
M  V30 7184 C 675.242 -0.898635 -1.86366 0
M  V30 7185 C 675.657 0.551991 -1.80551 0
M  V30 7186 O 675.014 1.38152 -1.19249 0
M  V30 7187 C 675.065 -1.36199 -3.34861 0
M  V30 7188 O 674.786 -2.75576 -3.40573 0
M  V30 7189 C 676.287 -1.17515 -4.2744 0
M  V30 7190 H 673.507 -0.321281 -0.589084 0
M  V30 7191 H 676.051 -1.49142 -1.39918 0
M  V30 7192 H 674.206 -0.81249 -3.78784 0
M  V30 7193 H 674.62 -2.95851 -4.33096 0
M  V30 7194 H 676.094 -1.54827 -5.29842 0
M  V30 7195 H 676.571 -0.115486 -4.39048 0
M  V30 7196 H 677.177 -1.71203 -3.89319 0
M  V30 7197 N 675.492 1.28418 -0.913599 0
M  V30 7198 C 676.455 2.25564 -0.406624 0
M  V30 7199 C 677.455 1.5387 0.466965 0
M  V30 7200 O 678.645 1.72094 0.270042 0
M  V30 7201 C 675.777 3.38339 0.417053 0
M  V30 7202 H 676.97 2.71926 -1.26477 0
M  V30 7203 H 674.523 1.40098 -0.692986 0
M  V30 7204 H 675.258 2.97339 1.29461 0
M  V30 7205 H 675.043 3.91542 -0.209102 0
M  V30 7206 H 676.533 4.10578 0.762602 0
M  V30 7207 N 676.97 0.677563 1.42291 0
M  V30 7208 C 678.381 0.277912 1.8462 0
M  V30 7209 C 678.732 -1.18048 1.56714 0
M  V30 7210 O 677.857 -1.90404 1.02836 0
M  V30 7211 C 678.452 0.497619 3.35126 0
M  V30 7212 C 677.011 0.152063 3.76093 0
M  V30 7213 C 676.158 0.78872 2.65847 0
M  V30 7214 H 679.109 0.879527 1.32098 0
M  V30 7215 H 679.13 -0.24939 3.79682 0
M  V30 7216 H 678.642 1.55913 3.55405 0
M  V30 7217 H 676.743 -0.905896 3.6142 0
M  V30 7218 H 676.856 0.594514 4.75397 0
M  V30 7219 H 675.22 0.219813 2.5375 0
M  V30 7220 H 676.003 1.85374 2.88949 0
M  V30 7221 N 678.448 -1.51871 0.421078 0
M  V30 7222 C 679.859 -1.86644 -0.0457991 0
M  V30 7223 C 680.21 -1.33919 -1.43388 0
M  V30 7224 O 679.335 -0.683316 -2.05328 0
M  V30 7225 C 679.93 -3.38681 -0.0898844 0
M  V30 7226 C 678.489 -3.73049 -0.501127 0
M  V30 7227 C 677.636 -2.75485 0.316723 0
M  V30 7228 H 680.587 -1.45327 0.637635 0
M  V30 7229 H 680.608 -3.69636 -0.902734 0
M  V30 7230 H 680.12 -3.77025 0.920513 0
M  V30 7231 H 678.221 -3.40288 -1.51773 0
M  V30 7232 H 678.334 -4.78512 -0.237217 0
M  V30 7233 H 676.698 -2.53725 -0.222663 0
M  V30 7234 H 677.481 -3.16671 1.32569 0
M  V30 7235 N 679.926 -0.151884 -1.56866 0
M  V30 7236 C 680.889 0.771861 -2.15812 0
M  V30 7237 C 681.889 1.17181 -1.10115 0
M  V30 7238 O 683.079 1.09194 -1.35729 0
M  V30 7239 C 680.211 2.04806 -2.7252 0
M  V30 7240 H 681.404 0.259021 -2.98779 0
M  V30 7241 H 678.957 0.097588 -1.55995 0
M  V30 7242 H 679.692 2.60445 -1.93233 0
M  V30 7243 H 679.477 1.77044 -3.49854 0
M  V30 7244 H 680.967 2.70771 -3.1792 0
M  V30 7245 N 681.404 1.57128 0.121893 0
M  V30 7246 C 682.314 2.03425 1.16857 0
M  V30 7247 C 683.33 0.954108 1.45509 0
M  V30 7248 O 684.506 1.26541 1.56682 0
M  V30 7249 C 681.571 2.42685 2.47599 0
M  V30 7250 C 680.632 3.64767 2.2637 0
M  V30 7251 C 679.865 4.02145 3.50878 0
M  V30 7252 O 680.088 3.39897 4.58068 0
M  V30 7253 O 679.022 4.95262 3.42051 0
M  V30 7254 H 682.848 2.92825 0.80544 0
M  V30 7255 H 680.433 1.45654 0.332477 0
M  V30 7256 H 682.315 2.68684 3.24634 0
M  V30 7257 H 680.99 1.56432 2.83392 0
M  V30 7258 H 679.897 3.43922 1.47203 0
M  V30 7259 H 681.23 4.51716 1.95482 0
M  V30 7260 N 682.882 -0.391992 1.52647 0
M  V30 7261 C 684.107 -1.16312 1.71716 0
M  V30 7262 C 684.532 -1.83042 0.433279 0
M  V30 7263 O 683.89 -1.70705 -0.610707 0
M  V30 7264 C 683.938 -2.18908 2.86551 0
M  V30 7265 O 683.042 -3.2543 2.53316 0
M  V30 7266 H 682.383 -0.338743 0.571095 0
M  V30 7267 H 684.913 -0.457202 1.99426 0
M  V30 7268 H 684.923 -2.62954 3.1196 0
M  V30 7269 H 683.598 -1.69726 3.79692 0
M  V30 7270 H 682.175 -2.86543 2.38637 0
M  V30 7271 N 684.36 -1.4356 -0.65026 0
M  V30 7272 C 685.607 -1.45333 -1.41012 0
M  V30 7273 C 685.935 -0.0787282 -1.94341 0
M  V30 7274 O 685.19 0.916715 -1.72901 0
M  V30 7275 C 685.489 -2.44528 -2.60654 0
M  V30 7276 C 685.155 -3.90331 -2.25727 0
M  V30 7277 C 683.817 -4.3004 -2.15914 0
M  V30 7278 C 686.169 -4.822 -1.97821 0
M  V30 7279 C 683.497 -5.59568 -1.76354 0
M  V30 7280 C 685.849 -6.12095 -1.59759 0
M  V30 7281 C 684.513 -6.50778 -1.48473 0
M  V30 7282 H 683.783 -0.531813 -0.516 0
M  V30 7283 H 686.43 -1.76657 -0.739219 0
M  V30 7284 H 684.735 -2.06619 -3.3289 0
M  V30 7285 H 686.432 -2.43155 -3.18868 0
M  V30 7286 H 683.022 -3.58905 -2.34276 0
M  V30 7287 H 687.206 -4.5229 -2.04322 0
M  V30 7288 H 682.462 -5.88376 -1.66205 0
M  V30 7289 H 686.636 -6.82751 -1.37198 0
M  V30 7290 H 684.263 -7.5105 -1.17591 0
M  V30 7291 N 685.838 0.888903 -1.30139 0
M  V30 7292 C 687.086 1.63713 -1.18501 0
M  V30 7293 C 687.407 1.9324 0.261399 0
M  V30 7294 O 686.677 1.56608 1.17689 0
M  V30 7295 H 685.257 0.606861 -0.435579 0
M  V30 7296 H 687.919 1.06525 -1.63213 0
M  V30 7297 H 687.015 2.58894 -1.743 0
M  V30 7298 N 687.317 1.12792 1.10072 0
M  V30 7299 C 688.564 0.885545 1.82111 0
M  V30 7300 C 688.892 -0.588519 1.85383 0
M  V30 7301 O 688.147 -1.45124 1.31292 0
M  V30 7302 C 688.446 1.4102 3.28403 0
M  V30 7303 C 688.112 2.89995 3.45273 0
M  V30 7304 C 686.774 3.30671 3.49585 0
M  V30 7305 C 689.126 3.85874 3.50358 0
M  V30 7306 C 686.454 4.65925 3.56553 0
M  V30 7307 C 688.806 5.20963 3.58859 0
M  V30 7308 C 687.47 5.61177 3.61437 0
M  V30 7309 H 686.74 0.324044 0.666391 0
M  V30 7310 H 689.387 1.40874 1.29718 0
M  V30 7311 H 687.692 0.807551 3.83387 0
M  V30 7312 H 689.389 1.19882 3.82661 0
M  V30 7313 H 685.979 2.57537 3.42597 0
M  V30 7314 H 690.163 3.5554 3.46273 0
M  V30 7315 H 685.419 4.96468 3.56833 0
M  V30 7316 H 689.593 5.95079 3.61738 0
M  V30 7317 H 687.22 6.6597 3.66589 0
M  V30 7318 N 688.795 -1.27931 0.920396 0
M  V30 7319 C 690.043 -1.94304 0.555906 0
M  V30 7320 C 690.364 -1.72753 -0.904519 0
M  V30 7321 O 689.634 -1.07104 -1.64029 0
M  V30 7322 H 688.214 -0.719001 0.202599 0
M  V30 7323 H 690.876 -1.55785 1.1712 0
M  V30 7324 H 689.972 -3.02806 0.755981 0
M  V30 7325 N 690.273 -0.685099 -1.4193 0
M  V30 7326 C 691.183 -0.013404 -2.34596 0
M  V30 7327 C 692.199 0.777589 -1.55658 0
M  V30 7328 O 693.375 0.717553 -1.88184 0
M  V30 7329 C 690.44 0.919031 -3.34297 0
M  V30 7330 C 689.501 0.121417 -4.29128 0
M  V30 7331 C 688.734 1.00944 -5.24067 0
M  V30 7332 O 688.957 2.24898 -5.24192 0
M  V30 7333 O 687.891 0.464724 -6.00103 0
M  V30 7334 H 691.717 -0.776978 -2.93593 0
M  V30 7335 H 689.302 -0.445379 -1.42607 0
M  V30 7336 H 691.184 1.45402 -3.9552 0
M  V30 7337 H 689.859 1.66228 -2.77759 0
M  V30 7338 H 688.766 -0.45792 -3.71287 0
M  V30 7339 H 690.099 -0.582937 -4.88736 0
M  V30 7340 N 691.751 1.51645 -0.429126 0
M  V30 7341 C 692.661 2.31288 0.392809 0
M  V30 7342 C 693.677 1.39852 1.03525 0
M  V30 7343 O 694.853 1.72926 1.03241 0
M  V30 7344 C 691.918 3.13347 1.48372 0
M  V30 7345 C 690.979 4.20551 0.862268 0
M  V30 7346 C 690.212 4.98688 1.9012 0
M  V30 7347 O 690.435 4.77359 3.12225 0
M  V30 7348 O 689.369 5.83005 1.4963 0
M  V30 7349 H 693.195 3.02609 -0.257138 0
M  V30 7350 H 690.78 1.48163 -0.191851 0
M  V30 7351 H 692.662 3.64387 2.1166 0
M  V30 7352 H 691.337 2.44799 2.1179 0
M  V30 7353 H 690.244 3.73609 0.191568 0
M  V30 7354 H 691.577 4.91449 0.271704 0
M  V30 7355 N 693.229 0.160201 1.56784 0
M  V30 7356 C 694.162 -0.812797 2.13234 0
M  V30 7357 C 695.14 -1.2335 1.05942 0
M  V30 7358 O 696.324 -1.32725 1.33852 0
M  V30 7359 C 693.451 -2.09311 2.66283 0
M  V30 7360 C 692.497 -1.8173 3.85845 0
M  V30 7361 S 693.33 -0.996473 5.26147 0
M  V30 7362 C 694.486 -2.28769 5.82594 0
M  V30 7363 H 694.719 -0.332794 2.95432 0
M  V30 7364 H 692.252 -0.0542971 1.54304 0
M  V30 7365 H 694.21 -2.82854 2.97496 0
M  V30 7366 H 692.871 -2.54425 1.84192 0
M  V30 7367 H 692.064 -2.76699 4.21253 0
M  V30 7368 H 691.666 -1.16289 3.55462 0
M  V30 7369 H 693.958 -3.24319 5.9483 0
M  V30 7370 H 694.901 -1.97846 6.79899 0
M  V30 7371 H 695.309 -2.40021 5.10931 0
M  V30 7372 N 694.707 -1.5719 -0.113559 0
M  V30 7373 C 695.935 -1.89328 -0.834422 0
M  V30 7374 C 696.35 -0.752018 -1.73177 0
M  V30 7375 O 695.707 0.276912 -1.80387 0
M  V30 7376 C 695.758 -3.20962 -1.66329 0
M  V30 7377 O 695.479 -4.30695 -0.802069 0
M  V30 7378 C 696.98 -3.6684 -2.48884 0
M  V30 7379 H 694.2 -0.626769 -0.239587 0
M  V30 7380 H 696.744 -2.04273 -0.0963195 0
M  V30 7381 H 694.899 -3.0767 -2.35409 0
M  V30 7382 H 695.313 -5.06175 -1.37431 0
M  V30 7383 H 696.787 -4.61692 -3.02563 0
M  V30 7384 H 697.264 -2.93765 -3.26495 0
M  V30 7385 H 697.87 -3.82938 -1.85036 0
M  V30 7386 N 696.185 0.383891 -1.52853 0
M  V30 7387 C 697.596 0.961591 -1.60032 0
M  V30 7388 C 697.947 1.90819 -0.456333 0
M  V30 7389 O 697.072 2.12288 0.419873 0
M  V30 7390 C 697.667 1.75078 -2.90057 0
M  V30 7391 C 696.226 2.2781 -2.99632 0
M  V30 7392 C 695.373 1.08512 -2.55187 0
M  V30 7393 H 698.324 0.163269 -1.57858 0
M  V30 7394 H 698.345 2.61046 -2.7683 0
M  V30 7395 H 697.857 1.06157 -3.73299 0
M  V30 7396 H 695.958 3.00028 -2.20939 0
M  V30 7397 H 696.071 2.56947 -4.0437 0
M  V30 7398 H 694.435 1.44667 -2.09627 0
M  V30 7399 H 695.218 0.41118 -3.40829 0
M  V30 7400 N 697.663 1.43903 0.642637 0
M  V30 7401 C 698.888 1.49758 1.43483 0
M  V30 7402 C 699.313 0.119911 1.87717 0
M  V30 7403 O 698.671 -0.888558 1.58033 0
M  V30 7404 C 698.719 2.45744 2.63898 0
M  V30 7405 O 697.823 1.95101 3.63331 0
M  V30 7406 H 697.164 0.506138 0.429791 0
M  V30 7407 H 699.694 1.88923 0.785438 0
M  V30 7408 H 699.704 2.63399 3.11584 0
M  V30 7409 H 698.379 3.45818 2.31046 0
M  V30 7410 H 696.956 1.87158 3.22531 0
M  V30 7411 N 699.141 -0.881989 1.30609 0
M  V30 7412 C 700.552 -1.44956 1.17664 0
M  V30 7413 C 700.903 -1.94945 -0.221531 0
M  V30 7414 O 700.028 -1.85257 -1.11844 0
M  V30 7415 C 700.623 -2.63474 2.12995 0
M  V30 7416 C 699.182 -3.16312 2.04019 0
M  V30 7417 C 698.329 -1.89008 2.02907 0
M  V30 7418 H 701.28 -0.691645 1.42835 0
M  V30 7419 H 701.301 -3.39783 1.71253 0
M  V30 7420 H 700.813 -2.2706 3.14746 0
M  V30 7421 H 698.914 -3.57376 1.0542 0
M  V30 7422 H 699.027 -3.79409 2.9255 0
M  V30 7423 H 697.391 -2.07465 1.47751 0
M  V30 7424 H 698.174 -1.54848 3.06394 0
M  V30 7425 N 700.619 -1.13374 -1.09472 0
M  V30 7426 C 701.566 -0.810682 -2.16094 0
M  V30 7427 C 702.536 0.227003 -1.64541 0
M  V30 7428 O 703.721 0.0993538 -1.90541 0
M  V30 7429 C 700.861 -0.282336 -3.43943 0
M  V30 7430 C 699.974 -1.37902 -4.09398 0
M  V30 7431 C 699.109 -0.809066 -5.25002 0
M  V30 7432 C 698.148 -1.88419 -5.82379 0
M  V30 7433 N 697.285 -1.33221 -6.89345 0
M  V30 7434 H 702.125 -1.72397 -2.43071 0
M  V30 7435 H 699.662 -0.860564 -1.19301 0
M  V30 7436 H 701.62 0.0421189 -4.17179 0
M  V30 7437 H 700.25 0.594083 -3.17286 0
M  V30 7438 H 699.302 -1.82008 -3.34032 0
M  V30 7439 H 700.614 -2.19161 -4.48074 0
M  V30 7440 H 699.768 -0.435867 -6.05132 0
M  V30 7441 H 698.507 0.0346058 -4.87688 0
M  V30 7442 H 697.512 -2.26646 -5.00911 0
M  V30 7443 H 698.737 -2.73125 -6.21755 0
M  V30 7444 H 696.683 -0.510535 -6.5401 0
M  V30 7445 H 696.6 -2.08129 -7.26786 0
M  V30 7446 H 697.868 -0.986565 -7.73232 0
M  V30 7447 N 702.098 1.27442 -0.927168 0
M  V30 7448 C 703.03 2.25975 -0.383158 0
M  V30 7449 C 704.043 1.55382 0.485832 0
M  V30 7450 O 705.232 1.75986 0.298541 0
M  V30 7451 C 702.332 3.35629 0.469688 0
M  V30 7452 C 701.505 4.35747 -0.379886 0
M  V30 7453 C 700.564 5.24598 0.410227 0
M  V30 7454 O 699.59 5.68909 -0.181888 0
M  V30 7455 N 700.792 5.54737 1.71017 0
M  V30 7456 H 703.557 2.7329 -1.23015 0
M  V30 7457 H 701.118 1.41063 -0.794539 0
M  V30 7458 H 703.11 3.92015 1.00532 0
M  V30 7459 H 701.68 2.87919 1.21744 0
M  V30 7460 H 700.9 3.78634 -1.09682 0
M  V30 7461 H 702.188 4.99648 -0.960717 0
M  V30 7462 H 701.586 5.20594 2.21356 0
M  V30 7463 H 700.143 6.13824 2.19234 0
M  V30 7464 N 703.576 0.692616 1.41565 0
M  V30 7465 C 704.486 0.0258451 2.34586 0
M  V30 7466 C 705.502 -0.769324 1.56069 0
M  V30 7467 O 706.678 -0.707563 1.88562 0
M  V30 7468 C 703.743 -0.901289 3.3478 0
M  V30 7469 C 702.804 -0.0986579 4.29187 0
M  V30 7470 C 702.037 -0.981634 5.24595 0
M  V30 7471 O 702.26 -2.22115 5.25377 0
M  V30 7472 O 701.194 -0.432892 6.00341 0
M  V30 7473 H 705.02 0.792537 2.93177 0
M  V30 7474 H 702.605 0.452935 1.42369 0
M  V30 7475 H 704.487 -1.43302 3.96286 0
M  V30 7476 H 703.162 -1.64752 2.78637 0
M  V30 7477 H 702.069 0.477604 3.71039 0
M  V30 7478 H 703.402 0.608848 4.8842 0
M  V30 7479 N 705.054 -1.51416 0.437162 0
M  V30 7480 C 705.986 -2.255 -0.410171 0
M  V30 7481 C 706.999 -1.29511 -0.986444 0
M  V30 7482 O 708.188 -1.55266 -0.880614 0
M  V30 7483 C 705.288 -2.99511 -1.58575 0
M  V30 7484 C 704.461 -4.22595 -1.12839 0
M  V30 7485 C 703.52 -4.79187 -2.17407 0
M  V30 7486 O 702.546 -5.4103 -1.76849 0
M  V30 7487 N 703.748 -4.63204 -3.49889 0
M  V30 7488 H 706.513 -2.98856 0.224783 0
M  V30 7489 H 704.074 -1.59699 0.266041 0
M  V30 7490 H 706.066 -3.34258 -2.28152 0
M  V30 7491 H 704.636 -2.29167 -2.12606 0
M  V30 7492 H 703.856 -3.93344 -0.259695 0
M  V30 7493 H 705.144 -5.02468 -0.800196 0
M  V30 7494 H 704.542 -4.13945 -3.85573 0
M  V30 7495 H 703.099 -5.02313 -4.15361 0
M  V30 7496 N 706.532 -0.168513 -1.56696 0
M  V30 7497 C 707.462 0.758563 -2.20835 0
M  V30 7498 C 708.443 1.24121 -1.1631 0
M  V30 7499 O 709.628 1.29487 -1.4473 0
M  V30 7500 C 706.758 1.9892 -2.8469 0
M  V30 7501 C 705.712 1.64252 -3.95228 0
M  V30 7502 C 705.038 2.94757 -4.46119 0
M  V30 7503 C 706.338 0.872675 -5.14958 0
M  V30 7504 H 708.032 0.223953 -2.98561 0
M  V30 7505 H 705.578 0.106277 -1.43607 0
M  V30 7506 H 707.531 2.64275 -3.28233 0
M  V30 7507 H 706.255 2.5479 -2.04327 0
M  V30 7508 H 704.914 1.01266 -3.52336 0
M  V30 7509 H 704.562 3.48662 -3.62552 0
M  V30 7510 H 704.262 2.72316 -5.2069 0
M  V30 7511 H 705.786 3.61147 -4.92347 0
M  V30 7512 H 707.2 1.42875 -5.55211 0
M  V30 7513 H 705.597 0.747402 -5.95428 0
M  V30 7514 H 706.667 -0.131535 -4.84722 0
M  V30 7515 N 708.01 1.57248 0.105221 0
M  V30 7516 C 708.957 2.01338 1.12835 0
M  V30 7517 C 709.927 0.887897 1.40377 0
M  V30 7518 O 711.112 1.15315 1.5201 0
M  V30 7519 C 708.252 2.43432 2.44611 0
M  V30 7520 C 707.365 3.69457 2.23888 0
M  V30 7521 C 706.5 4.00473 3.48991 0
M  V30 7522 C 705.539 5.19638 3.23485 0
M  V30 7523 N 704.676 5.46457 4.40828 0
M  V30 7524 H 709.516 2.88527 0.745386 0
M  V30 7525 H 707.053 1.42714 0.356535 0
M  V30 7526 H 709.011 2.65879 3.21503 0
M  V30 7527 H 707.641 1.59266 2.80774 0
M  V30 7528 H 706.693 3.54545 1.37847 0
M  V30 7529 H 708.005 4.56497 2.01026 0
M  V30 7530 H 707.159 4.23642 4.34295 0
M  V30 7531 H 705.898 3.11935 3.74897 0
M  V30 7532 H 704.903 4.96299 2.36574 0
M  V30 7533 H 706.128 6.09766 2.98935 0
M  V30 7534 H 704.074 4.60876 4.66829 0
M  V30 7535 H 703.991 6.27849 4.2112 0
M  V30 7536 H 705.259 5.74155 5.27225 0
M  V30 7537 N 709.488 -0.375779 1.53054 0
M  V30 7538 C 710.765 -1.13453 1.59336 0
M  V30 7539 C 711.145 -2.07379 0.394614 0
M  V30 7540 O 710.493 -2.2004 -0.616 0
M  V30 7541 C 710.703 -1.8826 2.93869 0
M  V30 7542 C 712.051 -2.43155 3.48081 0
M  V30 7543 O 713.075 -1.984 2.95831 0
M  V30 7544 O 711.934 -3.24944 4.39401 0
M  V30 7545 H 709.028 -0.519856 0.643179 0
M  V30 7546 H 711.574 -0.379865 1.65394 0
M  V30 7547 H 710.346 -1.19652 3.72558 0
M  V30 7548 H 709.969 -2.70658 2.91256 0
M  V30 7549 N 710.966 -1.44241 -0.634997 0
M  V30 7550 C 711.913 -1.5081 -1.74714 0
M  V30 7551 C 712.883 -0.356147 -1.62237 0
M  V30 7552 O 714.068 -0.565848 -1.82216 0
M  V30 7553 C 711.208 -1.45458 -3.12947 0
M  V30 7554 C 710.321 -2.70998 -3.36428 0
M  V30 7555 C 709.456 -2.57507 -4.64611 0
M  V30 7556 C 708.495 -3.78229 -4.81258 0
M  V30 7557 N 707.632 -3.63438 -6.00714 0
M  V30 7558 H 712.472 -2.45832 -1.68436 0
M  V30 7559 H 710.009 -1.2201 -0.821706 0
M  V30 7560 H 711.967 -1.40347 -3.92885 0
M  V30 7561 H 710.597 -0.540058 -3.1825 0
M  V30 7562 H 709.649 -2.86312 -2.50458 0
M  V30 7563 H 710.961 -3.60619 -3.44609 0
M  V30 7564 H 710.115 -2.50207 -5.52703 0
M  V30 7565 H 708.854 -1.65441 -4.58782 0
M  V30 7566 H 707.859 -3.85918 -3.91596 0
M  V30 7567 H 709.084 -4.71327 -4.88904 0
M  V30 7568 H 707.03 -2.7412 -5.95982 0
M  V30 7569 H 706.947 -4.46672 -6.09934 0
M  V30 7570 H 708.215 -3.60022 -6.91378 0
M  V30 7571 N 712.444 0.87505 -1.31075 0
M  V30 7572 C 713.354 2.01441 -1.20244 0
M  V30 7573 C 714.37 1.73584 -0.120227 0
M  V30 7574 O 715.546 1.98559 -0.337063 0
M  V30 7575 C 712.611 3.34675 -0.905199 0
M  V30 7576 C 711.672 3.75889 -2.0738 0
M  V30 7577 C 710.905 5.02764 -1.79064 0
M  V30 7578 O 711.128 5.65795 -0.723318 0
M  V30 7579 O 710.062 5.40623 -2.64594 0
M  V30 7580 H 713.888 2.13509 -2.1598 0
M  V30 7581 H 711.473 1.00257 -1.10765 0
M  V30 7582 H 713.355 4.1458 -0.755057 0
M  V30 7583 H 712.03 3.23692 0.0221695 0
M  V30 7584 H 710.937 2.96645 -2.27931 0
M  V30 7585 H 712.27 3.91489 -2.98324 0
M  V30 7586 N 713.922 1.13953 1.08869 0
M  V30 7587 C 715.333 0.916649 1.62648 0
M  V30 7588 C 715.684 -0.545589 1.88462 0
M  V30 7589 O 714.809 -1.41351 1.63856 0
M  V30 7590 C 715.404 1.65751 2.95486 0
M  V30 7591 C 713.963 1.48034 3.46068 0
M  V30 7592 C 713.11 1.68305 2.20383 0
M  V30 7593 H 716.061 1.292 0.921572 0
M  V30 7594 H 716.082 1.11794 3.63707 0
M  V30 7595 H 715.594 2.72171 2.76667 0
M  V30 7596 H 713.695 0.439416 3.7 0
M  V30 7597 H 713.808 2.24719 4.23129 0
M  V30 7598 H 712.172 1.10833 2.29321 0
M  V30 7599 H 712.955 2.76057 2.04077 0
M  V30 7600 N 715.4 -1.26948 0.933913 0
M  V30 7601 C 716.811 -1.76058 0.621324 0
M  V30 7602 C 717.162 -1.76175 -0.863522 0
M  V30 7603 O 716.287 -1.36921 -1.67576 0
M  V30 7604 C 716.882 -3.19713 1.12111 0
M  V30 7605 C 715.441 -3.66465 0.859074 0
M  V30 7606 C 714.588 -2.46186 1.27624 0
M  V30 7607 H 717.539 -1.13127 1.11301 0
M  V30 7608 H 717.56 -3.77566 0.471608 0
M  V30 7609 H 717.072 -3.19596 2.20182 0
M  V30 7610 H 715.173 -3.72021 -0.207566 0
M  V30 7611 H 715.286 -4.55636 1.48098 0
M  V30 7612 H 713.65 -2.45042 0.694727 0
M  V30 7613 H 714.433 -2.48774 2.36572 0
M  V30 7614 N 716.879 -0.700114 -1.41195 0
M  V30 7615 C 717.809 -0.0521132 -2.33442 0
M  V30 7616 C 718.79 0.76228 -1.52063 0
M  V30 7617 O 719.975 0.714336 -1.80585 0
M  V30 7618 C 717.105 0.881693 -3.35922 0
M  V30 7619 C 716.059 0.174062 -4.27646 0
M  V30 7620 C 715.385 1.22254 -5.20536 0
M  V30 7621 C 716.685 -0.962396 -5.13357 0
M  V30 7622 H 718.379 -0.822574 -2.87879 0
M  V30 7623 H 715.925 -0.397011 -1.38419 0
M  V30 7624 H 717.878 1.34429 -3.99383 0
M  V30 7625 H 716.602 1.68387 -2.79845 0
M  V30 7626 H 715.261 -0.268551 -3.65615 0
M  V30 7627 H 714.909 2.01736 -4.60773 0
M  V30 7628 H 714.609 0.754038 -5.82742 0
M  V30 7629 H 716.133 1.68555 -5.86874 0
M  V30 7630 H 717.547 -0.579875 -5.7036 0
M  V30 7631 H 715.944 -1.35828 -5.84526 0
M  V30 7632 H 717.014 -1.80003 -4.50252 0
M  V30 7633 N 718.357 1.51182 -0.445186 0
M  V30 7634 C 719.32 2.26501 0.350722 0
M  V30 7635 C 720.32 1.3025 0.942952 0
M  V30 7636 O 721.51 1.53897 0.816175 0
M  V30 7637 C 718.642 3.06274 1.49697 0
M  V30 7638 H 719.835 2.98299 -0.309474 0
M  V30 7639 H 717.388 1.55034 -0.198551 0
M  V30 7640 H 718.123 2.38911 2.19299 0
M  V30 7641 H 717.908 3.76979 1.0784 0
M  V30 7642 H 719.398 3.63306 2.05909 0
M  V30 7643 N 719.835 0.176821 1.56605 0
M  V30 7644 C 721.06 -0.47599 2.01864 0
M  V30 7645 C 721.485 -1.55645 1.05623 0
M  V30 7646 O 720.843 -1.81263 0.0366729 0
M  V30 7647 C 720.891 -1.02619 3.4569 0
M  V30 7648 O 719.995 -2.13996 3.52533 0
M  V30 7649 H 719.336 -0.113363 0.654251 0
M  V30 7650 H 721.866 0.28233 2.02643 0
M  V30 7651 H 721.876 -1.34742 3.85109 0
M  V30 7652 H 720.551 -0.235138 4.15235 0
M  V30 7653 H 719.128 -1.82876 3.24978 0
M  V30 7654 N 721.313 -1.57302 -0.09688 0
M  V30 7655 C 722.243 -2.0497 -1.11846 0
M  V30 7656 C 723.224 -0.938278 -1.41882 0
M  V30 7657 O 724.409 -1.20943 -1.51942 0
M  V30 7658 C 721.539 -2.47264 -2.43881 0
M  V30 7659 C 720.493 -3.62053 -2.28257 0
M  V30 7660 C 719.819 -3.90318 -3.65453 0
M  V30 7661 C 721.119 -4.93005 -1.72461 0
M  V30 7662 H 722.813 -2.90567 -0.721888 0
M  V30 7663 H 720.359 -1.39786 -0.345803 0
M  V30 7664 H 722.312 -2.7922 -3.15617 0
M  V30 7665 H 721.036 -1.58664 -2.8547 0
M  V30 7666 H 719.695 -3.30341 -1.58967 0
M  V30 7667 H 719.343 -2.98889 -4.04567 0
M  V30 7668 H 719.043 -4.67597 -3.55846 0
M  V30 7669 H 720.567 -4.24747 -4.3866 0
M  V30 7670 H 721.981 -5.23354 -2.34036 0
M  V30 7671 H 720.378 -5.74436 -1.73618 0
M  V30 7672 H 721.448 -4.80053 -0.683898 0
M  V30 7673 N 722.791 0.367657 -1.53252 0
M  V30 7674 C 724.207 0.709191 -1.42978 0
M  V30 7675 C 724.407 1.93352 -0.567193 0
M  V30 7676 O 723.463 2.52453 -0.0488349 0
M  V30 7677 C 724.776 0.924338 -2.86141 0
M  V30 7678 C 726.324 1.02448 -2.95759 0
M  V30 7679 C 726.799 1.27211 -4.39979 0
M  V30 7680 N 728.29 1.33986 -4.43398 0
M  V30 7681 C 729.025 1.54852 -5.52095 0
M  V30 7682 N 728.521 1.73049 -6.7084 0
M  V30 7683 N 730.314 1.57205 -5.39669 0
M  V30 7684 H 722.465 -0.437669 -2.07842 0
M  V30 7685 H 724.728 -0.133737 -0.938519 0
M  V30 7686 H 724.434 0.0965455 -3.51567 0
M  V30 7687 H 724.308 1.83302 -3.29667 0
M  V30 7688 H 726.695 1.84282 -2.30487 0
M  V30 7689 H 726.776 0.0932301 -2.5563 0
M  V30 7690 H 726.42 0.458792 -5.05824 0
M  V30 7691 H 726.35 2.21654 -4.77679 0
M  V30 7692 H 728.841 1.21545 -3.5782 0
M  V30 7693 H 729.154 1.88538 -7.49449 0
M  V30 7694 H 727.499 1.70231 -6.7383 0
M  V30 7695 H 730.69 1.42555 -4.45865 0
M  V30 7696 H 730.863 1.73126 -6.24445 0
M  V30 7697 N 724.269 1.44576 0.627338 0
M  V30 7698 C 725.494 1.51271 1.41887 0
M  V30 7699 C 725.919 0.139814 1.8758 0
M  V30 7700 O 725.277 -0.871746 1.58966 0
M  V30 7701 C 725.325 2.48529 2.61277 0
M  V30 7702 O 724.429 1.98944 3.61241 0
M  V30 7703 H 723.77 0.510668 0.424399 0
M  V30 7704 H 726.3 1.89746 0.765356 0
M  V30 7705 H 726.31 2.66689 3.08773 0
M  V30 7706 H 724.985 3.48249 2.27366 0
M  V30 7707 H 723.562 1.90568 3.20528 0
M  V30 7708 N 725.747 -0.868086 1.31537 0
M  V30 7709 C 726.677 -1.99131 1.21939 0
M  V30 7710 C 727.658 -1.69768 0.106166 0
M  V30 7711 O 728.843 -1.92006 0.291081 0
M  V30 7712 C 725.973 -3.34676 0.927879 0
M  V30 7713 C 724.927 -3.7835 2.00088 0
M  V30 7714 C 724.253 -5.11375 1.56203 0
M  V30 7715 C 725.553 -3.95256 3.41424 0
M  V30 7716 H 727.247 -2.07419 2.15911 0
M  V30 7717 H 724.793 -0.996569 1.03945 0
M  V30 7718 H 726.746 -4.12793 0.847327 0
M  V30 7719 H 725.47 -3.26565 -0.0475042 0
M  V30 7720 H 724.129 -3.02474 2.07135 0
M  V30 7721 H 723.777 -4.99709 0.57445 0
M  V30 7722 H 723.477 -5.41568 2.27985 0
M  V30 7723 H 725.001 -5.92001 1.49558 0
M  V30 7724 H 726.415 -4.63764 3.3704 0
M  V30 7725 H 724.812 -4.36849 4.1144 0
M  V30 7726 H 725.882 -2.98579 3.82072 0
M  V30 7727 N 727.225 -1.14528 -1.08264 0
M  V30 7728 C 728.472 -0.914405 -1.80679 0
M  V30 7729 C 728.8 0.558952 -1.86295 0
M  V30 7730 O 728.055 1.43017 -1.33584 0
M  V30 7731 C 728.354 -1.46226 -3.26117 0
M  V30 7732 C 728.02 -2.95451 -3.40616 0
M  V30 7733 C 726.682 -3.36191 -3.4428 0
M  V30 7734 C 729.034 -3.91399 -3.44175 0
M  V30 7735 C 726.362 -4.71539 -3.49096 0
M  V30 7736 C 728.714 -5.26606 -3.50526 0
M  V30 7737 C 727.378 -5.66856 -3.52464 0
M  V30 7738 H 726.648 -0.334604 -0.661151 0
M  V30 7739 H 729.295 -1.4292 -1.27461 0
M  V30 7740 H 727.6 -0.868442 -3.82054 0
M  V30 7741 H 729.297 -1.25955 -3.80705 0
M  V30 7742 H 725.887 -2.62955 -3.38456 0
M  V30 7743 H 730.071 -3.61004 -3.40573 0
M  V30 7744 H 725.327 -5.02082 -3.4889 0
M  V30 7745 H 729.501 -6.00758 -3.52225 0
M  V30 7746 H 727.128 -6.71718 -3.55948 0
M  V30 7747 N 728.703 1.26451 -0.940633 0
M  V30 7748 C 729.951 1.93395 -0.586748 0
M  V30 7749 C 730.272 1.7417 0.876921 0
M  V30 7750 O 729.542 1.097 1.62304 0
M  V30 7751 H 728.122 0.715687 -0.214012 0
M  V30 7752 H 730.784 1.53902 -1.19584 0
M  V30 7753 H 729.88 3.01565 -0.804059 0
M  V30 7754 N 730.181 0.707592 1.40822 0
M  V30 7755 C 731.406 0.251626 2.05868 0
M  V30 7756 C 731.831 -1.09503 1.5294 0
M  V30 7757 O 731.189 -1.68806 0.661385 0
M  V30 7758 C 731.237 0.23287 3.59847 0
M  V30 7759 O 730.341 -0.788477 4.04792 0
M  V30 7760 H 729.682 0.119936 0.653078 0
M  V30 7761 H 732.212 0.96583 1.80369 0
M  V30 7762 H 732.222 0.0678204 4.07944 0
M  V30 7763 H 730.897 1.21565 3.97737 0
M  V30 7764 H 729.474 -0.591802 3.68174 0
M  V30 7765 N 731.66 -1.50943 0.453197 0
M  V30 7766 C 732.937 -1.94872 -0.168633 0
M  V30 7767 C 733.317 -1.39272 -1.5864 0
M  V30 7768 O 732.665 -0.586272 -2.20851 0
M  V30 7769 C 732.875 -3.48757 -0.130217 0
M  V30 7770 C 734.223 -4.23331 -0.327975 0
M  V30 7771 O 735.247 -3.55594 -0.207619 0
M  V30 7772 O 734.106 -5.43529 -0.569077 0
M  V30 7773 H 731.2 -0.818042 -0.121394 0
M  V30 7774 H 733.746 -1.61782 0.512316 0
M  V30 7775 H 732.518 -3.81725 0.860346 0
M  V30 7776 H 732.141 -3.88333 -0.853397 0
M  V30 7777 N 733.138 -0.185124 -1.56509 0
M  V30 7778 C 734.549 0.329221 -1.83774 0
M  V30 7779 C 734.9 1.62093 -1.10545 0
M  V30 7780 O 734.025 2.13334 -0.36298 0
M  V30 7781 C 734.62 0.604099 -3.33371 0
M  V30 7782 C 733.179 1.06284 -3.61083 0
M  V30 7783 C 732.326 0.10608 -2.77097 0
M  V30 7784 H 735.277 -0.409116 -1.53336 0
M  V30 7785 H 735.298 1.45458 -3.51599 0
M  V30 7786 H 734.81 -0.336201 -3.86641 0
M  V30 7787 H 732.911 2.01777 -3.13236 0
M  V30 7788 H 733.024 0.962453 -4.69333 0
M  V30 7789 H 731.388 0.606082 -2.47384 0
M  V30 7790 H 732.171 -0.828486 -3.33153 0
M  V30 7791 N 734.616 1.57351 0.0885366 0
M  V30 7792 C 735.546 2.05561 1.10757 0
M  V30 7793 C 736.527 0.945789 1.41382 0
M  V30 7794 O 737.712 1.21747 1.51299 0
M  V30 7795 C 734.842 2.48554 2.42566 0
M  V30 7796 C 733.796 3.63259 2.26334 0
M  V30 7797 C 733.122 3.9225 3.63378 0
M  V30 7798 C 734.422 4.93913 1.69844 0
M  V30 7799 H 736.116 2.90946 0.706468 0
M  V30 7800 H 733.662 1.39968 0.338385 0
M  V30 7801 H 735.615 2.8089 3.14132 0
M  V30 7802 H 734.339 1.60176 2.84625 0
M  V30 7803 H 732.998 3.31179 1.57213 0
M  V30 7804 H 732.646 3.0103 4.02976 0
M  V30 7805 H 732.346 4.69478 3.53362 0
M  V30 7806 H 733.87 4.27067 4.36401 0
M  V30 7807 H 735.284 5.24588 2.31258 0
M  V30 7808 H 733.681 5.75349 1.70569 0
M  V30 7809 H 734.751 4.80409 0.65843 0
M  V30 7810 N 736.094 -0.359525 1.53444 0
M  V30 7811 C 737.024 -1.44662 1.8329 0
M  V30 7812 C 738.005 -1.55617 0.68683 0
M  V30 7813 O 739.19 -1.70086 0.93725 0
M  V30 7814 C 736.32 -2.81923 2.02822 0
M  V30 7815 C 735.274 -2.85787 3.18606 0
M  V30 7816 C 734.6 -4.25781 3.23442 0
M  V30 7817 C 735.9 -2.52762 4.57065 0
M  V30 7818 H 737.594 -1.19934 2.74329 0
M  V30 7819 H 735.14 -0.575517 1.31999 0
M  V30 7820 H 737.093 -3.58005 2.22285 0
M  V30 7821 H 735.817 -3.08051 1.085 0
M  V30 7822 H 734.476 -2.12157 2.98973 0
M  V30 7823 H 734.124 -4.48994 2.26745 0
M  V30 7824 H 733.824 -4.29281 4.01238 0
M  V30 7825 H 735.348 -5.03727 3.45096 0
M  V30 7826 H 736.762 -3.18557 4.76649 0
M  V30 7827 H 735.159 -2.67569 5.37147 0
M  V30 7828 H 736.229 -1.47993 4.61764 0
M  V30 7829 N 737.572 -1.44907 -0.619662 0
M  V30 7830 C 738.504 -1.48652 -1.74457 0
M  V30 7831 C 739.517 -0.378596 -1.58337 0
M  V30 7832 O 740.706 -0.644987 -1.6644 0
M  V30 7833 C 737.806 -1.31568 -3.12319 0
M  V30 7834 C 736.979 -2.55816 -3.54792 0
M  V30 7835 C 736.038 -2.33465 -4.71573 0
M  V30 7836 O 735.064 -3.07015 -4.79302 0
M  V30 7837 N 736.266 -1.37254 -5.6404 0
M  V30 7838 H 739.031 -2.45632 -1.71712 0
M  V30 7839 H 736.592 -1.40492 -0.804582 0
M  V30 7840 H 738.584 -1.14445 -3.88181 0
M  V30 7841 H 737.154 -0.429095 -3.09641 0
M  V30 7842 H 736.374 -2.88137 -2.69018 0
M  V30 7843 H 737.662 -3.38431 -3.79924 0
M  V30 7844 H 737.06 -0.765309 -5.60499 0
M  V30 7845 H 735.617 -1.26106 -6.39485 0
M  V30 7846 O 739.089 0.763334 -1.42322 0
M  V30 7847 H 739.78 1.41133 -1.3267 0
M  V30 END ATOM
M  V30 BEGIN BOND
M  V30 END BOND
M  V30 END CTAB
M  END
$$$$
