drugbank_target|O94766 Galactosylgalactosylxylosylprotein 3-beta-glucuronosyltransferase 3 (DB03041; DB03435)
 OpenBabel12092120013D

  0  0  0     0  0            999 V3000
M  V30 BEGIN CTAB
M  V30 COUNTS 5281 5351 0 0 0
M  V30 BEGIN ATOM
M  V30 1 H -0.908 1.98254 -0.117106 0
M  V30 2 N 0 1.576 0 0
M  V30 3 C 0.933 2.03868 1.02534 0
M  V30 4 C 1.911 0.928543 1.3348 0
M  V30 5 O 3.095 1.19667 1.45644 0
M  V30 6 C 0.222 2.43627 2.35294 0
M  V30 7 C -0.732 3.65373 2.2001 0
M  V30 8 S 0.101 5.13292 1.52614 0
M  V30 9 C 1.257 5.56322 2.86805 0
M  V30 10 H 1.49 2.90518 0.631377 0
M  V30 11 H -0.977 1.52953 0.210867 0
M  V30 12 H 0.981 2.67203 3.11629 0
M  V30 13 H -0.358 1.57376 2.7183 0
M  V30 14 H -1.165 3.90944 3.18086 0
M  V30 15 H -1.563 3.418 1.51819 0
M  V30 16 H 0.729 5.58782 3.83104 0
M  V30 17 H 1.672 6.56266 2.65933 0
M  V30 18 H 2.08 4.83886 2.90714 0
M  V30 19 N 1.4781 -0.272755 1.55222 0
M  V30 20 C 2.4251 -1.33716 1.88119 0
M  V30 21 C 3.3951 -1.49066 0.73271 0
M  V30 22 O 4.5801 -1.63469 0.984002 0
M  V30 23 C 1.7201 -2.69238 2.15882 0
M  V30 24 C 0.8331 -2.62108 3.43399 0
M  V30 25 C -0.0319 -3.89811 3.60861 0
M  V30 26 C -0.9929 -3.77193 4.8207 0
M  V30 27 N -1.8559 -4.9673 4.96189 0
M  V30 28 H 2.9841 -1.04962 2.78903 0
M  V30 29 H 0.5211 -0.507088 1.38083 0
M  V30 30 H 2.4791 -3.48089 2.29978 0
M  V30 31 H 1.1091 -2.96194 1.28331 0
M  V30 32 H 0.1611 -1.74967 3.37773 0
M  V30 33 H 1.4731 -2.48685 4.32386 0
M  V30 34 H 0.6271 -4.77103 3.74777 0
M  V30 35 H -0.6339 -4.06102 2.7006 0
M  V30 36 H -1.6289 -2.88284 4.68159 0
M  V30 37 H -0.4039 -3.62421 5.74307 0
M  V30 38 H -2.4579 -5.13431 4.08319 0
M  V30 39 H -2.5409 -4.85839 5.79221 0
M  V30 40 H -1.2729 -5.85594 5.1449 0
M  V30 41 N 2.9562 -1.48159 -0.537278 0
M  V30 42 C 3.8862 -1.65029 -1.6519 0
M  V30 43 C 4.8672 -0.499281 -1.62607 0
M  V30 44 O 6.0522 -0.730972 -1.79918 0
M  V30 45 C 3.1822 -1.68303 -3.03795 0
M  V30 46 C 2.1362 -2.8283 -3.21234 0
M  V30 47 C 1.4622 -2.71189 -4.60826 0
M  V30 48 C 2.7622 -4.24211 -3.04701 0
M  V30 49 H 4.4562 -2.58341 -1.51328 0
M  V30 50 H 2.0022 -1.24325 -0.726585 0
M  V30 51 H 3.9552 -1.78693 -3.81637 0
M  V30 52 H 2.6792 -0.715635 -3.18663 0
M  V30 53 H 1.3382 -2.71983 -2.45807 0
M  V30 54 H 0.9862 -1.72435 -4.7252 0
M  V30 55 H 0.6862 -3.48035 -4.7344 0
M  V30 56 H 2.2102 -2.83537 -5.40777 0
M  V30 57 H 3.6242 -4.3593 -3.72341 0
M  V30 58 H 2.0212 -5.01998 -3.28813 0
M  V30 59 H 3.0912 -4.41184 -2.01209 0
M  V30 60 N 4.4343 0.785586 -1.36625 0
M  V30 61 C 5.3813 1.89838 -1.31264 0
M  V30 62 C 6.3513 1.65115 -0.180633 0
M  V30 63 O 7.5363 1.87222 -0.36777 0
M  V30 64 C 4.6763 3.26706 -1.11163 0
M  V30 65 C 3.7893 3.63476 -2.33472 0
M  V30 66 C 2.9243 4.89481 -2.06353 0
M  V30 67 C 1.9633 5.18941 -3.24602 0
M  V30 68 N 1.1003 6.36131 -2.97123 0
M  V30 69 H 5.9403 1.93756 -2.26413 0
M  V30 70 H 3.4773 0.947454 -1.12524 0
M  V30 71 H 5.4353 4.05639 -0.975337 0
M  V30 72 H 4.0653 3.222 -0.196674 0
M  V30 73 H 3.1173 2.79636 -2.57891 0
M  V30 74 H 4.4293 3.81193 -3.21704 0
M  V30 75 H 3.5833 5.76288 -1.89675 0
M  V30 76 H 2.3223 4.73841 -1.15437 0
M  V30 77 H 1.3273 4.30615 -3.41834 0
M  V30 78 H 2.5523 5.36498 -4.16349 0
M  V30 79 H 0.4983 6.21875 -2.08823 0
M  V30 80 H 0.4153 6.54198 -3.78894 0
M  V30 81 H 1.6833 7.2591 -2.84033 0
M  V30 82 N 5.9124 1.20967 1.01018 0
M  V30 83 C 6.8424 0.988272 2.11555 0
M  V30 84 C 7.8234 -0.0849778 1.69888 0
M  V30 85 O 9.0084 0.0738202 1.9406 0
M  V30 86 C 6.1384 0.546528 3.42973 0
M  V30 87 C 5.0924 1.56375 3.9841 0
M  V30 88 C 4.4184 0.97842 5.25672 0
M  V30 89 C 5.7184 2.94922 4.31066 0
M  V30 90 H 7.4124 1.91276 2.30334 0
M  V30 91 H 4.9584 0.921073 1.1069 0
M  V30 92 H 6.9114 0.378839 4.19694 0
M  V30 93 H 5.6354 -0.413598 3.23971 0
M  V30 94 H 4.2944 1.71891 3.23804 0
M  V30 95 H 3.9424 0.0101688 5.02999 0
M  V30 96 H 3.6424 1.65784 5.63728 0
M  V30 97 H 5.1664 0.821939 6.05043 0
M  V30 98 H 6.5804 2.8288 4.9865 0
M  V30 99 H 4.9774 3.5983 4.80253 0
M  V30 100 H 6.0474 3.4616 3.39561 0
M  V30 101 N 7.3905 -1.2043 1.01659 0
M  V30 102 C 8.3375 -2.23215 0.586822 0
M  V30 103 C 9.3075 -1.61382 -0.393085 0
M  V30 104 O 10.4925 -1.88544 -0.292525 0
M  V30 105 C 7.6325 -3.45032 -0.0687464 0
M  V30 106 C 6.7455 -4.21296 0.955724 0
M  V30 107 C 5.8805 -5.30507 0.271208 0
M  V30 108 C 4.9195 -5.98515 1.28244 0
M  V30 109 N 4.0565 -6.99316 0.62459 0
M  V30 110 H 8.8965 -2.59336 1.46796 0
M  V30 111 H 6.4335 -1.27431 0.734836 0
M  V30 112 H 8.3915 -4.1459 -0.465965 0
M  V30 113 H 7.0215 -3.09604 -0.913529 0
M  V30 114 H 6.0735 -3.50803 1.4711 0
M  V30 115 H 7.3855 -4.6803 1.72479 0
M  V30 116 H 6.5395 -6.06428 -0.18151 0
M  V30 117 H 5.2785 -4.8481 -0.530163 0
M  V30 118 H 4.2835 -5.21355 1.74554 0
M  V30 119 H 5.5085 -6.46298 2.08509 0
M  V30 120 H 3.4545 -6.55812 -0.156914 0
M  V30 121 H 3.3715 -7.44178 1.33172 0
M  V30 122 H 4.6395 -7.79255 0.195462 0
M  V30 123 N 8.8686 -0.792821 -1.36206 0
M  V30 124 C 9.8166 -0.181555 -2.3189 0
M  V30 125 C 10.8106 0.661025 -1.55971 0
M  V30 126 O 12.0166 0.555728 -1.71206 0
M  V30 127 H 8.3916 -0.0399382 -0.750939 0
M  V30 128 H 10.3626 -1.00394 -2.81005 0
M  V30 129 C 9.1116 0.666444 -3.41253 0
M  V30 130 H 8.4346 0.0274489 -3.99791 0
M  V30 131 H 9.8746 1.06076 -4.10517 0
M  V30 132 C 8.3336 1.82614 -2.83114 0
M  V30 133 O 8.8636 2.9229 -2.75553 0
M  V30 134 N 7.0696 1.63333 -2.40356 0
M  V30 135 H 6.6166 0.741217 -2.46706 0
M  V30 136 H 6.5746 2.41087 -2.01803 0
M  V30 137 N 10.3467 1.47872 -0.545128 0
M  V30 138 C 11.5927 2.02793 -0.0166104 0
M  V30 139 C 11.9257 1.41987 1.32489 0
M  V30 140 O 11.2007 0.571045 1.85928 0
M  V30 141 C 11.4837 3.59989 0.0893294 0
M  V30 142 C 11.3367 4.3125 -1.27841 0
M  V30 143 C 12.6557 4.32606 0.808724 0
M  V30 144 H 9.7747 0.736962 -0.00751035 0
M  V30 145 H 12.4167 1.76433 -0.705085 0
M  V30 146 H 10.5667 3.82579 0.675681 0
M  V30 147 H 12.2387 4.20035 -1.90704 0
M  V30 148 H 10.4817 3.92076 -1.85632 0
M  V30 149 H 11.1527 5.39736 -1.15713 0
M  V30 150 H 13.6287 4.14936 0.310992 0
M  V30 151 H 12.5047 5.42251 0.851782 0
M  V30 152 H 12.7657 4.00963 1.86229 0
M  V30 153 N 11.8248 0.280983 1.55075 0
M  V30 154 C 13.0718 -0.334115 1.99725 0
M  V30 155 C 13.3998 -1.5542 1.1694 0
M  V30 156 O 12.6548 -1.94361 0.228531 0
M  V30 157 C 12.9538 -0.754656 3.49342 0
M  V30 158 C 12.6198 0.361445 4.49449 0
M  V30 159 C 11.2818 0.667893 4.76542 0
M  V30 160 C 13.6338 1.11322 5.09173 0
M  V30 161 C 10.9618 1.7296 5.60626 0
M  V30 162 C 13.3138 2.1647 5.9441 0
M  V30 163 C 11.9778 2.47742 6.19822 0
M  V30 164 H 11.2478 -0.122261 0.730844 0
M  V30 165 H 13.8948 0.395917 1.87363 0
M  V30 166 H 12.1998 -1.56446 3.5921 0
M  V30 167 H 13.8968 -1.24142 3.813 0
M  V30 168 H 10.4868 0.112481 4.28452 0
M  V30 169 H 14.6708 0.88973 4.8826 0
M  V30 170 H 9.9268 1.97684 5.78559 0
M  V30 171 H 14.1008 2.75193 6.3972 0
M  V30 172 H 11.7278 3.30145 6.84769 0
M  V30 173 N 13.3029 -1.57598 0.00835791 0
M  V30 174 C 14.2329 -2.1198 -0.979113 0
M  V30 175 C 15.2139 -1.03091 -1.35301 0
M  V30 176 O 16.3989 -1.30818 -1.43528 0
M  V30 177 C 13.5289 -2.62995 -2.26828 0
M  V30 178 C 12.4829 -3.76485 -2.03576 0
M  V30 179 C 11.8089 -4.13846 -3.38579 0
M  V30 180 C 13.1089 -5.0342 -1.39161 0
M  V30 181 H 14.8029 -2.94738 -0.526281 0
M  V30 182 H 12.3489 -1.41783 -0.251704 0
M  V30 183 H 14.3019 -2.99669 -2.96271 0
M  V30 184 H 13.0259 -1.7737 -2.7424 0
M  V30 185 H 11.6849 -3.40217 -1.36557 0
M  V30 186 H 11.3329 -3.25232 -3.83709 0
M  V30 187 H 11.0329 -4.90312 -3.23834 0
M  V30 188 H 12.5569 -4.53086 -4.09323 0
M  V30 189 H 13.9709 -5.37812 -1.98573 0
M  V30 190 H 12.3679 -5.84746 -1.34878 0
M  V30 191 H 13.4379 -4.83548 -0.361868 0
M  V30 192 N 14.781 0.264519 -1.55364 0
M  V30 193 C 15.744 1.31046 -1.88042 0
M  V30 194 C 16.744 1.41943 -0.755569 0
M  V30 195 O 17.934 1.40947 -1.02369 0
M  V30 196 C 15.066 2.69067 -2.09323 0
M  V30 197 H 16.259 1.03297 -2.81549 0
M  V30 198 H 13.812 0.502989 -1.47986 0
M  V30 199 H 14.547 3.01982 -1.18226 0
M  V30 200 H 14.332 2.62542 -2.91229 0
M  V30 201 H 15.822 3.44623 -2.35848 0
M  V30 202 N 16.2591 1.48442 0.529413 0
M  V30 203 C 17.4891 1.59919 1.30804 0
M  V30 204 C 17.8971 0.258792 1.87422 0
M  V30 205 O 17.2401 -0.762096 1.67146 0
M  V30 206 C 17.3021 2.58693 2.49636 0
M  V30 207 C 16.9661 4.03745 2.14101 0
M  V30 208 C 17.9631 4.9141 1.6974 0
M  V30 209 C 15.6481 4.49285 2.24607 0
M  V30 210 C 17.6421 6.22645 1.36351 0
M  V30 211 C 15.3291 5.8054 1.9083 0
M  V30 212 C 16.3271 6.67043 1.46773 0
M  V30 213 O 16.0151 7.95856 1.1344 0
M  V30 214 H 15.7471 0.541981 0.404021 0
M  V30 215 H 18.3011 1.95 0.645309 0
M  V30 216 H 16.5311 2.18734 3.18892 0
M  V30 217 H 18.2201 2.59999 3.11698 0
M  V30 218 H 18.9861 4.57465 1.61094 0
M  V30 219 H 14.8651 3.82142 2.57854 0
M  V30 220 H 18.4091 6.90119 1.01891 0
M  V30 221 H 14.3061 6.14022 1.99117 0
M  V30 222 H 15.0741 8.08613 1.26832 0
M  V30 223 N 17.7372 -0.778329 1.37039 0
M  V30 224 C 18.9842 -1.53665 1.31884 0
M  V30 225 C 19.3122 -1.9425 -0.0986303 0
M  V30 226 O 18.5672 -1.63832 -1.07041 0
M  V30 227 C 18.8662 -2.81845 2.19768 0
M  V30 228 C 18.5322 -2.60345 3.68146 0
M  V30 229 C 17.1942 -2.5419 4.08584 0
M  V30 230 C 19.5462 -2.40923 4.62175 0
M  V30 231 C 16.8742 -2.26594 5.41177 0
M  V30 232 C 19.2262 -2.14852 5.94997 0
M  V30 233 C 17.8902 -2.07137 6.34547 0
M  V30 234 H 17.1602 -0.562299 0.482598 0
M  V30 235 H 19.8072 -0.897069 1.69189 0
M  V30 236 H 18.1122 -3.50328 1.75436 0
M  V30 237 H 19.8092 -3.39692 2.13097 0
M  V30 238 H 16.3992 -2.65996 3.36072 0
M  V30 239 H 20.5832 -2.44673 4.31797 0
M  V30 240 H 15.8392 -2.19111 5.70789 0
M  V30 241 H 20.0132 -1.98822 6.67415 0
M  V30 242 H 17.6402 -1.85518 7.37216 0
M  V30 243 N 19.2153 -1.21501 -1.00376 0
M  V30 244 C 20.1453 -0.999478 -2.11028 0
M  V30 245 C 21.1263 0.0759671 -1.6993 0
M  V30 246 O 22.3113 -0.0841106 -1.94018 0
M  V30 247 C 19.4413 -0.564709 -3.42678 0
M  V30 248 C 18.3953 -1.58486 -3.97576 0
M  V30 249 C 17.7213 -1.00628 -5.25146 0
M  V30 250 C 19.0213 -2.97204 -4.29496 0
M  V30 251 H 20.7153 -1.92495 -2.29317 0
M  V30 252 H 18.2613 -0.92693 -1.102 0
M  V30 253 H 20.2143 -0.401091 -4.19487 0
M  V30 254 H 18.9383 0.396411 -3.24185 0
M  V30 255 H 17.5973 -1.73606 -3.22888 0
M  V30 256 H 17.2453 -0.0368439 -5.02987 0
M  V30 257 H 16.9453 -1.68771 -5.62841 0
M  V30 258 H 18.4693 -0.854015 -6.04598 0
M  V30 259 H 19.8833 -2.8552 -4.97143 0
M  V30 260 H 18.2803 -3.62372 -4.78338 0
M  V30 261 H 19.3503 -3.47956 -3.3772 0
M  V30 262 N 20.6934 1.19889 -1.02296 0
M  V30 263 C 21.9394 1.89701 -0.717033 0
M  V30 264 C 22.2724 1.7905 0.751989 0
M  V30 265 O 21.5474 1.17891 1.547 0
M  V30 266 C 21.8304 3.40858 -1.16136 0
M  V30 267 C 21.6834 3.60411 -2.69117 0
M  V30 268 C 23.0024 4.33876 -0.737549 0
M  V30 269 H 20.1214 0.688874 -0.261957 0
M  V30 270 H 22.7634 1.41154 -1.27183 0
M  V30 271 H 20.9134 3.82335 -0.689342 0
M  V30 272 H 22.5854 3.28145 -3.2422 0
M  V30 273 H 20.8284 3.03665 -3.0979 0
M  V30 274 H 21.4994 4.66396 -2.95261 0
M  V30 275 H 23.9754 4.00081 -1.14344 0
M  V30 276 H 22.8514 5.38242 -1.0764 0
M  V30 277 H 23.1124 4.40628 0.360436 0
M  V30 278 N 22.1715 0.800033 1.35784 0
M  V30 279 C 23.3965 0.388511 2.03729 0
M  V30 280 C 23.8215 -0.990481 1.5991 0
M  V30 281 O 23.1795 -1.64013 0.772612 0
M  V30 282 C 23.2275 0.4726 3.5749 0
M  V30 283 O 22.3315 -0.51646 4.09153 0
M  V30 284 H 21.6725 0.163271 0.643614 0
M  V30 285 H 24.2025 1.0841 1.73518 0
M  V30 286 H 24.2125 0.34003 4.06581 0
M  V30 287 H 22.8875 1.47848 3.88734 0
M  V30 288 H 21.4645 -0.344673 3.71304 0
M  V30 289 N 23.6496 -1.47581 0.552962 0
M  V30 290 C 24.8986 -2.01684 0.0251995 0
M  V30 291 C 25.2116 -1.43317 -1.33115 0
M  V30 292 O 26.4176 -1.89057 -1.94858 0
M  V30 293 C 24.8736 -3.599 -0.00542052 0
M  V30 294 C 24.4816 -4.27257 1.34742 0
M  V30 295 C 26.2256 -4.21768 -0.4808 0
M  V30 296 C 24.1326 -5.77467 1.27614 0
M  V30 297 H 23.0626 -0.753979 0.00565033 0
M  V30 298 H 25.7136 -1.69616 0.70018 0
M  V30 299 H 24.0956 -3.88911 -0.745961 0
M  V30 300 H 25.2696 -4.09893 2.10534 0
M  V30 301 H 23.5846 -3.77358 1.76039 0
M  V30 302 H 26.1816 -5.31838 -0.55246 0
M  V30 303 H 26.5246 -3.88651 -1.49184 0
M  V30 304 H 27.0576 -3.97273 0.204752 0
M  V30 305 H 23.7966 -6.15196 2.26304 0
M  V30 306 H 23.3166 -5.9718 0.55996 0
M  V30 307 H 24.9956 -6.3959 0.976421 0
M  V30 308 N 25.1277 -0.289203 -1.54924 0
M  V30 309 C 26.0907 0.579144 -2.21762 0
M  V30 310 C 27.0907 1.07047 -1.1999 0
M  V30 311 O 28.2807 0.968384 -1.44803 0
M  V30 312 C 25.4127 1.80055 -2.8947 0
M  V30 313 H 26.6057 -0.00464908 -2.999 0
M  V30 314 H 24.1587 -0.0399306 -1.56249 0
M  V30 315 H 24.8937 2.42449 -2.15381 0
M  V30 316 H 24.6787 1.45602 -3.64064 0
M  V30 317 H 26.1687 2.41773 -3.40493 0
M  V30 318 N 26.6058 1.57591 -0.0167156 0
M  V30 319 C 27.8538 1.90906 0.663285 0
M  V30 320 C 28.1748 0.892509 1.73376 0
M  V30 321 O 27.4448 -0.0677623 1.95783 0
M  V30 322 H 26.0248 0.704637 0.247983 0
M  V30 323 H 28.6868 1.94803 -0.0615909 0
M  V30 324 H 27.7828 2.9116 1.12393 0
M  V30 325 N 28.0839 -0.256276 1.55502 0
M  V30 326 C 29.0139 -1.32102 1.92539 0
M  V30 327 C 29.9949 -1.50684 0.789194 0
M  V30 328 O 31.1799 -1.63449 1.04872 0
M  V30 329 C 28.3099 -2.67752 2.21192 0
M  V30 330 C 27.2639 -2.63878 3.36975 0
M  V30 331 C 26.5899 -4.03236 3.51147 0
M  V30 332 C 27.8899 -2.21682 4.72921 0
M  V30 333 H 29.5839 -1.01351 2.81724 0
M  V30 334 H 27.1299 -0.486105 1.35547 0
M  V30 335 H 29.0829 -3.42365 2.45691 0
M  V30 336 H 27.8069 -3.0012 1.28824 0
M  V30 337 H 26.4659 -1.91722 3.12471 0
M  V30 338 H 26.1139 -4.32854 2.56216 0
M  V30 339 H 25.8139 -4.01535 4.29003 0
M  V30 340 H 27.3379 -4.79563 3.77957 0
M  V30 341 H 28.7519 -2.86023 4.96854 0
M  V30 342 H 27.1489 -2.3111 5.53812 0
M  V30 343 H 28.2189 -1.16833 4.70615 0
M  V30 344 N 29.562 -1.4872 -0.521534 0
M  V30 345 C 30.492 -1.66771 -1.63431 0
M  V30 346 C 31.473 -0.516499 -1.62069 0
M  V30 347 O 32.658 -0.750013 -1.79132 0
M  V30 348 C 29.788 -1.71515 -3.01993 0
M  V30 349 C 28.742 -2.86222 -3.18216 0
M  V30 350 C 28.068 -2.76061 -4.57924 0
M  V30 351 C 29.368 -4.27419 -3.00184 0
M  V30 352 H 31.062 -2.59932 -1.48579 0
M  V30 353 H 28.608 -1.25089 -0.713358 0
M  V30 354 H 30.561 -1.82731 -3.7972 0
M  V30 355 H 29.285 -0.749393 -3.17886 0
M  V30 356 H 27.944 -2.74575 -2.42908 0
M  V30 357 H 27.592 -1.77437 -4.70665 0
M  V30 358 H 27.292 -3.53037 -4.69722 0
M  V30 359 H 28.816 -2.89256 -5.37739 0
M  V30 360 H 30.23 -4.39855 -3.67697 0
M  V30 361 H 28.627 -5.05458 -3.2347 0
M  V30 362 H 29.697 -4.43293 -1.96518 0
M  V30 363 N 31.0401 0.771051 -1.3745 0
M  V30 364 C 32.2701 1.55789 -1.35696 0
M  V30 365 C 32.6781 1.89107 0.0594523 0
M  V30 366 O 32.0211 1.51984 1.03183 0
M  V30 367 C 32.0831 2.89515 -2.13123 0
M  V30 368 C 31.7471 2.78829 -3.62082 0
M  V30 369 C 32.7441 2.49812 -4.5595 0
M  V30 370 C 30.4291 2.9683 -4.05213 0
M  V30 371 C 32.4231 2.38923 -5.90927 0
M  V30 372 C 30.1101 2.85562 -5.40276 0
M  V30 373 C 31.1081 2.56649 -6.32946 0
M  V30 374 O 30.7961 2.45408 -7.65526 0
M  V30 375 H 30.5281 0.489257 -0.466481 0
M  V30 376 H 33.0821 0.963446 -1.81403 0
M  V30 377 H 31.3121 3.51081 -1.62107 0
M  V30 378 H 33.0011 3.50915 -2.03994 0
M  V30 379 H 33.7671 2.3559 -4.23937 0
M  V30 380 H 29.6461 3.18335 -3.33442 0
M  V30 381 H 33.1901 2.16277 -6.63227 0
M  V30 382 H 29.0871 2.99351 -5.71891 0
M  V30 383 H 29.8551 2.60753 -7.75855 0
M  V30 384 N 32.5182 1.22032 0.997298 0
M  V30 385 C 33.4812 0.987909 2.06816 0
M  V30 386 C 34.4812 -0.0440084 1.6074 0
M  V30 387 O 35.6712 0.194053 1.73116 0
M  V30 388 C 32.8032 0.49132 3.37341 0
M  V30 389 H 33.9962 1.93803 2.28868 0
M  V30 390 H 31.5492 1.03838 1.16822 0
M  V30 391 H 32.2842 -0.463364 3.20973 0
M  V30 392 H 32.0692 1.23575 3.72118 0
M  V30 393 H 33.5592 0.348824 4.16141 0
M  V30 394 N 33.9963 -1.19345 1.0293 0
M  V30 395 C 34.9263 -2.2481 0.631105 0
M  V30 396 C 35.9073 -1.66245 -0.360104 0
M  V30 397 O 37.0923 -1.92677 -0.242726 0
M  V30 398 C 34.2223 -3.47295 -0.0184607 0
M  V30 399 C 33.1763 -4.18536 0.895073 0
M  V30 400 C 32.5023 -5.34586 0.110592 0
M  V30 401 C 33.8023 -4.73287 2.209 0
M  V30 402 H 35.4963 -2.58372 1.51275 0
M  V30 403 H 33.0423 -1.24194 0.728818 0
M  V30 404 H 34.9953 -4.20268 -0.308675 0
M  V30 405 H 33.7193 -3.12933 -0.934907 0
M  V30 406 H 32.3783 -3.47446 1.16949 0
M  V30 407 H 32.0263 -4.96469 -0.807902 0
M  V30 408 H 31.7263 -5.83183 0.719087 0
M  V30 409 H 33.2503 -6.10355 -0.172871 0
M  V30 410 H 34.6643 -5.38013 1.98028 0
M  V30 411 H 33.0613 -5.32373 2.76946 0
M  V30 412 H 34.1313 -3.91331 2.86336 0
M  V30 413 N 35.4744 -0.807222 -1.35358 0
M  V30 414 C 36.7204 -0.388463 -1.99045 0
M  V30 415 C 37.0534 1.04184 -1.63888 0
M  V30 416 O 36.3284 1.72292 -0.902535 0
M  V30 417 C 36.6114 -0.572783 -3.55515 0
M  V30 418 C 36.4644 -2.04807 -4.00468 0
M  V30 419 C 37.7834 0.00114064 -4.401 0
M  V30 420 H 34.9024 -0.142619 -0.723069 0
M  V30 421 H 37.5444 -1.01687 -1.60498 0
M  V30 422 H 35.6944 -0.0378425 -3.88482 0
M  V30 423 H 37.3664 -2.64544 -3.77908 0
M  V30 424 H 35.6094 -2.54427 -3.51353 0
M  V30 425 H 36.2804 -2.12792 -5.09337 0
M  V30 426 H 38.7564 -0.455716 -4.13597 0
M  V30 427 H 37.6324 -0.157737 -5.48673 0
M  V30 428 H 37.8934 1.09488 -4.28328 0
M  V30 429 N 36.9525 1.47285 -0.560781 0
M  V30 430 C 37.8845 2.28118 0.222438 0
M  V30 431 C 38.8975 1.37219 0.876056 0
M  V30 432 O 40.0865 1.62011 0.749307 0
M  V30 433 C 37.1865 3.1159 1.33285 0
M  V30 434 C 36.3595 4.30473 0.77534 0
M  V30 435 C 35.4185 4.95513 1.77069 0
M  V30 436 O 34.4445 5.53792 1.31539 0
M  V30 437 N 35.6465 4.90531 3.10418 0
M  V30 438 H 38.4115 2.95976 -0.470958 0
M  V30 439 H 35.9725 1.56955 -0.39709 0
M  V30 440 H 37.9645 3.51967 1.99752 0
M  V30 441 H 36.5345 2.45951 1.92943 0
M  V30 442 H 35.7545 3.94144 -0.0662113 0
M  V30 443 H 37.0425 5.07362 0.382272 0
M  V30 444 H 36.4405 4.44389 3.5005 0
M  V30 445 H 34.9975 5.34917 3.72434 0
M  V30 446 N 38.4306 0.297415 1.54768 0
M  V30 447 C 39.3606 -0.573494 2.26348 0
M  V30 448 C 40.3416 -1.14085 1.26169 0
M  V30 449 O 41.5266 -1.17086 1.54934 0
M  V30 450 C 38.6566 -1.74716 3.00153 0
M  V30 451 C 37.6106 -1.31032 4.07449 0
M  V30 452 C 36.9366 -2.56887 4.68949 0
M  V30 453 C 38.2366 -0.444183 5.20408 0
M  V30 454 H 39.9306 0.0235131 2.99391 0
M  V30 455 H 37.4766 0.0127488 1.43994 0
M  V30 456 H 39.4296 -2.3625 3.48947 0
M  V30 457 H 38.1536 -2.37035 2.24682 0
M  V30 458 H 36.8126 -0.718066 3.59499 0
M  V30 459 H 36.4606 -3.17512 3.90122 0
M  V30 460 H 36.1606 -2.2836 5.41411 0
M  V30 461 H 37.6846 -3.19229 5.20505 0
M  V30 462 H 39.0986 -0.9651 5.65118 0
M  V30 463 H 37.4956 -0.252846 5.99567 0
M  V30 464 H 38.5656 0.531609 4.81977 0
M  V30 465 N 39.9087 -1.5758 0.0250728 0
M  V30 466 C 41.1567 -1.91255 -0.653151 0
M  V30 467 C 41.4777 -0.901691 -1.729 0
M  V30 468 O 40.7477 0.0573785 -1.95816 0
M  V30 469 H 39.3277 -0.705942 -0.244243 0
M  V30 470 H 41.9897 -1.94767 0.0719209 0
M  V30 471 H 41.0857 -2.91752 -1.10847 0
M  V30 472 N 41.3868 0.248026 -1.55636 0
M  V30 473 C 42.3188 1.32993 -1.8667 0
M  V30 474 C 43.3318 1.44345 -0.752877 0
M  V30 475 O 44.5208 1.45715 -1.03098 0
M  V30 476 C 41.6208 2.70863 -2.03682 0
M  V30 477 C 40.7938 2.81792 -3.34532 0
M  V30 478 C 39.8528 4.005 -3.41301 0
M  V30 479 O 38.8788 3.9008 -4.14519 0
M  V30 480 N 40.0808 5.13618 -2.70512 0
M  V30 481 H 42.8458 1.06707 -2.8006 0
M  V30 482 H 40.4068 0.438129 -1.55859 0
M  V30 483 H 42.3988 3.48612 -2.05553 0
M  V30 484 H 40.9688 2.89862 -1.17041 0
M  V30 485 H 40.1888 1.90729 -3.44987 0
M  V30 486 H 41.4768 2.86043 -4.20781 0
M  V30 487 H 40.8748 5.24975 -2.10755 0
M  V30 488 H 39.4318 5.89505 -2.78077 0
M  V30 489 N 42.8649 1.48995 0.513639 0
M  V30 490 C 44.2759 1.5119 1.09537 0
M  V30 491 C 44.6269 0.290906 1.94031 0
M  V30 492 O 43.7519 -0.60049 2.07902 0
M  V30 493 C 44.3469 2.73964 1.99322 0
M  V30 494 C 42.9059 2.78978 2.52682 0
M  V30 495 C 42.0529 2.44934 1.30009 0
M  V30 496 H 45.0039 1.55875 0.298125 0
M  V30 497 H 45.0249 2.53409 2.83838 0
M  V30 498 H 44.5369 3.62813 1.37799 0
M  V30 499 H 42.6379 1.94378 3.1788 0
M  V30 500 H 42.7509 3.8083 2.90698 0
M  V30 501 H 41.1149 1.9644 1.62122 0
M  V30 502 H 41.8979 3.36043 0.702131 0
M  V30 503 N 44.343 -0.763751 1.37857 0
M  V30 504 C 45.583 -1.53551 1.34913 0
M  V30 505 C 45.947 -1.91895 -0.0635882 0
M  V30 506 O 47.148 -2.67916 -0.217825 0
M  V30 507 C 45.419 -2.76126 2.26912 0
M  V30 508 S 46.978 -3.66105 2.41893 0
M  V30 509 H 43.796 -0.52559 0.478828 0
M  V30 510 H 46.398 -0.897435 1.73685 0
M  V30 511 H 45.102 -2.4605 3.28463 0
M  V30 512 H 44.633 -3.44887 1.89253 0
M  V30 513 H 46.648 -4.68473 1.63545 0
M  V30 514 N 45.8211 -1.22559 -0.990812 0
M  V30 515 C 47.0981 -0.959875 -1.70428 0
M  V30 516 C 47.4781 0.524455 -2.04481 0
M  V30 517 O 46.8261 1.49302 -1.72977 0
M  V30 518 C 47.0361 -1.85955 -2.95333 0
M  V30 519 C 48.3841 -2.11687 -3.68068 0
M  V30 520 O 49.4081 -1.8342 -3.05345 0
M  V30 521 O 48.2671 -2.59572 -4.80921 0
M  V30 522 H 45.3611 -0.361154 -0.743974 0
M  V30 523 H 47.9071 -1.33554 -1.04697 0
M  V30 524 H 46.6791 -2.86346 -2.66687 0
M  V30 525 H 46.3021 -1.4856 -3.68803 0
M  V30 526 N 47.2992 1.18797 -1.03562 0
M  V30 527 C 48.5392 1.90346 -0.744832 0
M  V30 528 C 48.9032 1.78231 0.713972 0
M  V30 529 O 50.1042 2.44441 1.11813 0
M  V30 530 C 48.3752 3.36942 -1.19184 0
M  V30 531 S 49.9342 4.26638 -1.02593 0
M  V30 532 H 46.7522 0.657343 -0.270963 0
M  V30 533 H 49.3542 1.43579 -1.32685 0
M  V30 534 H 48.0582 3.43287 -2.24905 0
M  V30 535 H 47.5892 3.88745 -0.603397 0
M  V30 536 H 49.6042 4.96164 0.0596033 0
M  V30 537 N 48.7773 0.814389 1.34928 0
M  V30 538 C 49.7073 0.244827 2.32213 0
M  V30 539 C 50.6883 -0.634024 1.57842 0
M  V30 540 O 51.8733 -0.562676 1.8587 0
M  V30 541 C 49.0033 -0.601106 3.42058 0
M  V30 542 C 47.9573 0.179896 4.27622 0
M  V30 543 C 47.2833 -0.788237 5.28858 0
M  V30 544 C 48.5833 1.38329 5.03649 0
M  V30 545 H 50.2773 1.05763 2.80097 0
M  V30 546 H 47.8233 0.510029 1.34665 0
M  V30 547 H 49.7763 -1.00968 4.09125 0
M  V30 548 H 48.5003 -1.44688 2.92802 0
M  V30 549 H 47.1593 0.569739 3.62146 0
M  V30 550 H 46.8073 -1.62973 4.75866 0
M  V30 551 H 46.5073 -0.269942 5.8698 0
M  V30 552 H 48.0313 -1.19485 5.98795 0
M  V30 553 H 49.4453 1.04918 5.63618 0
M  V30 554 H 47.8423 1.83662 5.71304 0
M  V30 555 H 48.9123 2.16592 4.33839 0
M  V30 556 N 50.2554 -1.46986 0.568584 0
M  V30 557 C 51.6664 -1.86188 0.138219 0
M  V30 558 C 52.0174 -1.47388 -1.29504 0
M  V30 559 O 51.1424 -0.88219 -1.97602 0
M  V30 560 C 51.7374 -3.3792 0.244065 0
M  V30 561 C 50.2964 -3.76171 -0.131335 0
M  V30 562 C 49.4434 -2.71027 0.586465 0
M  V30 563 H 52.3944 -1.38342 0.777645 0
M  V30 564 H 52.4154 -3.76729 -0.534351 0
M  V30 565 H 51.9274 -3.66128 1.28731 0
M  V30 566 H 50.0284 -3.5358 -1.17526 0
M  V30 567 H 50.1414 -4.78523 0.235146 0
M  V30 568 H 48.5054 -2.54684 0.0282722 0
M  V30 569 H 49.2884 -3.02077 1.63109 0
M  V30 570 N 51.7335 -0.305618 -1.54608 0
M  V30 571 C 53.1445 0.186098 -1.8577 0
M  V30 572 C 53.4955 1.53058 -1.22751 0
M  V30 573 O 52.6205 2.09888 -0.526893 0
M  V30 574 C 53.2155 0.344449 -3.37044 0
M  V30 575 C 51.7745 0.780384 -3.68221 0
M  V30 576 C 50.9215 -0.108554 -2.77087 0
M  V30 577 H 53.8725 -0.526485 -1.49712 0
M  V30 578 H 53.8935 1.17828 -3.61796 0
M  V30 579 H 53.4055 -0.634235 -3.82883 0
M  V30 580 H 51.5065 1.76945 -3.27904 0
M  V30 581 H 51.6195 0.596572 -4.75371 0
M  V30 582 H 49.9835 0.412931 -2.5133 0
M  V30 583 H 50.7665 -1.08368 -3.25747 0
M  V30 584 N 53.2116 1.57565 -0.0334293 0
M  V30 585 C 54.1416 2.13511 0.945265 0
M  V30 586 C 55.1226 1.05231 1.33643 0
M  V30 587 O 56.3076 1.33084 1.41429 0
M  V30 588 C 53.4376 2.6657 2.22616 0
M  V30 589 C 52.3916 3.79676 1.97561 0
M  V30 590 C 51.7176 4.1918 3.31952 0
M  V30 591 C 53.0176 5.0557 1.31135 0
M  V30 592 H 54.7116 2.95538 0.479325 0
M  V30 593 H 52.2576 1.42166 0.229115 0
M  V30 594 H 54.2106 3.04344 2.91466 0
M  V30 595 H 52.9346 1.8171 2.71384 0
M  V30 596 H 51.5936 3.42347 1.31127 0
M  V30 597 H 51.2416 3.31296 3.78487 0
M  V30 598 H 50.9416 4.95402 3.15992 0
M  V30 599 H 52.4656 4.59541 4.02063 0
M  V30 600 H 53.8796 5.40903 1.89992 0
M  V30 601 H 52.2766 5.86818 1.25559 0
M  V30 602 H 53.3466 4.84062 0.284894 0
M  V30 603 N 54.6897 -0.239769 1.55765 0
M  V30 604 C 56.1057 -0.588624 1.48349 0
M  V30 605 C 56.3057 -1.88005 0.72502 0
M  V30 606 O 55.3617 -2.51186 0.257269 0
M  V30 607 C 56.6747 -0.68474 2.928 0
M  V30 608 C 58.2227 -0.77659 3.03213 0
M  V30 609 C 58.6977 -0.904207 4.48986 0
M  V30 610 N 60.1887 -0.968896 4.52953 0
M  V30 611 C 60.9237 -1.08703 5.63002 0
M  V30 612 N 60.4197 -1.17026 6.82845 0
M  V30 613 N 62.2127 -1.12074 5.50814 0
M  V30 614 H 54.3637 0.607911 2.03515 0
M  V30 615 H 56.6267 0.21083 0.924259 0
M  V30 616 H 56.3327 0.194284 3.51163 0
M  V30 617 H 56.2067 -1.55435 3.43686 0
M  V30 618 H 58.5937 -1.64606 2.44926 0
M  V30 619 H 58.6747 0.118315 2.55526 0
M  V30 620 H 58.3187 -0.0392633 5.07885 0
M  V30 621 H 58.2487 -1.81426 4.9436 0
M  V30 622 H 60.7397 -0.915633 3.6664 0
M  V30 623 H 61.0527 -1.25966 7.62465 0
M  V30 624 H 59.3977 -1.13971 6.85591 0
M  V30 625 H 62.5887 -1.05226 4.5612 0
M  V30 626 H 62.7617 -1.20936 6.36615 0
M  V30 627 N 56.1678 -1.49265 -0.50573 0
M  V30 628 C 57.1308 -1.65075 -1.59006 0
M  V30 629 C 58.1308 -0.522768 -1.52065 0
M  V30 630 O 59.3208 -0.789117 -1.55302 0
M  V30 631 C 56.4528 -1.64369 -2.98656 0
M  V30 632 H 57.6458 -2.61784 -1.46319 0
M  V30 633 H 55.1988 -1.38226 -0.729616 0
M  V30 634 H 55.9338 -0.692272 -3.16825 0
M  V30 635 H 55.7188 -2.46282 -3.05103 0
M  V30 636 H 57.2088 -1.78674 -3.77446 0
M  V30 637 N 57.6459 0.756429 -1.3826 0
M  V30 638 C 58.6089 1.85176 -1.35065 0
M  V30 639 C 59.6089 1.58818 -0.251703 0
M  V30 640 O 60.7989 1.66615 -0.508433 0
M  V30 641 C 57.9309 3.22596 -1.10201 0
M  V30 642 H 59.1239 1.89417 -2.3251 0
M  V30 643 H 56.6769 0.95783 -1.23512 0
M  V30 644 H 57.4119 3.24025 -0.133504 0
M  V30 645 H 57.1969 3.43122 -1.89762 0
M  V30 646 H 58.6869 4.02673 -1.10654 0
M  V30 647 N 59.124 1.23083 0.984299 0
M  V30 648 C 60.087 1.00979 2.05757 0
M  V30 649 C 61.087 -0.0269573 1.60777 0
M  V30 650 O 62.277 0.212403 1.729 0
M  V30 651 C 59.409 0.527072 3.36801 0
M  V30 652 H 60.602 1.9622 2.26799 0
M  V30 653 H 58.155 1.05072 1.15714 0
M  V30 654 H 58.89 -0.429294 3.21446 0
M  V30 655 H 58.675 1.27515 3.70786 0
M  V30 656 H 60.165 0.392942 4.15747 0
M  V30 657 N 60.6021 -1.18246 1.0419 0
M  V30 658 C 61.5121 -2.25574 0.644476 0
M  V30 659 C 62.5281 -1.70845 -0.329826 0
M  V30 660 O 63.7041 -2.00554 -0.184443 0
M  V30 661 C 60.7691 -3.46697 0.014877 0
M  V30 662 C 59.8301 -4.16554 1.03834 0
M  V30 663 C 59.0631 -5.31894 0.438692 0
M  V30 664 O 59.2861 -5.65385 -0.754752 0
M  V30 665 O 58.2201 -5.90459 1.168 0
M  V30 666 H 62.0461 -2.61836 1.53869 0
M  V30 667 H 59.6311 -1.25352 0.812854 0
M  V30 668 H 61.5131 -4.20062 -0.335538 0
M  V30 669 H 60.1881 -3.12255 -0.853138 0
M  V30 670 H 59.0951 -3.45251 1.44057 0
M  V30 671 H 60.4281 -4.54998 1.87716 0
M  V30 672 N 62.0802 -0.821533 -1.34494 0
M  V30 673 C 63.0122 -0.199946 -2.28326 0
M  V30 674 C 64.0252 0.609377 -1.50965 0
M  V30 675 O 65.2142 0.439285 -1.7301 0
M  V30 676 C 62.3142 0.738431 -3.30757 0
M  V30 677 C 61.4872 -0.0277632 -4.37391 0
M  V30 678 C 60.5462 0.831332 -5.19591 0
M  V30 679 O 59.5722 0.276822 -5.68526 0
M  V30 680 N 60.7742 2.15132 -5.39165 0
M  V30 681 H 63.5392 -1.00609 -2.82308 0
M  V30 682 H 61.1002 -0.678366 -1.47003 0
M  V30 683 H 63.0922 1.31773 -3.82646 0
M  V30 684 H 61.6622 1.44533 -2.7718 0
M  V30 685 H 60.8822 -0.788359 -3.86236 0
M  V30 686 H 62.1702 -0.555251 -5.05761 0
M  V30 687 H 61.5682 2.62559 -5.01078 0
M  V30 688 H 60.1252 2.6795 -5.94177 0
M  V30 689 N 63.5583 1.46682 -0.576371 0
M  V30 690 C 64.4883 2.33028 0.148397 0
M  V30 691 C 65.4693 1.44961 0.889956 0
M  V30 692 O 66.6543 1.73789 0.866662 0
M  V30 693 C 63.7843 3.27117 1.1667 0
M  V30 694 C 62.7383 4.24575 0.540386 0
M  V30 695 C 62.0643 5.08126 1.6647 0
M  V30 696 C 63.3643 5.19722 -0.518331 0
M  V30 697 H 65.0583 2.93875 -0.572509 0
M  V30 698 H 62.6043 1.41315 -0.276768 0
M  V30 699 H 64.5573 3.86374 1.68204 0
M  V30 700 H 63.2813 2.64364 1.9178 0
M  V30 701 H 61.9403 3.66571 0.0461769 0
M  V30 702 H 61.5883 4.41762 2.40531 0
M  V30 703 H 61.2883 5.74122 1.25131 0
M  V30 704 H 62.8123 5.70246 2.18293 0
M  V30 705 H 64.2263 5.73232 -0.0883058 0
M  V30 706 H 62.6233 5.94026 -0.851679 0
M  V30 707 H 63.6933 4.64037 -1.40703 0
M  V30 708 N 65.0364 0.313813 1.54444 0
M  V30 709 C 66.4524 -0.0391619 1.59552 0
M  V30 710 C 66.6524 -1.51322 1.33056 0
M  V30 711 O 65.7084 -2.26782 1.11022 0
M  V30 712 C 67.0214 0.370302 2.98411 0
M  V30 713 C 68.5694 0.320139 3.11358 0
M  V30 714 C 69.0444 0.704617 4.52547 0
M  V30 715 N 70.5354 0.657645 4.58508 0
M  V30 716 C 71.2704 0.927453 5.6585 0
M  V30 717 N 70.7664 1.26389 6.81174 0
M  V30 718 N 72.5594 0.853662 5.5558 0
M  V30 719 H 64.7104 1.27433 1.69925 0
M  V30 720 H 66.9734 0.517511 0.794284 0
M  V30 721 H 66.6794 1.39694 3.22767 0
M  V30 722 H 66.5534 -0.269619 3.76235 0
M  V30 723 H 68.9404 -0.697275 2.86744 0
M  V30 724 H 69.0214 0.99486 2.35661 0
M  V30 725 H 68.6654 1.7199 4.77893 0
M  V30 726 H 68.5954 0.00768843 5.26599 0
M  V30 727 H 71.0864 0.409067 3.75679 0
M  V30 728 H 71.3994 1.4554 7.58972 0
M  V30 729 H 69.7444 1.30206 6.82694 0
M  V30 730 H 72.9354 0.590383 4.64362 0
M  V30 731 H 73.1084 1.0673 6.3915 0
M  V30 732 N 66.5145 -1.57545 0.0417849 0
M  V30 733 C 67.4465 -2.07904 -0.964799 0
M  V30 734 C 68.4595 -1.00497 -1.28079 0
M  V30 735 O 69.6485 -1.28087 -1.24322 0
M  V30 736 C 66.7485 -2.49928 -2.28887 0
M  V30 737 C 65.9215 -3.80562 -2.15619 0
M  V30 738 C 64.9805 -4.08999 -3.31069 0
M  V30 739 O 64.0065 -4.79061 -3.0739 0
M  V30 740 N 65.2085 -3.6017 -4.55256 0
M  V30 741 H 67.9735 -2.94886 -0.535029 0
M  V30 742 H 65.5345 -1.61252 -0.144681 0
M  V30 743 H 67.5265 -2.66034 -3.04972 0
M  V30 744 H 66.0965 -1.68245 -2.63463 0
M  V30 745 H 65.3165 -3.74129 -1.24183 0
M  V30 746 H 66.6045 -4.66126 -2.03971 0
M  V30 747 H 66.0025 -3.03512 -4.77386 0
M  V30 748 H 64.5595 -3.81532 -5.28466 0
M  V30 749 N 67.9926 0.231505 -1.5589 0
M  V30 750 C 68.9396 1.28682 -1.91598 0
M  V30 751 C 69.9096 1.47071 -0.771974 0
M  V30 752 O 71.0946 1.60802 -1.027 0
M  V30 753 C 68.2346 2.6342 -2.22944 0
M  V30 754 C 67.3476 2.52912 -3.50228 0
M  V30 755 C 66.4826 3.80106 -3.7107 0
M  V30 756 C 65.5216 3.64279 -4.91902 0
M  V30 757 N 64.6586 4.834 -5.09184 0
M  V30 758 H 69.4986 0.975305 -2.81588 0
M  V30 759 H 67.0356 0.470299 -1.39379 0
M  V30 760 H 68.9936 3.41869 -2.39126 0
M  V30 761 H 67.6236 2.92687 -1.36139 0
M  V30 762 H 66.6756 1.6595 -3.42294 0
M  V30 763 H 67.9876 2.37133 -4.38827 0
M  V30 764 H 67.1416 4.66999 -3.87295 0
M  V30 765 H 65.8806 3.98799 -2.80733 0
M  V30 766 H 64.8856 2.7577 -4.75637 0
M  V30 767 H 66.1106 3.47067 -5.83714 0
M  V30 768 H 64.0566 5.02425 -4.21788 0
M  V30 769 H 63.9736 4.70311 -5.91898 0
M  V30 770 H 65.2416 5.71747 -5.29835 0
M  V30 771 N 69.4707 1.49531 0.497807 0
M  V30 772 C 70.7477 1.49682 1.25915 0
M  V30 773 C 71.1277 0.226339 2.09883 0
M  V30 774 O 70.4757 -0.791189 2.14365 0
M  V30 775 C 70.6857 2.77755 2.11313 0
M  V30 776 C 72.0337 3.27371 2.70395 0
M  V30 777 O 73.0577 2.78894 2.21578 0
M  V30 778 O 71.9167 4.11808 3.59272 0
M  V30 779 H 69.0107 0.599228 0.56996 0
M  V30 780 H 71.5567 1.61798 0.511816 0
M  V30 781 H 70.3287 3.61713 1.49264 0
M  V30 782 H 69.9517 2.68515 2.93233 0
M  V30 783 N 70.9488 -0.749086 1.3866 0
M  V30 784 C 71.8788 -1.8764 1.38973 0
M  V30 785 C 72.8598 -1.68178 0.255004 0
M  V30 786 O 74.0448 -1.88704 0.458754 0
M  V30 787 C 71.1748 -3.25222 1.21851 0
M  V30 788 C 70.1288 -3.59295 2.32575 0
M  V30 789 C 69.4548 -4.95663 2.00555 0
M  V30 790 C 70.7548 -3.63709 3.7485 0
M  V30 791 H 72.4488 -1.87635 2.3331 0
M  V30 792 H 69.9948 -0.901329 1.12303 0
M  V30 793 H 71.9478 -4.03746 1.20695 0
M  V30 794 H 70.6718 -3.25719 0.239775 0
M  V30 795 H 69.3308 -2.83093 2.32925 0
M  V30 796 H 68.9788 -4.92724 1.01154 0
M  V30 797 H 68.6788 -5.19429 2.74714 0
M  V30 798 H 70.2028 -5.7656 2.01024 0
M  V30 799 H 71.6168 -4.32338 3.76506 0
M  V30 800 H 70.0138 -3.98986 4.48252 0
M  V30 801 H 71.0838 -2.63834 4.06841 0
M  V30 802 N 72.4269 -1.23603 -0.977757 0
M  V30 803 C 73.8429 -0.999251 -1.24447 0
M  V30 804 C 74.0429 0.298053 -1.99283 0
M  V30 805 O 73.0989 1.01681 -2.31122 0
M  V30 806 C 74.4119 -2.20784 -2.04144 0
M  V30 807 C 75.9599 -2.25303 -2.17273 0
M  V30 808 C 76.4349 -3.45755 -3.00362 0
M  V30 809 N 77.9259 -3.4601 -3.07947 0
M  V30 810 C 78.6609 -4.35868 -3.72568 0
M  V30 811 N 78.1569 -5.35966 -4.38991 0
M  V30 812 N 79.9499 -4.23605 -3.6948 0
M  V30 813 H 72.1009 -2.06986 -0.476483 0
M  V30 814 H 74.3639 -0.907801 -0.273134 0
M  V30 815 H 74.0699 -3.14945 -1.56533 0
M  V30 816 H 73.9439 -2.22085 -3.04891 0
M  V30 817 H 76.3309 -1.3168 -2.64092 0
M  V30 818 H 76.4119 -2.28033 -1.15907 0
M  V30 819 H 76.0559 -4.39687 -2.5424 0
M  V30 820 H 75.9859 -3.40266 -4.01904 0
M  V30 821 H 78.4769 -2.73588 -2.60688 0
M  V30 822 H 78.7899 -6.00783 -4.86086 0
M  V30 823 H 77.1349 -5.39863 -4.37691 0
M  V30 824 H 80.3259 -3.44647 -3.16759 0
M  V30 825 H 80.4989 -4.93836 -4.1956 0
M  V30 826 N 73.905 1.17692 -1.04816 0
M  V30 827 C 75.154 1.87192 -0.751132 0
M  V30 828 C 75.467 1.8169 0.724441 0
M  V30 829 O 76.673 2.46625 1.13527 0
M  V30 830 C 75.129 3.35857 -1.29338 0
M  V30 831 C 74.737 3.4987 -2.79812 0
M  V30 832 C 76.481 4.10709 -1.07322 0
M  V30 833 C 74.388 4.92536 -3.27356 0
M  V30 834 H 73.318 0.701162 -0.277288 0
M  V30 835 H 75.969 1.32932 -1.26496 0
M  V30 836 H 74.351 3.89631 -0.707376 0
M  V30 837 H 75.525 3.06332 -3.44235 0
M  V30 838 H 73.84 2.88433 -3.00325 0
M  V30 839 H 76.437 5.15952 -1.4035 0
M  V30 840 H 76.78 4.16299 -0.0108001 0
M  V30 841 H 77.313 3.6313 -1.62423 0
M  V30 842 H 74.052 4.92119 -4.33012 0
M  V30 843 H 73.572 5.3676 -2.67673 0
M  V30 844 H 75.251 5.61288 -3.21815 0
M  V30 845 N 75.3831 0.828654 1.34056 0
M  V30 846 C 76.6081 0.431637 2.02859 0
M  V30 847 C 77.0331 -0.956339 1.61975 0
M  V30 848 O 76.3911 -1.62338 0.807228 0
M  V30 849 C 76.4391 0.548323 3.56407 0
M  V30 850 O 75.5431 -0.429556 4.10157 0
M  V30 851 H 74.8841 0.176886 0.640006 0
M  V30 852 H 77.4141 1.12066 1.71179 0
M  V30 853 H 77.4241 0.426196 4.05768 0
M  V30 854 H 76.0991 1.5606 3.8551 0
M  V30 855 H 74.6761 -0.265836 3.71951 0
M  V30 856 N 76.8612 -1.46375 0.584142 0
M  V30 857 C 77.7932 -2.28443 -0.186119 0
M  V30 858 C 78.8062 -1.38596 -0.854115 0
M  V30 859 O 79.9952 -1.63183 -0.723438 0
M  V30 860 C 77.0952 -3.13671 -1.28311 0
M  V30 861 C 76.2682 -4.31652 -0.706758 0
M  V30 862 C 75.3272 -4.98267 -1.69163 0
M  V30 863 O 74.3532 -5.55815 -1.22712 0
M  V30 864 N 75.5552 -4.95408 -3.02575 0
M  V30 865 H 78.3202 -2.9519 0.517986 0
M  V30 866 H 75.8812 -1.56303 0.42201 0
M  V30 867 H 77.8732 -3.55101 -1.94128 0
M  V30 868 H 76.4432 -2.48989 -1.89005 0
M  V30 869 H 75.6632 -3.93989 0.128908 0
M  V30 870 H 76.9512 -5.07906 -0.301506 0
M  V30 871 H 76.3492 -4.49902 -3.42936 0
M  V30 872 H 74.9062 -5.40774 -3.63877 0
M  V30 873 N 78.3393 -0.321999 -1.54275 0
M  V30 874 C 79.2693 0.537411 -2.27231 0
M  V30 875 C 80.2503 1.12064 -1.27968 0
M  V30 876 O 81.4353 1.14606 -1.56777 0
M  V30 877 C 78.5653 1.69919 -3.02894 0
M  V30 878 C 77.5193 1.24534 -4.09482 0
M  V30 879 C 76.8453 2.49394 -4.72977 0
M  V30 880 C 78.1453 0.361335 -5.21049 0
M  V30 881 H 79.8393 -0.0711406 -2.99315 0
M  V30 882 H 77.3853 -0.0356555 -1.43956 0
M  V30 883 H 79.3383 2.30668 -3.52662 0
M  V30 884 H 78.0623 2.33431 -2.28424 0
M  V30 885 H 76.7213 0.660782 -3.60596 0
M  V30 886 H 76.3693 3.11265 -3.95124 0
M  V30 887 H 76.0693 2.19718 -5.44975 0
M  V30 888 H 77.5933 3.10908 -5.25517 0
M  V30 889 H 79.0073 0.875072 -5.66582 0
M  V30 890 H 77.4043 0.157428 -5.99893 0
M  V30 891 H 78.4743 -0.60822 -4.8107 0
M  V30 892 N 79.8174 1.5752 -0.0501392 0
M  V30 893 C 80.7494 2.08413 0.95376 0
M  V30 894 C 81.7624 1.01175 1.27544 0
M  V30 895 O 82.9514 1.28744 1.23641 0
M  V30 896 C 80.0514 2.51138 2.27559 0
M  V30 897 C 79.2244 3.817 2.13598 0
M  V30 898 C 78.2834 4.10749 3.28895 0
M  V30 899 O 77.3094 4.80685 3.04845 0
M  V30 900 N 78.5114 3.62579 4.5334 0
M  V30 901 H 81.2764 2.95165 0.519383 0
M  V30 902 H 78.8374 1.61327 0.136127 0
M  V30 903 H 80.8294 2.67648 3.03557 0
M  V30 904 H 79.3994 1.6964 2.62567 0
M  V30 905 H 78.6194 3.74782 1.22197 0
M  V30 906 H 79.9074 4.67201 2.01496 0
M  V30 907 H 79.3054 3.06039 4.75769 0
M  V30 908 H 77.8624 3.84329 5.26436 0
M  V30 909 N 81.2955 -0.223234 1.56011 0
M  V30 910 C 82.2585 -1.26014 1.9145 0
M  V30 911 C 83.2585 -1.3989 0.792937 0
M  V30 912 O 84.4485 -1.38184 1.0607 0
M  V30 913 C 81.5805 -2.63422 2.16383 0
M  V30 914 H 82.7735 -0.95796 2.84189 0
M  V30 915 H 80.3265 -0.463576 1.49267 0
M  V30 916 H 81.0615 -2.98741 1.2619 0
M  V30 917 H 80.8465 -2.54728 2.98088 0
M  V30 918 H 82.3365 -3.38249 2.44903 0
M  V30 919 N 82.7736 -1.49793 -0.48987 0
M  V30 920 C 83.6836 -1.70036 -1.61632 0
M  V30 921 C 84.6996 -0.583102 -1.63939 0
M  V30 922 O 85.8756 -0.859169 -1.82154 0
M  V30 923 C 82.9406 -1.77277 -2.97949 0
M  V30 924 C 82.0016 -3.00918 -3.06181 0
M  V30 925 C 81.2346 -3.07804 -4.35996 0
M  V30 926 O 81.4576 -2.21982 -5.25433 0
M  V30 927 O 80.3916 -4.00369 -4.49431 0
M  V30 928 H 84.2176 -2.65486 -1.47482 0
M  V30 929 H 81.8026 -1.33666 -0.667362 0
M  V30 930 H 83.6846 -1.84329 -3.78947 0
M  V30 931 H 82.3596 -0.850076 -3.12339 0
M  V30 932 H 81.2666 -2.99377 -2.2433 0
M  V30 933 H 82.5996 -3.92704 -2.96723 0
M  V30 934 N 84.2517 0.741722 -1.39055 0
M  V30 935 C 85.1817 1.869 -1.39966 0
M  V30 936 C 86.1627 1.6804 -0.26392 0
M  V30 937 O 87.3477 1.88458 -0.468755 0
M  V30 938 C 84.4777 3.24572 -1.23574 0
M  V30 939 C 83.4317 3.58056 -2.34477 0
M  V30 940 C 82.7577 4.94593 -2.0318 0
M  V30 941 C 84.0577 3.61716 -3.76774 0
M  V30 942 H 85.7517 1.86395 -2.34302 0
M  V30 943 H 83.2977 0.895361 -1.1278 0
M  V30 944 H 85.2507 4.031 -1.22834 0
M  V30 945 H 83.9747 3.25587 -0.257045 0
M  V30 946 H 82.6337 2.81854 -2.34423 0
M  V30 947 H 82.2817 4.92181 -1.03765 0
M  V30 948 H 81.9817 5.17964 -2.77465 0
M  V30 949 H 83.5057 5.75486 -2.04079 0
M  V30 950 H 84.9197 4.30335 -3.78794 0
M  V30 951 H 83.3167 3.96603 -4.50362 0
M  V30 952 H 84.3867 2.61672 -4.08235 0
M  V30 953 N 85.7298 1.2412 0.971189 0
M  V30 954 C 87.1458 1.00584 1.23916 0
M  V30 955 C 87.3458 -0.287481 1.99439 0
M  V30 956 O 86.4018 -1.00454 2.31658 0
M  V30 957 C 87.7148 2.21864 2.0297 0
M  V30 958 C 89.2628 2.26452 2.16076 0
M  V30 959 C 89.7378 3.47343 2.98524 0
M  V30 960 N 91.2288 3.47639 3.06107 0
M  V30 961 C 91.9638 4.37837 3.70251 0
M  V30 962 N 91.4598 5.38286 4.36142 0
M  V30 963 N 93.2528 4.25558 3.67228 0
M  V30 964 H 85.4038 2.07236 0.465499 0
M  V30 965 H 87.6668 0.909236 0.268315 0
M  V30 966 H 87.3728 3.15771 1.54861 0
M  V30 967 H 87.2468 2.23698 3.03709 0
M  V30 968 H 89.6338 1.33078 2.6339 0
M  V30 969 H 89.7148 2.28645 1.14696 0
M  V30 970 H 89.3588 4.41029 2.51905 0
M  V30 971 H 89.2888 3.42393 4.00093 0
M  V30 972 H 91.7798 2.74966 2.59233 0
M  V30 973 H 92.0928 6.03352 4.82894 0
M  V30 974 H 90.4378 5.42176 4.34822 0
M  V30 975 H 93.6288 3.46322 3.14927 0
M  V30 976 H 93.8018 4.96054 4.16935 0
M  V30 977 N 87.2079 -1.17134 1.05439 0
M  V30 978 C 88.6239 -1.39454 0.776201 0
M  V30 979 C 88.8239 -1.91454 -0.628307 0
M  V30 980 O 87.8799 -2.10777 -1.39031 0
M  V30 981 C 89.1929 -2.38305 1.83388 0
M  V30 982 C 90.7409 -2.52006 1.85639 0
M  V30 983 C 91.2159 -3.54133 2.90437 0
M  V30 984 N 92.7069 -3.61653 2.89415 0
M  V30 985 C 93.4419 -4.4044 3.67152 0
M  V30 986 N 92.9379 -5.22721 4.54681 0
M  V30 987 N 94.7309 -4.35337 3.55581 0
M  V30 988 H 86.8819 -0.817134 1.96053 0
M  V30 989 H 89.1449 -0.421626 0.849079 0
M  V30 990 H 88.8509 -2.07173 2.84204 0
M  V30 991 H 88.7249 -3.37841 1.67761 0
M  V30 992 H 91.1119 -2.82447 0.85486 0
M  V30 993 H 91.1929 -1.52537 2.05344 0
M  V30 994 H 90.8369 -3.24431 3.90777 0
M  V30 995 H 90.7669 -4.53313 2.67983 0
M  V30 996 H 93.2579 -3.02909 2.25952 0
M  V30 997 H 93.5709 -5.80027 5.10674 0
M  V30 998 H 91.9159 -5.22093 4.58741 0
M  V30 999 H 95.1069 -3.70112 2.86592 0
M  V30 1000 H 95.2799 -4.96494 4.1641 0
M  V30 1001 N 88.686 -0.835752 -1.33615 0
M  V30 1002 C 90.097 -0.487099 -1.80234 0
M  V30 1003 C 90.448 0.993627 -1.69179 0
M  V30 1004 O 89.573 1.77403 -1.23924 0
M  V30 1005 C 90.168 -0.877385 -3.27242 0
M  V30 1006 C 88.727 -0.580915 -3.7189 0
M  V30 1007 C 87.874 -1.0874 -2.5509 0
M  V30 1008 H 90.825 -1.02474 -1.2118 0
M  V30 1009 H 90.846 -0.186195 -3.80044 0
M  V30 1010 H 90.358 -1.95512 -3.35256 0
M  V30 1011 H 88.459 0.486881 -3.69405 0
M  V30 1012 H 88.572 -1.13396 -4.65487 0
M  V30 1013 H 86.936 -0.508392 -2.49575 0
M  V30 1014 H 87.719 -2.17184 -2.65868 0
M  V30 1015 N 90.1641 1.46063 -0.591896 0
M  V30 1016 C 91.5751 1.85944 -0.167822 0
M  V30 1017 C 91.9261 1.49429 1.27143 0
M  V30 1018 O 91.0511 0.913515 1.96173 0
M  V30 1019 C 91.6461 3.37489 -0.297794 0
M  V30 1020 C 90.2051 3.76332 0.0714732 0
M  V30 1021 C 89.3521 2.7006 -0.629509 0
M  V30 1022 H 92.3031 1.37087 -0.799555 0
M  V30 1023 H 92.3241 3.77532 0.474349 0
M  V30 1024 H 91.8361 3.64034 -1.3454 0
M  V30 1025 H 89.9371 3.55405 1.11886 0
M  V30 1026 H 90.0501 4.78088 -0.311245 0
M  V30 1027 H 88.4141 2.54607 -0.0687867 0
M  V30 1028 H 89.1971 2.99444 -1.67894 0
M  V30 1029 N 91.6422 0.330177 1.54103 0
M  V30 1030 C 93.0532 -0.15652 1.86043 0
M  V30 1031 C 93.4042 -1.51086 1.2517 0
M  V30 1032 O 92.5292 -2.09023 0.560217 0
M  V30 1033 C 93.1242 -0.290784 3.3755 0
M  V30 1034 C 91.6832 -0.721705 3.69416 0
M  V30 1035 C 90.8302 0.152622 2.7688 0
M  V30 1036 H 93.7812 0.550237 1.48856 0
M  V30 1037 H 93.8022 -1.12058 3.63625 0
M  V30 1038 H 93.3142 0.695068 3.81825 0
M  V30 1039 H 91.4152 -1.71706 3.30678 0
M  V30 1040 H 91.5282 -0.520869 4.7626 0
M  V30 1041 H 89.8922 -0.372894 2.51956 0
M  V30 1042 H 90.6752 1.13536 3.23982 0
M  V30 1043 N 93.1203 -1.57491 0.0584922 0
M  V30 1044 C 94.0833 -2.1085 -0.898617 0
M  V30 1045 C 95.0833 -1.02964 -1.23511 0
M  V30 1046 O 96.2733 -1.29007 -1.17059 0
M  V30 1047 C 93.4053 -2.59881 -2.20623 0
M  V30 1048 H 94.5983 -2.96715 -0.435936 0
M  V30 1049 H 92.1513 -1.55141 -0.190023 0
M  V30 1050 H 92.8863 -1.77431 -2.71457 0
M  V30 1051 H 92.6713 -3.38727 -1.97501 0
M  V30 1052 H 94.1613 -3.01285 -2.89166 0
M  V30 1053 N 94.5984 0.214957 -1.56127 0
M  V30 1054 C 96.0094 0.781386 -1.69562 0
M  V30 1055 C 96.3604 1.84707 -0.66165 0
M  V30 1056 O 95.4854 2.156 0.185927 0
M  V30 1057 C 96.0804 1.42411 -3.07416 0
M  V30 1058 C 94.6394 1.93786 -3.22683 0
M  V30 1059 C 93.7864 0.800438 -2.65496 0
M  V30 1060 H 96.7374 -0.00980633 -1.58697 0
M  V30 1061 H 96.7584 2.29309 -3.0364 0
M  V30 1062 H 96.2704 0.64826 -3.82648 0
M  V30 1063 H 94.3714 2.74152 -2.52332 0
M  V30 1064 H 94.4844 2.1133 -4.29973 0
M  V30 1065 H 92.8484 1.2095 -2.2415 0
M  V30 1066 H 93.6314 0.0371471 -3.4328 0
M  V30 1067 N 96.0765 1.50051 0.48192 0
M  V30 1068 C 97.0395 1.67584 1.5636 0
M  V30 1069 C 98.0395 0.546894 1.51214 0
M  V30 1070 O 99.2295 0.813725 1.54026 0
M  V30 1071 C 96.3615 1.691 2.96003 0
M  V30 1072 H 97.5545 2.64078 1.42136 0
M  V30 1073 H 95.1075 1.39369 0.707533 0
M  V30 1074 H 95.8425 0.742589 3.15684 0
M  V30 1075 H 95.6275 2.51105 3.01146 0
M  V30 1076 H 97.1175 1.84656 3.74556 0
M  V30 1077 N 97.5546 -0.734337 1.39446 0
M  V30 1078 C 98.4866 -1.85861 1.34121 0
M  V30 1079 C 99.4996 -1.60871 0.249864 0
M  V30 1080 O 100.689 -1.71093 0.508865 0
M  V30 1081 C 97.7886 -3.21899 1.05991 0
M  V30 1082 C 96.9616 -3.74239 2.26415 0
M  V30 1083 C 96.0206 -4.88841 1.94733 0
M  V30 1084 O 95.0466 -5.02468 2.67422 0
M  V30 1085 N 96.2486 -5.73261 0.913884 0
M  V30 1086 H 99.0136 -1.90934 2.31007 0
M  V30 1087 H 96.5746 -0.915102 1.33557 0
M  V30 1088 H 98.5666 -3.96136 0.828147 0
M  V30 1089 H 97.1366 -3.12091 0.178361 0
M  V30 1090 H 96.3566 -2.91347 2.65539 0
M  V30 1091 H 97.6446 -4.05942 3.06738 0
M  V30 1092 H 97.0426 -5.64842 0.311476 0
M  V30 1093 H 95.5996 -6.47563 0.742015 0
M  V30 1094 N 99.0327 -1.24633 -0.964593 0
M  V30 1095 C 100.444 -1.08045 -1.5226 0
M  V30 1096 C 100.795 0.347116 -1.93105 0
M  V30 1097 O 99.9197 1.23588 -1.77637 0
M  V30 1098 C 100.515 -1.95514 -2.76695 0
M  V30 1099 C 99.0737 -1.8314 -3.28841 0
M  V30 1100 C 98.2207 -1.90262 -2.01732 0
M  V30 1101 H 101.172 -1.38064 -0.782553 0
M  V30 1102 H 101.193 -1.48925 -3.50145 0
M  V30 1103 H 100.705 -2.99407 -2.46936 0
M  V30 1104 H 98.8057 -0.82092 -3.63444 0
M  V30 1105 H 98.9187 -2.67406 -3.97531 0
M  V30 1106 H 97.2827 -1.34027 -2.16584 0
M  V30 1107 H 98.0657 -2.9574 -1.74334 0
M  V30 1108 N 100.511 1.16574 -1.06058 0
M  V30 1109 C 101.922 1.68662 -0.800632 0
M  V30 1110 C 102.273 1.84184 0.67608 0
M  V30 1111 O 101.398 1.53568 1.52466 0
M  V30 1112 C 101.993 3.06356 -1.44676 0
M  V30 1113 C 100.552 3.55575 -1.23465 0
M  V30 1114 C 99.6988 2.31616 -1.52477 0
M  V30 1115 H 102.65 1.00969 -1.22438 0
M  V30 1116 H 102.671 3.70636 -0.860788 0
M  V30 1117 H 102.183 2.95027 -2.52152 0
M  V30 1118 H 100.284 3.72167 -0.179527 0
M  V30 1119 H 100.397 4.37812 -1.94571 0
M  V30 1120 H 98.7608 2.36512 -0.945209 0
M  V30 1121 H 99.5438 2.22887 -2.61106 0
M  V30 1122 N 101.989 0.842826 1.3317 0
M  V30 1123 C 102.899 0.281444 2.32906 0
M  V30 1124 C 103.915 -0.594587 1.63526 0
M  V30 1125 O 105.091 -0.49777 1.95152 0
M  V30 1126 C 102.156 -0.530929 3.42611 0
M  V30 1127 C 101.217 0.369843 4.27704 0
M  V30 1128 C 100.45 -0.403853 5.3217 0
M  V30 1129 O 100.673 -1.63513 5.46461 0
M  V30 1130 O 99.6069 0.224199 6.01482 0
M  V30 1131 H 103.433 1.10744 2.82789 0
M  V30 1132 H 101.018 0.60545 1.36582 0
M  V30 1133 H 102.9 -0.992437 4.09547 0
M  V30 1134 H 101.575 -1.33392 2.94938 0
M  V30 1135 H 100.482 0.879275 3.6362 0
M  V30 1136 H 101.815 1.13771 4.78871 0
M  V30 1137 N 103.467 -1.45747 0.599634 0
M  V30 1138 C 104.878 -1.85853 0.177681 0
M  V30 1139 C 105.229 -1.50102 -1.26348 0
M  V30 1140 O 104.354 -0.923905 -1.95686 0
M  V30 1141 C 104.949 -3.37326 0.315688 0
M  V30 1142 C 103.508 -3.76365 -0.0515144 0
M  V30 1143 C 102.655 -2.69722 0.643822 0
M  V30 1144 H 105.606 -1.36661 0.806814 0
M  V30 1145 H 105.627 -3.77778 -0.454321 0
M  V30 1146 H 105.139 -3.63315 1.36468 0
M  V30 1147 H 103.24 -3.55993 -1.09999 0
M  V30 1148 H 103.353 -4.77916 0.336594 0
M  V30 1149 H 101.717 -2.54567 0.0822881 0
M  V30 1150 H 102.5 -2.98549 1.6948 0
M  V30 1151 N 104.945 -0.338344 -1.53925 0
M  V30 1152 C 105.855 0.529421 -2.28548 0
M  V30 1153 C 106.871 1.11645 -1.3346 0
M  V30 1154 O 108.047 1.13325 -1.66492 0
M  V30 1155 C 105.112 1.66713 -3.03987 0
M  V30 1156 C 104.173 1.11041 -4.14691 0
M  V30 1157 C 103.406 2.19389 -4.86522 0
M  V30 1158 O 103.629 3.40013 -4.57982 0
M  V30 1159 O 102.563 1.83976 -5.73094 0
M  V30 1160 H 106.389 -0.0770399 -3.03602 0
M  V30 1161 H 103.974 -0.103555 -1.49041 0
M  V30 1162 H 105.856 2.32918 -3.5118 0
M  V30 1163 H 104.531 2.25949 -2.31794 0
M  V30 1164 H 103.438 0.413024 -3.71813 0
M  V30 1165 H 104.771 0.562975 -4.8897 0
M  V30 1166 N 106.423 1.57458 -0.0668435 0
M  V30 1167 C 107.386 2.11323 0.887422 0
M  V30 1168 C 108.386 1.03618 1.22964 0
M  V30 1169 O 109.576 1.29626 1.16373 0
M  V30 1170 C 106.708 2.61048 2.19242 0
M  V30 1171 H 107.901 2.96942 0.420194 0
M  V30 1172 H 105.454 1.55239 0.181793 0
M  V30 1173 H 106.189 1.78868 2.70512 0
M  V30 1174 H 105.974 3.39769 1.95702 0
M  V30 1175 H 107.464 3.02814 2.87565 0
M  V30 1176 N 107.901 -0.206675 1.56239 0
M  V30 1177 C 108.831 -1.25909 1.96645 0
M  V30 1178 C 109.812 -1.48097 0.836734 0
M  V30 1179 O 110.997 -1.6003 1.10019 0
M  V30 1180 C 108.127 -2.6058 2.29599 0
M  V30 1181 C 107.081 -2.53024 3.452 0
M  V30 1182 C 106.407 -3.91861 3.63798 0
M  V30 1183 C 107.707 -2.06524 4.79734 0
M  V30 1184 H 109.401 -0.923369 2.84806 0
M  V30 1185 H 106.947 -0.442735 1.37025 0
M  V30 1186 H 108.9 -3.34375 2.56459 0
M  V30 1187 H 107.624 -2.95869 1.38307 0
M  V30 1188 H 106.283 -1.81684 3.18412 0
M  V30 1189 H 105.931 -4.24483 2.69857 0
M  V30 1190 H 105.631 -3.87683 4.4156 0
M  V30 1191 H 107.155 -4.67296 3.93022 0
M  V30 1192 H 108.569 -2.70072 5.05702 0
M  V30 1193 H 106.966 -2.13374 5.60885 0
M  V30 1194 H 108.036 -1.01802 4.74093 0
M  V30 1195 N 109.379 -1.50304 -0.473955 0
M  V30 1196 C 110.79 -1.54042 -1.0549 0
M  V30 1197 C 111.141 -0.342248 -1.93192 0
M  V30 1198 O 110.266 0.545157 -2.09421 0
M  V30 1199 C 110.861 -2.79152 -1.91989 0
M  V30 1200 C 109.42 -2.8558 -2.45196 0
M  V30 1201 C 108.567 -2.48295 -1.2347 0
M  V30 1202 H 111.518 -1.5661 -0.256693 0
M  V30 1203 H 111.539 -2.60845 -2.7702 0
M  V30 1204 H 111.051 -3.66339 -1.28131 0
M  V30 1205 H 109.152 -2.02738 -3.12615 0
M  V30 1206 H 109.265 -3.88403 -2.80499 0
M  V30 1207 H 107.629 -2.00669 -1.56856 0
M  V30 1208 H 108.412 -3.37787 -0.612789 0
M  V30 1209 N 110.857 0.726932 -1.39834 0
M  V30 1210 C 112.085 1.51613 -1.40787 0
M  V30 1211 C 112.5 1.88799 -0.00451505 0
M  V30 1212 O 111.857 1.54662 0.968809 0
M  V30 1213 C 111.908 2.79863 -2.28821 0
M  V30 1214 O 111.629 2.44253 -3.63692 0
M  V30 1215 C 113.13 3.73837 -2.38245 0
M  V30 1216 H 110.35 0.468264 -0.480593 0
M  V30 1217 H 112.894 0.897607 -1.83748 0
M  V30 1218 H 111.049 3.38027 -1.89252 0
M  V30 1219 H 111.463 3.26695 -4.1033 0
M  V30 1220 H 112.937 4.60699 -3.04073 0
M  V30 1221 H 113.414 4.16153 -1.40403 0
M  V30 1222 H 114.02 3.21589 -2.78317 0
M  V30 1223 N 112.336 1.25143 0.95797 0
M  V30 1224 C 113.585 1.0909 1.69654 0
M  V30 1225 C 113.898 -0.368548 1.92097 0
M  V30 1226 O 115.104 -0.649455 2.63618 0
M  V30 1227 C 113.56 1.90395 3.05414 0
M  V30 1228 C 113.168 3.4081 2.90779 0
M  V30 1229 C 114.912 1.82901 3.83076 0
M  V30 1230 C 112.819 4.14423 4.21909 0
M  V30 1231 H 111.749 0.404625 0.636235 0
M  V30 1232 H 114.4 1.4931 1.06672 0
M  V30 1233 H 112.782 1.42996 3.69281 0
M  V30 1234 H 113.956 3.95859 2.35865 0
M  V30 1235 H 112.271 3.49361 2.26575 0
M  V30 1236 H 114.868 2.35196 4.80195 0
M  V30 1237 H 115.211 0.796224 4.08615 0
M  V30 1238 H 115.744 2.28033 3.25954 0
M  V30 1239 H 112.483 5.18102 4.01561 0
M  V30 1240 H 112.003 3.64159 4.76601 0
M  V30 1241 H 113.682 4.21956 4.90471 0
M  V30 1242 N 113.814 -1.1601 1.06675 0
M  V30 1243 C 115.044 -1.90251 0.805497 0
M  V30 1244 C 115.452 -1.77891 -0.64431 0
M  V30 1245 O 114.795 -1.12383 -1.45313 0
M  V30 1246 C 114.857 -3.41419 1.12576 0
M  V30 1247 C 114.521 -3.77564 2.57477 0
M  V30 1248 C 115.518 -3.79161 3.55715 0
M  V30 1249 C 113.203 -4.08079 2.92877 0
M  V30 1250 C 115.197 -4.10767 4.8739 0
M  V30 1251 C 112.884 -4.39351 4.24751 0
M  V30 1252 C 113.882 -4.40675 5.21818 0
M  V30 1253 O 113.57 -4.71202 6.51325 0
M  V30 1254 H 113.302 -0.610018 0.291297 0
M  V30 1255 H 115.856 -1.47958 1.4247 0
M  V30 1256 H 114.086 -3.84079 0.449503 0
M  V30 1257 H 115.775 -3.9694 0.84814 0
M  V30 1258 H 116.541 -3.55693 3.29708 0
M  V30 1259 H 112.42 -4.06211 2.17976 0
M  V30 1260 H 115.964 -4.11715 5.63148 0
M  V30 1261 H 111.861 -4.62285 4.50514 0
M  V30 1262 H 112.629 -4.88996 6.56373 0
M  V30 1263 N 115.292 -0.849877 -1.32721 0
M  V30 1264 C 116.538 -0.451591 -1.97708 0
M  V30 1265 C 116.871 0.989175 -1.6712 0
M  V30 1266 O 116.146 1.69334 -0.956891 0
M  V30 1267 C 116.429 -0.685598 -3.53513 0
M  V30 1268 C 116.282 -2.17444 -3.93749 0
M  V30 1269 C 117.601 -0.138874 -4.39881 0
M  V30 1270 H 114.72 -0.16555 -0.718166 0
M  V30 1271 H 117.362 -1.06742 -1.57182 0
M  V30 1272 H 115.512 -0.161416 -3.88165 0
M  V30 1273 H 117.184 -2.76433 -3.693 0
M  V30 1274 H 115.427 -2.65476 -3.43081 0
M  V30 1275 H 116.098 -2.28888 -5.02309 0
M  V30 1276 H 118.574 -0.587068 -4.11938 0
M  V30 1277 H 117.45 -0.332213 -5.47894 0
M  V30 1278 H 117.711 0.95806 -4.31594 0
M  V30 1279 N 116.77 1.45427 -0.607355 0
M  V30 1280 C 118.016 2.0254 -0.102607 0
M  V30 1281 C 118.349 1.47478 1.26348 0
M  V30 1282 O 117.624 0.64939 1.83339 0
M  V30 1283 C 117.907 3.60044 -0.0634347 0
M  V30 1284 C 117.76 4.2544 -1.46017 0
M  V30 1285 C 119.079 4.35646 0.624514 0
M  V30 1286 H 116.198 0.73598 -0.0387607 0
M  V30 1287 H 118.84 1.73284 -0.779282 0
M  V30 1288 H 116.99 3.85101 0.512808 0
M  V30 1289 H 118.662 4.11569 -2.08347 0
M  V30 1290 H 116.905 3.83849 -2.02094 0
M  V30 1291 H 117.576 5.34342 -1.385 0
M  V30 1292 H 120.052 4.15882 0.134723 0
M  V30 1293 H 118.928 5.45376 0.621028 0
M  V30 1294 H 119.189 4.08501 1.69055 0
M  V30 1295 N 118.248 0.346503 1.53744 0
M  V30 1296 C 119.476 -0.25041 2.05379 0
M  V30 1297 C 119.891 -1.43979 1.22129 0
M  V30 1298 O 119.248 -1.80677 0.257321 0
M  V30 1299 C 119.299 -0.662575 3.55376 0
M  V30 1300 O 119.02 0.479515 4.35468 0
M  V30 1301 C 120.521 -1.31989 4.23195 0
M  V30 1302 H 117.741 -0.0478198 0.669294 0
M  V30 1303 H 120.285 0.499346 1.9831 0
M  V30 1304 H 118.44 -1.36227 3.62658 0
M  V30 1305 H 118.854 0.15037 5.24284 0
M  V30 1306 H 120.328 -1.55902 5.29527 0
M  V30 1307 H 120.805 -2.27436 3.75725 0
M  V30 1308 H 121.411 -0.662154 4.20114 0
M  V30 1309 N 119.726 -1.57421 0.075193 0
M  V30 1310 C 121.137 -1.81021 -0.456964 0
M  V30 1311 C 121.488 -0.98936 -1.69429 0
M  V30 1312 O 120.613 -0.212865 -2.15351 0
M  V30 1313 C 121.208 -3.28329 -0.83581 0
M  V30 1314 C 119.767 -3.52764 -1.31281 0
M  V30 1315 C 118.914 -2.75676 -0.299648 0
M  V30 1316 H 121.865 -1.55822 0.300856 0
M  V30 1317 H 121.886 -3.40564 -1.69696 0
M  V30 1318 H 121.398 -3.88046 0.0649238 0
M  V30 1319 H 119.499 -2.98355 -2.23193 0
M  V30 1320 H 119.612 -4.61451 -1.28839 0
M  V30 1321 H 117.976 -2.42538 -0.777641 0
M  V30 1322 H 118.759 -3.38132 0.593417 0
M  V30 1323 N 121.204 0.198386 -1.56346 0
M  V30 1324 C 122.432 0.935572 -1.84539 0
M  V30 1325 C 122.847 1.76989 -0.657281 0
M  V30 1326 O 122.204 1.78626 0.374043 0
M  V30 1327 C 122.255 1.8344 -3.11499 0
M  V30 1328 O 121.976 1.03377 -4.25728 0
M  V30 1329 C 123.477 2.68355 -3.52846 0
M  V30 1330 H 120.697 0.273126 -0.612897 0
M  V30 1331 H 123.241 0.20663 -2.03453 0
M  V30 1332 H 121.396 2.51701 -2.94492 0
M  V30 1333 H 121.81 1.64599 -4.98003 0
M  V30 1334 H 123.284 3.27085 -4.44657 0
M  V30 1335 H 123.761 3.41901 -2.75681 0
M  V30 1336 H 124.367 2.05471 -3.72373 0
M  V30 1337 N 122.682 1.50554 0.465978 0
M  V30 1338 C 123.912 1.65323 1.23903 0
M  V30 1339 C 124.32 0.338051 1.86155 0
M  V30 1340 O 123.663 -0.690518 1.70228 0
M  V30 1341 C 123.725 2.69048 2.3844 0
M  V30 1342 C 123.389 4.12462 1.96784 0
M  V30 1343 C 124.386 4.98168 1.48745 0
M  V30 1344 C 122.071 4.58407 2.05349 0
M  V30 1345 C 124.065 6.27868 1.0982 0
M  V30 1346 C 121.752 5.88112 1.66035 0
M  V30 1347 C 122.75 6.72668 1.18349 0
M  V30 1348 O 122.438 7.99951 0.795825 0
M  V30 1349 H 122.17 0.558629 0.38067 0
M  V30 1350 H 124.724 1.97561 0.562022 0
M  V30 1351 H 122.954 2.32062 3.09328 0
M  V30 1352 H 124.643 2.72985 3.0039 0
M  V30 1353 H 125.409 4.63885 1.41546 0
M  V30 1354 H 121.288 3.92735 2.41414 0
M  V30 1355 H 124.832 6.93819 0.725293 0
M  V30 1356 H 120.729 6.21914 1.72895 0
M  V30 1357 H 121.497 8.13265 0.924222 0
M  V30 1358 N 124.16 -0.719506 1.40217 0
M  V30 1359 C 125.123 -1.8153 1.39927 0
M  V30 1360 C 126.123 -1.58095 0.293723 0
M  V30 1361 O 127.313 -1.65209 0.552429 0
M  V30 1362 C 124.445 -3.19561 1.18716 0
M  V30 1363 H 125.638 -1.83186 2.37451 0
M  V30 1364 H 123.191 -0.924746 1.26008 0
M  V30 1365 H 123.926 -3.23557 0.219366 0
M  V30 1366 H 123.711 -3.3797 1.98793 0
M  V30 1367 H 125.201 -3.99598 1.21291 0
M  V30 1368 N 125.638 -1.25649 -0.95132 0
M  V30 1369 C 127.054 -1.02542 -1.223 0
M  V30 1370 C 127.254 0.255715 -1.99871 0
M  V30 1371 O 126.31 0.967558 -2.33226 0
M  V30 1372 C 127.623 -2.25065 -1.99415 0
M  V30 1373 C 129.171 -2.29861 -2.12446 0
M  V30 1374 C 129.646 -3.52048 -2.92961 0
M  V30 1375 N 131.137 -3.52465 -3.00538 0
M  V30 1376 C 131.872 -4.43672 -3.63239 0
M  V30 1377 N 131.368 -5.45157 -4.27523 0
M  V30 1378 N 133.161 -4.31346 -3.60412 0
M  V30 1379 H 125.312 -2.07951 -0.432471 0
M  V30 1380 H 127.575 -0.91339 -0.253816 0
M  V30 1381 H 127.281 -3.18194 -1.49817 0
M  V30 1382 H 127.155 -2.28502 -3.00111 0
M  V30 1383 H 129.542 -1.37252 -2.61239 0
M  V30 1384 H 129.623 -2.3044 -1.11044 0
M  V30 1385 H 129.267 -4.44981 -2.44856 0
M  V30 1386 H 129.197 -3.48715 -3.94596 0
M  V30 1387 H 131.688 -2.79056 -2.54826 0
M  V30 1388 H 132.001 -6.10958 -4.73234 0
M  V30 1389 H 130.346 -5.49025 -4.26141 0
M  V30 1390 H 133.537 -3.51288 -3.09377 0
M  V30 1391 H 133.71 -5.02624 -4.0899 0
M  V30 1392 N 127.117 1.15442 -1.07289 0
M  V30 1393 C 128.047 2.22312 -0.714107 0
M  V30 1394 C 129.028 1.67467 0.298155 0
M  V30 1395 O 130.213 1.93445 0.171048 0
M  V30 1396 C 127.343 3.47124 -0.110448 0
M  V30 1397 C 126.297 4.14926 -1.04979 0
M  V30 1398 C 125.623 5.33807 -0.308924 0
M  V30 1399 C 126.923 4.64762 -2.38314 0
M  V30 1400 H 128.617 2.5258 -1.6076 0
M  V30 1401 H 126.163 1.21404 -0.77441 0
M  V30 1402 H 128.116 4.21124 0.152482 0
M  V30 1403 H 126.84 3.16187 0.81812 0
M  V30 1404 H 125.499 3.42866 -1.29764 0
M  V30 1405 H 125.147 4.99126 0.623084 0
M  V30 1406 H 124.847 5.80113 -0.935036 0
M  V30 1407 H 126.371 6.10576 -0.0537771 0
M  V30 1408 H 127.785 5.30292 -2.1786 0
M  V30 1409 H 126.182 5.21728 -2.96514 0
M  V30 1410 H 127.252 3.80434 -3.00663 0
M  V30 1411 N 128.595 0.856903 1.32268 0
M  V30 1412 C 129.841 0.462069 1.97466 0
M  V30 1413 C 130.174 -0.980298 1.67642 0
M  V30 1414 O 129.449 -1.68824 0.965858 0
M  V30 1415 C 129.732 0.704336 3.53145 0
M  V30 1416 C 129.585 2.19529 3.9259 0
M  V30 1417 C 130.904 0.1622 4.39801 0
M  V30 1418 H 128.023 0.169357 0.717278 0
M  V30 1419 H 130.665 1.07574 1.56614 0
M  V30 1420 H 128.815 0.181999 3.88073 0
M  V30 1421 H 130.487 2.78387 3.67829 0
M  V30 1422 H 128.73 2.67292 3.41668 0
M  V30 1423 H 129.401 2.31549 5.01088 0
M  V30 1424 H 131.877 0.608905 4.11621 0
M  V30 1425 H 130.753 0.361265 5.4771 0
M  V30 1426 H 131.014 -0.935158 4.32096 0
M  V30 1427 N 130.073 -1.45103 0.615059 0
M  V30 1428 C 131.005 -2.28786 -0.13762 0
M  V30 1429 C 132.018 -1.40376 -0.824525 0
M  V30 1430 O 133.207 -1.64681 -0.688662 0
M  V30 1431 C 130.307 -3.16322 -1.21628 0
M  V30 1432 C 129.48 -4.33054 -0.615039 0
M  V30 1433 C 128.539 -5.01743 -1.58556 0
M  V30 1434 O 127.565 -5.58293 -1.10895 0
M  V30 1435 N 128.767 -5.01714 -2.91998 0
M  V30 1436 H 131.532 -2.94025 0.580483 0
M  V30 1437 H 129.093 -1.55373 0.45507 0
M  V30 1438 H 131.085 -3.59139 -1.86552 0
M  V30 1439 H 129.655 -2.52943 -1.83681 0
M  V30 1440 H 128.875 -3.93627 0.21245 0
M  V30 1441 H 130.163 -5.08431 -0.193704 0
M  V30 1442 H 129.561 -4.57075 -3.33316 0
M  V30 1443 H 128.118 -5.48371 -3.52325 0
M  V30 1444 N 131.551 -0.354651 -1.53558 0
M  V30 1445 C 132.498 0.496968 -2.25386 0
M  V30 1446 C 133.468 1.0865 -1.25636 0
M  V30 1447 O 134.653 1.12104 -1.54394 0
M  V30 1448 C 131.793 1.63637 -3.03837 0
M  V30 1449 C 130.906 1.07307 -4.18461 0
M  V30 1450 C 130.041 2.18068 -4.84376 0
M  V30 1451 C 129.08 1.59147 -5.91049 0
M  V30 1452 N 128.217 2.63695 -6.50699 0
M  V30 1453 H 133.057 -0.122075 -2.9775 0
M  V30 1454 H 130.594 -0.0720154 -1.46924 0
M  V30 1455 H 132.552 2.30734 -3.47589 0
M  V30 1456 H 131.182 2.22623 -2.33749 0
M  V30 1457 H 130.234 0.292708 -3.79272 0
M  V30 1458 H 131.546 0.602193 -4.95152 0
M  V30 1459 H 130.7 2.93007 -5.31255 0
M  V30 1460 H 129.439 2.68504 -4.07133 0
M  V30 1461 H 128.444 0.827175 -5.43542 0
M  V30 1462 H 129.669 1.09549 -6.70206 0
M  V30 1463 H 127.615 3.13365 -5.76315 0
M  V30 1464 H 127.532 2.21263 -7.22896 0
M  V30 1465 H 128.8 3.3837 -7.02229 0
M  V30 1466 N 133.029 1.57378 -0.0835403 0
M  V30 1467 C 133.992 2.12252 0.864959 0
M  V30 1468 C 134.992 1.04916 1.21858 0
M  V30 1469 O 136.182 1.30853 1.14991 0
M  V30 1470 C 133.314 2.63358 2.16461 0
M  V30 1471 H 134.507 2.97371 0.388676 0
M  V30 1472 H 132.06 1.55423 0.165317 0
M  V30 1473 H 132.795 1.81727 2.686 0
M  V30 1474 H 132.58 3.41826 1.92087 0
M  V30 1475 H 134.07 3.05847 2.84337 0
M  V30 1476 N 134.507 -0.190092 1.56449 0
M  V30 1477 C 135.417 -1.25591 1.98152 0
M  V30 1478 C 136.433 -1.49519 0.889944 0
M  V30 1479 O 137.609 -1.62036 1.19609 0
M  V30 1480 C 134.674 -2.57916 2.3169 0
M  V30 1481 C 133.735 -2.42015 3.5458 0
M  V30 1482 C 132.968 -3.6803 3.8651 0
M  V30 1483 O 133.191 -4.72413 3.1966 0
M  V30 1484 O 132.125 -3.6326 4.79923 0
M  V30 1485 H 135.951 -0.931988 2.89046 0
M  V30 1486 H 133.536 -0.395488 1.4407 0
M  V30 1487 H 135.418 -3.36008 2.54316 0
M  V30 1488 H 134.093 -2.89925 1.43963 0
M  V30 1489 H 133 -1.62017 3.37196 0
M  V30 1490 H 134.333 -2.14937 4.4279 0
M  V30 1491 N 135.985 -1.50799 -0.457987 0
M  V30 1492 C 136.915 -1.73553 -1.5621 0
M  V30 1493 C 137.896 -0.584774 -1.59732 0
M  V30 1494 O 139.081 -0.825314 -1.7579 0
M  V30 1495 C 136.211 -1.84169 -2.94447 0
M  V30 1496 C 135.165 -2.99461 -3.0579 0
M  V30 1497 C 134.491 -2.95235 -4.45803 0
M  V30 1498 C 135.791 -4.39766 -2.81786 0
M  V30 1499 H 137.485 -2.66 -1.37421 0
M  V30 1500 H 135.031 -1.28002 -0.659662 0
M  V30 1501 H 136.984 -1.98672 -3.71628 0
M  V30 1502 H 135.708 -0.883545 -3.14422 0
M  V30 1503 H 134.367 -2.8463 -2.31044 0
M  V30 1504 H 134.015 -1.97239 -4.62715 0
M  V30 1505 H 133.715 -3.72642 -4.54326 0
M  V30 1506 H 135.239 -3.11803 -5.24987 0
M  V30 1507 H 136.653 -4.55054 -3.4871 0
M  V30 1508 H 135.05 -5.18722 -3.0174 0
M  V30 1509 H 136.12 -4.51229 -1.7754 0
M  V30 1510 N 137.463 0.71206 -1.40597 0
M  V30 1511 C 138.709 1.47416 -1.39271 0
M  V30 1512 C 139.042 1.942 0.00388791 0
M  V30 1513 O 138.317 1.68403 0.973179 0
M  V30 1514 C 138.6 2.69774 -2.38525 0
M  V30 1515 C 138.453 2.28861 -3.87224 0
M  V30 1516 C 139.772 3.71939 -2.35264 0
M  V30 1517 H 136.891 0.534713 -0.5072 0
M  V30 1518 H 139.533 0.812375 -1.71757 0
M  V30 1519 H 137.683 3.26238 -2.10953 0
M  V30 1520 H 139.355 1.77852 -4.25636 0
M  V30 1521 H 137.598 1.60824 -4.02887 0
M  V30 1522 H 138.269 3.16584 -4.52193 0
M  V30 1523 H 140.745 3.25113 -2.59694 0
M  V30 1524 H 139.621 4.55186 -3.06753 0
M  V30 1525 H 139.882 4.20484 -1.36549 0
M  V30 1526 N 138.941 1.26152 0.944643 0
M  V30 1527 C 140.357 1.03189 1.21754 0
M  V30 1528 C 140.557 -0.245112 2.00004 0
M  V30 1529 O 139.613 -0.955176 2.33736 0
M  V30 1530 C 140.926 2.26119 1.98219 0
M  V30 1531 C 142.474 2.30984 2.11224 0
M  V30 1532 C 142.949 3.53597 2.91089 0
M  V30 1533 N 144.44 3.54053 2.98664 0
M  V30 1534 C 145.175 4.45593 3.60881 0
M  V30 1535 N 144.671 5.47416 4.24626 0
M  V30 1536 N 146.464 4.33252 3.58119 0
M  V30 1537 H 138.615 2.08177 0.421437 0
M  V30 1538 H 140.878 0.914723 0.248969 0
M  V30 1539 H 140.584 3.18984 1.48128 0
M  V30 1540 H 140.458 2.3009 2.98895 0
M  V30 1541 H 142.845 1.38635 2.60508 0
M  V30 1542 H 142.926 2.31026 1.09821 0
M  V30 1543 H 142.57 4.46273 2.42493 0
M  V30 1544 H 142.5 3.50802 3.92741 0
M  V30 1545 H 144.991 2.80403 2.53343 0
M  V30 1546 H 145.304 6.13459 4.69987 0
M  V30 1547 H 143.649 5.51278 4.23223 0
M  V30 1548 H 146.84 3.52924 3.0751 0
M  V30 1549 H 147.013 5.04786 4.06319 0
M  V30 1550 N 140.419 -1.14872 1.07899 0
M  V30 1551 C 141.349 -2.2193 0.725887 0
M  V30 1552 C 142.33 -1.67622 -0.28927 0
M  V30 1553 O 143.515 -1.93533 -0.160787 0
M  V30 1554 C 140.645 -3.47061 0.128856 0
M  V30 1555 C 139.599 -4.14363 1.07178 0
M  V30 1556 C 138.925 -5.33636 0.337229 0
M  V30 1557 C 140.225 -4.63492 2.40775 0
M  V30 1558 H 141.919 -2.51724 1.62097 0
M  V30 1559 H 139.465 -1.20991 0.780838 0
M  V30 1560 H 141.418 -4.21199 -0.130147 0
M  V30 1561 H 140.142 -3.16617 -0.80134 0
M  V30 1562 H 138.801 -3.42173 1.3158 0
M  V30 1563 H 138.449 -4.99449 -0.596606 0
M  V30 1564 H 138.149 -5.79609 0.965788 0
M  V30 1565 H 139.673 -6.10539 0.0861567 0
M  V30 1566 H 141.087 -5.2913 2.20669 0
M  V30 1567 H 139.484 -5.20148 2.99276 0
M  V30 1568 H 140.554 -3.78834 3.02676 0
M  V30 1569 N 141.898 -0.863906 -1.31812 0
M  V30 1570 C 143.123 -0.48527 -2.01643 0
M  V30 1571 C 143.548 0.913058 -1.64453 0
M  V30 1572 O 142.906 1.6014 -0.849985 0
M  V30 1573 C 142.954 -0.642625 -3.54828 0
M  V30 1574 O 142.058 0.320659 -4.11151 0
M  V30 1575 H 141.399 -0.193793 -0.635091 0
M  V30 1576 H 143.929 -1.16565 -1.68148 0
M  V30 1577 H 143.939 -0.533628 -4.04495 0
M  V30 1578 H 142.614 -1.66227 -3.81237 0
M  V30 1579 H 141.191 0.167126 -3.72525 0
M  V30 1580 N 143.376 1.44774 -0.622745 0
M  V30 1581 C 144.308 2.28856 0.125485 0
M  V30 1582 C 145.321 1.40811 0.817069 0
M  V30 1583 O 146.51 1.65044 0.679918 0
M  V30 1584 C 143.61 3.16963 1.19949 0
M  V30 1585 C 142.783 4.33374 0.592064 0
M  V30 1586 C 141.842 5.02577 1.55893 0
M  V30 1587 O 140.868 5.58873 1.07933 0
M  V30 1588 N 142.07 5.03256 2.89334 0
M  V30 1589 H 144.835 2.93713 -0.596068 0
M  V30 1590 H 142.396 1.55129 -0.463303 0
M  V30 1591 H 144.388 3.60123 1.84644 0
M  V30 1592 H 142.958 2.53913 1.82337 0
M  V30 1593 H 142.178 3.93509 -0.233322 0
M  V30 1594 H 143.466 5.08527 0.166738 0
M  V30 1595 H 142.864 4.58836 3.30887 0
M  V30 1596 H 141.421 5.50232 3.49412 0
M  V30 1597 N 144.854 0.36279 1.53368 0
M  V30 1598 C 146.082 -0.228613 2.05633 0
M  V30 1599 C 146.497 -1.42676 1.23649 0
M  V30 1600 O 145.854 -1.80394 0.27647 0
M  V30 1601 C 145.905 -0.624845 3.56059 0
M  V30 1602 O 145.626 0.525675 4.34935 0
M  V30 1603 C 147.127 -1.27493 4.24571 0
M  V30 1604 H 144.347 -0.0407183 0.669763 0
M  V30 1605 H 146.891 0.520352 1.97769 0
M  V30 1606 H 145.046 -1.32373 3.64083 0
M  V30 1607 H 145.46 0.205969 5.24095 0
M  V30 1608 H 146.934 -1.50277 5.31151 0
M  V30 1609 H 147.411 -2.23439 3.78116 0
M  V30 1610 H 148.017 -0.617558 4.20792 0
M  V30 1611 N 146.332 -1.57332 0.0918853 0
M  V30 1612 C 147.262 -2.16872 -0.865371 0
M  V30 1613 C 148.243 -1.10118 -1.29646 0
M  V30 1614 O 149.428 -1.38242 -1.36392 0
M  V30 1615 C 146.558 -2.74649 -2.12569 0
M  V30 1616 C 145.512 -3.86747 -1.83333 0
M  V30 1617 C 144.838 -4.31212 -3.16166 0
M  V30 1618 C 146.138 -5.10089 -1.1228 0
M  V30 1619 H 147.832 -2.97114 -0.369307 0
M  V30 1620 H 145.378 -1.42918 -0.176194 0
M  V30 1621 H 147.331 -3.14952 -2.7997 0
M  V30 1622 H 146.055 -1.91657 -2.64452 0
M  V30 1623 H 144.714 -3.46978 -1.18331 0
M  V30 1624 H 144.362 -3.45115 -3.6593 0
M  V30 1625 H 144.062 -5.06788 -2.97388 0
M  V30 1626 H 145.586 -4.74146 -3.84731 0
M  V30 1627 H 147 -5.47582 -1.69785 0
M  V30 1628 H 145.397 -5.91073 -1.03693 0
M  V30 1629 H 146.467 -4.84786 -0.105041 0
M  V30 1630 N 147.81 0.181792 -1.56548 0
M  V30 1631 C 149.035 0.920019 -1.85877 0
M  V30 1632 C 149.46 1.75494 -0.677021 0
M  V30 1633 O 148.818 1.77399 0.374056 0
M  V30 1634 C 148.866 1.78112 -3.13542 0
M  V30 1635 O 147.97 2.88152 -2.95029 0
M  V30 1636 H 147.311 0.258334 -0.611686 0
M  V30 1637 H 149.841 0.183092 -2.03779 0
M  V30 1638 H 149.851 2.18314 -3.44678 0
M  V30 1639 H 148.526 1.16777 -3.99169 0
M  V30 1640 H 147.103 2.51609 -2.75222 0
M  V30 1641 N 149.288 1.51039 0.449983 0
M  V30 1642 C 150.218 1.74379 1.55288 0
M  V30 1643 C 151.199 0.593236 1.5942 0
M  V30 1644 O 152.384 0.834625 1.7535 0
M  V30 1645 C 149.514 1.85728 2.93466 0
M  V30 1646 C 148.468 3.01078 3.04197 0
M  V30 1647 C 147.794 2.97595 4.44231 0
M  V30 1648 C 149.094 4.41254 2.7945 0
M  V30 1649 H 150.788 2.66725 1.36008 0
M  V30 1650 H 148.334 1.2835 0.652864 0
M  V30 1651 H 150.287 2.0064 3.70569 0
M  V30 1652 H 149.011 0.900207 3.13949 0
M  V30 1653 H 147.67 2.85851 2.29531 0
M  V30 1654 H 147.318 1.99691 4.61663 0
M  V30 1655 H 147.018 3.75046 4.52343 0
M  V30 1656 H 148.542 3.14583 5.23326 0
M  V30 1657 H 149.956 4.56897 3.46292 0
M  V30 1658 H 148.353 5.20315 2.98985 0
M  V30 1659 H 149.423 4.52164 1.75144 0
M  V30 1660 N 150.766 -0.704594 1.40972 0
M  V30 1661 C 152.012 -1.46675 1.40051 0
M  V30 1662 C 152.345 -1.94199 0.00641102 0
M  V30 1663 O 151.62 -1.68916 -0.964235 0
M  V30 1664 C 151.903 -2.68505 2.39952 0
M  V30 1665 C 151.756 -2.26805 3.88432 0
M  V30 1666 C 153.075 -3.70686 2.37233 0
M  V30 1667 H 150.194 -0.532015 0.510028 0
M  V30 1668 H 152.836 -0.803255 1.72185 0
M  V30 1669 H 150.986 -3.25114 2.1268 0
M  V30 1670 H 152.658 -1.75592 4.26574 0
M  V30 1671 H 150.901 -1.58685 4.03734 0
M  V30 1672 H 151.572 -3.14181 4.53866 0
M  V30 1673 H 154.048 -3.23731 2.61415 0
M  V30 1674 H 152.924 -4.53553 3.09162 0
M  V30 1675 H 153.185 -4.19754 1.38777 0
M  V30 1676 N 152.244 -1.26651 -0.937939 0
M  V30 1677 C 153.655 -1.1125 -1.49934 0
M  V30 1678 C 154.006 0.306077 -1.93798 0
M  V30 1679 O 153.131 1.19792 -1.80219 0
M  V30 1680 C 153.726 -2.01339 -2.72485 0
M  V30 1681 C 152.285 -1.90074 -3.24883 0
M  V30 1682 C 151.432 -1.94498 -1.97651 0
M  V30 1683 H 154.383 -1.39693 -0.753091 0
M  V30 1684 H 154.404 -1.56319 -3.46907 0
M  V30 1685 H 153.916 -3.04577 -2.40529 0
M  V30 1686 H 152.017 -0.897827 -3.61621 0
M  V30 1687 H 152.13 -2.75778 -3.9177 0
M  V30 1688 H 150.494 -1.38591 -2.13693 0
M  V30 1689 H 151.277 -2.99372 -1.68022 0
M  V30 1690 N 153.722 1.14298 -1.08507 0
M  V30 1691 C 155.138 1.37347 -0.812901 0
M  V30 1692 C 155.338 1.93052 0.577325 0
M  V30 1693 O 154.394 2.14389 1.33393 0
M  V30 1694 C 155.707 2.33359 -1.89642 0
M  V30 1695 C 157.255 2.46996 -1.92255 0
M  V30 1696 C 157.73 3.46309 -2.99724 0
M  V30 1697 N 159.221 3.53853 -2.98902 0
M  V30 1698 C 159.956 4.3055 -3.787 0
M  V30 1699 N 159.452 5.10482 -4.6838 0
M  V30 1700 N 161.245 4.25757 -3.66998 0
M  V30 1701 H 153.396 0.764867 -1.9815 0
M  V30 1702 H 155.659 0.398966 -0.859959 0
M  V30 1703 H 155.365 1.99565 -2.89597 0
M  V30 1704 H 155.239 3.33274 -1.76659 0
M  V30 1705 H 157.626 2.80081 -0.929445 0
M  V30 1706 H 157.707 1.47039 -2.09316 0
M  V30 1707 H 157.351 3.13957 -3.99241 0
M  V30 1708 H 157.281 4.46049 -2.79907 0
M  V30 1709 H 159.772 2.96812 -2.33904 0
M  V30 1710 H 160.085 5.66284 -5.25873 0
M  V30 1711 H 158.43 5.09747 -4.72422 0
M  V30 1712 H 161.621 3.62383 -2.96304 0
M  V30 1713 H 161.794 4.85279 -4.29427 0
M  V30 1714 N 155.201 0.870884 1.31352 0
M  V30 1715 C 156.131 0.343096 2.30966 0
M  V30 1716 C 157.112 -0.566507 1.60389 0
M  V30 1717 O 158.297 -0.483336 1.88089 0
M  V30 1718 C 155.427 -0.455487 3.443 0
M  V30 1719 C 154.381 0.361103 4.26474 0
M  V30 1720 C 153.707 -0.563221 5.31725 0
M  V30 1721 C 155.007 1.59566 4.97329 0
M  V30 1722 H 156.701 1.17548 2.75359 0
M  V30 1723 H 154.247 0.566686 1.32381 0
M  V30 1724 H 156.2 -0.83525 4.13039 0
M  V30 1725 H 154.924 -1.32139 2.98675 0
M  V30 1726 H 153.583 0.722825 3.59403 0
M  V30 1727 H 153.231 -1.42643 4.82351 0
M  V30 1728 H 152.931 -0.0207409 5.87596 0
M  V30 1729 H 154.455 -0.939808 6.03324 0
M  V30 1730 H 155.869 1.28728 5.58661 0
M  V30 1731 H 154.266 2.07728 5.63 0
M  V30 1732 H 155.336 2.34798 4.24262 0
M  V30 1733 N 156.679 -1.44442 0.630414 0
M  V30 1734 C 157.629 -2.27794 -0.0968103 0
M  V30 1735 C 158.613 -1.38624 -0.816834 0
M  V30 1736 O 159.805 -1.62438 -0.70306 0
M  V30 1737 C 156.934 -3.25929 -1.07819 0
M  V30 1738 C 156.02 -4.22588 -0.357826 0
M  V30 1739 N 156.411 -5.0207 0.613169 0
M  V30 1740 C 154.709 -4.41914 -0.602365 0
M  V30 1741 C 155.41 -5.72351 1.03871 0
M  V30 1742 N 154.386 -5.42287 0.377642 0
M  V30 1743 H 158.188 -2.86653 0.648621 0
M  V30 1744 H 155.702 -1.55871 0.455862 0
M  V30 1745 H 157.699 -3.84399 -1.61378 0
M  V30 1746 H 156.359 -2.68631 -1.82393 0
M  V30 1747 H 157.37 -5.08331 0.990947 0
M  V30 1748 H 154.047 -3.95714 -1.33103 0
M  V30 1749 H 155.437 -6.4619 1.84086 0
M  V30 1750 N 158.157 -0.370918 -1.53173 0
M  V30 1751 C 159.403 0.209976 -2.02313 0
M  V30 1752 C 159.758 1.45987 -1.25322 0
M  V30 1753 O 159.051 1.8856 -0.339965 0
M  V30 1754 C 159.245 0.549696 -3.53147 0
M  V30 1755 C 159.074 -0.665721 -4.44745 0
M  V30 1756 C 157.844 -1.17942 -4.91343 0
M  V30 1757 C 160.042 -1.53255 -4.90935 0
M  V30 1758 N 158.024 -2.35431 -5.66962 0
M  V30 1759 C 159.395 -2.55403 -5.64951 0
M  V30 1760 C 161.45 -1.5548 -4.73002 0
M  V30 1761 C 160.153 -3.5964 -6.22938 0
M  V30 1762 C 162.179 -2.58613 -5.31858 0
M  V30 1763 C 161.541 -3.59485 -6.05764 0
M  V30 1764 H 157.64 0.0394095 -0.781006 0
M  V30 1765 H 160.224 -0.516666 -1.8772 0
M  V30 1766 H 158.395 1.24541 -3.67891 0
M  V30 1767 H 160.127 1.11614 -3.89004 0
M  V30 1768 H 156.882 -0.743228 -4.67732 0
M  V30 1769 H 157.306 -2.94827 -6.09431 0
M  V30 1770 H 161.948 -0.788457 -4.15383 0
M  V30 1771 H 159.666 -4.37153 -6.79649 0
M  V30 1772 H 163.252 -2.61195 -5.19873 0
M  V30 1773 H 162.132 -4.3798 -6.50495 0
M  V30 1774 N 159.635 1.57281 -0.100228 0
M  V30 1775 C 160.565 2.17328 0.853857 0
M  V30 1776 C 161.546 1.10804 1.2906 0
M  V30 1777 O 162.731 1.38963 1.35657 0
M  V30 1778 C 159.861 2.75772 2.11109 0
M  V30 1779 C 158.815 3.87713 1.81279 0
M  V30 1780 C 158.141 4.32882 3.13874 0
M  V30 1781 C 159.441 5.10677 1.09574 0
M  V30 1782 H 161.135 2.97305 0.353545 0
M  V30 1783 H 158.681 1.43009 0.168612 0
M  V30 1784 H 160.634 3.16433 2.78296 0
M  V30 1785 H 159.358 1.93057 2.63432 0
M  V30 1786 H 158.017 3.476 1.16489 0
M  V30 1787 H 157.665 3.47051 3.64095 0
M  V30 1788 H 157.365 5.08358 2.94696 0
M  V30 1789 H 158.889 4.7618 3.82211 0
M  V30 1790 H 160.303 5.48474 1.66879 0
M  V30 1791 H 158.7 5.91615 1.00557 0
M  V30 1792 H 159.77 4.84835 0.0793299 0
M  V30 1793 N 161.113 -0.173488 1.56642 0
M  V30 1794 C 162.043 -1.2171 1.99271 0
M  V30 1795 C 163.024 -1.46289 0.867959 0
M  V30 1796 O 164.209 -1.5766 1.13388 0
M  V30 1797 C 161.339 -2.55651 2.35074 0
M  V30 1798 C 160.293 -2.45645 3.50489 0
M  V30 1799 C 159.619 -3.84056 3.72028 0
M  V30 1800 C 160.919 -1.96302 4.84007 0
M  V30 1801 H 162.613 -0.86275 2.867 0
M  V30 1802 H 160.159 -0.413571 1.37933 0
M  V30 1803 H 162.112 -3.2886 2.63494 0
M  V30 1804 H 160.836 -2.92869 1.44552 0
M  V30 1805 H 159.495 -1.7489 3.22194 0
M  V30 1806 H 159.143 -4.18664 2.788 0
M  V30 1807 H 158.843 -3.7823 4.49684 0
M  V30 1808 H 160.367 -4.58854 4.02846 0
M  V30 1809 H 161.781 -2.59284 5.11317 0
M  V30 1810 H 160.178 -2.01429 5.65284 0
M  V30 1811 H 161.248 -0.917226 4.76146 0
M  V30 1812 N 162.591 -1.51276 -0.441967 0
M  V30 1813 C 163.837 -1.63958 -1.19355 0
M  V30 1814 C 164.17 -0.352543 -1.90973 0
M  V30 1815 O 163.445 0.647627 -1.83401 0
M  V30 1816 C 163.728 -2.83979 -2.21422 0
M  V30 1817 C 163.581 -4.22646 -1.53918 0
M  V30 1818 C 164.9 -2.99521 -3.22451 0
M  V30 1819 H 162.019 -0.596709 -0.432559 0
M  V30 1820 H 164.661 -1.83748 -0.483398 0
M  V30 1821 H 162.811 -2.67237 -2.81987 0
M  V30 1822 H 164.483 -4.51045 -0.967256 0
M  V30 1823 H 162.726 -4.25558 -0.841615 0
M  V30 1824 H 163.397 -5.02609 -2.28229 0
M  V30 1825 H 165.873 -3.14944 -2.71937 0
M  V30 1826 H 164.749 -3.85072 -3.91166 0
M  V30 1827 H 165.01 -2.11391 -3.88287 0
M  V30 1828 N 164.069 0.697108 -1.41344 0
M  V30 1829 C 164.979 1.84088 -1.45427 0
M  V30 1830 C 165.995 1.70545 -0.34501 0
M  V30 1831 O 167.171 1.92488 -0.592492 0
M  V30 1832 C 164.236 3.20056 -1.33286 0
M  V30 1833 C 163.297 3.45718 -2.54514 0
M  V30 1834 C 162.53 4.75199 -2.42944 0
M  V30 1835 O 162.753 5.51579 -1.45318 0
M  V30 1836 O 161.687 5.0161 -3.32672 0
M  V30 1837 H 165.513 1.836 -2.41919 0
M  V30 1838 H 163.098 0.849966 -1.22866 0
M  V30 1839 H 164.98 4.01236 -1.28794 0
M  V30 1840 H 163.655 3.2123 -0.39909 0
M  V30 1841 H 162.562 2.64474 -2.64583 0
M  V30 1842 H 163.895 3.49356 -3.46715 0
M  V30 1843 N 165.547 1.27147 0.931209 0
M  V30 1844 C 166.824 1.0401 1.65654 0
M  V30 1845 C 167.204 -0.426297 2.06751 0
M  V30 1846 O 166.552 -1.40879 1.79904 0
M  V30 1847 C 166.762 1.99834 2.86125 0
M  V30 1848 C 168.11 2.29007 3.57549 0
M  V30 1849 O 169.134 1.97779 2.96246 0
M  V30 1850 O 167.993 2.82222 4.67989 0
M  V30 1851 H 165.087 0.396239 0.725895 0
M  V30 1852 H 167.633 1.38397 0.982056 0
M  V30 1853 H 166.405 2.98744 2.52721 0
M  V30 1854 H 166.028 1.65987 3.61295 0
M  V30 1855 N 167.025 -1.13721 1.09112 0
M  V30 1856 C 167.988 -2.17222 0.731241 0
M  V30 1857 C 168.988 -1.59035 -0.237566 0
M  V30 1858 O 170.178 -1.74192 -0.0161704 0
M  V30 1859 C 167.31 -3.40804 0.0808443 0
M  V30 1860 H 168.503 -2.50573 1.64783 0
M  V30 1861 H 166.056 -1.28493 0.889897 0
M  V30 1862 H 166.791 -3.1304 -0.847127 0
M  V30 1863 H 166.576 -3.84306 0.777896 0
M  V30 1864 H 168.066 -4.1731 -0.155657 0
M  V30 1865 N 168.503 -0.877838 -1.30888 0
M  V30 1866 C 169.413 -0.343096 -2.32078 0
M  V30 1867 C 170.429 0.551022 -1.65045 0
M  V30 1868 O 171.605 0.445854 -1.96403 0
M  V30 1869 C 168.67 0.439905 -3.43898 0
M  V30 1870 C 167.731 -0.483111 -4.26573 0
M  V30 1871 C 166.964 0.262616 -5.33053 0
M  V30 1872 O 167.187 1.48967 -5.50604 0
M  V30 1873 O 166.121 -0.383593 -6.00676 0
M  V30 1874 H 169.947 -1.18203 -2.79753 0
M  V30 1875 H 167.532 -0.64145 -1.34929 0
M  V30 1876 H 169.414 0.883504 -4.12034 0
M  V30 1877 H 168.089 1.25526 -2.98371 0
M  V30 1878 H 166.996 -0.975374 -3.61161 0
M  V30 1879 H 168.329 -1.26427 -4.75686 0
M  V30 1880 N 169.982 1.44106 -0.638065 0
M  V30 1881 C 171.23 2.01579 -0.145043 0
M  V30 1882 C 171.551 1.50496 1.24 0
M  V30 1883 O 170.821 0.711374 1.82527 0
M  V30 1884 H 169.401 0.745282 -0.05063 0
M  V30 1885 H 172.063 1.76516 -0.826327 0
M  V30 1886 H 171.159 3.11877 -0.118039 0
M  V30 1887 N 171.46 0.379036 1.52974 0
M  V30 1888 C 172.871 -0.0972525 1.86447 0
M  V30 1889 C 173.222 -1.47027 1.29914 0
M  V30 1890 O 172.347 -2.07135 0.626433 0
M  V30 1891 C 172.942 -0.183248 3.38304 0
M  V30 1892 C 171.501 -0.603812 3.71525 0
M  V30 1893 C 170.648 0.240632 2.76254 0
M  V30 1894 H 173.599 0.597316 1.4703 0
M  V30 1895 H 173.62 -1.00432 3.67006 0
M  V30 1896 H 173.132 0.816191 3.79421 0
M  V30 1897 H 171.233 -1.61099 3.35973 0
M  V30 1898 H 171.346 -0.369086 4.77676 0
M  V30 1899 H 169.71 -0.292548 2.53014 0
M  V30 1900 H 170.493 1.23786 3.20206 0
M  V30 1901 N 172.938 -1.57226 0.108567 0
M  V30 1902 C 174.166 -1.99179 -0.559954 0
M  V30 1903 C 174.581 -0.988022 -1.60884 0
M  V30 1904 O 173.938 0.0205512 -1.82488 0
M  V30 1905 C 173.989 -3.41159 -1.19552 0
M  V30 1906 O 173.71 -4.37694 -0.188577 0
M  V30 1907 C 175.211 -3.98188 -1.94837 0
M  V30 1908 H 172.431 -0.654228 -0.149088 0
M  V30 1909 H 174.975 -2.03598 0.19183 0
M  V30 1910 H 173.13 -3.37711 -1.89815 0
M  V30 1911 H 173.544 -5.20469 -0.649014 0
M  V30 1912 H 175.018 -4.99644 -2.34648 0
M  V30 1913 H 175.495 -3.3675 -2.81951 0
M  V30 1914 H 176.101 -4.0515 -1.2936 0
M  V30 1915 N 174.416 0.165178 -1.56732 0
M  V30 1916 C 175.827 0.727046 -1.71962 0
M  V30 1917 C 176.178 1.82508 -0.720078 0
M  V30 1918 O 175.303 2.16082 0.117242 0
M  V30 1919 C 175.898 1.32559 -3.11791 0
M  V30 1920 C 174.457 1.83422 -3.28684 0
M  V30 1921 C 173.604 0.715567 -2.67908 0
M  V30 1922 H 176.555 -0.0602896 -1.58585 0
M  V30 1923 H 176.576 2.19533 -3.10782 0
M  V30 1924 H 176.088 0.526195 -3.84516 0
M  V30 1925 H 174.189 2.65986 -2.60926 0
M  V30 1926 H 174.302 1.97543 -4.36478 0
M  V30 1927 H 172.666 1.13758 -2.27884 0
M  V30 1928 H 173.449 -0.0720836 -3.43224 0
M  V30 1929 N 175.894 1.51508 0.433938 0
M  V30 1930 C 176.824 1.76016 1.53429 0
M  V30 1931 C 177.805 0.610112 1.58782 0
M  V30 1932 O 178.99 0.853177 1.74455 0
M  V30 1933 C 176.12 1.88831 2.9148 0
M  V30 1934 C 175.074 3.04288 3.00987 0
M  V30 1935 C 174.4 3.0229 4.4105 0
M  V30 1936 C 175.7 4.44193 2.74754 0
M  V30 1937 H 177.394 2.68152 1.33171 0
M  V30 1938 H 174.94 1.29035 0.639214 0
M  V30 1939 H 176.893 2.04559 3.6842 0
M  V30 1940 H 175.617 0.933455 3.12976 0
M  V30 1941 H 174.276 2.8827 2.26486 0
M  V30 1942 H 173.924 2.04576 4.59519 0
M  V30 1943 H 173.624 3.79822 4.4834 0
M  V30 1944 H 175.148 3.20116 5.1996 0
M  V30 1945 H 176.562 4.60544 3.41426 0
M  V30 1946 H 174.959 5.23457 2.9345 0
M  V30 1947 H 176.029 4.53996 1.70339 0
M  V30 1948 N 177.372 -0.689602 1.41712 0
M  V30 1949 C 178.618 -1.45181 1.41599 0
M  V30 1950 C 178.951 -1.94181 0.0270081 0
M  V30 1951 O 178.226 -1.6993 -0.946265 0
M  V30 1952 C 178.509 -2.65945 2.42787 0
M  V30 1953 C 178.362 -2.22672 3.90816 0
M  V30 1954 C 179.681 -3.68149 2.41151 0
M  V30 1955 H 176.8 -0.526576 0.515642 0
M  V30 1956 H 179.442 -0.784947 1.73028 0
M  V30 1957 H 177.592 -3.2284 2.16116 0
M  V30 1958 H 179.264 -1.71058 4.28412 0
M  V30 1959 H 177.507 -1.54394 4.05395 0
M  V30 1960 H 178.178 -3.0935 4.57172 0
M  V30 1961 H 180.654 -3.2094 2.64834 0
M  V30 1962 H 179.53 -4.50248 3.13955 0
M  V30 1963 H 179.791 -4.18259 1.43221 0
M  V30 1964 N 178.85 -1.27639 -0.924453 0
M  V30 1965 C 180.075 -1.17101 -1.71179 0
M  V30 1966 C 180.5 0.268134 -1.86179 0
M  V30 1967 O 179.858 1.19415 -1.36418 0
M  V30 1968 C 179.906 -1.86313 -3.08739 0
M  V30 1969 O 179.01 -1.16331 -3.95652 0
M  V30 1970 H 178.351 -0.407091 -0.524569 0
M  V30 1971 H 180.881 -1.68767 -1.15666 0
M  V30 1972 H 180.891 -1.938 -3.59034 0
M  V30 1973 H 179.566 -2.91001 -2.97138 0
M  V30 1974 H 178.143 -1.16935 -3.54091 0
M  V30 1975 N 180.328 1.1314 -1.09713 0
M  V30 1976 C 181.576 1.84119 -0.833338 0
M  V30 1977 C 181.897 1.84097 0.642904 0
M  V30 1978 O 181.167 1.29881 1.46655 0
M  V30 1979 H 179.747 0.681766 -0.305293 0
M  V30 1980 H 182.409 1.37038 -1.38588 0
M  V30 1981 H 181.505 2.88543 -1.18951 0
M  V30 1982 N 181.806 0.884767 1.30421 0
M  V30 1983 C 182.736 0.367574 2.30589 0
M  V30 1984 C 183.717 -0.549464 1.60981 0
M  V30 1985 O 184.902 -0.46336 1.88591 0
M  V30 1986 C 182.032 -0.418944 3.44764 0
M  V30 1987 C 180.986 0.406316 4.26067 0
M  V30 1988 C 180.312 -0.506793 5.32293 0
M  V30 1989 C 181.612 1.64832 4.95608 0
M  V30 1990 H 183.306 1.20462 2.74097 0
M  V30 1991 H 180.852 0.580695 1.31772 0
M  V30 1992 H 182.805 -0.791395 4.13902 0
M  V30 1993 H 181.529 -1.28964 3.0006 0
M  V30 1994 H 180.188 0.760903 3.58617 0
M  V30 1995 H 179.836 -1.37519 4.83836 0
M  V30 1996 H 179.536 0.0415828 5.87585 0
M  V30 1997 H 181.06 -0.875764 6.04287 0
M  V30 1998 H 182.474 1.34646 5.57264 0
M  V30 1999 H 180.871 2.13688 5.60765 0
M  V30 2000 H 181.941 2.39284 4.21748 0
M  V30 2001 N 183.284 -1.43765 0.645699 0
M  V30 2002 C 184.214 -2.33471 -0.0370477 0
M  V30 2003 C 185.195 -1.49042 -0.819779 0
M  V30 2004 O 186.38 -1.77726 -0.782758 0
M  V30 2005 C 183.51 -3.32311 -1.0093 0
M  V30 2006 C 182.464 -4.2667 -0.337201 0
M  V30 2007 C 181.79 -5.1549 -1.42037 0
M  V30 2008 C 183.09 -5.16657 0.765706 0
M  V30 2009 H 184.784 -2.90809 0.712069 0
M  V30 2010 H 182.33 -1.39834 0.343876 0
M  V30 2011 H 184.283 -3.9396 -1.49578 0
M  V30 2012 H 183.007 -2.73213 -1.78948 0
M  V30 2013 H 181.666 -3.66374 0.128771 0
M  V30 2014 H 181.314 -4.52735 -2.1918 0
M  V30 2015 H 181.014 -5.79438 -0.975966 0
M  V30 2016 H 182.538 -5.80012 -1.90838 0
M  V30 2017 H 183.952 -5.72158 0.361702 0
M  V30 2018 H 182.349 -5.89286 1.13413 0
M  V30 2019 H 183.419 -4.56796 1.62683 0
M  V30 2020 N 184.763 -0.387143 -1.52771 0
M  V30 2021 C 185.726 0.436939 -2.24997 0
M  V30 2022 C 186.726 0.991991 -1.26555 0
M  V30 2023 O 187.916 0.874335 -1.50669 0
M  V30 2024 C 185.048 1.61281 -3.00335 0
M  V30 2025 H 186.241 -0.195365 -2.99263 0
M  V30 2026 H 183.794 -0.139218 -1.55679 0
M  V30 2027 H 184.529 2.2826 -2.30364 0
M  V30 2028 H 184.314 1.22154 -3.72587 0
M  V30 2029 H 185.804 2.19629 -3.5518 0
M  V30 2030 N 186.241 1.57166 -0.116904 0
M  V30 2031 C 187.204 2.14039 0.819742 0
M  V30 2032 C 188.204 1.07477 1.19605 0
M  V30 2033 O 189.394 1.33263 1.1219 0
M  V30 2034 C 186.526 2.67891 2.10826 0
M  V30 2035 H 187.719 2.98128 0.325511 0
M  V30 2036 H 185.272 1.55739 0.132312 0
M  V30 2037 H 186.007 1.87384 2.64685 0
M  V30 2038 H 185.792 3.45823 1.84793 0
M  V30 2039 H 187.282 3.11809 2.77785 0
M  V30 2040 N 187.719 -0.156864 1.56817 0
M  V30 2041 C 188.944 -0.890331 1.87318 0
M  V30 2042 C 189.369 -1.74394 0.704855 0
M  V30 2043 O 188.727 -1.77972 -0.345786 0
M  V30 2044 C 188.775 -1.73102 3.16336 0
M  V30 2045 O 187.879 -2.83422 2.99576 0
M  V30 2046 H 187.22 -0.24857 0.615718 0
M  V30 2047 H 189.75 -0.150649 2.04045 0
M  V30 2048 H 189.76 -2.12803 3.48107 0
M  V30 2049 H 188.435 -1.10412 4.00976 0
M  V30 2050 H 187.012 -2.47199 2.7919 0
M  V30 2051 N 189.197 -1.51736 -0.425897 0
M  V30 2052 C 190.445 -1.64644 -1.17204 0
M  V30 2053 C 190.766 -0.370486 -1.91448 0
M  V30 2054 O 190.036 0.614088 -1.86026 0
M  V30 2055 H 188.616 -0.606819 -0.435638 0
M  V30 2056 H 191.278 -1.88713 -0.487177 0
M  V30 2057 H 190.374 -2.47958 -1.89534 0
M  V30 2058 N 190.675 0.682077 -1.42076 0
M  V30 2059 C 191.605 1.80796 -1.47767 0
M  V30 2060 C 192.586 1.6677 -0.334954 0
M  V30 2061 O 193.771 1.863 -0.548264 0
M  V30 2062 C 190.901 3.19038 -1.37229 0
M  V30 2063 C 189.855 3.47789 -2.49453 0
M  V30 2064 C 189.181 4.8553 -2.23975 0
M  V30 2065 C 190.481 3.45411 -3.91776 0
M  V30 2066 H 192.175 1.7629 -2.41997 0
M  V30 2067 H 189.721 0.846721 -1.16476 0
M  V30 2068 H 191.674 3.97528 -1.39821 0
M  V30 2069 H 190.398 3.24204 -0.394907 0
M  V30 2070 H 189.057 2.71657 -2.46166 0
M  V30 2071 H 188.705 4.87337 -1.24547 0
M  V30 2072 H 188.405 5.0573 -2.99184 0
M  V30 2073 H 189.929 5.66312 -2.28304 0
M  V30 2074 H 191.343 4.13882 -3.96705 0
M  V30 2075 H 189.74 3.77145 -4.66778 0
M  V30 2076 H 190.81 2.44122 -4.18966 0
M  V30 2077 N 192.153 1.28127 0.917671 0
M  V30 2078 C 193.083 1.14248 2.03641 0
M  V30 2079 C 194.064 0.0412748 1.7005 0
M  V30 2080 O 195.249 0.217566 1.92977 0
M  V30 2081 C 192.379 0.799431 3.37974 0
M  V30 2082 C 191.333 1.85497 3.85713 0
M  V30 2083 C 190.659 1.36565 5.16966 0
M  V30 2084 C 191.959 3.26085 4.08002 0
M  V30 2085 H 193.653 2.07835 2.15511 0
M  V30 2086 H 191.199 1.00064 1.03553 0
M  V30 2087 H 193.152 0.689114 4.15727 0
M  V30 2088 H 191.876 -0.172145 3.26146 0
M  V30 2089 H 190.535 1.95437 3.10161 0
M  V30 2090 H 190.183 0.383253 5.01538 0
M  V30 2091 H 189.883 2.07143 5.49878 0
M  V30 2092 H 191.407 1.26848 5.97279 0
M  V30 2093 H 192.821 3.19089 4.76293 0
M  V30 2094 H 191.218 3.94462 4.52238 0
M  V30 2095 H 192.288 3.70394 3.12948 0
M  V30 2096 N 193.631 -1.12557 1.10312 0
M  V30 2097 C 194.878 -1.84038 0.844759 0
M  V30 2098 C 195.206 -1.84026 -0.629668 0
M  V30 2099 O 194.461 -1.28026 -1.48013 0
M  V30 2100 C 194.76 -3.31462 1.33669 0
M  V30 2101 C 194.426 -3.51647 2.82232 0
M  V30 2102 C 193.088 -3.56864 3.22802 0
M  V30 2103 C 195.44 -3.58867 3.77974 0
M  V30 2104 C 192.768 -3.66844 4.57867 0
M  V30 2105 C 195.12 -3.70375 5.1284 0
M  V30 2106 C 193.784 -3.73848 5.52986 0
M  V30 2107 H 193.054 -0.673444 0.309119 0
M  V30 2108 H 195.701 -1.32824 1.37949 0
M  V30 2109 H 194.006 -3.85091 0.721949 0
M  V30 2110 H 195.703 -3.85236 1.11329 0
M  V30 2111 H 192.293 -3.48249 2.49842 0
M  V30 2112 H 196.477 -3.54107 3.47738 0
M  V30 2113 H 191.733 -3.67804 4.88396 0
M  V30 2114 H 195.907 -3.74904 5.86873 0
M  V30 2115 H 193.534 -3.81333 6.57639 0
M  V30 2116 N 195.109 -0.891671 -1.2995 0
M  V30 2117 C 196.337 -0.52866 -2.00032 0
M  V30 2118 C 196.752 0.884574 -1.66795 0
M  V30 2119 O 196.109 1.5827 -0.908669 0
M  V30 2120 C 196.16 -0.701814 -3.54622 0
M  V30 2121 O 195.881 -2.05942 -3.86678 0
M  V30 2122 C 197.382 -0.342683 -4.41973 0
M  V30 2123 H 194.602 -0.203659 -0.639347 0
M  V30 2124 H 197.146 -1.19881 -1.65677 0
M  V30 2125 H 195.301 -0.0789468 -3.8732 0
M  V30 2126 H 195.715 -2.08291 -4.81368 0
M  V30 2127 H 197.189 -0.514709 -5.49595 0
M  V30 2128 H 197.666 0.71975 -4.33262 0
M  V30 2129 H 198.272 -0.942154 -4.14733 0
M  V30 2130 N 196.587 1.43421 -0.653314 0
M  V30 2131 C 197.537 2.2792 0.060558 0
M  V30 2132 C 198.521 1.39906 0.794677 0
M  V30 2133 O 199.713 1.63536 0.677128 0
M  V30 2134 C 196.842 3.27603 1.0262 0
M  V30 2135 C 195.928 4.23104 0.290551 0
M  V30 2136 N 196.319 5.01031 -0.692967 0
M  V30 2137 C 194.617 4.42816 0.531984 0
M  V30 2138 C 195.318 5.70626 -1.12963 0
M  V30 2139 N 194.294 5.41617 -0.463867 0
M  V30 2140 H 198.096 2.85585 -0.694143 0
M  V30 2141 H 195.61 1.55126 -0.480602 0
M  V30 2142 H 197.607 3.86918 1.55242 0
M  V30 2143 H 196.267 2.71499 1.78096 0
M  V30 2144 H 197.278 5.0669 -1.07169 0
M  V30 2145 H 193.955 3.97782 1.26791 0
M  V30 2146 H 195.345 6.4318 -1.94343 0
M  V30 2147 N 198.065 0.39524 1.52563 0
M  V30 2148 C 198.995 -0.428384 2.29537 0
M  V30 2149 C 199.976 -1.05831 1.33169 0
M  V30 2150 O 201.161 -1.06995 1.62067 0
M  V30 2151 C 198.291 -1.55274 3.10656 0
M  V30 2152 C 197.245 -1.04855 4.14957 0
M  V30 2153 C 196.571 -2.26543 4.84337 0
M  V30 2154 C 197.871 -0.112324 5.22179 0
M  V30 2155 H 199.565 0.213867 2.98635 0
M  V30 2156 H 197.111 0.104298 1.43622 0
M  V30 2157 H 199.064 -2.1358 3.63265 0
M  V30 2158 H 197.788 -2.22266 2.39302 0
M  V30 2159 H 196.447 -0.487985 3.63338 0
M  V30 2160 H 196.095 -2.92059 4.09525 0
M  V30 2161 H 195.795 -1.93466 5.54837 0
M  V30 2162 H 197.319 -2.85481 5.39753 0
M  V30 2163 H 198.733 -0.603752 5.70112 0
M  V30 2164 H 197.13 0.128968 5.99961 0
M  V30 2165 H 198.2 0.837052 4.77621 0
M  V30 2166 N 199.544 -1.57102 0.125237 0
M  V30 2167 C 200.79 -1.95697 -0.532035 0
M  V30 2168 C 201.123 -1.009 -1.6593 0
M  V30 2169 O 200.398 -0.047347 -1.94442 0
M  V30 2170 C 200.681 -3.44181 -1.05884 0
M  V30 2171 C 200.534 -4.49752 0.0654392 0
M  V30 2172 C 201.853 -3.94655 -1.9477 0
M  V30 2173 H 198.972 -0.711571 -0.191925 0
M  V30 2174 H 201.614 -1.88923 0.20206 0
M  V30 2175 H 199.764 -3.50085 -1.68442 0
M  V30 2176 H 201.436 -4.55943 0.700982 0
M  V30 2177 H 199.679 -4.27653 0.727709 0
M  V30 2178 H 200.35 -5.50924 -0.344505 0
M  V30 2179 H 202.826 -3.91094 -1.42074 0
M  V30 2180 H 201.702 -4.99057 -2.28546 0
M  V30 2181 H 201.963 -3.35718 -2.87656 0
M  V30 2182 N 201.022 0.148545 -1.56898 0
M  V30 2183 C 202.268 0.862694 -1.83536 0
M  V30 2184 C 202.601 1.80889 -0.706604 0
M  V30 2185 O 201.876 1.92328 0.289885 0
M  V30 2186 C 202.159 1.63853 -3.20662 0
M  V30 2187 C 202.012 0.713925 -4.44098 0
M  V30 2188 C 203.331 2.60133 -3.54991 0
M  V30 2189 H 200.45 0.312179 -0.667618 0
M  V30 2190 H 203.092 0.127953 -1.89569 0
M  V30 2191 H 201.242 2.26489 -3.1565 0
M  V30 2192 H 202.914 0.098686 -4.61194 0
M  V30 2193 H 201.157 0.0234019 -4.33794 0
M  V30 2194 H 201.828 1.29278 -5.36648 0
M  V30 2195 H 204.304 2.07616 -3.60603 0
M  V30 2196 H 203.18 3.11468 -4.51972 0
M  V30 2197 H 203.441 3.41417 -2.80868 0
M  V30 2198 N 202.5 1.5196 0.417844 0
M  V30 2199 C 203.43 1.77634 1.51554 0
M  V30 2200 C 204.411 0.626918 1.58126 0
M  V30 2201 O 205.596 0.871632 1.7354 0
M  V30 2202 C 202.726 1.91911 2.8946 0
M  V30 2203 C 201.68 3.07463 2.97743 0
M  V30 2204 C 201.006 3.06951 4.37819 0
M  V30 2205 C 202.306 4.47082 2.70027 0
M  V30 2206 H 204 2.6955 1.3032 0
M  V30 2207 H 201.546 1.29706 0.625492 0
M  V30 2208 H 203.499 2.08455 3.6623 0
M  V30 2209 H 202.223 0.966598 3.11969 0
M  V30 2210 H 200.882 2.90656 2.23416 0
M  V30 2211 H 200.53 2.09438 4.57323 0
M  V30 2212 H 200.23 3.84556 4.44286 0
M  V30 2213 H 201.754 3.25613 5.16535 0
M  V30 2214 H 203.168 4.6414 3.36522 0
M  V30 2215 H 201.565 5.2654 2.87881 0
M  V30 2216 H 202.635 4.55777 1.65514 0
M  V30 2217 N 203.978 -0.674533 1.42435 0
M  V30 2218 C 205.206 -1.46283 1.46317 0
M  V30 2219 C 205.621 -1.88653 0.0745836 0
M  V30 2220 O 204.978 -1.58151 -0.91074 0
M  V30 2221 C 205.029 -2.71178 2.3905 0
M  V30 2222 O 204.75 -2.30586 3.72507 0
M  V30 2223 C 206.251 -3.64738 2.51955 0
M  V30 2224 H 203.471 -0.450104 0.497642 0
M  V30 2225 H 206.015 -0.828792 1.86953 0
M  V30 2226 H 204.17 -3.3077 2.01667 0
M  V30 2227 H 204.584 -3.11241 4.22172 0
M  V30 2228 H 206.058 -4.49096 3.20962 0
M  V30 2229 H 206.535 -4.10656 1.55752 0
M  V30 2230 H 207.141 -3.11038 2.90061 0
M  V30 2231 N 205.456 -1.28612 -0.910864 0
M  V30 2232 C 206.867 -1.14406 -1.47541 0
M  V30 2233 C 207.218 0.264901 -1.94403 0
M  V30 2234 O 206.343 1.15942 -1.82719 0
M  V30 2235 C 206.938 -2.07073 -2.68153 0
M  V30 2236 C 205.497 -1.96923 -3.20778 0
M  V30 2237 C 204.644 -1.98646 -1.93481 0
M  V30 2238 H 207.595 -1.41259 -0.723291 0
M  V30 2239 H 207.616 -1.63642 -3.43514 0
M  V30 2240 H 207.128 -3.09611 -2.34015 0
M  V30 2241 H 205.229 -0.97433 -3.59635 0
M  V30 2242 H 205.342 -2.84026 -3.85832 0
M  V30 2243 H 203.706 -1.43093 -2.10705 0
M  V30 2244 H 204.489 -3.02868 -1.61634 0
M  V30 2245 N 206.934 1.1197 -1.10907 0
M  V30 2246 C 207.881 2.17846 -0.762345 0
M  V30 2247 C 208.851 1.63995 0.263599 0
M  V30 2248 O 210.036 1.90273 0.141773 0
M  V30 2249 C 207.176 3.44487 -0.205651 0
M  V30 2250 C 206.289 4.12369 -1.28748 0
M  V30 2251 C 205.424 5.26674 -0.691919 0
M  V30 2252 C 204.463 5.86431 -1.75399 0
M  V30 2253 N 203.6 6.92142 -1.17833 0
M  V30 2254 H 208.44 2.46851 -1.6694 0
M  V30 2255 H 205.977 1.21188 -0.833776 0
M  V30 2256 H 207.935 4.16981 0.135037 0
M  V30 2257 H 206.565 3.15884 0.664613 0
M  V30 2258 H 205.617 3.38003 -1.74522 0
M  V30 2259 H 206.929 4.52844 -2.09125 0
M  V30 2260 H 206.083 6.05953 -0.300963 0
M  V30 2261 H 204.822 4.8749 0.143232 0
M  V30 2262 H 203.827 5.05835 -2.15432 0
M  V30 2263 H 205.052 6.27685 -2.59208 0
M  V30 2264 H 202.998 6.54985 -0.364725 0
M  V30 2265 H 202.915 7.31242 -1.91887 0
M  V30 2266 H 204.183 7.75237 -0.81408 0
M  V30 2267 N 208.412 0.89855 1.29475 0
M  V30 2268 C 209.375 0.380272 2.26023 0
M  V30 2269 C 210.375 -0.484891 1.53315 0
M  V30 2270 O 211.565 -0.290108 1.71767 0
M  V30 2271 C 208.697 -0.45651 3.3783 0
M  V30 2272 H 209.89 1.23295 2.73383 0
M  V30 2273 H 207.443 0.676589 1.40897 0
M  V30 2274 H 208.178 -1.32922 2.95808 0
M  V30 2275 H 207.963 0.163393 3.91759 0
M  V30 2276 H 209.453 -0.810466 4.0966 0
M  V30 2277 N 209.89 -1.43072 0.660911 0
M  V30 2278 C 210.822 -2.29108 -0.0647641 0
M  V30 2279 C 211.835 -1.42928 -0.779448 0
M  V30 2280 O 213.024 -1.66788 -0.635921 0
M  V30 2281 C 210.124 -3.20032 -1.11503 0
M  V30 2282 C 209.297 -4.34792 -0.476955 0
M  V30 2283 C 208.356 -5.06534 -1.42513 0
M  V30 2284 O 207.382 -5.61538 -0.930771 0
M  V30 2285 N 208.584 -5.1075 -2.75889 0
M  V30 2286 H 211.349 -2.92029 0.673731 0
M  V30 2287 H 208.91 -1.53846 0.50427 0
M  V30 2288 H 210.902 -3.64892 -1.75032 0
M  V30 2289 H 209.472 -2.58658 -1.75541 0
M  V30 2290 H 208.692 -3.92752 0.337572 0
M  V30 2291 H 209.98 -5.0879 -0.0318525 0
M  V30 2292 H 209.378 -4.67447 -3.18606 0
M  V30 2293 H 207.935 -5.59302 -3.347 0
M  V30 2294 N 211.368 -0.403325 -1.52352 0
M  V30 2295 C 212.784 -0.0539281 -1.59509 0
M  V30 2296 C 212.984 1.43307 -1.41652 0
M  V30 2297 O 212.04 2.19924 -1.24056 0
M  V30 2298 C 213.353 -0.543654 -2.95745 0
M  V30 2299 C 214.901 -0.501125 -3.08962 0
M  V30 2300 C 215.376 -0.967267 -4.47669 0
M  V30 2301 N 216.867 -0.923849 -4.53893 0
M  V30 2302 C 217.602 -1.25578 -5.5948 0
M  V30 2303 N 217.098 -1.65889 -6.72646 0
M  V30 2304 N 218.891 -1.17613 -5.49658 0
M  V30 2305 H 211.042 -1.37123 -1.62206 0
M  V30 2306 H 213.305 -0.56294 -0.76276 0
M  V30 2307 H 213.011 -1.58275 -3.14073 0
M  V30 2308 H 212.885 0.0498042 -3.77167 0
M  V30 2309 H 215.272 0.528909 -2.90321 0
M  V30 2310 H 215.353 -1.13056 -2.2946 0
M  V30 2311 H 214.997 -1.9956 -4.67053 0
M  V30 2312 H 214.927 -0.314698 -5.25659 0
M  V30 2313 H 217.418 -0.627403 -3.72655 0
M  V30 2314 H 217.731 -1.89543 -7.49195 0
M  V30 2315 H 216.076 -1.69787 -6.73942 0
M  V30 2316 H 219.267 -0.860115 -4.6013 0
M  V30 2317 H 219.44 -1.43812 -6.3184 0
M  V30 2318 N 212.846 1.57033 -0.133567 0
M  V30 2319 C 213.776 2.1909 0.807567 0
M  V30 2320 C 214.757 1.13517 1.26681 0
M  V30 2321 O 215.942 1.41809 1.32679 0
M  V30 2322 C 213.072 2.80188 2.05212 0
M  V30 2323 C 212.026 3.91471 1.73015 0
M  V30 2324 C 211.352 4.39443 3.04622 0
M  V30 2325 C 212.652 5.12886 0.987168 0
M  V30 2326 H 214.346 2.97988 0.290403 0
M  V30 2327 H 211.892 1.43335 0.138239 0
M  V30 2328 H 213.845 3.22264 2.71521 0
M  V30 2329 H 212.569 1.98601 2.59278 0
M  V30 2330 H 211.228 3.49993 1.0909 0
M  V30 2331 H 210.876 3.54695 3.56651 0
M  V30 2332 H 210.576 5.14495 2.83847 0
M  V30 2333 H 212.1 4.8418 3.72024 0
M  V30 2334 H 213.514 5.51891 1.55208 0
M  V30 2335 H 211.911 5.93615 0.87985 0
M  V30 2336 H 212.981 4.84894 -0.0235286 0
M  V30 2337 N 214.325 -0.140222 1.56975 0
M  V30 2338 C 215.741 -0.493088 1.51792 0
M  V30 2339 C 215.941 -1.83013 0.843116 0
M  V30 2340 O 214.997 -2.49041 0.416493 0
M  V30 2341 C 216.31 -0.497144 2.96562 0
M  V30 2342 C 217.858 -0.582186 3.07538 0
M  V30 2343 C 218.333 -0.616838 4.53827 0
M  V30 2344 N 219.824 -0.678873 4.58198 0
M  V30 2345 C 220.559 -0.726782 5.68775 0
M  V30 2346 N 220.055 -0.733623 6.88905 0
M  V30 2347 N 221.848 -0.768179 5.56826 0
M  V30 2348 H 213.999 0.736108 1.99237 0
M  V30 2349 H 216.262 0.269182 0.90898 0
M  V30 2350 H 215.968 0.417217 3.49217 0
M  V30 2351 H 215.842 -1.33263 3.52875 0
M  V30 2352 H 218.229 -1.48697 2.54899 0
M  V30 2353 H 218.31 0.280581 2.54257 0
M  V30 2354 H 217.954 0.283812 5.07106 0
M  V30 2355 H 217.884 -1.49619 5.04898 0
M  V30 2356 H 220.375 -0.68061 3.7172 0
M  V30 2357 H 220.688 -0.772215 7.68932 0
M  V30 2358 H 219.033 -0.701389 6.91452 0
M  V30 2359 H 222.224 -0.760051 4.61888 0
M  V30 2360 H 222.397 -0.80205 6.43017 0
M  V30 2361 N 215.803 -1.52179 -0.40978 0
M  V30 2362 C 216.713 -1.78364 -1.52392 0
M  V30 2363 C 217.729 -0.669183 -1.60617 0
M  V30 2364 O 218.905 -0.954518 -1.77344 0
M  V30 2365 C 215.97 -1.92822 -2.88133 0
M  V30 2366 C 215.031 -3.16725 -2.898 0
M  V30 2367 C 214.264 -3.30483 -4.19067 0
M  V30 2368 O 214.487 -2.49522 -5.12928 0
M  V30 2369 O 213.421 -4.2363 -4.27576 0
M  V30 2370 H 217.247 -2.72931 -1.33201 0
M  V30 2371 H 214.832 -1.37016 -0.59557 0
M  V30 2372 H 216.714 -2.04157 -3.68643 0
M  V30 2373 H 215.389 -1.01444 -3.07393 0
M  V30 2374 H 214.296 -3.10848 -2.08146 0
M  V30 2375 H 215.629 -4.07881 -2.75489 0
M  V30 2376 N 217.281 0.66697 -1.42791 0
M  V30 2377 C 218.529 1.42417 -1.43394 0
M  V30 2378 C 218.85 1.94925 -0.0542373 0
M  V30 2379 O 218.12 1.73564 0.908415 0
M  V30 2380 H 216.7 0.528515 -0.527902 0
M  V30 2381 H 219.362 0.787562 -1.78279 0
M  V30 2382 H 218.458 2.27333 -2.13837 0
M  V30 2383 N 218.759 1.29093 0.90403 0
M  V30 2384 C 219.669 1.15727 2.0407 0
M  V30 2385 C 220.685 0.0815308 1.73809 0
M  V30 2386 O 221.861 0.292749 1.99261 0
M  V30 2387 C 218.926 0.830424 3.36608 0
M  V30 2388 C 217.987 1.98955 3.80415 0
M  V30 2389 C 217.22 1.6782 5.06628 0
M  V30 2390 O 217.443 0.597105 5.67266 0
M  V30 2391 O 216.377 2.52486 5.46383 0
M  V30 2392 H 220.203 2.11171 2.18267 0
M  V30 2393 H 217.788 1.08504 1.027 0
M  V30 2394 H 219.67 0.662521 4.16159 0
M  V30 2395 H 218.345 -0.0942678 3.23563 0
M  V30 2396 H 217.252 2.21267 3.01648 0
M  V30 2397 H 218.585 2.89529 3.98037 0
M  V30 2398 N 220.237 -1.11381 1.11499 0
M  V30 2399 C 221.648 -1.6465 0.880191 0
M  V30 2400 C 221.999 -1.87199 -0.587434 0
M  V30 2401 O 221.124 -1.60667 -1.44966 0
M  V30 2402 C 221.719 -2.99105 1.59128 0
M  V30 2403 C 220.278 -3.49279 1.40289 0
M  V30 2404 C 219.425 -2.24077 1.63354 0
M  V30 2405 H 222.376 -0.950123 1.27116 0
M  V30 2406 H 222.397 -3.66107 1.03664 0
M  V30 2407 H 221.909 -2.82661 2.65941 0
M  V30 2408 H 220.01 -3.70887 0.356888 0
M  V30 2409 H 220.123 -4.2803 2.15238 0
M  V30 2410 H 218.487 -2.31733 1.05698 0
M  V30 2411 H 219.27 -2.10175 2.71443 0
M  V30 2412 N 221.715 -0.905404 -1.28997 0
M  V30 2413 C 222.963 -0.533192 -1.9494 0
M  V30 2414 C 223.284 0.924618 -1.71685 0
M  V30 2415 O 222.554 1.65268 -1.05183 0
M  V30 2416 H 221.134 -0.194194 -0.721317 0
M  V30 2417 H 223.796 -1.15294 -1.57141 0
M  V30 2418 H 222.892 -0.72059 -3.03667 0
M  V30 2419 N 223.193 1.4272 -0.668489 0
M  V30 2420 C 224.439 2.02443 -0.197076 0
M  V30 2421 C 224.794 1.51882 1.18109 0
M  V30 2422 O 224.087 0.708618 1.78015 0
M  V30 2423 C 224.281 3.57021 -0.164499 0
M  V30 2424 C 224.11 4.22583 -1.53797 0
M  V30 2425 C 222.88 4.58019 -2.13416 0
M  V30 2426 C 225.078 4.50588 -2.47941 0
M  V30 2427 N 223.06 5.08729 -3.4361 0
M  V30 2428 C 224.431 5.02782 -3.62782 0
M  V30 2429 C 226.486 4.32571 -2.46551 0
M  V30 2430 C 225.189 5.38852 -4.76478 0
M  V30 2431 C 227.215 4.69713 -3.59338 0
M  V30 2432 C 226.577 5.22053 -4.72906 0
M  V30 2433 H 222.676 0.773214 -0.116894 0
M  V30 2434 H 225.26 1.73673 -0.880108 0
M  V30 2435 H 223.431 3.85323 0.487925 0
M  V30 2436 H 225.163 4.03439 0.319207 0
M  V30 2437 H 221.918 4.43566 -1.65969 0
M  V30 2438 H 222.342 5.38521 -4.10273 0
M  V30 2439 H 226.984 3.91365 -1.59978 0
M  V30 2440 H 224.702 5.78993 -5.63731 0
M  V30 2441 H 228.288 4.57454 -3.59482 0
M  V30 2442 H 227.168 5.50258 -5.58736 0
M  V30 2443 N 224.671 0.411399 1.52136 0
M  V30 2444 C 225.917 -0.163888 2.02137 0
M  V30 2445 C 226.25 -1.44597 1.29636 0
M  V30 2446 O 225.525 -1.90272 0.403353 0
M  V30 2447 C 225.808 -0.40927 3.57767 0
M  V30 2448 C 225.661 0.889643 4.40914 0
M  V30 2449 C 226.98 -1.19042 4.23694 0
M  V30 2450 H 224.099 -0.0580896 0.734707 0
M  V30 2451 H 226.741 0.54531 1.82007 0
M  V30 2452 H 224.891 -1.0134 3.7505 0
M  V30 2453 H 226.563 1.52575 4.35337 0
M  V30 2454 H 224.806 1.50011 4.07037 0
M  V30 2455 H 225.477 0.672314 5.4789 0
M  V30 2456 H 227.953 -0.678942 4.10524 0
M  V30 2457 H 226.829 -1.33086 5.32522 0
M  V30 2458 H 227.09 -2.21166 3.82803 0
M  V30 2459 N 226.149 -1.5696 0.141893 0
M  V30 2460 C 227.099 -2.13074 -0.811383 0
M  V30 2461 C 228.083 -1.05726 -1.21288 0
M  V30 2462 O 229.275 -1.31914 -1.18015 0
M  V30 2463 C 226.404 -2.75186 -2.0525 0
M  V30 2464 C 225.49 -3.8965 -1.67432 0
M  V30 2465 N 225.881 -4.95733 -1.0041 0
M  V30 2466 C 224.179 -4.00262 -1.96739 0
M  V30 2467 C 224.88 -5.75858 -0.822345 0
M  V30 2468 N 223.856 -5.26452 -1.3546 0
M  V30 2469 H 227.658 -2.92465 -0.290031 0
M  V30 2470 H 225.172 -1.6229 -0.0598218 0
M  V30 2471 H 227.169 -3.13745 -2.74535 0
M  V30 2472 H 225.829 -1.97266 -2.57907 0
M  V30 2473 H 226.84 -5.13607 -0.665441 0
M  V30 2474 H 223.517 -3.33412 -2.51282 0
M  V30 2475 H 224.907 -6.71254 -0.294496 0
M  V30 2476 N 227.627 0.131896 -1.57047 0
M  V30 2477 C 229.038 0.690407 -1.73465 0
M  V30 2478 C 229.389 1.8094 -0.758629 0
M  V30 2479 O 228.514 2.16282 0.0713813 0
M  V30 2480 C 229.109 1.25916 -3.14532 0
M  V30 2481 C 227.668 1.76409 -3.32501 0
M  V30 2482 C 226.815 0.658579 -2.69366 0
M  V30 2483 H 229.766 -0.0939144 -1.58422 0
M  V30 2484 H 229.787 2.12892 -3.15369 0
M  V30 2485 H 229.299 0.444515 -3.85546 0
M  V30 2486 H 227.4 2.60391 -2.66509 0
M  V30 2487 H 227.513 1.88241 -4.4057 0
M  V30 2488 H 225.877 1.08899 -2.30246 0
M  V30 2489 H 226.66 -0.14487 -3.42994 0
M  V30 2490 N 229.106 1.52395 0.401703 0
M  V30 2491 C 230.522 1.41363 0.740864 0
M  V30 2492 C 230.722 0.523982 1.94568 0
M  V30 2493 O 229.778 -0.00741204 2.52499 0
M  V30 2494 C 231.091 2.84011 0.987847 0
M  V30 2495 C 232.639 2.93404 1.09011 0
M  V30 2496 C 233.114 4.37036 1.3698 0
M  V30 2497 N 234.605 4.40304 1.43829 0
M  V30 2498 C 235.34 5.48508 1.67112 0
M  V30 2499 N 234.836 6.66819 1.87949 0
M  V30 2500 N 236.629 5.36034 1.69187 0
M  V30 2501 H 228.78 2.08765 -0.391262 0
M  V30 2502 H 231.043 0.941265 -0.112798 0
M  V30 2503 H 230.749 3.51265 0.174835 0
M  V30 2504 H 230.623 3.25502 1.906 0
M  V30 2505 H 233.01 2.26325 1.8937 0
M  V30 2506 H 233.091 2.55359 0.15015 0
M  V30 2507 H 232.735 5.04676 0.571353 0
M  V30 2508 H 232.665 4.72623 2.3224 0
M  V30 2509 H 235.156 3.55024 1.29486 0
M  V30 2510 H 235.469 7.45063 2.05185 0
M  V30 2511 H 233.814 6.6987 1.85199 0
M  V30 2512 H 237.005 4.42579 1.52451 0
M  V30 2513 H 237.178 6.20434 1.86993 0
M  V30 2514 N 230.584 -0.659388 1.43143 0
M  V30 2515 C 231.832 -1.41654 1.44147 0
M  V30 2516 C 232.153 -1.94893 0.0645739 0
M  V30 2517 O 231.423 -1.74044 -0.899198 0
M  V30 2518 H 230.003 -0.525708 0.530697 0
M  V30 2519 H 232.665 -0.778097 1.78694 0
M  V30 2520 H 231.761 -2.26195 2.1504 0
M  V30 2521 N 232.062 -1.29571 -0.897171 0
M  V30 2522 C 233.308 -1.17863 -1.65034 0
M  V30 2523 C 233.641 0.268729 -1.92332 0
M  V30 2524 O 232.916 1.19378 -1.53555 0
M  V30 2525 C 233.199 -1.995 -2.99786 0
M  V30 2526 C 233.052 -3.5239 -2.79538 0
M  V30 2527 C 234.371 -1.82335 -4.00552 0
M  V30 2528 H 231.49 -0.429528 -0.598895 0
M  V30 2529 H 234.132 -1.59072 -1.03905 0
M  V30 2530 H 232.282 -1.64485 -3.51962 0
M  V30 2531 H 233.954 -3.97401 -2.34244 0
M  V30 2532 H 232.197 -3.77187 -2.14273 0
M  V30 2533 H 232.868 -4.04787 -3.75302 0
M  V30 2534 H 235.344 -2.12924 -3.57495 0
M  V30 2535 H 234.22 -2.41801 -4.92771 0
M  V30 2536 H 234.481 -0.779209 -4.35179 0
M  V30 2537 N 233.54 1.10788 -1.12088 0
M  V30 2538 C 234.45 2.20599 -0.798338 0
M  V30 2539 C 235.466 1.72712 0.21135 0
M  V30 2540 O 236.642 2.01348 0.0458477 0
M  V30 2541 C 233.707 3.45771 -0.253674 0
M  V30 2542 C 232.768 4.08411 -1.32283 0
M  V30 2543 C 232.001 5.27608 -0.80406 0
M  V30 2544 O 232.224 5.69241 0.363478 0
M  V30 2545 O 231.158 5.8101 -1.57198 0
M  V30 2546 H 234.984 2.50614 -1.7154 0
M  V30 2547 H 232.569 1.19454 -0.897275 0
M  V30 2548 H 234.451 4.21376 0.0453691 0
M  V30 2549 H 233.126 3.1739 0.636005 0
M  V30 2550 H 232.033 3.34507 -1.67499 0
M  V30 2551 H 233.366 4.40986 -2.18614 0
M  V30 2552 N 235.018 0.912232 1.28515 0
M  V30 2553 C 235.95 0.35676 2.26406 0
M  V30 2554 C 236.963 -0.503933 1.54804 0
M  V30 2555 O 238.152 -0.319059 1.75625 0
M  V30 2556 C 235.252 -0.508825 3.35058 0
M  V30 2557 C 234.425 0.329007 4.36161 0
M  V30 2558 C 233.484 -0.471422 5.24084 0
M  V30 2559 O 232.51 0.115482 5.69083 0
M  V30 2560 N 233.712 -1.77479 5.52704 0
M  V30 2561 H 236.477 1.19818 2.74707 0
M  V30 2562 H 234.038 0.778022 1.4198 0
M  V30 2563 H 236.03 -1.051 3.90815 0
M  V30 2564 H 234.6 -1.25095 2.86478 0
M  V30 2565 H 233.82 1.05256 3.79888 0
M  V30 2566 H 235.108 0.90234 5.00735 0
M  V30 2567 H 234.506 -2.27417 5.17975 0
M  V30 2568 H 233.063 -2.26382 6.11224 0
M  V30 2569 N 236.496 -1.42363 0.676048 0
M  V30 2570 C 237.912 -1.55811 0.345718 0
M  V30 2571 C 238.112 -1.65544 -1.14879 0
M  V30 2572 O 237.168 -1.62306 -1.93424 0
M  V30 2573 C 238.481 -2.80746 1.07713 0
M  V30 2574 C 240.029 -2.9452 1.05958 0
M  V30 2575 C 240.504 -4.22318 1.77233 0
M  V30 2576 N 241.995 -4.29233 1.74108 0
M  V30 2577 C 242.73 -5.26935 2.26113 0
M  V30 2578 N 242.226 -6.30783 2.86505 0
M  V30 2579 N 244.019 -5.18741 2.1648 0
M  V30 2580 H 236.17 -1.34289 1.6456 0
M  V30 2581 H 238.433 -0.646506 0.69335 0
M  V30 2582 H 238.139 -2.79696 2.13221 0
M  V30 2583 H 238.013 -3.71676 0.64316 0
M  V30 2584 H 240.4 -2.95097 0.0128255 0
M  V30 2585 H 240.481 -2.04817 1.53244 0
M  V30 2586 H 240.125 -4.22502 2.81877 0
M  V30 2587 H 240.055 -5.10958 1.27396 0
M  V30 2588 H 242.546 -3.54814 1.30059 0
M  V30 2589 H 242.859 -7.01691 3.23805 0
M  V30 2590 H 241.204 -6.31341 2.90575 0
M  V30 2591 H 244.395 -4.36533 1.68987 0
M  V30 2592 H 244.568 -5.94721 2.57316 0
M  V30 2593 N 237.974 -0.419461 -1.51915 0
M  V30 2594 C 238.922 0.415502 -2.28859 0
M  V30 2595 C 239.916 1.03674 -1.3397 0
M  V30 2596 O 241.122 0.973757 -1.51387 0
M  V30 2597 H 237.497 0.152786 -0.736315 0
M  V30 2598 H 239.468 -0.254531 -2.97312 0
M  V30 2599 C 238.217 1.51425 -3.12995 0
M  V30 2600 H 237.54 1.04556 -3.85886 0
M  V30 2601 H 238.98 2.07208 -3.6992 0
M  V30 2602 C 237.439 2.48745 -2.27217 0
M  V30 2603 O 237.969 3.52871 -1.9195 0
M  V30 2604 N 236.175 2.19202 -1.90785 0
M  V30 2605 H 235.722 1.34556 -2.19664 0
M  V30 2606 H 235.68 2.84561 -1.33687 0
M  V30 2607 N 239.452 1.56882 -0.150215 0
M  V30 2608 C 240.399 2.16922 0.788244 0
M  V30 2609 C 241.369 1.10303 1.24187 0
M  V30 2610 O 242.554 1.38359 1.31383 0
M  V30 2611 C 239.694 2.79754 2.02068 0
M  V30 2612 C 238.807 4.00775 1.61257 0
M  V30 2613 C 237.942 4.51595 2.79705 0
M  V30 2614 C 236.981 5.65074 2.35282 0
M  V30 2615 N 236.118 6.10499 3.4675 0
M  V30 2616 H 240.958 2.96779 0.269444 0
M  V30 2617 H 238.495 1.46599 0.12128 0
M  V30 2618 H 240.453 3.14329 2.74323 0
M  V30 2619 H 239.083 2.02536 2.51354 0
M  V30 2620 H 238.135 3.72158 0.787553 0
M  V30 2621 H 239.447 4.82978 1.24633 0
M  V30 2622 H 238.601 4.88242 3.60145 0
M  V30 2623 H 237.34 3.68406 3.19576 0
M  V30 2624 H 236.345 5.28 1.53283 0
M  V30 2625 H 237.57 6.50052 1.96493 0
M  V30 2626 H 235.516 5.30243 3.86236 0
M  V30 2627 H 235.433 6.87637 3.14152 0
M  V30 2628 H 236.701 6.51791 4.27537 0
M  V30 2629 N 240.93 -0.123565 1.57115 0
M  V30 2630 C 241.893 -1.13583 1.99076 0
M  V30 2631 C 242.893 -1.34564 0.880296 0
M  V30 2632 O 244.083 -1.31158 1.14644 0
M  V30 2633 C 241.215 -2.49128 2.32698 0
M  V30 2634 H 242.408 -0.775287 2.89706 0
M  V30 2635 H 239.961 -0.36771 1.51913 0
M  V30 2636 H 240.696 -2.90111 1.44934 0
M  V30 2637 H 240.481 -2.35255 3.13684 0
M  V30 2638 H 241.971 -3.2199 2.65918 0
M  V30 2639 N 242.408 -1.52605 -0.393616 0
M  V30 2640 C 243.338 -1.80022 -1.48709 0
M  V30 2641 C 244.319 -0.651995 -1.57108 0
M  V30 2642 O 245.504 -0.89913 -1.72132 0
M  V30 2643 C 242.634 -1.96492 -2.86371 0
M  V30 2644 C 241.588 -3.12161 -2.92813 0
M  V30 2645 C 240.914 -3.13877 -4.3288 0
M  V30 2646 C 242.214 -4.51322 -2.6288 0
M  V30 2647 H 243.908 -2.71589 -1.26015 0
M  V30 2648 H 241.454 -1.30684 -0.604778 0
M  V30 2649 H 243.407 -2.14255 -3.62867 0
M  V30 2650 H 242.131 -1.01611 -3.10391 0
M  V30 2651 H 240.79 -2.94173 -2.18764 0
M  V30 2652 H 240.438 -2.16687 -4.53933 0
M  V30 2653 H 240.138 -3.91576 -4.38112 0
M  V30 2654 H 241.662 -3.33789 -5.1129 0
M  V30 2655 H 243.076 -4.69435 -3.29096 0
M  V30 2656 H 241.473 -5.31053 -2.79468 0
M  V30 2657 H 242.543 -4.58353 -1.58242 0
M  V30 2658 N 243.887 0.651787 -1.4349 0
M  V30 2659 C 245.164 1.40909 -1.35661 0
M  V30 2660 C 245.544 2.11099 -0.00511733 0
M  V30 2661 O 244.892 2.04892 1.0115 0
M  V30 2662 C 245.102 2.3926 -2.54078 0
M  V30 2663 C 246.45 3.03217 -2.97228 0
M  V30 2664 O 247.474 2.49588 -2.54135 0
M  V30 2665 O 246.333 4.00455 -3.71885 0
M  V30 2666 H 243.427 0.629625 -0.536191 0
M  V30 2667 H 245.973 0.678575 -1.55542 0
M  V30 2668 H 244.745 1.86352 -3.44076 0
M  V30 2669 H 244.368 3.1976 -2.36303 0
M  V30 2670 N 245.365 1.30045 0.890287 0
M  V30 2671 C 246.611 1.19747 1.64415 0
M  V30 2672 C 246.966 -0.246591 1.90813 0
M  V30 2673 O 246.259 -1.174 1.51419 0
M  V30 2674 C 246.453 1.95409 2.99249 0
M  V30 2675 C 246.282 3.47025 2.86013 0
M  V30 2676 C 245.052 4.1638 2.86279 0
M  V30 2677 C 247.25 4.42353 2.62351 0
M  V30 2678 N 245.232 5.54293 2.63879 0
M  V30 2679 C 246.603 5.67792 2.49022 0
M  V30 2680 C 248.658 4.32009 2.47533 0
M  V30 2681 C 247.361 6.8406 2.22383 0
M  V30 2682 C 249.387 5.48038 2.22279 0
M  V30 2683 C 248.749 6.72455 2.09722 0
M  V30 2684 H 244.848 0.493223 0.60684 0
M  V30 2685 H 247.432 1.6399 1.04954 0
M  V30 2686 H 245.603 1.53565 3.56752 0
M  V30 2687 H 247.335 1.77298 3.63796 0
M  V30 2688 H 244.09 3.68164 2.97913 0
M  V30 2689 H 244.514 6.26852 2.55706 0
M  V30 2690 H 249.156 3.36503 2.55979 0
M  V30 2691 H 246.874 7.79612 2.12675 0
M  V30 2692 H 250.46 5.41939 2.11643 0
M  V30 2693 H 249.34 7.60722 1.90453 0
M  V30 2694 N 246.843 -1.10192 1.12674 0
M  V30 2695 C 247.773 -2.18652 0.819362 0
M  V30 2696 C 248.754 -1.68698 -0.217915 0
M  V30 2697 O 249.939 -1.94041 -0.0785581 0
M  V30 2698 C 247.069 -3.46202 0.27594 0
M  V30 2699 C 246.023 -4.09444 1.24656 0
M  V30 2700 C 245.349 -5.31725 0.563258 0
M  V30 2701 C 246.649 -4.52863 2.60217 0
M  V30 2702 H 248.343 -2.44622 1.72628 0
M  V30 2703 H 245.889 -1.17571 0.831451 0
M  V30 2704 H 247.842 -4.21372 0.0486149 0
M  V30 2705 H 246.566 -3.1973 -0.666331 0
M  V30 2706 H 245.225 -3.36284 1.45974 0
M  V30 2707 H 244.873 -5.0153 -0.384235 0
M  V30 2708 H 244.573 -5.74991 1.21075 0
M  V30 2709 H 246.097 -6.09624 0.34503 0
M  V30 2710 H 247.511 -5.19294 2.42913 0
M  V30 2711 H 245.908 -5.06986 3.21068 0
M  V30 2712 H 246.978 -3.65656 3.18471 0
M  V30 2713 N 248.321 -0.919034 -1.28029 0
M  V30 2714 C 249.737 -0.617972 -1.4715 0
M  V30 2715 C 249.937 0.835242 -1.83374 0
M  V30 2716 O 248.993 1.61388 -1.94191 0
M  V30 2717 C 250.306 -1.56041 -2.57044 0
M  V30 2718 C 251.854 -1.56769 -2.7091 0
M  V30 2719 C 252.329 -2.49688 -3.83953 0
M  V30 2720 N 253.82 -2.47845 -3.91314 0
M  V30 2721 C 254.555 -3.16437 -4.78179 0
M  V30 2722 N 254.051 -3.94376 -5.69596 0
M  V30 2723 N 255.844 -3.05498 -4.71834 0
M  V30 2724 H 247.995 -1.85866 -1.02798 0
M  V30 2725 H 250.258 -0.797506 -0.512531 0
M  V30 2726 H 249.964 -2.59671 -2.372 0
M  V30 2727 H 249.838 -1.29551 -3.54255 0
M  V30 2728 H 252.225 -0.538745 -2.90141 0
M  V30 2729 H 252.306 -1.87305 -1.74214 0
M  V30 2730 H 251.95 -3.52688 -3.65477 0
M  V30 2731 H 251.88 -2.16453 -4.80058 0
M  V30 2732 H 254.371 -1.91234 -3.25941 0
M  V30 2733 H 254.684 -4.43721 -6.32718 0
M  V30 2734 H 253.029 -3.98481 -5.69419 0
M  V30 2735 H 256.22 -2.44108 -3.99411 0
M  V30 2736 H 256.393 -3.59225 -5.39316 0
M  V30 2737 N 249.799 1.42003 -0.683588 0
M  V30 2738 C 251.047 2.01015 -0.209101 0
M  V30 2739 C 251.368 1.54365 1.19149 0
M  V30 2740 O 250.638 0.769083 1.80172 0
M  V30 2741 H 249.218 0.743294 -0.074315 0
M  V30 2742 H 251.88 1.73798 -0.882066 0
M  V30 2743 H 250.976 3.11343 -0.2172 0
M  V30 2744 N 251.277 0.427512 1.51691 0
M  V30 2745 C 252.693 0.0792977 1.59403 0
M  V30 2746 C 252.893 -1.41035 1.43914 0
M  V30 2747 O 251.949 -2.17922 1.27539 0
M  V30 2748 C 253.262 0.590636 2.94842 0
M  V30 2749 C 254.81 0.550215 3.08126 0
M  V30 2750 C 255.285 1.03836 4.46074 0
M  V30 2751 N 256.776 0.995943 4.52366 0
M  V30 2752 C 257.511 1.34463 5.57411 0
M  V30 2753 N 257.007 1.76569 6.69922 0
M  V30 2754 N 258.8 1.26343 5.47717 0
M  V30 2755 H 250.951 1.39687 1.60004 0
M  V30 2756 H 253.214 0.575003 0.753708 0
M  V30 2757 H 252.92 1.63251 3.11516 0
M  V30 2758 H 252.794 0.0102061 3.77199 0
M  V30 2759 H 255.181 -0.482654 2.91126 0
M  V30 2760 H 255.262 1.16693 2.27632 0
M  V30 2761 H 254.906 2.06965 4.63819 0
M  V30 2762 H 254.836 0.398286 5.25092 0
M  V30 2763 H 257.327 0.68661 3.7161 0
M  V30 2764 H 257.64 2.01438 7.46085 0
M  V30 2765 H 255.985 1.80488 6.71155 0
M  V30 2766 H 259.176 0.933209 4.58703 0
M  V30 2767 H 259.349 1.53846 6.29472 0
M  V30 2768 N 252.755 -1.56801 0.158532 0
M  V30 2769 C 254.003 -1.96102 -0.488712 0
M  V30 2770 C 254.324 -1.04498 -1.64636 0
M  V30 2771 O 253.594 -0.108783 -1.95598 0
M  V30 2772 H 252.174 -0.724102 -0.183535 0
M  V30 2773 H 254.836 -1.93457 0.236728 0
M  V30 2774 H 253.932 -3.00097 -0.857219 0
M  V30 2775 N 254.233 0.115231 -1.57178 0
M  V30 2776 C 255.481 0.820727 -1.84685 0
M  V30 2777 C 255.802 1.80237 -0.744279 0
M  V30 2778 O 255.072 1.94529 0.231375 0
M  V30 2779 H 253.652 0.306084 -0.681411 0
M  V30 2780 H 256.314 0.101656 -1.94635 0
M  V30 2781 H 255.41 1.36366 -2.80733 0
M  V30 2782 N 255.711 1.52812 0.385517 0
M  V30 2783 C 256.674 1.77188 1.45386 0
M  V30 2784 C 257.674 0.641953 1.4743 0
M  V30 2785 O 258.864 0.910033 1.4854 0
M  V30 2786 C 255.996 1.87582 2.8465 0
M  V30 2787 H 257.189 2.72583 1.25054 0
M  V30 2788 H 254.742 1.43586 0.617467 0
M  V30 2789 H 255.477 0.941849 3.10322 0
M  V30 2790 H 255.262 2.69748 2.84567 0
M  V30 2791 H 256.752 2.08102 3.62054 0
M  V30 2792 N 257.189 -0.644168 1.43834 0
M  V30 2793 C 258.435 -1.40603 1.46146 0
M  V30 2794 C 258.768 -1.93997 0.0887717 0
M  V30 2795 O 258.043 -1.72854 -0.891724 0
M  V30 2796 C 258.326 -2.58086 2.51124 0
M  V30 2797 C 258.179 -2.10126 3.97702 0
M  V30 2798 C 259.498 -3.60291 2.52742 0
M  V30 2799 H 256.617 -0.509905 0.532134 0
M  V30 2800 H 259.259 -0.729502 1.75437 0
M  V30 2801 H 257.409 -3.15801 2.26278 0
M  V30 2802 H 259.081 -1.57342 4.33637 0
M  V30 2803 H 257.324 -1.41419 4.10101 0
M  V30 2804 H 257.995 -2.94649 4.66783 0
M  V30 2805 H 260.471 -3.12352 2.7491 0
M  V30 2806 H 259.347 -4.40032 3.28121 0
M  V30 2807 H 259.608 -4.1349 1.56455 0
M  V30 2808 N 258.668 -1.30515 -0.883378 0
M  V30 2809 C 259.916 -1.19194 -1.63209 0
M  V30 2810 C 260.237 0.253205 -1.93349 0
M  V30 2811 O 259.507 1.17025 -1.57105 0
M  V30 2812 H 258.087 -0.438148 -0.605009 0
M  V30 2813 H 260.749 -1.63663 -1.05832 0
M  V30 2814 H 259.845 -1.75396 -2.58153 0
M  V30 2815 N 260.146 1.09593 -1.13257 0
M  V30 2816 C 261.394 1.81375 -0.891492 0
M  V30 2817 C 261.715 1.86049 0.584009 0
M  V30 2818 O 260.985 1.34481 1.42449 0
M  V30 2819 H 259.565 0.671708 -0.326828 0
M  V30 2820 H 262.227 1.3256 -1.42877 0
M  V30 2821 H 261.323 2.84612 -1.28071 0
M  V30 2822 N 261.624 0.925811 1.2754 0
M  V30 2823 C 262.534 0.428993 2.30644 0
M  V30 2824 C 263.55 -0.489387 1.66976 0
M  V30 2825 O 264.726 -0.372653 1.97922 0
M  V30 2826 C 261.791 -0.311967 3.45294 0
M  V30 2827 C 260.852 0.641098 4.24486 0
M  V30 2828 C 260.085 -0.0645955 5.33661 0
M  V30 2829 O 260.308 -1.28429 5.55754 0
M  V30 2830 O 259.242 0.606265 5.98839 0
M  V30 2831 H 263.068 1.28504 2.75173 0
M  V30 2832 H 260.653 0.691086 1.32455 0
M  V30 2833 H 262.535 -0.729972 4.15029 0
M  V30 2834 H 261.21 -1.14365 3.02824 0
M  V30 2835 H 260.117 1.10874 3.57292 0
M  V30 2836 H 261.45 1.43995 4.70666 0
M  V30 2837 N 263.102 -1.41638 0.69111 0
M  V30 2838 C 264.049 -2.30789 0.0229705 0
M  V30 2839 C 265.019 -1.46863 -0.775911 0
M  V30 2840 O 266.204 -1.75661 -0.74485 0
M  V30 2841 C 263.344 -3.32868 -0.910666 0
M  V30 2842 C 262.457 -4.31875 -0.103874 0
M  V30 2843 C 261.592 -5.21024 -1.03475 0
M  V30 2844 C 260.631 -6.11702 -0.220598 0
M  V30 2845 N 259.768 -6.93349 -1.10504 0
M  V30 2846 H 264.608 -2.87366 0.788978 0
M  V30 2847 H 262.145 -1.41535 0.400794 0
M  V30 2848 H 264.103 -3.90596 -1.46597 0
M  V30 2849 H 262.733 -2.77851 -1.64312 0
M  V30 2850 H 261.785 -3.76131 0.568285 0
M  V30 2851 H 263.097 -4.96003 0.527504 0
M  V30 2852 H 262.251 -5.83565 -1.65943 0
M  V30 2853 H 260.99 -4.57112 -1.69999 0
M  V30 2854 H 259.995 -5.48215 0.417187 0
M  V30 2855 H 261.22 -6.77668 0.440784 0
M  V30 2856 H 259.166 -6.3205 -1.75638 0
M  V30 2857 H 259.083 -7.54146 -0.529125 0
M  V30 2858 H 260.351 -7.60362 -1.71667 0
M  V30 2859 N 264.58 -0.43555 -1.51462 0
M  V30 2860 C 265.857 0.191364 -1.94662 0
M  V30 2861 C 266.237 1.60254 -1.37411 0
M  V30 2862 O 265.585 2.2152 -0.560458 0
M  V30 2863 C 265.795 0.17091 -3.48581 0
M  V30 2864 C 267.143 0.377357 -4.2292 0
M  V30 2865 O 268.167 0.249104 -3.55328 0
M  V30 2866 O 267.026 0.63247 -5.42828 0
M  V30 2867 H 264.12 0.130932 -0.816569 0
M  V30 2868 H 266.666 -0.4934 -1.62369 0
M  V30 2869 H 265.438 -0.815738 -3.82703 0
M  V30 2870 H 265.061 0.898659 -3.87311 0
M  V30 2871 N 266.058 1.56714 -0.166846 0
M  V30 2872 C 267.469 1.83378 0.350646 0
M  V30 2873 C 267.82 1.08646 1.63372 0
M  V30 2874 O 266.945 0.338058 2.13743 0
M  V30 2875 C 267.54 3.32643 0.642963 0
M  V30 2876 C 266.099 3.59818 1.10491 0
M  V30 2877 C 265.246 2.76954 0.138411 0
M  V30 2878 H 268.197 1.53803 -0.391193 0
M  V30 2879 H 268.218 3.49878 1.49551 0
M  V30 2880 H 267.73 3.87007 -0.291055 0
M  V30 2881 H 265.831 3.1086 2.05418 0
M  V30 2882 H 265.944 4.68178 1.01716 0
M  V30 2883 H 264.308 2.4666 0.634911 0
M  V30 2884 H 265.091 3.34097 -0.789549 0
M  V30 2885 N 267.536 -0.106894 1.57237 0
M  V30 2886 C 268.947 -0.662723 1.74542 0
M  V30 2887 C 269.298 -1.7971 0.787319 0
M  V30 2888 O 268.423 -2.16368 -0.0369636 0
M  V30 2889 C 269.018 -1.20896 3.16496 0
M  V30 2890 C 267.577 -1.71096 3.35266 0
M  V30 2891 C 266.724 -0.615642 2.7038 0
M  V30 2892 H 269.675 0.119106 1.58252 0
M  V30 2893 H 269.696 -2.07847 3.18716 0
M  V30 2894 H 269.208 -0.383122 3.86204 0
M  V30 2895 H 267.309 -2.56119 2.70618 0
M  V30 2896 H 267.422 -1.81208 4.43509 0
M  V30 2897 H 265.786 -1.05222 2.31949 0
M  V30 2898 H 266.569 0.199419 3.4272 0
M  V30 2899 N 269.014 -1.53014 -0.377408 0
M  V30 2900 C 270.425 -1.60438 -0.954798 0
M  V30 2901 C 270.776 -0.464418 -1.90624 0
M  V30 2902 O 269.901 0.41087 -2.12464 0
M  V30 2903 C 270.496 -2.90797 -1.73847 0
M  V30 2904 C 269.055 -3.00595 -2.26538 0
M  V30 2905 C 268.202 -2.55645 -1.07429 0
M  V30 2906 H 271.153 -1.57926 -0.156575 0
M  V30 2907 H 271.174 -2.77935 -2.5987 0
M  V30 2908 H 270.686 -3.73746 -1.04574 0
M  V30 2909 H 268.787 -2.22208 -2.99089 0
M  V30 2910 H 268.9 -4.05456 -2.5523 0
M  V30 2911 H 267.264 -2.10239 -1.43777 0
M  V30 2912 H 268.047 -3.41 -0.396728 0
M  V30 2913 N 270.492 0.636531 -1.44174 0
M  V30 2914 C 271.903 1.21806 -1.41493 0
M  V30 2915 C 272.254 1.95785 -0.1275 0
M  V30 2916 O 271.379 2.02147 0.772376 0
M  V30 2917 C 271.974 2.21551 -2.56321 0
M  V30 2918 C 270.533 2.75143 -2.56853 0
M  V30 2919 C 269.68 1.50052 -2.33195 0
M  V30 2920 H 272.631 0.427531 -1.52833 0
M  V30 2921 H 272.652 3.0405 -2.28765 0
M  V30 2922 H 272.164 1.67679 -3.50008 0
M  V30 2923 H 270.265 3.33033 -1.67093 0
M  V30 2924 H 270.378 3.2155 -3.55165 0
M  V30 2925 H 268.742 1.77993 -1.82183 0
M  V30 2926 H 269.525 0.980903 -3.28988 0
M  V30 2927 N 271.97 1.30982 0.876444 0
M  V30 2928 C 273.218 1.20058 1.62575 0
M  V30 2929 C 273.539 -0.242947 1.93481 0
M  V30 2930 O 272.809 -1.1619 1.57724 0
M  V30 2931 H 271.389 0.44135 0.602677 0
M  V30 2932 H 274.051 1.64222 1.04962 0
M  V30 2933 H 273.147 1.76762 2.57219 0
M  V30 2934 N 273.449 -1.08991 1.13837 0
M  V30 2935 C 274.677 -1.85011 0.926202 0
M  V30 2936 C 275.092 -1.8135 -0.525127 0
M  V30 2937 O 274.449 -1.21287 -1.36366 0
M  V30 2938 C 274.5 -3.32802 1.41155 0
M  V30 2939 O 274.221 -3.36444 2.80601 0
M  V30 2940 C 275.722 -4.25649 1.23847 0
M  V30 2941 H 272.942 -0.584249 0.32999 0
M  V30 2942 H 275.486 -1.37688 1.51202 0
M  V30 2943 H 273.641 -3.77536 0.868631 0
M  V30 2944 H 274.055 -4.28657 3.02248 0
M  V30 2945 H 275.529 -5.27485 1.62675 0
M  V30 2946 H 276.006 -4.38828 0.18065 0
M  V30 2947 H 276.612 -3.86735 1.76964 0
M  V30 2948 N 274.927 -0.932562 -1.27047 0
M  V30 2949 C 275.859 -0.392734 -2.2581 0
M  V30 2950 C 276.872 0.479241 -1.55586 0
M  V30 2951 O 278.061 0.291078 -1.76111 0
M  V30 2952 C 275.161 0.455456 -3.35826 0
M  V30 2953 C 274.334 -0.398355 -4.35582 0
M  V30 2954 C 273.393 0.387985 -5.24768 0
M  V30 2955 O 272.419 -0.206003 -5.68827 0
M  V30 2956 N 273.621 1.68664 -5.55457 0
M  V30 2957 H 276.386 -1.24173 -2.72766 0
M  V30 2958 H 273.947 -0.800511 -1.40725 0
M  V30 2959 H 275.939 0.988692 -3.92437 0
M  V30 2960 H 274.509 1.20522 -2.88432 0
M  V30 2961 H 273.729 -1.11286 -3.78165 0
M  V30 2962 H 275.017 -0.981889 -4.99236 0
M  V30 2963 H 274.415 2.19147 -5.21528 0
M  V30 2964 H 272.972 2.1663 -6.14748 0
M  V30 2965 N 276.405 1.4127 -0.698611 0
M  V30 2966 C 277.653 2.00782 -0.230409 0
M  V30 2967 C 277.974 1.5562 1.17505 0
M  V30 2968 O 277.244 0.78815 1.79346 0
M  V30 2969 H 275.824 0.742464 -0.0821944 0
M  V30 2970 H 278.486 1.72852 -0.90045 0
M  V30 2971 H 277.582 3.11095 -0.25021 0
M  V30 2972 N 277.883 0.443576 1.51229 0
M  V30 2973 C 279.129 -0.120975 2.02439 0
M  V30 2974 C 279.462 -1.41815 1.32674 0
M  V30 2975 O 278.737 -1.89373 0.443622 0
M  V30 2976 C 279.02 -0.333291 3.58554 0
M  V30 2977 C 278.873 0.982968 4.38928 0
M  V30 2978 C 280.192 -1.10028 4.26124 0
M  V30 2979 H 277.311 -0.0424923 0.735774 0
M  V30 2980 H 279.953 0.583794 1.80809 0
M  V30 2981 H 278.103 -0.933614 3.77115 0
M  V30 2982 H 279.775 1.61775 4.32003 0
M  V30 2983 H 278.018 1.58611 4.03763 0
M  V30 2984 H 278.689 0.788379 5.46341 0
M  V30 2985 H 281.165 -0.591711 4.11871 0
M  V30 2986 H 280.041 -1.21761 5.35225 0
M  V30 2987 H 280.302 -2.12996 3.87408 0
M  V30 2988 N 279.361 -1.56624 0.175154 0
M  V30 2989 C 280.607 -1.9729 -0.469506 0
M  V30 2990 C 280.94 -1.06128 -1.62636 0
M  V30 2991 O 280.215 -0.109183 -1.94193 0
M  V30 2992 C 280.498 -3.47375 -0.948804 0
M  V30 2993 C 280.351 -4.49317 0.208491 0
M  V30 2994 C 281.67 -4.00652 -1.82116 0
M  V30 2995 H 278.789 -0.717317 -0.16919 0
M  V30 2996 H 281.431 -1.88184 0.262062 0
M  V30 2997 H 279.581 -3.55267 -1.57219 0
M  V30 2998 H 281.253 -4.53482 0.845682 0
M  V30 2999 H 279.496 -4.25121 0.863395 0
M  V30 3000 H 280.167 -5.51741 -0.169059 0
M  V30 3001 H 282.643 -3.95416 -1.2956 0
M  V30 3002 H 281.519 -5.06075 -2.12554 0
M  V30 3003 H 281.78 -3.44699 -2.7683 0
M  V30 3004 N 280.839 0.0985539 -1.57292 0
M  V30 3005 C 282.069 0.815135 -1.8984 0
M  V30 3006 C 282.477 1.7297 -0.766679 0
M  V30 3007 O 281.82 1.81698 0.270483 0
M  V30 3008 C 281.882 1.6842 -3.17608 0
M  V30 3009 C 281.546 0.94182 -4.4719 0
M  V30 3010 C 282.543 0.273212 -5.19182 0
M  V30 3011 C 280.228 0.916927 -4.9386 0
M  V30 3012 C 282.222 -0.410361 -6.36078 0
M  V30 3013 C 279.909 0.229567 -6.10669 0
M  V30 3014 C 280.907 -0.432902 -6.81627 0
M  V30 3015 O 280.595 -1.10925 -7.9621 0
M  V30 3016 H 280.327 0.238501 -0.632529 0
M  V30 3017 H 282.881 0.0812659 -2.05239 0
M  V30 3018 H 281.111 2.46022 -2.98345 0
M  V30 3019 H 282.8 2.27704 -3.36015 0
M  V30 3020 H 283.566 0.283927 -4.84168 0
M  V30 3021 H 279.445 1.42201 -4.3852 0
M  V30 3022 H 282.989 -0.928013 -6.914 0
M  V30 3023 H 278.886 0.216686 -6.45136 0
M  V30 3024 H 279.654 -1.01579 -8.12172 0
M  V30 3025 N 282.317 1.53212 0.369288 0
M  V30 3026 C 283.564 1.69215 1.11232 0
M  V30 3027 C 283.892 0.442048 1.8941 0
M  V30 3028 O 283.147 -0.575944 1.87033 0
M  V30 3029 C 283.446 2.89101 2.10132 0
M  V30 3030 C 283.112 4.25758 1.48463 0
M  V30 3031 C 281.774 4.6292 1.31372 0
M  V30 3032 C 284.126 5.10757 1.03811 0
M  V30 3033 C 281.454 5.82722 0.68207 0
M  V30 3034 C 283.806 6.31201 0.420487 0
M  V30 3035 C 282.47 6.67079 0.237038 0
M  V30 3036 H 281.74 0.619201 0.407027 0
M  V30 3037 H 284.387 1.87391 0.394552 0
M  V30 3038 H 282.692 2.65421 2.88199 0
M  V30 3039 H 284.389 2.98676 2.6757 0
M  V30 3040 H 280.979 3.96494 1.62758 0
M  V30 3041 H 285.163 4.82599 1.1581 0
M  V30 3042 H 280.419 6.09113 0.528316 0
M  V30 3043 H 284.593 6.96368 0.0662874 0
M  V30 3044 H 282.22 7.59774 -0.254477 0
M  V30 3045 N 283.795 -0.628877 1.44509 0
M  V30 3046 C 284.758 -1.72263 1.51188 0
M  V30 3047 C 285.758 -1.55907 0.39367 0
M  V30 3048 O 286.948 -1.61361 0.656377 0
M  V30 3049 C 284.08 -3.11365 1.38798 0
M  V30 3050 H 285.273 -1.67714 2.4862 0
M  V30 3051 H 282.826 -0.842737 1.31634 0
M  V30 3052 H 283.561 -3.21507 0.424693 0
M  V30 3053 H 283.346 -3.24644 2.19884 0
M  V30 3054 H 284.836 -3.91075 1.46458 0
M  V30 3055 N 285.273 -1.31445 -0.869486 0
M  V30 3056 C 286.55 -1.11795 -1.60503 0
M  V30 3057 C 286.93 0.327168 -2.08549 0
M  V30 3058 O 286.278 1.32135 -1.8642 0
M  V30 3059 C 286.488 -2.13258 -2.76265 0
M  V30 3060 C 287.836 -2.45805 -3.46215 0
M  V30 3061 O 288.86 -2.11688 -2.86473 0
M  V30 3062 O 287.719 -3.04228 -4.5399 0
M  V30 3063 H 284.813 -0.430421 -0.706163 0
M  V30 3064 H 287.359 -1.42925 -0.914907 0
M  V30 3065 H 286.131 -3.10461 -2.3818 0
M  V30 3066 H 285.754 -1.83035 -3.52964 0
M  V30 3067 N 286.751 1.08385 -1.14413 0
M  V30 3068 C 288.028 1.77429 -0.823297 0
M  V30 3069 C 288.408 1.9974 0.683163 0
M  V30 3070 O 287.756 1.60739 1.62405 0
M  V30 3071 C 287.966 3.09004 -1.62227 0
M  V30 3072 C 289.314 3.83532 -1.82177 0
M  V30 3073 O 290.338 3.18786 -1.58915 0
M  V30 3074 O 289.197 4.99792 -2.21067 0
M  V30 3075 H 286.291 0.769999 -0.301712 0
M  V30 3076 H 288.837 1.14846 -1.24934 0
M  V30 3077 H 287.609 2.88316 -2.64555 0
M  V30 3078 H 287.232 3.79316 -1.19187 0
M  V30 3079 N 288.23 0.939286 1.26551 0
M  V30 3080 C 289.507 0.5038 1.89001 0
M  V30 3081 C 289.887 -1.01854 1.84903 0
M  V30 3082 O 289.235 -1.87773 1.30206 0
M  V30 3083 C 289.445 1.063 3.32417 0
M  V30 3084 C 290.793 1.13051 4.09273 0
M  V30 3085 O 291.817 1.01345 3.41479 0
M  V30 3086 O 290.676 1.31233 5.30509 0
M  V30 3087 H 287.77 0.163897 0.810597 0
M  V30 3088 H 290.316 1.03173 1.34735 0
M  V30 3089 H 289.088 2.10665 3.29752 0
M  V30 3090 H 288.711 0.517408 3.94219 0
M  V30 3091 N 289.708 -1.40897 0.706093 0
M  V30 3092 C 290.656 -2.32572 0.0361893 0
M  V30 3093 C 291.65 -1.51532 -0.757266 0
M  V30 3094 O 292.856 -1.67396 -0.661703 0
M  V30 3095 H 289.231 -0.751966 -0.00709935 0
M  V30 3096 H 291.202 -2.86733 0.826249 0
M  V30 3097 C 289.951 -3.36418 -0.87854 0
M  V30 3098 H 289.274 -3.98836 -0.277401 0
M  V30 3099 H 290.714 -4.0308 -1.3154 0
M  V30 3100 C 289.173 -2.71141 -1.99961 0
M  V30 3101 O 289.703 -2.56735 -3.0895 0
M  V30 3102 N 287.909 -2.29671 -1.78043 0
M  V30 3103 H 287.456 -2.41588 -0.894042 0
M  V30 3104 H 287.414 -1.86332 -2.53235 0
M  V30 3105 N 291.186 -0.45159 -1.50991 0
M  V30 3106 C 292.414 0.108334 -2.06616 0
M  V30 3107 C 292.829 1.35224 -1.31757 0
M  V30 3108 O 292.186 1.78475 -0.381174 0
M  V30 3109 C 292.237 0.41619 -3.59096 0
M  V30 3110 O 291.958 -0.778361 -4.3113 0
M  V30 3111 C 293.459 1.02523 -4.31282 0
M  V30 3112 H 290.679 0.00159995 -0.670998 0
M  V30 3113 H 293.223 -0.634771 -1.94399 0
M  V30 3114 H 291.378 1.10921 -3.71181 0
M  V30 3115 H 291.792 -0.511181 -5.22003 0
M  V30 3116 H 293.266 1.19053 -5.39009 0
M  V30 3117 H 293.743 2.01013 -3.905 0
M  V30 3118 H 294.349 0.371173 -4.23677 0
M  V30 3119 N 292.664 1.56529 -0.183458 0
M  V30 3120 C 293.894 2.01331 0.463612 0
M  V30 3121 C 294.302 1.06278 1.5653 0
M  V30 3122 O 293.645 0.0577976 1.83609 0
M  V30 3123 C 293.707 3.42547 1.09096 0
M  V30 3124 C 293.371 4.56817 0.129442 0
M  V30 3125 C 294.368 5.15734 -0.656807 0
M  V30 3126 C 292.053 5.02295 0.02174 0
M  V30 3127 C 294.047 6.1857 -1.53784 0
M  V30 3128 C 291.734 6.04978 -0.862864 0
M  V30 3129 C 292.732 6.62988 -1.64123 0
M  V30 3130 O 292.42 7.63677 -2.51103 0
M  V30 3131 H 292.152 0.664917 0.121907 0
M  V30 3132 H 294.706 2.034 -0.285954 0
M  V30 3133 H 292.936 3.37428 1.88889 0
M  V30 3134 H 294.625 3.71228 1.64148 0
M  V30 3135 H 295.391 4.81473 -0.583839 0
M  V30 3136 H 291.27 4.56847 0.617392 0
M  V30 3137 H 294.814 6.63777 -2.14583 0
M  V30 3138 H 290.711 6.38663 -0.93699 0
M  V30 3139 H 291.479 7.81049 -2.44753 0
M  V30 3140 N 294.142 -0.090211 1.57342 0
M  V30 3141 C 295.367 -0.810082 1.90925 0
M  V30 3142 C 295.792 -1.71248 0.778187 0
M  V30 3143 O 295.15 -1.79278 -0.269991 0
M  V30 3144 C 295.198 -1.59529 3.23393 0
M  V30 3145 O 294.302 -2.70461 3.11327 0
M  V30 3146 H 293.643 -0.222231 0.625707 0
M  V30 3147 H 296.173 -0.0639716 2.045 0
M  V30 3148 H 296.183 -1.97847 3.5682 0
M  V30 3149 H 294.858 -0.933055 4.05299 0
M  V30 3150 H 293.435 -2.35135 2.89423 0
M  V30 3151 N 295.62 -1.53406 -0.361157 0
M  V30 3152 C 297.036 -1.43277 -0.703124 0
M  V30 3153 C 297.236 -0.575384 -1.9311 0
M  V30 3154 O 296.292 -0.0595362 -2.5243 0
M  V30 3155 C 297.605 -2.8653 -0.9122 0
M  V30 3156 C 299.153 -2.96191 -1.01193 0
M  V30 3157 C 299.628 -4.40514 -1.25345 0
M  V30 3158 N 301.119 -4.43962 -1.32105 0
M  V30 3159 C 301.854 -5.52746 -1.5251 0
M  V30 3160 N 301.35 -6.71567 -1.70203 0
M  V30 3161 N 303.143 -5.40331 -1.54916 0
M  V30 3162 H 295.294 -2.07654 0.446475 0
M  V30 3163 H 297.557 -0.937944 0.137715 0
M  V30 3164 H 297.263 -3.51605 -0.0816414 0
M  V30 3165 H 297.137 -3.30441 -1.81903 0
M  V30 3166 H 299.524 -2.31266 -1.83303 0
M  V30 3167 H 299.605 -2.55667 -0.0823929 0
M  V30 3168 H 299.249 -5.06014 -0.437346 0
M  V30 3169 H 299.179 -4.78614 -2.19627 0
M  V30 3170 H 301.67 -3.58332 -1.20028 0
M  V30 3171 H 301.983 -7.50241 -1.85359 0
M  V30 3172 H 300.328 -6.74545 -1.67373 0
M  V30 3173 H 303.519 -4.46465 -1.40663 0
M  V30 3174 H 303.692 -6.25173 -1.70477 0
M  V30 3175 N 297.098 0.621204 -1.44841 0
M  V30 3176 C 298.008 1.7612 -1.5498 0
M  V30 3177 C 299.024 1.68477 -0.434927 0
M  V30 3178 O 300.2 1.89076 -0.693693 0
M  V30 3179 C 297.265 3.1254 -1.50065 0
M  V30 3180 C 296.326 3.31741 -2.72482 0
M  V30 3181 C 295.559 4.61653 -2.67792 0
M  V30 3182 O 295.782 5.431 -1.74352 0
M  V30 3183 O 294.716 4.83271 -3.58794 0
M  V30 3184 H 298.542 1.70518 -2.51311 0
M  V30 3185 H 296.127 0.783643 -1.27198 0
M  V30 3186 H 298.009 3.93844 -1.49882 0
M  V30 3187 H 296.684 3.18663 -0.568806 0
M  V30 3188 H 295.591 2.50077 -2.7823 0
M  V30 3189 H 296.924 3.30486 -3.64746 0
M  V30 3190 N 298.576 1.31904 0.862503 0
M  V30 3191 C 299.506 1.22782 1.98612 0
M  V30 3192 C 300.487 0.113362 1.69722 0
M  V30 3193 O 301.672 0.299218 1.91881 0
M  V30 3194 C 298.802 0.942058 3.34279 0
M  V30 3195 C 297.756 2.0169 3.77499 0
M  V30 3196 C 297.082 1.58369 5.10709 0
M  V30 3197 C 298.382 3.43096 3.93805 0
M  V30 3198 H 300.076 2.16788 2.06502 0
M  V30 3199 H 297.622 1.04366 0.992154 0
M  V30 3200 H 299.575 0.864818 4.1243 0
M  V30 3201 H 298.299 -0.0336603 3.26583 0
M  V30 3202 H 296.958 2.08416 3.01593 0
M  V30 3203 H 296.606 0.595628 4.99461 0
M  V30 3204 H 296.306 2.30279 5.40597 0
M  V30 3205 H 297.83 1.52067 5.91361 0
M  V30 3206 H 299.244 3.39003 4.62331 0
M  V30 3207 H 297.641 4.13288 4.35101 0
M  V30 3208 H 298.711 3.83334 2.96957 0
M  V30 3209 N 300.054 -1.07777 1.14986 0
M  V30 3210 C 301.301 -1.8029 0.922056 0
M  V30 3211 C 301.629 -1.86531 -0.55105 0
M  V30 3212 O 300.884 -1.34189 -1.42449 0
M  V30 3213 C 301.183 -3.25495 1.47608 0
M  V30 3214 C 300.849 -3.39361 2.96893 0
M  V30 3215 C 299.511 -3.42852 3.37647 0
M  V30 3216 C 301.863 -3.42512 3.92854 0
M  V30 3217 C 299.191 -3.47094 4.73015 0
M  V30 3218 C 301.543 -3.4829 5.28088 0
M  V30 3219 C 300.207 -3.50058 5.68345 0
M  V30 3220 H 299.477 -0.659727 0.337404 0
M  V30 3221 H 302.124 -1.26854 1.43459 0
M  V30 3222 H 300.429 -3.81683 0.88463 0
M  V30 3223 H 302.126 -3.80168 1.27568 0
M  V30 3224 H 298.716 -3.37339 2.64387 0
M  V30 3225 H 302.9 -3.3904 3.62444 0
M  V30 3226 H 298.156 -3.46758 5.03556 0
M  V30 3227 H 302.33 -3.49675 6.02246 0
M  V30 3228 H 299.957 -3.53097 6.73221 0
M  V30 3229 N 301.532 -0.945985 -1.26051 0
M  V30 3230 C 302.442 -0.465633 -2.29933 0
M  V30 3231 C 303.458 0.462761 -1.67733 0
M  V30 3232 O 304.634 0.341118 -1.9849 0
M  V30 3233 C 301.699 0.256994 -3.45746 0
M  V30 3234 C 300.76 -0.708549 -4.23412 0
M  V30 3235 C 299.993 -0.0203135 -5.33696 0
M  V30 3236 O 300.216 1.19571 -5.57726 0
M  V30 3237 O 299.15 -0.701459 -5.97799 0
M  V30 3238 H 302.976 -1.32866 -2.73094 0
M  V30 3239 H 300.561 -0.712071 -1.31339 0
M  V30 3240 H 302.443 0.663852 -4.16138 0
M  V30 3241 H 301.118 1.09533 -3.04605 0
M  V30 3242 H 300.025 -1.16545 -3.55483 0
M  V30 3243 H 301.358 -1.51465 -4.68315 0
M  V30 3244 N 303.011 1.40521 -0.713556 0
M  V30 3245 C 303.921 2.34522 -0.0606667 0
M  V30 3246 C 304.937 1.57193 0.74607 0
M  V30 3247 O 306.113 1.89591 0.679493 0
M  V30 3248 C 303.178 3.36081 0.851491 0
M  V30 3249 C 302.239 4.29286 0.0349339 0
M  V30 3250 C 301.472 5.25994 0.903649 0
M  V30 3251 O 301.695 5.28616 2.14292 0
M  V30 3252 O 300.629 6.00918 0.343723 0
M  V30 3253 H 304.455 2.91968 -0.835972 0
M  V30 3254 H 302.04 1.41681 -0.47402 0
M  V30 3255 H 303.922 3.98369 1.37404 0
M  V30 3256 H 302.597 2.81052 1.60598 0
M  V30 3257 H 301.504 3.70289 -0.532633 0
M  V30 3258 H 302.837 4.87462 -0.681287 0
M  V30 3259 N 304.489 0.459591 1.5075 0
M  V30 3260 C 305.422 -0.386257 2.24907 0
M  V30 3261 C 306.4 -1.006 1.27744 0
M  V30 3262 O 307.584 -1.04416 1.56938 0
M  V30 3263 C 304.711 -1.54021 3.01654 0
M  V30 3264 C 303.757 -1.03898 4.13651 0
M  V30 3265 S 304.59 0.0370501 5.35487 0
M  V30 3266 C 305.746 -1.12105 6.15779 0
M  V30 3267 H 305.979 0.243272 2.96303 0
M  V30 3268 H 303.512 0.244339 1.52454 0
M  V30 3269 H 305.47 -2.20163 3.46466 0
M  V30 3270 H 304.131 -2.14121 2.29806 0
M  V30 3271 H 303.324 -1.90254 4.66711 0
M  V30 3272 H 302.926 -0.45545 3.71216 0
M  V30 3273 H 305.218 -2.03501 6.46215 0
M  V30 3274 H 306.161 -0.62995 7.05292 0
M  V30 3275 H 306.569 -1.36967 5.47631 0
M  V30 3276 N 305.967 -1.56429 0.191757 0
M  V30 3277 C 307.383 -1.58754 -0.164137 0
M  V30 3278 C 307.583 -1.20782 -1.61288 0
M  V30 3279 O 306.639 -0.928999 -2.34789 0
M  V30 3280 C 307.952 -3.00396 0.135195 0
M  V30 3281 C 309.5 -3.1291 0.0750351 0
M  V30 3282 C 309.975 -4.56679 0.347632 0
M  V30 3283 N 311.466 -4.62252 0.296131 0
M  V30 3284 C 312.201 -5.71379 0.480948 0
M  V30 3285 N 311.697 -6.88986 0.725933 0
M  V30 3286 N 313.49 -5.60563 0.415435 0
M  V30 3287 H 305.641 -1.79393 1.13718 0
M  V30 3288 H 307.904 -0.832414 0.453643 0
M  V30 3289 H 307.61 -3.32726 1.13958 0
M  V30 3290 H 307.484 -3.72963 -0.563773 0
M  V30 3291 H 309.871 -2.80394 -0.919948 0
M  V30 3292 H 309.952 -2.42736 0.807029 0
M  V30 3293 H 309.596 -4.89907 1.33992 0
M  V30 3294 H 309.526 -5.25039 -0.405212 0
M  V30 3295 H 312.017 -3.7773 0.113259 0
M  V30 3296 H 312.33 -7.68046 0.855857 0
M  V30 3297 H 310.675 -6.90801 0.762788 0
M  V30 3298 H 313.866 -4.67561 0.224486 0
M  V30 3299 H 314.039 -6.45551 0.562889 0
M  V30 3300 N 307.445 0.0818655 -1.57387 0
M  V30 3301 C 308.691 0.778884 -1.87896 0
M  V30 3302 C 309.046 1.75692 -0.784229 0
M  V30 3303 O 308.339 1.90417 0.212567 0
M  V30 3304 C 308.533 1.53513 -3.22752 0
M  V30 3305 C 308.362 0.631838 -4.45239 0
M  V30 3306 C 307.132 0.272571 -5.04564 0
M  V30 3307 C 309.33 -0.0670191 -5.14256 0
M  V30 3308 N 307.312 -0.637498 -6.10581 0
M  V30 3309 C 308.683 -0.834653 -6.14356 0
M  V30 3310 C 310.738 -0.139551 -4.97704 0
M  V30 3311 C 309.441 -1.66806 -6.99691 0
M  V30 3312 C 311.467 -0.959903 -5.83558 0
M  V30 3313 C 310.829 -1.71561 -6.83188 0
M  V30 3314 H 306.928 0.260764 -0.737242 0
M  V30 3315 H 309.512 0.0408227 -1.94657 0
M  V30 3316 H 307.683 2.24398 -3.17018 0
M  V30 3317 H 309.415 2.18038 -3.40942 0
M  V30 3318 H 306.17 0.62319 -4.69482 0
M  V30 3319 H 306.594 -1.08548 -6.68241 0
M  V30 3320 H 311.236 0.430376 -4.20604 0
M  V30 3321 H 308.954 -2.249 -7.76174 0
M  V30 3322 H 312.54 -1.01887 -5.72809 0
M  V30 3323 H 311.42 -2.34017 -7.48469 0
M  V30 3324 N 308.923 1.53595 0.353017 0
M  V30 3325 C 310.151 1.74311 1.1146 0
M  V30 3326 C 310.566 0.477854 1.82653 0
M  V30 3327 O 309.923 -0.549977 1.74016 0
M  V30 3328 C 309.974 2.91694 2.13534 0
M  V30 3329 O 309.695 4.13325 1.45238 0
M  V30 3330 C 311.196 3.24384 3.02142 0
M  V30 3331 H 308.416 0.582669 0.332773 0
M  V30 3332 H 310.96 2.00386 0.408107 0
M  V30 3333 H 309.115 2.67977 2.79763 0
M  V30 3334 H 309.529 4.79148 2.13349 0
M  V30 3335 H 311.003 4.09893 3.69718 0
M  V30 3336 H 311.48 2.40282 3.67643 0
M  V30 3337 H 312.086 3.50073 2.41514 0
M  V30 3338 N 310.401 -0.613514 1.45168 0
M  V30 3339 C 311.817 -0.933629 1.29443 0
M  V30 3340 C 312.017 -2.00028 0.243101 0
M  V30 3341 O 311.073 -2.49848 -0.364992 0
M  V30 3342 C 312.386 -1.38018 2.67155 0
M  V30 3343 C 313.934 -1.49471 2.75004 0
M  V30 3344 C 314.409 -1.97503 4.13227 0
M  V30 3345 N 315.9 -2.04746 4.15491 0
M  V30 3346 C 316.635 -2.43121 5.19307 0
M  V30 3347 N 316.131 -2.80506 6.33473 0
M  V30 3348 N 317.924 -2.43408 5.06664 0
M  V30 3349 H 310.075 0.0916097 2.12202 0
M  V30 3350 H 312.338 -0.0216655 0.947752 0
M  V30 3351 H 312.044 -0.670625 3.45247 0
M  V30 3352 H 311.918 -2.34784 2.95222 0
M  V30 3353 H 314.305 -2.19519 1.9722 0
M  V30 3354 H 314.386 -0.510342 2.50657 0
M  V30 3355 H 314.03 -1.28045 4.91495 0
M  V30 3356 H 313.96 -2.96843 4.34962 0
M  V30 3357 H 316.451 -1.78468 3.33103 0
M  V30 3358 H 316.764 -3.08652 7.08487 0
M  V30 3359 H 315.109 -2.78216 6.36884 0
M  V30 3360 H 318.3 -2.13604 4.16523 0
M  V30 3361 H 318.473 -2.72989 5.87691 0
M  V30 3362 N 311.879 -1.3236 -0.855495 0
M  V30 3363 C 313.127 -1.22629 -1.60644 0
M  V30 3364 C 313.448 0.212136 -1.93843 0
M  V30 3365 O 312.718 1.13666 -1.59552 0
M  V30 3366 H 311.298 -0.450882 -0.595579 0
M  V30 3367 H 313.96 -1.65871 -1.02337 0
M  V30 3368 H 313.056 -1.80832 -2.54374 0
M  V30 3369 N 313.357 1.07166 -1.15556 0
M  V30 3370 C 314.603 1.80065 -0.932984 0
M  V30 3371 C 314.936 1.86586 0.53845 0
M  V30 3372 O 314.211 1.35098 1.39924 0
M  V30 3373 C 314.494 3.25022 -1.55025 0
M  V30 3374 C 314.347 3.26634 -3.09242 0
M  V30 3375 C 315.666 4.22341 -1.2376 0
M  V30 3376 H 312.785 0.653697 -0.340366 0
M  V30 3377 H 315.427 1.25389 -1.4275 0
M  V30 3378 H 313.577 3.71712 -1.12972 0
M  V30 3379 H 315.249 2.88173 -3.60214 0
M  V30 3380 H 313.492 2.65539 -3.43033 0
M  V30 3381 H 314.163 4.28854 -3.47546 0
M  V30 3382 H 316.639 3.8405 -1.60139 0
M  V30 3383 H 315.515 5.22053 -1.69564 0
M  V30 3384 H 315.776 4.41828 -0.154938 0
M  V30 3385 N 314.835 0.952656 1.25548 0
M  V30 3386 C 316.06 0.623025 1.97821 0
M  V30 3387 C 316.485 -0.7976 1.70352 0
M  V30 3388 O 315.843 -1.53905 0.958283 0
M  V30 3389 C 315.891 0.885532 3.49558 0
M  V30 3390 O 314.995 -0.0366641 4.12384 0
M  V30 3391 H 314.336 0.237082 0.620232 0
M  V30 3392 H 316.866 1.27871 1.59719 0
M  V30 3393 H 316.876 0.811009 3.99858 0
M  V30 3394 H 315.551 1.92094 3.6888 0
M  V30 3395 H 314.128 0.0898954 3.72792 0
M  V30 3396 N 316.313 -1.40141 0.720998 0
M  V30 3397 C 317.559 -2.01084 0.263231 0
M  V30 3398 C 317.892 -1.57052 -1.14229 0
M  V30 3399 O 317.167 -0.793027 -1.77599 0
M  V30 3400 C 317.45 -3.58401 0.349344 0
M  V30 3401 C 317.303 -4.12491 1.79363 0
M  V30 3402 C 318.622 -4.39231 -0.276351 0
M  V30 3403 H 315.741 -0.730572 0.0971228 0
M  V30 3404 H 318.383 -1.66543 0.914518 0
M  V30 3405 H 316.533 -3.87958 -0.205165 0
M  V30 3406 H 318.205 -3.93711 2.40394 0
M  V30 3407 H 316.448 -3.66576 2.31958 0
M  V30 3408 H 317.119 -5.21646 1.80524 0
M  V30 3409 H 319.595 -4.15637 0.196184 0
M  V30 3410 H 318.471 -5.48586 -0.185681 0
M  V30 3411 H 318.732 -4.20643 -1.36059 0
M  V30 3412 N 317.792 -0.46758 -1.50504 0
M  V30 3413 C 319.038 0.0808869 -2.03239 0
M  V30 3414 C 319.393 1.37721 -1.34353 0
M  V30 3415 O 318.686 1.86016 -0.459194 0
M  V30 3416 C 318.88 0.323995 -3.55928 0
M  V30 3417 C 318.709 -0.947215 -4.39611 0
M  V30 3418 C 317.479 -1.48951 -4.82848 0
M  V30 3419 C 319.677 -1.84166 -4.80195 0
M  V30 3420 N 317.659 -2.71011 -5.50842 0
M  V30 3421 C 319.03 -2.90815 -5.47564 0
M  V30 3422 C 321.085 -1.85246 -4.62156 0
M  V30 3423 C 319.788 -3.98529 -5.98805 0
M  V30 3424 C 321.814 -2.91914 -5.14335 0
M  V30 3425 C 321.176 -3.97282 -5.81676 0
M  V30 3426 H 317.275 -0.0103394 -0.781932 0
M  V30 3427 H 319.859 -0.635003 -1.84054 0
M  V30 3428 H 318.03 1.00892 -3.75067 0
M  V30 3429 H 319.762 0.866492 -3.95315 0
M  V30 3430 H 316.517 -1.03918 -4.62058 0
M  V30 3431 H 316.941 -3.32988 -5.89447 0
M  V30 3432 H 321.583 -1.05103 -4.09528 0
M  V30 3433 H 319.301 -4.79491 -6.50472 0
M  V30 3434 H 322.887 -2.93729 -5.0221 0
M  V30 3435 H 321.767 -4.78462 -6.21324 0
M  V30 3436 N 319.27 1.56325 -0.20005 0
M  V30 3437 C 320.681 1.8408 0.31167 0
M  V30 3438 C 321.032 1.12087 1.61031 0
M  V30 3439 O 320.157 0.38332 2.12978 0
M  V30 3440 C 320.752 3.33932 0.57226 0
M  V30 3441 C 319.311 3.6208 1.02834 0
M  V30 3442 C 318.458 2.77186 0.079634 0
M  V30 3443 H 321.409 1.52939 -0.423729 0
M  V30 3444 H 321.43 3.52971 1.42096 0
M  V30 3445 H 320.942 3.86303 -0.37308 0
M  V30 3446 H 319.043 3.15147 1.98778 0
M  V30 3447 H 319.156 4.7023 0.917624 0
M  V30 3448 H 317.52 2.47951 0.582448 0
M  V30 3449 H 318.303 3.32347 -0.860238 0
M  V30 3450 N 320.748 -0.0735177 1.57428 0
M  V30 3451 C 321.994 -0.774145 1.87443 0
M  V30 3452 C 322.327 -1.77311 0.792103 0
M  V30 3453 O 321.602 -1.93492 -0.197793 0
M  V30 3454 C 321.885 -1.48367 3.28115 0
M  V30 3455 C 321.738 -0.501227 4.46999 0
M  V30 3456 C 323.057 -2.429 3.66998 0
M  V30 3457 H 320.176 -0.279971 0.681752 0
M  V30 3458 H 322.818 -0.0373616 1.89963 0
M  V30 3459 H 320.968 -2.11171 3.26097 0
M  V30 3460 H 322.64 0.121468 4.6114 0
M  V30 3461 H 320.883 0.183593 4.33411 0
M  V30 3462 H 321.554 -1.03526 5.42205 0
M  V30 3463 H 324.03 -1.90175 3.70098 0
M  V30 3464 H 322.906 -2.89549 4.66318 0
M  V30 3465 H 323.167 -3.27628 2.96837 0
M  V30 3466 N 322.226 -1.5378 -0.344866 0
M  V30 3467 C 323.474 -1.70625 -1.08311 0
M  V30 3468 C 323.795 -0.471447 -1.89215 0
M  V30 3469 O 323.065 0.514616 -1.8902 0
M  V30 3470 H 321.645 -0.629058 -0.402859 0
M  V30 3471 H 324.307 -1.9103 -0.386459 0
M  V30 3472 H 323.403 -2.57656 -1.76124 0
M  V30 3473 N 323.704 0.605807 -1.45491 0
M  V30 3474 C 324.634 1.72709 -1.57143 0
M  V30 3475 C 325.615 1.6476 -0.422884 0
M  V30 3476 O 326.8 1.83132 -0.646247 0
M  V30 3477 C 323.93 3.11316 -1.53948 0
M  V30 3478 C 322.884 3.34077 -2.67537 0
M  V30 3479 C 322.21 4.72975 -2.49397 0
M  V30 3480 C 323.51 3.24158 -4.09535 0
M  V30 3481 H 325.204 1.63214 -2.51001 0
M  V30 3482 H 322.75 0.78379 -1.208 0
M  V30 3483 H 324.703 3.89557 -1.60696 0
M  V30 3484 H 323.427 3.21655 -0.566205 0
M  V30 3485 H 322.086 2.58227 -2.6022 0
M  V30 3486 H 321.734 4.8005 -1.50205 0
M  V30 3487 H 321.434 4.8916 -3.25571 0
M  V30 3488 H 322.958 5.53414 -2.58002 0
M  V30 3489 H 324.372 3.92271 -4.18086 0
M  V30 3490 H 322.769 3.51872 -4.86113 0
M  V30 3491 H 323.839 2.2157 -4.31317 0
M  V30 3492 N 325.182 1.32811 0.848464 0
M  V30 3493 C 326.428 1.23907 1.60546 0
M  V30 3494 C 326.761 -0.197161 1.93197 0
M  V30 3495 O 326.036 -1.13596 1.5788 0
M  V30 3496 C 326.319 2.10489 2.92175 0
M  V30 3497 C 326.172 3.62522 2.66266 0
M  V30 3498 C 327.491 1.97075 3.93509 0
M  V30 3499 H 324.61 0.451459 0.58254 0
M  V30 3500 H 327.252 1.62818 0.979296 0
M  V30 3501 H 325.402 1.77434 3.45614 0
M  V30 3502 H 327.074 4.05821 2.19334 0
M  V30 3503 H 325.317 3.84879 2.00126 0
M  V30 3504 H 325.988 4.18437 3.6002 0
M  V30 3505 H 328.464 2.26045 3.49346 0
M  V30 3506 H 327.34 2.59923 4.83457 0
M  V30 3507 H 327.601 0.940186 4.31987 0
M  V30 3508 N 326.66 -1.06551 1.16123 0
M  V30 3509 C 327.908 -1.78947 0.939267 0
M  V30 3510 C 328.229 -1.87532 -0.534476 0
M  V30 3511 O 327.499 -1.38211 -1.38833 0
M  V30 3512 H 326.079 -0.662807 0.344523 0
M  V30 3513 H 328.741 -1.28725 1.46342 0
M  V30 3514 H 327.837 -2.81117 1.35572 0
M  V30 3515 N 328.138 -0.959301 -1.25041 0
M  V30 3516 C 329.386 -0.615393 -1.92503 0
M  V30 3517 C 329.707 0.850969 -1.75452 0
M  V30 3518 O 328.977 1.60658 -1.12098 0
M  V30 3519 H 327.557 -0.224613 -0.712431 0
M  V30 3520 H 330.219 -1.21855 -1.5211 0
M  V30 3521 H 329.315 -0.848738 -3.00338 0
M  V30 3522 N 329.616 1.39756 -0.72842 0
M  V30 3523 C 330.546 2.33289 -0.0991354 0
M  V30 3524 C 331.527 1.53568 0.731489 0
M  V30 3525 O 332.712 1.81987 0.677807 0
M  V30 3526 C 329.842 3.3763 0.813834 0
M  V30 3527 C 328.796 4.2791 0.0878663 0
M  V30 3528 C 328.122 5.22894 1.11741 0
M  V30 3529 C 329.422 5.11314 -1.06563 0
M  V30 3530 H 331.116 2.86163 -0.880408 0
M  V30 3531 H 328.662 1.37591 -0.424819 0
M  V30 3532 H 330.615 4.0201 1.26355 0
M  V30 3533 H 329.339 2.83181 1.62715 0
M  V30 3534 H 327.998 3.65 -0.342159 0
M  V30 3535 H 327.646 4.64744 1.92412 0
M  V30 3536 H 327.346 5.84143 0.636477 0
M  V30 3537 H 328.87 5.90151 1.56697 0
M  V30 3538 H 330.284 5.69076 -0.694671 0
M  V30 3539 H 328.681 5.81671 -1.47577 0
M  V30 3540 H 329.751 4.46534 -1.89038 0
M  V30 3541 N 331.094 0.475555 1.50254 0
M  V30 3542 C 332.51 0.12997 1.5907 0
M  V30 3543 C 332.71 -1.36385 1.48328 0
M  V30 3544 O 331.766 -2.13754 1.34407 0
M  V30 3545 C 333.079 0.684139 2.92814 0
M  V30 3546 C 334.627 0.647965 3.0622 0
M  V30 3547 C 335.102 1.17975 4.42545 0
M  V30 3548 N 336.593 1.13936 4.48969 0
M  V30 3549 C 337.328 1.52129 5.52851 0
M  V30 3550 N 336.824 1.97793 6.63965 0
M  V30 3551 N 338.617 1.43704 5.4342 0
M  V30 3552 H 330.768 1.44706 1.55479 0
M  V30 3553 H 333.031 0.598691 0.735033 0
M  V30 3554 H 332.737 1.73079 3.06164 0
M  V30 3555 H 332.611 0.130204 3.76975 0
M  V30 3556 H 334.998 -0.38979 2.92514 0
M  V30 3557 H 335.079 1.23876 2.23805 0
M  V30 3558 H 334.723 2.21616 4.57 0
M  V30 3559 H 334.653 0.565138 5.23559 0
M  V30 3560 H 337.144 0.804488 3.69238 0
M  V30 3561 H 337.457 2.25072 7.39299 0
M  V30 3562 H 335.802 2.01749 6.65073 0
M  V30 3563 H 338.993 1.07867 4.55502 0
M  V30 3564 H 339.166 1.73794 6.24259 0
M  V30 3565 N 332.573 -1.56217 0.208337 0
M  V30 3566 C 333.82 -1.97949 -0.42692 0
M  V30 3567 C 334.148 -1.09562 -1.60706 0
M  V30 3568 O 333.403 -0.137616 -1.95216 0
M  V30 3569 C 333.702 -3.45441 -0.916797 0
M  V30 3570 C 333.368 -4.50646 0.151391 0
M  V30 3571 C 332.03 -4.79139 0.444867 0
M  V30 3572 C 334.382 -5.13811 0.874492 0
M  V30 3573 C 331.71 -5.68084 1.46619 0
M  V30 3574 C 334.062 -6.03861 1.88506 0
M  V30 3575 C 332.726 -6.30704 2.18559 0
M  V30 3576 H 331.996 -0.724345 -0.156221 0
M  V30 3577 H 334.643 -1.89006 0.308084 0
M  V30 3578 H 332.948 -3.51521 -1.73032 0
M  V30 3579 H 334.645 -3.75094 -1.41794 0
M  V30 3580 H 331.235 -4.28511 -0.0875068 0
M  V30 3581 H 335.419 -4.91879 0.660996 0
M  V30 3582 H 330.675 -5.87151 1.7048 0
M  V30 3583 H 334.849 -6.51861 2.45051 0
M  V30 3584 H 332.476 -6.99424 2.97843 0
M  V30 3585 N 334.051 0.0651679 -1.57465 0
M  V30 3586 C 334.961 1.09448 -2.07505 0
M  V30 3587 C 335.977 1.41974 -1.00595 0
M  V30 3588 O 337.153 1.52018 -1.32107 0
M  V30 3589 C 334.218 2.38689 -2.51453 0
M  V30 3590 C 333.279 2.13073 -3.72691 0
M  V30 3591 C 332.512 3.36152 -4.14533 0
M  V30 3592 O 332.735 4.45517 -3.56189 0
M  V30 3593 O 331.669 3.23974 -5.07272 0
M  V30 3594 H 335.495 0.69935 -2.95538 0
M  V30 3595 H 333.08 0.279752 -1.46757 0
M  V30 3596 H 334.962 3.14736 -2.80212 0
M  V30 3597 H 333.637 2.77568 -1.66546 0
M  V30 3598 H 332.544 1.34709 -3.49005 0
M  V30 3599 H 333.877 1.79071 -4.5847 0
M  V30 3600 N 335.529 1.53961 0.336706 0
M  V30 3601 C 336.777 1.71197 1.07405 0
M  V30 3602 C 337.098 0.481475 1.88962 0
M  V30 3603 O 336.368 -0.504585 1.8929 0
M  V30 3604 H 334.948 0.631185 0.399517 0
M  V30 3605 H 337.61 1.91232 0.376323 0
M  V30 3606 H 336.706 2.58587 1.74755 0
M  V30 3607 N 337.007 -0.598083 1.45811 0
M  V30 3608 C 338.418 -1.18011 1.44673 0
M  V30 3609 C 338.769 -1.95378 0.179364 0
M  V30 3610 O 337.894 -2.04124 -0.718509 0
M  V30 3611 C 338.489 -2.14677 2.62105 0
M  V30 3612 C 337.048 -2.68236 2.64057 0
M  V30 3613 C 336.195 -1.43816 2.37091 0
M  V30 3614 H 339.146 -0.38686 1.53913 0
M  V30 3615 H 339.167 -2.97878 2.36746 0
M  V30 3616 H 338.679 -1.5834 3.5433 0
M  V30 3617 H 336.78 -3.28486 1.75864 0
M  V30 3618 H 336.893 -3.12021 3.63566 0
M  V30 3619 H 335.257 -1.731 1.86838 0
M  V30 3620 H 336.04 -0.893333 3.31473 0
M  V30 3621 N 338.485 -1.33259 -0.841409 0
M  V30 3622 C 339.417 -1.19136 -1.95804 0
M  V30 3623 C 340.43 -0.122965 -1.62335 0
M  V30 3624 O 341.619 -0.373154 -1.74556 0
M  V30 3625 C 338.719 -0.804268 -3.29218 0
M  V30 3626 C 337.892 -1.96376 -3.90839 0
M  V30 3627 C 336.951 -1.55806 -5.02604 0
M  V30 3628 O 335.977 -2.27203 -5.21888 0
M  V30 3629 N 337.179 -0.461609 -5.78662 0
M  V30 3630 H 339.944 -2.15326 -2.08458 0
M  V30 3631 H 337.505 -1.25971 -1.017 0
M  V30 3632 H 339.497 -0.51501 -4.0141 0
M  V30 3633 H 338.067 0.0668809 -3.12528 0
M  V30 3634 H 337.287 -2.41879 -3.11269 0
M  V30 3635 H 338.575 -2.73966 -4.28742 0
M  V30 3636 H 337.973 0.132343 -5.65545 0
M  V30 3637 H 336.53 -0.232013 -6.51387 0
M  V30 3638 N 339.963 1.05934 -1.16686 0
M  V30 3639 C 341.209 1.79065 -0.95203 0
M  V30 3640 C 341.542 1.87147 0.518629 0
M  V30 3641 O 340.817 1.36574 1.38484 0
M  V30 3642 C 341.1 3.23359 -1.58464 0
M  V30 3643 C 340.953 3.23336 -3.12689 0
M  V30 3644 C 342.272 4.21004 -1.28232 0
M  V30 3645 H 339.391 0.65005 -0.34728 0
M  V30 3646 H 342.033 1.23868 -1.44072 0
M  V30 3647 H 340.183 3.70493 -1.16908 0
M  V30 3648 H 341.855 2.84336 -3.6325 0
M  V30 3649 H 340.098 2.61886 -3.4583 0
M  V30 3650 H 340.769 4.25144 -3.52075 0
M  V30 3651 H 343.245 3.8233 -1.64203 0
M  V30 3652 H 342.121 5.20225 -1.75092 0
M  V30 3653 H 342.382 4.41639 -0.201791 0
M  V30 3654 N 341.441 0.965919 1.2453 0
M  V30 3655 C 342.373 0.452465 2.2469 0
M  V30 3656 C 343.386 -0.437821 1.56802 0
M  V30 3657 O 344.575 -0.244283 1.76821 0
M  V30 3658 C 341.675 -0.366258 3.36915 0
M  V30 3659 C 340.848 0.513701 4.34373 0
M  V30 3660 C 339.907 -0.248716 5.25612 0
M  V30 3661 O 338.933 0.356745 5.68081 0
M  V30 3662 N 340.135 -1.53877 5.59734 0
M  V30 3663 H 342.9 1.31361 2.69378 0
M  V30 3664 H 340.461 0.837541 1.38553 0
M  V30 3665 H 342.453 -0.884297 3.94921 0
M  V30 3666 H 341.023 -1.12832 2.91526 0
M  V30 3667 H 340.243 1.21273 3.75082 0
M  V30 3668 H 341.531 1.11391 4.96457 0
M  V30 3669 H 340.929 -2.05243 5.27154 0
M  V30 3670 H 339.486 -2.00254 6.20275 0
M  V30 3671 N 342.919 -1.39368 0.735821 0
M  V30 3672 C 344.196 -1.94465 0.210395 0
M  V30 3673 C 344.576 -1.67254 -1.28799 0
M  V30 3674 O 343.924 -1.00123 -2.05396 0
M  V30 3675 C 344.134 -3.4472 0.544897 0
M  V30 3676 C 345.482 -4.21708 0.494689 0
M  V30 3677 O 346.506 -3.52922 0.482136 0
M  V30 3678 O 345.365 -5.44299 0.489947 0
M  V30 3679 H 342.459 -0.826096 0.0386666 0
M  V30 3680 H 345.005 -1.48863 0.814735 0
M  V30 3681 H 343.777 -3.57963 1.58045 0
M  V30 3682 H 343.4 -3.97502 -0.08837 0
M  V30 3683 N 344.397 -0.483516 -1.5 0
M  V30 3684 C 345.645 0.067027 -2.01989 0
M  V30 3685 C 345.966 1.3909 -1.36671 0
M  V30 3686 O 345.236 1.88978 -0.516152 0
M  V30 3687 H 343.816 0.0277606 -0.746484 0
M  V30 3688 H 346.478 -0.636773 -1.84204 0
M  V30 3689 H 345.574 0.209484 -3.11396 0
M  V30 3690 N 345.875 1.56104 -0.216619 0
M  V30 3691 C 347.291 1.58995 0.13886 0
M  V30 3692 C 347.491 1.23333 1.59346 0
M  V30 3693 O 346.547 0.966234 2.33281 0
M  V30 3694 C 347.86 3.00143 -0.182968 0
M  V30 3695 C 349.408 3.12751 -0.124807 0
M  V30 3696 C 349.883 4.56068 -0.420241 0
M  V30 3697 N 351.374 4.61723 -0.369634 0
M  V30 3698 C 352.109 5.70542 -0.571789 0
M  V30 3699 N 351.605 6.87744 -0.835453 0
M  V30 3700 N 353.398 5.59831 -0.504563 0
M  V30 3701 H 345.549 1.77562 -1.16557 0
M  V30 3702 H 347.812 0.825091 -0.466828 0
M  V30 3703 H 347.518 3.30871 -1.19237 0
M  V30 3704 H 347.392 3.73813 0.504367 0
M  V30 3705 H 349.779 2.81822 0.875223 0
M  V30 3706 H 349.86 2.41421 -0.845544 0
M  V30 3707 H 349.504 4.87713 -1.41769 0
M  V30 3708 H 349.434 5.25617 0.321631 0
M  V30 3709 H 351.925 3.77502 -0.173338 0
M  V30 3710 H 352.238 7.66587 -0.977938 0
M  V30 3711 H 350.583 6.895 -0.872592 0
M  V30 3712 H 353.774 4.67145 -0.298842 0
M  V30 3713 H 353.947 6.44573 -0.665519 0
M  V30 3714 N 347.353 -0.0568162 1.57498 0
M  V30 3715 C 348.599 -0.75422 1.88253 0
M  V30 3716 C 348.932 -1.76461 0.810865 0
M  V30 3717 O 348.207 -1.93691 -0.177259 0
M  V30 3718 C 348.49 -1.44878 3.2967 0
M  V30 3719 C 348.343 -0.453789 4.47505 0
M  V30 3720 C 349.662 -2.38994 3.69554 0
M  V30 3721 H 346.781 -0.272724 0.684683 0
M  V30 3722 H 349.423 -0.0172113 1.89992 0
M  V30 3723 H 347.573 -2.077 3.28318 0
M  V30 3724 H 349.245 0.170371 4.60985 0
M  V30 3725 H 347.488 0.229552 4.33192 0
M  V30 3726 H 348.159 -0.977699 5.43273 0
M  V30 3727 H 350.635 -1.86239 3.72095 0
M  V30 3728 H 349.511 -2.84587 4.69363 0
M  V30 3729 H 349.772 -3.24461 3.00296 0
M  V30 3730 N 348.832 -1.54138 -0.328536 0
M  V30 3731 C 350.078 -1.7236 -1.06865 0
M  V30 3732 C 350.411 -0.493231 -1.87832 0
M  V30 3733 O 349.686 0.5098 -1.877 0
M  V30 3734 C 349.969 -2.99621 -1.99747 0
M  V30 3735 C 349.822 -4.32899 -1.22143 0
M  V30 3736 C 351.141 -3.22615 -2.99345 0
M  V30 3737 H 348.26 -0.627151 -0.387105 0
M  V30 3738 H 350.902 -1.86827 -0.345767 0
M  V30 3739 H 349.052 -2.87418 -2.61387 0
M  V30 3740 H 350.724 -4.56978 -0.630017 0
M  V30 3741 H 348.967 -4.30628 -0.523628 0
M  V30 3742 H 349.638 -5.18154 -1.90318 0
M  V30 3743 H 352.114 -3.34248 -2.47826 0
M  V30 3744 H 350.99 -4.13027 -3.61524 0
M  V30 3745 H 351.251 -2.3961 -3.71536 0
M  V30 3746 N 350.31 0.590341 -1.46126 0
M  V30 3747 C 351.558 1.34616 -1.50742 0
M  V30 3748 C 351.879 1.94363 -0.157486 0
M  V30 3749 O 351.149 1.78136 0.815136 0
M  V30 3750 H 349.729 0.499789 -0.555175 0
M  V30 3751 H 352.391 0.691953 -1.82203 0
M  V30 3752 H 351.487 2.15678 -2.25587 0
M  V30 3753 N 351.788 1.33704 0.83433 0
M  V30 3754 C 353.035 1.25417 1.58987 0
M  V30 3755 C 353.363 -0.178869 1.93676 0
M  V30 3756 O 352.618 -1.13723 1.59265 0
M  V30 3757 C 352.917 2.07926 2.90692 0
M  V30 3758 C 352.583 3.57066 2.75345 0
M  V30 3759 C 351.245 3.97724 2.70867 0
M  V30 3760 C 353.597 4.51817 2.59828 0
M  V30 3761 C 350.925 5.31344 2.48778 0
M  V30 3762 C 353.277 5.85604 2.39272 0
M  V30 3763 C 351.941 6.25439 2.33199 0
M  V30 3764 H 351.211 0.458934 0.581774 0
M  V30 3765 H 353.858 1.65335 0.966261 0
M  V30 3766 H 352.163 1.608 3.57282 0
M  V30 3767 H 353.86 1.98868 3.48213 0
M  V30 3768 H 350.45 3.24785 2.79665 0
M  V30 3769 H 354.634 4.21311 2.62319 0
M  V30 3770 H 349.89 5.61241 2.42526 0
M  V30 3771 H 354.064 6.58623 2.2625 0
M  V30 3772 H 351.691 7.28914 2.15843 0
M  V30 3773 N 353.266 -1.05314 1.17247 0
M  V30 3774 C 354.216 -2.11313 0.856196 0
M  V30 3775 C 355.2 -1.60013 -0.168694 0
M  V30 3776 O 356.392 -1.76968 0.0335624 0
M  V30 3777 C 353.521 -3.41301 0.369917 0
M  V30 3778 C 352.607 -3.99401 1.42616 0
M  V30 3779 N 352.998 -4.31481 2.63928 0
M  V30 3780 C 351.296 -4.27126 1.28373 0
M  V30 3781 C 351.997 -4.77799 3.31787 0
M  V30 3782 N 350.973 -4.77843 2.59166 0
M  V30 3783 H 354.775 -2.33976 1.77856 0
M  V30 3784 H 352.289 -1.2295 1.06099 0
M  V30 3785 H 354.286 -4.16713 0.124897 0
M  V30 3786 H 352.946 -3.20072 -0.546253 0
M  V30 3787 H 353.957 -4.21519 3.00902 0
M  V30 3788 H 350.634 -4.15289 0.429111 0
M  V30 3789 H 352.024 -5.11743 4.35395 0
M  V30 3790 N 354.744 -0.972509 -1.24016 0
M  V30 3791 C 355.972 -0.654803 -1.96265 0
M  V30 3792 C 356.387 0.776708 -1.72083 0
M  V30 3793 O 355.744 1.52171 -1.00748 0
M  V30 3794 C 355.795 -0.92592 -3.49441 0
M  V30 3795 O 355.516 -2.30116 -3.72798 0
M  V30 3796 C 357.017 -0.623068 -4.38899 0
M  V30 3797 H 354.237 -0.243907 -0.6251 0
M  V30 3798 H 356.781 -1.30175 -1.57717 0
M  V30 3799 H 354.936 -0.325108 -3.86033 0
M  V30 3800 H 355.35 -2.38483 -4.67147 0
M  V30 3801 H 356.824 -0.863189 -5.45209 0
M  V30 3802 H 357.301 0.442754 -4.36963 0
M  V30 3803 H 357.907 -1.204 -4.07902 0
M  V30 3804 N 356.222 1.38976 -0.743202 0
M  V30 3805 C 357.185 2.28901 -0.117014 0
M  V30 3806 C 358.185 1.46698 0.658503 0
M  V30 3807 O 359.375 1.67274 0.486305 0
M  V30 3808 C 356.507 3.30309 0.84315 0
M  V30 3809 H 357.7 2.8578 -0.909373 0
M  V30 3810 H 355.253 1.47761 -0.509547 0
M  V30 3811 H 355.988 2.785 1.66157 0
M  V30 3812 H 355.773 3.91029 0.289594 0
M  V30 3813 H 357.263 3.97577 1.2776 0
M  V30 3814 N 357.7 0.491464 1.49741 0
M  V30 3815 C 358.946 -0.0485431 2.03342 0
M  V30 3816 C 359.301 -1.35566 1.36527 0
M  V30 3817 O 358.594 -1.85262 0.488729 0
M  V30 3818 C 358.788 -0.267329 3.56399 0
M  V30 3819 C 358.617 1.01703 4.38049 0
M  V30 3820 C 357.387 1.56614 4.80417 0
M  V30 3821 C 359.585 1.91782 4.77204 0
M  V30 3822 N 357.567 2.7974 5.4646 0
M  V30 3823 C 358.938 2.99489 5.42868 0
M  V30 3824 C 360.993 1.92575 4.5915 0
M  V30 3825 C 359.696 4.08005 5.92389 0
M  V30 3826 C 361.722 3.0006 5.09626 0
M  V30 3827 C 361.084 4.06485 5.75282 0
M  V30 3828 H 357.183 0.0227779 0.781668 0
M  V30 3829 H 359.767 0.664204 1.8302 0
M  V30 3830 H 357.938 -0.949126 3.76625 0
M  V30 3831 H 359.67 -0.803492 3.96644 0
M  V30 3832 H 356.425 1.11256 4.60347 0
M  V30 3833 H 356.849 3.42323 5.84075 0
M  V30 3834 H 361.491 1.11605 4.07804 0
M  V30 3835 H 359.209 4.89779 6.42761 0
M  V30 3836 H 362.795 3.01681 4.97473 0
M  V30 3837 H 361.675 4.88287 6.13633 0
M  V30 3838 N 359.178 -1.55987 0.224894 0
M  V30 3839 C 360.088 -2.24066 -0.69511 0
M  V30 3840 C 361.104 -1.24939 -1.21104 0
M  V30 3841 O 362.28 -1.5776 -1.25195 0
M  V30 3842 C 359.345 -2.90983 -1.88493 0
M  V30 3843 C 358.406 -4.05462 -1.41064 0
M  V30 3844 C 357.639 -4.69179 -2.54375 0
M  V30 3845 O 357.862 -4.31895 -3.72589 0
M  V30 3846 O 356.796 -5.58108 -2.25386 0
M  V30 3847 H 360.622 -3.03353 -0.145149 0
M  V30 3848 H 358.207 -1.49399 -0.00569476 0
M  V30 3849 H 360.089 -3.33209 -2.57972 0
M  V30 3850 H 358.764 -2.14653 -2.42293 0
M  V30 3851 H 357.671 -3.67798 -0.683774 0
M  V30 3852 H 359.004 -4.83545 -0.918985 0
M  V30 3853 N 360.656 0.0484629 -1.57525 0
M  V30 3854 C 362.067 0.597486 -1.76881 0
M  V30 3855 C 362.418 1.76664 -0.853475 0
M  V30 3856 O 361.543 2.16357 -0.0433656 0
M  V30 3857 C 362.138 1.09066 -3.20765 0
M  V30 3858 C 360.697 1.58535 -3.41385 0
M  V30 3859 C 359.844 0.514868 -2.72478 0
M  V30 3860 H 362.795 -0.177758 -1.57701 0
M  V30 3861 H 362.816 1.95875 -3.2621 0
M  V30 3862 H 362.328 0.239521 -3.8736 0
M  V30 3863 H 360.429 2.45898 -2.79937 0
M  V30 3864 H 360.542 1.64622 -4.49929 0
M  V30 3865 H 358.906 0.965407 -2.35695 0
M  V30 3866 H 359.689 -0.32648 -3.41744 0
M  V30 3867 N 362.134 1.5431 0.320358 0
M  V30 3868 C 363.359 1.76954 1.08175 0
M  V30 3869 C 363.784 0.518193 1.80821 0
M  V30 3870 O 363.142 -0.530411 1.73368 0
M  V30 3871 C 363.19 2.96451 2.05303 0
M  V30 3872 O 362.294 2.68221 3.13259 0
M  V30 3873 H 361.635 0.586275 0.311733 0
M  V30 3874 H 364.165 2.01342 0.363676 0
M  V30 3875 H 364.175 3.23887 2.48116 0
M  V30 3876 H 362.85 3.87196 1.51829 0
M  V30 3877 H 361.427 2.51744 2.75099 0
M  V30 3878 N 363.613 -0.582584 1.46437 0
M  V30 3879 C 365.029 -0.905962 1.31394 0
M  V30 3880 C 365.229 -1.99468 0.285476 0
M  V30 3881 O 364.285 -2.50566 -0.311914 0
M  V30 3882 C 365.598 -1.3232 2.70022 0
M  V30 3883 C 367.146 -1.43604 2.78113 0
M  V30 3884 C 367.621 -1.88694 4.17323 0
M  V30 3885 N 369.112 -1.95887 4.19741 0
M  V30 3886 C 369.847 -2.32051 5.24347 0
M  V30 3887 N 369.343 -2.67006 6.39281 0
M  V30 3888 N 371.136 -2.32606 5.11713 0
M  V30 3889 H 363.287 0.1366 2.1196 0
M  V30 3890 H 365.55 -0.00155736 0.947999 0
M  V30 3891 H 365.256 -0.597242 3.46592 0
M  V30 3892 H 365.13 -2.28469 3.00136 0
M  V30 3893 H 367.517 -2.15286 2.01832 0
M  V30 3894 H 367.598 -0.457059 2.51684 0
M  V30 3895 H 367.242 -1.1759 4.941 0
M  V30 3896 H 367.172 -2.8755 4.4116 0
M  V30 3897 H 369.663 -1.71362 3.36814 0
M  V30 3898 H 369.976 -2.93554 7.14875 0
M  V30 3899 H 368.321 -2.64644 6.42642 0
M  V30 3900 H 371.512 -2.04721 4.2096 0
M  V30 3901 H 371.685 -2.60462 5.93349 0
M  V30 3902 N 365.091 -1.34144 -0.827227 0
M  V30 3903 C 366.502 -1.23557 -1.39966 0
M  V30 3904 C 366.853 0.140731 -1.95695 0
M  V30 3905 O 365.978 1.04087 -1.89723 0
M  V30 3906 C 366.573 -2.23708 -2.54441 0
M  V30 3907 C 365.132 -2.16924 -3.07605 0
M  V30 3908 C 364.279 -2.10549 -1.80456 0
M  V30 3909 H 367.23 -1.45573 -0.631991 0
M  V30 3910 H 367.251 -1.85157 -3.32411 0
M  V30 3911 H 366.763 -3.23866 -2.13851 0
M  V30 3912 H 364.864 -1.20107 -3.52711 0
M  V30 3913 H 364.977 -3.07988 -3.66988 0
M  V30 3914 H 363.341 -1.56203 -2.01178 0
M  V30 3915 H 364.124 -3.12535 -1.42046 0
M  V30 3916 N 366.569 1.04691 -1.17803 0
M  V30 3917 C 367.816 1.77782 -0.969532 0
M  V30 3918 C 368.144 1.87926 0.501401 0
M  V30 3919 O 367.399 1.37918 1.38842 0
M  V30 3920 C 367.698 3.21467 -1.56186 0
M  V30 3921 C 367.364 3.3137 -3.05786 0
M  V30 3922 C 366.026 3.3378 -3.46619 0
M  V30 3923 C 368.378 3.31976 -4.01797 0
M  V30 3924 C 365.706 3.34431 -4.82051 0
M  V30 3925 C 368.058 3.34167 -5.37136 0
M  V30 3926 C 366.722 3.34866 -5.77426 0
M  V30 3927 H 365.992 0.650549 -0.354777 0
M  V30 3928 H 368.639 1.23006 -1.46772 0
M  V30 3929 H 366.944 3.79203 -0.985515 0
M  V30 3930 H 368.641 3.76652 -1.37602 0
M  V30 3931 H 365.231 3.3021 -2.73238 0
M  V30 3932 H 369.415 3.29311 -3.71306 0
M  V30 3933 H 364.671 3.33285 -5.12573 0
M  V30 3934 H 368.845 3.33585 -6.11305 0
M  V30 3935 H 366.472 3.35124 -6.82346 0
M  V30 3936 N 368.047 0.979072 1.23499 0
M  V30 3937 C 369.458 0.684391 1.73704 0
M  V30 3938 C 369.809 -0.799448 1.79174 0
M  V30 3939 O 368.934 -1.62531 1.42873 0
M  V30 3940 C 369.529 1.23564 3.15464 0
M  V30 3941 C 368.088 0.99063 3.6313 0
M  V30 3942 C 367.235 1.36416 2.41425 0
M  V30 3943 H 370.186 1.15307 1.09041 0
M  V30 3944 H 370.207 0.607417 3.7562 0
M  V30 3945 H 369.719 2.31561 3.1145 0
M  V30 3946 H 367.82 -0.0733136 3.72528 0
M  V30 3947 H 367.933 1.64427 4.5 0
M  V30 3948 H 366.297 0.782616 2.42378 0
M  V30 3949 H 367.08 2.45387 2.40083 0
M  V30 3950 N 369.525 -1.3858 0.750561 0
M  V30 3951 C 370.771 -2.00481 0.305825 0
M  V30 3952 C 371.104 -1.5944 -1.10872 0
M  V30 3953 O 370.379 -0.83052 -1.75877 0
M  V30 3954 C 370.662 -3.5758 0.425287 0
M  V30 3955 C 370.515 -4.08594 1.88072 0
M  V30 3956 C 371.834 -4.39719 -0.183122 0
M  V30 3957 H 368.953 -0.728348 0.112598 0
M  V30 3958 H 371.595 -1.64566 0.949638 0
M  V30 3959 H 369.745 -3.88306 -0.122828 0
M  V30 3960 H 371.417 -3.88523 2.48691 0
M  V30 3961 H 369.66 -3.61574 2.39681 0
M  V30 3962 H 370.331 -5.177 1.91548 0
M  V30 3963 H 372.807 -4.15128 0.284303 0
M  V30 3964 H 371.683 -5.48856 -0.0692757 0
M  V30 3965 H 371.944 -4.23434 -1.27106 0
M  V30 3966 N 371.003 -0.499398 -1.49478 0
M  V30 3967 C 372.28 0.108629 -1.95298 0
M  V30 3968 C 372.66 1.54282 -1.44084 0
M  V30 3969 O 372.008 2.18944 -0.653908 0
M  V30 3970 C 372.218 0.0229111 -3.48992 0
M  V30 3971 C 373.566 0.197643 -4.2414 0
M  V30 3972 O 374.59 0.0981735 -3.56065 0
M  V30 3973 O 373.449 0.401669 -5.45022 0
M  V30 3974 H 370.543 0.096181 -0.821388 0
M  V30 3975 H 373.089 -0.561822 -1.6013 0
M  V30 3976 H 371.861 -0.977321 -3.78899 0
M  V30 3977 H 371.484 0.733579 -3.90774 0
M  V30 3978 N 372.481 1.55866 -0.233164 0
M  V30 3979 C 373.414 2.16794 0.712442 0
M  V30 3980 C 374.392 1.1158 1.18273 0
M  V30 3981 O 375.576 1.39897 1.26337 0
M  V30 3982 C 372.703 2.75757 1.96661 0
M  V30 3983 C 371.749 3.93902 1.63533 0
M  V30 3984 S 372.582 5.30223 0.74995 0
M  V30 3985 C 373.738 5.92631 2.01343 0
M  V30 3986 H 373.971 2.96662 0.194617 0
M  V30 3987 H 371.504 1.5439 -0.0177425 0
M  V30 3988 H 373.462 3.10367 2.68668 0
M  V30 3989 H 372.123 1.9586 2.45556 0
M  V30 3990 H 371.316 4.33702 2.56747 0
M  V30 3991 H 370.918 3.60499 0.995804 0
M  V30 3992 H 373.21 6.09312 2.96219 0
M  V30 3993 H 374.153 6.88388 1.65915 0
M  V30 3994 H 374.561 5.21571 2.15925 0
M  V30 3995 N 373.959 -0.0401083 1.57549 0
M  V30 3996 C 374.922 -1.02871 2.04817 0
M  V30 3997 C 375.922 -1.29708 0.950388 0
M  V30 3998 O 377.112 -1.24897 1.21435 0
M  V30 3999 C 374.244 -2.36443 2.45576 0
M  V30 4000 H 375.437 -0.620631 2.93408 0
M  V30 4001 H 372.99 -0.286667 1.53649 0
M  V30 4002 H 373.725 -2.82021 1.60108 0
M  V30 4003 H 373.51 -2.18296 3.25713 0
M  V30 4004 H 375 -3.07441 2.82612 0
M  V30 4005 N 375.437 -1.54477 -0.31217 0
M  V30 4006 C 376.685 -1.72884 -1.04668 0
M  V30 4007 C 377.006 -0.511477 -1.88173 0
M  V30 4008 O 376.276 0.474407 -1.90069 0
M  V30 4009 H 374.856 -0.637461 -0.389425 0
M  V30 4010 H 377.518 -1.91807 -0.345852 0
M  V30 4011 H 376.614 -2.61334 -1.70619 0
M  V30 4012 N 376.915 0.57481 -1.46744 0
M  V30 4013 C 378.162 1.33272 -1.52462 0
M  V30 4014 C 378.49 1.93669 -0.179572 0
M  V30 4015 O 377.745 1.7743 0.825664 0
M  V30 4016 C 378.044 2.476 -2.57738 0
M  V30 4017 C 377.71 2.05146 -4.01529 0
M  V30 4018 C 376.372 1.93284 -4.40676 0
M  V30 4019 C 378.724 1.72506 -4.91824 0
M  V30 4020 C 376.052 1.47049 -5.67973 0
M  V30 4021 C 378.404 1.27748 -6.19567 0
M  V30 4022 C 377.068 1.14468 -6.57612 0
M  V30 4023 H 376.338 0.487678 -0.557899 0
M  V30 4024 H 378.985 0.646456 -1.80259 0
M  V30 4025 H 377.29 3.21708 -2.23632 0
M  V30 4026 H 378.987 3.05807 -2.5939 0
M  V30 4027 H 375.577 2.15316 -3.7059 0
M  V30 4028 H 379.761 1.80552 -4.62293 0
M  V30 4029 H 375.017 1.35417 -5.96215 0
M  V30 4030 H 379.191 1.01547 -6.88957 0
M  V30 4031 H 376.818 0.78419 -7.56145 0
M  V30 4032 N 378.394 1.34581 0.820102 0
M  V30 4033 C 379.357 1.2628 1.91275 0
M  V30 4034 C 380.357 0.177344 1.59819 0
M  V30 4035 O 381.547 0.430156 1.68806 0
M  V30 4036 C 378.679 0.950327 3.27386 0
M  V30 4037 H 379.872 2.23421 2.00057 0
M  V30 4038 H 377.425 1.1891 1.0144 0
M  V30 4039 H 378.16 -0.0177938 3.24295 0
M  V30 4040 H 377.945 1.73549 3.51601 0
M  V30 4041 H 379.435 0.917492 4.07396 0
M  V30 4042 N 379.872 -1.04064 1.18357 0
M  V30 4043 C 381.118 -1.77528 0.980397 0
M  V30 4044 C 381.451 -1.87948 -0.48879 0
M  V30 4045 O 380.726 -1.3876 -1.36293 0
M  V30 4046 C 381.009 -3.20797 1.63588 0
M  V30 4047 C 380.862 -3.1832 3.17793 0
M  V30 4048 C 382.181 -4.18911 1.34914 0
M  V30 4049 H 379.3 -0.644443 0.357578 0
M  V30 4050 H 381.942 -1.2156 1.46024 0
M  V30 4051 H 380.092 -3.68586 1.22788 0
M  V30 4052 H 381.764 -2.78521 3.67728 0
M  V30 4053 H 380.007 -2.56351 3.49952 0
M  V30 4054 H 380.678 -4.19489 3.58794 0
M  V30 4055 H 383.154 -3.7967 1.70265 0
M  V30 4056 H 382.03 -5.17374 1.83346 0
M  V30 4057 H 382.291 -4.41262 0.272027 0
M  V30 4058 N 381.35 -0.985608 -1.22978 0
M  V30 4059 C 382.313 -0.535071 -2.22867 0
M  V30 4060 C 383.313 0.378123 -1.56291 0
M  V30 4061 O 384.503 0.171092 -1.73358 0
M  V30 4062 C 381.635 0.222702 -3.40172 0
M  V30 4063 H 382.828 -1.41835 -2.6424 0
M  V30 4064 H 380.381 -0.772042 -1.35901 0
M  V30 4065 H 381.116 1.12229 -3.04262 0
M  V30 4066 H 380.901 -0.43288 -3.89703 0
M  V30 4067 H 382.391 0.526335 -4.1427 0
M  V30 4068 N 382.828 1.3818 -0.7579 0
M  V30 4069 C 383.758 2.33027 -0.148597 0
M  V30 4070 C 384.739 1.55085 0.69875 0
M  V30 4071 O 385.924 1.83384 0.639053 0
M  V30 4072 C 383.054 3.3928 0.742034 0
M  V30 4073 C 382.008 4.28 -0.00291946 0
M  V30 4074 C 381.334 5.25146 1.00625 0
M  V30 4075 C 382.634 5.08938 -1.17385 0
M  V30 4076 H 384.328 2.84231 -0.940909 0
M  V30 4077 H 381.874 1.36659 -0.453908 0
M  V30 4078 H 383.827 4.046 1.17799 0
M  V30 4079 H 382.551 2.86569 1.56671 0
M  V30 4080 H 381.21 3.64192 -0.419504 0
M  V30 4081 H 380.858 4.68721 1.8251 0
M  V30 4082 H 380.558 5.85361 0.512428 0
M  V30 4083 H 382.082 5.93342 1.44143 0
M  V30 4084 H 383.496 5.67474 -0.815224 0
M  V30 4085 H 381.893 5.7841 -1.59882 0
M  V30 4086 H 382.963 4.42424 -1.98468 0
M  V30 4087 N 384.306 0.507319 1.49211 0
M  V30 4088 C 385.717 0.0611118 1.866 0
M  V30 4089 C 386.068 -1.35488 1.41907 0
M  V30 4090 O 385.193 -2.0108 0.799726 0
M  V30 4091 C 385.788 0.104125 3.3864 0
M  V30 4092 C 384.347 -0.28677 3.75306 0
M  V30 4093 C 383.494 0.473893 2.73221 0
M  V30 4094 H 386.445 0.719775 1.41439 0
M  V30 4095 H 386.466 -0.689672 3.74198 0
M  V30 4096 H 385.978 1.13482 3.71138 0
M  V30 4097 H 384.079 -1.32046 3.48417 0
M  V30 4098 H 384.192 0.0370745 4.79086 0
M  V30 4099 H 382.556 -0.0770644 2.54583 0
M  V30 4100 H 383.339 1.50478 3.08563 0
M  V30 4101 N 385.784 -1.5574 0.241426 0
M  V30 4102 C 386.714 -2.24133 -0.654722 0
M  V30 4103 C 387.695 -1.21974 -1.1856 0
M  V30 4104 O 388.88 -1.50612 -1.22595 0
M  V30 4105 C 386.01 -2.93659 -1.85423 0
M  V30 4106 C 384.964 -4.0246 -1.45636 0
M  V30 4107 C 384.29 -4.59383 -2.73626 0
M  V30 4108 C 385.59 -5.18468 -0.631506 0
M  V30 4109 H 387.284 -2.99281 -0.0844353 0
M  V30 4110 H 384.83 -1.43947 -0.0391707 0
M  V30 4111 H 386.783 -3.40203 -2.48676 0
M  V30 4112 H 385.507 -2.15991 -2.44981 0
M  V30 4113 H 384.166 -3.56676 -0.847202 0
M  V30 4114 H 383.814 -3.78422 -3.3137 0
M  V30 4115 H 383.514 -5.32826 -2.4773 0
M  V30 4116 H 385.038 -5.08658 -3.37786 0
M  V30 4117 H 386.452 -5.61272 -1.1682 0
M  V30 4118 H 384.849 -5.98266 -0.468831 0
M  V30 4119 H 385.919 -4.8358 0.357506 0
M  V30 4120 N 387.262 0.0317525 -1.57568 0
M  V30 4121 C 388.192 1.03274 -2.0942 0
M  V30 4122 C 389.173 1.3788 -0.996143 0
M  V30 4123 O 390.358 1.46811 -1.27122 0
M  V30 4124 C 387.488 2.33448 -2.57137 0
M  V30 4125 C 386.442 2.13091 -3.71182 0
M  V30 4126 C 385.768 3.49001 -4.05095 0
M  V30 4127 C 387.068 1.51928 -4.99715 0
M  V30 4128 H 388.762 0.60112 -2.93303 0
M  V30 4129 H 386.308 0.287705 -1.41097 0
M  V30 4130 H 388.261 3.03802 -2.92032 0
M  V30 4131 H 386.985 2.78665 -1.70333 0
M  V30 4132 H 385.644 1.45171 -3.36632 0
M  V30 4133 H 385.292 3.91862 -3.15362 0
M  V30 4134 H 384.992 3.36207 -4.81911 0
M  V30 4135 H 386.516 4.20721 -4.42522 0
M  V30 4136 H 387.93 2.12196 -5.32584 0
M  V30 4137 H 386.327 1.49716 -5.81124 0
M  V30 4138 H 387.397 0.484811 -4.8247 0
M  V30 4139 N 388.74 1.54641 0.303973 0
M  V30 4140 C 389.67 1.88386 1.3796 0
M  V30 4141 C 390.651 0.742485 1.5304 0
M  V30 4142 O 391.836 0.997959 1.66597 0
M  V30 4143 C 388.966 2.12854 2.74427 0
M  V30 4144 C 387.92 3.28702 2.74115 0
M  V30 4145 C 387.246 3.38582 4.13844 0
M  V30 4146 C 388.546 4.65881 2.3612 0
M  V30 4147 H 390.24 2.78474 1.09966 0
M  V30 4148 H 387.786 1.33988 0.527556 0
M  V30 4149 H 389.739 2.35047 3.49758 0
M  V30 4150 H 388.463 1.19535 3.03939 0
M  V30 4151 H 387.122 3.06428 2.0124 0
M  V30 4152 H 386.77 2.42784 4.40528 0
M  V30 4153 H 386.47 4.16453 4.14537 0
M  V30 4154 H 387.994 3.63031 4.90959 0
M  V30 4155 H 389.408 4.87823 3.01167 0
M  V30 4156 H 387.805 5.46444 2.48031 0
M  V30 4157 H 388.875 4.66799 1.3125 0
M  V30 4158 N 390.218 -0.567019 1.47046 0
M  V30 4159 C 391.495 -1.3276 1.43646 0
M  V30 4160 C 391.875 -2.1071 0.128186 0
M  V30 4161 O 391.223 -2.10441 -0.890326 0
M  V30 4162 C 391.433 -2.2404 2.67595 0
M  V30 4163 C 392.781 -2.85372 3.14401 0
M  V30 4164 O 393.805 -2.34346 2.68254 0
M  V30 4165 O 392.664 -3.78091 3.946 0
M  V30 4166 H 389.758 -0.597293 0.571988 0
M  V30 4167 H 392.304 -0.586735 1.59234 0
M  V30 4168 H 391.076 -1.65975 3.54356 0
M  V30 4169 H 390.699 -3.05439 2.54544 0
M  V30 4170 N 391.696 -1.35014 -0.812953 0
M  V30 4171 C 392.643 -1.27412 -1.92444 0
M  V30 4172 C 393.613 -0.14733 -1.65445 0
M  V30 4173 O 394.798 -0.329974 -1.87925 0
M  V30 4174 C 391.938 -1.04558 -3.28879 0
M  V30 4175 C 391.051 -2.26101 -3.68106 0
M  V30 4176 C 390.186 -1.96449 -4.9354 0
M  V30 4177 C 389.225 -3.14081 -5.25376 0
M  V30 4178 N 388.362 -2.84246 -6.41988 0
M  V30 4179 H 393.202 -2.22463 -1.98278 0
M  V30 4180 H 390.739 -1.10593 -0.969933 0
M  V30 4181 H 392.697 -0.893413 -4.07522 0
M  V30 4182 H 391.327 -0.131719 -3.22531 0
M  V30 4183 H 390.379 -2.52204 -2.84775 0
M  V30 4184 H 391.691 -3.13959 -3.87597 0
M  V30 4185 H 390.845 -1.78026 -5.79993 0
M  V30 4186 H 389.584 -1.05867 -4.76071 0
M  V30 4187 H 388.589 -3.33089 -4.37415 0
M  V30 4188 H 389.814 -4.05455 -5.44778 0
M  V30 4189 H 387.76 -1.96252 -6.25956 0
M  V30 4190 H 387.677 -3.65637 -6.61699 0
M  V30 4191 H 388.945 -2.6935 -7.31485 0
M  V30 4192 N 393.175 1.03435 -1.18907 0
M  V30 4193 C 394.586 1.58195 -0.991523 0
M  V30 4194 C 394.937 1.90801 0.457081 0
M  V30 4195 O 394.062 1.70272 1.33553 0
M  V30 4196 C 394.657 2.87432 -1.79355 0
M  V30 4197 C 393.216 3.38785 -1.64017 0
M  V30 4198 C 392.363 2.12292 -1.78402 0
M  V30 4199 H 395.314 0.860299 -1.33359 0
M  V30 4200 H 395.335 3.58096 -1.28638 0
M  V30 4201 H 394.847 2.63669 -2.84781 0
M  V30 4202 H 392.948 3.67547 -0.611536 0
M  V30 4203 H 393.061 4.12186 -2.44212 0
M  V30 4204 H 391.425 2.23901 -1.2141 0
M  V30 4205 H 392.208 1.90977 -2.85277 0
M  V30 4206 N 394.653 0.992116 1.22453 0
M  V30 4207 C 395.601 0.534644 2.26372 0
M  V30 4208 C 396.595 -0.414293 1.64256 0
M  V30 4209 O 397.801 -0.286899 1.77699 0
M  V30 4210 H 394.176 0.154502 0.735957 0
M  V30 4211 H 396.147 1.42256 2.62309 0
M  V30 4212 C 394.896 -0.135815 3.47435 0
M  V30 4213 H 394.219 0.585311 3.95492 0
M  V30 4214 H 395.659 -0.419374 4.21921 0
M  V30 4215 C 394.118 -1.37089 3.07747 0
M  V30 4216 O 394.648 -2.46629 3.17076 0
M  V30 4217 N 392.854 -1.24585 2.62539 0
M  V30 4218 H 392.401 -0.354542 2.55149 0
M  V30 4219 H 392.359 -2.07327 2.36353 0
M  V30 4220 N 396.131 -1.37776 0.765217 0
M  V30 4221 C 397.094 -2.28686 0.153416 0
M  V30 4222 C 398.094 -1.47727 -0.635081 0
M  V30 4223 O 399.284 -1.68027 -0.459632 0
M  V30 4224 C 396.416 -3.31608 -0.790495 0
M  V30 4225 H 397.609 -2.84297 0.954723 0
M  V30 4226 H 395.162 -1.46932 0.53299 0
M  V30 4227 H 395.897 -2.81109 -1.61705 0
M  V30 4228 H 395.682 -3.9144 -0.227348 0
M  V30 4229 H 397.172 -3.99559 -1.21419 0
M  V30 4230 N 397.609 -0.515225 -1.4894 0
M  V30 4231 C 398.541 0.292481 -2.27326 0
M  V30 4232 C 399.554 0.917838 -1.3446 0
M  V30 4233 O 400.743 0.798772 -1.5963 0
M  V30 4234 C 397.843 1.42803 -3.07344 0
M  V30 4235 C 397.016 0.907347 -4.27885 0
M  V30 4236 C 396.075 1.92222 -4.89834 0
M  V30 4237 O 395.101 1.48506 -5.49486 0
M  V30 4238 N 396.303 3.25355 -4.80754 0
M  V30 4239 H 399.068 -0.379721 -2.97285 0
M  V30 4240 H 396.629 -0.348638 -1.58102 0
M  V30 4241 H 398.621 2.10481 -3.45658 0
M  V30 4242 H 397.191 2.00414 -2.39902 0
M  V30 4243 H 396.411 0.0550218 -3.94162 0
M  V30 4244 H 397.699 0.538108 -5.05946 0
M  V30 4245 H 397.097 3.6355 -4.33414 0
M  V30 4246 H 395.654 3.88707 -5.23211 0
M  V30 4247 N 399.087 1.5561 -0.249682 0
M  V30 4248 C 400.334 1.99011 0.374287 0
M  V30 4249 C 400.662 1.13785 1.57744 0
M  V30 4250 O 399.917 0.189326 1.94782 0
M  V30 4251 C 400.216 3.4775 0.824887 0
M  V30 4252 C 399.882 4.50086 -0.270819 0
M  V30 4253 C 398.544 4.77791 -0.571746 0
M  V30 4254 C 400.896 5.11312 -1.01041 0
M  V30 4255 C 398.224 5.63997 -1.61629 0
M  V30 4256 C 400.576 5.98651 -2.0445 0
M  V30 4257 C 399.24 6.24688 -2.35204 0
M  V30 4258 H 398.51 0.728233 0.136961 0
M  V30 4259 H 401.157 1.88122 -0.358087 0
M  V30 4260 H 399.462 3.55985 1.63651 0
M  V30 4261 H 401.159 3.78721 1.31799 0
M  V30 4262 H 397.749 4.28592 -0.026136 0
M  V30 4263 H 401.933 4.89953 -0.791177 0
M  V30 4264 H 397.189 5.82425 -1.85988 0
M  V30 4265 H 401.363 6.45135 -2.62248 0
M  V30 4266 H 398.99 6.91281 -3.16282 0
M  V30 4267 N 400.565 -0.0233959 1.57583 0
M  V30 4268 C 401.842 -0.748794 1.807 0
M  V30 4269 C 402.222 -1.9327 0.849106 0
M  V30 4270 O 401.57 -2.28247 -0.107468 0
M  V30 4271 C 401.78 -1.17651 3.28571 0
M  V30 4272 C 403.128 -1.59008 3.93702 0
M  V30 4273 O 404.152 -1.27094 3.32755 0
M  V30 4274 O 403.011 -2.18264 5.01022 0
M  V30 4275 H 400.105 -0.362578 0.743281 0
M  V30 4276 H 402.651 0.000261958 1.697 0
M  V30 4277 H 401.423 -0.331603 3.89892 0
M  V30 4278 H 401.046 -1.98541 3.44481 0
M  V30 4279 N 402.043 -1.548 -0.295768 0
M  V30 4280 C 403.268 -1.78653 -1.05346 0
M  V30 4281 C 403.693 -0.546894 -1.79974 0
M  V30 4282 O 403.051 0.502763 -1.7419 0
M  V30 4283 C 403.099 -2.99679 -2.00561 0
M  V30 4284 O 402.203 -2.7317 -3.08953 0
M  V30 4285 H 401.544 -0.59116 -0.302367 0
M  V30 4286 H 404.074 -2.01895 -0.331598 0
M  V30 4287 H 404.084 -3.27793 -2.42932 0
M  V30 4288 H 402.759 -3.89562 -1.4565 0
M  V30 4289 H 401.336 -2.56089 -2.71059 0
M  V30 4290 N 403.521 0.559213 -1.47345 0
M  V30 4291 C 404.749 1.34194 -1.57479 0
M  V30 4292 C 405.164 1.87463 -0.224261 0
M  V30 4293 O 404.521 1.64888 0.782185 0
M  V30 4294 C 404.572 2.51324 -2.59843 0
M  V30 4295 O 404.293 2.00256 -3.89653 0
M  V30 4296 C 405.794 3.43563 -2.80142 0
M  V30 4297 H 403.014 0.409136 -0.531835 0
M  V30 4298 H 405.558 0.677609 -1.92947 0
M  V30 4299 H 403.713 3.13699 -2.27314 0
M  V30 4300 H 404.127 2.76708 -4.4557 0
M  V30 4301 H 405.601 4.2217 -3.55635 0
M  V30 4302 H 406.078 3.9698 -1.87892 0
M  V30 4303 H 406.684 2.87005 -3.1386 0
M  V30 4304 N 404.999 1.35443 0.805782 0
M  V30 4305 C 405.962 1.28301 1.89925 0
M  V30 4306 C 406.962 0.194285 1.59622 0
M  V30 4307 O 408.152 0.448036 1.6834 0
M  V30 4308 C 405.284 0.984997 3.2636 0
M  V30 4309 H 406.477 2.2553 1.97677 0
M  V30 4310 H 404.03 1.19979 1.00173 0
M  V30 4311 H 404.765 0.016603 3.24296 0
M  V30 4312 H 404.55 1.77269 3.4974 0
M  V30 4313 H 406.04 0.960651 4.064 0
M  V30 4314 N 406.477 -1.02803 1.19454 0
M  V30 4315 C 407.888 -1.57667 0.999899 0
M  V30 4316 C 408.239 -1.91041 -0.446956 0
M  V30 4317 O 407.364 -1.70978 -1.32648 0
M  V30 4318 C 407.959 -2.86477 1.80877 0
M  V30 4319 C 406.518 -3.37911 1.65811 0
M  V30 4320 C 405.665 -2.11343 1.79526 0
M  V30 4321 H 408.616 -0.853214 1.33813 0
M  V30 4322 H 408.637 -3.57408 1.30536 0
M  V30 4323 H 408.149 -2.62155 2.86175 0
M  V30 4324 H 406.25 -3.67218 0.63102 0
M  V30 4325 H 406.363 -4.10885 2.46395 0
M  V30 4326 H 404.727 -2.23254 1.22596 0
M  V30 4327 H 405.51 -1.89461 2.86285 0
M  V30 4328 N 407.956 -0.998596 -1.21925 0
M  V30 4329 C 409.372 -0.710303 -1.42923 0
M  V30 4330 C 409.572 0.716933 -1.88314 0
M  V30 4331 O 408.628 1.48712 -2.04062 0
M  V30 4332 C 409.941 -1.72072 -2.466 0
M  V30 4333 C 411.489 -1.73681 -2.60392 0
M  V30 4334 C 411.964 -2.73601 -3.67296 0
M  V30 4335 N 413.455 -2.7223 -3.7476 0
M  V30 4336 C 414.19 -3.46206 -4.57087 0
M  V30 4337 N 413.686 -4.29802 -5.43362 0
M  V30 4338 N 415.479 -3.34886 -4.51451 0
M  V30 4339 H 407.63 -1.92028 -0.9077 0
M  V30 4340 H 409.893 -0.828487 -0.460775 0
M  V30 4341 H 409.599 -2.74231 -2.20206 0
M  V30 4342 H 409.473 -1.51818 -3.45299 0
M  V30 4343 H 411.86 -0.722173 -2.86127 0
M  V30 4344 H 411.941 -1.98005 -1.61949 0
M  V30 4345 H 411.585 -3.75217 -3.42307 0
M  V30 4346 H 411.515 -2.46545 -4.65321 0
M  V30 4347 H 414.006 -2.11576 -3.1312 0
M  V30 4348 H 414.319 -4.83061 -6.03218 0
M  V30 4349 H 412.664 -4.33887 -5.42925 0
M  V30 4350 H 415.855 -2.69015 -3.83078 0
M  V30 4351 H 416.028 -3.92796 -5.15379 0
M  V30 4352 N 409.434 1.37368 -0.772513 0
M  V30 4353 C 410.682 1.99279 -0.336516 0
M  V30 4354 C 411.003 1.6163 1.09091 0
M  V30 4355 O 410.273 0.882109 1.74916 0
M  V30 4356 H 408.853 0.737063 -0.121435 0
M  V30 4357 H 411.515 1.67836 -0.990809 0
M  V30 4358 H 410.611 3.09332 -0.414763 0
M  V30 4359 N 410.912 0.523116 1.48665 0
M  V30 4360 C 411.862 -0.263106 2.26477 0
M  V30 4361 C 412.846 -0.916005 1.32281 0
M  V30 4362 O 414.038 -0.819946 1.56863 0
M  V30 4363 C 411.167 -1.31361 3.17174 0
M  V30 4364 C 410.253 -0.665849 4.1884 0
M  V30 4365 N 410.644 0.244434 5.05209 0
M  V30 4366 C 408.942 -0.923863 4.36326 0
M  V30 4367 C 409.643 0.617443 5.78414 0
M  V30 4368 N 408.619 -0.0198686 5.43596 0
M  V30 4369 H 412.421 0.437295 2.90629 0
M  V30 4370 H 409.935 0.340675 1.58787 0
M  V30 4371 H 411.932 -1.89052 3.71571 0
M  V30 4372 H 410.592 -2.01546 2.54576 0
M  V30 4373 H 411.603 0.616621 5.14216 0
M  V30 4374 H 408.28 -1.6168 3.84923 0
M  V30 4375 H 409.67 1.36346 6.57921 0
M  V30 4376 N 412.39 -1.55475 0.257931 0
M  V30 4377 C 413.32 -2.24815 -0.630912 0
M  V30 4378 C 414.301 -1.23224 -1.17259 0
M  V30 4379 O 415.486 -1.51904 -1.20991 0
M  V30 4380 C 412.616 -2.95609 -1.82298 0
M  V30 4381 C 411.57 -4.03982 -1.41359 0
M  V30 4382 C 410.896 -4.6226 -2.68738 0
M  V30 4383 C 412.196 -5.19109 -0.57648 0
M  V30 4384 H 413.89 -2.99354 -0.0526878 0
M  V30 4385 H 411.436 -1.4398 -0.023901 0
M  V30 4386 H 413.389 -3.42822 -2.45054 0
M  V30 4387 H 412.113 -2.18577 -2.42676 0
M  V30 4388 H 410.772 -3.57555 -0.809324 0
M  V30 4389 H 410.42 -3.81915 -3.27338 0
M  V30 4390 H 410.12 -5.35424 -2.42065 0
M  V30 4391 H 411.644 -5.12212 -3.32372 0
M  V30 4392 H 413.058 -5.62479 -1.10861 0
M  V30 4393 H 411.455 -5.98729 -0.405351 0
M  V30 4394 H 412.525 -4.83174 0.408776 0
M  V30 4395 N 413.868 0.0150385 -1.57593 0
M  V30 4396 C 414.778 1.02791 -2.10882 0
M  V30 4397 C 415.794 1.38702 -1.0506 0
M  V30 4398 O 416.97 1.47739 -1.36877 0
M  V30 4399 C 414.035 2.30568 -2.58919 0
M  V30 4400 C 413.096 2.01108 -3.79281 0
M  V30 4401 C 412.329 3.22794 -4.25018 0
M  V30 4402 O 412.552 4.33959 -3.70183 0
M  V30 4403 O 411.486 3.07672 -5.17322 0
M  V30 4404 H 415.312 0.604973 -2.97613 0
M  V30 4405 H 412.897 0.23292 -1.47573 0
M  V30 4406 H 414.779 3.05662 -2.90084 0
M  V30 4407 H 413.454 2.72129 -1.75293 0
M  V30 4408 H 412.361 1.23537 -3.53114 0
M  V30 4409 H 413.694 1.64394 -4.63935 0
M  V30 4410 N 415.346 1.54954 0.287554 0
M  V30 4411 C 416.571 1.79209 1.04397 0
M  V30 4412 C 416.996 0.556431 1.79682 0
M  V30 4413 O 416.354 -0.493518 1.74454 0
M  V30 4414 C 416.402 3.00739 1.98969 0
M  V30 4415 O 415.506 2.74805 3.075 0
M  V30 4416 H 414.847 0.592755 0.299227 0
M  V30 4417 H 417.377 2.02068 0.320886 0
M  V30 4418 H 417.387 3.29077 2.4119 0
M  V30 4419 H 416.062 3.90329 1.43582 0
M  V30 4420 H 414.639 2.57523 2.69697 0
M  V30 4421 N 416.824 -0.551391 1.4764 0
M  V30 4422 C 418.049 -1.33837 1.58437 0
M  V30 4423 C 418.474 -1.866 0.237063 0
M  V30 4424 O 417.832 -1.6328 -0.787994 0
M  V30 4425 C 417.88 -2.48014 2.61766 0
M  V30 4426 O 416.984 -3.50419 2.1744 0
M  V30 4427 H 416.325 -0.397299 0.532024 0
M  V30 4428 H 418.855 -0.665759 1.93465 0
M  V30 4429 H 418.865 -2.94503 2.82369 0
M  V30 4430 H 417.54 -2.08969 3.5959 0
M  V30 4431 H 416.117 -3.10196 2.06961 0
M  V30 4432 N 418.302 -1.35869 -0.798587 0
M  V30 4433 C 419.232 -1.32118 -1.92528 0
M  V30 4434 C 420.213 -0.194209 -1.68988 0
M  V30 4435 O 421.398 -0.390426 -1.90235 0
M  V30 4436 C 418.528 -1.10047 -3.29404 0
M  V30 4437 C 417.482 -2.19471 -3.67446 0
M  V30 4438 C 416.808 -1.82555 -5.02571 0
M  V30 4439 C 418.108 -3.61495 -3.76987 0
M  V30 4440 H 419.802 -2.26394 -1.95924 0
M  V30 4441 H 417.348 -1.08981 -0.94123 0
M  V30 4442 H 419.301 -1.06061 -4.07835 0
M  V30 4443 H 418.025 -0.122195 -3.26371 0
M  V30 4444 H 416.684 -2.22568 -2.91306 0
M  V30 4445 H 416.332 -0.833249 -4.9605 0
M  V30 4446 H 416.032 -2.5581 -5.28995 0
M  V30 4447 H 417.556 -1.80108 -5.83432 0
M  V30 4448 H 418.97 -3.60676 -4.4563 0
M  V30 4449 H 417.367 -4.33577 -4.14887 0
M  V30 4450 H 418.437 -3.97065 -2.78329 0
M  V30 4451 N 419.78 1.02168 -1.19998 0
M  V30 4452 C 420.71 2.12488 -0.96804 0
M  V30 4453 C 421.691 1.69799 0.101185 0
M  V30 4454 O 422.876 1.94121 -0.0552993 0
M  V30 4455 C 420.006 3.43479 -0.513776 0
M  V30 4456 C 418.96 3.99884 -1.52566 0
M  V30 4457 C 418.286 5.26582 -0.928214 0
M  V30 4458 C 419.586 4.33861 -2.90795 0
M  V30 4459 H 421.28 2.32149 -1.89069 0
M  V30 4460 H 418.826 1.11564 -0.910468 0
M  V30 4461 H 420.779 4.20036 -0.338774 0
M  V30 4462 H 419.503 3.23561 0.444493 0
M  V30 4463 H 418.162 3.25429 -1.68794 0
M  V30 4464 H 417.81 5.02986 0.0378289 0
M  V30 4465 H 417.51 5.65284 -1.60397 0
M  V30 4466 H 419.034 6.05799 -0.764167 0
M  V30 4467 H 420.448 5.01327 -2.78109 0
M  V30 4468 H 418.845 4.83664 -3.55231 0
M  V30 4469 H 419.915 3.42848 -3.42904 0
M  V30 4470 N 421.258 1.00505 1.21394 0
M  V30 4471 C 422.483 0.706367 1.95001 0
M  V30 4472 C 422.908 -0.72463 1.73582 0
M  V30 4473 O 422.266 -1.49702 1.0227 0
M  V30 4474 C 422.314 1.03299 3.45487 0
M  V30 4475 O 421.418 0.138275 4.12168 0
M  V30 4476 H 420.759 0.263175 0.609619 0
M  V30 4477 H 423.289 1.34531 1.54151 0
M  V30 4478 H 423.299 0.979872 3.96059 0
M  V30 4479 H 421.974 2.07567 3.60401 0
M  V30 4480 H 420.551 0.247928 3.72075 0
M  V30 4481 N 422.737 -1.36956 0.779787 0
M  V30 4482 C 423.687 -2.27539 0.144892 0
M  V30 4483 C 424.671 -1.46493 -0.665488 0
M  V30 4484 O 425.863 -1.68968 -0.527141 0
M  V30 4485 C 422.992 -3.35512 -0.727082 0
M  V30 4486 C 422.078 -4.24001 0.0915642 0
M  V30 4487 N 422.469 -4.92757 1.14125 0
M  V30 4488 C 420.767 -4.45807 -0.131141 0
M  V30 4489 C 421.468 -5.58138 1.6388 0
M  V30 4490 N 420.444 -5.35241 0.94962 0
M  V30 4491 H 424.246 -2.78176 0.948446 0
M  V30 4492 H 421.76 -1.50169 0.618315 0
M  V30 4493 H 423.757 -3.99324 -1.19776 0
M  V30 4494 H 422.417 -2.86431 -1.52929 0
M  V30 4495 H 423.428 -4.94984 1.52353 0
M  V30 4496 H 420.105 -4.07582 -0.904621 0
M  V30 4497 H 421.495 -6.23071 2.51461 0
M  V30 4498 N 424.215 -0.530993 -1.48385 0
M  V30 4499 C 425.145 0.219985 -2.32461 0
M  V30 4500 C 426.126 0.934111 -1.42156 0
M  V30 4501 O 427.311 0.919694 -1.71042 0
M  V30 4502 C 424.441 1.26674 -3.23375 0
M  V30 4503 C 423.395 0.67069 -4.22712 0
M  V30 4504 C 422.721 1.82017 -5.02766 0
M  V30 4505 C 424.021 -0.358268 -5.2107 0
M  V30 4506 H 425.715 -0.48187 -2.95497 0
M  V30 4507 H 423.261 -0.233182 -1.42099 0
M  V30 4508 H 425.214 1.80006 -3.81019 0
M  V30 4509 H 423.938 1.99818 -2.58341 0
M  V30 4510 H 422.597 0.158878 -3.66256 0
M  V30 4511 H 422.245 2.54002 -4.34157 0
M  V30 4512 H 421.945 1.42727 -5.70003 0
M  V30 4513 H 423.469 2.35725 -5.63264 0
M  V30 4514 H 424.883 0.0880081 -5.73232 0
M  V30 4515 H 423.28 -0.66861 -5.96364 0
M  V30 4516 H 424.35 -1.26367 -4.68145 0
M  V30 4517 N 425.693 1.55336 -0.266172 0
M  V30 4518 C 426.939 1.99692 0.353681 0
M  V30 4519 C 427.272 1.1543 1.56172 0
M  V30 4520 O 426.547 0.222218 1.93226 0
M  V30 4521 C 426.83 3.52316 0.74466 0
M  V30 4522 C 426.683 4.47337 -0.470101 0
M  V30 4523 C 428.002 4.10588 1.58447 0
M  V30 4524 H 425.121 0.725961 0.12708 0
M  V30 4525 H 427.763 1.86336 -0.371333 0
M  V30 4526 H 425.913 3.63829 1.36239 0
M  V30 4527 H 427.585 4.4778 -1.10864 0
M  V30 4528 H 425.828 4.19364 -1.10978 0
M  V30 4529 H 426.499 5.51788 -0.15291 0
M  V30 4530 H 428.975 4.02297 1.06286 0
M  V30 4531 H 427.851 5.17607 1.82686 0
M  V30 4532 H 428.112 3.60253 2.56262 0
M  V30 4533 N 427.171 -0.0066808 1.57599 0
M  V30 4534 C 428.448 -0.729586 1.81484 0
M  V30 4535 C 428.828 -1.92359 0.869558 0
M  V30 4536 O 428.176 -2.28348 -0.0832533 0
M  V30 4537 C 428.386 -1.1416 3.29801 0
M  V30 4538 C 429.734 -1.54823 3.95367 0
M  V30 4539 O 430.758 -1.23558 3.34084 0
M  V30 4540 O 429.617 -2.12937 5.03309 0
M  V30 4541 H 426.711 -0.354674 0.747085 0
M  V30 4542 H 429.257 0.0182609 1.6969 0
M  V30 4543 H 428.029 -0.290231 3.90222 0
M  V30 4544 H 427.652 -1.94876 3.46568 0
M  V30 4545 N 428.649 -1.55105 -0.279332 0
M  V30 4546 C 430.06 -1.66186 -0.850832 0
M  V30 4547 C 430.411 -0.584707 -1.87285 0
M  V30 4548 O 429.536 0.274919 -2.14647 0
M  V30 4549 C 430.131 -3.01264 -1.55001 0
M  V30 4550 C 428.69 -3.14394 -2.06963 0
M  V30 4551 C 427.837 -2.61959 -0.909536 0
M  V30 4552 H 430.788 -1.58602 -0.0558235 0
M  V30 4553 H 430.809 -2.93899 -2.41669 0
M  V30 4554 H 430.321 -3.7964 -0.805931 0
M  V30 4555 H 428.422 -2.4078 -2.84352 0
M  V30 4556 H 428.535 -4.20867 -2.28928 0
M  V30 4557 H 426.899 -2.18957 -1.30116 0
M  V30 4558 H 427.682 -3.42833 -0.179062 0
M  V30 4559 N 430.127 0.543554 -1.4793 0
M  V30 4560 C 431.074 1.64942 -1.6144 0
M  V30 4561 C 432.044 1.59692 -0.456903 0
M  V30 4562 O 433.229 1.78321 -0.678688 0
M  V30 4563 C 430.369 3.03238 -1.64744 0
M  V30 4564 C 429.482 3.18823 -2.91506 0
M  V30 4565 C 428.617 4.47599 -2.86057 0
M  V30 4566 C 427.656 4.56664 -4.07584 0
M  V30 4567 N 426.793 5.76811 -4.00292 0
M  V30 4568 H 431.633 1.52733 -2.55884 0
M  V30 4569 H 429.17 0.7438 -1.2691 0
M  V30 4570 H 431.128 3.83339 -1.64641 0
M  V30 4571 H 429.758 3.1425 -0.738017 0
M  V30 4572 H 428.81 2.32064 -3.01414 0
M  V30 4573 H 430.122 3.21384 -3.81463 0
M  V30 4574 H 429.276 5.35975 -2.84281 0
M  V30 4575 H 428.015 4.47538 -1.93807 0
M  V30 4576 H 427.02 3.66697 -4.09651 0
M  V30 4577 H 428.245 4.58474 -5.00978 0
M  V30 4578 H 426.191 5.77673 -3.10853 0
M  V30 4579 H 426.108 5.80808 -4.8394 0
M  V30 4580 H 427.376 6.67512 -4.02553 0
M  V30 4581 N 431.605 1.3629 0.791371 0
M  V30 4582 C 432.882 1.20962 1.53712 0
M  V30 4583 C 433.262 -0.205021 2.10102 0
M  V30 4584 O 432.61 -1.21042 1.93807 0
M  V30 4585 C 432.82 2.29002 2.63361 0
M  V30 4586 C 434.168 2.65572 3.31295 0
M  V30 4587 O 435.192 2.2803 2.73643 0
M  V30 4588 O 434.051 3.3018 4.35481 0
M  V30 4589 H 431.145 0.47086 0.679867 0
M  V30 4590 H 433.691 1.48016 0.830021 0
M  V30 4591 H 432.463 3.2382 2.19674 0
M  V30 4592 H 432.086 2.03303 3.41692 0
M  V30 4593 N 433.083 -1.0153 1.20538 0
M  V30 4594 C 434.013 -2.11972 0.979295 0
M  V30 4595 C 434.994 -1.6985 -0.0921787 0
M  V30 4596 O 436.179 -1.94089 0.0655932 0
M  V30 4597 C 433.309 -3.43201 0.531984 0
M  V30 4598 C 432.263 -3.9907 1.54685 0
M  V30 4599 C 431.589 -5.26082 0.956127 0
M  V30 4600 C 432.889 -4.32313 2.93092 0
M  V30 4601 H 434.583 -2.31143 1.90298 0
M  V30 4602 H 432.129 -1.11079 0.916372 0
M  V30 4603 H 434.082 -4.1985 0.361044 0
M  V30 4604 H 432.806 -3.23792 -0.427327 0
M  V30 4605 H 431.465 -3.2453 1.70517 0
M  V30 4606 H 431.113 -5.02999 -0.0111538 0
M  V30 4607 H 430.813 -5.64426 1.63393 0
M  V30 4608 H 432.337 -6.05386 0.796284 0
M  V30 4609 H 433.751 -4.99845 2.80763 0
M  V30 4610 H 432.148 -4.81774 3.57791 0
M  V30 4611 H 433.218 -3.41025 3.44717 0
M  V30 4612 N 434.561 -1.01147 -1.20859 0
M  V30 4613 C 435.471 -0.58686 -2.27141 0
M  V30 4614 C 436.487 0.373198 -1.69951 0
M  V30 4615 O 437.663 0.235423 -2.00019 0
M  V30 4616 C 434.728 0.0733602 -3.46622 0
M  V30 4617 C 433.789 -0.931995 -4.19061 0
M  V30 4618 C 433.022 -0.303186 -5.32838 0
M  V30 4619 O 433.245 0.898395 -5.63281 0
M  V30 4620 O 432.179 -1.01735 -5.9324 0
M  V30 4621 H 436.005 -1.47155 -2.65667 0
M  V30 4622 H 433.59 -0.780689 -1.2738 0
M  V30 4623 H 435.472 0.442333 -4.19072 0
M  V30 4624 H 434.147 0.932329 -3.09983 0
M  V30 4625 H 433.054 -1.35224 -3.48805 0
M  V30 4626 H 434.387 -1.76076 -4.59628 0
M  V30 4627 N 436.039 1.36541 -0.78704 0
M  V30 4628 C 437.45 1.81873 -0.421807 0
M  V30 4629 C 437.801 1.65487 1.05397 0
M  V30 4630 O 436.926 1.17448 1.81755 0
M  V30 4631 C 437.521 3.30192 -0.758841 0
M  V30 4632 C 436.08 3.73743 -0.446468 0
M  V30 4633 C 435.227 2.58844 -0.994728 0
M  V30 4634 H 438.178 1.24796 -0.98039 0
M  V30 4635 H 438.199 3.80468 -0.0490648 0
M  V30 4636 H 437.711 3.42087 -1.83299 0
M  V30 4637 H 435.812 3.6741 0.619739 0
M  V30 4638 H 435.925 4.69272 -0.965415 0
M  V30 4639 H 434.289 2.51245 -0.418087 0
M  V30 4640 H 435.072 2.73525 -2.07458 0
M  V30 4641 N 437.518 0.538854 1.48102 0
M  V30 4642 C 438.934 0.19732 1.58376 0
M  V30 4643 C 439.134 -1.29971 1.5398 0
M  V30 4644 O 438.19 -2.07861 1.43352 0
M  V30 4645 C 439.503 0.807716 2.89649 0
M  V30 4646 C 441.051 0.77726 3.03196 0
M  V30 4647 C 441.526 1.36639 4.37143 0
M  V30 4648 N 443.017 1.32875 4.43732 0
M  V30 4649 C 443.752 1.7544 5.45901 0
M  V30 4650 N 443.248 2.25776 6.54979 0
M  V30 4651 N 445.041 1.66623 5.36836 0
M  V30 4652 H 437.192 1.5117 1.49202 0
M  V30 4653 H 439.455 0.629327 0.708979 0
M  V30 4654 H 439.161 1.85909 2.98548 0
M  V30 4655 H 439.035 0.289975 3.76084 0
M  V30 4656 H 441.422 -0.265374 2.93904 0
M  V30 4657 H 441.503 1.33256 2.18349 0
M  V30 4658 H 441.147 2.408 4.47189 0
M  V30 4659 H 441.077 0.786689 5.20691 0
M  V30 4660 H 443.568 0.96037 3.65493 0
M  V30 4661 H 443.881 2.56226 7.29087 0
M  V30 4662 H 442.226 2.29775 6.55918 0
M  V30 4663 H 445.417 1.27089 4.50517 0
M  V30 4664 H 445.59 2.00115 6.16326 0
M  V30 4665 N 438.996 -1.55193 0.274407 0
M  V30 4666 C 439.959 -2.212 -0.600279 0
M  V30 4667 C 440.959 -1.18963 -1.08187 0
M  V30 4668 O 442.149 -1.43873 -0.982158 0
M  V30 4669 C 439.281 -2.87739 -1.82809 0
M  V30 4670 H 440.474 -2.9989 -0.0239682 0
M  V30 4671 H 438.027 -1.5628 0.0250192 0
M  V30 4672 H 438.762 -2.13058 -2.44493 0
M  V30 4673 H 438.547 -3.62658 -1.49069 0
M  V30 4674 H 440.037 -3.38171 -2.45011 0
M  V30 4675 N 440.474 -0.00167713 -1.576 0
M  V30 4676 C 441.437 0.974046 -2.07473 0
M  V30 4677 C 442.437 1.27143 -0.984444 0
M  V30 4678 O 443.627 1.21633 -1.24703 0
M  V30 4679 C 440.759 2.29849 -2.51759 0
M  V30 4680 H 441.952 0.54262 -2.9495 0
M  V30 4681 H 439.505 0.245829 -1.54355 0
M  V30 4682 H 440.24 2.77677 -1.67529 0
M  V30 4683 H 440.025 2.09584 -3.31386 0
M  V30 4684 H 441.515 2.9984 -2.90664 0
M  V30 4685 N 441.952 1.55251 0.271103 0
M  V30 4686 C 442.9 1.89054 1.35504 0
M  V30 4687 C 443.894 0.767064 1.51038 0
M  V30 4688 O 445.1 0.951429 1.528 0
M  V30 4689 H 441.475 0.600072 0.45323 0
M  V30 4690 H 443.446 2.79598 1.04247 0
M  V30 4691 C 442.195 2.18068 2.70817 0
M  V30 4692 H 441.518 3.04005 2.59656 0
M  V30 4693 H 442.958 2.4564 3.45597 0
M  V30 4694 C 441.417 0.988901 3.2206 0
M  V30 4695 O 441.947 0.224501 4.01072 0
M  V30 4696 N 440.153 0.786085 2.79766 0
M  V30 4697 H 439.7 1.40937 2.15626 0
M  V30 4698 H 439.658 -0.00969349 3.14399 0
M  V30 4699 N 443.43 -0.535701 1.48216 0
M  V30 4700 C 444.67 -1.30238 1.57536 0
M  V30 4701 C 445.034 -1.90479 0.241229 0
M  V30 4702 O 446.235 -2.67983 0.20938 0
M  V30 4703 C 444.506 -2.3669 2.67792 0
M  V30 4704 S 446.065 -3.23159 2.9684 0
M  V30 4705 H 442.883 -0.443093 0.556048 0
M  V30 4706 H 445.485 -0.610937 1.85709 0
M  V30 4707 H 444.189 -1.90905 3.63296 0
M  V30 4708 H 443.72 -3.10548 2.41502 0
M  V30 4709 H 445.735 -4.36647 2.35699 0
M  V30 4710 N 444.908 -1.36708 -0.784132 0
M  V30 4711 C 446.136 -1.34398 -1.57305 0
M  V30 4712 C 446.551 0.0735577 -1.88657 0
M  V30 4713 O 445.908 1.03193 -1.50524 0
M  V30 4714 C 445.959 -2.17053 -2.89085 0
M  V30 4715 O 445.68 -3.53281 -2.59083 0
M  V30 4716 C 447.181 -2.22583 -3.83369 0
M  V30 4717 H 444.401 -0.460819 -0.487736 0
M  V30 4718 H 446.945 -1.79879 -0.972819 0
M  V30 4719 H 445.1 -1.75113 -3.45564 0
M  V30 4720 H 445.514 -3.9647 -3.43383 0
M  V30 4721 H 446.988 -2.84763 -4.72878 0
M  V30 4722 H 447.465 -1.23075 -4.21603 0
M  V30 4723 H 448.071 -2.64781 -3.32823 0
M  V30 4724 N 446.386 1.0089 -1.21074 0
M  V30 4725 C 447.802 1.2695 -0.967257 0
M  V30 4726 C 448.002 1.9846 0.348673 0
M  V30 4727 O 447.058 2.28459 1.0753 0
M  V30 4728 C 448.371 2.09697 -2.15517 0
M  V30 4729 C 449.919 2.22937 -2.197 0
M  V30 4730 C 450.394 3.09064 -3.37999 0
M  V30 4731 N 451.885 3.16653 -3.38061 0
M  V30 4732 C 452.62 3.8354 -4.26245 0
M  V30 4733 N 452.116 4.52488 -5.2462 0
M  V30 4734 N 453.909 3.80141 -4.14064 0
M  V30 4735 H 446.06 0.529005 -2.05707 0
M  V30 4736 H 448.323 0.296148 -0.900556 0
M  V30 4737 H 448.029 1.64497 -3.10859 0
M  V30 4738 H 447.903 3.10444 -2.14253 0
M  V30 4739 H 450.29 2.67357 -1.24916 0
M  V30 4740 H 450.371 1.21673 -2.2501 0
M  V30 4741 H 450.015 2.65347 -4.33074 0
M  V30 4742 H 449.945 4.10433 -3.29928 0
M  V30 4743 H 452.436 2.67566 -2.66865 0
M  V30 4744 H 452.749 5.01219 -5.88217 0
M  V30 4745 H 451.094 4.51288 -5.28549 0
M  V30 4746 H 454.285 3.25427 -3.36474 0
M  V30 4747 H 454.458 4.31992 -4.82998 0
M  V30 4748 N 447.864 1.01787 1.20321 0
M  V30 4749 C 449.11 0.708985 1.90003 0
M  V30 4750 C 449.443 -0.759572 1.78729 0
M  V30 4751 O 448.718 -1.55198 1.17234 0
M  V30 4752 C 449.001 1.1469 3.41348 0
M  V30 4753 C 448.854 2.67586 3.61549 0
M  V30 4754 C 450.173 0.71915 4.34185 0
M  V30 4755 H 447.292 0.259034 0.689978 0
M  V30 4756 H 449.934 1.26584 1.41692 0
M  V30 4757 H 448.084 0.673128 3.82624 0
M  V30 4758 H 449.756 3.22826 3.29517 0
M  V30 4759 H 447.999 3.085 3.04976 0
M  V30 4760 H 448.67 2.93281 4.67643 0
M  V30 4761 H 451.146 1.12647 4.00562 0
M  V30 4762 H 450.022 1.05358 5.38694 0
M  V30 4763 H 450.283 -0.379111 4.40472 0
M  V30 4764 N 449.342 -1.36122 0.79427 0
M  V30 4765 C 450.272 -2.32551 0.210328 0
M  V30 4766 C 451.253 -1.56884 -0.657386 0
M  V30 4767 O 452.438 -1.85014 -0.590207 0
M  V30 4768 C 449.568 -3.41128 -0.651819 0
M  V30 4769 C 448.522 -4.27842 0.116395 0
M  V30 4770 C 447.848 -5.2763 -0.86666 0
M  V30 4771 C 449.148 -5.05647 1.30837 0
M  V30 4772 H 450.842 -2.81636 1.01594 0
M  V30 4773 H 448.388 -1.35407 0.489981 0
M  V30 4774 H 450.341 -4.07581 -1.07031 0
M  V30 4775 H 449.065 -2.90622 -1.49019 0
M  V30 4776 H 447.724 -3.62952 0.515915 0
M  V30 4777 H 447.372 -4.73395 -1.70019 0
M  V30 4778 H 447.072 -5.86514 -0.35705 0
M  V30 4779 H 448.596 -5.96955 -1.28361 0
M  V30 4780 H 450.01 -5.65113 0.965393 0
M  V30 4781 H 448.407 -5.73967 1.75161 0
M  V30 4782 H 449.477 -4.37006 2.10128 0
M  V30 4783 N 450.82 -0.546701 -1.47814 0
M  V30 4784 C 452.066 -0.0187684 -2.02791 0
M  V30 4785 C 452.399 1.32338 -1.42128 0
M  V30 4786 O 451.674 1.85867 -0.573023 0
M  V30 4787 C 451.957 0.0854985 -3.59998 0
M  V30 4788 C 451.81 -1.283 -4.31114 0
M  V30 4789 C 453.129 0.80412 -4.32691 0
M  V30 4790 H 450.248 -0.0082946 -0.736953 0
M  V30 4791 H 452.89 -0.706962 -1.76358 0
M  V30 4792 H 451.04 0.671609 -3.82651 0
M  V30 4793 H 452.712 -1.91151 -4.19832 0
M  V30 4794 H 450.955 -1.86049 -3.91878 0
M  V30 4795 H 451.626 -1.16287 -5.39612 0
M  V30 4796 H 454.102 0.306576 -4.14969 0
M  V30 4797 H 452.978 0.846011 -5.42341 0
M  V30 4798 H 453.239 1.85802 -4.01161 0
M  V30 4799 N 452.299 1.55045 -0.282633 0
M  V30 4800 C 453.545 2.0078 0.325436 0
M  V30 4801 C 453.9 1.1676 1.52921 0
M  V30 4802 O 453.193 0.231475 1.90197 0
M  V30 4803 C 453.387 3.49422 0.750938 0
M  V30 4804 C 453.216 4.47827 -0.410056 0
M  V30 4805 C 451.986 4.97288 -0.896239 0
M  V30 4806 C 454.184 4.98903 -1.24902 0
M  V30 4807 N 452.166 5.79508 -2.02591 0
M  V30 4808 C 453.537 5.78644 -2.22646 0
M  V30 4809 C 455.592 4.81126 -1.2815 0
M  V30 4810 C 454.295 6.42502 -3.23393 0
M  V30 4811 C 456.321 5.45789 -2.27745 0
M  V30 4812 C 455.683 6.25348 -3.24222 0
M  V30 4813 H 451.782 0.77747 0.08405 0
M  V30 4814 H 454.366 1.90369 -0.408368 0
M  V30 4815 H 452.537 3.60159 1.45395 0
M  V30 4816 H 454.269 3.81978 1.33698 0
M  V30 4817 H 451.024 4.71219 -0.474277 0
M  V30 4818 H 451.448 6.25308 -2.59459 0
M  V30 4819 H 456.09 4.19215 -0.549397 0
M  V30 4820 H 453.808 7.03558 -3.97533 0
M  V30 4821 H 457.394 5.33972 -2.31009 0
M  V30 4822 H 456.274 6.74498 -4.00027 0
M  V30 4823 N 453.777 0.010035 1.57597 0
M  V30 4824 C 454.727 -0.986858 2.05536 0
M  V30 4825 C 455.711 -1.29711 0.952042 0
M  V30 4826 O 456.903 -1.28641 1.21575 0
M  V30 4827 C 454.032 -2.2756 2.57043 0
M  V30 4828 C 453.118 -1.99455 3.74271 0
M  V30 4829 N 453.509 -1.41546 4.85591 0
M  V30 4830 C 451.807 -2.29547 3.82393 0
M  V30 4831 C 452.508 -1.3014 5.66956 0
M  V30 4832 N 451.484 -1.79044 5.13268 0
M  V30 4833 H 455.286 -0.533778 2.89012 0
M  V30 4834 H 452.8 -0.195432 1.6122 0
M  V30 4835 H 454.797 -2.99829 2.89669 0
M  V30 4836 H 453.457 -2.73512 1.7499 0
M  V30 4837 H 454.468 -1.09294 5.06236 0
M  V30 4838 H 451.145 -2.78304 3.11213 0
M  V30 4839 H 452.535 -0.855237 6.66435 0
M  V30 4840 N 455.255 -1.55392 -0.262866 0
M  V30 4841 C 456.483 -1.80513 -1.01108 0
M  V30 4842 C 456.898 -0.583533 -1.79556 0
M  V30 4843 O 456.255 0.447585 -1.76926 0
M  V30 4844 C 456.306 -3.03648 -1.96164 0
M  V30 4845 O 456.027 -4.2109 -1.20893 0
M  V30 4846 C 457.528 -3.41448 -2.82715 0
M  V30 4847 H 454.748 -0.601079 -0.298236 0
M  V30 4848 H 457.292 -2.02425 -0.290582 0
M  V30 4849 H 455.447 -2.83832 -2.63663 0
M  V30 4850 H 455.861 -4.90771 -1.85051 0
M  V30 4851 H 457.335 -4.30751 -3.45192 0
M  V30 4852 H 457.812 -2.61308 -3.53008 0
M  V30 4853 H 458.418 -3.63559 -2.20693 0
M  V30 4854 N 456.733 0.527833 -1.48498 0
M  V30 4855 C 458.149 0.856571 -1.34666 0
M  V30 4856 C 458.349 1.98271 -0.35931 0
M  V30 4857 O 457.405 2.51551 0.218703 0
M  V30 4858 C 458.718 1.22207 -2.74747 0
M  V30 4859 C 460.266 1.33183 -2.83251 0
M  V30 4860 C 460.741 1.73075 -4.24039 0
M  V30 4861 N 462.232 1.80174 -4.26722 0
M  V30 4862 C 462.967 2.1243 -5.32598 0
M  V30 4863 N 462.463 2.43096 -6.4875 0
M  V30 4864 N 464.256 2.13454 -5.19994 0
M  V30 4865 H 456.407 -0.215174 -2.11307 0
M  V30 4866 H 458.67 -0.0336281 -0.947403 0
M  V30 4867 H 458.376 0.468195 -3.4857 0
M  V30 4868 H 458.25 2.17173 -3.08409 0
M  V30 4869 H 460.637 2.07647 -2.09683 0
M  V30 4870 H 460.718 0.363333 -2.53206 0
M  V30 4871 H 460.362 0.991712 -4.98124 0
M  V30 4872 H 460.292 2.70979 -4.51529 0
M  V30 4873 H 462.783 1.58744 -3.42942 0
M  V30 4874 H 463.096 2.6682 -7.25277 0
M  V30 4875 H 461.441 2.40611 -6.52021 0
M  V30 4876 H 464.632 1.88956 -4.28268 0
M  V30 4877 H 464.805 2.38261 -6.02608 0
M  V30 4878 N 458.211 1.37122 0.776871 0
M  V30 4879 C 459.439 1.3523 1.5659 0
M  V30 4880 C 459.854 -0.0635518 1.88693 0
M  V30 4881 O 459.211 -1.02394 1.51069 0
M  V30 4882 C 459.262 2.18583 2.8793 0
M  V30 4883 O 458.983 3.5465 2.57206 0
M  V30 4884 C 460.484 2.24612 3.82183 0
M  V30 4885 H 457.704 0.4634 0.485285 0
M  V30 4886 H 460.248 1.80392 0.963266 0
M  V30 4887 H 458.403 1.76943 3.4463 0
M  V30 4888 H 458.817 3.98286 3.41275 0
M  V30 4889 H 460.291 2.87267 4.71361 0
M  V30 4890 H 460.768 1.25309 4.20944 0
M  V30 4891 H 461.374 2.66543 3.31414 0
M  V30 4892 N 459.689 -1.00246 1.21608 0
M  V30 4893 C 460.599 -2.12515 0.993709 0
M  V30 4894 C 461.615 -1.73913 -0.0549939 0
M  V30 4895 O 462.791 -2.00943 0.135619 0
M  V30 4896 C 459.856 -3.42083 0.563953 0
M  V30 4897 C 458.917 -3.94843 1.68516 0
M  V30 4898 C 458.15 -5.18226 1.27582 0
M  V30 4899 O 458.373 -5.70201 0.150506 0
M  V30 4900 O 457.307 -5.64497 2.0887 0
M  V30 4901 H 461.133 -2.34152 1.93407 0
M  V30 4902 H 458.718 -1.10891 1.00118 0
M  V30 4903 H 460.6 -4.20073 0.334194 0
M  V30 4904 H 459.275 -3.21828 -0.347665 0
M  V30 4905 H 458.182 -3.18068 1.96935 0
M  V30 4906 H 459.515 -4.19512 2.5743 0
M  V30 4907 N 461.167 -1.02423 -1.1978 0
M  V30 4908 C 462.114 -0.601023 -2.22837 0
M  V30 4909 C 463.084 0.382801 -1.61629 0
M  V30 4910 O 464.269 0.280514 -1.88727 0
M  V30 4911 C 461.409 0.0467755 -3.45068 0
M  V30 4912 C 460.522 -0.98253 -4.20678 0
M  V30 4913 C 459.657 -0.304982 -5.30324 0
M  V30 4914 C 458.696 -1.32052 -5.97686 0
M  V30 4915 N 457.833 -0.669105 -6.98904 0
M  V30 4916 H 462.673 -1.48444 -2.58396 0
M  V30 4917 H 460.21 -0.742936 -1.2696 0
M  V30 4918 H 462.168 0.439556 -4.14878 0
M  V30 4919 H 460.798 0.893796 -3.10179 0
M  V30 4920 H 459.85 -1.49341 -3.49859 0
M  V30 4921 H 461.162 -1.75455 -4.66923 0
M  V30 4922 H 460.316 0.142893 -6.06532 0
M  V30 4923 H 459.055 0.499283 -4.85138 0
M  V30 4924 H 458.06 -1.7787 -5.20233 0
M  V30 4925 H 459.285 -2.1262 -6.44957 0
M  V30 4926 H 457.231 0.115152 -6.55899 0
M  V30 4927 H 457.148 -1.37908 -7.43315 0
M  V30 4928 H 458.416 -0.245076 -7.79115 0
M  V30 4929 N 462.645 1.35699 -0.801477 0
M  V30 4930 C 464.056 1.81415 -0.441073 0
M  V30 4931 C 464.407 1.66595 1.03636 0
M  V30 4932 O 463.532 1.19369 1.80499 0
M  V30 4933 C 464.127 3.29369 -0.793819 0
M  V30 4934 C 462.686 3.73248 -0.486083 0
M  V30 4935 C 461.833 2.57775 -1.02213 0
M  V30 4936 H 464.784 1.23749 -0.993572 0
M  V30 4937 H 464.805 3.80395 -0.0894158 0
M  V30 4938 H 464.317 3.40123 -1.86917 0
M  V30 4939 H 462.418 3.68046 0.580735 0
M  V30 4940 H 462.531 4.68222 -1.01513 0
M  V30 4941 H 460.895 2.50788 -0.444712 0
M  V30 4942 H 461.678 2.71309 -2.10348 0
M  V30 4943 N 464.123 0.554532 1.47522 0
M  V30 4944 C 465.07 -0.19466 2.29978 0
M  V30 4945 C 466.04 -0.910882 1.38896 0
M  V30 4946 O 467.225 -0.907102 1.67858 0
M  V30 4947 C 464.365 -1.22035 3.22802 0
M  V30 4948 C 463.478 -0.510474 4.28973 0
M  V30 4949 C 462.613 -1.52123 5.08952 0
M  V30 4950 C 461.652 -0.796173 6.069 0
M  V30 4951 N 460.789 -1.75363 6.79847 0
M  V30 4952 H 465.629 0.51461 2.93523 0
M  V30 4953 H 463.166 0.265607 1.44682 0
M  V30 4954 H 465.124 -1.8276 3.7504 0
M  V30 4955 H 463.754 -1.89769 2.61127 0
M  V30 4956 H 462.806 0.211234 3.79813 0
M  V30 4957 H 464.118 0.0576503 4.98767 0
M  V30 4958 H 463.272 -2.20207 5.65326 0
M  V30 4959 H 462.011 -2.12327 4.39054 0
M  V30 4960 H 461.016 -0.101388 5.49707 0
M  V30 4961 H 462.241 -0.199911 6.78806 0
M  V30 4962 H 460.187 -2.3443 6.12682 0
M  V30 4963 H 460.104 -1.23759 7.45801 0
M  V30 4964 H 461.372 -2.4257 7.40797 0
M  V30 4965 N 465.601 -1.54893 0.290851 0
M  V30 4966 C 466.534 -2.19289 -0.631489 0
M  V30 4967 C 467.512 -1.15893 -1.14051 0
M  V30 4968 O 468.696 -1.4449 -1.21058 0
M  V30 4969 C 465.823 -2.82866 -1.86291 0
M  V30 4970 C 464.869 -3.997 -1.48801 0
M  V30 4971 S 465.702 -5.32641 -0.552644 0
M  V30 4972 C 466.858 -5.99696 -1.79209 0
M  V30 4973 H 467.091 -2.9718 -0.0843791 0
M  V30 4974 H 464.624 -1.54218 0.075031 0
M  V30 4975 H 466.582 -3.20124 -2.56964 0
M  V30 4976 H 465.243 -2.04839 -2.38117 0
M  V30 4977 H 464.436 -4.42932 -2.40473 0
M  V30 4978 H 464.038 -3.63947 -0.861321 0
M  V30 4979 H 466.33 -6.19886 -2.734 0
M  V30 4980 H 467.273 -6.94071 -1.40251 0
M  V30 4981 H 467.681 -5.29226 -1.96419 0
M  V30 4982 N 467.08 -0.0183926 -1.57589 0
M  V30 4983 C 468.027 0.967022 -2.09565 0
M  V30 4984 C 468.997 1.32983 -0.995225 0
M  V30 4985 O 470.182 1.42501 -1.26878 0
M  V30 4986 C 467.322 2.24772 -2.61861 0
M  V30 4987 C 466.435 1.94232 -3.85873 0
M  V30 4988 C 465.57 3.16518 -4.26603 0
M  V30 4989 C 464.609 2.81748 -5.43401 0
M  V30 4990 N 463.746 3.96626 -5.79338 0
M  V30 4991 H 468.586 0.516874 -2.93483 0
M  V30 4992 H 466.123 0.243544 -1.4507 0
M  V30 4993 H 468.081 2.99667 -2.90268 0
M  V30 4994 H 466.711 2.67423 -1.8079 0
M  V30 4995 H 465.763 1.09625 -3.64262 0
M  V30 4996 H 467.075 1.64616 -4.70853 0
M  V30 4997 H 466.229 3.99743 -4.56389 0
M  V30 4998 H 464.968 3.49286 -3.40368 0
M  V30 4999 H 463.973 1.96933 -5.1332 0
M  V30 5000 H 465.198 2.50207 -6.31327 0
M  V30 5001 H 463.144 4.29257 -4.96059 0
M  V30 5002 H 463.061 3.70598 -6.58933 0
M  V30 5003 H 464.329 4.80586 -6.13724 0
M  V30 5004 N 468.558 1.5553 0.254621 0
M  V30 5005 C 469.49 1.86104 1.33783 0
M  V30 5006 C 470.503 0.746752 1.44663 0
M  V30 5007 O 471.692 1.0248 1.46151 0
M  V30 5008 C 468.792 2.02532 2.71724 0
M  V30 5009 C 467.965 3.33335 2.83208 0
M  V30 5010 C 467.024 3.396 4.01943 0
M  V30 5011 O 466.05 4.12862 3.91834 0
M  V30 5012 N 467.252 2.68332 5.1476 0
M  V30 5013 H 470.017 2.79605 1.07893 0
M  V30 5014 H 467.578 1.55672 0.444732 0
M  V30 5015 H 469.57 2.04074 3.4948 0
M  V30 5016 H 468.14 1.15811 2.90356 0
M  V30 5017 H 467.36 3.44176 1.92189 0
M  V30 5018 H 468.648 4.19565 2.87824 0
M  V30 5019 H 468.046 2.08528 5.25864 0
M  V30 5020 H 466.603 2.75575 5.90679 0
M  V30 5021 N 470.036 -0.519951 1.48776 0
M  V30 5022 C 470.946 -1.65025 1.66745 0
M  V30 5023 C 471.962 -1.6508 0.549954 0
M  V30 5024 O 473.138 -1.83848 0.822295 0
M  V30 5025 C 470.203 -3.0146 1.71238 0
M  V30 5026 C 469.264 -3.12182 2.94688 0
M  V30 5027 C 468.497 -4.42109 2.98958 0
M  V30 5028 O 468.72 -5.29799 2.1135 0
M  V30 5029 O 467.654 -4.57406 3.91233 0
M  V30 5030 H 471.48 -1.52801 2.62461 0
M  V30 5031 H 469.065 -0.694157 1.32294 0
M  V30 5032 H 470.947 -3.82584 1.76657 0
M  V30 5033 H 469.622 -3.13988 0.786975 0
M  V30 5034 H 468.529 -2.30316 2.94797 0
M  V30 5035 H 469.862 -3.04574 3.86646 0
M  V30 5036 N 471.514 -1.37532 -0.769588 0
M  V30 5037 C 472.424 -1.35668 -1.91393 0
M  V30 5038 C 473.44 -0.255954 -1.72107 0
M  V30 5039 O 474.616 -0.491704 -1.95305 0
M  V30 5040 C 471.681 -1.16481 -3.26547 0
M  V30 5041 C 470.742 -2.36212 -3.58472 0
M  V30 5042 C 469.975 -2.17932 -4.87177 0
M  V30 5043 O 470.198 -1.1647 -5.58382 0
M  V30 5044 O 469.132 -3.06167 -5.18214 0
M  V30 5045 H 472.958 -2.32055 -1.95918 0
M  V30 5046 H 470.543 -1.18284 -0.912641 0
M  V30 5047 H 472.425 -1.07778 -4.07384 0
M  V30 5048 H 471.1 -0.231687 -3.2287 0
M  V30 5049 H 470.007 -2.50488 -2.77861 0
M  V30 5050 H 471.34 -3.281 -3.66894 0
M  V30 5051 N 472.992 0.995999 -1.22138 0
M  V30 5052 C 473.924 2.08745 -0.946485 0
M  V30 5053 C 474.937 1.62633 0.0737356 0
M  V30 5054 O 476.126 1.77782 -0.159886 0
M  V30 5055 C 473.226 3.36516 -0.401305 0
M  V30 5056 C 472.399 4.11672 -1.47801 0
M  V30 5057 C 471.458 5.17728 -0.940461 0
M  V30 5058 O 470.484 5.45482 -1.62596 0
M  V30 5059 N 471.686 5.80005 0.239723 0
M  V30 5060 H 474.451 2.32908 -1.88611 0
M  V30 5061 H 472.012 1.16152 -1.12785 0
M  V30 5062 H 474.004 4.04691 -0.0270837 0
M  V30 5063 H 472.574 3.0944 0.443354 0
M  V30 5064 H 471.794 3.38171 -2.02568 0
M  V30 5065 H 473.082 4.58657 -2.20253 0
M  V30 5066 H 472.48 5.5982 0.813518 0
M  V30 5067 H 471.037 6.4943 0.555361 0
M  V30 5068 N 474.47 1.03057 1.19235 0
M  V30 5069 C 475.4 0.633497 2.24742 0
M  V30 5070 C 476.381 -0.358335 1.66283 0
M  V30 5071 O 477.566 -0.240676 1.92703 0
M  V30 5072 C 474.696 -0.0147648 3.47297 0
M  V30 5073 C 473.65 0.899527 4.18441 0
M  V30 5074 C 472.976 0.116281 5.34574 0
M  V30 5075 C 474.276 2.21404 4.73051 0
M  V30 5076 H 475.97 1.5155 2.58211 0
M  V30 5077 H 473.516 0.73014 1.24117 0
M  V30 5078 H 475.469 -0.304202 4.20301 0
M  V30 5079 H 474.193 -0.931577 3.13032 0
M  V30 5080 H 472.852 1.17319 3.47321 0
M  V30 5081 H 472.5 -0.802619 4.96555 0
M  V30 5082 H 472.2 0.725293 5.83107 0
M  V30 5083 H 473.724 -0.166376 6.10373 0
M  V30 5084 H 475.138 1.98601 5.37802 0
M  V30 5085 H 473.535 2.77512 5.32078 0
M  V30 5086 H 474.605 2.86752 3.91026 0
M  V30 5087 N 475.948 -1.35272 0.808662 0
M  V30 5088 C 476.88 -2.28507 0.178149 0
M  V30 5089 C 477.893 -1.50377 -0.623754 0
M  V30 5090 O 479.082 -1.72583 -0.455774 0
M  V30 5091 C 476.182 -3.30038 -0.769959 0
M  V30 5092 C 475.355 -4.37398 -0.0139749 0
M  V30 5093 C 474.414 -5.18775 -0.880875 0
M  V30 5094 O 473.44 -5.68236 -0.331059 0
M  V30 5095 N 474.642 -5.37087 -2.20267 0
M  V30 5096 H 477.407 -2.83255 0.979106 0
M  V30 5097 H 474.968 -1.47643 0.664308 0
M  V30 5098 H 476.96 -3.81371 -1.35418 0
M  V30 5099 H 475.53 -2.75789 -1.47171 0
M  V30 5100 H 474.75 -3.86971 0.751468 0
M  V30 5101 H 476.038 -5.06268 0.506965 0
M  V30 5102 H 475.436 -4.9855 -2.67328 0
M  V30 5103 H 473.993 -5.91593 -2.73608 0
M  V30 5104 N 477.426 -0.562348 -1.47226 0
M  V30 5105 C 478.842 -0.222492 -1.58042 0
M  V30 5106 C 479.042 1.27505 -1.56028 0
M  V30 5107 O 478.098 2.05555 -1.46641 0
M  V30 5108 C 479.411 -0.853694 -2.88327 0
M  V30 5109 C 480.959 -0.825397 -3.01921 0
M  V30 5110 C 481.434 -1.43576 -4.34914 0
M  V30 5111 N 482.925 -1.39918 -4.41562 0
M  V30 5112 C 483.66 -1.84103 -5.43041 0
M  V30 5113 N 483.156 -2.36167 -6.51304 0
M  V30 5114 N 484.949 -1.75142 -5.34118 0
M  V30 5115 H 477.1 -1.53525 -1.46778 0
M  V30 5116 H 479.363 -0.640527 -0.698877 0
M  V30 5117 H 479.069 -1.90635 -2.95552 0
M  V30 5118 H 478.943 -0.34977 -3.75575 0
M  V30 5119 H 481.33 0.218583 -2.94289 0
M  V30 5120 H 481.411 -1.36713 -2.16202 0
M  V30 5121 H 481.055 -2.47884 -4.43301 0
M  V30 5122 H 480.985 -0.869427 -5.19373 0
M  V30 5123 H 483.476 -1.0184 -3.63919 0
M  V30 5124 H 483.789 -2.67793 -7.24919 0
M  V30 5125 H 482.134 -2.40181 -6.52179 0
M  V30 5126 H 485.325 -1.34241 -4.48439 0
M  V30 5127 H 485.498 -2.09895 -6.13065 0
M  V30 5128 N 478.904 1.54736 -0.299062 0
M  V30 5129 C 479.836 2.20891 0.61153 0
M  V30 5130 C 480.849 1.20104 1.09904 0
M  V30 5131 O 482.038 1.46707 1.01683 0
M  V30 5132 C 479.138 2.84018 1.84897 0
M  V30 5133 C 478.311 4.10719 1.50428 0
M  V30 5134 C 477.37 4.57667 2.59667 0
M  V30 5135 O 476.396 5.2291 2.24842 0
M  V30 5136 N 477.598 4.29821 3.90172 0
M  V30 5137 H 480.363 2.99666 0.0452001 0
M  V30 5138 H 477.924 1.61446 -0.121178 0
M  V30 5139 H 479.916 3.1236 2.5732 0
M  V30 5140 H 478.486 2.09095 2.32375 0
M  V30 5141 H 477.706 3.89408 0.612781 0
M  V30 5142 H 478.994 4.93223 1.24934 0
M  V30 5143 H 478.392 3.77549 4.21276 0
M  V30 5144 H 476.949 4.62877 4.58899 0
M  V30 5145 N 480.382 0.0267497 1.57577 0
M  V30 5146 C 481.63 -0.651116 1.91324 0
M  V30 5147 C 481.951 -1.72804 0.90353 0
M  V30 5148 O 481.221 -1.95822 -0.0552946 0
M  V30 5149 H 479.801 -0.243491 0.706202 0
M  V30 5150 H 482.463 0.0739935 1.94759 0
M  V30 5151 H 481.559 -1.10536 2.9187 0
M  V30 5152 N 481.861 -1.55662 -0.24637 0
M  V30 5153 C 483.277 -1.48098 -0.594907 0
M  V30 5154 C 483.477 -0.717044 -1.8831 0
M  V30 5155 O 482.533 -0.246618 -2.51293 0
M  V30 5156 C 483.846 -2.92507 -0.697146 0
M  V30 5157 C 485.394 -3.02881 -0.789436 0
M  V30 5158 C 485.869 -4.48598 -0.923232 0
M  V30 5159 N 487.36 -4.52538 -0.988088 0
M  V30 5160 C 488.095 -5.62536 -1.11089 0
M  V30 5161 N 487.591 -6.82342 -1.19919 0
M  V30 5162 N 489.384 -5.50334 -1.14408 0
M  V30 5163 H 481.535 -2.0377 0.599278 0
M  V30 5164 H 483.798 -0.925145 0.20691 0
M  V30 5165 H 483.504 -3.51242 0.179396 0
M  V30 5166 H 483.378 -3.43024 -1.5689 0
M  V30 5167 H 485.765 -2.44226 -1.65643 0
M  V30 5168 H 485.846 -2.55574 0.107482 0
M  V30 5169 H 485.49 -5.07864 -0.0607927 0
M  V30 5170 H 485.42 -4.93587 -1.8352 0
M  V30 5171 H 487.911 -3.66248 -0.931167 0
M  V30 5172 H 488.224 -7.61924 -1.29197 0
M  V30 5173 H 486.569 -6.85102 -1.16876 0
M  V30 5174 H 489.76 -4.5567 -1.07158 0
M  V30 5175 H 489.933 -6.36096 -1.23634 0
M  V30 5176 N 483.339 0.512053 -1.4905 0
M  V30 5177 C 484.587 1.26436 -1.57665 0
M  V30 5178 C 484.908 1.93255 -0.260293 0
M  V30 5179 O 484.178 1.82206 0.719564 0
M  V30 5180 H 482.758 0.469658 -0.580888 0
M  V30 5181 H 485.42 0.594398 -1.85615 0
M  V30 5182 H 484.516 2.03417 -2.36702 0
M  V30 5183 N 484.817 1.37938 0.762283 0
M  V30 5184 C 486.042 1.37059 1.55659 0
M  V30 5185 C 486.467 -0.0396123 1.88058 0
M  V30 5186 O 485.825 -1.01929 1.49934 0
M  V30 5187 C 485.873 2.22494 2.83776 0
M  V30 5188 O 484.977 1.63607 3.78559 0
M  V30 5189 H 484.318 0.467892 0.47114 0
M  V30 5190 H 486.848 1.81587 0.942725 0
M  V30 5191 H 486.858 2.36045 3.32786 0
M  V30 5192 H 485.533 3.24993 2.59524 0
M  V30 5193 H 484.11 1.5915 3.37233 0
M  V30 5194 N 486.295 -0.989507 1.22664 0
M  V30 5195 C 487.572 -1.70326 0.961688 0
M  V30 5196 C 487.952 -2.04537 -0.522279 0
M  V30 5197 O 487.3 -1.73136 -1.49118 0
M  V30 5198 C 487.51 -2.95135 1.86269 0
M  V30 5199 C 488.858 -3.67842 2.12078 0
M  V30 5200 O 489.882 -3.0515 1.83745 0
M  V30 5201 O 488.741 -4.80644 2.60083 0
M  V30 5202 H 485.835 -0.743589 0.361946 0
M  V30 5203 H 488.381 -1.04555 1.33665 0
M  V30 5204 H 487.153 -2.66382 2.8663 0
M  V30 5205 H 486.776 -3.68645 1.48952 0
M  V30 5206 N 487.773 -1.03688 -1.18687 0
M  V30 5207 C 489.184 -0.766488 -1.70241 0
M  V30 5208 C 489.535 0.713052 -1.82784 0
M  V30 5209 O 488.66 1.55529 -1.50465 0
M  V30 5210 C 489.255 -1.38475 -3.09209 0
M  V30 5211 C 487.814 -1.16276 -3.5799 0
M  V30 5212 C 486.961 -1.4778 -2.34641 0
M  V30 5213 H 489.912 -1.20378 -1.03415 0
M  V30 5214 H 489.933 -0.785939 -3.72295 0
M  V30 5215 H 489.445 -2.46157 -3.00048 0
M  V30 5216 H 487.546 -0.104508 -3.72453 0
M  V30 5217 H 487.659 -1.8571 -4.41643 0
M  V30 5218 H 486.023 -0.897366 -2.38368 0
M  V30 5219 H 486.806 -2.56562 -2.28102 0
M  V30 5220 N 489.251 1.34841 -0.815825 0
M  V30 5221 C 490.214 2.27959 -0.238185 0
M  V30 5222 C 491.214 1.49983 0.579816 0
M  V30 5223 O 492.404 1.69617 0.396953 0
M  V30 5224 C 489.536 3.34314 0.666876 0
M  V30 5225 H 490.729 2.80558 -1.05958 0
M  V30 5226 H 488.282 1.44852 -0.587156 0
M  V30 5227 H 489.017 2.86916 1.5116 0
M  V30 5228 H 488.802 3.92014 0.0819106 0
M  V30 5229 H 490.292 4.0379 1.06506 0
M  V30 5230 N 490.729 0.570148 1.46925 0
M  V30 5231 C 491.978 0.0487352 2.01641 0
M  V30 5232 C 492.291 -1.31433 1.44861 0
M  V30 5233 O 493.497 -1.92638 1.91318 0
M  V30 5234 C 491.953 0.0365817 3.59881 0
M  V30 5235 C 491.561 1.39719 4.25655 0
M  V30 5236 C 493.305 -0.431545 4.22301 0
M  V30 5237 C 491.212 1.34345 5.75939 0
M  V30 5238 H 490.142 0.0144492 0.753862 0
M  V30 5239 H 492.793 0.719928 1.68788 0
M  V30 5240 H 491.175 -0.700522 3.89755 0
M  V30 5241 H 492.349 2.15303 4.07408 0
M  V30 5242 H 490.664 1.80431 3.75278 0
M  V30 5243 H 493.261 -0.490354 5.32447 0
M  V30 5244 H 493.604 -1.44638 3.90366 0
M  V30 5245 H 494.137 0.251102 3.97007 0
M  V30 5246 H 490.876 2.33469 6.12513 0
M  V30 5247 H 490.396 0.629615 5.96486 0
M  V30 5248 H 492.075 1.051 6.38407 0
M  V30 5249 N 492.207 -1.54576 0.307264 0
M  V30 5250 C 493.117 -2.27435 -0.57536 0
M  V30 5251 C 494.133 -1.31183 -1.14311 0
M  V30 5252 O 495.309 -1.64175 -1.16656 0
M  V30 5253 C 492.374 -3.00566 -1.72803 0
M  V30 5254 C 491.435 -4.12369 -1.19373 0
M  V30 5255 C 490.668 -4.82003 -2.29147 0
M  V30 5256 O 490.891 -4.51038 -3.49171 0
M  V30 5257 O 489.825 -5.69271 -1.95485 0
M  V30 5258 H 493.651 -3.03696 0.0158558 0
M  V30 5259 H 491.236 -1.49219 0.0735064 0
M  V30 5260 H 493.118 -3.46416 -2.39946 0
M  V30 5261 H 491.793 -2.27195 -2.30574 0
M  V30 5262 H 490.7 -3.70905 -0.487851 0
M  V30 5263 H 492.033 -4.87736 -0.661376 0
M  V30 5264 N 493.685 -0.035106 -1.57561 0
M  V30 5265 C 494.931 0.64318 -1.92331 0
M  V30 5266 C 495.264 1.71434 -0.912368 0
M  V30 5267 O 494.539 1.94395 0.0640303 0
M  V30 5268 C 494.822 1.25411 -3.37556 0
M  V30 5269 C 494.675 0.192109 -4.4939 0
M  V30 5270 C 495.994 2.17041 -3.82859 0
M  V30 5271 H 493.113 0.232341 -0.699419 0
M  V30 5272 H 495.755 -0.0935889 -1.89769 0
M  V30 5273 H 493.905 1.88205 -3.39869 0
M  V30 5274 H 495.577 -0.438849 -4.59208 0
M  V30 5275 H 493.82 -0.481725 -4.31117 0
M  V30 5276 H 494.491 0.659292 -5.48049 0
M  V30 5277 H 496.967 1.64228 -3.8232 0
M  V30 5278 H 495.843 2.56738 -4.85157 0
M  V30 5279 H 496.104 3.06401 -3.18702 0
M  V30 5280 O 495.202 1.61149 0.106394 0
M  V30 5281 H 495.893 1.7916 0.736293 0
M  V30 END ATOM
M  V30 BEGIN BOND
M  V30 END BOND
M  V30 END CTAB
M  END
$$$$
