drugbank_target|O94768 Serine/threonine-protein kinase 17B (DB04216; DB12010)
 OpenBabel12092120513D

  0  0  0     0  0            999 V3000
M  V30 BEGIN CTAB
M  V30 COUNTS 5903 5960 0 0 0
M  V30 BEGIN ATOM
M  V30 1 H -0.908 1.98254 -0.117106 0
M  V30 2 N 0 1.576 0 0
M  V30 3 C 0.933 2.03868 1.02534 0
M  V30 4 C 1.911 0.928543 1.3348 0
M  V30 5 O 3.095 1.19667 1.45644 0
M  V30 6 C 0.222 2.43627 2.35294 0
M  V30 7 C -0.732 3.65373 2.2001 0
M  V30 8 S 0.101 5.13292 1.52614 0
M  V30 9 C 1.257 5.56322 2.86805 0
M  V30 10 H 1.49 2.90518 0.631377 0
M  V30 11 H -0.977 1.52953 0.210867 0
M  V30 12 H 0.981 2.67203 3.11629 0
M  V30 13 H -0.358 1.57376 2.7183 0
M  V30 14 H -1.165 3.90944 3.18086 0
M  V30 15 H -1.563 3.418 1.51819 0
M  V30 16 H 0.729 5.58782 3.83104 0
M  V30 17 H 1.672 6.56266 2.65933 0
M  V30 18 H 2.08 4.83886 2.90714 0
M  V30 19 N 1.4781 -0.272755 1.55222 0
M  V30 20 C 2.7031 -1.02683 1.80197 0
M  V30 21 C 3.1281 -1.79142 0.573551 0
M  V30 22 O 2.4861 -1.74917 -0.476849 0
M  V30 23 C 2.5341 -1.9609 3.02624 0
M  V30 24 O 1.6381 -3.04863 2.77727 0
M  V30 25 H 0.9791 -0.293557 0.595584 0
M  V30 26 H 3.5091 -0.30159 2.02365 0
M  V30 27 H 3.5191 -2.38039 3.31363 0
M  V30 28 H 2.1941 -1.39851 3.91682 0
M  V30 29 H 0.7711 -2.67228 2.60084 0
M  V30 30 N 2.9562 -1.48159 -0.537278 0
M  V30 31 C 4.3722 -1.34118 -0.865129 0
M  V30 32 C 4.5722 -0.346678 -1.98495 0
M  V30 33 O 3.6282 0.234715 -2.51407 0
M  V30 34 C 4.9412 -2.73963 -1.23954 0
M  V30 35 C 6.4892 -2.82397 -1.34984 0
M  V30 36 C 6.9642 -4.22928 -1.75772 0
M  V30 37 N 8.4552 -4.25566 -1.82887 0
M  V30 38 C 9.1902 -5.31235 -2.15817 0
M  V30 39 N 8.6862 -6.47189 -2.47222 0
M  V30 40 N 10.4792 -5.18624 -2.16761 0
M  V30 41 H 2.6302 -2.1144 0.201715 0
M  V30 42 H 4.8932 -0.947598 0.0275949 0
M  V30 43 H 4.5992 -3.48264 -0.490381 0
M  V30 44 H 4.4732 -3.0702 -2.19132 0
M  V30 45 H 6.8602 -2.08356 -2.08978 0
M  V30 46 H 6.9412 -2.5297 -0.379448 0
M  V30 47 H 6.5852 -4.97482 -1.02341 0
M  V30 48 H 6.5152 -4.49794 -2.73848 0
M  V30 49 H 9.0062 -3.41924 -1.60924 0
M  V30 50 H 9.3192 -7.23564 -2.71433 0
M  V30 51 H 7.6642 -6.50476 -2.44757 0
M  V30 52 H 10.8552 -4.27056 -1.91679 0
M  V30 53 H 11.0282 -6.01078 -2.42093 0
M  V30 54 N 4.4343 0.785586 -1.36625 0
M  V30 55 C 5.8503 1.08419 -1.17122 0
M  V30 56 C 6.0503 2.015 0.00208491 0
M  V30 57 O 5.1063 2.43551 0.666278 0
M  V30 58 C 6.4193 1.69498 -2.48377 0
M  V30 59 C 7.9673 1.81821 -2.54775 0
M  V30 60 C 8.4423 2.46315 -3.86126 0
M  V30 61 N 9.9333 2.53779 -3.87492 0
M  V30 62 C 10.6683 3.045 -4.85868 0
M  V30 63 N 10.1643 3.55499 -5.94637 0
M  V30 64 N 11.9573 3.03247 -4.73284 0
M  V30 65 H 4.1083 0.167264 -2.1174 0
M  V30 66 H 6.3713 0.13682 -0.938075 0
M  V30 67 H 6.0773 1.08571 -3.34522 0
M  V30 68 H 5.9513 2.6896 -2.64462 0
M  V30 69 H 8.3383 2.41884 -1.69045 0
M  V30 70 H 8.4193 0.811532 -2.42586 0
M  V30 71 H 8.0633 1.86895 -4.72263 0
M  V30 72 H 7.9933 3.47561 -3.95612 0
M  V30 73 H 10.4843 2.17672 -3.08913 0
M  V30 74 H 10.7973 3.92562 -6.65669 0
M  V30 75 H 9.1423 3.5364 -5.98301 0
M  V30 76 H 12.3333 2.62696 -3.87438 0
M  V30 77 H 12.5063 3.42467 -5.50109 0
M  V30 78 N 5.9124 1.20967 1.01018 0
M  V30 79 C 7.3284 0.965905 1.27053 0
M  V30 80 C 7.5284 -0.350785 1.98423 0
M  V30 81 O 6.5844 -1.07773 2.28344 0
M  V30 82 C 7.8974 2.15294 2.09926 0
M  V30 83 C 9.4454 2.19463 2.23171 0
M  V30 84 C 9.9204 3.3767 3.09424 0
M  V30 85 N 11.4114 3.37724 3.17012 0
M  V30 86 C 12.1464 4.25837 3.83993 0
M  V30 87 N 11.6424 5.24138 4.53047 0
M  V30 88 N 13.4354 4.1366 3.80581 0
M  V30 89 H 5.5864 2.0565 0.531194 0
M  V30 90 H 7.8494 0.90024 0.297106 0
M  V30 91 H 7.5554 3.10684 1.64828 0
M  V30 92 H 7.4294 2.13923 3.10672 0
M  V30 93 H 9.8164 1.24632 2.6749 0
M  V30 94 H 9.8974 2.2488 1.21912 0
M  V30 95 H 9.5414 4.32791 2.65808 0
M  V30 96 H 9.4714 3.29491 4.10784 0
M  V30 97 H 11.9624 2.6658 2.6785 0
M  V30 98 H 12.2754 5.87684 5.01844 0
M  V30 99 H 10.6204 5.28068 4.5185 0
M  V30 100 H 13.8114 3.36127 3.25785 0
M  V30 101 H 13.9844 4.82538 4.32505 0
M  V30 102 N 7.3905 -1.2043 1.01659 0
M  V30 103 C 8.6375 -1.89797 0.705917 0
M  V30 104 C 8.9655 -1.78848 -0.764439 0
M  V30 105 O 8.2205 -1.16694 -1.57102 0
M  V30 106 C 8.5195 -3.40464 1.08714 0
M  V30 107 C 8.1855 -3.71614 2.5537 0
M  V30 108 C 6.8475 -3.79826 2.95441 0
M  V30 109 C 9.1995 -3.85915 3.50313 0
M  V30 110 C 6.5275 -3.99797 4.29394 0
M  V30 111 C 8.8795 -4.07396 4.83954 0
M  V30 112 C 7.5435 -4.13837 5.23732 0
M  V30 113 H 6.8135 -0.694518 0.258313 0
M  V30 114 H 9.4605 -1.42691 1.27717 0
M  V30 115 H 7.7655 -3.89385 0.434309 0
M  V30 116 H 9.4625 -3.92433 0.824461 0
M  V30 117 H 6.0525 -3.65822 2.23321 0
M  V30 118 H 10.2365 -3.78926 3.20513 0
M  V30 119 H 5.4925 -4.03018 4.59768 0
M  V30 120 H 9.6665 -4.17404 5.57447 0
M  V30 121 H 7.2935 -4.29064 6.27541 0
M  V30 122 N 8.8686 -0.792821 -1.36206 0
M  V30 123 C 10.1456 -0.290627 -1.93429 0
M  V30 124 C 10.5256 1.21773 -1.72437 0
M  V30 125 O 9.8736 2.0108 -1.08531 0
M  V30 126 C 10.0836 -0.686973 -3.42172 0
M  V30 127 C 11.4316 -0.668643 -4.19302 0
M  V30 128 O 12.4556 -0.627658 -3.50626 0
M  V30 129 O 11.3146 -0.714597 -5.41808 0
M  V30 130 H 8.4086 -0.0727927 -0.82379 0
M  V30 131 H 10.9546 -0.875593 -1.45367 0
M  V30 132 H 9.7266 -1.72711 -3.51122 0
M  V30 133 H 9.3496 -0.0760733 -3.97527 0
M  V30 134 N 10.3467 1.47872 -0.545128 0
M  V30 135 C 11.5867 2.04391 -0.0187854 0
M  V30 136 C 11.9507 1.41162 1.30144 0
M  V30 137 O 13.1517 1.88656 1.91474 0
M  V30 138 C 11.4227 3.57299 0.0850867 0
M  V30 139 S 12.9817 4.35221 0.559302 0
M  V30 140 H 9.7997 0.710737 -0.0193301 0
M  V30 141 H 12.4017 1.81395 -0.729125 0
M  V30 142 H 11.1057 4.00847 -0.880351 0
M  V30 143 H 10.6367 3.84773 0.819348 0
M  V30 144 H 12.6517 4.61571 1.82118 0
M  V30 145 N 11.8248 0.280983 1.55075 0
M  V30 146 C 13.2408 -0.0729964 1.59433 0
M  V30 147 C 13.4408 -1.5411 1.29817 0
M  V30 148 O 12.4968 -2.29086 1.06187 0
M  V30 149 C 13.8098 0.306921 2.9913 0
M  V30 150 C 15.3578 0.254023 3.11968 0
M  V30 151 C 15.8328 0.608467 4.5394 0
M  V30 152 N 17.3238 0.560241 4.59799 0
M  V30 153 C 18.0588 0.80722 5.6769 0
M  V30 154 N 17.5548 1.11912 6.83701 0
M  V30 155 N 19.3478 0.735623 5.57266 0
M  V30 156 H 11.4988 1.238 1.7259 0
M  V30 157 H 13.7618 0.500547 0.805082 0
M  V30 158 H 13.4678 1.32816 3.25657 0
M  V30 159 H 13.3418 -0.349363 3.75579 0
M  V30 160 H 15.7288 -0.75794 2.852 0
M  V30 161 H 15.8098 0.944649 2.37718 0
M  V30 162 H 15.4538 1.61814 4.81434 0
M  V30 163 H 15.3838 -0.104013 5.26497 0
M  V30 164 H 17.8748 0.329288 3.76463 0
M  V30 165 H 18.1878 1.29409 7.61888 0
M  V30 166 H 16.5328 1.15695 6.85303 0
M  V30 167 H 19.7238 0.491752 4.6551 0
M  V30 168 H 19.8968 0.931482 6.4127 0
M  V30 169 N 13.3029 -1.57598 0.00835791 0
M  V30 170 C 14.5279 -1.95617 -0.689103 0
M  V30 171 C 14.9529 -0.883753 -1.66046 0
M  V30 172 O 14.3109 0.157352 -1.80616 0
M  V30 173 C 14.3589 -3.32736 -1.38994 0
M  V30 174 O 13.4629 -3.27631 -2.50463 0
M  V30 175 H 12.8039 -0.638379 -0.182668 0
M  V30 176 H 15.3339 -2.045 0.064036 0
M  V30 177 H 15.3439 -3.68494 -1.75147 0
M  V30 178 H 14.0189 -4.1034 -0.677778 0
M  V30 179 H 12.5959 -3.03561 -2.16576 0
M  V30 180 N 14.781 0.264519 -1.55364 0
M  V30 181 C 16.03 0.992812 -1.75574 0
M  V30 182 C 16.343 1.87142 -0.568979 0
M  V30 183 O 17.549 2.63513 -0.653682 0
M  V30 184 C 16.005 1.81519 -3.10771 0
M  V30 185 C 15.613 0.984839 -4.37041 0
M  V30 186 C 17.357 2.53727 -3.40327 0
M  V30 187 C 15.264 1.80209 -5.63275 0
M  V30 188 H 14.194 0.374412 -0.65447 0
M  V30 189 H 16.845 0.248138 -1.81815 0
M  V30 190 H 15.227 2.60115 -2.98591 0
M  V30 191 H 16.401 0.242455 -4.60162 0
M  V30 192 H 14.716 0.37691 -4.14691 0
M  V30 193 H 17.313 3.15292 -4.3185 0
M  V30 194 H 17.656 3.24447 -2.60845 0
M  V30 195 H 18.189 1.82156 -3.53644 0
M  V30 196 H 14.928 1.13896 -6.45529 0
M  V30 197 H 14.448 2.52022 -5.44284 0
M  V30 198 H 16.127 2.37364 -6.01887 0
M  V30 199 N 16.2591 1.48442 0.529413 0
M  V30 200 C 17.4841 1.60406 1.31471 0
M  V30 201 C 17.9091 0.264738 1.86228 0
M  V30 202 O 17.2671 -0.763668 1.64432 0
M  V30 203 C 17.3151 2.65419 2.44101 0
M  V30 204 O 16.4191 2.22618 3.47153 0
M  V30 205 H 15.7601 0.537863 0.389357 0
M  V30 206 H 18.2901 1.94432 0.636965 0
M  V30 207 H 18.3001 2.86709 2.90279 0
M  V30 208 H 16.9751 3.62652 2.03608 0
M  V30 209 H 15.5521 2.11543 3.0709 0
M  V30 210 N 17.7372 -0.778329 1.37039 0
M  V30 211 C 18.9852 -1.53361 1.31623 0
M  V30 212 C 19.3062 -1.94739 -0.100831 0
M  V30 213 O 18.5762 -1.65797 -1.04347 0
M  V30 214 H 17.1562 -0.568794 0.484234 0
M  V30 215 H 19.8182 -0.926742 1.71457 0
M  V30 216 H 18.9142 -2.43606 1.95096 0
M  V30 217 N 19.2153 -1.21501 -1.00376 0
M  V30 218 C 20.1453 -0.999478 -2.11028 0
M  V30 219 C 21.1263 0.0759671 -1.6993 0
M  V30 220 O 22.3113 -0.0841106 -1.94018 0
M  V30 221 C 19.4413 -0.564709 -3.42678 0
M  V30 222 C 18.3953 -1.58486 -3.97576 0
M  V30 223 C 17.7213 -1.00628 -5.25146 0
M  V30 224 C 19.0213 -2.97204 -4.29496 0
M  V30 225 H 20.7153 -1.92495 -2.29317 0
M  V30 226 H 18.2613 -0.92693 -1.102 0
M  V30 227 H 20.2143 -0.401091 -4.19487 0
M  V30 228 H 18.9383 0.396411 -3.24185 0
M  V30 229 H 17.5973 -1.73606 -3.22888 0
M  V30 230 H 17.2453 -0.0368439 -5.02987 0
M  V30 231 H 16.9453 -1.68771 -5.62841 0
M  V30 232 H 18.4693 -0.854015 -6.04598 0
M  V30 233 H 19.8833 -2.8552 -4.97143 0
M  V30 234 H 18.2803 -3.62372 -4.78338 0
M  V30 235 H 19.3503 -3.47956 -3.3772 0
M  V30 236 N 20.6934 1.19889 -1.02296 0
M  V30 237 C 21.6234 2.25141 -0.619174 0
M  V30 238 C 22.6044 1.66051 0.368915 0
M  V30 239 O 23.7894 1.92546 0.252941 0
M  V30 240 C 20.9194 3.4728 0.0368783 0
M  V30 241 C 19.8734 4.19005 -0.872865 0
M  V30 242 C 19.1994 5.34637 -0.0822402 0
M  V30 243 C 20.4994 4.74452 -2.18387 0
M  V30 244 H 22.1934 2.59171 -1.49903 0
M  V30 245 H 19.7394 1.24579 -0.722222 0
M  V30 246 H 21.6924 4.20098 0.330958 0
M  V30 247 H 20.4164 3.12433 0.95149 0
M  V30 248 H 19.0754 3.48061 -1.15105 0
M  V30 249 H 18.7234 4.96034 0.83422 0
M  V30 250 H 18.4234 5.83557 -0.688149 0
M  V30 251 H 19.9474 6.10255 0.205238 0
M  V30 252 H 21.3614 5.39055 -1.95172 0
M  V30 253 H 19.7584 5.33834 -2.74119 0
M  V30 254 H 20.8284 3.92844 -2.84257 0
M  V30 255 N 22.1715 0.800033 1.35784 0
M  V30 256 C 23.3995 0.389606 2.03199 0
M  V30 257 C 23.8145 -0.997375 1.60306 0
M  V30 258 O 23.1715 -1.64154 0.797481 0
M  V30 259 C 23.2225 0.455855 3.58614 0
M  V30 260 O 22.9435 1.78815 3.99946 0
M  V30 261 C 24.4445 0.0374032 4.43284 0
M  V30 262 H 21.6645 0.159132 0.651857 0
M  V30 263 H 24.2085 1.08183 1.73541 0
M  V30 264 H 22.3635 -0.188057 3.86943 0
M  V30 265 H 22.7775 1.74636 4.94573 0
M  V30 266 H 24.2515 0.134882 5.51835 0
M  V30 267 H 24.7285 -1.01651 4.27275 0
M  V30 268 H 25.3345 0.654215 4.20238 0
M  V30 269 N 23.6496 -1.47581 0.552962 0
M  V30 270 C 24.8776 -2.06875 0.0320556 0
M  V30 271 C 25.2926 -1.40625 -1.25976 0
M  V30 272 O 24.6496 -0.501349 -1.75479 0
M  V30 273 C 24.7006 -3.61092 -0.17167 0
M  V30 274 O 24.4216 -4.24858 1.06899 0
M  V30 275 C 25.9226 -4.37242 -0.730344 0
M  V30 276 H 23.1426 -0.669561 0.043915 0
M  V30 277 H 25.6866 -1.89646 0.765163 0
M  V30 278 H 23.8416 -3.7785 -0.854894 0
M  V30 279 H 24.2556 -5.17334 0.864059 0
M  V30 280 H 25.7296 -5.45842 -0.822203 0
M  V30 281 H 26.2066 -4.03235 -1.74064 0
M  V30 282 H 26.8126 -4.25219 -0.0829543 0
M  V30 283 N 25.1277 -0.289203 -1.54924 0
M  V30 284 C 26.3557 0.326463 -2.04308 0
M  V30 285 C 26.7707 1.48413 -1.16701 0
M  V30 286 O 26.1277 1.81507 -0.190087 0
M  V30 287 C 26.1787 0.794014 -3.52672 0
M  V30 288 O 25.8997 -0.317564 -4.36948 0
M  V30 289 C 27.4007 1.47605 -4.18004 0
M  V30 290 H 24.6207 0.0726272 -0.667058 0
M  V30 291 H 27.1647 -0.425401 -2.00026 0
M  V30 292 H 25.3197 1.49593 -3.57352 0
M  V30 293 H 25.7337 0.0443186 -5.24481 0
M  V30 294 H 27.2077 1.75447 -5.23376 0
M  V30 295 H 27.6847 2.41224 -3.67025 0
M  V30 296 H 28.2907 0.81762 -4.17367 0
M  V30 297 N 26.6058 1.57591 -0.0167156 0
M  V30 298 C 28.0168 1.79201 0.523834 0
M  V30 299 C 28.3678 0.925796 1.72984 0
M  V30 300 O 27.4928 0.132792 2.15992 0
M  V30 301 C 28.0878 3.25 0.957091 0
M  V30 302 C 26.6468 3.47648 1.44283 0
M  V30 303 C 25.7938 2.74374 0.401757 0
M  V30 304 H 28.7448 1.56831 -0.242816 0
M  V30 305 H 28.7658 3.34031 1.82219 0
M  V30 306 H 28.2778 3.88019 0.0791415 0
M  V30 307 H 26.3788 2.89866 2.34113 0
M  V30 308 H 26.4918 4.56352 1.45877 0
M  V30 309 H 24.8558 2.39485 0.867121 0
M  V30 310 H 25.6388 3.40102 -0.467513 0
M  V30 311 N 28.0839 -0.256276 1.55502 0
M  V30 312 C 29.0159 -1.33981 1.85962 0
M  V30 313 C 30.0289 -1.44743 0.745212 0
M  V30 314 O 31.2179 -1.4626 1.02324 0
M  V30 315 C 28.3179 -2.7194 2.02242 0
M  V30 316 C 27.4909 -2.83562 3.33033 0
M  V30 317 C 26.5499 -4.02304 3.39172 0
M  V30 318 O 25.5759 -3.92273 4.12444 0
M  V30 319 N 26.7779 -5.15045 2.67784 0
M  V30 320 H 29.5429 -1.08191 2.7949 0
M  V30 321 H 27.1039 -0.446388 1.55624 0
M  V30 322 H 29.0959 -3.49697 2.03701 0
M  V30 323 H 27.6659 -2.90479 1.15502 0
M  V30 324 H 26.8859 -1.92555 3.43971 0
M  V30 325 H 28.1739 -2.88271 4.19258 0
M  V30 326 H 27.5719 -5.26085 2.07968 0
M  V30 327 H 26.1289 -5.90972 2.74947 0
M  V30 328 N 29.562 -1.4872 -0.521534 0
M  V30 329 C 30.811 -1.56419 -1.27341 0
M  V30 330 C 31.124 -0.246805 -1.94037 0
M  V30 331 O 32.33 -0.202122 -2.70747 0
M  V30 332 C 30.786 -2.75896 -2.31105 0
M  V30 333 C 30.394 -4.14311 -1.70441 0
M  V30 334 C 32.138 -2.92913 -3.07249 0
M  V30 335 C 30.045 -5.25038 -2.72194 0
M  V30 336 H 28.975 -0.582344 -0.478949 0
M  V30 337 H 31.626 -1.75071 -0.549779 0
M  V30 338 H 30.008 -2.50697 -3.06541 0
M  V30 339 H 31.182 -4.49564 -1.01136 0
M  V30 340 H 29.497 -4.02482 -1.06759 0
M  V30 341 H 32.094 -3.72805 -3.83302 0
M  V30 342 H 32.437 -2.02689 -3.63625 0
M  V30 343 H 32.97 -3.18054 -2.38928 0
M  V30 344 H 29.709 -6.17255 -2.20627 0
M  V30 345 H 29.229 -4.94263 -3.39801 0
M  V30 346 H 30.908 -5.53508 -3.35019 0
M  V30 347 N 31.0401 0.771051 -1.3745 0
M  V30 348 C 32.4511 1.34737 -1.29239 0
M  V30 349 C 32.8021 1.96109 0.0596908 0
M  V30 350 O 31.9271 1.93865 0.961534 0
M  V30 351 C 32.5221 2.44973 -2.34037 0
M  V30 352 C 31.0811 2.98372 -2.29458 0
M  V30 353 C 30.2281 1.71595 -2.17831 0
M  V30 354 H 33.1791 0.571256 -1.48062 0
M  V30 355 H 33.2001 3.24471 -1.98744 0
M  V30 356 H 32.7121 2.00276 -3.32432 0
M  V30 357 H 30.8131 3.47443 -1.34589 0
M  V30 358 H 30.9261 3.53939 -3.229 0
M  V30 359 H 29.2901 1.94547 -1.64388 0
M  V30 360 H 30.0731 1.29001 -3.18141 0
M  V30 361 N 32.5182 1.22032 0.997298 0
M  V30 362 C 33.7672 1.03637 1.73038 0
M  V30 363 C 34.0802 -0.429475 1.90827 0
M  V30 364 O 35.2862 -0.732995 2.61418 0
M  V30 365 C 33.7422 1.80582 3.11317 0
M  V30 366 C 33.3502 3.31387 3.01474 0
M  V30 367 C 35.0942 1.70621 3.88701 0
M  V30 368 C 33.0012 4.00791 4.3488 0
M  V30 369 H 31.9312 0.384179 0.648785 0
M  V30 370 H 34.5822 1.4584 1.11368 0
M  V30 371 H 32.9642 1.31175 3.73643 0
M  V30 372 H 34.1382 3.88155 2.4834 0
M  V30 373 H 32.4532 3.41976 2.37575 0
M  V30 374 H 35.0502 2.19799 4.87434 0
M  V30 375 H 35.3932 0.665823 4.10941 0
M  V30 376 H 35.9262 2.17547 3.33044 0
M  V30 377 H 32.6652 5.05064 4.1784 0
M  V30 378 H 32.1852 3.48811 4.87945 0
M  V30 379 H 33.8642 4.06139 5.03647 0
M  V30 380 N 33.9963 -1.19345 1.0293 0
M  V30 381 C 34.9433 -2.2258 0.610464 0
M  V30 382 C 35.9133 -1.6179 -0.375946 0
M  V30 383 O 37.0983 -1.88844 -0.272511 0
M  V30 384 C 34.2383 -3.45085 -0.0321473 0
M  V30 385 C 33.3513 -4.20258 1.00035 0
M  V30 386 C 32.4863 -5.3019 0.32746 0
M  V30 387 C 31.5253 -5.97121 1.34584 0
M  V30 388 N 30.6623 -6.98615 0.698726 0
M  V30 389 H 35.5023 -2.57764 1.49538 0
M  V30 390 H 33.0393 -1.26644 0.748311 0
M  V30 391 H 34.9973 -4.15061 -0.421966 0
M  V30 392 H 33.6273 -3.10555 -0.88064 0
M  V30 393 H 32.6793 -3.49223 1.50823 0
M  V30 394 H 33.9913 -4.66175 1.77433 0
M  V30 395 H 33.1453 -6.06587 -0.11718 0
M  V30 396 H 31.8843 -4.85345 -0.478713 0
M  V30 397 H 30.8893 -5.19474 1.80074 0
M  V30 398 H 32.1143 -6.4405 2.15352 0
M  V30 399 H 30.0603 -6.55942 -0.0873471 0
M  V30 400 H 29.9773 -7.42724 1.41058 0
M  V30 401 H 31.2453 -7.79004 0.278102 0
M  V30 402 N 35.4744 -0.807222 -1.35358 0
M  V30 403 C 36.4074 -0.163572 -2.27613 0
M  V30 404 C 37.3854 0.670817 -1.48118 0
M  V30 405 O 38.5694 0.63796 -1.77376 0
M  V30 406 C 35.6964 0.773015 -3.29761 0
M  V30 407 C 34.7424 0.0181653 -4.26496 0
M  V30 408 S 35.5754 -1.31831 -5.19019 0
M  V30 409 C 36.7314 -0.38619 -6.24707 0
M  V30 410 H 36.9644 -0.945757 -2.81856 0
M  V30 411 H 34.4974 -0.602315 -1.42167 0
M  V30 412 H 36.4554 1.30788 -3.89108 0
M  V30 413 H 35.1164 1.52859 -2.74396 0
M  V30 414 H 34.3094 0.729534 -4.98692 0
M  V30 415 H 33.9114 -0.446761 -3.71322 0
M  V30 416 H 36.2034 0.428295 -6.76145 0
M  V30 417 H 37.1464 -1.07736 -6.99856 0
M  V30 418 H 37.5544 0.018398 -5.64497 0
M  V30 419 N 36.9525 1.47285 -0.560781 0
M  V30 420 C 37.8625 2.33846 0.187954 0
M  V30 421 C 38.8785 1.48412 0.908293 0
M  V30 422 O 40.0545 1.81332 0.876388 0
M  V30 423 C 37.1195 3.25178 1.2025 0
M  V30 424 C 36.1805 4.26504 0.489208 0
M  V30 425 C 35.4135 5.13472 1.45542 0
M  V30 426 O 35.6365 5.02959 2.6905 0
M  V30 427 O 34.5705 5.93902 0.977963 0
M  V30 428 H 38.3965 2.99177 -0.522177 0
M  V30 429 H 35.9815 1.45903 -0.321364 0
M  V30 430 H 37.8635 3.81584 1.78805 0
M  V30 431 H 36.5385 2.6247 1.89449 0
M  V30 432 H 35.4455 3.73847 -0.137627 0
M  V30 433 H 36.7785 4.91935 -0.161399 0
M  V30 434 N 38.4306 0.297415 1.54768 0
M  V30 435 C 39.3786 -0.596051 2.24833 0
M  V30 436 C 40.3726 -1.13992 1.25308 0
M  V30 437 O 41.5786 -1.09098 1.4317 0
M  V30 438 H 37.9536 -0.210814 0.721846 0
M  V30 439 H 39.9246 0.0174667 2.98395 0
M  V30 440 C 38.6736 -1.75818 2.99972 0
M  V30 441 H 37.9966 -1.3489 3.76357 0
M  V30 442 H 39.4366 -2.35949 3.52284 0
M  V30 443 C 37.8956 -2.66014 2.06732 0
M  V30 444 O 38.4256 -3.67009 1.63302 0
M  V30 445 N 36.6316 -2.33669 1.72763 0
M  V30 446 H 36.1786 -1.51586 2.08277 0
M  V30 447 H 36.1366 -2.94285 1.10652 0
M  V30 448 N 39.9087 -1.5758 0.0250728 0
M  V30 449 C 41.1557 -1.91633 -0.654444 0
M  V30 450 C 41.4837 -0.901103 -1.72367 0
M  V30 451 O 40.7387 0.0905647 -1.9549 0
M  V30 452 C 41.0377 -3.32421 -1.31268 0
M  V30 453 C 40.7037 -4.49344 -0.374223 0
M  V30 454 C 39.3657 -4.8106 -0.115911 0
M  V30 455 C 41.7177 -5.20498 0.270432 0
M  V30 456 C 39.0457 -5.8129 0.79493 0
M  V30 457 C 41.3977 -6.21699 1.1693 0
M  V30 458 C 40.0617 -6.51859 1.43655 0
M  V30 459 H 39.3317 -0.701236 -0.239478 0
M  V30 460 H 41.9787 -1.91307 0.0859734 0
M  V30 461 H 40.2837 -3.28989 -2.12775 0
M  V30 462 H 41.9807 -3.56038 -1.84494 0
M  V30 463 H 38.5707 -4.24579 -0.58573 0
M  V30 464 H 42.7547 -4.96229 0.0839194 0
M  V30 465 H 38.0107 -6.03005 1.00973 0
M  V30 466 H 42.1847 -6.75955 1.67504 0
M  V30 467 H 39.8117 -7.2934 2.144 0
M  V30 468 N 41.3868 0.248026 -1.55636 0
M  V30 469 C 42.3348 1.32683 -1.91045 0
M  V30 470 C 43.3288 1.49883 -0.789401 0
M  V30 471 O 44.5348 1.51371 -0.974007 0
M  V30 472 H 40.9098 0.444272 -0.606734 0
M  V30 473 H 42.8808 1.00085 -2.81115 0
M  V30 474 C 41.6298 2.6755 -2.22064 0
M  V30 475 H 40.9528 2.55114 -3.07826 0
M  V30 476 H 42.3928 3.41912 -2.50743 0
M  V30 477 C 40.8518 3.20556 -1.0366 0
M  V30 478 O 41.3818 4.00695 -0.284016 0
M  V30 479 N 39.5878 2.78568 -0.82753 0
M  V30 480 H 39.1348 2.1351 -1.44123 0
M  V30 481 H 39.0928 3.14378 -0.0369803 0
M  V30 482 N 42.8649 1.48995 0.513639 0
M  V30 483 C 43.8129 1.65199 1.63744 0
M  V30 484 C 44.8069 0.51809 1.61283 0
M  V30 485 O 46.0129 0.697335 1.65943 0
M  V30 486 H 42.3879 0.52069 0.542574 0
M  V30 487 H 44.3589 2.59552 1.47226 0
M  V30 488 C 43.1079 1.72409 3.01945 0
M  V30 489 H 42.4309 2.59029 3.04539 0
M  V30 490 H 43.8709 1.87785 3.80148 0
M  V30 491 C 42.3299 0.46618 3.33659 0
M  V30 492 O 42.8599 -0.413744 3.99564 0
M  V30 493 N 41.0659 0.332931 2.88687 0
M  V30 494 H 40.6129 1.04996 2.35231 0
M  V30 495 H 40.5709 -0.507665 3.10274 0
M  V30 496 N 44.343 -0.763751 1.37857 0
M  V30 497 C 45.59 -1.52257 1.33506 0
M  V30 498 C 45.918 -1.94343 -0.078022 0
M  V30 499 O 45.173 -1.64958 -1.05297 0
M  V30 500 C 45.472 -2.79499 2.22745 0
M  V30 501 C 45.138 -2.56426 3.70886 0
M  V30 502 C 43.8 -2.49842 4.11257 0
M  V30 503 C 46.152 -2.36008 4.64704 0
M  V30 504 C 43.48 -2.20841 5.43549 0
M  V30 505 C 45.832 -2.0853 5.97242 0
M  V30 506 C 44.496 -2.00396 6.36709 0
M  V30 507 H 43.766 -0.557149 0.488534 0
M  V30 508 H 46.413 -0.879073 1.70131 0
M  V30 509 H 44.718 -3.48447 1.79142 0
M  V30 510 H 46.415 -3.37413 2.16688 0
M  V30 511 H 43.005 -2.62416 3.38874 0
M  V30 512 H 47.189 -2.40079 4.34368 0
M  V30 513 H 42.445 -2.13045 5.73081 0
M  V30 514 H 46.619 -1.91732 6.69486 0
M  V30 515 H 44.246 -1.77688 7.39142 0
M  V30 516 N 45.8211 -1.22559 -0.990812 0
M  V30 517 C 47.0511 -1.07623 -1.76355 0
M  V30 518 C 47.4591 0.37601 -1.85426 0
M  V30 519 O 46.8021 1.27228 -1.32509 0
M  V30 520 C 46.8641 -1.61507 -3.21179 0
M  V30 521 C 46.5281 -3.10146 -3.35646 0
M  V30 522 C 47.5251 -4.07553 -3.22796 0
M  V30 523 C 45.2101 -3.49644 -3.60631 0
M  V30 524 C 47.2041 -5.42442 -3.34716 0
M  V30 525 C 44.8911 -4.84682 -3.72192 0
M  V30 526 C 45.8891 -5.8089 -3.59243 0
M  V30 527 O 45.5771 -7.13476 -3.70415 0
M  V30 528 H 45.3091 -0.377745 -0.560611 0
M  V30 529 H 47.8631 -1.62658 -1.25425 0
M  V30 530 H 46.0931 -1.00881 -3.73309 0
M  V30 531 H 47.7821 -1.42202 -3.80175 0
M  V30 532 H 48.5481 -3.78381 -3.03403 0
M  V30 533 H 44.4271 -2.75282 -3.69785 0
M  V30 534 H 47.9711 -6.17518 -3.24526 0
M  V30 535 H 43.8681 -5.13534 -3.91092 0
M  V30 536 H 44.6361 -7.21083 -3.87275 0
M  V30 537 N 47.2992 1.18797 -1.03562 0
M  V30 538 C 48.5482 1.87978 -0.731235 0
M  V30 539 C 48.8612 1.80911 0.743671 0
M  V30 540 O 50.0672 2.45407 1.16137 0
M  V30 541 C 48.5232 3.3721 -1.25768 0
M  V30 542 C 48.1312 3.52818 -2.76085 0
M  V30 543 C 49.8752 4.11825 -1.0296 0
M  V30 544 C 47.7822 4.9598 -3.22114 0
M  V30 545 H 46.7122 0.704063 -0.269835 0
M  V30 546 H 49.3632 1.34266 -1.25079 0
M  V30 547 H 47.7452 3.90359 -0.666011 0
M  V30 548 H 48.9192 3.09965 -3.40966 0
M  V30 549 H 47.2342 2.91602 -2.97249 0
M  V30 550 H 49.8312 5.17411 -1.34869 0
M  V30 551 H 50.1742 4.16287 0.0333546 0
M  V30 552 H 50.7072 3.64833 -1.58562 0
M  V30 553 H 47.4462 4.96684 -4.27768 0
M  V30 554 H 46.9662 5.39569 -2.61965 0
M  V30 555 H 48.6452 5.6467 -3.15844 0
M  V30 556 N 48.7773 0.814389 1.34928 0
M  V30 557 C 49.7073 0.244827 2.32213 0
M  V30 558 C 50.6883 -0.634024 1.57842 0
M  V30 559 O 51.8733 -0.562676 1.8587 0
M  V30 560 C 49.0033 -0.601106 3.42058 0
M  V30 561 C 47.9573 0.179896 4.27622 0
M  V30 562 C 47.2833 -0.788237 5.28858 0
M  V30 563 C 48.5833 1.38329 5.03649 0
M  V30 564 H 50.2773 1.05763 2.80097 0
M  V30 565 H 47.8233 0.510029 1.34665 0
M  V30 566 H 49.7763 -1.00968 4.09125 0
M  V30 567 H 48.5003 -1.44688 2.92802 0
M  V30 568 H 47.1593 0.569739 3.62146 0
M  V30 569 H 46.8073 -1.62973 4.75866 0
M  V30 570 H 46.5073 -0.269942 5.8698 0
M  V30 571 H 48.0313 -1.19485 5.98795 0
M  V30 572 H 49.4453 1.04918 5.63618 0
M  V30 573 H 47.8423 1.83662 5.71304 0
M  V30 574 H 48.9123 2.16592 4.33839 0
M  V30 575 N 50.2554 -1.46986 0.568584 0
M  V30 576 C 51.4834 -2.0683 0.0539956 0
M  V30 577 C 51.8984 -1.41953 -1.24478 0
M  V30 578 O 51.2554 -0.519933 -1.74937 0
M  V30 579 C 51.3064 -3.61254 -0.133362 0
M  V30 580 O 51.0274 -4.237 1.11399 0
M  V30 581 C 52.5284 -4.37992 -0.683927 0
M  V30 582 H 49.7484 -0.669058 0.0510141 0
M  V30 583 H 52.2924 -1.88824 0.785234 0
M  V30 584 H 50.4474 -3.78735 -0.81477 0
M  V30 585 H 50.8614 -5.16388 0.91888 0
M  V30 586 H 52.3354 -5.46684 -0.764263 0
M  V30 587 H 52.8124 -4.05058 -1.69778 0
M  V30 588 H 53.4184 -4.25283 -0.0378494 0
M  V30 589 N 51.7335 -0.305618 -1.54608 0
M  V30 590 C 52.9585 0.307562 -2.05107 0
M  V30 591 C 53.3835 1.46385 -1.18123 0
M  V30 592 O 52.7415 1.8034 -0.186324 0
M  V30 593 C 52.7895 0.73704 -3.52987 0
M  V30 594 O 51.8935 1.84134 -3.6901 0
M  V30 595 H 51.2345 0.0589143 -0.661381 0
M  V30 596 H 53.7645 -0.448807 -1.99617 0
M  V30 597 H 53.7745 1.02459 -3.94925 0
M  V30 598 H 52.4495 -0.108773 -4.15758 0
M  V30 599 H 51.0265 1.55398 -3.38978 0
M  V30 600 N 53.2116 1.57565 -0.0334293 0
M  V30 601 C 54.1586 2.10478 0.946981 0
M  V30 602 C 55.1286 1.00787 1.32027 0
M  V30 603 O 56.3136 1.28232 1.41284 0
M  V30 604 C 53.4536 2.63994 2.22263 0
M  V30 605 C 52.5666 3.87709 1.90541 0
M  V30 606 C 51.7016 4.29604 3.12433 0
M  V30 607 C 50.7406 5.46065 2.76549 0
M  V30 608 N 49.8776 5.83096 3.9108 0
M  V30 609 H 54.7176 2.93963 0.488846 0
M  V30 610 H 52.2546 1.45296 0.22969 0
M  V30 611 H 54.2126 2.93114 2.96884 0
M  V30 612 H 52.8426 1.83333 2.65685 0
M  V30 613 H 51.8946 3.65291 1.06144 0
M  V30 614 H 53.2066 4.72403 1.60116 0
M  V30 615 H 52.3606 4.60182 3.9537 0
M  V30 616 H 51.0996 3.43685 3.46023 0
M  V30 617 H 50.1046 5.15176 1.92026 0
M  V30 618 H 51.3296 6.33685 2.44171 0
M  V30 619 H 49.2756 5.00132 4.24504 0
M  V30 620 H 49.1926 6.6244 3.64293 0
M  V30 621 H 50.4606 6.18282 4.74708 0
M  V30 622 N 54.6897 -0.239769 1.55765 0
M  V30 623 C 55.5997 -1.31831 1.94056 0
M  V30 624 C 56.6157 -1.52275 0.841925 0
M  V30 625 O 57.7917 -1.65759 1.14394 0
M  V30 626 C 54.8567 -2.65156 2.23368 0
M  V30 627 C 53.9177 -2.53173 3.46701 0
M  V30 628 C 53.1507 -3.8014 3.74606 0
M  V30 629 O 53.3737 -4.82343 3.04469 0
M  V30 630 O 52.3077 -3.78344 4.68123 0
M  V30 631 H 56.1337 -1.02347 2.85935 0
M  V30 632 H 53.7187 -0.441123 1.42739 0
M  V30 633 H 55.6007 -3.43929 2.43497 0
M  V30 634 H 54.2757 -2.94358 1.34666 0
M  V30 635 H 53.1827 -1.72662 3.31871 0
M  V30 636 H 54.5157 -2.28915 4.35728 0
M  V30 637 N 56.1678 -1.49265 -0.50573 0
M  V30 638 C 57.0978 -1.68495 -1.61653 0
M  V30 639 C 58.0788 -0.53366 -1.61512 0
M  V30 640 O 59.2638 -0.76897 -1.78327 0
M  V30 641 C 56.3938 -1.74709 -3.00157 0
M  V30 642 C 55.3478 -2.89581 -3.15162 0
M  V30 643 C 54.6738 -2.80903 -4.5497 0
M  V30 644 C 55.9738 -4.30578 -2.95634 0
M  V30 645 H 57.6678 -2.61493 -1.45814 0
M  V30 646 H 55.2138 -1.25838 -0.70005 0
M  V30 647 H 57.1668 -1.86748 -3.77761 0
M  V30 648 H 55.8908 -0.783067 -3.17074 0
M  V30 649 H 54.5498 -2.77136 -2.39982 0
M  V30 650 H 54.1978 -1.82419 -4.68756 0
M  V30 651 H 53.8978 -3.57999 -4.65951 0
M  V30 652 H 55.4218 -2.94944 -5.34641 0
M  V30 653 H 56.8358 -4.4373 -3.63011 0
M  V30 654 H 55.2328 -5.0886 -3.18091 0
M  V30 655 H 56.3028 -4.45352 -1.91806 0
M  V30 656 N 57.6459 0.756429 -1.3826 0
M  V30 657 C 58.8939 1.51248 -1.34047 0
M  V30 658 C 59.2149 1.94875 0.0698372 0
M  V30 659 O 58.4849 1.67436 1.01696 0
M  V30 660 H 57.0649 0.561018 -0.493222 0
M  V30 661 H 59.7269 0.899347 -1.7291 0
M  V30 662 H 58.8229 2.40472 -1.98947 0
M  V30 663 N 59.124 1.23083 0.984299 0
M  V30 664 C 60.54 0.992637 1.24975 0
M  V30 665 C 60.74 -0.308618 1.99123 0
M  V30 666 O 59.796 -1.02905 2.30579 0
M  V30 667 C 61.109 2.19698 2.05312 0
M  V30 668 C 62.657 2.24147 2.18465 0
M  V30 669 C 63.132 3.44157 3.02192 0
M  V30 670 N 64.623 3.44372 3.09777 0
M  V30 671 C 65.358 4.33886 3.74874 0
M  V30 672 N 64.854 5.3363 4.41827 0
M  V30 673 N 66.647 4.21639 3.71721 0
M  V30 674 H 58.798 2.06731 0.487453 0
M  V30 675 H 61.061 0.906339 0.277944 0
M  V30 676 H 60.767 3.1411 1.58201 0
M  V30 677 H 60.641 2.20465 3.06064 0
M  V30 678 H 63.028 1.30277 2.64786 0
M  V30 679 H 63.109 2.27415 1.17115 0
M  V30 680 H 62.753 4.38332 2.56568 0
M  V30 681 H 62.683 3.3813 4.03702 0
M  V30 682 H 65.174 2.72201 2.62135 0
M  V30 683 H 65.487 5.98196 4.89266 0
M  V30 684 H 63.832 5.37534 4.40548 0
M  V30 685 H 67.023 3.42962 3.18582 0
M  V30 686 H 67.196 4.91604 4.22173 0
M  V30 687 N 60.6021 -1.18246 1.0419 0
M  V30 688 C 61.8501 -1.87886 0.744543 0
M  V30 689 C 62.1711 -1.8082 -0.730006 0
M  V30 690 O 61.4411 -1.22736 -1.52685 0
M  V30 691 H 60.0211 -0.695556 0.272417 0
M  V30 692 H 62.6831 -1.43494 1.31892 0
M  V30 693 H 61.7791 -2.9389 1.05049 0
M  V30 694 N 62.0802 -0.821533 -1.34494 0
M  V30 695 C 63.0272 -0.240397 -2.29545 0
M  V30 696 C 63.9972 0.634031 -1.53523 0
M  V30 697 O 65.1822 0.575966 -1.81899 0
M  V30 698 C 62.3222 0.592869 -3.39969 0
M  V30 699 C 61.4352 -0.30365 -4.30932 0
M  V30 700 C 60.5702 0.539049 -5.28458 0
M  V30 701 C 59.6092 -0.356942 -6.11058 0
M  V30 702 N 58.7462 0.446603 -7.00678 0
M  V30 703 H 63.5862 -1.05632 -2.7865 0
M  V30 704 H 61.1232 -0.532413 -1.37127 0
M  V30 705 H 63.0812 1.09129 -4.02675 0
M  V30 706 H 61.7112 1.37392 -2.92102 0
M  V30 707 H 60.7632 -0.920276 -3.691 0
M  V30 708 H 62.0752 -0.992661 -4.88823 0
M  V30 709 H 61.2292 1.102 -5.96608 0
M  V30 710 H 59.9682 1.26157 -4.71101 0
M  V30 711 H 58.9732 -0.932047 -5.41842 0
M  V30 712 H 60.1982 -1.07755 -6.70497 0
M  V30 713 H 58.1442 1.15282 -6.45791 0
M  V30 714 H 58.0612 -0.184048 -7.55776 0
M  V30 715 H 59.3292 0.992352 -7.73158 0
M  V30 716 N 63.5583 1.46682 -0.576371 0
M  V30 717 C 64.8053 2.02412 -0.0595339 0
M  V30 718 C 65.1333 1.44859 1.29793 0
M  V30 719 O 64.3883 0.601099 1.8624 0
M  V30 720 C 64.6873 3.57345 0.062886 0
M  V30 721 C 64.3533 4.33908 -1.22616 0
M  V30 722 C 63.0153 4.54544 -1.57933 0
M  V30 723 C 65.3673 4.77919 -2.07948 0
M  V30 724 C 62.6953 5.16444 -2.78393 0
M  V30 725 C 65.0473 5.41149 -3.27629 0
M  V30 726 C 63.7113 5.60014 -3.63236 0
M  V30 727 H 62.9813 0.74068 -0.021785 0
M  V30 728 H 65.6283 1.76128 -0.751735 0
M  V30 729 H 63.9333 3.82729 0.838178 0
M  V30 730 H 65.6303 3.98136 0.478439 0
M  V30 731 H 62.2203 4.18138 -0.941202 0
M  V30 732 H 66.4043 4.61738 -1.81967 0
M  V30 733 H 61.6603 5.29242 -3.06126 0
M  V30 734 H 65.8343 5.74211 -3.94023 0
M  V30 735 H 63.4613 6.07748 -4.56669 0
M  V30 736 N 65.0364 0.313813 1.54444 0
M  V30 737 C 65.9994 -0.54379 2.22656 0
M  V30 738 C 66.9994 -1.05124 1.21678 0
M  V30 739 O 68.1894 -0.945225 1.46325 0
M  V30 740 C 65.3214 -1.75427 2.92298 0
M  V30 741 H 66.5144 0.0523599 2.99854 0
M  V30 742 H 64.0674 0.0647834 1.56166 0
M  V30 743 H 64.8024 -2.38991 2.19211 0
M  V30 744 H 64.5874 -1.39791 3.66334 0
M  V30 745 H 66.0774 -2.36325 3.44297 0
M  V30 746 N 66.5145 -1.57545 0.0417849 0
M  V30 747 C 67.7605 -1.92601 -0.635021 0
M  V30 748 C 68.0935 -0.919627 -1.71045 0
M  V30 749 O 67.3685 0.0557892 -1.9442 0
M  V30 750 C 67.6515 -3.38085 -1.23979 0
M  V30 751 C 67.5045 -4.49467 -0.173057 0
M  V30 752 C 68.8235 -3.83776 -2.15416 0
M  V30 753 H 65.9425 -0.700397 -0.229374 0
M  V30 754 H 68.5845 -1.89728 0.101633 0
M  V30 755 H 66.7345 -3.40664 -1.86762 0
M  V30 756 H 68.4065 -4.59018 0.458312 0
M  V30 757 H 66.6495 -4.30909 0.499996 0
M  V30 758 H 67.3205 -5.48323 -0.636054 0
M  V30 759 H 69.7965 -3.83013 -1.62605 0
M  V30 760 H 68.6725 -4.8624 -2.54679 0
M  V30 761 H 68.9335 -3.19998 -3.05047 0
M  V30 762 N 67.9926 0.231505 -1.5589 0
M  V30 763 C 69.2386 0.95877 -1.78705 0
M  V30 764 C 69.5716 1.8438 -0.609725 0
M  V30 765 O 68.8466 1.90521 0.391426 0
M  V30 766 C 69.1296 1.8062 -3.11526 0
M  V30 767 C 68.9826 0.948328 -4.39689 0
M  V30 768 C 70.3016 2.78585 -3.40703 0
M  V30 769 H 67.4206 0.347129 -0.650131 0
M  V30 770 H 70.0626 0.228259 -1.88624 0
M  V30 771 H 68.2126 2.42902 -3.03201 0
M  V30 772 H 69.8846 0.343016 -4.60023 0
M  V30 773 H 68.1276 0.253314 -4.3306 0
M  V30 774 H 68.7986 1.57543 -5.29041 0
M  V30 775 H 71.2746 2.26439 -3.49091 0
M  V30 776 H 70.1506 3.34988 -4.34826 0
M  V30 777 H 70.4116 3.55825 -2.62375 0
M  V30 778 N 69.4707 1.49531 0.497807 0
M  V30 779 C 70.8867 1.36365 0.829266 0
M  V30 780 C 71.0867 0.399184 1.97506 0
M  V30 781 O 70.1427 -0.167977 2.51941 0
M  V30 782 C 71.4557 2.77153 1.16647 0
M  V30 783 C 73.0037 2.85877 1.27449 0
M  V30 784 C 73.4787 4.2744 1.64497 0
M  V30 785 N 74.9697 4.30265 1.7154 0
M  V30 786 C 75.7047 5.3677 2.01656 0
M  V30 787 N 75.2007 6.53516 2.29976 0
M  V30 788 N 76.9937 5.24189 2.02934 0
M  V30 789 H 69.1447 2.10831 -0.257703 0
M  V30 790 H 71.4077 0.946534 -0.0527091 0
M  V30 791 H 71.1137 3.49442 0.397872 0
M  V30 792 H 70.9877 3.12722 2.10915 0
M  V30 793 H 73.3747 2.13824 2.0338 0
M  V30 794 H 73.4557 2.53887 0.312244 0
M  V30 795 H 73.0997 5.00021 0.891151 0
M  V30 796 H 73.0297 4.56896 2.61827 0
M  V30 797 H 75.5207 3.4607 1.51802 0
M  V30 798 H 75.8337 7.30506 2.52153 0
M  V30 799 H 74.1787 6.56737 2.27425 0
M  V30 800 H 77.3697 4.31988 1.80289 0
M  V30 801 H 77.5427 6.07286 2.26071 0
M  V30 802 N 70.9488 -0.749086 1.3866 0
M  V30 803 C 71.8808 -1.87273 1.32142 0
M  V30 804 C 72.8938 -1.61127 0.232787 0
M  V30 805 O 74.0828 -1.71623 0.49069 0
M  V30 806 C 71.1828 -3.23005 1.02571 0
M  V30 807 C 70.3558 -3.7662 2.22433 0
M  V30 808 C 69.4148 -4.90879 1.89537 0
M  V30 809 O 68.4408 -5.05276 2.62078 0
M  V30 810 N 69.6428 -5.74198 0.853031 0
M  V30 811 H 72.4078 -1.93373 2.28969 0
M  V30 812 H 69.9688 -0.929216 1.32579 0
M  V30 813 H 71.9608 -3.96992 0.786085 0
M  V30 814 H 70.5308 -3.12262 0.145249 0
M  V30 815 H 69.7508 -2.94147 2.62434 0
M  V30 816 H 71.0388 -4.09173 3.02415 0
M  V30 817 H 70.4368 -5.6514 0.25155 0
M  V30 818 H 68.9938 -6.48313 0.67329 0
M  V30 819 N 72.4269 -1.23603 -0.977757 0
M  V30 820 C 73.6669 -1.08148 -1.73446 0
M  V30 821 C 74.0309 0.374785 -1.88307 0
M  V30 822 O 75.2319 0.650588 -2.60808 0
M  V30 823 C 73.5029 -1.78991 -3.0935 0
M  V30 824 S 75.0619 -1.79141 -4.00567 0
M  V30 825 H 71.8799 -0.386987 -0.596458 0
M  V30 826 H 74.4819 -1.5678 -1.16792 0
M  V30 827 H 73.1859 -2.8408 -2.96187 0
M  V30 828 H 72.7169 -1.30651 -3.71071 0
M  V30 829 H 74.7319 -0.851892 -4.88833 0
M  V30 830 N 73.905 1.17692 -1.04816 0
M  V30 831 C 75.154 1.87192 -0.751132 0
M  V30 832 C 75.467 1.8169 0.724441 0
M  V30 833 O 76.673 2.46625 1.13527 0
M  V30 834 C 75.129 3.35857 -1.29338 0
M  V30 835 C 74.737 3.4987 -2.79812 0
M  V30 836 C 76.481 4.10709 -1.07322 0
M  V30 837 C 74.388 4.92536 -3.27356 0
M  V30 838 H 73.318 0.701162 -0.277288 0
M  V30 839 H 75.969 1.32932 -1.26496 0
M  V30 840 H 74.351 3.89631 -0.707376 0
M  V30 841 H 75.525 3.06332 -3.44235 0
M  V30 842 H 73.84 2.88433 -3.00325 0
M  V30 843 H 76.437 5.15952 -1.4035 0
M  V30 844 H 76.78 4.16299 -0.0108001 0
M  V30 845 H 77.313 3.6313 -1.62423 0
M  V30 846 H 74.052 4.92119 -4.33012 0
M  V30 847 H 73.572 5.3676 -2.67673 0
M  V30 848 H 75.251 5.61288 -3.21815 0
M  V30 849 N 75.3831 0.828654 1.34056 0
M  V30 850 C 76.6081 0.431637 2.02859 0
M  V30 851 C 77.0331 -0.956339 1.61975 0
M  V30 852 O 76.3911 -1.62338 0.807228 0
M  V30 853 C 76.4391 0.548323 3.56407 0
M  V30 854 O 75.5431 -0.429556 4.10157 0
M  V30 855 H 74.8841 0.176886 0.640006 0
M  V30 856 H 77.4141 1.12066 1.71179 0
M  V30 857 H 77.4241 0.426196 4.05768 0
M  V30 858 H 76.0991 1.5606 3.8551 0
M  V30 859 H 74.6761 -0.265836 3.71951 0
M  V30 860 N 76.8612 -1.46375 0.584142 0
M  V30 861 C 77.8082 -2.30323 -0.148286 0
M  V30 862 C 78.7782 -1.40703 -0.882713 0
M  V30 863 O 79.9632 -1.69651 -0.873099 0
M  V30 864 C 77.1032 -3.25196 -1.15507 0
M  V30 865 C 76.2162 -4.29915 -0.423943 0
M  V30 866 C 75.3512 -5.11914 -1.41838 0
M  V30 867 C 74.3902 -6.08381 -0.673736 0
M  V30 868 N 73.5272 -6.83242 -1.6163 0
M  V30 869 H 78.3672 -2.92427 0.573644 0
M  V30 870 H 75.9042 -1.44118 0.294703 0
M  V30 871 H 77.8622 -3.78646 -1.75166 0
M  V30 872 H 76.4922 -2.64898 -1.8447 0
M  V30 873 H 75.5442 -3.7931 0.287714 0
M  V30 874 H 76.8562 -4.98549 0.158128 0
M  V30 875 H 76.0102 -5.69648 -2.08773 0
M  V30 876 H 74.7492 -4.43243 -2.03438 0
M  V30 877 H 73.7542 -5.49799 0.00938483 0
M  V30 878 H 74.9792 -6.79071 -0.0631082 0
M  V30 879 H 72.9252 -6.1728 -2.22038 0
M  V30 880 H 72.8422 -7.48144 -1.08707 0
M  V30 881 H 74.1102 -7.45534 -2.27596 0
M  V30 882 N 78.3393 -0.321999 -1.54275 0
M  V30 883 C 79.5643 0.285791 -2.05422 0
M  V30 884 C 79.9893 1.45124 -1.19669 0
M  V30 885 O 79.3473 1.80132 -0.205441 0
M  V30 886 C 79.3953 0.69956 -3.53749 0
M  V30 887 O 78.4993 1.8021 -3.70942 0
M  V30 888 H 77.8403 0.0518962 -0.661969 0
M  V30 889 H 80.3703 -0.469954 -1.9913 0
M  V30 890 H 80.3803 0.982649 -3.9599 0
M  V30 891 H 79.0553 -0.152864 -4.15619 0
M  V30 892 H 77.6323 1.51794 -3.40607 0
M  V30 893 N 79.8174 1.5752 -0.0501392 0
M  V30 894 C 81.0454 1.96963 0.633492 0
M  V30 895 C 81.4604 0.927631 1.6444 0
M  V30 896 O 80.8174 -0.0882665 1.82286 0
M  V30 897 C 80.8684 3.36487 1.32132 0
M  V30 898 O 80.5894 4.36693 0.350894 0
M  V30 899 C 82.0904 3.90682 2.09481 0
M  V30 900 H 79.3104 0.648244 0.173266 0
M  V30 901 H 81.8544 2.0417 -0.116134 0
M  V30 902 H 80.0094 3.30434 2.02218 0
M  V30 903 H 80.4234 5.17702 0.841735 0
M  V30 904 H 81.8974 4.90591 2.5303 0
M  V30 905 H 82.3744 3.26053 2.94255 0
M  V30 906 H 82.9804 4.00069 1.44307 0
M  V30 907 N 81.2955 -0.223234 1.56011 0
M  V30 908 C 82.5435 -0.946003 1.78592 0
M  V30 909 C 82.8645 -1.84936 0.618349 0
M  V30 910 O 82.1345 -1.92473 -0.364833 0
M  V30 911 H 80.7145 -0.352298 0.658707 0
M  V30 912 H 83.3765 -0.235494 1.93472 0
M  V30 913 H 82.4725 -1.55381 2.70672 0
M  V30 914 N 82.7736 -1.49793 -0.48987 0
M  V30 915 C 83.7056 -1.63413 -1.60713 0
M  V30 916 C 84.7186 -0.516329 -1.54395 0
M  V30 917 O 85.9076 -0.788812 -1.60125 0
M  V30 918 C 83.0076 -1.58516 -2.99543 0
M  V30 919 C 82.1806 -2.86016 -3.30928 0
M  V30 920 C 81.2396 -2.74018 -4.49222 0
M  V30 921 O 80.2656 -3.47964 -4.50455 0
M  V30 922 N 81.4676 -1.86309 -5.4979 0
M  V30 923 H 84.2326 -2.59777 -1.49452 0
M  V30 924 H 81.7936 -1.47022 -0.677955 0
M  V30 925 H 83.7856 -1.48128 -3.76617 0
M  V30 926 H 82.3556 -0.69965 -3.0467 0
M  V30 927 H 81.5756 -3.10672 -2.42645 0
M  V30 928 H 82.8636 -3.70521 -3.487 0
M  V30 929 H 82.2616 -1.2551 -5.51601 0
M  V30 930 H 80.8186 -1.81837 -6.25922 0
M  V30 931 N 84.2517 0.741722 -1.39055 0
M  V30 932 C 85.1617 1.88621 -1.39496 0
M  V30 933 C 86.1777 1.71557 -0.290578 0
M  V30 934 O 87.3537 1.94275 -0.530954 0
M  V30 935 C 84.4187 3.24134 -1.23037 0
M  V30 936 C 83.4797 3.5364 -2.43387 0
M  V30 937 C 82.7127 4.82687 -2.27703 0
M  V30 938 O 82.9357 5.55922 -1.27696 0
M  V30 939 O 81.8697 5.1194 -3.16545 0
M  V30 940 H 85.6957 1.91203 -2.35956 0
M  V30 941 H 83.2807 0.888625 -1.20099 0
M  V30 942 H 85.1627 4.0513 -1.15964 0
M  V30 943 H 83.8377 3.22337 -0.296691 0
M  V30 944 H 82.7447 2.72758 -2.56035 0
M  V30 945 H 84.0777 3.60209 -3.35425 0
M  V30 946 N 85.7298 1.2412 0.971189 0
M  V30 947 C 86.9598 1.10415 1.7462 0
M  V30 948 C 87.3678 -0.346462 1.86001 0
M  V30 949 O 86.7108 -1.25104 1.34517 0
M  V30 950 C 86.7728 1.66596 3.18568 0
M  V30 951 C 86.4368 3.15446 3.3067 0
M  V30 952 C 87.4338 4.12636 3.16271 0
M  V30 953 C 85.1188 3.55337 3.55022 0
M  V30 954 C 87.1128 5.47699 3.26044 0
M  V30 955 C 84.7998 4.90542 3.64434 0
M  V30 956 C 85.7978 5.86532 3.49956 0
M  V30 957 O 85.4858 7.19279 3.59017 0
M  V30 958 H 85.2178 0.386616 0.55453 0
M  V30 959 H 87.7718 1.64633 1.22821 0
M  V30 960 H 86.0018 1.06808 3.71657 0
M  V30 961 H 87.6908 1.48232 3.77865 0
M  V30 962 H 88.4568 3.8316 2.97344 0
M  V30 963 H 84.3358 2.8113 3.65359 0
M  V30 964 H 87.8798 6.22603 3.14661 0
M  V30 965 H 83.7768 5.19691 3.82873 0
M  V30 966 H 84.5448 7.27153 3.75754 0
M  V30 967 N 87.2079 -1.17134 1.05439 0
M  V30 968 C 88.1709 -2.19439 0.661764 0
M  V30 969 C 89.1709 -1.58199 -0.288042 0
M  V30 970 O 90.3609 -1.74053 -0.0715803 0
M  V30 971 C 87.4929 -3.40889 -0.0276209 0
M  V30 972 H 88.6859 -2.55688 1.56728 0
M  V30 973 H 86.2389 -1.31259 0.848567 0
M  V30 974 H 86.9739 -3.10187 -0.94629 0
M  V30 975 H 86.7589 -3.86586 0.655238 0
M  V30 976 H 88.2489 -4.16603 -0.288342 0
M  V30 977 N 88.686 -0.835752 -1.33615 0
M  V30 978 C 89.649 -0.272 -2.2758 0
M  V30 979 C 90.649 0.557487 -1.50827 0
M  V30 980 O 91.839 0.37173 -1.70188 0
M  V30 981 C 88.971 0.617173 -3.35267 0
M  V30 982 H 90.164 -1.10111 -2.78954 0
M  V30 983 H 87.717 -0.608594 -1.43965 0
M  V30 984 H 88.452 1.46884 -2.89129 0
M  V30 985 H 88.237 0.0237066 -3.92093 0
M  V30 986 H 89.727 1.005 -4.05326 0
M  V30 987 N 90.1641 1.46063 -0.591896 0
M  V30 988 C 91.1111 2.30399 0.136069 0
M  V30 989 C 92.0811 1.41169 0.875238 0
M  V30 990 O 93.2661 1.70112 0.86409 0
M  V30 991 C 90.4061 3.25804 1.13781 0
M  V30 992 C 89.5191 4.30134 0.401137 0
M  V30 993 C 88.6541 5.12659 1.39121 0
M  V30 994 C 87.6931 6.0873 0.641462 0
M  V30 995 N 86.8301 6.8409 1.58004 0
M  V30 996 H 91.6701 2.92118 -0.589144 0
M  V30 997 H 89.2071 1.43959 -0.302342 0
M  V30 998 H 91.1651 3.79569 1.73156 0
M  V30 999 H 89.7951 2.65872 1.83062 0
M  V30 1000 H 88.8471 3.79152 -0.307826 0
M  V30 1001 H 90.1591 4.98458 -0.184565 0
M  V30 1002 H 89.3131 5.70747 2.05749 0
M  V30 1003 H 88.0521 4.44316 2.01084 0
M  V30 1004 H 87.0571 5.49786 -0.0385419 0
M  V30 1005 H 88.2821 6.79095 0.0270945 0
M  V30 1006 H 86.2281 6.18449 2.18761 0
M  V30 1007 H 86.1451 7.48709 1.04738 0
M  V30 1008 H 87.4131 7.4673 2.23639 0
M  V30 1009 N 91.6422 0.330177 1.54103 0
M  V30 1010 C 92.8892 -0.270405 2.00686 0
M  V30 1011 C 93.2172 -1.51621 1.21825 0
M  V30 1012 O 92.4722 -1.93536 0.29025 0
M  V30 1013 C 92.7712 -0.643134 3.51566 0
M  V30 1014 C 92.4372 0.504251 4.48072 0
M  V30 1015 C 91.0992 0.819163 4.74176 0
M  V30 1016 C 93.4512 1.27465 5.05373 0
M  V30 1017 C 90.7792 1.90708 5.5484 0
M  V30 1018 C 93.1312 2.35271 5.87223 0
M  V30 1019 C 91.7952 2.67336 6.11627 0
M  V30 1020 H 91.0652 -0.0989482 0.734364 0
M  V30 1021 H 93.7122 0.455324 1.86008 0
M  V30 1022 H 92.0172 -1.44938 3.64006 0
M  V30 1023 H 93.7142 -1.11949 3.85056 0
M  V30 1024 H 90.3042 0.248733 4.27878 0
M  V30 1025 H 94.4882 1.04462 4.85182 0
M  V30 1026 H 89.7442 2.15991 5.71977 0
M  V30 1027 H 93.9182 2.95405 6.30641 0
M  V30 1028 H 91.5452 3.51763 6.73919 0
M  V30 1029 N 93.1203 -1.57491 0.0584922 0
M  V30 1030 C 94.0503 -2.14988 -0.911178 0
M  V30 1031 C 95.0313 -1.07343 -1.31952 0
M  V30 1032 O 96.2163 -1.35318 -1.39294 0
M  V30 1033 C 93.3463 -2.70078 -2.18347 0
M  V30 1034 C 92.3003 -3.82771 -1.91495 0
M  V30 1035 C 91.6263 -4.24408 -3.25241 0
M  V30 1036 C 92.9263 -5.07592 -1.23075 0
M  V30 1037 H 94.6203 -2.96263 -0.432246 0
M  V30 1038 H 92.1663 -1.42512 -0.206469 0
M  V30 1039 H 94.1193 -3.08943 -2.86587 0
M  V30 1040 H 92.8433 -1.86005 -2.68458 0
M  V30 1041 H 91.5023 -3.44389 -1.25664 0
M  V30 1042 H 91.1503 -3.37275 -3.73168 0
M  V30 1043 H 90.8503 -5.00366 -3.08071 0
M  V30 1044 H 92.3743 -4.65879 -3.94701 0
M  V30 1045 H 93.7883 -5.43857 -1.81362 0
M  V30 1046 H 92.1853 -5.88741 -1.16207 0
M  V30 1047 H 93.2553 -4.84454 -0.207847 0
M  V30 1048 N 94.5984 0.214957 -1.56127 0
M  V30 1049 C 95.5454 1.26642 -1.92952 0
M  V30 1050 C 96.5154 1.46244 -0.78753 0
M  V30 1051 O 97.7004 1.59704 -1.04399 0
M  V30 1052 C 94.8404 2.6104 -2.25726 0
M  V30 1053 C 93.9534 2.49183 -3.52891 0
M  V30 1054 C 93.0884 3.76149 -3.7508 0
M  V30 1055 C 92.1274 3.59041 -4.95738 0
M  V30 1056 N 91.2644 4.77972 -5.14283 0
M  V30 1057 H 96.1044 0.945384 -2.82607 0
M  V30 1058 H 93.6414 0.455489 -1.3987 0
M  V30 1059 H 95.5994 3.39313 -2.42739 0
M  V30 1060 H 94.2294 2.91227 -1.39236 0
M  V30 1061 H 93.2814 1.6231 -3.44034 0
M  V30 1062 H 94.5934 2.32466 -4.41318 0
M  V30 1063 H 93.7474 4.62865 -3.92226 0
M  V30 1064 H 92.4864 3.95799 -2.84947 0
M  V30 1065 H 91.4914 2.7071 -4.78535 0
M  V30 1066 H 92.7164 3.40856 -5.87362 0
M  V30 1067 H 90.6624 4.97923 -4.27093 0
M  V30 1068 H 90.5794 4.64006 -5.96853 0
M  V30 1069 H 91.8474 5.66096 -5.35869 0
M  V30 1070 N 96.0765 1.50051 0.48192 0
M  V30 1071 C 97.0235 1.68122 1.58125 0
M  V30 1072 C 97.9935 0.522545 1.57666 0
M  V30 1073 O 99.1785 0.751844 1.75362 0
M  V30 1074 C 96.3185 1.77142 2.96167 0
M  V30 1075 C 95.4315 3.0444 3.06497 0
M  V30 1076 C 94.5665 3.04321 4.35387 0
M  V30 1077 C 93.6055 4.26118 4.3942 0
M  V30 1078 N 92.7425 4.238 5.59766 0
M  V30 1079 H 97.5825 2.6198 1.42022 0
M  V30 1080 H 95.1195 1.29877 0.690687 0
M  V30 1081 H 97.0775 1.80352 3.76203 0
M  V30 1082 H 95.7075 0.867329 3.1093 0
M  V30 1083 H 94.7595 3.10752 2.19402 0
M  V30 1084 H 96.0715 3.94426 3.05336 0
M  V30 1085 H 95.2255 3.062 5.23762 0
M  V30 1086 H 93.9645 2.12147 4.39141 0
M  V30 1087 H 92.9695 4.24463 3.49444 0
M  V30 1088 H 94.1945 5.19507 4.37366 0
M  V30 1089 H 92.1405 3.34474 5.64326 0
M  V30 1090 H 92.0575 5.07542 5.60301 0
M  V30 1091 H 93.3255 4.2981 6.50295 0
M  V30 1092 N 97.5546 -0.734337 1.39446 0
M  V30 1093 C 98.9706 -1.03997 1.21065 0
M  V30 1094 C 99.1706 -2.01369 0.0727019 0
M  V30 1095 O 98.2266 -2.45856 -0.575426 0
M  V30 1096 C 99.5396 -1.60163 2.54496 0
M  V30 1097 C 101.088 -1.7224 2.61347 0
M  V30 1098 C 101.563 -2.31814 3.95002 0
M  V30 1099 N 103.054 -2.39223 3.96644 0
M  V30 1100 C 103.789 -2.86258 4.96834 0
M  V30 1101 N 103.285 -3.33184 6.07421 0
M  V30 1102 N 105.078 -2.85473 4.84213 0
M  V30 1103 H 97.2286 -0.0885624 2.12215 0
M  V30 1104 H 99.4916 -0.10191 0.942506 0
M  V30 1105 H 99.1976 -0.960811 3.38321 0
M  V30 1106 H 99.0716 -2.5896 2.74262 0
M  V30 1107 H 101.459 -2.35443 1.77906 0
M  V30 1108 H 101.54 -0.720939 2.4543 0
M  V30 1109 H 101.184 -1.69238 4.78875 0
M  V30 1110 H 101.114 -3.32638 4.08239 0
M  V30 1111 H 103.605 -2.06057 3.16779 0
M  V30 1112 H 103.918 -3.67586 6.7978 0
M  V30 1113 H 102.263 -3.31191 6.11013 0
M  V30 1114 H 105.454 -2.48136 3.96921 0
M  V30 1115 H 105.627 -3.21814 5.62441 0
M  V30 1116 N 99.0327 -1.24633 -0.964593 0
M  V30 1117 C 100.449 -1.01239 -1.2338 0
M  V30 1118 C 100.649 0.2769 -1.99588 0
M  V30 1119 O 99.7047 0.992241 -2.32187 0
M  V30 1120 C 101.018 -2.22937 -2.01791 0
M  V30 1121 C 102.566 -2.27594 -2.14872 0
M  V30 1122 C 103.041 -3.48921 -2.96678 0
M  V30 1123 N 104.532 -3.49257 -3.04259 0
M  V30 1124 C 105.267 -4.39795 -3.67924 0
M  V30 1125 N 104.763 -5.40591 -4.33281 0
M  V30 1126 N 106.556 -4.275 -3.64966 0
M  V30 1127 H 98.7067 -2.0748 -0.454502 0
M  V30 1128 H 100.97 -0.910647 -0.26349 0
M  V30 1129 H 100.676 -3.16587 -1.53184 0
M  V30 1130 H 100.55 -2.25306 -3.02518 0
M  V30 1131 H 102.937 -1.34473 -2.6268 0
M  V30 1132 H 103.018 -2.2925 -1.13482 0
M  V30 1133 H 102.662 -4.42359 -2.49562 0
M  V30 1134 H 102.592 -3.4451 -3.98272 0
M  V30 1135 H 105.083 -2.76337 -2.57771 0
M  V30 1136 H 105.396 -6.05904 -4.79687 0
M  V30 1137 H 103.741 -5.44475 -4.3194 0
M  V30 1138 H 106.932 -3.47987 -3.13086 0
M  V30 1139 H 107.105 -4.98258 -4.14298 0
M  V30 1140 N 100.511 1.16574 -1.06058 0
M  V30 1141 C 101.927 1.3904 -0.783585 0
M  V30 1142 C 102.127 1.91784 0.618145 0
M  V30 1143 O 101.183 2.11511 1.37911 0
M  V30 1144 C 102.496 2.37329 -1.84649 0
M  V30 1145 C 104.044 2.51018 -1.86973 0
M  V30 1146 C 104.519 3.52588 -2.92311 0
M  V30 1147 N 106.01 3.60113 -2.91329 0
M  V30 1148 C 106.745 4.38486 -3.69482 0
M  V30 1149 N 106.241 5.20302 -4.57447 0
M  V30 1150 N 108.034 4.33446 -3.57885 0
M  V30 1151 H 100.185 0.806725 -1.96483 0
M  V30 1152 H 102.448 0.417117 -0.851303 0
M  V30 1153 H 102.154 2.05663 -2.85299 0
M  V30 1154 H 102.028 3.36946 -1.6955 0
M  V30 1155 H 104.415 2.81989 -0.869827 0
M  V30 1156 H 104.496 1.51445 -2.0615 0
M  V30 1157 H 104.14 3.22354 -3.92492 0
M  V30 1158 H 104.07 4.51886 -2.70383 0
M  V30 1159 H 106.561 3.01707 -2.27555 0
M  V30 1160 H 106.874 5.77311 -5.13743 0
M  V30 1161 H 105.219 5.19653 -4.61503 0
M  V30 1162 H 108.41 3.68586 -2.88551 0
M  V30 1163 H 108.583 4.94279 -4.19037 0
M  V30 1164 N 101.989 0.842826 1.3317 0
M  V30 1165 C 103.237 0.439577 1.97262 0
M  V30 1166 C 103.558 -1.00548 1.67078 0
M  V30 1167 O 102.828 -1.70098 0.971779 0
M  V30 1168 H 101.408 0.159558 0.72976 0
M  V30 1169 H 104.07 1.07665 1.62463 0
M  V30 1170 H 103.166 0.574886 3.0676 0
M  V30 1171 N 103.467 -1.45747 0.599634 0
M  V30 1172 C 104.399 -2.28628 -0.161879 0
M  V30 1173 C 105.412 -1.39494 -0.839367 0
M  V30 1174 O 106.601 -1.63941 -0.706089 0
M  V30 1175 C 103.701 -3.15014 -1.24976 0
M  V30 1176 C 102.874 -4.32378 -0.660935 0
M  V30 1177 C 101.933 -5.00033 -1.63869 0
M  V30 1178 O 100.959 -5.57085 -1.1681 0
M  V30 1179 N 102.161 -4.98589 -2.97303 0
M  V30 1180 H 104.926 -2.94624 0.549265 0
M  V30 1181 H 102.487 -1.55847 0.438565 0
M  V30 1182 H 104.479 -3.5714 -1.9035 0
M  V30 1183 H 103.049 -2.5098 -1.86354 0
M  V30 1184 H 102.269 -3.9383 0.170688 0
M  V30 1185 H 103.557 -5.08197 -0.247619 0
M  V30 1186 H 102.955 -4.53514 -3.38145 0
M  V30 1187 H 101.512 -5.44603 -3.58121 0
M  V30 1188 N 104.945 -0.338344 -1.53925 0
M  V30 1189 C 106.222 0.314774 -1.93051 0
M  V30 1190 C 106.602 1.68669 -1.26941 0
M  V30 1191 O 105.95 2.24636 -0.418445 0
M  V30 1192 C 106.16 0.392249 -3.46789 0
M  V30 1193 C 107.508 0.645554 -4.19664 0
M  V30 1194 O 108.532 0.474575 -3.53024 0
M  V30 1195 O 107.391 0.976408 -5.37707 0
M  V30 1196 H 104.485 0.182598 -0.80659 0
M  V30 1197 H 107.031 -0.389141 -1.65178 0
M  V30 1198 H 105.803 -0.570702 -3.87116 0
M  V30 1199 H 105.426 1.14316 -3.80812 0
M  V30 1200 N 106.423 1.57458 -0.0668435 0
M  V30 1201 C 107.663 1.95175 0.607116 0
M  V30 1202 C 108.027 0.946039 1.67075 0
M  V30 1203 O 109.228 1.2107 2.39991 0
M  V30 1204 C 107.499 3.37582 1.17358 0
M  V30 1205 S 109.058 3.97271 1.86336 0
M  V30 1206 H 105.876 0.682604 0.19893 0
M  V30 1207 H 108.478 1.95002 -0.139519 0
M  V30 1208 H 107.182 4.08566 0.387553 0
M  V30 1209 H 106.713 3.41288 1.95669 0
M  V30 1210 H 108.728 3.83772 3.14537 0
M  V30 1211 N 107.901 -0.206675 1.56239 0
M  V30 1212 C 109.317 -0.557025 1.49564 0
M  V30 1213 C 109.517 -1.86424 0.764735 0
M  V30 1214 O 108.573 -2.50584 0.310491 0
M  V30 1215 C 109.886 -0.622478 2.94186 0
M  V30 1216 C 111.434 -0.712099 3.04792 0
M  V30 1217 C 111.909 -0.808767 4.50803 0
M  V30 1218 N 113.4 -0.8726 4.54907 0
M  V30 1219 C 114.135 -0.967365 5.65181 0
M  V30 1220 N 113.631 -1.02515 6.85173 0
M  V30 1221 N 115.424 -1.00366 5.53067 0
M  V30 1222 H 107.575 0.650943 2.02179 0
M  V30 1223 H 109.838 0.230387 0.919579 0
M  V30 1224 H 109.544 0.268727 3.50672 0
M  V30 1225 H 109.418 -1.4811 3.46905 0
M  V30 1226 H 111.805 -1.59374 2.48363 0
M  V30 1227 H 111.886 0.172489 2.55218 0
M  V30 1228 H 111.53 0.0684754 5.07854 0
M  V30 1229 H 111.46 -1.70899 4.98098 0
M  V30 1230 H 113.951 -0.837657 3.68499 0
M  V30 1231 H 114.264 -1.09765 7.64965 0
M  V30 1232 H 112.609 -0.994026 6.87855 0
M  V30 1233 H 115.8 -0.95527 4.58249 0
M  V30 1234 H 115.973 -1.07405 6.39037 0
M  V30 1235 N 109.379 -1.50304 -0.473955 0
M  V30 1236 C 110.342 -1.6841 -1.55469 0
M  V30 1237 C 111.342 -0.554905 -1.50922 0
M  V30 1238 O 112.532 -0.821882 -1.53593 0
M  V30 1239 C 109.664 -1.70667 -2.95102 0
M  V30 1240 H 110.857 -2.64828 -1.40733 0
M  V30 1241 H 108.41 -1.39742 -0.700132 0
M  V30 1242 H 109.145 -0.75932 -3.15285 0
M  V30 1243 H 108.93 -2.52698 -2.9981 0
M  V30 1244 H 110.42 -1.8664 -3.73571 0
M  V30 1245 N 110.857 0.726932 -1.39834 0
M  V30 1246 C 111.767 1.87131 -1.41489 0
M  V30 1247 C 112.783 1.71239 -0.308757 0
M  V30 1248 O 113.959 1.93701 -0.551529 0
M  V30 1249 C 111.024 3.22811 -1.26468 0
M  V30 1250 C 110.085 3.51039 -2.47124 0
M  V30 1251 C 109.318 4.80245 -2.3281 0
M  V30 1252 O 109.541 5.54537 -1.33585 0
M  V30 1253 O 108.475 5.08554 -3.21957 0
M  V30 1254 H 112.301 1.8869 -2.3797 0
M  V30 1255 H 109.886 0.875837 -1.21035 0
M  V30 1256 H 111.768 4.03877 -1.20255 0
M  V30 1257 H 110.443 3.22005 -0.330862 0
M  V30 1258 H 109.35 2.70027 -2.58914 0
M  V30 1259 H 110.683 3.56632 -3.39227 0
M  V30 1260 N 112.336 1.25143 0.95797 0
M  V30 1261 C 113.585 1.0909 1.69654 0
M  V30 1262 C 113.898 -0.368548 1.92097 0
M  V30 1263 O 115.104 -0.649455 2.63618 0
M  V30 1264 C 113.56 1.90395 3.05414 0
M  V30 1265 C 113.168 3.4081 2.90779 0
M  V30 1266 C 114.912 1.82901 3.83076 0
M  V30 1267 C 112.819 4.14423 4.21909 0
M  V30 1268 H 111.749 0.404625 0.636235 0
M  V30 1269 H 114.4 1.4931 1.06672 0
M  V30 1270 H 112.782 1.42996 3.69281 0
M  V30 1271 H 113.956 3.95859 2.35865 0
M  V30 1272 H 112.271 3.49361 2.26575 0
M  V30 1273 H 114.868 2.35196 4.80195 0
M  V30 1274 H 115.211 0.796224 4.08615 0
M  V30 1275 H 115.744 2.28033 3.25954 0
M  V30 1276 H 112.483 5.18102 4.01561 0
M  V30 1277 H 112.003 3.64159 4.76601 0
M  V30 1278 H 113.682 4.21956 4.90471 0
M  V30 1279 N 113.814 -1.1601 1.06675 0
M  V30 1280 C 114.744 -2.22688 0.702307 0
M  V30 1281 C 115.725 -1.67306 -0.307032 0
M  V30 1282 O 116.91 -1.93352 -0.181305 0
M  V30 1283 C 114.04 -3.47178 0.092038 0
M  V30 1284 C 112.994 -4.15477 1.02777 0
M  V30 1285 C 112.32 -5.33963 0.28061 0
M  V30 1286 C 113.62 -4.66019 2.35846 0
M  V30 1287 H 115.314 -2.53429 1.59419 0
M  V30 1288 H 112.86 -1.21813 0.767961 0
M  V30 1289 H 114.813 -4.21037 -0.174814 0
M  V30 1290 H 113.537 -3.15749 -0.834877 0
M  V30 1291 H 112.196 -3.43549 1.27944 0
M  V30 1292 H 111.844 -4.98788 -0.649545 0
M  V30 1293 H 111.544 -5.806 0.904258 0
M  V30 1294 H 113.068 -6.10596 0.021396 0
M  V30 1295 H 114.482 -5.3144 2.15045 0
M  V30 1296 H 112.879 -5.23293 2.93743 0
M  V30 1297 H 113.949 -3.82023 2.98641 0
M  V30 1298 N 115.292 -0.849877 -1.32721 0
M  V30 1299 C 116.242 -0.262892 -2.26479 0
M  V30 1300 C 117.226 0.588493 -1.49752 0
M  V30 1301 O 118.418 0.438659 -1.71478 0
M  V30 1302 C 115.547 0.551818 -3.38836 0
M  V30 1303 C 114.633 -0.311689 -4.22953 0
M  V30 1304 N 115.024 -1.39567 -4.86163 0
M  V30 1305 C 113.322 -0.100611 -4.45887 0
M  V30 1306 C 114.023 -1.92651 -5.48872 0
M  V30 1307 N 112.999 -1.22637 -5.29586 0
M  V30 1308 H 116.801 -1.09166 -2.72873 0
M  V30 1309 H 114.315 -0.695486 -1.46754 0
M  V30 1310 H 116.312 0.988713 -4.05006 0
M  V30 1311 H 114.972 1.37844 -2.93988 0
M  V30 1312 H 115.983 -1.77859 -4.86402 0
M  V30 1313 H 112.66 0.691681 -4.11731 0
M  V30 1314 H 114.05 -2.83487 -6.09167 0
M  V30 1315 N 116.77 1.45427 -0.607355 0
M  V30 1316 C 117.68 2.34325 0.113463 0
M  V30 1317 C 118.696 1.51226 0.860617 0
M  V30 1318 O 119.872 1.84029 0.818255 0
M  V30 1319 C 116.937 3.28839 1.09844 0
M  V30 1320 C 115.998 4.27844 0.353271 0
M  V30 1321 C 115.231 5.17842 1.29133 0
M  V30 1322 O 115.454 5.11264 2.52913 0
M  V30 1323 O 114.388 5.96713 0.788523 0
M  V30 1324 H 118.214 2.97364 -0.617094 0
M  V30 1325 H 115.799 1.44807 -0.367619 0
M  V30 1326 H 117.681 3.8708 1.66575 0
M  V30 1327 H 116.356 2.68365 1.81003 0
M  V30 1328 H 115.263 3.7322 -0.256494 0
M  V30 1329 H 116.596 4.91173 -0.317822 0
M  V30 1330 N 118.248 0.346503 1.53744 0
M  V30 1331 C 119.497 -0.250122 2.00143 0
M  V30 1332 C 119.81 -1.51418 1.23822 0
M  V30 1333 O 121.016 -2.18823 1.60713 0
M  V30 1334 C 119.472 -0.496252 3.56462 0
M  V30 1335 C 119.08 0.752077 4.41642 0
M  V30 1336 C 120.824 -1.05157 4.11269 0
M  V30 1337 C 118.731 0.476583 5.89477 0
M  V30 1338 H 117.661 -0.0972409 0.747703 0
M  V30 1339 H 120.312 0.46229 1.77581 0
M  V30 1340 H 118.694 -1.26944 3.75102 0
M  V30 1341 H 119.868 1.5266 4.34778 0
M  V30 1342 H 118.183 1.22925 3.97842 0
M  V30 1343 H 120.78 -1.27269 5.19333 0
M  V30 1344 H 121.123 -2.00799 3.64672 0
M  V30 1345 H 121.656 -0.339019 3.96353 0
M  V30 1346 H 118.395 1.4028 6.40314 0
M  V30 1347 H 117.915 -0.259794 5.99237 0
M  V30 1348 H 119.594 0.0949315 6.4693 0
M  V30 1349 N 119.726 -1.57421 0.075193 0
M  V30 1350 C 120.689 -2.11791 -0.876203 0
M  V30 1351 C 121.689 -1.04268 -1.22412 0
M  V30 1352 O 122.879 -1.30242 -1.15684 0
M  V30 1353 C 120.011 -2.62207 -2.17854 0
M  V30 1354 H 121.204 -2.9716 -0.40444 0
M  V30 1355 H 118.757 -1.55333 -0.173557 0
M  V30 1356 H 119.492 -1.803 -2.6956 0
M  V30 1357 H 119.277 -3.40802 -1.93897 0
M  V30 1358 H 120.767 -3.04335 -2.85955 0
M  V30 1359 N 121.204 0.198386 -1.56346 0
M  V30 1360 C 122.45 0.920648 -1.80698 0
M  V30 1361 C 122.783 1.83045 -0.648697 0
M  V30 1362 O 122.058 1.91308 0.350925 0
M  V30 1363 C 122.341 1.73971 -3.15287 0
M  V30 1364 C 122.194 0.85485 -4.41602 0
M  V30 1365 C 123.513 2.71296 -3.46535 0
M  V30 1366 H 120.632 0.333261 -0.657348 0
M  V30 1367 H 123.274 0.188198 -1.89066 0
M  V30 1368 H 121.424 2.36416 -3.08285 0
M  V30 1369 H 123.096 0.245362 -4.60647 0
M  V30 1370 H 121.339 0.161398 -4.335 0
M  V30 1371 H 122.01 1.46286 -5.32264 0
M  V30 1372 H 124.486 2.18983 -3.53816 0
M  V30 1373 H 123.362 3.2569 -4.41834 0
M  V30 1374 H 123.623 3.5018 -2.69864 0
M  V30 1375 N 122.682 1.50554 0.465978 0
M  V30 1376 C 123.612 1.72722 1.57128 0
M  V30 1377 C 124.593 0.576294 1.6004 0
M  V30 1378 O 125.778 0.81598 1.76225 0
M  V30 1379 C 122.908 1.82605 2.95419 0
M  V30 1380 C 121.862 2.97835 3.07373 0
M  V30 1381 C 121.188 2.92867 4.47363 0
M  V30 1382 C 122.488 4.38265 2.84114 0
M  V30 1383 H 124.182 2.65267 1.38829 0
M  V30 1384 H 121.728 1.2765 0.666441 0
M  V30 1385 H 123.681 1.96698 3.72677 0
M  V30 1386 H 122.405 0.866858 3.14886 0
M  V30 1387 H 121.064 2.83401 2.3255 0
M  V30 1388 H 120.712 1.94783 4.63755 0
M  V30 1389 H 120.412 3.70227 4.56296 0
M  V30 1390 H 121.936 3.09015 5.26633 0
M  V30 1391 H 123.35 4.53198 3.51118 0
M  V30 1392 H 121.747 5.17115 3.04487 0
M  V30 1393 H 122.817 4.50281 1.7993 0
M  V30 1394 N 124.16 -0.719506 1.40217 0
M  V30 1395 C 125.07 -1.86378 1.42479 0
M  V30 1396 C 126.086 -1.71073 0.317834 0
M  V30 1397 O 127.262 -1.93406 0.561794 0
M  V30 1398 C 124.327 -3.22136 1.28178 0
M  V30 1399 C 123.388 -3.49723 2.48982 0
M  V30 1400 C 122.621 -4.79004 2.35353 0
M  V30 1401 O 122.844 -5.53821 1.36524 0
M  V30 1402 O 121.778 -5.06839 3.2465 0
M  V30 1403 H 125.604 -1.87425 2.38968 0
M  V30 1404 H 123.189 -0.869405 1.21498 0
M  V30 1405 H 125.071 -4.03234 1.22395 0
M  V30 1406 H 123.746 -3.21825 0.347934 0
M  V30 1407 H 122.653 -2.6865 2.60342 0
M  V30 1408 H 123.986 -3.54828 3.41113 0
M  V30 1409 N 125.638 -1.25649 -0.95132 0
M  V30 1410 C 126.568 -1.08808 -2.06599 0
M  V30 1411 C 127.549 0.00382547 -1.701 0
M  V30 1412 O 128.734 -0.166325 -1.93486 0
M  V30 1413 C 125.864 -0.709542 -3.39975 0
M  V30 1414 C 124.818 -1.75206 -3.90496 0
M  V30 1415 C 124.144 -1.22811 -5.20405 0
M  V30 1416 C 125.444 -3.15153 -4.16504 0
M  V30 1417 H 127.138 -2.02048 -2.20946 0
M  V30 1418 H 124.684 -0.972835 -1.06169 0
M  V30 1419 H 126.637 -0.578649 -4.17408 0
M  V30 1420 H 125.361 0.258556 -3.25575 0
M  V30 1421 H 124.02 -1.87145 -3.15234 0
M  V30 1422 H 123.668 -0.250145 -5.02378 0
M  V30 1423 H 123.368 -1.92492 -5.55176 0
M  V30 1424 H 124.892 -1.10968 -6.00432 0
M  V30 1425 H 126.306 -3.06349 -4.84586 0
M  V30 1426 H 124.703 -3.82333 -4.62538 0
M  V30 1427 H 125.773 -3.61966 -3.22658 0
M  V30 1428 N 127.117 1.15442 -1.07289 0
M  V30 1429 C 128.08 2.18358 -0.696591 0
M  V30 1430 C 129.08 1.58637 0.262837 0
M  V30 1431 O 130.27 1.74145 0.0438809 0
M  V30 1432 C 127.402 3.4089 -0.0266151 0
M  V30 1433 H 128.595 2.53162 -1.60776 0
M  V30 1434 H 126.148 1.29893 -0.869342 0
M  V30 1435 H 126.883 3.11653 0.896822 0
M  V30 1436 H 126.668 3.85495 -0.716657 0
M  V30 1437 H 128.158 4.17009 0.222028 0
M  V30 1438 N 128.595 0.856903 1.32268 0
M  V30 1439 C 129.542 0.301172 2.28827 0
M  V30 1440 C 130.512 -0.593104 1.5515 0
M  V30 1441 O 131.697 -0.527537 1.83362 0
M  V30 1442 C 128.837 -0.502523 3.41422 0
M  V30 1443 C 127.95 0.417797 4.29975 0
M  V30 1444 C 127.085 -0.398749 5.29701 0
M  V30 1445 C 126.124 0.518827 6.09897 0
M  V30 1446 N 125.261 -0.260674 7.01616 0
M  V30 1447 H 130.101 1.12983 2.75751 0
M  V30 1448 H 127.638 0.568582 1.35667 0
M  V30 1449 H 129.596 -0.984141 4.05426 0
M  V30 1450 H 128.226 -1.29599 2.95642 0
M  V30 1451 H 127.278 1.01781 3.66531 0
M  V30 1452 H 128.59 1.12191 4.86019 0
M  V30 1453 H 127.744 -0.943435 5.9932 0
M  V30 1454 H 126.483 -1.13622 4.7428 0
M  V30 1455 H 125.488 1.07538 5.39181 0
M  V30 1456 H 126.713 1.25495 6.67404 0
M  V30 1457 H 124.659 -0.981198 6.4862 0
M  V30 1458 H 124.576 0.384364 7.55022 0
M  V30 1459 H 125.844 -0.787014 7.75517 0
M  V30 1460 N 130.073 -1.45103 0.615059 0
M  V30 1461 C 131.298 -2.07064 0.117988 0
M  V30 1462 C 131.723 -1.4554 -1.19163 0
M  V30 1463 O 131.081 -0.550855 -1.72729 0
M  V30 1464 C 131.129 -3.606 -0.000288387 0
M  V30 1465 O 130.233 -3.98847 -1.04856 0
M  V30 1466 H 129.574 -0.659467 0.0774581 0
M  V30 1467 H 132.104 -1.86236 0.847186 0
M  V30 1468 H 132.114 -4.07529 -0.196091 0
M  V30 1469 H 130.789 -4.04765 0.955932 0
M  V30 1470 H 129.366 -3.63577 -0.828619 0
M  V30 1471 N 131.551 -0.354651 -1.53558 0
M  V30 1472 C 132.791 0.238651 -2.03002 0
M  V30 1473 C 133.155 1.46878 -1.23656 0
M  V30 1474 O 134.356 2.13699 -1.63053 0
M  V30 1475 C 132.627 0.534175 -3.53386 0
M  V30 1476 S 134.186 1.10271 -4.24719 0
M  V30 1477 H 131.004 0.0702908 -0.707517 0
M  V30 1478 H 133.606 -0.494987 -1.8913 0
M  V30 1479 H 132.31 -0.368765 -4.0874 0
M  V30 1480 H 131.841 1.29718 -3.71398 0
M  V30 1481 H 133.856 2.38772 -4.34974 0
M  V30 1482 N 133.029 1.57378 -0.0835403 0
M  V30 1483 C 134.44 1.81261 0.447358 0
M  V30 1484 C 134.791 0.998331 1.68902 0
M  V30 1485 O 133.916 0.224282 2.15235 0
M  V30 1486 C 134.511 3.28767 0.818386 0
M  V30 1487 C 133.07 3.53455 1.29409 0
M  V30 1488 C 132.217 2.75831 0.285024 0
M  V30 1489 H 135.168 1.5566 -0.309115 0
M  V30 1490 H 135.189 3.41459 1.67887 0
M  V30 1491 H 134.701 3.88006 -0.0855019 0
M  V30 1492 H 132.802 2.99534 2.21608 0
M  V30 1493 H 132.915 4.62128 1.2639 0
M  V30 1494 H 131.279 2.42947 0.764767 0
M  V30 1495 H 132.062 3.37813 -0.611341 0
M  V30 1496 N 134.507 -0.190092 1.56449 0
M  V30 1497 C 135.923 -0.54113 1.50146 0
M  V30 1498 C 136.123 -1.85603 0.784465 0
M  V30 1499 O 135.179 -2.5024 0.337051 0
M  V30 1500 C 136.492 -0.591241 2.9483 0
M  V30 1501 C 138.04 -0.679732 3.0553 0
M  V30 1502 C 138.515 -0.760908 4.51635 0
M  V30 1503 N 140.006 -0.824302 4.55806 0
M  V30 1504 C 140.741 -0.907365 5.66175 0
M  V30 1505 N 140.237 -0.952422 6.86222 0
M  V30 1506 N 142.03 -0.94494 5.541 0
M  V30 1507 H 134.181 0.67235 2.01478 0
M  V30 1508 H 136.444 0.240127 0.917084 0
M  V30 1509 H 136.15 0.305905 3.50367 0
M  V30 1510 H 136.024 -1.44422 3.48457 0
M  V30 1511 H 138.411 -1.56731 2.50039 0
M  V30 1512 H 138.492 0.199549 2.5502 0
M  V30 1513 H 138.136 0.122336 5.07753 0
M  V30 1514 H 138.066 -1.65606 4.99882 0
M  V30 1515 H 140.557 -0.798526 3.69367 0
M  V30 1516 H 140.87 -1.01645 7.66086 0
M  V30 1517 H 139.215 -0.921014 6.8887 0
M  V30 1518 H 142.406 -0.906612 4.59236 0
M  V30 1519 H 142.579 -1.00622 6.4014 0
M  V30 1520 N 135.985 -1.50799 -0.457987 0
M  V30 1521 C 137.231 -1.62683 -1.21088 0
M  V30 1522 C 137.564 -0.332268 -1.91336 0
M  V30 1523 O 136.839 0.667043 -1.82704 0
M  V30 1524 C 137.122 -2.81615 -2.24422 0
M  V30 1525 C 136.975 -4.20989 -1.58392 0
M  V30 1526 C 138.294 -2.96085 -3.2561 0
M  V30 1527 H 135.413 -0.592087 -0.438864 0
M  V30 1528 H 138.055 -1.83225 -0.50286 0
M  V30 1529 H 136.205 -2.64231 -2.84806 0
M  V30 1530 H 137.877 -4.49994 -1.01504 0
M  V30 1531 H 136.12 -4.24641 -0.886704 0
M  V30 1532 H 136.791 -5.0016 -2.33547 0
M  V30 1533 H 139.267 -3.12042 -2.75262 0
M  V30 1534 H 138.143 -3.80902 -3.95228 0
M  V30 1535 H 138.404 -2.0726 -3.90507 0
M  V30 1536 N 137.463 0.71206 -1.40597 0
M  V30 1537 C 138.712 1.46754 -1.38369 0
M  V30 1538 C 139.025 1.95598 0.0097839 0
M  V30 1539 O 140.231 2.71059 0.154677 0
M  V30 1540 C 138.687 2.65289 -2.43207 0
M  V30 1541 C 138.295 2.23301 -3.88382 0
M  V30 1542 C 140.039 3.43008 -2.50091 0
M  V30 1543 C 137.946 3.38696 -4.84808 0
M  V30 1544 H 136.876 0.55118 -0.514506 0
M  V30 1545 H 139.527 0.774616 -1.66349 0
M  V30 1546 H 137.909 3.36769 -2.08332 0
M  V30 1547 H 139.083 1.59218 -4.32419 0
M  V30 1548 H 137.398 1.58618 -3.85006 0
M  V30 1549 H 139.995 4.28881 -3.1932 0
M  V30 1550 H 140.338 3.87065 -1.53253 0
M  V30 1551 H 140.871 2.78574 -2.83974 0
M  V30 1552 H 137.61 2.99668 -5.82992 0
M  V30 1553 H 137.13 4.01683 -4.45433 0
M  V30 1554 H 138.809 4.04712 -5.04794 0
M  V30 1555 N 138.941 1.26152 0.944643 0
M  V30 1556 C 139.889 1.07215 2.06417 0
M  V30 1557 C 140.883 9.2007e-05 1.694 0
M  V30 1558 O 142.089 0.1565 1.79318 0
M  V30 1559 H 138.464 0.329837 0.675805 0
M  V30 1560 H 140.435 2.02099 2.19541 0
M  V30 1561 C 139.184 0.718197 3.40202 0
M  V30 1562 H 138.507 1.53497 3.69159 0
M  V30 1563 H 139.947 0.625459 4.19361 0
M  V30 1564 C 138.406 -0.576435 3.31932 0
M  V30 1565 O 138.936 -1.61574 3.67773 0
M  V30 1566 N 137.142 -0.565781 2.85039 0
M  V30 1567 H 136.689 0.280367 2.5607 0
M  V30 1568 H 136.647 -1.43213 2.79888 0
M  V30 1569 N 140.419 -1.14872 1.07899 0
M  V30 1570 C 141.349 -2.2193 0.725887 0
M  V30 1571 C 142.33 -1.67622 -0.28927 0
M  V30 1572 O 143.515 -1.93533 -0.160787 0
M  V30 1573 C 140.645 -3.47061 0.128856 0
M  V30 1574 C 139.599 -4.14363 1.07178 0
M  V30 1575 C 138.925 -5.33636 0.337229 0
M  V30 1576 C 140.225 -4.63492 2.40775 0
M  V30 1577 H 141.919 -2.51724 1.62097 0
M  V30 1578 H 139.465 -1.20991 0.780838 0
M  V30 1579 H 141.418 -4.21199 -0.130147 0
M  V30 1580 H 140.142 -3.16617 -0.80134 0
M  V30 1581 H 138.801 -3.42173 1.3158 0
M  V30 1582 H 138.449 -4.99449 -0.596606 0
M  V30 1583 H 138.149 -5.79609 0.965788 0
M  V30 1584 H 139.673 -6.10539 0.0861567 0
M  V30 1585 H 141.087 -5.2913 2.20669 0
M  V30 1586 H 139.484 -5.20148 2.99276 0
M  V30 1587 H 140.554 -3.78834 3.02676 0
M  V30 1588 N 141.898 -0.863906 -1.31812 0
M  V30 1589 C 142.848 -0.286898 -2.26188 0
M  V30 1590 C 143.832 0.572577 -1.50367 0
M  V30 1591 O 145.024 0.420447 -1.71934 0
M  V30 1592 C 142.153 0.515849 -3.39402 0
M  V30 1593 C 141.239 -0.356531 -4.22599 0
M  V30 1594 N 141.63 -1.44716 -4.84656 0
M  V30 1595 C 139.928 -0.147898 -4.45755 0
M  V30 1596 C 140.629 -1.98462 -5.46798 0
M  V30 1597 N 139.605 -1.28247 -5.28255 0
M  V30 1598 H 143.407 -1.12055 -2.717 0
M  V30 1599 H 140.921 -0.711012 -1.46008 0
M  V30 1600 H 142.918 0.945701 -4.06032 0
M  V30 1601 H 141.578 1.34718 -2.95434 0
M  V30 1602 H 142.589 -1.83008 -4.84488 0
M  V30 1603 H 139.266 0.647973 -4.12441 0
M  V30 1604 H 140.656 -2.89932 -6.06126 0
M  V30 1605 N 143.376 1.44774 -0.622745 0
M  V30 1606 C 144.286 2.34433 0.0886031 0
M  V30 1607 C 145.302 1.52131 0.844529 0
M  V30 1608 O 146.478 1.84886 0.798691 0
M  V30 1609 C 143.543 3.29986 1.0635 0
M  V30 1610 C 142.604 4.28195 0.307873 0
M  V30 1611 C 141.837 5.19183 1.23633 0
M  V30 1612 O 142.06 5.13918 2.47476 0
M  V30 1613 O 140.994 5.97515 0.725189 0
M  V30 1614 H 144.82 2.96693 -0.648599 0
M  V30 1615 H 142.405 1.44408 -0.382957 0
M  V30 1616 H 144.287 3.88825 1.6246 0
M  V30 1617 H 142.962 2.70269 1.78146 0
M  V30 1618 H 141.869 3.72927 -0.296064 0
M  V30 1619 H 143.202 4.90808 -0.3699 0
M  V30 1620 N 144.854 0.36279 1.53368 0
M  V30 1621 C 146.1 -0.228113 2.01513 0
M  V30 1622 C 146.433 -1.48648 1.2497 0
M  V30 1623 O 145.708 -1.91459 0.342616 0
M  V30 1624 C 145.991 -0.522884 3.56284 0
M  V30 1625 C 145.844 0.74892 4.43521 0
M  V30 1626 C 147.163 -1.32461 4.19693 0
M  V30 1627 H 144.282 -0.0814343 0.732487 0
M  V30 1628 H 146.924 0.48713 1.83649 0
M  V30 1629 H 145.074 -1.1322 3.71636 0
M  V30 1630 H 146.746 1.38648 4.39971 0
M  V30 1631 H 144.989 1.36986 4.11603 0
M  V30 1632 H 145.66 0.497667 5.49752 0
M  V30 1633 H 148.136 -0.809203 4.08156 0
M  V30 1634 H 147.012 -1.49961 5.28018 0
M  V30 1635 H 147.273 -2.33232 3.75573 0
M  V30 1636 N 146.332 -1.57332 0.0918853 0
M  V30 1637 C 147.562 -1.98286 -0.580205 0
M  V30 1638 C 147.97 -0.969713 -1.6246 0
M  V30 1639 O 147.313 0.0493501 -1.83634 0
M  V30 1640 C 147.375 -3.35603 -1.28882 0
M  V30 1641 C 147.039 -4.55285 -0.395559 0
M  V30 1642 C 148.036 -5.18687 0.355002 0
M  V30 1643 C 145.721 -5.01314 -0.314556 0
M  V30 1644 C 147.715 -6.26484 1.17458 0
M  V30 1645 C 145.402 -6.08979 0.508677 0
M  V30 1646 C 146.4 -6.71429 1.2519 0
M  V30 1647 O 146.088 -7.77018 2.06151 0
M  V30 1648 H 145.82 -0.656678 -0.160466 0
M  V30 1649 H 148.374 -2.04721 0.16688 0
M  V30 1650 H 146.604 -3.25842 -2.08241 0
M  V30 1651 H 148.293 -3.61026 -1.85512 0
M  V30 1652 H 149.059 -4.84058 0.302134 0
M  V30 1653 H 144.938 -4.5247 -0.882697 0
M  V30 1654 H 148.482 -6.75159 1.75518 0
M  V30 1655 H 144.379 -6.4304 0.563037 0
M  V30 1656 H 145.147 -7.93991 1.98799 0
M  V30 1657 N 147.81 0.181792 -1.56548 0
M  V30 1658 C 148.72 1.24538 -1.98815 0
M  V30 1659 C 149.736 1.49045 -0.897861 0
M  V30 1660 O 150.912 1.61399 -1.20467 0
M  V30 1661 C 147.977 2.56683 -2.33055 0
M  V30 1662 C 147.038 2.40131 -3.55859 0
M  V30 1663 C 146.271 3.65975 -3.88456 0
M  V30 1664 O 146.494 4.70711 -3.22161 0
M  V30 1665 O 145.428 3.6071 -4.81842 0
M  V30 1666 H 149.254 0.916647 -2.89536 0
M  V30 1667 H 146.839 0.387842 -1.44278 0
M  V30 1668 H 148.721 3.34655 -2.56094 0
M  V30 1669 H 147.396 2.89157 -1.45498 0
M  V30 1670 H 146.303 1.60226 -3.38051 0
M  V30 1671 H 147.636 2.12585 -4.43924 0
M  V30 1672 N 149.288 1.51039 0.449983 0
M  V30 1673 C 150.236 1.71995 1.5659 0
M  V30 1674 C 151.23 0.586029 1.5894 0
M  V30 1675 O 152.436 0.76709 1.62837 0
M  V30 1676 H 148.811 0.543233 0.520001 0
M  V30 1677 H 150.782 2.65562 1.36085 0
M  V30 1678 C 149.531 1.8506 2.9436 0
M  V30 1679 H 148.854 2.71712 2.93279 0
M  V30 1680 H 150.294 2.0374 3.71842 0
M  V30 1681 C 148.753 0.607277 3.31382 0
M  V30 1682 O 149.283 -0.243903 4.00959 0
M  V30 1683 N 147.489 0.455073 2.87015 0
M  V30 1684 H 147.036 1.14879 2.30566 0
M  V30 1685 H 146.994 -0.375611 3.12148 0
M  V30 1686 N 150.766 -0.704594 1.40972 0
M  V30 1687 C 151.994 -1.49354 1.43182 0
M  V30 1688 C 152.409 -1.88768 0.0345508 0
M  V30 1689 O 151.766 -1.56184 -0.944081 0
M  V30 1690 C 151.817 -2.76187 2.33244 0
M  V30 1691 O 151.538 -2.38436 3.67532 0
M  V30 1692 C 153.039 -3.7 2.44162 0
M  V30 1693 H 150.259 -0.460559 0.487982 0
M  V30 1694 H 152.803 -0.868261 1.85153 0
M  V30 1695 H 150.958 -3.34974 1.94606 0
M  V30 1696 H 151.372 -3.20126 4.15475 0
M  V30 1697 H 152.846 -4.55803 3.11364 0
M  V30 1698 H 153.323 -4.13867 1.47006 0
M  V30 1699 H 153.929 -3.17121 2.83398 0
M  V30 1700 N 152.244 -1.26651 -0.937939 0
M  V30 1701 C 153.469 -1.15279 -1.72411 0
M  V30 1702 C 153.894 0.287866 -1.85884 0
M  V30 1703 O 153.252 1.20855 -1.35143 0
M  V30 1704 C 153.3 -1.83028 -3.10698 0
M  V30 1705 O 152.404 -1.12128 -3.96864 0
M  V30 1706 H 151.745 -0.401504 -0.528858 0
M  V30 1707 H 154.275 -1.67531 -1.1745 0
M  V30 1708 H 154.285 -1.89981 -3.6107 0
M  V30 1709 H 152.96 -2.87833 -3.00208 0
M  V30 1710 H 151.537 -1.13173 -3.55312 0
M  V30 1711 N 153.722 1.14298 -1.08507 0
M  V30 1712 C 154.632 2.23027 -0.727753 0
M  V30 1713 C 155.648 1.71952 0.26619 0
M  V30 1714 O 156.824 2.011 0.109882 0
M  V30 1715 C 153.889 3.46403 -0.143541 0
M  V30 1716 C 152.95 4.12413 -1.19223 0
M  V30 1717 C 152.183 5.29899 -0.635798 0
M  V30 1718 O 152.406 5.67796 0.544393 0
M  V30 1719 O 151.34 5.85717 -1.38634 0
M  V30 1720 H 155.166 2.55945 -1.63481 0
M  V30 1721 H 152.751 1.22248 -0.858817 0
M  V30 1722 H 154.633 4.21018 0.179404 0
M  V30 1723 H 153.308 3.15206 0.736659 0
M  V30 1724 H 152.215 3.39667 -1.56772 0
M  V30 1725 H 153.548 4.47718 -2.04474 0
M  V30 1726 N 155.201 0.870884 1.31352 0
M  V30 1727 C 156.45 0.478408 1.95944 0
M  V30 1728 C 156.763 -0.974493 1.69597 0
M  V30 1729 O 157.969 -1.47316 2.28058 0
M  V30 1730 C 156.425 0.804609 3.50791 0
M  V30 1731 C 156.033 2.27433 3.85977 0
M  V30 1732 C 157.777 0.480648 4.2177 0
M  V30 1733 C 155.684 2.5429 5.33939 0
M  V30 1734 H 154.614 0.175175 0.733369 0
M  V30 1735 H 157.265 1.06391 1.4951 0
M  V30 1736 H 155.647 0.148347 3.95722 0
M  V30 1737 H 156.821 2.97373 3.52002 0
M  V30 1738 H 155.136 2.56442 3.28065 0
M  V30 1739 H 157.733 0.658519 5.30629 0
M  V30 1740 H 158.076 -0.578979 4.12254 0
M  V30 1741 H 158.609 1.09349 3.82476 0
M  V30 1742 H 155.348 3.58939 5.48491 0
M  V30 1743 H 154.868 1.88945 5.69263 0
M  V30 1744 H 156.547 2.39066 6.01212 0
M  V30 1745 N 156.679 -1.44442 0.630414 0
M  V30 1746 C 157.928 -2.01267 0.132073 0
M  V30 1747 C 158.241 -1.50172 -1.25331 0
M  V30 1748 O 159.447 -1.9912 -1.84562 0
M  V30 1749 C 157.903 -3.59422 0.185362 0
M  V30 1750 C 157.511 -4.19514 1.57201 0
M  V30 1751 C 159.255 -4.23724 -0.256553 0
M  V30 1752 C 157.162 -5.69891 1.58045 0
M  V30 1753 H 156.092 -0.752619 0.0456092 0
M  V30 1754 H 158.743 -1.65666 0.789106 0
M  V30 1755 H 157.125 -3.92318 -0.538759 0
M  V30 1756 H 158.299 -3.98156 2.31966 0
M  V30 1757 H 156.614 -3.67496 1.95795 0
M  V30 1758 H 159.211 -5.34019 -0.269767 0
M  V30 1759 H 159.554 -3.96013 -1.28372 0
M  V30 1760 H 160.087 -3.95629 0.41505 0
M  V30 1761 H 156.826 -6.02336 2.58597 0
M  V30 1762 H 156.346 -5.93373 0.875725 0
M  V30 1763 H 158.025 -6.33515 1.31408 0
M  V30 1764 N 158.157 -0.370918 -1.53173 0
M  V30 1765 C 159.087 0.464847 -2.28826 0
M  V30 1766 C 160.068 1.07936 -1.31468 0
M  V30 1767 O 161.253 1.0956 -1.60344 0
M  V30 1768 C 158.383 1.60196 -3.08147 0
M  V30 1769 C 157.337 1.11443 -4.13237 0
M  V30 1770 C 156.663 2.3422 -4.80672 0
M  V30 1771 C 157.963 0.195384 -5.21934 0
M  V30 1772 H 159.657 -0.166329 -2.98938 0
M  V30 1773 H 157.203 -0.0814359 -1.4377 0
M  V30 1774 H 159.156 2.19332 -3.59822 0
M  V30 1775 H 157.88 2.26045 -2.35735 0
M  V30 1776 H 156.539 0.545727 -3.62515 0
M  V30 1777 H 156.187 2.98537 -4.04827 0
M  V30 1778 H 155.887 2.02269 -5.51689 0
M  V30 1779 H 157.411 2.94032 -5.35143 0
M  V30 1780 H 158.825 0.694375 -5.69079 0
M  V30 1781 H 157.222 -0.0335027 -6.00091 0
M  V30 1782 H 158.292 -0.760961 -4.78892 0
M  V30 1783 N 159.635 1.57281 -0.100228 0
M  V30 1784 C 160.884 1.93713 0.561984 0
M  V30 1785 C 161.197 0.984492 1.69018 0
M  V30 1786 O 162.403 1.24273 2.41389 0
M  V30 1787 C 160.859 3.4421 1.05106 0
M  V30 1788 C 160.467 4.47975 -0.0476628 0
M  V30 1789 C 162.211 3.89595 1.68571 0
M  V30 1790 C 160.118 5.89631 0.457055 0
M  V30 1791 H 159.048 0.723082 0.2137 0
M  V30 1792 H 161.699 1.82644 -0.177057 0
M  V30 1793 H 160.081 3.50449 1.84395 0
M  V30 1794 H 161.255 4.53385 -0.823333 0
M  V30 1795 H 159.57 4.1223 -0.587816 0
M  V30 1796 H 162.167 4.92832 2.07414 0
M  V30 1797 H 162.51 3.28526 2.55688 0
M  V30 1798 H 163.043 3.86078 0.958562 0
M  V30 1799 H 159.782 6.54411 -0.377616 0
M  V30 1800 H 159.302 5.87681 1.19962 0
M  V30 1801 H 160.981 6.40363 0.92437 0
M  V30 1802 N 161.113 -0.173488 1.56642 0
M  V30 1803 C 162.043 -1.2171 1.99271 0
M  V30 1804 C 163.024 -1.46289 0.867959 0
M  V30 1805 O 164.209 -1.5766 1.13388 0
M  V30 1806 C 161.339 -2.55651 2.35074 0
M  V30 1807 C 160.293 -2.45645 3.50489 0
M  V30 1808 C 159.619 -3.84056 3.72028 0
M  V30 1809 C 160.919 -1.96302 4.84007 0
M  V30 1810 H 162.613 -0.86275 2.867 0
M  V30 1811 H 160.159 -0.413571 1.37933 0
M  V30 1812 H 162.112 -3.2886 2.63494 0
M  V30 1813 H 160.836 -2.92869 1.44552 0
M  V30 1814 H 159.495 -1.7489 3.22194 0
M  V30 1815 H 159.143 -4.18664 2.788 0
M  V30 1816 H 158.843 -3.7823 4.49684 0
M  V30 1817 H 160.367 -4.58854 4.02846 0
M  V30 1818 H 161.781 -2.59284 5.11317 0
M  V30 1819 H 160.178 -2.01429 5.65284 0
M  V30 1820 H 161.248 -0.917226 4.76146 0
M  V30 1821 N 162.591 -1.51276 -0.441967 0
M  V30 1822 C 163.501 -1.75092 -1.56141 0
M  V30 1823 C 164.517 -0.634963 -1.62001 0
M  V30 1824 O 165.693 -0.916686 -1.79329 0
M  V30 1825 C 162.758 -1.86666 -2.92158 0
M  V30 1826 C 161.819 -3.10506 -2.96453 0
M  V30 1827 C 161.052 -3.21519 -4.25982 0
M  V30 1828 O 161.275 -2.38586 -5.18105 0
M  V30 1829 O 160.209 -4.14465 -4.36466 0
M  V30 1830 H 164.035 -2.70044 -1.38961 0
M  V30 1831 H 161.62 -1.35722 -0.624499 0
M  V30 1832 H 163.502 -1.96292 -3.72891 0
M  V30 1833 H 162.177 -0.949014 -3.09476 0
M  V30 1834 H 161.084 -3.06363 -2.14692 0
M  V30 1835 H 162.417 -4.01945 -2.84079 0
M  V30 1836 N 164.069 0.697108 -1.41344 0
M  V30 1837 C 165.299 1.48377 -1.43763 0
M  V30 1838 C 165.707 1.89156 -0.0408726 0
M  V30 1839 O 165.05 1.57239 0.949812 0
M  V30 1840 C 165.112 2.7781 -2.2817 0
M  V30 1841 C 164.776 2.59244 -3.76353 0
M  V30 1842 C 165.773 2.25292 -4.68551 0
M  V30 1843 C 163.458 2.74933 -4.20378 0
M  V30 1844 C 165.452 2.07264 -6.02761 0
M  V30 1845 C 163.139 2.56521 -5.54653 0
M  V30 1846 C 164.137 2.22737 -6.4566 0
M  V30 1847 O 163.825 2.04485 -7.77458 0
M  V30 1848 H 163.557 0.463842 -0.491759 0
M  V30 1849 H 166.111 0.865934 -1.86255 0
M  V30 1850 H 164.341 3.41995 -1.8049 0
M  V30 1851 H 166.03 3.39608 -2.22309 0
M  V30 1852 H 166.796 2.12787 -4.35829 0
M  V30 1853 H 162.675 3.00213 -3.49848 0
M  V30 1854 H 166.219 1.80817 -6.73759 0
M  V30 1855 H 162.116 2.68616 -5.86955 0
M  V30 1856 H 162.884 2.1926 -7.88586 0
M  V30 1857 N 165.547 1.27147 0.931209 0
M  V30 1858 C 166.51 1.09615 2.01289 0
M  V30 1859 C 167.51 0.0412581 1.60747 0
M  V30 1860 O 168.7 0.285545 1.71844 0
M  V30 1861 C 165.832 0.669447 3.34262 0
M  V30 1862 H 167.025 2.05662 2.18273 0
M  V30 1863 H 164.578 1.09885 1.11153 0
M  V30 1864 H 165.313 -0.292572 3.22978 0
M  V30 1865 H 165.098 1.43127 3.65044 0
M  V30 1866 H 166.588 0.568921 4.13706 0
M  V30 1867 N 167.025 -1.13721 1.09112 0
M  V30 1868 C 167.988 -2.17222 0.731241 0
M  V30 1869 C 168.988 -1.59035 -0.237566 0
M  V30 1870 O 170.178 -1.74192 -0.0161704 0
M  V30 1871 C 167.31 -3.40804 0.0808443 0
M  V30 1872 H 168.503 -2.50573 1.64783 0
M  V30 1873 H 166.056 -1.28493 0.889897 0
M  V30 1874 H 166.791 -3.1304 -0.847127 0
M  V30 1875 H 166.576 -3.84306 0.777896 0
M  V30 1876 H 168.066 -4.1731 -0.155657 0
M  V30 1877 N 168.503 -0.877838 -1.30888 0
M  V30 1878 C 169.751 -0.491723 -1.96027 0
M  V30 1879 C 170.072 0.960827 -1.69685 0
M  V30 1880 O 169.342 1.67462 -1.01654 0
M  V30 1881 H 167.922 -0.17885 -0.725273 0
M  V30 1882 H 170.584 -1.11935 -1.59551 0
M  V30 1883 H 169.68 -0.656016 -3.05128 0
M  V30 1884 N 169.982 1.44106 -0.638065 0
M  V30 1885 C 171.23 2.01579 -0.145043 0
M  V30 1886 C 171.551 1.50496 1.24 0
M  V30 1887 O 170.821 0.711374 1.82527 0
M  V30 1888 H 169.401 0.745282 -0.05063 0
M  V30 1889 H 172.063 1.76516 -0.826327 0
M  V30 1890 H 171.159 3.11877 -0.118039 0
M  V30 1891 N 171.46 0.379036 1.52974 0
M  V30 1892 C 172.37 -0.468639 2.29872 0
M  V30 1893 C 173.386 -1.08067 1.36373 0
M  V30 1894 O 174.562 -1.08871 1.69438 0
M  V30 1895 C 171.627 -1.58594 3.083 0
M  V30 1896 C 170.688 -1.00007 4.17489 0
M  V30 1897 C 169.921 -2.06413 4.92168 0
M  V30 1898 O 170.144 -3.27751 4.66835 0
M  V30 1899 O 169.078 -1.68717 5.7777 0
M  V30 1900 H 172.904 0.157508 3.03291 0
M  V30 1901 H 170.489 0.143035 1.48714 0
M  V30 1902 H 172.371 -2.23525 3.57232 0
M  V30 1903 H 171.046 -2.19724 2.37703 0
M  V30 1904 H 169.953 -0.314299 3.72777 0
M  V30 1905 H 171.286 -0.433135 4.90291 0
M  V30 1906 N 172.938 -1.57226 0.108567 0
M  V30 1907 C 174.187 -1.94008 -0.551703 0
M  V30 1908 C 174.5 -0.993442 -1.68494 0
M  V30 1909 O 175.706 -1.25551 -2.40726 0
M  V30 1910 C 174.162 -3.44763 -1.03279 0
M  V30 1911 C 173.77 -4.47943 0.0714193 0
M  V30 1912 C 175.514 -3.90483 -1.66503 0
M  V30 1913 C 173.421 -5.89865 -0.425779 0
M  V30 1914 H 172.351 -0.724206 -0.209863 0
M  V30 1915 H 175.002 -1.82547 0.186741 0
M  V30 1916 H 173.384 -3.51422 -1.82533 0
M  V30 1917 H 174.558 -4.52942 0.847365 0
M  V30 1918 H 172.873 -4.11913 0.609669 0
M  V30 1919 H 175.47 -4.93925 -2.04798 0
M  V30 1920 H 175.813 -3.29877 -2.53942 0
M  V30 1921 H 176.346 -3.86581 -0.938074 0
M  V30 1922 H 173.085 -6.54202 0.412316 0
M  V30 1923 H 172.605 -5.88309 -1.16843 0
M  V30 1924 H 174.284 -6.40844 -0.890397 0
M  V30 1925 N 174.416 0.165178 -1.56732 0
M  V30 1926 C 175.663 0.880807 -1.8234 0
M  V30 1927 C 175.991 1.81977 -0.686621 0
M  V30 1928 O 175.246 1.92971 0.325697 0
M  V30 1929 C 175.545 1.70405 -3.1416 0
M  V30 1930 C 175.211 0.913475 -4.4155 0
M  V30 1931 C 173.873 0.695303 -4.7615 0
M  V30 1932 C 176.225 0.359349 -5.1996 0
M  V30 1933 C 173.553 -0.0879947 -5.86634 0
M  V30 1934 C 175.905 -0.410893 -6.31264 0
M  V30 1935 C 174.569 -0.639808 -6.64427 0
M  V30 1936 H 173.839 0.32231 -0.667231 0
M  V30 1937 H 176.486 0.145402 -1.90947 0
M  V30 1938 H 174.791 2.50903 -3.00923 0
M  V30 1939 H 176.488 2.26091 -3.31186 0
M  V30 1940 H 173.078 1.09357 -4.14414 0
M  V30 1941 H 177.262 0.515228 -4.93618 0
M  V30 1942 H 172.518 -0.27503 -6.10781 0
M  V30 1943 H 176.692 -0.847494 -6.91224 0
M  V30 1944 H 174.319 -1.24864 -7.49875 0
M  V30 1945 N 175.894 1.51508 0.433938 0
M  V30 1946 C 177.119 1.68443 1.21003 0
M  V30 1947 C 177.544 0.382636 1.84167 0
M  V30 1948 O 176.902 -0.65755 1.68956 0
M  V30 1949 C 176.95 2.80405 2.26727 0
M  V30 1950 O 176.054 2.44245 3.32292 0
M  V30 1951 H 175.395 0.561536 0.354363 0
M  V30 1952 H 177.925 1.9809 0.512024 0
M  V30 1953 H 177.935 3.0459 2.71457 0
M  V30 1954 H 176.61 3.74867 1.80132 0
M  V30 1955 H 175.187 2.30644 2.93015 0
M  V30 1956 N 177.372 -0.689602 1.41712 0
M  V30 1957 C 178.302 -1.81577 1.46806 0
M  V30 1958 C 179.283 -1.66945 0.326105 0
M  V30 1959 O 180.468 -1.86588 0.538377 0
M  V30 1960 C 177.598 -3.19762 1.35535 0
M  V30 1961 C 176.552 -3.49107 2.47605 0
M  V30 1962 C 175.878 -4.86711 2.21397 0
M  V30 1963 C 177.178 -3.47483 3.89939 0
M  V30 1964 H 178.872 -1.7757 2.41058 0
M  V30 1965 H 176.418 -0.852887 1.16025 0
M  V30 1966 H 178.371 -3.98263 1.3771 0
M  V30 1967 H 177.095 -3.24409 0.377708 0
M  V30 1968 H 175.754 -2.72959 2.44722 0
M  V30 1969 H 175.402 -4.8799 1.21961 0
M  V30 1970 H 175.102 -5.0731 2.96497 0
M  V30 1971 H 176.626 -5.67515 2.25297 0
M  V30 1972 H 178.04 -4.1598 3.94505 0
M  V30 1973 H 176.437 -3.79615 4.64771 0
M  V30 1974 H 177.507 -2.46341 4.17665 0
M  V30 1975 N 178.85 -1.27639 -0.924453 0
M  V30 1976 C 180.09 -1.15407 -1.68703 0
M  V30 1977 C 180.454 0.294581 -1.89727 0
M  V30 1978 O 181.655 0.539385 -2.63333 0
M  V30 1979 C 179.926 -1.9195 -3.0148 0
M  V30 1980 S 181.485 -1.95969 -3.92609 0
M  V30 1981 H 178.303 -0.411937 -0.579507 0
M  V30 1982 H 180.905 -1.61592 -1.10038 0
M  V30 1983 H 179.609 -2.96387 -2.83871 0
M  V30 1984 H 179.14 -1.46272 -3.65196 0
M  V30 1985 H 181.155 -1.05846 -4.84779 0
M  V30 1986 N 180.328 1.1314 -1.09713 0
M  V30 1987 C 181.258 2.20748 -0.761102 0
M  V30 1988 C 182.239 1.68061 0.262566 0
M  V30 1989 O 183.424 1.93765 0.129977 0
M  V30 1990 C 180.554 3.46812 -0.184054 0
M  V30 1991 C 179.508 4.12606 -1.13757 0
M  V30 1992 C 178.834 5.33031 -0.422083 0
M  V30 1993 C 180.134 4.59603 -2.48118 0
M  V30 1994 H 181.828 2.49113 -1.66082 0
M  V30 1995 H 179.374 1.19734 -0.799987 0
M  V30 1996 H 181.327 4.21353 0.0631215 0
M  V30 1997 H 180.051 3.17851 0.750868 0
M  V30 1998 H 178.71 3.40036 -1.37007 0
M  V30 1999 H 178.358 5.00335 0.517072 0
M  V30 2000 H 178.058 5.77999 -1.05788 0
M  V30 2001 H 179.582 6.10325 -0.183277 0
M  V30 2002 H 180.996 5.25552 -2.29059 0
M  V30 2003 H 179.393 5.15321 -3.07514 0
M  V30 2004 H 180.463 3.73971 -3.08665 0
M  V30 2005 N 181.806 0.884767 1.30421 0
M  V30 2006 C 183.217 0.553656 1.78302 0
M  V30 2007 C 183.568 -0.930153 1.7275 0
M  V30 2008 O 182.693 -1.72681 1.30423 0
M  V30 2009 C 183.288 0.998234 3.2376 0
M  V30 2010 C 181.847 0.71854 3.69478 0
M  V30 2011 C 180.994 1.18132 2.50879 0
M  V30 2012 H 183.945 1.06901 1.17294 0
M  V30 2013 H 183.966 0.327118 3.79091 0
M  V30 2014 H 183.478 2.0782 3.27769 0
M  V30 2015 H 181.579 -0.349444 3.70958 0
M  V30 2016 H 181.692 1.30595 4.60958 0
M  V30 2017 H 180.056 0.600669 2.47516 0
M  V30 2018 H 180.839 2.26902 2.57624 0
M  V30 2019 N 183.284 -1.43765 0.645699 0
M  V30 2020 C 184.194 -2.34544 -0.0512957 0
M  V30 2021 C 185.21 -1.53455 -0.82022 0
M  V30 2022 O 186.386 -1.86133 -0.769176 0
M  V30 2023 C 183.451 -3.31636 -1.01087 0
M  V30 2024 C 182.512 -4.2863 -0.239712 0
M  V30 2025 C 181.745 -5.21084 -1.15358 0
M  V30 2026 O 181.968 -5.1779 -2.39269 0
M  V30 2027 O 180.902 -5.98593 -0.630038 0
M  V30 2028 H 184.728 -2.95624 0.695718 0
M  V30 2029 H 182.313 -1.43781 0.405882 0
M  V30 2030 H 184.195 -3.9136 -1.56254 0
M  V30 2031 H 182.87 -2.73069 -1.73824 0
M  V30 2032 H 181.777 -3.72408 0.355356 0
M  V30 2033 H 183.11 -4.90157 0.447936 0
M  V30 2034 N 184.763 -0.387143 -1.52771 0
M  V30 2035 C 185.693 0.440551 -2.29306 0
M  V30 2036 C 186.674 1.06535 -1.32606 0
M  V30 2037 O 187.859 1.07853 -1.61497 0
M  V30 2038 C 184.989 1.56919 -3.09829 0
M  V30 2039 C 183.943 1.07054 -4.14395 0
M  V30 2040 C 183.269 2.29109 -4.83129 0
M  V30 2041 C 184.569 0.140015 -5.22112 0
M  V30 2042 H 186.263 -0.198026 -2.98744 0
M  V30 2043 H 183.809 -0.09668 -1.43675 0
M  V30 2044 H 185.762 2.15503 -3.62128 0
M  V30 2045 H 184.486 2.23532 -2.3812 0
M  V30 2046 H 183.145 0.507247 -3.63074 0
M  V30 2047 H 182.793 2.94227 -4.0797 0
M  V30 2048 H 182.493 1.96406 -5.53804 0
M  V30 2049 H 184.017 2.88339 -5.38231 0
M  V30 2050 H 185.431 0.633978 -5.69784 0
M  V30 2051 H 183.828 -0.0971485 -6.00021 0
M  V30 2052 H 184.898 -0.811711 -4.78058 0
M  V30 2053 N 186.241 1.57166 -0.116904 0
M  V30 2054 C 187.204 2.14039 0.819742 0
M  V30 2055 C 188.204 1.07477 1.19605 0
M  V30 2056 O 189.394 1.33263 1.1219 0
M  V30 2057 C 186.526 2.67891 2.10826 0
M  V30 2058 H 187.719 2.98128 0.325511 0
M  V30 2059 H 185.272 1.55739 0.132312 0
M  V30 2060 H 186.007 1.87384 2.64685 0
M  V30 2061 H 185.792 3.45823 1.84793 0
M  V30 2062 H 187.282 3.11809 2.77785 0
M  V30 2063 N 187.719 -0.156864 1.56817 0
M  V30 2064 C 188.629 -1.2136 2.00771 0
M  V30 2065 C 189.645 -1.47598 0.921459 0
M  V30 2066 O 190.821 -1.59462 1.2302 0
M  V30 2067 C 187.886 -2.52943 2.37109 0
M  V30 2068 C 186.947 -2.34439 3.59634 0
M  V30 2069 C 186.18 -3.59748 3.94229 0
M  V30 2070 O 186.403 -4.65526 3.29609 0
M  V30 2071 O 185.337 -3.52998 4.8752 0
M  V30 2072 H 189.163 -0.870468 2.90958 0
M  V30 2073 H 186.748 -0.36484 1.44877 0
M  V30 2074 H 188.63 -3.30538 2.61386 0
M  V30 2075 H 187.305 -2.86806 1.5008 0
M  V30 2076 H 186.212 -1.54828 3.40557 0
M  V30 2077 H 187.545 -2.05496 4.4725 0
M  V30 2078 N 189.197 -1.51736 -0.425897 0
M  V30 2079 C 190.13 -1.68574 -1.53812 0
M  V30 2080 C 191.108 -0.53328 -1.53606 0
M  V30 2081 O 192.292 -0.758555 -1.72564 0
M  V30 2082 C 189.419 -1.70977 -2.92377 0
M  V30 2083 C 188.465 -2.92324 -3.10563 0
M  V30 2084 S 189.298 -4.52952 -2.85648 0
M  V30 2085 C 190.454 -4.58117 -4.26474 0
M  V30 2086 H 190.687 -2.62647 -1.39298 0
M  V30 2087 H 188.22 -1.41564 -0.616361 0
M  V30 2088 H 190.178 -1.73047 -3.72243 0
M  V30 2089 H 188.839 -0.78061 -3.04245 0
M  V30 2090 H 188.032 -2.90439 -4.11899 0
M  V30 2091 H 187.634 -2.88055 -2.38538 0
M  V30 2092 H 189.926 -4.34462 -5.19855 0
M  V30 2093 H 190.869 -5.59983 -4.33388 0
M  V30 2094 H 191.277 -3.8732 -4.10662 0
M  V30 2095 N 190.675 0.682077 -1.42076 0
M  V30 2096 C 191.921 1.44428 -1.42367 0
M  V30 2097 C 192.254 1.94164 -0.0373056 0
M  V30 2098 O 191.529 1.70429 0.937239 0
M  V30 2099 C 191.812 2.64654 -2.44194 0
M  V30 2100 C 191.665 2.20596 -3.91991 0
M  V30 2101 C 192.984 3.66865 -2.431 0
M  V30 2102 H 190.103 0.523834 -0.518428 0
M  V30 2103 H 192.745 0.77576 -1.73442 0
M  V30 2104 H 190.895 3.2169 -2.17826 0
M  V30 2105 H 192.567 1.68783 -4.29313 0
M  V30 2106 H 190.81 1.52242 -4.06208 0
M  V30 2107 H 191.481 3.06921 -4.58807 0
M  V30 2108 H 193.957 3.19531 -2.66532 0
M  V30 2109 H 192.833 4.48577 -3.16339 0
M  V30 2110 H 193.094 4.17493 -1.45437 0
M  V30 2111 N 192.153 1.28127 0.917671 0
M  V30 2112 C 193.378 1.18007 1.70555 0
M  V30 2113 C 193.803 -0.258257 1.86319 0
M  V30 2114 O 193.161 -1.1869 1.37049 0
M  V30 2115 C 193.209 1.87948 3.07746 0
M  V30 2116 O 192.313 1.18427 3.9503 0
M  V30 2117 H 191.654 0.409867 0.522403 0
M  V30 2118 H 194.184 1.69379 1.1477 0
M  V30 2119 H 194.194 1.95701 3.58001 0
M  V30 2120 H 192.869 2.92573 2.95591 0
M  V30 2121 H 191.446 1.18811 3.53466 0
M  V30 2122 N 193.631 -1.12557 1.10312 0
M  V30 2123 C 194.541 -2.21841 0.763142 0
M  V30 2124 C 195.557 -1.72354 -0.238801 0
M  V30 2125 O 196.733 -2.01249 -0.0778746 0
M  V30 2126 C 193.798 -3.46131 0.198632 0
M  V30 2127 C 192.859 -4.10464 1.25769 0
M  V30 2128 C 192.092 -5.28821 0.72002 0
M  V30 2129 O 192.315 -5.6859 -0.453993 0
M  V30 2130 O 191.249 -5.83437 1.47935 0
M  V30 2131 H 195.075 -2.53312 1.67532 0
M  V30 2132 H 192.66 -1.20867 0.878157 0
M  V30 2133 H 194.542 -4.2125 -0.112401 0
M  V30 2134 H 193.217 -3.16338 -0.686419 0
M  V30 2135 H 192.124 -3.3713 1.62156 0
M  V30 2136 H 193.457 -4.44408 2.11571 0
M  V30 2137 N 195.109 -0.891671 -1.2995 0
M  V30 2138 C 196.057 -0.353066 -2.29905 0
M  V30 2139 C 197.051 0.543509 -1.60444 0
M  V30 2140 O 198.257 0.4272 -1.74857 0
M  V30 2141 H 194.632 -0.095531 -0.745907 0
M  V30 2142 H 196.603 -1.20961 -2.72784 0
M  V30 2143 C 195.352 0.411475 -3.45257 0
M  V30 2144 H 194.675 -0.269182 -3.98893 0
M  V30 2145 H 196.115 0.753328 -4.17254 0
M  V30 2146 C 194.574 1.6111 -2.9588 0
M  V30 2147 O 195.104 2.71045 -2.96475 0
M  V30 2148 N 193.31 1.45054 -2.51809 0
M  V30 2149 H 192.857 0.556175 -2.51524 0
M  V30 2150 H 192.815 2.25453 -2.1913 0
M  V30 2151 N 196.587 1.43421 -0.653314 0
M  V30 2152 C 197.864 1.95361 -0.0966581 0
M  V30 2153 C 198.244 1.59461 1.38331 0
M  V30 2154 O 197.592 0.879777 2.10884 0
M  V30 2155 C 197.802 3.47311 -0.342988 0
M  V30 2156 C 199.15 4.23875 -0.24798 0
M  V30 2157 O 200.174 3.55133 -0.275553 0
M  V30 2158 O 199.033 5.4623 -0.171771 0
M  V30 2159 H 196.127 0.826945 0.00956291 0
M  V30 2160 H 198.673 1.5336 -0.726558 0
M  V30 2161 H 197.445 3.66569 -1.36906 0
M  V30 2162 H 197.068 3.9631 0.319975 0
M  V30 2163 N 198.065 0.39524 1.52563 0
M  V30 2164 C 199.311 -0.185318 2.01952 0
M  V30 2165 C 199.644 -1.45964 1.28095 0
M  V30 2166 O 198.919 -1.90689 0.38315 0
M  V30 2167 C 199.202 -0.447193 3.57312 0
M  V30 2168 C 199.055 0.842828 4.41833 0
M  V30 2169 C 200.374 -1.23529 4.22408 0
M  V30 2170 H 197.493 -0.0658788 0.73405 0
M  V30 2171 H 200.135 0.525975 1.82575 0
M  V30 2172 H 198.285 -1.05312 3.73954 0
M  V30 2173 H 199.957 1.4795 4.36931 0
M  V30 2174 H 198.2 1.45686 4.08605 0
M  V30 2175 H 198.871 0.614165 5.48573 0
M  V30 2176 H 201.347 -0.722445 4.0978 0
M  V30 2177 H 200.223 -1.38727 5.3108 0
M  V30 2178 H 200.484 -2.25213 3.80436 0
M  V30 2179 N 199.544 -1.57102 0.125237 0
M  V30 2180 C 200.793 -1.94582 -0.531095 0
M  V30 2181 C 201.106 -1.01126 -1.6743 0
M  V30 2182 O 202.312 -1.28097 -2.39381 0
M  V30 2183 C 200.768 -3.45839 -0.996164 0
M  V30 2184 C 200.376 -4.47842 0.118926 0
M  V30 2185 C 202.12 -3.92227 -1.62352 0
M  V30 2186 C 200.027 -5.90284 -0.363192 0
M  V30 2187 H 198.957 -0.726391 -0.20217 0
M  V30 2188 H 201.608 -1.82339 0.206092 0
M  V30 2189 H 199.99 -3.53338 -1.78796 0
M  V30 2190 H 201.164 -4.52018 0.895358 0
M  V30 2191 H 199.479 -4.11243 0.653324 0
M  V30 2192 H 202.076 -4.96069 -1.99548 0
M  V30 2193 H 202.419 -3.32552 -2.50429 0
M  V30 2194 H 202.952 -3.87554 -0.897019 0
M  V30 2195 H 199.691 -6.53728 0.481679 0
M  V30 2196 H 199.211 -5.89515 -1.10597 0
M  V30 2197 H 200.89 -6.41752 -0.822377 0
M  V30 2198 N 201.022 0.148545 -1.56898 0
M  V30 2199 C 202.438 0.501131 -1.51528 0
M  V30 2200 C 202.638 1.83458 -0.833399 0
M  V30 2201 O 201.694 2.49259 -0.40328 0
M  V30 2202 C 203.007 0.512864 -2.96294 0
M  V30 2203 C 204.555 0.598487 -3.07225 0
M  V30 2204 C 205.03 0.640897 -4.53494 0
M  V30 2205 N 206.521 0.703163 -4.57832 0
M  V30 2206 C 207.256 0.756935 -5.68382 0
M  V30 2207 N 206.752 0.770147 -6.88506 0
M  V30 2208 N 208.545 0.797698 -5.56411 0
M  V30 2209 H 200.696 -0.725532 -1.99624 0
M  V30 2210 H 202.959 -0.264358 -0.910395 0
M  V30 2211 H 202.665 -0.398691 -3.49433 0
M  V30 2212 H 202.539 1.35133 -3.52163 0
M  V30 2213 H 204.926 1.50046 -2.54106 0
M  V30 2214 H 205.007 -0.267093 -2.54402 0
M  V30 2215 H 204.651 -0.256915 -5.0725 0
M  V30 2216 H 204.581 1.52295 -5.04097 0
M  V30 2217 H 207.072 0.700314 -3.71354 0
M  V30 2218 H 207.385 0.812983 -7.68512 0
M  V30 2219 H 205.73 0.738049 -6.9107 0
M  V30 2220 H 208.921 0.784535 -4.61479 0
M  V30 2221 H 209.094 0.83614 -6.42583 0
M  V30 2222 N 202.5 1.5196 0.417844 0
M  V30 2223 C 203.43 1.77634 1.51554 0
M  V30 2224 C 204.411 0.626918 1.58126 0
M  V30 2225 O 205.596 0.871632 1.7354 0
M  V30 2226 C 202.726 1.91911 2.8946 0
M  V30 2227 C 201.68 3.07463 2.97743 0
M  V30 2228 C 201.006 3.06951 4.37819 0
M  V30 2229 C 202.306 4.47082 2.70027 0
M  V30 2230 H 204 2.6955 1.3032 0
M  V30 2231 H 201.546 1.29706 0.625492 0
M  V30 2232 H 203.499 2.08455 3.6623 0
M  V30 2233 H 202.223 0.966598 3.11969 0
M  V30 2234 H 200.882 2.90656 2.23416 0
M  V30 2235 H 200.53 2.09438 4.57323 0
M  V30 2236 H 200.23 3.84556 4.44286 0
M  V30 2237 H 201.754 3.25613 5.16535 0
M  V30 2238 H 203.168 4.6414 3.36522 0
M  V30 2239 H 201.565 5.2654 2.87881 0
M  V30 2240 H 202.635 4.55777 1.65514 0
M  V30 2241 N 203.978 -0.674533 1.42435 0
M  V30 2242 C 205.227 -1.43034 1.42212 0
M  V30 2243 C 205.54 -1.95555 0.0420788 0
M  V30 2244 O 206.746 -2.71374 -0.0827558 0
M  V30 2245 C 205.202 -2.58748 2.50155 0
M  V30 2246 C 204.81 -2.12925 3.94166 0
M  V30 2247 C 206.554 -3.36257 2.59098 0
M  V30 2248 C 204.461 -3.25723 4.93618 0
M  V30 2249 H 203.391 -0.537345 0.528939 0
M  V30 2250 H 206.042 -0.73024 1.68344 0
M  V30 2251 H 204.424 -3.31128 2.17188 0
M  V30 2252 H 205.598 -1.47697 4.36488 0
M  V30 2253 H 203.913 -1.48354 3.89076 0
M  V30 2254 H 206.51 -4.20264 3.30578 0
M  V30 2255 H 206.853 -3.82866 1.63461 0
M  V30 2256 H 207.386 -2.70947 2.9126 0
M  V30 2257 H 204.125 -2.84105 5.90732 0
M  V30 2258 H 203.645 -3.89732 4.55926 0
M  V30 2259 H 205.324 -3.91186 5.15347 0
M  V30 2260 N 205.456 -1.28612 -0.910864 0
M  V30 2261 C 206.403 -1.12786 -2.01365 0
M  V30 2262 C 207.373 -0.024201 -1.66082 0
M  V30 2263 O 208.558 -0.189667 -1.89855 0
M  V30 2264 C 205.698 -0.798743 -3.35729 0
M  V30 2265 C 204.811 -1.98173 -3.83864 0
M  V30 2266 C 203.946 -1.59298 -5.06752 0
M  V30 2267 C 202.985 -2.74245 -5.47226 0
M  V30 2268 N 202.122 -2.35842 -6.61304 0
M  V30 2269 H 206.962 -2.07142 -2.14234 0
M  V30 2270 H 204.499 -1.03093 -1.0493 0
M  V30 2271 H 206.457 -0.588662 -4.13026 0
M  V30 2272 H 205.087 0.10789 -3.2262 0
M  V30 2273 H 204.139 -2.30386 -3.02699 0
M  V30 2274 H 205.451 -2.84343 -4.09818 0
M  V30 2275 H 204.605 -1.34513 -5.916 0
M  V30 2276 H 203.344 -0.702618 -4.82612 0
M  V30 2277 H 202.349 -2.99725 -4.60918 0
M  V30 2278 H 203.574 -3.63928 -5.73353 0
M  V30 2279 H 201.52 -1.49279 -6.38789 0
M  V30 2280 H 201.437 -3.15546 -6.86998 0
M  V30 2281 H 202.705 -2.14348 -7.4945 0
M  V30 2282 N 206.934 1.1197 -1.10907 0
M  V30 2283 C 207.866 2.17592 -0.720175 0
M  V30 2284 C 208.879 1.60938 0.245495 0
M  V30 2285 O 210.068 1.78476 0.0292245 0
M  V30 2286 C 207.168 3.38873 -0.0427917 0
M  V30 2287 C 206.341 4.25006 -1.03388 0
M  V30 2288 C 205.4 5.24774 -0.387075 0
M  V30 2289 O 204.426 5.59631 -1.03934 0
M  V30 2290 N 205.628 5.74208 0.852407 0
M  V30 2291 H 208.393 2.51567 -1.62893 0
M  V30 2292 H 205.954 1.27439 -0.998543 0
M  V30 2293 H 207.946 4.02703 0.401501 0
M  V30 2294 H 206.516 3.03007 0.768456 0
M  V30 2295 H 205.736 3.57716 -1.65629 0
M  V30 2296 H 207.024 4.79397 -1.70458 0
M  V30 2297 H 206.422 5.48062 1.40161 0
M  V30 2298 H 204.979 6.39901 1.23977 0
M  V30 2299 N 208.412 0.89855 1.29475 0
M  V30 2300 C 209.661 0.519863 1.94885 0
M  V30 2301 C 209.974 -0.9383 1.71625 0
M  V30 2302 O 211.18 -1.42445 2.31131 0
M  V30 2303 C 209.636 0.878836 3.49005 0
M  V30 2304 C 209.244 2.35569 3.81066 0
M  V30 2305 C 210.988 0.570004 4.20656 0
M  V30 2306 C 208.895 2.65558 5.28425 0
M  V30 2307 H 207.825 0.190692 0.729488 0
M  V30 2308 H 210.476 1.09539 1.47219 0
M  V30 2309 H 208.858 0.232253 3.95318 0
M  V30 2310 H 210.032 3.04773 3.45616 0
M  V30 2311 H 208.347 2.63343 3.22552 0
M  V30 2312 H 210.944 0.770925 5.29113 0
M  V30 2313 H 211.287 -0.491404 4.1339 0
M  V30 2314 H 211.82 1.17438 3.8007 0
M  V30 2315 H 208.559 3.70493 5.40754 0
M  V30 2316 H 208.079 2.00977 5.65127 0
M  V30 2317 H 209.758 2.51765 5.96006 0
M  V30 2318 N 209.89 -1.43072 0.660911 0
M  V30 2319 C 210.82 -2.33497 -0.0122829 0
M  V30 2320 C 211.801 -1.49903 -0.803925 0
M  V30 2321 O 212.986 -1.78546 -0.763864 0
M  V30 2322 C 210.116 -3.33363 -0.973994 0
M  V30 2323 C 209.07 -4.27003 -0.291928 0
M  V30 2324 C 208.396 -5.16967 -1.36562 0
M  V30 2325 C 209.696 -5.15816 0.820462 0
M  V30 2326 H 211.39 -2.90038 0.742873 0
M  V30 2327 H 208.936 -1.39461 0.358688 0
M  V30 2328 H 210.889 -3.95524 -1.45392 0
M  V30 2329 H 209.613 -2.75095 -1.7604 0
M  V30 2330 H 208.272 -3.66217 0.167623 0
M  V30 2331 H 207.92 -4.55034 -2.14366 0
M  V30 2332 H 207.62 -5.80441 -0.914454 0
M  V30 2333 H 209.144 -5.82003 -1.84675 0
M  V30 2334 H 210.558 -5.71742 0.422366 0
M  V30 2335 H 208.955 -5.8805 1.19656 0
M  V30 2336 H 210.025 -4.55045 1.67518 0
M  V30 2337 N 211.368 -0.403325 -1.52352 0
M  V30 2338 C 212.278 0.432009 -2.30588 0
M  V30 2339 C 213.294 1.05884 -1.38075 0
M  V30 2340 O 214.47 1.06161 -1.71148 0
M  V30 2341 C 211.535 1.53669 -3.10784 0
M  V30 2342 C 210.596 0.933525 -4.19027 0
M  V30 2343 C 209.829 1.98557 -4.9539 0
M  V30 2344 O 210.052 3.20283 -4.71991 0
M  V30 2345 O 208.986 1.59504 -5.80381 0
M  V30 2346 H 212.812 -0.205739 -3.03002 0
M  V30 2347 H 210.397 -0.166675 -1.48467 0
M  V30 2348 H 212.279 2.17814 -3.60742 0
M  V30 2349 H 210.954 2.15915 -2.41169 0
M  V30 2350 H 209.861 0.254954 -3.7323 0
M  V30 2351 H 211.194 0.35508 -4.90918 0
M  V30 2352 N 212.846 1.57033 -0.133567 0
M  V30 2353 C 214.094 1.953 0.519848 0
M  V30 2354 C 214.415 1.01866 1.66278 0
M  V30 2355 O 213.685 0.0776513 1.95746 0
M  V30 2356 H 212.265 0.721091 0.195032 0
M  V30 2357 H 214.927 1.93809 -0.205921 0
M  V30 2358 H 214.023 2.98695 0.904854 0
M  V30 2359 N 214.325 -0.140222 1.56975 0
M  V30 2360 C 215.571 -0.852949 1.83991 0
M  V30 2361 C 215.904 -1.80512 0.716187 0
M  V30 2362 O 215.179 -1.92479 -0.279681 0
M  V30 2363 C 215.462 -1.6215 3.21527 0
M  V30 2364 C 215.315 -0.690363 4.4447 0
M  V30 2365 C 216.634 -2.58247 3.56366 0
M  V30 2366 H 213.753 -0.308634 0.669264 0
M  V30 2367 H 216.395 -0.117898 1.89634 0
M  V30 2368 H 214.545 -2.24812 3.16847 0
M  V30 2369 H 216.217 -0.0742264 4.6124 0
M  V30 2370 H 214.46 -0.000396433 4.338 0
M  V30 2371 H 215.131 -1.2643 5.37326 0
M  V30 2372 H 217.607 -2.05701 3.61699 0
M  V30 2373 H 216.483 -3.09067 4.53617 0
M  V30 2374 H 216.744 -3.39923 2.82674 0
M  V30 2375 N 215.803 -1.52179 -0.40978 0
M  V30 2376 C 217.033 -1.69807 -1.17682 0
M  V30 2377 C 217.441 -0.406908 -1.84773 0
M  V30 2378 O 216.784 0.626863 -1.72673 0
M  V30 2379 C 216.846 -2.77712 -2.2829 0
M  V30 2380 C 216.51 -4.19481 -1.81341 0
M  V30 2381 C 217.507 -5.03345 -1.30154 0
M  V30 2382 C 215.192 -4.65713 -1.88194 0
M  V30 2383 C 217.186 -6.31511 -0.864416 0
M  V30 2384 C 214.873 -5.93869 -1.44093 0
M  V30 2385 C 215.871 -6.76597 -0.933023 0
M  V30 2386 O 215.559 -8.02354 -0.49838 0
M  V30 2387 H 215.291 -0.572372 -0.359675 0
M  V30 2388 H 217.845 -1.99511 -0.488311 0
M  V30 2389 H 216.075 -2.43383 -3.00502 0
M  V30 2390 H 217.764 -2.83946 -2.90051 0
M  V30 2391 H 218.53 -4.68819 -1.24232 0
M  V30 2392 H 214.409 -4.01424 -2.26671 0
M  V30 2393 H 217.953 -6.96033 -0.467286 0
M  V30 2394 H 213.85 -6.27903 -1.49694 0
M  V30 2395 H 214.618 -8.16135 -0.621747 0
M  V30 2396 N 217.281 0.66697 -1.42791 0
M  V30 2397 C 218.511 1.45294 -1.46878 0
M  V30 2398 C 218.919 1.89027 -0.0809861 0
M  V30 2399 O 218.262 1.59219 0.916246 0
M  V30 2400 C 218.324 2.72908 -2.34012 0
M  V30 2401 C 217.988 2.51203 -3.81767 0
M  V30 2402 C 218.985 2.15302 -4.73224 0
M  V30 2403 C 216.67 2.65954 -4.26115 0
M  V30 2404 C 218.664 1.94431 -6.07022 0
M  V30 2405 C 216.351 2.44699 -5.59969 0
M  V30 2406 C 217.349 2.08992 -6.5024 0
M  V30 2407 O 217.037 1.87948 -7.81621 0
M  V30 2408 H 216.769 0.453306 -0.501487 0
M  V30 2409 H 219.323 0.826232 -1.88049 0
M  V30 2410 H 217.553 3.38089 -1.87703 0
M  V30 2411 H 219.242 3.34816 -2.29462 0
M  V30 2412 H 220.008 2.03495 -4.40244 0
M  V30 2413 H 215.887 2.92724 -3.56137 0
M  V30 2414 H 219.431 1.66484 -6.77443 0
M  V30 2415 H 215.328 2.56105 -5.9252 0
M  V30 2416 H 216.096 2.02483 -7.93059 0
M  V30 2417 N 218.759 1.29093 0.90403 0
M  V30 2418 C 219.689 1.16401 2.02418 0
M  V30 2419 C 220.67 0.0593085 1.69997 0
M  V30 2420 O 221.855 0.238021 1.92736 0
M  V30 2421 C 218.985 0.835233 3.37107 0
M  V30 2422 C 217.939 1.89578 3.83724 0
M  V30 2423 C 217.265 1.42041 5.15489 0
M  V30 2424 C 218.565 3.30394 4.04521 0
M  V30 2425 H 220.259 2.10109 2.13295 0
M  V30 2426 H 217.805 1.01157 1.02486 0
M  V30 2427 H 219.758 0.733169 4.14973 0
M  V30 2428 H 218.482 -0.137543 3.2631 0
M  V30 2429 H 217.141 1.98715 3.08071 0
M  V30 2430 H 216.789 0.436426 5.01103 0
M  V30 2431 H 216.489 2.12964 5.4765 0
M  V30 2432 H 218.013 1.33176 5.959 0
M  V30 2433 H 219.427 3.24123 4.72882 0
M  V30 2434 H 217.824 3.99237 4.48029 0
M  V30 2435 H 218.894 3.73692 3.09002 0
M  V30 2436 N 220.237 -1.11381 1.11499 0
M  V30 2437 C 221.187 -2.15555 0.74298 0
M  V30 2438 C 222.171 -1.58894 -0.253276 0
M  V30 2439 O 223.363 -1.76897 -0.0602918 0
M  V30 2440 C 220.492 -3.42782 0.188481 0
M  V30 2441 C 219.578 -4.064 1.21244 0
M  V30 2442 N 219.969 -4.44864 2.40685 0
M  V30 2443 C 218.267 -4.3333 1.05552 0
M  V30 2444 C 218.968 -4.94715 3.05994 0
M  V30 2445 N 217.944 -4.90909 2.33472 0
M  V30 2446 H 221.746 -2.43074 1.65203 0
M  V30 2447 H 219.26 -1.28401 0.994329 0
M  V30 2448 H 221.257 -4.16789 -0.0961693 0
M  V30 2449 H 219.917 -3.16727 -0.715149 0
M  V30 2450 H 220.928 -4.36876 2.78136 0
M  V30 2451 H 217.605 -4.1698 0.208372 0
M  V30 2452 H 218.995 -5.34103 4.07656 0
M  V30 2453 N 221.715 -0.905404 -1.28997 0
M  V30 2454 C 222.647 -0.344748 -2.26592 0
M  V30 2455 C 223.66 0.512135 -1.54535 0
M  V30 2456 O 224.849 0.328368 -1.75454 0
M  V30 2457 C 221.949 0.526587 -3.34784 0
M  V30 2458 C 221.122 -0.305871 -4.36329 0
M  V30 2459 C 220.181 0.499209 -5.23827 0
M  V30 2460 O 219.207 -0.0853004 -5.69136 0
M  V30 2461 N 220.409 1.80408 -5.51755 0
M  V30 2462 H 223.174 -1.18359 -2.75338 0
M  V30 2463 H 220.735 -0.770481 -1.42391 0
M  V30 2464 H 222.727 1.07171 -3.90252 0
M  V30 2465 H 221.297 1.26613 -2.85811 0
M  V30 2466 H 220.517 -1.0324 -3.80441 0
M  V30 2467 H 221.805 -0.875773 -5.01206 0
M  V30 2468 H 221.203 2.3016 -5.16762 0
M  V30 2469 H 219.76 2.29621 -6.10014 0
M  V30 2470 N 223.193 1.4272 -0.668489 0
M  V30 2471 C 224.141 2.32586 0.0254857 0
M  V30 2472 C 225.135 1.49471 0.797176 0
M  V30 2473 O 226.341 1.65583 0.705853 0
M  V30 2474 H 222.716 0.751514 0.0270339 0
M  V30 2475 H 224.687 2.88823 -0.749936 0
M  V30 2476 C 223.436 3.3397 0.967427 0
M  V30 2477 H 222.759 3.97961 0.383048 0
M  V30 2478 H 224.199 3.9945 1.42181 0
M  V30 2479 C 222.658 2.65744 2.0708 0
M  V30 2480 O 223.188 2.48454 3.15648 0
M  V30 2481 N 221.394 2.2487 1.8407 0
M  V30 2482 H 220.941 2.39132 0.95778 0
M  V30 2483 H 220.899 1.79552 2.58086 0
M  V30 2484 N 224.671 0.411399 1.52136 0
M  V30 2485 C 225.619 -0.427633 2.28635 0
M  V30 2486 C 226.613 -1.04383 1.33419 0
M  V30 2487 O 227.819 -0.981772 1.50868 0
M  V30 2488 H 224.194 -0.156689 0.735495 0
M  V30 2489 H 226.165 0.238761 2.97443 0
M  V30 2490 C 224.914 -1.53082 3.12188 0
M  V30 2491 H 224.237 -1.06601 3.85326 0
M  V30 2492 H 225.677 -2.09167 3.68816 0
M  V30 2493 C 224.136 -2.49946 2.25895 0
M  V30 2494 O 224.666 -3.53884 1.90076 0
M  V30 2495 N 222.872 -2.2021 1.8962 0
M  V30 2496 H 222.419 -1.35719 2.18948 0
M  V30 2497 H 222.377 -2.85266 1.32176 0
M  V30 2498 N 226.149 -1.5696 0.141893 0
M  V30 2499 C 227.398 -1.95135 -0.510427 0
M  V30 2500 C 227.711 -1.02896 -1.66348 0
M  V30 2501 O 228.917 -1.30629 -2.38009 0
M  V30 2502 C 227.373 -3.46876 -0.959427 0
M  V30 2503 C 226.981 -4.47691 0.166419 0
M  V30 2504 C 228.725 -3.93927 -1.58183 0
M  V30 2505 C 226.632 -5.90636 -0.300565 0
M  V30 2506 H 225.562 -0.728494 -0.194454 0
M  V30 2507 H 228.213 -1.8211 0.22542 0
M  V30 2508 H 226.595 -3.55215 -1.75038 0
M  V30 2509 H 227.769 -4.51043 0.94325 0
M  V30 2510 H 226.084 -4.10527 0.696905 0
M  V30 2511 H 228.681 -4.98158 -1.94275 0
M  V30 2512 H 229.024 -3.3519 -2.46888 0
M  V30 2513 H 229.557 -3.88484 -0.855863 0
M  V30 2514 H 226.296 -6.5318 0.550989 0
M  V30 2515 H 225.816 -5.90655 -1.04338 0
M  V30 2516 H 227.495 -6.42588 -0.754265 0
M  V30 2517 N 227.627 0.131896 -1.57047 0
M  V30 2518 C 228.873 0.843179 -1.84441 0
M  V30 2519 C 229.206 1.80129 -0.725749 0
M  V30 2520 O 228.481 1.92624 0.269469 0
M  V30 2521 C 228.764 1.60442 -3.22382 0
M  V30 2522 C 228.617 0.666782 -4.4483 0
M  V30 2523 C 229.936 2.56354 -3.5773 0
M  V30 2524 H 227.055 0.305081 -0.670891 0
M  V30 2525 H 229.697 0.107839 -1.89694 0
M  V30 2526 H 227.847 2.23128 -3.18035 0
M  V30 2527 H 229.519 0.0497646 -4.61273 0
M  V30 2528 H 227.762 -0.022609 -4.33794 0
M  V30 2529 H 228.433 1.23579 -5.37989 0
M  V30 2530 H 230.909 2.0378 -3.62785 0
M  V30 2531 H 229.785 3.06657 -4.5525 0
M  V30 2532 H 230.046 3.38419 -2.84473 0
M  V30 2533 N 229.106 1.52395 0.401703 0
M  V30 2534 C 230.056 1.72649 1.48917 0
M  V30 2535 C 231.04 0.580436 1.50066 0
M  V30 2536 O 232.232 0.83779 1.55917 0
M  V30 2537 C 229.361 1.88729 2.86769 0
M  V30 2538 C 228.447 3.09228 2.90239 0
M  V30 2539 N 228.838 4.31805 2.63396 0
M  V30 2540 C 227.136 3.09214 3.21408 0
M  V30 2541 C 227.837 5.13326 2.73625 0
M  V30 2542 N 226.813 4.48735 3.06819 0
M  V30 2543 H 230.615 2.65058 1.26971 0
M  V30 2544 H 228.129 1.50528 0.609504 0
M  V30 2545 H 230.126 2.01358 3.65049 0
M  V30 2546 H 228.786 0.975252 3.09708 0
M  V30 2547 H 229.797 4.60154 2.37653 0
M  V30 2548 H 226.474 2.27774 3.49893 0
M  V30 2549 H 227.864 6.21003 2.56524 0
M  V30 2550 N 230.584 -0.659388 1.43143 0
M  V30 2551 C 231.514 -1.78422 1.50625 0
M  V30 2552 C 232.495 -1.66216 0.361443 0
M  V30 2553 O 233.68 -1.85404 0.577834 0
M  V30 2554 C 230.81 -3.16815 1.42287 0
M  V30 2555 C 229.764 -3.43777 2.54954 0
M  V30 2556 C 229.09 -4.81905 2.31671 0
M  V30 2557 C 230.39 -3.39134 3.97222 0
M  V30 2558 H 232.084 -1.72417 2.44771 0
M  V30 2559 H 229.63 -0.828084 1.17808 0
M  V30 2560 H 231.583 -3.95253 1.46127 0
M  V30 2561 H 230.307 -3.23534 0.446435 0
M  V30 2562 H 228.966 -2.67707 2.50457 0
M  V30 2563 H 228.614 -4.85294 1.32284 0
M  V30 2564 H 228.314 -5.00906 3.07192 0
M  V30 2565 H 229.838 -5.62609 2.37284 0
M  V30 2566 H 231.252 -4.07518 4.03239 0
M  V30 2567 H 229.649 -3.69671 4.72719 0
M  V30 2568 H 230.719 -2.37426 4.22797 0
M  V30 2569 N 232.062 -1.29571 -0.897171 0
M  V30 2570 C 233.339 -1.08365 -1.62839 0
M  V30 2571 C 233.719 0.371331 -2.07808 0
M  V30 2572 O 233.067 1.3606 -1.83576 0
M  V30 2573 C 233.277 -2.0735 -2.80726 0
M  V30 2574 C 234.625 -2.38406 -3.51351 0
M  V30 2575 O 235.649 -2.05564 -2.90898 0
M  V30 2576 O 234.508 -2.9453 -4.60341 0
M  V30 2577 H 231.602 -0.415345 -0.715134 0
M  V30 2578 H 234.148 -1.40952 -0.945018 0
M  V30 2579 H 232.92 -3.05339 -2.44711 0
M  V30 2580 H 232.543 -1.75507 -3.56767 0
M  V30 2581 N 233.54 1.10788 -1.12088 0
M  V30 2582 C 234.47 2.19083 -0.807755 0
M  V30 2583 C 235.451 1.6858 0.226859 0
M  V30 2584 O 236.636 1.93997 0.0888475 0
M  V30 2585 C 233.766 3.46344 -0.257576 0
M  V30 2586 C 232.72 4.101 -1.22483 0
M  V30 2587 C 232.046 5.32016 -0.535052 0
M  V30 2588 C 233.346 4.54236 -2.57811 0
M  V30 2589 H 235.04 2.45534 -1.71328 0
M  V30 2590 H 232.586 1.1801 -0.825205 0
M  V30 2591 H 234.539 4.21392 -0.0262679 0
M  V30 2592 H 233.263 3.19373 0.683278 0
M  V30 2593 H 231.922 3.37054 -1.44189 0
M  V30 2594 H 231.57 5.01319 0.410827 0
M  V30 2595 H 231.27 5.75625 -1.18024 0
M  V30 2596 H 232.794 6.09799 -0.312695 0
M  V30 2597 H 234.208 5.20575 -2.40155 0
M  V30 2598 H 232.605 5.08682 -3.18375 0
M  V30 2599 H 233.675 3.6734 -3.16528 0
M  V30 2600 N 235.018 0.912232 1.28515 0
M  V30 2601 C 235.965 0.397954 2.27343 0
M  V30 2602 C 236.935 -0.526766 1.57526 0
M  V30 2603 O 238.12 -0.449292 1.85435 0
M  V30 2604 C 235.26 -0.357263 3.43246 0
M  V30 2605 C 234.373 0.599788 4.27816 0
M  V30 2606 C 233.508 -0.173725 5.30916 0
M  V30 2607 C 232.547 0.777039 6.07148 0
M  V30 2608 N 231.684 0.0371398 7.0209 0
M  V30 2609 H 236.524 1.24577 2.70711 0
M  V30 2610 H 234.061 0.625612 1.33133 0
M  V30 2611 H 236.019 -0.8113 4.09236 0
M  V30 2612 H 234.649 -1.16943 3.00872 0
M  V30 2613 H 233.701 1.17235 3.61884 0
M  V30 2614 H 235.013 1.32704 4.80823 0
M  V30 2615 H 234.167 -0.688394 6.02782 0
M  V30 2616 H 232.906 -0.934041 4.78672 0
M  V30 2617 H 231.911 1.3031 5.34134 0
M  V30 2618 H 233.136 1.53689 6.61481 0
M  V30 2619 H 231.082 -0.705213 6.52198 0
M  V30 2620 H 230.999 0.704249 7.52713 0
M  V30 2621 H 232.267 -0.457383 7.78157 0
M  V30 2622 N 236.496 -1.42363 0.676048 0
M  V30 2623 C 237.907 -1.84649 0.275948 0
M  V30 2624 C 238.258 -1.56588 -1.18214 0
M  V30 2625 O 237.383 -1.02634 -1.90513 0
M  V30 2626 C 237.978 -3.35178 0.494053 0
M  V30 2627 C 236.537 -3.76109 0.148061 0
M  V30 2628 C 235.684 -2.65931 0.785891 0
M  V30 2629 H 238.635 -1.32192 0.878121 0
M  V30 2630 H 238.656 -3.79655 -0.25343 0
M  V30 2631 H 238.168 -3.55571 1.55535 0
M  V30 2632 H 236.269 -3.61323 -0.909742 0
M  V30 2633 H 236.382 -4.7546 0.589454 0
M  V30 2634 H 234.746 -2.53773 0.217113 0
M  V30 2635 H 235.529 -2.89146 1.85067 0
M  V30 2636 N 237.974 -0.419461 -1.51915 0
M  V30 2637 C 238.906 0.43646 -2.25006 0
M  V30 2638 C 239.919 1.00149 -1.28351 0
M  V30 2639 O 241.108 0.898674 -1.54227 0
M  V30 2640 C 238.208 1.6206 -2.9764 0
M  V30 2641 C 237.381 1.17763 -4.21249 0
M  V30 2642 C 236.44 2.22985 -4.76617 0
M  V30 2643 O 235.466 1.83151 -5.38929 0
M  V30 2644 N 236.668 3.55271 -4.59089 0
M  V30 2645 H 239.433 -0.18989 -2.99098 0
M  V30 2646 H 236.994 -0.247386 -1.59999 0
M  V30 2647 H 238.986 2.32038 -3.31573 0
M  V30 2648 H 237.556 2.15266 -2.2667 0
M  V30 2649 H 236.776 0.305582 -3.93014 0
M  V30 2650 H 238.064 0.858781 -5.015 0
M  V30 2651 H 237.462 3.90377 -4.09417 0
M  V30 2652 H 236.019 4.21195 -4.97432 0
M  V30 2653 N 239.452 1.56882 -0.150215 0
M  V30 2654 C 240.4 2.18214 0.805313 0
M  V30 2655 C 241.394 1.14006 1.25296 0
M  V30 2656 O 242.6 1.3225 1.22107 0
M  V30 2657 H 238.975 0.698762 0.277913 0
M  V30 2658 H 240.946 2.97231 0.263862 0
M  V30 2659 C 239.695 2.82065 2.03309 0
M  V30 2660 H 239.018 3.61968 1.69763 0
M  V30 2661 H 240.458 3.28477 2.68103 0
M  V30 2662 C 238.917 1.80739 2.84315 0
M  V30 2663 O 239.447 1.27983 3.80767 0
M  V30 2664 N 237.653 1.4997 2.48913 0
M  V30 2665 H 237.2 1.93062 1.70542 0
M  V30 2666 H 237.158 0.824217 3.03404 0
M  V30 2667 N 240.93 -0.123565 1.57115 0
M  V30 2668 C 242.179 -0.830704 1.83799 0
M  V30 2669 C 242.492 -1.81259 0.735158 0
M  V30 2670 O 243.698 -2.56558 0.888278 0
M  V30 2671 C 242.154 -1.52802 3.25852 0
M  V30 2672 C 241.762 -0.587356 4.44133 0
M  V30 2673 C 243.506 -2.22056 3.61789 0
M  V30 2674 C 241.413 -1.28764 5.77212 0
M  V30 2675 H 240.343 -0.313967 0.685522 0
M  V30 2676 H 242.994 -0.0834359 1.8331 0
M  V30 2677 H 241.376 -2.32175 3.20797 0
M  V30 2678 H 242.55 0.172829 4.60476 0
M  V30 2679 H 240.865 -0.00201892 4.164 0
M  V30 2680 H 243.462 -2.75131 4.58483 0
M  V30 2681 H 243.805 -2.99644 2.88997 0
M  V30 2682 H 244.338 -1.49576 3.68608 0
M  V30 2683 H 241.077 -0.55314 6.53162 0
M  V30 2684 H 240.597 -2.01995 5.64764 0
M  V30 2685 H 242.276 -1.8221 6.20813 0
M  V30 2686 N 242.408 -1.52605 -0.393616 0
M  V30 2687 C 243.338 -1.80022 -1.48709 0
M  V30 2688 C 244.319 -0.651995 -1.57108 0
M  V30 2689 O 245.504 -0.89913 -1.72132 0
M  V30 2690 C 242.634 -1.96492 -2.86371 0
M  V30 2691 C 241.588 -3.12161 -2.92813 0
M  V30 2692 C 240.914 -3.13877 -4.3288 0
M  V30 2693 C 242.214 -4.51322 -2.6288 0
M  V30 2694 H 243.908 -2.71589 -1.26015 0
M  V30 2695 H 241.454 -1.30684 -0.604778 0
M  V30 2696 H 243.407 -2.14255 -3.62867 0
M  V30 2697 H 242.131 -1.01611 -3.10391 0
M  V30 2698 H 240.79 -2.94173 -2.18764 0
M  V30 2699 H 240.438 -2.16687 -4.53933 0
M  V30 2700 H 240.138 -3.91576 -4.38112 0
M  V30 2701 H 241.662 -3.33789 -5.1129 0
M  V30 2702 H 243.076 -4.69435 -3.29096 0
M  V30 2703 H 241.473 -5.31053 -2.79468 0
M  V30 2704 H 242.543 -4.58353 -1.58242 0
M  V30 2705 N 243.887 0.651787 -1.4349 0
M  V30 2706 C 244.817 1.77621 -1.51569 0
M  V30 2707 C 245.798 1.66022 -0.370253 0
M  V30 2708 O 246.983 1.85095 -0.587658 0
M  V30 2709 C 244.113 3.16056 -1.43966 0
M  V30 2710 C 243.067 3.4242 -2.56774 0
M  V30 2711 C 242.393 4.8067 -2.34223 0
M  V30 2712 C 243.693 3.37023 -3.99015 0
M  V30 2713 H 245.387 1.71117 -2.45681 0
M  V30 2714 H 242.933 0.821825 -1.18246 0
M  V30 2715 H 244.886 3.94472 -1.48221 0
M  V30 2716 H 243.61 3.23293 -0.463586 0
M  V30 2717 H 242.269 2.66375 -2.51873 0
M  V30 2718 H 241.917 4.84585 -1.34856 0
M  V30 2719 H 241.617 4.9927 -3.09844 0
M  V30 2720 H 243.141 5.61342 -2.40265 0
M  V30 2721 H 244.555 4.05374 -4.05395 0
M  V30 2722 H 242.952 3.67159 -4.74673 0
M  V30 2723 H 244.022 2.3518 -4.2405 0
M  V30 2724 N 245.365 1.30045 0.890287 0
M  V30 2725 C 246.59 1.21598 1.68014 0
M  V30 2726 C 247.015 -0.218678 1.86825 0
M  V30 2727 O 246.373 -1.15756 1.39536 0
M  V30 2728 C 246.421 1.94434 3.03691 0
M  V30 2729 O 245.525 1.2678 3.92429 0
M  V30 2730 H 244.866 0.420856 0.513592 0
M  V30 2731 H 247.396 1.71775 1.11151 0
M  V30 2732 H 247.406 2.03251 3.5377 0
M  V30 2733 H 246.081 2.98777 2.89318 0
M  V30 2734 H 244.658 1.26282 3.50866 0
M  V30 2735 N 246.843 -1.10192 1.12674 0
M  V30 2736 C 248.068 -1.86523 0.906853 0
M  V30 2737 C 248.493 -1.80221 -0.538711 0
M  V30 2738 O 247.851 -1.17396 -1.38158 0
M  V30 2739 C 247.899 -3.32758 1.3894 0
M  V30 2740 O 247.003 -4.08449 0.5695 0
M  V30 2741 H 246.344 -0.578678 0.325619 0
M  V30 2742 H 248.874 -1.39203 1.49946 0
M  V30 2743 H 248.884 -3.83608 1.38958 0
M  V30 2744 H 247.559 -3.36661 2.44197 0
M  V30 2745 H 246.136 -3.67427 0.636528 0
M  V30 2746 N 248.321 -0.919034 -1.28029 0
M  V30 2747 C 249.57 -0.550802 -1.94034 0
M  V30 2748 C 249.883 0.910877 -1.73096 0
M  V30 2749 O 251.089 1.3875 -2.33368 0
M  V30 2750 C 249.545 -0.934249 -3.47563 0
M  V30 2751 C 249.153 -2.41602 -3.7727 0
M  V30 2752 C 250.897 -0.636854 -4.19696 0
M  V30 2753 C 248.804 -2.73932 -5.24133 0
M  V30 2754 H 247.734 -0.202273 -0.726362 0
M  V30 2755 H 250.385 -1.11867 -1.45458 0
M  V30 2756 H 248.767 -0.295115 -3.94899 0
M  V30 2757 H 249.941 -3.10233 -3.40723 0
M  V30 2758 H 248.256 -2.68441 -3.18321 0
M  V30 2759 H 250.853 -0.855005 -5.2782 0
M  V30 2760 H 251.196 0.425575 -4.14119 0
M  V30 2761 H 251.729 -1.23469 -3.78154 0
M  V30 2762 H 248.468 -3.79049 -5.34792 0
M  V30 2763 H 247.988 -2.09942 -5.61858 0
M  V30 2764 H 249.667 -2.61215 -5.91925 0
M  V30 2765 N 249.799 1.42003 -0.683588 0
M  V30 2766 C 251.029 2.05448 -0.217866 0
M  V30 2767 C 251.437 1.51491 1.13346 0
M  V30 2768 O 250.78 0.653048 1.717 0
M  V30 2769 C 250.842 3.59399 -0.0850118 0
M  V30 2770 C 250.506 4.36093 -1.36645 0
M  V30 2771 C 251.503 4.66169 -2.30179 0
M  V30 2772 C 249.188 4.75578 -1.61649 0
M  V30 2773 C 251.182 5.34676 -3.46988 0
M  V30 2774 C 248.869 5.43824 -2.78745 0
M  V30 2775 C 249.867 5.73299 -3.71238 0
M  V30 2776 O 249.555 6.40142 -4.86285 0
M  V30 2777 H 249.287 0.668344 -0.101454 0
M  V30 2778 H 251.841 1.82974 -0.933248 0
M  V30 2779 H 250.071 3.80566 0.686031 0
M  V30 2780 H 251.76 4.04457 0.341973 0
M  V30 2781 H 252.526 4.36156 -2.12115 0
M  V30 2782 H 248.405 4.52025 -0.905243 0
M  V30 2783 H 251.949 5.57599 -4.19201 0
M  V30 2784 H 247.846 5.73254 -2.96732 0
M  V30 2785 H 248.614 6.58636 -4.85944 0
M  V30 2786 N 251.277 0.427512 1.51691 0
M  V30 2787 C 252.688 -0.0378867 1.86662 0
M  V30 2788 C 253.039 -1.42819 1.34525 0
M  V30 2789 O 252.164 -2.05037 0.692014 0
M  V30 2790 C 252.759 -0.0755266 3.38716 0
M  V30 2791 C 251.318 -0.485309 3.73258 0
M  V30 2792 C 250.465 0.328399 2.75349 0
M  V30 2793 H 253.416 0.64379 1.45055 0
M  V30 2794 H 253.437 -0.887056 3.70016 0
M  V30 2795 H 252.949 0.936487 3.76632 0
M  V30 2796 H 251.05 -1.50329 3.40928 0
M  V30 2797 H 251.163 -0.21693 4.78609 0
M  V30 2798 H 249.527 -0.211905 2.53817 0
M  V30 2799 H 250.31 1.3391 3.16106 0
M  V30 2800 N 252.755 -1.56801 0.158532 0
M  V30 2801 C 253.685 -2.20347 -0.772609 0
M  V30 2802 C 254.666 -1.15518 -1.24859 0
M  V30 2803 O 255.851 -1.43902 -1.30406 0
M  V30 2804 C 252.981 -2.83417 -2.00729 0
M  V30 2805 C 251.935 -3.94174 -1.66765 0
M  V30 2806 C 251.261 -4.44233 -2.97592 0
M  V30 2807 C 252.561 -5.14392 -0.905447 0
M  V30 2808 H 254.255 -2.98413 -0.242959 0
M  V30 2809 H 251.801 -1.43537 -0.115419 0
M  V30 2810 H 253.754 -3.26543 -2.6636 0
M  V30 2811 H 252.478 -2.02701 -2.56086 0
M  V30 2812 H 251.137 -3.51684 -1.03508 0
M  V30 2813 H 250.785 -3.60325 -3.50963 0
M  V30 2814 H 250.485 -5.18945 -2.75626 0
M  V30 2815 H 252.009 -4.90037 -3.64274 0
M  V30 2816 H 253.423 -5.5429 -1.46408 0
M  V30 2817 H 251.82 -5.9494 -0.7853 0
M  V30 2818 H 252.89 -4.84795 0.100668 0
M  V30 2819 N 254.233 0.115231 -1.57178 0
M  V30 2820 C 255.481 0.820727 -1.84685 0
M  V30 2821 C 255.802 1.80237 -0.744279 0
M  V30 2822 O 255.072 1.94529 0.231375 0
M  V30 2823 H 253.652 0.306084 -0.681411 0
M  V30 2824 H 256.314 0.101656 -1.94635 0
M  V30 2825 H 255.41 1.36366 -2.80733 0
M  V30 2826 N 255.711 1.52812 0.385517 0
M  V30 2827 C 256.988 1.5861 1.14465 0
M  V30 2828 C 257.368 0.381402 2.07626 0
M  V30 2829 O 256.716 -0.629999 2.19643 0
M  V30 2830 C 256.926 2.92664 1.90128 0
M  V30 2831 C 258.274 3.46526 2.45367 0
M  V30 2832 O 259.298 2.94562 2.0028 0
M  V30 2833 O 258.157 4.37323 3.27736 0
M  V30 2834 H 255.251 0.639855 0.523941 0
M  V30 2835 H 257.797 1.65149 0.390389 0
M  V30 2836 H 256.569 3.71788 1.22022 0
M  V30 2837 H 256.192 2.89527 2.72507 0
M  V30 2838 N 257.189 -0.644168 1.43834 0
M  V30 2839 C 258.438 -1.39985 1.45214 0
M  V30 2840 C 258.751 -1.95421 0.0835494 0
M  V30 2841 O 259.957 -2.71488 -0.0251748 0
M  V30 2842 C 258.413 -2.53384 2.55587 0
M  V30 2843 C 258.021 -2.04517 3.98594 0
M  V30 2844 C 259.765 -3.30685 2.66172 0
M  V30 2845 C 257.672 -3.1518 5.00416 0
M  V30 2846 H 256.602 -0.526005 0.540218 0
M  V30 2847 H 259.253 -0.694367 1.69855 0
M  V30 2848 H 257.635 -3.26446 2.24163 0
M  V30 2849 H 258.809 -1.38405 4.39523 0
M  V30 2850 H 257.124 -1.40068 3.92135 0
M  V30 2851 H 259.721 -4.13158 3.39418 0
M  V30 2852 H 260.064 -3.79312 1.71546 0
M  V30 2853 H 260.597 -2.64708 2.96942 0
M  V30 2854 H 257.336 -2.71511 5.96625 0
M  V30 2855 H 256.856 -3.79974 4.64091 0
M  V30 2856 H 258.535 -3.80166 5.23529 0
M  V30 2857 N 258.668 -1.30515 -0.883378 0
M  V30 2858 C 259.615 -1.17032 -1.98927 0
M  V30 2859 C 260.585 -0.0594241 -1.65994 0
M  V30 2860 O 261.77 -0.229895 -1.8941 0
M  V30 2861 C 258.91 -0.869777 -3.33959 0
M  V30 2862 C 258.023 -2.06271 -3.79574 0
M  V30 2863 C 257.158 -1.70011 -5.03259 0
M  V30 2864 C 256.197 -2.8579 -5.41286 0
M  V30 2865 N 255.334 -2.49816 -6.56153 0
M  V30 2866 H 260.174 -2.1164 -2.09792 0
M  V30 2867 H 257.711 -1.05296 -1.02719 0
M  V30 2868 H 259.669 -0.676138 -4.11685 0
M  V30 2869 H 258.299 0.0394332 -3.22776 0
M  V30 2870 H 257.351 -2.36755 -2.97744 0
M  V30 2871 H 258.663 -2.92971 -4.03694 0
M  V30 2872 H 257.817 -1.47032 -5.88614 0
M  V30 2873 H 256.556 -0.804829 -4.81013 0
M  V30 2874 H 255.561 -3.09434 -4.54456 0
M  V30 2875 H 256.786 -3.76008 -5.65504 0
M  V30 2876 H 254.732 -1.62795 -6.35479 0
M  V30 2877 H 254.649 -3.30048 -6.8015 0
M  V30 2878 H 255.917 -2.30197 -7.44735 0
M  V30 2879 N 260.146 1.09593 -1.13257 0
M  V30 2880 C 261.395 1.81105 -0.887917 0
M  V30 2881 C 261.708 1.86563 0.587672 0
M  V30 2882 O 262.914 2.54367 0.949204 0
M  V30 2883 C 261.37 3.25338 -1.53895 0
M  V30 2884 C 260.978 3.28151 -3.04994 0
M  V30 2885 C 262.722 4.01617 -1.37492 0
M  V30 2886 C 260.629 4.66897 -3.6299 0
M  V30 2887 H 259.559 0.678661 -0.328534 0
M  V30 2888 H 262.21 1.23183 -1.36008 0
M  V30 2889 H 260.592 3.8331 -0.994446 0
M  V30 2890 H 261.766 2.79953 -3.66009 0
M  V30 2891 H 260.081 2.65361 -3.20893 0
M  V30 2892 H 262.678 5.04119 -1.78235 0
M  V30 2893 H 263.021 4.15072 -0.31957 0
M  V30 2894 H 263.554 3.50082 -1.88912 0
M  V30 2895 H 260.293 4.58643 -4.68323 0
M  V30 2896 H 259.813 5.15426 -3.06752 0
M  V30 2897 H 261.492 5.3587 -3.62563 0
M  V30 2898 N 261.624 0.925811 1.2754 0
M  V30 2899 C 262.87 0.566092 1.94739 0
M  V30 2900 C 263.203 -0.890057 1.72603 0
M  V30 2901 O 262.478 -1.63467 1.05399 0
M  V30 2902 C 262.761 0.89054 3.48915 0
M  V30 2903 C 262.614 2.4003 3.80402 0
M  V30 2904 C 263.933 0.395101 4.38323 0
M  V30 2905 H 261.052 0.20714 0.707292 0
M  V30 2906 H 263.694 1.15725 1.50691 0
M  V30 2907 H 261.844 0.387452 3.86563 0
M  V30 2908 H 263.516 2.97494 3.52555 0
M  V30 2909 H 261.759 2.85028 3.2702 0
M  V30 2910 H 262.43 2.57785 4.8811 0
M  V30 2911 H 264.906 0.826241 4.07814 0
M  V30 2912 H 263.782 0.651086 5.45025 0
M  V30 2913 H 264.043 -0.704798 4.36446 0
M  V30 2914 N 263.102 -1.41638 0.69111 0
M  V30 2915 C 264.379 -1.95036 0.148421 0
M  V30 2916 C 264.759 -1.63072 -1.34055 0
M  V30 2917 O 264.107 -0.93538 -2.08478 0
M  V30 2918 C 264.317 -3.46279 0.434951 0
M  V30 2919 C 265.665 -4.23069 0.360275 0
M  V30 2920 O 266.689 -3.54277 0.369613 0
M  V30 2921 O 265.548 -5.45583 0.316534 0
M  V30 2922 H 262.642 -0.826908 0.0123654 0
M  V30 2923 H 265.188 -1.5138 0.766963 0
M  V30 2924 H 263.96 -3.6281 1.46576 0
M  V30 2925 H 263.583 -3.97019 -0.214787 0
M  V30 2926 N 264.58 -0.43555 -1.51462 0
M  V30 2927 C 265.827 0.131514 -2.02072 0
M  V30 2928 C 266.155 1.42868 -1.31981 0
M  V30 2929 O 265.41 1.91076 -0.422883 0
M  V30 2930 C 265.709 0.39942 -3.55161 0
M  V30 2931 C 265.375 -0.81172 -4.43533 0
M  V30 2932 C 264.037 -1.14387 -4.67407 0
M  V30 2933 C 266.389 -1.61976 -4.95392 0
M  V30 2934 C 263.717 -2.28477 -5.40384 0
M  V30 2935 C 266.069 -2.75164 -5.6962 0
M  V30 2936 C 264.733 -3.08835 -5.91758 0
M  V30 2937 H 264.003 0.0481244 -0.739436 0
M  V30 2938 H 266.65 -0.58238 -1.8243 0
M  V30 2939 H 264.955 1.19519 -3.73125 0
M  V30 2940 H 266.652 0.85157 -3.91854 0
M  V30 2941 H 263.242 -0.542898 -4.25148 0
M  V30 2942 H 267.426 -1.37637 -4.76833 0
M  V30 2943 H 262.682 -2.5488 -5.55739 0
M  V30 2944 H 266.856 -3.38147 -6.08793 0
M  V30 2945 H 264.483 -3.97353 -6.48086 0
M  V30 2946 N 266.058 1.56714 -0.166846 0
M  V30 2947 C 267.306 1.96358 0.478305 0
M  V30 2948 C 267.627 1.0537 1.6408 0
M  V30 2949 O 266.897 0.119154 1.95537 0
M  V30 2950 H 265.477 0.725065 0.179692 0
M  V30 2951 H 268.139 1.93329 -0.246985 0
M  V30 2952 H 267.235 3.00547 0.841292 0
M  V30 2953 N 267.536 -0.106894 1.57237 0
M  V30 2954 C 268.469 -1.16125 1.96444 0
M  V30 2955 C 269.447 -1.3947 0.835871 0
M  V30 2956 O 270.631 -1.53425 1.09513 0
M  V30 2957 C 267.758 -2.51277 2.27107 0
M  V30 2958 C 266.804 -2.44285 3.4961 0
M  V30 2959 S 267.637 -1.87077 5.01759 0
M  V30 2960 C 268.793 -3.23877 5.35588 0
M  V30 2961 H 269.026 -0.826971 2.85567 0
M  V30 2962 H 266.559 -0.314124 1.51171 0
M  V30 2963 H 268.517 -3.29035 2.45451 0
M  V30 2964 H 267.178 -2.81879 1.38576 0
M  V30 2965 H 266.371 -3.4387 3.68469 0
M  V30 2966 H 265.973 -1.74652 3.30715 0
M  V30 2967 H 268.265 -4.20122 5.31511 0
M  V30 2968 H 269.208 -3.09833 6.36717 0
M  V30 2969 H 269.616 -3.22864 4.63054 0
M  V30 2970 N 269.014 -1.53014 -0.377408 0
M  V30 2971 C 270.239 -1.72818 -1.14668 0
M  V30 2972 C 270.664 -0.450725 -1.8262 0
M  V30 2973 O 270.022 0.59439 -1.7128 0
M  V30 2974 C 270.07 -2.88627 -2.16164 0
M  V30 2975 O 269.174 -2.56409 -3.22998 0
M  V30 2976 H 268.515 -0.574301 -0.333278 0
M  V30 2977 H 271.045 -1.99853 -0.438152 0
M  V30 2978 H 271.055 -3.14455 -2.59966 0
M  V30 2979 H 269.73 -3.81294 -1.66095 0
M  V30 2980 H 268.307 -2.4136 -2.84253 0
M  V30 2981 N 270.492 0.636531 -1.44174 0
M  V30 2982 C 271.908 0.954104 -1.27941 0
M  V30 2983 C 272.108 2.0039 -0.211248 0
M  V30 2984 O 271.164 2.49236 0.404695 0
M  V30 2985 C 272.477 1.4225 -2.64925 0
M  V30 2986 C 274.025 1.53827 -2.72592 0
M  V30 2987 C 274.5 2.04053 -4.10032 0
M  V30 2988 N 275.991 2.11331 -4.12182 0
M  V30 2989 C 276.726 2.51352 -5.15374 0
M  V30 2990 N 276.222 2.90549 -6.2893 0
M  V30 2991 N 278.015 2.51438 -5.02728 0
M  V30 2992 H 270.166 -0.0578386 -2.12321 0
M  V30 2993 H 272.429 0.0367406 -0.947288 0
M  V30 2994 H 272.135 0.725466 -3.44136 0
M  V30 2995 H 272.009 2.39451 -2.9145 0
M  V30 2996 H 274.396 2.22628 -1.93702 0
M  V30 2997 H 274.477 0.550154 -2.49814 0
M  V30 2998 H 274.121 1.35848 -4.89395 0
M  V30 2999 H 274.051 3.03726 -4.30184 0
M  V30 3000 H 276.542 1.83745 -3.30222 0
M  V30 3001 H 276.855 3.19884 -7.03487 0
M  V30 3002 H 275.2 2.88313 -6.32377 0
M  V30 3003 H 278.391 2.20203 -4.13072 0
M  V30 3004 H 278.564 2.82304 -5.83274 0
M  V30 3005 N 271.97 1.30982 0.876444 0
M  V30 3006 C 272.917 1.18085 1.98304 0
M  V30 3007 C 273.887 0.0682263 1.6596 0
M  V30 3008 O 275.072 0.239937 1.89285 0
M  V30 3009 C 272.212 0.887475 3.33493 0
M  V30 3010 C 271.325 2.08281 3.78475 0
M  V30 3011 C 270.46 1.72678 5.0235 0
M  V30 3012 C 269.499 2.88657 5.39762 0
M  V30 3013 N 268.636 2.53292 6.54819 0
M  V30 3014 H 273.476 2.1275 2.08666 0
M  V30 3015 H 271.013 1.05839 1.02159 0
M  V30 3016 H 272.971 0.697961 4.1132 0
M  V30 3017 H 271.601 -0.022315 3.22792 0
M  V30 3018 H 270.653 2.3833 2.96484 0
M  V30 3019 H 271.965 2.95108 4.02135 0
M  V30 3020 H 271.119 1.50151 5.87826 0
M  V30 3021 H 269.858 0.830327 4.8058 0
M  V30 3022 H 268.863 3.1184 4.52809 0
M  V30 3023 H 270.088 3.79002 5.63502 0
M  V30 3024 H 268.034 1.66163 6.34607 0
M  V30 3025 H 267.951 3.3365 6.7839 0
M  V30 3026 H 269.219 2.34143 7.43503 0
M  V30 3027 N 273.449 -1.08991 1.13837 0
M  V30 3028 C 274.698 -1.80631 0.897509 0
M  V30 3029 C 275.011 -1.86872 -0.57777 0
M  V30 3030 O 276.217 -2.54866 -0.935701 0
M  V30 3031 C 274.673 -3.24517 1.55618 0
M  V30 3032 C 274.281 -3.26529 3.0673 0
M  V30 3033 C 276.025 -4.00882 1.3962 0
M  V30 3034 C 273.932 -4.64965 3.65461 0
M  V30 3035 H 272.862 -0.67691 0.332129 0
M  V30 3036 H 275.513 -1.2246 1.3666 0
M  V30 3037 H 273.895 -3.82778 1.01476 0
M  V30 3038 H 275.069 -2.78008 3.67489 0
M  V30 3039 H 273.384 -2.63656 3.22296 0
M  V30 3040 H 275.981 -5.03167 1.80906 0
M  V30 3041 H 276.324 -4.14896 0.341578 0
M  V30 3042 H 276.857 -3.49075 1.90766 0
M  V30 3043 H 273.596 -4.56153 4.70749 0
M  V30 3044 H 273.116 -5.13792 3.09481 0
M  V30 3045 H 274.795 -5.3394 3.654 0
M  V30 3046 N 274.927 -0.932562 -1.27047 0
M  V30 3047 C 276.175 -0.574422 -1.93765 0
M  V30 3048 C 276.496 0.887993 -1.73608 0
M  V30 3049 O 275.766 1.62999 -1.08665 0
M  V30 3050 H 274.346 -0.209451 -0.717035 0
M  V30 3051 H 277.008 -1.18601 -1.5466 0
M  V30 3052 H 276.104 -0.784841 -3.02071 0
M  V30 3053 N 276.405 1.4127 -0.698611 0
M  V30 3054 C 277.355 2.27997 -0.0119836 0
M  V30 3055 C 278.339 1.42363 0.749765 0
M  V30 3056 O 279.531 1.65607 0.624758 0
M  V30 3057 C 276.66 3.30702 0.921458 0
M  V30 3058 C 275.746 4.23814 0.155796 0
M  V30 3059 N 276.137 4.98572 -0.852015 0
M  V30 3060 C 274.435 4.44284 0.390836 0
M  V30 3061 C 275.136 5.66744 -1.3106 0
M  V30 3062 N 274.112 5.39867 -0.635944 0
M  V30 3063 H 277.914 2.83232 -0.784649 0
M  V30 3064 H 275.428 1.53518 -0.529711 0
M  V30 3065 H 277.425 3.91661 1.42854 0
M  V30 3066 H 276.085 2.77028 1.69369 0
M  V30 3067 H 277.096 5.03024 -1.23235 0
M  V30 3068 H 273.773 4.01614 1.14071 0
M  V30 3069 H 275.163 6.36672 -2.14707 0
M  V30 3070 N 277.883 0.443576 1.51229 0
M  V30 3071 C 278.846 -0.353132 2.26463 0
M  V30 3072 C 279.846 -0.944338 1.3015 0
M  V30 3073 O 281.036 -0.817813 1.5381 0
M  V30 3074 C 278.168 -1.50023 3.06114 0
M  V30 3075 H 279.361 0.3063 2.98332 0
M  V30 3076 H 276.914 0.196902 1.55055 0
M  V30 3077 H 277.649 -2.19553 2.38677 0
M  V30 3078 H 277.434 -1.08241 3.76864 0
M  V30 3079 H 278.924 -2.06296 3.63087 0
M  V30 3080 N 279.361 -1.56624 0.175154 0
M  V30 3081 C 280.601 -1.98894 -0.471221 0
M  V30 3082 C 280.965 -1.05889 -1.60161 0
M  V30 3083 O 282.166 -1.37315 -2.3108 0
M  V30 3084 C 280.437 -3.44865 -0.938241 0
M  V30 3085 S 281.996 -4.09164 -1.58526 0
M  V30 3086 H 278.814 -0.694686 -0.151434 0
M  V30 3087 H 281.416 -1.93577 0.27352 0
M  V30 3088 H 280.12 -4.10265 -0.10518 0
M  V30 3089 H 279.651 -3.53956 -1.71693 0
M  V30 3090 H 281.666 -4.04528 -2.87352 0
M  V30 3091 N 280.839 0.0985539 -1.57292 0
M  V30 3092 C 281.749 1.13824 -2.05137 0
M  V30 3093 C 282.765 1.44076 -0.975604 0
M  V30 3094 O 283.941 1.54786 -1.28853 0
M  V30 3095 C 281.006 2.43969 -2.46333 0
M  V30 3096 C 280.067 2.2093 -3.68087 0
M  V30 3097 C 279.3 3.44869 -4.0731 0
M  V30 3098 O 279.523 4.52972 -3.46659 0
M  V30 3099 O 278.457 3.34661 -5.00285 0
M  V30 3100 H 282.283 0.761881 -2.93988 0
M  V30 3101 H 279.868 0.310818 -1.46131 0
M  V30 3102 H 281.75 3.20609 -2.73473 0
M  V30 3103 H 280.425 2.81038 -1.60621 0
M  V30 3104 H 279.332 1.42081 -3.46069 0
M  V30 3105 H 280.665 1.88755 -4.54568 0
M  V30 3106 N 282.317 1.53212 0.369288 0
M  V30 3107 C 283.247 1.82365 1.45826 0
M  V30 3108 C 284.228 0.676907 1.56051 0
M  V30 3109 O 285.413 0.926401 1.70679 0
M  V30 3110 C 282.543 2.01023 2.83208 0
M  V30 3111 C 281.497 3.1678 2.8781 0
M  V30 3112 C 280.823 3.20724 4.27832 0
M  V30 3113 C 282.123 4.55447 2.55667 0
M  V30 3114 H 283.817 2.73559 1.21678 0
M  V30 3115 H 281.363 1.3163 0.583911 0
M  V30 3116 H 283.316 2.20001 3.59413 0
M  V30 3117 H 282.04 1.06536 3.08736 0
M  V30 3118 H 280.699 2.97616 2.14056 0
M  V30 3119 H 280.347 2.23882 4.50429 0
M  V30 3120 H 280.047 3.98496 4.31827 0
M  V30 3121 H 281.571 3.41881 5.05915 0
M  V30 3122 H 282.985 4.74611 3.21586 0
M  V30 3123 H 281.382 5.35432 2.70984 0
M  V30 3124 H 282.452 4.60812 1.5093 0
M  V30 3125 N 283.795 -0.628877 1.44509 0
M  V30 3126 C 285.211 -0.947305 1.28446 0
M  V30 3127 C 285.411 -2.00275 0.221872 0
M  V30 3128 O 284.467 -2.49447 -0.391471 0
M  V30 3129 C 285.78 -1.40843 2.65676 0
M  V30 3130 C 287.328 -1.52379 2.73404 0
M  V30 3131 C 287.803 -2.01875 4.11109 0
M  V30 3132 N 289.294 -2.09142 4.13296 0
M  V30 3133 C 290.029 -2.48615 5.16699 0
M  V30 3134 N 289.525 -2.87209 6.30462 0
M  V30 3135 N 291.318 -2.48768 5.04054 0
M  V30 3136 H 283.469 0.0690977 2.12288 0
M  V30 3137 H 285.732 -0.0317164 0.947469 0
M  V30 3138 H 285.438 -0.707206 3.44516 0
M  V30 3139 H 285.312 -2.37902 2.92716 0
M  V30 3140 H 287.699 -2.21598 1.9488 0
M  V30 3141 H 287.78 -0.536898 2.50102 0
M  V30 3142 H 287.424 -1.3325 4.90109 0
M  V30 3143 H 287.354 -3.0144 4.31789 0
M  V30 3144 H 289.845 -1.81991 3.31191 0
M  V30 3145 H 290.158 -3.16149 7.05174 0
M  V30 3146 H 288.503 -2.84955 6.33897 0
M  V30 3147 H 291.694 -2.18009 4.14234 0
M  V30 3148 H 291.867 -2.79207 5.84763 0
M  V30 3149 N 285.273 -1.31445 -0.869486 0
M  V30 3150 C 286.183 -1.21097 -2.0093 0
M  V30 3151 C 287.199 -0.127584 -1.73532 0
M  V30 3152 O 288.375 -0.345477 -1.98415 0
M  V30 3153 C 285.44 -0.919378 -3.34288 0
M  V30 3154 C 284.501 -2.08971 -3.75006 0
M  V30 3155 C 283.734 -1.81194 -5.02001 0
M  V30 3156 O 283.957 -0.747296 -5.65484 0
M  V30 3157 O 282.891 -2.66883 -5.39497 0
M  V30 3158 H 286.717 -2.16883 -2.12592 0
M  V30 3159 H 284.302 -1.11189 -0.997868 0
M  V30 3160 H 286.184 -0.772625 -4.14257 0
M  V30 3161 H 284.859 0.00844772 -3.23699 0
M  V30 3162 H 283.766 -2.29187 -2.95676 0
M  V30 3163 H 285.099 -2.9998 -3.90221 0
M  V30 3164 N 286.751 1.08385 -1.14413 0
M  V30 3165 C 288 1.80153 -0.907076 0
M  V30 3166 C 288.313 1.87176 0.567851 0
M  V30 3167 O 289.519 2.55359 0.922172 0
M  V30 3168 C 287.975 3.23687 -1.57336 0
M  V30 3169 C 287.583 3.24897 -3.08457 0
M  V30 3170 C 289.327 4.00136 -1.41744 0
M  V30 3171 C 287.234 4.6302 -3.67921 0
M  V30 3172 H 286.164 0.675139 -0.335714 0
M  V30 3173 H 288.815 1.21733 -1.37307 0
M  V30 3174 H 287.197 3.82234 -1.03505 0
M  V30 3175 H 288.371 2.76055 -3.68958 0
M  V30 3176 H 286.686 2.61943 -3.2369 0
M  V30 3177 H 289.283 5.02201 -1.83572 0
M  V30 3178 H 289.626 4.14709 -0.363576 0
M  V30 3179 H 290.159 3.48058 -1.92614 0
M  V30 3180 H 286.898 4.5365 -4.73161 0
M  V30 3181 H 286.418 5.12143 -3.12201 0
M  V30 3182 H 288.097 5.31994 -3.68227 0
M  V30 3183 N 288.23 0.939286 1.26551 0
M  V30 3184 C 289.163 0.391702 2.24813 0
M  V30 3185 C 290.141 -0.518421 1.54114 0
M  V30 3186 O 291.325 -0.456299 1.82894 0
M  V30 3187 C 288.452 -0.437382 3.35864 0
M  V30 3188 C 287.498 0.410946 4.24516 0
M  V30 3189 S 288.331 1.83372 5.03125 0
M  V30 3190 C 289.487 1.01264 6.17654 0
M  V30 3191 H 289.72 1.22448 2.70913 0
M  V30 3192 H 287.253 0.742269 1.35387 0
M  V30 3193 H 289.211 -0.909837 4.0029 0
M  V30 3194 H 287.872 -1.24482 2.8838 0
M  V30 3195 H 287.065 -0.224191 5.03501 0
M  V30 3196 H 286.667 0.818014 3.64945 0
M  V30 3197 H 288.959 0.254023 6.77024 0
M  V30 3198 H 289.902 1.77589 6.85469 0
M  V30 3199 H 290.31 0.549532 5.61819 0
M  V30 3200 N 289.708 -1.40897 0.706093 0
M  V30 3201 C 290.956 -2.00657 0.241054 0
M  V30 3202 C 291.277 -1.56241 -1.16678 0
M  V30 3203 O 290.547 -0.79765 -1.78926 0
M  V30 3204 H 289.127 -0.742018 0.0861308 0
M  V30 3205 H 291.789 -1.72372 0.909604 0
M  V30 3206 H 290.885 -3.10958 0.266705 0
M  V30 3207 N 291.186 -0.45159 -1.50991 0
M  V30 3208 C 292.414 0.108334 -2.06616 0
M  V30 3209 C 292.829 1.35224 -1.31757 0
M  V30 3210 O 292.186 1.78475 -0.381174 0
M  V30 3211 C 292.237 0.41619 -3.59096 0
M  V30 3212 O 291.958 -0.778361 -4.3113 0
M  V30 3213 C 293.459 1.02523 -4.31282 0
M  V30 3214 H 290.679 0.00159995 -0.670998 0
M  V30 3215 H 293.223 -0.634771 -1.94399 0
M  V30 3216 H 291.378 1.10921 -3.71181 0
M  V30 3217 H 291.792 -0.511181 -5.22003 0
M  V30 3218 H 293.266 1.19053 -5.39009 0
M  V30 3219 H 293.743 2.01013 -3.905 0
M  V30 3220 H 294.349 0.371173 -4.23677 0
M  V30 3221 N 292.664 1.56529 -0.183458 0
M  V30 3222 C 294.075 1.83739 0.331177 0
M  V30 3223 C 294.426 1.10373 1.62211 0
M  V30 3224 O 293.551 0.36071 2.13373 0
M  V30 3225 C 294.146 3.33306 0.607646 0
M  V30 3226 C 292.705 3.60969 1.06668 0
M  V30 3227 C 291.852 2.77086 0.109029 0
M  V30 3228 H 294.803 1.53379 -0.407484 0
M  V30 3229 H 294.824 3.51444 1.45832 0
M  V30 3230 H 294.336 3.86677 -0.332086 0
M  V30 3231 H 292.437 3.13021 2.0211 0
M  V30 3232 H 292.55 4.69231 0.967447 0
M  V30 3233 H 290.914 2.47319 0.608714 0
M  V30 3234 H 291.697 3.33241 -0.82494 0
M  V30 3235 N 294.142 -0.090211 1.57342 0
M  V30 3236 C 295.052 -1.12735 2.05738 0
M  V30 3237 C 296.068 -1.43557 0.983231 0
M  V30 3238 O 297.244 -1.54101 1.29672 0
M  V30 3239 C 294.309 -2.42659 2.47624 0
M  V30 3240 C 293.37 -2.18975 3.69254 0
M  V30 3241 C 292.603 -3.42704 4.09133 0
M  V30 3242 O 292.826 -4.51127 3.49057 0
M  V30 3243 O 291.76 -3.32003 5.02053 0
M  V30 3244 H 295.586 -0.746279 2.94388 0
M  V30 3245 H 293.171 -0.303064 1.46294 0
M  V30 3246 H 295.053 -3.19155 2.7517 0
M  V30 3247 H 293.728 -2.80182 1.62109 0
M  V30 3248 H 292.635 -1.40244 3.46818 0
M  V30 3249 H 293.968 -1.86342 4.55563 0
M  V30 3250 N 295.62 -1.53406 -0.361157 0
M  V30 3251 C 296.85 -1.73465 -1.1222 0
M  V30 3252 C 297.258 -0.465486 -1.83384 0
M  V30 3253 O 296.601 0.571611 -1.7458 0
M  V30 3254 C 296.663 -2.84834 -2.19339 0
M  V30 3255 C 296.327 -4.25038 -1.67903 0
M  V30 3256 C 297.324 -5.07231 -1.14074 0
M  V30 3257 C 295.009 -4.71464 -1.73282 0
M  V30 3258 C 297.003 -6.33942 -0.663068 0
M  V30 3259 C 294.69 -5.98153 -1.25127 0
M  V30 3260 C 295.688 -6.79223 -0.717296 0
M  V30 3261 O 295.376 -8.03533 -0.242865 0
M  V30 3262 H 295.108 -0.583526 -0.341283 0
M  V30 3263 H 297.662 -2.00964 -0.424591 0
M  V30 3264 H 295.892 -2.5282 -2.92607 0
M  V30 3265 H 297.581 -2.9303 -2.80871 0
M  V30 3266 H 298.347 -4.72534 -1.09254 0
M  V30 3267 H 294.226 -4.08432 -2.13786 0
M  V30 3268 H 297.77 -6.97167 -0.245612 0
M  V30 3269 H 293.667 -6.32347 -1.29642 0
M  V30 3270 H 294.435 -8.177 -0.361786 0
M  V30 3271 N 297.098 0.621204 -1.44841 0
M  V30 3272 C 298.028 1.74366 -1.55303 0
M  V30 3273 C 299.009 1.65199 -0.405385 0
M  V30 3274 O 300.194 1.83807 -0.626787 0
M  V30 3275 C 297.324 3.12931 -1.50637 0
M  V30 3276 C 296.278 3.36896 -2.63979 0
M  V30 3277 C 295.604 4.75594 -2.44366 0
M  V30 3278 C 296.904 3.28483 -4.06074 0
M  V30 3279 H 298.598 1.65867 -2.49256 0
M  V30 3280 H 296.144 0.796558 -1.19962 0
M  V30 3281 H 298.097 3.9124 -1.56555 0
M  V30 3282 H 296.821 3.22237 -0.532057 0
M  V30 3283 H 295.48 2.60972 -2.57467 0
M  V30 3284 H 295.128 4.81616 -1.45105 0
M  V30 3285 H 294.828 4.92586 -3.20364 0
M  V30 3286 H 296.352 5.5612 -2.52117 0
M  V30 3287 H 297.766 3.96684 -4.13902 0
M  V30 3288 H 296.163 3.57008 -4.82354 0
M  V30 3289 H 297.233 2.26133 -4.28943 0
M  V30 3290 N 298.576 1.31904 0.862503 0
M  V30 3291 C 299.539 1.20131 1.95195 0
M  V30 3292 C 300.539 0.126409 1.60302 0
M  V30 3293 O 301.729 0.376234 1.70089 0
M  V30 3294 C 298.861 0.845691 3.30244 0
M  V30 3295 H 300.054 2.16943 2.07064 0
M  V30 3296 H 297.607 1.15622 1.05172 0
M  V30 3297 H 298.342 -0.120957 3.24074 0
M  V30 3298 H 298.127 1.62276 3.56944 0
M  V30 3299 H 299.617 0.787418 4.10109 0
M  V30 3300 N 300.054 -1.07777 1.14986 0
M  V30 3301 C 301.465 -1.61766 0.932127 0
M  V30 3302 C 301.816 -1.88974 -0.527581 0
M  V30 3303 O 300.941 -1.65198 -1.39781 0
M  V30 3304 C 301.536 -2.93891 1.68563 0
M  V30 3305 C 300.095 -3.44639 1.5133 0
M  V30 3306 C 299.242 -2.18767 1.704 0
M  V30 3307 H 302.193 -0.909201 1.30074 0
M  V30 3308 H 302.214 -3.62623 1.15259 0
M  V30 3309 H 301.726 -2.74057 2.74799 0
M  V30 3310 H 299.827 -3.69564 0.474702 0
M  V30 3311 H 299.94 -4.20966 2.28746 0
M  V30 3312 H 298.304 -2.28253 1.13016 0
M  V30 3313 H 299.087 -2.01433 2.77992 0
M  V30 3314 N 301.532 -0.945985 -1.26051 0
M  V30 3315 C 302.442 -0.465633 -2.29933 0
M  V30 3316 C 303.458 0.462761 -1.67733 0
M  V30 3317 O 304.634 0.341118 -1.9849 0
M  V30 3318 C 301.699 0.256994 -3.45746 0
M  V30 3319 C 300.76 -0.708549 -4.23412 0
M  V30 3320 C 299.993 -0.0203135 -5.33696 0
M  V30 3321 O 300.216 1.19571 -5.57726 0
M  V30 3322 O 299.15 -0.701459 -5.97799 0
M  V30 3323 H 302.976 -1.32866 -2.73094 0
M  V30 3324 H 300.561 -0.712071 -1.31339 0
M  V30 3325 H 302.443 0.663852 -4.16138 0
M  V30 3326 H 301.118 1.09533 -3.04605 0
M  V30 3327 H 300.025 -1.16545 -3.55483 0
M  V30 3328 H 301.358 -1.51465 -4.68315 0
M  V30 3329 N 303.011 1.40521 -0.713556 0
M  V30 3330 C 304.26 2.00155 -0.249192 0
M  V30 3331 C 304.573 1.57224 1.16362 0
M  V30 3332 O 305.779 2.09542 1.72639 0
M  V30 3333 C 304.235 3.5773 -0.3946 0
M  V30 3334 C 303.843 4.09635 -1.81392 0
M  V30 3335 C 305.587 4.24499 0.00907364 0
M  V30 3336 C 303.494 5.59707 -1.91003 0
M  V30 3337 H 302.424 0.74868 -0.0894114 0
M  V30 3338 H 305.075 1.60784 -0.884352 0
M  V30 3339 H 303.457 3.94792 0.30911 0
M  V30 3340 H 304.631 3.83955 -2.54785 0
M  V30 3341 H 302.946 3.55456 -2.16888 0
M  V30 3342 H 305.543 5.34683 -0.0420404 0
M  V30 3343 H 305.886 4.02824 1.05065 0
M  V30 3344 H 306.419 3.92536 -0.645007 0
M  V30 3345 H 303.158 5.86234 -2.93275 0
M  V30 3346 H 302.678 5.87258 -1.22019 0
M  V30 3347 H 304.357 6.24776 -1.6812 0
M  V30 3348 N 304.489 0.459591 1.5075 0
M  V30 3349 C 305.419 -0.330644 2.31147 0
M  V30 3350 C 306.4 -1.00087 1.37538 0
M  V30 3351 O 307.585 -1.00025 1.66459 0
M  V30 3352 C 304.715 -1.41958 3.16962 0
M  V30 3353 C 303.669 -0.871608 4.19031 0
M  V30 3354 C 302.995 -2.05797 4.9351 0
M  V30 3355 C 304.295 0.109251 5.22186 0
M  V30 3356 H 305.989 0.340336 2.97459 0
M  V30 3357 H 303.535 0.165119 1.4305 0
M  V30 3358 H 305.488 -1.9798 3.71997 0
M  V30 3359 H 304.212 -2.11917 2.48513 0
M  V30 3360 H 302.871 -0.333442 3.6508 0
M  V30 3361 H 302.519 -2.74427 4.21544 0
M  V30 3362 H 302.219 -1.6976 5.62544 0
M  V30 3363 H 303.743 -2.62331 5.51375 0
M  V30 3364 H 305.157 -0.361405 5.7216 0
M  V30 3365 H 303.554 0.383316 5.98875 0
M  V30 3366 H 304.624 1.03887 4.73641 0
M  V30 3367 N 305.967 -1.56429 0.191757 0
M  V30 3368 C 306.915 -2.20273 -0.747174 0
M  V30 3369 C 307.909 -1.17288 -1.22229 0
M  V30 3370 O 309.115 -1.35441 -1.18557 0
M  V30 3371 H 305.49 -0.705885 -0.259289 0
M  V30 3372 H 307.461 -2.97826 -0.184963 0
M  V30 3373 C 306.21 -2.87356 -1.95759 0
M  V30 3374 H 305.533 -3.66341 -1.60106 0
M  V30 3375 H 306.973 -3.3547 -2.59299 0
M  V30 3376 C 305.432 -1.88213 -2.79423 0
M  V30 3377 O 305.962 -1.38033 -3.7724 0
M  V30 3378 N 304.168 -1.56516 -2.44849 0
M  V30 3379 H 303.715 -1.97516 -1.65364 0
M  V30 3380 H 303.673 -0.904369 -3.01112 0
M  V30 3381 N 307.445 0.0818655 -1.57387 0
M  V30 3382 C 308.675 0.794954 -1.90694 0
M  V30 3383 C 309.083 1.72147 -0.784982 0
M  V30 3384 O 308.426 1.81974 0.251196 0
M  V30 3385 C 308.488 1.65042 -3.19376 0
M  V30 3386 C 308.152 0.894337 -4.48164 0
M  V30 3387 C 309.149 0.21813 -5.19442 0
M  V30 3388 C 306.834 0.864495 -4.94805 0
M  V30 3389 C 308.828 -0.477802 -6.35607 0
M  V30 3390 C 306.515 0.164785 -6.10878 0
M  V30 3391 C 307.513 -0.505173 -6.81129 0
M  V30 3392 O 307.201 -1.19363 -7.94989 0
M  V30 3393 H 306.933 0.231779 -0.635023 0
M  V30 3394 H 309.487 0.059493 -2.05314 0
M  V30 3395 H 307.717 2.42844 -3.00938 0
M  V30 3396 H 309.406 2.24127 -3.38411 0
M  V30 3397 H 310.172 0.232558 -4.84442 0
M  V30 3398 H 306.051 1.37542 -4.40004 0
M  V30 3399 H 309.595 -1.00129 -6.90377 0
M  V30 3400 H 305.492 0.148249 -6.4533 0
M  V30 3401 H 306.26 -1.10188 -8.11049 0
M  V30 3402 N 308.923 1.53595 0.353017 0
M  V30 3403 C 310.2 1.61002 1.11075 0
M  V30 3404 C 310.58 0.425356 2.0677 0
M  V30 3405 O 309.928 -0.583267 2.2093 0
M  V30 3406 C 310.138 2.96631 1.83877 0
M  V30 3407 C 311.486 3.51653 2.37961 0
M  V30 3408 O 312.51 2.98743 1.93987 0
M  V30 3409 O 311.369 4.44177 3.18386 0
M  V30 3410 H 308.463 0.650825 0.510251 0
M  V30 3411 H 311.009 1.6594 0.35527 0
M  V30 3412 H 309.781 3.74293 1.14108 0
M  V30 3413 H 309.404 2.95242 2.66304 0
M  V30 3414 N 310.401 -0.613514 1.45168 0
M  V30 3415 C 311.812 -1.19539 1.43413 0
M  V30 3416 C 312.163 -1.95558 0.158632 0
M  V30 3417 O 311.288 -2.0335 -0.740119 0
M  V30 3418 C 311.883 -2.17445 2.59813 0
M  V30 3419 C 310.442 -2.71022 2.61197 0
M  V30 3420 C 309.589 -1.46323 2.35552 0
M  V30 3421 H 312.54 -0.403163 1.53494 0
M  V30 3422 H 312.561 -3.00373 2.33574 0
M  V30 3423 H 312.073 -1.62089 3.52631 0
M  V30 3424 H 310.174 -3.30332 1.7237 0
M  V30 3425 H 310.287 -3.15859 3.60236 0
M  V30 3426 H 308.651 -1.75072 1.84992 0
M  V30 3427 H 309.434 -0.92844 3.30507 0
M  V30 3428 N 311.879 -1.3236 -0.855495 0
M  V30 3429 C 313.128 -1.22226 -1.60448 0
M  V30 3430 C 313.441 0.214733 -1.94418 0
M  V30 3431 O 314.647 0.437917 -2.67945 0
M  V30 3432 C 313.103 -2.14063 -2.89318 0
M  V30 3433 C 312.711 -3.62839 -2.62777 0
M  V30 3434 C 314.455 -2.12764 -3.67331 0
M  V30 3435 C 312.362 -4.4664 -3.87643 0
M  V30 3436 H 311.292 -0.453904 -0.602069 0
M  V30 3437 H 313.943 -1.57314 -0.944698 0
M  V30 3438 H 312.325 -1.71889 -3.5675 0
M  V30 3439 H 313.499 -4.1335 -2.03662 0
M  V30 3440 H 311.814 -3.66261 -1.98096 0
M  V30 3441 H 314.411 -2.72611 -4.59987 0
M  V30 3442 H 314.754 -1.11841 -4.00995 0
M  V30 3443 H 315.287 -2.53214 -3.06802 0
M  V30 3444 H 312.026 -5.48373 -3.5912 0
M  V30 3445 H 311.546 -4.0088 -4.46156 0
M  V30 3446 H 313.225 -4.59597 -4.55389 0
M  V30 3447 N 313.357 1.07166 -1.15556 0
M  V30 3448 C 314.585 1.83514 -0.955519 0
M  V30 3449 C 315 1.82163 0.49621 0
M  V30 3450 O 314.357 1.23441 1.34419 0
M  V30 3451 C 314.408 3.30515 -1.46432 0
M  V30 3452 O 314.129 3.31937 -2.85918 0
M  V30 3453 C 315.63 4.23625 -1.30603 0
M  V30 3454 H 312.85 0.578926 -0.339244 0
M  V30 3455 H 315.394 1.35265 -1.53374 0
M  V30 3456 H 313.549 3.76106 -0.928584 0
M  V30 3457 H 313.963 4.23794 -3.09029 0
M  V30 3458 H 315.437 5.24831 -1.71047 0
M  V30 3459 H 315.914 4.38485 -0.250441 0
M  V30 3460 H 316.52 3.83871 -1.83094 0
M  V30 3461 N 314.835 0.952656 1.25548 0
M  V30 3462 C 316.063 0.623496 1.97282 0
M  V30 3463 C 316.478 -0.803987 1.70826 0
M  V30 3464 O 315.835 -1.53755 0.983147 0
M  V30 3465 C 315.886 0.870209 3.5087 0
M  V30 3466 O 315.607 2.24156 3.76412 0
M  V30 3467 C 317.108 0.553164 4.39835 0
M  V30 3468 H 314.328 0.233931 0.628902 0
M  V30 3469 H 316.872 1.27649 1.59768 0
M  V30 3470 H 315.027 0.263652 3.86502 0
M  V30 3471 H 315.441 2.31021 4.70882 0
M  V30 3472 H 316.915 0.776342 5.46513 0
M  V30 3473 H 317.392 -0.512215 4.36203 0
M  V30 3474 H 317.998 1.13896 4.09766 0
M  V30 3475 N 316.313 -1.40141 0.720998 0
M  V30 3476 C 317.276 -2.29058 0.0805834 0
M  V30 3477 C 318.276 -1.45632 -0.681758 0
M  V30 3478 O 319.466 -1.6648 -0.512856 0
M  V30 3479 C 316.598 -3.28925 -0.895593 0
M  V30 3480 H 317.791 -2.87191 0.863793 0
M  V30 3481 H 315.344 -1.48553 0.485975 0
M  V30 3482 H 316.079 -2.75822 -1.70566 0
M  V30 3483 H 315.864 -3.90519 -0.351766 0
M  V30 3484 H 317.354 -3.95494 -1.34069 0
M  V30 3485 N 317.792 -0.46758 -1.50504 0
M  V30 3486 C 319.02 0.0864133 -2.06719 0
M  V30 3487 C 319.435 1.33819 -1.33184 0
M  V30 3488 O 318.792 1.78061 -0.400083 0
M  V30 3489 C 318.843 0.378079 -3.59517 0
M  V30 3490 O 318.564 -0.824044 -4.3028 0
M  V30 3491 C 320.065 0.979426 -4.32345 0
M  V30 3492 H 317.285 -0.00551697 -0.670977 0
M  V30 3493 H 319.829 -0.655354 -1.93715 0
M  V30 3494 H 317.984 1.06977 -3.72337 0
M  V30 3495 H 318.398 -0.566518 -5.21432 0
M  V30 3496 H 319.872 1.1333 -5.40241 0
M  V30 3497 H 320.349 1.9686 -3.9261 0
M  V30 3498 H 320.955 0.326216 -4.24047 0
M  V30 3499 N 319.27 1.56325 -0.20005 0
M  V30 3500 C 320.547 1.89484 0.48529 0
M  V30 3501 C 320.927 1.1143 1.79294 0
M  V30 3502 O 320.275 0.216919 2.27468 0
M  V30 3503 C 320.485 3.41923 0.699243 0
M  V30 3504 C 321.833 4.12256 1.01638 0
M  V30 3505 O 322.857 3.47402 0.786792 0
M  V30 3506 O 321.716 5.26887 1.45095 0
M  V30 3507 H 318.81 0.787144 0.253639 0
M  V30 3508 H 321.356 1.67985 -0.240633 0
M  V30 3509 H 320.128 3.90658 -0.224008 0
M  V30 3510 H 319.751 3.69131 1.47744 0
M  V30 3511 N 320.748 -0.0735177 1.57428 0
M  V30 3512 C 321.681 -1.11932 1.98863 0
M  V30 3513 C 322.659 -1.37666 0.865266 0
M  V30 3514 O 323.843 -1.51068 1.12742 0
M  V30 3515 C 320.97 -2.46403 2.32386 0
M  V30 3516 C 320.016 -2.36815 3.54713 0
M  V30 3517 S 320.849 -1.76392 5.05614 0
M  V30 3518 C 322.005 -3.12444 5.42337 0
M  V30 3519 H 322.238 -0.766212 2.87257 0
M  V30 3520 H 319.771 -0.281987 1.51803 0
M  V30 3521 H 321.729 -3.23755 2.52375 0
M  V30 3522 H 320.39 -2.78876 1.44524 0
M  V30 3523 H 319.583 -3.35977 3.7568 0
M  V30 3524 H 319.185 -1.67598 3.34345 0
M  V30 3525 H 321.477 -4.08753 5.40303 0
M  V30 3526 H 322.42 -2.96258 6.43146 0
M  V30 3527 H 322.828 -3.1297 4.69798 0
M  V30 3528 N 322.226 -1.5378 -0.344866 0
M  V30 3529 C 323.472 -1.72158 -1.0832 0
M  V30 3530 C 323.827 -0.478218 -1.86362 0
M  V30 3531 O 323.12 0.529152 -1.84148 0
M  V30 3532 C 323.314 -2.92407 -2.05506 0
M  V30 3533 C 323.143 -4.28318 -1.37017 0
M  V30 3534 C 321.913 -4.92832 -1.11558 0
M  V30 3535 C 324.111 -5.08086 -0.797071 0
M  V30 3536 N 322.093 -6.12619 -0.396358 0
M  V30 3537 C 323.464 -6.1965 -0.208336 0
M  V30 3538 C 325.519 -4.92986 -0.697787 0
M  V30 3539 C 324.222 -7.17763 0.470023 0
M  V30 3540 C 326.248 -5.91391 -0.033171 0
M  V30 3541 C 325.61 -7.02292 0.544599 0
M  V30 3542 H 321.709 -0.683017 -0.380805 0
M  V30 3543 H 324.293 -1.91211 -0.366961 0
M  V30 3544 H 322.464 -2.74857 -2.74423 0
M  V30 3545 H 324.196 -2.9951 -2.72169 0
M  V30 3546 H 320.951 -4.52362 -1.40234 0
M  V30 3547 H 321.375 -6.7698 -0.0515119 0
M  V30 3548 H 326.017 -4.07414 -1.13022 0
M  V30 3549 H 323.735 -8.0291 0.914351 0
M  V30 3550 H 327.321 -5.81784 0.0430009 0
M  V30 3551 H 326.201 -7.77129 1.05073 0
M  V30 3552 N 323.704 0.605807 -1.45491 0
M  V30 3553 C 324.652 1.73754 -1.54636 0
M  V30 3554 C 325.646 1.64207 -0.416219 0
M  V30 3555 O 326.852 1.69979 -0.592199 0
M  V30 3556 H 323.227 0.574073 -0.485741 0
M  V30 3557 H 325.198 1.63169 -2.49837 0
M  V30 3558 C 323.947 3.12135 -1.53189 0
M  V30 3559 H 323.27 3.20141 -2.39478 0
M  V30 3560 H 324.71 3.91147 -1.63645 0
M  V30 3561 C 323.169 3.35921 -0.256616 0
M  V30 3562 O 323.699 3.96194 0.662798 0
M  V30 3563 N 321.905 2.90204 -0.151751 0
M  V30 3564 H 321.452 2.41336 -0.90081 0
M  V30 3565 H 321.41 3.06492 0.700699 0
M  V30 3566 N 325.182 1.32811 0.848464 0
M  V30 3567 C 326.431 1.23075 1.59798 0
M  V30 3568 C 326.744 -0.204419 1.94529 0
M  V30 3569 O 327.95 -0.423701 2.68173 0
M  V30 3570 C 326.406 2.15594 2.88179 0
M  V30 3571 C 326.014 3.64228 2.60849 0
M  V30 3572 C 327.758 2.14709 3.66197 0
M  V30 3573 C 325.665 4.48689 3.85269 0
M  V30 3574 H 324.595 0.457091 0.599653 0
M  V30 3575 H 327.246 1.57813 0.936342 0
M  V30 3576 H 325.628 1.73778 3.55833 0
M  V30 3577 H 326.802 4.14424 2.01467 0
M  V30 3578 H 325.117 3.67306 1.96151 0
M  V30 3579 H 327.714 2.75046 4.58534 0
M  V30 3580 H 328.057 1.13966 4.00397 0
M  V30 3581 H 328.59 2.54837 3.05455 0
M  V30 3582 H 325.329 5.5027 3.56207 0
M  V30 3583 H 324.849 4.03241 4.44024 0
M  V30 3584 H 326.528 4.62006 4.52946 0
M  V30 3585 N 326.66 -1.06551 1.16123 0
M  V30 3586 C 327.908 -1.78947 0.939267 0
M  V30 3587 C 328.229 -1.87532 -0.534476 0
M  V30 3588 O 327.499 -1.38211 -1.38833 0
M  V30 3589 H 326.079 -0.662807 0.344523 0
M  V30 3590 H 328.741 -1.28725 1.46342 0
M  V30 3591 H 327.837 -2.81117 1.35572 0
M  V30 3592 N 328.138 -0.959301 -1.25041 0
M  V30 3593 C 329.387 -0.612254 -1.92183 0
M  V30 3594 C 329.7 0.855347 -1.75907 0
M  V30 3595 O 330.906 1.31256 -2.37664 0
M  V30 3596 C 329.362 -1.04435 -3.44414 0
M  V30 3597 C 328.97 -2.53482 -3.69393 0
M  V30 3598 C 330.714 -0.770055 -4.17457 0
M  V30 3599 C 328.621 -2.90468 -5.15153 0
M  V30 3600 H 327.551 -0.225279 -0.719559 0
M  V30 3601 H 330.202 -1.16438 -1.41825 0
M  V30 3602 H 328.584 -0.4206 -3.9376 0
M  V30 3603 H 329.758 -3.20916 -3.30681 0
M  V30 3604 H 328.073 -2.78432 -3.0962 0
M  V30 3605 H 330.67 -1.02249 -5.24832 0
M  V30 3606 H 331.013 0.293611 -4.15263 0
M  V30 3607 H 331.546 -1.35437 -3.74034 0
M  V30 3608 H 328.285 -3.95871 -5.22462 0
M  V30 3609 H 327.805 -2.27711 -5.54894 0
M  V30 3610 H 329.484 -2.79914 -5.83315 0
M  V30 3611 N 329.616 1.39756 -0.72842 0
M  V30 3612 C 330.865 1.99879 -0.270407 0
M  V30 3613 C 331.178 1.58449 1.14688 0
M  V30 3614 O 332.384 2.11362 1.70407 0
M  V30 3615 C 330.84 3.57292 -0.43252 0
M  V30 3616 C 330.448 4.07688 -1.85727 0
M  V30 3617 C 332.192 4.24485 -0.0359507 0
M  V30 3618 C 330.099 5.5765 -1.96928 0
M  V30 3619 H 329.029 0.747689 -0.0973472 0
M  V30 3620 H 331.68 1.59837 -0.901355 0
M  V30 3621 H 330.062 3.95097 0.267219 0
M  V30 3622 H 331.236 3.81231 -2.58843 0
M  V30 3623 H 329.551 3.53135 -2.20646 0
M  V30 3624 H 332.148 5.34609 -0.0987484 0
M  V30 3625 H 332.491 4.03915 1.00787 0
M  V30 3626 H 333.024 3.9183 -0.686604 0
M  V30 3627 H 329.763 5.8309 -2.99476 0
M  V30 3628 H 329.283 5.8593 -1.28241 0
M  V30 3629 H 330.962 6.22957 -1.74737 0
M  V30 3630 N 331.094 0.475555 1.50254 0
M  V30 3631 C 332.057 -0.305016 2.27161 0
M  V30 3632 C 333.057 -0.916519 1.32123 0
M  V30 3633 O 334.247 -0.785003 1.5551 0
M  V30 3634 C 331.379 -1.43496 3.09227 0
M  V30 3635 H 332.572 0.369511 2.97615 0
M  V30 3636 H 330.125 0.229747 1.54602 0
M  V30 3637 H 330.86 -2.14441 2.43281 0
M  V30 3638 H 330.645 -1.00223 3.79075 0
M  V30 3639 H 332.135 -1.98548 3.67381 0
M  V30 3640 N 332.573 -1.56217 0.208337 0
M  V30 3641 C 333.803 -2.02043 -0.431523 0
M  V30 3642 C 334.211 -1.08755 -1.54819 0
M  V30 3643 O 333.554 -0.0870009 -1.83494 0
M  V30 3644 C 333.616 -3.44239 -1.03633 0
M  V30 3645 C 333.28 -4.56965 -0.0567502 0
M  V30 3646 C 334.277 -5.14624 0.738773 0
M  V30 3647 C 331.962 -5.02266 0.0581736 0
M  V30 3648 C 333.956 -6.16045 1.63605 0
M  V30 3649 C 331.643 -6.03528 0.959001 0
M  V30 3650 C 332.641 -6.60293 1.7465 0
M  V30 3651 O 332.329 -7.59586 2.6322 0
M  V30 3652 H 332.061 -0.666772 -0.111313 0
M  V30 3653 H 334.615 -2.02919 0.318277 0
M  V30 3654 H 332.845 -3.40391 -1.83497 0
M  V30 3655 H 334.534 -3.73793 -1.58221 0
M  V30 3656 H 335.3 -4.80483 0.660364 0
M  V30 3657 H 331.179 -4.57771 -0.544633 0
M  V30 3658 H 334.723 -6.60279 2.25116 0
M  V30 3659 H 330.62 -6.37092 1.03848 0
M  V30 3660 H 331.388 -7.77057 2.57148 0
M  V30 3661 N 334.051 0.0651679 -1.57465 0
M  V30 3662 C 334.984 1.10876 -1.99453 0
M  V30 3663 C 335.962 1.37205 -0.872555 0
M  V30 3664 O 337.146 1.50468 -1.13542 0
M  V30 3665 C 334.273 2.45167 -2.3369 0
M  V30 3666 C 333.319 2.3493 -3.55964 0
M  V30 3667 S 334.152 1.73708 -5.06543 0
M  V30 3668 C 335.308 3.09563 -5.43987 0
M  V30 3669 H 335.541 0.750967 -2.87659 0
M  V30 3670 H 333.074 0.273933 -1.51951 0
M  V30 3671 H 335.032 3.22412 -2.54088 0
M  V30 3672 H 333.693 2.78105 -1.46001 0
M  V30 3673 H 332.886 3.3398 -3.77457 0
M  V30 3674 H 332.488 1.65823 -3.3523 0
M  V30 3675 H 334.78 4.05882 -5.42463 0
M  V30 3676 H 335.723 2.92843 -6.44708 0
M  V30 3677 H 336.131 3.10474 -4.71451 0
M  V30 3678 N 335.529 1.53961 0.336706 0
M  V30 3679 C 336.459 1.85417 1.41925 0
M  V30 3680 C 337.44 0.709856 1.5458 0
M  V30 3681 O 338.625 0.962396 1.68676 0
M  V30 3682 C 335.755 2.06985 2.78881 0
M  V30 3683 C 334.709 3.22813 2.81026 0
M  V30 3684 C 334.035 3.29727 4.20932 0
M  V30 3685 C 335.335 4.60767 2.45949 0
M  V30 3686 H 337.029 2.76079 1.15848 0
M  V30 3687 H 334.575 1.32839 0.555859 0
M  V30 3688 H 336.528 2.27575 3.54665 0
M  V30 3689 H 335.252 1.13061 3.06406 0
M  V30 3690 H 333.911 3.0209 2.07695 0
M  V30 3691 H 333.559 2.33385 4.45579 0
M  V30 3692 H 333.259 4.07566 4.23277 0
M  V30 3693 H 334.783 3.52536 4.98549 0
M  V30 3694 H 336.197 4.81325 3.11446 0
M  V30 3695 H 334.594 5.4106 2.59566 0
M  V30 3696 H 335.664 4.6391 1.41122 0
M  V30 3697 N 337.007 -0.598083 1.45811 0
M  V30 3698 C 337.937 -1.71873 1.58057 0
M  V30 3699 C 338.918 -1.64533 0.431615 0
M  V30 3700 O 340.103 -1.82787 0.65595 0
M  V30 3701 C 337.233 -3.10495 1.55597 0
M  V30 3702 C 336.187 -3.32654 2.69305 0
M  V30 3703 C 335.513 -4.71646 2.51902 0
M  V30 3704 C 336.813 -3.21981 4.11248 0
M  V30 3705 H 338.507 -1.61881 2.51863 0
M  V30 3706 H 336.053 -0.777372 1.21214 0
M  V30 3707 H 338.006 -3.88699 1.6276 0
M  V30 3708 H 336.73 -3.2135 0.583255 0
M  V30 3709 H 335.389 -2.56843 2.61586 0
M  V30 3710 H 335.037 -4.79246 1.52748 0
M  V30 3711 H 334.737 -4.87426 3.2816 0
M  V30 3712 H 336.261 -5.52038 2.60933 0
M  V30 3713 H 337.675 -3.90049 4.20161 0
M  V30 3714 H 336.072 -3.49289 4.87972 0
M  V30 3715 H 337.142 -2.1928 4.32486 0
M  V30 3716 N 338.485 -1.33259 -0.841409 0
M  V30 3717 C 339.713 -1.27605 -1.62864 0
M  V30 3718 C 340.128 0.153507 -1.88175 0
M  V30 3719 O 339.485 1.09485 -1.46011 0
M  V30 3720 C 339.536 -2.04596 -2.98031 0
M  V30 3721 O 339.257 -3.41975 -2.73834 0
M  V30 3722 C 340.758 -2.06122 -3.92465 0
M  V30 3723 H 337.978 -0.439718 -0.506842 0
M  V30 3724 H 340.522 -1.75591 -1.04824 0
M  V30 3725 H 338.677 -1.60299 -3.5268 0
M  V30 3726 H 339.091 -3.81549 -3.59889 0
M  V30 3727 H 340.565 -2.64451 -4.84531 0
M  V30 3728 H 341.042 -1.05083 -4.26444 0
M  V30 3729 H 341.648 -2.50427 -3.43753 0
M  V30 3730 N 339.963 1.05934 -1.16686 0
M  V30 3731 C 340.913 2.11764 -0.844978 0
M  V30 3732 C 341.897 1.59922 0.177178 0
M  V30 3733 O 343.089 1.76983 -0.0241768 0
M  V30 3734 C 340.218 3.41493 -0.351812 0
M  V30 3735 C 339.304 4.00152 -1.40496 0
M  V30 3736 N 339.695 4.32874 -2.61636 0
M  V30 3737 C 337.993 4.278 -1.26106 0
M  V30 3738 C 338.694 4.79552 -3.29249 0
M  V30 3739 N 337.67 4.79211 -2.56628 0
M  V30 3740 H 341.472 2.34916 -1.76612 0
M  V30 3741 H 338.986 1.23511 -1.05446 0
M  V30 3742 H 340.983 4.16773 -0.102796 0
M  V30 3743 H 339.643 3.19778 0.56322 0
M  V30 3744 H 340.654 4.23109 -2.98663 0
M  V30 3745 H 337.331 4.15511 -0.407081 0
M  V30 3746 H 338.721 5.14045 -4.32675 0
M  V30 3747 N 341.441 0.965919 1.2453 0
M  V30 3748 C 342.669 0.644385 1.96609 0
M  V30 3749 C 343.084 -0.785823 1.71669 0
M  V30 3750 O 342.441 -1.52703 0.999399 0
M  V30 3751 C 342.492 0.907375 3.49927 0
M  V30 3752 O 342.213 2.28136 3.74013 0
M  V30 3753 C 343.714 0.599784 4.39224 0
M  V30 3754 H 340.934 0.240588 0.626385 0
M  V30 3755 H 343.478 1.29337 1.58405 0
M  V30 3756 H 341.633 0.304631 3.862 0
M  V30 3757 H 342.047 2.36002 4.68405 0
M  V30 3758 H 343.521 0.834263 5.45659 0
M  V30 3759 H 343.998 -0.465921 4.36722 0
M  V30 3760 H 344.604 1.18235 4.08535 0
M  V30 3761 N 342.919 -1.39368 0.735821 0
M  V30 3762 C 344.144 -2.05319 0.293052 0
M  V30 3763 C 344.569 -1.55115 -1.064 0
M  V30 3764 O 343.927 -0.695261 -1.67439 0
M  V30 3765 C 343.975 -3.59305 0.305323 0
M  V30 3766 O 343.079 -4.06299 -0.706761 0
M  V30 3767 H 342.42 -0.650529 0.13307 0
M  V30 3768 H 344.95 -1.78386 1.00197 0
M  V30 3769 H 344.96 -4.07724 0.149997 0
M  V30 3770 H 343.635 -3.95207 1.29553 0
M  V30 3771 H 342.212 -3.69292 -0.517504 0
M  V30 3772 N 344.397 -0.483516 -1.5 0
M  V30 3773 C 345.808 -0.0314176 -1.86674 0
M  V30 3774 C 346.159 1.37728 -1.39733 0
M  V30 3775 O 345.284 2.02327 -0.767635 0
M  V30 3776 C 345.879 -0.0502376 -3.38763 0
M  V30 3777 C 344.438 0.346442 -3.74802 0
M  V30 3778 C 343.585 -0.430366 -2.7394 0
M  V30 3779 H 346.536 -0.697182 -1.42566 0
M  V30 3780 H 346.557 0.749116 -3.73053 0
M  V30 3781 H 346.069 -1.07563 -3.72897 0
M  V30 3782 H 344.17 1.37572 -3.46273 0
M  V30 3783 H 344.283 0.0391486 -4.79084 0
M  V30 3784 H 342.647 0.117557 -2.54429 0
M  V30 3785 H 343.43 -1.4555 -3.10918 0
M  V30 3786 N 345.875 1.56104 -0.216619 0
M  V30 3787 C 347.122 1.98172 0.416416 0
M  V30 3788 C 347.45 1.10413 1.60122 0
M  V30 3789 O 346.705 0.147967 1.9514 0
M  V30 3790 C 347.004 3.45923 0.898464 0
M  V30 3791 C 346.67 4.50559 -0.175288 0
M  V30 3792 C 345.332 4.78897 -0.470271 0
M  V30 3793 C 347.684 5.1334 -0.901728 0
M  V30 3794 C 345.012 5.67299 -1.4963 0
M  V30 3795 C 347.364 6.02853 -1.91705 0
M  V30 3796 C 346.028 6.29537 -2.21901 0
M  V30 3797 H 345.298 0.725164 0.152377 0
M  V30 3798 H 347.945 1.88839 -0.318103 0
M  V30 3799 H 346.25 3.52434 1.71165 0
M  V30 3800 H 347.947 3.75841 1.39803 0
M  V30 3801 H 344.537 4.28551 0.0647806 0
M  V30 3802 H 348.721 4.91521 -0.687072 0
M  V30 3803 H 343.977 5.86239 -1.73592 0
M  V30 3804 H 348.151 6.50552 -2.48505 0
M  V30 3805 H 345.778 6.97835 -3.01548 0
M  V30 3806 N 347.353 -0.0568162 1.57498 0
M  V30 3807 C 348.599 -0.75422 1.88253 0
M  V30 3808 C 348.932 -1.76461 0.810865 0
M  V30 3809 O 348.207 -1.93691 -0.177259 0
M  V30 3810 C 348.49 -1.44878 3.2967 0
M  V30 3811 C 348.343 -0.453789 4.47505 0
M  V30 3812 C 349.662 -2.38994 3.69554 0
M  V30 3813 H 346.781 -0.272724 0.684683 0
M  V30 3814 H 349.423 -0.0172113 1.89992 0
M  V30 3815 H 347.573 -2.077 3.28318 0
M  V30 3816 H 349.245 0.170371 4.60985 0
M  V30 3817 H 347.488 0.229552 4.33192 0
M  V30 3818 H 348.159 -0.977699 5.43273 0
M  V30 3819 H 350.635 -1.86239 3.72095 0
M  V30 3820 H 349.511 -2.84587 4.69363 0
M  V30 3821 H 349.772 -3.24461 3.00296 0
M  V30 3822 N 348.832 -1.54138 -0.328536 0
M  V30 3823 C 350.08 -1.71765 -1.06496 0
M  V30 3824 C 350.401 -0.49149 -1.88704 0
M  V30 3825 O 349.671 0.494539 -1.89555 0
M  V30 3826 H 348.251 -0.633295 -0.396164 0
M  V30 3827 H 350.913 -1.91429 -0.366176 0
M  V30 3828 H 350.009 -2.5951 -1.73381 0
M  V30 3829 N 350.31 0.590341 -1.46126 0
M  V30 3830 C 351.22 1.72793 -1.58681 0
M  V30 3831 C 352.236 1.67516 -0.470566 0
M  V30 3832 O 353.412 1.87562 -0.733642 0
M  V30 3833 C 350.477 3.09287 -1.5666 0
M  V30 3834 C 349.538 3.25886 -2.79458 0
M  V30 3835 C 348.771 4.55869 -2.77524 0
M  V30 3836 O 348.994 5.3928 -1.85832 0
M  V30 3837 O 347.928 4.75552 -3.68964 0
M  V30 3838 H 351.754 1.65149 -2.54872 0
M  V30 3839 H 349.339 0.756486 -1.28832 0
M  V30 3840 H 351.221 3.90577 -1.58202 0
M  V30 3841 H 349.896 3.17385 -0.636271 0
M  V30 3842 H 348.803 2.44119 -2.83472 0
M  V30 3843 H 350.136 3.22675 -3.71674 0
M  V30 3844 N 351.788 1.33704 0.83433 0
M  V30 3845 C 353.065 1.16011 1.57483 0
M  V30 3846 C 353.445 -0.27176 2.09343 0
M  V30 3847 O 352.793 -1.27146 1.89858 0
M  V30 3848 C 353.003 2.20507 2.70514 0
M  V30 3849 C 354.351 2.54898 3.39577 0
M  V30 3850 O 355.375 2.19209 2.80759 0
M  V30 3851 O 354.234 3.16158 4.45765 0
M  V30 3852 H 351.328 0.448992 0.694503 0
M  V30 3853 H 353.874 1.453 0.876691 0
M  V30 3854 H 352.646 3.16667 2.29865 0
M  V30 3855 H 352.269 1.92329 3.47987 0
M  V30 3856 N 353.266 -1.05314 1.17247 0
M  V30 3857 C 354.214 -2.15137 0.884238 0
M  V30 3858 C 355.208 -1.68729 -0.15063 0
M  V30 3859 O 356.414 -1.8 -0.00366673 0
M  V30 3860 H 352.789 -0.702471 0.2684 0
M  V30 3861 H 354.76 -2.36652 1.81764 0
M  V30 3862 C 353.509 -3.45243 0.412659 0
M  V30 3863 H 352.832 -3.81352 1.20043 0
M  V30 3864 H 354.272 -4.23263 0.249858 0
M  V30 3865 C 352.731 -3.25487 -0.86948 0
M  V30 3866 O 353.261 -3.51938 -1.93655 0
M  V30 3867 N 351.467 -2.78875 -0.817147 0
M  V30 3868 H 351.014 -2.57549 0.0514211 0
M  V30 3869 H 350.972 -2.66036 -1.67547 0
M  V30 3870 N 354.744 -0.972509 -1.24016 0
M  V30 3871 C 355.676 -0.464375 -2.24446 0
M  V30 3872 C 356.689 0.4295 -1.57032 0
M  V30 3873 O 357.878 0.234902 -1.76948 0
M  V30 3874 C 354.978 0.348385 -3.37105 0
M  V30 3875 C 354.151 -0.53673 -4.34094 0
M  V30 3876 C 353.21 0.220838 -5.25736 0
M  V30 3877 O 352.236 -0.386867 -5.67884 0
M  V30 3878 N 353.438 1.50907 -5.60542 0
M  V30 3879 H 356.203 -1.32788 -2.68677 0
M  V30 3880 H 353.764 -0.844877 -1.38107 0
M  V30 3881 H 355.756 0.863341 -3.95384 0
M  V30 3882 H 354.326 1.11285 -2.92121 0
M  V30 3883 H 353.546 -1.23261 -3.74433 0
M  V30 3884 H 354.834 -1.14022 -4.95859 0
M  V30 3885 H 354.232 2.02444 -5.28236 0
M  V30 3886 H 352.789 1.96962 -6.21329 0
M  V30 3887 N 356.222 1.38976 -0.743202 0
M  V30 3888 C 357.132 2.3434 -0.110399 0
M  V30 3889 C 358.148 1.58741 0.712559 0
M  V30 3890 O 359.324 1.9099 0.639125 0
M  V30 3891 C 356.389 3.37812 0.780012 0
M  V30 3892 C 355.45 4.29263 -0.0561319 0
M  V30 3893 C 354.683 5.27793 0.791875 0
M  V30 3894 O 354.906 5.33043 2.03031 0
M  V30 3895 O 353.84 6.01512 0.216183 0
M  V30 3896 H 357.666 2.90129 -0.897714 0
M  V30 3897 H 355.251 1.40643 -0.503966 0
M  V30 3898 H 357.133 4.01194 1.28923 0
M  V30 3899 H 355.808 2.84395 1.546 0
M  V30 3900 H 354.715 3.69076 -0.611056 0
M  V30 3901 H 356.048 4.85907 -0.784531 0
M  V30 3902 N 357.7 0.491464 1.49741 0
M  V30 3903 C 358.928 -0.0535151 2.06831 0
M  V30 3904 C 359.343 -1.31683 1.35296 0
M  V30 3905 O 358.7 -1.77402 0.42836 0
M  V30 3906 C 358.751 -0.320835 3.60073 0
M  V30 3907 O 358.472 0.892394 4.28915 0
M  V30 3908 C 359.973 -0.910519 4.33848 0
M  V30 3909 H 357.193 0.0161909 0.670805 0
M  V30 3910 H 359.737 0.68609 1.92647 0
M  V30 3911 H 357.892 -1.0104 3.73991 0
M  V30 3912 H 358.306 0.649401 5.20464 0
M  V30 3913 H 359.78 -1.04721 5.41976 0
M  V30 3914 H 360.257 -1.90589 3.95692 0
M  V30 3915 H 360.863 -0.258712 4.24512 0
M  V30 3916 N 359.178 -1.55987 0.224894 0
M  V30 3917 C 360.408 -2.02489 -0.41007 0
M  V30 3918 C 360.816 -1.10391 -1.53657 0
M  V30 3919 O 360.159 -0.106458 -1.83391 0
M  V30 3920 C 360.221 -3.45319 -0.999757 0
M  V30 3921 C 359.885 -4.56999 -0.00827976 0
M  V30 3922 C 360.882 -5.13812 0.793314 0
M  V30 3923 C 358.567 -5.02176 0.111442 0
M  V30 3924 C 360.561 -6.14276 1.7013 0
M  V30 3925 C 358.248 -6.02477 1.02296 0
M  V30 3926 C 359.246 -6.58403 1.81643 0
M  V30 3927 O 358.934 -7.56751 2.71262 0
M  V30 3928 H 358.666 -0.667915 -0.104235 0
M  V30 3929 H 361.22 -2.0257 0.339782 0
M  V30 3930 H 359.45 -3.42318 -1.79876 0
M  V30 3931 H 361.139 -3.7545 -1.54248 0
M  V30 3932 H 361.905 -4.79756 0.711288 0
M  V30 3933 H 357.784 -4.58323 -0.49605 0
M  V30 3934 H 361.328 -6.57854 2.32107 0
M  V30 3935 H 357.225 -6.35954 1.10599 0
M  V30 3936 H 357.993 -7.74286 2.65375 0
M  V30 3937 N 360.656 0.0484629 -1.57525 0
M  V30 3938 C 361.586 1.0549 -2.08313 0
M  V30 3939 C 362.567 1.38929 -0.981463 0
M  V30 3940 O 363.752 1.48151 -1.25558 0
M  V30 3941 C 360.882 2.36162 -2.54646 0
M  V30 3942 C 359.836 2.17016 -3.68901 0
M  V30 3943 C 359.162 3.53278 -4.01371 0
M  V30 3944 C 360.462 1.57219 -4.98076 0
M  V30 3945 H 362.156 0.632195 -2.92649 0
M  V30 3946 H 359.702 0.302654 -1.40784 0
M  V30 3947 H 361.655 3.06882 -2.88793 0
M  V30 3948 H 360.379 2.80456 -1.67368 0
M  V30 3949 H 359.038 1.48733 -3.35073 0
M  V30 3950 H 358.686 3.95185 -3.11188 0
M  V30 3951 H 358.386 3.41299 -4.78318 0
M  V30 3952 H 359.91 4.25391 -4.38035 0
M  V30 3953 H 361.324 2.17832 -5.30304 0
M  V30 3954 H 359.721 1.55871 -5.79503 0
M  V30 3955 H 360.791 0.535956 -4.81929 0
M  V30 3956 N 362.134 1.5431 0.320358 0
M  V30 3957 C 363.082 1.84647 1.4145 0
M  V30 3958 C 364.076 0.718624 1.53402 0
M  V30 3959 O 365.282 0.902335 1.5575 0
M  V30 3960 H 361.657 0.585349 0.472091 0
M  V30 3961 H 363.628 2.7614 1.13089 0
M  V30 3962 C 362.377 2.09341 2.77617 0
M  V30 3963 H 361.7 2.9559 2.69196 0
M  V30 3964 H 363.14 2.3452 3.53237 0
M  V30 3965 C 361.599 0.885939 3.25043 0
M  V30 3966 O 362.129 0.0967891 4.01583 0
M  V30 3967 N 360.335 0.696682 2.82125 0
M  V30 3968 H 359.882 1.34006 2.2 0
M  V30 3969 H 359.84 -0.109712 3.14209 0
M  V30 3970 N 363.613 -0.582584 1.46437 0
M  V30 3971 C 364.862 -1.337 1.5102 0
M  V30 3972 C 365.175 -1.94891 0.166359 0
M  V30 3973 O 366.381 -2.71351 0.0899954 0
M  V30 3974 C 364.837 -2.42315 2.66104 0
M  V30 3975 C 364.445 -1.87427 4.06909 0
M  V30 3976 C 366.189 -3.19099 2.79958 0
M  V30 3977 C 364.096 -2.93672 5.13333 0
M  V30 3978 H 363.026 -0.502619 0.562041 0
M  V30 3979 H 365.677 -0.621701 1.72647 0
M  V30 3980 H 364.059 -3.16645 2.37807 0
M  V30 3981 H 365.233 -1.19639 4.44998 0
M  V30 3982 H 363.548 -1.2331 3.97723 0
M  V30 3983 H 366.145 -3.9839 3.56636 0
M  V30 3984 H 366.488 -3.71695 1.87479 0
M  V30 3985 H 367.021 -2.51875 3.07902 0
M  V30 3986 H 363.76 -2.45962 6.07604 0
M  V30 3987 H 363.28 -3.59948 4.79789 0
M  V30 3988 H 364.959 -3.5762 5.39182 0
M  V30 3989 N 365.091 -1.34144 -0.827227 0
M  V30 3990 C 366.316 -1.29476 -1.62021 0
M  V30 3991 C 366.741 0.129292 -1.87655 0
M  V30 3992 O 366.099 1.08967 -1.449 0
M  V30 3993 C 366.147 -2.08702 -2.94068 0
M  V30 3994 O 365.251 -1.45359 -3.85933 0
M  V30 3995 H 364.592 -0.444881 -0.492927 0
M  V30 3996 H 367.122 -1.76882 -1.02829 0
M  V30 3997 H 367.132 -2.19898 -3.43669 0
M  V30 3998 H 365.807 -3.12241 -2.74734 0
M  V30 3999 H 364.384 -1.42879 -3.44442 0
M  V30 4000 N 366.569 1.04691 -1.17803 0
M  V30 4001 C 367.501 2.12571 -0.857097 0
M  V30 4002 C 368.514 1.62174 0.142647 0
M  V30 4003 O 369.703 1.78301 -0.0843387 0
M  V30 4004 C 366.803 3.37915 -0.258216 0
M  V30 4005 C 365.976 4.1757 -1.30207 0
M  V30 4006 C 365.035 5.2125 -0.720029 0
M  V30 4007 O 364.061 5.51888 -1.39314 0
M  V30 4008 N 365.263 5.78466 0.485507 0
M  V30 4009 H 368.028 2.40698 -1.78562 0
M  V30 4010 H 365.589 1.20831 -1.07757 0
M  V30 4011 H 367.581 4.04442 0.144584 0
M  V30 4012 H 366.151 3.07281 0.574199 0
M  V30 4013 H 365.371 3.46458 -1.88043 0
M  V30 4014 H 366.659 4.67586 -2.00601 0
M  V30 4015 H 366.057 5.55866 1.05022 0
M  V30 4016 H 364.614 6.4649 0.830307 0
M  V30 4017 N 368.047 0.979072 1.23499 0
M  V30 4018 C 369.293 0.648178 1.92163 0
M  V30 4019 C 369.626 -0.816049 1.76222 0
M  V30 4020 O 368.901 -1.58849 1.12237 0
M  V30 4021 C 369.184 1.03773 3.44824 0
M  V30 4022 C 369.037 2.55948 3.69879 0
M  V30 4023 C 370.356 0.580653 4.36253 0
M  V30 4024 H 367.475 0.236952 0.69787 0
M  V30 4025 H 370.117 1.22012 1.45647 0
M  V30 4026 H 368.267 0.551058 3.84572 0
M  V30 4027 H 369.939 3.12179 3.3962 0
M  V30 4028 H 368.182 2.98641 3.14636 0
M  V30 4029 H 368.853 2.78255 4.76737 0
M  V30 4030 H 371.329 0.998465 4.03943 0
M  V30 4031 H 370.205 0.881663 5.41773 0
M  V30 4032 H 370.466 -0.519052 4.39042 0
M  V30 4033 N 369.525 -1.3858 0.750561 0
M  V30 4034 C 370.473 -2.32339 0.110162 0
M  V30 4035 C 371.467 -1.53864 -0.708674 0
M  V30 4036 O 372.673 -1.69417 -0.608112 0
M  V30 4037 H 369.048 -0.751812 0.0168275 0
M  V30 4038 H 371.019 -2.83959 0.917053 0
M  V30 4039 C 369.768 -3.39043 -0.771067 0
M  V30 4040 H 369.091 -3.99517 -0.150374 0
M  V30 4041 H 370.531 -4.07061 -1.1865 0
M  V30 4042 C 368.99 -2.77365 -1.91234 0
M  V30 4043 O 369.52 -2.66434 -3.00626 0
M  V30 4044 N 367.726 -2.35219 -1.70646 0
M  V30 4045 H 367.273 -2.4431 -0.81673 0
M  V30 4046 H 367.231 -1.94294 -2.47178 0
M  V30 4047 N 371.003 -0.499398 -1.49478 0
M  V30 4048 C 372.249 0.0457576 -2.02748 0
M  V30 4049 C 372.582 1.36793 -1.37846 0
M  V30 4050 O 371.857 1.87596 -0.513601 0
M  V30 4051 C 372.14 0.199986 -3.59544 0
M  V30 4052 C 371.993 -1.1452 -4.34977 0
M  V30 4053 C 373.312 0.94137 -4.29914 0
M  V30 4054 H 370.431 0.0151552 -0.736844 0
M  V30 4055 H 373.073 -0.650498 -1.78518 0
M  V30 4056 H 371.223 0.793007 -3.8032 0
M  V30 4057 H 372.895 -1.77697 -4.25701 0
M  V30 4058 H 371.138 -1.73488 -3.97598 0
M  V30 4059 H 371.809 -0.990607 -5.43039 0
M  V30 4060 H 374.285 0.43844 -4.13784 0
M  V30 4061 H 373.161 1.01812 -5.39375 0
M  V30 4062 H 373.422 1.98471 -3.95046 0
M  V30 4063 N 372.481 1.55866 -0.233164 0
M  V30 4064 C 373.758 1.90471 0.444988 0
M  V30 4065 C 374.138 1.15209 1.7689 0
M  V30 4066 O 373.486 0.265119 2.26957 0
M  V30 4067 C 373.696 3.4333 0.626559 0
M  V30 4068 C 375.044 4.14319 0.92871 0
M  V30 4069 O 376.068 3.48993 0.712926 0
M  V30 4070 O 374.927 5.29846 1.33887 0
M  V30 4071 H 372.021 0.792347 0.236885 0
M  V30 4072 H 374.567 1.67437 -0.276211 0
M  V30 4073 H 373.339 3.90095 -0.306822 0
M  V30 4074 H 372.962 3.72181 1.39881 0
M  V30 4075 N 373.959 -0.0401083 1.57549 0
M  V30 4076 C 375.189 -0.744115 1.92734 0
M  V30 4077 C 375.597 -1.70005 0.830348 0
M  V30 4078 O 374.94 -1.82576 -0.20286 0
M  V30 4079 C 375.002 -1.56516 3.2364 0
M  V30 4080 C 374.666 -0.7752 4.50377 0
M  V30 4081 C 375.663 -0.0803326 5.19838 0
M  V30 4082 C 373.348 -0.733002 4.96923 0
M  V30 4083 C 375.342 0.646154 6.34116 0
M  V30 4084 C 373.029 -0.00276321 6.111 0
M  V30 4085 C 374.027 0.685585 6.7955 0
M  V30 4086 O 373.715 1.40399 7.91545 0
M  V30 4087 H 373.447 -0.214861 0.640945 0
M  V30 4088 H 376.001 -0.00503675 2.05399 0
M  V30 4089 H 374.231 -2.3478 3.07271 0
M  V30 4090 H 375.92 -2.15076 3.44234 0
M  V30 4091 H 376.686 -0.104035 4.84888 0
M  V30 4092 H 372.565 -1.25827 4.43496 0
M  V30 4093 H 376.109 1.18398 6.87479 0
M  V30 4094 H 372.006 0.0229012 6.45496 0
M  V30 4095 H 372.774 1.31653 8.07843 0
M  V30 4096 N 375.437 -1.54477 -0.31217 0
M  V30 4097 C 376.662 -1.77526 -1.07235 0
M  V30 4098 C 377.087 -0.527775 -1.80544 0
M  V30 4099 O 376.445 0.52121 -1.73646 0
M  V30 4100 C 376.493 -2.97535 -2.03728 0
M  V30 4101 O 375.597 -2.69878 -3.11833 0
M  V30 4102 H 374.938 -0.58792 -0.30862 0
M  V30 4103 H 377.468 -2.01532 -0.352993 0
M  V30 4104 H 377.478 -3.25198 -2.46395 0
M  V30 4105 H 376.153 -3.87996 -1.49774 0
M  V30 4106 H 374.73 -2.53199 -2.7376 0
M  V30 4107 N 376.915 0.57481 -1.46744 0
M  V30 4108 C 377.825 1.711 -1.60505 0
M  V30 4109 C 378.841 1.67008 -0.488307 0
M  V30 4110 O 380.017 1.86774 -0.753495 0
M  V30 4111 C 377.082 3.07608 -1.59932 0
M  V30 4112 C 376.143 3.22904 -2.82898 0
M  V30 4113 C 375.376 4.529 -2.82343 0
M  V30 4114 O 375.599 5.37278 -1.91542 0
M  V30 4115 O 374.533 4.71611 -3.73987 0
M  V30 4116 H 378.359 1.62436 -2.56609 0
M  V30 4117 H 375.944 0.742779 -1.29627 0
M  V30 4118 H 377.826 3.88877 -1.62336 0
M  V30 4119 H 376.501 3.16692 -0.669898 0
M  V30 4120 H 375.408 2.41099 -2.86046 0
M  V30 4121 H 376.741 3.18715 -3.75076 0
M  V30 4122 N 378.394 1.34581 0.820102 0
M  V30 4123 C 379.304 1.28471 1.96297 0
M  V30 4124 C 380.32 0.191902 1.72939 0
M  V30 4125 O 381.496 0.418879 1.96996 0
M  V30 4126 C 378.561 1.04281 3.30645 0
M  V30 4127 C 377.622 2.22745 3.66992 0
M  V30 4128 C 376.855 1.997 4.9493 0
M  V30 4129 O 377.078 0.956656 5.6232 0
M  V30 4130 O 376.012 2.86723 5.2922 0
M  V30 4131 H 379.838 2.24624 2.04396 0
M  V30 4132 H 377.423 1.14816 0.955913 0
M  V30 4133 H 379.305 0.925841 4.11104 0
M  V30 4134 H 377.98 0.111697 3.23507 0
M  V30 4135 H 376.887 2.40003 2.86966 0
M  V30 4136 H 378.22 3.14257 3.78819 0
M  V30 4137 N 379.872 -1.04064 1.18357 0
M  V30 4138 C 381.1 -1.80916 1.00384 0
M  V30 4139 C 381.515 -1.83414 -0.447738 0
M  V30 4140 O 380.872 -1.26962 -1.31099 0
M  V30 4141 C 380.923 -3.26516 1.55144 0
M  V30 4142 O 380.644 -3.2424 2.94618 0
M  V30 4143 C 382.145 -4.20013 1.41789 0
M  V30 4144 H 379.365 -0.569728 0.354474 0
M  V30 4145 H 381.909 -1.31151 1.56906 0
M  V30 4146 H 380.064 -3.73512 1.02798 0
M  V30 4147 H 380.478 -4.15452 3.20156 0
M  V30 4148 H 381.952 -5.20111 1.84901 0
M  V30 4149 H 382.429 -4.37667 0.36661 0
M  V30 4150 H 383.035 -3.78881 1.93207 0
M  V30 4151 N 381.35 -0.985608 -1.22978 0
M  V30 4152 C 382.597 -0.657386 -1.91532 0
M  V30 4153 C 382.925 0.809707 -1.76845 0
M  V30 4154 O 382.18 1.60021 -1.12658 0
M  V30 4155 C 382.479 -1.00014 -3.43121 0
M  V30 4156 C 382.145 -2.4583 -3.77993 0
M  V30 4157 C 380.807 -2.85679 -3.87222 0
M  V30 4158 C 383.159 -3.40378 -3.94705 0
M  V30 4159 C 380.487 -4.19081 -4.10595 0
M  V30 4160 C 382.839 -4.73429 -4.1958 0
M  V30 4161 C 381.503 -5.1303 -4.27032 0
M  V30 4162 H 380.773 -0.240555 -0.700867 0
M  V30 4163 H 383.42 -1.24044 -1.45895 0
M  V30 4164 H 381.725 -0.335072 -3.90365 0
M  V30 4165 H 383.422 -0.724322 -3.94404 0
M  V30 4166 H 380.012 -2.13939 -3.71387 0
M  V30 4167 H 384.196 -3.10766 -3.8696 0
M  V30 4168 H 379.452 -4.49362 -4.14589 0
M  V30 4169 H 383.626 -5.46644 -4.31455 0
M  V30 4170 H 381.253 -6.16418 -4.44896 0
M  V30 4171 N 382.828 1.3818 -0.7579 0
M  V30 4172 C 384.053 2.04827 -0.325679 0
M  V30 4173 C 384.478 1.56788 1.03919 0
M  V30 4174 O 383.836 0.721811 1.66312 0
M  V30 4175 C 383.884 3.58774 -0.362447 0
M  V30 4176 O 382.988 4.07372 0.642033 0
M  V30 4177 H 382.329 0.64833 -0.143402 0
M  V30 4178 H 384.859 1.7677 -1.03023 0
M  V30 4179 H 384.869 4.07434 -0.214844 0
M  V30 4180 H 383.544 3.93096 -1.35824 0
M  V30 4181 H 382.121 3.70068 0.458688 0
M  V30 4182 N 384.306 0.507319 1.49211 0
M  V30 4183 C 385.531 -0.033725 2.07373 0
M  V30 4184 C 385.956 -1.29485 1.36437 0
M  V30 4185 O 385.314 -1.76294 0.423087 0
M  V30 4186 C 385.362 -0.263945 3.59633 0
M  V30 4187 O 384.466 -1.33737 3.90113 0
M  V30 4188 H 383.807 0.0290331 0.663365 0
M  V30 4189 H 386.337 0.708749 1.91932 0
M  V30 4190 H 386.347 -0.493536 4.05004 0
M  V30 4191 H 385.022 0.657424 4.10671 0
M  V30 4192 H 383.599 -1.09224 3.56545 0
M  V30 4193 N 385.784 -1.5574 0.241426 0
M  V30 4194 C 387.03 -1.99104 -0.385406 0
M  V30 4195 C 387.363 -1.1293 -1.57988 0
M  V30 4196 O 386.638 -0.191449 -1.93555 0
M  V30 4197 C 386.921 -3.51087 -0.800616 0
M  V30 4198 C 386.774 -4.48028 0.398874 0
M  V30 4199 C 388.093 -4.08015 -1.64959 0
M  V30 4200 H 385.212 -0.723848 -0.138614 0
M  V30 4201 H 387.854 -1.86903 0.341642 0
M  V30 4202 H 386.004 -3.61615 -1.4201 0
M  V30 4203 H 387.676 -4.49487 1.03726 0
M  V30 4204 H 385.919 -4.21077 1.04293 0
M  V30 4205 H 386.59 -5.51962 0.0651056 0
M  V30 4206 H 389.066 -4.00555 -1.12672 0
M  V30 4207 H 387.942 -5.14635 -1.90898 0
M  V30 4208 H 388.203 -3.56131 -2.61961 0
M  V30 4209 N 387.262 0.0317525 -1.57568 0
M  V30 4210 C 388.487 0.738664 -1.938 0
M  V30 4211 C 388.912 1.68242 -0.841208 0
M  V30 4212 O 388.27 1.80157 0.203267 0
M  V30 4213 C 388.318 1.47417 -3.29091 0
M  V30 4214 O 387.422 2.5872 -3.2115 0
M  V30 4215 H 386.763 0.198856 -0.633524 0
M  V30 4216 H 389.293 -0.0119713 -2.04596 0
M  V30 4217 H 389.303 1.84468 -3.63917 0
M  V30 4218 H 387.978 0.781988 -4.08482 0
M  V30 4219 H 386.555 2.24231 -2.97951 0
M  V30 4220 N 388.74 1.54641 0.303973 0
M  V30 4221 C 389.672 1.81754 1.39636 0
M  V30 4222 C 390.685 0.70035 1.46966 0
M  V30 4223 O 391.874 0.97778 1.49338 0
M  V30 4224 C 388.974 1.93785 2.7803 0
M  V30 4225 C 388.147 3.24156 2.93669 0
M  V30 4226 C 387.206 3.26641 4.12544 0
M  V30 4227 O 386.232 4.00187 4.04771 0
M  V30 4228 N 387.434 2.5182 5.23036 0
M  V30 4229 H 390.199 2.76031 1.16734 0
M  V30 4230 H 387.76 1.54178 0.494033 0
M  V30 4231 H 389.752 1.92852 3.55795 0
M  V30 4232 H 388.322 1.06515 2.93893 0
M  V30 4233 H 387.542 3.37887 2.03042 0
M  V30 4234 H 388.83 4.10195 3.01027 0
M  V30 4235 H 388.228 1.91692 5.32232 0
M  V30 4236 H 386.785 2.56644 5.99147 0
M  V30 4237 N 390.218 -0.567019 1.47046 0
M  V30 4238 C 391.148 -1.68482 1.61667 0
M  V30 4239 C 392.129 -1.6358 0.466418 0
M  V30 4240 O 393.314 -1.81354 0.694574 0
M  V30 4241 C 390.444 -3.07124 1.62148 0
M  V30 4242 C 389.398 -3.26867 2.76301 0
M  V30 4243 C 388.724 -4.66196 2.61849 0
M  V30 4244 C 390.024 -3.13186 4.17986 0
M  V30 4245 H 391.718 -1.56502 2.5524 0
M  V30 4246 H 389.264 -0.751486 1.22836 0
M  V30 4247 H 391.217 -3.8516 1.70968 0
M  V30 4248 H 389.941 -3.2004 0.651287 0
M  V30 4249 H 388.6 -2.51237 2.66975 0
M  V30 4250 H 388.248 -4.75898 1.62879 0
M  V30 4251 H 387.948 -4.80356 3.38425 0
M  V30 4252 H 389.472 -5.46379 2.72584 0
M  V30 4253 H 390.886 -3.81049 4.2834 0
M  V30 4254 H 389.283 -3.3886 4.95272 0
M  V30 4255 H 390.353 -2.10057 4.3704 0
M  V30 4256 N 391.696 -1.35014 -0.812953 0
M  V30 4257 C 392.659 -1.27292 -1.90602 0
M  V30 4258 C 393.659 -0.185817 -1.59723 0
M  V30 4259 O 394.849 -0.439102 -1.68575 0
M  V30 4260 C 391.981 -0.967676 -3.26877 0
M  V30 4261 H 393.174 -2.24479 -1.9887 0
M  V30 4262 H 390.727 -1.19446 -1.00808 0
M  V30 4263 H 391.462 0.0005954 -3.243 0
M  V30 4264 H 391.247 -1.75412 -3.50675 0
M  V30 4265 H 392.737 -0.939085 -4.06904 0
M  V30 4266 N 393.175 1.03435 -1.18907 0
M  V30 4267 C 394.403 1.80381 -1.01342 0
M  V30 4268 C 394.818 1.83649 0.438005 0
M  V30 4269 O 394.175 1.27655 1.30424 0
M  V30 4270 C 394.226 3.25689 -1.56873 0
M  V30 4271 O 393.947 3.22673 -2.96334 0
M  V30 4272 C 395.448 4.19255 -1.44014 0
M  V30 4273 H 392.668 0.56784 -0.35749 0
M  V30 4274 H 395.212 1.30317 -1.576 0
M  V30 4275 H 393.367 3.72962 -1.04777 0
M  V30 4276 H 393.781 4.13748 -3.22355 0
M  V30 4277 H 395.255 5.19123 -1.87657 0
M  V30 4278 H 395.732 4.37467 -0.389815 0
M  V30 4279 H 396.338 3.77851 -1.95214 0
M  V30 4280 N 394.653 0.992116 1.22453 0
M  V30 4281 C 395.93 0.583508 1.86694 0
M  V30 4282 C 396.31 -0.9392 1.89056 0
M  V30 4283 O 395.658 -1.82081 1.38053 0
M  V30 4284 C 395.868 1.20304 3.2761 0
M  V30 4285 C 397.216 1.30308 4.0411 0
M  V30 4286 O 398.24 1.15737 3.36873 0
M  V30 4287 O 397.099 1.53615 5.24466 0
M  V30 4288 H 394.193 0.198129 0.802916 0
M  V30 4289 H 396.739 1.08794 1.30238 0
M  V30 4290 H 395.511 2.24461 3.2052 0
M  V30 4291 H 395.134 0.684144 3.9167 0
M  V30 4292 N 396.131 -1.37776 0.765217 0
M  V30 4293 C 397.378 -1.99849 0.326588 0
M  V30 4294 C 397.706 -1.60746 -1.09504 0
M  V30 4295 O 396.961 -0.84202 -1.76659 0
M  V30 4296 C 397.26 -3.5504 0.410053 0
M  V30 4297 C 396.926 -4.13891 1.78899 0
M  V30 4298 C 395.588 -4.29678 2.16635 0
M  V30 4299 C 397.94 -4.46236 2.69301 0
M  V30 4300 C 395.268 -4.7511 3.44221 0
M  V30 4301 C 397.62 -4.93089 3.9629 0
M  V30 4302 C 396.284 -5.07082 4.34078 0
M  V30 4303 H 395.554 -0.7313 0.119507 0
M  V30 4304 H 398.201 -1.64645 0.977968 0
M  V30 4305 H 396.506 -3.90451 -0.324878 0
M  V30 4306 H 398.203 -4.00966 0.0520699 0
M  V30 4307 H 394.793 -4.02026 1.48569 0
M  V30 4308 H 398.977 -4.3363 2.41409 0
M  V30 4309 H 394.233 -4.84129 3.73402 0
M  V30 4310 H 398.407 -5.17084 4.66472 0
M  V30 4311 H 396.034 -5.42046 5.33001 0
M  V30 4312 N 397.609 -0.515225 -1.4894 0
M  V30 4313 C 398.858 0.0261361 -2.01683 0
M  V30 4314 C 399.171 1.36719 -1.39883 0
M  V30 4315 O 400.377 1.99606 -1.84037 0
M  V30 4316 C 398.833 0.0970111 -3.59769 0
M  V30 4317 C 398.441 -1.23825 -4.30548 0
M  V30 4318 C 400.185 0.587981 -4.20408 0
M  V30 4319 C 398.092 -1.12877 -5.80528 0
M  V30 4320 H 397.022 0.0135398 -0.753878 0
M  V30 4321 H 399.673 -0.656787 -1.71343 0
M  V30 4322 H 398.055 0.844694 -3.86886 0
M  V30 4323 H 399.229 -2.00034 -4.15118 0
M  V30 4324 H 397.544 -1.66379 -3.81716 0
M  V30 4325 H 400.141 0.68763 -5.3026 0
M  V30 4326 H 400.484 1.59026 -3.84729 0
M  V30 4327 H 401.017 -0.103582 -3.97665 0
M  V30 4328 H 397.756 -2.10575 -6.20756 0
M  V30 4329 H 397.276 -0.407799 -5.98412 0
M  V30 4330 H 398.955 -0.813332 -6.41868 0
M  V30 4331 N 399.087 1.5561 -0.249682 0
M  V30 4332 C 400.019 2.18834 0.681496 0
M  V30 4333 C 401.032 1.16546 1.1367 0
M  V30 4334 O 402.221 1.43397 1.06299 0
M  V30 4335 C 399.321 2.77992 1.9384 0
M  V30 4336 C 398.494 4.05725 1.63419 0
M  V30 4337 C 397.553 4.49174 2.74096 0
M  V30 4338 O 396.579 5.15492 2.41364 0
M  V30 4339 N 397.781 4.17191 4.03649 0
M  V30 4340 H 400.546 2.9937 0.140514 0
M  V30 4341 H 398.107 1.6175 -0.0697541 0
M  V30 4342 H 400.099 3.04015 2.67127 0
M  V30 4343 H 398.669 2.01596 2.38909 0
M  V30 4344 H 397.889 3.87261 0.736358 0
M  V30 4345 H 399.177 4.88999 1.40562 0
M  V30 4346 H 398.575 3.63955 4.33074 0
M  V30 4347 H 397.132 4.48043 4.73393 0
M  V30 4348 N 400.565 -0.0233959 1.57583 0
M  V30 4349 C 401.79 -0.728376 1.94189 0
M  V30 4350 C 402.215 -1.67793 0.850119 0
M  V30 4351 O 401.573 -1.80262 -0.19371 0
M  V30 4352 C 401.621 -1.45669 3.29868 0
M  V30 4353 O 400.725 -2.57013 3.22518 0
M  V30 4354 H 400.066 -0.195493 0.63457 0
M  V30 4355 H 402.596 0.0228214 2.04587 0
M  V30 4356 H 402.606 -1.82535 3.6489 0
M  V30 4357 H 401.281 -0.760314 4.08891 0
M  V30 4358 H 399.858 -2.22648 2.99136 0
M  V30 4359 N 402.043 -1.548 -0.295768 0
M  V30 4360 C 402.973 -1.89115 -1.36959 0
M  V30 4361 C 403.954 -0.75059 -1.52644 0
M  V30 4362 O 405.139 -1.00678 -1.66065 0
M  V30 4363 C 402.269 -2.14307 -2.73295 0
M  V30 4364 C 401.223 -3.30151 -2.72368 0
M  V30 4365 C 400.549 -3.40772 -4.12042 0
M  V30 4366 C 401.849 -4.67126 -2.33646 0
M  V30 4367 H 403.543 -2.79053 -1.08488 0
M  V30 4368 H 401.089 -1.34266 -0.520443 0
M  V30 4369 H 403.042 -2.36898 -3.48507 0
M  V30 4370 H 401.766 -1.21145 -3.03301 0
M  V30 4371 H 400.425 -3.0749 -1.99613 0
M  V30 4372 H 400.073 -2.45117 -4.39234 0
M  V30 4373 H 399.773 -4.18645 -4.12322 0
M  V30 4374 H 401.297 -3.6563 -4.89027 0
M  V30 4375 H 402.711 -4.89414 -2.98575 0
M  V30 4376 H 401.108 -5.47751 -2.45129 0
M  V30 4377 H 402.178 -4.67489 -1.28772 0
M  V30 4378 N 403.521 0.559213 -1.47345 0
M  V30 4379 C 404.451 1.67622 -1.62558 0
M  V30 4380 C 405.432 1.63331 -0.475087 0
M  V30 4381 O 406.617 1.80983 -0.704182 0
M  V30 4382 C 403.747 3.0626 -1.63774 0
M  V30 4383 C 402.701 3.25397 -2.7803 0
M  V30 4384 C 402.027 4.64801 -2.64318 0
M  V30 4385 C 403.327 3.10965 -4.19641 0
M  V30 4386 H 405.021 1.55146 -2.56067 0
M  V30 4387 H 402.567 0.744961 -1.23233 0
M  V30 4388 H 404.52 3.84247 -1.73008 0
M  V30 4389 H 403.244 3.1969 -0.66825 0
M  V30 4390 H 401.903 2.49817 -2.68304 0
M  V30 4391 H 401.551 4.75028 -1.65401 0
M  V30 4392 H 401.251 4.78555 -3.40968 0
M  V30 4393 H 402.775 5.44926 -2.75478 0
M  V30 4394 H 404.189 3.78772 -4.30354 0
M  V30 4395 H 402.586 3.36229 -4.97062 0
M  V30 4396 H 403.656 2.07736 -4.38148 0
M  V30 4397 N 404.999 1.35443 0.805782 0
M  V30 4398 C 406.245 1.28952 1.56522 0
M  V30 4399 C 406.578 -0.135597 1.93726 0
M  V30 4400 O 405.853 -1.08516 1.61414 0
M  V30 4401 C 406.136 2.19678 2.85331 0
M  V30 4402 C 405.989 3.7081 2.54598 0
M  V30 4403 C 407.308 2.09495 3.8704 0
M  V30 4404 H 404.427 0.469764 0.567883 0
M  V30 4405 H 407.069 1.65851 0.927001 0
M  V30 4406 H 405.219 1.8834 3.39795 0
M  V30 4407 H 406.891 4.12593 2.06312 0
M  V30 4408 H 405.134 3.91051 1.8778 0
M  V30 4409 H 405.805 4.29679 3.46525 0
M  V30 4410 H 408.281 2.37045 3.41978 0
M  V30 4411 H 407.157 2.75173 4.74943 0
M  V30 4412 H 407.418 1.07714 4.28777 0
M  V30 4413 N 406.477 -1.02803 1.19454 0
M  V30 4414 C 407.424 -2.11099 0.933046 0
M  V30 4415 C 408.394 -1.65571 -0.132447 0
M  V30 4416 O 409.579 -1.90797 0.00987576 0
M  V30 4417 C 406.719 -3.41763 0.478747 0
M  V30 4418 C 405.832 -4.00833 1.6111 0
M  V30 4419 C 404.967 -5.19511 1.10825 0
M  V30 4420 C 404.006 -5.70639 2.21445 0
M  V30 4421 N 403.143 -6.80589 1.72461 0
M  V30 4422 H 407.983 -2.32804 1.86028 0
M  V30 4423 H 405.52 -1.14179 0.927441 0
M  V30 4424 H 407.478 -4.16736 0.196745 0
M  V30 4425 H 406.108 -3.20166 -0.411493 0
M  V30 4426 H 405.16 -3.23066 2.00829 0
M  V30 4427 H 406.472 -4.34794 2.4445 0
M  V30 4428 H 405.626 -6.01645 0.781533 0
M  V30 4429 H 404.365 -4.87086 0.244606 0
M  V30 4430 H 403.37 -4.87116 2.54947 0
M  V30 4431 H 404.595 -6.05102 3.08267 0
M  V30 4432 H 402.541 -6.50016 0.884056 0
M  V30 4433 H 402.458 -7.13681 2.49389 0
M  V30 4434 H 403.726 -7.66317 1.42755 0
M  V30 4435 N 407.956 -0.998596 -1.21925 0
M  V30 4436 C 408.904 -0.546641 -2.26085 0
M  V30 4437 C 409.898 0.405576 -1.64473 0
M  V30 4438 O 411.104 0.277471 -1.77849 0
M  V30 4439 H 407.479 -0.158403 -0.735127 0
M  V30 4440 H 409.45 -1.43645 -2.61551 0
M  V30 4441 C 408.199 0.117388 -3.47502 0
M  V30 4442 H 407.522 -0.606277 -3.95176 0
M  V30 4443 H 408.962 0.396993 -4.22137 0
M  V30 4444 C 407.421 1.35455 -3.0847 0
M  V30 4445 O 407.951 2.44944 -3.18379 0
M  V30 4446 N 406.157 1.23191 -2.63196 0
M  V30 4447 H 405.704 0.341006 -2.55333 0
M  V30 4448 H 405.662 2.06071 -2.37449 0
M  V30 4449 N 409.434 1.37368 -0.772513 0
M  V30 4450 C 410.845 1.8231 -0.402493 0
M  V30 4451 C 411.196 1.6436 1.07146 0
M  V30 4452 O 410.321 1.15514 1.82991 0
M  V30 4453 C 410.916 3.30979 -0.723776 0
M  V30 4454 C 409.475 3.74195 -0.406802 0
M  V30 4455 C 408.622 2.59885 -0.967218 0
M  V30 4456 H 411.573 1.25829 -0.967099 0
M  V30 4457 H 411.594 3.80499 -0.00870832 0
M  V30 4458 H 411.106 3.44011 -1.7966 0
M  V30 4459 H 409.207 3.66732 0.658673 0
M  V30 4460 H 409.32 4.7027 -0.915588 0
M  V30 4461 H 407.684 2.51674 -0.391416 0
M  V30 4462 H 408.467 2.7571 -2.04546 0
M  V30 4463 N 410.912 0.523116 1.48665 0
M  V30 4464 C 411.822 -0.247406 2.33292 0
M  V30 4465 C 412.838 -0.945769 1.46052 0
M  V30 4466 O 414.014 -0.922253 1.79043 0
M  V30 4467 C 411.079 -1.28487 3.22012 0
M  V30 4468 C 410.14 -0.597592 4.2512 0
M  V30 4469 C 409.373 -1.58563 5.09601 0
M  V30 4470 O 409.596 -2.81763 4.95949 0
M  V30 4471 O 408.53 -1.12879 5.91221 0
M  V30 4472 H 412.356 0.445869 3.00409 0
M  V30 4473 H 409.941 0.284128 1.46673 0
M  V30 4474 H 411.823 -1.88459 3.7691 0
M  V30 4475 H 410.498 -1.96068 2.57564 0
M  V30 4476 H 409.405 0.0424407 3.74076 0
M  V30 4477 H 410.738 0.0361517 4.92187 0
M  V30 4478 N 412.39 -1.55475 0.257931 0
M  V30 4479 C 413.337 -2.21837 -0.636939 0
M  V30 4480 C 414.307 -1.18596 -1.16294 0
M  V30 4481 O 415.492 -1.47081 -1.21539 0
M  V30 4482 C 412.632 -2.9301 -1.82317 0
M  V30 4483 C 411.745 -4.10931 -1.33265 0
M  V30 4484 C 410.88 -4.69791 -2.47931 0
M  V30 4485 C 409.919 -5.7994 -1.95796 0
M  V30 4486 N 409.056 -6.32935 -3.0387 0
M  V30 4487 H 413.896 -2.9793 -0.0643591 0
M  V30 4488 H 411.433 -1.47086 -0.0200031 0
M  V30 4489 H 413.391 -3.3248 -2.52018 0
M  V30 4490 H 412.021 -2.1937 -2.36805 0
M  V30 4491 H 411.073 -3.76699 -0.52931 0
M  V30 4492 H 412.385 -4.90417 -0.910654 0
M  V30 4493 H 411.539 -5.11892 -3.25656 0
M  V30 4494 H 410.278 -3.89545 -2.93438 0
M  V30 4495 H 409.283 -5.37305 -1.16546 0
M  V30 4496 H 410.508 -6.62043 -1.51246 0
M  V30 4497 H 408.454 -5.55591 -3.48791 0
M  V30 4498 H 408.371 -7.07645 -2.66035 0
M  V30 4499 H 409.639 -6.79695 -3.81621 0
M  V30 4500 N 413.868 0.0150385 -1.57593 0
M  V30 4501 C 415.284 0.370907 -1.5523 0
M  V30 4502 C 415.484 1.75735 -0.985882 0
M  V30 4503 O 414.54 2.44944 -0.613077 0
M  V30 4504 C 415.853 0.259908 -2.99575 0
M  V30 4505 C 417.401 0.335959 -3.11192 0
M  V30 4506 C 417.876 0.254253 -4.57294 0
M  V30 4507 N 419.367 0.312618 -4.62144 0
M  V30 4508 C 420.102 0.272505 -5.72752 0
M  V30 4509 N 419.598 0.183864 -6.92556 0
M  V30 4510 N 421.391 0.323267 -5.6117 0
M  V30 4511 H 413.542 -0.892104 -1.92757 0
M  V30 4512 H 415.805 -0.340563 -0.884715 0
M  V30 4513 H 415.511 -0.693403 -3.44797 0
M  V30 4514 H 415.385 1.048 -3.62349 0
M  V30 4515 H 417.772 1.27971 -2.65909 0
M  V30 4516 H 417.853 -0.481739 -2.51223 0
M  V30 4517 H 417.497 -0.685887 -5.03247 0
M  V30 4518 H 417.427 1.09024 -5.15191 0
M  V30 4519 H 419.918 0.38307 -3.75953 0
M  V30 4520 H 420.231 0.15874 -7.72637 0
M  V30 4521 H 418.576 0.149708 -6.94839 0
M  V30 4522 H 421.767 0.390607 -4.66467 0
M  V30 4523 H 421.94 0.288539 -6.47357 0
M  V30 4524 N 415.346 1.54954 0.287554 0
M  V30 4525 C 416.757 1.65732 0.859634 0
M  V30 4526 C 417.108 0.574767 1.87592 0
M  V30 4527 O 416.233 -0.286299 2.14498 0
M  V30 4528 C 416.828 3.00438 1.56597 0
M  V30 4529 C 415.387 3.13292 2.08627 0
M  V30 4530 C 414.534 2.61473 0.923416 0
M  V30 4531 H 417.485 1.5857 0.0642338 0
M  V30 4532 H 417.506 2.92613 2.43224 0
M  V30 4533 H 417.018 3.79207 0.826053 0
M  V30 4534 H 415.119 2.39268 2.85625 0
M  V30 4535 H 415.232 4.19647 2.31157 0
M  V30 4536 H 413.596 2.18264 1.31275 0
M  V30 4537 H 414.379 3.42733 0.197241 0
M  V30 4538 N 416.824 -0.551391 1.4764 0
M  V30 4539 C 418.052 -1.33357 1.58189 0
M  V30 4540 C 418.467 -1.87342 0.234199 0
M  V30 4541 O 417.824 -1.65301 -0.77343 0
M  V30 4542 C 417.875 -2.49942 2.61173 0
M  V30 4543 O 417.596 -1.98187 3.90709 0
M  V30 4544 C 419.097 -3.42072 2.8196 0
M  V30 4545 H 416.317 -0.40631 0.533998 0
M  V30 4546 H 418.861 -0.667367 1.93304 0
M  V30 4547 H 417.016 -3.12489 2.28975 0
M  V30 4548 H 417.43 -2.74342 4.47031 0
M  V30 4549 H 418.904 -4.20278 3.57869 0
M  V30 4550 H 419.381 -3.95978 1.89995 0
M  V30 4551 H 419.987 -2.85336 3.15378 0
M  V30 4552 N 418.302 -1.35869 -0.798587 0
M  V30 4553 C 419.265 -1.29307 -1.89242 0
M  V30 4554 C 420.265 -0.202747 -1.59517 0
M  V30 4555 O 421.455 -0.456957 -1.681 0
M  V30 4556 C 418.587 -1.00229 -3.25833 0
M  V30 4557 H 419.78 -2.26576 -1.96478 0
M  V30 4558 H 417.333 -1.20509 -0.995358 0
M  V30 4559 H 418.068 -0.033801 -3.24282 0
M  V30 4560 H 417.853 -1.79121 -3.48795 0
M  V30 4561 H 419.343 -0.98219 -4.05885 0
M  V30 4562 N 419.78 1.02168 -1.19998 0
M  V30 4563 C 420.69 2.14069 -0.959774 0
M  V30 4564 C 421.706 1.73804 0.082655 0
M  V30 4565 O 422.882 2.01133 -0.103633 0
M  V30 4566 C 419.947 3.42936 -0.509459 0
M  V30 4567 C 419.008 3.97474 -1.62213 0
M  V30 4568 C 418.241 5.2019 -1.19321 0
M  V30 4569 O 418.464 5.70369 -0.0597726 0
M  V30 4570 O 417.398 5.67749 -1.99863 0
M  V30 4571 H 421.224 2.37199 -1.89658 0
M  V30 4572 H 418.809 1.12469 -0.983411 0
M  V30 4573 H 420.691 4.20551 -0.267322 0
M  V30 4574 H 419.366 3.21234 0.398821 0
M  V30 4575 H 418.273 3.21161 -1.9185 0
M  V30 4576 H 419.606 4.23555 -2.50723 0
M  V30 4577 N 421.258 1.00505 1.21394 0
M  V30 4578 C 422.507 0.683159 1.89778 0
M  V30 4579 C 422.82 -0.789471 1.7896 0
M  V30 4580 O 424.026 -1.22344 2.42372 0
M  V30 4581 C 422.482 1.17146 3.40301 0
M  V30 4582 C 422.09 2.67017 3.5973 0
M  V30 4583 C 423.834 0.924461 4.14311 0
M  V30 4584 C 421.741 3.09387 5.04017 0
M  V30 4585 H 420.671 0.25183 0.710702 0
M  V30 4586 H 423.322 1.21622 1.37406 0
M  V30 4587 H 421.704 0.566451 3.91928 0
M  V30 4588 H 422.878 3.32968 3.18542 0
M  V30 4589 H 421.193 2.89732 2.99073 0
M  V30 4590 H 423.79 1.21658 5.20676 0
M  V30 4591 H 424.133 -0.139286 4.16067 0
M  V30 4592 H 424.666 1.49226 3.6875 0
M  V30 4593 H 421.405 4.14989 5.07409 0
M  V30 4594 H 420.925 2.48149 5.46061 0
M  V30 4595 H 422.604 3.01371 5.72525 0
M  V30 4596 N 422.737 -1.36956 0.779787 0
M  V30 4597 C 423.977 -2.01328 0.353043 0
M  V30 4598 C 424.341 -1.60558 -1.05286 0
M  V30 4599 O 425.542 -2.1745 -1.58016 0
M  V30 4600 C 423.813 -3.53874 0.500822 0
M  V30 4601 S 425.372 -4.38506 0.16053 0
M  V30 4602 H 422.19 -0.69799 0.13539 0
M  V30 4603 H 424.792 -1.67016 1.01617 0
M  V30 4604 H 423.496 -3.81034 1.52451 0
M  V30 4605 H 423.027 -3.92994 -0.178574 0
M  V30 4606 H 425.042 -4.85153 -1.04121 0
M  V30 4607 N 424.215 -0.530993 -1.48385 0
M  V30 4608 C 425.145 0.219985 -2.32461 0
M  V30 4609 C 426.126 0.934111 -1.42156 0
M  V30 4610 O 427.311 0.919694 -1.71042 0
M  V30 4611 C 424.441 1.26674 -3.23375 0
M  V30 4612 C 423.395 0.67069 -4.22712 0
M  V30 4613 C 422.721 1.82017 -5.02766 0
M  V30 4614 C 424.021 -0.358268 -5.2107 0
M  V30 4615 H 425.715 -0.48187 -2.95497 0
M  V30 4616 H 423.261 -0.233182 -1.42099 0
M  V30 4617 H 425.214 1.80006 -3.81019 0
M  V30 4618 H 423.938 1.99818 -2.58341 0
M  V30 4619 H 422.597 0.158878 -3.66256 0
M  V30 4620 H 422.245 2.54002 -4.34157 0
M  V30 4621 H 421.945 1.42727 -5.70003 0
M  V30 4622 H 423.469 2.35725 -5.63264 0
M  V30 4623 H 424.883 0.0880081 -5.73232 0
M  V30 4624 H 423.28 -0.66861 -5.96364 0
M  V30 4625 H 424.35 -1.26367 -4.68145 0
M  V30 4626 N 425.693 1.55336 -0.266172 0
M  V30 4627 C 426.918 2.04258 0.359661 0
M  V30 4628 C 427.343 1.14359 1.49344 0
M  V30 4629 O 426.701 0.140369 1.80756 0
M  V30 4630 C 426.749 3.50997 0.826635 0
M  V30 4631 O 425.853 3.64204 1.93466 0
M  V30 4632 H 425.194 0.659668 0.075727 0
M  V30 4633 H 427.724 2.00694 -0.39786 0
M  V30 4634 H 427.734 3.9219 1.12477 0
M  V30 4635 H 426.409 4.159 -0.00293032 0
M  V30 4636 H 424.986 3.34913 1.63974 0
M  V30 4637 N 427.171 -0.0066808 1.57599 0
M  V30 4638 C 428.121 -1.0086 2.04478 0
M  V30 4639 C 429.105 -1.30714 0.938231 0
M  V30 4640 O 430.297 -1.29924 1.20203 0
M  V30 4641 C 427.426 -2.30273 2.54615 0
M  V30 4642 C 426.512 -2.03413 3.72134 0
M  V30 4643 N 426.903 -1.46688 4.84062 0
M  V30 4644 C 425.201 -2.33589 3.79937 0
M  V30 4645 C 425.902 -1.36146 5.65543 0
M  V30 4646 N 424.878 -1.84477 5.1134 0
M  V30 4647 H 428.68 -0.564402 2.8843 0
M  V30 4648 H 426.194 -0.212521 1.61003 0
M  V30 4649 H 428.191 -3.02885 2.86472 0
M  V30 4650 H 426.851 -2.75352 1.72079 0
M  V30 4651 H 427.862 -1.14658 5.05049 0
M  V30 4652 H 424.539 -2.81589 3.08243 0
M  V30 4653 H 425.929 -0.925873 6.6549 0
M  V30 4654 N 428.649 -1.55105 -0.279332 0
M  V30 4655 C 429.874 -1.7976 -1.03446 0
M  V30 4656 C 430.299 -0.565952 -1.79384 0
M  V30 4657 O 429.657 0.484259 -1.74713 0
M  V30 4658 C 429.705 -3.0179 -1.97371 0
M  V30 4659 O 428.809 -2.76432 -3.06038 0
M  V30 4660 H 428.15 -0.594334 -0.29608 0
M  V30 4661 H 430.68 -2.02235 -0.310165 0
M  V30 4662 H 430.69 -3.30351 -2.39441 0
M  V30 4663 H 429.365 -3.91085 -1.4151 0
M  V30 4664 H 427.942 -2.58949 -2.68328 0
M  V30 4665 N 430.127 0.543554 -1.4793 0
M  V30 4666 C 431.373 1.29961 -1.56466 0
M  V30 4667 C 431.728 1.91024 -0.229696 0
M  V30 4668 O 431.021 1.75619 0.766072 0
M  V30 4669 C 431.215 2.42078 -2.62932 0
M  V30 4670 C 431.044 1.92003 -4.06651 0
M  V30 4671 C 429.814 1.75223 -4.73946 0
M  V30 4672 C 432.012 1.45648 -4.93245 0
M  V30 4673 N 429.994 1.19632 -6.02131 0
M  V30 4674 C 431.365 1.01914 -6.11566 0
M  V30 4675 C 433.42 1.33826 -4.79578 0
M  V30 4676 C 432.123 0.475301 -7.17728 0
M  V30 4677 C 434.149 0.808427 -5.85848 0
M  V30 4678 C 433.511 0.381081 -7.03368 0
M  V30 4679 H 429.61 0.467086 -0.62718 0
M  V30 4680 H 432.194 0.614543 -1.84747 0
M  V30 4681 H 430.365 3.08098 -2.36496 0
M  V30 4682 H 432.097 3.09096 -2.61231 0
M  V30 4683 H 428.852 1.98345 -4.30065 0
M  V30 4684 H 429.276 0.93885 -6.70458 0
M  V30 4685 H 433.918 1.65474 -3.89074 0
M  V30 4686 H 431.636 0.146472 -8.07967 0
M  V30 4687 H 435.222 0.720315 -5.77324 0
M  V30 4688 H 434.102 -0.0225344 -7.84197 0
M  V30 4689 N 431.605 1.3629 0.791371 0
M  V30 4690 C 432.535 1.33137 1.91825 0
M  V30 4691 C 433.516 0.203168 1.68882 0
M  V30 4692 O 434.701 0.400509 1.90025 0
M  V30 4693 C 431.831 1.11793 3.28816 0
M  V30 4694 C 430.785 2.21417 3.66277 0
M  V30 4695 C 430.111 1.85218 5.01596 0
M  V30 4696 C 431.411 3.63489 3.75064 0
M  V30 4697 H 433.105 2.2743 1.9472 0
M  V30 4698 H 430.651 1.09479 0.935437 0
M  V30 4699 H 432.604 1.08222 4.07266 0
M  V30 4700 H 431.328 0.139501 3.26302 0
M  V30 4701 H 429.987 2.2411 2.90121 0
M  V30 4702 H 429.635 0.859544 4.95602 0
M  V30 4703 H 429.335 2.58611 5.27631 0
M  V30 4704 H 430.859 1.832 5.82469 0
M  V30 4705 H 432.273 3.63034 4.43711 0
M  V30 4706 H 430.67 4.35771 4.12582 0
M  V30 4707 H 431.74 3.98536 2.76219 0
M  V30 4708 N 433.083 -1.0153 1.20538 0
M  V30 4709 C 434.015 -2.10224 0.913155 0
M  V30 4710 C 435.028 -1.62495 -0.0995998 0
M  V30 4711 O 436.217 -1.78014 0.131582 0
M  V30 4712 C 433.317 -3.37111 0.347717 0
M  V30 4713 C 432.49 -4.13971 1.41233 0
M  V30 4714 C 431.549 -5.19158 0.857976 0
M  V30 4715 O 430.575 -5.48 1.53897 0
M  V30 4716 N 431.777 -5.7955 -0.331966 0
M  V30 4717 H 434.542 -2.35879 1.84881 0
M  V30 4718 H 432.103 -1.17931 1.10923 0
M  V30 4719 H 434.095 -4.04683 -0.0373026 0
M  V30 4720 H 432.665 -3.08696 -0.492527 0
M  V30 4721 H 431.885 -3.41351 1.97163 0
M  V30 4722 H 433.173 -4.62103 2.12928 0
M  V30 4723 H 432.571 -5.58455 -0.902478 0
M  V30 4724 H 431.128 -6.48464 -0.65861 0
M  V30 4725 N 434.561 -1.01147 -1.20859 0
M  V30 4726 C 435.493 -0.535546 -2.22855 0
M  V30 4727 C 436.506 0.379323 -1.58319 0
M  V30 4728 O 437.695 0.178489 -1.77605 0
M  V30 4729 C 434.795 0.240962 -3.38042 0
M  V30 4730 C 433.968 -0.674562 -4.32167 0
M  V30 4731 C 433.027 0.053467 -5.26173 0
M  V30 4732 O 432.053 -0.567339 -5.66366 0
M  V30 4733 N 433.255 1.32997 -5.65059 0
M  V30 4734 H 436.02 -1.41268 -2.64317 0
M  V30 4735 H 433.581 -0.888386 -1.35349 0
M  V30 4736 H 435.573 0.737115 -3.97931 0
M  V30 4737 H 434.143 1.01935 -2.95513 0
M  V30 4738 H 433.363 -1.35111 -3.70322 0
M  V30 4739 H 434.651 -1.2974 -4.91981 0
M  V30 4740 H 434.049 1.85536 -5.34409 0
M  V30 4741 H 432.606 1.77095 -6.2728 0
M  V30 4742 N 436.039 1.36541 -0.78704 0
M  V30 4743 C 437.285 2.00044 -0.367938 0
M  V30 4744 C 437.64 1.61345 1.04812 0
M  V30 4745 O 436.933 0.856936 1.71368 0
M  V30 4746 C 437.127 3.54343 -0.466485 0
M  V30 4747 C 436.956 4.08029 -1.89058 0
M  V30 4748 C 435.726 4.38284 -2.51466 0
M  V30 4749 C 437.924 4.27954 -2.85236 0
M  V30 4750 N 435.906 4.77778 -3.85488 0
M  V30 4751 C 437.277 4.70227 -4.04088 0
M  V30 4752 C 439.332 4.10119 -2.82324 0
M  V30 4753 C 438.035 4.96532 -5.20432 0
M  V30 4754 C 440.061 4.37569 -3.97854 0
M  V30 4755 C 439.423 4.80095 -5.15449 0
M  V30 4756 H 435.522 0.760525 -0.182004 0
M  V30 4757 H 438.106 1.65589 -1.02413 0
M  V30 4758 H 436.277 3.88072 0.159606 0
M  V30 4759 H 438.009 4.04693 -0.0238577 0
M  V30 4760 H 434.764 4.27905 -2.02965 0
M  V30 4761 H 435.188 5.01813 -4.54437 0
M  V30 4762 H 439.83 3.76399 -1.92571 0
M  V30 4763 H 437.548 5.29134 -6.10773 0
M  V30 4764 H 441.134 4.25341 -3.96958 0
M  V30 4765 H 440.014 5.00925 -6.0336 0
M  V30 4766 N 437.518 0.538854 1.48102 0
M  V30 4767 C 438.795 -0.0568108 1.95517 0
M  V30 4768 C 439.175 -1.50408 1.48124 0
M  V30 4769 O 438.523 -2.17133 0.711727 0
M  V30 4770 C 438.733 0.0696262 3.48931 0
M  V30 4771 C 440.081 -0.0851202 4.24515 0
M  V30 4772 O 441.105 -0.0037347 3.562 0
M  V30 4773 O 439.964 -0.257025 5.45895 0
M  V30 4774 H 437.058 -0.0743695 0.823649 0
M  V30 4775 H 439.604 0.604081 1.58584 0
M  V30 4776 H 438.376 1.07744 3.76174 0
M  V30 4777 H 437.999 -0.629714 3.92582 0
M  V30 4778 N 438.996 -1.55193 0.274407 0
M  V30 4779 C 440.243 -1.99581 -0.342579 0
M  V30 4780 C 440.571 -1.1628 -1.55914 0
M  V30 4781 O 439.826 -0.22029 -1.94456 0
M  V30 4782 C 440.125 -3.49019 -0.769458 0
M  V30 4783 C 439.791 -4.49598 0.342389 0
M  V30 4784 C 438.453 -4.76821 0.647686 0
M  V30 4785 C 440.805 -5.0964 1.09163 0
M  V30 4786 C 438.133 -5.61354 1.70581 0
M  V30 4787 C 440.485 -5.95323 2.13948 0
M  V30 4788 C 439.149 -6.20867 2.45113 0
M  V30 4789 H 438.419 -0.730319 -0.125358 0
M  V30 4790 H 441.066 -1.87529 0.387971 0
M  V30 4791 H 439.371 -3.58544 -1.57967 0
M  V30 4792 H 441.068 -3.8077 -1.25757 0
M  V30 4793 H 437.658 -4.28496 0.094318 0
M  V30 4794 H 441.842 -4.88632 0.869024 0
M  V30 4795 H 437.098 -5.79392 1.9523 0
M  V30 4796 H 441.272 -6.40881 2.72478 0
M  V30 4797 H 438.899 -6.86162 3.27239 0
M  V30 4798 N 440.474 -0.00167713 -1.576 0
M  V30 4799 C 441.384 1.00548 -2.1196 0
M  V30 4800 C 442.4 1.3758 -1.06526 0
M  V30 4801 O 443.576 1.46278 -1.38436 0
M  V30 4802 C 440.641 2.27809 -2.6135 0
M  V30 4803 C 439.702 1.97074 -3.81393 0
M  V30 4804 C 438.935 3.18267 -4.28417 0
M  V30 4805 O 439.158 4.30009 -3.74765 0
M  V30 4806 O 438.092 3.02167 -5.20556 0
M  V30 4807 H 441.918 0.573373 -2.98238 0
M  V30 4808 H 439.503 0.217255 -1.47812 0
M  V30 4809 H 441.385 3.02568 -2.93309 0
M  V30 4810 H 440.06 2.70254 -1.78169 0
M  V30 4811 H 438.967 1.19785 -3.54404 0
M  V30 4812 H 440.3 1.59464 -4.65652 0
M  V30 4813 N 441.952 1.55251 0.271103 0
M  V30 4814 C 442.9 1.89054 1.35504 0
M  V30 4815 C 443.894 0.767064 1.51038 0
M  V30 4816 O 445.1 0.951429 1.528 0
M  V30 4817 H 441.475 0.600072 0.45323 0
M  V30 4818 H 443.446 2.79598 1.04247 0
M  V30 4819 C 442.195 2.18068 2.70817 0
M  V30 4820 H 441.518 3.04005 2.59656 0
M  V30 4821 H 442.958 2.4564 3.45597 0
M  V30 4822 C 441.417 0.988901 3.2206 0
M  V30 4823 O 441.947 0.224501 4.01072 0
M  V30 4824 N 440.153 0.786085 2.79766 0
M  V30 4825 H 439.7 1.40937 2.15626 0
M  V30 4826 H 439.658 -0.00969349 3.14399 0
M  V30 4827 N 443.43 -0.535701 1.48216 0
M  V30 4828 C 444.36 -1.65014 1.65204 0
M  V30 4829 C 445.341 -1.62554 0.501011 0
M  V30 4830 O 446.526 -1.7984 0.732886 0
M  V30 4831 C 443.656 -3.03616 1.68626 0
M  V30 4832 C 442.61 -3.20932 2.83172 0
M  V30 4833 C 441.936 -4.60537 2.71679 0
M  V30 4834 C 443.236 -3.04249 4.24535 0
M  V30 4835 H 444.93 -1.51053 2.58502 0
M  V30 4836 H 442.476 -0.725262 1.24402 0
M  V30 4837 H 444.429 -3.81446 1.79099 0
M  V30 4838 H 443.153 -3.18587 0.719026 0
M  V30 4839 H 441.812 -2.45517 2.72244 0
M  V30 4840 H 441.46 -4.72336 1.72937 0
M  V30 4841 H 441.16 -4.73069 3.48538 0
M  V30 4842 H 442.684 -5.40475 2.84112 0
M  V30 4843 H 444.098 -3.71877 4.36326 0
M  V30 4844 H 442.495 -3.28278 5.02348 0
M  V30 4845 H 443.565 -2.00739 4.41397 0
M  V30 4846 N 444.908 -1.36708 -0.784132 0
M  V30 4847 C 446.155 -1.31231 -1.54222 0
M  V30 4848 C 446.483 0.106864 -1.94206 0
M  V30 4849 O 445.738 1.07734 -1.63376 0
M  V30 4850 C 446.037 -2.18571 -2.82774 0
M  V30 4851 C 445.703 -3.67039 -2.61903 0
M  V30 4852 C 444.365 -4.07503 -2.55919 0
M  V30 4853 C 446.717 -4.61149 -2.4288 0
M  V30 4854 C 444.045 -5.40211 -2.28886 0
M  V30 4855 C 446.397 -5.94081 -2.17373 0
M  V30 4856 C 445.061 -6.33664 -2.09825 0
M  V30 4857 H 444.331 -0.48021 -0.56434 0
M  V30 4858 H 446.978 -1.68807 -0.904233 0
M  V30 4859 H 445.283 -1.73949 -3.51068 0
M  V30 4860 H 446.98 -2.11655 -3.40592 0
M  V30 4861 H 443.57 -3.34941 -2.67418 0
M  V30 4862 H 447.754 -4.30756 -2.46501 0
M  V30 4863 H 443.01 -5.69855 -2.21529 0
M  V30 4864 H 447.184 -6.66566 -2.01649 0
M  V30 4865 H 444.811 -7.36423 -1.88641 0
M  V30 4866 N 446.386 1.0089 -1.21074 0
M  V30 4867 C 447.336 2.0799 -0.934034 0
M  V30 4868 C 448.32 1.60529 0.10919 0
M  V30 4869 O 449.512 1.76722 -0.0992198 0
M  V30 4870 C 446.641 3.39693 -0.496334 0
M  V30 4871 C 445.727 3.93833 -1.57341 0
M  V30 4872 N 446.118 4.21388 -2.7976 0
M  V30 4873 C 444.416 4.22067 -1.44137 0
M  V30 4874 C 445.117 4.65156 -3.49292 0
M  V30 4875 N 444.093 4.67895 -2.76722 0
M  V30 4876 H 447.895 2.27213 -1.86417 0
M  V30 4877 H 445.409 1.18927 -1.10589 0
M  V30 4878 H 447.406 4.15962 -0.279471 0
M  V30 4879 H 446.066 3.21879 0.427084 0
M  V30 4880 H 447.077 4.10061 -3.1634 0
M  V30 4881 H 443.754 4.1341 -0.582947 0
M  V30 4882 H 445.144 4.95231 -4.54088 0
M  V30 4883 N 447.864 1.01787 1.20321 0
M  V30 4884 C 449.275 0.739307 1.71438 0
M  V30 4885 C 449.626 -0.742041 1.81627 0
M  V30 4886 O 448.751 -1.57903 1.47971 0
M  V30 4887 C 449.346 1.33538 3.11373 0
M  V30 4888 C 447.905 1.10566 3.59795 0
M  V30 4889 C 447.052 1.44028 2.36962 0
M  V30 4890 H 450.003 1.18718 1.05317 0
M  V30 4891 H 450.024 0.726611 3.73498 0
M  V30 4892 H 449.536 2.41352 3.03926 0
M  V30 4893 H 447.637 0.0452405 3.72573 0
M  V30 4894 H 447.75 1.78661 4.44542 0
M  V30 4895 H 446.114 0.85933 2.39766 0
M  V30 4896 H 446.897 2.52901 2.32155 0
M  V30 4897 N 449.342 -1.36122 0.79427 0
M  V30 4898 C 450.252 -2.33769 0.197296 0
M  V30 4899 C 451.268 -1.61276 -0.653153 0
M  V30 4900 O 452.444 -1.9323 -0.5678 0
M  V30 4901 C 449.509 -3.40474 -0.654098 0
M  V30 4902 C 448.57 -4.28759 0.215411 0
M  V30 4903 C 447.803 -5.30368 -0.595443 0
M  V30 4904 O 448.026 -5.40211 -1.83107 0
M  V30 4905 O 446.96 -6.019 0.00721351 0
M  V30 4906 H 450.786 -2.86597 1.00478 0
M  V30 4907 H 448.371 -1.38676 0.555818 0
M  V30 4908 H 450.253 -4.05703 -1.13944 0
M  V30 4909 H 448.928 -2.89937 -1.43938 0
M  V30 4910 H 447.835 -3.66554 0.747615 0
M  V30 4911 H 449.168 -4.82661 0.964332 0
M  V30 4912 N 450.82 -0.546701 -1.47814 0
M  V30 4913 C 451.73 0.21026 -2.33656 0
M  V30 4914 C 452.746 0.922413 -1.47538 0
M  V30 4915 O 453.922 0.893652 -1.80488 0
M  V30 4916 C 450.987 1.23348 -3.24016 0
M  V30 4917 C 450.048 0.529883 -4.26017 0
M  V30 4918 C 449.281 1.50435 -5.12059 0
M  V30 4919 O 449.504 2.73837 -5.00369 0
M  V30 4920 O 448.438 1.03459 -5.92942 0
M  V30 4921 H 452.264 -0.493605 -2.99662 0
M  V30 4922 H 449.849 -0.307427 -1.46203 0
M  V30 4923 H 451.731 1.82438 -3.79861 0
M  V30 4924 H 450.406 1.91945 -2.60651 0
M  V30 4925 H 449.313 -0.101948 -3.73961 0
M  V30 4926 H 450.646 -0.11445 -4.92067 0
M  V30 4927 N 452.299 1.55045 -0.282633 0
M  V30 4928 C 453.527 2.04168 0.33512 0
M  V30 4929 C 453.942 1.16071 1.48906 0
M  V30 4930 O 453.299 0.182391 1.81586 0
M  V30 4931 C 453.35 3.52332 0.808957 0
M  V30 4932 O 453.071 4.37078 -0.299038 0
M  V30 4933 C 454.572 4.17375 1.49375 0
M  V30 4934 H 451.792 0.666744 0.0754543 0
M  V30 4935 H 454.336 2.00205 -0.416918 0
M  V30 4936 H 452.491 3.56715 1.51106 0
M  V30 4937 H 452.905 5.24458 0.0665514 0
M  V30 4938 H 454.379 5.22627 1.77664 0
M  V30 4939 H 454.856 3.65999 2.42778 0
M  V30 4940 H 455.462 4.17016 0.835305 0
M  V30 4941 N 453.777 0.010035 1.57597 0
M  V30 4942 C 455.002 -0.687021 1.95691 0
M  V30 4943 C 455.427 -1.65952 0.885519 0
M  V30 4944 O 454.785 -1.80633 -0.15543 0
M  V30 4945 C 454.833 -1.3864 3.32884 0
M  V30 4946 O 453.937 -2.50115 3.27897 0
M  V30 4947 H 453.278 -0.181989 0.638573 0
M  V30 4948 H 455.808 0.0662122 2.04493 0
M  V30 4949 H 455.818 -1.74754 3.6868 0
M  V30 4950 H 454.493 -0.673411 4.10412 0
M  V30 4951 H 453.07 -2.16253 3.03791 0
M  V30 4952 N 455.255 -1.55392 -0.262866 0
M  V30 4953 C 456.48 -1.80847 -1.01533 0
M  V30 4954 C 456.905 -0.584946 -1.78774 0
M  V30 4955 O 456.263 0.465701 -1.75217 0
M  V30 4956 C 456.311 -3.03866 -1.94159 0
M  V30 4957 O 455.415 -2.79662 -3.03089 0
M  V30 4958 H 454.756 -0.597441 -0.289759 0
M  V30 4959 H 457.286 -2.02553 -0.288698 0
M  V30 4960 H 457.296 -3.32872 -2.35924 0
M  V30 4961 H 455.971 -3.92564 -1.37354 0
M  V30 4962 H 454.548 -2.61781 -2.65566 0
M  V30 4963 N 456.733 0.527833 -1.48498 0
M  V30 4964 C 457.958 1.313 -1.60546 0
M  V30 4965 C 458.383 1.86199 -0.26672 0
M  V30 4966 O 457.741 1.64513 0.761918 0
M  V30 4967 C 457.789 2.43818 -2.65678 0
M  V30 4968 O 456.893 3.46916 -2.22987 0
M  V30 4969 H 456.234 0.388784 -0.538277 0
M  V30 4970 H 458.764 0.634896 -1.945 0
M  V30 4971 H 458.774 2.89973 -2.87018 0
M  V30 4972 H 457.449 2.03222 -3.62869 0
M  V30 4973 H 456.026 3.06864 -2.11869 0
M  V30 4974 N 458.211 1.37122 0.776871 0
M  V30 4975 C 459.436 1.354 1.57104 0
M  V30 4976 C 459.861 -0.0595562 1.88006 0
M  V30 4977 O 459.219 -1.03514 1.48844 0
M  V30 4978 C 459.267 2.19472 2.8612 0
M  V30 4979 O 458.371 1.59582 3.80273 0
M  V30 4980 H 457.712 0.462869 0.476076 0
M  V30 4981 H 460.242 1.80577 0.961932 0
M  V30 4982 H 460.252 2.32502 3.35271 0
M  V30 4983 H 458.927 3.22222 2.62956 0
M  V30 4984 H 457.504 1.55564 3.38902 0
M  V30 4985 N 459.689 -1.00246 1.21608 0
M  V30 4986 C 460.621 -2.09244 0.935401 0
M  V30 4987 C 461.634 -1.62592 -0.0823594 0
M  V30 4988 O 462.823 -1.77865 0.150456 0
M  V30 4989 C 459.923 -3.36724 0.383453 0
M  V30 4990 C 459.096 -4.1245 1.45615 0
M  V30 4991 C 458.155 -5.18219 0.912991 0
M  V30 4992 O 457.181 -5.46337 1.59701 0
M  V30 4993 N 458.383 -5.7987 -0.270478 0
M  V30 4994 H 461.148 -2.33905 1.87373 0
M  V30 4995 H 458.709 -1.16748 1.12167 0
M  V30 4996 H 460.701 -4.047 0.00562157 0
M  V30 4997 H 459.271 -3.09201 -0.459758 0
M  V30 4998 H 458.491 -3.39241 2.00772 0
M  V30 4999 H 459.779 -4.59819 2.17817 0
M  V30 5000 H 459.177 -5.59381 -0.843195 0
M  V30 5001 H 457.734 -6.49126 -0.589794 0
M  V30 5002 N 461.167 -1.02423 -1.1978 0
M  V30 5003 C 462.395 -0.737456 -1.93311 0
M  V30 5004 C 462.81 0.703023 -1.75223 0
M  V30 5005 O 462.167 1.47761 -1.07112 0
M  V30 5006 C 462.218 -1.0733 -3.45199 0
M  V30 5007 O 461.939 -2.4572 -3.62702 0
M  V30 5008 C 463.44 -0.80866 -4.35862 0
M  V30 5009 H 460.66 -0.2702 -0.614193 0
M  V30 5010 H 463.204 -1.36747 -1.52054 0
M  V30 5011 H 461.359 -0.488545 -3.84307 0
M  V30 5012 H 461.773 -2.58081 -4.56612 0
M  V30 5013 H 463.247 -1.09365 -5.41057 0
M  V30 5014 H 463.724 0.257025 -4.38447 0
M  V30 5015 H 464.33 -1.37592 -4.02428 0
M  V30 5016 N 462.645 1.35699 -0.801477 0
M  V30 5017 C 463.577 2.28598 -0.166028 0
M  V30 5018 C 464.59 1.50044 0.631721 0
M  V30 5019 O 465.779 1.72339 0.464921 0
M  V30 5020 C 462.879 3.29625 0.787451 0
M  V30 5021 C 462.052 4.37384 0.037171 0
M  V30 5022 C 461.111 5.183 0.908375 0
M  V30 5023 O 460.137 5.68053 0.361189 0
M  V30 5024 N 461.339 5.35912 2.23112 0
M  V30 5025 H 464.104 2.83771 -0.964071 0
M  V30 5026 H 461.665 1.47994 -0.656469 0
M  V30 5027 H 463.657 3.80648 1.37439 0
M  V30 5028 H 462.227 2.75004 1.48632 0
M  V30 5029 H 461.447 3.87364 -0.730935 0
M  V30 5030 H 462.735 5.0653 -0.480109 0
M  V30 5031 H 462.133 4.97125 2.69968 0
M  V30 5032 H 460.69 5.90133 2.76741 0
M  V30 5033 N 464.123 0.554532 1.47522 0
M  V30 5034 C 465.4 -0.0360704 1.95567 0
M  V30 5035 C 465.78 -1.48828 1.49711 0
M  V30 5036 O 465.128 -2.16366 0.734717 0
M  V30 5037 C 465.338 0.106631 3.48837 0
M  V30 5038 C 466.686 -0.0400899 4.24581 0
M  V30 5039 O 467.71 0.0340453 3.56184 0
M  V30 5040 O 466.569 -0.199111 5.46137 0
M  V30 5041 H 463.663 -0.0656294 0.824392 0
M  V30 5042 H 466.209 0.620867 1.57935 0
M  V30 5043 H 464.981 1.11727 3.7501 0
M  V30 5044 H 464.604 -0.58804 3.93227 0
M  V30 5045 N 465.601 -1.54893 0.290851 0
M  V30 5046 C 466.551 -2.19838 -0.604599 0
M  V30 5047 C 467.535 -1.16805 -1.10659 0
M  V30 5048 O 468.727 -1.42562 -1.04905 0
M  V30 5049 C 465.856 -2.93497 -1.78086 0
M  V30 5050 C 464.942 -4.03835 -1.29531 0
M  V30 5051 N 465.333 -5.03047 -0.527024 0
M  V30 5052 C 463.631 -4.17192 -1.57693 0
M  V30 5053 C 464.332 -5.81074 -0.269728 0
M  V30 5054 N 463.308 -5.36966 -0.846651 0
M  V30 5055 H 467.11 -2.93898 -0.00995032 0
M  V30 5056 H 464.624 -1.62121 0.0951353 0
M  V30 5057 H 466.621 -3.38484 -2.43381 0
M  V30 5058 H 465.281 -2.2095 -2.37931 0
M  V30 5059 H 466.292 -5.17611 -0.172872 0
M  V30 5060 H 462.969 -3.55845 -2.18359 0
M  V30 5061 H 464.359 -6.71005 0.346643 0
M  V30 5062 N 467.08 -0.0183926 -1.57589 0
M  V30 5063 C 468.305 0.676634 -1.96052 0
M  V30 5064 C 468.73 1.6548 -0.894307 0
M  V30 5065 O 468.088 1.80712 0.145849 0
M  V30 5066 C 468.136 1.36872 -3.33614 0
M  V30 5067 O 467.24 2.48372 -3.29219 0
M  V30 5068 H 466.581 0.1786 -0.63953 0
M  V30 5069 H 469.111 -0.077056 -2.04455 0
M  V30 5070 H 469.121 1.72797 -3.69601 0
M  V30 5071 H 467.796 0.651636 -4.10763 0
M  V30 5072 H 466.373 2.14639 -3.04934 0
M  V30 5073 N 468.558 1.5553 0.254621 0
M  V30 5074 C 469.804 1.77262 0.985193 0
M  V30 5075 C 470.137 0.582286 1.85265 0
M  V30 5076 O 469.412 -0.419666 1.89919 0
M  V30 5077 C 469.695 3.0881 1.85225 0
M  V30 5078 C 469.548 4.38233 1.0135 0
M  V30 5079 C 470.867 3.3653 2.83612 0
M  V30 5080 H 467.986 0.644906 0.356742 0
M  V30 5081 H 470.628 1.88264 0.256236 0
M  V30 5082 H 468.778 2.99562 2.47376 0
M  V30 5083 H 470.45 4.59463 0.411269 0
M  V30 5084 H 468.693 4.32636 0.317574 0
M  V30 5085 H 469.364 5.26644 1.65379 0
M  V30 5086 H 471.84 3.45691 2.31596 0
M  V30 5087 H 470.716 4.29805 3.41407 0
M  V30 5088 H 470.977 2.57064 3.59681 0
M  V30 5089 N 470.036 -0.519951 1.48776 0
M  V30 5090 C 471.452 -0.849418 1.35119 0
M  V30 5091 C 471.652 -1.98077 0.36982 0
M  V30 5092 O 470.708 -2.51664 -0.205359 0
M  V30 5093 C 472.021 -1.20748 2.75391 0
M  V30 5094 C 473.569 -1.31679 2.83954 0
M  V30 5095 C 474.044 -1.70824 4.24951 0
M  V30 5096 N 475.535 -1.77908 4.27672 0
M  V30 5097 C 476.27 -2.09603 5.33717 0
M  V30 5098 N 475.766 -2.39652 6.5003 0
M  V30 5099 N 477.559 -2.10694 5.21119 0
M  V30 5100 H 469.71 0.226377 2.1119 0
M  V30 5101 H 471.973 0.0386519 0.947212 0
M  V30 5102 H 471.679 -0.449703 3.48813 0
M  V30 5103 H 471.553 -2.15534 3.09556 0
M  V30 5104 H 473.94 -2.06532 2.10781 0
M  V30 5105 H 474.021 -0.3499 2.53396 0
M  V30 5106 H 473.665 -0.965282 4.98643 0
M  V30 5107 H 473.595 -2.6858 4.52959 0
M  V30 5108 H 476.086 -1.56923 3.43779 0
M  V30 5109 H 476.399 -2.6297 7.26682 0
M  V30 5110 H 474.744 -2.37149 6.53288 0
M  V30 5111 H 477.935 -1.86682 4.29264 0
M  V30 5112 H 478.108 -2.35062 6.03863 0
M  V30 5113 N 471.514 -1.37532 -0.769588 0
M  V30 5114 C 472.739 -1.36231 -1.56384 0
M  V30 5115 C 473.164 0.0495849 -1.88035 0
M  V30 5116 O 472.522 1.02723 -1.49391 0
M  V30 5117 C 472.57 -2.20986 -2.84952 0
M  V30 5118 O 471.674 -1.61597 -3.79421 0
M  V30 5119 H 471.015 -0.465387 -0.473615 0
M  V30 5120 H 473.545 -1.81085 -0.952342 0
M  V30 5121 H 473.555 -2.34277 -3.34034 0
M  V30 5122 H 472.23 -3.23612 -2.61243 0
M  V30 5123 H 470.807 -1.57359 -3.38072 0
M  V30 5124 N 472.992 0.995999 -1.22138 0
M  V30 5125 C 474.217 1.77601 -1.0711 0
M  V30 5126 C 474.642 1.84339 0.374264 0
M  V30 5127 O 474 1.29359 1.27028 0
M  V30 5128 C 474.048 3.18897 -1.68336 0
M  V30 5129 O 473.152 4.01663 -0.934928 0
M  V30 5130 H 472.493 0.547011 -0.376397 0
M  V30 5131 H 475.023 1.25137 -1.6187 0
M  V30 5132 H 475.033 3.69539 -1.72931 0
M  V30 5133 H 473.708 3.13308 -2.73516 0
M  V30 5134 H 472.285 3.60204 -0.964751 0
M  V30 5135 N 474.47 1.03057 1.19235 0
M  V30 5136 C 475.38 0.622922 2.26179 0
M  V30 5137 C 476.396 -0.346113 1.70523 0
M  V30 5138 O 477.572 -0.203572 2.00369 0
M  V30 5139 C 474.637 -0.0182063 3.46695 0
M  V30 5140 C 473.698 0.998546 4.17526 0
M  V30 5141 C 472.931 0.387917 5.32288 0
M  V30 5142 O 473.154 -0.808668 5.64639 0
M  V30 5143 O 472.088 1.1116 5.91546 0
M  V30 5144 H 475.914 1.51363 2.63292 0
M  V30 5145 H 473.499 0.800856 1.26122 0
M  V30 5146 H 475.381 -0.375606 4.19723 0
M  V30 5147 H 474.056 -0.882895 3.11427 0
M  V30 5148 H 472.963 1.40756 3.4661 0
M  V30 5149 H 474.296 1.83366 4.56769 0
M  V30 5150 N 475.948 -1.35272 0.808662 0
M  V30 5151 C 477.225 -1.93077 0.313181 0
M  V30 5152 C 477.605 -1.73847 -1.19752 0
M  V30 5153 O 476.953 -1.1087 -1.998 0
M  V30 5154 C 477.163 -3.41347 0.726859 0
M  V30 5155 C 478.511 -4.18493 0.717532 0
M  V30 5156 O 479.535 -3.4987 0.668535 0
M  V30 5157 O 478.394 -5.40937 0.777779 0
M  V30 5158 H 475.488 -0.822885 0.0824018 0
M  V30 5159 H 478.034 -1.44335 0.892499 0
M  V30 5160 H 476.806 -3.49082 1.76797 0
M  V30 5161 H 476.429 -3.97411 0.122461 0
M  V30 5162 N 477.426 -0.562348 -1.47226 0
M  V30 5163 C 478.373 0.182461 -2.30078 0
M  V30 5164 C 479.343 0.903503 -1.39377 0
M  V30 5165 O 480.528 0.898188 -1.68337 0
M  V30 5166 C 477.668 1.20322 -3.23445 0
M  V30 5167 C 476.781 0.487717 -4.29238 0
M  V30 5168 C 475.916 1.49422 -5.09752 0
M  V30 5169 C 474.955 0.763976 -6.07314 0
M  V30 5170 N 474.092 1.71755 -6.80768 0
M  V30 5171 H 478.932 -0.530169 -2.93246 0
M  V30 5172 H 476.469 -0.273276 -1.44539 0
M  V30 5173 H 478.427 1.80768 -3.76004 0
M  V30 5174 H 477.057 1.88382 -2.6213 0
M  V30 5175 H 476.109 -0.231374 -3.79696 0
M  V30 5176 H 477.421 -0.0841003 -4.98729 0
M  V30 5177 H 476.575 2.17206 -5.66486 0
M  V30 5178 H 475.314 2.09995 -4.40174 0
M  V30 5179 H 474.319 0.0722344 -5.49753 0
M  V30 5180 H 475.544 0.16391 -6.78902 0
M  V30 5181 H 473.49 2.31177 -6.13916 0
M  V30 5182 H 473.407 1.19802 -7.46447 0
M  V30 5183 H 474.675 2.38638 -7.42073 0
M  V30 5184 N 478.904 1.54736 -0.299062 0
M  V30 5185 C 480.132 2.04512 0.313447 0
M  V30 5186 C 480.547 1.17643 1.47667 0
M  V30 5187 O 479.904 0.20164 1.81383 0
M  V30 5188 C 479.955 3.53171 0.771542 0
M  V30 5189 O 479.676 4.36736 -0.345379 0
M  V30 5190 C 481.177 4.18936 1.4494 0
M  V30 5191 H 478.397 0.667507 0.0683784 0
M  V30 5192 H 480.941 1.99752 -0.438129 0
M  V30 5193 H 479.096 3.58298 1.47314 0
M  V30 5194 H 479.51 5.24499 0.0109219 0
M  V30 5195 H 480.984 5.24482 1.72111 0
M  V30 5196 H 481.461 3.68554 2.38883 0
M  V30 5197 H 482.067 4.17879 0.791028 0
M  V30 5198 N 480.382 0.0267497 1.57577 0
M  V30 5199 C 481.607 -0.666227 1.96408 0
M  V30 5200 C 482.032 -1.65004 0.903071 0
M  V30 5201 O 481.39 -1.80787 -0.136263 0
M  V30 5202 C 481.438 -1.35101 3.34335 0
M  V30 5203 O 480.542 -2.46623 3.30531 0
M  V30 5204 H 479.883 -0.175206 0.640468 0
M  V30 5205 H 482.413 0.0878977 2.04411 0
M  V30 5206 H 482.423 -1.70834 3.70513 0
M  V30 5207 H 481.098 -0.629844 4.11103 0
M  V30 5208 H 479.675 -2.13019 3.06068 0
M  V30 5209 N 481.861 -1.55662 -0.24637 0
M  V30 5210 C 482.808 -1.90361 -1.30504 0
M  V30 5211 C 483.778 -0.757905 -1.47801 0
M  V30 5212 O 484.963 -1.01161 -1.61775 0
M  V30 5213 C 482.103 -2.2042 -2.65535 0
M  V30 5214 C 481.216 -3.47799 -2.56242 0
M  V30 5215 C 480.351 -3.67426 -3.8363 0
M  V30 5216 C 479.39 -4.88403 -3.68956 0
M  V30 5217 N 478.527 -5.04548 -4.88237 0
M  V30 5218 H 483.367 -2.80645 -1.00213 0
M  V30 5219 H 480.904 -1.38924 -0.483577 0
M  V30 5220 H 482.862 -2.35853 -3.44135 0
M  V30 5221 H 481.492 -1.3334 -2.93973 0
M  V30 5222 H 480.544 -3.40694 -1.69208 0
M  V30 5223 H 481.856 -4.36544 -2.4131 0
M  V30 5224 H 481.01 -3.82821 -4.70673 0
M  V30 5225 H 479.749 -2.76914 -4.01459 0
M  V30 5226 H 478.754 -4.72984 -2.80296 0
M  V30 5227 H 479.979 -5.80375 -3.52621 0
M  V30 5228 H 477.925 -4.16974 -5.06427 0
M  V30 5229 H 477.842 -5.87384 -4.75937 0
M  V30 5230 H 479.11 -5.24355 -5.76777 0
M  V30 5231 N 483.339 0.512053 -1.4905 0
M  V30 5232 C 484.564 1.2959 -1.6193 0
M  V30 5233 C 484.989 1.85906 -0.286454 0
M  V30 5234 O 484.347 1.65312 0.744426 0
M  V30 5235 C 484.395 2.40987 -2.68249 0
M  V30 5236 O 483.499 3.44531 -2.26654 0
M  V30 5237 H 482.84 0.383053 -0.542371 0
M  V30 5238 H 485.37 0.614231 -1.95162 0
M  V30 5239 H 485.38 2.86913 -2.90078 0
M  V30 5240 H 484.055 1.99361 -3.65004 0
M  V30 5241 H 482.632 3.046 -2.15112 0
M  V30 5242 N 484.817 1.37938 0.762283 0
M  V30 5243 C 486.042 1.37059 1.55659 0
M  V30 5244 C 486.467 -0.0396123 1.88058 0
M  V30 5245 O 485.825 -1.01929 1.49934 0
M  V30 5246 C 485.873 2.22494 2.83776 0
M  V30 5247 O 484.977 1.63607 3.78559 0
M  V30 5248 H 484.318 0.467892 0.47114 0
M  V30 5249 H 486.848 1.81587 0.942725 0
M  V30 5250 H 486.858 2.36045 3.32786 0
M  V30 5251 H 485.533 3.24993 2.59524 0
M  V30 5252 H 484.11 1.5915 3.37233 0
M  V30 5253 N 486.295 -0.989507 1.22664 0
M  V30 5254 C 487.535 -1.7447 1.06488 0
M  V30 5255 C 487.899 -1.8794 -0.392737 0
M  V30 5256 O 489.1 -2.60175 -0.675446 0
M  V30 5257 C 487.371 -3.11043 1.76031 0
M  V30 5258 S 488.93 -4.02258 1.7531 0
M  V30 5259 H 485.748 -0.600123 0.381278 0
M  V30 5260 H 488.35 -1.18283 1.55658 0
M  V30 5261 H 487.054 -2.98884 2.81241 0
M  V30 5262 H 486.585 -3.72301 1.27105 0
M  V30 5263 H 488.6 -4.89623 0.805208 0
M  V30 5264 N 487.773 -1.03688 -1.18687 0
M  V30 5265 C 488.721 -0.618292 -2.24232 0
M  V30 5266 C 489.715 0.353045 -1.6568 0
M  V30 5267 O 490.921 0.220749 -1.78641 0
M  V30 5268 H 487.296 -0.181711 -0.729716 0
M  V30 5269 H 489.267 -1.51893 -2.56848 0
M  V30 5270 C 488.016 0.00677342 -3.47699 0
M  V30 5271 H 487.339 -0.731692 -3.93047 0
M  V30 5272 H 488.779 0.262492 -4.23187 0
M  V30 5273 C 487.238 1.25572 -3.12623 0
M  V30 5274 O 487.768 2.34691 -3.26011 0
M  V30 5275 N 485.974 1.14755 -2.66982 0
M  V30 5276 H 485.521 0.259601 -2.56289 0
M  V30 5277 H 485.479 1.98412 -2.43885 0
M  V30 5278 N 489.251 1.34841 -0.815825 0
M  V30 5279 C 490.499 1.98107 -0.399744 0
M  V30 5280 C 490.82 1.65019 1.03894 0
M  V30 5281 O 490.09 0.937311 1.72021 0
M  V30 5282 H 488.67 0.732827 -0.144823 0
M  V30 5283 H 491.332 1.64599 -1.0437 0
M  V30 5284 H 490.428 3.07856 -0.512965 0
M  V30 5285 N 490.729 0.570148 1.46925 0
M  V30 5286 C 491.957 0.0561966 2.06824 0
M  V30 5287 C 492.372 -1.24326 1.42086 0
M  V30 5288 O 491.729 -1.74882 0.521794 0
M  V30 5289 C 491.78 -0.129517 3.61268 0
M  V30 5290 O 491.501 1.1185 4.23581 0
M  V30 5291 C 493.002 -0.679266 4.38065 0
M  V30 5292 H 490.222 0.0517261 0.669003 0
M  V30 5293 H 492.766 0.787243 1.8874 0
M  V30 5294 H 490.921 -0.810739 3.78822 0
M  V30 5295 H 491.335 0.924375 5.1629 0
M  V30 5296 H 492.809 -0.758445 5.46765 0
M  V30 5297 H 493.286 -1.69346 4.05239 0
M  V30 5298 H 493.892 -0.0333237 4.25287 0
M  V30 5299 N 492.207 -1.54576 0.307264 0
M  V30 5300 C 493.447 -2.02172 -0.300962 0
M  V30 5301 C 493.811 -1.19081 -1.50611 0
M  V30 5302 O 495.012 -1.56405 -2.18612 0
M  V30 5303 C 493.283 -3.51576 -0.642591 0
M  V30 5304 S 494.842 -4.21127 -1.23279 0
M  V30 5305 H 491.66 -0.705021 -0.0920141 0
M  V30 5306 H 494.262 -1.90563 0.436594 0
M  V30 5307 H 492.966 -4.09681 0.242901 0
M  V30 5308 H 492.497 -3.67234 -1.41077 0
M  V30 5309 H 494.512 -4.27426 -2.52034 0
M  V30 5310 N 493.685 -0.035106 -1.57561 0
M  V30 5311 C 494.933 0.64096 -1.91667 0
M  V30 5312 C 495.254 1.72323 -0.912681 0
M  V30 5313 O 494.524 1.95849 0.0449089 0
M  V30 5314 H 493.104 0.239743 -0.707483 0
M  V30 5315 H 495.766 -0.084321 -1.94718 0
M  V30 5316 H 494.862 1.08987 -2.92452 0
M  V30 5317 N 495.163 1.55791 0.238111 0
M  V30 5318 C 496.44 1.68798 0.98826 0
M  V30 5319 C 496.82 0.577562 2.03045 0
M  V30 5320 O 496.168 -0.41778 2.24648 0
M  V30 5321 C 496.378 3.09454 1.61367 0
M  V30 5322 C 497.726 3.68335 2.11221 0
M  V30 5323 O 498.75 3.1231 1.71292 0
M  V30 5324 O 497.609 4.6657 2.84561 0
M  V30 5325 H 494.703 0.686881 0.460568 0
M  V30 5326 H 497.249 1.68118 0.231202 0
M  V30 5327 H 496.021 3.81726 0.860295 0
M  V30 5328 H 495.644 3.14182 2.4367 0
M  V30 5329 N 496.642 -0.504142 1.49319 0
M  V30 5330 C 498.058 -0.835039 1.36012 0
M  V30 5331 C 498.258 -1.97674 0.390808 0
M  V30 5332 O 497.314 -2.51867 -0.178655 0
M  V30 5333 C 498.627 -1.17821 2.76656 0
M  V30 5334 C 500.175 -1.2866 2.85334 0
M  V30 5335 C 500.65 -1.66307 4.26739 0
M  V30 5336 N 502.141 -1.73362 4.29534 0
M  V30 5337 C 502.876 -2.0393 5.35911 0
M  V30 5338 N 502.372 -2.32744 6.52535 0
M  V30 5339 N 504.165 -2.05155 5.23324 0
M  V30 5340 H 496.316 0.248764 2.10938 0
M  V30 5341 H 498.579 0.0486962 0.946748 0
M  V30 5342 H 498.285 -0.412682 3.4927 0
M  V30 5343 H 498.159 -2.12239 3.11825 0
M  V30 5344 H 500.546 -2.04285 2.1296 0
M  V30 5345 H 500.627 -0.323004 2.53752 0
M  V30 5346 H 500.271 -0.91234 4.99639 0
M  V30 5347 H 500.201 -2.63761 4.55782 0
M  V30 5348 H 502.692 -1.53268 3.45424 0
M  V30 5349 H 503.005 -2.55248 7.2943 0
M  V30 5350 H 501.35 -2.30207 6.55767 0
M  V30 5351 H 504.541 -1.82119 4.3122 0
M  V30 5352 H 504.714 -2.28644 6.06322 0
M  V30 5353 N 498.12 -1.38341 -0.754957 0
M  V30 5354 C 499.03 -1.3769 -1.89944 0
M  V30 5355 C 500.046 -0.274194 -1.71826 0
M  V30 5356 O 501.222 -0.512391 -1.94773 0
M  V30 5357 C 498.287 -1.19938 -3.25293 0
M  V30 5358 C 497.348 -2.40001 -3.55946 0
M  V30 5359 C 496.581 -2.23087 -4.84838 0
M  V30 5360 O 496.804 -1.22386 -5.57116 0
M  V30 5361 O 495.738 -3.11646 -5.14937 0
M  V30 5362 H 499.564 -2.3412 -1.93446 0
M  V30 5363 H 497.149 -1.19246 -0.900044 0
M  V30 5364 H 499.031 -1.12093 -4.06218 0
M  V30 5365 H 497.706 -0.265919 -3.22606 0
M  V30 5366 H 496.613 -2.53421 -2.75188 0
M  V30 5367 H 497.946 -3.31973 -3.63394 0
M  V30 5368 N 499.598 0.982988 -1.23187 0
M  V30 5369 C 500.875 1.69814 -0.970707 0
M  V30 5370 C 501.255 2.04811 0.511424 0
M  V30 5371 O 500.603 1.73924 1.48198 0
M  V30 5372 C 500.813 2.94143 -1.87831 0
M  V30 5373 C 502.161 3.66712 -2.14026 0
M  V30 5374 O 503.185 3.04171 -1.8536 0
M  V30 5375 O 502.044 4.79258 -2.62629 0
M  V30 5376 H 499.138 0.741659 -0.365884 0
M  V30 5377 H 501.684 1.03844 -1.34218 0
M  V30 5378 H 500.456 2.64858 -2.88038 0
M  V30 5379 H 500.079 3.6785 -1.50905 0
M  V30 5380 N 501.076 1.04316 1.18135 0
M  V30 5381 C 502.023 0.636398 2.21853 0
M  V30 5382 C 502.993 -0.357039 1.62217 0
M  V30 5383 O 504.178 -0.250453 1.89149 0
M  V30 5384 C 501.318 0.00812779 3.45099 0
M  V30 5385 C 500.431 1.04933 4.19062 0
M  V30 5386 C 499.566 0.389313 5.29771 0
M  V30 5387 C 498.605 1.41544 5.9551 0
M  V30 5388 N 497.742 0.78021 6.97751 0
M  V30 5389 H 502.582 1.52536 2.56002 0
M  V30 5390 H 500.119 0.76304 1.25762 0
M  V30 5391 H 502.077 -0.373497 4.15525 0
M  V30 5392 H 500.707 -0.844336 3.11562 0
M  V30 5393 H 499.759 1.54888 3.47439 0
M  V30 5394 H 501.071 1.82862 4.64072 0
M  V30 5395 H 500.225 -0.0463805 6.06682 0
M  V30 5396 H 498.964 -0.422038 4.8587 0
M  V30 5397 H 497.969 1.86124 5.17337 0
M  V30 5398 H 499.194 2.22854 6.41493 0
M  V30 5399 H 497.14 -0.0107899 6.55999 0
M  V30 5400 H 497.057 1.49716 7.41027 0
M  V30 5401 H 498.325 0.368996 7.78626 0
M  V30 5402 N 502.554 -1.34406 0.822964 0
M  V30 5403 C 503.464 -2.33298 0.246838 0
M  V30 5404 C 504.48 -1.62625 -0.618797 0
M  V30 5405 O 505.656 -1.94391 -0.526685 0
M  V30 5406 C 502.721 -3.41785 -0.581731 0
M  V30 5407 C 501.782 -4.28206 0.306309 0
M  V30 5408 C 501.015 -5.31512 -0.48281 0
M  V30 5409 O 501.238 -5.43973 -1.71607 0
M  V30 5410 O 500.172 -6.01749 0.134884 0
M  V30 5411 H 503.998 -2.84401 1.06534 0
M  V30 5412 H 501.583 -1.37466 0.585108 0
M  V30 5413 H 503.465 -4.08028 -1.05313 0
M  V30 5414 H 502.14 -2.92925 -1.37756 0
M  V30 5415 H 501.047 -3.64885 0.825199 0
M  V30 5416 H 502.38 -4.80507 1.06649 0
M  V30 5417 N 504.032 -0.577932 -1.46621 0
M  V30 5418 C 504.98 0.170882 -2.31971 0
M  V30 5419 C 505.974 0.889086 -1.44193 0
M  V30 5420 O 507.18 0.808017 -1.60845 0
M  V30 5421 H 503.555 0.0739763 -0.748353 0
M  V30 5422 H 505.526 -0.567856 -2.92947 0
M  V30 5423 C 504.275 1.17438 -3.27267 0
M  V30 5424 H 503.598 0.63116 -3.94787 0
M  V30 5425 H 505.038 1.66882 -3.89778 0
M  V30 5426 C 503.497 2.23292 -2.52274 0
M  V30 5427 O 504.027 3.30567 -2.28229 0
M  V30 5428 N 502.233 1.97772 -2.12919 0
M  V30 5429 H 501.78 1.10545 -2.32675 0
M  V30 5430 H 501.738 2.68809 -1.63062 0
M  V30 5431 N 505.51 1.54411 -0.315457 0
M  V30 5432 C 506.759 1.99599 0.290395 0
M  V30 5433 C 507.072 1.20746 1.53882 0
M  V30 5434 O 508.278 1.56272 2.22017 0
M  V30 5435 C 506.734 3.5539 0.56797 0
M  V30 5436 C 506.342 4.43068 -0.662945 0
M  V30 5437 C 508.086 4.09067 1.13422 0
M  V30 5438 C 505.993 5.90317 -0.357722 0
M  V30 5439 H 504.923 0.745592 0.112286 0
M  V30 5440 H 507.574 1.78477 -0.426418 0
M  V30 5441 H 505.956 3.72468 1.34476 0
M  V30 5442 H 507.13 4.37765 -1.43869 0
M  V30 5443 H 505.445 4.00238 -1.14884 0
M  V30 5444 H 508.042 5.16663 1.37707 0
M  V30 5445 H 508.385 3.60552 2.08106 0
M  V30 5446 H 508.918 3.95589 0.418805 0
M  V30 5447 H 505.657 6.4301 -1.27351 0
M  V30 5448 H 505.177 5.98592 0.380472 0
M  V30 5449 H 506.856 6.4699 0.0354284 0
M  V30 5450 N 506.988 0.0434614 1.5754 0
M  V30 5451 C 508.399 -0.493343 1.80064 0
M  V30 5452 C 508.75 -1.71388 0.955023 0
M  V30 5453 O 507.875 -2.15736 0.169434 0
M  V30 5454 C 508.47 -0.90179 3.26578 0
M  V30 5455 C 507.029 -1.38362 3.50047 0
M  V30 5456 C 506.176 -0.355129 2.75017 0
M  V30 5457 H 509.127 0.2694 1.56397 0
M  V30 5458 H 509.148 -1.76523 3.37075 0
M  V30 5459 H 508.66 -0.013271 3.88098 0
M  V30 5460 H 506.761 -2.29159 2.93798 0
M  V30 5461 H 506.874 -1.3811 4.58762 0
M  V30 5462 H 505.238 -0.826348 2.40922 0
M  V30 5463 H 506.021 0.525172 3.39259 0
M  V30 5464 N 508.466 -1.55915 -0.229846 0
M  V30 5465 C 509.376 -1.94891 -1.30593 0
M  V30 5466 C 510.392 -0.851604 -1.51736 0
M  V30 5467 O 511.568 -1.15447 -1.65027 0
M  V30 5468 C 508.633 -2.25052 -2.63728 0
M  V30 5469 C 507.694 -3.48306 -2.5096 0
M  V30 5470 C 506.927 -3.77019 -3.77747 0
M  V30 5471 O 507.15 -3.07534 -4.80395 0
M  V30 5472 O 506.084 -4.70523 -3.75356 0
M  V30 5473 H 509.91 -2.86581 -1.00525 0
M  V30 5474 H 507.495 -1.43017 -0.432025 0
M  V30 5475 H 509.377 -2.45682 -3.42372 0
M  V30 5476 H 508.052 -1.36538 -2.93495 0
M  V30 5477 H 506.959 -3.32964 -1.70546 0
M  V30 5478 H 508.292 -4.37177 -2.26136 0
M  V30 5479 N 509.944 0.496216 -1.49584 0
M  V30 5480 C 511.221 1.25755 -1.49816 0
M  V30 5481 C 511.601 2.09859 -0.228572 0
M  V30 5482 O 510.949 2.14449 0.788908 0
M  V30 5483 C 511.159 2.11017 -2.7798 0
M  V30 5484 C 512.507 2.70047 -3.27658 0
M  V30 5485 O 513.531 2.21281 -2.79129 0
M  V30 5486 O 512.39 3.58834 -4.1219 0
M  V30 5487 H 509.484 0.569322 -0.599834 0
M  V30 5488 H 512.03 0.510094 -1.61852 0
M  V30 5489 H 510.802 1.48879 -3.61871 0
M  V30 5490 H 510.425 2.92947 -2.68827 0
M  V30 5491 N 511.423 1.38739 0.74761 0
M  V30 5492 C 512.648 1.38702 1.54197 0
M  V30 5493 C 513.073 -0.019664 1.8809 0
M  V30 5494 O 512.431 -1.00333 1.51006 0
M  V30 5495 C 512.479 2.25492 2.814 0
M  V30 5496 O 511.583 1.67613 3.76802 0
M  V30 5497 H 510.924 0.472863 0.466151 0
M  V30 5498 H 513.454 1.82577 0.923413 0
M  V30 5499 H 513.464 2.39561 3.30264 0
M  V30 5500 H 512.139 3.27727 2.56062 0
M  V30 5501 H 510.716 1.62718 3.35526 0
M  V30 5502 N 512.901 -0.976442 1.23707 0
M  V30 5503 C 514.126 -1.75875 1.09922 0
M  V30 5504 C 514.551 -1.84911 -0.34489 0
M  V30 5505 O 513.909 -1.31363 -1.24954 0
M  V30 5506 C 513.957 -3.16179 1.73388 0
M  V30 5507 O 513.061 -4.00124 0.99871 0
M  V30 5508 H 512.402 -0.540954 0.385052 0
M  V30 5509 H 514.932 -1.22546 1.6384 0
M  V30 5510 H 514.942 -3.66741 1.78788 0
M  V30 5511 H 513.617 -3.08917 2.78466 0
M  V30 5512 H 512.194 -3.58624 1.02193 0
M  V30 5513 N 514.379 -1.04941 -1.1758 0
M  V30 5514 C 515.312 -0.592518 -2.20373 0
M  V30 5515 C 516.29 0.377561 -1.58156 0
M  V30 5516 O 517.474 0.28978 -1.86259 0
M  V30 5517 C 514.601 0.133215 -3.38438 0
M  V30 5518 C 513.647 -0.791484 -4.19092 0
M  V30 5519 S 514.48 -2.27925 -4.84572 0
M  V30 5520 C 515.636 -1.56462 -6.06028 0
M  V30 5521 H 515.869 -1.46342 -2.58788 0
M  V30 5522 H 513.402 -0.861148 -1.28155 0
M  V30 5523 H 515.36 0.545746 -4.06856 0
M  V30 5524 H 514.021 0.980124 -2.98416 0
M  V30 5525 H 513.214 -0.230039 -5.03475 0
M  V30 5526 H 512.816 -1.14326 -3.56098 0
M  V30 5527 H 515.108 -0.862539 -6.71987 0
M  V30 5528 H 516.051 -2.38583 -6.66696 0
M  V30 5529 H 516.459 -1.05313 -5.5459 0
M  V30 5530 N 515.857 1.33968 -0.830081 0
M  V30 5531 C 517.103 1.98357 -0.422191 0
M  V30 5532 C 517.436 1.65633 1.01387 0
M  V30 5533 O 516.711 0.931648 1.70735 0
M  V30 5534 C 516.994 3.54492 -0.633043 0
M  V30 5535 C 516.847 3.96934 -2.11574 0
M  V30 5536 C 518.166 4.40039 -0.0735584 0
M  V30 5537 H 515.285 0.720544 -0.154871 0
M  V30 5538 H 517.927 1.58749 -1.04397 0
M  V30 5539 H 516.077 3.88361 -0.103775 0
M  V30 5540 H 517.749 3.73363 -2.7092 0
M  V30 5541 H 515.992 3.46984 -2.60354 0
M  V30 5542 H 516.663 5.05651 -2.21406 0
M  V30 5543 H 519.139 4.12764 -0.52585 0
M  V30 5544 H 518.015 5.48327 -0.250841 0
M  V30 5545 H 518.276 4.30124 1.02202 0
M  V30 5546 N 517.335 0.585699 1.46312 0
M  V30 5547 C 518.56 0.0762461 2.0726 0
M  V30 5548 C 518.985 -1.22071 1.43109 0
M  V30 5549 O 518.343 -1.73804 0.515942 0
M  V30 5550 C 518.391 -0.0729404 3.60526 0
M  V30 5551 O 517.495 -1.1287 3.96654 0
M  V30 5552 H 516.836 0.0641558 0.660893 0
M  V30 5553 H 519.366 0.809492 1.87905 0
M  V30 5554 H 519.376 -0.278158 4.07051 0
M  V30 5555 H 518.051 0.874188 4.06609 0
M  V30 5556 H 516.628 -0.901703 3.61834 0
M  V30 5557 N 518.813 -1.54241 0.323641 0
M  V30 5558 C 519.76 -2.24339 -0.542277 0
M  V30 5559 C 520.73 -1.23421 -1.11159 0
M  V30 5560 O 521.915 -1.52104 -1.15192 0
M  V30 5561 C 519.055 -3.00479 -1.69725 0
M  V30 5562 C 518.168 -4.16214 -1.15716 0
M  V30 5563 C 517.303 -4.79884 -2.27783 0
M  V30 5564 C 516.342 -5.87722 -1.71023 0
M  V30 5565 N 515.479 -6.45254 -2.76752 0
M  V30 5566 H 520.319 -2.97935 0.0620613 0
M  V30 5567 H 517.856 -1.47039 0.0423993 0
M  V30 5568 H 519.814 -3.42869 -2.3769 0
M  V30 5569 H 518.444 -2.29217 -2.27288 0
M  V30 5570 H 517.496 -3.78605 -0.369063 0
M  V30 5571 H 518.808 -4.93838 -0.701832 0
M  V30 5572 H 517.962 -5.25243 -3.03651 0
M  V30 5573 H 516.701 -4.01641 -2.76652 0
M  V30 5574 H 515.706 -5.41765 -0.936518 0
M  V30 5575 H 516.931 -6.67863 -1.2303 0
M  V30 5576 H 514.877 -5.69884 -3.24912 0
M  V30 5577 H 514.794 -7.18292 -2.35782 0
M  V30 5578 H 516.062 -6.95269 -3.5245 0
M  V30 5579 N 520.291 -0.0518155 -1.57515 0
M  V30 5580 C 521.707 0.304735 -1.56664 0
M  V30 5581 C 521.907 1.71395 -1.05953 0
M  V30 5582 O 520.963 2.42123 -0.716414 0
M  V30 5583 C 522.276 0.132614 -3.00407 0
M  V30 5584 C 523.824 0.20367 -3.12337 0
M  V30 5585 C 524.299 0.0600706 -4.57961 0
M  V30 5586 N 525.79 0.116326 -4.63054 0
M  V30 5587 C 526.525 0.0293363 -5.73392 0
M  V30 5588 N 526.021 -0.110038 -6.92713 0
M  V30 5589 N 527.814 0.0849651 -5.62036 0
M  V30 5590 H 519.965 -0.973056 -1.888 0
M  V30 5591 H 522.228 -0.377781 -0.869474 0
M  V30 5592 H 521.934 -0.839019 -3.41546 0
M  V30 5593 H 521.808 0.893376 -3.66468 0
M  V30 5594 H 524.195 1.16578 -2.71097 0
M  V30 5595 H 524.276 -0.587857 -2.48954 0
M  V30 5596 H 523.92 -0.898715 -4.99886 0
M  V30 5597 H 523.85 0.87075 -5.19351 0
M  V30 5598 H 526.341 0.22327 -3.7724 0
M  V30 5599 H 526.654 -0.169104 -7.72615 0
M  V30 5600 H 524.999 -0.145132 -6.94848 0
M  V30 5601 H 528.19 0.192411 -4.67704 0
M  V30 5602 H 528.363 0.0137131 -6.47999 0
M  V30 5603 N 521.769 1.56035 0.221574 0
M  V30 5604 C 523.016 1.79047 0.94597 0
M  V30 5605 C 523.344 0.62057 1.84334 0
M  V30 5606 O 522.599 -0.395053 1.91671 0
M  V30 5607 C 522.898 3.07813 1.8162 0
M  V30 5608 C 522.564 4.3797 1.07206 0
M  V30 5609 C 521.226 4.73334 0.866508 0
M  V30 5610 C 523.578 5.18326 0.546565 0
M  V30 5611 C 520.906 5.8657 0.123549 0
M  V30 5612 C 523.258 6.32335 -0.18305 0
M  V30 5613 C 521.922 6.66301 -0.399861 0
M  V30 5614 H 521.192 0.655178 0.346155 0
M  V30 5615 H 523.839 1.90299 0.214146 0
M  V30 5616 H 522.144 2.91682 2.61589 0
M  V30 5617 H 523.841 3.2282 2.37884 0
M  V30 5618 H 520.431 4.10202 1.24226 0
M  V30 5619 H 524.615 4.9144 0.692847 0
M  V30 5620 H 519.871 6.11376 -0.0546591 0
M  V30 5621 H 524.045 6.9383 -0.59775 0
M  V30 5622 H 521.672 7.53889 -0.977489 0
M  V30 5623 N 523.247 -0.488276 1.49845 0
M  V30 5624 C 524.663 -0.820566 1.3689 0
M  V30 5625 C 524.863 -1.97248 0.411752 0
M  V30 5626 O 523.919 -2.52042 -0.151931 0
M  V30 5627 C 525.232 -1.1488 2.77891 0
M  V30 5628 C 526.78 -1.25626 2.86683 0
M  V30 5629 C 527.255 -1.61772 4.28479 0
M  V30 5630 N 528.746 -1.68797 4.31349 0
M  V30 5631 C 529.481 -1.98235 5.38043 0
M  V30 5632 N 528.977 -2.2581 6.54967 0
M  V30 5633 N 530.77 -1.99593 5.2547 0
M  V30 5634 H 522.921 0.271123 2.10662 0
M  V30 5635 H 525.184 0.058735 0.946179 0
M  V30 5636 H 524.89 -0.375614 3.49688 0
M  V30 5637 H 524.764 -2.08919 3.14058 0
M  V30 5638 H 527.151 -2.02014 2.15114 0
M  V30 5639 H 527.232 -0.296072 2.54081 0
M  V30 5640 H 526.876 -0.859295 5.00578 0
M  V30 5641 H 526.806 -2.58912 4.58554 0
M  V30 5642 H 529.297 -1.49595 3.4703 0
M  V30 5643 H 529.61 -2.47497 7.32096 0
M  V30 5644 H 527.955 -2.23239 6.58171 0
M  V30 5645 H 531.146 -1.77535 4.33127 0
M  V30 5646 H 531.319 -2.222 6.08713 0
M  V30 5647 N 524.725 -1.39134 -0.740242 0
M  V30 5648 C 525.972 -1.36071 -1.49969 0
M  V30 5649 C 526.3 0.0450245 -1.94448 0
M  V30 5650 O 525.555 1.02482 -1.66721 0
M  V30 5651 C 525.854 -2.27457 -2.75678 0
M  V30 5652 C 525.52 -3.75185 -2.50094 0
M  V30 5653 C 524.182 -4.15439 -2.42825 0
M  V30 5654 C 526.534 -4.68643 -2.28086 0
M  V30 5655 C 523.862 -5.4722 -2.11584 0
M  V30 5656 C 526.214 -6.00695 -1.98363 0
M  V30 5657 C 524.878 -6.40018 -1.8956 0
M  V30 5658 H 524.148 -0.497921 -0.548777 0
M  V30 5659 H 526.795 -1.71599 -0.85007 0
M  V30 5660 H 525.1 -1.8503 -3.45356 0
M  V30 5661 H 526.797 -2.22384 -3.33686 0
M  V30 5662 H 523.387 -3.43279 -2.56627 0
M  V30 5663 H 527.571 -4.3838 -2.32672 0
M  V30 5664 H 522.827 -5.76615 -2.03287 0
M  V30 5665 H 527.001 -6.72644 -1.80341 0
M  V30 5666 H 524.628 -7.42051 -1.65117 0
M  V30 5667 N 526.204 0.969867 -1.24223 0
M  V30 5668 C 527.481 1.68774 -0.988664 0
M  V30 5669 C 527.861 2.05342 0.489673 0
M  V30 5670 O 527.209 1.75486 1.46345 0
M  V30 5671 C 527.419 2.92135 -1.90941 0
M  V30 5672 C 528.767 3.64422 -2.17903 0
M  V30 5673 O 529.791 3.02188 -1.88576 0
M  V30 5674 O 528.65 4.76446 -2.67697 0
M  V30 5675 H 525.744 0.737736 -0.37373 0
M  V30 5676 H 528.29 1.02415 -1.35312 0
M  V30 5677 H 527.062 2.61788 -2.90831 0
M  V30 5678 H 526.685 3.66228 -1.54798 0
M  V30 5679 N 527.682 1.05563 1.17022 0
M  V30 5680 C 528.959 0.68165 1.83338 0
M  V30 5681 C 529.339 -0.837665 1.93769 0
M  V30 5682 O 528.687 -1.74507 1.47511 0
M  V30 5683 C 528.897 1.375 3.20772 0
M  V30 5684 C 530.245 1.51545 3.96635 0
M  V30 5685 O 531.269 1.33431 3.30264 0
M  V30 5686 O 530.128 1.812 5.15586 0
M  V30 5687 H 527.222 0.240412 0.791285 0
M  V30 5688 H 529.768 1.15545 1.24288 0
M  V30 5689 H 528.54 2.41135 3.08171 0
M  V30 5690 H 528.163 0.890798 3.87493 0
M  V30 5691 N 529.16 -1.33526 0.837174 0
M  V30 5692 C 530.385 -2.0258 0.444545 0
M  V30 5693 C 530.81 -1.6258 -0.946006 0
M  V30 5694 O 530.168 -0.817548 -1.6182 0
M  V30 5695 C 530.216 -3.5605 0.571006 0
M  V30 5696 O 529.32 -4.10422 -0.403431 0
M  V30 5697 H 528.661 -0.638866 0.180958 0
M  V30 5698 H 531.191 -1.70462 1.13154 0
M  V30 5699 H 531.201 -4.05488 0.452024 0
M  V30 5700 H 529.876 -3.84509 1.58512 0
M  V30 5701 H 528.453 -3.72113 -0.242147 0
M  V30 5702 N 530.638 -0.59345 -1.46 0
M  V30 5703 C 531.568 0.121192 -2.33185 0
M  V30 5704 C 532.549 0.872977 -1.4599 0
M  V30 5705 O 533.734 0.846321 -1.74789 0
M  V30 5706 C 530.864 1.12844 -3.28456 0
M  V30 5707 C 529.818 0.4908 -4.25177 0
M  V30 5708 C 529.144 1.60529 -5.10034 0
M  V30 5709 C 530.444 -0.578949 -5.19081 0
M  V30 5710 H 532.138 -0.606767 -2.93187 0
M  V30 5711 H 529.684 -0.293242 -1.40983 0
M  V30 5712 H 531.637 1.63684 -3.88311 0
M  V30 5713 H 530.361 1.88681 -2.66584 0
M  V30 5714 H 529.02 0.00339328 -3.666 0
M  V30 5715 H 528.668 2.35359 -4.44539 0
M  V30 5716 H 528.368 1.18422 -5.75543 0
M  V30 5717 H 529.892 2.11623 -5.72755 0
M  V30 5718 H 531.306 -0.155199 -5.7309 0
M  V30 5719 H 529.703 -0.920947 -5.92991 0
M  V30 5720 H 530.773 -1.46109 -4.62364 0
M  V30 5721 N 532.116 1.54067 -0.331816 0
M  V30 5722 C 533.527 1.86059 0.15454 0
M  V30 5723 C 533.878 1.25331 1.50952 0
M  V30 5724 O 533.003 0.562441 2.08963 0
M  V30 5725 C 533.598 3.37581 0.287192 0
M  V30 5726 C 532.157 3.69493 0.717773 0
M  V30 5727 C 531.304 2.76863 -0.155569 0
M  V30 5728 H 534.255 1.48797 -0.55182 0
M  V30 5729 H 534.276 3.63744 1.11671 0
M  V30 5730 H 533.788 3.81751 -0.699131 0
M  V30 5731 H 531.889 3.3086 1.71354 0
M  V30 5732 H 532.002 4.76315 0.5158 0
M  V30 5733 H 530.366 2.51995 0.370213 0
M  V30 5734 H 531.149 3.23861 -1.13881 0
M  V30 5735 N 533.594 0.0601682 1.57485 0
M  V30 5736 C 534.542 -0.928899 2.13247 0
M  V30 5737 C 535.536 -1.31616 1.06647 0
M  V30 5738 O 536.742 -1.29476 1.25043 0
M  V30 5739 H 533.117 -0.317455 0.681708 0
M  V30 5740 H 535.088 -0.433566 2.95233 0
M  V30 5741 C 533.837 -2.19121 2.69965 0
M  V30 5742 H 533.16 -1.90204 3.51657 0
M  V30 5743 H 534.6 -2.86465 3.12592 0
M  V30 5744 C 533.059 -2.94195 1.64168 0
M  V30 5745 O 533.589 -3.87468 1.05978 0
M  V30 5746 N 531.795 -2.57089 1.35476 0
M  V30 5747 H 531.342 -1.81314 1.82984 0
M  V30 5748 H 531.3 -3.07624 0.649196 0
M  V30 5749 N 535.072 -1.5615 -0.213296 0
M  V30 5750 C 536.483 -1.69645 -0.779582 0
M  V30 5751 C 536.834 -0.663615 -1.84636 0
M  V30 5752 O 535.959 0.183633 -2.15619 0
M  V30 5753 C 536.554 -3.07567 -1.42084 0
M  V30 5754 C 535.113 -3.22889 -1.93442 0
M  V30 5755 C 534.26 -2.65581 -0.797612 0
M  V30 5756 H 537.211 -1.58696 0.0114951 0
M  V30 5757 H 537.232 -3.03884 -2.28986 0
M  V30 5758 H 536.744 -3.82716 -0.644187 0
M  V30 5759 H 534.845 -2.52623 -2.73884 0
M  V30 5760 H 534.958 -4.30197 -2.10872 0
M  V30 5761 H 533.322 -2.24278 -1.20712 0
M  V30 5762 H 534.105 -3.43284 -0.033494 0
M  V30 5763 N 536.55 0.480323 -1.50102 0
M  V30 5764 C 537.5 1.57685 -1.6468 0
M  V30 5765 C 538.484 1.52878 -0.5017 0
M  V30 5766 O 539.676 1.60058 -0.755668 0
M  V30 5767 C 536.805 2.96185 -1.73578 0
M  V30 5768 C 535.891 3.0591 -2.93734 0
M  V30 5769 N 536.282 2.85471 -4.1754 0
M  V30 5770 C 534.58 3.37036 -2.92101 0
M  V30 5771 C 535.281 2.99921 -4.9842 0
M  V30 5772 N 534.257 3.29715 -4.32191 0
M  V30 5773 H 538.059 1.40568 -2.58104 0
M  V30 5774 H 535.573 0.686874 -1.47159 0
M  V30 5775 H 537.57 3.75015 -1.82124 0
M  V30 5776 H 536.23 3.14356 -0.813057 0
M  V30 5777 H 537.241 2.61235 -4.47188 0
M  V30 5778 H 533.918 3.61253 -2.09291 0
M  V30 5779 H 535.308 2.88436 -6.06839 0
M  V30 5780 N 538.028 1.39524 0.732853 0
M  V30 5781 C 538.938 1.40695 1.87729 0
M  V30 5782 C 539.954 0.301496 1.71368 0
M  V30 5783 O 541.13 0.543313 1.93933 0
M  V30 5784 C 538.195 1.25098 3.23344 0
M  V30 5785 C 537.256 2.45634 3.52083 0
M  V30 5786 C 536.489 2.30772 4.81228 0
M  V30 5787 O 536.712 1.31233 5.55098 0
M  V30 5788 O 535.646 3.19799 5.09914 0
M  V30 5789 H 539.472 2.37168 1.89697 0
M  V30 5790 H 537.057 1.20663 0.880959 0
M  V30 5791 H 538.939 1.18541 4.04383 0
M  V30 5792 H 537.614 0.317209 3.22142 0
M  V30 5793 H 536.521 2.57767 2.71122 0
M  V30 5794 H 537.854 3.37712 3.58066 0
M  V30 5795 N 539.506 -0.963266 1.24736 0
M  V30 5796 C 540.436 -2.07628 1.06832 0
M  V30 5797 C 541.417 -1.70088 -0.0200566 0
M  V30 5798 O 542.602 -1.93636 0.147854 0
M  V30 5799 C 539.732 -3.40636 0.677069 0
M  V30 5800 C 538.686 -3.9215 1.71471 0
M  V30 5801 C 538.012 -5.21553 1.1784 0
M  V30 5802 C 539.312 -4.19493 3.11164 0
M  V30 5803 H 541.006 -2.22864 1.9993 0
M  V30 5804 H 538.552 -1.07093 0.96266 0
M  V30 5805 H 540.505 -4.17941 0.538792 0
M  V30 5806 H 539.229 -3.25313 -0.289612 0
M  V30 5807 H 537.888 -3.17005 1.84128 0
M  V30 5808 H 537.536 -5.02593 0.202195 0
M  V30 5809 H 537.236 -5.56988 1.87185 0
M  V30 5810 H 538.76 -6.01463 1.05233 0
M  V30 5811 H 540.174 -4.87487 3.01711 0
M  V30 5812 H 538.571 -4.66165 3.77902 0
M  V30 5813 H 539.641 -3.26097 3.58871 0
M  V30 5814 N 540.985 -1.06182 -1.16461 0
M  V30 5815 C 542.231 -0.779015 -1.87241 0
M  V30 5816 C 542.564 0.692715 -1.81425 0
M  V30 5817 O 541.839 1.5074 -1.22913 0
M  V30 5818 C 542.122 -1.2728 -3.36856 0
M  V30 5819 C 541.975 -2.80821 -3.51368 0
M  V30 5820 C 543.294 -0.879799 -4.31216 0
M  V30 5821 H 540.413 -0.284464 -0.679889 0
M  V30 5822 H 543.055 -1.31755 -1.36896 0
M  V30 5823 H 541.205 -0.814673 -3.79862 0
M  V30 5824 H 542.877 -3.34833 -3.17308 0
M  V30 5825 H 541.12 -3.19606 -2.93316 0
M  V30 5826 H 541.791 -3.10435 -4.56436 0
M  V30 5827 H 544.267 -1.27436 -3.96105 0
M  V30 5828 H 543.143 -1.25278 -5.34412 0
M  V30 5829 H 543.404 0.215372 -4.41575 0
M  V30 5830 N 542.463 1.3308 -0.844243 0
M  V30 5831 C 543.688 2.02341 -0.455282 0
M  V30 5832 C 544.113 1.6308 0.93737 0
M  V30 5833 O 543.471 0.826118 1.61385 0
M  V30 5834 C 543.519 3.55743 -0.58988 0
M  V30 5835 O 542.623 4.1063 0.38166 0
M  V30 5836 H 541.964 0.637898 -0.184343 0
M  V30 5837 H 544.494 1.6986 -1.14056 0
M  V30 5838 H 544.504 4.05243 -0.473522 0
M  V30 5839 H 543.179 3.83662 -1.60549 0
M  V30 5840 H 541.756 3.72236 0.22241 0
M  V30 5841 N 543.941 0.601185 1.45683 0
M  V30 5842 C 545.218 0.0261659 1.95582 0
M  V30 5843 C 545.598 -1.4399 1.5437 0
M  V30 5844 O 544.946 -2.13919 0.80318 0
M  V30 5845 C 545.156 0.217557 3.48321 0
M  V30 5846 C 546.504 0.0950076 4.24494 0
M  V30 5847 O 547.528 0.147345 3.55895 0
M  V30 5848 O 546.387 -0.025261 5.46494 0
M  V30 5849 H 543.481 -0.0393688 0.826062 0
M  V30 5850 H 546.027 0.670798 1.55879 0
M  V30 5851 H 544.799 1.23601 3.71266 0
M  V30 5852 H 544.422 -0.46264 3.94899 0
M  V30 5853 N 545.419 -1.53889 0.339982 0
M  V30 5854 C 546.349 -2.27843 -0.510856 0
M  V30 5855 C 547.33 -1.29267 -1.10563 0
M  V30 5856 O 548.515 -1.58104 -1.12768 0
M  V30 5857 C 545.645 -3.04857 -1.66372 0
M  V30 5858 C 544.599 -4.10907 -1.19746 0
M  V30 5859 C 543.925 -4.75855 -2.43857 0
M  V30 5860 C 545.225 -5.21435 -0.300501 0
M  V30 5861 H 546.919 -2.99212 0.106067 0
M  V30 5862 H 544.465 -1.43904 0.0524533 0
M  V30 5863 H 546.418 -3.5533 -2.26537 0
M  V30 5864 H 545.142 -2.31133 -2.30749 0
M  V30 5865 H 543.801 -3.61342 -0.618654 0
M  V30 5866 H 543.449 -3.9873 -3.06633 0
M  V30 5867 H 543.149 -5.47502 -2.13343 0
M  V30 5868 H 544.673 -5.2911 -3.04754 0
M  V30 5869 H 546.087 -5.67565 -0.80889 0
M  V30 5870 H 544.484 -6.00036 -0.0874076 0
M  V30 5871 H 545.554 -4.80328 0.664321 0
M  V30 5872 N 546.897 -0.0685191 -1.57451 0
M  V30 5873 C 547.827 0.89747 -2.15564 0
M  V30 5874 C 548.808 1.31266 -1.08181 0
M  V30 5875 O 549.993 1.38429 -1.36202 0
M  V30 5876 C 547.123 2.16623 -2.71463 0
M  V30 5877 C 546.077 1.89054 -3.83982 0
M  V30 5878 C 545.403 3.22532 -4.26471 0
M  V30 5879 C 546.703 1.1984 -5.08366 0
M  V30 5880 H 548.397 0.413373 -2.96533 0
M  V30 5881 H 545.943 0.197391 -1.42641 0
M  V30 5882 H 547.896 2.84614 -3.10761 0
M  V30 5883 H 546.62 2.67269 -1.8771 0
M  V30 5884 H 545.279 1.23469 -3.45183 0
M  V30 5885 H 544.927 3.71013 -3.39644 0
M  V30 5886 H 544.627 3.04879 -5.02317 0
M  V30 5887 H 546.151 3.91727 -4.68383 0
M  V30 5888 H 547.565 1.77896 -5.45001 0
M  V30 5889 H 545.962 1.12456 -5.89469 0
M  V30 5890 H 547.032 0.176996 -4.84577 0
M  V30 5891 N 548.375 1.56261 0.205012 0
M  V30 5892 C 549.615 1.81823 0.933806 0
M  V30 5893 C 549.979 0.644534 1.80858 0
M  V30 5894 O 551.18 0.779819 2.5724 0
M  V30 5895 C 549.451 3.12362 1.7368 0
M  V30 5896 S 551.01 3.59296 2.51897 0
M  V30 5897 H 547.828 0.638209 0.313386 0
M  V30 5898 H 550.43 1.94495 0.198001 0
M  V30 5899 H 549.134 3.95809 1.08459 0
M  V30 5900 H 548.665 3.02542 2.5146 0
M  V30 5901 H 550.68 3.23945 3.75864 0
M  V30 5902 O 549.892 -0.350324 1.57655 0
M  V30 5903 H 550.583 -1.00029 1.65873 0
M  V30 END ATOM
M  V30 BEGIN BOND
M  V30 END BOND
M  V30 END CTAB
M  END
$$$$
