drugbank_target|O94925 Glutaminase kidney isoform, mitochondrial (DB00142)
 OpenBabel12092119403D

  0  0  0     0  0            999 V3000
M  V30 BEGIN CTAB
M  V30 COUNTS 10272 10392 0 0 0
M  V30 BEGIN ATOM
M  V30 1 H -0.908 1.98254 -0.117106 0
M  V30 2 N 0 1.576 0 0
M  V30 3 C 0.933 2.03868 1.02534 0
M  V30 4 C 1.911 0.928543 1.3348 0
M  V30 5 O 3.095 1.19667 1.45644 0
M  V30 6 C 0.222 2.43627 2.35294 0
M  V30 7 C -0.732 3.65373 2.2001 0
M  V30 8 S 0.101 5.13292 1.52614 0
M  V30 9 C 1.257 5.56322 2.86805 0
M  V30 10 H 1.49 2.90518 0.631377 0
M  V30 11 H -0.977 1.52953 0.210867 0
M  V30 12 H 0.981 2.67203 3.11629 0
M  V30 13 H -0.358 1.57376 2.7183 0
M  V30 14 H -1.165 3.90944 3.18086 0
M  V30 15 H -1.563 3.418 1.51819 0
M  V30 16 H 0.729 5.58782 3.83104 0
M  V30 17 H 1.672 6.56266 2.65933 0
M  V30 18 H 2.08 4.83886 2.90714 0
M  V30 19 N 1.4781 -0.272755 1.55222 0
M  V30 20 C 2.4111 -1.3627 1.83046 0
M  V30 21 C 3.3891 -1.47536 0.683521 0
M  V30 22 O 4.5731 -1.64157 0.926545 0
M  V30 23 C 1.7001 -2.73908 1.99229 0
M  V30 24 C 0.7461 -2.79925 3.21783 0
M  V30 25 S 1.5791 -2.39146 4.79134 0
M  V30 26 C 2.7351 -3.78758 4.9829 0
M  V30 27 H 2.9681 -1.12464 2.75207 0
M  V30 28 H 0.5011 -0.472398 1.46996 0
M  V30 29 H 2.4591 -3.53171 2.09238 0
M  V30 30 H 1.1201 -2.94965 1.07956 0
M  V30 31 H 0.3131 -3.80946 3.29994 0
M  V30 32 H -0.0849 -2.08683 3.10367 0
M  V30 33 H 2.2071 -4.7403 4.84047 0
M  V30 34 H 3.1501 -3.75499 6.00338 0
M  V30 35 H 3.5581 -3.70072 4.26271 0
M  V30 36 N 2.9562 -1.48159 -0.537278 0
M  V30 37 C 4.3722 -1.34118 -0.865129 0
M  V30 38 C 4.5722 -0.346678 -1.98495 0
M  V30 39 O 3.6282 0.234715 -2.51407 0
M  V30 40 C 4.9412 -2.73963 -1.23954 0
M  V30 41 C 6.4892 -2.82397 -1.34984 0
M  V30 42 C 6.9642 -4.22928 -1.75772 0
M  V30 43 N 8.4552 -4.25566 -1.82887 0
M  V30 44 C 9.1902 -5.31235 -2.15817 0
M  V30 45 N 8.6862 -6.47189 -2.47222 0
M  V30 46 N 10.4792 -5.18624 -2.16761 0
M  V30 47 H 2.6302 -2.1144 0.201715 0
M  V30 48 H 4.8932 -0.947598 0.0275949 0
M  V30 49 H 4.5992 -3.48264 -0.490381 0
M  V30 50 H 4.4732 -3.0702 -2.19132 0
M  V30 51 H 6.8602 -2.08356 -2.08978 0
M  V30 52 H 6.9412 -2.5297 -0.379448 0
M  V30 53 H 6.5852 -4.97482 -1.02341 0
M  V30 54 H 6.5152 -4.49794 -2.73848 0
M  V30 55 H 9.0062 -3.41924 -1.60924 0
M  V30 56 H 9.3192 -7.23564 -2.71433 0
M  V30 57 H 7.6642 -6.50476 -2.44757 0
M  V30 58 H 10.8552 -4.27056 -1.91679 0
M  V30 59 H 11.0282 -6.01078 -2.42093 0
M  V30 60 N 4.4343 0.785586 -1.36625 0
M  V30 61 C 5.3643 1.91259 -1.33949 0
M  V30 62 C 6.3453 1.68795 -0.210325 0
M  V30 63 O 7.5303 1.89854 -0.408561 0
M  V30 64 C 4.6603 3.28339 -1.13186 0
M  V30 65 C 3.6143 3.65335 -2.22967 0
M  V30 66 C 2.9403 5.00806 -1.87342 0
M  V30 67 C 4.2403 3.7352 -3.65075 0
M  V30 68 H 5.9343 1.93755 -2.28253 0
M  V30 69 H 3.4803 0.930788 -1.09874 0
M  V30 70 H 5.4333 4.06804 -1.09948 0
M  V30 71 H 4.1573 3.2624 -0.153332 0
M  V30 72 H 2.8163 2.89169 -2.25337 0
M  V30 73 H 2.4643 4.95233 -0.880545 0
M  V30 74 H 2.1643 5.26529 -2.60846 0
M  V30 75 H 3.6883 5.81687 -1.85667 0
M  V30 76 H 5.1023 4.42168 -3.64911 0
M  V30 77 H 3.4993 4.10731 -4.37516 0
M  V30 78 H 4.5693 2.74527 -3.99703 0
M  V30 79 N 5.9124 1.20967 1.01018 0
M  V30 80 C 7.3284 0.965905 1.27053 0
M  V30 81 C 7.5284 -0.350785 1.98423 0
M  V30 82 O 6.5844 -1.07773 2.28344 0
M  V30 83 C 7.8974 2.15294 2.09926 0
M  V30 84 C 9.4454 2.19463 2.23171 0
M  V30 85 C 9.9204 3.3767 3.09424 0
M  V30 86 N 11.4114 3.37724 3.17012 0
M  V30 87 C 12.1464 4.25837 3.83993 0
M  V30 88 N 11.6424 5.24138 4.53047 0
M  V30 89 N 13.4354 4.1366 3.80581 0
M  V30 90 H 5.5864 2.0565 0.531194 0
M  V30 91 H 7.8494 0.90024 0.297106 0
M  V30 92 H 7.5554 3.10684 1.64828 0
M  V30 93 H 7.4294 2.13923 3.10672 0
M  V30 94 H 9.8164 1.24632 2.6749 0
M  V30 95 H 9.8974 2.2488 1.21912 0
M  V30 96 H 9.5414 4.32791 2.65808 0
M  V30 97 H 9.4714 3.29491 4.10784 0
M  V30 98 H 11.9624 2.6658 2.6785 0
M  V30 99 H 12.2754 5.87684 5.01844 0
M  V30 100 H 10.6204 5.28068 4.5185 0
M  V30 101 H 13.8114 3.36127 3.25785 0
M  V30 102 H 13.9844 4.82538 4.32505 0
M  V30 103 N 7.3905 -1.2043 1.01659 0
M  V30 104 C 8.6385 -1.89423 0.704522 0
M  V30 105 C 8.9595 -1.79231 -0.768197 0
M  V30 106 O 8.2295 -1.1947 -1.55254 0
M  V30 107 H 6.8095 -0.701178 0.257602 0
M  V30 108 H 9.4715 -1.4626 1.28818 0
M  V30 109 H 8.5675 -2.96052 0.987916 0
M  V30 110 N 8.8686 -0.792821 -1.36206 0
M  V30 111 C 10.0936 -0.377701 -2.03932 0
M  V30 112 C 10.5186 0.998947 -1.59382 0
M  V30 113 O 9.8766 1.64421 -0.763903 0
M  V30 114 C 9.9246 -0.453635 -3.57735 0
M  V30 115 O 9.0286 0.538151 -4.08874 0
M  V30 116 H 8.3696 -0.159855 -0.644471 0
M  V30 117 H 10.8996 -1.07488 -1.7409 0
M  V30 118 H 10.9096 -0.318464 -4.06755 0
M  V30 119 H 9.5846 -1.45784 -3.89512 0
M  V30 120 H 8.1616 0.364359 -3.71116 0
M  V30 121 N 10.3467 1.47872 -0.545128 0
M  V30 122 C 11.5947 2.02093 -0.016553 0
M  V30 123 C 11.9157 1.42305 1.3332 0
M  V30 124 O 11.1857 0.593853 1.86682 0
M  V30 125 H 9.7657 0.746993 -0.00313038 0
M  V30 126 H 12.4277 1.81414 -0.712397 0
M  V30 127 H 11.5237 3.11996 0.0805422 0
M  V30 128 N 11.8248 0.280983 1.55075 0
M  V30 129 C 12.7578 -0.645439 2.18882 0
M  V30 130 C 13.7358 -1.14786 1.15165 0
M  V30 131 O 14.9198 -1.21975 1.43716 0
M  V30 132 C 12.0468 -1.88088 2.81674 0
M  V30 133 C 11.0928 -1.51343 3.98745 0
M  V30 134 S 11.9258 -0.586548 5.32278 0
M  V30 135 C 13.0818 -1.83024 5.98543 0
M  V30 136 H 13.3148 -0.1033 2.9712 0
M  V30 137 H 10.8478 0.0652099 1.54262 0
M  V30 138 H 12.8058 -2.58997 3.18482 0
M  V30 139 H 11.4668 -2.39417 2.03318 0
M  V30 140 H 10.6598 -2.43289 4.41392 0
M  V30 141 H 10.2618 -0.884477 3.63391 0
M  V30 142 H 12.5538 -2.77342 6.18133 0
M  V30 143 H 13.4968 -1.44668 6.93164 0
M  V30 144 H 13.9048 -1.99785 5.27964 0
M  V30 145 N 13.3029 -1.57598 0.00835791 0
M  V30 146 C 14.2329 -2.1198 -0.979113 0
M  V30 147 C 15.2139 -1.03091 -1.35301 0
M  V30 148 O 16.3989 -1.30818 -1.43528 0
M  V30 149 C 13.5289 -2.62995 -2.26828 0
M  V30 150 C 12.4829 -3.76485 -2.03576 0
M  V30 151 C 11.8089 -4.13846 -3.38579 0
M  V30 152 C 13.1089 -5.0342 -1.39161 0
M  V30 153 H 14.8029 -2.94738 -0.526281 0
M  V30 154 H 12.3489 -1.41783 -0.251704 0
M  V30 155 H 14.3019 -2.99669 -2.96271 0
M  V30 156 H 13.0259 -1.7737 -2.7424 0
M  V30 157 H 11.6849 -3.40217 -1.36557 0
M  V30 158 H 11.3329 -3.25232 -3.83709 0
M  V30 159 H 11.0329 -4.90312 -3.23834 0
M  V30 160 H 12.5569 -4.53086 -4.09323 0
M  V30 161 H 13.9709 -5.37812 -1.98573 0
M  V30 162 H 12.3679 -5.84746 -1.34878 0
M  V30 163 H 13.4379 -4.83548 -0.361868 0
M  V30 164 N 14.781 0.264519 -1.55364 0
M  V30 165 C 16.197 0.61215 -1.47394 0
M  V30 166 C 16.397 1.89134 -0.695018 0
M  V30 167 O 15.453 2.51563 -0.217275 0
M  V30 168 C 16.766 0.731235 -2.91674 0
M  V30 169 C 18.314 0.82473 -3.01939 0
M  V30 170 C 18.789 0.975522 -4.4749 0
M  V30 171 N 20.28 1.04083 -4.51354 0
M  V30 172 C 21.015 1.17646 -5.61201 0
M  V30 173 N 20.511 1.27874 -6.80896 0
M  V30 174 N 22.304 1.20823 -5.48961 0
M  V30 175 H 14.455 -0.575456 -2.04456 0
M  V30 176 H 16.718 -0.196099 -0.927496 0
M  V30 177 H 16.424 -0.138392 -3.51428 0
M  V30 178 H 16.298 1.60883 -3.41169 0
M  V30 179 H 18.685 1.68482 -2.42276 0
M  V30 180 H 18.766 -0.0776479 -2.55682 0
M  V30 181 H 18.41 0.120058 -5.07758 0
M  V30 182 H 18.34 1.89268 -4.91412 0
M  V30 183 H 20.831 0.973846 -3.65136 0
M  V30 184 H 21.144 1.38081 -7.60364 0
M  V30 185 H 19.489 1.24863 -6.83692 0
M  V30 186 H 22.68 1.12469 -4.54388 0
M  V30 187 H 22.853 1.31049 -6.3461 0
M  V30 188 N 16.2591 1.48442 0.529413 0
M  V30 189 C 17.5361 1.46978 1.29062 0
M  V30 190 C 17.9161 0.181769 2.10316 0
M  V30 191 O 17.2641 -0.836481 2.12639 0
M  V30 192 C 17.4741 2.7321 2.17157 0
M  V30 193 C 18.8221 3.21562 2.77278 0
M  V30 194 O 19.8461 2.74131 2.27444 0
M  V30 195 O 18.7051 4.04094 3.67927 0
M  V30 196 H 15.7991 0.587003 0.582543 0
M  V30 197 H 18.3451 1.60676 0.546021 0
M  V30 198 H 17.1171 3.58465 1.56903 0
M  V30 199 H 16.7401 2.62235 2.98862 0
M  V30 200 N 17.7372 -0.778329 1.37039 0
M  V30 201 C 18.6672 -1.90546 1.34962 0
M  V30 202 C 19.6482 -1.68681 0.219274 0
M  V30 203 O 20.8332 -1.89634 0.418624 0
M  V30 204 C 17.9632 -3.27734 1.14925 0
M  V30 205 C 16.9172 -3.64147 2.24902 0
M  V30 206 C 16.2432 -4.99806 1.89996 0
M  V30 207 C 17.5432 -3.71579 3.67051 0
M  V30 208 H 19.2372 -1.92541 2.29277 0
M  V30 209 H 16.7832 -0.924948 1.10366 0
M  V30 210 H 18.7362 -4.06215 1.12104 0
M  V30 211 H 17.4602 -3.26154 0.170631 0
M  V30 212 H 16.1192 -2.8797 2.26868 0
M  V30 213 H 15.7672 -4.94759 0.906796 0
M  V30 214 H 15.4672 -5.25139 2.63634 0
M  V30 215 H 16.9912 -5.80694 1.88749 0
M  V30 216 H 18.4052 -4.40227 3.67251 0
M  V30 217 H 16.8022 -4.08405 4.39688 0
M  V30 218 H 17.8722 -2.72404 4.01154 0
M  V30 219 N 19.2153 -1.21501 -1.00376 0
M  V30 220 C 20.1453 -0.999478 -2.11028 0
M  V30 221 C 21.1263 0.0759671 -1.6993 0
M  V30 222 O 22.3113 -0.0841106 -1.94018 0
M  V30 223 C 19.4413 -0.564709 -3.42678 0
M  V30 224 C 18.3953 -1.58486 -3.97576 0
M  V30 225 C 17.7213 -1.00628 -5.25146 0
M  V30 226 C 19.0213 -2.97204 -4.29496 0
M  V30 227 H 20.7153 -1.92495 -2.29317 0
M  V30 228 H 18.2613 -0.92693 -1.102 0
M  V30 229 H 20.2143 -0.401091 -4.19487 0
M  V30 230 H 18.9383 0.396411 -3.24185 0
M  V30 231 H 17.5973 -1.73606 -3.22888 0
M  V30 232 H 17.2453 -0.0368439 -5.02987 0
M  V30 233 H 16.9453 -1.68771 -5.62841 0
M  V30 234 H 18.4693 -0.854015 -6.04598 0
M  V30 235 H 19.8833 -2.8552 -4.97143 0
M  V30 236 H 18.2803 -3.62372 -4.78338 0
M  V30 237 H 19.3503 -3.47956 -3.3772 0
M  V30 238 N 20.6934 1.19889 -1.02296 0
M  V30 239 C 21.6234 2.25141 -0.619174 0
M  V30 240 C 22.6044 1.66051 0.368915 0
M  V30 241 O 23.7894 1.92546 0.252941 0
M  V30 242 C 20.9194 3.4728 0.0368783 0
M  V30 243 C 19.8734 4.19005 -0.872865 0
M  V30 244 C 19.1994 5.34637 -0.0822402 0
M  V30 245 C 20.4994 4.74452 -2.18387 0
M  V30 246 H 22.1934 2.59171 -1.49903 0
M  V30 247 H 19.7394 1.24579 -0.722222 0
M  V30 248 H 21.6924 4.20098 0.330958 0
M  V30 249 H 20.4164 3.12433 0.95149 0
M  V30 250 H 19.0754 3.48061 -1.15105 0
M  V30 251 H 18.7234 4.96034 0.83422 0
M  V30 252 H 18.4234 5.83557 -0.688149 0
M  V30 253 H 19.9474 6.10255 0.205238 0
M  V30 254 H 21.3614 5.39055 -1.95172 0
M  V30 255 H 19.7584 5.33834 -2.74119 0
M  V30 256 H 20.8284 3.92844 -2.84257 0
M  V30 257 N 22.1715 0.800033 1.35784 0
M  V30 258 C 23.5875 0.482977 1.52117 0
M  V30 259 C 23.7875 -0.996948 1.75109 0
M  V30 260 O 22.8435 -1.78216 1.78872 0
M  V30 261 C 24.1565 1.32264 2.70049 0
M  V30 262 C 25.7045 1.31742 2.83924 0
M  V30 263 C 26.1795 2.14106 4.04874 0
M  V30 264 N 27.6705 2.11607 4.12039 0
M  V30 265 C 28.4055 2.72099 5.04727 0
M  V30 266 N 27.9015 3.41492 6.02789 0
M  V30 267 N 29.6945 2.61776 4.97423 0
M  V30 268 H 21.8455 1.75856 1.19115 0
M  V30 269 H 24.1085 0.748122 0.582252 0
M  V30 270 H 23.8145 2.37261 2.59616 0
M  V30 271 H 23.6885 0.971303 3.6448 0
M  V30 272 H 26.0755 0.275333 2.93813 0
M  V30 273 H 26.1565 1.70859 1.9037 0
M  V30 274 H 25.8005 3.18351 3.95746 0
M  V30 275 H 25.7305 1.72353 4.97596 0
M  V30 276 H 28.2215 1.61112 3.41835 0
M  V30 277 H 28.5345 3.84953 6.70098 0
M  V30 278 H 26.8795 3.45596 6.02983 0
M  V30 279 H 30.0705 2.07157 4.19766 0
M  V30 280 H 30.2435 3.0921 5.69468 0
M  V30 281 N 23.6496 -1.47581 0.552962 0
M  V30 282 C 24.8746 -2.07378 0.0300593 0
M  V30 283 C 25.2996 -1.40355 -1.25229 0
M  V30 284 O 24.6576 -0.477099 -1.7491 0
M  V30 285 C 24.7056 -3.60274 -0.153231 0
M  V30 286 O 23.8096 -3.94041 -1.21678 0
M  V30 287 H 23.1506 -0.662158 0.0494182 0
M  V30 288 H 25.6806 -1.89662 0.767434 0
M  V30 289 H 25.6906 -4.0633 -0.368761 0
M  V30 290 H 24.3656 -4.08455 0.783397 0
M  V30 291 H 22.9426 -3.59735 -0.982079 0
M  V30 292 N 25.1277 -0.289203 -1.54924 0
M  V30 293 C 26.5387 0.205791 -1.85562 0
M  V30 294 C 26.8897 1.54351 -1.2112 0
M  V30 295 O 26.0147 2.10435 -0.504601 0
M  V30 296 C 26.6097 0.380177 -3.3666 0
M  V30 297 C 25.1687 0.819395 -3.67373 0
M  V30 298 C 24.3157 -0.079159 -2.77187 0
M  V30 299 H 27.2667 -0.510577 -1.50262 0
M  V30 300 H 27.2877 1.21659 -3.60526 0
M  V30 301 H 26.7997 -0.593589 -3.83534 0
M  V30 302 H 24.9007 1.80413 -3.26009 0
M  V30 303 H 25.0137 0.646957 -4.74712 0
M  V30 304 H 23.3777 0.439565 -2.50878 0
M  V30 305 H 24.1607 -1.04906 -3.26878 0
M  V30 306 N 26.6058 1.57591 -0.0167156 0
M  V30 307 C 27.5688 2.08393 0.954204 0
M  V30 308 C 28.5688 0.996531 1.26198 0
M  V30 309 O 29.7588 1.25858 1.20438 0
M  V30 310 C 26.8908 2.5394 2.27436 0
M  V30 311 H 28.0838 2.95455 0.514451 0
M  V30 312 H 25.6368 1.54582 0.231089 0
M  V30 313 H 26.3718 1.70171 2.76066 0
M  V30 314 H 26.1568 3.33371 2.06412 0
M  V30 315 H 27.6468 2.93512 2.97053 0
M  V30 316 N 28.0839 -0.256276 1.55502 0
M  V30 317 C 29.3319 -0.983672 1.76545 0
M  V30 318 C 29.6529 -1.86206 0.578982 0
M  V30 319 O 28.9229 -1.91656 -0.405577 0
M  V30 320 H 27.5029 -0.366191 0.651086 0
M  V30 321 H 30.1649 -0.276479 1.92929 0
M  V30 322 H 29.2609 -1.61087 2.67315 0
M  V30 323 N 29.562 -1.4872 -0.521534 0
M  V30 324 C 30.808 -1.574 -1.27879 0
M  V30 325 C 31.141 -0.250817 -1.92573 0
M  V30 326 O 30.416 0.743934 -1.79711 0
M  V30 327 C 30.699 -2.71843 -2.36164 0
M  V30 328 C 30.552 -4.13893 -1.76105 0
M  V30 329 C 31.871 -2.82008 -3.37875 0
M  V30 330 H 28.99 -0.572941 -0.463581 0
M  V30 331 H 31.632 -1.80927 -0.580119 0
M  V30 332 H 29.782 -2.51914 -2.95756 0
M  V30 333 H 31.454 -4.45284 -1.20499 0
M  V30 334 H 29.697 -4.20498 -1.06601 0
M  V30 335 H 30.368 -4.89804 -2.5455 0
M  V30 336 H 32.844 -3.00086 -2.88249 0
M  V30 337 H 31.72 -3.63796 -4.11028 0
M  V30 338 H 31.981 -1.90511 -3.98946 0
M  V30 339 N 31.0401 0.771051 -1.3745 0
M  V30 340 C 32.2651 1.56529 -1.36065 0
M  V30 341 C 32.6901 1.88029 0.0515859 0
M  V30 342 O 32.0481 1.49282 1.02882 0
M  V30 343 C 32.0961 2.85187 -2.20683 0
M  V30 344 O 31.2001 3.79593 -1.61193 0
M  V30 345 H 30.5411 0.47411 -0.464883 0
M  V30 346 H 33.0711 0.954269 -1.80983 0
M  V30 347 H 33.0811 3.34283 -2.33921 0
M  V30 348 H 31.7561 2.61588 -3.23334 0
M  V30 349 H 30.3331 3.38239 -1.56999 0
M  V30 350 N 32.5182 1.22032 0.997298 0
M  V30 351 C 33.4812 0.987909 2.06816 0
M  V30 352 C 34.4812 -0.0440084 1.6074 0
M  V30 353 O 35.6712 0.194053 1.73116 0
M  V30 354 C 32.8032 0.49132 3.37341 0
M  V30 355 H 33.9962 1.93803 2.28868 0
M  V30 356 H 31.5492 1.03838 1.16822 0
M  V30 357 H 32.2842 -0.463364 3.20973 0
M  V30 358 H 32.0692 1.23575 3.72118 0
M  V30 359 H 33.5592 0.348824 4.16141 0
M  V30 360 N 33.9963 -1.19345 1.0293 0
M  V30 361 C 35.2243 -1.92997 0.745644 0
M  V30 362 C 35.6393 -1.75519 -0.695589 0
M  V30 363 O 34.9963 -1.07737 -1.47306 0
M  V30 364 C 35.0473 -3.44741 1.08792 0
M  V30 365 O 34.7683 -3.61658 2.47256 0
M  V30 366 C 36.2693 -4.35515 0.827129 0
M  V30 367 H 33.4893 -0.613042 0.272801 0
M  V30 368 H 36.0333 -1.51473 1.3739 0
M  V30 369 H 34.1883 -3.84097 0.504832 0
M  V30 370 H 34.6023 -4.55514 2.60015 0
M  V30 371 H 36.0763 -5.40589 1.11658 0
M  V30 372 H 36.5533 -4.38552 -0.238436 0
M  V30 373 H 37.1593 -4.01841 1.39297 0
M  V30 374 N 35.4744 -0.807222 -1.35358 0
M  V30 375 C 36.4044 -0.232509 -2.3234 0
M  V30 376 C 37.3854 0.642386 -1.57504 0
M  V30 377 O 38.5704 0.572526 -1.85569 0
M  V30 378 C 35.7004 0.619238 -3.41735 0
M  V30 379 C 34.6544 -0.157215 -4.27711 0
M  V30 380 C 33.9804 0.816273 -5.28433 0
M  V30 381 C 35.2804 -1.35656 -5.04376 0
M  V30 382 H 36.9744 -1.04276 -2.80654 0
M  V30 383 H 34.5204 -0.50288 -1.34934 0
M  V30 384 H 36.4734 1.03137 -4.08584 0
M  V30 385 H 35.1974 1.46239 -2.92031 0
M  V30 386 H 33.8564 -0.550525 -3.62443 0
M  V30 387 H 33.5044 1.65494 -4.74996 0
M  V30 388 H 33.2044 0.301067 -5.86828 0
M  V30 389 H 34.7284 1.22659 -5.98153 0
M  V30 390 H 36.1424 -1.01927 -5.64166 0
M  V30 391 H 34.5394 -1.8063 -5.7227 0
M  V30 392 H 35.6094 -2.14288 -4.34981 0
M  V30 393 N 36.9525 1.47285 -0.560781 0
M  V30 394 C 38.3685 1.58065 -0.22081 0
M  V30 395 C 38.5685 1.55892 1.27671 0
M  V30 396 O 37.6245 1.46422 2.0571 0
M  V30 397 C 38.9375 2.88418 -0.850625 0
M  V30 398 C 40.4855 3.02009 -0.822184 0
M  V30 399 C 40.9605 4.35066 -1.43113 0
M  V30 400 N 42.4515 4.41711 -1.39448 0
M  V30 401 C 43.1865 5.43237 -1.83525 0
M  V30 402 N 42.6825 6.51555 -2.35474 0
M  V30 403 N 44.4755 5.34304 -1.74574 0
M  V30 404 H 36.6265 1.46941 -1.53369 0
M  V30 405 H 38.8895 0.699558 -0.639783 0
M  V30 406 H 38.5955 2.95755 -1.9032 0
M  V30 407 H 38.4695 3.75612 -0.345773 0
M  V30 408 H 40.8565 2.94266 0.221714 0
M  V30 409 H 40.9375 2.16347 -1.36483 0
M  V30 410 H 40.5815 4.43565 -2.47412 0
M  V30 411 H 40.5115 5.19465 -0.863899 0
M  V30 412 H 43.0025 3.64027 -1.01452 0
M  V30 413 H 43.3155 7.25203 -2.67021 0
M  V30 414 H 41.6605 6.52435 -2.39487 0
M  V30 415 H 44.8515 4.48581 -1.33763 0
M  V30 416 H 45.0245 6.13288 -2.09242 0
M  V30 417 N 38.4306 0.297415 1.54768 0
M  V30 418 C 39.8466 -0.0560823 1.59501 0
M  V30 419 C 40.0466 -1.52725 1.31444 0
M  V30 420 O 39.1026 -2.27947 1.08611 0
M  V30 421 C 40.4156 0.338631 2.98787 0
M  V30 422 C 41.9636 0.287097 3.11681 0
M  V30 423 C 42.4386 0.656579 4.53269 0
M  V30 424 N 43.9296 0.608977 4.59179 0
M  V30 425 C 44.6646 0.867385 5.66802 0
M  V30 426 N 44.1606 1.19157 6.82476 0
M  V30 427 N 45.9536 0.794687 5.56454 0
M  V30 428 H 38.1046 1.25624 1.71267 0
M  V30 429 H 40.3676 0.509057 0.799728 0
M  V30 430 H 40.0736 1.36263 3.2423 0
M  V30 431 H 39.9476 -0.309508 3.75928 0
M  V30 432 H 42.3346 -0.727649 2.85988 0
M  V30 433 H 42.4156 0.969809 2.36703 0
M  V30 434 H 42.0596 1.66912 4.7969 0
M  V30 435 H 41.9896 -0.0481649 5.26578 0
M  V30 436 H 44.4806 0.369198 3.76092 0
M  V30 437 H 44.7936 1.37482 7.60473 0
M  V30 438 H 43.1386 1.22958 6.84037 0
M  V30 439 H 46.3296 0.541098 4.64962 0
M  V30 440 H 46.5026 0.999445 6.40246 0
M  V30 441 N 39.9087 -1.5758 0.0250728 0
M  V30 442 C 40.8717 -2.08896 -0.943139 0
M  V30 443 C 41.8717 -1.00321 -1.25668 0
M  V30 444 O 43.0617 -1.26495 -1.19769 0
M  V30 445 C 40.1937 -2.55143 -2.26086 0
M  V30 446 H 41.3867 -2.95723 -0.498775 0
M  V30 447 H 38.9397 -1.54703 -0.222888 0
M  V30 448 H 39.6747 -1.71633 -2.75159 0
M  V30 449 H 39.4597 -3.34461 -2.04641 0
M  V30 450 H 40.9497 -2.95083 -2.95492 0
M  V30 451 N 41.3868 0.248026 -1.55636 0
M  V30 452 C 42.3188 1.32993 -1.8667 0
M  V30 453 C 43.3318 1.44345 -0.752877 0
M  V30 454 O 44.5208 1.45715 -1.03098 0
M  V30 455 C 41.6208 2.70863 -2.03682 0
M  V30 456 C 40.7938 2.81792 -3.34532 0
M  V30 457 C 39.8528 4.005 -3.41301 0
M  V30 458 O 38.8788 3.9008 -4.14519 0
M  V30 459 N 40.0808 5.13618 -2.70512 0
M  V30 460 H 42.8458 1.06707 -2.8006 0
M  V30 461 H 40.4068 0.438129 -1.55859 0
M  V30 462 H 42.3988 3.48612 -2.05553 0
M  V30 463 H 40.9688 2.89862 -1.17041 0
M  V30 464 H 40.1888 1.90729 -3.44987 0
M  V30 465 H 41.4768 2.86043 -4.20781 0
M  V30 466 H 40.8748 5.24975 -2.10755 0
M  V30 467 H 39.4318 5.89505 -2.78077 0
M  V30 468 N 42.8649 1.48995 0.513639 0
M  V30 469 C 44.2759 1.5119 1.09537 0
M  V30 470 C 44.6269 0.290906 1.94031 0
M  V30 471 O 43.7519 -0.60049 2.07902 0
M  V30 472 C 44.3469 2.73964 1.99322 0
M  V30 473 C 42.9059 2.78978 2.52682 0
M  V30 474 C 42.0529 2.44934 1.30009 0
M  V30 475 H 45.0039 1.55875 0.298125 0
M  V30 476 H 45.0249 2.53409 2.83838 0
M  V30 477 H 44.5369 3.62813 1.37799 0
M  V30 478 H 42.6379 1.94378 3.1788 0
M  V30 479 H 42.7509 3.8083 2.90698 0
M  V30 480 H 41.1149 1.9644 1.62122 0
M  V30 481 H 41.8979 3.36043 0.702131 0
M  V30 482 N 44.343 -0.763751 1.37857 0
M  V30 483 C 45.273 -1.89103 1.36975 0
M  V30 484 C 46.254 -1.68439 0.237152 0
M  V30 485 O 47.439 -1.8918 0.438713 0
M  V30 486 C 44.569 -3.26496 1.18395 0
M  V30 487 C 43.523 -3.61741 2.28751 0
M  V30 488 C 42.849 -4.97762 1.95286 0
M  V30 489 C 44.149 -3.67665 3.70972 0
M  V30 490 H 45.843 -1.90099 2.31307 0
M  V30 491 H 43.389 -0.91319 1.11341 0
M  V30 492 H 45.342 -4.05003 1.16406 0
M  V30 493 H 44.066 -3.25955 0.205215 0
M  V30 494 H 42.725 -2.85547 2.29909 0
M  V30 495 H 42.373 -4.93769 0.959221 0
M  V30 496 H 42.073 -5.22313 2.69189 0
M  V30 497 H 43.597 -5.7866 1.94898 0
M  V30 498 H 45.011 -4.36307 3.719 0
M  V30 499 H 43.408 -4.03718 4.43995 0
M  V30 500 H 44.478 -2.68134 4.0402 0
M  V30 501 N 45.8211 -1.22559 -0.990812 0
M  V30 502 C 47.0671 -1.05297 -1.73322 0
M  V30 503 C 47.4001 0.410655 -1.89808 0
M  V30 504 O 46.6751 1.30439 -1.44277 0
M  V30 505 C 46.9581 -1.76713 -3.13759 0
M  V30 506 C 46.8111 -3.30684 -3.04907 0
M  V30 507 C 48.1301 -1.52121 -4.12974 0
M  V30 508 H 45.2491 -0.38392 -0.629106 0
M  V30 509 H 47.8911 -1.50926 -1.15418 0
M  V30 510 H 46.0411 -1.37924 -3.63193 0
M  V30 511 H 47.7131 -3.7893 -2.63077 0
M  V30 512 H 45.9561 -3.60253 -2.41661 0
M  V30 513 H 46.6271 -3.75833 -4.04294 0
M  V30 514 H 49.1031 -1.85819 -3.72304 0
M  V30 515 H 47.9791 -2.04582 -5.0935 0
M  V30 516 H 48.2401 -0.454257 -4.3976 0
M  V30 517 N 47.2992 1.18797 -1.03562 0
M  V30 518 C 48.5272 1.92599 -0.755869 0
M  V30 519 C 48.9422 1.75886 0.686271 0
M  V30 520 O 48.2992 1.08517 1.46732 0
M  V30 521 C 48.3502 3.44159 -1.10619 0
M  V30 522 O 48.0712 3.60341 -2.4917 0
M  V30 523 C 49.5722 4.3507 -0.850214 0
M  V30 524 H 46.7922 0.611587 -0.276048 0
M  V30 525 H 49.3362 1.50742 -1.38192 0
M  V30 526 H 47.4912 3.83823 -0.525194 0
M  V30 527 H 47.9052 4.54128 -2.62427 0
M  V30 528 H 49.3792 5.39989 -1.14523 0
M  V30 529 H 49.8562 4.38673 0.215176 0
M  V30 530 H 50.4622 4.01097 -1.41426 0
M  V30 531 N 48.7773 0.814389 1.34928 0
M  V30 532 C 49.7073 0.244827 2.32213 0
M  V30 533 C 50.6883 -0.634024 1.57842 0
M  V30 534 O 51.8733 -0.562676 1.8587 0
M  V30 535 C 49.0033 -0.601106 3.42058 0
M  V30 536 C 47.9573 0.179896 4.27622 0
M  V30 537 C 47.2833 -0.788237 5.28858 0
M  V30 538 C 48.5833 1.38329 5.03649 0
M  V30 539 H 50.2773 1.05763 2.80097 0
M  V30 540 H 47.8233 0.510029 1.34665 0
M  V30 541 H 49.7763 -1.00968 4.09125 0
M  V30 542 H 48.5003 -1.44688 2.92802 0
M  V30 543 H 47.1593 0.569739 3.62146 0
M  V30 544 H 46.8073 -1.62973 4.75866 0
M  V30 545 H 46.5073 -0.269942 5.8698 0
M  V30 546 H 48.0313 -1.19485 5.98795 0
M  V30 547 H 49.4453 1.04918 5.63618 0
M  V30 548 H 47.8423 1.83662 5.71304 0
M  V30 549 H 48.9123 2.16592 4.33839 0
M  V30 550 N 50.2554 -1.46986 0.568584 0
M  V30 551 C 51.4954 -2.04336 0.0512999 0
M  V30 552 C 51.8594 -1.43214 -1.27881 0
M  V30 553 O 53.0604 -1.91679 -1.88448 0
M  V30 554 C 51.3314 -3.57389 -0.0282328 0
M  V30 555 S 52.8904 -4.36056 -0.489991 0
M  V30 556 H 49.7084 -0.71034 0.0306349 0
M  V30 557 H 52.3104 -1.80212 0.757891 0
M  V30 558 H 51.0144 -3.99395 0.944011 0
M  V30 559 H 50.5454 -3.86028 -0.75803 0
M  V30 560 H 52.5604 -4.6441 -1.74752 0
M  V30 561 N 51.7335 -0.305618 -1.54608 0
M  V30 562 C 53.1495 0.0476228 -1.59529 0
M  V30 563 C 53.3495 1.52025 -1.32252 0
M  V30 564 O 52.4055 2.27368 -1.09818 0
M  V30 565 C 53.7185 -0.354471 -2.98603 0
M  V30 566 C 55.2665 -0.303622 -3.11524 0
M  V30 567 C 55.7415 -0.680608 -4.52915 0
M  V30 568 N 57.2325 -0.63332 -4.5885 0
M  V30 569 C 57.9675 -0.897432 -5.66334 0
M  V30 570 N 57.4635 -1.22775 -6.81834 0
M  V30 571 N 59.2565 -0.824186 -5.56025 0
M  V30 572 H 51.4075 -1.2653 -1.70599 0
M  V30 573 H 53.6705 -0.513291 -0.797017 0
M  V30 574 H 53.3765 -1.3798 -3.23503 0
M  V30 575 H 53.2505 0.289568 -3.76087 0
M  V30 576 H 55.6375 0.712472 -2.8637 0
M  V30 577 H 55.7185 -0.982348 -2.36185 0
M  V30 578 H 55.3625 -1.69453 -4.78799 0
M  V30 579 H 55.2925 0.0202385 -5.26596 0
M  V30 580 H 57.7835 -0.389138 -3.75891 0
M  V30 581 H 58.0965 -1.41513 -7.59733 0
M  V30 582 H 56.4415 -1.26583 -6.83375 0
M  V30 583 H 59.6325 -0.565748 -4.64669 0
M  V30 584 H 59.8055 -1.03338 -6.39707 0
M  V30 585 N 53.2116 1.57565 -0.0334293 0
M  V30 586 C 54.6276 1.56297 0.322997 0
M  V30 587 C 54.8276 1.03945 1.7262 0
M  V30 588 O 53.8836 0.688109 2.42943 0
M  V30 589 C 55.1966 3.00232 0.167664 0
M  V30 590 C 56.7446 3.12078 0.240107 0
M  V30 591 C 57.2196 4.57859 0.113513 0
M  V30 592 N 58.7106 4.62887 0.170359 0
M  V30 593 C 59.4456 5.73319 0.0962517 0
M  V30 594 N 58.9416 6.92794 -0.0291881 0
M  V30 595 N 60.7346 5.61898 0.150551 0
M  V30 596 H 52.8856 1.89923 -0.950956 0
M  V30 597 H 55.1486 0.873824 -0.367608 0
M  V30 598 H 54.8546 3.42501 -0.799102 0
M  V30 599 H 54.7286 3.654 0.936083 0
M  V30 600 H 57.1156 2.69718 1.19733 0
M  V30 601 H 57.1966 2.49623 -0.558763 0
M  V30 602 H 56.8406 5.009 -0.840314 0
M  V30 603 H 56.7706 5.18299 0.931302 0
M  V30 604 H 59.2616 3.76954 0.26728 0
M  V30 605 H 59.5746 7.7276 -0.0789252 0
M  V30 606 H 57.9196 6.94971 -0.0640299 0
M  V30 607 H 61.1106 4.67448 0.246981 0
M  V30 608 H 61.2836 6.47938 0.0893365 0
M  V30 609 N 54.6897 -0.239769 1.55765 0
M  V30 610 C 56.1007 -0.808263 1.68297 0
M  V30 611 C 56.4517 -1.85736 0.632181 0
M  V30 612 O 55.5767 -2.15277 -0.220204 0
M  V30 613 C 56.1717 -1.47284 3.05111 0
M  V30 614 C 54.7307 -1.98895 3.19559 0
M  V30 615 C 53.8777 -0.842575 2.64189 0
M  V30 616 H 56.8287 -0.0154422 1.58692 0
M  V30 617 H 56.8497 -2.34111 2.99954 0
M  V30 618 H 56.3617 -0.709053 3.81568 0
M  V30 619 H 54.4627 -2.78132 2.47938 0
M  V30 620 H 54.5757 -2.18143 4.26556 0
M  V30 621 H 52.9397 -1.24501 2.22197 0
M  V30 622 H 53.7227 -0.0917552 3.43177 0
M  V30 623 N 56.1678 -1.49265 -0.50573 0
M  V30 624 C 57.5838 -1.35923 -0.836486 0
M  V30 625 C 57.7838 -0.388704 -1.97715 0
M  V30 626 O 56.8398 0.181336 -2.51848 0
M  V30 627 C 58.1528 -2.76531 -1.18115 0
M  V30 628 C 59.7008 -2.85197 -1.28964 0
M  V30 629 C 60.1758 -4.26561 -1.66761 0
M  V30 630 N 61.6668 -4.2935 -1.73819 0
M  V30 631 C 62.4018 -5.35693 -2.045 0
M  V30 632 N 61.8978 -6.52287 -2.33438 0
M  V30 633 N 63.6908 -5.23105 -2.05711 0
M  V30 634 H 55.8418 -2.10965 0.246519 0
M  V30 635 H 58.1048 -0.9468 0.0476887 0
M  V30 636 H 57.8108 -3.49226 -0.416398 0
M  V30 637 H 57.6848 -3.11599 -2.1257 0
M  V30 638 H 60.0718 -2.12742 -2.04511 0
M  V30 639 H 60.1528 -2.53718 -0.325704 0
M  V30 640 H 59.7968 -4.99541 -0.917656 0
M  V30 641 H 59.7268 -4.55502 -2.64246 0
M  V30 642 H 62.2178 -3.4526 -1.53635 0
M  V30 643 H 62.5308 -7.29158 -2.56024 0
M  V30 644 H 60.8758 -6.55521 -2.30905 0
M  V30 645 H 64.0668 -4.31026 -1.82577 0
M  V30 646 H 64.2398 -6.06078 -2.29289 0
M  V30 647 N 57.6459 0.756429 -1.3826 0
M  V30 648 C 58.8939 1.51248 -1.34047 0
M  V30 649 C 59.2149 1.94875 0.0698372 0
M  V30 650 O 58.4849 1.67436 1.01696 0
M  V30 651 H 57.0649 0.561018 -0.493222 0
M  V30 652 H 59.7269 0.899347 -1.7291 0
M  V30 653 H 58.8229 2.40472 -1.98947 0
M  V30 654 N 59.124 1.23083 0.984299 0
M  V30 655 C 60.372 1.05848 1.72165 0
M  V30 656 C 60.693 -0.406049 1.90726 0
M  V30 657 O 59.963 -1.29139 1.47309 0
M  V30 658 H 58.543 0.388685 0.637913 0
M  V30 659 H 61.205 1.54736 1.18503 0
M  V30 660 H 60.301 1.54327 2.71274 0
M  V30 661 N 60.6021 -1.18246 1.0419 0
M  V30 662 C 61.8501 -1.87886 0.744543 0
M  V30 663 C 62.1711 -1.8082 -0.730006 0
M  V30 664 O 61.4411 -1.22736 -1.52685 0
M  V30 665 H 60.0211 -0.695556 0.272417 0
M  V30 666 H 62.6831 -1.43494 1.31892 0
M  V30 667 H 61.7791 -2.9389 1.05049 0
M  V30 668 N 62.0802 -0.821533 -1.34494 0
M  V30 669 C 63.4962 -0.507117 -1.51329 0
M  V30 670 C 63.6962 0.968964 -1.76673 0
M  V30 671 O 62.7522 1.75348 -1.81685 0
M  V30 672 C 64.0652 -1.36544 -2.67911 0
M  V30 673 C 65.6132 -1.36242 -2.81793 0
M  V30 674 C 66.0882 -2.2052 -4.01416 0
M  V30 675 N 67.5792 -2.18136 -4.08621 0
M  V30 676 C 68.3142 -2.80095 -5.00334 0
M  V30 677 N 67.8102 -3.51039 -5.9728 0
M  V30 678 N 69.6032 -2.69656 -4.93196 0
M  V30 679 H 61.7542 -1.77729 -1.16302 0
M  V30 680 H 64.0172 -0.757291 -0.570276 0
M  V30 681 H 63.7232 -2.41361 -2.55808 0
M  V30 682 H 63.5972 -1.02917 -3.62888 0
M  V30 683 H 65.9842 -0.322041 -2.93338 0
M  V30 684 H 66.0652 -1.73866 -1.87628 0
M  V30 685 H 65.7092 -3.24607 -3.90631 0
M  V30 686 H 65.6392 -1.80247 -4.94791 0
M  V30 687 H 68.1302 -1.6653 -3.39229 0
M  V30 688 H 68.4432 -3.95565 -6.63889 0
M  V30 689 H 66.7882 -3.55145 -5.97409 0
M  V30 690 H 69.9792 -2.13808 -4.16418 0
M  V30 691 H 70.1522 -3.1823 -5.64476 0
M  V30 692 N 63.5583 1.46682 -0.576371 0
M  V30 693 C 64.9693 1.86112 -0.148091 0
M  V30 694 C 65.3203 1.48073 1.2872 0
M  V30 695 O 64.4453 0.892656 1.97131 0
M  V30 696 C 65.0403 3.37786 -0.261982 0
M  V30 697 C 63.5993 3.76235 0.111384 0
M  V30 698 C 62.7463 2.70713 -0.60083 0
M  V30 699 H 65.6973 1.37927 -0.78497 0
M  V30 700 H 65.7183 3.77007 0.514364 0
M  V30 701 H 65.2303 3.6544 -1.30671 0
M  V30 702 H 63.3313 3.54198 1.15649 0
M  V30 703 H 63.4443 4.78391 -0.26052 0
M  V30 704 H 61.8083 2.54666 -0.0417783 0
M  V30 705 H 62.5913 3.01208 -1.64708 0
M  V30 706 N 65.0364 0.313813 1.54444 0
M  V30 707 C 65.9994 -0.54379 2.22656 0
M  V30 708 C 66.9994 -1.05124 1.21678 0
M  V30 709 O 68.1894 -0.945225 1.46325 0
M  V30 710 C 65.3214 -1.75427 2.92298 0
M  V30 711 H 66.5144 0.0523599 2.99854 0
M  V30 712 H 64.0674 0.0647834 1.56166 0
M  V30 713 H 64.8024 -2.38991 2.19211 0
M  V30 714 H 64.5874 -1.39791 3.66334 0
M  V30 715 H 66.0774 -2.36325 3.44297 0
M  V30 716 N 66.5145 -1.57545 0.0417849 0
M  V30 717 C 67.4775 -2.09885 -0.92093 0
M  V30 718 C 68.4775 -1.01648 -1.24596 0
M  V30 719 O 69.6675 -1.27759 -1.1842 0
M  V30 720 C 66.7995 -2.57527 -2.23367 0
M  V30 721 H 67.9925 -2.96236 -0.467382 0
M  V30 722 H 65.5455 -1.5493 -0.206467 0
M  V30 723 H 66.2805 -1.74542 -2.73323 0
M  V30 724 H 66.0655 -3.36613 -2.01083 0
M  V30 725 H 67.5555 -2.98201 -2.92346 0
M  V30 726 N 67.9926 0.231505 -1.5589 0
M  V30 727 C 69.2406 0.955461 -1.78088 0
M  V30 728 C 69.5616 1.85262 -0.608533 0
M  V30 729 O 68.8316 1.92277 0.375035 0
M  V30 730 H 67.4116 0.355787 -0.656829 0
M  V30 731 H 70.0736 0.245751 -1.93344 0
M  V30 732 H 69.1696 1.56814 -2.69844 0
M  V30 733 N 69.4707 1.49531 0.497807 0
M  V30 734 C 70.8817 1.52344 1.07927 0
M  V30 735 C 71.2327 0.311469 1.93712 0
M  V30 736 O 70.3577 -0.578405 2.08527 0
M  V30 737 C 70.9527 2.76062 1.96405 0
M  V30 738 C 69.5117 2.81643 2.49709 0
M  V30 739 C 68.6587 2.46299 1.27404 0
M  V30 740 H 71.6097 1.56182 0.281576 0
M  V30 741 H 71.6307 2.56405 2.81135 0
M  V30 742 H 71.1427 3.64254 1.33943 0
M  V30 743 H 69.2437 1.97739 3.15801 0
M  V30 744 H 69.3567 3.83891 2.86643 0
M  V30 745 H 67.7207 1.98148 1.60029 0
M  V30 746 H 68.5037 3.36769 0.66645 0
M  V30 747 N 70.9488 -0.749086 1.3866 0
M  V30 748 C 71.9118 -1.84457 1.36045 0
M  V30 749 C 72.9118 -1.58682 0.260122 0
M  V30 750 O 74.1018 -1.66343 0.517261 0
M  V30 751 C 71.2338 -3.22008 1.11911 0
M  V30 752 H 72.4268 -1.88182 2.33512 0
M  V30 753 H 69.9798 -0.951266 1.24019 0
M  V30 754 H 70.7148 -3.2395 0.150686 0
M  V30 755 H 70.4998 -3.42111 1.91579 0
M  V30 756 H 71.9898 -4.0208 1.12788 0
M  V30 757 N 72.4269 -1.23603 -0.977757 0
M  V30 758 C 73.3899 -1.02069 -2.05218 0
M  V30 759 C 74.3899 0.0184305 -1.60789 0
M  V30 760 O 75.5799 -0.221569 -1.72785 0
M  V30 761 C 72.7119 -0.544926 -3.36517 0
M  V30 762 H 73.9049 -1.9742 -2.25755 0
M  V30 763 H 71.4579 -1.05684 -1.15155 0
M  V30 764 H 72.1929 0.412241 -3.21669 0
M  V30 765 H 71.9779 -1.2948 -3.70105 0
M  V30 766 H 73.4679 -0.414985 -4.15533 0
M  V30 767 N 73.905 1.17692 -1.04816 0
M  V30 768 C 74.868 2.19787 -0.650117 0
M  V30 769 C 75.868 1.58044 0.296427 0
M  V30 770 O 77.058 1.74012 0.0808097 0
M  V30 771 C 74.19 3.40869 0.0456987 0
M  V30 772 H 75.383 2.56516 -1.5537 0
M  V30 773 H 72.936 1.31708 -0.841594 0
M  V30 774 H 73.671 3.09681 0.962726 0
M  V30 775 H 73.456 3.86928 -0.634727 0
M  V30 776 H 74.946 4.16445 0.310432 0
M  V30 777 N 75.3831 0.828654 1.34056 0
M  V30 778 C 76.3461 0.259927 2.27721 0
M  V30 779 C 77.3461 -0.565478 1.50529 0
M  V30 780 O 78.5361 -0.38075 1.69988 0
M  V30 781 C 75.6681 -0.634944 3.34935 0
M  V30 782 H 76.8611 1.0863 2.79534 0
M  V30 783 H 74.4141 0.600951 1.44285 0
M  V30 784 H 75.1491 -1.48416 2.88346 0
M  V30 785 H 74.9341 -0.0444999 3.92075 0
M  V30 786 H 76.4241 -1.02648 4.04788 0
M  V30 787 N 76.8612 -1.46375 0.584142 0
M  V30 788 C 78.2772 -1.57694 0.245929 0
M  V30 789 C 78.4772 -1.57903 -1.25175 0
M  V30 790 O 77.5332 -1.49676 -2.03355 0
M  V30 791 C 78.8462 -2.87028 0.896402 0
M  V30 792 C 80.3942 -3.00662 0.870127 0
M  V30 793 C 80.8692 -4.32734 1.50017 0
M  V30 794 N 82.3602 -4.39436 1.46458 0
M  V30 795 C 83.0952 -5.40248 1.92144 0
M  V30 796 N 82.5912 -6.47726 2.4581 0
M  V30 797 N 84.3842 -5.31459 1.83052 0
M  V30 798 H 76.5352 -1.44483 1.55687 0
M  V30 799 H 78.7982 -0.689291 0.650831 0
M  V30 800 H 78.5042 -2.9269 1.95002 0
M  V30 801 H 78.3782 -3.75014 0.405486 0
M  V30 802 H 80.7652 -2.94581 -0.174871 0
M  V30 803 H 80.8462 -2.14148 1.39908 0
M  V30 804 H 80.4902 -4.39573 2.54437 0
M  V30 805 H 80.4202 -5.18025 0.946432 0
M  V30 806 H 82.9112 -3.62367 1.07231 0
M  V30 807 H 83.2242 -7.20863 2.78525 0
M  V30 808 H 81.5692 -6.48542 2.49836 0
M  V30 809 H 84.7602 -4.46396 1.40883 0
M  V30 810 H 84.9332 -6.09881 2.18973 0
M  V30 811 N 78.3393 -0.321999 -1.54275 0
M  V30 812 C 79.2693 0.537411 -2.27231 0
M  V30 813 C 80.2503 1.12064 -1.27968 0
M  V30 814 O 81.4353 1.14606 -1.56777 0
M  V30 815 C 78.5653 1.69919 -3.02894 0
M  V30 816 C 77.5193 1.24534 -4.09482 0
M  V30 817 C 76.8453 2.49394 -4.72977 0
M  V30 818 C 78.1453 0.361335 -5.21049 0
M  V30 819 H 79.8393 -0.0711406 -2.99315 0
M  V30 820 H 77.3853 -0.0356555 -1.43956 0
M  V30 821 H 79.3383 2.30668 -3.52662 0
M  V30 822 H 78.0623 2.33431 -2.28424 0
M  V30 823 H 76.7213 0.660782 -3.60596 0
M  V30 824 H 76.3693 3.11265 -3.95124 0
M  V30 825 H 76.0693 2.19718 -5.44975 0
M  V30 826 H 77.5933 3.10908 -5.25517 0
M  V30 827 H 79.0073 0.875072 -5.66582 0
M  V30 828 H 77.4043 0.157428 -5.99893 0
M  V30 829 H 78.4743 -0.60822 -4.8107 0
M  V30 830 N 79.8174 1.5752 -0.0501392 0
M  V30 831 C 80.7674 2.07981 0.934231 0
M  V30 832 C 81.7514 0.984745 1.27246 0
M  V30 833 O 82.9434 1.24809 1.25506 0
M  V30 834 C 80.0724 2.62751 2.20945 0
M  V30 835 C 79.1584 3.79225 1.89865 0
M  V30 836 N 79.5494 4.89036 1.29142 0
M  V30 837 C 77.8474 3.88111 2.19741 0
M  V30 838 C 78.5484 5.70084 1.15669 0
M  V30 839 N 77.5244 5.17659 1.65923 0
M  V30 840 H 81.3264 2.90277 0.460053 0
M  V30 841 H 78.8404 1.61665 0.15434 0
M  V30 842 H 80.8374 2.97205 2.9236 0
M  V30 843 H 79.4974 1.81894 2.6897 0
M  V30 844 H 80.5084 5.08854 0.963756 0
M  V30 845 H 77.1854 3.18194 2.70293 0
M  V30 846 H 78.5754 6.68395 0.685356 0
M  V30 847 N 81.2955 -0.223234 1.56011 0
M  V30 848 C 82.7065 -0.790368 1.69145 0
M  V30 849 C 83.0575 -1.85055 0.651845 0
M  V30 850 O 82.1825 -2.15498 -0.197359 0
M  V30 851 C 82.7775 -1.4404 3.06656 0
M  V30 852 C 81.3365 -1.95494 3.2165 0
M  V30 853 C 80.4835 -0.814506 2.65068 0
M  V30 854 H 83.4345 0.00139011 1.587 0
M  V30 855 H 83.4555 -2.30916 3.0242 0
M  V30 856 H 82.9675 -0.668543 3.82298 0
M  V30 857 H 81.0685 -2.75487 2.50874 0
M  V30 858 H 81.1815 -2.13607 4.28846 0
M  V30 859 H 79.5455 -1.22137 2.23505 0
M  V30 860 H 80.3285 -0.0553515 3.43255 0
M  V30 861 N 82.7736 -1.49793 -0.48987 0
M  V30 862 C 84.0196 -1.61049 -1.24236 0
M  V30 863 C 84.3746 -0.298412 -1.90072 0
M  V30 864 O 83.6676 0.702262 -1.78266 0
M  V30 865 C 83.8616 -2.71488 -2.32441 0
M  V30 866 C 83.6906 -4.13308 -1.77218 0
M  V30 867 C 82.4606 -4.79955 -1.58023 0
M  V30 868 C 84.6586 -4.98176 -1.27772 0
M  V30 869 N 82.6406 -6.06052 -0.978465 0
M  V30 870 C 84.0116 -6.14843 -0.798 0
M  V30 871 C 86.0666 -4.84091 -1.16449 0
M  V30 872 C 84.7696 -7.18975 -0.216245 0
M  V30 873 C 86.7956 -5.88382 -0.596698 0
M  V30 874 C 86.1576 -7.04285 -0.127262 0
M  V30 875 H 82.2566 -0.643611 -0.444172 0
M  V30 876 H 84.8406 -1.86842 -0.54754 0
M  V30 877 H 83.0116 -2.47449 -2.99372 0
M  V30 878 H 84.7436 -2.72205 -2.99477 0
M  V30 879 H 81.4986 -4.36936 -1.82712 0
M  V30 880 H 81.9226 -6.73407 -0.696534 0
M  V30 881 H 86.5646 -3.94786 -1.5134 0
M  V30 882 H 84.2826 -8.0797 0.144903 0
M  V30 883 H 87.8686 -5.79545 -0.511716 0
M  V30 884 H 86.7486 -7.83606 0.30523 0
M  V30 885 N 84.2517 0.741722 -1.39055 0
M  V30 886 C 85.4977 1.50234 -1.37118 0
M  V30 887 C 85.8527 1.92368 0.0350439 0
M  V30 888 O 85.1457 1.63422 1.00019 0
M  V30 889 C 85.3397 2.7592 -2.27163 0
M  V30 890 C 85.1687 2.46074 -3.76401 0
M  V30 891 C 83.9387 2.38704 -4.45364 0
M  V30 892 C 86.1367 2.12062 -4.68545 0
M  V30 893 N 84.1187 2.01258 -5.79973 0
M  V30 894 C 85.4897 1.85005 -5.91754 0
M  V30 895 C 87.5447 1.98473 -4.56632 0
M  V30 896 C 86.2477 1.4573 -7.04383 0
M  V30 897 C 88.2737 1.60599 -5.69176 0
M  V30 898 C 87.6357 1.34423 -6.91455 0
M  V30 899 H 83.7347 0.548858 -0.557027 0
M  V30 900 H 86.3187 0.862642 -1.74547 0
M  V30 901 H 84.4897 3.3768 -1.91904 0
M  V30 902 H 86.2217 3.42068 -2.16267 0
M  V30 903 H 82.9767 2.55574 -3.98721 0
M  V30 904 H 83.4007 1.85147 -6.51191 0
M  V30 905 H 88.0427 2.17381 -3.62637 0
M  V30 906 H 85.7607 1.25562 -7.98286 0
M  V30 907 H 89.3467 1.507 -5.61944 0
M  V30 908 H 88.2267 1.05555 -7.77064 0
M  V30 909 N 85.7298 1.2412 0.971189 0
M  V30 910 C 86.9778 1.07668 1.71032 0
M  V30 911 C 87.2988 -0.385797 1.91146 0
M  V30 912 O 86.5688 -1.27569 1.4867 0
M  V30 913 H 85.1488 0.395429 0.633755 0
M  V30 914 H 87.8108 1.55984 1.16855 0
M  V30 915 H 86.9068 1.57195 2.69622 0
M  V30 916 N 87.2079 -1.17134 1.05439 0
M  V30 917 C 88.4559 -1.87085 0.764429 0
M  V30 918 C 88.7769 -1.81584 -0.710787 0
M  V30 919 O 88.0469 -1.24349 -1.51374 0
M  V30 920 H 86.6269 -0.692627 0.279779 0
M  V30 921 H 89.2889 -1.42087 1.33406 0
M  V30 922 H 88.3849 -2.92759 1.0816 0
M  V30 923 N 88.686 -0.835752 -1.33615 0
M  V30 924 C 89.934 -0.429109 -1.97492 0
M  V30 925 C 90.255 1.01433 -1.66543 0
M  V30 926 O 89.525 1.70611 -0.962744 0
M  V30 927 H 88.105 -0.155686 -0.730596 0
M  V30 928 H 90.767 -1.06802 -1.63031 0
M  V30 929 H 89.863 -0.55861 -3.0706 0
M  V30 930 N 90.1641 1.46063 -0.591896 0
M  V30 931 C 91.4121 2.01938 -0.0808391 0
M  V30 932 C 91.7331 1.46475 1.28725 0
M  V30 933 O 91.0031 0.652944 1.84698 0
M  V30 934 H 89.5831 0.746516 -0.0268938 0
M  V30 935 H 92.2451 1.79055 -0.769752 0
M  V30 936 H 91.3411 3.12094 -0.0187578 0
M  V30 937 N 91.6422 0.330177 1.54103 0
M  V30 938 C 92.8882 -0.263542 2.01685 0
M  V30 939 C 93.2432 -1.49258 1.21408 0
M  V30 940 O 92.5362 -1.89395 0.289852 0
M  V30 941 C 92.7302 -0.643134 3.51566 0
M  V30 942 C 92.5592 0.547571 4.46354 0
M  V30 943 C 91.3292 1.04873 4.94297 0
M  V30 944 C 93.5272 1.40184 4.94826 0
M  V30 945 N 91.5092 2.20316 5.73005 0
M  V30 946 C 92.8802 2.40335 5.71524 0
M  V30 947 C 94.9352 1.42884 4.76958 0
M  V30 948 C 93.6382 3.42998 6.32254 0
M  V30 949 C 95.6642 2.44421 5.38528 0
M  V30 950 C 95.0262 3.43298 6.15082 0
M  V30 951 H 91.1252 -0.0601026 0.779687 0
M  V30 952 H 93.7092 0.466714 1.89023 0
M  V30 953 H 91.8802 -1.34251 3.6446 0
M  V30 954 H 93.6122 -1.21889 3.85908 0
M  V30 955 H 90.3672 0.618956 4.69538 0
M  V30 956 H 90.7912 2.78565 6.17034 0
M  V30 957 H 95.4332 0.678049 4.17328 0
M  V30 958 H 93.1512 4.1898 6.91 0
M  V30 959 H 96.7372 2.4732 5.26616 0
M  V30 960 H 95.6172 4.20579 6.61878 0
M  V30 961 N 93.1203 -1.57491 0.0584922 0
M  V30 962 C 94.5313 -1.80526 -0.476138 0
M  V30 963 C 94.8823 -0.971334 -1.70469 0
M  V30 964 O 94.0073 -0.190012 -2.15564 0
M  V30 965 C 94.6023 -3.27424 -0.870587 0
M  V30 966 C 93.1613 -3.51351 -1.35015 0
M  V30 967 C 92.3083 -2.75343 -0.32887 0
M  V30 968 H 95.2593 -1.56133 0.284312 0
M  V30 969 H 95.2803 -3.38745 -1.73299 0
M  V30 970 H 94.7923 -3.88093 0.0237627 0
M  V30 971 H 92.8933 -2.95971 -2.26345 0
M  V30 972 H 93.0063 -4.60059 -1.33726 0
M  V30 973 H 91.3703 -2.417 -0.803321 0
M  V30 974 H 92.1533 -3.38743 0.557521 0
M  V30 975 N 94.5984 0.214957 -1.56127 0
M  V30 976 C 95.5614 1.24997 -1.92116 0
M  V30 977 C 96.5614 1.39467 -0.800344 0
M  V30 978 O 97.7514 1.37619 -1.06802 0
M  V30 979 C 94.8834 2.62271 -2.17777 0
M  V30 980 H 96.0764 0.942875 -2.84693 0
M  V30 981 H 93.6294 0.455654 -1.49511 0
M  V30 982 H 94.3644 2.98068 -1.27773 0
M  V30 983 H 94.1494 2.53143 -2.99434 0
M  V30 984 H 95.6394 3.36946 -2.46693 0
M  V30 985 N 96.0765 1.50051 0.48192 0
M  V30 986 C 96.9865 1.7089 1.60728 0
M  V30 987 C 98.0025 0.591788 1.63627 0
M  V30 988 O 99.1785 0.868817 1.81696 0
M  V30 989 C 96.2435 1.78855 2.97005 0
M  V30 990 C 95.3045 3.02537 3.04581 0
M  V30 991 C 94.5375 3.10112 4.34357 0
M  V30 992 O 94.7605 2.24765 5.24249 0
M  V30 993 O 93.6945 4.02747 4.47301 0
M  V30 994 H 97.5205 2.66264 1.46072 0
M  V30 995 H 95.1055 1.34018 0.660264 0
M  V30 996 H 96.9875 1.86336 3.77964 0
M  V30 997 H 95.6625 0.866628 3.11883 0
M  V30 998 H 94.5695 3.00563 2.22739 0
M  V30 999 H 95.9025 3.94272 2.94636 0
M  V30 1000 N 97.5546 -0.734337 1.39446 0
M  V30 1001 C 98.9656 -1.31264 1.32766 0
M  V30 1002 C 99.3166 -1.96198 -0.00767497 0
M  V30 1003 O 98.4416 -1.96346 -0.909796 0
M  V30 1004 C 99.0366 -2.38682 2.4045 0
M  V30 1005 C 97.5956 -2.92184 2.37288 0
M  V30 1006 C 96.7426 -1.6576 2.22304 0
M  V30 1007 H 99.6936 -0.531799 1.49525 0
M  V30 1008 H 99.7146 -3.19087 2.07276 0
M  V30 1009 H 99.2266 -1.91392 3.37625 0
M  V30 1010 H 97.3276 -3.43752 1.43754 0
M  V30 1011 H 97.4406 -3.45253 3.3217 0
M  V30 1012 H 95.8046 -1.9012 1.69489 0
M  V30 1013 H 96.5876 -1.20521 3.21449 0
M  V30 1014 N 99.0327 -1.24633 -0.964593 0
M  V30 1015 C 99.9627 -1.06611 -2.07741 0
M  V30 1016 C 100.944 0.0218666 -1.70086 0
M  V30 1017 O 102.129 -0.145793 -1.93652 0
M  V30 1018 C 99.2587 -0.673444 -3.40708 0
M  V30 1019 C 98.2127 -1.71054 -3.92332 0
M  V30 1020 C 97.5387 -1.17285 -5.21678 0
M  V30 1021 C 98.8387 -3.10718 -4.19824 0
M  V30 1022 H 100.533 -1.99693 -2.23076 0
M  V30 1023 H 98.0787 -0.96152 -1.07195 0
M  V30 1024 H 100.032 -0.534345 -4.17998 0
M  V30 1025 H 98.7557 0.293073 -3.25282 0
M  V30 1026 H 97.4147 -1.83791 -3.17201 0
M  V30 1027 H 97.0627 -0.196847 -5.02615 0
M  V30 1028 H 96.7627 -1.86592 -5.57187 0
M  V30 1029 H 98.2867 -1.04593 -6.01575 0
M  V30 1030 H 99.7007 -3.01192 -4.87808 0
M  V30 1031 H 98.0977 -3.77406 -4.66567 0
M  V30 1032 H 99.1677 -3.58524 -3.26479 0
M  V30 1033 N 100.511 1.16574 -1.06058 0
M  V30 1034 C 101.474 2.19085 -0.673392 0
M  V30 1035 C 102.474 1.5835 0.279648 0
M  V30 1036 O 103.664 1.74088 0.0623488 0
M  V30 1037 C 100.796 3.40899 0.00954234 0
M  V30 1038 H 101.989 2.54853 -1.58081 0
M  V30 1039 H 99.5418 1.30808 -0.855516 0
M  V30 1040 H 100.277 3.10684 0.929826 0
M  V30 1041 H 100.062 3.86233 -0.67573 0
M  V30 1042 H 101.552 4.1675 0.266245 0
M  V30 1043 N 101.989 0.842826 1.3317 0
M  V30 1044 C 103.405 0.531128 1.50503 0
M  V30 1045 C 103.605 -0.940734 1.78192 0
M  V30 1046 O 102.661 -1.72436 1.84451 0
M  V30 1047 C 103.974 1.40789 2.65705 0
M  V30 1048 C 105.522 1.40708 2.79589 0
M  V30 1049 C 105.997 2.26878 3.97857 0
M  V30 1050 N 107.488 2.24609 4.05099 0
M  V30 1051 C 108.223 2.88019 4.95815 0
M  V30 1052 N 107.719 3.60496 5.9162 0
M  V30 1053 N 109.512 2.77469 4.88843 0
M  V30 1054 H 101.663 1.79557 1.1346 0
M  V30 1055 H 103.926 0.766267 0.558156 0
M  V30 1056 H 103.632 2.454 2.51936 0
M  V30 1057 H 103.506 1.08677 3.61205 0
M  V30 1058 H 105.893 0.368668 2.92788 0
M  V30 1059 H 105.974 1.76829 1.84838 0
M  V30 1060 H 105.618 3.3078 3.85418 0
M  V30 1061 H 105.548 1.88096 4.91861 0
M  V30 1062 H 108.039 1.71906 3.36536 0
M  V30 1063 H 108.352 4.06076 6.57512 0
M  V30 1064 H 106.697 3.64604 5.91683 0
M  V30 1065 H 109.888 2.20406 4.12963 0
M  V30 1066 H 110.061 3.2717 5.59342 0
M  V30 1067 N 103.467 -1.45747 0.599634 0
M  V30 1068 C 104.715 -2.01893 0.0915472 0
M  V30 1069 C 105.036 -1.47155 -1.27946 0
M  V30 1070 O 104.306 -0.66273 -1.84349 0
M  V30 1071 H 102.886 -0.746363 0.0308524 0
M  V30 1072 H 105.548 -1.78645 0.779237 0
M  V30 1073 H 104.644 -3.1208 0.0353086 0
M  V30 1074 N 104.945 -0.338344 -1.53925 0
M  V30 1075 C 105.875 0.51328 -2.27789 0
M  V30 1076 C 106.856 1.107 -1.29149 0
M  V30 1077 O 108.041 1.12937 -1.57984 0
M  V30 1078 C 105.171 1.66697 -3.04679 0
M  V30 1079 C 104.125 1.20183 -4.1078 0
M  V30 1080 C 103.451 2.44363 -4.75595 0
M  V30 1081 C 104.751 0.30605 -5.21403 0
M  V30 1082 H 106.445 -0.102883 -2.99223 0
M  V30 1083 H 103.991 -0.0509219 -1.4391 0
M  V30 1084 H 105.944 2.26915 -3.55088 0
M  V30 1085 H 104.668 2.30995 -2.30887 0
M  V30 1086 H 103.327 0.622499 -3.61276 0
M  V30 1087 H 102.975 3.07057 -3.98403 0
M  V30 1088 H 102.675 2.13925 -5.47275 0
M  V30 1089 H 104.199 3.05317 -5.28786 0
M  V30 1090 H 105.613 0.814929 -5.67478 0
M  V30 1091 H 104.01 0.0937929 -6.00027 0
M  V30 1092 H 105.08 -0.65921 -4.80398 0
M  V30 1093 N 106.423 1.57458 -0.0668435 0
M  V30 1094 C 107.648 1.9804 0.616027 0
M  V30 1095 C 108.073 0.944771 1.62652 0
M  V30 1096 O 107.431 -0.0902094 1.81075 0
M  V30 1097 C 107.479 3.37665 1.26549 0
M  V30 1098 O 106.583 3.36701 2.38131 0
M  V30 1099 H 105.924 0.644719 0.158849 0
M  V30 1100 H 108.454 2.04121 -0.139891 0
M  V30 1101 H 108.464 3.7474 1.6135 0
M  V30 1102 H 107.139 4.12573 0.525016 0
M  V30 1103 H 105.716 3.1139 2.0516 0
M  V30 1104 N 107.901 -0.206675 1.56239 0
M  V30 1105 C 109.126 -0.949474 1.8439 0
M  V30 1106 C 109.551 -1.76549 0.649016 0
M  V30 1107 O 108.909 -1.76782 -0.402231 0
M  V30 1108 C 108.957 -1.83078 3.10668 0
M  V30 1109 O 108.061 -2.9281 2.90407 0
M  V30 1110 H 107.402 -0.268033 0.607499 0
M  V30 1111 H 109.932 -0.215488 2.03462 0
M  V30 1112 H 109.942 -2.2377 3.41161 0
M  V30 1113 H 108.617 -1.23112 3.97261 0
M  V30 1114 H 107.194 -2.55956 2.71184 0
M  V30 1115 N 109.379 -1.50304 -0.473955 0
M  V30 1116 C 110.604 -1.65175 -1.25427 0
M  V30 1117 C 111.029 -0.333673 -1.85117 0
M  V30 1118 O 110.387 0.702114 -1.67153 0
M  V30 1119 C 110.435 -2.74295 -2.34082 0
M  V30 1120 O 109.539 -2.35349 -3.38651 0
M  V30 1121 H 108.88 -0.551944 -0.369126 0
M  V30 1122 H 111.41 -1.96662 -0.564364 0
M  V30 1123 H 111.42 -2.97285 -2.79438 0
M  V30 1124 H 110.095 -3.69959 -1.90008 0
M  V30 1125 H 108.672 -2.22794 -2.99027 0
M  V30 1126 N 110.857 0.726932 -1.39834 0
M  V30 1127 C 112.268 1.30558 -1.3346 0
M  V30 1128 C 112.619 1.962 -0.00273003 0
M  V30 1129 O 111.744 1.96826 0.899371 0
M  V30 1130 C 112.339 2.37404 -2.41713 0
M  V30 1131 C 110.898 2.90921 -2.38835 0
M  V30 1132 C 110.045 1.64578 -2.2318 0
M  V30 1133 H 112.996 0.523862 -1.49804 0
M  V30 1134 H 113.017 3.17984 -2.08966 0
M  V30 1135 H 112.529 1.89599 -3.38635 0
M  V30 1136 H 110.63 3.42985 -1.45575 0
M  V30 1137 H 110.743 3.43487 -3.33997 0
M  V30 1138 H 109.107 1.89219 -1.70494 0
M  V30 1139 H 109.89 1.18814 -3.22084 0
M  V30 1140 N 112.336 1.25143 0.95797 0
M  V30 1141 C 113.561 1.12521 1.74223 0
M  V30 1142 C 113.986 -0.317402 1.85403 0
M  V30 1143 O 113.344 -1.2299 1.33204 0
M  V30 1144 C 113.392 1.78062 3.1357 0
M  V30 1145 O 112.496 1.058 3.98598 0
M  V30 1146 H 111.837 0.39304 0.535178 0
M  V30 1147 H 114.367 1.65641 1.201 0
M  V30 1148 H 114.377 1.84213 3.64046 0
M  V30 1149 H 113.052 2.83021 3.04749 0
M  V30 1150 H 111.629 1.07506 3.57067 0
M  V30 1151 N 113.814 -1.1601 1.06675 0
M  V30 1152 C 114.724 -2.24156 0.692179 0
M  V30 1153 C 115.74 -1.71507 -0.293513 0
M  V30 1154 O 116.916 -2.009 -0.141861 0
M  V30 1155 C 113.981 -3.46587 0.0884131 0
M  V30 1156 C 113.042 -4.14257 1.12646 0
M  V30 1157 C 112.275 -5.30844 0.551416 0
M  V30 1158 O 112.498 -5.66858 -0.634656 0
M  V30 1159 O 111.432 -5.87848 1.29298 0
M  V30 1160 H 115.258 -2.58513 1.59388 0
M  V30 1161 H 112.843 -1.23599 0.83926 0
M  V30 1162 H 114.725 -4.20679 -0.246361 0
M  V30 1163 H 113.4 -3.13994 -0.786712 0
M  V30 1164 H 112.307 -3.42118 1.51348 0
M  V30 1165 H 113.64 -4.50914 1.97325 0
M  V30 1166 N 115.292 -0.849877 -1.32721 0
M  V30 1167 C 116.541 -0.447175 -1.96681 0
M  V30 1168 C 116.854 1.00135 -1.68025 0
M  V30 1169 O 118.06 1.50926 -2.25685 0
M  V30 1170 C 116.516 -0.7487 -3.52026 0
M  V30 1171 C 116.124 -2.21264 -3.89546 0
M  V30 1172 C 117.868 -0.413487 -4.22481 0
M  V30 1173 C 115.775 -2.45763 -5.37917 0
M  V30 1174 H 114.705 -0.163486 -0.736063 0
M  V30 1175 H 117.356 -1.03999 -1.51183 0
M  V30 1176 H 115.738 -0.0853727 -3.95908 0
M  V30 1177 H 116.912 -2.91736 -3.56689 0
M  V30 1178 H 115.227 -2.5119 -3.32103 0
M  V30 1179 H 117.824 -0.574017 -5.3161 0
M  V30 1180 H 118.167 0.644492 -4.11281 0
M  V30 1181 H 118.7 -1.03251 -3.84167 0
M  V30 1182 H 115.439 -3.50168 -5.54132 0
M  V30 1183 H 114.959 -1.79864 -5.72197 0
M  V30 1184 H 116.638 -2.29471 -6.0494 0
M  V30 1185 N 116.77 1.45427 -0.607355 0
M  V30 1186 C 117.7 2.3329 0.0989352 0
M  V30 1187 C 118.681 1.46816 0.859007 0
M  V30 1188 O 119.866 1.75588 0.829604 0
M  V30 1189 C 116.996 3.29518 1.09705 0
M  V30 1190 C 115.95 4.25626 0.450206 0
M  V30 1191 C 115.276 5.11542 1.55655 0
M  V30 1192 C 116.576 5.18505 -0.628455 0
M  V30 1193 H 118.27 2.92595 -0.634716 0
M  V30 1194 H 115.816 1.40696 -0.306681 0
M  V30 1195 H 117.769 3.89855 1.59971 0
M  V30 1196 H 116.493 2.68372 1.86129 0
M  V30 1197 H 115.152 3.66586 -0.0315886 0
M  V30 1198 H 114.8 4.46765 2.31107 0
M  V30 1199 H 114.5 5.76647 1.12925 0
M  V30 1200 H 116.024 5.74748 2.06148 0
M  V30 1201 H 117.438 5.72916 -0.209877 0
M  V30 1202 H 115.835 5.92085 -0.977489 0
M  V30 1203 H 116.905 4.60948 -1.50514 0
M  V30 1204 N 118.248 0.346503 1.53744 0
M  V30 1205 C 119.18 -0.543316 2.22667 0
M  V30 1206 C 120.193 -1.06159 1.23427 0
M  V30 1207 O 121.382 -0.971235 1.49764 0
M  V30 1208 C 118.482 -1.76076 2.89569 0
M  V30 1209 C 117.655 -1.37727 4.15151 0
M  V30 1210 C 116.714 -2.45471 4.65436 0
M  V30 1211 O 115.74 -2.08655 5.29577 0
M  V30 1212 N 116.942 -3.7677 4.41616 0
M  V30 1213 H 119.707 0.0469703 2.99663 0
M  V30 1214 H 117.268 0.170766 1.60997 0
M  V30 1215 H 119.26 -2.47593 3.20125 0
M  V30 1216 H 117.83 -2.25835 2.16142 0
M  V30 1217 H 117.05 -0.492746 3.91108 0
M  V30 1218 H 118.338 -1.09708 4.96832 0
M  V30 1219 H 117.736 -4.09467 3.90325 0
M  V30 1220 H 116.293 -4.44448 4.7677 0
M  V30 1221 N 119.726 -1.57421 0.075193 0
M  V30 1222 C 120.636 -2.1642 -0.905511 0
M  V30 1223 C 121.652 -1.12828 -1.32461 0
M  V30 1224 O 122.828 -1.45109 -1.39661 0
M  V30 1225 C 119.893 -2.71693 -2.15369 0
M  V30 1226 C 118.954 -3.90171 -1.79068 0
M  V30 1227 C 118.187 -4.42798 -2.97936 0
M  V30 1228 O 118.41 -3.94416 -4.12058 0
M  V30 1229 O 117.344 -5.34085 -2.77555 0
M  V30 1230 H 121.17 -3.00588 -0.433626 0
M  V30 1231 H 118.755 -1.48664 -0.148067 0
M  V30 1232 H 120.637 -3.07104 -2.88557 0
M  V30 1233 H 119.312 -1.90582 -2.61649 0
M  V30 1234 H 118.219 -3.59606 -1.03122 0
M  V30 1235 H 119.552 -4.72584 -1.37569 0
M  V30 1236 N 121.204 0.198386 -1.56346 0
M  V30 1237 C 122.134 1.24865 -1.9731 0
M  V30 1238 C 123.115 1.47651 -0.844576 0
M  V30 1239 O 124.3 1.59444 -1.10866 0
M  V30 1240 C 121.43 2.59358 -2.30977 0
M  V30 1241 C 120.384 2.5119 -3.46537 0
M  V30 1242 C 119.71 3.89926 -3.65871 0
M  V30 1243 C 121.01 2.03977 -4.80823 0
M  V30 1244 H 122.704 0.908252 -2.85291 0
M  V30 1245 H 120.25 0.435462 -1.37258 0
M  V30 1246 H 122.203 3.33011 -2.58228 0
M  V30 1247 H 120.927 2.95132 -1.39874 0
M  V30 1248 H 119.586 1.79993 -3.19371 0
M  V30 1249 H 119.234 4.23046 -2.72105 0
M  V30 1250 H 118.934 3.85336 -4.4361 0
M  V30 1251 H 120.458 4.65205 -3.95495 0
M  V30 1252 H 121.872 2.67386 -5.07127 0
M  V30 1253 H 120.269 2.10397 -5.62008 0
M  V30 1254 H 121.339 0.992861 -4.74626 0
M  V30 1255 N 122.682 1.50554 0.465978 0
M  V30 1256 C 123.93 1.61479 1.21528 0
M  V30 1257 C 124.251 0.319596 1.92363 0
M  V30 1258 O 123.521 -0.663194 1.84333 0
M  V30 1259 H 122.101 0.595055 0.451573 0
M  V30 1260 H 124.763 1.87355 0.53704 0
M  V30 1261 H 123.859 2.42846 1.96042 0
M  V30 1262 N 124.16 -0.719506 1.40217 0
M  V30 1263 C 125.107 -1.83359 1.40172 0
M  V30 1264 C 126.077 -1.64065 0.259206 0
M  V30 1265 O 127.262 -1.85254 0.456677 0
M  V30 1266 C 124.402 -3.2103 1.26624 0
M  V30 1267 C 123.515 -3.51923 2.50548 0
M  V30 1268 C 122.65 -4.79079 2.29471 0
M  V30 1269 C 121.689 -5.02863 3.48992 0
M  V30 1270 N 120.826 -6.2123 3.27135 0
M  V30 1271 H 125.666 -1.82733 2.35399 0
M  V30 1272 H 123.203 -0.892688 1.16917 0
M  V30 1273 H 125.161 -4.00524 1.16776 0
M  V30 1274 H 123.791 -3.20895 0.350176 0
M  V30 1275 H 122.843 -2.67014 2.70939 0
M  V30 1276 H 124.155 -3.6541 3.39525 0
M  V30 1277 H 123.309 -5.66582 2.16955 0
M  V30 1278 H 122.048 -4.67794 1.37913 0
M  V30 1279 H 121.053 -4.13816 3.6199 0
M  V30 1280 H 122.278 -5.16023 4.41472 0
M  V30 1281 H 120.224 -6.11204 2.38256 0
M  V30 1282 H 120.141 -6.35375 4.09675 0
M  V30 1283 H 121.409 -7.11532 3.18344 0
M  V30 1284 N 125.638 -1.25649 -0.95132 0
M  V30 1285 C 126.886 -1.10375 -1.69298 0
M  V30 1286 C 127.207 0.355339 -1.91735 0
M  V30 1287 O 126.477 1.25188 -1.50681 0
M  V30 1288 H 125.057 -0.405461 -0.627384 0
M  V30 1289 H 127.719 -1.57823 -1.14358 0
M  V30 1290 H 126.815 -1.61465 -2.67087 0
M  V30 1291 N 127.117 1.15442 -1.07289 0
M  V30 1292 C 128.342 1.90638 -0.816828 0
M  V30 1293 C 128.767 1.77445 0.624083 0
M  V30 1294 O 128.125 1.10671 1.43602 0
M  V30 1295 C 128.173 3.39008 -1.22906 0
M  V30 1296 O 127.277 4.10701 -0.373975 0
M  V30 1297 H 126.618 0.593555 -0.297638 0
M  V30 1298 H 129.148 1.46198 -1.43134 0
M  V30 1299 H 129.158 3.89801 -1.20497 0
M  V30 1300 H 127.833 3.47929 -2.27856 0
M  V30 1301 H 126.41 3.70046 -0.460499 0
M  V30 1302 N 128.595 0.856903 1.32268 0
M  V30 1303 C 129.823 0.475439 2.01363 0
M  V30 1304 C 130.238 -0.928486 1.64392 0
M  V30 1305 O 129.595 -1.60624 0.866387 0
M  V30 1306 C 129.646 0.607545 3.56358 0
M  V30 1307 O 129.367 1.95617 3.92002 0
M  V30 1308 C 130.868 0.225382 4.42727 0
M  V30 1309 H 128.088 0.186636 0.644521 0
M  V30 1310 H 130.632 1.15446 1.68797 0
M  V30 1311 H 128.787 -0.0237719 3.87393 0
M  V30 1312 H 129.201 1.95455 4.86721 0
M  V30 1313 H 130.675 0.368813 5.50767 0
M  V30 1314 H 131.152 -0.834369 4.31202 0
M  V30 1315 H 131.758 0.831864 4.17085 0
M  V30 1316 N 130.073 -1.45103 0.615059 0
M  V30 1317 C 131.023 -2.27679 -0.120966 0
M  V30 1318 C 132.007 -1.3775 -0.831491 0
M  V30 1319 O 133.199 -1.61683 -0.720249 0
M  V30 1320 C 130.328 -3.24767 -1.1127 0
M  V30 1321 C 129.414 -4.22184 -0.402627 0
M  V30 1322 N 129.805 -5.02692 0.559884 0
M  V30 1323 C 128.103 -4.4125 -0.649202 0
M  V30 1324 C 128.804 -5.73421 0.977942 0
M  V30 1325 N 127.78 -5.42657 0.320104 0
M  V30 1326 H 131.582 -2.87325 0.618181 0
M  V30 1327 H 129.096 -1.56345 0.439304 0
M  V30 1328 H 131.093 -3.82666 -1.65446 0
M  V30 1329 H 129.753 -2.66682 -1.85232 0
M  V30 1330 H 130.764 -5.09354 0.936976 0
M  V30 1331 H 127.441 -3.9428 -1.37293 0
M  V30 1332 H 128.831 -6.48107 1.77222 0
M  V30 1333 N 131.551 -0.354651 -1.53558 0
M  V30 1334 C 132.962 0.126902 -1.86268 0
M  V30 1335 C 133.313 1.49075 -1.27558 0
M  V30 1336 O 132.438 2.08105 -0.5934 0
M  V30 1337 C 133.033 0.237046 -3.3797 0
M  V30 1338 C 131.592 0.662842 -3.70518 0
M  V30 1339 C 130.739 -0.196652 -2.76602 0
M  V30 1340 H 133.69 -0.573849 -1.47962 0
M  V30 1341 H 133.711 1.06259 -3.65362 0
M  V30 1342 H 133.223 -0.755725 -3.80671 0
M  V30 1343 H 131.324 1.66424 -3.33367 0
M  V30 1344 H 131.437 0.445034 -4.77029 0
M  V30 1345 H 129.801 0.332763 -2.52517 0
M  V30 1346 H 130.584 -1.18676 -3.22135 0
M  V30 1347 N 133.029 1.57378 -0.0835403 0
M  V30 1348 C 133.961 2.10389 0.909338 0
M  V30 1349 C 134.974 1.03858 1.25369 0
M  V30 1350 O 136.163 1.31338 1.20882 0
M  V30 1351 C 133.263 2.55908 2.2218 0
M  V30 1352 C 132.436 3.86145 2.05453 0
M  V30 1353 C 131.495 4.17633 3.20108 0
M  V30 1354 O 130.521 4.87043 2.94581 0
M  V30 1355 N 131.723 3.72113 4.45547 0
M  V30 1356 H 134.488 2.962 0.456657 0
M  V30 1357 H 132.049 1.61579 0.101877 0
M  V30 1358 H 134.041 2.74027 2.97811 0
M  V30 1359 H 132.611 1.75171 2.58909 0
M  V30 1360 H 131.831 3.7729 1.1422 0
M  V30 1361 H 133.119 4.7137 1.91541 0
M  V30 1362 H 132.517 3.16062 4.69171 0
M  V30 1363 H 131.074 3.95409 5.18165 0
M  V30 1364 N 134.507 -0.190092 1.56449 0
M  V30 1365 C 135.918 -0.754312 1.70784 0
M  V30 1366 C 136.269 -1.83631 0.690951 0
M  V30 1367 O 135.394 -2.15868 -0.151604 0
M  V30 1368 C 135.989 -1.37503 3.09642 0
M  V30 1369 C 134.548 -1.88628 3.25725 0
M  V30 1370 C 133.695 -0.758098 2.66736 0
M  V30 1371 H 136.646 0.0350524 1.58661 0
M  V30 1372 H 136.667 -2.2445 3.0725 0
M  V30 1373 H 136.179 -0.587302 3.83631 0
M  V30 1374 H 134.28 -2.70103 2.56661 0
M  V30 1375 H 134.393 -2.04462 4.3328 0
M  V30 1376 H 132.757 -1.17369 2.26046 0
M  V30 1377 H 133.54 0.0174705 3.43296 0
M  V30 1378 N 135.985 -1.50799 -0.457987 0
M  V30 1379 C 137.233 -1.62121 -1.2067 0
M  V30 1380 C 137.554 -0.329793 -1.92191 0
M  V30 1381 O 136.824 0.653409 -1.84682 0
M  V30 1382 H 135.404 -0.597441 -0.448411 0
M  V30 1383 H 138.066 -1.87637 -0.527096 0
M  V30 1384 H 137.162 -2.43882 -1.94751 0
M  V30 1385 N 137.463 0.71206 -1.40597 0
M  V30 1386 C 138.709 1.47416 -1.39271 0
M  V30 1387 C 139.042 1.942 0.00388791 0
M  V30 1388 O 138.317 1.68403 0.973179 0
M  V30 1389 C 138.6 2.69774 -2.38525 0
M  V30 1390 C 138.453 2.28861 -3.87224 0
M  V30 1391 C 139.772 3.71939 -2.35264 0
M  V30 1392 H 136.891 0.534713 -0.5072 0
M  V30 1393 H 139.533 0.812375 -1.71757 0
M  V30 1394 H 137.683 3.26238 -2.10953 0
M  V30 1395 H 139.355 1.77852 -4.25636 0
M  V30 1396 H 137.598 1.60824 -4.02887 0
M  V30 1397 H 138.269 3.16584 -4.52193 0
M  V30 1398 H 140.745 3.25113 -2.59694 0
M  V30 1399 H 139.621 4.55186 -3.06753 0
M  V30 1400 H 139.882 4.20484 -1.36549 0
M  V30 1401 N 138.941 1.26152 0.944643 0
M  V30 1402 C 140.166 1.14363 1.7302 0
M  V30 1403 C 140.591 -0.29772 1.85729 0
M  V30 1404 O 139.949 -1.2157 1.34501 0
M  V30 1405 C 139.997 1.81378 3.11664 0
M  V30 1406 O 139.101 1.10022 3.97453 0
M  V30 1407 H 138.442 0.398694 0.53098 0
M  V30 1408 H 140.972 1.66906 1.18337 0
M  V30 1409 H 140.982 1.88064 3.62072 0
M  V30 1410 H 139.657 2.86237 3.0173 0
M  V30 1411 H 138.234 1.11287 3.55907 0
M  V30 1412 N 140.419 -1.14872 1.07899 0
M  V30 1413 C 141.83 -1.67367 0.827363 0
M  V30 1414 C 142.181 -1.85236 -0.646693 0
M  V30 1415 O 141.306 -1.55974 -1.50004 0
M  V30 1416 C 141.901 -3.04016 1.49532 0
M  V30 1417 C 140.46 -3.53566 1.29106 0
M  V30 1418 C 139.607 -2.29161 1.56143 0
M  V30 1419 H 142.558 -0.990083 1.24028 0
M  V30 1420 H 142.579 -3.69219 0.919643 0
M  V30 1421 H 142.091 -2.90978 2.56814 0
M  V30 1422 H 140.192 -3.71835 0.238713 0
M  V30 1423 H 140.305 -4.34661 2.01511 0
M  V30 1424 H 138.669 -2.34978 0.982717 0
M  V30 1425 H 139.452 -2.18705 2.64619 0
M  V30 1426 N 141.898 -0.863906 -1.31812 0
M  V30 1427 C 143.309 -0.52522 -1.7916 0
M  V30 1428 C 143.66 0.957518 -1.71248 0
M  V30 1429 O 142.785 1.74734 -1.27659 0
M  V30 1430 C 143.38 -0.9466 -3.25307 0
M  V30 1431 C 141.939 -0.659668 -3.70574 0
M  V30 1432 C 141.086 -1.14126 -2.52726 0
M  V30 1433 H 144.037 -1.05022 -1.1898 0
M  V30 1434 H 144.058 -0.266766 -3.79564 0
M  V30 1435 H 143.57 -2.02579 -3.31034 0
M  V30 1436 H 141.671 0.408416 -3.70355 0
M  V30 1437 H 141.784 -1.23245 -4.62977 0
M  V30 1438 H 140.148 -0.561216 -2.4844 0
M  V30 1439 H 140.931 -2.22775 -2.61201 0
M  V30 1440 N 143.376 1.44774 -0.622745 0
M  V30 1441 C 144.339 2.29069 0.0774015 0
M  V30 1442 C 145.339 1.4059 0.780461 0
M  V30 1443 O 146.529 1.62551 0.626322 0
M  V30 1444 C 143.661 3.21974 1.12006 0
M  V30 1445 H 144.854 2.92459 -0.663901 0
M  V30 1446 H 142.407 1.51548 -0.382486 0
M  V30 1447 H 143.142 2.63417 1.89162 0
M  V30 1448 H 142.927 3.87168 0.619951 0
M  V30 1449 H 144.417 3.85318 1.60995 0
M  V30 1450 N 144.854 0.36279 1.53368 0
M  V30 1451 C 145.817 -0.472679 2.24273 0
M  V30 1452 C 146.817 -1.012 1.24961 0
M  V30 1453 O 148.007 -0.898194 1.49259 0
M  V30 1454 C 145.139 -1.66039 2.97731 0
M  V30 1455 H 146.332 0.14773 2.99536 0
M  V30 1456 H 143.885 0.114434 1.55881 0
M  V30 1457 H 144.62 -2.31896 2.26704 0
M  V30 1458 H 144.405 -1.28066 3.70596 0
M  V30 1459 H 145.895 -2.25252 3.51641 0
M  V30 1460 N 146.332 -1.57332 0.0918853 0
M  V30 1461 C 147.743 -1.81496 -0.437739 0
M  V30 1462 C 148.094 -1.00727 -1.6837 0
M  V30 1463 O 147.219 -0.235694 -2.15113 0
M  V30 1464 C 147.814 -3.29197 -0.800939 0
M  V30 1465 C 146.373 -3.54136 -1.27532 0
M  V30 1466 C 145.52 -2.75979 -0.270392 0
M  V30 1467 H 148.471 -1.55494 0.317366 0
M  V30 1468 H 148.492 -3.42344 -1.66074 0
M  V30 1469 H 148.004 -3.87955 0.106078 0
M  V30 1470 H 146.105 -3.00705 -2.20016 0
M  V30 1471 H 146.218 -4.62792 -1.23938 0
M  V30 1472 H 144.582 -2.43349 -0.751872 0
M  V30 1473 H 145.365 -3.37484 0.629248 0
M  V30 1474 N 147.81 0.181792 -1.56548 0
M  V30 1475 C 148.773 1.20894 -1.94724 0
M  V30 1476 C 149.773 1.37738 -0.829747 0
M  V30 1477 O 150.963 1.35323 -1.09697 0
M  V30 1478 C 148.095 2.57593 -2.23291 0
M  V30 1479 H 149.288 0.882275 -2.86629 0
M  V30 1480 H 146.841 0.423838 -1.50444 0
M  V30 1481 H 147.576 2.95291 -1.34067 0
M  V30 1482 H 147.361 2.46735 -3.04736 0
M  V30 1483 H 148.851 3.31637 -2.53785 0
M  V30 1484 N 149.288 1.51039 0.449983 0
M  V30 1485 C 150.251 1.70863 1.5277 0
M  V30 1486 C 151.251 0.578846 1.5002 0
M  V30 1487 O 152.441 0.846213 1.52266 0
M  V30 1488 C 149.573 1.75341 2.9235 0
M  V30 1489 H 150.766 2.67034 1.36502 0
M  V30 1490 H 148.319 1.40838 0.677812 0
M  V30 1491 H 149.054 0.809383 3.14037 0
M  V30 1492 H 148.839 2.57436 2.95752 0
M  V30 1493 H 150.329 1.92559 3.70555 0
M  V30 1494 N 150.766 -0.704594 1.40972 0
M  V30 1495 C 152.177 -1.28418 1.3552 0
M  V30 1496 C 152.528 -1.96171 0.0339434 0
M  V30 1497 O 151.653 -1.98231 -0.867944 0
M  V30 1498 C 152.248 -2.33528 2.45459 0
M  V30 1499 C 150.807 -2.87085 2.43433 0
M  V30 1500 C 149.954 -1.61007 2.2577 0
M  V30 1501 H 152.905 -0.499963 1.50619 0
M  V30 1502 H 152.926 -3.14619 2.13998 0
M  V30 1503 H 152.438 -1.84187 3.41609 0
M  V30 1504 H 150.539 -3.40626 1.51013 0
M  V30 1505 H 150.652 -3.3813 3.39419 0
M  V30 1506 H 149.016 -1.86482 1.73483 0
M  V30 1507 H 149.799 -1.13675 3.23933 0
M  V30 1508 N 152.244 -1.26651 -0.937939 0
M  V30 1509 C 153.492 -1.12165 -1.68118 0
M  V30 1510 C 153.813 0.334983 -1.92101 0
M  V30 1511 O 153.083 1.23583 -1.52 0
M  V30 1512 H 151.663 -0.412093 -0.623048 0
M  V30 1513 H 154.325 -1.59027 -1.12678 0
M  V30 1514 H 153.421 -1.64289 -2.6536 0
M  V30 1515 N 153.722 1.14298 -1.08507 0
M  V30 1516 C 155.133 1.66926 -0.836227 0
M  V30 1517 C 155.484 1.85576 0.63686 0
M  V30 1518 O 154.609 1.56767 1.49175 0
M  V30 1519 C 155.204 3.03219 -1.51142 0
M  V30 1520 C 153.763 3.52876 -1.30979 0
M  V30 1521 C 152.91 2.2833 -1.57356 0
M  V30 1522 H 155.861 0.983491 -1.24552 0
M  V30 1523 H 155.882 3.68726 -0.939211 0
M  V30 1524 H 155.394 2.89612 -2.58353 0
M  V30 1525 H 153.495 3.71703 -0.258429 0
M  V30 1526 H 153.608 4.33586 -2.03814 0
M  V30 1527 H 151.972 2.34454 -0.995164 0
M  V30 1528 H 152.755 2.17298 -2.65775 0
M  V30 1529 N 155.201 0.870884 1.31352 0
M  V30 1530 C 156.148 0.325425 2.28494 0
M  V30 1531 C 157.118 -0.576615 1.5577 0
M  V30 1532 O 158.303 -0.508059 1.83911 0
M  V30 1533 C 155.443 -0.466283 3.41935 0
M  V30 1534 C 154.556 0.463378 4.29508 0
M  V30 1535 C 153.691 -0.342544 5.30094 0
M  V30 1536 C 152.73 0.583486 6.09313 0
M  V30 1537 N 151.867 -0.186244 7.01853 0
M  V30 1538 H 156.707 1.15901 2.74538 0
M  V30 1539 H 154.244 0.58294 1.35056 0
M  V30 1540 H 156.202 -0.941085 4.06447 0
M  V30 1541 H 154.832 -1.26456 2.97 0
M  V30 1542 H 153.884 1.05663 3.65431 0
M  V30 1543 H 155.196 1.1734 4.84802 0
M  V30 1544 H 154.35 -0.879816 6.00287 0
M  V30 1545 H 153.089 -1.08585 4.75458 0
M  V30 1546 H 152.094 1.13251 5.3801 0
M  V30 1547 H 153.319 1.32566 6.66035 0
M  V30 1548 H 151.265 -0.912348 6.49625 0
M  V30 1549 H 151.182 0.464422 7.54572 0
M  V30 1550 H 152.45 -0.704716 7.76308 0
M  V30 1551 N 156.679 -1.44442 0.630414 0
M  V30 1552 C 157.956 -1.9549 0.0655657 0
M  V30 1553 C 158.336 -1.5724 -1.40851 0
M  V30 1554 O 157.684 -0.846116 -2.12257 0
M  V30 1555 C 157.894 -3.47812 0.287691 0
M  V30 1556 C 159.242 -4.24216 0.180513 0
M  V30 1557 O 160.266 -3.55526 0.219019 0
M  V30 1558 O 159.125 -5.46434 0.0848493 0
M  V30 1559 H 156.219 -0.826688 -0.0227177 0
M  V30 1560 H 158.765 -1.54496 0.702068 0
M  V30 1561 H 157.537 -3.687 1.31056 0
M  V30 1562 H 157.16 -3.95751 -0.382984 0
M  V30 1563 N 158.157 -0.370918 -1.53173 0
M  V30 1564 C 159.405 0.216673 -2.00935 0
M  V30 1565 C 159.726 1.48845 -1.25977 0
M  V30 1566 O 158.996 1.92286 -0.374551 0
M  V30 1567 H 157.576 0.0830565 -0.742368 0
M  V30 1568 H 160.238 -0.49838 -1.8842 0
M  V30 1569 H 159.334 0.439893 -3.08984 0
M  V30 1570 N 159.635 1.57281 -0.100228 0
M  V30 1571 C 161.046 1.81725 0.428107 0
M  V30 1572 C 161.397 1.01619 1.67833 0
M  V30 1573 O 160.522 0.247098 2.14985 0
M  V30 1574 C 161.117 3.29617 0.78347 0
M  V30 1575 C 159.676 3.54808 1.25653 0
M  V30 1576 C 158.823 2.76118 0.255752 0
M  V30 1577 H 161.774 1.55324 -0.325608 0
M  V30 1578 H 161.795 3.4322 1.64256 0
M  V30 1579 H 161.307 3.87893 -0.12665 0
M  V30 1580 H 159.408 3.01868 2.18418 0
M  V30 1581 H 159.521 4.63443 1.21482 0
M  V30 1582 H 157.885 2.43745 0.738956 0
M  V30 1583 H 158.668 3.37145 -0.647136 0
M  V30 1584 N 161.113 -0.173488 1.56642 0
M  V30 1585 C 162.361 -0.888706 1.81512 0
M  V30 1586 C 162.682 -1.82875 0.676872 0
M  V30 1587 O 161.952 -1.93536 -0.303414 0
M  V30 1588 H 160.532 -0.331164 0.669582 0
M  V30 1589 H 163.194 -0.173823 1.94123 0
M  V30 1590 H 162.29 -1.46691 2.75478 0
M  V30 1591 N 162.591 -1.51276 -0.441967 0
M  V30 1592 C 163.501 -1.75092 -1.56141 0
M  V30 1593 C 164.517 -0.634963 -1.62001 0
M  V30 1594 O 165.693 -0.916686 -1.79329 0
M  V30 1595 C 162.758 -1.86666 -2.92158 0
M  V30 1596 C 161.819 -3.10506 -2.96453 0
M  V30 1597 C 161.052 -3.21519 -4.25982 0
M  V30 1598 O 161.275 -2.38586 -5.18105 0
M  V30 1599 O 160.209 -4.14465 -4.36466 0
M  V30 1600 H 164.035 -2.70044 -1.38961 0
M  V30 1601 H 161.62 -1.35722 -0.624499 0
M  V30 1602 H 163.502 -1.96292 -3.72891 0
M  V30 1603 H 162.177 -0.949014 -3.09476 0
M  V30 1604 H 161.084 -3.06363 -2.14692 0
M  V30 1605 H 162.417 -4.01945 -2.84079 0
M  V30 1606 N 164.069 0.697108 -1.41344 0
M  V30 1607 C 165.297 1.48593 -1.43972 0
M  V30 1608 C 165.712 1.88747 -0.0445612 0
M  V30 1609 O 165.069 1.56682 0.935785 0
M  V30 1610 C 165.12 2.74946 -2.34706 0
M  V30 1611 O 164.841 2.36484 -3.68791 0
M  V30 1612 C 166.342 3.687 -2.46121 0
M  V30 1613 H 163.562 0.457964 -0.490418 0
M  V30 1614 H 166.106 0.858429 -1.8561 0
M  V30 1615 H 164.261 3.33937 -1.9638 0
M  V30 1616 H 164.675 3.17918 -4.17167 0
M  V30 1617 H 166.149 4.54145 -3.13777 0
M  V30 1618 H 166.626 4.13081 -1.49199 0
M  V30 1619 H 167.232 3.15613 -2.85076 0
M  V30 1620 N 165.547 1.27147 0.931209 0
M  V30 1621 C 166.824 1.0401 1.65654 0
M  V30 1622 C 167.204 -0.426297 2.06751 0
M  V30 1623 O 166.552 -1.40879 1.79904 0
M  V30 1624 C 166.762 1.99834 2.86125 0
M  V30 1625 C 168.11 2.29007 3.57549 0
M  V30 1626 O 169.134 1.97779 2.96246 0
M  V30 1627 O 167.993 2.82222 4.67989 0
M  V30 1628 H 165.087 0.396239 0.725895 0
M  V30 1629 H 167.633 1.38397 0.982056 0
M  V30 1630 H 166.405 2.98744 2.52721 0
M  V30 1631 H 166.028 1.65987 3.61295 0
M  V30 1632 N 167.025 -1.13721 1.09112 0
M  V30 1633 C 167.988 -2.17222 0.731241 0
M  V30 1634 C 168.988 -1.59035 -0.237566 0
M  V30 1635 O 170.178 -1.74192 -0.0161704 0
M  V30 1636 C 167.31 -3.40804 0.0808443 0
M  V30 1637 H 168.503 -2.50573 1.64783 0
M  V30 1638 H 166.056 -1.28493 0.889897 0
M  V30 1639 H 166.791 -3.1304 -0.847127 0
M  V30 1640 H 166.576 -3.84306 0.777896 0
M  V30 1641 H 168.066 -4.1731 -0.155657 0
M  V30 1642 N 168.503 -0.877838 -1.30888 0
M  V30 1643 C 169.75 -0.492696 -1.96415 0
M  V30 1644 C 170.078 0.956671 -1.69346 0
M  V30 1645 O 169.333 1.68993 -0.986913 0
M  V30 1646 C 169.632 -0.705748 -3.50363 0
M  V30 1647 C 169.298 -2.1291 -3.97467 0
M  V30 1648 C 167.96 -2.51834 -4.1004 0
M  V30 1649 C 170.312 -3.05702 -4.22132 0
M  V30 1650 C 167.64 -3.82775 -4.44635 0
M  V30 1651 C 169.992 -4.36166 -4.58194 0
M  V30 1652 C 168.656 -4.74993 -4.68975 0
M  V30 1653 H 167.926 -0.18029 -0.718733 0
M  V30 1654 H 170.573 -1.11233 -1.55883 0
M  V30 1655 H 168.878 -0.00303058 -3.918 0
M  V30 1656 H 170.575 -0.387456 -3.99124 0
M  V30 1657 H 167.165 -1.81694 -3.88182 0
M  V30 1658 H 171.349 -2.76853 -4.11906 0
M  V30 1659 H 166.605 -4.12609 -4.51181 0
M  V30 1660 H 170.779 -5.08111 -4.76231 0
M  V30 1661 H 168.406 -5.76495 -4.95537 0
M  V30 1662 N 169.982 1.44106 -0.638065 0
M  V30 1663 C 171.23 2.01579 -0.145043 0
M  V30 1664 C 171.551 1.50496 1.24 0
M  V30 1665 O 170.821 0.711374 1.82527 0
M  V30 1666 H 169.401 0.745282 -0.05063 0
M  V30 1667 H 172.063 1.76516 -0.826327 0
M  V30 1668 H 171.159 3.11877 -0.118039 0
M  V30 1669 N 171.46 0.379036 1.52974 0
M  V30 1670 C 172.408 -0.476033 2.27677 0
M  V30 1671 C 173.402 -1.0719 1.31174 0
M  V30 1672 O 174.608 -1.01355 1.48752 0
M  V30 1673 H 170.983 -0.172255 0.732006 0
M  V30 1674 H 172.954 0.175615 2.97883 0
M  V30 1675 C 171.703 -1.5967 3.0887 0
M  V30 1676 H 171.026 -1.1475 3.82978 0
M  V30 1677 H 172.466 -2.16943 3.64296 0
M  V30 1678 C 170.925 -2.54682 2.20542 0
M  V30 1679 O 171.455 -3.57836 1.82527 0
M  V30 1680 N 169.661 -2.24183 1.84907 0
M  V30 1681 H 169.208 -1.40333 2.1602 0
M  V30 1682 H 169.166 -2.88006 1.26096 0
M  V30 1683 N 172.938 -1.57226 0.108567 0
M  V30 1684 C 174.163 -1.99604 -0.563303 0
M  V30 1685 C 174.588 -0.987563 -1.6009 0
M  V30 1686 O 173.946 0.0421687 -1.81251 0
M  V30 1687 C 173.994 -3.40902 -1.17552 0
M  V30 1688 O 173.098 -3.42896 -2.2912 0
M  V30 1689 H 172.439 -0.648704 -0.1417 0
M  V30 1690 H 174.969 -2.03679 0.193961 0
M  V30 1691 H 174.979 -3.78886 -1.51357 0
M  V30 1692 H 173.654 -4.1382 -0.415445 0
M  V30 1693 H 172.231 -3.1672 -1.96832 0
M  V30 1694 N 174.416 0.165178 -1.56732 0
M  V30 1695 C 175.326 1.22423 -2.00125 0
M  V30 1696 C 176.342 1.48084 -0.913619 0
M  V30 1697 O 177.518 1.60112 -1.22172 0
M  V30 1698 C 174.583 2.54197 -2.35764 0
M  V30 1699 C 173.644 2.36343 -3.58386 0
M  V30 1700 C 172.877 3.61834 -3.92316 0
M  V30 1701 O 173.1 4.67267 -3.27135 0
M  V30 1702 O 172.034 3.55579 -4.85641 0
M  V30 1703 H 175.86 0.885886 -2.90492 0
M  V30 1704 H 173.445 0.372518 -1.44681 0
M  V30 1705 H 175.327 3.3192 -2.59629 0
M  V30 1706 H 174.002 2.87598 -1.48557 0
M  V30 1707 H 172.909 1.56632 -3.39731 0
M  V30 1708 H 174.242 2.07865 -4.46154 0
M  V30 1709 N 175.894 1.51508 0.433938 0
M  V30 1710 C 177.142 1.6402 1.18075 0
M  V30 1711 C 177.463 0.360328 1.91642 0
M  V30 1712 O 176.733 -0.623945 1.85698 0
M  V30 1713 H 175.313 0.6045 0.43885 0
M  V30 1714 H 177.975 1.88452 0.497178 0
M  V30 1715 H 177.071 2.46949 1.90847 0
M  V30 1716 N 177.372 -0.689602 1.41712 0
M  V30 1717 C 178.319 -1.80345 1.44029 0
M  V30 1718 C 179.289 -1.63478 0.293948 0
M  V30 1719 O 180.474 -1.84244 0.495869 0
M  V30 1720 C 177.614 -3.18272 1.33405 0
M  V30 1721 C 176.727 -3.46529 2.57956 0
M  V30 1722 C 175.862 -4.74103 2.39582 0
M  V30 1723 C 174.901 -4.95347 3.5958 0
M  V30 1724 N 174.038 -6.14151 3.40239 0
M  V30 1725 H 178.878 -1.77698 2.39222 0
M  V30 1726 H 176.415 -0.867688 1.18784 0
M  V30 1727 H 178.373 -3.97956 1.25246 0
M  V30 1728 H 177.003 -3.2008 0.418164 0
M  V30 1729 H 176.055 -2.61207 2.76542 0
M  V30 1730 H 177.367 -3.58126 3.47199 0
M  V30 1731 H 176.521 -5.61853 2.28924 0
M  V30 1732 H 175.26 -4.64763 1.47805 0
M  V30 1733 H 174.265 -4.06044 3.70686 0
M  V30 1734 H 175.49 -5.06542 4.52318 0
M  V30 1735 H 173.436 -6.06013 2.51167 0
M  V30 1736 H 173.353 -6.26543 4.23061 0
M  V30 1737 H 174.621 -7.04619 3.33365 0
M  V30 1738 N 178.85 -1.27639 -0.924453 0
M  V30 1739 C 179.76 -1.12466 -2.05885 0
M  V30 1740 C 180.776 -0.053869 -1.73917 0
M  V30 1741 O 181.952 -0.261012 -1.99702 0
M  V30 1742 C 179.017 -0.776768 -3.37886 0
M  V30 1743 C 178.078 -1.92878 -3.83532 0
M  V30 1744 C 177.311 -1.59739 -5.09234 0
M  V30 1745 O 177.534 -0.506782 -5.68144 0
M  V30 1746 O 176.468 -2.43761 -5.50331 0
M  V30 1747 H 180.294 -2.07671 -2.21599 0
M  V30 1748 H 177.879 -1.06857 -1.04413 0
M  V30 1749 H 179.761 -0.596229 -4.17161 0
M  V30 1750 H 178.436 0.145732 -3.23372 0
M  V30 1751 H 177.343 -2.1644 -3.0513 0
M  V30 1752 H 178.676 -2.8316 -4.02593 0
M  V30 1753 N 180.328 1.1314 -1.09713 0
M  V30 1754 C 181.258 2.20748 -0.761102 0
M  V30 1755 C 182.239 1.68061 0.262566 0
M  V30 1756 O 183.424 1.93765 0.129977 0
M  V30 1757 C 180.554 3.46812 -0.184054 0
M  V30 1758 C 179.508 4.12606 -1.13757 0
M  V30 1759 C 178.834 5.33031 -0.422083 0
M  V30 1760 C 180.134 4.59603 -2.48118 0
M  V30 1761 H 181.828 2.49113 -1.66082 0
M  V30 1762 H 179.374 1.19734 -0.799987 0
M  V30 1763 H 181.327 4.21353 0.0631215 0
M  V30 1764 H 180.051 3.17851 0.750868 0
M  V30 1765 H 178.71 3.40036 -1.37007 0
M  V30 1766 H 178.358 5.00335 0.517072 0
M  V30 1767 H 178.058 5.77999 -1.05788 0
M  V30 1768 H 179.582 6.10325 -0.183277 0
M  V30 1769 H 180.996 5.25552 -2.29059 0
M  V30 1770 H 179.393 5.15321 -3.07514 0
M  V30 1771 H 180.463 3.73971 -3.08665 0
M  V30 1772 N 181.806 0.884767 1.30421 0
M  V30 1773 C 183.052 0.503851 1.96441 0
M  V30 1774 C 183.385 -0.944518 1.69684 0
M  V30 1775 O 182.66 -1.66737 1.00145 0
M  V30 1776 C 182.943 0.779085 3.51571 0
M  V30 1777 C 182.796 2.27807 3.87846 0
M  V30 1778 C 184.115 0.255452 4.39358 0
M  V30 1779 H 181.234 0.184533 0.713524 0
M  V30 1780 H 183.876 1.10872 1.54297 0
M  V30 1781 H 182.026 0.264274 3.876 0
M  V30 1782 H 183.698 2.86127 3.61841 0
M  V30 1783 H 181.941 2.74479 3.35922 0
M  V30 1784 H 182.612 2.42125 4.96064 0
M  V30 1785 H 185.088 0.696079 4.10236 0
M  V30 1786 H 183.964 0.477361 5.4682 0
M  V30 1787 H 184.225 -0.843293 4.33983 0
M  V30 1788 N 183.284 -1.43765 0.645699 0
M  V30 1789 C 184.247 -2.29163 -0.0409488 0
M  V30 1790 C 185.247 -1.41813 -0.757996 0
M  V30 1791 O 186.437 -1.63527 -0.600382 0
M  V30 1792 C 183.569 -3.23716 -1.06869 0
M  V30 1793 H 184.762 -2.91366 0.710345 0
M  V30 1794 H 182.315 -1.5092 0.406547 0
M  V30 1795 H 183.05 -2.66393 -1.84947 0
M  V30 1796 H 182.835 -3.88105 -0.558277 0
M  V30 1797 H 184.325 -3.87831 -1.54845 0
M  V30 1798 N 184.763 -0.387143 -1.52771 0
M  V30 1799 C 185.988 0.198407 -2.06449 0
M  V30 1800 C 186.413 1.39918 -1.25716 0
M  V30 1801 O 185.771 1.79099 -0.281657 0
M  V30 1802 C 185.819 0.548893 -3.56398 0
M  V30 1803 O 184.923 1.64315 -3.78252 0
M  V30 1804 H 184.264 0.0237731 -0.663574 0
M  V30 1805 H 186.794 -0.553989 -1.96957 0
M  V30 1806 H 186.804 0.813812 -3.99801 0
M  V30 1807 H 185.479 -0.329005 -4.14597 0
M  V30 1808 H 184.056 1.37211 -3.46738 0
M  V30 1809 N 186.241 1.57166 -0.116904 0
M  V30 1810 C 187.489 1.94737 0.540533 0
M  V30 1811 C 187.81 1.00096 1.67349 0
M  V30 1812 O 187.08 0.0568854 1.95817 0
M  V30 1813 H 185.66 0.718981 0.202669 0
M  V30 1814 H 188.322 1.94017 -0.185353 0
M  V30 1815 H 187.418 2.97719 0.936483 0
M  V30 1816 N 187.719 -0.156864 1.56817 0
M  V30 1817 C 188.629 -1.2136 2.00771 0
M  V30 1818 C 189.645 -1.47598 0.921459 0
M  V30 1819 O 190.821 -1.59462 1.2302 0
M  V30 1820 C 187.886 -2.52943 2.37109 0
M  V30 1821 C 186.947 -2.34439 3.59634 0
M  V30 1822 C 186.18 -3.59748 3.94229 0
M  V30 1823 O 186.403 -4.65526 3.29609 0
M  V30 1824 O 185.337 -3.52998 4.8752 0
M  V30 1825 H 189.163 -0.870468 2.90958 0
M  V30 1826 H 186.748 -0.36484 1.44877 0
M  V30 1827 H 188.63 -3.30538 2.61386 0
M  V30 1828 H 187.305 -2.86806 1.5008 0
M  V30 1829 H 186.212 -1.54828 3.40557 0
M  V30 1830 H 187.545 -2.05496 4.4725 0
M  V30 1831 N 189.197 -1.51736 -0.425897 0
M  V30 1832 C 190.145 -1.74464 -1.53834 0
M  V30 1833 C 191.139 -0.611241 -1.57988 0
M  V30 1834 O 192.345 -0.792899 -1.61596 0
M  V30 1835 H 188.72 -0.551437 -0.511293 0
M  V30 1836 H 190.691 -2.67694 -1.31843 0
M  V30 1837 C 189.44 -1.8972 -2.91379 0
M  V30 1838 H 188.763 -2.76344 -2.88919 0
M  V30 1839 H 190.203 -2.09629 -3.68553 0
M  V30 1840 C 188.662 -0.65992 -3.30374 0
M  V30 1841 O 189.192 0.180083 -4.01296 0
M  V30 1842 N 187.398 -0.500677 -2.86254 0
M  V30 1843 H 186.945 -1.18532 -2.28709 0
M  V30 1844 H 186.903 0.325903 -3.12706 0
M  V30 1845 N 190.675 0.682077 -1.42076 0
M  V30 1846 C 191.622 1.79578 -1.44984 0
M  V30 1847 C 192.592 1.6332 -0.302614 0
M  V30 1848 O 193.777 1.83978 -0.505633 0
M  V30 1849 C 190.917 3.1756 -1.35091 0
M  V30 1850 C 190.03 3.45156 -2.59791 0
M  V30 1851 C 189.165 4.72826 -2.42093 0
M  V30 1852 C 188.204 4.93433 -3.62202 0
M  V30 1853 N 187.341 6.12338 -3.43491 0
M  V30 1854 H 192.181 1.76427 -2.40161 0
M  V30 1855 H 189.718 0.861376 -1.19242 0
M  V30 1856 H 191.676 3.97287 -1.27354 0
M  V30 1857 H 190.306 3.19854 -0.435133 0
M  V30 1858 H 189.358 2.59736 -2.77923 0
M  V30 1859 H 190.67 3.5628 -3.49094 0
M  V30 1860 H 189.824 5.60631 -2.319 0
M  V30 1861 H 188.563 4.63973 -1.50268 0
M  V30 1862 H 187.568 4.04073 -3.72834 0
M  V30 1863 H 188.793 5.04136 -4.54998 0
M  V30 1864 H 186.739 6.04672 -2.54377 0
M  V30 1865 H 186.656 6.2429 -4.26377 0
M  V30 1866 H 187.924 7.02841 -3.37097 0
M  V30 1867 N 192.153 1.28127 0.917671 0
M  V30 1868 C 193.402 1.14432 1.66097 0
M  V30 1869 C 193.715 -0.307247 1.93172 0
M  V30 1870 O 194.921 -0.565259 2.65551 0
M  V30 1871 C 193.377 2.00015 2.99202 0
M  V30 1872 C 192.985 3.49889 2.79789 0
M  V30 1873 C 194.729 1.94996 3.77064 0
M  V30 1874 C 192.636 4.27636 4.08511 0
M  V30 1875 H 191.566 0.424662 0.62304 0
M  V30 1876 H 194.217 1.52628 1.01868 0
M  V30 1877 H 192.599 1.54672 3.64544 0
M  V30 1878 H 193.773 4.03162 2.23152 0
M  V30 1879 H 192.088 3.56392 2.15345 0
M  V30 1880 H 194.685 2.50354 4.72469 0
M  V30 1881 H 195.028 0.925819 4.05875 0
M  V30 1882 H 195.561 2.38287 3.18534 0
M  V30 1883 H 192.3 5.30615 3.84874 0
M  V30 1884 H 191.82 3.79137 4.64774 0
M  V30 1885 H 193.499 4.37346 4.76799 0
M  V30 1886 N 193.631 -1.12557 1.10312 0
M  V30 1887 C 194.578 -2.18247 0.750781 0
M  V30 1888 C 195.548 -1.63853 -0.272293 0
M  V30 1889 O 196.733 -1.90195 -0.151862 0
M  V30 1890 C 193.873 -3.44591 0.187379 0
M  V30 1891 C 192.986 -4.13046 1.2656 0
M  V30 1892 C 192.121 -5.27034 0.663978 0
M  V30 1893 C 191.16 -5.87353 1.72287 0
M  V30 1894 N 190.297 -6.92757 1.1416 0
M  V30 1895 H 195.137 -2.47732 1.65628 0
M  V30 1896 H 192.674 -1.21629 0.827337 0
M  V30 1897 H 194.632 -4.16904 -0.157148 0
M  V30 1898 H 193.262 -3.15527 -0.681355 0
M  V30 1899 H 192.314 -3.38924 1.72727 0
M  V30 1900 H 193.626 -4.53947 2.06721 0
M  V30 1901 H 192.78 -6.06104 0.268824 0
M  V30 1902 H 191.519 -4.87407 -0.169082 0
M  V30 1903 H 190.524 -5.06971 2.12746 0
M  V30 1904 H 191.749 -6.29051 2.55875 0
M  V30 1905 H 189.695 -6.5517 0.329984 0
M  V30 1906 H 189.612 -7.3225 1.88007 0
M  V30 1907 H 190.88 -7.75658 0.772956 0
M  V30 1908 N 195.109 -0.891671 -1.2995 0
M  V30 1909 C 196.041 -0.320695 -2.26945 0
M  V30 1910 C 197.054 0.528497 -1.53983 0
M  V30 1911 O 198.243 0.346959 -1.75096 0
M  V30 1912 C 195.343 0.562066 -3.34207 0
M  V30 1913 C 194.516 -0.259576 -4.36629 0
M  V30 1914 C 193.575 0.554739 -5.23268 0
M  V30 1915 O 192.601 -0.0249311 -5.69195 0
M  V30 1916 N 193.803 1.8625 -5.4981 0
M  V30 1917 H 196.568 -1.15432 -2.76578 0
M  V30 1918 H 194.129 -0.755336 -1.432 0
M  V30 1919 H 196.121 1.11304 -3.89093 0
M  V30 1920 H 194.691 1.29637 -2.84452 0
M  V30 1921 H 193.911 -0.991986 -3.81514 0
M  V30 1922 H 195.199 -0.822564 -5.02107 0
M  V30 1923 H 194.597 2.35628 -5.14292 0
M  V30 1924 H 193.154 2.36078 -6.07545 0
M  V30 1925 N 196.587 1.43421 -0.653314 0
M  V30 1926 C 197.835 2.01414 -0.166415 0
M  V30 1927 C 198.156 1.51803 1.22397 0
M  V30 1928 O 197.426 0.730693 1.81763 0
M  V30 1929 H 196.006 0.744703 -0.0585319 0
M  V30 1930 H 198.668 1.75629 -0.845003 0
M  V30 1931 H 197.764 3.11734 -0.151111 0
M  V30 1932 N 198.065 0.39524 1.52563 0
M  V30 1933 C 198.995 -0.428384 2.29537 0
M  V30 1934 C 199.976 -1.05831 1.33169 0
M  V30 1935 O 201.161 -1.06995 1.62067 0
M  V30 1936 C 198.291 -1.55274 3.10656 0
M  V30 1937 C 197.245 -1.04855 4.14957 0
M  V30 1938 C 196.571 -2.26543 4.84337 0
M  V30 1939 C 197.871 -0.112324 5.22179 0
M  V30 1940 H 199.565 0.213867 2.98635 0
M  V30 1941 H 197.111 0.104298 1.43622 0
M  V30 1942 H 199.064 -2.1358 3.63265 0
M  V30 1943 H 197.788 -2.22266 2.39302 0
M  V30 1944 H 196.447 -0.487985 3.63338 0
M  V30 1945 H 196.095 -2.92059 4.09525 0
M  V30 1946 H 195.795 -1.93466 5.54837 0
M  V30 1947 H 197.319 -2.85481 5.39753 0
M  V30 1948 H 198.733 -0.603752 5.70112 0
M  V30 1949 H 197.13 0.128968 5.99961 0
M  V30 1950 H 198.2 0.837052 4.77621 0
M  V30 1951 N 199.544 -1.57102 0.125237 0
M  V30 1952 C 200.474 -2.18659 -0.819174 0
M  V30 1953 C 201.455 -1.12843 -1.27281 0
M  V30 1954 O 202.64 -1.41104 -1.33429 0
M  V30 1955 C 199.77 -2.79096 -2.06695 0
M  V30 1956 C 198.724 -3.90548 -1.75088 0
M  V30 1957 C 198.05 -4.37821 -3.06948 0
M  V30 1958 C 199.35 -5.12356 -1.01435 0
M  V30 1959 H 201.044 -2.9783 -0.306202 0
M  V30 1960 H 198.59 -1.4326 -0.145839 0
M  V30 1961 H 200.543 -3.2082 -2.73226 0
M  V30 1962 H 199.267 -1.97223 -2.60328 0
M  V30 1963 H 197.926 -3.49409 -1.10944 0
M  V30 1964 H 197.574 -3.52799 -3.58527 0
M  V30 1965 H 197.274 -5.12982 -2.86571 0
M  V30 1966 H 198.798 -4.822 -3.74587 0
M  V30 1967 H 200.212 -5.5106 -1.58132 0
M  V30 1968 H 198.609 -5.9314 -0.911319 0
M  V30 1969 H 199.679 -4.849 -0.00218681 0
M  V30 1970 N 201.022 0.148545 -1.56898 0
M  V30 1971 C 202.433 0.708766 -1.72723 0
M  V30 1972 C 202.784 1.81734 -0.739395 0
M  V30 1973 O 201.909 2.16194 0.0943169 0
M  V30 1974 C 202.504 1.29245 -3.13179 0
M  V30 1975 C 201.063 1.79925 -3.30611 0
M  V30 1976 C 200.21 0.687111 -2.68652 0
M  V30 1977 H 203.161 -0.0771063 -1.58513 0
M  V30 1978 H 203.182 2.16224 -3.13093 0
M  V30 1979 H 202.694 0.485382 -3.85053 0
M  V30 1980 H 200.795 2.63203 -2.63732 0
M  V30 1981 H 200.908 1.92903 -4.38549 0
M  V30 1982 H 199.272 1.11335 -2.29078 0
M  V30 1983 H 200.055 -0.108483 -3.43129 0
M  V30 1984 N 202.5 1.5196 0.417844 0
M  V30 1985 C 203.725 1.69717 1.1921 0
M  V30 1986 C 204.15 0.402148 1.83751 0
M  V30 1987 O 203.508 -0.639593 1.69643 0
M  V30 1988 C 203.556 2.82794 2.2374 0
M  V30 1989 O 202.66 2.47756 3.29683 0
M  V30 1990 H 202.001 0.565263 0.348387 0
M  V30 1991 H 204.531 1.98621 0.490985 0
M  V30 1992 H 204.541 3.07452 2.68212 0
M  V30 1993 H 203.216 3.76756 1.76146 0
M  V30 1994 H 201.793 2.33739 2.90552 0
M  V30 1995 N 203.978 -0.674533 1.42435 0
M  V30 1996 C 204.908 -1.80009 1.48724 0
M  V30 1997 C 205.889 -1.6659 0.343793 0
M  V30 1998 O 207.074 -1.86007 0.558137 0
M  V30 1999 C 204.204 -3.18306 1.38919 0
M  V30 2000 C 203.158 -3.46461 2.51294 0
M  V30 2001 C 202.484 -4.84335 2.26547 0
M  V30 2002 C 203.784 -3.43328 3.93603 0
M  V30 2003 H 205.478 -1.75004 2.42928 0
M  V30 2004 H 203.024 -0.840533 1.16923 0
M  V30 2005 H 204.977 -3.9678 1.41927 0
M  V30 2006 H 203.701 -3.2399 0.412094 0
M  V30 2007 H 202.36 -2.70348 2.47604 0
M  V30 2008 H 202.008 -4.86669 1.2713 0
M  V30 2009 H 201.708 -5.04136 3.01861 0
M  V30 2010 H 203.232 -5.65094 2.31304 0
M  V30 2011 H 204.646 -4.11772 3.98894 0
M  V30 2012 H 203.043 -3.74664 4.68771 0
M  V30 2013 H 204.113 -2.41897 4.20255 0
M  V30 2014 N 205.456 -1.28612 -0.910864 0
M  V30 2015 C 206.366 -1.14643 -2.0468 0
M  V30 2016 C 207.382 -0.0723121 -1.7385 0
M  V30 2017 O 208.558 -0.282178 -1.99413 0
M  V30 2018 C 205.623 -0.812561 -3.37044 0
M  V30 2019 C 204.684 -1.96935 -3.81465 0
M  V30 2020 C 203.917 -1.65131 -5.07511 0
M  V30 2021 O 204.14 -0.567013 -5.67575 0
M  V30 2022 O 203.074 -2.49585 -5.47714 0
M  V30 2023 H 206.9 -2.1001 -2.19384 0
M  V30 2024 H 204.485 -1.07958 -1.03274 0
M  V30 2025 H 206.367 -0.640441 -4.16505 0
M  V30 2026 H 205.042 0.111426 -3.23508 0
M  V30 2027 H 203.949 -2.19664 -3.02818 0
M  V30 2028 H 205.282 -2.87414 -3.99567 0
M  V30 2029 N 206.934 1.1197 -1.10907 0
M  V30 2030 C 208.211 1.79959 -0.766432 0
M  V30 2031 C 208.591 1.97466 0.746363 0
M  V30 2032 O 207.939 1.55491 1.67436 0
M  V30 2033 C 208.149 3.14009 -1.52314 0
M  V30 2034 C 209.497 3.89134 -1.69883 0
M  V30 2035 O 210.521 3.2368 -1.48692 0
M  V30 2036 O 209.38 5.06572 -2.05054 0
M  V30 2037 H 206.474 0.779208 -0.277062 0
M  V30 2038 H 209.02 1.18762 -1.21217 0
M  V30 2039 H 207.792 2.96587 -2.55249 0
M  V30 2040 H 207.415 3.82915 -1.07059 0
M  V30 2041 N 208.412 0.89855 1.29475 0
M  V30 2042 C 209.342 0.39201 2.30186 0
M  V30 2043 C 210.323 -0.532359 1.61555 0
M  V30 2044 O 211.508 -0.443331 1.89072 0
M  V30 2045 C 208.638 -0.382353 3.45189 0
M  V30 2046 C 207.592 0.451483 4.25612 0
M  V30 2047 C 206.918 -0.450307 5.328 0
M  V30 2048 C 208.218 1.70079 4.93832 0
M  V30 2049 H 209.912 1.23362 2.72804 0
M  V30 2050 H 207.458 0.594638 1.31149 0
M  V30 2051 H 209.411 -0.747451 4.14718 0
M  V30 2052 H 208.135 -1.25774 3.01411 0
M  V30 2053 H 206.794 0.798897 3.57789 0
M  V30 2054 H 206.442 -1.32379 4.85268 0
M  V30 2055 H 206.142 0.103902 5.87508 0
M  V30 2056 H 207.666 -0.811623 6.05182 0
M  V30 2057 H 209.08 1.40549 5.55805 0
M  V30 2058 H 207.477 2.19623 5.58467 0
M  V30 2059 H 208.547 2.43744 4.19186 0
M  V30 2060 N 209.89 -1.43072 0.660911 0
M  V30 2061 C 210.82 -2.33497 -0.0122829 0
M  V30 2062 C 211.801 -1.49903 -0.803925 0
M  V30 2063 O 212.986 -1.78546 -0.763864 0
M  V30 2064 C 210.116 -3.33363 -0.973994 0
M  V30 2065 C 209.07 -4.27003 -0.291928 0
M  V30 2066 C 208.396 -5.16967 -1.36562 0
M  V30 2067 C 209.696 -5.15816 0.820462 0
M  V30 2068 H 211.39 -2.90038 0.742873 0
M  V30 2069 H 208.936 -1.39461 0.358688 0
M  V30 2070 H 210.889 -3.95524 -1.45392 0
M  V30 2071 H 209.613 -2.75095 -1.7604 0
M  V30 2072 H 208.272 -3.66217 0.167623 0
M  V30 2073 H 207.92 -4.55034 -2.14366 0
M  V30 2074 H 207.62 -5.80441 -0.914454 0
M  V30 2075 H 209.144 -5.82003 -1.84675 0
M  V30 2076 H 210.558 -5.71742 0.422366 0
M  V30 2077 H 208.955 -5.8805 1.19656 0
M  V30 2078 H 210.025 -4.55045 1.67518 0
M  V30 2079 N 211.368 -0.403325 -1.52352 0
M  V30 2080 C 212.615 0.174347 -2.01748 0
M  V30 2081 C 212.943 1.45636 -1.2892 0
M  V30 2082 O 212.198 1.9193 -0.382258 0
M  V30 2083 C 212.497 0.474665 -3.54234 0
M  V30 2084 C 212.163 -0.717458 -4.45155 0
M  V30 2085 C 210.825 -1.04447 -4.69728 0
M  V30 2086 C 213.177 -1.51432 -4.98716 0
M  V30 2087 C 210.505 -2.16963 -5.45109 0
M  V30 2088 C 212.857 -2.6302 -5.75329 0
M  V30 2089 C 211.521 -2.96213 -5.98175 0
M  V30 2090 H 210.791 0.0637981 -0.738248 0
M  V30 2091 H 213.438 -0.543553 -1.83624 0
M  V30 2092 H 211.743 1.27406 -3.70506 0
M  V30 2093 H 213.44 0.934496 -3.89959 0
M  V30 2094 H 210.03 -0.452596 -4.26204 0
M  V30 2095 H 214.214 -1.27491 -4.79645 0
M  V30 2096 H 209.47 -2.43034 -5.61021 0
M  V30 2097 H 213.644 -3.25158 -6.15829 0
M  V30 2098 H 211.271 -3.83516 -6.56368 0
M  V30 2099 N 212.846 1.57033 -0.133567 0
M  V30 2100 C 214.076 1.99754 0.527429 0
M  V30 2101 C 214.484 1.01245 1.59832 0
M  V30 2102 O 213.827 -0.000645496 1.837 0
M  V30 2103 C 213.889 3.38903 1.19939 0
M  V30 2104 C 213.553 4.56174 0.274709 0
M  V30 2105 C 214.55 5.17563 -0.492398 0
M  V30 2106 C 212.235 5.01972 0.18153 0
M  V30 2107 C 214.229 6.2315 -1.34027 0
M  V30 2108 C 211.916 6.07416 -0.669958 0
M  V30 2109 C 212.914 6.67874 -1.42947 0
M  V30 2110 O 212.602 7.71279 -2.2668 0
M  V30 2111 H 212.334 0.660702 0.142999 0
M  V30 2112 H 214.888 2.04207 -0.221099 0
M  V30 2113 H 213.118 3.31248 1.99528 0
M  V30 2114 H 214.807 3.65818 1.75875 0
M  V30 2115 H 215.573 4.83087 -0.430367 0
M  V30 2116 H 211.452 4.54652 0.762422 0
M  V30 2117 H 214.996 6.70268 -1.93357 0
M  V30 2118 H 210.893 6.41321 -0.73333 0
M  V30 2119 H 211.661 7.88441 -2.1978 0
M  V30 2120 N 214.325 -0.140222 1.56975 0
M  V30 2121 C 215.553 -0.866437 1.87884 0
M  V30 2122 C 215.968 -1.74428 0.722517 0
M  V30 2123 O 215.325 -1.79891 -0.30749 0
M  V30 2124 C 215.376 -1.71753 3.18093 0
M  V30 2125 O 215.097 -0.875056 4.29272 0
M  V30 2126 C 216.598 -2.55074 3.62563 0
M  V30 2127 H 213.818 -0.25019 0.622612 0
M  V30 2128 H 216.362 -0.130977 2.0408 0
M  V30 2129 H 214.517 -2.40598 3.03631 0
M  V30 2130 H 214.931 -1.46002 5.03769 0
M  V30 2131 H 216.405 -3.10356 4.5649 0
M  V30 2132 H 216.882 -3.31434 2.88181 0
M  V30 2133 H 217.488 -1.91509 3.79743 0
M  V30 2134 N 215.803 -1.52179 -0.40978 0
M  V30 2135 C 217.052 -1.65434 -1.15388 0
M  V30 2136 C 217.365 -0.390056 -1.91671 0
M  V30 2137 O 218.571 -0.402399 -2.68501 0
M  V30 2138 C 217.027 -2.92279 -2.10003 0
M  V30 2139 C 216.635 -4.25813 -1.39239 0
M  V30 2140 C 218.379 -3.14897 -2.84675 0
M  V30 2141 C 216.286 -5.43782 -2.32498 0
M  V30 2142 H 215.216 -0.616267 -0.434432 0
M  V30 2143 H 217.867 -1.78666 -0.418401 0
M  V30 2144 H 216.249 -2.72744 -2.871 0
M  V30 2145 H 217.423 -4.55828 -0.675099 0
M  V30 2146 H 215.738 -4.09292 -0.766097 0
M  V30 2147 H 218.335 -4.0021 -3.54593 0
M  V30 2148 H 218.678 -2.29103 -3.47588 0
M  V30 2149 H 219.211 -3.34901 -2.14677 0
M  V30 2150 H 215.95 -6.3192 -1.74233 0
M  V30 2151 H 215.47 -5.18106 -3.02201 0
M  V30 2152 H 217.149 -5.76834 -2.93038 0
M  V30 2153 N 217.281 0.66697 -1.42791 0
M  V30 2154 C 218.244 1.76211 -1.46568 0
M  V30 2155 C 219.244 1.56896 -0.352196 0
M  V30 2156 O 220.434 1.63044 -0.613364 0
M  V30 2157 C 217.566 3.14935 -1.30494 0
M  V30 2158 H 218.759 1.74247 -2.44086 0
M  V30 2159 H 216.312 0.877342 -1.29354 0
M  V30 2160 H 217.047 3.2252 -0.339301 0
M  V30 2161 H 216.832 3.30359 -2.11199 0
M  V30 2162 H 218.322 3.94821 -1.36038 0
M  V30 2163 N 218.759 1.29093 0.90403 0
M  V30 2164 C 219.669 1.15727 2.0407 0
M  V30 2165 C 220.685 0.0815308 1.73809 0
M  V30 2166 O 221.861 0.292749 1.99261 0
M  V30 2167 C 218.926 0.830424 3.36608 0
M  V30 2168 C 217.987 1.98955 3.80415 0
M  V30 2169 C 217.22 1.6782 5.06628 0
M  V30 2170 O 217.443 0.597105 5.67266 0
M  V30 2171 O 216.377 2.52486 5.46383 0
M  V30 2172 H 220.203 2.11171 2.18267 0
M  V30 2173 H 217.788 1.08504 1.027 0
M  V30 2174 H 219.67 0.662521 4.16159 0
M  V30 2175 H 218.345 -0.0942678 3.23563 0
M  V30 2176 H 217.252 2.21267 3.01648 0
M  V30 2177 H 218.585 2.89529 3.98037 0
M  V30 2178 N 220.237 -1.11381 1.11499 0
M  V30 2179 C 221.485 -1.8277 0.862524 0
M  V30 2180 C 221.806 -1.85097 -0.613534 0
M  V30 2181 O 221.076 -1.32198 -1.4457 0
M  V30 2182 H 219.656 -0.676823 0.316101 0
M  V30 2183 H 222.318 -1.34816 1.4075 0
M  V30 2184 H 221.414 -2.86614 1.23527 0
M  V30 2185 N 221.715 -0.905404 -1.28997 0
M  V30 2186 C 222.647 -0.344748 -2.26592 0
M  V30 2187 C 223.66 0.512135 -1.54535 0
M  V30 2188 O 224.849 0.328368 -1.75454 0
M  V30 2189 C 221.949 0.526587 -3.34784 0
M  V30 2190 C 221.122 -0.305871 -4.36329 0
M  V30 2191 C 220.181 0.499209 -5.23827 0
M  V30 2192 O 219.207 -0.0853004 -5.69136 0
M  V30 2193 N 220.409 1.80408 -5.51755 0
M  V30 2194 H 223.174 -1.18359 -2.75338 0
M  V30 2195 H 220.735 -0.770481 -1.42391 0
M  V30 2196 H 222.727 1.07171 -3.90252 0
M  V30 2197 H 221.297 1.26613 -2.85811 0
M  V30 2198 H 220.517 -1.0324 -3.80441 0
M  V30 2199 H 221.805 -0.875773 -5.01206 0
M  V30 2200 H 221.203 2.3016 -5.16762 0
M  V30 2201 H 219.76 2.29621 -6.10014 0
M  V30 2202 N 223.193 1.4272 -0.668489 0
M  V30 2203 C 224.103 2.34596 0.0139753 0
M  V30 2204 C 225.119 1.5474 0.795703 0
M  V30 2205 O 226.295 1.87334 0.739466 0
M  V30 2206 C 223.36 3.33202 0.957982 0
M  V30 2207 C 222.421 4.28957 0.17149 0
M  V30 2208 C 221.654 5.22853 1.07053 0
M  V30 2209 O 221.877 5.21531 2.31001 0
M  V30 2210 O 220.811 5.9952 0.534727 0
M  V30 2211 H 224.637 2.9448 -0.742661 0
M  V30 2212 H 222.222 1.43117 -0.428705 0
M  V30 2213 H 224.104 3.93796 1.50008 0
M  V30 2214 H 222.779 2.758 1.69458 0
M  V30 2215 H 221.686 3.71796 -0.414558 0
M  V30 2216 H 223.019 4.89383 -0.52586 0
M  V30 2217 N 224.671 0.411399 1.52136 0
M  V30 2218 C 225.618 -0.412975 2.27075 0
M  V30 2219 C 226.588 -1.03912 1.29582 0
M  V30 2220 O 227.773 -1.06296 1.58448 0
M  V30 2221 C 224.913 -1.52247 3.09701 0
M  V30 2222 C 224.026 -0.917021 4.22155 0
M  V30 2223 C 223.161 -1.9994 4.92135 0
M  V30 2224 C 222.2 -1.37101 5.96548 0
M  V30 2225 N 221.337 -2.39364 6.60038 0
M  V30 2226 H 226.177 0.232499 2.97092 0
M  V30 2227 H 223.714 0.126496 1.46555 0
M  V30 2228 H 225.672 -2.17674 3.55913 0
M  V30 2229 H 224.302 -2.13794 2.41851 0
M  V30 2230 H 223.354 -0.151742 3.80097 0
M  V30 2231 H 224.666 -0.418006 4.97045 0
M  V30 2232 H 223.82 -2.73088 5.41763 0
M  V30 2233 H 222.559 -2.53208 4.16818 0
M  V30 2234 H 221.564 -0.624873 5.46237 0
M  V30 2235 H 222.789 -0.845998 6.7381 0
M  V30 2236 H 220.735 -2.91759 5.87548 0
M  V30 2237 H 220.652 -1.9428 7.3061 0
M  V30 2238 H 221.92 -3.12074 7.14304 0
M  V30 2239 N 226.149 -1.5696 0.141893 0
M  V30 2240 C 227.398 -1.95135 -0.510427 0
M  V30 2241 C 227.711 -1.02896 -1.66348 0
M  V30 2242 O 228.917 -1.30629 -2.38009 0
M  V30 2243 C 227.373 -3.46876 -0.959427 0
M  V30 2244 C 226.981 -4.47691 0.166419 0
M  V30 2245 C 228.725 -3.93927 -1.58183 0
M  V30 2246 C 226.632 -5.90636 -0.300565 0
M  V30 2247 H 225.562 -0.728494 -0.194454 0
M  V30 2248 H 228.213 -1.8211 0.22542 0
M  V30 2249 H 226.595 -3.55215 -1.75038 0
M  V30 2250 H 227.769 -4.51043 0.94325 0
M  V30 2251 H 226.084 -4.10527 0.696905 0
M  V30 2252 H 228.681 -4.98158 -1.94275 0
M  V30 2253 H 229.024 -3.3519 -2.46888 0
M  V30 2254 H 229.557 -3.88484 -0.855863 0
M  V30 2255 H 226.296 -6.5318 0.550989 0
M  V30 2256 H 225.816 -5.90655 -1.04338 0
M  V30 2257 H 227.495 -6.42588 -0.754265 0
M  V30 2258 N 227.627 0.131896 -1.57047 0
M  V30 2259 C 229.038 0.690407 -1.73465 0
M  V30 2260 C 229.389 1.8094 -0.758629 0
M  V30 2261 O 228.514 2.16282 0.0713813 0
M  V30 2262 C 229.109 1.25916 -3.14532 0
M  V30 2263 C 227.668 1.76409 -3.32501 0
M  V30 2264 C 226.815 0.658579 -2.69366 0
M  V30 2265 H 229.766 -0.0939144 -1.58422 0
M  V30 2266 H 229.787 2.12892 -3.15369 0
M  V30 2267 H 229.299 0.444515 -3.85546 0
M  V30 2268 H 227.4 2.60391 -2.66509 0
M  V30 2269 H 227.513 1.88241 -4.4057 0
M  V30 2270 H 225.877 1.08899 -2.30246 0
M  V30 2271 H 226.66 -0.14487 -3.42994 0
M  V30 2272 N 229.106 1.52395 0.401703 0
M  V30 2273 C 230.352 1.67065 1.14966 0
M  V30 2274 C 230.685 0.403052 1.89971 0
M  V30 2275 O 229.96 -0.598774 1.85054 0
M  V30 2276 C 230.243 2.8975 2.13815 0
M  V30 2277 C 230.096 4.26578 1.42658 0
M  V30 2278 C 231.415 3.07965 3.14397 0
M  V30 2279 H 228.534 0.607968 0.416587 0
M  V30 2280 H 231.176 1.84965 0.434511 0
M  V30 2281 H 229.326 2.74619 2.74803 0
M  V30 2282 H 230.998 4.53451 0.847329 0
M  V30 2283 H 229.241 4.27639 0.72849 0
M  V30 2284 H 229.912 5.08483 2.14823 0
M  V30 2285 H 232.388 3.22043 2.63491 0
M  V30 2286 H 231.264 3.95308 3.80819 0
M  V30 2287 H 231.525 2.21611 3.82545 0
M  V30 2288 N 230.584 -0.659388 1.43143 0
M  V30 2289 C 231.534 -1.7655 1.44271 0
M  V30 2290 C 232.518 -1.57847 0.311961 0
M  V30 2291 O 233.71 -1.68064 0.555306 0
M  V30 2292 C 230.839 -3.15104 1.36251 0
M  V30 2293 C 229.925 -3.39377 2.54331 0
M  V30 2294 N 230.316 -3.34153 3.79704 0
M  V30 2295 C 228.614 -3.70072 2.48922 0
M  V30 2296 C 229.315 -3.58337 4.58225 0
M  V30 2297 N 228.291 -3.79851 3.88863 0
M  V30 2298 H 232.093 -1.70928 2.39083 0
M  V30 2299 H 229.607 -0.860823 1.37708 0
M  V30 2300 H 231.604 -3.94389 1.35141 0
M  V30 2301 H 230.264 -3.21913 0.424531 0
M  V30 2302 H 231.275 -3.13704 4.1208 0
M  V30 2303 H 227.952 -3.84034 1.63781 0
M  V30 2304 H 229.342 -3.60129 5.67236 0
M  V30 2305 N 232.062 -1.29571 -0.897171 0
M  V30 2306 C 233.009 -1.14916 -2.00158 0
M  V30 2307 C 233.979 -0.0418149 -1.66047 0
M  V30 2308 O 235.164 -0.209793 -1.89643 0
M  V30 2309 C 232.304 -0.834307 -3.34863 0
M  V30 2310 C 231.417 -2.02234 -3.8174 0
M  V30 2311 C 230.552 -1.64664 -5.05034 0
M  V30 2312 C 229.591 -2.80033 -5.44286 0
M  V30 2313 N 228.728 -2.42843 -6.58765 0
M  V30 2314 H 233.568 -2.09403 -2.12025 0
M  V30 2315 H 231.105 -1.042 -1.0383 0
M  V30 2316 H 233.063 -0.632436 -4.12379 0
M  V30 2317 H 231.693 0.0736656 -3.22716 0
M  V30 2318 H 230.745 -2.33583 -3.00238 0
M  V30 2319 H 232.057 -2.88673 -4.06779 0
M  V30 2320 H 231.211 -1.4078 -5.9014 0
M  V30 2321 H 229.95 -0.753766 -4.8184 0
M  V30 2322 H 228.955 -3.04596 -4.57713 0
M  V30 2323 H 230.18 -3.69989 -5.6946 0
M  V30 2324 H 228.126 -1.56046 -6.3717 0
M  V30 2325 H 228.043 -3.22815 -6.83613 0
M  V30 2326 H 229.311 -2.22285 -7.47134 0
M  V30 2327 N 233.54 1.10788 -1.12088 0
M  V30 2328 C 234.787 1.82671 -0.873931 0
M  V30 2329 C 235.115 1.85004 0.600311 0
M  V30 2330 O 234.37 1.30365 1.45957 0
M  V30 2331 C 234.669 3.29294 -1.38926 0
M  V30 2332 C 234.335 3.47113 -2.87791 0
M  V30 2333 C 232.997 3.51684 -3.28439 0
M  V30 2334 C 235.349 3.52808 -3.83635 0
M  V30 2335 C 232.677 3.59513 -4.63646 0
M  V30 2336 C 235.029 3.62169 -5.18668 0
M  V30 2337 C 233.693 3.65003 -5.58864 0
M  V30 2338 H 232.963 0.668441 -0.319794 0
M  V30 2339 H 235.61 1.30613 -1.40045 0
M  V30 2340 H 233.915 3.83894 -0.783122 0
M  V30 2341 H 235.612 3.83416 -1.17443 0
M  V30 2342 H 232.202 3.4423 -2.5535 0
M  V30 2343 H 236.386 3.4853 -3.53328 0
M  V30 2344 H 231.642 3.59987 -4.94185 0
M  V30 2345 H 235.816 3.6552 -5.92763 0
M  V30 2346 H 233.443 3.70822 -6.63623 0
M  V30 2347 N 235.018 0.912232 1.28515 0
M  V30 2348 C 236.267 0.540504 1.94323 0
M  V30 2349 C 236.58 -0.920044 1.72611 0
M  V30 2350 O 237.786 -1.39986 2.32629 0
M  V30 2351 C 236.242 0.915803 3.48053 0
M  V30 2352 C 235.85 2.39598 3.78546 0
M  V30 2353 C 237.594 0.614588 4.20027 0
M  V30 2354 C 235.501 2.71148 5.25578 0
M  V30 2355 H 234.431 0.198418 0.727424 0
M  V30 2356 H 237.082 1.11094 1.46049 0
M  V30 2357 H 235.464 0.274168 3.9505 0
M  V30 2358 H 236.638 3.08422 3.42364 0
M  V30 2359 H 234.953 2.66749 3.1974 0
M  V30 2360 H 237.55 0.827002 5.28266 0
M  V30 2361 H 237.893 -0.447531 4.13887 0
M  V30 2362 H 238.426 1.21462 3.78803 0
M  V30 2363 H 235.165 3.76207 5.36794 0
M  V30 2364 H 234.685 2.0696 5.62963 0
M  V30 2365 H 236.364 2.58072 5.93302 0
M  V30 2366 N 236.496 -1.42363 0.676048 0
M  V30 2367 C 237.724 -2.05859 0.207268 0
M  V30 2368 C 238.139 -1.50796 -1.13605 0
M  V30 2369 O 237.496 -0.648265 -1.70598 0
M  V30 2370 C 237.547 -3.61248 0.134975 0
M  V30 2371 O 237.268 -4.1427 1.42521 0
M  V30 2372 C 238.769 -4.41859 -0.357151 0
M  V30 2373 H 235.989 -0.663431 0.100503 0
M  V30 2374 H 238.533 -1.82479 0.923136 0
M  V30 2375 H 236.688 -3.83735 -0.531588 0
M  V30 2376 H 237.102 -5.0815 1.29939 0
M  V30 2377 H 238.576 -5.50847 -0.356641 0
M  V30 2378 H 239.053 -4.16536 -1.39264 0
M  V30 2379 H 239.659 -4.24392 0.27772 0
M  V30 2380 N 237.974 -0.419461 -1.51915 0
M  V30 2381 C 238.937 0.389116 -2.25873 0
M  V30 2382 C 239.937 0.964924 -1.28631 0
M  V30 2383 O 241.127 0.842179 -1.52489 0
M  V30 2384 C 238.259 1.54874 -3.03689 0
M  V30 2385 H 239.452 -0.258799 -2.98781 0
M  V30 2386 H 237.005 -0.172209 -1.55348 0
M  V30 2387 H 237.74 2.23323 -2.35154 0
M  V30 2388 H 237.525 1.14223 -3.75094 0
M  V30 2389 H 239.015 2.12046 -3.59759 0
M  V30 2390 N 239.452 1.56882 -0.150215 0
M  V30 2391 C 240.382 2.19935 0.784284 0
M  V30 2392 C 241.363 1.14854 1.25469 0
M  V30 2393 O 242.548 1.43209 1.31168 0
M  V30 2394 C 239.678 2.82349 2.02229 0
M  V30 2395 C 238.632 3.93285 1.68853 0
M  V30 2396 C 237.958 4.42649 2.99944 0
M  V30 2397 C 239.258 5.13904 0.932714 0
M  V30 2398 H 240.952 2.9828 0.258781 0
M  V30 2399 H 238.498 1.43473 0.123029 0
M  V30 2400 H 240.451 3.25126 2.68088 0
M  V30 2401 H 239.175 2.0134 2.57157 0
M  V30 2402 H 237.834 3.5113 1.05371 0
M  V30 2403 H 237.482 3.58458 3.52869 0
M  V30 2404 H 237.182 5.17476 2.78374 0
M  V30 2405 H 238.706 4.88099 3.66868 0
M  V30 2406 H 240.12 5.53506 1.49345 0
M  V30 2407 H 238.517 5.94515 0.81684 0
M  V30 2408 H 239.587 4.84842 -0.0749568 0
M  V30 2409 N 240.93 -0.123565 1.57115 0
M  V30 2410 C 241.877 -1.15177 2.00007 0
M  V30 2411 C 242.847 -1.41403 0.871454 0
M  V30 2412 O 244.032 -1.53346 1.13533 0
M  V30 2413 C 241.172 -2.47436 2.40561 0
M  V30 2414 C 240.285 -2.28184 3.66819 0
M  V30 2415 C 239.42 -3.53641 3.96373 0
M  V30 2416 C 238.459 -3.29528 5.15827 0
M  V30 2417 N 237.596 -4.47175 5.41275 0
M  V30 2418 H 242.436 -0.779008 2.87638 0
M  V30 2419 H 239.973 -0.373166 1.42288 0
M  V30 2420 H 241.931 -3.24584 2.62109 0
M  V30 2421 H 240.561 -2.82614 1.55978 0
M  V30 2422 H 239.613 -1.41976 3.52912 0
M  V30 2423 H 240.925 -2.0634 4.5412 0
M  V30 2424 H 240.079 -4.39209 4.18545 0
M  V30 2425 H 238.818 -3.78512 3.07538 0
M  V30 2426 H 237.823 -2.42349 4.93505 0
M  V30 2427 H 239.048 -3.06031 6.06236 0
M  V30 2428 H 236.994 -4.72175 4.55397 0
M  V30 2429 H 236.911 -4.28419 6.22891 0
M  V30 2430 H 238.179 -5.3389 5.67963 0
M  V30 2431 N 242.408 -1.52605 -0.393616 0
M  V30 2432 C 243.633 -1.71592 -1.16495 0
M  V30 2433 C 244.058 -0.43133 -1.83088 0
M  V30 2434 O 243.416 0.612523 -1.7064 0
M  V30 2435 C 243.464 -2.86318 -2.19213 0
M  V30 2436 O 242.568 -2.52969 -3.257 0
M  V30 2437 H 241.909 -0.570734 -0.33935 0
M  V30 2438 H 244.439 -1.99377 -0.459324 0
M  V30 2439 H 244.449 -3.1168 -2.63286 0
M  V30 2440 H 243.124 -3.79511 -1.7013 0
M  V30 2441 H 241.701 -2.38332 -2.86797 0
M  V30 2442 N 243.887 0.651787 -1.4349 0
M  V30 2443 C 245.115 1.43937 -1.48626 0
M  V30 2444 C 245.53 1.8851 -0.104587 0
M  V30 2445 O 244.887 1.5958 0.885464 0
M  V30 2446 C 244.938 2.6734 -2.43334 0
M  V30 2447 O 244.659 2.24631 -3.76128 0
M  V30 2448 C 246.16 3.60683 -2.57726 0
M  V30 2449 H 243.38 0.44213 -0.504739 0
M  V30 2450 H 245.924 0.798944 -1.88248 0
M  V30 2451 H 244.079 3.2752 -2.06904 0
M  V30 2452 H 244.493 3.04485 -4.2707 0
M  V30 2453 H 245.967 4.43933 -3.28067 0
M  V30 2454 H 246.444 4.08126 -1.62265 0
M  V30 2455 H 247.05 3.06384 -2.94973 0
M  V30 2456 N 245.365 1.30045 0.890287 0
M  V30 2457 C 246.613 1.18327 1.63839 0
M  V30 2458 C 246.934 -0.263455 1.93212 0
M  V30 2459 O 246.204 -1.17856 1.56482 0
M  V30 2460 H 244.784 0.434933 0.607324 0
M  V30 2461 H 247.446 1.631 1.06698 0
M  V30 2462 H 246.542 1.74024 2.59079 0
M  V30 2463 N 246.843 -1.10192 1.12674 0
M  V30 2464 C 247.773 -2.18652 0.819362 0
M  V30 2465 C 248.754 -1.68698 -0.217915 0
M  V30 2466 O 249.939 -1.94041 -0.0785581 0
M  V30 2467 C 247.069 -3.46202 0.27594 0
M  V30 2468 C 246.023 -4.09444 1.24656 0
M  V30 2469 C 245.349 -5.31725 0.563258 0
M  V30 2470 C 246.649 -4.52863 2.60217 0
M  V30 2471 H 248.343 -2.44622 1.72628 0
M  V30 2472 H 245.889 -1.17571 0.831451 0
M  V30 2473 H 247.842 -4.21372 0.0486149 0
M  V30 2474 H 246.566 -3.1973 -0.666331 0
M  V30 2475 H 245.225 -3.36284 1.45974 0
M  V30 2476 H 244.873 -5.0153 -0.384235 0
M  V30 2477 H 244.573 -5.74991 1.21075 0
M  V30 2478 H 246.097 -6.09624 0.34503 0
M  V30 2479 H 247.511 -5.19294 2.42913 0
M  V30 2480 H 245.908 -5.06986 3.21068 0
M  V30 2481 H 246.978 -3.65656 3.18471 0
M  V30 2482 N 248.321 -0.919034 -1.28029 0
M  V30 2483 C 249.737 -0.617972 -1.4715 0
M  V30 2484 C 249.937 0.835242 -1.83374 0
M  V30 2485 O 248.993 1.61388 -1.94191 0
M  V30 2486 C 250.306 -1.56041 -2.57044 0
M  V30 2487 C 251.854 -1.56769 -2.7091 0
M  V30 2488 C 252.329 -2.49688 -3.83953 0
M  V30 2489 N 253.82 -2.47845 -3.91314 0
M  V30 2490 C 254.555 -3.16437 -4.78179 0
M  V30 2491 N 254.051 -3.94376 -5.69596 0
M  V30 2492 N 255.844 -3.05498 -4.71834 0
M  V30 2493 H 247.995 -1.85866 -1.02798 0
M  V30 2494 H 250.258 -0.797506 -0.512531 0
M  V30 2495 H 249.964 -2.59671 -2.372 0
M  V30 2496 H 249.838 -1.29551 -3.54255 0
M  V30 2497 H 252.225 -0.538745 -2.90141 0
M  V30 2498 H 252.306 -1.87305 -1.74214 0
M  V30 2499 H 251.95 -3.52688 -3.65477 0
M  V30 2500 H 251.88 -2.16453 -4.80058 0
M  V30 2501 H 254.371 -1.91234 -3.25941 0
M  V30 2502 H 254.684 -4.43721 -6.32718 0
M  V30 2503 H 253.029 -3.98481 -5.69419 0
M  V30 2504 H 256.22 -2.44108 -3.99411 0
M  V30 2505 H 256.393 -3.59225 -5.39316 0
M  V30 2506 N 249.799 1.42003 -0.683588 0
M  V30 2507 C 251.027 2.05746 -0.218182 0
M  V30 2508 C 251.442 1.51396 1.12804 0
M  V30 2509 O 250.799 0.657303 1.70252 0
M  V30 2510 C 250.85 3.61171 -0.154131 0
M  V30 2511 O 250.571 4.13508 -1.44716 0
M  V30 2512 C 252.072 4.42042 0.333713 0
M  V30 2513 H 249.292 0.662888 -0.10402 0
M  V30 2514 H 251.836 1.81987 -0.9328 0
M  V30 2515 H 249.991 3.84012 0.511231 0
M  V30 2516 H 250.405 5.07453 -1.32632 0
M  V30 2517 H 251.879 5.51028 0.327423 0
M  V30 2518 H 252.356 4.17269 1.37053 0
M  V30 2519 H 252.962 4.24239 -0.300222 0
M  V30 2520 N 251.277 0.427512 1.51691 0
M  V30 2521 C 252.502 -0.143601 2.06902 0
M  V30 2522 C 252.927 -1.36536 1.29382 0
M  V30 2523 O 252.285 -1.78289 0.329043 0
M  V30 2524 C 252.333 -0.454207 3.57728 0
M  V30 2525 O 251.437 -1.54228 3.82475 0
M  V30 2526 H 250.778 -0.00617128 0.663971 0
M  V30 2527 H 253.308 0.606014 1.95419 0
M  V30 2528 H 253.318 -0.707525 4.01818 0
M  V30 2529 H 251.993 0.438812 4.13579 0
M  V30 2530 H 250.57 -1.2797 3.50254 0
M  V30 2531 N 252.755 -1.56801 0.158532 0
M  V30 2532 C 254.032 -1.88131 -0.535357 0
M  V30 2533 C 254.412 -1.06638 -1.82186 0
M  V30 2534 O 253.76 -0.156533 -2.27963 0
M  V30 2535 C 253.97 -3.39949 -0.789653 0
M  V30 2536 C 255.318 -4.09416 -1.12533 0
M  V30 2537 O 256.342 -3.45194 -0.878622 0
M  V30 2538 O 255.201 -5.22855 -1.59014 0
M  V30 2539 H 252.295 -0.780143 -0.27442 0
M  V30 2540 H 254.841 -1.68564 0.19601 0
M  V30 2541 H 253.613 -3.91115 0.120353 0
M  V30 2542 H 253.236 -3.65084 -1.57479 0
M  V30 2543 N 254.233 0.115231 -1.57178 0
M  V30 2544 C 255.644 0.67197 -1.74188 0
M  V30 2545 C 255.995 1.80125 -0.777777 0
M  V30 2546 O 255.12 2.16346 0.0484376 0
M  V30 2547 C 255.715 1.22573 -3.1585 0
M  V30 2548 C 254.274 1.72872 -3.34353 0
M  V30 2549 C 253.421 0.629972 -2.70049 0
M  V30 2550 H 256.372 -0.110712 -1.58313 0
M  V30 2551 H 256.393 2.09535 -3.17609 0
M  V30 2552 H 255.905 0.403598 -3.85996 0
M  V30 2553 H 254.006 2.5755 -2.69256 0
M  V30 2554 H 254.119 1.83557 -4.42542 0
M  V30 2555 H 252.483 1.0645 -2.31388 0
M  V30 2556 H 253.266 -0.181241 -3.42821 0
M  V30 2557 N 255.711 1.52812 0.385517 0
M  V30 2558 C 257.127 1.4214 0.725829 0
M  V30 2559 C 257.327 0.544589 1.94001 0
M  V30 2560 O 256.383 0.0193693 2.52493 0
M  V30 2561 C 257.696 2.85042 0.957668 0
M  V30 2562 C 259.244 2.94543 1.05892 0
M  V30 2563 C 259.719 4.38464 1.32337 0
M  V30 2564 N 261.21 4.41804 1.39151 0
M  V30 2565 C 261.945 5.5025 1.61285 0
M  V30 2566 N 261.441 6.68775 1.80866 0
M  V30 2567 N 263.234 5.37798 1.63492 0
M  V30 2568 H 255.385 2.08338 -0.413383 0
M  V30 2569 H 257.648 0.940016 -0.122775 0
M  V30 2570 H 257.354 3.51431 0.137568 0
M  V30 2571 H 257.228 3.27505 1.87137 0
M  V30 2572 H 259.615 2.28321 1.86959 0
M  V30 2573 H 259.696 2.55504 0.123057 0
M  V30 2574 H 259.34 5.05254 0.517793 0
M  V30 2575 H 259.27 4.75059 2.27214 0
M  V30 2576 H 261.761 3.56377 1.25713 0
M  V30 2577 H 262.074 7.47197 1.97271 0
M  V30 2578 H 260.419 6.71797 1.78083 0
M  V30 2579 H 263.61 4.44171 1.47749 0
M  V30 2580 H 263.783 6.22382 1.80402 0
M  V30 2581 N 257.189 -0.644168 1.43834 0
M  V30 2582 C 258.119 -1.76814 1.52509 0
M  V30 2583 C 259.1 -1.65823 0.379052 0
M  V30 2584 O 260.285 -1.84781 0.597466 0
M  V30 2585 C 257.415 -3.15288 1.4564 0
M  V30 2586 C 256.369 -3.41053 2.58586 0
M  V30 2587 C 255.695 -4.79421 2.36769 0
M  V30 2588 C 256.995 -3.34902 4.00797 0
M  V30 2589 H 258.689 -1.69812 2.46586 0
M  V30 2590 H 256.235 -0.815542 1.1868 0
M  V30 2591 H 258.188 -3.93681 1.50311 0
M  V30 2592 H 256.912 -3.23043 0.480725 0
M  V30 2593 H 255.571 -2.65035 2.53282 0
M  V30 2594 H 255.219 -4.83863 1.37424 0
M  V30 2595 H 254.919 -4.9762 3.12487 0
M  V30 2596 H 256.443 -5.6006 2.43238 0
M  V30 2597 H 257.857 -4.03218 4.07539 0
M  V30 2598 H 256.254 -3.64637 4.76613 0
M  V30 2599 H 257.324 -2.32928 4.25291 0
M  V30 2600 N 258.668 -1.30515 -0.883378 0
M  V30 2601 C 259.615 -1.17032 -1.98927 0
M  V30 2602 C 260.585 -0.0594241 -1.65994 0
M  V30 2603 O 261.77 -0.229895 -1.8941 0
M  V30 2604 C 258.91 -0.869777 -3.33959 0
M  V30 2605 C 258.023 -2.06271 -3.79574 0
M  V30 2606 C 257.158 -1.70011 -5.03259 0
M  V30 2607 C 256.197 -2.8579 -5.41286 0
M  V30 2608 N 255.334 -2.49816 -6.56153 0
M  V30 2609 H 260.174 -2.1164 -2.09792 0
M  V30 2610 H 257.711 -1.05296 -1.02719 0
M  V30 2611 H 259.669 -0.676138 -4.11685 0
M  V30 2612 H 258.299 0.0394332 -3.22776 0
M  V30 2613 H 257.351 -2.36755 -2.97744 0
M  V30 2614 H 258.663 -2.92971 -4.03694 0
M  V30 2615 H 257.817 -1.47032 -5.88614 0
M  V30 2616 H 256.556 -0.804829 -4.81013 0
M  V30 2617 H 255.561 -3.09434 -4.54456 0
M  V30 2618 H 256.786 -3.76008 -5.65504 0
M  V30 2619 H 254.732 -1.62795 -6.35479 0
M  V30 2620 H 254.649 -3.30048 -6.8015 0
M  V30 2621 H 255.917 -2.30197 -7.44735 0
M  V30 2622 N 260.146 1.09593 -1.13257 0
M  V30 2623 C 261.056 2.19739 -0.821691 0
M  V30 2624 C 262.072 1.72926 0.19302 0
M  V30 2625 O 263.248 2.01385 0.0244895 0
M  V30 2626 C 260.313 3.45482 -0.290333 0
M  V30 2627 C 259.374 4.06985 -1.36607 0
M  V30 2628 C 258.607 5.26726 -0.859975 0
M  V30 2629 O 258.83 5.69594 0.303082 0
M  V30 2630 O 257.764 5.7931 -1.63351 0
M  V30 2631 H 261.59 2.48781 -1.74189 0
M  V30 2632 H 259.175 1.18496 -0.909894 0
M  V30 2633 H 261.057 4.214 0.000674022 0
M  V30 2634 H 259.732 3.18047 0.602306 0
M  V30 2635 H 258.639 3.32712 -1.71037 0
M  V30 2636 H 259.972 4.38643 -2.23279 0
M  V30 2637 N 261.624 0.925811 1.2754 0
M  V30 2638 C 262.864 0.572521 1.96218 0
M  V30 2639 C 263.228 -0.869719 1.71172 0
M  V30 2640 O 264.429 -1.33119 2.33523 0
M  V30 2641 C 262.7 0.887325 3.4621 0
M  V30 2642 S 264.259 0.642266 4.34074 0
M  V30 2643 H 261.077 0.211403 0.678845 0
M  V30 2644 H 263.679 1.19384 1.54815 0
M  V30 2645 H 262.383 1.93469 3.61936 0
M  V30 2646 H 261.914 0.255123 3.92572 0
M  V30 2647 H 263.929 -0.500822 4.93666 0
M  V30 2648 N 263.102 -1.41638 0.69111 0
M  V30 2649 C 264.035 -2.28183 -0.0274913 0
M  V30 2650 C 265.013 -1.41984 -0.792424 0
M  V30 2651 O 266.197 -1.71415 -0.784169 0
M  V30 2652 C 263.324 -3.22135 -1.04628 0
M  V30 2653 C 262.37 -4.24848 -0.375037 0
M  V30 2654 S 263.203 -5.28231 0.879321 0
M  V30 2655 C 264.359 -6.25748 -0.137983 0
M  V30 2656 H 264.592 -2.88782 0.706553 0
M  V30 2657 H 262.125 -1.46709 0.481222 0
M  V30 2658 H 264.083 -3.76797 -1.62894 0
M  V30 2659 H 262.744 -2.6064 -1.75287 0
M  V30 2660 H 261.937 -4.90837 -1.14433 0
M  V30 2661 H 261.539 -3.73758 0.134434 0
M  V30 2662 H 263.831 -6.70188 -0.992659 0
M  V30 2663 H 264.774 -7.06417 0.487867 0
M  V30 2664 H 265.182 -5.62363 -0.490762 0
M  V30 2665 N 264.58 -0.43555 -1.51462 0
M  V30 2666 C 265.857 0.191364 -1.94662 0
M  V30 2667 C 266.237 1.60254 -1.37411 0
M  V30 2668 O 265.585 2.2152 -0.560458 0
M  V30 2669 C 265.795 0.17091 -3.48581 0
M  V30 2670 C 267.143 0.377357 -4.2292 0
M  V30 2671 O 268.167 0.249104 -3.55328 0
M  V30 2672 O 267.026 0.63247 -5.42828 0
M  V30 2673 H 264.12 0.130932 -0.816569 0
M  V30 2674 H 266.666 -0.4934 -1.62369 0
M  V30 2675 H 265.438 -0.815738 -3.82703 0
M  V30 2676 H 265.061 0.898659 -3.87311 0
M  V30 2677 N 266.058 1.56714 -0.166846 0
M  V30 2678 C 266.991 2.13577 0.80375 0
M  V30 2679 C 267.969 1.06464 1.22899 0
M  V30 2680 O 269.153 1.34413 1.32157 0
M  V30 2681 C 266.28 2.67168 2.0818 0
M  V30 2682 C 265.326 3.86612 1.80093 0
M  V30 2683 S 266.159 5.26565 0.97416 0
M  V30 2684 C 267.315 5.83558 2.26297 0
M  V30 2685 H 267.548 2.9557 0.320267 0
M  V30 2686 H 265.081 1.54326 0.0477555 0
M  V30 2687 H 267.039 2.98692 2.8159 0
M  V30 2688 H 265.7 1.85269 2.53642 0
M  V30 2689 H 264.893 4.22422 2.7491 0
M  V30 2690 H 264.495 3.55951 1.14781 0
M  V30 2691 H 266.787 5.962 3.21795 0
M  V30 2692 H 267.73 6.80731 1.94962 0
M  V30 2693 H 268.138 5.11944 2.37853 0
M  V30 2694 N 267.536 -0.106894 1.57237 0
M  V30 2695 C 268.466 -1.13148 2.04254 0
M  V30 2696 C 269.447 -1.42476 0.929224 0
M  V30 2697 O 270.632 -1.52709 1.19973 0
M  V30 2698 C 267.762 -2.4545 2.45706 0
M  V30 2699 C 266.716 -2.30558 3.60592 0
M  V30 2700 C 266.042 -3.67931 3.87983 0
M  V30 2701 C 267.342 -1.75597 4.91897 0
M  V30 2702 H 269.036 -0.740374 2.90101 0
M  V30 2703 H 266.582 -0.354696 1.39563 0
M  V30 2704 H 268.535 -3.17389 2.77205 0
M  V30 2705 H 267.259 -2.86475 1.56843 0
M  V30 2706 H 265.918 -1.61067 3.29322 0
M  V30 2707 H 265.566 -4.06462 2.96306 0
M  V30 2708 H 265.266 -3.58817 4.65322 0
M  V30 2709 H 266.79 -4.41356 4.21945 0
M  V30 2710 H 268.204 -2.37364 5.21854 0
M  V30 2711 H 266.601 -1.77272 5.73319 0
M  V30 2712 H 267.671 -0.714451 4.79608 0
M  V30 2713 N 269.014 -1.53014 -0.377408 0
M  V30 2714 C 270.43 -1.42523 -0.718281 0
M  V30 2715 C 270.63 -0.55487 -1.9371 0
M  V30 2716 O 269.686 -0.0327593 -2.52479 0
M  V30 2717 C 270.999 -2.85546 -0.942539 0
M  V30 2718 C 272.547 -2.95101 -1.04329 0
M  V30 2719 C 273.022 -4.3916 -1.3001 0
M  V30 2720 N 274.513 -4.42536 -1.36806 0
M  V30 2721 C 275.248 -5.51097 -1.58364 0
M  V30 2722 N 274.744 -6.69724 -1.77317 0
M  V30 2723 N 276.537 -5.38657 -1.60638 0
M  V30 2724 H 268.688 -2.08116 0.424426 0
M  V30 2725 H 270.951 -0.939352 0.127759 0
M  V30 2726 H 270.657 -3.51499 -0.118929 0
M  V30 2727 H 270.531 -3.28493 -1.85397 0
M  V30 2728 H 272.918 -2.29309 -1.85745 0
M  V30 2729 H 272.999 -2.55566 -0.109505 0
M  V30 2730 H 272.643 -5.05521 -0.490991 0
M  V30 2731 H 272.573 -4.76258 -2.24691 0
M  V30 2732 H 275.064 -3.57039 -1.23821 0
M  V30 2733 H 275.377 -7.48233 -1.93306 0
M  V30 2734 H 273.722 -6.72732 -1.74518 0
M  V30 2735 H 276.913 -4.44948 -1.45391 0
M  V30 2736 H 277.086 -6.2333 -1.77098 0
M  V30 2737 N 270.492 0.636531 -1.44174 0
M  V30 2738 C 271.422 1.76003 -1.53444 0
M  V30 2739 C 272.403 1.65619 -0.387841 0
M  V30 2740 O 273.588 1.84461 -0.607257 0
M  V30 2741 C 270.718 3.14511 -1.4731 0
M  V30 2742 C 269.672 3.39677 -2.60391 0
M  V30 2743 C 268.998 4.78159 -2.39308 0
M  V30 2744 C 270.298 3.32772 -4.02567 0
M  V30 2745 H 271.992 1.68501 -2.47483 0
M  V30 2746 H 269.538 0.809237 -1.19111 0
M  V30 2747 H 271.491 3.92878 -1.52397 0
M  V30 2748 H 270.215 3.22783 -0.49785 0
M  V30 2749 H 268.874 2.63688 -2.54684 0
M  V30 2750 H 268.522 4.83128 -1.39988 0
M  V30 2751 H 268.222 4.95956 -3.15122 0
M  V30 2752 H 269.746 5.58762 -2.46205 0
M  V30 2753 H 271.16 4.01051 -4.09672 0
M  V30 2754 H 269.557 3.62104 -4.7854 0
M  V30 2755 H 270.627 2.30669 -4.2652 0
M  V30 2756 N 271.97 1.30982 0.876444 0
M  V30 2757 C 273.198 1.23242 1.6619 0
M  V30 2758 C 273.613 -0.203345 1.87702 0
M  V30 2759 O 272.97 -1.13317 1.43057 0
M  V30 2760 C 273.021 1.96623 3.03351 0
M  V30 2761 O 272.742 3.34594 2.82804 0
M  V30 2762 C 274.243 1.95644 3.97792 0
M  V30 2763 H 271.463 0.426126 0.518322 0
M  V30 2764 H 274.007 1.7275 1.09442 0
M  V30 2765 H 272.162 1.50892 3.56806 0
M  V30 2766 H 272.576 3.71873 3.69879 0
M  V30 2767 H 274.05 2.51511 4.91372 0
M  V30 2768 H 274.527 0.937395 4.2908 0
M  V30 2769 H 275.133 2.41225 3.50272 0
M  V30 2770 N 273.449 -1.08991 1.13837 0
M  V30 2771 C 274.379 -2.17771 0.842507 0
M  V30 2772 C 275.36 -1.6892 -0.20001 0
M  V30 2773 O 276.545 -1.94113 -0.0579731 0
M  V30 2774 C 273.675 -3.4589 0.312644 0
M  V30 2775 C 272.629 -4.08099 1.28992 0
M  V30 2776 C 271.955 -5.31098 0.619623 0
M  V30 2777 C 273.255 -4.50077 2.65005 0
M  V30 2778 H 274.949 -2.42777 1.75213 0
M  V30 2779 H 272.495 -1.16682 0.843875 0
M  V30 2780 H 274.448 -4.21297 0.0933043 0
M  V30 2781 H 273.172 -3.20419 -0.632382 0
M  V30 2782 H 271.831 -3.34717 1.49533 0
M  V30 2783 H 271.479 -5.0191 -0.33102 0
M  V30 2784 H 271.179 -5.73674 1.27167 0
M  V30 2785 H 272.703 -6.09224 0.409669 0
M  V30 2786 H 274.117 -5.16688 2.48407 0
M  V30 2787 H 272.514 -5.03553 3.26427 0
M  V30 2788 H 273.584 -3.62257 3.22332 0
M  V30 2789 N 274.927 -0.932562 -1.27047 0
M  V30 2790 C 275.859 -0.392734 -2.2581 0
M  V30 2791 C 276.872 0.479241 -1.55586 0
M  V30 2792 O 278.061 0.291078 -1.76111 0
M  V30 2793 C 275.161 0.455456 -3.35826 0
M  V30 2794 C 274.334 -0.398355 -4.35582 0
M  V30 2795 C 273.393 0.387985 -5.24768 0
M  V30 2796 O 272.419 -0.206003 -5.68827 0
M  V30 2797 N 273.621 1.68664 -5.55457 0
M  V30 2798 H 276.386 -1.24173 -2.72766 0
M  V30 2799 H 273.947 -0.800511 -1.40725 0
M  V30 2800 H 275.939 0.988692 -3.92437 0
M  V30 2801 H 274.509 1.20522 -2.88432 0
M  V30 2802 H 273.729 -1.11286 -3.78165 0
M  V30 2803 H 275.017 -0.981889 -4.99236 0
M  V30 2804 H 274.415 2.19147 -5.21528 0
M  V30 2805 H 272.972 2.1663 -6.14748 0
M  V30 2806 N 276.405 1.4127 -0.698611 0
M  V30 2807 C 277.633 2.05503 -0.239992 0
M  V30 2808 C 278.048 1.52584 1.11191 0
M  V30 2809 O 277.405 0.675323 1.69545 0
M  V30 2810 C 277.456 3.60987 -0.192429 0
M  V30 2811 O 277.177 4.1195 -1.49094 0
M  V30 2812 C 278.678 4.42371 0.28681 0
M  V30 2813 H 275.898 0.661748 -0.111045 0
M  V30 2814 H 278.442 1.80987 -0.95205 0
M  V30 2815 H 276.597 3.84533 0.470472 0
M  V30 2816 H 277.011 5.06018 -1.38007 0
M  V30 2817 H 278.485 5.51344 0.26896 0
M  V30 2818 H 278.962 4.18699 1.32619 0
M  V30 2819 H 279.568 4.23897 -0.345201 0
M  V30 2820 N 277.883 0.443576 1.51229 0
M  V30 2821 C 279.111 -0.11929 2.06556 0
M  V30 2822 C 279.526 -1.35921 1.31038 0
M  V30 2823 O 278.883 -1.78675 0.371704 0
M  V30 2824 C 278.934 -0.435228 3.5887 0
M  V30 2825 O 278.655 0.755486 4.31537 0
M  V30 2826 C 280.156 -1.04808 4.30732 0
M  V30 2827 H 277.376 -0.0051584 0.67098 0
M  V30 2828 H 279.92 0.624453 1.94733 0
M  V30 2829 H 278.075 -1.12887 3.70588 0
M  V30 2830 H 278.489 0.483491 5.22267 0
M  V30 2831 H 279.963 -1.2191 5.3837 0
M  V30 2832 H 280.44 -2.03081 3.89429 0
M  V30 2833 H 281.046 -0.393637 4.23474 0
M  V30 2834 N 279.361 -1.56624 0.175154 0
M  V30 2835 C 280.586 -2.01813 -0.478137 0
M  V30 2836 C 281.011 -1.05457 -1.55757 0
M  V30 2837 O 280.369 -0.0347439 -1.81267 0
M  V30 2838 C 280.417 -3.45581 -1.02987 0
M  V30 2839 O 279.521 -3.52305 -2.14371 0
M  V30 2840 H 278.862 -0.65413 -0.114059 0
M  V30 2841 H 281.392 -2.02673 0.280173 0
M  V30 2842 H 281.402 -3.84965 -1.35151 0
M  V30 2843 H 280.077 -4.1521 -0.239556 0
M  V30 2844 H 278.654 -3.24783 -1.83222 0
M  V30 2845 N 280.839 0.0985539 -1.57292 0
M  V30 2846 C 282.116 0.834155 -1.76921 0
M  V30 2847 C 282.496 1.97101 -0.755928 0
M  V30 2848 O 281.844 2.27474 0.216245 0
M  V30 2849 C 282.054 1.33194 -3.22584 0
M  V30 2850 C 283.402 1.77611 -3.85668 0
M  V30 2851 O 284.426 1.42825 -3.26312 0
M  V30 2852 O 283.285 2.4192 -4.90038 0
M  V30 2853 H 280.379 0.397628 -0.725135 0
M  V30 2854 H 282.925 0.0807044 -1.69508 0
M  V30 2855 H 281.697 0.517248 -3.87866 0
M  V30 2856 H 281.32 2.1475 -3.34616 0
M  V30 2857 N 282.317 1.53212 0.369288 0
M  V30 2858 C 283.565 1.68881 1.11012 0
M  V30 2859 C 283.886 0.441285 1.89941 0
M  V30 2860 O 283.156 -0.544623 1.88177 0
M  V30 2861 H 281.736 0.622569 0.412816 0
M  V30 2862 H 284.398 1.90391 0.416802 0
M  V30 2863 H 283.494 2.54822 1.80201 0
M  V30 2864 N 283.795 -0.628877 1.44509 0
M  V30 2865 C 285.041 -1.39045 1.47629 0
M  V30 2866 C 285.374 -1.93892 0.109343 0
M  V30 2867 O 284.649 -1.7379 -0.87334 0
M  V30 2868 C 284.932 -2.55408 2.53848 0
M  V30 2869 C 284.785 -2.05896 3.99909 0
M  V30 2870 C 286.104 -3.5759 2.56549 0
M  V30 2871 H 283.223 -0.504232 0.537512 0
M  V30 2872 H 285.865 -0.710854 1.76201 0
M  V30 2873 H 284.015 -3.13384 2.29615 0
M  V30 2874 H 285.687 -1.52734 4.35282 0
M  V30 2875 H 283.93 -1.37061 4.11578 0
M  V30 2876 H 284.601 -2.89681 4.69882 0
M  V30 2877 H 287.077 -3.09419 2.78207 0
M  V30 2878 H 285.953 -4.36527 3.32769 0
M  V30 2879 H 286.214 -4.11808 1.60832 0
M  V30 2880 N 285.273 -1.31445 -0.869486 0
M  V30 2881 C 286.206 -1.13465 -1.97992 0
M  V30 2882 C 287.184 -0.0380291 -1.62556 0
M  V30 2883 O 288.368 -0.194544 -1.87493 0
M  V30 2884 C 285.495 -0.733822 -3.30655 0
M  V30 2885 C 284.541 -1.83356 -3.85075 0
M  V30 2886 S 285.374 -3.43909 -4.10472 0
M  V30 2887 C 286.53 -3.05763 -5.46132 0
M  V30 2888 H 286.763 -2.07471 -2.1294 0
M  V30 2889 H 284.296 -1.15936 -1.01972 0
M  V30 2890 H 286.254 -0.509306 -4.07328 0
M  V30 2891 H 284.915 0.187123 -3.13542 0
M  V30 2892 H 284.108 -1.50574 -4.80982 0
M  V30 2893 H 283.71 -2.01315 -3.15195 0
M  V30 2894 H 286.002 -2.54686 -6.27807 0
M  V30 2895 H 286.945 -4.00635 -5.83864 0
M  V30 2896 H 287.353 -2.43192 -5.09429 0
M  V30 2897 N 286.751 1.08385 -1.14413 0
M  V30 2898 C 287.681 2.17321 -0.854044 0
M  V30 2899 C 288.662 1.69024 0.191049 0
M  V30 2900 O 289.847 1.94141 0.0476779 0
M  V30 2901 C 286.977 3.45719 -0.330983 0
M  V30 2902 C 285.931 4.07409 -1.31155 0
M  V30 2903 C 285.257 5.30762 -0.64778 0
M  V30 2904 C 286.557 4.48665 -2.67388 0
M  V30 2905 H 288.251 2.41845 -1.76498 0
M  V30 2906 H 285.797 1.16233 -0.850051 0
M  V30 2907 H 287.75 4.21241 -0.115645 0
M  V30 2908 H 286.474 3.2075 0.615381 0
M  V30 2909 H 285.133 3.33919 -1.51306 0
M  V30 2910 H 284.781 5.02078 0.304398 0
M  V30 2911 H 284.481 5.72992 -1.30207 0
M  V30 2912 H 286.005 6.08998 -0.441972 0
M  V30 2913 H 287.419 5.15364 -2.51143 0
M  V30 2914 H 285.816 5.01814 -3.29093 0
M  V30 2915 H 286.886 3.60543 -3.24248 0
M  V30 2916 N 288.23 0.939286 1.26551 0
M  V30 2917 C 289.507 0.5038 1.89001 0
M  V30 2918 C 289.887 -1.01854 1.84903 0
M  V30 2919 O 289.235 -1.87773 1.30206 0
M  V30 2920 C 289.445 1.063 3.32417 0
M  V30 2921 C 290.793 1.13051 4.09273 0
M  V30 2922 O 291.817 1.01345 3.41479 0
M  V30 2923 O 290.676 1.31233 5.30509 0
M  V30 2924 H 287.77 0.163897 0.810597 0
M  V30 2925 H 290.316 1.03173 1.34735 0
M  V30 2926 H 289.088 2.10665 3.29752 0
M  V30 2927 H 288.711 0.517408 3.94219 0
M  V30 2928 N 289.708 -1.40897 0.706093 0
M  V30 2929 C 290.655 -2.30751 0.0474474 0
M  V30 2930 C 291.625 -1.47678 -0.76029 0
M  V30 2931 O 292.81 -1.76441 -0.726177 0
M  V30 2932 C 289.95 -3.33815 -0.875309 0
M  V30 2933 C 289.063 -4.31961 -0.0580623 0
M  V30 2934 C 288.198 -5.22093 -0.979425 0
M  V30 2935 C 287.237 -6.11902 -0.155706 0
M  V30 2936 N 286.374 -6.94482 -1.03144 0
M  V30 2937 H 291.214 -2.86513 0.819413 0
M  V30 2938 H 288.751 -1.41102 0.415783 0
M  V30 2939 H 290.709 -3.92129 -1.42446 0
M  V30 2940 H 289.339 -2.79579 -1.61356 0
M  V30 2941 H 288.391 -3.75507 0.608147 0
M  V30 2942 H 289.703 -4.95415 0.580082 0
M  V30 2943 H 288.857 -5.85292 -1.59744 0
M  V30 2944 H 287.596 -4.5889 -1.65141 0
M  V30 2945 H 286.601 -5.47742 0.475309 0
M  V30 2946 H 287.826 -6.77162 0.512635 0
M  V30 2947 H 285.772 -6.33877 -1.68924 0
M  V30 2948 H 285.689 -7.54665 -0.449108 0
M  V30 2949 H 286.957 -7.6214 -1.63593 0
M  V30 2950 N 291.186 -0.45159 -1.50991 0
M  V30 2951 C 292.463 0.170707 -1.94854 0
M  V30 2952 C 292.843 1.58788 -1.39103 0
M  V30 2953 O 292.191 2.20913 -0.583921 0
M  V30 2954 C 292.401 0.133929 -3.48743 0
M  V30 2955 C 293.749 0.33248 -4.23296 0
M  V30 2956 O 294.773 0.211403 -3.55572 0
M  V30 2957 O 293.632 0.57486 -5.43468 0
M  V30 2958 H 290.726 0.122264 -0.817912 0
M  V30 2959 H 293.272 -0.510594 -1.61836 0
M  V30 2960 H 292.044 -0.856283 -3.81816 0
M  V30 2961 H 291.667 0.857529 -3.88242 0
M  V30 2962 N 292.664 1.56529 -0.183458 0
M  V30 2963 C 293.594 2.21549 0.737456 0
M  V30 2964 C 294.575 1.17489 1.23005 0
M  V30 2965 O 295.76 1.45959 1.281 0
M  V30 2966 C 292.89 2.86575 1.96194 0
M  V30 2967 C 291.844 3.96778 1.60473 0
M  V30 2968 C 291.17 4.48911 2.90487 0
M  V30 2969 C 292.47 5.15767 0.823497 0
M  V30 2970 H 294.164 2.98761 0.195453 0
M  V30 2971 H 291.71 1.43702 0.0925686 0
M  V30 2972 H 293.663 3.30739 2.61131 0
M  V30 2973 H 292.387 2.06749 2.52828 0
M  V30 2974 H 291.046 3.53286 0.978997 0
M  V30 2975 H 290.694 3.65862 3.45186 0
M  V30 2976 H 290.394 5.23265 2.67335 0
M  V30 2977 H 291.918 4.95771 3.56432 0
M  V30 2978 H 293.332 5.56549 1.37571 0
M  V30 2979 H 291.729 5.96114 0.690551 0
M  V30 2980 H 292.799 4.84574 -0.177782 0
M  V30 2981 N 294.142 -0.090211 1.57342 0
M  V30 2982 C 295.389 -0.792807 1.86335 0
M  V30 2983 C 295.717 -1.78494 0.772662 0
M  V30 2984 O 294.972 -1.94305 -0.233258 0
M  V30 2985 C 295.271 -1.55222 3.21933 0
M  V30 2986 C 294.937 -0.701765 4.45406 0
M  V30 2987 C 293.599 -0.467334 4.78925 0
M  V30 2988 C 295.951 -0.11086 5.21082 0
M  V30 2989 C 293.279 0.367785 5.85546 0
M  V30 2990 C 295.631 0.711609 6.28585 0
M  V30 2991 C 294.295 0.956086 6.60617 0
M  V30 2992 H 293.565 -0.290109 0.681849 0
M  V30 2993 H 296.212 -0.0541332 1.91423 0
M  V30 2994 H 294.517 -2.3626 3.12551 0
M  V30 2995 H 296.214 -2.10032 3.41595 0
M  V30 2996 H 292.804 -0.894598 4.1916 0
M  V30 2997 H 296.988 -0.279129 4.95514 0
M  V30 2998 H 292.244 0.566128 6.08773 0
M  V30 2999 H 296.418 1.17632 6.86393 0
M  V30 3000 H 294.045 1.60499 7.43064 0
M  V30 3001 N 295.62 -1.53406 -0.361157 0
M  V30 3002 C 296.567 -1.80156 -1.44265 0
M  V30 3003 C 297.537 -0.646183 -1.53015 0
M  V30 3004 O 298.722 -0.888818 -1.68833 0
M  V30 3005 C 295.862 -2.00116 -2.81154 0
M  V30 3006 C 294.975 -3.27833 -2.81335 0
M  V30 3007 C 294.11 -3.37957 -4.09828 0
M  V30 3008 C 293.149 -4.59689 -4.04168 0
M  V30 3009 N 292.286 -4.66942 -5.24318 0
M  V30 3010 H 297.126 -2.72438 -1.20754 0
M  V30 3011 H 294.663 -1.34954 -0.585296 0
M  V30 3012 H 296.621 -2.09677 -3.60682 0
M  V30 3013 H 295.251 -1.11167 -3.03054 0
M  V30 3014 H 294.303 -3.27204 -1.94014 0
M  V30 3015 H 295.615 -4.17442 -2.73027 0
M  V30 3016 H 294.769 -3.46853 -4.97773 0
M  V30 3017 H 293.508 -2.46372 -4.20894 0
M  V30 3018 H 292.513 -4.50889 -3.14609 0
M  V30 3019 H 293.738 -5.5262 -3.947 0
M  V30 3020 H 291.684 -3.7826 -5.35962 0
M  V30 3021 H 291.601 -5.50462 -5.18197 0
M  V30 3022 H 292.869 -4.80127 -6.14084 0
M  V30 3023 N 297.098 0.621204 -1.44841 0
M  V30 3024 C 298.045 1.73267 -1.5247 0
M  V30 3025 C 299.015 1.6189 -0.371611 0
M  V30 3026 O 300.2 1.81668 -0.58321 0
M  V30 3027 C 297.34 3.11545 -1.48438 0
M  V30 3028 C 296.453 3.33827 -2.74196 0
M  V30 3029 C 295.588 4.62133 -2.61929 0
M  V30 3030 C 294.627 4.77627 -3.82804 0
M  V30 3031 N 293.764 5.97219 -3.69153 0
M  V30 3032 H 298.604 1.66082 -2.47428 0
M  V30 3033 H 296.141 0.810026 -1.22788 0
M  V30 3034 H 298.099 3.91528 -1.4409 0
M  V30 3035 H 296.729 3.1772 -0.570402 0
M  V30 3036 H 295.781 2.47715 -2.88689 0
M  V30 3037 H 297.093 3.41153 -3.6389 0
M  V30 3038 H 296.247 5.50291 -2.5547 0
M  V30 3039 H 294.986 4.57182 -1.69811 0
M  V30 3040 H 293.991 3.87896 -3.89637 0
M  V30 3041 H 295.216 4.84385 -4.75971 0
M  V30 3042 H 293.162 5.93339 -2.79794 0
M  V30 3043 H 293.079 6.05644 -4.52472 0
M  V30 3044 H 294.347 6.87912 -3.66603 0
M  V30 3045 N 298.576 1.31904 0.862503 0
M  V30 3046 C 299.816 1.23324 1.63004 0
M  V30 3047 C 300.18 -0.203724 1.90916 0
M  V30 3048 O 301.381 -0.413132 2.65606 0
M  V30 3049 C 299.652 2.06116 2.91978 0
M  V30 3050 S 301.211 2.14478 3.82812 0
M  V30 3051 H 298.029 0.439117 0.559193 0
M  V30 3052 H 300.631 1.66658 1.02202 0
M  V30 3053 H 299.335 3.09593 2.69407 0
M  V30 3054 H 298.866 1.6353 3.57801 0
M  V30 3055 H 300.881 1.28855 4.79177 0
M  V30 3056 N 300.054 -1.07777 1.14986 0
M  V30 3057 C 301.3 -1.80557 0.923422 0
M  V30 3058 C 301.633 -1.86298 -0.548337 0
M  V30 3059 O 300.908 -1.34354 -1.40639 0
M  V30 3060 C 301.191 -3.25839 1.53299 0
M  V30 3061 C 301.044 -3.28269 3.07505 0
M  V30 3062 C 302.363 -4.22991 1.21518 0
M  V30 3063 H 299.482 -0.655493 0.336894 0
M  V30 3064 H 302.124 -1.26144 1.42083 0
M  V30 3065 H 300.274 -3.72306 1.10999 0
M  V30 3066 H 301.946 -2.90079 3.58681 0
M  V30 3067 H 300.189 -2.67355 3.4162 0
M  V30 3068 H 300.86 -4.30691 3.45266 0
M  V30 3069 H 303.336 -3.84894 1.581 0
M  V30 3070 H 302.212 -5.22945 1.66793 0
M  V30 3071 H 302.473 -4.41904 0.131505 0
M  V30 3072 N 301.532 -0.945985 -1.26051 0
M  V30 3073 C 302.464 -0.416662 -2.25381 0
M  V30 3074 C 303.477 0.462712 -1.56086 0
M  V30 3075 O 304.666 0.272383 -1.7641 0
M  V30 3076 C 301.766 0.419812 -3.3629 0
M  V30 3077 C 300.939 -0.444531 -4.35135 0
M  V30 3078 C 299.998 0.332305 -5.2515 0
M  V30 3079 O 299.024 -0.266324 -5.68577 0
M  V30 3080 N 300.226 1.62763 -5.57215 0
M  V30 3081 H 302.991 -1.27059 -2.71433 0
M  V30 3082 H 300.552 -0.815392 -1.39868 0
M  V30 3083 H 302.544 0.947013 -3.93464 0
M  V30 3084 H 301.114 1.17456 -2.89694 0
M  V30 3085 H 300.334 -1.15291 -3.76964 0
M  V30 3086 H 301.622 -1.03478 -4.98166 0
M  V30 3087 H 301.02 2.13603 -5.23823 0
M  V30 3088 H 299.577 2.10097 -6.17011 0
M  V30 3089 N 303.011 1.40521 -0.713556 0
M  V30 3090 C 304.236 2.05759 -0.26035 0
M  V30 3091 C 304.661 1.53403 1.08854 0
M  V30 3092 O 304.019 0.668535 1.68524 0
M  V30 3093 C 304.067 3.59745 -0.248122 0
M  V30 3094 O 303.171 4.05123 0.77131 0
M  V30 3095 H 302.512 0.652564 -0.122703 0
M  V30 3096 H 305.042 1.79958 -0.973467 0
M  V30 3097 H 305.052 4.07911 -0.0851129 0
M  V30 3098 H 303.727 3.97218 -1.2325 0
M  V30 3099 H 302.304 3.68422 0.57619 0
M  V30 3100 N 304.489 0.459591 1.5075 0
M  V30 3101 C 305.437 -0.354678 2.2988 0
M  V30 3102 C 306.431 -1.00086 1.36672 0
M  V30 3103 O 307.637 -0.933277 1.53915 0
M  V30 3104 H 304.012 -0.13321 0.740107 0
M  V30 3105 H 305.983 0.333269 2.96533 0
M  V30 3106 C 304.732 -1.43073 3.169 0
M  V30 3107 H 304.055 -0.942882 3.88523 0
M  V30 3108 H 305.495 -1.97328 3.75284 0
M  V30 3109 C 303.954 -2.42633 2.33732 0
M  V30 3110 O 304.484 -3.47658 2.01238 0
M  V30 3111 N 302.69 -2.14066 1.9653 0
M  V30 3112 H 302.237 -1.28685 2.23155 0
M  V30 3113 H 302.195 -2.80917 1.41185 0
M  V30 3114 N 305.967 -1.56429 0.191757 0
M  V30 3115 C 307.216 -1.9666 -0.448088 0
M  V30 3116 C 307.529 -1.08136 -1.62991 0
M  V30 3117 O 308.735 -1.38135 -2.33733 0
M  V30 3118 C 307.191 -3.49753 -0.848585 0
M  V30 3119 C 306.799 -4.46935 0.308764 0
M  V30 3120 C 308.543 -3.9876 -1.4557 0
M  V30 3121 C 306.45 -5.91293 -0.112506 0
M  V30 3122 H 305.38 -0.734312 -0.171179 0
M  V30 3123 H 308.031 -1.81301 0.283242 0
M  V30 3124 H 306.413 -3.60604 -1.63649 0
M  V30 3125 H 307.587 -4.47813 1.08627 0
M  V30 3126 H 305.902 -4.08102 0.827158 0
M  V30 3127 H 308.499 -5.04086 -1.78328 0
M  V30 3128 H 308.842 -3.42875 -2.36099 0
M  V30 3129 H 309.375 -3.9101 -0.731836 0
M  V30 3130 H 306.114 -6.51097 0.758514 0
M  V30 3131 H 305.634 -5.93676 -0.854941 0
M  V30 3132 H 307.313 -6.44663 -0.549448 0
M  V30 3133 N 307.445 0.0818655 -1.57387 0
M  V30 3134 C 308.691 0.784074 -1.8703 0
M  V30 3135 C 309.024 1.77729 -0.782689 0
M  V30 3136 O 308.299 1.93384 0.208051 0
M  V30 3137 C 308.582 1.50105 -3.27323 0
M  V30 3138 C 308.435 0.524925 -4.46727 0
M  V30 3139 C 309.754 2.44843 -3.65705 0
M  V30 3140 H 306.873 0.283582 -0.680257 0
M  V30 3141 H 309.515 0.0474352 -1.89941 0
M  V30 3142 H 307.665 2.12897 -3.24972 0
M  V30 3143 H 309.337 -0.0970111 -4.61198 0
M  V30 3144 H 307.58 -0.160606 -4.33503 0
M  V30 3145 H 308.251 1.064 -5.41648 0
M  V30 3146 H 310.727 1.92135 -3.69085 0
M  V30 3147 H 309.603 2.92018 -4.64776 0
M  V30 3148 H 309.864 3.29197 -2.95096 0
M  V30 3149 N 308.923 1.53595 0.353017 0
M  V30 3150 C 309.853 1.83902 1.43883 0
M  V30 3151 C 310.834 0.693421 1.55324 0
M  V30 3152 O 312.019 0.944452 1.69687 0
M  V30 3153 C 309.149 2.04016 2.8106 0
M  V30 3154 C 308.103 3.19814 2.84434 0
M  V30 3155 C 307.429 3.25244 4.24406 0
M  V30 3156 C 308.729 4.58133 2.50822 0
M  V30 3157 H 310.423 2.74835 1.1877 0
M  V30 3158 H 307.969 1.32242 0.569917 0
M  V30 3159 H 309.922 2.238 3.57059 0
M  V30 3160 H 308.646 1.09804 3.07588 0
M  V30 3161 H 307.305 2.9987 2.10887 0
M  V30 3162 H 306.953 2.28646 4.48029 0
M  V30 3163 H 306.653 4.03054 4.27576 0
M  V30 3164 H 308.177 3.47228 5.0226 0
M  V30 3165 H 309.591 4.77995 3.16534 0
M  V30 3166 H 307.988 5.38276 2.6529 0
M  V30 3167 H 309.058 4.62387 1.46034 0
M  V30 3168 N 310.401 -0.613514 1.45168 0
M  V30 3169 C 311.331 -1.7354 1.56225 0
M  V30 3170 C 312.312 -1.64981 0.41414 0
M  V30 3171 O 313.497 -1.83472 0.636526 0
M  V30 3172 C 310.627 -3.12128 1.52295 0
M  V30 3173 C 309.581 -3.35491 2.65762 0
M  V30 3174 C 308.907 -4.74291 2.46885 0
M  V30 3175 C 310.207 -3.26325 4.0781 0
M  V30 3176 H 311.901 -1.64543 2.50132 0
M  V30 3177 H 309.447 -0.790185 1.20383 0
M  V30 3178 H 311.4 -3.90404 1.58628 0
M  V30 3179 H 310.124 -3.2195 0.549139 0
M  V30 3180 H 308.783 -2.59603 2.58847 0
M  V30 3181 H 308.431 -4.80839 1.47657 0
M  V30 3182 H 308.131 -4.9088 3.22972 0
M  V30 3183 H 309.655 -5.54775 2.55063 0
M  V30 3184 H 311.069 -3.94483 4.16 0
M  V30 3185 H 309.466 -3.54445 4.8424 0
M  V30 3186 H 310.536 -2.23855 4.30136 0
M  V30 3187 N 311.879 -1.3236 -0.855495 0
M  V30 3188 C 313.107 -1.2587 -1.64208 0
M  V30 3189 C 313.522 0.173457 -1.88002 0
M  V30 3190 O 312.879 1.11027 -1.44842 0
M  V30 3191 C 312.93 -2.01424 -3.00184 0
M  V30 3192 O 312.651 -3.39051 -2.77445 0
M  V30 3193 C 314.152 -2.01948 -3.94629 0
M  V30 3194 H 311.372 -0.434318 -0.511477 0
M  V30 3195 H 313.916 -1.74469 -1.0668 0
M  V30 3196 H 312.071 -1.56549 -3.5436 0
M  V30 3197 H 312.485 -3.77711 -3.63916 0
M  V30 3198 H 313.959 -2.59297 -4.87308 0
M  V30 3199 H 314.436 -1.00554 -4.27534 0
M  V30 3200 H 315.042 -2.46767 -3.4639 0
M  V30 3201 N 313.357 1.07166 -1.15556 0
M  V30 3202 C 314.289 2.14341 -0.811815 0
M  V30 3203 C 315.302 1.61835 0.177015 0
M  V30 3204 O 316.491 1.78439 -0.0464996 0
M  V30 3205 C 313.591 3.38387 -0.186481 0
M  V30 3206 C 312.764 4.20238 -1.21321 0
M  V30 3207 C 311.823 5.2266 -0.609302 0
M  V30 3208 O 310.849 5.54719 -1.27576 0
M  V30 3209 N 312.051 5.77306 0.608099 0
M  V30 3210 H 314.816 2.44431 -1.73417 0
M  V30 3211 H 312.377 1.23089 -1.0517 0
M  V30 3212 H 314.369 4.04044 0.230339 0
M  V30 3213 H 312.939 3.05994 0.639249 0
M  V30 3214 H 312.159 3.50369 -1.80652 0
M  V30 3215 H 313.447 4.71736 -1.90638 0
M  V30 3216 H 312.845 5.53513 1.1679 0
M  V30 3217 H 311.402 6.44583 0.96725 0
M  V30 3218 N 314.835 0.952656 1.25548 0
M  V30 3219 C 315.798 0.475794 2.24207 0
M  V30 3220 C 316.798 -0.419428 1.55234 0
M  V30 3221 O 317.988 -0.216994 1.72843 0
M  V30 3222 C 315.12 -0.312814 3.39462 0
M  V30 3223 H 316.313 1.34779 2.67908 0
M  V30 3224 H 313.866 0.735739 1.37901 0
M  V30 3225 H 314.601 -1.20257 3.01179 0
M  V30 3226 H 314.386 0.329404 3.90714 0
M  V30 3227 H 315.876 -0.635986 4.12729 0
M  V30 3228 N 316.313 -1.40141 0.720998 0
M  V30 3229 C 317.56 -2.00787 0.262842 0
M  V30 3230 C 317.888 -1.5718 -1.14563 0
M  V30 3231 O 317.143 -0.785391 -1.79249 0
M  V30 3232 C 317.442 -3.56165 0.296892 0
M  V30 3233 C 317.108 -4.19373 1.65641 0
M  V30 3234 C 315.77 -4.36352 2.02855 0
M  V30 3235 C 318.122 -4.54578 2.54968 0
M  V30 3236 C 315.45 -4.8582 3.28931 0
M  V30 3237 C 317.802 -5.05447 3.80402 0
M  V30 3238 C 316.466 -5.20635 4.17726 0
M  V30 3239 H 315.736 -0.734731 0.0961807 0
M  V30 3240 H 318.383 -1.67673 0.925093 0
M  V30 3241 H 316.688 -3.8922 -0.448932 0
M  V30 3242 H 318.385 -4.00929 -0.0755208 0
M  V30 3243 H 314.975 -4.06549 1.35704 0
M  V30 3244 H 319.159 -4.41091 2.27491 0
M  V30 3245 H 314.415 -4.95764 3.57811 0
M  V30 3246 H 318.589 -5.31663 4.49786 0
M  V30 3247 H 316.216 -5.58728 5.15487 0
M  V30 3248 N 317.792 -0.46758 -1.50504 0
M  V30 3249 C 319.208 -0.121533 -1.59137 0
M  V30 3250 C 319.408 1.3717 -1.47603 0
M  V30 3251 O 318.464 2.14464 -1.33272 0
M  V30 3252 C 319.777 -0.6686 -2.93173 0
M  V30 3253 C 321.325 -0.631716 -3.06559 0
M  V30 3254 C 321.8 -1.15627 -4.43164 0
M  V30 3255 N 323.291 -1.11553 -4.49567 0
M  V30 3256 C 324.026 -1.49195 -5.5365 0
M  V30 3257 N 323.522 -1.94269 -6.65005 0
M  V30 3258 N 325.315 -1.4082 -5.44175 0
M  V30 3259 H 317.466 -1.4388 -1.56245 0
M  V30 3260 H 319.729 -0.594784 -0.738198 0
M  V30 3261 H 319.435 -1.71453 -3.07078 0
M  V30 3262 H 319.309 -0.11021 -3.77039 0
M  V30 3263 H 321.696 0.405297 -2.92304 0
M  V30 3264 H 321.777 -1.22687 -2.24458 0
M  V30 3265 H 321.421 -2.1919 -4.58168 0
M  V30 3266 H 321.351 -0.537365 -5.23851 0
M  V30 3267 H 323.842 -0.784895 -3.69659 0
M  V30 3268 H 324.155 -2.21148 -7.40482 0
M  V30 3269 H 322.5 -1.98219 -6.66134 0
M  V30 3270 H 325.691 -1.0545 -4.56068 0
M  V30 3271 H 325.864 -1.70481 -6.25172 0
M  V30 3272 N 319.27 1.56325 -0.20005 0
M  V30 3273 C 320.686 1.58839 0.155716 0
M  V30 3274 C 320.886 1.21636 1.60645 0
M  V30 3275 O 319.942 0.941437 2.34293 0
M  V30 3276 C 321.255 3.0032 -0.151124 0
M  V30 3277 C 322.803 3.12866 -0.0916284 0
M  V30 3278 C 323.278 4.56488 -0.371845 0
M  V30 3279 N 324.769 4.62089 -0.320641 0
M  V30 3280 C 325.504 5.71116 -0.511243 0
M  V30 3281 N 325 6.88592 -0.762461 0
M  V30 3282 N 326.793 5.60335 -0.445157 0
M  V30 3283 H 318.944 1.78788 -1.14668 0
M  V30 3284 H 321.207 0.829996 -0.458051 0
M  V30 3285 H 320.913 3.32117 -1.15721 0
M  V30 3286 H 320.787 3.73257 0.543986 0
M  V30 3287 H 323.174 2.80878 0.905065 0
M  V30 3288 H 323.255 2.42304 -0.81989 0
M  V30 3289 H 322.899 4.89189 -1.36588 0
M  V30 3290 H 322.829 5.25246 0.377362 0
M  V30 3291 H 325.32 3.77665 -0.13329 0
M  V30 3292 H 325.633 7.67581 -0.896576 0
M  V30 3293 H 323.978 6.90387 -0.799412 0
M  V30 3294 H 327.169 4.67436 -0.249278 0
M  V30 3295 H 327.342 6.45243 -0.597116 0
M  V30 3296 N 320.748 -0.0735177 1.57428 0
M  V30 3297 C 321.695 -1.08756 2.0357 0
M  V30 3298 C 322.665 -1.38559 0.916 0
M  V30 3299 O 323.85 -1.49656 1.18354 0
M  V30 3300 C 320.99 -2.39657 2.48311 0
M  V30 3301 C 320.103 -2.16399 3.73892 0
M  V30 3302 C 319.238 -3.40852 4.07423 0
M  V30 3303 C 318.277 -3.1295 5.2605 0
M  V30 3304 N 317.414 -4.29729 5.55228 0
M  V30 3305 H 322.254 -0.687104 2.8997 0
M  V30 3306 H 319.791 -0.327709 1.43403 0
M  V30 3307 H 321.749 -3.16081 2.72303 0
M  V30 3308 H 320.379 -2.77508 1.64891 0
M  V30 3309 H 319.431 -1.30676 3.57251 0
M  V30 3310 H 320.743 -1.91788 4.60455 0
M  V30 3311 H 319.897 -4.25671 4.32306 0
M  V30 3312 H 318.636 -3.68537 3.19425 0
M  V30 3313 H 317.641 -2.26526 5.00965 0
M  V30 3314 H 318.866 -2.86589 6.15665 0
M  V30 3315 H 316.812 -4.57448 4.70188 0
M  V30 3316 H 316.729 -4.08385 6.36206 0
M  V30 3317 H 317.997 -5.1555 5.84661 0
M  V30 3318 N 322.226 -1.5378 -0.344866 0
M  V30 3319 C 323.473 -1.70963 -1.08526 0
M  V30 3320 C 323.801 -0.472126 -1.88683 0
M  V30 3321 O 323.056 0.546116 -1.87926 0
M  V30 3322 C 323.355 -2.92407 -2.05506 0
M  V30 3323 C 323.021 -4.28066 -1.41671 0
M  V30 3324 C 321.683 -4.64951 -1.2399 0
M  V30 3325 C 324.035 -5.12344 -0.956726 0
M  V30 3326 C 321.363 -5.83733 -0.589277 0
M  V30 3327 C 323.715 -6.3179 -0.320015 0
M  V30 3328 C 322.379 -6.67372 -0.130881 0
M  V30 3329 H 321.649 -0.625598 -0.397124 0
M  V30 3330 H 324.296 -1.87995 -0.36469 0
M  V30 3331 H 322.601 -2.69973 -2.8394 0
M  V30 3332 H 324.298 -3.02895 -2.62784 0
M  V30 3333 H 320.888 -3.99034 -1.56429 0
M  V30 3334 H 325.072 -4.8438 -1.08118 0
M  V30 3335 H 320.328 -6.09877 -0.431344 0
M  V30 3336 H 324.502 -6.96386 0.0445072 0
M  V30 3337 H 322.129 -7.59273 0.375318 0
M  V30 3338 N 323.704 0.605807 -1.45491 0
M  V30 3339 C 324.95 1.36679 -1.49823 0
M  V30 3340 C 325.283 1.93693 -0.140175 0
M  V30 3341 O 324.558 1.75158 0.845581 0
M  V30 3342 C 324.841 2.51337 -2.57879 0
M  V30 3343 C 324.694 1.99508 -4.03134 0
M  V30 3344 C 326.013 3.53463 -2.62205 0
M  V30 3345 H 323.132 0.495617 -0.545466 0
M  V30 3346 H 325.774 0.682732 -1.7731 0
M  V30 3347 H 323.924 3.09691 -2.34571 0
M  V30 3348 H 325.596 1.45789 -4.37656 0
M  V30 3349 H 323.839 1.30496 -4.13707 0
M  V30 3350 H 324.51 2.82169 -4.74431 0
M  V30 3351 H 326.986 3.04953 -2.83095 0
M  V30 3352 H 325.862 4.31178 -3.39672 0
M  V30 3353 H 326.123 4.09197 -1.67363 0
M  V30 3354 N 325.182 1.32811 0.848464 0
M  V30 3355 C 326.431 1.23075 1.59798 0
M  V30 3356 C 326.744 -0.204419 1.94529 0
M  V30 3357 O 327.95 -0.423701 2.68173 0
M  V30 3358 C 326.406 2.15594 2.88179 0
M  V30 3359 C 326.014 3.64228 2.60849 0
M  V30 3360 C 327.758 2.14709 3.66197 0
M  V30 3361 C 325.665 4.48689 3.85269 0
M  V30 3362 H 324.595 0.457091 0.599653 0
M  V30 3363 H 327.246 1.57813 0.936342 0
M  V30 3364 H 325.628 1.73778 3.55833 0
M  V30 3365 H 326.802 4.14424 2.01467 0
M  V30 3366 H 325.117 3.67306 1.96151 0
M  V30 3367 H 327.714 2.75046 4.58534 0
M  V30 3368 H 328.057 1.13966 4.00397 0
M  V30 3369 H 328.59 2.54837 3.05455 0
M  V30 3370 H 325.329 5.5027 3.56207 0
M  V30 3371 H 324.849 4.03241 4.44024 0
M  V30 3372 H 326.528 4.62006 4.52946 0
M  V30 3373 N 326.66 -1.06551 1.16123 0
M  V30 3374 C 328.071 -1.60768 0.949232 0
M  V30 3375 C 328.422 -1.89523 -0.507508 0
M  V30 3376 O 327.547 -1.66671 -1.38021 0
M  V30 3377 C 328.142 -2.92086 1.71671 0
M  V30 3378 C 326.701 -3.43015 1.54977 0
M  V30 3379 C 325.848 -2.16947 1.72711 0
M  V30 3380 H 328.799 -0.895354 1.31031 0
M  V30 3381 H 328.82 -3.6138 1.19099 0
M  V30 3382 H 328.332 -2.71127 2.7769 0
M  V30 3383 H 326.433 -3.69039 0.513873 0
M  V30 3384 H 326.546 -4.18516 2.33198 0
M  V30 3385 H 324.91 -2.27041 1.15431 0
M  V30 3386 H 325.693 -1.98473 2.80113 0
M  V30 3387 N 328.138 -0.959301 -1.25041 0
M  V30 3388 C 329.415 -0.533805 -1.88175 0
M  V30 3389 C 329.795 0.988994 -1.865 0
M  V30 3390 O 329.143 1.85677 -1.33177 0
M  V30 3391 C 329.353 -1.11575 -3.30684 0
M  V30 3392 C 330.701 -1.19548 -4.07423 0
M  V30 3393 O 331.725 -1.06765 -3.39823 0
M  V30 3394 O 330.584 -1.39656 -5.28354 0
M  V30 3395 H 327.678 -0.176772 -0.807887 0
M  V30 3396 H 330.224 -1.05303 -1.33076 0
M  V30 3397 H 328.996 -2.15884 -3.26358 0
M  V30 3398 H 328.619 -0.580059 -3.93346 0
M  V30 3399 N 329.616 1.39756 -0.72842 0
M  V30 3400 C 330.863 2.00645 -0.273487 0
M  V30 3401 C 331.191 1.57786 1.13727 0
M  V30 3402 O 330.446 0.794886 1.7883 0
M  V30 3403 C 330.745 3.56002 -0.315776 0
M  V30 3404 C 330.411 4.18489 -1.67863 0
M  V30 3405 C 329.073 4.3527 -2.05166 0
M  V30 3406 C 331.425 4.53219 -2.57375 0
M  V30 3407 C 328.753 4.84069 -3.31503 0
M  V30 3408 C 331.105 5.03423 -3.83077 0
M  V30 3409 C 329.769 5.18413 -4.20481 0
M  V30 3410 H 329.039 0.734211 -0.100076 0
M  V30 3411 H 331.686 1.6718 -0.933972 0
M  V30 3412 H 329.991 3.89452 0.428285 0
M  V30 3413 H 331.688 4.00963 0.0542575 0
M  V30 3414 H 328.278 4.05824 -1.37858 0
M  V30 3415 H 332.462 4.39878 -2.29827 0
M  V30 3416 H 327.718 4.93859 -3.60435 0
M  V30 3417 H 331.892 5.2927 -4.52599 0
M  V30 3418 H 329.519 5.55987 -5.18443 0
M  V30 3419 N 331.094 0.475555 1.50254 0
M  V30 3420 C 332.027 -0.362381 2.25304 0
M  V30 3421 C 333.005 -0.992393 1.28803 0
M  V30 3422 O 334.189 -1.02746 1.58036 0
M  V30 3423 C 331.316 -1.50813 3.03271 0
M  V30 3424 C 330.362 -0.995044 4.1473 0
M  V30 3425 S 331.195 0.0938436 5.35418 0
M  V30 3426 C 332.351 -1.05567 6.16933 0
M  V30 3427 H 332.584 0.274686 2.96028 0
M  V30 3428 H 330.117 0.260495 1.52187 0
M  V30 3429 H 332.075 -2.16476 3.48781 0
M  V30 3430 H 330.736 -2.11672 2.32064 0
M  V30 3431 H 329.929 -1.85293 4.68703 0
M  V30 3432 H 329.531 -0.416052 3.71679 0
M  V30 3433 H 331.823 -1.96636 6.48337 0
M  V30 3434 H 332.766 -0.555109 7.05921 0
M  V30 3435 H 333.174 -1.31151 5.49053 0
M  V30 3436 N 332.573 -1.56217 0.208337 0
M  V30 3437 C 333.798 -2.02782 -0.435222 0
M  V30 3438 C 334.223 -1.08738 -1.53485 0
M  V30 3439 O 333.581 -0.0731855 -1.81152 0
M  V30 3440 C 333.629 -3.47687 -0.956335 0
M  V30 3441 O 332.733 -3.56773 -2.06849 0
M  V30 3442 H 332.074 -0.656403 -0.100158 0
M  V30 3443 H 334.604 -2.02033 0.3231 0
M  V30 3444 H 334.614 -3.87745 -1.26955 0
M  V30 3445 H 333.289 -4.15624 -0.15143 0
M  V30 3446 H 331.866 -3.28597 -1.76292 0
M  V30 3447 N 334.051 0.0651679 -1.57465 0
M  V30 3448 C 335.298 0.763063 -1.87573 0
M  V30 3449 C 335.626 1.77242 -0.800961 0
M  V30 3450 O 334.881 1.94651 0.202316 0
M  V30 3451 C 335.18 1.50081 -3.24362 0
M  V30 3452 C 334.846 0.630816 -4.46466 0
M  V30 3453 C 333.508 0.391082 -4.79608 0
M  V30 3454 C 335.86 0.0279465 -5.21193 0
M  V30 3455 C 333.188 -0.460894 -5.84887 0
M  V30 3456 C 335.54 -0.811522 -6.27373 0
M  V30 3457 C 334.204 -1.06106 -6.59013 0
M  V30 3458 H 333.474 0.279224 -0.686378 0
M  V30 3459 H 336.121 0.0236726 -1.91485 0
M  V30 3460 H 334.426 2.31258 -3.16271 0
M  V30 3461 H 336.123 2.04571 -3.44894 0
M  V30 3462 H 332.713 0.8278 -4.2053 0
M  V30 3463 H 336.897 0.200262 -4.95896 0
M  V30 3464 H 332.153 -0.662907 -6.07796 0
M  V30 3465 H 336.327 -1.28537 -6.84435 0
M  V30 3466 H 333.954 -1.723 -7.40417 0
M  V30 3467 N 335.529 1.53961 0.336706 0
M  V30 3468 C 336.757 1.75483 1.09605 0
M  V30 3469 C 337.172 0.4972 1.82136 0
M  V30 3470 O 336.529 -0.53149 1.74589 0
M  V30 3471 C 336.58 2.93943 2.10428 0
M  V30 3472 O 336.301 4.14842 1.40846 0
M  V30 3473 C 337.802 3.27571 2.98684 0
M  V30 3474 H 335.022 0.586166 0.326574 0
M  V30 3475 H 337.566 2.00808 0.38683 0
M  V30 3476 H 335.721 2.70929 2.76905 0
M  V30 3477 H 336.135 4.81383 2.08255 0
M  V30 3478 H 337.609 4.13791 3.6535 0
M  V30 3479 H 338.086 2.44168 3.65074 0
M  V30 3480 H 338.692 3.52615 2.37787 0
M  V30 3481 N 337.007 -0.598083 1.45811 0
M  V30 3482 C 338.232 -1.3881 1.54099 0
M  V30 3483 C 338.657 -1.8726 0.177578 0
M  V30 3484 O 338.015 -1.6069 -0.839541 0
M  V30 3485 C 338.063 -2.56217 2.53743 0
M  V30 3486 O 337.167 -3.5716 2.06182 0
M  V30 3487 H 336.508 -0.414024 0.519115 0
M  V30 3488 H 339.038 -0.726971 1.91249 0
M  V30 3489 H 339.048 -3.03337 2.72856 0
M  V30 3490 H 337.723 -2.20303 3.5276 0
M  V30 3491 H 336.3 -3.16624 1.96987 0
M  V30 3492 N 338.485 -1.33259 -0.841409 0
M  V30 3493 C 339.435 -1.19872 -1.93945 0
M  V30 3494 C 340.419 -0.102269 -1.60575 0
M  V30 3495 O 341.611 -0.330114 -1.73894 0
M  V30 3496 C 338.74 -0.937517 -3.30251 0
M  V30 3497 C 337.826 -2.07629 -3.69799 0
M  V30 3498 N 338.217 -3.32604 -3.81062 0
M  V30 3499 C 336.515 -1.98242 -3.9952 0
M  V30 3500 C 337.216 -4.07275 -4.15333 0
M  V30 3501 N 336.192 -3.35691 -4.27566 0
M  V30 3502 H 339.994 -2.14604 -2.00805 0
M  V30 3503 H 337.508 -1.2523 -1.03398 0
M  V30 3504 H 339.505 -0.822545 -4.08705 0
M  V30 3505 H 338.165 0.00128798 -3.247 0
M  V30 3506 H 339.176 -3.67382 -3.65035 0
M  V30 3507 H 335.853 -1.12005 -4.02195 0
M  V30 3508 H 337.243 -5.1511 -4.31406 0
M  V30 3509 N 339.963 1.05934 -1.16686 0
M  V30 3510 C 341.212 1.78188 -0.945085 0
M  V30 3511 C 341.525 1.88338 0.528021 0
M  V30 3512 O 342.731 2.57258 0.867799 0
M  V30 3513 C 341.187 3.20277 -1.64167 0
M  V30 3514 C 340.795 3.18281 -3.15279 0
M  V30 3515 C 342.539 3.97039 -1.502 0
M  V30 3516 C 340.446 4.55112 -3.7766 0
M  V30 3517 H 339.376 0.667866 -0.349959 0
M  V30 3518 H 342.027 1.18794 -1.39858 0
M  V30 3519 H 340.409 3.79952 -1.11589 0
M  V30 3520 H 341.583 2.68167 -3.74731 0
M  V30 3521 H 339.898 2.55018 -3.29173 0
M  V30 3522 H 342.495 4.98194 -1.94183 0
M  V30 3523 H 342.838 4.13845 -0.451461 0
M  V30 3524 H 343.371 3.43894 -1.99954 0
M  V30 3525 H 340.11 4.43512 -4.82677 0
M  V30 3526 H 339.63 5.05406 -3.22994 0
M  V30 3527 H 341.309 5.24064 -3.79428 0
M  V30 3528 N 341.441 0.965919 1.2453 0
M  V30 3529 C 342.718 0.543777 1.87889 0
M  V30 3530 C 343.098 -0.97909 1.87021 0
M  V30 3531 O 342.446 -1.84969 1.3416 0
M  V30 3532 C 342.656 1.13327 3.30088 0
M  V30 3533 C 344.004 1.21707 4.06783 0
M  V30 3534 O 345.028 1.08566 3.39252 0
M  V30 3535 O 343.887 1.42456 5.27606 0
M  V30 3536 H 340.981 0.181054 0.806938 0
M  V30 3537 H 343.527 1.06007 1.32516 0
M  V30 3538 H 342.299 2.17612 3.25209 0
M  V30 3539 H 341.922 0.600911 3.93033 0
M  V30 3540 N 342.919 -1.39368 0.735821 0
M  V30 3541 C 343.829 -2.34395 0.0979693 0
M  V30 3542 C 344.845 -1.58361 -0.720968 0
M  V30 3543 O 346.021 -1.90648 -0.649245 0
M  V30 3544 C 343.086 -3.37393 -0.797916 0
M  V30 3545 C 342.147 -4.29287 0.0333662 0
M  V30 3546 C 341.38 -5.27365 -0.819854 0
M  V30 3547 O 341.603 -5.31959 -2.05855 0
M  V30 3548 O 340.537 -6.01389 -0.248079 0
M  V30 3549 H 344.363 -2.90601 0.882315 0
M  V30 3550 H 341.948 -1.40909 0.4965 0
M  V30 3551 H 343.83 -4.00505 -1.31048 0
M  V30 3552 H 342.505 -2.83571 -1.56106 0
M  V30 3553 H 341.412 -3.69395 0.591475 0
M  V30 3554 H 342.745 -4.86317 0.758752 0
M  V30 3555 N 344.397 -0.483516 -1.5 0
M  V30 3556 C 345.327 0.293829 -2.31644 0
M  V30 3557 C 346.308 0.978864 -1.39112 0
M  V30 3558 O 347.493 0.973644 -1.68029 0
M  V30 3559 C 344.623 1.36897 -3.19181 0
M  V30 3560 C 343.577 0.804833 -4.20365 0
M  V30 3561 C 342.903 1.9792 -4.96721 0
M  V30 3562 C 344.203 -0.192313 -5.21946 0
M  V30 3563 H 345.897 -0.387616 -2.9688 0
M  V30 3564 H 343.443 -0.187856 -1.42769 0
M  V30 3565 H 345.396 1.92037 -3.751 0
M  V30 3566 H 344.12 2.07936 -2.51853 0
M  V30 3567 H 342.779 0.275319 -3.65565 0
M  V30 3568 H 342.427 2.67686 -4.25856 0
M  V30 3569 H 342.127 1.60789 -5.65173 0
M  V30 3570 H 343.651 2.53526 -5.55479 0
M  V30 3571 H 345.065 0.270333 -5.72662 0
M  V30 3572 H 343.462 -0.478543 -5.98189 0
M  V30 3573 H 344.532 -1.11409 -4.71928 0
M  V30 3574 N 345.875 1.56104 -0.216619 0
M  V30 3575 C 347.105 2.02269 0.420802 0
M  V30 3576 C 347.513 1.09575 1.5424 0
M  V30 3577 O 346.856 0.0967308 1.83445 0
M  V30 3578 C 346.918 3.44784 1.01806 0
M  V30 3579 C 346.582 4.56988 0.0325154 0
M  V30 3580 C 347.579 5.14225 -0.766055 0
M  V30 3581 C 345.264 5.02228 -0.0848092 0
M  V30 3582 C 347.258 6.15169 -1.6687 0
M  V30 3583 C 344.945 6.03011 -0.990994 0
M  V30 3584 C 345.943 6.59357 -1.78149 0
M  V30 3585 O 345.631 7.58179 -2.67245 0
M  V30 3586 H 345.363 0.667353 0.107776 0
M  V30 3587 H 347.917 2.02747 -0.329034 0
M  V30 3588 H 346.147 3.41359 1.81689 0
M  V30 3589 H 347.836 3.74626 1.56237 0
M  V30 3590 H 348.602 4.80126 -0.685836 0
M  V30 3591 H 344.481 4.58054 0.520349 0
M  V30 3592 H 348.025 6.59076 -2.28615 0
M  V30 3593 H 343.922 6.36532 -1.07225 0
M  V30 3594 H 344.69 7.75682 -2.61265 0
M  V30 3595 N 347.353 -0.0568162 1.57498 0
M  V30 3596 C 348.263 -1.08346 2.08083 0
M  V30 3597 C 349.279 -1.41439 1.01346 0
M  V30 3598 O 350.455 -1.51316 1.32912 0
M  V30 3599 C 347.52 -2.37352 2.52715 0
M  V30 3600 C 346.581 -2.11093 3.73816 0
M  V30 3601 C 345.814 -3.33949 4.1631 0
M  V30 3602 O 346.037 -4.43622 3.58547 0
M  V30 3603 O 344.971 -3.21279 5.08983 0
M  V30 3604 H 348.797 -0.683667 2.95905 0
M  V30 3605 H 346.382 -0.271965 1.46904 0
M  V30 3606 H 348.264 -3.13246 2.81877 0
M  V30 3607 H 346.939 -2.76681 1.68016 0
M  V30 3608 H 345.846 -1.32856 3.49714 0
M  V30 3609 H 347.179 -1.76637 4.59413 0
M  V30 3610 N 348.832 -1.54138 -0.328536 0
M  V30 3611 C 350.057 -1.76378 -1.09112 0
M  V30 3612 C 350.482 -0.508596 -1.81094 0
M  V30 3613 O 349.84 0.539598 -1.73084 0
M  V30 3614 C 349.888 -2.95358 -2.06872 0
M  V30 3615 O 348.992 -2.66556 -3.14677 0
M  V30 3616 H 348.333 -0.584614 -0.314838 0
M  V30 3617 H 350.863 -2.01146 -0.374348 0
M  V30 3618 H 350.873 -3.22566 -2.4983 0
M  V30 3619 H 349.548 -3.86385 -1.5388 0
M  V30 3620 H 348.125 -2.50282 -2.7643 0
M  V30 3621 N 350.31 0.590341 -1.46126 0
M  V30 3622 C 351.273 1.68194 -1.55703 0
M  V30 3623 C 352.273 1.54808 -0.434868 0
M  V30 3624 O 353.463 1.59564 -0.698928 0
M  V30 3625 C 350.595 3.07575 -1.47005 0
M  V30 3626 H 351.788 1.61064 -2.52979 0
M  V30 3627 H 349.341 0.807541 -1.33823 0
M  V30 3628 H 350.076 3.20268 -0.509785 0
M  V30 3629 H 349.861 3.187 -2.28414 0
M  V30 3630 H 351.351 3.87055 -1.56776 0
M  V30 3631 N 351.788 1.33704 0.83433 0
M  V30 3632 C 352.735 1.24335 1.94447 0
M  V30 3633 C 353.705 0.120991 1.65659 0
M  V30 3634 O 354.89 0.300035 1.88426 0
M  V30 3635 C 352.03 0.993124 3.30501 0
M  V30 3636 C 351.143 2.20217 3.71657 0
M  V30 3637 C 350.278 1.88572 4.96602 0
M  V30 3638 C 349.317 3.05683 5.30306 0
M  V30 3639 N 348.454 2.73997 6.46429 0
M  V30 3640 H 353.294 2.1928 2.01792 0
M  V30 3641 H 350.831 1.09035 0.987404 0
M  V30 3642 H 352.789 0.828467 4.08892 0
M  V30 3643 H 351.419 0.0803902 3.227 0
M  V30 3644 H 350.471 2.47642 2.88752 0
M  V30 3645 H 351.783 3.07752 3.92543 0
M  V30 3646 H 350.937 1.68776 5.82752 0
M  V30 3647 H 349.676 0.982799 4.77695 0
M  V30 3648 H 348.681 3.26088 4.42659 0
M  V30 3649 H 349.906 3.96737 5.51159 0
M  V30 3650 H 347.852 1.86268 6.28999 0
M  V30 3651 H 347.769 3.55064 6.67432 0
M  V30 3652 H 349.037 2.57679 7.35678 0
M  V30 3653 N 353.266 -1.05314 1.17247 0
M  V30 3654 C 354.213 -2.13031 0.888058 0
M  V30 3655 C 355.183 -1.65253 -0.167537 0
M  V30 3656 O 356.368 -1.90775 -0.0305974 0
M  V30 3657 C 353.508 -3.42702 0.406147 0
M  V30 3658 C 352.621 -4.04161 1.52572 0
M  V30 3659 C 351.756 -5.21744 0.997808 0
M  V30 3660 C 350.795 -5.75207 2.09291 0
M  V30 3661 N 349.932 -6.84094 1.57986 0
M  V30 3662 H 354.772 -2.36698 1.81048 0
M  V30 3663 H 352.309 -1.16121 0.903013 0
M  V30 3664 H 354.267 -4.17059 0.108305 0
M  V30 3665 H 352.897 -3.19222 -0.479313 0
M  V30 3666 H 351.949 -3.27253 1.93931 0
M  V30 3667 H 353.261 -4.39881 2.35172 0
M  V30 3668 H 352.415 -6.03168 0.653739 0
M  V30 3669 H 351.154 -4.87495 0.141232 0
M  V30 3670 H 350.159 -4.92414 2.44557 0
M  V30 3671 H 351.384 -6.11505 2.95362 0
M  V30 3672 H 349.33 -6.51745 0.74598 0
M  V30 3673 H 349.247 -7.18811 2.34195 0
M  V30 3674 H 350.515 -7.69172 1.26468 0
M  V30 3675 N 354.744 -0.972509 -1.24016 0
M  V30 3676 C 355.676 -0.464375 -2.24446 0
M  V30 3677 C 356.689 0.4295 -1.57032 0
M  V30 3678 O 357.878 0.234902 -1.76948 0
M  V30 3679 C 354.978 0.348385 -3.37105 0
M  V30 3680 C 354.151 -0.53673 -4.34094 0
M  V30 3681 C 353.21 0.220838 -5.25736 0
M  V30 3682 O 352.236 -0.386867 -5.67884 0
M  V30 3683 N 353.438 1.50907 -5.60542 0
M  V30 3684 H 356.203 -1.32788 -2.68677 0
M  V30 3685 H 353.764 -0.844877 -1.38107 0
M  V30 3686 H 355.756 0.863341 -3.95384 0
M  V30 3687 H 354.326 1.11285 -2.92121 0
M  V30 3688 H 353.546 -1.23261 -3.74433 0
M  V30 3689 H 354.834 -1.14022 -4.95859 0
M  V30 3690 H 354.232 2.02444 -5.28236 0
M  V30 3691 H 352.789 1.96962 -6.21329 0
M  V30 3692 N 356.222 1.38976 -0.743202 0
M  V30 3693 C 357.447 2.05161 -0.303936 0
M  V30 3694 C 357.872 1.55677 1.05576 0
M  V30 3695 O 357.23 0.704131 1.67068 0
M  V30 3696 C 357.278 3.59138 -0.324373 0
M  V30 3697 O 356.382 4.06668 0.685204 0
M  V30 3698 H 355.723 0.649815 -0.136518 0
M  V30 3699 H 358.253 1.77852 -1.01142 0
M  V30 3700 H 358.263 4.07639 -0.171618 0
M  V30 3701 H 356.938 3.94515 -1.31647 0
M  V30 3702 H 355.515 3.69561 0.497913 0
M  V30 3703 N 357.7 0.491464 1.49741 0
M  V30 3704 C 358.948 -0.0563141 2.02022 0
M  V30 3705 C 359.269 -1.38363 1.37407 0
M  V30 3706 O 358.539 -1.88702 0.526166 0
M  V30 3707 H 357.119 -0.0238014 0.746621 0
M  V30 3708 H 359.781 0.646533 1.83864 0
M  V30 3709 H 358.877 -0.192967 3.11503 0
M  V30 3710 N 359.178 -1.55987 0.224894 0
M  V30 3711 C 360.426 -1.97998 -0.405099 0
M  V30 3712 C 360.747 -1.11387 -1.60056 0
M  V30 3713 O 360.017 -0.191645 -1.9496 0
M  V30 3714 H 358.597 -0.731235 -0.152658 0
M  V30 3715 H 361.259 -1.92279 0.318567 0
M  V30 3716 H 360.355 -3.03463 -0.729167 0
M  V30 3717 N 360.656 0.0484629 -1.57525 0
M  V30 3718 C 361.603 1.05504 -2.05275 0
M  V30 3719 C 362.573 1.37084 -0.937927 0
M  V30 3720 O 363.758 1.47754 -1.2072 0
M  V30 3721 C 360.898 2.35676 -2.52093 0
M  V30 3722 C 360.011 2.10423 -3.77288 0
M  V30 3723 C 359.146 3.34327 -4.12794 0
M  V30 3724 C 358.185 3.04542 -5.30962 0
M  V30 3725 N 357.322 4.20841 -5.61994 0
M  V30 3726 H 362.162 0.640885 -2.91027 0
M  V30 3727 H 359.699 0.304854 -1.43906 0
M  V30 3728 H 361.657 3.11709 -2.77297 0
M  V30 3729 H 360.287 2.7485 -1.69285 0
M  V30 3730 H 359.339 1.24976 -3.59284 0
M  V30 3731 H 360.651 1.84438 -4.63448 0
M  V30 3732 H 359.805 4.1874 -4.39024 0
M  V30 3733 H 358.544 3.63408 -3.25247 0
M  V30 3734 H 357.549 2.18528 -5.04505 0
M  V30 3735 H 358.774 2.76758 -6.20146 0
M  V30 3736 H 356.72 4.4991 -4.77406 0
M  V30 3737 H 356.637 3.98212 -6.42622 0
M  V30 3738 H 357.905 5.06184 -5.92789 0
M  V30 3739 N 362.134 1.5431 0.320358 0
M  V30 3740 C 363.38 1.72924 1.05949 0
M  V30 3741 C 363.713 0.503185 1.87568 0
M  V30 3742 O 362.988 -0.499839 1.87968 0
M  V30 3743 C 363.271 3.00676 1.98156 0
M  V30 3744 C 363.124 4.3354 1.19845 0
M  V30 3745 C 364.443 3.24198 2.9763 0
M  V30 3746 H 361.562 0.629195 0.383774 0
M  V30 3747 H 364.204 1.87008 0.335854 0
M  V30 3748 H 362.354 2.888 2.59859 0
M  V30 3749 H 364.026 4.57305 0.605773 0
M  V30 3750 H 362.269 4.309 0.500784 0
M  V30 3751 H 362.94 5.19156 1.87567 0
M  V30 3752 H 365.416 3.35557 2.4605 0
M  V30 3753 H 364.292 4.14938 3.59329 0
M  V30 3754 H 364.553 2.41577 3.7026 0
M  V30 3755 N 363.613 -0.582584 1.46437 0
M  V30 3756 C 364.576 -1.67366 1.56592 0
M  V30 3757 C 365.576 -1.54575 0.443072 0
M  V30 3758 O 366.766 -1.59191 0.707381 0
M  V30 3759 C 363.898 -3.06791 1.48634 0
M  V30 3760 H 365.091 -1.5972 2.5383 0
M  V30 3761 H 362.644 -0.800432 1.34249 0
M  V30 3762 H 363.379 -3.19993 0.526763 0
M  V30 3763 H 363.164 -3.17484 2.30101 0
M  V30 3764 H 364.654 -3.86218 1.58826 0
M  V30 3765 N 365.091 -1.34144 -0.827227 0
M  V30 3766 C 366.368 -1.16844 -1.56865 0
M  V30 3767 C 366.748 0.260654 -2.09485 0
M  V30 3768 O 366.096 1.26138 -1.9053 0
M  V30 3769 C 366.306 -2.21939 -2.6934 0
M  V30 3770 C 367.654 -2.56695 -3.3822 0
M  V30 3771 O 368.678 -2.20695 -2.79593 0
M  V30 3772 O 367.537 -3.18518 -4.44082 0
M  V30 3773 H 364.631 -0.452669 -0.692112 0
M  V30 3774 H 367.177 -1.45763 -0.868973 0
M  V30 3775 H 365.949 -3.17882 -2.28182 0
M  V30 3776 H 365.572 -1.94172 -3.46962 0
M  V30 3777 N 366.569 1.04691 -1.17803 0
M  V30 3778 C 367.799 1.81183 -0.992788 0
M  V30 3779 C 368.207 1.8347 0.462098 0
M  V30 3780 O 367.55 1.2643 1.33271 0
M  V30 3781 C 367.612 3.28363 -1.46349 0
M  V30 3782 C 367.276 3.49749 -2.94151 0
M  V30 3783 C 368.273 3.41456 -3.92051 0
M  V30 3784 C 365.958 3.76548 -3.32441 0
M  V30 3785 C 367.952 3.59656 -5.26238 0
M  V30 3786 C 365.639 3.94396 -4.66792 0
M  V30 3787 C 366.637 3.8595 -5.635 0
M  V30 3788 O 366.325 4.03294 -6.9542 0
M  V30 3789 H 366.057 0.577622 -0.351182 0
M  V30 3790 H 368.611 1.32876 -1.5663 0
M  V30 3791 H 366.841 3.77609 -0.833574 0
M  V30 3792 H 368.53 3.86395 -1.24313 0
M  V30 3793 H 369.296 3.20723 -3.63815 0
M  V30 3794 H 365.175 3.82224 -2.57732 0
M  V30 3795 H 368.719 3.52979 -6.01707 0
M  V30 3796 H 364.616 4.14622 -4.94731 0
M  V30 3797 H 365.384 4.2049 -7.02232 0
M  V30 3798 N 368.047 0.979072 1.23499 0
M  V30 3799 C 369.296 0.642751 1.91185 0
M  V30 3800 C 369.609 -0.827253 1.77245 0
M  V30 3801 O 370.815 -1.27458 2.39722 0
M  V30 3802 C 369.271 1.09901 3.42709 0
M  V30 3803 C 368.879 2.59327 3.65313 0
M  V30 3804 C 370.623 0.836371 4.16179 0
M  V30 3805 C 368.53 2.98627 5.10467 0
M  V30 3806 H 367.46 0.236698 0.715884 0
M  V30 3807 H 370.111 1.1868 1.39955 0
M  V30 3808 H 368.493 0.48319 3.93041 0
M  V30 3809 H 369.667 3.26136 3.25533 0
M  V30 3810 H 367.982 2.83323 3.05151 0
M  V30 3811 H 370.579 1.10586 5.23139 0
M  V30 3812 H 370.922 -0.227509 4.15678 0
M  V30 3813 H 371.455 1.41371 3.71832 0
M  V30 3814 H 368.194 4.04133 5.16098 0
M  V30 3815 H 367.714 2.3651 5.51201 0
M  V30 3816 H 369.393 2.89159 5.78788 0
M  V30 3817 N 369.525 -1.3858 0.750561 0
M  V30 3818 C 370.936 -1.82927 0.373438 0
M  V30 3819 C 371.287 -1.62634 -1.09748 0
M  V30 3820 O 370.412 -1.12588 -1.84805 0
M  V30 3821 C 371.007 -3.32088 0.671029 0
M  V30 3822 C 369.566 -3.74795 0.34722 0
M  V30 3823 C 368.713 -2.61391 0.92575 0
M  V30 3824 H 371.664 -1.27351 0.946958 0
M  V30 3825 H 371.685 -3.80465 -0.0518269 0
M  V30 3826 H 371.197 -3.46826 1.74164 0
M  V30 3827 H 369.298 -3.65638 -0.716933 0
M  V30 3828 H 369.411 -4.71667 0.840656 0
M  V30 3829 H 367.775 -2.52265 0.351327 0
M  V30 3830 H 368.558 -2.78929 2.00133 0
M  V30 3831 N 371.003 -0.499398 -1.49478 0
M  V30 3832 C 371.935 0.316575 -2.27003 0
M  V30 3833 C 372.948 0.932047 -1.33479 0
M  V30 3834 O 374.137 0.815658 -1.58774 0
M  V30 3835 C 371.237 1.46055 -3.05812 0
M  V30 3836 C 370.41 0.952679 -4.26899 0
M  V30 3837 C 369.469 1.97407 -4.87767 0
M  V30 3838 O 368.495 1.54326 -5.4788 0
M  V30 3839 N 369.697 3.30436 -4.77276 0
M  V30 3840 H 372.462 -0.348168 -2.97671 0
M  V30 3841 H 370.023 -0.33185 -1.58463 0
M  V30 3842 H 372.015 2.14135 -3.43407 0
M  V30 3843 H 370.585 2.02948 -2.37762 0
M  V30 3844 H 369.805 0.0968248 -3.94081 0
M  V30 3845 H 371.093 0.59174 -5.05347 0
M  V30 3846 H 370.491 3.68126 -4.29534 0
M  V30 3847 H 369.048 3.94235 -5.19059 0
M  V30 3848 N 372.481 1.55866 -0.233164 0
M  V30 3849 C 373.411 2.23783 0.666599 0
M  V30 3850 C 374.392 1.21343 1.19205 0
M  V30 3851 O 375.577 1.4996 1.23392 0
M  V30 3852 C 372.707 2.92671 1.86978 0
M  V30 3853 C 371.661 4.01682 1.47768 0
M  V30 3854 C 370.987 4.57926 2.76058 0
M  V30 3855 C 372.287 5.18126 0.658993 0
M  V30 3856 H 373.981 2.99232 0.100306 0
M  V30 3857 H 371.527 1.43924 0.046804 0
M  V30 3858 H 373.48 3.3888 2.50476 0
M  V30 3859 H 372.204 2.14688 2.46123 0
M  V30 3860 H 370.863 3.56222 0.866106 0
M  V30 3861 H 370.511 3.76659 3.33372 0
M  V30 3862 H 370.211 5.31505 2.50552 0
M  V30 3863 H 371.735 5.06859 3.40479 0
M  V30 3864 H 373.149 5.60644 1.19795 0
M  V30 3865 H 371.546 5.98009 0.500552 0
M  V30 3866 H 372.616 4.83763 -0.331856 0
M  V30 3867 N 373.959 -0.0401083 1.57549 0
M  V30 3868 C 374.922 -1.02871 2.04817 0
M  V30 3869 C 375.922 -1.29708 0.950388 0
M  V30 3870 O 377.112 -1.24897 1.21435 0
M  V30 3871 C 374.244 -2.36443 2.45576 0
M  V30 3872 H 375.437 -0.620631 2.93408 0
M  V30 3873 H 372.99 -0.286667 1.53649 0
M  V30 3874 H 373.725 -2.82021 1.60108 0
M  V30 3875 H 373.51 -2.18296 3.25713 0
M  V30 3876 H 375 -3.07441 2.82612 0
M  V30 3877 N 375.437 -1.54477 -0.31217 0
M  V30 3878 C 376.384 -1.84655 -1.38461 0
M  V30 3879 C 377.354 -0.694536 -1.50882 0
M  V30 3880 O 378.539 -0.942081 -1.6592 0
M  V30 3881 C 375.679 -2.0896 -2.74645 0
M  V30 3882 C 374.792 -3.36618 -2.70763 0
M  V30 3883 C 373.927 -3.50824 -3.98868 0
M  V30 3884 C 372.966 -4.72315 -3.89339 0
M  V30 3885 N 372.103 -4.83387 -5.09197 0
M  V30 3886 H 376.943 -2.76142 -1.12026 0
M  V30 3887 H 374.48 -1.36748 -0.542065 0
M  V30 3888 H 376.438 -2.21045 -3.53829 0
M  V30 3889 H 375.068 -1.20752 -2.99364 0
M  V30 3890 H 374.12 -3.33211 -1.83506 0
M  V30 3891 H 375.432 -4.25917 -2.59608 0
M  V30 3892 H 374.586 -3.62513 -4.86486 0
M  V30 3893 H 373.325 -2.59638 -4.12843 0
M  V30 3894 H 372.33 -4.6067 -3.00105 0
M  V30 3895 H 373.555 -5.64897 -3.76919 0
M  V30 3896 H 371.501 -3.9512 -5.23657 0
M  V30 3897 H 371.418 -5.66669 -5.00422 0
M  V30 3898 H 372.686 -4.9942 -5.98498 0
M  V30 3899 N 376.915 0.57481 -1.46744 0
M  V30 3900 C 378.162 1.33272 -1.52462 0
M  V30 3901 C 378.49 1.93669 -0.179572 0
M  V30 3902 O 377.745 1.7743 0.825664 0
M  V30 3903 C 378.044 2.476 -2.57738 0
M  V30 3904 C 377.71 2.05146 -4.01529 0
M  V30 3905 C 376.372 1.93284 -4.40676 0
M  V30 3906 C 378.724 1.72506 -4.91824 0
M  V30 3907 C 376.052 1.47049 -5.67973 0
M  V30 3908 C 378.404 1.27748 -6.19567 0
M  V30 3909 C 377.068 1.14468 -6.57612 0
M  V30 3910 H 376.338 0.487678 -0.557899 0
M  V30 3911 H 378.985 0.646456 -1.80259 0
M  V30 3912 H 377.29 3.21708 -2.23632 0
M  V30 3913 H 378.987 3.05807 -2.5939 0
M  V30 3914 H 375.577 2.15316 -3.7059 0
M  V30 3915 H 379.761 1.80552 -4.62293 0
M  V30 3916 H 375.017 1.35417 -5.96215 0
M  V30 3917 H 379.191 1.01547 -6.88957 0
M  V30 3918 H 376.818 0.78419 -7.56145 0
M  V30 3919 N 378.394 1.34581 0.820102 0
M  V30 3920 C 379.619 1.30333 1.61332 0
M  V30 3921 C 380.044 -0.119339 1.87721 0
M  V30 3922 O 379.402 -1.08197 1.45475 0
M  V30 3923 C 379.45 2.10258 2.92957 0
M  V30 3924 O 378.554 1.47404 3.85157 0
M  V30 3925 H 377.895 0.447488 0.490561 0
M  V30 3926 H 380.425 1.77425 1.01889 0
M  V30 3927 H 380.435 2.21718 3.42498 0
M  V30 3928 H 379.11 3.13693 2.73074 0
M  V30 3929 H 377.687 1.44703 3.43679 0
M  V30 3930 N 379.872 -1.04064 1.18357 0
M  V30 3931 C 381.283 -1.58719 0.98312 0
M  V30 3932 C 381.634 -1.90556 -0.467193 0
M  V30 3933 O 380.759 -1.69561 -1.34454 0
M  V30 3934 C 381.354 -2.88379 1.77828 0
M  V30 3935 C 379.913 -3.3965 1.62218 0
M  V30 3936 C 379.06 -2.13235 1.77274 0
M  V30 3937 H 382.011 -0.867359 1.32901 0
M  V30 3938 H 382.032 -3.58773 1.26737 0
M  V30 3939 H 381.544 -2.65176 2.83379 0
M  V30 3940 H 379.645 -3.67866 0.592036 0
M  V30 3941 H 379.758 -4.13475 2.42023 0
M  V30 3942 H 378.122 -2.24542 1.20221 0
M  V30 3943 H 378.905 -1.92487 2.8426 0
M  V30 3944 N 381.35 -0.985608 -1.22978 0
M  V30 3945 C 382.627 -0.573599 -1.87001 0
M  V30 3946 C 383.007 0.949213 -1.88555 0
M  V30 3947 O 382.355 1.82811 -1.37086 0
M  V30 3948 C 382.565 -1.18564 -3.28243 0
M  V30 3949 C 383.913 -1.28163 -4.04796 0
M  V30 3950 O 384.937 -1.13949 -3.37482 0
M  V30 3951 O 383.796 -1.50832 -5.25273 0
M  V30 3952 H 380.89 -0.193868 -0.803955 0
M  V30 3953 H 383.436 -1.08102 -1.30813 0
M  V30 3954 H 382.208 -2.22758 -3.21706 0
M  V30 3955 H 381.831 -0.663363 -3.92027 0
M  V30 3956 N 382.828 1.3818 -0.7579 0
M  V30 3957 C 383.758 2.33027 -0.148597 0
M  V30 3958 C 384.739 1.55085 0.69875 0
M  V30 3959 O 385.924 1.83384 0.639053 0
M  V30 3960 C 383.054 3.3928 0.742034 0
M  V30 3961 C 382.008 4.28 -0.00291946 0
M  V30 3962 C 381.334 5.25146 1.00625 0
M  V30 3963 C 382.634 5.08938 -1.17385 0
M  V30 3964 H 384.328 2.84231 -0.940909 0
M  V30 3965 H 381.874 1.36659 -0.453908 0
M  V30 3966 H 383.827 4.046 1.17799 0
M  V30 3967 H 382.551 2.86569 1.56671 0
M  V30 3968 H 381.21 3.64192 -0.419504 0
M  V30 3969 H 380.858 4.68721 1.8251 0
M  V30 3970 H 380.558 5.85361 0.512428 0
M  V30 3971 H 382.082 5.93342 1.44143 0
M  V30 3972 H 383.496 5.67474 -0.815224 0
M  V30 3973 H 381.893 5.7841 -1.59882 0
M  V30 3974 H 382.963 4.42424 -1.98468 0
M  V30 3975 N 384.306 0.507319 1.49211 0
M  V30 3976 C 385.552 -0.0269732 2.03382 0
M  V30 3977 C 385.907 -1.34111 1.37957 0
M  V30 3978 O 385.2 -1.84733 0.508351 0
M  V30 3979 C 385.394 -0.229513 3.56662 0
M  V30 3980 C 385.223 1.06344 4.36945 0
M  V30 3981 C 383.993 1.617 4.78729 0
M  V30 3982 C 386.191 1.96833 4.75143 0
M  V30 3983 N 384.173 2.8552 5.43463 0
M  V30 3984 C 385.544 3.0523 5.39661 0
M  V30 3985 C 387.599 1.97434 4.57082 0
M  V30 3986 C 386.302 4.14265 5.88028 0
M  V30 3987 C 388.328 3.05448 5.06414 0
M  V30 3988 C 387.69 4.12564 5.70938 0
M  V30 3989 H 383.789 0.0310673 0.781383 0
M  V30 3990 H 386.373 0.683579 1.82305 0
M  V30 3991 H 384.544 -0.909127 3.7761 0
M  V30 3992 H 386.276 -0.761377 3.97473 0
M  V30 3993 H 383.031 1.16132 4.59141 0
M  V30 3994 H 383.455 3.48499 5.80412 0
M  V30 3995 H 388.097 1.15924 4.06597 0
M  V30 3996 H 385.815 4.96569 6.3753 0
M  V30 3997 H 389.401 3.06941 4.94246 0
M  V30 3998 H 388.281 4.94767 6.0842 0
M  V30 3999 N 385.784 -1.5574 0.241426 0
M  V30 4000 C 387.032 -1.98417 -0.384075 0
M  V30 4001 C 387.353 -1.13078 -1.58866 0
M  V30 4002 O 386.623 -0.212312 -1.94746 0
M  V30 4003 H 385.203 -0.732813 -0.144894 0
M  V30 4004 H 387.865 -1.9193 0.338943 0
M  V30 4005 H 386.961 -3.04219 -0.696939 0
M  V30 4006 N 387.262 0.0317525 -1.57568 0
M  V30 4007 C 388.508 0.724175 -1.8943 0
M  V30 4008 C 388.841 1.75149 -0.838836 0
M  V30 4009 O 388.116 1.93948 0.146422 0
M  V30 4010 C 388.399 1.39615 -3.31933 0
M  V30 4011 C 388.252 0.382537 -4.4817 0
M  V30 4012 C 389.571 2.33084 -3.73309 0
M  V30 4013 H 386.69 0.261797 -0.688935 0
M  V30 4014 H 389.332 -0.013017 -1.89996 0
M  V30 4015 H 387.482 2.02451 -3.31581 0
M  V30 4016 H 389.154 -0.243689 -4.60656 0
M  V30 4017 H 387.397 -0.29844 -4.32772 0
M  V30 4018 H 388.068 0.891145 -5.44759 0
M  V30 4019 H 390.544 1.80295 -3.7501 0
M  V30 4020 H 389.42 2.77084 -4.73831 0
M  V30 4021 H 389.681 3.19643 -3.05419 0
M  V30 4022 N 388.74 1.54641 0.303973 0
M  V30 4023 C 389.965 1.78092 1.06292 0
M  V30 4024 C 390.39 0.537342 1.80262 0
M  V30 4025 O 389.748 -0.511993 1.7392 0
M  V30 4026 C 389.796 2.98612 2.02147 0
M  V30 4027 O 388.9 2.71528 3.10397 0
M  V30 4028 H 388.241 0.589548 0.305497 0
M  V30 4029 H 390.771 2.01716 0.3423 0
M  V30 4030 H 390.781 3.265 2.44667 0
M  V30 4031 H 389.456 3.88785 1.47714 0
M  V30 4032 H 388.033 2.54648 2.72413 0
M  V30 4033 N 390.218 -0.567019 1.47046 0
M  V30 4034 C 391.464 -1.32658 1.53394 0
M  V30 4035 C 391.797 -1.93254 0.19148 0
M  V30 4036 O 391.072 -1.77338 -0.798844 0
M  V30 4037 C 391.355 -2.44412 2.64452 0
M  V30 4038 C 391.208 -1.88749 4.08282 0
M  V30 4039 C 392.527 -3.46387 2.71485 0
M  V30 4040 H 389.646 -0.48098 0.558415 0
M  V30 4041 H 392.288 -0.635481 1.79058 0
M  V30 4042 H 390.438 -3.03363 2.427 0
M  V30 4043 H 392.11 -1.34134 4.41368 0
M  V30 4044 H 390.353 -1.19481 4.17021 0
M  V30 4045 H 391.024 -2.69491 4.81745 0
M  V30 4046 H 393.5 -2.9734 2.91081 0
M  V30 4047 H 392.376 -4.2202 3.50985 0
M  V30 4048 H 392.637 -4.04616 1.78153 0
M  V30 4049 N 391.696 -1.35014 -0.812953 0
M  V30 4050 C 392.936 -1.29289 -1.58315 0
M  V30 4051 C 393.3 0.132727 -1.91541 0
M  V30 4052 O 394.501 0.314269 -2.66957 0
M  V30 4053 C 392.772 -2.1681 -2.84127 0
M  V30 4054 S 394.331 -2.28538 -3.74588 0
M  V30 4055 H 391.149 -0.459569 -0.542511 0
M  V30 4056 H 393.751 -1.70336 -0.959467 0
M  V30 4057 H 392.455 -3.19379 -2.57731 0
M  V30 4058 H 391.986 -1.76697 -3.51485 0
M  V30 4059 H 394.001 -1.4655 -4.74065 0
M  V30 4060 N 393.175 1.03435 -1.18907 0
M  V30 4061 C 394.403 1.80381 -1.01342 0
M  V30 4062 C 394.818 1.83649 0.438005 0
M  V30 4063 O 394.175 1.27655 1.30424 0
M  V30 4064 C 394.226 3.25689 -1.56873 0
M  V30 4065 O 393.947 3.22673 -2.96334 0
M  V30 4066 C 395.448 4.19255 -1.44014 0
M  V30 4067 H 392.668 0.56784 -0.35749 0
M  V30 4068 H 395.212 1.30317 -1.576 0
M  V30 4069 H 393.367 3.72962 -1.04777 0
M  V30 4070 H 393.781 4.13748 -3.22355 0
M  V30 4071 H 395.255 5.19123 -1.87657 0
M  V30 4072 H 395.732 4.37467 -0.389815 0
M  V30 4073 H 396.338 3.77851 -1.95214 0
M  V30 4074 N 394.653 0.992116 1.22453 0
M  V30 4075 C 395.899 0.668523 1.91464 0
M  V30 4076 C 396.232 -0.797313 1.77078 0
M  V30 4077 O 395.507 -1.5765 1.13916 0
M  V30 4078 C 395.79 1.07424 3.43703 0
M  V30 4079 C 395.643 2.59857 3.67143 0
M  V30 4080 C 396.962 0.626891 4.35612 0
M  V30 4081 H 394.081 0.244341 0.695318 0
M  V30 4082 H 396.723 1.2355 1.44345 0
M  V30 4083 H 394.873 0.591816 3.83966 0
M  V30 4084 H 396.545 3.15764 3.3629 0
M  V30 4085 H 394.788 3.01961 3.11451 0
M  V30 4086 H 395.459 2.83296 4.73759 0
M  V30 4087 H 397.935 1.04125 4.02861 0
M  V30 4088 H 396.811 0.939076 5.40807 0
M  V30 4089 H 397.072 -0.472457 4.39568 0
M  V30 4090 N 396.131 -1.37776 0.765217 0
M  V30 4091 C 397.408 -1.93975 0.251596 0
M  V30 4092 C 397.788 -1.69949 -1.25222 0
M  V30 4093 O 397.136 -1.04457 -2.03226 0
M  V30 4094 C 397.346 -3.43487 0.617895 0
M  V30 4095 C 398.694 -4.20564 0.584029 0
M  V30 4096 O 399.718 -3.5182 0.556888 0
M  V30 4097 O 398.577 -5.43138 0.605291 0
M  V30 4098 H 395.671 -0.82509 0.0561806 0
M  V30 4099 H 398.217 -1.47101 0.846128 0
M  V30 4100 H 396.989 -3.5453 1.65602 0
M  V30 4101 H 396.612 -3.976 -0.00403411 0
M  V30 4102 N 397.609 -0.515225 -1.4894 0
M  V30 4103 C 398.857 0.0241671 -2.02086 0
M  V30 4104 C 399.178 1.3616 -1.3959 0
M  V30 4105 O 398.448 1.87841 -0.556121 0
M  V30 4106 H 397.028 0.0119203 -0.746905 0
M  V30 4107 H 399.69 -0.675702 -1.82812 0
M  V30 4108 H 398.786 0.143385 -3.1177 0
M  V30 4109 N 399.087 1.5561 -0.249682 0
M  V30 4110 C 400.019 2.18834 0.681496 0
M  V30 4111 C 401.032 1.16546 1.1367 0
M  V30 4112 O 402.221 1.43397 1.06299 0
M  V30 4113 C 399.321 2.77992 1.9384 0
M  V30 4114 C 398.494 4.05725 1.63419 0
M  V30 4115 C 397.553 4.49174 2.74096 0
M  V30 4116 O 396.579 5.15492 2.41364 0
M  V30 4117 N 397.781 4.17191 4.03649 0
M  V30 4118 H 400.546 2.9937 0.140514 0
M  V30 4119 H 398.107 1.6175 -0.0697541 0
M  V30 4120 H 400.099 3.04015 2.67127 0
M  V30 4121 H 398.669 2.01596 2.38909 0
M  V30 4122 H 397.889 3.87261 0.736358 0
M  V30 4123 H 399.177 4.88999 1.40562 0
M  V30 4124 H 398.575 3.63955 4.33074 0
M  V30 4125 H 397.132 4.48043 4.73393 0
M  V30 4126 N 400.565 -0.0233959 1.57583 0
M  V30 4127 C 401.981 -0.379134 1.55031 0
M  V30 4128 C 402.181 -1.76255 0.976548 0
M  V30 4129 O 401.237 -2.45266 0.600078 0
M  V30 4130 C 402.55 -0.275792 2.99433 0
M  V30 4131 C 404.098 -0.352458 3.11009 0
M  V30 4132 C 404.573 -0.278501 4.57152 0
M  V30 4133 N 406.064 -0.337123 4.61972 0
M  V30 4134 C 406.799 -0.302876 5.726 0
M  V30 4135 N 406.295 -0.220589 6.92449 0
M  V30 4136 N 408.088 -0.353023 5.6099 0
M  V30 4137 H 400.239 0.881869 1.93227 0
M  V30 4138 H 402.502 0.335867 0.886509 0
M  V30 4139 H 402.208 0.675108 3.4516 0
M  V30 4140 H 402.082 -1.06721 3.61788 0
M  V30 4141 H 404.469 -1.29379 2.65226 0
M  V30 4142 H 404.55 0.468409 2.51475 0
M  V30 4143 H 404.194 0.659189 5.03604 0
M  V30 4144 H 404.124 -1.11755 5.14605 0
M  V30 4145 H 406.615 -0.403002 3.75745 0
M  V30 4146 H 406.928 -0.199713 7.72542 0
M  V30 4147 H 405.273 -0.186555 6.9475 0
M  V30 4148 H 408.464 -0.415339 4.66254 0
M  V30 4149 H 408.637 -0.322866 6.47195 0
M  V30 4150 N 402.043 -1.548 -0.295768 0
M  V30 4151 C 402.993 -1.82497 -1.3667 0
M  V30 4152 C 403.977 -0.682434 -1.45711 0
M  V30 4153 O 405.169 -0.943207 -1.49775 0
M  V30 4154 C 402.298 -2.08036 -2.73086 0
M  V30 4155 C 401.384 -3.28488 -2.68247 0
M  V30 4156 N 401.775 -4.48924 -2.33025 0
M  V30 4157 C 400.073 -3.3062 -2.99343 0
M  V30 4158 C 400.774 -5.30956 -2.37613 0
M  V30 4159 N 399.75 -4.68805 -2.75178 0
M  V30 4160 H 403.552 -2.73175 -1.0841 0
M  V30 4161 H 401.066 -1.5437 -0.504361 0
M  V30 4162 H 403.063 -2.26027 -3.5031 0
M  V30 4163 H 401.723 -1.18629 -3.02254 0
M  V30 4164 H 402.734 -4.75432 -2.05389 0
M  V30 4165 H 399.411 -2.51336 -3.33371 0
M  V30 4166 H 400.801 -6.37199 -2.13135 0
M  V30 4167 N 403.521 0.559213 -1.47345 0
M  V30 4168 C 404.746 1.34676 -1.57725 0
M  V30 4169 C 405.171 1.86723 -0.227164 0
M  V30 4170 O 404.529 1.6286 0.796642 0
M  V30 4171 C 404.577 2.49399 -2.60447 0
M  V30 4172 O 403.681 3.51567 -2.15578 0
M  V30 4173 H 403.022 0.400115 -0.52991 0
M  V30 4174 H 405.552 0.676009 -1.93109 0
M  V30 4175 H 405.562 2.95996 -2.80803 0
M  V30 4176 H 404.237 2.10873 -3.58477 0
M  V30 4177 H 402.814 3.11289 -2.05313 0
M  V30 4178 N 404.999 1.35443 0.805782 0
M  V30 4179 C 406.227 1.31878 1.59423 0
M  V30 4180 C 406.642 -0.103562 1.88516 0
M  V30 4181 O 405.999 -1.05575 1.48863 0
M  V30 4182 C 406.05 2.12426 2.92502 0
M  V30 4183 O 405.771 3.49115 2.6467 0
M  V30 4184 C 407.272 2.16455 3.86862 0
M  V30 4185 H 404.492 0.453002 0.495005 0
M  V30 4186 H 407.036 1.78309 1.00131 0
M  V30 4187 H 405.191 1.69593 3.48306 0
M  V30 4188 H 405.605 3.90957 3.49647 0
M  V30 4189 H 407.079 2.77204 4.77349 0
M  V30 4190 H 407.556 1.16352 4.23508 0
M  V30 4191 H 408.162 2.59453 3.36993 0
M  V30 4192 N 406.477 -1.02803 1.19454 0
M  V30 4193 C 407.725 -1.75869 0.995722 0
M  V30 4194 C 408.046 -1.89138 -0.474543 0
M  V30 4195 O 407.316 -1.42558 -1.34366 0
M  V30 4196 H 405.896 -0.651511 0.365435 0
M  V30 4197 H 408.558 -1.24004 1.50363 0
M  V30 4198 H 407.654 -2.76661 1.44447 0
M  V30 4199 N 407.956 -0.998596 -1.21925 0
M  V30 4200 C 409.233 -0.593401 -1.86382 0
M  V30 4201 C 409.613 0.92916 -1.89552 0
M  V30 4202 O 408.961 1.81347 -1.39017 0
M  V30 4203 C 409.171 -1.22039 -3.26967 0
M  V30 4204 C 410.519 -1.32449 -4.03413 0
M  V30 4205 O 411.543 -1.17522 -3.36254 0
M  V30 4206 O 410.402 -1.56395 -5.23644 0
M  V30 4207 H 407.496 -0.202385 -0.801854 0
M  V30 4208 H 410.042 -1.09484 -1.29659 0
M  V30 4209 H 408.814 -2.26158 -3.19325 0
M  V30 4210 H 408.437 -0.704906 -3.91301 0
M  V30 4211 N 409.434 1.37368 -0.772513 0
M  V30 4212 C 410.662 2.03942 -0.348588 0
M  V30 4213 C 411.077 1.58264 1.02947 0
M  V30 4214 O 410.434 0.764246 1.65727 0
M  V30 4215 C 410.485 3.5946 -0.38351 0
M  V30 4216 O 410.206 4.03468 -1.70721 0
M  V30 4217 C 411.707 4.4327 0.0519152 0
M  V30 4218 H 408.927 0.654931 -0.145966 0
M  V30 4219 H 411.471 1.75686 -1.04665 0
M  V30 4220 H 409.626 3.86486 0.265978 0
M  V30 4221 H 410.04 4.97991 -1.64636 0
M  V30 4222 H 411.514 5.51995 -0.0236733 0
M  V30 4223 H 411.991 4.2514 1.10238 0
M  V30 4224 H 412.597 4.21471 -0.569415 0
M  V30 4225 N 410.912 0.523116 1.48665 0
M  V30 4226 C 411.859 -0.243398 2.29513 0
M  V30 4227 C 412.829 -0.940139 1.36933 0
M  V30 4228 O 414.014 -0.942503 1.65896 0
M  V30 4229 C 411.154 -1.28855 3.20141 0
M  V30 4230 C 410.267 -0.60135 4.27794 0
M  V30 4231 C 409.402 -1.62884 5.05611 0
M  V30 4232 C 408.441 -0.924726 6.05075 0
M  V30 4233 N 407.578 -1.89744 6.75975 0
M  V30 4234 H 412.418 0.452234 2.94549 0
M  V30 4235 H 409.955 0.234858 1.45213 0
M  V30 4236 H 411.913 -1.90674 3.71079 0
M  V30 4237 H 410.543 -1.95266 2.57043 0
M  V30 4238 H 409.595 0.130623 3.80176 0
M  V30 4239 H 410.907 -0.0481585 4.98777 0
M  V30 4240 H 410.061 -2.32149 5.60528 0
M  V30 4241 H 408.8 -2.21592 4.34452 0
M  V30 4242 H 407.805 -0.217966 5.49368 0
M  V30 4243 H 409.03 -0.343851 6.78229 0
M  V30 4244 H 406.976 -2.47373 6.07571 0
M  V30 4245 H 406.893 -1.3955 7.43009 0
M  V30 4246 H 408.161 -2.58229 7.35485 0
M  V30 4247 N 412.39 -1.55475 0.257931 0
M  V30 4248 C 413.636 -1.99502 -0.364266 0
M  V30 4249 C 413.969 -1.146 -1.56782 0
M  V30 4250 O 413.244 -0.211968 -1.93342 0
M  V30 4251 C 413.527 -3.51917 -0.763333 0
M  V30 4252 C 413.38 -4.4758 0.446371 0
M  V30 4253 C 414.699 -4.09742 -1.60623 0
M  V30 4254 H 411.818 -0.725277 -0.130929 0
M  V30 4255 H 414.46 -1.8653 0.361446 0
M  V30 4256 H 412.61 -3.63101 -1.38166 0
M  V30 4257 H 414.282 -4.48362 1.08487 0
M  V30 4258 H 412.525 -4.19947 1.08753 0
M  V30 4259 H 413.196 -5.51862 0.123645 0
M  V30 4260 H 415.672 -4.01727 -1.08418 0
M  V30 4261 H 414.548 -5.16631 -1.85429 0
M  V30 4262 H 414.809 -3.58889 -2.58169 0
M  V30 4263 N 413.868 0.0150385 -1.57593 0
M  V30 4264 C 415.279 0.559832 -1.78109 0
M  V30 4265 C 415.63 1.74814 -0.890756 0
M  V30 4266 O 414.755 2.16216 -0.0892482 0
M  V30 4267 C 415.35 1.02238 -3.23006 0
M  V30 4268 C 413.909 1.51258 -3.44671 0
M  V30 4269 C 413.056 0.456955 -2.73509 0
M  V30 4270 H 416.007 -0.211169 -1.57289 0
M  V30 4271 H 416.028 1.88912 -3.30292 0
M  V30 4272 H 415.54 0.157302 -3.87781 0
M  V30 4273 H 413.641 2.39905 -2.8509 0
M  V30 4274 H 413.754 1.55042 -4.5332 0
M  V30 4275 H 412.118 0.915196 -2.37689 0
M  V30 4276 H 412.901 -0.398896 -3.40975 0
M  V30 4277 N 415.346 1.54954 0.287554 0
M  V30 4278 C 416.593 1.74873 1.02106 0
M  V30 4279 C 416.921 0.541829 1.86801 0
M  V30 4280 O 416.176 -0.475992 1.89823 0
M  V30 4281 C 416.475 2.99833 1.94512 0
M  V30 4282 C 416.141 4.33029 1.25686 0
M  V30 4283 C 414.803 4.69233 1.06649 0
M  V30 4284 C 417.155 5.15542 0.765913 0
M  V30 4285 C 414.483 5.85518 0.372222 0
M  V30 4286 C 416.835 6.32542 0.0853101 0
M  V30 4287 C 415.499 6.67398 -0.1169 0
M  V30 4288 H 414.769 0.639906 0.373632 0
M  V30 4289 H 417.416 1.89219 0.294665 0
M  V30 4290 H 415.721 2.80325 2.73725 0
M  V30 4291 H 417.418 3.1244 2.51361 0
M  V30 4292 H 414.008 4.04564 1.41512 0
M  V30 4293 H 418.192 4.88059 0.90066 0
M  V30 4294 H 413.448 6.11057 0.204695 0
M  V30 4295 H 417.622 6.95741 -0.302936 0
M  V30 4296 H 415.249 7.57357 -0.656859 0
M  V30 4297 N 416.824 -0.551391 1.4764 0
M  V30 4298 C 418.064 -1.31901 1.56145 0
M  V30 4299 C 418.428 -1.90724 0.221013 0
M  V30 4300 O 419.629 -2.6819 0.180945 0
M  V30 4301 C 417.9 -2.39517 2.65267 0
M  V30 4302 S 419.459 -3.26289 2.93395 0
M  V30 4303 H 416.277 -0.448965 0.551318 0
M  V30 4304 H 418.879 -0.630599 1.85051 0
M  V30 4305 H 417.583 -1.94747 3.6125 0
M  V30 4306 H 417.114 -3.13092 2.38195 0
M  V30 4307 H 419.129 -4.39122 2.31055 0
M  V30 4308 N 418.302 -1.35869 -0.798587 0
M  V30 4309 C 419.232 -1.32118 -1.92528 0
M  V30 4310 C 420.213 -0.194209 -1.68988 0
M  V30 4311 O 421.398 -0.390426 -1.90235 0
M  V30 4312 C 418.528 -1.10047 -3.29404 0
M  V30 4313 C 417.482 -2.19471 -3.67446 0
M  V30 4314 C 416.808 -1.82555 -5.02571 0
M  V30 4315 C 418.108 -3.61495 -3.76987 0
M  V30 4316 H 419.802 -2.26394 -1.95924 0
M  V30 4317 H 417.348 -1.08981 -0.94123 0
M  V30 4318 H 419.301 -1.06061 -4.07835 0
M  V30 4319 H 418.025 -0.122195 -3.26371 0
M  V30 4320 H 416.684 -2.22568 -2.91306 0
M  V30 4321 H 416.332 -0.833249 -4.9605 0
M  V30 4322 H 416.032 -2.5581 -5.28995 0
M  V30 4323 H 417.556 -1.80108 -5.83432 0
M  V30 4324 H 418.97 -3.60676 -4.4563 0
M  V30 4325 H 417.367 -4.33577 -4.14887 0
M  V30 4326 H 418.437 -3.97065 -2.78329 0
M  V30 4327 N 419.78 1.02168 -1.19998 0
M  V30 4328 C 420.712 2.10705 -0.901994 0
M  V30 4329 C 421.725 1.6244 0.108216 0
M  V30 4330 O 422.914 1.78082 -0.12214 0
M  V30 4331 C 420.014 3.37291 -0.329834 0
M  V30 4332 C 419.187 4.14714 -1.39035 0
M  V30 4333 C 418.246 5.19606 -0.830432 0
M  V30 4334 O 417.272 5.48809 -1.50989 0
M  V30 4335 N 418.474 5.79366 0.362696 0
M  V30 4336 H 421.239 2.36856 -1.83628 0
M  V30 4337 H 418.8 1.18518 -1.10296 0
M  V30 4338 H 420.792 4.04657 0.0587633 0
M  V30 4339 H 419.362 3.0843 0.508891 0
M  V30 4340 H 418.582 3.42392 -1.9535 0
M  V30 4341 H 419.87 4.63226 -2.10474 0
M  V30 4342 H 419.268 5.57968 0.932081 0
M  V30 4343 H 417.825 6.48106 0.69299 0
M  V30 4344 N 421.258 1.00505 1.21394 0
M  V30 4345 C 422.483 0.706367 1.95001 0
M  V30 4346 C 422.908 -0.72463 1.73582 0
M  V30 4347 O 422.266 -1.49702 1.0227 0
M  V30 4348 C 422.314 1.03299 3.45487 0
M  V30 4349 O 421.418 0.138275 4.12168 0
M  V30 4350 H 420.759 0.263175 0.609619 0
M  V30 4351 H 423.289 1.34531 1.54151 0
M  V30 4352 H 423.299 0.979872 3.96059 0
M  V30 4353 H 421.974 2.07567 3.60401 0
M  V30 4354 H 420.551 0.247928 3.72075 0
M  V30 4355 N 422.737 -1.36956 0.779787 0
M  V30 4356 C 423.977 -2.01328 0.353043 0
M  V30 4357 C 424.341 -1.60558 -1.05286 0
M  V30 4358 O 425.542 -2.1745 -1.58016 0
M  V30 4359 C 423.813 -3.53874 0.500822 0
M  V30 4360 S 425.372 -4.38506 0.16053 0
M  V30 4361 H 422.19 -0.69799 0.13539 0
M  V30 4362 H 424.792 -1.67016 1.01617 0
M  V30 4363 H 423.496 -3.81034 1.52451 0
M  V30 4364 H 423.027 -3.92994 -0.178574 0
M  V30 4365 H 425.042 -4.85153 -1.04121 0
M  V30 4366 N 424.215 -0.530993 -1.48385 0
M  V30 4367 C 425.461 0.00274135 -2.028 0
M  V30 4368 C 425.794 1.33838 -1.40716 0
M  V30 4369 O 425.069 1.86465 -0.553277 0
M  V30 4370 C 425.352 0.123676 -3.59888 0
M  V30 4371 C 425.205 -1.2372 -4.3245 0
M  V30 4372 C 426.524 0.849967 -4.31814 0
M  V30 4373 H 423.643 -0.000477758 -0.737 0
M  V30 4374 H 426.285 -0.688217 -1.77098 0
M  V30 4375 H 424.435 0.712157 -3.81917 0
M  V30 4376 H 426.107 -1.86687 -4.21836 0
M  V30 4377 H 424.35 -1.81882 -3.93829 0
M  V30 4378 H 425.021 -1.10557 -5.40815 0
M  V30 4379 H 427.497 0.350572 -4.14621 0
M  V30 4380 H 426.373 0.903486 -5.41413 0
M  V30 4381 H 426.634 1.90047 -3.99167 0
M  V30 4382 N 425.693 1.55336 -0.266172 0
M  V30 4383 C 426.64 2.22172 0.625165 0
M  V30 4384 C 427.61 1.19211 1.15663 0
M  V30 4385 O 428.795 1.47723 1.20758 0
M  V30 4386 C 425.935 2.93972 1.8076 0
M  V30 4387 C 425.048 4.11632 1.31084 0
M  V30 4388 C 424.183 4.71099 2.45436 0
M  V30 4389 C 423.222 5.8097 1.92718 0
M  V30 4390 N 422.359 6.34538 3.00509 0
M  V30 4391 H 427.199 2.9796 0.0485582 0
M  V30 4392 H 424.736 1.47095 0.0122024 0
M  V30 4393 H 426.694 3.33811 2.50251 0
M  V30 4394 H 425.324 2.20623 2.35638 0
M  V30 4395 H 424.376 3.76975 0.509326 0
M  V30 4396 H 425.688 4.90893 0.884633 0
M  V30 4397 H 424.842 5.13612 3.22936 0
M  V30 4398 H 423.581 3.91096 2.91368 0
M  V30 4399 H 422.586 5.37916 1.13695 0
M  V30 4400 H 423.811 6.62836 1.47733 0
M  V30 4401 H 421.757 5.57433 3.45839 0
M  V30 4402 H 421.674 7.09046 2.62279 0
M  V30 4403 H 422.942 6.81709 3.78011 0
M  V30 4404 N 427.171 -0.0066808 1.57599 0
M  V30 4405 C 428.582 -0.550379 1.78403 0
M  V30 4406 C 428.933 -1.74339 0.900014 0
M  V30 4407 O 428.058 -2.16166 0.100713 0
M  V30 4408 C 428.653 -1.00523 3.23544 0
M  V30 4409 C 427.212 -1.49428 3.45468 0
M  V30 4410 C 426.359 -0.442444 2.73748 0
M  V30 4411 H 429.31 0.219508 1.57175 0
M  V30 4412 H 429.331 -1.87157 3.31289 0
M  V30 4413 H 428.843 -0.136735 3.87859 0
M  V30 4414 H 426.944 -2.3839 2.86358 0
M  V30 4415 H 427.057 -1.52635 4.54136 0
M  V30 4416 H 425.421 -0.902578 2.38171 0
M  V30 4417 H 426.204 0.416973 3.40758 0
M  V30 4418 N 428.649 -1.55105 -0.279332 0
M  V30 4419 C 429.579 -1.90557 -1.34945 0
M  V30 4420 C 430.56 -0.766738 -1.51839 0
M  V30 4421 O 431.745 -1.02434 -1.64988 0
M  V30 4422 C 428.875 -2.17193 -2.71006 0
M  V30 4423 C 427.829 -3.33021 -2.68851 0
M  V30 4424 C 427.155 -3.45123 -4.08405 0
M  V30 4425 C 428.455 -4.69578 -2.28678 0
M  V30 4426 H 430.149 -2.80188 -1.05522 0
M  V30 4427 H 427.695 -1.34811 -0.506173 0
M  V30 4428 H 429.648 -2.40581 -3.45975 0
M  V30 4429 H 428.372 -1.24355 -3.01999 0
M  V30 4430 H 427.031 -3.0959 -1.9634 0
M  V30 4431 H 426.679 -2.49762 -4.3661 0
M  V30 4432 H 426.379 -4.22995 -4.07859 0
M  V30 4433 H 427.903 -3.70796 -4.85121 0
M  V30 4434 H 429.317 -4.92553 -2.93368 0
M  V30 4435 H 427.714 -5.5032 -2.39306 0
M  V30 4436 H 428.784 -4.68828 -1.23807 0
M  V30 4437 N 430.127 0.543554 -1.4793 0
M  V30 4438 C 431.074 1.64942 -1.6144 0
M  V30 4439 C 432.044 1.59692 -0.456903 0
M  V30 4440 O 433.229 1.78321 -0.678688 0
M  V30 4441 C 430.369 3.03238 -1.64744 0
M  V30 4442 C 429.482 3.18823 -2.91506 0
M  V30 4443 C 428.617 4.47599 -2.86057 0
M  V30 4444 C 427.656 4.56664 -4.07584 0
M  V30 4445 N 426.793 5.76811 -4.00292 0
M  V30 4446 H 431.633 1.52733 -2.55884 0
M  V30 4447 H 429.17 0.7438 -1.2691 0
M  V30 4448 H 431.128 3.83339 -1.64641 0
M  V30 4449 H 429.758 3.1425 -0.738017 0
M  V30 4450 H 428.81 2.32064 -3.01414 0
M  V30 4451 H 430.122 3.21384 -3.81463 0
M  V30 4452 H 429.276 5.35975 -2.84281 0
M  V30 4453 H 428.015 4.47538 -1.93807 0
M  V30 4454 H 427.02 3.66697 -4.09651 0
M  V30 4455 H 428.245 4.58474 -5.00978 0
M  V30 4456 H 426.191 5.77673 -3.10853 0
M  V30 4457 H 426.108 5.80808 -4.8394 0
M  V30 4458 H 427.376 6.67512 -4.02553 0
M  V30 4459 N 431.605 1.3629 0.791371 0
M  V30 4460 C 432.835 1.33368 1.57786 0
M  V30 4461 C 433.243 -0.0875188 1.88997 0
M  V30 4462 O 432.586 -1.05427 1.50435 0
M  V30 4463 C 432.648 2.08802 2.92646 0
M  V30 4464 C 432.312 3.57903 2.84174 0
M  V30 4465 C 433.309 4.52191 2.56553 0
M  V30 4466 C 430.994 4.00762 3.02812 0
M  V30 4467 C 432.988 5.87315 2.47669 0
M  V30 4468 C 430.675 5.35977 2.93551 0
M  V30 4469 C 431.673 6.29066 2.66017 0
M  V30 4470 O 431.361 7.61798 2.56746 0
M  V30 4471 H 431.093 0.459166 0.496128 0
M  V30 4472 H 433.647 1.79952 0.990269 0
M  V30 4473 H 431.877 1.56878 3.53449 0
M  V30 4474 H 433.566 1.98762 3.53904 0
M  V30 4475 H 434.332 4.20393 2.41858 0
M  V30 4476 H 430.211 3.2868 3.2325 0
M  V30 4477 H 433.755 6.59943 2.26099 0
M  V30 4478 H 429.652 5.67384 3.07808 0
M  V30 4479 H 430.42 7.71898 2.72242 0
M  V30 4480 N 433.083 -1.0153 1.20538 0
M  V30 4481 C 434.046 -2.0826 0.957098 0
M  V30 4482 C 435.046 -1.60657 -0.0678655 0
M  V30 4483 O 436.236 -1.73385 0.168332 0
M  V30 4484 C 433.368 -3.38033 0.441188 0
M  V30 4485 H 434.561 -2.31719 1.90384 0
M  V30 4486 H 432.114 -1.1835 1.02093 0
M  V30 4487 H 432.849 -3.20249 -0.510961 0
M  V30 4488 H 432.634 -3.73911 1.18038 0
M  V30 4489 H 434.124 -4.16613 0.287009 0
M  V30 4490 N 434.561 -1.01147 -1.20859 0
M  V30 4491 C 435.81 -0.693214 -1.89413 0
M  V30 4492 C 436.123 0.779969 -1.79376 0
M  V30 4493 O 437.329 1.21057 -2.43017 0
M  V30 4494 C 435.785 -1.18949 -3.39675 0
M  V30 4495 C 435.393 -2.68921 -3.58309 0
M  V30 4496 C 437.137 -0.94642 -4.13815 0
M  V30 4497 C 435.044 -3.12056 -5.0237 0
M  V30 4498 H 433.974 -0.255595 -0.709357 0
M  V30 4499 H 436.625 -1.22349 -1.36759 0
M  V30 4500 H 435.007 -0.587228 -3.91622 0
M  V30 4501 H 436.181 -3.34652 -3.16772 0
M  V30 4502 H 434.496 -2.91314 -2.97532 0
M  V30 4503 H 437.093 -1.24417 -5.20023 0
M  V30 4504 H 437.436 0.117219 -4.16135 0
M  V30 4505 H 437.969 -1.5118 -3.67953 0
M  V30 4506 H 434.708 -4.17674 -5.05202 0
M  V30 4507 H 434.228 -2.51041 -5.44737 0
M  V30 4508 H 435.907 -3.04403 -5.70918 0
M  V30 4509 N 436.039 1.36541 -0.78704 0
M  V30 4510 C 437.002 2.28413 -0.189778 0
M  V30 4511 C 438.002 1.48719 0.611499 0
M  V30 4512 O 439.192 1.68737 0.432842 0
M  V30 4513 C 436.324 3.32824 0.737638 0
M  V30 4514 H 437.517 2.82743 -0.999831 0
M  V30 4515 H 435.07 1.46065 -0.556298 0
M  V30 4516 H 435.805 2.83646 1.57212 0
M  V30 4517 H 435.59 3.91752 0.165044 0
M  V30 4518 H 437.08 4.0144 1.15047 0
M  V30 4519 N 437.518 0.538854 1.48102 0
M  V30 4520 C 438.764 0.00801365 2.02798 0
M  V30 4521 C 439.097 -1.3309 1.41424 0
M  V30 4522 O 438.372 -1.86169 0.563158 0
M  V30 4523 C 438.655 -0.104589 3.59948 0
M  V30 4524 C 438.508 1.26012 4.31788 0
M  V30 4525 C 439.827 -0.827055 4.32259 0
M  V30 4526 H 436.946 0.00438624 0.736987 0
M  V30 4527 H 439.588 0.6976 1.7673 0
M  V30 4528 H 437.738 -0.691893 3.82289 0
M  V30 4529 H 439.41 1.88922 4.2084 0
M  V30 4530 H 437.653 1.83968 3.92859 0
M  V30 4531 H 438.324 1.13424 5.40221 0
M  V30 4532 H 440.8 -0.328578 4.14801 0
M  V30 4533 H 439.676 -0.87476 5.41885 0
M  V30 4534 H 439.937 -1.87927 4.0017 0
M  V30 4535 N 438.996 -1.55193 0.274407 0
M  V30 4536 C 439.944 -2.23924 -0.629362 0
M  V30 4537 C 440.938 -1.23602 -1.1584 0
M  V30 4538 O 442.144 -1.41535 -1.11211 0
M  V30 4539 H 438.519 -0.718637 -0.221507 0
M  V30 4540 H 440.49 -2.98388 -0.0268322 0
M  V30 4541 C 439.239 -2.97329 -1.80252 0
M  V30 4542 H 438.562 -3.74313 -1.40462 0
M  V30 4543 H 440.002 -3.48743 -2.41152 0
M  V30 4544 C 438.461 -2.0276 -2.69054 0
M  V30 4545 O 438.991 -1.57836 -3.69392 0
M  V30 4546 N 437.197 -1.69275 -2.36208 0
M  V30 4547 H 436.744 -2.06004 -1.54661 0
M  V30 4548 H 436.702 -1.06271 -2.95895 0
M  V30 4549 N 440.474 -0.00167713 -1.576 0
M  V30 4550 C 441.751 0.719951 -1.81868 0
M  V30 4551 C 442.131 1.91895 -0.879747 0
M  V30 4552 O 441.479 2.28389 0.0711423 0
M  V30 4553 C 441.689 1.12409 -3.30402 0
M  V30 4554 C 443.037 1.52724 -3.96182 0
M  V30 4555 O 444.061 1.21784 -3.34734 0
M  V30 4556 O 442.92 2.10265 -5.04431 0
M  V30 4557 H 440.014 0.350707 -0.748955 0
M  V30 4558 H 442.56 -0.0272597 -1.69678 0
M  V30 4559 H 441.332 0.269532 -3.90371 0
M  V30 4560 H 440.955 1.93035 -3.47596 0
M  V30 4561 N 441.952 1.55251 0.271103 0
M  V30 4562 C 442.882 1.9127 1.33933 0
M  V30 4563 C 443.863 0.77478 1.5143 0
M  V30 4564 O 445.048 1.03307 1.64442 0
M  V30 4565 C 442.178 2.18627 2.69851 0
M  V30 4566 C 441.132 3.34442 2.67081 0
M  V30 4567 C 440.458 3.47284 4.06569 0
M  V30 4568 C 441.758 4.70784 2.26185 0
M  V30 4569 H 443.452 2.80744 1.04035 0
M  V30 4570 H 440.998 1.35077 0.499017 0
M  V30 4571 H 442.951 2.42413 3.44694 0
M  V30 4572 H 441.675 1.25955 3.01335 0
M  V30 4573 H 440.334 3.10627 1.94695 0
M  V30 4574 H 439.982 2.52074 4.35279 0
M  V30 4575 H 439.682 4.25152 4.0561 0
M  V30 4576 H 441.206 3.73363 4.83148 0
M  V30 4577 H 442.62 4.94102 2.90751 0
M  V30 4578 H 441.017 5.51582 2.36384 0
M  V30 4579 H 442.087 4.69478 1.21319 0
M  V30 4580 N 443.43 -0.535701 1.48216 0
M  V30 4581 C 444.678 -1.28928 1.55634 0
M  V30 4582 C 444.999 -1.93645 0.229514 0
M  V30 4583 O 444.269 -1.81038 -0.74846 0
M  V30 4584 H 442.849 -0.47884 0.573342 0
M  V30 4585 H 445.511 -0.623853 1.84646 0
M  V30 4586 H 444.607 -2.07157 2.33436 0
M  V30 4587 N 444.908 -1.36708 -0.784132 0
M  V30 4588 C 446.136 -1.34398 -1.57305 0
M  V30 4589 C 446.551 0.0735577 -1.88657 0
M  V30 4590 O 445.908 1.03193 -1.50524 0
M  V30 4591 C 445.959 -2.17053 -2.89085 0
M  V30 4592 O 445.68 -3.53281 -2.59083 0
M  V30 4593 C 447.181 -2.22583 -3.83369 0
M  V30 4594 H 444.401 -0.460819 -0.487736 0
M  V30 4595 H 446.945 -1.79879 -0.972819 0
M  V30 4596 H 445.1 -1.75113 -3.45564 0
M  V30 4597 H 445.514 -3.9647 -3.43383 0
M  V30 4598 H 446.988 -2.84763 -4.72878 0
M  V30 4599 H 447.465 -1.23075 -4.21603 0
M  V30 4600 H 448.071 -2.64781 -3.32823 0
M  V30 4601 N 446.386 1.0089 -1.21074 0
M  V30 4602 C 447.296 2.13039 -0.982425 0
M  V30 4603 C 448.312 1.73881 0.0642161 0
M  V30 4604 O 449.488 2.01012 -0.12496 0
M  V30 4605 C 446.553 3.42377 -0.545803 0
M  V30 4606 C 445.614 3.95731 -1.6642 0
M  V30 4607 C 444.847 5.18896 -1.24832 0
M  V30 4608 O 445.07 5.70273 -0.120265 0
M  V30 4609 O 444.004 5.65597 -2.05873 0
M  V30 4610 H 447.83 2.35175 -1.92163 0
M  V30 4611 H 445.415 1.1142 -0.995285 0
M  V30 4612 H 447.297 4.20244 -0.311912 0
M  V30 4613 H 445.972 3.21639 0.364727 0
M  V30 4614 H 444.879 3.19108 -1.95246 0
M  V30 4615 H 446.212 4.20872 -2.55201 0
M  V30 4616 N 447.864 1.01787 1.20321 0
M  V30 4617 C 449.094 0.72614 1.93419 0
M  V30 4618 C 449.502 -0.717317 1.75075 0
M  V30 4619 O 448.845 -1.49836 1.06278 0
M  V30 4620 C 448.907 0.983621 3.45782 0
M  V30 4621 C 448.571 2.41645 3.87888 0
M  V30 4622 C 449.568 3.39732 3.93545 0
M  V30 4623 C 447.253 2.75752 4.19841 0
M  V30 4624 C 449.247 4.69988 4.30569 0
M  V30 4625 C 446.934 4.06221 4.56539 0
M  V30 4626 C 447.932 5.0315 4.61876 0
M  V30 4627 O 447.62 6.31284 4.97731 0
M  V30 4628 H 447.352 0.265824 0.621541 0
M  V30 4629 H 449.906 1.3623 1.53722 0
M  V30 4630 H 448.136 0.290301 3.85609 0
M  V30 4631 H 449.825 0.683279 4.00108 0
M  V30 4632 H 450.591 3.14718 3.69022 0
M  V30 4633 H 446.47 2.00993 4.14877 0
M  V30 4634 H 450.014 5.45642 4.3465 0
M  V30 4635 H 445.911 4.31013 4.80518 0
M  V30 4636 H 446.679 6.35591 5.15719 0
M  V30 4637 N 449.342 -1.36122 0.79427 0
M  V30 4638 C 450.588 -1.99406 0.369452 0
M  V30 4639 C 450.921 -1.62886 -1.05743 0
M  V30 4640 O 450.196 -0.886053 -1.73145 0
M  V30 4641 C 450.479 -3.56046 0.538833 0
M  V30 4642 C 450.332 -4.02404 2.00976 0
M  V30 4643 C 451.651 -4.40079 -0.0431359 0
M  V30 4644 H 448.77 -0.724397 0.135712 0
M  V30 4645 H 451.412 -1.61461 1.00151 0
M  V30 4646 H 449.562 -3.885 0.000771004 0
M  V30 4647 H 451.234 -3.80415 2.60926 0
M  V30 4648 H 449.477 -3.53765 2.51063 0
M  V30 4649 H 450.148 -5.11344 2.07922 0
M  V30 4650 H 452.624 -4.14013 0.416228 0
M  V30 4651 H 451.5 -5.48799 0.105374 0
M  V30 4652 H 451.761 -4.27264 -1.13571 0
M  V30 4653 N 450.82 -0.546701 -1.47814 0
M  V30 4654 C 451.77 0.227042 -2.26867 0
M  V30 4655 C 452.754 0.894844 -1.33721 0
M  V30 4656 O 453.946 0.794887 -1.58147 0
M  V30 4657 C 451.075 1.26299 -3.19223 0
M  V30 4658 C 450.161 0.59913 -4.19847 0
M  V30 4659 N 450.552 -0.324777 -5.04756 0
M  V30 4660 C 448.85 0.854331 -4.37741 0
M  V30 4661 C 449.551 -0.709386 -5.77358 0
M  V30 4662 N 448.527 -0.0666153 -5.43559 0
M  V30 4663 H 452.329 -0.483476 -2.89896 0
M  V30 4664 H 449.843 -0.365893 -1.58224 0
M  V30 4665 H 451.84 1.83116 -3.74532 0
M  V30 4666 H 450.5 1.97471 -2.57751 0
M  V30 4667 H 451.511 -0.698351 -5.1317 0
M  V30 4668 H 448.188 1.55536 -3.87447 0
M  V30 4669 H 449.578 -1.46796 -6.55668 0
M  V30 4670 N 452.299 1.55045 -0.282633 0
M  V30 4671 C 453.715 1.59441 0.0712997 0
M  V30 4672 C 453.915 1.2998 1.53972 0
M  V30 4673 O 452.971 1.06431 2.28973 0
M  V30 4674 C 454.284 2.99097 -0.310104 0
M  V30 4675 C 455.832 3.1194 -0.257343 0
M  V30 4676 C 456.307 4.53875 -0.613297 0
M  V30 4677 N 457.798 4.5974 -0.565134 0
M  V30 4678 C 458.533 5.67603 -0.81326 0
M  V30 4679 N 458.029 6.83582 -1.1264 0
M  V30 4680 N 459.822 5.57187 -0.741553 0
M  V30 4681 H 451.973 1.72458 -1.23984 0
M  V30 4682 H 454.236 0.804549 -0.501403 0
M  V30 4683 H 453.942 3.25516 -1.33163 0
M  V30 4684 H 453.816 3.75616 0.345366 0
M  V30 4685 H 456.203 2.85281 0.754905 0
M  V30 4686 H 456.284 2.37618 -0.947178 0
M  V30 4687 H 455.928 4.81261 -1.62327 0
M  V30 4688 H 455.858 5.26508 0.09841 0
M  V30 4689 H 458.349 3.76427 -0.333294 0
M  V30 4690 H 458.662 7.6175 -1.30219 0
M  V30 4691 H 457.007 6.85179 -1.16425 0
M  V30 4692 H 460.198 4.65457 -0.496705 0
M  V30 4693 H 460.371 6.41171 -0.938306 0
M  V30 4694 N 453.777 0.010035 1.57597 0
M  V30 4695 C 455.007 -0.682422 1.95004 0
M  V30 4696 C 455.415 -1.67278 0.884014 0
M  V30 4697 O 454.758 -1.83129 -0.144672 0
M  V30 4698 C 454.82 -1.46141 3.28456 0
M  V30 4699 C 454.484 -0.631523 4.52615 0
M  V30 4700 C 455.481 0.0850905 5.1983 0
M  V30 4701 C 453.166 -0.574539 4.99003 0
M  V30 4702 C 455.16 0.847566 6.3174 0
M  V30 4703 C 452.847 0.191655 6.10799 0
M  V30 4704 C 453.845 0.901432 6.77025 0
M  V30 4705 O 453.533 1.65511 7.86677 0
M  V30 4706 H 453.265 -0.194361 0.647456 0
M  V30 4707 H 455.819 0.060312 2.05311 0
M  V30 4708 H 454.049 -2.24885 3.14585 0
M  V30 4709 H 455.738 -2.04016 3.50902 0
M  V30 4710 H 456.504 0.0502812 4.84974 0
M  V30 4711 H 452.383 -1.11654 4.47274 0
M  V30 4712 H 455.927 1.4021 6.83364 0
M  V30 4713 H 451.824 0.228249 6.45096 0
M  V30 4714 H 452.592 1.57287 8.03245 0
M  V30 4715 N 455.255 -1.55392 -0.262866 0
M  V30 4716 C 456.501 -1.76737 -0.99458 0
M  V30 4717 C 456.834 -0.572453 -1.85571 0
M  V30 4718 O 456.109 0.429732 -1.89693 0
M  V30 4719 C 456.392 -3.07824 -1.8686 0
M  V30 4720 C 456.245 -4.3769 -1.03672 0
M  V30 4721 C 457.564 -3.35021 -2.85393 0
M  V30 4722 H 454.683 -0.643005 -0.360157 0
M  V30 4723 H 457.325 -1.88126 -0.266216 0
M  V30 4724 H 455.475 -2.98245 -2.48962 0
M  V30 4725 H 457.147 -4.59238 -0.43563 0
M  V30 4726 H 455.39 -4.32461 -0.340513 0
M  V30 4727 H 456.061 -5.25759 -1.6817 0
M  V30 4728 H 458.537 -3.44458 -2.33426 0
M  V30 4729 H 457.413 -4.27989 -3.43681 0
M  V30 4730 H 457.674 -2.55153 -3.61039 0
M  V30 4731 N 456.733 0.527833 -1.48498 0
M  V30 4732 C 457.981 1.28101 -1.56316 0
M  V30 4733 C 458.302 1.9352 -0.239781 0
M  V30 4734 O 457.572 1.81433 0.738849 0
M  V30 4735 H 456.152 0.475793 -0.575873 0
M  V30 4736 H 458.814 0.614052 -1.84974 0
M  V30 4737 H 457.91 2.05916 -2.34532 0
M  V30 4738 N 458.211 1.37122 0.776871 0
M  V30 4739 C 459.158 1.3247 1.88998 0
M  V30 4740 C 460.128 0.191143 1.64997 0
M  V30 4741 O 461.313 0.379683 1.86984 0
M  V30 4742 C 458.453 1.13241 3.25992 0
M  V30 4743 C 457.566 2.35782 3.61982 0
M  V30 4744 C 456.701 2.09465 4.88158 0
M  V30 4745 C 455.74 3.279 5.16864 0
M  V30 4746 N 454.877 3.01167 6.34226 0
M  V30 4747 H 459.717 2.27642 1.9231 0
M  V30 4748 H 457.254 1.13125 0.94027 0
M  V30 4749 H 459.212 1.00115 4.0501 0
M  V30 4750 H 457.842 0.217186 3.22069 0
M  V30 4751 H 456.894 2.59666 2.77989 0
M  V30 4752 H 458.206 3.24125 3.79137 0
M  V30 4753 H 457.36 1.93341 5.75069 0
M  V30 4754 H 456.099 1.18452 4.73097 0
M  V30 4755 H 455.104 3.44569 4.2843 0
M  V30 4756 H 456.329 4.19757 5.33836 0
M  V30 4757 H 454.275 2.12779 6.20533 0
M  V30 4758 H 454.192 3.83052 6.51772 0
M  V30 4759 H 455.46 2.88649 7.24087 0
M  V30 4760 N 459.689 -1.00246 1.21608 0
M  V30 4761 C 460.599 -2.12515 0.993709 0
M  V30 4762 C 461.615 -1.73913 -0.0549939 0
M  V30 4763 O 462.791 -2.00943 0.135619 0
M  V30 4764 C 459.856 -3.42083 0.563953 0
M  V30 4765 C 458.917 -3.94843 1.68516 0
M  V30 4766 C 458.15 -5.18226 1.27582 0
M  V30 4767 O 458.373 -5.70201 0.150506 0
M  V30 4768 O 457.307 -5.64497 2.0887 0
M  V30 4769 H 461.133 -2.34152 1.93407 0
M  V30 4770 H 458.718 -1.10891 1.00118 0
M  V30 4771 H 460.6 -4.20073 0.334194 0
M  V30 4772 H 459.275 -3.21828 -0.347665 0
M  V30 4773 H 458.182 -3.18068 1.96935 0
M  V30 4774 H 459.515 -4.19512 2.5743 0
M  V30 4775 N 461.167 -1.02423 -1.1978 0
M  V30 4776 C 462.578 -0.748389 -1.71044 0
M  V30 4777 C 462.929 0.732398 -1.82017 0
M  V30 4778 O 462.054 1.57116 -1.48807 0
M  V30 4779 C 462.649 -1.35187 -3.1066 0
M  V30 4780 C 461.208 -1.12472 -3.59203 0
M  V30 4781 C 460.355 -1.45283 -2.36195 0
M  V30 4782 H 463.306 -1.19275 -1.04686 0
M  V30 4783 H 463.327 -0.746408 -3.73107 0
M  V30 4784 H 462.839 -2.4296 -3.02642 0
M  V30 4785 H 460.94 -0.0649983 -3.72543 0
M  V30 4786 H 461.053 -1.81016 -4.43588 0
M  V30 4787 H 459.417 -0.872034 -2.39307 0
M  V30 4788 H 460.2 -2.54129 -2.30811 0
M  V30 4789 N 462.645 1.35699 -0.801477 0
M  V30 4790 C 463.87 2.03687 -0.390678 0
M  V30 4791 C 464.295 1.60015 0.988778 0
M  V30 4792 O 463.653 0.774357 1.63931 0
M  V30 4793 C 463.701 3.57439 -0.476404 0
M  V30 4794 O 462.805 4.09208 0.512106 0
M  V30 4795 H 462.146 0.64344 -0.163956 0
M  V30 4796 H 464.676 1.73403 -1.08594 0
M  V30 4797 H 464.686 4.06544 -0.344357 0
M  V30 4798 H 463.361 3.88576 -1.48262 0
M  V30 4799 H 461.938 3.7134 0.340721 0
M  V30 4800 N 464.123 0.554532 1.47522 0
M  V30 4801 C 465.371 0.0294208 2.02079 0
M  V30 4802 C 465.692 -1.32411 1.43151 0
M  V30 4803 O 464.962 -1.863 0.605728 0
M  V30 4804 H 463.542 0.00788672 0.746958 0
M  V30 4805 H 466.204 0.723934 1.80956 0
M  V30 4806 H 465.3 -0.0606745 3.12041 0
M  V30 4807 N 465.601 -1.54893 0.290851 0
M  V30 4808 C 466.531 -2.26103 -0.583084 0
M  V30 4809 C 467.512 -1.25684 -1.14619 0
M  V30 4810 O 468.697 -1.54436 -1.17741 0
M  V30 4811 C 465.827 -2.99409 -1.75987 0
M  V30 4812 C 464.781 -4.0689 -1.32758 0
M  V30 4813 C 464.107 -4.67856 -2.58872 0
M  V30 4814 C 465.407 -5.20215 -0.46624 0
M  V30 4815 H 467.101 -2.99398 0.0108214 0
M  V30 4816 H 464.647 -1.43998 0.00664468 0
M  V30 4817 H 466.6 -3.47943 -2.37727 0
M  V30 4818 H 465.324 -2.23675 -2.37985 0
M  V30 4819 H 463.983 -3.59191 -0.733299 0
M  V30 4820 H 463.631 -3.88772 -3.19163 0
M  V30 4821 H 463.331 -5.40438 -2.30653 0
M  V30 4822 H 464.855 -5.19147 -3.21433 0
M  V30 4823 H 466.269 -5.64704 -0.989047 0
M  V30 4824 H 464.666 -5.99455 -0.27826 0
M  V30 4825 H 465.736 -4.82198 0.511173 0
M  V30 4826 N 467.08 -0.0183926 -1.57589 0
M  V30 4827 C 468.496 0.337897 -1.55982 0
M  V30 4828 C 468.696 1.73604 -1.02294 0
M  V30 4829 O 467.752 2.43589 -0.664895 0
M  V30 4830 C 469.065 0.196305 -3.00059 0
M  V30 4831 C 470.613 0.269875 -3.11834 0
M  V30 4832 C 471.088 0.157197 -4.5773 0
M  V30 4833 N 472.579 0.214521 -4.62703 0
M  V30 4834 C 473.314 0.150955 -5.73201 0
M  V30 4835 N 472.81 0.0369212 -6.9279 0
M  V30 4836 N 474.603 0.204162 -5.61729 0
M  V30 4837 H 466.754 -0.93279 -1.90821 0
M  V30 4838 H 469.017 -0.359253 -0.877292 0
M  V30 4839 H 468.723 -0.766383 -3.43248 0
M  V30 4840 H 468.597 0.970908 -3.6449 0
M  V30 4841 H 470.984 1.22302 -2.68563 0
M  V30 4842 H 471.065 -0.534918 -2.50144 0
M  V30 4843 H 470.709 -0.792479 -5.01679 0
M  V30 4844 H 470.639 0.980717 -5.17387 0
M  V30 4845 H 473.13 0.303238 -3.76681 0
M  V30 4846 H 473.443 -0.00518321 -7.728 0
M  V30 4847 H 471.788 0.0022886 -6.95 0
M  V30 4848 H 474.979 0.291575 -4.67191 0
M  V30 4849 H 475.152 0.15116 -6.47824 0
M  V30 4850 N 468.558 1.5553 0.254621 0
M  V30 4851 C 469.805 1.77 0.983736 0
M  V30 4852 C 470.133 0.58133 1.85609 0
M  V30 4853 O 469.388 -0.435621 1.9079 0
M  V30 4854 C 469.687 3.03891 1.88109 0
M  V30 4855 C 469.353 4.35597 1.16472 0
M  V30 4856 C 468.015 4.7139 0.966714 0
M  V30 4857 C 470.367 5.1705 0.656387 0
M  V30 4858 C 467.695 5.86176 0.247942 0
M  V30 4859 C 470.047 6.32581 -0.0488807 0
M  V30 4860 C 468.711 6.67 -0.258438 0
M  V30 4861 H 467.981 0.647688 0.359974 0
M  V30 4862 H 470.628 1.89802 0.254463 0
M  V30 4863 H 468.933 2.86068 2.67717 0
M  V30 4864 H 470.63 3.17701 2.44677 0
M  V30 4865 H 467.22 4.07475 1.32899 0
M  V30 4866 H 471.404 4.8986 0.796933 0
M  V30 4867 H 466.66 6.11354 0.075035 0
M  V30 4868 H 470.834 6.94942 -0.450444 0
M  V30 4869 H 468.461 7.55793 -0.817358 0
M  V30 4870 N 470.036 -0.519951 1.48776 0
M  V30 4871 C 470.984 -1.64443 1.64503 0
M  V30 4872 C 471.978 -1.61501 0.511248 0
M  V30 4873 O 473.184 -1.66238 0.690294 0
M  V30 4874 H 469.559 -0.544776 0.518385 0
M  V30 4875 H 471.53 -1.48325 2.58925 0
M  V30 4876 C 470.279 -3.02673 1.71127 0
M  V30 4877 H 469.602 -3.05635 2.57735 0
M  V30 4878 H 471.042 -3.80941 1.86172 0
M  V30 4879 C 469.501 -3.33854 0.452032 0
M  V30 4880 O 470.031 -3.99385 -0.430678 0
M  V30 4881 N 468.237 -2.88825 0.32069 0
M  V30 4882 H 467.784 -2.35674 1.03998 0
M  V30 4883 H 467.742 -3.10056 -0.520814 0
M  V30 4884 N 471.514 -1.37532 -0.769588 0
M  V30 4885 C 472.461 -1.3347 -1.88293 0
M  V30 4886 C 473.431 -0.199891 -1.64893 0
M  V30 4887 O 474.616 -0.389594 -1.8678 0
M  V30 4888 C 471.756 -1.14968 -3.25387 0
M  V30 4889 C 470.869 -2.37698 -3.60727 0
M  V30 4890 C 470.004 -2.12051 -4.8704 0
M  V30 4891 C 469.043 -3.30636 -5.15117 0
M  V30 4892 N 468.18 -3.04527 -6.3262 0
M  V30 4893 H 473.02 -2.28658 -1.911 0
M  V30 4894 H 470.557 -1.13622 -0.934257 0
M  V30 4895 H 472.515 -1.02261 -4.04473 0
M  V30 4896 H 471.145 -0.234263 -3.21949 0
M  V30 4897 H 470.197 -2.61137 -2.76608 0
M  V30 4898 H 471.509 -3.26131 -3.77413 0
M  V30 4899 H 470.663 -1.96388 -5.74035 0
M  V30 4900 H 469.402 -1.20959 -4.72462 0
M  V30 4901 H 468.407 -3.46836 -4.26597 0
M  V30 4902 H 469.632 -4.22582 -5.31603 0
M  V30 4903 H 467.578 -2.16067 -6.19396 0
M  V30 4904 H 467.495 -3.86503 -6.49732 0
M  V30 4905 H 468.763 -2.92485 -7.22546 0
M  V30 4906 N 472.992 0.995999 -1.22138 0
M  V30 4907 C 473.922 2.10387 -1.01289 0
M  V30 4908 C 474.903 1.69975 0.0651454 0
M  V30 4909 O 476.088 1.9396 -0.0964628 0
M  V30 4910 C 473.218 3.42312 -0.586517 0
M  V30 4911 C 472.172 3.96558 -1.61014 0
M  V30 4912 C 471.498 5.24494 -1.0397 0
M  V30 4913 C 472.798 4.27595 -2.99933 0
M  V30 4914 H 474.492 2.28086 -1.93951 0
M  V30 4915 H 472.038 1.09607 -0.933928 0
M  V30 4916 H 473.991 4.19223 -0.427793 0
M  V30 4917 H 472.715 3.24431 0.375761 0
M  V30 4918 H 471.374 3.21776 -1.75658 0
M  V30 4919 H 471.022 5.02953 -0.0688703 0
M  V30 4920 H 470.722 5.61755 -1.72352 0
M  V30 4921 H 472.246 6.04042 -0.892494 0
M  V30 4922 H 473.66 4.95315 -2.8868 0
M  V30 4923 H 472.057 4.76021 -3.6541 0
M  V30 4924 H 473.127 3.35498 -3.50099 0
M  V30 4925 N 474.47 1.03057 1.19235 0
M  V30 4926 C 475.717 0.728019 1.88961 0
M  V30 4927 C 476.045 -0.743515 1.79728 0
M  V30 4928 O 475.3 -1.55729 1.1852 0
M  V30 4929 C 475.599 1.1268 3.39172 0
M  V30 4930 C 475.265 2.5969 3.68608 0
M  V30 4931 C 473.927 2.99854 3.76352 0
M  V30 4932 C 476.279 3.54793 3.81801 0
M  V30 4933 C 473.607 4.34031 3.94758 0
M  V30 4934 C 475.959 4.88675 4.0172 0
M  V30 4935 C 474.623 5.28526 4.07697 0
M  V30 4936 H 473.893 0.266401 0.691456 0
M  V30 4937 H 476.54 1.29373 1.41191 0
M  V30 4938 H 474.845 0.479722 3.88852 0
M  V30 4939 H 476.542 0.870203 3.91444 0
M  V30 4940 H 473.132 2.27575 3.63191 0
M  V30 4941 H 477.316 3.24914 3.7516 0
M  V30 4942 H 472.572 4.6444 3.97625 0
M  V30 4943 H 476.746 5.6228 4.1087 0
M  V30 4944 H 474.373 6.32506 4.21712 0
M  V30 4945 N 475.948 -1.35272 0.808662 0
M  V30 4946 C 476.878 -2.32315 0.234981 0
M  V30 4947 C 477.859 -1.57572 -0.64071 0
M  V30 4948 O 479.044 -1.8563 -0.570551 0
M  V30 4949 C 476.174 -3.41801 -0.615601 0
M  V30 4950 C 475.128 -4.27694 0.161767 0
M  V30 4951 C 474.454 -5.28519 -0.810649 0
M  V30 4952 C 475.754 -5.04231 1.36193 0
M  V30 4953 H 477.448 -2.80543 1.04575 0
M  V30 4954 H 474.994 -1.3488 0.504315 0
M  V30 4955 H 476.947 -4.08693 -1.02702 0
M  V30 4956 H 475.671 -2.92186 -1.45928 0
M  V30 4957 H 474.33 -3.62384 0.554382 0
M  V30 4958 H 473.978 -4.75171 -1.64988 0
M  V30 4959 H 473.678 -5.8686 -0.294822 0
M  V30 4960 H 475.202 -5.98283 -1.22023 0
M  V30 4961 H 476.616 -5.64058 1.02528 0
M  V30 4962 H 475.013 -5.72077 1.81239 0
M  V30 4963 H 476.083 -4.34753 2.14751 0
M  V30 4964 N 477.426 -0.562348 -1.47226 0
M  V30 4965 C 478.374 0.195476 -2.31777 0
M  V30 4966 C 479.368 0.90433 -1.43242 0
M  V30 4967 O 480.574 0.825031 -1.59979 0
M  V30 4968 H 476.949 0.0819095 -0.747526 0
M  V30 4969 H 478.92 -0.536753 -2.93533 0
M  V30 4970 C 477.669 1.20902 -3.26003 0
M  V30 4971 H 476.992 0.672997 -3.94095 0
M  V30 4972 H 478.432 1.71006 -3.87986 0
M  V30 4973 C 476.891 2.25955 -2.49891 0
M  V30 4974 O 477.421 3.32969 -2.2471 0
M  V30 4975 N 475.627 2.00019 -2.1081 0
M  V30 4976 H 475.174 1.13006 -2.31489 0
M  V30 4977 H 475.132 2.70523 -1.60201 0
M  V30 4978 N 478.904 1.54736 -0.299062 0
M  V30 4979 C 479.814 2.27127 0.587413 0
M  V30 4980 C 480.83 1.30575 1.15005 0
M  V30 4981 O 482.006 1.63554 1.17525 0
M  V30 4982 C 479.071 2.99645 1.74395 0
M  V30 4983 C 478.132 4.11731 1.21559 0
M  V30 4984 C 477.365 4.80781 2.317 0
M  V30 4985 O 477.588 4.4918 3.51558 0
M  V30 4986 O 476.522 5.68226 1.98501 0
M  V30 4987 H 480.348 3.037 0.000250109 0
M  V30 4988 H 477.933 1.49256 -0.0655919 0
M  V30 4989 H 479.815 3.45138 2.4178 0
M  V30 4990 H 478.49 2.25969 2.31775 0
M  V30 4991 H 477.397 3.70641 0.507514 0
M  V30 4992 H 478.73 4.87379 0.687233 0
M  V30 4993 N 480.382 0.0267497 1.57577 0
M  V30 4994 C 481.659 -0.690926 1.82991 0
M  V30 4995 C 482.039 -1.90471 0.910164 0
M  V30 4996 O 481.387 -2.28474 -0.0347985 0
M  V30 4997 C 481.597 -1.07139 3.32148 0
M  V30 4998 C 482.945 -1.46402 3.98562 0
M  V30 4999 O 483.969 -1.16443 3.36629 0
M  V30 5000 O 482.828 -2.02214 5.07712 0
M  V30 5001 H 479.922 -0.338747 0.75444 0
M  V30 5002 H 482.468 0.0542506 1.69613 0
M  V30 5003 H 481.24 -0.207394 3.9075 0
M  V30 5004 H 480.863 -1.87481 3.50623 0
M  V30 5005 N 481.861 -1.55662 -0.24637 0
M  V30 5006 C 483.138 -1.68272 -0.997198 0
M  V30 5007 C 483.518 -0.566785 -2.03349 0
M  V30 5008 O 482.866 0.429688 -2.24424 0
M  V30 5009 C 483.076 -3.08594 -1.63006 0
M  V30 5010 C 484.424 -3.6721 -2.13171 0
M  V30 5011 O 485.448 -3.11397 -1.72946 0
M  V30 5012 O 484.307 -4.65054 -2.87031 0
M  V30 5013 H 481.401 -0.684429 -0.464205 0
M  V30 5014 H 483.947 -1.67993 -0.240114 0
M  V30 5015 H 482.719 -3.81264 -0.880527 0
M  V30 5016 H 482.342 -3.12886 -2.45333 0
M  V30 5017 N 483.339 0.512053 -1.4905 0
M  V30 5018 C 484.286 1.6148 -1.64902 0
M  V30 5019 C 485.256 1.58687 -0.490673 0
M  V30 5020 O 486.441 1.76842 -0.71636 0
M  V30 5021 C 483.581 2.99676 -1.71139 0
M  V30 5022 C 482.694 3.12568 -2.98203 0
M  V30 5023 C 481.829 4.4143 -2.95487 0
M  V30 5024 C 480.868 4.47916 -4.17179 0
M  V30 5025 N 480.005 5.68191 -4.12437 0
M  V30 5026 H 484.845 1.47271 -2.59066 0
M  V30 5027 H 482.382 0.716713 -1.28459 0
M  V30 5028 H 484.34 3.79761 -1.72736 0
M  V30 5029 H 482.97 3.12614 -0.804508 0
M  V30 5030 H 482.022 2.25618 -3.06269 0
M  V30 5031 H 483.334 3.1322 -3.88194 0
M  V30 5032 H 482.488 5.29825 -2.95585 0
M  V30 5033 H 481.227 4.43326 -2.03256 0
M  V30 5034 H 480.232 3.57925 -4.17337 0
M  V30 5035 H 481.457 4.47744 -5.1059 0
M  V30 5036 H 479.403 5.7095 -3.23036 0
M  V30 5037 H 479.32 5.70413 -4.96151 0
M  V30 5038 H 480.588 6.58823 -4.16621 0
M  V30 5039 N 484.817 1.37938 0.762283 0
M  V30 5040 C 486.228 1.30094 1.33912 0
M  V30 5041 C 486.579 -0.0472026 1.96143 0
M  V30 5042 O 485.704 -0.94917 1.94473 0
M  V30 5043 C 486.299 2.35592 2.43478 0
M  V30 5044 C 484.858 2.31353 2.96905 0
M  V30 5045 C 484.005 2.18919 1.70205 0
M  V30 5046 H 486.956 1.48423 0.561816 0
M  V30 5047 H 486.977 2.00806 3.23199 0
M  V30 5048 H 486.489 3.33701 1.98155 0
M  V30 5049 H 484.59 1.36799 3.46579 0
M  V30 5050 H 484.703 3.25147 3.51875 0
M  V30 5051 H 483.067 1.65624 1.93496 0
M  V30 5052 H 483.85 3.18956 1.26973 0
M  V30 5053 N 486.295 -0.989507 1.22664 0
M  V30 5054 C 487.245 -2.06478 0.967005 0
M  V30 5055 C 488.229 -1.60682 -0.0836374 0
M  V30 5056 O 489.421 -1.76541 0.127322 0
M  V30 5057 C 486.55 -3.38861 0.550313 0
M  V30 5058 C 485.636 -3.9128 1.63587 0
M  V30 5059 N 486.027 -4.16884 2.86429 0
M  V30 5060 C 484.325 -4.1972 1.50834 0
M  V30 5061 C 485.026 -4.5954 3.56648 0
M  V30 5062 N 484.002 -4.63434 2.84131 0
M  V30 5063 H 487.804 -2.24219 1.90008 0
M  V30 5064 H 485.318 -1.17153 1.12467 0
M  V30 5065 H 487.315 -4.15465 0.345612 0
M  V30 5066 H 485.975 -3.22518 -0.375822 0
M  V30 5067 H 486.986 -4.04976 3.22823 0
M  V30 5068 H 483.663 -4.1243 0.648643 0
M  V30 5069 H 485.053 -4.87944 4.61909 0
M  V30 5070 N 487.773 -1.03688 -1.18687 0
M  V30 5071 C 488.721 -0.618292 -2.24232 0
M  V30 5072 C 489.715 0.353045 -1.6568 0
M  V30 5073 O 490.921 0.220749 -1.78641 0
M  V30 5074 H 487.296 -0.181711 -0.729716 0
M  V30 5075 H 489.267 -1.51893 -2.56848 0
M  V30 5076 C 488.016 0.00677342 -3.47699 0
M  V30 5077 H 487.339 -0.731692 -3.93047 0
M  V30 5078 H 488.779 0.262492 -4.23187 0
M  V30 5079 C 487.238 1.25572 -3.12623 0
M  V30 5080 O 487.768 2.34691 -3.26011 0
M  V30 5081 N 485.974 1.14755 -2.66982 0
M  V30 5082 H 485.521 0.259601 -2.56289 0
M  V30 5083 H 485.479 1.98412 -2.43885 0
M  V30 5084 N 489.251 1.34841 -0.815825 0
M  V30 5085 C 490.662 1.80937 -0.46029 0
M  V30 5086 C 491.013 1.67685 1.01863 0
M  V30 5087 O 490.138 1.21277 1.79223 0
M  V30 5088 C 490.733 3.28509 -0.828708 0
M  V30 5089 C 489.292 3.72712 -0.525644 0
M  V30 5090 C 488.439 2.56676 -1.04941 0
M  V30 5091 H 491.39 1.22688 -1.00664 0
M  V30 5092 H 491.411 3.80279 -0.129757 0
M  V30 5093 H 490.923 3.38122 -1.90513 0
M  V30 5094 H 489.024 3.68642 0.541666 0
M  V30 5095 H 489.137 4.67119 -1.06474 0
M  V30 5096 H 487.501 2.50302 -0.471286 0
M  V30 5097 H 488.284 2.69063 -2.13214 0
M  V30 5098 N 490.729 0.570148 1.46925 0
M  V30 5099 C 491.662 -0.218362 2.27153 0
M  V30 5100 C 492.64 -0.90847 1.34854 0
M  V30 5101 O 493.824 -0.924875 1.64251 0
M  V30 5102 C 490.951 -1.3122 3.12248 0
M  V30 5103 C 489.997 -0.729277 4.20219 0
M  V30 5104 S 490.83 0.434159 5.33737 0
M  V30 5105 C 491.986 -0.661188 6.22398 0
M  V30 5106 H 492.219 0.462393 2.93682 0
M  V30 5107 H 489.752 0.356753 1.50222 0
M  V30 5108 H 491.71 -1.93856 3.61842 0
M  V30 5109 H 490.371 -1.96485 2.45056 0
M  V30 5110 H 489.564 -1.5511 4.79538 0
M  V30 5111 H 489.166 -0.178836 3.73572 0
M  V30 5112 H 491.458 -1.55006 6.5953 0
M  V30 5113 H 492.401 -0.105046 7.08022 0
M  V30 5114 H 492.809 -0.959682 5.56283 0
M  V30 5115 N 492.207 -1.54576 0.307264 0
M  V30 5116 C 493.453 -2.0056 -0.300612 0
M  V30 5117 C 493.786 -1.1953 -1.53057 0
M  V30 5118 O 493.061 -0.27337 -1.92569 0
M  V30 5119 C 493.344 -3.54167 -0.650987 0
M  V30 5120 C 493.197 -4.45933 0.588539 0
M  V30 5121 C 494.516 -4.14645 -1.47506 0
M  V30 5122 H 491.635 -0.729075 -0.107788 0
M  V30 5123 H 494.277 -1.85286 0.420606 0
M  V30 5124 H 492.427 -3.67313 -1.26544 0
M  V30 5125 H 494.099 -4.44683 1.22697 0
M  V30 5126 H 492.342 -4.16274 1.22058 0
M  V30 5127 H 493.013 -5.51189 0.299153 0
M  V30 5128 H 495.489 -4.04973 -0.955821 0
M  V30 5129 H 494.365 -5.22269 -1.68899 0
M  V30 5130 H 494.626 -3.66921 -2.4662 0
M  V30 5131 N 493.685 -0.035106 -1.57561 0
M  V30 5132 C 494.633 0.962707 -2.11742 0
M  V30 5133 C 495.627 1.33296 -1.0454 0
M  V30 5134 O 496.833 1.31449 -1.22968 0
M  V30 5135 H 493.208 0.32826 -0.676572 0
M  V30 5136 H 495.179 0.48048 -2.94506 0
M  V30 5137 C 493.928 2.23388 -2.66445 0
M  V30 5138 H 493.251 1.95774 -3.48587 0
M  V30 5139 H 494.691 2.91402 -3.07995 0
M  V30 5140 C 493.15 2.96769 -1.59467 0
M  V30 5141 O 493.68 3.89105 -0.998 0
M  V30 5142 N 491.886 2.59212 -1.31369 0
M  V30 5143 H 491.433 1.84202 -1.80076 0
M  V30 5144 H 491.391 3.08618 -0.600173 0
M  V30 5145 N 495.163 1.55791 0.238111 0
M  V30 5146 C 496.126 1.90239 1.27835 0
M  V30 5147 C 497.126 0.779552 1.4064 0
M  V30 5148 O 498.316 1.04747 1.3919 0
M  V30 5149 C 495.448 2.13859 2.65475 0
M  V30 5150 H 496.641 2.83262 0.985034 0
M  V30 5151 H 494.194 1.48818 0.477799 0
M  V30 5152 H 494.929 1.23334 2.99932 0
M  V30 5153 H 494.714 2.95643 2.57561 0
M  V30 5154 H 496.204 2.41664 3.40571 0
M  V30 5155 N 496.642 -0.504142 1.49319 0
M  V30 5156 C 497.89 -1.25598 1.58334 0
M  V30 5157 C 498.211 -1.93114 0.270538 0
M  V30 5158 O 497.481 -1.82585 -0.709891 0
M  V30 5159 H 496.061 -0.466571 0.58337 0
M  V30 5160 H 498.723 -0.584547 1.85928 0
M  V30 5161 H 497.819 -2.02159 2.37778 0
M  V30 5162 N 498.12 -1.38341 -0.754957 0
M  V30 5163 C 499.083 -1.35262 -1.85032 0
M  V30 5164 C 500.083 -0.253393 -1.58791 0
M  V30 5165 O 501.273 -0.510205 -1.66561 0
M  V30 5166 C 498.405 -1.10544 -3.22479 0
M  V30 5167 H 499.598 -2.32712 -1.8917 0
M  V30 5168 H 497.151 -1.23614 -0.956515 0
M  V30 5169 H 497.886 -0.136952 -3.24011 0
M  V30 5170 H 497.671 -1.90127 -3.4292 0
M  V30 5171 H 499.161 -1.11082 -4.02555 0
M  V30 5172 N 499.598 0.982988 -1.23187 0
M  V30 5173 C 500.847 1.71817 -1.05649 0
M  V30 5174 C 501.16 1.91315 0.407176 0
M  V30 5175 O 502.366 2.62256 0.702436 0
M  V30 5176 C 500.822 3.09188 -1.84203 0
M  V30 5177 C 500.43 2.97586 -3.34882 0
M  V30 5178 C 502.174 3.86684 -1.75146 0
M  V30 5179 C 500.081 4.30173 -4.05839 0
M  V30 5180 H 499.011 0.644258 -0.391724 0
M  V30 5181 H 501.662 1.09659 -1.4713 0
M  V30 5182 H 500.044 3.72087 -1.35527 0
M  V30 5183 H 501.218 2.43793 -3.91026 0
M  V30 5184 H 499.533 2.33567 -3.44725 0
M  V30 5185 H 502.13 4.84836 -2.25473 0
M  V30 5186 H 502.473 4.10136 -0.713737 0
M  V30 5187 H 503.006 3.30482 -2.21419 0
M  V30 5188 H 499.745 4.11918 -5.09906 0
M  V30 5189 H 499.265 4.83841 -3.54482 0
M  V30 5190 H 500.944 4.98873 -4.11989 0
M  V30 5191 N 501.076 1.04316 1.18135 0
M  V30 5192 C 502.322 0.749128 1.88457 0
M  V30 5193 C 502.655 -0.72149 1.803 0
M  V30 5194 O 501.93 -1.52676 1.205 0
M  V30 5195 C 502.213 1.21905 3.38838 0
M  V30 5196 C 502.066 2.75195 3.55792 0
M  V30 5197 C 503.385 0.811085 4.32561 0
M  V30 5198 H 500.504 0.273611 0.684329 0
M  V30 5199 H 503.146 1.29561 1.38975 0
M  V30 5200 H 501.296 0.754137 3.8111 0
M  V30 5201 H 502.968 3.29743 3.22595 0
M  V30 5202 H 501.211 3.14899 2.98364 0
M  V30 5203 H 501.882 3.03135 4.61317 0
M  V30 5204 H 504.358 1.21118 3.98082 0
M  V30 5205 H 503.234 1.16761 5.36338 0
M  V30 5206 H 503.495 -0.285596 4.41177 0
M  V30 5207 N 502.554 -1.34406 0.822964 0
M  V30 5208 C 503.8 -1.98578 0.411666 0
M  V30 5209 C 504.133 -1.65093 -1.02264 0
M  V30 5210 O 503.408 -0.92258 -1.71227 0
M  V30 5211 C 503.691 -3.54823 0.614235 0
M  V30 5212 C 503.544 -3.9805 2.09466 0
M  V30 5213 C 504.863 -4.40071 0.050221 0
M  V30 5214 H 501.982 -0.721355 0.151047 0
M  V30 5215 H 504.624 -1.59301 1.03554 0
M  V30 5216 H 502.774 -3.88411 0.0831774 0
M  V30 5217 H 504.446 -3.74795 2.68936 0
M  V30 5218 H 502.689 -3.4836 2.5851 0
M  V30 5219 H 503.36 -5.06819 2.18721 0
M  V30 5220 H 505.836 -4.13037 0.503953 0
M  V30 5221 H 504.712 -5.48452 0.221759 0
M  V30 5222 H 504.973 -4.29576 -1.04482 0
M  V30 5223 N 504.032 -0.577932 -1.46621 0
M  V30 5224 C 505.26 -0.0671642 -2.06791 0
M  V30 5225 C 505.675 1.23571 -1.42743 0
M  V30 5226 O 505.032 1.74602 -0.531062 0
M  V30 5227 C 505.083 0.110357 -3.61332 0
M  V30 5228 O 504.804 -1.14095 -4.22982 0
M  V30 5229 C 506.305 0.656025 -4.38419 0
M  V30 5230 H 503.525 -0.0552732 -0.66872 0
M  V30 5231 H 506.069 -0.797242 -1.8832 0
M  V30 5232 H 504.224 0.790637 -3.79246 0
M  V30 5233 H 504.638 -0.951742 -5.15793 0
M  V30 5234 H 506.112 0.729438 -5.47159 0
M  V30 5235 H 506.589 1.67195 -4.06131 0
M  V30 5236 H 507.195 0.0107692 -4.25299 0
M  V30 5237 N 505.51 1.54411 -0.315457 0
M  V30 5238 C 506.735 2.05299 0.294496 0
M  V30 5239 C 507.16 1.19052 1.4563 0
M  V30 5240 O 506.518 0.197804 1.80218 0
M  V30 5241 C 506.566 3.5345 0.714549 0
M  V30 5242 O 505.67 3.70175 1.81781 0
M  V30 5243 H 505.011 0.661743 0.0547019 0
M  V30 5244 H 507.541 1.99327 -0.461508 0
M  V30 5245 H 507.551 3.9557 0.999426 0
M  V30 5246 H 506.226 4.1568 -0.135244 0
M  V30 5247 H 504.803 3.3996 1.53236 0
M  V30 5248 N 506.988 0.0434614 1.5754 0
M  V30 5249 C 507.918 -0.931651 2.14109 0
M  V30 5250 C 508.899 -1.32971 1.06079 0
M  V30 5251 O 510.084 -1.40579 1.33982 0
M  V30 5252 C 507.214 -2.20914 2.67982 0
M  V30 5253 C 506.168 -1.95139 3.80926 0
M  V30 5254 C 505.494 -3.29276 4.21285 0
M  V30 5255 C 506.794 -1.27913 5.06395 0
M  V30 5256 H 508.488 -0.460497 2.95837 0
M  V30 5257 H 506.034 -0.220058 1.42309 0
M  V30 5258 H 507.987 -2.89522 3.06194 0
M  V30 5259 H 506.711 -2.70221 1.83434 0
M  V30 5260 H 505.37 -1.28945 3.43175 0
M  V30 5261 H 505.018 -3.76369 3.33699 0
M  V30 5262 H 504.718 -3.12831 4.97404 0
M  V30 5263 H 506.242 -3.99129 4.62091 0
M  V30 5264 H 507.656 -1.86544 5.42102 0
M  V30 5265 H 506.053 -1.2182 5.87605 0
M  V30 5266 H 507.123 -0.254066 4.84234 0
M  V30 5267 N 508.466 -1.55915 -0.229846 0
M  V30 5268 C 509.715 -1.77742 -0.953455 0
M  V30 5269 C 510.028 -0.610524 -1.85828 0
M  V30 5270 O 511.234 -0.712219 -2.61992 0
M  V30 5271 C 509.69 -3.14738 -1.74551 0
M  V30 5272 C 509.298 -4.39126 -0.887242 0
M  V30 5273 C 511.042 -3.45895 -2.46084 0
M  V30 5274 C 508.949 -5.67149 -1.67617 0
M  V30 5275 H 507.879 -0.662648 -0.359741 0
M  V30 5276 H 510.53 -1.82322 -0.207576 0
M  V30 5277 H 508.912 -3.04311 -2.53399 0
M  V30 5278 H 510.086 -4.60588 -0.139892 0
M  V30 5279 H 508.401 -4.15427 -0.284443 0
M  V30 5280 H 510.998 -4.38767 -3.05594 0
M  V30 5281 H 511.341 -2.68007 -3.18556 0
M  V30 5282 H 511.874 -3.57614 -1.74233 0
M  V30 5283 H 508.613 -6.47906 -0.994881 0
M  V30 5284 H 508.133 -5.49763 -2.39836 0
M  V30 5285 H 509.812 -6.07025 -2.23898 0
M  V30 5286 N 509.944 0.496216 -1.49584 0
M  V30 5287 C 510.891 1.59722 -1.66606 0
M  V30 5288 C 511.861 1.58158 -0.507477 0
M  V30 5289 O 513.046 1.76072 -0.735076 0
M  V30 5290 C 510.186 2.97844 -1.74308 0
M  V30 5291 C 509.299 3.09388 -3.01502 0
M  V30 5292 C 508.434 4.38271 -3.00153 0
M  V30 5293 C 507.473 4.43466 -4.21906 0
M  V30 5294 N 506.61 5.63784 -4.1844 0
M  V30 5295 H 511.45 1.44515 -2.60613 0
M  V30 5296 H 508.987 0.703048 -1.29212 0
M  V30 5297 H 510.945 3.77907 -1.76754 0
M  V30 5298 H 509.575 3.11743 -0.837619 0
M  V30 5299 H 508.627 2.22357 -3.08645 0
M  V30 5300 H 509.939 3.09085 -3.91494 0
M  V30 5301 H 509.093 5.2666 -3.01188 0
M  V30 5302 H 507.832 4.41146 -2.07947 0
M  V30 5303 H 506.837 3.53478 -4.21109 0
M  V30 5304 H 508.062 4.42303 -5.1531 0
M  V30 5305 H 506.008 5.67491 -3.29074 0
M  V30 5306 H 505.925 5.65118 -5.02173 0
M  V30 5307 H 507.193 6.54367 -4.23585 0
M  V30 5308 N 511.423 1.38739 0.74761 0
M  V30 5309 C 512.355 1.32341 1.87132 0
M  V30 5310 C 513.368 0.234502 1.61102 0
M  V30 5311 O 514.557 0.492516 1.71571 0
M  V30 5312 C 511.657 1.02915 3.22896 0
M  V30 5313 C 510.83 2.22834 3.76383 0
M  V30 5314 C 509.889 1.90059 4.90677 0
M  V30 5315 O 508.915 2.62615 5.04997 0
M  V30 5316 N 510.117 0.859141 5.74107 0
M  V30 5317 H 512.882 2.29175 1.93129 0
M  V30 5318 H 510.443 1.32678 0.927805 0
M  V30 5319 H 512.435 0.79031 3.96908 0
M  V30 5320 H 511.005 0.148572 3.12247 0
M  V30 5321 H 510.225 2.62747 2.93867 0
M  V30 5322 H 511.513 3.02851 4.08851 0
M  V30 5323 H 510.911 0.257564 5.65113 0
M  V30 5324 H 509.468 0.680189 6.48241 0
M  V30 5325 N 512.901 -0.976442 1.23707 0
M  V30 5326 C 514.149 -1.71487 1.06942 0
M  V30 5327 C 514.47 -1.9098 -0.393897 0
M  V30 5328 O 513.74 -1.48128 -1.28198 0
M  V30 5329 H 512.32 -0.635425 0.392739 0
M  V30 5330 H 514.982 -1.17515 1.55487 0
M  V30 5331 H 514.078 -2.70286 1.56051 0
M  V30 5332 N 514.379 -1.04941 -1.1758 0
M  V30 5333 C 515.625 -0.759112 -1.88057 0
M  V30 5334 C 515.958 0.711918 -1.8068 0
M  V30 5335 O 515.233 1.52035 -1.21308 0
M  V30 5336 C 515.516 -1.237 -3.38187 0
M  V30 5337 C 515.369 -2.77078 -3.54327 0
M  V30 5338 C 516.688 -0.834014 -4.32125 0
M  V30 5339 H 513.807 -0.277237 -0.682868 0
M  V30 5340 H 516.449 -1.30296 -1.38286 0
M  V30 5341 H 514.599 -0.774337 -3.80705 0
M  V30 5342 H 516.271 -3.31449 -3.20842 0
M  V30 5343 H 514.514 -3.16477 -2.96689 0
M  V30 5344 H 515.185 -3.05577 -4.59703 0
M  V30 5345 H 517.661 -1.23228 -3.97434 0
M  V30 5346 H 516.537 -1.19603 -5.35711 0
M  V30 5347 H 516.798 0.262195 -4.41322 0
M  V30 5348 N 515.857 1.33968 -0.830081 0
M  V30 5349 C 516.805 2.31301 -0.245435 0
M  V30 5350 C 517.799 1.57734 0.617762 0
M  V30 5351 O 519.005 1.72674 0.508303 0
M  V30 5352 H 515.38 0.749552 -0.0606316 0
M  V30 5353 H 517.351 2.78129 -1.08105 0
M  V30 5354 C 516.1 3.42961 0.572084 0
M  V30 5355 H 515.423 3.99714 -0.0828118 0
M  V30 5356 H 516.863 4.13286 0.94715 0
M  V30 5357 C 515.322 2.88043 1.74737 0
M  V30 5358 O 515.852 2.83508 2.8458 0
M  V30 5359 N 514.058 2.44768 1.56642 0
M  V30 5360 H 513.605 2.48656 0.672901 0
M  V30 5361 H 513.563 2.08375 2.3543 0
M  V30 5362 N 517.335 0.585699 1.46312 0
M  V30 5363 C 518.283 -0.158577 2.32059 0
M  V30 5364 C 519.277 -0.881427 1.44662 0
M  V30 5365 O 520.483 -0.799476 1.61271 0
M  V30 5366 H 516.858 -0.0700066 0.748734 0
M  V30 5367 H 518.829 0.583383 2.92642 0
M  V30 5368 C 517.578 -1.15701 3.27885 0
M  V30 5369 H 516.901 -0.610215 3.95116 0
M  V30 5370 H 518.341 -1.64812 3.90657 0
M  V30 5371 C 516.8 -2.21951 2.53455 0
M  V30 5372 O 517.33 -3.29352 2.29978 0
M  V30 5373 N 515.536 -1.9664 2.13965 0
M  V30 5374 H 515.083 -1.09309 2.33258 0
M  V30 5375 H 515.041 -2.6794 1.64485 0
M  V30 5376 N 518.813 -1.54241 0.323641 0
M  V30 5377 C 519.776 -2.22997 -0.529602 0
M  V30 5378 C 520.776 -1.22345 -1.04347 0
M  V30 5379 O 521.966 -1.46924 -0.935889 0
M  V30 5380 C 519.098 -2.93409 -1.73562 0
M  V30 5381 H 520.291 -2.99815 0.0714518 0
M  V30 5382 H 517.844 -1.56121 0.0747258 0
M  V30 5383 H 518.579 -2.20729 -2.37591 0
M  V30 5384 H 518.364 -3.67217 -1.37456 0
M  V30 5385 H 519.854 -3.45794 -2.34128 0
M  V30 5386 N 520.291 -0.0518155 -1.57515 0
M  V30 5387 C 521.201 0.937539 -2.15052 0
M  V30 5388 C 522.217 1.34121 -1.10849 0
M  V30 5389 O 523.393 1.418 -1.4302 0
M  V30 5390 C 520.458 2.19379 -2.68466 0
M  V30 5391 C 519.519 1.84841 -3.87469 0
M  V30 5392 C 518.752 3.04477 -4.38326 0
M  V30 5393 O 518.975 4.17868 -3.88256 0
M  V30 5394 O 517.909 2.85453 -5.29906 0
M  V30 5395 H 521.735 0.478201 -2.99912 0
M  V30 5396 H 519.32 0.17012 -1.48428 0
M  V30 5397 H 521.202 2.93084 -3.02787 0
M  V30 5398 H 519.877 2.64449 -1.86677 0
M  V30 5399 H 518.784 1.08449 -3.58036 0
M  V30 5400 H 520.117 1.44569 -4.7049 0
M  V30 5401 N 521.769 1.56035 0.221574 0
M  V30 5402 C 522.716 1.92413 1.27459 0
M  V30 5403 C 523.686 0.781323 1.46576 0
M  V30 5404 O 524.871 1.03721 1.60145 0
M  V30 5405 C 522.011 2.24617 2.61995 0
M  V30 5406 C 521.124 3.51831 2.50677 0
M  V30 5407 C 520.259 3.73482 3.77736 0
M  V30 5408 C 519.298 4.94211 3.6114 0
M  V30 5409 N 518.435 5.12252 4.80148 0
M  V30 5410 H 523.275 2.82203 0.957355 0
M  V30 5411 H 520.812 1.39676 0.461415 0
M  V30 5412 H 522.77 2.41298 3.40339 0
M  V30 5413 H 521.4 1.38 2.91815 0
M  V30 5414 H 520.452 3.43343 1.63767 0
M  V30 5415 H 521.764 4.40328 2.34334 0
M  V30 5416 H 520.918 3.9026 4.64523 0
M  V30 5417 H 519.657 2.83266 3.97003 0
M  V30 5418 H 518.662 4.77384 2.72736 0
M  V30 5419 H 519.887 5.85912 3.43343 0
M  V30 5420 H 517.833 4.24978 4.99729 0
M  V30 5421 H 517.75 5.94881 4.66532 0
M  V30 5422 H 519.018 5.33465 5.68362 0
M  V30 5423 N 523.247 -0.488276 1.49845 0
M  V30 5424 C 524.494 -1.24157 1.59973 0
M  V30 5425 C 524.822 -1.92293 0.292182 0
M  V30 5426 O 524.077 -1.81942 -0.720813 0
M  V30 5427 C 524.376 -2.32152 2.71735 0
M  V30 5428 C 524.042 -1.81387 4.12807 0
M  V30 5429 C 522.704 -1.67262 4.51195 0
M  V30 5430 C 525.056 -1.43537 5.01045 0
M  V30 5431 C 522.384 -1.13685 5.7558 0
M  V30 5432 C 524.736 -0.914081 6.25961 0
M  V30 5433 C 523.4 -0.759327 6.63167 0
M  V30 5434 H 522.67 -0.454322 0.585383 0
M  V30 5435 H 525.317 -0.540261 1.83721 0
M  V30 5436 H 523.622 -3.08122 2.42008 0
M  V30 5437 H 525.319 -2.90164 2.76778 0
M  V30 5438 H 521.909 -1.93344 3.82513 0
M  V30 5439 H 526.093 -1.53292 4.72033 0
M  V30 5440 H 521.349 -1.00426 6.03096 0
M  V30 5441 H 525.523 -0.612066 6.93705 0
M  V30 5442 H 523.15 -0.342002 7.5943 0
M  V30 5443 N 524.725 -1.39134 -0.740242 0
M  V30 5444 C 526.002 -1.26584 -1.49117 0
M  V30 5445 C 526.382 0.126902 -2.10718 0
M  V30 5446 O 525.73 1.13765 -1.98166 0
M  V30 5447 C 525.94 -2.38619 -2.54681 0
M  V30 5448 C 527.288 -2.77685 -3.21211 0
M  V30 5449 O 528.312 -2.38029 -2.64991 0
M  V30 5450 O 527.171 -3.46115 -4.22926 0
M  V30 5451 H 524.265 -0.495769 -0.661923 0
M  V30 5452 H 526.811 -1.50995 -0.774514 0
M  V30 5453 H 525.583 -3.3175 -2.07504 0
M  V30 5454 H 525.206 -2.15845 -3.33911 0
M  V30 5455 N 526.204 0.969867 -1.24223 0
M  V30 5456 C 527.434 1.74502 -1.106 0
M  V30 5457 C 527.842 1.86038 0.344483 0
M  V30 5458 O 527.185 1.3465 1.24961 0
M  V30 5459 C 527.247 3.18391 -1.66935 0
M  V30 5460 C 526.911 3.30334 -3.15798 0
M  V30 5461 C 527.908 3.15832 -4.12973 0
M  V30 5462 C 525.593 3.54644 -3.55715 0
M  V30 5463 C 527.587 3.25461 -5.48045 0
M  V30 5464 C 525.274 3.63912 -4.90929 0
M  V30 5465 C 526.272 3.49332 -5.86904 0
M  V30 5466 O 525.96 3.58251 -7.1966 0
M  V30 5467 H 525.692 0.554119 -0.387206 0
M  V30 5468 H 528.246 1.22646 -1.64764 0
M  V30 5469 H 526.476 3.71543 -1.07203 0
M  V30 5470 H 528.165 3.77707 -1.48634 0
M  V30 5471 H 528.931 2.96937 -3.83476 0
M  V30 5472 H 524.81 3.65059 -2.81519 0
M  V30 5473 H 528.354 3.13998 -6.22937 0
M  V30 5474 H 524.251 3.82319 -5.20098 0
M  V30 5475 H 525.019 3.7498 -7.27552 0
M  V30 5476 N 527.682 1.05563 1.17022 0
M  V30 5477 C 528.928 0.769074 1.87652 0
M  V30 5478 C 529.261 -0.702326 1.81055 0
M  V30 5479 O 528.536 -1.5139 1.22112 0
M  V30 5480 C 528.819 1.25492 3.37526 0
M  V30 5481 C 528.672 2.78953 3.52853 0
M  V30 5482 C 529.991 0.856919 4.31677 0
M  V30 5483 H 527.11 0.280854 0.681388 0
M  V30 5484 H 529.752 1.31027 1.37593 0
M  V30 5485 H 527.902 0.794516 3.80289 0
M  V30 5486 H 529.574 3.33146 3.19079 0
M  V30 5487 H 527.817 3.18046 2.95007 0
M  V30 5488 H 528.488 3.08011 4.58076 0
M  V30 5489 H 530.964 1.25334 3.96775 0
M  V30 5490 H 529.84 1.22443 5.35069 0
M  V30 5491 H 530.101 -0.238787 4.41455 0
M  V30 5492 N 529.16 -1.33526 0.837174 0
M  V30 5493 C 530.093 -2.27192 0.214233 0
M  V30 5494 C 531.071 -1.49575 -0.637657 0
M  V30 5495 O 532.255 -1.78753 -0.598291 0
M  V30 5496 C 529.382 -3.31401 -0.699367 0
M  V30 5497 C 528.428 -4.26431 0.0768429 0
M  V30 5498 S 529.261 -5.15954 1.4336 0
M  V30 5499 C 530.417 -6.23692 0.525251 0
M  V30 5500 H 530.65 -2.79679 1.00831 0
M  V30 5501 H 528.183 -1.4079 0.633834 0
M  V30 5502 H 530.141 -3.91924 -1.22088 0
M  V30 5503 H 528.802 -2.77732 -1.46709 0
M  V30 5504 H 527.995 -5.00193 -0.618268 0
M  V30 5505 H 527.597 -3.70235 0.529364 0
M  V30 5506 H 529.889 -6.76931 -0.277575 0
M  V30 5507 H 530.832 -6.97283 1.23299 0
M  V30 5508 H 531.24 -5.64398 0.107351 0
M  V30 5509 N 530.638 -0.59345 -1.46 0
M  V30 5510 C 531.57 0.171569 -2.28557 0
M  V30 5511 C 532.583 0.845273 -1.39137 0
M  V30 5512 O 533.772 0.713033 -1.6364 0
M  V30 5513 C 530.872 1.26311 -3.14482 0
M  V30 5514 C 530.045 0.679258 -4.32094 0
M  V30 5515 C 529.104 1.65987 -4.99334 0
M  V30 5516 O 528.13 1.19171 -5.56585 0
M  V30 5517 N 529.332 2.99414 -4.97324 0
M  V30 5518 H 532.097 -0.536771 -2.94854 0
M  V30 5519 H 529.658 -0.431954 -1.56031 0
M  V30 5520 H 531.65 1.91863 -3.5633 0
M  V30 5521 H 530.22 1.87416 -2.50188 0
M  V30 5522 H 529.44 -0.153992 -3.93899 0
M  V30 5523 H 530.728 0.26916 -5.08088 0
M  V30 5524 H 530.126 3.40064 -4.52076 0
M  V30 5525 H 528.683 3.60426 -5.4308 0
M  V30 5526 N 532.116 1.54067 -0.331816 0
M  V30 5527 C 533.363 2.00715 0.268269 0
M  V30 5528 C 533.691 1.21986 1.51491 0
M  V30 5529 O 532.946 0.292309 1.93505 0
M  V30 5530 C 533.245 3.51634 0.639392 0
M  V30 5531 C 532.911 4.48018 -0.509019 0
M  V30 5532 C 531.573 4.74089 -0.824209 0
M  V30 5533 C 533.925 5.05237 -1.28003 0
M  V30 5534 C 531.253 5.54637 -1.91298 0
M  V30 5535 C 533.605 5.86972 -2.35895 0
M  V30 5536 C 532.269 6.11342 -2.67987 0
M  V30 5537 H 531.539 0.734469 0.0981667 0
M  V30 5538 H 534.186 1.8596 -0.457304 0
M  V30 5539 H 532.491 3.6416 1.44551 0
M  V30 5540 H 534.188 3.85175 1.11539 0
M  V30 5541 H 530.778 4.27851 -0.253287 0
M  V30 5542 H 534.962 4.8507 -1.04978 0
M  V30 5543 H 530.218 5.71747 -2.16599 0
M  V30 5544 H 534.392 6.30327 -2.96076 0
M  V30 5545 H 532.019 6.73544 -3.5248 0
M  V30 5546 N 533.594 0.0601682 1.57485 0
M  V30 5547 C 534.524 -0.90889 2.15085 0
M  V30 5548 C 535.505 -1.31838 1.07484 0
M  V30 5549 O 536.69 -1.3915 1.35466 0
M  V30 5550 C 533.82 -2.18059 2.7031 0
M  V30 5551 C 532.774 -1.91088 3.82974 0
M  V30 5552 C 532.1 -3.24789 4.24754 0
M  V30 5553 C 533.4 -1.22535 5.07723 0
M  V30 5554 H 535.094 -0.429093 2.96309 0
M  V30 5555 H 532.64 -0.204952 1.42534 0
M  V30 5556 H 534.593 -2.86258 3.09248 0
M  V30 5557 H 533.317 -2.6826 1.8629 0
M  V30 5558 H 531.976 -1.25297 3.44523 0
M  V30 5559 H 531.624 -3.72809 3.37672 0
M  V30 5560 H 531.324 -3.07538 5.00694 0
M  V30 5561 H 532.848 -3.94205 4.66299 0
M  V30 5562 H 534.262 -1.80783 5.4405 0
M  V30 5563 H 532.659 -1.1558 5.88864 0
M  V30 5564 H 533.729 -0.202692 4.84476 0
M  V30 5565 N 535.072 -1.5615 -0.213296 0
M  V30 5566 C 536.02 -1.93953 -1.28394 0
M  V30 5567 C 537.014 -0.822592 -1.48087 0
M  V30 5568 O 538.22 -1.00748 -1.49164 0
M  V30 5569 H 534.595 -0.61648 -0.430646 0
M  V30 5570 H 536.566 -2.83275 -0.937977 0
M  V30 5571 C 535.315 -2.27969 -2.62537 0
M  V30 5572 H 534.638 -3.13432 -2.48194 0
M  V30 5573 H 536.078 -2.58297 -3.36242 0
M  V30 5574 C 534.537 -1.10775 -3.18167 0
M  V30 5575 O 535.067 -0.373201 -3.99963 0
M  V30 5576 N 533.273 -0.889377 -2.76656 0
M  V30 5577 H 532.82 -1.48843 -2.10246 0
M  V30 5578 H 532.778 -0.107 -3.14218 0
M  V30 5579 N 536.55 0.480323 -1.50102 0
M  V30 5580 C 537.497 1.57946 -1.6829 0
M  V30 5581 C 538.467 1.57611 -0.524223 0
M  V30 5582 O 539.652 1.75282 -0.753709 0
M  V30 5583 C 536.792 2.95978 -1.77457 0
M  V30 5584 C 535.905 3.06173 -3.04766 0
M  V30 5585 C 535.04 4.35063 -3.04784 0
M  V30 5586 C 534.079 4.38966 -4.26586 0
M  V30 5587 N 533.216 5.59314 -4.24396 0
M  V30 5588 H 538.056 1.41743 -2.62131 0
M  V30 5589 H 535.593 0.689304 -1.2995 0
M  V30 5590 H 537.551 3.76011 -1.80752 0
M  V30 5591 H 536.181 3.10837 -0.870637 0
M  V30 5592 H 535.233 2.19071 -3.10986 0
M  V30 5593 H 536.545 3.04916 -3.9475 0
M  V30 5594 H 535.699 5.23436 -3.06757 0
M  V30 5595 H 534.438 4.38915 -2.12614 0
M  V30 5596 H 533.443 3.48992 -4.24835 0
M  V30 5597 H 534.668 4.36813 -5.19972 0
M  V30 5598 H 532.614 5.63969 -3.35074 0
M  V30 5599 H 532.531 5.5976 -5.08138 0
M  V30 5600 H 533.799 6.49837 -4.30502 0
M  V30 5601 N 538.028 1.39524 0.732853 0
M  V30 5602 C 538.961 1.32806 1.85574 0
M  V30 5603 C 539.939 0.201354 1.61348 0
M  V30 5604 O 541.123 0.38216 1.84585 0
M  V30 5605 C 538.25 1.06271 3.21596 0
M  V30 5606 C 537.296 2.21161 3.64678 0
M  V30 5607 S 538.129 3.83454 3.73796 0
M  V30 5608 C 539.285 3.59149 5.12604 0
M  V30 5609 H 539.518 2.27838 1.9099 0
M  V30 5610 H 537.051 1.25605 0.897927 0
M  V30 5611 H 539.009 0.916461 4.00139 0
M  V30 5612 H 537.67 0.129223 3.13834 0
M  V30 5613 H 536.863 1.98193 4.63396 0
M  V30 5614 H 536.465 2.32 2.93346 0
M  V30 5615 H 538.757 3.16547 5.99003 0
M  V30 5616 H 539.7 4.57335 5.40602 0
M  V30 5617 H 540.108 2.93203 4.82382 0
M  V30 5618 N 539.506 -0.963266 1.24736 0
M  V30 5619 C 540.469 -2.04013 1.04457 0
M  V30 5620 C 541.469 -1.608 0.000335555 0
M  V30 5621 O 542.659 -1.72515 0.241719 0
M  V30 5622 C 539.791 -3.35858 0.584162 0
M  V30 5623 H 540.984 -2.23436 2.00041 0
M  V30 5624 H 538.537 -1.13914 1.07021 0
M  V30 5625 H 539.272 -3.22128 -0.374673 0
M  V30 5626 H 539.057 -3.68568 1.3379 0
M  V30 5627 H 540.547 -4.1502 0.463451 0
M  V30 5628 N 540.985 -1.06182 -1.16461 0
M  V30 5629 C 542.233 -0.776326 -1.86595 0
M  V30 5630 C 542.554 0.69921 -1.82033 0
M  V30 5631 O 541.824 1.50579 -1.2531 0
M  V30 5632 H 540.404 -0.284184 -0.690832 0
M  V30 5633 H 543.066 -1.34308 -1.41235 0
M  V30 5634 H 542.162 -1.10022 -2.92064 0
M  V30 5635 N 542.463 1.3308 -0.844243 0
M  V30 5636 C 543.411 2.31028 -0.269954 0
M  V30 5637 C 544.405 1.58381 0.600997 0
M  V30 5638 O 545.611 1.73203 0.48996 0
M  V30 5639 H 541.986 0.748866 -0.0685782 0
M  V30 5640 H 543.957 2.76967 -1.11049 0
M  V30 5641 C 542.706 3.43549 0.535676 0
M  V30 5642 H 542.029 3.99604 -0.125202 0
M  V30 5643 H 543.469 4.14267 0.903262 0
M  V30 5644 C 541.928 2.8988 1.71672 0
M  V30 5645 O 542.458 2.86511 2.81557 0
M  V30 5646 N 540.664 2.46416 1.54037 0
M  V30 5647 H 540.211 2.49356 0.64649 0
M  V30 5648 H 540.169 2.1086 2.33207 0
M  V30 5649 N 543.941 0.601185 1.45683 0
M  V30 5650 C 544.851 -0.123395 2.34275 0
M  V30 5651 C 545.867 -0.86702 1.5086 0
M  V30 5652 O 547.043 -0.826049 1.8368 0
M  V30 5653 C 544.108 -1.11237 3.2837 0
M  V30 5654 C 543.169 -0.371405 4.2769 0
M  V30 5655 C 542.402 -1.31327 5.1729 0
M  V30 5656 O 542.625 -2.55078 5.10188 0
M  V30 5657 O 541.559 -0.813811 5.96373 0
M  V30 5658 H 545.385 0.604483 2.97623 0
M  V30 5659 H 542.97 0.361477 1.44961 0
M  V30 5660 H 544.852 -1.68214 3.8637 0
M  V30 5661 H 543.527 -1.82139 2.67595 0
M  V30 5662 H 542.434 0.24067 3.73325 0
M  V30 5663 H 543.767 0.296998 4.91303 0
M  V30 5664 N 545.419 -1.53889 0.339982 0
M  V30 5665 C 546.649 -2.04973 -0.258738 0
M  V30 5666 C 547.057 -1.21485 -1.45045 0
M  V30 5667 O 546.4 -0.2422 -1.82096 0
M  V30 5668 C 546.462 -3.51783 -0.740853 0
M  V30 5669 C 546.126 -4.55802 0.330734 0
M  V30 5670 C 547.123 -5.06512 1.17226 0
M  V30 5671 C 544.808 -4.99966 0.483637 0
M  V30 5672 C 546.802 -5.99963 2.15227 0
M  V30 5673 C 544.489 -5.93229 1.46704 0
M  V30 5674 C 545.487 -6.43115 2.29981 0
M  V30 5675 O 545.175 -7.34545 3.26649 0
M  V30 5676 H 544.907 -0.673807 -0.0544037 0
M  V30 5677 H 547.461 -1.99492 0.489107 0
M  V30 5678 H 545.691 -3.54717 -1.53988 0
M  V30 5679 H 547.38 -3.85857 -1.25973 0
M  V30 5680 H 548.146 -4.73158 1.0652 0
M  V30 5681 H 544.025 -4.6074 -0.15471 0
M  V30 5682 H 547.569 -6.38825 2.80265 0
M  V30 5683 H 543.466 -6.25998 1.57468 0
M  V30 5684 H 544.234 -7.52468 3.22078 0
M  V30 5685 N 546.897 -0.0685191 -1.57451 0
M  V30 5686 C 548.143 0.602239 -1.93652 0
M  V30 5687 C 548.476 1.6946 -0.948526 0
M  V30 5688 O 547.751 1.94487 0.022782 0
M  V30 5689 C 548.034 1.18223 -3.4014 0
M  V30 5690 C 547.887 0.0967431 -4.49696 0
M  V30 5691 C 549.206 2.08872 -3.87377 0
M  V30 5692 H 546.325 0.217453 -0.70419 0
M  V30 5693 H 548.967 -0.133821 -1.89528 0
M  V30 5694 H 547.117 1.80953 -3.43785 0
M  V30 5695 H 548.789 -0.536155 -4.58174 0
M  V30 5696 H 547.032 -0.573063 -4.29998 0
M  V30 5697 H 547.703 0.542894 -5.49324 0
M  V30 5698 H 550.179 1.56081 -3.85717 0
M  V30 5699 H 549.055 2.46389 -4.90493 0
M  V30 5700 H 549.316 2.99572 -3.25129 0
M  V30 5701 N 548.375 1.56261 0.205012 0
M  V30 5702 C 549.623 1.79684 0.925096 0
M  V30 5703 C 549.944 0.63989 1.84202 0
M  V30 5704 O 549.214 -0.342345 1.92885 0
M  V30 5705 H 547.794 0.662774 0.344587 0
M  V30 5706 H 550.456 1.93734 0.212899 0
M  V30 5707 H 549.552 2.72467 1.52211 0
M  V30 5708 N 549.853 -0.472356 1.50355 0
M  V30 5709 C 551.1 -1.22453 1.61281 0
M  V30 5710 C 551.428 -1.91972 0.31256 0
M  V30 5711 O 550.683 -1.82696 -0.701475 0
M  V30 5712 C 550.982 -2.29257 2.74182 0
M  V30 5713 C 550.648 -1.76999 4.14708 0
M  V30 5714 C 549.31 -1.62467 4.52944 0
M  V30 5715 C 551.662 -1.38215 5.0254 0
M  V30 5716 C 548.99 -1.07574 5.76754 0
M  V30 5717 C 551.342 -0.847638 6.26895 0
M  V30 5718 C 550.006 -0.688946 6.63935 0
M  V30 5719 H 549.276 -0.448087 0.590168 0
M  V30 5720 H 551.923 -0.520744 1.84284 0
M  V30 5721 H 550.228 -3.05538 2.45263 0
M  V30 5722 H 551.925 -2.87212 2.7984 0
M  V30 5723 H 548.515 -1.89276 3.84542 0
M  V30 5724 H 552.699 -1.48276 4.73633 0
M  V30 5725 H 547.955 -0.940237 6.04127 0
M  V30 5726 H 552.129 -0.538455 6.94315 0
M  V30 5727 H 549.756 -0.261435 7.5975 0
M  V30 5728 N 551.331 -1.39911 -0.725443 0
M  V30 5729 C 552.556 -1.41137 -1.5197 0
M  V30 5730 C 552.981 -0.010262 -1.88097 0
M  V30 5731 O 552.339 0.979184 -1.52583 0
M  V30 5732 C 552.387 -2.2994 -2.77777 0
M  V30 5733 O 551.491 -1.73586 -3.74088 0
M  V30 5734 H 550.832 -0.480219 -0.458569 0
M  V30 5735 H 553.362 -1.84023 -0.894249 0
M  V30 5736 H 553.372 -2.44785 -3.26411 0
M  V30 5737 H 552.047 -3.31759 -2.50816 0
M  V30 5738 H 550.624 -1.68035 -3.32894 0
M  V30 5739 N 552.809 0.956637 -1.25245 0
M  V30 5740 C 553.757 2.0743 -1.0524 0
M  V30 5741 C 554.751 1.69392 0.0160725 0
M  V30 5742 O 555.957 1.7946 -0.139382 0
M  V30 5743 H 552.332 0.678921 -0.323373 0
M  V30 5744 H 554.303 2.2146 -1.99995 0
M  V30 5745 C 553.052 3.40872 -0.685702 0
M  V30 5746 H 552.375 3.70607 -1.49968 0
M  V30 5747 H 553.815 4.19939 -0.585415 0
M  V30 5748 C 552.274 3.31367 0.608082 0
M  V30 5749 O 552.804 3.66214 1.65076 0
M  V30 5750 N 551.01 2.84486 0.592955 0
M  V30 5751 H 550.557 2.56326 -0.25592 0
M  V30 5752 H 550.515 2.78509 1.45877 0
M  V30 5753 N 554.287 1.06798 1.15896 0
M  V30 5754 C 555.25 0.687328 2.18651 0
M  V30 5755 C 556.25 -0.269559 1.58524 0
M  V30 5756 O 557.44 -0.0512627 1.74125 0
M  V30 5757 C 554.572 0.0121642 3.40898 0
M  V30 5758 H 555.765 1.59701 2.53842 0
M  V30 5759 H 553.318 0.863828 1.3026 0
M  V30 5760 H 554.053 -0.910025 3.1127 0
M  V30 5761 H 553.838 0.700309 3.85795 0
M  V30 5762 H 555.328 -0.239703 4.16911 0
M  V30 5763 N 555.766 -1.3263 0.851289 0
M  V30 5764 C 556.994 -2.01563 0.466899 0
M  V30 5765 C 557.409 -1.63996 -0.935447 0
M  V30 5766 O 556.766 -0.85957 -1.6099 0
M  V30 5767 C 556.817 -3.56613 0.592433 0
M  V30 5768 O 556.538 -3.92828 1.93954 0
M  V30 5769 C 558.039 -4.42818 0.206612 0
M  V30 5770 H 555.259 -0.645307 0.183902 0
M  V30 5771 H 557.803 -1.69285 1.1473 0
M  V30 5772 H 555.958 -3.87379 -0.0401936 0
M  V30 5773 H 556.372 -4.87545 1.9339 0
M  V30 5774 H 557.846 -5.50918 0.345462 0
M  V30 5775 H 558.323 -4.30844 -0.85264 0
M  V30 5776 H 558.929 -4.17434 0.814176 0
M  V30 5777 N 557.244 -0.608902 -1.45362 0
M  V30 5778 C 558.491 -0.104607 -2.0223 0
M  V30 5779 C 558.819 1.26534 -1.47714 0
M  V30 5780 O 558.074 1.84855 -0.642435 0
M  V30 5781 C 558.373 -0.0167296 -3.57396 0
M  V30 5782 C 558.039 -1.32251 -4.31069 0
M  V30 5783 C 556.701 -1.68019 -4.50914 0
M  V30 5784 C 559.053 -2.18542 -4.73169 0
M  V30 5785 C 556.381 -2.89828 -5.10114 0
M  V30 5786 C 558.733 -3.39602 -5.33717 0
M  V30 5787 C 557.397 -3.7562 -5.51784 0
M  V30 5788 H 556.667 -0.0382785 -0.740011 0
M  V30 5789 H 559.314 -0.790782 -1.7441 0
M  V30 5790 H 557.619 0.752715 -3.84502 0
M  V30 5791 H 559.316 0.389634 -3.99103 0
M  V30 5792 H 555.906 -1.03411 -4.15938 0
M  V30 5793 H 560.09 -1.92208 -4.5757 0
M  V30 5794 H 555.346 -3.17839 -5.22291 0
M  V30 5795 H 559.52 -4.06716 -5.65292 0
M  V30 5796 H 557.147 -4.70093 -5.97425 0
M  V30 5797 N 558.722 1.53707 -0.348139 0
M  V30 5798 C 559.654 2.22725 0.540946 0
M  V30 5799 C 560.667 1.2354 1.06027 0
M  V30 5800 O 561.856 1.49867 0.96964 0
M  V30 5801 C 558.956 2.89756 1.75768 0
M  V30 5802 C 558.129 4.15297 1.37285 0
M  V30 5803 C 557.188 4.65697 2.44976 0
M  V30 5804 O 556.214 5.29798 2.08092 0
M  V30 5805 N 557.416 4.42017 3.763 0
M  V30 5806 H 560.181 2.99658 -0.0501592 0
M  V30 5807 H 557.742 1.60979 -0.17248 0
M  V30 5808 H 559.734 3.20388 2.47252 0
M  V30 5809 H 558.304 2.16382 2.25605 0
M  V30 5810 H 557.524 3.9116 0.488584 0
M  V30 5811 H 558.812 4.96948 1.09179 0
M  V30 5812 H 558.21 3.9076 4.09051 0
M  V30 5813 H 556.767 4.77242 4.4394 0
M  V30 5814 N 560.2 0.0768682 1.57412 0
M  V30 5815 C 561.425 -0.603404 1.98428 0
M  V30 5816 C 561.85 -1.62047 0.955108 0
M  V30 5817 O 561.208 -1.81129 -0.0786778 0
M  V30 5818 C 561.256 -1.24396 3.38464 0
M  V30 5819 O 560.36 -2.35982 3.3821 0
M  V30 5820 H 559.701 -0.154741 0.645718 0
M  V30 5821 H 562.231 0.152885 2.04028 0
M  V30 5822 H 562.241 -1.5896 3.7576 0
M  V30 5823 H 560.916 -0.498735 4.12899 0
M  V30 5824 H 559.493 -2.03173 3.1269 0
M  V30 5825 N 561.678 -1.56367 -0.196722 0
M  V30 5826 C 562.588 -1.97617 -1.2643 0
M  V30 5827 C 563.604 -0.883598 -1.49895 0
M  V30 5828 O 564.78 -1.18921 -1.62541 0
M  V30 5829 C 561.845 -2.30595 -2.58895 0
M  V30 5830 C 560.906 -3.53551 -2.43516 0
M  V30 5831 C 560.139 -3.84946 -3.69665 0
M  V30 5832 O 560.362 -3.17655 -4.73763 0
M  V30 5833 O 559.296 -4.78379 -3.65291 0
M  V30 5834 H 563.122 -2.88648 -0.944233 0
M  V30 5835 H 560.707 -1.43901 -0.401592 0
M  V30 5836 H 562.589 -2.52889 -3.37083 0
M  V30 5837 H 561.264 -1.42732 -2.90533 0
M  V30 5838 H 560.171 -3.36507 -1.63445 0
M  V30 5839 H 561.504 -4.41875 -2.16812 0
M  V30 5840 N 563.156 0.464375 -1.50603 0
M  V30 5841 C 564.572 0.798684 -1.38178 0
M  V30 5842 C 564.772 1.96568 -0.44308 0
M  V30 5843 O 563.828 2.52252 0.111814 0
M  V30 5844 C 565.141 1.10444 -2.79683 0
M  V30 5845 C 566.689 1.2105 -2.88645 0
M  V30 5846 C 567.164 1.54934 -4.30998 0
M  V30 5847 N 568.655 1.61913 -4.3398 0
M  V30 5848 C 569.39 1.8965 -5.41129 0
M  V30 5849 N 568.886 2.15361 -6.58477 0
M  V30 5850 N 570.679 1.91207 -5.28579 0
M  V30 5851 H 562.83 -0.304603 -2.10204 0
M  V30 5852 H 565.093 -0.0737804 -0.945125 0
M  V30 5853 H 564.799 0.319934 -3.50242 0
M  V30 5854 H 564.673 2.03896 -3.17342 0
M  V30 5855 H 567.06 1.98567 -2.18301 0
M  V30 5856 H 567.141 0.255613 -2.5452 0
M  V30 5857 H 566.785 0.779549 -5.01882 0
M  V30 5858 H 566.715 2.51584 -4.62615 0
M  V30 5859 H 569.206 1.44055 -3.49366 0
M  V30 5860 H 569.519 2.35818 -7.35941 0
M  V30 5861 H 567.864 2.1274 -6.6164 0
M  V30 5862 H 571.055 1.70622 -4.35897 0
M  V30 5863 H 571.228 2.12488 -6.12171 0
M  V30 5864 N 564.634 1.40294 0.718013 0
M  V30 5865 C 565.544 1.42678 1.86226 0
M  V30 5866 C 566.56 0.319655 1.71039 0
M  V30 5867 O 567.736 0.563852 1.93346 0
M  V30 5868 C 564.801 1.2852 3.21999 0
M  V30 5869 C 563.862 2.49354 3.49458 0
M  V30 5870 C 563.095 2.35863 4.78753 0
M  V30 5871 O 563.318 1.37114 5.53675 0
M  V30 5872 O 562.252 3.25189 5.06494 0
M  V30 5873 H 566.078 2.39167 1.87171 0
M  V30 5874 H 563.663 1.2159 0.868112 0
M  V30 5875 H 565.545 1.22824 4.03103 0
M  V30 5876 H 564.22 0.351359 3.21787 0
M  V30 5877 H 563.127 2.60628 2.68373 0
M  V30 5878 H 564.46 3.41491 3.54464 0
M  V30 5879 N 566.112 -0.949982 1.2575 0
M  V30 5880 C 567.337 -1.73503 1.13628 0
M  V30 5881 C 567.762 -1.85601 -0.30559 0
M  V30 5882 O 567.12 -1.33984 -1.22139 0
M  V30 5883 C 567.168 -3.1243 1.80055 0
M  V30 5884 O 566.272 -3.97916 1.08336 0
M  V30 5885 H 565.613 -0.532665 0.396439 0
M  V30 5886 H 568.143 -1.19043 1.66403 0
M  V30 5887 H 568.153 -3.62866 1.86527 0
M  V30 5888 H 566.828 -3.02941 2.84956 0
M  V30 5889 H 565.405 -3.56375 1.09777 0
M  V30 5890 N 567.59 -1.07411 -1.15328 0
M  V30 5891 C 568.838 -0.796073 -1.85761 0
M  V30 5892 C 569.159 0.679864 -1.82764 0
M  V30 5893 O 568.429 1.49242 -1.269 0
M  V30 5894 H 567.009 -0.291495 -0.687779 0
M  V30 5895 H 569.671 -1.35799 -1.39802 0
M  V30 5896 H 568.767 -1.13114 -2.90881 0
M  V30 5897 N 569.068 1.32177 -0.85831 0
M  V30 5898 C 570.345 1.91781 -0.384624 0
M  V30 5899 C 570.725 1.78171 1.13217 0
M  V30 5900 O 570.073 1.18209 1.95548 0
M  V30 5901 C 570.283 3.38414 -0.853047 0
M  V30 5902 C 571.631 4.15542 -0.872359 0
M  V30 5903 O 572.655 3.47148 -0.797926 0
M  V30 5904 O 571.514 5.37678 -0.978009 0
M  V30 5905 H 568.608 0.819259 -0.112886 0
M  V30 5906 H 571.154 1.40923 -0.945453 0
M  V30 5907 H 569.926 3.4228 -1.89632 0
M  V30 5908 H 569.549 3.96683 -0.269874 0
M  V30 5909 N 570.547 0.616602 1.45037 0
M  V30 5910 C 571.963 0.280994 1.57107 0
M  V30 5911 C 572.163 -1.21627 1.60653 0
M  V30 5912 O 571.219 -1.9997 1.54169 0
M  V30 5913 C 572.532 0.960116 2.8496 0
M  V30 5914 C 574.08 0.936884 2.98649 0
M  V30 5915 C 574.555 1.59619 4.29285 0
M  V30 5916 N 576.046 1.5621 4.36065 0
M  V30 5917 C 576.781 2.04131 5.35834 0
M  V30 5918 N 576.277 2.60177 6.4209 0
M  V30 5919 N 578.07 1.94845 5.27249 0
M  V30 5920 H 570.221 1.58867 1.40979 0
M  V30 5921 H 572.484 0.666024 0.674623 0
M  V30 5922 H 572.19 2.01473 2.88273 0
M  V30 5923 H 572.064 0.488921 3.74018 0
M  V30 5924 H 574.451 -0.109209 2.94898 0
M  V30 5925 H 574.532 1.44643 2.10979 0
M  V30 5926 H 574.176 2.64166 4.33796 0
M  V30 5927 H 574.106 1.06159 5.15789 0
M  V30 5928 H 576.597 1.15276 3.59889 0
M  V30 5929 H 576.91 2.94513 7.1448 0
M  V30 5930 H 575.255 2.64221 6.42816 0
M  V30 5931 H 578.446 1.50792 4.43147 0
M  V30 5932 H 578.619 2.32504 6.04852 0
M  V30 5933 N 572.025 -1.5352 0.356285 0
M  V30 5934 C 572.973 -2.26945 -0.50978 0
M  V30 5935 C 573.967 -1.29569 -1.09125 0
M  V30 5936 O 575.173 -1.47231 -1.03552 0
M  V30 5937 H 571.548 -0.729368 -0.183102 0
M  V30 5938 H 573.519 -2.98111 0.131374 0
M  V30 5939 C 572.268 -3.06466 -1.64237 0
M  V30 5940 H 571.591 -3.81233 -1.20423 0
M  V30 5941 H 573.031 -3.61035 -2.22327 0
M  V30 5942 C 571.49 -2.16737 -2.57928 0
M  V30 5943 O 572.02 -1.77195 -3.60507 0
M  V30 5944 N 570.226 -1.81558 -2.26903 0
M  V30 5945 H 569.773 -2.13913 -1.43524 0
M  V30 5946 H 569.731 -1.21806 -2.89846 0
M  V30 5947 N 573.503 -0.0852151 -1.57369 0
M  V30 5948 C 574.75 0.580806 -1.93992 0
M  V30 5949 C 575.078 1.68801 -0.966252 0
M  V30 5950 O 574.333 1.95694 0.0158649 0
M  V30 5951 C 574.632 1.18482 -3.3719 0
M  V30 5952 C 574.298 0.2024 -4.50446 0
M  V30 5953 C 572.96 -0.0678318 -4.81152 0
M  V30 5954 C 575.312 -0.46895 -5.19086 0
M  V30 5955 C 572.64 -1.01627 -5.77831 0
M  V30 5956 C 574.992 -1.4058 -6.16782 0
M  V30 5957 C 573.656 -1.68436 -6.45899 0
M  V30 5958 H 572.926 0.212532 -0.709867 0
M  V30 5959 H 575.573 -0.158947 -1.90839 0
M  V30 5960 H 573.878 2.0006 -3.36873 0
M  V30 5961 H 575.575 1.70767 -3.62822 0
M  V30 5962 H 572.165 0.423208 -4.26505 0
M  V30 5963 H 576.349 -0.273307 -4.95547 0
M  V30 5964 H 571.605 -1.2392 -5.9871 0
M  V30 5965 H 575.779 -1.93188 -6.69068 0
M  V30 5966 H 573.406 -2.42088 -7.20623 0
M  V30 5967 N 574.981 1.5647 0.188427 0
M  V30 5968 C 575.944 1.9421 1.21718 0
M  V30 5969 C 576.944 0.823901 1.38089 0
M  V30 5970 O 578.134 1.09122 1.35787 0
M  V30 5971 C 575.266 2.22197 2.58537 0
M  V30 5972 H 576.459 2.86252 0.894418 0
M  V30 5973 H 574.012 1.50263 0.430211 0
M  V30 5974 H 574.747 1.32814 2.95856 0
M  V30 5975 H 574.532 3.03688 2.48025 0
M  V30 5976 H 576.022 2.52376 3.3271 0
M  V30 5977 N 576.459 -0.456382 1.50847 0
M  V30 5978 C 577.708 -1.2042 1.61808 0
M  V30 5979 C 578.021 -1.9278 0.330932 0
M  V30 5980 O 579.227 -2.69612 0.319643 0
M  V30 5981 C 577.683 -2.18891 2.85683 0
M  V30 5982 C 577.291 -1.52267 4.2133 0
M  V30 5983 C 579.035 -2.94224 3.05994 0
M  V30 5984 C 576.942 -2.4911 5.36375 0
M  V30 5985 H 575.872 -0.453177 0.602616 0
M  V30 5986 H 578.523 -0.473144 1.77295 0
M  V30 5987 H 576.905 -2.95351 2.63787 0
M  V30 5988 H 578.079 -0.814949 4.53536 0
M  V30 5989 H 576.394 -0.891594 4.06743 0
M  V30 5990 H 578.991 -3.66732 3.89117 0
M  V30 5991 H 579.334 -3.54469 2.18306 0
M  V30 5992 H 579.867 -2.24874 3.28141 0
M  V30 5993 H 576.606 -1.93582 6.26264 0
M  V30 5994 H 576.126 -3.17991 5.08569 0
M  V30 5995 H 577.805 -3.10637 5.67551 0
M  V30 5996 N 577.937 -1.40673 -0.710563 0
M  V30 5997 C 579.185 -1.38947 -1.46759 0
M  V30 5998 C 579.506 0.00572879 -1.94999 0
M  V30 5999 O 578.776 0.961358 -1.70689 0
M  V30 6000 H 577.356 -0.5114 -0.544499 0
M  V30 6001 H 580.018 -1.75773 -0.842012 0
M  V30 6002 H 579.114 -2.06745 -2.33801 0
M  V30 6003 N 579.415 0.9433 -1.26252 0
M  V30 6004 C 580.645 1.72117 -1.14277 0
M  V30 6005 C 581.053 1.86726 0.304944 0
M  V30 6006 O 580.396 1.3727 1.22076 0
M  V30 6007 C 580.458 3.14778 -1.73651 0
M  V30 6008 C 580.122 3.23561 -3.22734 0
M  V30 6009 C 581.119 3.07001 -4.19579 0
M  V30 6010 C 578.804 3.47019 -3.63157 0
M  V30 6011 C 580.798 3.13763 -5.54826 0
M  V30 6012 C 578.485 3.53416 -4.98538 0
M  V30 6013 C 579.483 3.36804 -5.94182 0
M  V30 6014 O 579.171 3.42906 -7.27098 0
M  V30 6015 H 578.903 0.545781 -0.398873 0
M  V30 6016 H 581.457 1.19123 -1.67328 0
M  V30 6017 H 579.687 3.69186 -1.1506 0
M  V30 6018 H 581.376 3.74469 -1.56613 0
M  V30 6019 H 582.142 2.88736 -3.89688 0
M  V30 6020 H 578.021 3.59006 -2.89199 0
M  V30 6021 H 581.565 3.00714 -6.29458 0
M  V30 6022 H 577.462 3.71201 -5.28091 0
M  V30 6023 H 578.23 3.59463 -7.35342 0
M  V30 6024 N 580.893 1.08022 1.14757 0
M  V30 6025 C 582.123 0.827646 1.89298 0
M  V30 6026 C 582.531 -0.623506 1.78631 0
M  V30 6027 O 581.874 -1.43991 1.14071 0
M  V30 6028 C 581.936 1.16553 3.40082 0
M  V30 6029 C 581.6 2.61866 3.74533 0
M  V30 6030 C 582.597 3.60116 3.74984 0
M  V30 6031 C 580.282 2.97619 4.04633 0
M  V30 6032 C 582.276 4.92151 4.05051 0
M  V30 6033 C 579.963 4.2985 4.34364 0
M  V30 6034 C 580.961 5.26926 4.34555 0
M  V30 6035 O 580.649 6.5678 4.63568 0
M  V30 6036 H 580.381 0.298396 0.606577 0
M  V30 6037 H 582.935 1.44187 1.46285 0
M  V30 6038 H 581.165 0.494296 3.83528 0
M  V30 6039 H 582.854 0.894407 3.95923 0
M  V30 6040 H 583.62 3.33837 3.51821 0
M  V30 6041 H 579.499 2.22702 4.03639 0
M  V30 6042 H 583.043 5.67915 4.05115 0
M  V30 6043 H 578.94 4.55879 4.56995 0
M  V30 6044 H 579.708 6.62035 4.81303 0
M  V30 6045 N 582.371 -1.3172 0.865308 0
M  V30 6046 C 583.301 -2.31109 0.333302 0
M  V30 6047 C 584.282 -1.60148 -0.573301 0
M  V30 6048 O 585.467 -1.87882 -0.491305 0
M  V30 6049 C 582.597 -3.44104 -0.470078 0
M  V30 6050 C 581.551 -4.26623 0.343021 0
M  V30 6051 C 580.877 -5.31482 -0.585756 0
M  V30 6052 C 582.177 -4.98001 1.57456 0
M  V30 6053 H 583.871 -2.75855 1.1638 0
M  V30 6054 H 581.417 -1.3262 0.561069 0
M  V30 6055 H 583.37 -4.12682 -0.852752 0
M  V30 6056 H 582.094 -2.98112 -1.33404 0
M  V30 6057 H 580.753 -3.59707 0.707583 0
M  V30 6058 H 580.401 -4.81741 -1.44686 0
M  V30 6059 H 580.101 -5.87582 -0.0456494 0
M  V30 6060 H 581.625 -6.0292 -0.965375 0
M  V30 6061 H 583.039 -5.59201 1.26359 0
M  V30 6062 H 581.436 -5.63876 2.05339 0
M  V30 6063 H 582.506 -4.25253 2.32997 0
M  V30 6064 N 583.85 -0.624285 -1.44708 0
M  V30 6065 C 584.797 0.0847135 -2.30644 0
M  V30 6066 C 585.767 0.843575 -1.43084 0
M  V30 6067 O 586.952 0.825982 -1.71995 0
M  V30 6068 C 584.091 1.06495 -3.28257 0
M  V30 6069 C 583.205 0.305224 -4.3092 0
M  V30 6070 C 582.34 1.27667 -5.1563 0
M  V30 6071 C 581.379 0.505706 -6.10007 0
M  V30 6072 N 580.516 1.42727 -6.8744 0
M  V30 6073 H 585.356 -0.654068 -2.90733 0
M  V30 6074 H 582.893 -0.334334 -1.4325 0
M  V30 6075 H 584.851 1.64658 -3.83332 0
M  V30 6076 H 583.481 1.77094 -2.69884 0
M  V30 6077 H 582.533 -0.392207 -3.78373 0
M  V30 6078 H 583.845 -0.295553 -4.97924 0
M  V30 6079 H 582.999 1.92984 -5.75189 0
M  V30 6080 H 581.738 1.91137 -4.48685 0
M  V30 6081 H 580.743 -0.160999 -5.49564 0
M  V30 6082 H 581.968 -0.124183 -6.78986 0
M  V30 6083 H 579.913 2.04931 -6.23169 0
M  V30 6084 H 579.831 0.880345 -7.50857 0
M  V30 6085 H 581.099 2.0695 -7.51526 0
M  V30 6086 N 585.328 1.53329 -0.364422 0
M  V30 6087 C 586.238 2.29414 0.490552 0
M  V30 6088 C 587.254 1.35335 1.09363 0
M  V30 6089 O 588.43 1.68391 1.10483 0
M  V30 6090 C 585.495 3.06772 1.61529 0
M  V30 6091 C 584.556 4.16516 1.03986 0
M  V30 6092 C 583.789 4.90176 2.111 0
M  V30 6093 O 584.012 4.63687 3.32191 0
M  V30 6094 O 582.946 5.76134 1.74222 0
M  V30 6095 H 586.772 3.03428 -0.12856 0
M  V30 6096 H 584.357 1.48843 -0.128837 0
M  V30 6097 H 586.239 3.55082 2.26924 0
M  V30 6098 H 584.914 2.35596 2.21983 0
M  V30 6099 H 583.821 3.7246 0.349856 0
M  V30 6100 H 585.154 4.89855 0.4799 0
M  V30 6101 N 586.806 0.0935595 1.57322 0
M  V30 6102 C 587.753 -0.865935 2.1394 0
M  V30 6103 C 588.723 -1.28083 1.05754 0
M  V30 6104 O 589.908 -1.36285 1.33533 0
M  V30 6105 C 587.048 -2.12023 2.72287 0
M  V30 6106 C 586.161 -1.756 3.94701 0
M  V30 6107 C 585.296 -2.95804 4.41218 0
M  V30 6108 C 584.335 -2.555 5.56225 0
M  V30 6109 N 583.472 -3.68534 5.97601 0
M  V30 6110 H 588.312 -0.376261 2.95615 0
M  V30 6111 H 585.849 -0.174052 1.46067 0
M  V30 6112 H 587.807 -2.85477 3.04235 0
M  V30 6113 H 586.437 -2.58492 1.93343 0
M  V30 6114 H 585.489 -0.921208 3.69077 0
M  V30 6115 H 586.801 -1.41964 4.78171 0
M  V30 6116 H 585.955 -3.77513 4.74941 0
M  V30 6117 H 584.694 -3.32649 3.56645 0
M  V30 6118 H 583.699 -1.72218 5.22131 0
M  V30 6119 H 584.924 -2.19801 6.42545 0
M  V30 6120 H 582.87 -4.051 5.15974 0
M  V30 6121 H 582.787 -3.38737 6.75865 0
M  V30 6122 H 584.055 -4.50757 6.35955 0
M  V30 6123 N 588.284 -1.56567 -0.180126 0
M  V30 6124 C 589.231 -1.95725 -1.22313 0
M  V30 6125 C 590.201 -0.819911 -1.44453 0
M  V30 6126 O 591.386 -1.07931 -1.57339 0
M  V30 6127 C 588.526 -2.31484 -2.55947 0
M  V30 6128 C 587.639 -3.58354 -2.4126 0
M  V30 6129 C 586.774 -3.83366 -3.67701 0
M  V30 6130 C 585.813 -5.03612 -3.47909 0
M  V30 6131 N 584.95 -5.24802 -4.66398 0
M  V30 6132 H 589.79 -2.84642 -0.882198 0
M  V30 6133 H 587.327 -1.4085 -0.42422 0
M  V30 6134 H 589.285 -2.50237 -3.33822 0
M  V30 6135 H 587.915 -1.45689 -2.88053 0
M  V30 6136 H 586.967 -3.47565 -1.54606 0
M  V30 6137 H 588.279 -4.46386 -2.22577 0
M  V30 6138 H 587.433 -4.02439 -4.54013 0
M  V30 6139 H 586.172 -2.93692 -3.89353 0
M  V30 6140 H 585.177 -4.84447 -2.59983 0
M  V30 6141 H 586.402 -5.94809 -3.27688 0
M  V30 6142 H 584.348 -4.38079 -4.88286 0
M  V30 6143 H 584.265 -6.07041 -4.50596 0
M  V30 6144 H 585.533 -5.48346 -5.54019 0
M  V30 6145 N 589.762 0.448376 -1.51087 0
M  V30 6146 C 591.002 1.20832 -1.64861 0
M  V30 6147 C 591.366 1.88748 -0.351873 0
M  V30 6148 O 592.567 2.66307 -0.365265 0
M  V30 6149 C 590.838 2.20674 -2.81137 0
M  V30 6150 S 592.397 3.05303 -3.15176 0
M  V30 6151 H 589.215 0.40992 -0.580936 0
M  V30 6152 H 591.817 0.501624 -1.88955 0
M  V30 6153 H 590.521 1.69399 -3.73808 0
M  V30 6154 H 590.052 2.9594 -2.59198 0
M  V30 6155 H 592.067 4.22162 -2.60756 0
M  V30 6156 N 591.24 1.41047 0.703093 0
M  V30 6157 C 592.487 1.4 1.46309 0
M  V30 6158 C 592.815 0.00654574 1.94499 0
M  V30 6159 O 592.07 -0.980255 1.6938 0
M  V30 6160 C 592.369 2.34686 2.6955 0
M  V30 6161 C 592.035 3.81684 2.40058 0
M  V30 6162 C 590.697 4.21731 2.31725 0
M  V30 6163 C 593.049 4.74525 2.15581 0
M  V30 6164 C 590.377 5.52637 1.97001 0
M  V30 6165 C 592.729 6.05744 1.82366 0
M  V30 6166 C 591.393 6.44819 1.72524 0
M  V30 6167 H 590.663 0.512295 0.535382 0
M  V30 6168 H 593.31 1.73792 0.804275 0
M  V30 6169 H 591.615 1.94122 3.40329 0
M  V30 6170 H 593.312 2.31152 3.27673 0
M  V30 6171 H 589.902 3.49963 2.47435 0
M  V30 6172 H 594.086 4.44395 2.20968 0
M  V30 6173 H 589.342 5.81802 1.87928 0
M  V30 6174 H 593.516 6.77189 1.62444 0
M  V30 6175 H 591.143 7.46168 1.45385 0
M  V30 6176 N 592.718 -0.936591 1.26751 0
M  V30 6177 C 594.129 -1.49816 1.1141 0
M  V30 6178 C 594.48 -1.9383 -0.304015 0
M  V30 6179 O 593.605 -1.80346 -1.196 0
M  V30 6180 C 594.2 -2.72271 2.01629 0
M  V30 6181 C 592.759 -3.2468 1.9042 0
M  V30 6182 C 591.906 -1.97444 1.94708 0
M  V30 6183 H 594.857 -0.751604 1.39773 0
M  V30 6184 H 594.878 -3.46741 1.56688 0
M  V30 6185 H 594.39 -2.40205 3.04833 0
M  V30 6186 H 592.491 -3.61525 0.901674 0
M  V30 6187 H 592.604 -3.91476 2.76195 0
M  V30 6188 H 590.968 -2.13545 1.38818 0
M  V30 6189 H 591.751 -1.67703 2.9955 0
M  V30 6190 N 594.196 -1.08629 -1.14182 0
M  V30 6191 C 595.106 -0.730126 -2.22949 0
M  V30 6192 C 596.122 0.26436 -1.7198 0
M  V30 6193 O 597.298 0.107742 -2.01112 0
M  V30 6194 C 594.363 -0.147227 -3.46387 0
M  V30 6195 C 593.424 -1.19662 -4.12286 0
M  V30 6196 C 592.657 -0.641437 -5.29831 0
M  V30 6197 O 592.88 0.538351 -5.67854 0
M  V30 6198 O 591.814 -1.39257 -5.85569 0
M  V30 6199 H 595.64 -1.63753 -2.55771 0
M  V30 6200 H 593.225 -0.860118 -1.22157 0
M  V30 6201 H 595.107 0.174923 -4.21037 0
M  V30 6202 H 593.782 0.733304 -3.15285 0
M  V30 6203 H 592.689 -1.57133 -3.395 0
M  V30 6204 H 594.022 -2.0495 -4.475 0
M  V30 6205 N 595.674 1.31259 -0.872281 0
M  V30 6206 C 596.922 1.96233 -0.483409 0
M  V30 6207 C 597.243 1.69276 0.968012 0
M  V30 6208 O 596.513 1.00943 1.67891 0
M  V30 6209 H 595.093 0.726025 -0.175774 0
M  V30 6210 H 597.755 1.60024 -1.11258 0
M  V30 6211 H 596.851 3.05403 -0.643075 0
M  V30 6212 N 597.152 0.631951 1.44375 0
M  V30 6213 C 598.38 0.143867 2.06399 0
M  V30 6214 C 598.795 -1.18188 1.47231 0
M  V30 6215 O 598.152 -1.72511 0.595498 0
M  V30 6216 C 598.203 0.0238253 3.61492 0
M  V30 6217 O 597.924 1.29715 4.18456 0
M  V30 6218 C 599.425 -0.492856 4.40552 0
M  V30 6219 H 596.645 0.0800542 0.666207 0
M  V30 6220 H 599.189 0.866586 1.85231 0
M  V30 6221 H 597.344 -0.649338 3.81919 0
M  V30 6222 H 597.758 1.14252 5.11905 0
M  V30 6223 H 599.232 -0.525861 5.49489 0
M  V30 6224 H 599.709 -1.52006 4.12057 0
M  V30 6225 H 600.315 0.147085 4.25046 0
M  V30 6226 N 598.631 -1.53133 0.372548 0
M  V30 6227 C 599.908 -1.93704 -0.271693 0
M  V30 6228 C 600.288 -1.30667 -1.65799 0
M  V30 6229 O 599.636 -0.46838 -2.23648 0
M  V30 6230 C 599.846 -3.47576 -0.314903 0
M  V30 6231 C 601.194 -4.20998 -0.551912 0
M  V30 6232 O 602.218 -3.53994 -0.39582 0
M  V30 6233 O 601.077 -5.39748 -0.85639 0
M  V30 6234 H 598.171 -0.810457 -0.164586 0
M  V30 6235 H 600.717 -1.6427 0.425838 0
M  V30 6236 H 599.489 -3.85749 0.656792 0
M  V30 6237 H 599.112 -3.83264 -1.05804 0
M  V30 6238 N 600.109 -0.101901 -1.5727 0
M  V30 6239 C 601.042 0.891377 -2.10071 0
M  V30 6240 C 602.02 1.27197 -1.01291 0
M  V30 6241 O 603.204 1.37602 -1.28833 0
M  V30 6242 C 600.331 2.19049 -2.58331 0
M  V30 6243 C 599.377 1.95925 -3.78834 0
M  V30 6244 S 600.21 1.19106 -5.22086 0
M  V30 6245 C 601.366 2.50234 -5.73702 0
M  V30 6246 H 601.599 0.442212 -2.93993 0
M  V30 6247 H 599.132 0.111529 -1.53997 0
M  V30 6248 H 601.09 2.937 -2.86793 0
M  V30 6249 H 599.751 2.61086 -1.74622 0
M  V30 6250 H 598.944 2.92143 -4.10693 0
M  V30 6251 H 598.546 1.29401 -3.50901 0
M  V30 6252 H 600.838 3.46173 -5.82384 0
M  V30 6253 H 601.781 2.22944 -6.72088 0
M  V30 6254 H 602.189 2.58818 -5.01671 0
M  V30 6255 N 601.587 1.56661 0.17182 0
M  V30 6256 C 602.833 1.82235 0.889845 0
M  V30 6257 C 603.166 0.679673 1.81918 0
M  V30 6258 O 602.441 -0.318404 1.91876 0
M  V30 6259 C 602.724 3.18195 1.68595 0
M  V30 6260 C 602.577 4.42989 0.779773 0
M  V30 6261 C 603.896 3.5109 2.65375 0
M  V30 6262 H 601.015 0.66291 0.322056 0
M  V30 6263 H 603.657 1.89358 0.15608 0
M  V30 6264 H 601.807 3.12253 2.3115 0
M  V30 6265 H 603.479 4.60997 0.16714 0
M  V30 6266 H 601.722 4.33711 0.0877964 0
M  V30 6267 H 602.393 5.3467 1.3723 0
M  V30 6268 H 604.869 3.57482 2.12946 0
M  V30 6269 H 603.745 4.47298 3.18144 0
M  V30 6270 H 604.006 2.75768 3.45549 0
M  V30 6271 N 603.065 -0.440357 1.51323 0
M  V30 6272 C 604.313 -1.18769 1.63518 0
M  V30 6273 C 604.634 -1.91793 0.352201 0
M  V30 6274 O 603.904 -1.85432 -0.631811 0
M  V30 6275 H 602.484 -0.441408 0.602634 0
M  V30 6276 H 605.146 -0.505162 1.8824 0
M  V30 6277 H 604.242 -1.91892 2.46138 0
M  V30 6278 N 604.543 -1.41418 -0.695603 0
M  V30 6279 C 605.792 -1.40073 -1.4513 0
M  V30 6280 C 606.105 -0.0130439 -1.95596 0
M  V30 6281 O 607.311 0.123032 -2.71221 0
M  V30 6282 C 605.767 -2.46286 -2.62433 0
M  V30 6283 C 605.375 -3.90962 -2.18753 0
M  V30 6284 C 607.119 -2.54077 -3.40066 0
M  V30 6285 C 605.026 -4.88728 -3.33015 0
M  V30 6286 H 603.956 -0.520903 -0.545138 0
M  V30 6287 H 606.607 -1.67242 -0.75515 0
M  V30 6288 H 604.989 -2.12248 -3.34315 0
M  V30 6289 H 606.163 -4.34248 -1.54161 0
M  V30 6290 H 604.478 -3.86831 -1.54114 0
M  V30 6291 H 607.075 -3.24303 -4.25125 0
M  V30 6292 H 607.418 -1.5776 -3.8525 0
M  V30 6293 H 607.951 -2.87206 -2.75241 0
M  V30 6294 H 604.69 -5.86449 -2.92844 0
M  V30 6295 H 604.21 -4.50091 -3.96457 0
M  V30 6296 H 605.889 -5.09483 -3.98793 0
M  V30 6297 N 606.021 0.929856 -1.27246 0
M  V30 6298 C 606.951 2.04722 -1.12299 0
M  V30 6299 C 607.932 1.70082 -0.0250464 0
M  V30 6300 O 609.117 1.93176 -0.199141 0
M  V30 6301 C 606.247 3.38721 -0.767145 0
M  V30 6302 C 605.201 3.87466 -1.81808 0
M  V30 6303 C 604.527 5.18246 -1.31626 0
M  V30 6304 C 605.827 4.11095 -3.22177 0
M  V30 6305 H 607.521 2.17485 -2.05769 0
M  V30 6306 H 605.067 1.04503 -0.990715 0
M  V30 6307 H 607.02 4.16366 -0.649413 0
M  V30 6308 H 605.744 3.25967 0.203259 0
M  V30 6309 H 604.403 3.12012 -1.92468 0
M  V30 6310 H 604.051 5.01881 -0.335378 0
M  V30 6311 H 603.751 5.51829 -2.01887 0
M  V30 6312 H 605.275 5.98462 -1.21143 0
M  V30 6313 H 606.689 4.79316 -3.1453 0
M  V30 6314 H 605.086 4.55982 -3.90129 0
M  V30 6315 H 606.156 3.16468 -3.67391 0
M  V30 6316 N 607.499 1.09233 1.13605 0
M  V30 6317 C 608.776 0.739633 1.81077 0
M  V30 6318 C 609.156 -0.775595 1.96336 0
M  V30 6319 O 608.504 -1.69726 1.52988 0
M  V30 6320 C 608.714 1.47636 3.16235 0
M  V30 6321 C 610.062 1.64087 3.91613 0
M  V30 6322 O 611.086 1.43871 3.25852 0
M  V30 6323 O 609.945 1.97511 5.0956 0
M  V30 6324 H 607.039 0.265464 0.783236 0
M  V30 6325 H 609.585 1.19441 1.20549 0
M  V30 6326 H 608.357 2.50818 3.00344 0
M  V30 6327 H 607.98 1.01362 3.84462 0
M  V30 6328 N 608.977 -1.30795 0.87923 0
M  V30 6329 C 610.224 -1.96362 0.494786 0
M  V30 6330 C 610.552 -1.69448 -0.954868 0
M  V30 6331 O 609.807 -0.988711 -1.68888 0
M  V30 6332 C 610.106 -3.50287 0.709476 0
M  V30 6333 C 609.772 -3.9724 2.13333 0
M  V30 6334 C 608.434 -4.09772 2.52271 0
M  V30 6335 C 610.786 -4.21807 3.06151 0
M  V30 6336 C 608.114 -4.44227 3.83248 0
M  V30 6337 C 610.466 -4.5773 4.36654 0
M  V30 6338 C 609.13 -4.68469 4.75492 0
M  V30 6339 H 608.4 -0.71854 0.181055 0
M  V30 6340 H 611.047 -1.55764 1.11399 0
M  V30 6341 H 609.352 -3.91799 0.0072 0
M  V30 6342 H 611.049 -3.99082 0.391703 0
M  V30 6343 H 607.639 -3.87988 1.82107 0
M  V30 6344 H 611.823 -4.11611 2.77291 0
M  V30 6345 H 607.079 -4.50741 4.13089 0
M  V30 6346 H 611.253 -4.7569 5.08617 0
M  V30 6347 H 608.88 -4.94923 5.77022 0
M  V30 6348 N 610.455 -0.639598 -1.44038 0
M  V30 6349 C 611.685 -0.154586 -2.06021 0
M  V30 6350 C 612.093 1.17951 -1.47933 0
M  V30 6351 O 611.436 1.73627 -0.59994 0
M  V30 6352 C 611.498 0.0255459 -3.59491 0
M  V30 6353 C 611.162 -1.2317 -4.40089 0
M  V30 6354 C 612.159 -2.15735 -4.73027 0
M  V30 6355 C 609.844 -1.46949 -4.80324 0
M  V30 6356 C 611.838 -3.30382 -5.45093 0
M  V30 6357 C 609.525 -2.61891 -5.52138 0
M  V30 6358 C 610.523 -3.53433 -5.84443 0
M  V30 6359 O 610.211 -4.6637 -6.54793 0
M  V30 6360 H 609.943 -0.0808543 -0.671147 0
M  V30 6361 H 612.497 -0.876541 -1.85758 0
M  V30 6362 H 610.727 0.802733 -3.78276 0
M  V30 6363 H 612.416 0.466184 -4.03214 0
M  V30 6364 H 613.182 -1.98602 -4.42473 0
M  V30 6365 H 609.061 -0.765815 -4.54595 0
M  V30 6366 H 612.605 -4.01856 -5.70226 0
M  V30 6367 H 608.502 -2.78964 -5.82108 0
M  V30 6368 H 609.27 -4.6546 -6.73267 0
M  V30 6369 N 611.933 1.52934 -0.380664 0
M  V30 6370 C 613.18 2.01467 0.204278 0
M  V30 6371 C 613.508 1.26744 1.47533 0
M  V30 6372 O 612.763 0.353723 1.92477 0
M  V30 6373 C 613.062 3.5349 0.527199 0
M  V30 6374 C 612.728 4.46171 -0.651295 0
M  V30 6375 C 611.39 4.71227 -0.974619 0
M  V30 6376 C 613.742 5.00909 -1.44012 0
M  V30 6377 C 611.07 5.4827 -2.08847 0
M  V30 6378 C 613.422 5.7917 -2.5445 0
M  V30 6379 C 612.086 6.02507 -2.87301 0
M  V30 6380 H 611.356 0.73722 0.0747504 0
M  V30 6381 H 614.003 1.84411 -0.516234 0
M  V30 6382 H 612.308 3.68574 1.32892 0
M  V30 6383 H 614.005 3.88529 0.992283 0
M  V30 6384 H 610.595 4.26829 -0.389276 0
M  V30 6385 H 614.779 4.81485 -1.20357 0
M  V30 6386 H 610.035 5.64567 -2.34679 0
M  V30 6387 H 614.209 6.20588 -3.1598 0
M  V30 6388 H 611.836 6.61989 -3.7373 0
M  V30 6389 N 613.412 0.11024 1.57214 0
M  V30 6390 C 614.344 -0.873497 2.11902 0
M  V30 6391 C 615.357 -1.23588 1.05971 0
M  V30 6392 O 616.546 -1.18636 1.33371 0
M  V30 6393 C 613.646 -2.17805 2.59643 0
M  V30 6394 C 612.819 -1.98869 3.89576 0
M  V30 6395 C 611.878 -3.12974 4.23006 0
M  V30 6396 O 610.904 -2.86272 4.91973 0
M  V30 6397 N 612.106 -4.39167 3.79622 0
M  V30 6398 H 614.871 -0.406317 2.96933 0
M  V30 6399 H 612.432 -0.074437 1.61729 0
M  V30 6400 H 614.424 -2.93117 2.79042 0
M  V30 6401 H 612.994 -2.55899 1.7954 0
M  V30 6402 H 612.214 -1.078 3.79174 0
M  V30 6403 H 613.502 -1.83512 4.74553 0
M  V30 6404 H 612.9 -4.63739 3.2398 0
M  V30 6405 H 611.457 -5.11379 4.04147 0
M  V30 6406 N 614.89 -1.56749 -0.16351 0
M  V30 6407 C 615.82 -2.00042 -1.20438 0
M  V30 6408 C 616.801 -0.877256 -1.45733 0
M  V30 6409 O 617.986 -1.1439 -1.56935 0
M  V30 6410 C 615.116 -2.36697 -2.54149 0
M  V30 6411 C 614.07 -3.52046 -2.43408 0
M  V30 6412 C 613.396 -3.74466 -3.81679 0
M  V30 6413 C 614.696 -4.85247 -1.93216 0
M  V30 6414 H 616.39 -2.87244 -0.844477 0
M  V30 6415 H 613.936 -1.38194 -0.40478 0
M  V30 6416 H 615.889 -2.65582 -3.27176 0
M  V30 6417 H 614.613 -1.46414 -2.91943 0
M  V30 6418 H 613.272 -3.23301 -1.72834 0
M  V30 6419 H 612.92 -2.81461 -4.1688 0
M  V30 6420 H 612.62 -4.52084 -3.75359 0
M  V30 6421 H 614.144 -4.0576 -4.5628 0
M  V30 6422 H 615.558 -5.12957 -2.56023 0
M  V30 6423 H 613.955 -5.66556 -1.97825 0
M  V30 6424 H 615.025 -4.7672 -0.88689 0
M  V30 6425 N 616.368 0.432326 -1.51554 0
M  V30 6426 C 617.608 1.19076 -1.66133 0
M  V30 6427 C 617.972 1.88364 -0.371873 0
M  V30 6428 O 619.173 2.65904 -0.39349 0
M  V30 6429 C 617.444 2.1768 -2.83461 0
M  V30 6430 S 619.003 3.01943 -3.18396 0
M  V30 6431 H 615.821 0.403735 -0.585251 0
M  V30 6432 H 618.423 0.481554 -1.89476 0
M  V30 6433 H 617.127 1.65424 -3.75583 0
M  V30 6434 H 616.658 2.93174 -2.62322 0
M  V30 6435 H 618.673 4.19373 -2.65219 0
M  V30 6436 N 617.846 1.41785 0.688094 0
M  V30 6437 C 619.071 1.45117 1.48175 0
M  V30 6438 C 619.496 0.060129 1.88004 0
M  V30 6439 O 618.854 -0.938385 1.55126 0
M  V30 6440 C 618.902 2.37224 2.71583 0
M  V30 6441 O 618.006 1.83443 3.69354 0
M  V30 6442 H 617.347 0.492208 0.445676 0
M  V30 6443 H 619.877 1.86329 0.845145 0
M  V30 6444 H 619.887 2.53353 3.19806 0
M  V30 6445 H 618.562 3.38293 2.41931 0
M  V30 6446 H 617.139 1.76802 3.28322 0
M  V30 6447 N 619.324 -0.923095 1.27737 0
M  V30 6448 C 620.573 -1.66581 1.13727 0
M  V30 6449 C 620.886 -1.9304 -0.315433 0
M  V30 6450 O 622.092 -2.65309 -0.57651 0
M  V30 6451 C 620.548 -3.00047 1.98745 0
M  V30 6452 C 620.156 -2.8127 3.48699 0
M  V30 6453 C 621.9 -3.77887 1.93395 0
M  V30 6454 C 619.807 -4.1032 4.25901 0
M  V30 6455 H 618.737 -0.624834 0.422017 0
M  V30 6456 H 621.388 -1.02514 1.52194 0
M  V30 6457 H 619.77 -3.65197 1.53125 0
M  V30 6458 H 620.944 -2.24859 4.02213 0
M  V30 6459 H 619.259 -2.16854 3.55476 0
M  V30 6460 H 621.856 -4.73526 2.48348 0
M  V30 6461 H 622.199 -4.06264 0.908605 0
M  V30 6462 H 622.732 -3.19541 2.36935 0
M  V30 6463 H 619.471 -3.8712 5.28978 0
M  V30 6464 H 618.991 -4.66377 3.77163 0
M  V30 6465 H 620.67 -4.78648 4.35321 0
M  V30 6466 N 620.802 -1.09834 -1.13024 0
M  V30 6467 C 621.712 -0.753731 -2.22162 0
M  V30 6468 C 622.728 0.246105 -1.72251 0
M  V30 6469 O 623.904 0.0864051 -2.01215 0
M  V30 6470 C 620.969 -0.183958 -3.46212 0
M  V30 6471 C 620.03 -1.24028 -4.10993 0
M  V30 6472 C 619.263 -0.697597 -5.29121 0
M  V30 6473 O 619.486 0.478092 -5.68393 0
M  V30 6474 O 618.42 -1.4546 -5.84059 0
M  V30 6475 H 622.246 -1.66456 -2.5402 0
M  V30 6476 H 619.831 -0.873026 -1.21238 0
M  V30 6477 H 621.713 0.130257 -4.21199 0
M  V30 6478 H 620.388 0.699823 -3.16045 0
M  V30 6479 H 619.295 -1.60725 -3.37814 0
M  V30 6480 H 620.628 -2.09685 -4.45301 0
M  V30 6481 N 622.28 1.30327 -0.886154 0
M  V30 6482 C 623.526 1.96388 -0.505941 0
M  V30 6483 C 623.859 1.69784 0.942712 0
M  V30 6484 O 623.134 1.00322 1.6663 0
M  V30 6485 C 623.417 3.51488 -0.782826 0
M  V30 6486 C 623.27 3.87603 -2.28219 0
M  V30 6487 C 624.589 4.39331 -0.260128 0
M  V30 6488 H 621.708 0.713327 -0.185292 0
M  V30 6489 H 624.35 1.54178 -1.11036 0
M  V30 6490 H 622.5 3.87572 -0.268399 0
M  V30 6491 H 624.172 3.61537 -2.86512 0
M  V30 6492 H 622.415 3.3563 -2.74837 0
M  V30 6493 H 623.086 4.95806 -2.42653 0
M  V30 6494 H 625.562 4.10162 -0.700444 0
M  V30 6495 H 624.438 5.46769 -0.483179 0
M  V30 6496 H 624.699 4.34072 0.838674 0
M  V30 6497 N 623.758 0.647228 1.43697 0
M  V30 6498 C 624.986 0.16575 2.06235 0
M  V30 6499 C 625.401 -1.1662 1.48476 0
M  V30 6500 O 624.758 -1.7187 0.613762 0
M  V30 6501 C 624.809 0.0621651 3.61447 0
M  V30 6502 O 624.53 1.34146 4.17057 0
M  V30 6503 C 626.031 -0.446102 4.4105 0
M  V30 6504 H 623.251 0.0871158 0.665321 0
M  V30 6505 H 625.795 0.886183 1.84301 0
M  V30 6506 H 623.95 -0.608794 3.82587 0
M  V30 6507 H 624.364 1.19675 5.10664 0
M  V30 6508 H 625.838 -0.46755 5.50016 0
M  V30 6509 H 626.315 -1.47627 4.13646 0
M  V30 6510 H 626.921 0.192159 4.24866 0
M  V30 6511 N 625.236 -1.5273 0.388769 0
M  V30 6512 C 626.476 -2.03483 -0.193372 0
M  V30 6513 C 626.84 -1.26897 -1.44087 0
M  V30 6514 O 628.041 -1.67773 -2.10014 0
M  V30 6515 C 626.312 -3.54488 -0.455325 0
M  V30 6516 S 627.871 -4.27069 -1.00783 0
M  V30 6517 H 624.689 -0.708907 -0.0545131 0
M  V30 6518 H 627.291 -1.8798 0.536993 0
M  V30 6519 H 625.995 -4.07817 0.459722 0
M  V30 6520 H 625.526 -3.74196 -1.21413 0
M  V30 6521 H 627.541 -4.40185 -2.29023 0
M  V30 6522 N 626.714 -0.118576 -1.57153 0
M  V30 6523 C 627.624 0.845484 -2.18835 0
M  V30 6524 C 628.64 1.29299 -1.16438 0
M  V30 6525 O 629.816 1.35607 -1.48905 0
M  V30 6526 C 626.881 2.07795 -2.77529 0
M  V30 6527 C 625.942 1.6824 -3.9496 0
M  V30 6528 C 625.175 2.85612 -4.50845 0
M  V30 6529 O 625.398 4.01025 -4.05629 0
M  V30 6530 O 624.332 2.62721 -5.41536 0
M  V30 6531 H 628.158 0.350568 -3.0167 0
M  V30 6532 H 625.743 0.107013 -1.49016 0
M  V30 6533 H 627.625 2.79978 -3.14945 0
M  V30 6534 H 626.3 2.56294 -1.97725 0
M  V30 6535 H 625.207 0.931663 -3.62313 0
M  V30 6536 H 626.54 1.24484 -4.76198 0
M  V30 6537 N 628.193 1.56834 0.155195 0
M  V30 6538 C 629.418 1.87412 0.888337 0
M  V30 6539 C 629.843 0.70671 1.74319 0
M  V30 6540 O 629.201 -0.343892 1.78009 0
M  V30 6541 C 629.249 3.1652 1.72765 0
M  V30 6542 O 628.353 2.99877 2.83103 0
M  V30 6543 H 627.694 0.615983 0.247914 0
M  V30 6544 H 630.224 2.04061 0.148478 0
M  V30 6545 H 630.234 3.48334 2.12433 0
M  V30 6546 H 628.909 4.01094 1.09985 0
M  V30 6547 H 627.486 2.79453 2.46902 0
M  V30 6548 N 629.671 -0.424282 1.51781 0
M  V30 6549 C 630.634 -1.49848 1.73431 0
M  V30 6550 C 631.634 -1.49016 0.604225 0
M  V30 6551 O 632.824 -1.50808 0.871935 0
M  V30 6552 C 629.956 -2.89332 1.80277 0
M  V30 6553 H 631.149 -1.3195 2.69312 0
M  V30 6554 H 628.702 -0.653809 1.41968 0
M  V30 6555 H 629.437 -3.12618 0.862568 0
M  V30 6556 H 629.222 -2.9134 2.62419 0
M  V30 6557 H 630.712 -3.67233 1.98821 0
M  V30 6558 N 631.149 -1.42148 -0.680565 0
M  V30 6559 C 632.374 -1.45901 -1.47403 0
M  V30 6560 C 632.799 -0.0700985 -1.87969 0
M  V30 6561 O 632.157 0.930145 -1.55621 0
M  V30 6562 C 632.205 -2.38661 -2.70321 0
M  V30 6563 O 631.309 -1.85399 -3.68376 0
M  V30 6564 H 630.65 -0.494565 -0.443059 0
M  V30 6565 H 633.18 -1.86774 -0.835251 0
M  V30 6566 H 633.19 -2.55046 -3.18458 0
M  V30 6567 H 631.865 -3.39571 -2.40134 0
M  V30 6568 H 630.442 -1.78541 -3.2738 0
M  V30 6569 N 632.627 0.916307 -1.28225 0
M  V30 6570 C 633.873 1.66765 -1.154 0
M  V30 6571 C 634.206 1.91912 0.297251 0
M  V30 6572 O 633.481 1.51766 1.21644 0
M  V30 6573 C 633.764 3.02715 -1.95028 0
M  V30 6574 C 633.617 2.84738 -3.48201 0
M  V30 6575 C 634.936 4.03215 -1.76369 0
M  V30 6576 H 632.055 0.605205 -0.42059 0
M  V30 6577 H 634.697 1.06255 -1.57512 0
M  V30 6578 H 632.847 3.54365 -1.59242 0
M  V30 6579 H 634.519 2.40118 -3.9388 0
M  V30 6580 H 632.762 2.19848 -3.73964 0
M  V30 6581 H 633.433 3.8127 -3.99171 0
M  V30 6582 H 635.909 3.60617 -2.07593 0
M  V30 6583 H 634.785 4.96306 -2.34459 0
M  V30 6584 H 635.046 4.36288 -0.71452 0
M  V30 6585 N 634.105 1.10431 1.1244 0
M  V30 6586 C 635.038 0.696987 2.17296 0
M  V30 6587 C 636.016 -0.301673 1.59777 0
M  V30 6588 O 637.2 -0.200583 1.8743 0
M  V30 6589 C 634.327 0.0284094 3.38688 0
M  V30 6590 C 633.373 0.990536 4.14838 0
M  V30 6591 S 634.206 2.50785 4.73146 0
M  V30 6592 C 635.362 1.85198 5.97873 0
M  V30 6593 H 635.595 1.58523 2.51511 0
M  V30 6594 H 633.128 0.921312 1.239 0
M  V30 6595 H 635.086 -0.351009 4.08997 0
M  V30 6596 H 633.747 -0.836629 3.02753 0
M  V30 6597 H 632.94 0.469991 5.01804 0
M  V30 6598 H 632.542 1.31186 3.50237 0
M  V30 6599 H 634.834 1.18217 6.67106 0
M  V30 6600 H 635.777 2.7012 6.54554 0
M  V30 6601 H 636.185 1.31653 5.48933 0
M  V30 6602 N 635.583 -1.29855 0.893053 0
M  V30 6603 C 636.546 -2.26183 0.370687 0
M  V30 6604 C 637.546 -1.53108 -0.491385 0
M  V30 6605 O 638.736 -1.71643 -0.297386 0
M  V30 6606 C 635.868 -3.37633 -0.470827 0
M  V30 6607 H 637.061 -2.73903 1.22135 0
M  V30 6608 H 634.614 -1.41183 0.67061 0
M  V30 6609 H 635.349 -2.95241 -1.34175 0
M  V30 6610 H 635.134 -3.91825 0.146784 0
M  V30 6611 H 636.624 -4.09313 -0.827825 0
M  V30 6612 N 637.061 -0.65484 -1.43351 0
M  V30 6613 C 638.024 0.0263562 -2.29185 0
M  V30 6614 C 639.024 0.748951 -1.42293 0
M  V30 6615 O 640.214 0.589957 -1.63906 0
M  V30 6616 C 637.346 1.04806 -3.2439 0
M  V30 6617 H 638.539 -0.728883 -2.90908 0
M  V30 6618 H 636.092 -0.416149 -1.50658 0
M  V30 6619 H 636.827 1.83247 -2.67565 0
M  V30 6620 H 636.612 0.533554 -3.88453 0
M  V30 6621 H 638.102 1.52372 -3.88809 0
M  V30 6622 N 638.539 1.52521 -0.396863 0
M  V30 6623 C 639.767 2.06091 0.18275 0
M  V30 6624 C 640.182 1.26796 1.39886 0
M  V30 6625 O 639.539 0.316585 1.79733 0
M  V30 6626 C 639.59 3.57362 0.545377 0
M  V30 6627 O 639.311 4.33656 -0.622428 0
M  V30 6628 C 640.812 4.27305 1.18004 0
M  V30 6629 H 638.032 0.670504 0.025789 0
M  V30 6630 H 640.576 1.96561 -0.564276 0
M  V30 6631 H 638.731 3.66941 1.2423 0
M  V30 6632 H 639.145 5.23507 -0.322662 0
M  V30 6633 H 640.619 5.34366 1.38408 0
M  V30 6634 H 641.096 3.83 2.1496 0
M  V30 6635 H 641.702 4.22064 0.523671 0
M  V30 6636 N 640.017 0.126909 1.57088 0
M  V30 6637 C 640.947 -0.816847 2.18746 0
M  V30 6638 C 641.928 -1.27161 1.12979 0
M  V30 6639 O 643.113 -1.33279 1.41246 0
M  V30 6640 C 640.243 -2.06398 2.79315 0
M  V30 6641 C 639.197 -1.74673 3.90735 0
M  V30 6642 C 638.523 -3.06482 4.38147 0
M  V30 6643 C 639.823 -1.0089 5.12463 0
M  V30 6644 H 641.517 -0.303032 2.97863 0
M  V30 6645 H 639.063 -0.144314 1.43275 0
M  V30 6646 H 641.016 -2.72885 3.2111 0
M  V30 6647 H 639.74 -2.60118 1.975 0
M  V30 6648 H 638.399 -1.10572 3.49527 0
M  V30 6649 H 638.047 -3.58152 3.5318 0
M  V30 6650 H 637.747 -2.86025 5.13287 0
M  V30 6651 H 639.271 -3.74073 4.82599 0
M  V30 6652 H 640.685 -1.57546 5.51228 0
M  V30 6653 H 639.082 -0.905006 5.93237 0
M  V30 6654 H 640.152 0.00297335 4.849 0
M  V30 6655 N 641.495 -1.56914 -0.146875 0
M  V30 6656 C 642.458 -1.97368 -1.16526 0
M  V30 6657 C 643.458 -0.860223 -1.35856 0
M  V30 6658 O 644.648 -1.12684 -1.32846 0
M  V30 6659 C 641.78 -2.28974 -2.52555 0
M  V30 6660 H 642.973 -2.88523 -0.818209 0
M  V30 6661 H 640.526 -1.5135 -0.390221 0
M  V30 6662 H 641.261 -1.40611 -2.92231 0
M  V30 6663 H 641.046 -3.10157 -2.39886 0
M  V30 6664 H 642.536 -2.61109 -3.25902 0
M  V30 6665 N 642.974 0.416227 -1.52004 0
M  V30 6666 C 643.922 1.5272 -1.7544 0
M  V30 6667 C 644.916 1.57596 -0.621289 0
M  V30 6668 O 646.122 1.61087 -0.803172 0
M  V30 6669 H 642.497 0.507772 -0.554682 0
M  V30 6670 H 644.468 1.30136 -2.68528 0
M  V30 6671 C 643.217 2.90165 -1.91571 0
M  V30 6672 H 642.54 2.87154 -2.78178 0
M  V30 6673 H 643.98 3.67211 -2.11972 0
M  V30 6674 C 642.439 3.29947 -0.680942 0
M  V30 6675 O 642.969 4.01403 0.154527 0
M  V30 6676 N 641.175 2.8593 -0.518894 0
M  V30 6677 H 640.722 2.2795 -1.19986 0
M  V30 6678 H 640.68 3.12907 0.305985 0
M  V30 6679 N 644.452 1.42507 0.673017 0
M  V30 6680 C 645.7 1.42789 1.43023 0
M  V30 6681 C 646.021 0.0459738 1.94946 0
M  V30 6682 O 645.291 -0.915765 1.73178 0
M  V30 6683 H 643.871 0.525657 0.530748 0
M  V30 6684 H 646.533 1.77944 0.795113 0
M  V30 6685 H 645.629 2.12872 2.28237 0
M  V30 6686 N 645.93 -0.909495 1.28709 0
M  V30 6687 C 647.178 -1.65577 1.15882 0
M  V30 6688 C 647.499 -1.928 -0.292108 0
M  V30 6689 O 646.769 -1.54716 -1.20166 0
M  V30 6690 H 645.349 -0.613714 0.425869 0
M  V30 6691 H 648.011 -1.09108 1.61498 0
M  V30 6692 H 647.107 -2.61634 1.70159 0
M  V30 6693 N 647.408 -1.11026 -1.11852 0
M  V30 6694 C 648.655 -0.85646 -1.83497 0
M  V30 6695 C 648.983 0.617938 -1.84423 0
M  V30 6696 O 648.238 1.47194 -1.28966 0
M  V30 6697 C 648.537 -1.35777 -3.30604 0
M  V30 6698 C 648.203 -2.84465 -3.49843 0
M  V30 6699 C 646.865 -3.25068 -3.54802 0
M  V30 6700 C 649.217 -3.80251 -3.56453 0
M  V30 6701 C 646.545 -4.60194 -3.63921 0
M  V30 6702 C 648.897 -5.15188 -3.67102 0
M  V30 6703 C 647.561 -5.55356 -3.70319 0
M  V30 6704 H 646.831 -0.313401 -0.671462 0
M  V30 6705 H 649.478 -1.38792 -1.31943 0
M  V30 6706 H 647.783 -0.746455 -3.84624 0
M  V30 6707 H 649.48 -1.13779 -3.8452 0
M  V30 6708 H 646.07 -2.52054 -3.46651 0
M  V30 6709 H 650.254 -3.49986 -3.51886 0
M  V30 6710 H 645.51 -4.90728 -3.64686 0
M  V30 6711 H 649.684 -5.89248 -3.71159 0
M  V30 6712 H 647.311 -6.60054 -3.77138 0
M  V30 6713 N 648.886 1.2938 -0.899927 0
M  V30 6714 C 650.126 1.97332 -0.532871 0
M  V30 6715 C 650.49 1.69385 0.904029 0
M  V30 6716 O 651.691 2.30793 1.37797 0
M  V30 6717 C 649.962 3.47927 -0.817393 0
M  V30 6718 S 651.521 4.3528 -0.55468 0
M  V30 6719 H 648.339 0.682966 -0.197683 0
M  V30 6720 H 650.941 1.57189 -1.16241 0
M  V30 6721 H 649.645 3.65761 -1.86138 0
M  V30 6722 H 649.176 3.93006 -0.175978 0
M  V30 6723 H 651.191 4.92557 0.600182 0
M  V30 6724 N 650.364 0.662433 1.43002 0
M  V30 6725 C 651.775 0.258315 1.84904 0
M  V30 6726 C 652.126 -1.19703 1.55453 0
M  V30 6727 O 651.251 -1.91484 1.00811 0
M  V30 6728 C 651.846 0.462047 3.35635 0
M  V30 6729 C 650.405 0.112165 3.76233 0
M  V30 6730 C 649.552 0.760479 2.66668 0
M  V30 6731 H 652.503 0.865467 1.33024 0
M  V30 6732 H 652.524 -0.289646 3.79396 0
M  V30 6733 H 652.036 1.52135 3.57039 0
M  V30 6734 H 650.137 -0.944179 3.60439 0
M  V30 6735 H 650.25 0.544058 4.76001 0
M  V30 6736 H 648.614 0.192887 2.53969 0
M  V30 6737 H 649.397 1.82299 2.90898 0
M  V30 6738 N 651.842 -1.52309 0.404946 0
M  V30 6739 C 653.091 -2.00952 -0.173529 0
M  V30 6740 C 653.404 -1.29512 -1.46581 0
M  V30 6741 O 654.61 -1.6895 -2.12528 0
M  V30 6742 C 653.066 -3.58097 -0.359801 0
M  V30 6743 C 652.674 -4.38449 0.920138 0
M  V30 6744 C 654.418 -4.14984 -0.893794 0
M  V30 6745 C 652.325 -5.87227 0.701285 0
M  V30 6746 H 651.255 -0.750871 -0.0686244 0
M  V30 6747 H 653.906 -1.75687 0.529749 0
M  V30 6748 H 652.288 -3.79675 -1.12531 0
M  V30 6749 H 653.462 -4.28633 1.69147 0
M  V30 6750 H 651.777 -3.92859 1.38024 0
M  V30 6751 H 654.374 -5.23813 -1.0735 0
M  V30 6752 H 654.717 -3.72072 -1.8673 0
M  V30 6753 H 655.25 -3.97358 -0.187453 0
M  V30 6754 H 651.989 -6.34491 1.64624 0
M  V30 6755 H 651.509 -5.99792 -0.0308288 0
M  V30 6756 H 653.188 -6.46096 0.341846 0
M  V30 6757 N 653.32 -0.135238 -1.57019 0
M  V30 6758 C 654.548 0.526066 -2.001 0
M  V30 6759 C 654.963 1.59184 -1.01519 0
M  V30 6760 O 654.32 1.82497 -0.0104258 0
M  V30 6761 C 654.371 1.13744 -3.43139 0
M  V30 6762 O 654.092 0.114259 -4.37951 0
M  V30 6763 C 655.593 1.8805 -4.01438 0
M  V30 6764 H 652.813 0.137962 -0.656664 0
M  V30 6765 H 655.357 -0.226359 -2.03243 0
M  V30 6766 H 653.512 1.84056 -3.40885 0
M  V30 6767 H 653.926 0.56058 -5.21496 0
M  V30 6768 H 655.4 2.26133 -5.03555 0
M  V30 6769 H 655.877 2.76194 -3.41487 0
M  V30 6770 H 656.483 1.22464 -4.07287 0
M  V30 6771 N 654.798 1.5699 0.138552 0
M  V30 6772 C 656.046 1.83446 0.848053 0
M  V30 6773 C 656.367 0.71744 1.81322 0
M  V30 6774 O 655.637 -0.260228 1.94164 0
M  V30 6775 H 654.217 0.676792 0.316166 0
M  V30 6776 H 656.879 1.94462 0.130538 0
M  V30 6777 H 655.975 2.78677 1.40518 0
M  V30 6778 N 656.276 -0.40816 1.52223 0
M  V30 6779 C 657.186 -1.52202 1.78526 0
M  V30 6780 C 658.202 -1.60546 0.670892 0
M  V30 6781 O 659.378 -1.77242 0.956404 0
M  V30 6782 C 656.443 -2.87928 1.93128 0
M  V30 6783 C 655.504 -2.89463 3.17033 0
M  V30 6784 C 654.737 -4.18715 3.30929 0
M  V30 6785 O 654.96 -5.12662 2.50067 0
M  V30 6786 O 653.894 -4.27125 4.24084 0
M  V30 6787 H 657.72 -1.32911 2.73072 0
M  V30 6788 H 655.305 -0.594112 1.37079 0
M  V30 6789 H 657.187 -3.68426 2.04549 0
M  V30 6790 H 655.862 -3.07285 1.01772 0
M  V30 6791 H 654.769 -2.07815 3.11069 0
M  V30 6792 H 656.102 -2.75055 4.08174 0
M  V30 6793 N 657.755 -1.42862 -0.66545 0
M  V30 6794 C 659.171 -1.25993 -0.979687 0
M  V30 6795 C 659.371 -0.170831 -2.00775 0
M  V30 6796 O 658.427 0.454827 -2.4837 0
M  V30 6797 C 659.74 -2.62005 -1.47559 0
M  V30 6798 C 661.288 -2.69437 -1.59288 0
M  V30 6799 C 661.763 -4.05838 -2.12272 0
M  V30 6800 N 663.254 -4.0784 -2.19592 0
M  V30 6801 C 663.989 -5.10205 -2.61684 0
M  V30 6802 N 663.485 -6.22949 -3.03161 0
M  V30 6803 N 665.278 -4.9756 -2.61516 0
M  V30 6804 H 657.429 -2.12395 0.0150493 0
M  V30 6805 H 659.692 -0.946355 -0.0558187 0
M  V30 6806 H 659.398 -3.42605 -0.794654 0
M  V30 6807 H 659.272 -2.86566 -2.45275 0
M  V30 6808 H 661.659 -1.89178 -2.26486 0
M  V30 6809 H 661.74 -2.48655 -0.600374 0
M  V30 6810 H 661.384 -4.86559 -1.4568 0
M  V30 6811 H 661.314 -4.23977 -3.12331 0
M  V30 6812 H 663.805 -3.26452 -1.90361 0
M  V30 6813 H 664.118 -6.96899 -3.33993 0
M  V30 6814 H 662.463 -6.2644 -3.00995 0
M  V30 6815 H 665.654 -4.08551 -2.28481 0
M  V30 6816 H 665.827 -5.77468 -2.93999 0
M  V30 6817 N 659.233 0.902656 -1.29189 0
M  V30 6818 C 660.479 1.65532 -1.17163 0
M  V30 6819 C 660.812 1.92216 0.276879 0
M  V30 6820 O 660.087 1.53048 1.20027 0
M  V30 6821 C 660.37 3.00629 -1.98228 0
M  V30 6822 C 660.223 2.81029 -3.51202 0
M  V30 6823 C 661.542 4.01321 -1.80635 0
M  V30 6824 H 658.661 0.60071 -0.426985 0
M  V30 6825 H 661.303 1.04578 -1.5863 0
M  V30 6826 H 659.453 3.52656 -1.62991 0
M  V30 6827 H 661.125 2.35927 -3.96404 0
M  V30 6828 H 659.368 2.1587 -3.76275 0
M  V30 6829 H 660.039 3.77014 -4.03192 0
M  V30 6830 H 662.515 3.58394 -2.11406 0
M  V30 6831 H 661.391 4.93792 -2.3971 0
M  V30 6832 H 661.652 4.35505 -0.760754 0
M  V30 6833 N 660.711 1.11618 1.11262 0
M  V30 6834 C 661.641 0.79846 2.19424 0
M  V30 6835 C 662.622 -0.234003 1.68483 0
M  V30 6836 O 663.807 -0.0970704 1.93957 0
M  V30 6837 C 660.937 0.242892 3.4645 0
M  V30 6838 C 659.891 1.20744 4.10615 0
M  V30 6839 C 659.217 0.512494 5.32238 0
M  V30 6840 C 660.517 2.55884 4.55325 0
M  V30 6841 H 662.211 1.70286 2.46258 0
M  V30 6842 H 659.757 0.820195 1.18359 0
M  V30 6843 H 661.71 0.00840447 4.21399 0
M  V30 6844 H 660.434 -0.696811 3.1908 0
M  V30 6845 H 659.093 1.42759 3.37662 0
M  V30 6846 H 658.741 -0.432075 5.01141 0
M  V30 6847 H 658.441 1.15583 5.7612 0
M  V30 6848 H 659.965 0.286842 6.09926 0
M  V30 6849 H 661.379 2.37946 5.21588 0
M  V30 6850 H 659.776 3.16216 5.10027 0
M  V30 6851 H 660.846 3.14968 3.68678 0
M  V30 6852 N 662.189 -1.289 0.906776 0
M  V30 6853 C 663.414 -1.99939 0.551303 0
M  V30 6854 C 663.839 -1.67366 -0.858496 0
M  V30 6855 O 663.197 -0.902176 -1.57259 0
M  V30 6856 C 663.245 -3.52523 0.758937 0
M  V30 6857 O 662.349 -4.11983 -0.185308 0
M  V30 6858 H 661.69 -0.628376 0.214568 0
M  V30 6859 H 664.22 -1.64225 1.2203 0
M  V30 6860 H 664.23 -4.02522 0.666329 0
M  V30 6861 H 662.905 -3.75566 1.78671 0
M  V30 6862 H 661.482 -3.72873 -0.0445577 0
M  V30 6863 N 663.667 -0.670007 -1.42649 0
M  V30 6864 C 665.078 -0.268118 -1.84765 0
M  V30 6865 C 665.429 1.18877 -1.56086 0
M  V30 6866 O 664.554 1.90947 -1.01825 0
M  V30 6867 C 665.149 -0.47984 -3.35385 0
M  V30 6868 C 663.708 -0.132116 -3.76168 0
M  V30 6869 C 662.855 -0.774611 -2.66261 0
M  V30 6870 H 665.806 -0.872509 -1.32563 0
M  V30 6871 H 665.827 0.269522 -3.79544 0
M  V30 6872 H 665.339 -1.54026 -3.56227 0
M  V30 6873 H 663.44 0.92505 -3.60934 0
M  V30 6874 H 663.553 -0.569294 -4.75706 0
M  V30 6875 H 661.917 -0.206353 -2.53863 0
M  V30 6876 H 662.7 -1.83839 -2.89928 0
M  V30 6877 N 665.145 1.52092 -0.413018 0
M  V30 6878 C 666.055 2.30858 0.417318 0
M  V30 6879 C 667.071 1.38746 1.05003 0
M  V30 6880 O 668.247 1.71821 1.05069 0
M  V30 6881 C 665.312 3.11756 1.51687 0
M  V30 6882 C 664.373 4.19613 0.906825 0
M  V30 6883 C 663.606 4.96644 1.95399 0
M  V30 6884 O 663.829 4.7402 3.17271 0
M  V30 6885 O 662.763 5.81385 1.55805 0
M  V30 6886 H 666.589 3.02865 -0.225028 0
M  V30 6887 H 664.174 1.48358 -0.176126 0
M  V30 6888 H 666.056 3.62122 2.15512 0
M  V30 6889 H 664.731 2.42539 2.14375 0
M  V30 6890 H 663.638 3.73385 0.231183 0
M  V30 6891 H 664.971 4.91134 0.323814 0
M  V30 6892 N 666.623 0.143563 1.56945 0
M  V30 6893 C 667.586 -0.783295 2.154 0
M  V30 6894 C 668.586 -1.17763 1.09492 0
M  V30 6895 O 669.776 -1.09912 1.35148 0
M  V30 6896 C 666.908 -2.06248 2.7143 0
M  V30 6897 H 668.101 -0.274863 2.98638 0
M  V30 6898 H 665.654 -0.105859 1.55941 0
M  V30 6899 H 666.389 -2.61466 1.91849 0
M  V30 6900 H 666.174 -1.78897 3.4891 0
M  V30 6901 H 667.664 -2.72453 3.16479 0
M  V30 6902 N 668.101 -1.57061 -0.130224 0
M  V30 6903 C 669.347 -1.8453 -0.841216 0
M  V30 6904 C 669.68 -0.727666 -1.80052 0
M  V30 6905 O 668.955 0.267419 -1.92653 0
M  V30 6906 C 669.238 -3.22553 -1.60099 0
M  V30 6907 C 669.091 -4.44901 -0.662048 0
M  V30 6908 C 670.41 -3.58003 -2.55973 0
M  V30 6909 H 667.529 -0.671215 -0.304366 0
M  V30 6910 H 670.171 -1.89705 -0.105821 0
M  V30 6911 H 668.321 -3.18272 -2.22789 0
M  V30 6912 H 669.993 -4.61278 -0.0448559 0
M  V30 6913 H 668.236 -4.33791 0.0272253 0
M  V30 6914 H 668.907 -5.3812 -1.23006 0
M  V30 6915 H 671.383 -3.63002 -2.03393 0
M  V30 6916 H 670.259 -4.55576 -3.06172 0
M  V30 6917 H 670.52 -2.84833 -3.38116 0
M  V30 6918 N 669.579 0.400081 -1.52437 0
M  V30 6919 C 670.995 0.739359 -1.41441 0
M  V30 6920 C 671.195 1.94512 -0.526053 0
M  V30 6921 O 670.251 2.525 0.00472502 0
M  V30 6922 C 671.564 0.984824 -2.84116 0
M  V30 6923 C 673.112 1.08698 -2.93519 0
M  V30 6924 C 673.587 1.36515 -4.37181 0
M  V30 6925 N 675.078 1.43361 -4.40457 0
M  V30 6926 C 675.813 1.66528 -5.48686 0
M  V30 6927 N 675.309 1.87239 -6.67018 0
M  V30 6928 N 677.102 1.68617 -5.36213 0
M  V30 6929 H 669.253 -0.393484 -2.08723 0
M  V30 6930 H 671.516 -0.1138 -0.941145 0
M  V30 6931 H 671.222 0.171096 -3.51284 0
M  V30 6932 H 671.096 1.90253 -3.25705 0
M  V30 6933 H 673.483 1.89129 -2.26526 0
M  V30 6934 H 673.564 0.147432 -2.55375 0
M  V30 6935 H 673.208 0.565982 -5.04737 0
M  V30 6936 H 673.138 2.31737 -4.7287 0
M  V30 6937 H 675.629 1.29108 -3.55161 0
M  V30 6938 H 675.942 2.04392 -7.45281 0
M  V30 6939 H 674.287 1.84486 -6.70067 0
M  V30 6940 H 677.478 1.5198 -4.42741 0
M  V30 6941 H 677.651 1.86332 -6.20632 0
M  V30 6942 N 671.057 1.43213 0.657864 0
M  V30 6943 C 672.005 1.48271 1.79216 0
M  V30 6944 C 672.999 0.35675 1.65601 0
M  V30 6945 O 674.205 0.530535 1.72004 0
M  V30 6946 H 670.58 0.464729 0.591211 0
M  V30 6947 H 672.551 2.43792 1.7207 0
M  V30 6948 C 671.3 1.41837 3.17455 0
M  V30 6949 H 670.623 2.27781 3.28567 0
M  V30 6950 H 672.063 1.49438 3.96793 0
M  V30 6951 C 670.522 0.135347 3.36628 0
M  V30 6952 O 671.052 -0.805199 3.93547 0
M  V30 6953 N 669.258 0.0470316 2.90562 0
M  V30 6954 H 668.805 0.813221 2.44427 0
M  V30 6955 H 668.763 -0.810737 3.03767 0
M  V30 6956 N 672.536 -0.895792 1.29666 0
M  V30 6957 C 673.764 -1.68001 1.20761 0
M  V30 6958 C 674.179 -1.87379 -0.231187 0
M  V30 6959 O 673.536 -1.41359 -1.15429 0
M  V30 6960 C 673.587 -3.06236 1.92098 0
M  V30 6961 O 673.308 -2.8774 3.30359 0
M  V30 6962 C 674.809 -4.00652 1.89717 0
M  V30 6963 H 672.029 -0.524591 0.418384 0
M  V30 6964 H 674.573 -1.11995 1.71106 0
M  V30 6965 H 672.728 -3.59007 1.45578 0
M  V30 6966 H 673.142 -3.75359 3.66342 0
M  V30 6967 H 674.616 -4.95051 2.44189 0
M  V30 6968 H 675.093 -4.30424 0.873595 0
M  V30 6969 H 675.699 -3.53815 2.35998 0
M  V30 6970 N 674.014 -1.12206 -1.10668 0
M  V30 6971 C 674.944 -0.810086 -2.18997 0
M  V30 6972 C 675.925 0.225065 -1.68604 0
M  V30 6973 O 677.11 0.086783 -1.94006 0
M  V30 6974 C 674.24 -0.261262 -3.46316 0
M  V30 6975 C 673.194 -1.2292 -4.09969 0
M  V30 6976 C 672.52 -0.540713 -5.31959 0
M  V30 6977 C 673.82 -2.58295 -4.53962 0
M  V30 6978 H 675.514 -1.7159 -2.45352 0
M  V30 6979 H 673.06 -0.82646 -1.17922 0
M  V30 6980 H 675.013 -0.0307522 -4.21389 0
M  V30 6981 H 673.737 0.679879 -3.19445 0
M  V30 6982 H 672.396 -1.44548 -3.369 0
M  V30 6983 H 672.044 0.405492 -5.01363 0
M  V30 6984 H 671.744 -1.18637 -5.75499 0
M  V30 6985 H 673.268 -0.319184 -6.09765 0
M  V30 6986 H 674.682 -2.40709 -5.20319 0
M  V30 6987 H 673.079 -3.18916 -5.08343 0
M  V30 6988 H 674.149 -3.16918 -3.67002 0
M  V30 6989 N 675.492 1.28418 -0.913599 0
M  V30 6990 C 676.717 1.99643 -0.561899 0
M  V30 6991 C 677.142 1.67819 0.849608 0
M  V30 6992 O 676.5 0.910503 1.56779 0
M  V30 6993 C 676.548 3.52116 -0.777622 0
M  V30 6994 O 675.652 4.12076 0.163457 0
M  V30 6995 H 674.993 0.627229 -0.217898 0
M  V30 6996 H 677.523 1.63575 -1.229 0
M  V30 6997 H 677.533 4.02163 -0.687666 0
M  V30 6998 H 676.208 3.74613 -1.8066 0
M  V30 6999 H 674.785 3.72892 0.0247827 0
M  V30 7000 N 676.97 0.677563 1.42291 0
M  V30 7001 C 677.9 0.014968 2.33495 0
M  V30 7002 C 678.881 -0.786376 1.50831 0
M  V30 7003 O 680.066 -0.742975 1.79426 0
M  V30 7004 C 677.196 -0.935023 3.34477 0
M  V30 7005 C 676.15 -0.242074 4.27315 0
M  V30 7006 C 675.476 -1.30519 5.18526 0
M  V30 7007 C 676.776 0.880604 5.14823 0
M  V30 7008 H 678.47 0.776671 2.89151 0
M  V30 7009 H 676.016 0.37494 1.39033 0
M  V30 7010 H 677.969 -1.40766 3.97194 0
M  V30 7011 H 676.693 -1.72818 2.77131 0
M  V30 7012 H 675.352 0.210351 3.65996 0
M  V30 7013 H 675 -2.09041 4.57505 0
M  V30 7014 H 674.7 -0.846652 5.81468 0
M  V30 7015 H 676.224 -1.7787 5.84119 0
M  V30 7016 H 677.638 0.489062 5.7121 0
M  V30 7017 H 676.035 1.26511 5.86613 0
M  V30 7018 H 677.105 1.72818 4.53059 0
M  V30 7019 N 678.448 -1.51871 0.421078 0
M  V30 7020 C 679.381 -2.23851 -0.443369 0
M  V30 7021 C 680.359 -1.25142 -1.03818 0
M  V30 7022 O 681.543 -1.5423 -1.08377 0
M  V30 7023 C 678.67 -2.97637 -1.61648 0
M  V30 7024 C 677.716 -4.10873 -1.14391 0
M  V30 7025 S 678.549 -5.35408 -0.0992403 0
M  V30 7026 C 679.705 -6.12726 -1.27739 0
M  V30 7027 H 679.938 -2.96826 0.167786 0
M  V30 7028 H 677.471 -1.53027 0.205461 0
M  V30 7029 H 679.429 -3.40751 -2.28909 0
M  V30 7030 H 678.09 -2.24282 -2.199 0
M  V30 7031 H 677.283 -4.61718 -2.02069 0
M  V30 7032 H 676.885 -3.69937 -0.549775 0
M  V30 7033 H 679.177 -6.40827 -2.19881 0
M  V30 7034 H 680.12 -7.03461 -0.809239 0
M  V30 7035 H 680.528 -5.43968 -1.5086 0
M  V30 7036 N 679.926 -0.151884 -1.56866 0
M  V30 7037 C 680.876 0.797799 -2.13586 0
M  V30 7038 C 681.86 1.20613 -1.06496 0
M  V30 7039 O 683.052 1.17173 -1.32663 0
M  V30 7040 C 680.181 2.03493 -2.76488 0
M  V30 7041 C 679.267 1.64948 -3.90708 0
M  V30 7042 N 679.658 0.972513 -4.96363 0
M  V30 7043 C 677.956 1.94186 -4.01507 0
M  V30 7044 C 678.657 0.785661 -5.7637 0
M  V30 7045 N 677.633 1.32105 -5.27304 0
M  V30 7046 H 681.435 0.271403 -2.92644 0
M  V30 7047 H 678.949 0.049487 -1.62325 0
M  V30 7048 H 680.946 2.72532 -3.15487 0
M  V30 7049 H 679.606 2.56646 -1.98904 0
M  V30 7050 H 680.617 0.632724 -5.1402 0
M  V30 7051 H 677.294 2.49154 -3.35005 0
M  V30 7052 H 678.684 0.251749 -6.71428 0
M  V30 7053 N 681.404 1.57128 0.121893 0
M  V30 7054 C 682.629 1.89254 0.848385 0
M  V30 7055 C 683.054 0.743527 1.72781 0
M  V30 7056 O 682.412 -0.306056 1.78698 0
M  V30 7057 C 682.46 3.20113 1.66012 0
M  V30 7058 O 681.564 3.05815 2.76679 0
M  V30 7059 H 680.905 0.621103 0.234793 0
M  V30 7060 H 683.435 2.0433 0.10516 0
M  V30 7061 H 683.445 3.52761 2.04996 0
M  V30 7062 H 682.12 4.03336 1.01452 0
M  V30 7063 H 680.697 2.84627 2.40918 0
M  V30 7064 N 682.882 -0.391992 1.52647 0
M  V30 7065 C 684.122 -1.1463 1.69232 0
M  V30 7066 C 684.486 -1.87312 0.421684 0
M  V30 7067 O 685.687 -2.64768 0.463852 0
M  V30 7068 C 683.958 -2.10088 2.89133 0
M  V30 7069 S 685.517 -2.93395 3.2629 0
M  V30 7070 H 682.335 -0.388076 0.59575 0
M  V30 7071 H 684.937 -0.431149 1.90687 0
M  V30 7072 H 683.641 -1.55408 3.79837 0
M  V30 7073 H 683.172 -2.86116 2.70003 0
M  V30 7074 H 685.187 -4.12193 2.76244 0
M  V30 7075 N 684.36 -1.4356 -0.65026 0
M  V30 7076 C 685.608 -1.45046 -1.40734 0
M  V30 7077 C 685.929 -0.0769822 -1.94848 0
M  V30 7078 O 685.199 0.888098 -1.74613 0
M  V30 7079 H 683.779 -0.534034 -0.522318 0
M  V30 7080 H 686.441 -1.79186 -0.766703 0
M  V30 7081 H 685.537 -2.16476 -2.24822 0
M  V30 7082 N 685.838 0.888903 -1.30139 0
M  V30 7083 C 686.771 1.99655 -1.10514 0
M  V30 7084 C 687.749 1.62594 -0.0138934 0
M  V30 7085 O 688.933 1.87762 -0.166689 0
M  V30 7086 C 686.06 3.31708 -0.684655 0
M  V30 7087 C 685.106 3.87755 -1.77619 0
M  V30 7088 S 685.939 4.15532 -3.37777 0
M  V30 7089 C 687.095 5.5061 -2.97622 0
M  V30 7090 H 687.328 2.15996 -2.04287 0
M  V30 7091 H 684.861 1.03682 -1.14409 0
M  V30 7092 H 686.819 4.08039 -0.448782 0
M  V30 7093 H 685.48 3.1323 0.233648 0
M  V30 7094 H 684.673 4.83164 -1.43417 0
M  V30 7095 H 684.275 3.18149 -1.96614 0
M  V30 7096 H 686.567 6.31518 -2.45338 0
M  V30 7097 H 687.51 5.89747 -3.91924 0
M  V30 7098 H 687.918 5.12983 -2.35603 0
M  V30 7099 N 687.317 1.12792 1.10072 0
M  V30 7100 C 688.547 0.907189 1.85617 0
M  V30 7101 C 688.955 -0.547181 1.81115 0
M  V30 7102 O 688.298 -1.39024 1.20075 0
M  V30 7103 C 688.36 1.30872 3.34832 0
M  V30 7104 C 688.024 2.77516 3.6309 0
M  V30 7105 C 689.021 3.75696 3.59373 0
M  V30 7106 C 686.706 3.14513 3.91646 0
M  V30 7107 C 688.7 5.08888 3.83812 0
M  V30 7108 C 686.387 4.47886 4.15742 0
M  V30 7109 C 687.385 5.44882 4.11816 0
M  V30 7110 O 687.073 6.7585 4.35295 0
M  V30 7111 H 686.805 0.323855 0.593375 0
M  V30 7112 H 689.359 1.50262 1.40038 0
M  V30 7113 H 687.589 0.656518 3.81086 0
M  V30 7114 H 689.278 1.06153 3.91773 0
M  V30 7115 H 690.044 3.48458 3.37345 0
M  V30 7116 H 685.923 2.39622 3.93831 0
M  V30 7117 H 689.467 5.84586 3.80663 0
M  V30 7118 H 685.364 4.74851 4.37249 0
M  V30 7119 H 686.132 6.81853 4.52791 0
M  V30 7120 N 688.795 -1.27931 0.920396 0
M  V30 7121 C 690.072 -1.89728 0.475687 0
M  V30 7122 C 690.452 -1.8337 -1.04588 0
M  V30 7123 O 689.8 -1.27404 -1.89685 0
M  V30 7124 C 690.01 -3.33959 1.01354 0
M  V30 7125 C 691.358 -4.10907 1.06963 0
M  V30 7126 O 692.382 -3.42945 0.962646 0
M  V30 7127 O 691.241 -5.32399 1.23343 0
M  V30 7128 H 688.335 -0.81294 0.151845 0
M  V30 7129 H 690.881 -1.36252 1.01161 0
M  V30 7130 H 689.653 -3.32843 2.05746 0
M  V30 7131 H 689.276 -3.94944 0.458829 0
M  V30 7132 N 690.273 -0.685099 -1.4193 0
M  V30 7133 C 691.52 -0.211658 -2.01391 0
M  V30 7134 C 691.848 1.18526 -1.54214 0
M  V30 7135 O 691.103 1.81189 -0.739519 0
M  V30 7136 C 691.402 -0.206154 -3.56805 0
M  V30 7137 C 691.068 -1.54915 -4.23453 0
M  V30 7138 C 689.73 -1.91684 -4.41373 0
M  V30 7139 C 692.082 -2.43317 -4.60919 0
M  V30 7140 C 689.41 -3.16461 -4.94034 0
M  V30 7141 C 691.762 -3.67415 -5.14965 0
M  V30 7142 C 690.426 -4.04341 -5.31098 0
M  V30 7143 H 689.696 -0.0774511 -0.736941 0
M  V30 7144 H 692.343 -0.882121 -1.69973 0
M  V30 7145 H 690.648 0.547841 -3.87951 0
M  V30 7146 H 692.345 0.17753 -4.00607 0
M  V30 7147 H 688.935 -1.25314 -4.09871 0
M  V30 7148 H 693.119 -2.16192 -4.46738 0
M  V30 7149 H 688.375 -3.45078 -5.04709 0
M  V30 7150 H 692.549 -4.3611 -5.42938 0
M  V30 7151 H 690.176 -5.01101 -5.71666 0
M  V30 7152 N 691.751 1.51645 -0.429126 0
M  V30 7153 C 692.976 2.06917 0.141399 0
M  V30 7154 C 693.401 1.29527 1.36398 0
M  V30 7155 O 692.759 0.33094 1.78254 0
M  V30 7156 C 692.807 3.57776 0.4504 0
M  V30 7157 O 691.911 3.82639 1.53821 0
M  V30 7158 H 691.252 0.663978 0.0054647 0
M  V30 7159 H 693.782 1.95355 -0.608093 0
M  V30 7160 H 693.792 4.01894 0.703249 0
M  V30 7161 H 692.467 4.13532 -0.443213 0
M  V30 7162 H 691.044 3.5039 1.27597 0
M  V30 7163 N 693.229 0.160201 1.56784 0
M  V30 7164 C 694.477 -0.486625 1.96154 0
M  V30 7165 C 694.798 -1.64525 1.04673 0
M  V30 7166 O 694.068 -1.95586 0.110864 0
M  V30 7167 H 692.648 -0.182764 0.724297 0
M  V30 7168 H 695.31 0.238787 1.93432 0
M  V30 7169 H 694.406 -0.854025 3.00188 0
M  V30 7170 N 694.707 -1.5719 -0.113559 0
M  V30 7171 C 695.639 -1.97393 -1.16484 0
M  V30 7172 C 696.652 -0.873964 -1.37352 0
M  V30 7173 O 697.841 -1.15222 -1.36331 0
M  V30 7174 C 694.941 -2.26174 -2.52386 0
M  V30 7175 C 694.114 -3.57479 -2.52046 0
M  V30 7176 C 693.173 -3.74409 -3.69735 0
M  V30 7177 O 692.199 -4.46463 -3.53071 0
M  V30 7178 N 693.401 -3.13588 -4.88511 0
M  V30 7179 H 696.166 -2.88184 -0.822814 0
M  V30 7180 H 693.727 -1.59044 -0.302769 0
M  V30 7181 H 695.719 -2.3471 -3.29687 0
M  V30 7182 H 694.289 -1.41483 -2.7875 0
M  V30 7183 H 693.509 -3.60081 -1.60421 0
M  V30 7184 H 694.797 -4.43775 -2.48881 0
M  V30 7185 H 694.195 -2.55026 -5.04953 0
M  V30 7186 H 692.752 -3.27637 -5.63469 0
M  V30 7187 N 696.185 0.383891 -1.52853 0
M  V30 7188 C 697.432 1.12842 -1.68146 0
M  V30 7189 C 697.76 1.89823 -0.423954 0
M  V30 7190 O 697.015 1.86475 0.593765 0
M  V30 7191 C 697.314 2.12881 -2.87082 0
M  V30 7192 C 696.98 1.52519 -4.24322 0
M  V30 7193 C 695.642 1.35783 -4.61645 0
M  V30 7194 C 697.994 1.0868 -5.09743 0
M  V30 7195 C 695.322 0.737643 -5.82044 0
M  V30 7196 C 697.674 0.480699 -6.30771 0
M  V30 7197 C 696.338 0.300681 -6.66822 0
M  V30 7198 H 695.608 0.412917 -0.615289 0
M  V30 7199 H 698.255 0.412416 -1.87006 0
M  V30 7200 H 696.56 2.90719 -2.62659 0
M  V30 7201 H 698.257 2.70408 -2.96109 0
M  V30 7202 H 694.847 1.66534 -3.94923 0
M  V30 7203 H 699.031 1.2041 -4.81472 0
M  V30 7204 H 694.287 0.586415 -6.08581 0
M  V30 7205 H 698.461 0.132733 -6.96273 0
M  V30 7206 H 696.088 -0.181966 -7.59982 0
M  V30 7207 N 697.663 1.43903 0.642637 0
M  V30 7208 C 698.626 1.49538 1.73698 0
M  V30 7209 C 699.626 0.378776 1.56275 0
M  V30 7210 O 700.816 0.64095 1.6198 0
M  V30 7211 C 697.948 1.35821 3.12675 0
M  V30 7212 H 699.141 2.47008 1.70079 0
M  V30 7213 H 696.694 1.30824 0.85526 0
M  V30 7214 H 697.429 0.393994 3.21898 0
M  V30 7215 H 697.214 2.16776 3.26727 0
M  V30 7216 H 698.704 1.4272 3.92455 0
M  V30 7217 N 699.141 -0.881989 1.30609 0
M  V30 7218 C 700.388 -1.63405 1.19604 0
M  V30 7219 C 700.716 -1.92905 -0.248574 0
M  V30 7220 O 699.971 -1.55062 -1.19391 0
M  V30 7221 C 700.27 -2.97999 1.97311 0
M  V30 7222 C 699.936 -2.88039 3.46907 0
M  V30 7223 C 698.598 -2.85029 3.877 0
M  V30 7224 C 700.95 -2.75948 4.42156 0
M  V30 7225 C 698.278 -2.67772 5.2203 0
M  V30 7226 C 700.63 -2.60228 5.76597 0
M  V30 7227 C 699.294 -2.55595 6.16626 0
M  V30 7228 H 698.564 -0.597941 0.437662 0
M  V30 7229 H 701.211 -1.02524 1.61744 0
M  V30 7230 H 699.516 -3.62847 1.47815 0
M  V30 7231 H 701.213 -3.55156 1.86186 0
M  V30 7232 H 697.803 -2.91192 3.14492 0
M  V30 7233 H 701.987 -2.77337 4.1158 0
M  V30 7234 H 697.243 -2.62601 5.52133 0
M  V30 7235 H 701.417 -2.49847 6.50038 0
M  V30 7236 H 699.044 -2.41981 7.20659 0
M  V30 7237 N 700.619 -1.13374 -1.09472 0
M  V30 7238 C 701.569 -0.77946 -2.14263 0
M  V30 7239 C 702.553 0.226271 -1.59301 0
M  V30 7240 O 703.745 0.0302581 -1.76974 0
M  V30 7241 C 700.874 -0.246635 -3.42413 0
M  V30 7242 C 699.96 -1.28124 -4.04283 0
M  V30 7243 N 700.351 -2.48201 -4.40715 0
M  V30 7244 C 698.649 -1.12892 -4.31476 0
M  V30 7245 C 699.35 -3.14347 -4.8945 0
M  V30 7246 N 698.326 -2.41771 -4.86876 0
M  V30 7247 H 702.128 -1.69305 -2.40235 0
M  V30 7248 H 699.642 -1.01598 -1.26695 0
M  V30 7249 H 701.639 0.0254131 -4.16892 0
M  V30 7250 H 700.299 0.661287 -3.17895 0
M  V30 7251 H 701.31 -2.85511 -4.32093 0
M  V30 7252 H 697.987 -0.279117 -4.16566 0
M  V30 7253 H 699.377 -4.16663 -5.27107 0
M  V30 7254 N 702.098 1.27442 -0.927168 0
M  V30 7255 C 703.344 1.94679 -0.568164 0
M  V30 7256 C 703.677 1.72697 0.888219 0
M  V30 7257 O 702.952 1.05573 1.63354 0
M  V30 7258 C 703.235 3.4882 -0.894253 0
M  V30 7259 C 703.088 3.80146 -2.40435 0
M  V30 7260 C 704.407 4.38281 -0.399766 0
M  V30 7261 H 701.526 0.707071 -0.207892 0
M  V30 7262 H 704.168 1.50568 -1.15885 0
M  V30 7263 H 702.318 3.86522 -0.391566 0
M  V30 7264 H 703.99 3.52238 -2.97869 0
M  V30 7265 H 702.233 3.26716 -2.85375 0
M  V30 7266 H 702.904 4.87835 -2.58304 0
M  V30 7267 H 705.38 4.07726 -0.83058 0
M  V30 7268 H 704.256 5.44955 -0.656885 0
M  V30 7269 H 704.517 4.36521 0.700153 0
M  V30 7270 N 703.576 0.692616 1.41565 0
M  V30 7271 C 704.824 0.221896 2.00878 0
M  V30 7272 C 705.145 -1.18164 1.5512 0
M  V30 7273 O 704.415 -1.79679 0.78054 0
M  V30 7274 H 702.995 0.0790463 0.742806 0
M  V30 7275 H 705.657 0.893115 1.73232 0
M  V30 7276 H 704.753 0.23702 3.11199 0
M  V30 7277 N 705.054 -1.51416 0.437162 0
M  V30 7278 C 705.984 -2.30631 -0.364922 0
M  V30 7279 C 706.965 -1.36037 -1.02118 0
M  V30 7280 O 708.15 -1.64956 -1.02485 0
M  V30 7281 C 705.28 -3.1482 -1.46648 0
M  V30 7282 C 704.234 -4.17691 -0.933717 0
M  V30 7283 C 703.56 -4.904 -2.13101 0
M  V30 7284 C 704.86 -5.2229 0.0317201 0
M  V30 7285 H 706.554 -2.97932 0.29614 0
M  V30 7286 H 704.1 -1.4328 0.143865 0
M  V30 7287 H 706.053 -3.69017 -2.03481 0
M  V30 7288 H 704.777 -2.4534 -2.15583 0
M  V30 7289 H 703.436 -3.64545 -0.387602 0
M  V30 7290 H 703.084 -4.17423 -2.80654 0
M  V30 7291 H 702.784 -5.59962 -1.78092 0
M  V30 7292 H 704.308 -5.4742 -2.70487 0
M  V30 7293 H 705.722 -5.7156 -0.446302 0
M  V30 7294 H 704.119 -5.99378 0.29437 0
M  V30 7295 H 705.189 -4.75131 0.968447 0
M  V30 7296 N 706.532 -0.168513 -1.56696 0
M  V30 7297 C 707.943 0.348694 -1.83415 0
M  V30 7298 C 708.294 1.63257 -1.0882 0
M  V30 7299 O 707.419 2.13707 -0.340333 0
M  V30 7300 C 708.014 0.639423 -3.32711 0
M  V30 7301 C 706.573 1.10108 -3.59935 0
M  V30 7302 C 705.72 0.135464 -2.76969 0
M  V30 7303 H 708.671 -0.392829 -1.53761 0
M  V30 7304 H 708.692 1.49179 -3.50037 0
M  V30 7305 H 708.204 -0.295173 -3.86976 0
M  V30 7306 H 706.305 2.05088 -3.11079 0
M  V30 7307 H 706.418 1.01218 -4.68286 0
M  V30 7308 H 704.782 0.632286 -2.46727 0
M  V30 7309 H 705.565 -0.793104 -3.34013 0
M  V30 7310 N 708.01 1.57248 0.105221 0
M  V30 7311 C 708.973 2.00388 1.11252 0
M  V30 7312 C 709.973 0.89594 1.33527 0
M  V30 7313 O 711.163 1.16166 1.29811 0
M  V30 7314 C 708.295 2.35589 2.46395 0
M  V30 7315 H 709.488 2.90591 0.741424 0
M  V30 7316 H 707.041 1.52332 0.349956 0
M  V30 7317 H 707.776 1.4831 2.884 0
M  V30 7318 H 707.561 3.16408 2.31578 0
M  V30 7319 H 709.051 2.69658 3.18864 0
M  V30 7320 N 709.488 -0.375779 1.53054 0
M  V30 7321 C 710.435 -1.45978 1.78771 0
M  V30 7322 C 711.405 -1.53625 0.631552 0
M  V30 7323 O 712.59 -1.69674 0.872667 0
M  V30 7324 C 709.73 -2.8305 1.97425 0
M  V30 7325 C 708.843 -2.84451 3.25134 0
M  V30 7326 C 707.978 -4.13034 3.34031 0
M  V30 7327 C 707.017 -4.08536 4.55812 0
M  V30 7328 N 706.154 -5.2875 4.61918 0
M  V30 7329 H 710.994 -1.23349 2.71273 0
M  V30 7330 H 708.531 -0.598147 1.3439 0
M  V30 7331 H 710.489 -3.62666 2.06225 0
M  V30 7332 H 709.119 -3.04101 1.0827 0
M  V30 7333 H 708.171 -1.97127 3.25338 0
M  V30 7334 H 709.483 -2.76998 4.14818 0
M  V30 7335 H 708.637 -5.0106 3.42087 0
M  V30 7336 H 707.376 -4.23226 2.42345 0
M  V30 7337 H 706.381 -3.18897 4.47867 0
M  V30 7338 H 707.606 -3.99955 5.48828 0
M  V30 7339 H 705.552 -5.39547 3.73129 0
M  V30 7340 H 705.469 -5.23426 5.45492 0
M  V30 7341 H 706.737 -6.18637 4.74245 0
M  V30 7342 N 710.966 -1.44241 -0.634997 0
M  V30 7343 C 712.191 -1.50516 -1.42687 0
M  V30 7344 C 712.616 -0.129864 -1.87651 0
M  V30 7345 O 711.974 0.880164 -1.58502 0
M  V30 7346 C 712.022 -2.4714 -2.62591 0
M  V30 7347 O 711.126 -1.97025 -3.62291 0
M  V30 7348 H 710.467 -0.50841 -0.427101 0
M  V30 7349 H 712.997 -1.89337 -0.775408 0
M  V30 7350 H 713.007 -2.65048 -3.10183 0
M  V30 7351 H 711.682 -3.47039 -2.29209 0
M  V30 7352 H 710.259 -1.88866 -3.21534 0
M  V30 7353 N 712.444 0.87505 -1.31075 0
M  V30 7354 C 713.692 1.62447 -1.20231 0
M  V30 7355 C 714.013 1.93506 0.240888 0
M  V30 7356 O 713.283 1.57847 1.16022 0
M  V30 7357 H 711.863 0.602207 -0.441991 0
M  V30 7358 H 714.525 1.04788 -1.64334 0
M  V30 7359 H 713.621 2.57031 -1.77036 0
M  V30 7360 N 713.922 1.13953 1.08869 0
M  V30 7361 C 715.168 0.906151 1.8143 0
M  V30 7362 C 715.501 -0.566089 1.85766 0
M  V30 7363 O 714.776 -1.41915 1.33006 0
M  V30 7364 C 715.059 1.50183 3.27287 0
M  V30 7365 C 714.912 3.04359 3.31189 0
M  V30 7366 C 716.231 1.17477 4.24131 0
M  V30 7367 H 713.35 0.330624 0.658678 0
M  V30 7368 H 715.992 1.40873 1.27495 0
M  V30 7369 H 714.142 1.07442 3.73348 0
M  V30 7370 H 715.814 3.55896 2.93488 0
M  V30 7371 H 714.057 3.39053 2.70602 0
M  V30 7372 H 714.728 3.41141 4.33966 0
M  V30 7373 H 717.204 1.5442 3.86385 0
M  V30 7374 H 716.08 1.61795 5.24513 0
M  V30 7375 H 716.341 0.0893312 4.4201 0
M  V30 7376 N 715.4 -1.26948 0.933913 0
M  V30 7377 C 716.363 -2.24889 0.442457 0
M  V30 7378 C 717.363 -1.54594 -0.442426 0
M  V30 7379 O 718.553 -1.72502 -0.242629 0
M  V30 7380 C 715.685 -3.3896 -0.363173 0
M  V30 7381 H 716.878 -2.69879 1.30787 0
M  V30 7382 H 714.431 -1.38978 0.715187 0
M  V30 7383 H 715.166 -2.99361 -1.24714 0
M  V30 7384 H 714.951 -3.9116 0.271366 0
M  V30 7385 H 716.441 -4.11739 -0.697186 0
M  V30 7386 N 716.879 -0.700114 -1.41195 0
M  V30 7387 C 718.127 -0.232546 -2.00758 0
M  V30 7388 C 718.448 1.1734 -1.55745 0
M  V30 7389 O 717.718 1.79262 -0.790058 0
M  V30 7390 H 716.298 -0.0829845 -0.742376 0
M  V30 7391 H 718.96 -0.902289 -1.72756 0
M  V30 7392 H 718.056 -0.253521 -3.11069 0
M  V30 7393 N 718.357 1.51182 -0.445186 0
M  V30 7394 C 719.605 2.01753 0.11841 0
M  V30 7395 C 719.926 1.33087 1.42523 0
M  V30 7396 O 719.196 0.467891 1.9023 0
M  V30 7397 H 717.776 0.745536 0.0467492 0
M  V30 7398 H 720.438 1.85765 -0.589688 0
M  V30 7399 H 719.534 3.10762 0.288665 0
M  V30 7400 N 719.835 0.176821 1.56605 0
M  V30 7401 C 721.084 -0.466833 1.96223 0
M  V30 7402 C 721.397 -1.64015 1.06576 0
M  V30 7403 O 722.603 -2.3504 1.35898 0
M  V30 7404 C 721.059 -0.881921 3.48927 0
M  V30 7405 C 720.667 0.266102 4.47209 0
M  V30 7406 C 722.411 -1.49368 3.97353 0
M  V30 7407 C 720.318 -0.168923 5.91159 0
M  V30 7408 H 719.248 -0.178178 0.732645 0
M  V30 7409 H 721.899 0.265929 1.81563 0
M  V30 7410 H 720.281 -1.67082 3.59026 0
M  V30 7411 H 721.455 1.04349 4.4883 0
M  V30 7412 H 719.77 0.788178 4.08872 0
M  V30 7413 H 722.367 -1.8313 5.02362 0
M  V30 7414 H 722.71 -2.3936 3.40606 0
M  V30 7415 H 723.243 -0.769114 3.90294 0
M  V30 7416 H 719.982 0.696351 6.51791 0
M  V30 7417 H 719.502 -0.911552 5.92833 0
M  V30 7418 H 721.181 -0.610938 6.44109 0
M  V30 7419 N 721.313 -1.57302 -0.09688 0
M  V30 7420 C 722.243 -2.0497 -1.11846 0
M  V30 7421 C 723.224 -0.938278 -1.41882 0
M  V30 7422 O 724.409 -1.20943 -1.51942 0
M  V30 7423 C 721.539 -2.47264 -2.43881 0
M  V30 7424 C 720.493 -3.62053 -2.28257 0
M  V30 7425 C 719.819 -3.90318 -3.65453 0
M  V30 7426 C 721.119 -4.93005 -1.72461 0
M  V30 7427 H 722.813 -2.90567 -0.721888 0
M  V30 7428 H 720.359 -1.39786 -0.345803 0
M  V30 7429 H 722.312 -2.7922 -3.15617 0
M  V30 7430 H 721.036 -1.58664 -2.8547 0
M  V30 7431 H 719.695 -3.30341 -1.58967 0
M  V30 7432 H 719.343 -2.98889 -4.04567 0
M  V30 7433 H 719.043 -4.67597 -3.55846 0
M  V30 7434 H 720.567 -4.24747 -4.3866 0
M  V30 7435 H 721.981 -5.23354 -2.34036 0
M  V30 7436 H 720.378 -5.74436 -1.73618 0
M  V30 7437 H 721.448 -4.80053 -0.683898 0
M  V30 7438 N 722.791 0.367657 -1.53252 0
M  V30 7439 C 723.721 1.45632 -1.8252 0
M  V30 7440 C 724.702 1.55979 -0.678568 0
M  V30 7441 O 725.887 1.70581 -0.928217 0
M  V30 7442 C 723.017 2.82994 -2.01325 0
M  V30 7443 C 721.971 2.87473 -3.17086 0
M  V30 7444 C 721.297 4.2749 -3.21179 0
M  V30 7445 C 722.597 2.55182 -4.55719 0
M  V30 7446 H 724.291 1.21387 -2.73689 0
M  V30 7447 H 721.837 0.58251 -1.31692 0
M  V30 7448 H 723.79 3.59179 -2.20383 0
M  V30 7449 H 722.514 3.08622 -1.06864 0
M  V30 7450 H 721.173 2.13739 -2.97844 0
M  V30 7451 H 720.821 4.5019 -2.24361 0
M  V30 7452 H 720.521 4.31403 -3.98955 0
M  V30 7453 H 722.045 5.0555 -3.42419 0
M  V30 7454 H 723.459 3.21081 -4.74953 0
M  V30 7455 H 721.856 2.70414 -5.3572 0
M  V30 7456 H 722.926 1.5044 -4.60973 0
M  V30 7457 N 724.269 1.44576 0.627338 0
M  V30 7458 C 725.515 1.47777 1.38888 0
M  V30 7459 C 725.848 0.111406 1.9388 0
M  V30 7460 O 725.123 -0.87149 1.73883 0
M  V30 7461 C 725.406 2.54119 2.55138 0
M  V30 7462 C 725.259 4.00128 2.0547 0
M  V30 7463 C 726.578 2.56929 3.57317 0
M  V30 7464 H 723.697 0.538048 0.50366 0
M  V30 7465 H 726.339 1.76277 0.708978 0
M  V30 7466 H 724.489 2.29948 3.13139 0
M  V30 7467 H 726.161 4.35444 1.5227 0
M  V30 7468 H 724.404 4.11724 1.36623 0
M  V30 7469 H 725.075 4.7019 2.89181 0
M  V30 7470 H 727.551 2.78536 3.09122 0
M  V30 7471 H 726.427 3.33234 4.36173 0
M  V30 7472 H 726.688 1.6127 4.11636 0
M  V30 7473 N 725.747 -0.868086 1.31537 0
M  V30 7474 C 726.993 -1.62367 1.2151 0
M  V30 7475 C 727.326 -1.92883 -0.225819 0
M  V30 7476 O 726.601 -1.56176 -1.15927 0
M  V30 7477 C 726.884 -2.95268 2.06129 0
M  V30 7478 C 726.737 -2.71619 3.58529 0
M  V30 7479 C 728.056 -3.96391 1.91212 0
M  V30 7480 H 725.175 -0.589178 0.442762 0
M  V30 7481 H 727.817 -1.00336 1.61347 0
M  V30 7482 H 725.967 -3.4821 1.72284 0
M  V30 7483 H 727.639 -2.25334 4.0252 0
M  V30 7484 H 725.882 -2.05817 3.81866 0
M  V30 7485 H 726.553 -3.66192 4.13047 0
M  V30 7486 H 729.029 -3.52663 2.20834 0
M  V30 7487 H 727.905 -4.87263 2.52718 0
M  V30 7488 H 728.166 -4.33335 0.875953 0
M  V30 7489 N 727.225 -1.14528 -1.08264 0
M  V30 7490 C 728.636 -0.925261 -1.6216 0
M  V30 7491 C 728.987 0.535587 -1.88748 0
M  V30 7492 O 728.112 1.4048 -1.64604 0
M  V30 7493 C 728.707 -1.67316 -2.94603 0
M  V30 7494 C 727.266 -1.49868 -3.45278 0
M  V30 7495 C 726.413 -1.69471 -2.19487 0
M  V30 7496 H 729.364 -1.29687 -0.914707 0
M  V30 7497 H 729.385 -1.13721 -3.63109 0
M  V30 7498 H 728.897 -2.73635 -2.75219 0
M  V30 7499 H 726.998 -0.459032 -3.69762 0
M  V30 7500 H 727.111 -2.2696 -4.21931 0
M  V30 7501 H 725.475 -1.12048 -2.2873 0
M  V30 7502 H 726.258 -2.77136 -2.0261 0
M  V30 7503 N 728.703 1.26451 -0.940633 0
M  V30 7504 C 729.651 2.28389 -0.440581 0
M  V30 7505 C 730.645 1.62402 0.481859 0
M  V30 7506 O 731.851 1.76361 0.360132 0
M  V30 7507 H 728.226 0.741716 -0.123938 0
M  V30 7508 H 730.197 2.67967 -1.31288 0
M  V30 7509 C 728.946 3.46576 0.279364 0
M  V30 7510 H 728.269 3.97574 -0.421274 0
M  V30 7511 H 729.709 4.19826 0.59348 0
M  V30 7512 C 728.168 3.01815 1.49697 0
M  V30 7513 O 728.698 3.06607 2.59529 0
M  V30 7514 N 726.904 2.57163 1.35334 0
M  V30 7515 H 726.451 2.53464 0.459743 0
M  V30 7516 H 726.409 2.27578 2.16923 0
M  V30 7517 N 730.181 0.707592 1.40822 0
M  V30 7518 C 731.427 0.244031 2.01326 0
M  V30 7519 C 731.76 -1.15722 1.55955 0
M  V30 7520 O 731.035 -1.78347 0.776044 0
M  V30 7521 C 731.318 0.315128 3.58718 0
M  V30 7522 C 731.171 1.75419 4.14184 0
M  V30 7523 C 732.49 -0.318251 4.38948 0
M  V30 7524 H 729.609 0.0901471 0.731466 0
M  V30 7525 H 732.251 0.898584 1.67408 0
M  V30 7526 H 730.401 -0.242176 3.87744 0
M  V30 7527 H 732.073 2.36626 3.95987 0
M  V30 7528 H 730.316 2.28449 3.68773 0
M  V30 7529 H 730.987 1.75538 5.23345 0
M  V30 7530 H 733.463 0.156514 4.15806 0
M  V30 7531 H 732.339 -0.238019 5.48384 0
M  V30 7532 H 732.6 -1.40067 4.19325 0
M  V30 7533 N 731.66 -1.50943 0.453197 0
M  V30 7534 C 732.593 -2.24742 -0.395787 0
M  V30 7535 C 733.571 -1.27316 -1.01141 0
M  V30 7536 O 734.755 -1.56494 -1.05081 0
M  V30 7537 C 731.882 -3.00999 -1.55298 0
M  V30 7538 C 730.928 -4.13207 -1.0565 0
M  V30 7539 S 731.761 -5.35498 0.01435 0
M  V30 7540 C 732.917 -6.15298 -1.14714 0
M  V30 7541 H 733.15 -2.96403 0.23071 0
M  V30 7542 H 730.683 -1.52557 0.237874 0
M  V30 7543 H 732.641 -3.45529 -2.2163 0
M  V30 7544 H 731.302 -2.28896 -2.15094 0
M  V30 7545 H 730.495 -4.65901 -1.9223 0
M  V30 7546 H 730.097 -3.7102 -0.471182 0
M  V30 7547 H 732.389 -6.45346 -2.06239 0
M  V30 7548 H 733.332 -7.05019 -0.659842 0
M  V30 7549 H 733.74 -5.47046 -1.39288 0
M  V30 7550 N 733.138 -0.185124 -1.56509 0
M  V30 7551 C 734.386 0.455357 -1.96903 0
M  V30 7552 C 734.707 1.62839 -1.07277 0
M  V30 7553 O 733.977 1.95385 -0.141966 0
M  V30 7554 H 732.557 0.171218 -0.727113 0
M  V30 7555 H 735.219 -0.26953 -1.93027 0
M  V30 7556 H 734.315 0.80616 -3.01509 0
M  V30 7557 N 734.616 1.57351 0.0885366 0
M  V30 7558 C 735.549 1.97786 1.13825 0
M  V30 7559 C 736.527 0.852091 1.38485 0
M  V30 7560 O 737.711 1.11296 1.52137 0
M  V30 7561 C 734.838 2.30024 2.48609 0
M  V30 7562 C 733.884 3.52437 2.40189 0
M  V30 7563 S 734.717 5.03908 1.81209 0
M  V30 7564 C 735.873 5.39331 3.17605 0
M  V30 7565 H 736.106 2.86513 0.793587 0
M  V30 7566 H 733.639 1.51527 0.29646 0
M  V30 7567 H 735.597 2.49274 3.26148 0
M  V30 7568 H 734.258 1.41856 2.80242 0
M  V30 7569 H 733.451 3.72457 3.39546 0
M  V30 7570 H 733.053 3.32731 1.70781 0
M  V30 7571 H 735.345 5.36378 4.13891 0
M  V30 7572 H 736.288 6.4029 3.02381 0
M  V30 7573 H 736.696 4.6679 3.17438 0
M  V30 7574 N 736.094 -0.359525 1.53444 0
M  V30 7575 C 737.027 -1.46338 1.75101 0
M  V30 7576 C 738.005 -1.51142 0.599559 0
M  V30 7577 O 739.189 -1.69102 0.832862 0
M  V30 7578 C 736.316 -2.84667 1.83527 0
M  V30 7579 C 735.362 -2.9756 3.05549 0
M  V30 7580 S 736.195 -2.65685 4.64943 0
M  V30 7581 C 737.351 -4.06153 4.76225 0
M  V30 7582 H 737.584 -1.27747 2.68455 0
M  V30 7583 H 735.117 -0.554231 1.4411 0
M  V30 7584 H 737.075 -3.64368 1.89067 0
M  V30 7585 H 735.736 -3.00564 0.912147 0
M  V30 7586 H 734.929 -3.98883 3.08072 0
M  V30 7587 H 734.531 -2.25789 2.98153 0
M  V30 7588 H 736.823 -5.00475 4.56652 0
M  V30 7589 H 737.766 -4.08632 5.78295 0
M  V30 7590 H 738.174 -3.93435 4.04808 0
M  V30 7591 N 737.572 -1.44907 -0.619662 0
M  V30 7592 C 738.812 -1.49822 -1.39042 0
M  V30 7593 C 739.176 -0.131803 -1.91547 0
M  V30 7594 O 740.377 -0.0556413 -2.68742 0
M  V30 7595 C 738.648 -2.53805 -2.5163 0
M  V30 7596 S 740.207 -2.77855 -3.3962 0
M  V30 7597 H 737.025 -0.529774 -0.474195 0
M  V30 7598 H 739.627 -1.81907 -0.716236 0
M  V30 7599 H 738.331 -3.51772 -2.11387 0
M  V30 7600 H 737.862 -2.23331 -3.23863 0
M  V30 7601 H 739.877 -2.10319 -4.49422 0
M  V30 7602 N 739.05 0.861098 -1.31996 0
M  V30 7603 C 740.296 1.61707 -1.23379 0
M  V30 7604 C 740.651 1.91315 0.204026 0
M  V30 7605 O 739.944 1.53997 1.13998 0
M  V30 7606 C 740.138 2.94822 -2.02027 0
M  V30 7607 C 739.967 2.78212 -3.5331 0
M  V30 7608 C 738.737 2.76933 -4.22654 0
M  V30 7609 C 740.935 2.52432 -4.48088 0
M  V30 7610 N 738.917 2.51466 -5.60034 0
M  V30 7611 C 740.288 2.36312 -5.73198 0
M  V30 7612 C 742.343 2.37848 -4.37416 0
M  V30 7613 C 741.046 2.0709 -6.88844 0
M  V30 7614 C 743.072 2.10016 -5.52854 0
M  V30 7615 C 742.434 1.94691 -6.7696 0
M  V30 7616 H 738.533 0.595703 -0.506618 0
M  V30 7617 H 741.117 1.01275 -1.66287 0
M  V30 7618 H 739.288 3.53243 -1.61474 0
M  V30 7619 H 741.02 3.59756 -1.85358 0
M  V30 7620 H 737.775 2.89638 -3.74709 0
M  V30 7621 H 738.199 2.41679 -6.32392 0
M  V30 7622 H 742.841 2.4842 -3.42122 0
M  V30 7623 H 740.559 1.95256 -7.84156 0
M  V30 7624 H 744.145 1.99519 -5.46519 0
M  V30 7625 H 743.025 1.7346 -7.64775 0
M  V30 7626 N 740.528 1.15101 1.07655 0
M  V30 7627 C 741.753 0.948177 1.84457 0
M  V30 7628 C 742.178 -0.498432 1.81376 0
M  V30 7629 O 741.536 -1.35509 1.20445 0
M  V30 7630 C 741.584 1.46318 3.29581 0
M  V30 7631 O 740.688 0.660342 4.07079 0
M  V30 7632 H 740.029 0.338428 0.571281 0
M  V30 7633 H 742.559 1.5301 1.35828 0
M  V30 7634 H 742.569 1.47468 3.80417 0
M  V30 7635 H 741.244 2.51635 3.31138 0
M  V30 7636 H 739.821 0.718216 3.65918 0
M  V30 7637 N 742.006 -1.2595 0.947325 0
M  V30 7638 C 743.417 -1.75389 0.639963 0
M  V30 7639 C 743.768 -1.77081 -0.844788 0
M  V30 7640 O 742.893 -1.3869 -1.66114 0
M  V30 7641 C 743.488 -3.18506 1.15496 0
M  V30 7642 C 742.047 -3.65534 0.897894 0
M  V30 7643 C 741.194 -2.44818 1.30228 0
M  V30 7644 H 744.145 -1.1194 1.12495 0
M  V30 7645 H 744.166 -3.77045 0.511627 0
M  V30 7646 H 743.678 -3.17243 2.23559 0
M  V30 7647 H 741.779 -3.72221 -0.168096 0
M  V30 7648 H 741.892 -4.54039 1.52922 0
M  V30 7649 H 740.256 -2.44291 0.720678 0
M  V30 7650 H 741.039 -2.46251 2.39198 0
M  V30 7651 N 743.484 -0.715051 -1.40445 0
M  V30 7652 C 744.895 -0.326763 -1.83818 0
M  V30 7653 C 745.246 1.13851 -1.59789 0
M  V30 7654 O 744.371 1.87611 -1.07848 0
M  V30 7655 C 744.966 -0.586297 -3.33688 0
M  V30 7656 C 743.525 -0.251724 -3.75557 0
M  V30 7657 C 742.672 -0.858928 -2.63662 0
M  V30 7658 H 745.623 -0.914241 -1.2972 0
M  V30 7659 H 745.644 0.148636 -3.8021 0
M  V30 7660 H 745.156 -1.65281 -3.51146 0
M  V30 7661 H 743.257 0.809754 -3.63695 0
M  V30 7662 H 743.37 -0.720348 -4.73654 0
M  V30 7663 H 741.734 -0.287013 -2.53078 0
M  V30 7664 H 742.517 -1.9297 -2.83932 0
M  V30 7665 N 744.962 1.50701 -0.461195 0
M  V30 7666 C 745.892 2.31182 0.328184 0
M  V30 7667 C 746.873 1.37644 0.999408 0
M  V30 7668 O 748.058 1.66565 0.99848 0
M  V30 7669 C 745.188 3.17113 1.41621 0
M  V30 7670 C 744.142 4.19124 0.867148 0
M  V30 7671 C 743.468 4.93728 2.05272 0
M  V30 7672 C 744.768 5.22174 -0.114808 0
M  V30 7673 H 746.462 2.97423 -0.343501 0
M  V30 7674 H 744.008 1.43033 -0.166641 0
M  V30 7675 H 745.961 3.72208 1.97584 0
M  V30 7676 H 744.685 2.48739 2.11652 0
M  V30 7677 H 743.344 3.65116 0.329557 0
M  V30 7678 H 742.992 4.21835 2.73978 0
M  V30 7679 H 742.692 5.62724 1.69161 0
M  V30 7680 H 744.216 5.51654 2.61744 0
M  V30 7681 H 745.63 5.72198 0.355316 0
M  V30 7682 H 744.027 5.98833 -0.389689 0
M  V30 7683 H 745.097 4.7353 -1.04391 0
M  V30 7684 N 746.441 0.193421 1.56409 0
M  V30 7685 C 747.718 -0.493318 1.89277 0
M  V30 7686 C 748.098 -1.79765 1.10669 0
M  V30 7687 O 747.446 -2.27558 0.207274 0
M  V30 7688 C 747.656 -0.713732 3.41624 0
M  V30 7689 C 749.004 -1.03385 4.11821 0
M  V30 7690 O 750.028 -0.801511 3.47065 0
M  V30 7691 O 748.887 -1.47327 5.26267 0
M  V30 7692 H 745.981 -0.256973 0.786062 0
M  V30 7693 H 748.527 0.23351 1.68086 0
M  V30 7694 H 747.299 0.207446 3.9075 0
M  V30 7695 H 746.922 -1.49308 3.68501 0
M  V30 7696 N 747.919 -1.57396 -0.0801906 0
M  V30 7697 C 748.866 -2.03107 -1.09618 0
M  V30 7698 C 749.836 -0.910118 -1.38946 0
M  V30 7699 O 751.021 -1.17719 -1.50156 0
M  V30 7700 C 748.161 -2.47293 -2.40708 0
M  V30 7701 C 747.274 -3.72972 -2.17982 0
M  V30 7702 C 746.409 -4.05975 -3.42576 0
M  V30 7703 C 745.448 -5.24719 -3.15177 0
M  V30 7704 N 744.585 -5.53401 -4.32078 0
M  V30 7705 H 749.425 -2.89677 -0.69939 0
M  V30 7706 H 746.962 -1.43263 -0.333785 0
M  V30 7707 H 748.92 -2.7096 -3.17232 0
M  V30 7708 H 747.55 -1.63713 -2.78205 0
M  V30 7709 H 746.602 -3.56693 -1.32189 0
M  V30 7710 H 747.914 -4.59638 -1.93738 0
M  V30 7711 H 747.068 -4.30498 -4.275 0
M  V30 7712 H 745.807 -3.17859 -3.69887 0
M  V30 7713 H 744.812 -5 -2.28648 0
M  V30 7714 H 746.037 -6.14445 -2.89197 0
M  V30 7715 H 743.983 -4.68245 -4.59437 0
M  V30 7716 H 743.9 -6.34469 -4.11078 0
M  V30 7717 H 745.168 -5.8247 -5.18024 0
M  V30 7718 N 749.397 0.351382 -1.53633 0
M  V30 7719 C 750.33 1.45407 -1.75875 0
M  V30 7720 C 751.308 1.50822 -0.607566 0
M  V30 7721 O 752.492 1.68658 -0.841818 0
M  V30 7722 C 749.619 2.8369 -1.85034 0
M  V30 7723 C 748.665 2.95935 -3.07123 0
M  V30 7724 S 749.498 2.63215 -4.66345 0
M  V30 7725 C 750.654 4.03622 -4.78373 0
M  V30 7726 H 750.887 1.26322 -2.69128 0
M  V30 7727 H 748.42 0.546581 -1.44402 0
M  V30 7728 H 750.378 3.6336 -1.90996 0
M  V30 7729 H 749.039 3.00076 -0.928074 0
M  V30 7730 H 748.232 3.97243 -3.10183 0
M  V30 7731 H 747.834 2.24205 -2.99346 0
M  V30 7732 H 750.126 4.98046 -4.593 0
M  V30 7733 H 751.069 4.05559 -5.80454 0
M  V30 7734 H 751.477 3.91282 -4.06889 0
M  V30 7735 N 750.875 1.45233 0.611969 0
M  V30 7736 C 752.123 1.48727 1.36838 0
M  V30 7737 C 752.444 0.128616 1.94575 0
M  V30 7738 O 751.714 -0.84149 1.76906 0
M  V30 7739 H 750.294 0.547695 0.507976 0
M  V30 7740 H 752.956 1.81156 0.718925 0
M  V30 7741 H 752.052 2.2236 2.19003 0
M  V30 7742 N 752.353 -0.854086 1.3245 0
M  V30 7743 C 753.301 -1.98411 1.21391 0
M  V30 7744 C 754.295 -1.68984 0.118586 0
M  V30 7745 O 755.501 -1.77784 0.281549 0
M  V30 7746 H 751.876 -0.651077 0.376301 0
M  V30 7747 H 753.847 -2.04867 2.16961 0
M  V30 7748 C 752.596 -3.34345 0.954407 0
M  V30 7749 H 751.919 -3.57518 1.78944 0
M  V30 7750 H 753.359 -4.13959 0.917269 0
M  V30 7751 C 751.818 -3.35151 -0.342838 0
M  V30 7752 O 752.348 -3.78174 -1.35452 0
M  V30 7753 N 750.554 -2.88298 -0.365012 0
M  V30 7754 H 750.101 -2.53481 0.4588 0
M  V30 7755 H 750.059 -2.8922 -1.23284 0
M  V30 7756 N 753.831 -1.1567 -1.07043 0
M  V30 7757 C 755.056 -0.957946 -1.83952 0
M  V30 7758 C 755.481 0.488807 -1.81638 0
M  V30 7759 O 754.839 1.34869 -1.21162 0
M  V30 7760 C 754.887 -1.48064 -3.288 0
M  V30 7761 O 753.991 -0.681921 -4.06723 0
M  V30 7762 H 753.332 -0.341453 -0.569479 0
M  V30 7763 H 755.862 -1.53728 -1.35015 0
M  V30 7764 H 755.872 -1.49484 -3.7963 0
M  V30 7765 H 754.547 -2.53388 -3.29799 0
M  V30 7766 H 753.124 -0.737612 -3.65532 0
M  V30 7767 N 755.309 1.25446 -0.953992 0
M  V30 7768 C 756.555 1.9343 -0.60933 0
M  V30 7769 C 756.888 1.74542 0.851388 0
M  V30 7770 O 756.163 1.09014 1.61078 0
M  V30 7771 C 756.446 3.46844 -0.968041 0
M  V30 7772 C 756.299 3.74961 -2.48444 0
M  V30 7773 C 757.618 4.37334 -0.492641 0
M  V30 7774 H 754.737 0.702502 -0.222844 0
M  V30 7775 H 757.379 1.48076 -1.19053 0
M  V30 7776 H 755.529 3.85604 -0.473465 0
M  V30 7777 H 757.201 3.45841 -3.05273 0
M  V30 7778 H 755.444 3.20589 -2.92241 0
M  V30 7779 H 756.115 4.82246 -2.68594 0
M  V30 7780 H 758.591 4.05873 -0.916878 0
M  V30 7781 H 757.467 5.43439 -0.772331 0
M  V30 7782 H 757.728 4.37908 0.607403 0
M  V30 7783 N 756.787 0.722489 1.40064 0
M  V30 7784 C 757.734 0.0743738 2.3068 0
M  V30 7785 C 758.704 -0.743004 1.48555 0
M  V30 7786 O 759.889 -0.705536 1.77276 0
M  V30 7787 C 757.029 -0.836292 3.34814 0
M  V30 7788 C 756.142 -0.00764663 4.31999 0
M  V30 7789 C 755.277 -0.918428 5.232 0
M  V30 7790 C 754.316 -0.0842838 6.12042 0
M  V30 7791 N 753.453 -0.950316 6.95639 0
M  V30 7792 H 758.293 0.852794 2.85537 0
M  V30 7793 H 755.83 0.432222 1.40607 0
M  V30 7794 H 757.788 -1.3786 3.93765 0
M  V30 7795 H 756.418 -1.58082 2.81443 0
M  V30 7796 H 755.47 0.651928 3.74772 0
M  V30 7797 H 756.782 0.63786 4.94705 0
M  V30 7798 H 755.936 -1.52902 5.87116 0
M  V30 7799 H 754.675 -1.59774 4.60786 0
M  V30 7800 H 753.68 0.5392 5.4715 0
M  V30 7801 H 754.905 0.591628 6.76518 0
M  V30 7802 H 752.851 -1.61515 6.35806 0
M  V30 7803 H 752.768 -0.361004 7.55138 0
M  V30 7804 H 754.036 -1.54687 7.63997 0
M  V30 7805 N 758.265 -1.50454 0.469181 0
M  V30 7806 C 759.513 -2.01916 -0.0862982 0
M  V30 7807 C 759.834 -1.35337 -1.40388 0
M  V30 7808 O 759.104 -0.498096 -1.89462 0
M  V30 7809 H 757.684 -0.746185 -0.0348825 0
M  V30 7810 H 760.346 -1.84804 0.619167 0
M  V30 7811 H 759.442 -3.11182 -0.239189 0
M  V30 7812 N 759.743 -0.201713 -1.56304 0
M  V30 7813 C 760.992 0.435557 -1.96941 0
M  V30 7814 C 761.305 1.62299 -1.09172 0
M  V30 7815 O 762.511 2.32849 -1.3962 0
M  V30 7816 C 760.967 0.826298 -3.50286 0
M  V30 7817 C 760.575 -0.337216 -4.46729 0
M  V30 7818 C 762.319 1.43028 -3.99679 0
M  V30 7819 C 760.226 0.0748539 -5.91353 0
M  V30 7820 H 759.156 0.1665 -0.735387 0
M  V30 7821 H 761.807 -0.294781 -1.81117 0
M  V30 7822 H 760.189 1.61349 -3.61639 0
M  V30 7823 H 761.363 -1.11476 -4.47113 0
M  V30 7824 H 759.678 -0.853126 -4.07567 0
M  V30 7825 H 762.275 1.75115 -5.05212 0
M  V30 7826 H 762.618 2.33911 -3.44371 0
M  V30 7827 H 763.151 0.706924 -3.91468 0
M  V30 7828 H 759.89 -0.799957 -6.506 0
M  V30 7829 H 759.41 0.817122 -5.94208 0
M  V30 7830 H 761.089 0.508389 -6.45 0
M  V30 7831 N 761.222 1.57436 0.0718424 0
M  V30 7832 C 762.172 2.00132 1.09229 0
M  V30 7833 C 763.156 0.883379 1.34481 0
M  V30 7834 O 764.348 1.14728 1.34783 0
M  V30 7835 C 761.477 2.44876 2.40605 0
M  V30 7836 C 760.563 3.63405 2.18627 0
M  V30 7837 N 760.954 4.77583 1.66579 0
M  V30 7838 C 759.252 3.69953 2.491 0
M  V30 7839 C 759.953 5.5943 1.59415 0
M  V30 7840 N 758.929 5.03275 2.05464 0
M  V30 7841 H 762.731 2.85849 0.683185 0
M  V30 7842 H 760.245 1.59987 0.278914 0
M  V30 7843 H 762.242 2.73703 3.14471 0
M  V30 7844 H 760.902 1.60546 2.82232 0
M  V30 7845 H 761.913 4.99875 1.35443 0
M  V30 7846 H 758.59 2.96336 2.94094 0
M  V30 7847 H 759.98 6.61093 1.20026 0
M  V30 7848 N 762.7 -0.34323 1.53817 0
M  V30 7849 C 763.947 -1.08344 1.71079 0
M  V30 7850 C 764.275 -1.88633 0.474133 0
M  V30 7851 O 763.53 -1.87984 -0.544116 0
M  V30 7852 C 763.829 -2.05195 2.92626 0
M  V30 7853 C 763.495 -1.41215 4.28216 0
M  V30 7854 C 762.157 -1.23495 4.65083 0
M  V30 7855 C 764.509 -0.951273 5.12445 0
M  V30 7856 C 761.837 -0.583065 5.83796 0
M  V30 7857 C 764.189 -0.313292 6.31824 0
M  V30 7858 C 762.853 -0.123779 6.67385 0
M  V30 7859 H 762.123 -0.396458 0.626021 0
M  V30 7860 H 764.77 -0.362689 1.88034 0
M  V30 7861 H 763.075 -2.83653 2.70275 0
M  V30 7862 H 764.772 -2.62462 3.03175 0
M  V30 7863 H 761.362 -1.56005 3.992 0
M  V30 7864 H 765.546 -1.07602 4.84495 0
M  V30 7865 H 760.802 -0.424854 6.09922 0
M  V30 7866 H 764.976 0.0519179 6.96381 0
M  V30 7867 H 762.603 0.383398 7.59233 0
M  V30 7868 N 764.178 -1.45556 -0.604258 0
M  V30 7869 C 765.418 -1.51289 -1.37445 0
M  V30 7870 C 765.782 -0.152112 -1.91397 0
M  V30 7871 O 766.983 -0.0841419 -2.68668 0
M  V30 7872 C 765.254 -2.5646 -2.48924 0
M  V30 7873 S 766.813 -2.81442 -3.36654 0
M  V30 7874 H 763.631 -0.534774 -0.468549 0
M  V30 7875 H 766.233 -1.82657 -0.696902 0
M  V30 7876 H 764.937 -3.53995 -2.07644 0
M  V30 7877 H 764.468 -2.26753 -3.21476 0
M  V30 7878 H 766.483 -2.15074 -4.47166 0
M  V30 7879 N 765.656 0.84705 -1.32902 0
M  V30 7880 C 766.606 1.94451 -1.19049 0
M  V30 7881 C 767.59 1.60617 -0.095461 0
M  V30 7882 O 768.782 1.74033 -0.322739 0
M  V30 7883 C 765.911 3.30645 -0.923509 0
M  V30 7884 C 764.997 3.70675 -2.0606 0
M  V30 7885 N 765.388 3.82468 -3.30986 0
M  V30 7886 C 763.686 4.00357 -1.96547 0
M  V30 7887 C 764.387 4.17056 -4.05511 0
M  V30 7888 N 763.363 4.28985 -3.33876 0
M  V30 7889 H 767.165 2.01713 -2.1375 0
M  V30 7890 H 764.679 1.03928 -1.24791 0
M  V30 7891 H 766.676 4.0905 -0.805212 0
M  V30 7892 H 765.336 3.24697 0.0150523 0
M  V30 7893 H 766.347 3.66589 -3.65832 0
M  V30 7894 H 763.024 4.02666 -1.10299 0
M  V30 7895 H 764.414 4.33585 -5.13277 0
M  V30 7896 N 767.134 1.16236 1.06428 0
M  V30 7897 C 768.411 0.853294 1.76006 0
M  V30 7898 C 768.791 -0.649162 2.00871 0
M  V30 7899 O 768.139 -1.59653 1.63472 0
M  V30 7900 C 768.349 1.67448 3.06206 0
M  V30 7901 C 769.697 1.8866 3.80385 0
M  V30 7902 O 770.721 1.64303 3.16043 0
M  V30 7903 O 769.58 2.29518 4.95968 0
M  V30 7904 H 766.674 0.314737 0.764767 0
M  V30 7905 H 769.22 1.26865 1.12709 0
M  V30 7906 H 767.992 2.69411 2.83784 0
M  V30 7907 H 767.615 1.25608 3.77238 0
M  V30 7908 N 768.612 -1.24939 0.960631 0
M  V30 7909 C 769.542 -2.28 0.503815 0
M  V30 7910 C 770.523 -1.63959 -0.452928 0
M  V30 7911 O 771.708 -1.91009 -0.350585 0
M  V30 7912 C 768.838 -3.46643 -0.213535 0
M  V30 7913 C 767.792 -4.22903 0.658535 0
M  V30 7914 C 767.118 -5.34363 -0.189902 0
M  V30 7915 C 768.418 -4.84949 1.93963 0
M  V30 7916 H 770.112 -2.66462 1.36521 0
M  V30 7917 H 767.658 -1.28093 0.657897 0
M  V30 7918 H 769.611 -4.1787 -0.544286 0
M  V30 7919 H 768.335 -3.07187 -1.10923 0
M  V30 7920 H 766.994 -3.53467 0.972455 0
M  V30 7921 H 766.642 -4.91147 -1.08553 0
M  V30 7922 H 766.342 -5.86302 0.390331 0
M  V30 7923 H 767.866 -6.0842 -0.515484 0
M  V30 7924 H 769.28 -5.48288 1.67491 0
M  V30 7925 H 767.677 -5.47091 2.46601 0
M  V30 7926 H 768.747 -4.06799 2.639 0
M  V30 7927 N 770.09 -0.729906 -1.39679 0
M  V30 7928 C 771.336 -0.27603 -2.00913 0
M  V30 7929 C 771.669 1.13227 -1.57776 0
M  V30 7930 O 770.944 1.7709 -0.804319 0
M  V30 7931 C 771.227 -0.372157 -3.58172 0
M  V30 7932 C 771.08 -1.81986 -4.11341 0
M  V30 7933 C 772.399 0.248378 -4.39399 0
M  V30 7934 H 769.518 -0.101773 -0.729939 0
M  V30 7935 H 772.16 -0.925104 -1.65957 0
M  V30 7936 H 770.31 0.180459 -3.88081 0
M  V30 7937 H 771.982 -2.42896 -3.92172 0
M  V30 7938 H 770.225 -2.34287 -3.65092 0
M  V30 7939 H 770.896 -1.83842 -5.20486 0
M  V30 7940 H 773.372 -0.222645 -4.15504 0
M  V30 7941 H 772.248 0.150746 -5.48693 0
M  V30 7942 H 772.509 1.33378 -4.21501 0
M  V30 7943 N 771.568 1.50203 -0.477153 0
M  V30 7944 C 772.793 2.07263 0.0754986 0
M  V30 7945 C 773.218 1.33801 1.32208 0
M  V30 7946 O 772.576 0.387482 1.77111 0
M  V30 7947 C 772.624 3.59028 0.336348 0
M  V30 7948 O 771.728 3.87339 1.4157 0
M  V30 7949 H 771.069 0.663815 -0.015662 0
M  V30 7950 H 773.599 1.93321 -0.669936 0
M  V30 7951 H 773.609 4.03927 0.575034 0
M  V30 7952 H 772.284 4.11912 -0.574551 0
M  V30 7953 H 770.861 3.54272 1.16385 0
M  V30 7954 N 773.046 0.209999 1.56195 0
M  V30 7955 C 773.976 -0.699746 2.22769 0
M  V30 7956 C 774.957 -1.20993 1.1956 0
M  V30 7957 O 776.142 -1.25605 1.48112 0
M  V30 7958 C 773.272 -1.91302 2.89863 0
M  V30 7959 C 772.226 -1.53715 3.99444 0
M  V30 7960 C 771.552 -2.82826 4.53777 0
M  V30 7961 C 772.852 -0.735836 5.17091 0
M  V30 7962 H 774.546 -0.144716 2.9905 0
M  V30 7963 H 772.092 -0.0681645 1.43839 0
M  V30 7964 H 774.045 -2.5548 3.35124 0
M  V30 7965 H 772.769 -2.49283 2.11011 0
M  V30 7966 H 771.428 -0.918892 3.54897 0
M  V30 7967 H 771.076 -3.38927 3.71669 0
M  V30 7968 H 770.776 -2.58415 5.27727 0
M  V30 7969 H 772.3 -3.47966 5.01749 0
M  V30 7970 H 773.714 -1.28105 5.58804 0
M  V30 7971 H 772.111 -0.589272 5.972 0
M  V30 7972 H 773.181 0.260004 4.84202 0
M  V30 7973 N 774.524 -1.57472 -0.0634922 0
M  V30 7974 C 775.764 -1.89491 -0.766312 0
M  V30 7975 C 776.128 -0.80475 -1.74321 0
M  V30 7976 O 777.329 -1.00825 -2.49174 0
M  V30 7977 C 775.6 -3.26731 -1.44851 0
M  V30 7978 S 777.159 -3.80516 -2.18525 0
M  V30 7979 H 773.977 -0.663832 -0.254653 0
M  V30 7980 H 776.579 -1.95488 -0.0220867 0
M  V30 7981 H 775.283 -4.03967 -0.723824 0
M  V30 7982 H 774.814 -3.23953 -2.232 0
M  V30 7983 H 776.829 -3.5647 -3.45172 0
M  V30 7984 N 776.003 0.335068 -1.53997 0
M  V30 7985 C 776.951 1.43206 -1.83289 0
M  V30 7986 C 777.945 1.54081 -0.703953 0
M  V30 7987 O 779.151 1.56603 -0.887432 0
M  V30 7988 H 775.526 0.477655 -0.580818 0
M  V30 7989 H 777.497 1.15719 -2.75049 0
M  V30 7990 C 776.246 2.79602 -2.06683 0
M  V30 7991 H 775.569 2.72004 -2.93008 0
M  V30 7992 H 777.009 3.55459 -2.31139 0
M  V30 7993 C 775.468 3.25873 -0.854883 0
M  V30 7994 O 775.998 4.01657 -0.0584648 0
M  V30 7995 N 774.204 2.82777 -0.669729 0
M  V30 7996 H 773.751 2.21269 -1.31901 0
M  V30 7997 H 773.709 3.1409 0.13969 0
M  V30 7998 N 777.481 1.45874 0.596531 0
M  V30 7999 C 778.728 1.50467 1.35521 0
M  V30 8000 C 779.056 0.150802 1.93915 0
M  V30 8001 O 778.311 -0.851913 1.76184 0
M  V30 8002 C 778.61 2.54034 2.51399 0
M  V30 8003 C 778.276 3.9844 2.11085 0
M  V30 8004 C 776.938 4.37758 1.99804 0
M  V30 8005 C 779.29 4.89209 1.79788 0
M  V30 8006 C 776.618 5.65727 1.55465 0
M  V30 8007 C 778.97 6.17602 1.36931 0
M  V30 8008 C 777.634 6.5584 1.24218 0
M  V30 8009 H 776.904 0.550597 0.495907 0
M  V30 8010 H 779.551 1.79279 0.673145 0
M  V30 8011 H 777.856 2.18832 3.24992 0
M  V30 8012 H 779.553 2.54822 3.09624 0
M  V30 8013 H 776.143 3.67353 2.20794 0
M  V30 8014 H 780.327 4.59562 1.87395 0
M  V30 8015 H 775.583 5.94139 1.44253 0
M  V30 8016 H 779.757 6.87373 1.11764 0
M  V30 8017 H 777.384 7.54897 0.896353 0
M  V30 8018 N 778.959 -0.83999 1.33349 0
M  V30 8019 C 779.909 -1.93817 1.20079 0
M  V30 8020 C 780.893 -1.60564 0.103978 0
M  V30 8021 O 782.085 -1.73859 0.331964 0
M  V30 8022 C 779.214 -3.30151 0.941031 0
M  V30 8023 C 778.3 -3.69577 2.08023 0
M  V30 8024 N 778.691 -3.80707 3.3301 0
M  V30 8025 C 776.989 -3.99309 1.98667 0
M  V30 8026 C 777.69 -4.14899 4.07717 0
M  V30 8027 N 776.666 -4.27208 3.36146 0
M  V30 8028 H 780.468 -2.00576 2.14817 0
M  V30 8029 H 777.982 -1.03264 1.2534 0
M  V30 8030 H 779.979 -4.08617 0.826894 0
M  V30 8031 H 778.639 -3.247 0.00216738 0
M  V30 8032 H 779.65 -3.64644 3.67771 0
M  V30 8033 H 776.327 -4.02076 1.12433 0
M  V30 8034 H 777.717 -4.30857 5.15569 0
M  V30 8035 N 780.437 -1.16799 -1.0581 0
M  V30 8036 C 781.385 -0.875111 -2.1551 0
M  V30 8037 C 782.379 0.157781 -1.68664 0
M  V30 8038 O 783.585 0.011297 -1.79996 0
M  V30 8039 H 779.96 -0.26542 -0.703602 0
M  V30 8040 H 781.931 -1.8076 -2.37421 0
M  V30 8041 C 780.68 -0.39802 -3.45414 0
M  V30 8042 H 780.003 -1.18425 -3.81858 0
M  V30 8043 H 781.443 -0.231913 -4.23365 0
M  V30 8044 C 779.902 0.88327 -3.25115 0
M  V30 8045 O 780.432 1.95145 -3.51114 0
M  V30 8046 N 778.638 0.828961 -2.78526 0
M  V30 8047 H 778.185 -0.0405029 -2.57568 0
M  V30 8048 H 778.143 1.68673 -2.65324 0
M  V30 8049 N 781.915 1.24427 -0.967243 0
M  V30 8050 C 783.145 1.96256 -0.64554 0
M  V30 8051 C 783.553 1.71959 0.789098 0
M  V30 8052 O 782.896 0.999913 1.54102 0
M  V30 8053 C 782.958 3.49553 -0.839798 0
M  V30 8054 C 782.622 3.97548 -2.25399 0
M  V30 8055 C 783.619 4.07257 -3.23168 0
M  V30 8056 C 781.304 4.30884 -2.58156 0
M  V30 8057 C 783.298 4.49635 -4.51782 0
M  V30 8058 C 780.985 4.72946 -3.86996 0
M  V30 8059 C 781.983 4.82286 -4.83621 0
M  V30 8060 O 781.671 5.23409 -6.10162 0
M  V30 8061 H 781.403 0.632002 -0.239895 0
M  V30 8062 H 783.957 1.59224 -1.29757 0
M  V30 8063 H 782.187 3.86479 -0.130603 0
M  V30 8064 H 783.876 4.02591 -0.517249 0
M  V30 8065 H 784.642 3.8172 -2.9919 0
M  V30 8066 H 780.521 4.22833 -1.83666 0
M  V30 8067 H 784.065 4.5684 -5.27203 0
M  V30 8068 H 779.962 4.9793 -4.10775 0
M  V30 8069 H 780.73 5.4156 -6.13722 0
M  V30 8070 N 783.393 0.737304 1.3929 0
M  V30 8071 C 784.67 0.212464 1.94443 0
M  V30 8072 C 785.05 -1.28621 1.67391 0
M  V30 8073 O 784.398 -2.0529 1.00342 0
M  V30 8074 C 784.608 0.548565 3.44662 0
M  V30 8075 C 785.956 0.499177 4.21656 0
M  V30 8076 O 786.98 0.485892 3.5287 0
M  V30 8077 O 785.839 0.495739 5.44247 0
M  V30 8078 H 782.933 0.0395457 0.826054 0
M  V30 8079 H 785.479 0.816319 1.48776 0
M  V30 8080 H 784.251 1.58426 3.57795 0
M  V30 8081 H 783.874 -0.0841399 3.97511 0
M  V30 8082 N 784.871 -1.49948 0.485112 0
M  V30 8083 C 785.819 -2.30449 -0.315609 0
M  V30 8084 C 786.813 -1.38351 -0.977516 0
M  V30 8085 O 788.019 -1.55477 -0.907019 0
M  V30 8086 H 784.394 -0.742262 -0.120629 0
M  V30 8087 H 786.365 -2.95925 0.383552 0
M  V30 8088 C 785.114 -3.19283 -1.37673 0
M  V30 8089 H 784.437 -3.90067 -0.876801 0
M  V30 8090 H 785.877 -3.78579 -1.90929 0
M  V30 8091 C 784.336 -2.37817 -2.38631 0
M  V30 8092 O 784.866 -2.0711 -3.44192 0
M  V30 8093 N 783.072 -2.00135 -2.107 0
M  V30 8094 H 782.619 -2.25307 -1.24878 0
M  V30 8095 H 782.577 -1.45933 -2.7848 0
M  V30 8096 N 786.349 -0.21828 -1.56081 0
M  V30 8097 C 787.279 0.687922 -2.23136 0
M  V30 8098 C 788.26 1.20357 -1.202 0
M  V30 8099 O 789.445 1.24817 -1.48776 0
M  V30 8100 C 786.575 1.89762 -2.90874 0
M  V30 8101 C 785.529 1.51595 -4.00254 0
M  V30 8102 C 784.855 2.80415 -4.55271 0
M  V30 8103 C 786.155 0.708404 -5.17474 0
M  V30 8104 H 787.849 0.128854 -2.99123 0
M  V30 8105 H 785.395 0.0605354 -1.43873 0
M  V30 8106 H 787.348 2.53699 -3.36474 0
M  V30 8107 H 786.072 2.4816 -2.1233 0
M  V30 8108 H 784.731 0.900058 -3.55379 0
M  V30 8109 H 784.379 3.36951 -3.73461 0
M  V30 8110 H 784.079 2.55613 -5.2909 0
M  V30 8111 H 785.603 3.453 -5.03587 0
M  V30 8112 H 787.017 1.2514 -5.59476 0
M  V30 8113 H 785.414 0.557593 -5.97504 0
M  V30 8114 H 786.484 -0.285679 -4.84058 0
M  V30 8115 N 787.827 1.57504 0.0551401 0
M  V30 8116 C 789.243 1.54236 0.410292 0
M  V30 8117 C 789.443 0.940839 1.78187 0
M  V30 8118 O 788.499 0.550541 2.46425 0
M  V30 8119 C 789.812 2.98816 0.336064 0
M  V30 8120 C 791.36 3.10236 0.415047 0
M  V30 8121 C 791.835 4.56499 0.37055 0
M  V30 8122 N 793.326 4.61199 0.43013 0
M  V30 8123 C 794.061 5.71873 0.418179 0
M  V30 8124 N 793.557 6.91864 0.360056 0
M  V30 8125 N 795.35 5.60165 0.465977 0
M  V30 8126 H 787.501 1.94965 -0.842759 0
M  V30 8127 H 789.764 0.893096 -0.317937 0
M  V30 8128 H 789.47 3.4645 -0.605429 0
M  V30 8129 H 789.344 3.59564 1.13988 0
M  V30 8130 H 791.731 2.62566 1.34697 0
M  V30 8131 H 791.812 2.52367 -0.417648 0
M  V30 8132 H 791.456 5.0483 -0.557592 0
M  V30 8133 H 791.386 5.12249 1.221 0
M  V30 8134 H 793.877 3.74857 0.478623 0
M  V30 8135 H 794.19 7.71983 0.35532 0
M  V30 8136 H 792.535 6.94233 0.326492 0
M  V30 8137 H 795.726 4.65322 0.509194 0
M  V30 8138 H 795.899 6.46413 0.453194 0
M  V30 8139 N 789.305 -0.326896 1.54172 0
M  V30 8140 C 790.255 -1.40319 1.79707 0
M  V30 8141 C 791.239 -1.47056 0.652938 0
M  V30 8142 O 792.431 -1.51645 0.91284 0
M  V30 8143 C 789.56 -2.77222 2.02491 0
M  V30 8144 C 788.646 -2.74811 3.23016 0
M  V30 8145 N 789.037 -2.42022 4.44138 0
M  V30 8146 C 787.335 -3.05943 3.24522 0
M  V30 8147 C 788.036 -2.48263 5.26061 0
M  V30 8148 N 787.012 -2.84567 4.63166 0
M  V30 8149 H 790.814 -1.13892 2.70935 0
M  V30 8150 H 788.328 -0.53536 1.53322 0
M  V30 8151 H 790.325 -3.54793 2.18923 0
M  V30 8152 H 788.985 -3.04582 1.12515 0
M  V30 8153 H 789.996 -2.14926 4.71197 0
M  V30 8154 H 786.673 -3.38367 2.44569 0
M  V30 8155 H 788.063 -2.2593 6.32776 0
M  V30 8156 N 790.784 -1.46188 -0.588786 0
M  V30 8157 C 792.031 -1.51184 -1.34721 0
M  V30 8158 C 792.359 -0.161084 -1.93832 0
M  V30 8159 O 791.614 0.842557 -1.76634 0
M  V30 8160 C 791.913 -2.55364 -2.50048 0
M  V30 8161 C 791.579 -3.99553 -2.08969 0
M  V30 8162 C 790.241 -4.38811 -1.9748 0
M  V30 8163 C 792.593 -4.90156 -1.77191 0
M  V30 8164 C 789.921 -5.66544 -1.52463 0
M  V30 8165 C 792.273 -6.1832 -1.33654 0
M  V30 8166 C 790.937 -6.5649 -1.20738 0
M  V30 8167 H 790.207 -0.55322 -0.49298 0
M  V30 8168 H 792.854 -1.79634 -0.663627 0
M  V30 8169 H 791.159 -2.20552 -3.23827 0
M  V30 8170 H 792.856 -2.5646 -3.08268 0
M  V30 8171 H 789.446 -3.68518 -2.18843 0
M  V30 8172 H 793.63 -4.60549 -1.84955 0
M  V30 8173 H 788.886 -5.94895 -1.411 0
M  V30 8174 H 793.06 -6.87956 -1.08117 0
M  V30 8175 H 790.687 -7.55362 -0.856307 0
M  V30 8176 N 792.262 0.832906 -1.33792 0
M  V30 8177 C 793.225 1.92471 -1.24449 0
M  V30 8178 C 794.225 1.59981 -0.162085 0
M  V30 8179 O 795.415 1.69208 -0.414029 0
M  V30 8180 C 792.547 3.28278 -0.919044 0
M  V30 8181 H 793.74 2.0218 -2.21502 0
M  V30 8182 H 791.293 1.0257 -1.17936 0
M  V30 8183 H 792.028 3.24263 0.048738 0
M  V30 8184 H 791.813 3.53241 -1.70187 0
M  V30 8185 H 793.303 4.08253 -0.878576 0
M  V30 8186 N 793.74 1.17359 1.05189 0
M  V30 8187 C 794.687 0.890325 2.12936 0
M  V30 8188 C 795.657 -0.165779 1.65271 0
M  V30 8189 O 796.842 -0.0285672 1.90779 0
M  V30 8190 C 793.982 0.409793 3.42658 0
M  V30 8191 C 793.095 1.53002 4.03998 0
M  V30 8192 C 792.23 1.00336 5.21638 0
M  V30 8193 C 791.269 2.09903 5.74984 0
M  V30 8194 N 790.406 1.58714 6.83926 0
M  V30 8195 H 795.246 1.81299 2.36505 0
M  V30 8196 H 792.783 0.904249 1.16025 0
M  V30 8197 H 794.741 0.112743 4.17048 0
M  V30 8198 H 793.371 -0.475915 3.19272 0
M  V30 8199 H 792.423 1.9428 3.27047 0
M  V30 8200 H 793.735 2.3564 4.39631 0
M  V30 8201 H 792.889 0.660158 6.03098 0
M  V30 8202 H 791.628 0.14642 4.8748 0
M  V30 8203 H 790.633 2.45081 4.92154 0
M  V30 8204 H 791.858 2.96013 6.1119 0
M  V30 8205 H 789.804 0.752915 6.51665 0
M  V30 8206 H 789.721 2.34959 7.18561 0
M  V30 8207 H 790.989 1.27287 7.69037 0
M  V30 8208 N 795.218 -1.23913 0.973828 0
M  V30 8209 C 796.165 -2.25132 0.508366 0
M  V30 8210 C 797.135 -1.59908 -0.449307 0
M  V30 8211 O 798.32 -1.87405 -0.358313 0
M  V30 8212 C 795.46 -3.4458 -0.189422 0
M  V30 8213 C 794.573 -4.24381 0.807738 0
M  V30 8214 C 793.708 -5.31131 0.0854315 0
M  V30 8215 C 792.747 -6.02635 1.07225 0
M  V30 8216 N 791.884 -7.01073 0.379535 0
M  V30 8217 H 796.724 -2.64313 1.37632 0
M  V30 8218 H 794.261 -1.29924 0.689802 0
M  V30 8219 H 796.219 -4.12706 -0.610733 0
M  V30 8220 H 794.849 -3.06218 -1.02129 0
M  V30 8221 H 793.901 -3.55735 1.34747 0
M  V30 8222 H 795.213 -4.73778 1.55998 0
M  V30 8223 H 794.367 -6.05422 -0.393572 0
M  V30 8224 H 793.106 -4.82658 -0.699461 0
M  V30 8225 H 792.111 -5.27143 1.56207 0
M  V30 8226 H 793.336 -6.53197 1.85769 0
M  V30 8227 H 791.282 -6.54862 -0.386269 0
M  V30 8228 H 791.199 -7.48382 1.07054 0
M  V30 8229 H 792.467 -7.79462 -0.0772984 0
M  V30 8230 N 796.696 -0.74468 -1.38897 0
M  V30 8231 C 797.626 -0.126355 -2.33158 0
M  V30 8232 C 798.607 0.713517 -1.54412 0
M  V30 8233 O 799.792 0.656523 -1.82766 0
M  V30 8234 C 796.922 0.774375 -3.38557 0
M  V30 8235 C 795.876 0.0379214 -4.27983 0
M  V30 8236 C 795.202 1.05631 -5.24162 0
M  V30 8237 C 796.502 -1.12523 -5.10035 0
M  V30 8238 H 798.196 -0.913744 -2.85116 0
M  V30 8239 H 795.742 -0.440847 -1.37086 0
M  V30 8240 H 797.695 1.21655 -4.03458 0
M  V30 8241 H 796.419 1.59399 -2.85061 0
M  V30 8242 H 795.078 -0.384733 -3.64576 0
M  V30 8243 H 794.726 1.86975 -4.66958 0
M  V30 8244 H 794.426 0.568261 -5.84846 0
M  V30 8245 H 795.95 1.49799 -5.9194 0
M  V30 8246 H 797.364 -0.761037 -5.68226 0
M  V30 8247 H 795.761 -1.54355 -5.79909 0
M  V30 8248 H 796.831 -1.94237 -4.44297 0
M  V30 8249 N 798.174 1.49689 -0.493057 0
M  V30 8250 C 799.451 1.9525 0.116907 0
M  V30 8251 C 799.831 1.43429 1.54892 0
M  V30 8252 O 799.179 0.644621 2.19219 0
M  V30 8253 C 799.389 3.4898 0.037705 0
M  V30 8254 C 800.737 4.24052 0.215621 0
M  V30 8255 O 801.761 3.5602 0.113266 0
M  V30 8256 O 800.62 5.44847 0.42477 0
M  V30 8257 H 797.714 0.820973 0.099662 0
M  V30 8258 H 800.26 1.60367 -0.555029 0
M  V30 8259 H 799.032 3.79309 -0.961251 0
M  V30 8260 H 798.655 3.9046 0.750137 0
M  V30 8261 N 799.652 0.226554 1.55963 0
M  V30 8262 C 801.063 -0.280381 1.84583 0
M  V30 8263 C 801.414 -1.59105 1.14804 0
M  V30 8264 O 800.539 -2.12297 0.419414 0
M  V30 8265 C 801.134 -0.515499 3.34855 0
M  V30 8266 C 799.693 -0.966733 3.63774 0
M  V30 8267 C 798.84 -0.0325753 2.77281 0
M  V30 8268 H 801.791 0.449626 1.52197 0
M  V30 8269 H 801.812 -1.36085 3.55332 0
M  V30 8270 H 801.324 0.438594 3.85614 0
M  V30 8271 H 799.425 -1.93401 3.18476 0
M  V30 8272 H 799.538 -0.837679 4.7172 0
M  V30 8273 H 797.902 -0.540279 2.48904 0
M  V30 8274 H 798.685 0.916524 3.30839 0
M  V30 8275 N 801.13 -1.57531 -0.0467866 0
M  V30 8276 C 802.546 -1.54451 -0.402107 0
M  V30 8277 C 802.746 -0.950275 -1.77685 0
M  V30 8278 O 801.802 -0.563602 -2.4613 0
M  V30 8279 C 803.115 -2.9899 -0.320212 0
M  V30 8280 C 804.663 -3.10452 -0.398588 0
M  V30 8281 C 805.138 -4.56689 -0.346335 0
M  V30 8282 N 806.629 -4.6142 -0.405666 0
M  V30 8283 C 807.364 -5.72087 -0.387845 0
M  V30 8284 N 806.86 -6.92045 -0.32336 0
M  V30 8285 N 808.653 -5.60404 -0.436263 0
M  V30 8286 H 800.804 -1.94515 0.853087 0
M  V30 8287 H 803.067 -0.891397 0.322669 0
M  V30 8288 H 802.773 -3.46124 0.623794 0
M  V30 8289 H 802.647 -3.60164 -1.1208 0
M  V30 8290 H 805.034 -2.63276 -1.33302 0
M  V30 8291 H 805.115 -2.52142 0.431026 0
M  V30 8292 H 804.759 -5.04527 0.584356 0
M  V30 8293 H 804.689 -5.12889 -1.19382 0
M  V30 8294 H 807.18 -3.75105 -0.458737 0
M  V30 8295 H 807.493 -7.7216 -0.314375 0
M  V30 8296 H 805.838 -6.94396 -0.28967 0
M  V30 8297 H 809.029 -4.65586 -0.48451 0
M  V30 8298 H 809.202 -6.46645 -0.418907 0
M  V30 8299 N 802.608 0.318715 -1.54344 0
M  V30 8300 C 804.024 0.663345 -1.45162 0
M  V30 8301 C 804.224 1.9145 -0.62842 0
M  V30 8302 O 803.28 2.5217 -0.129126 0
M  V30 8303 C 804.593 0.832836 -2.88937 0
M  V30 8304 C 806.141 0.929866 -2.98869 0
M  V30 8305 C 806.616 1.13149 -4.43803 0
M  V30 8306 N 808.107 1.19811 -4.47437 0
M  V30 8307 C 808.842 1.37209 -5.56742 0
M  V30 8308 N 808.338 1.51619 -6.76006 0
M  V30 8309 N 810.131 1.39956 -5.44398 0
M  V30 8310 H 802.282 -0.50357 -2.06344 0
M  V30 8311 H 804.545 -0.163528 -0.933789 0
M  V30 8312 H 804.251 -0.0153519 -3.51697 0
M  V30 8313 H 804.125 1.72721 -3.35332 0
M  V30 8314 H 806.512 1.76855 -2.36233 0
M  V30 8315 H 806.593 0.0118561 -2.55797 0
M  V30 8316 H 806.237 0.297636 -5.07027 0
M  V30 8317 H 806.167 2.06345 -4.84489 0
M  V30 8318 H 808.658 1.101 -3.61506 0
M  V30 8319 H 808.971 1.64599 -7.55067 0
M  V30 8320 H 807.316 1.48708 -6.78904 0
M  V30 8321 H 810.507 1.28298 -4.50175 0
M  V30 8322 H 810.68 1.53172 -6.29637 0
M  V30 8323 N 804.086 1.46499 0.581025 0
M  V30 8324 C 804.996 1.59778 1.71779 0
M  V30 8325 C 806.012 0.481223 1.67213 0
M  V30 8326 O 807.188 0.74557 1.87091 0
M  V30 8327 C 804.253 1.58626 3.08283 0
M  V30 8328 C 803.314 2.81527 3.241 0
M  V30 8329 C 802.547 2.80421 4.54092 0
M  V30 8330 O 802.77 1.89262 5.38085 0
M  V30 8331 O 801.704 3.71984 4.73193 0
M  V30 8332 H 805.53 2.55918 1.63523 0
M  V30 8333 H 803.115 1.29311 0.748267 0
M  V30 8334 H 804.997 1.60686 3.89561 0
M  V30 8335 H 803.672 0.656467 3.16973 0
M  V30 8336 H 802.579 2.85021 2.42309 0
M  V30 8337 H 803.912 3.73721 3.20302 0
M  V30 8338 N 805.565 -0.825799 1.34232 0
M  V30 8339 C 806.813 -1.57873 1.26177 0
M  V30 8340 C 807.134 -1.94267 -0.168904 0
M  V30 8341 O 806.404 -1.62045 -1.10084 0
M  V30 8342 H 804.984 -0.585388 0.464037 0
M  V30 8343 H 807.646 -0.986163 1.6811 0
M  V30 8344 H 806.742 -2.50283 1.86453 0
M  V30 8345 N 807.043 -1.17915 -1.04565 0
M  V30 8346 C 808.291 -0.969505 -1.77327 0
M  V30 8347 C 808.612 0.502569 -1.88412 0
M  V30 8348 O 807.882 1.36467 -1.40547 0
M  V30 8349 H 806.462 -0.355723 -0.656864 0
M  V30 8350 H 809.124 -1.48506 -1.26223 0
M  V30 8351 H 808.22 -1.40324 -2.78775 0
M  V30 8352 N 808.521 1.23394 -0.980386 0
M  V30 8353 C 809.798 1.87242 -0.565667 0
M  V30 8354 C 810.178 1.88151 0.957197 0
M  V30 8355 O 809.526 1.36309 1.8339 0
M  V30 8356 C 809.736 3.28743 -1.17172 0
M  V30 8357 C 811.084 4.05335 -1.26446 0
M  V30 8358 O 812.108 3.37962 -1.12517 0
M  V30 8359 O 810.967 5.25908 -1.48604 0
M  V30 8360 H 808.061 0.80477 -0.190459 0
M  V30 8361 H 810.607 1.3127 -1.07547 0
M  V30 8362 H 809.379 3.22647 -2.21392 0
M  V30 8363 H 809.002 3.92305 -0.646739 0
M  V30 8364 N 809.999 0.752036 1.385 0
M  V30 8365 C 810.931 0.0835089 2.29048 0
M  V30 8366 C 811.944 -0.685402 1.47669 0
M  V30 8367 O 813.133 -0.526748 1.70551 0
M  V30 8368 C 810.233 -0.905772 3.26572 0
M  V30 8369 C 809.406 -0.194828 4.36966 0
M  V30 8370 C 808.465 -1.09464 5.14688 0
M  V30 8371 O 807.491 -0.565743 5.66381 0
M  V30 8372 N 808.693 -2.42287 5.2752 0
M  V30 8373 H 811.458 0.861142 2.87062 0
M  V30 8374 H 809.019 0.602689 1.50264 0
M  V30 8375 H 811.011 -1.51072 3.75446 0
M  V30 8376 H 809.581 -1.58449 2.69467 0
M  V30 8377 H 808.801 0.590812 3.89747 0
M  V30 8378 H 810.089 0.297189 5.07931 0
M  V30 8379 H 809.487 -2.87715 4.8707 0
M  V30 8380 H 808.044 -2.97836 5.79773 0
M  V30 8381 N 811.477 -1.49425 0.500989 0
M  V30 8382 C 812.893 -1.58826 0.156951 0
M  V30 8383 C 813.093 -1.50622 -1.33848 0
M  V30 8384 O 812.149 -1.38016 -2.11442 0
M  V30 8385 C 813.462 -2.91611 0.73374 0
M  V30 8386 C 815.01 -3.05076 0.699846 0
M  V30 8387 C 815.485 -4.40479 1.2547 0
M  V30 8388 N 816.976 -4.4697 1.2154 0
M  V30 8389 C 817.711 -5.50189 1.6149 0
M  V30 8390 N 817.207 -6.60512 2.09034 0
M  V30 8391 N 819 -5.40903 1.52907 0
M  V30 8392 H 811.151 -1.53001 1.47324 0
M  V30 8393 H 813.414 -0.724765 0.61108 0
M  V30 8394 H 813.12 -3.03182 1.78251 0
M  V30 8395 H 812.994 -3.767 0.19417 0
M  V30 8396 H 815.381 -2.93134 -0.340085 0
M  V30 8397 H 815.462 -2.2167 1.27656 0
M  V30 8398 H 815.106 -4.53172 2.29341 0
M  V30 8399 H 815.036 -5.22524 0.653921 0
M  V30 8400 H 817.527 -3.67819 0.867043 0
M  V30 8401 H 817.84 -7.35372 2.37588 0
M  V30 8402 H 816.185 -6.61553 2.13008 0
M  V30 8403 H 819.376 -4.53606 1.15583 0
M  V30 8404 H 819.549 -6.21219 1.84365 0
M  V30 8405 N 812.955 -0.234822 -1.55841 0
M  V30 8406 C 814.201 0.393843 -1.98939 0
M  V30 8407 C 814.534 1.58466 -1.1226 0
M  V30 8408 O 813.809 1.93635 -0.183242 0
M  V30 8409 C 814.092 0.815492 -3.50745 0
M  V30 8410 C 813.945 -0.379878 -4.48193 0
M  V30 8411 C 815.264 1.66687 -4.07312 0
M  V30 8412 H 812.383 0.141681 -0.723253 0
M  V30 8413 H 815.025 -0.333716 -1.87046 0
M  V30 8414 H 813.175 1.43541 -3.6101 0
M  V30 8415 H 814.847 -1.0182 -4.49923 0
M  V30 8416 H 813.09 -1.02507 -4.21515 0
M  V30 8417 H 813.761 -0.0417069 -5.51984 0
M  V30 8418 H 816.237 1.14369 -4.00074 0
M  V30 8419 H 815.113 1.93078 -5.13821 0
M  V30 8420 H 815.374 2.63468 -3.55017 0
M  V30 8421 N 814.433 1.57553 0.0384317 0
M  V30 8422 C 815.38 2.05942 1.04194 0
M  V30 8423 C 816.35 0.946637 1.36484 0
M  V30 8424 O 817.535 1.21658 1.46983 0
M  V30 8425 C 814.675 2.53588 2.34066 0
M  V30 8426 C 813.788 3.7862 2.08017 0
M  V30 8427 C 812.923 4.14915 3.31692 0
M  V30 8428 C 811.962 5.32891 3.01155 0
M  V30 8429 N 811.099 5.64662 4.17254 0
M  V30 8430 H 815.939 2.91429 0.622341 0
M  V30 8431 H 813.476 1.44098 0.295684 0
M  V30 8432 H 815.434 2.79276 3.09937 0
M  V30 8433 H 814.064 1.71031 2.73767 0
M  V30 8434 H 813.116 3.60073 1.22686 0
M  V30 8435 H 814.428 4.64613 1.81484 0
M  V30 8436 H 813.582 4.41681 4.15936 0
M  V30 8437 H 812.321 3.27555 3.6133 0
M  V30 8438 H 811.326 5.05887 2.15311 0
M  V30 8439 H 812.551 6.21896 2.72804 0
M  V30 8440 H 810.497 4.80261 4.46861 0
M  V30 8441 H 810.414 6.45145 3.94112 0
M  V30 8442 H 811.682 5.96 5.02399 0
M  V30 8443 N 815.911 -0.310526 1.54511 0
M  V30 8444 C 817.136 -1.07046 1.7764 0
M  V30 8445 C 817.561 -1.80488 0.529696 0
M  V30 8446 O 816.919 -1.73702 -0.519361 0
M  V30 8447 C 816.967 -2.03411 2.97752 0
M  V30 8448 O 816.071 -3.11545 2.7021 0
M  V30 8449 H 815.412 -0.307994 0.588248 0
M  V30 8450 H 817.942 -0.350848 2.01569 0
M  V30 8451 H 817.952 -2.46048 3.2546 0
M  V30 8452 H 816.627 -1.49361 3.88155 0
M  V30 8453 H 815.204 -2.7349 2.53491 0
M  V30 8454 N 817.389 -1.46805 -0.573248 0
M  V30 8455 C 818.635 -1.5283 -1.33307 0
M  V30 8456 C 818.968 -0.183287 -1.93333 0
M  V30 8457 O 818.243 0.806354 -1.76998 0
M  V30 8458 C 818.526 -2.63414 -2.45531 0
M  V30 8459 C 818.379 -4.07478 -1.90478 0
M  V30 8460 C 819.698 -2.70014 -3.47535 0
M  V30 8461 H 816.817 -0.556371 -0.483343 0
M  V30 8462 H 819.459 -1.78787 -0.643066 0
M  V30 8463 H 817.609 -2.41412 -3.04389 0
M  V30 8464 H 819.281 -4.40795 -1.36004 0
M  V30 8465 H 817.524 -4.16511 -1.21248 0
M  V30 8466 H 818.195 -4.80598 -2.71531 0
M  V30 8467 H 820.671 -2.89817 -2.98572 0
M  V30 8468 H 819.547 -3.49192 -4.23504 0
M  V30 8469 H 819.808 -1.76436 -4.05367 0
M  V30 8470 N 818.867 0.818669 -1.34668 0
M  V30 8471 C 820.116 1.57017 -1.26604 0
M  V30 8472 C 820.429 1.94936 0.161036 0
M  V30 8473 O 821.635 2.69051 0.36386 0
M  V30 8474 C 820.091 2.83305 -2.2196 0
M  V30 8475 C 819.699 2.52671 -3.69948 0
M  V30 8476 C 821.443 3.61324 -2.22813 0
M  V30 8477 C 819.35 3.75178 -4.5716 0
M  V30 8478 H 818.28 0.589323 -0.470335 0
M  V30 8479 H 820.931 0.900956 -1.59859 0
M  V30 8480 H 819.313 3.51874 -1.81661 0
M  V30 8481 H 820.487 1.92186 -4.18809 0
M  V30 8482 H 818.802 1.8792 -3.71584 0
M  V30 8483 H 821.399 4.52294 -2.85192 0
M  V30 8484 H 821.742 3.97759 -1.22857 0
M  V30 8485 H 822.275 2.99703 -2.61578 0
M  V30 8486 H 819.014 3.43861 -5.58068 0
M  V30 8487 H 818.534 4.34931 -4.13031 0
M  V30 8488 H 820.213 4.42542 -4.71981 0
M  V30 8489 N 820.346 1.18468 1.03938 0
M  V30 8490 C 821.294 0.909286 2.14091 0
M  V30 8491 C 822.288 -0.130928 1.68893 0
M  V30 8492 O 823.494 0.0173403 1.79992 0
M  V30 8493 H 819.869 0.27658 0.699291 0
M  V30 8494 H 821.84 1.84514 2.34515 0
M  V30 8495 C 820.589 0.452922 3.44737 0
M  V30 8496 H 819.912 1.24485 3.79926 0
M  V30 8497 H 821.352 0.299238 4.22943 0
M  V30 8498 C 819.811 -0.831435 3.26479 0
M  V30 8499 O 820.341 -1.89535 3.54174 0
M  V30 8500 N 818.547 -0.784545 2.79809 0
M  V30 8501 H 818.094 0.0814746 2.57471 0
M  V30 8502 H 818.052 -1.64431 2.67973 0
M  V30 8503 N 821.824 -1.22873 0.986916 0
M  V30 8504 C 822.754 -2.2688 0.552064 0
M  V30 8505 C 823.735 -1.64883 -0.418048 0
M  V30 8506 O 824.92 -1.9171 -0.30999 0
M  V30 8507 C 822.05 -3.47018 -0.139959 0
M  V30 8508 C 821.004 -4.21411 0.748091 0
M  V30 8509 C 820.33 -5.34645 -0.0765132 0
M  V30 8510 C 821.63 -4.80726 2.04206 0
M  V30 8511 H 823.324 -2.63507 1.42143 0
M  V30 8512 H 820.87 -1.26668 0.68492 0
M  V30 8513 H 822.823 -4.18931 -0.455527 0
M  V30 8514 H 821.547 -3.0947 -1.04382 0
M  V30 8515 H 820.206 -3.51325 1.04721 0
M  V30 8516 H 819.854 -4.93339 -0.981109 0
M  V30 8517 H 819.554 -5.85342 0.514606 0
M  V30 8518 H 821.078 -6.09377 -0.386313 0
M  V30 8519 H 822.492 -5.44612 1.79083 0
M  V30 8520 H 820.889 -5.41737 2.5815 0
M  V30 8521 H 821.959 -4.01109 2.72469 0
M  V30 8522 N 823.302 -0.75937 -1.38099 0
M  V30 8523 C 824.232 -0.151077 -2.33011 0
M  V30 8524 C 825.213 0.697099 -1.5516 0
M  V30 8525 O 826.398 0.637101 -1.83452 0
M  V30 8526 C 823.528 0.738423 -3.39359 0
M  V30 8527 C 822.482 -0.0074741 -4.27999 0
M  V30 8528 C 821.808 1.00066 -5.25253 0
M  V30 8529 C 823.108 -1.17926 -5.08813 0
M  V30 8530 H 824.802 -0.943933 -2.84131 0
M  V30 8531 H 822.348 -0.455362 -1.36611 0
M  V30 8532 H 824.301 1.17369 -4.04725 0
M  V30 8533 H 823.025 1.56366 -2.86735 0
M  V30 8534 H 821.684 -0.423379 -3.64147 0
M  V30 8535 H 821.332 1.82012 -4.68914 0
M  V30 8536 H 821.032 0.506199 -5.85416 0
M  V30 8537 H 822.556 1.43512 -5.93495 0
M  V30 8538 H 823.97 -0.821262 -5.67387 0
M  V30 8539 H 822.367 -1.60497 -5.78239 0
M  V30 8540 H 823.437 -1.98938 -4.42212 0
M  V30 8541 N 824.78 1.49157 -0.508906 0
M  V30 8542 C 826.027 2.02473 0.0327983 0
M  V30 8543 C 826.355 1.38792 1.36261 0
M  V30 8544 O 825.61 0.515576 1.88786 0
M  V30 8545 C 825.909 3.56687 0.225717 0
M  V30 8546 C 825.575 4.39046 -1.02708 0
M  V30 8547 C 824.237 4.61271 -1.37048 0
M  V30 8548 C 826.589 4.86902 -1.85946 0
M  V30 8549 C 823.917 5.28598 -2.54562 0
M  V30 8550 C 826.269 5.55521 -3.0262 0
M  V30 8551 C 824.933 5.7599 -3.3733 0
M  V30 8552 H 824.203 0.740903 0.0120017 0
M  V30 8553 H 826.85 1.79372 -0.670665 0
M  V30 8554 H 825.155 3.78511 1.01177 0
M  V30 8555 H 826.852 3.95541 0.659433 0
M  V30 8556 H 823.442 4.21994 -0.749615 0
M  V30 8557 H 827.626 4.69553 -1.6073 0
M  V30 8558 H 822.882 5.42646 -2.81682 0
M  V30 8559 H 827.056 5.91576 -3.67438 0
M  V30 8560 H 824.683 6.27934 -4.2849 0
M  V30 8561 N 826.258 0.243083 1.55714 0
M  V30 8562 C 827.221 -0.644723 2.19945 0
M  V30 8563 C 828.221 -1.10562 1.16759 0
M  V30 8564 O 829.411 -1.01095 1.41865 0
M  V30 8565 C 826.543 -1.88569 2.83997 0
M  V30 8566 H 827.736 -0.0843839 2.99781 0
M  V30 8567 H 825.289 -0.00647246 1.56299 0
M  V30 8568 H 826.024 -2.48736 2.08089 0
M  V30 8569 H 825.809 -1.56345 3.59581 0
M  V30 8570 H 827.299 -2.51774 3.33166 0
M  V30 8571 N 827.736 -1.57571 -0.0300757 0
M  V30 8572 C 828.699 -2.05468 -1.01565 0
M  V30 8573 C 829.699 -0.958628 -1.29101 0
M  V30 8574 O 830.889 -1.22228 -1.24121 0
M  V30 8575 C 828.021 -2.47077 -2.34874 0
M  V30 8576 H 829.214 -2.93797 -0.601936 0
M  V30 8577 H 826.767 -1.53828 -0.276878 0
M  V30 8578 H 827.502 -1.61901 -2.80996 0
M  V30 8579 H 827.287 -3.27097 -2.16218 0
M  V30 8580 H 828.777 -2.84564 -3.05635 0
M  V30 8581 N 829.214 0.302327 -1.54673 0
M  V30 8582 C 830.444 1.05516 -1.77623 0
M  V30 8583 C 830.852 1.81474 -0.535159 0
M  V30 8584 O 830.195 1.76635 0.504543 0
M  V30 8585 C 830.257 2.08305 -2.93001 0
M  V30 8586 C 829.921 1.51554 -4.31139 0
M  V30 8587 C 830.918 0.946261 -5.11216 0
M  V30 8588 C 828.603 1.55157 -4.77736 0
M  V30 8589 C 830.597 0.420559 -6.36011 0
M  V30 8590 C 828.284 1.022 -6.02494 0
M  V30 8591 C 829.282 0.457461 -6.81466 0
M  V30 8592 O 828.97 -0.064083 -8.03874 0
M  V30 8593 H 828.702 0.318756 -0.59613 0
M  V30 8594 H 831.256 0.347558 -2.02438 0
M  V30 8595 H 829.486 2.82742 -2.63807 0
M  V30 8596 H 831.175 2.69479 -3.03539 0
M  V30 8597 H 831.941 0.911338 -4.76361 0
M  V30 8598 H 827.82 1.98037 -4.16296 0
M  V30 8599 H 831.364 -0.0207298 -6.97597 0
M  V30 8600 H 827.261 1.05406 -6.36836 0
M  V30 8601 H 828.029 0.0493422 -8.18485 0
M  V30 8602 N 830.692 1.47107 0.565454 0
M  V30 8603 C 831.92 1.56909 1.3486 0
M  V30 8604 C 832.335 0.216312 1.87557 0
M  V30 8605 O 831.692 -0.789168 1.64555 0
M  V30 8606 C 831.743 2.58776 2.52423 0
M  V30 8607 O 831.464 3.888 2.01906 0
M  V30 8608 C 832.965 2.78683 3.44747 0
M  V30 8609 H 830.185 0.530096 0.411387 0
M  V30 8610 H 832.729 1.92658 0.685782 0
M  V30 8611 H 830.884 2.25983 3.1466 0
M  V30 8612 H 831.298 4.44393 2.78595 0
M  V30 8613 H 832.772 3.53842 4.23674 0
M  V30 8614 H 833.249 1.86208 3.97773 0
M  V30 8615 H 833.855 3.12641 2.88333 0
M  V30 8616 N 832.17 -0.811516 1.35101 0
M  V30 8617 C 833.418 -1.56525 1.27845 0
M  V30 8618 C 833.739 -1.94435 -0.14829 0
M  V30 8619 O 833.009 -1.63203 -1.08359 0
M  V30 8620 H 831.589 -0.580433 0.47022 0
M  V30 8621 H 834.251 -0.968277 1.69146 0
M  V30 8622 H 833.347 -2.48291 1.89097 0
M  V30 8623 N 833.648 -1.19017 -1.03309 0
M  V30 8624 C 834.925 -0.899659 -1.73682 0
M  V30 8625 C 835.305 0.595677 -2.02521 0
M  V30 8626 O 834.653 1.55263 -1.67648 0
M  V30 8627 C 834.863 -1.75508 -3.01659 0
M  V30 8628 C 836.211 -1.98679 -3.75249 0
M  V30 8629 O 837.235 -1.72624 -3.11576 0
M  V30 8630 O 836.094 -2.42587 -4.89708 0
M  V30 8631 H 833.188 -0.334903 -0.756154 0
M  V30 8632 H 835.734 -1.29809 -1.09305 0
M  V30 8633 H 834.506 -2.7684 -2.76542 0
M  V30 8634 H 834.129 -1.35565 -3.73775 0
M  V30 8635 N 835.127 1.22348 -0.993418 0
M  V30 8636 C 836.373 1.91393 -0.67056 0
M  V30 8637 C 836.706 1.77163 0.795428 0
M  V30 8638 O 835.981 1.14084 1.57528 0
M  V30 8639 C 836.264 3.43589 -1.0779 0
M  V30 8640 C 836.117 3.66867 -2.60248 0
M  V30 8641 C 837.436 4.35545 -0.631527 0
M  V30 8642 H 834.555 0.695057 -0.24508 0
M  V30 8643 H 837.197 1.44213 -1.23703 0
M  V30 8644 H 835.347 3.83903 -0.595902 0
M  V30 8645 H 837.019 3.35954 -3.16121 0
M  V30 8646 H 835.262 3.1113 -3.02293 0
M  V30 8647 H 835.933 4.73457 -2.838 0
M  V30 8648 H 838.409 4.0275 -1.04554 0
M  V30 8649 H 837.285 5.40707 -0.944831 0
M  V30 8650 H 837.546 4.39618 0.467779 0
M  V30 8651 N 836.605 0.766683 1.37694 0
M  V30 8652 C 837.83 0.338715 2.04615 0
M  V30 8653 C 838.255 -1.02918 1.57447 0
M  V30 8654 O 837.613 -1.65849 0.732386 0
M  V30 8655 C 837.661 0.385284 3.58536 0
M  V30 8656 O 836.765 -0.616081 4.07772 0
M  V30 8657 H 836.106 0.147527 0.647404 0
M  V30 8658 H 838.636 1.04146 1.7611 0
M  V30 8659 H 838.646 0.240782 4.07289 0
M  V30 8660 H 837.321 1.38325 3.92223 0
M  V30 8661 H 835.898 -0.435115 3.70353 0
M  V30 8662 N 838.083 -1.48885 0.516809 0
M  V30 8663 C 839.046 -2.27916 -0.242256 0
M  V30 8664 C 840.046 -1.34601 -0.879735 0
M  V30 8665 O 841.236 -1.57616 -0.74182 0
M  V30 8666 C 838.368 -3.13067 -1.34914 0
M  V30 8667 H 839.561 -2.96483 0.451444 0
M  V30 8668 H 837.114 -1.5391 0.272294 0
M  V30 8669 H 837.849 -2.49102 -2.07651 0
M  V30 8670 H 837.634 -3.81695 -0.897313 0
M  V30 8671 H 839.124 -3.72716 -1.88341 0
M  V30 8672 N 839.561 -0.251338 -1.55583 0
M  V30 8673 C 840.491 0.640437 -2.24545 0
M  V30 8674 C 841.472 1.17781 -1.22726 0
M  V30 8675 O 842.657 1.21633 -1.5139 0
M  V30 8676 C 839.787 1.8355 -2.94834 0
M  V30 8677 C 838.741 1.4307 -4.03379 0
M  V30 8678 C 838.067 2.70695 -4.61116 0
M  V30 8679 C 839.367 0.59848 -5.1886 0
M  V30 8680 H 841.061 0.0653772 -2.99329 0
M  V30 8681 H 838.607 0.0300042 -1.43969 0
M  V30 8682 H 840.56 2.46505 -3.4178 0
M  V30 8683 H 839.284 2.43601 -2.17546 0
M  V30 8684 H 837.943 0.824474 -3.57209 0
M  V30 8685 H 837.591 3.28954 -3.80524 0
M  V30 8686 H 837.291 2.44332 -5.34393 0
M  V30 8687 H 838.815 3.34541 -5.10798 0
M  V30 8688 H 840.229 1.13244 -5.62004 0
M  V30 8689 H 838.626 0.430728 -5.98552 0
M  V30 8690 H 839.696 -0.38829 -4.83343 0
M  V30 8691 N 841.039 1.57585 0.0217189 0
M  V30 8692 C 842.455 1.55072 0.377484 0
M  V30 8693 C 842.655 0.978423 1.76151 0
M  V30 8694 O 841.711 0.602688 2.45202 0
M  V30 8695 C 843.024 2.99462 0.272605 0
M  V30 8696 C 844.572 3.11047 0.349148 0
M  V30 8697 C 845.047 4.57182 0.273636 0
M  V30 8698 N 846.538 4.62007 0.332206 0
M  V30 8699 C 847.273 5.72631 0.296782 0
M  V30 8700 N 846.769 6.92472 0.21322 0
M  V30 8701 N 848.562 5.61028 0.347053 0
M  V30 8702 H 840.713 1.93133 -0.883925 0
M  V30 8703 H 842.976 0.886151 -0.33681 0
M  V30 8704 H 842.682 3.45088 -0.67878 0
M  V30 8705 H 842.556 3.61901 1.06335 0
M  V30 8706 H 844.943 2.65364 1.29097 0
M  V30 8707 H 845.024 2.51425 -0.471085 0
M  V30 8708 H 844.668 5.03534 -0.664548 0
M  V30 8709 H 844.598 5.14724 1.11207 0
M  V30 8710 H 847.089 3.75788 0.399003 0
M  V30 8711 H 847.402 7.72563 0.191492 0
M  V30 8712 H 845.747 6.94769 0.179161 0
M  V30 8713 H 848.938 4.66298 0.410378 0
M  V30 8714 H 849.111 6.47229 0.315979 0
M  V30 8715 N 842.517 -0.29412 1.54831 0
M  V30 8716 C 843.933 -0.640167 1.46199 0
M  V30 8717 C 844.133 -1.90426 0.658798 0
M  V30 8718 O 843.189 -2.51932 0.169228 0
M  V30 8719 C 844.502 -0.786763 2.90225 0
M  V30 8720 C 846.05 -0.882201 3.0031 0
M  V30 8721 C 846.525 -1.06074 4.45547 0
M  V30 8722 N 848.016 -1.12678 4.49286 0
M  V30 8723 C 848.751 -1.28334 5.58854 0
M  V30 8724 N 848.247 -1.40845 6.78332 0
M  V30 8725 N 850.04 -1.31277 5.46555 0
M  V30 8726 H 842.191 0.536334 2.05517 0
M  V30 8727 H 844.454 0.178363 0.93107 0
M  V30 8728 H 844.16 0.0713018 3.51628 0
M  V30 8729 H 844.034 -1.67364 3.38037 0
M  V30 8730 H 846.421 -1.73075 2.39017 0
M  V30 8731 H 846.502 0.0288405 2.55784 0
M  V30 8732 H 846.146 -0.216935 5.07437 0
M  V30 8733 H 846.076 -1.98611 4.8771 0
M  V30 8734 H 848.567 -1.04335 3.63212 0
M  V30 8735 H 848.88 -1.52566 7.57591 0
M  V30 8736 H 847.225 -1.37888 6.81184 0
M  V30 8737 H 850.416 -1.2112 4.52159 0
M  V30 8738 H 850.589 -1.43136 6.31994 0
M  V30 8739 N 843.995 -1.47404 -0.557645 0
M  V30 8740 C 845.242 -1.54007 -1.31484 0
M  V30 8741 C 845.57 -0.202162 -1.93447 0
M  V30 8742 O 844.825 0.804901 -1.78381 0
M  V30 8743 C 845.124 -2.6061 -2.44575 0
M  V30 8744 C 844.79 -4.03896 -2.00446 0
M  V30 8745 C 843.452 -4.42901 -1.88127 0
M  V30 8746 C 845.804 -4.93804 -1.66754 0
M  V30 8747 C 843.132 -5.6965 -1.40411 0
M  V30 8748 C 845.484 -6.21016 -1.20509 0
M  V30 8749 C 844.148 -6.58903 -1.06786 0
M  V30 8750 H 843.418 -0.563552 -0.481134 0
M  V30 8751 H 846.065 -1.81001 -0.625375 0
M  V30 8752 H 844.37 -2.27371 -3.19076 0
M  V30 8753 H 846.067 -2.62941 -3.02759 0
M  V30 8754 H 842.657 -3.73077 -2.10977 0
M  V30 8755 H 846.841 -4.64369 -1.75144 0
M  V30 8756 H 842.097 -5.97755 -1.2845 0
M  V30 8757 H 846.271 -6.90095 -0.935001 0
M  V30 8758 H 843.898 -7.57008 -0.695891 0
M  V30 8759 N 845.473 0.80434 -1.35529 0
M  V30 8760 C 846.436 1.89788 -1.28503 0
M  V30 8761 C 847.436 1.59601 -0.195983 0
M  V30 8762 O 848.626 1.68292 -0.449827 0
M  V30 8763 C 845.758 3.26255 -0.98847 0
M  V30 8764 H 846.951 1.97436 -2.25741 0
M  V30 8765 H 844.504 1.00046 -1.20086 0
M  V30 8766 H 845.239 3.24294 -0.0200541 0
M  V30 8767 H 845.024 3.49551 -1.77641 0
M  V30 8768 H 846.514 4.06298 -0.964975 0
M  V30 8769 N 846.951 1.19563 1.02676 0
M  V30 8770 C 847.881 0.959024 2.12897 0
M  V30 8771 C 848.862 -0.108382 1.69754 0
M  V30 8772 O 850.047 0.0470698 1.94143 0
M  V30 8773 C 847.177 0.499211 3.43693 0
M  V30 8774 C 846.131 1.5087 4.00528 0
M  V30 8775 C 845.457 0.905884 5.2697 0
M  V30 8776 C 846.757 2.88954 4.3509 0
M  V30 8777 H 848.451 1.88084 2.32948 0
M  V30 8778 H 845.997 0.905731 1.11949 0
M  V30 8779 H 847.95 0.320965 4.20176 0
M  V30 8780 H 846.674 -0.458205 3.2337 0
M  V30 8781 H 845.333 1.67413 3.26142 0
M  V30 8782 H 844.981 -0.0591506 5.02965 0
M  V30 8783 H 844.681 1.58 5.65959 0
M  V30 8784 H 846.205 0.73848 6.06118 0
M  V30 8785 H 847.619 2.75981 5.02501 0
M  V30 8786 H 846.016 3.53177 4.85166 0
M  V30 8787 H 847.086 3.41447 3.44299 0
M  V30 8788 N 848.429 -1.21819 0.999893 0
M  V30 8789 C 849.654 -1.95298 0.698094 0
M  V30 8790 C 850.079 -1.73273 -0.731982 0
M  V30 8791 O 849.437 -1.01634 -1.50134 0
M  V30 8792 C 849.485 -3.45922 1.01834 0
M  V30 8793 O 848.589 -4.12223 0.120801 0
M  V30 8794 H 847.93 -0.610729 0.260588 0
M  V30 8795 H 850.46 -1.5472 1.33876 0
M  V30 8796 H 850.47 -3.96471 0.963074 0
M  V30 8797 H 849.145 -3.61278 2.06037 0
M  V30 8798 H 847.722 -3.72177 0.232153 0
M  V30 8799 N 849.908 -0.773975 -1.37286 0
M  V30 8800 C 850.871 -0.167974 -2.28584 0
M  V30 8801 C 851.871 0.625662 -1.48129 0
M  V30 8802 O 853.061 0.448924 -1.68316 0
M  V30 8803 C 850.193 0.769364 -3.32105 0
M  V30 8804 H 851.386 -0.972806 -2.83684 0
M  V30 8805 H 848.939 -0.542335 -1.46589 0
M  V30 8806 H 849.674 1.59912 -2.82132 0
M  V30 8807 H 849.459 0.202419 -3.91577 0
M  V30 8808 H 850.949 1.18872 -4.00324 0
M  V30 8809 N 851.386 1.48609 -0.524698 0
M  V30 8810 C 852.319 2.26374 0.288109 0
M  V30 8811 C 853.297 1.31997 0.949509 0
M  V30 8812 O 854.481 1.61329 0.974946 0
M  V30 8813 C 851.608 3.08065 1.4076 0
M  V30 8814 C 850.654 4.17777 0.858152 0
M  V30 8815 S 851.487 5.3482 -0.269827 0
M  V30 8816 C 852.643 6.2007 0.852266 0
M  V30 8817 H 852.876 2.94965 -0.371865 0
M  V30 8818 H 850.409 1.51248 -0.31039 0
M  V30 8819 H 852.367 3.5571 2.04892 0
M  V30 8820 H 851.028 2.38898 2.03928 0
M  V30 8821 H 850.221 4.74542 1.69783 0
M  V30 8822 H 849.823 3.72846 0.293627 0
M  V30 8823 H 852.115 6.54451 1.75213 0
M  V30 8824 H 853.058 7.07364 0.322717 0
M  V30 8825 H 853.466 5.53068 1.13029 0
M  V30 8826 N 852.864 0.259585 1.55447 0
M  V30 8827 C 854.141 -0.412595 1.91199 0
M  V30 8828 C 854.521 -1.74909 1.18194 0
M  V30 8829 O 853.869 -2.26474 0.303603 0
M  V30 8830 C 854.079 -0.568195 3.44344 0
M  V30 8831 C 855.427 -0.858253 4.15836 0
M  V30 8832 O 856.451 -0.653588 3.50152 0
M  V30 8833 O 855.31 -1.24874 5.32042 0
M  V30 8834 H 852.404 -0.223403 0.796254 0
M  V30 8835 H 854.95 0.30459 1.66944 0
M  V30 8836 H 853.722 0.372989 3.89518 0
M  V30 8837 H 853.345 -1.33544 3.74502 0
M  V30 8838 N 854.342 -1.57594 -0.0133615 0
M  V30 8839 C 855.275 -2.02991 -1.04259 0
M  V30 8840 C 856.253 -0.917193 -1.34262 0
M  V30 8841 O 857.437 -1.18428 -1.46653 0
M  V30 8842 C 854.564 -2.41624 -2.37351 0
M  V30 8843 C 853.61 -3.63495 -2.231 0
M  V30 8844 S 854.443 -5.1198 -1.5696 0
M  V30 8845 C 855.599 -5.5387 -2.91511 0
M  V30 8846 H 855.832 -2.89973 -0.655985 0
M  V30 8847 H 853.365 -1.52769 -0.223827 0
M  V30 8848 H 855.323 -2.64551 -3.13884 0
M  V30 8849 H 853.984 -1.55065 -2.73155 0
M  V30 8850 H 853.177 -3.88233 -3.21389 0
M  V30 8851 H 852.779 -3.405 -1.54711 0
M  V30 8852 H 855.071 -5.55514 -3.87828 0
M  V30 8853 H 856.014 -6.53988 -2.71488 0
M  V30 8854 H 856.422 -4.81404 -2.94806 0
M  V30 8855 N 855.82 0.285905 -1.54985 0
M  V30 8856 C 856.73 1.37534 -1.90057 0
M  V30 8857 C 857.746 1.54707 -0.796348 0
M  V30 8858 O 858.922 1.69082 -1.09423 0
M  V30 8859 C 855.987 2.7167 -2.15398 0
M  V30 8860 C 855.048 2.63354 -3.39033 0
M  V30 8861 C 854.281 3.91093 -3.63155 0
M  V30 8862 O 854.504 4.91169 -2.90015 0
M  V30 8863 O 853.438 3.92075 -4.56685 0
M  V30 8864 H 857.264 1.10791 -2.8277 0
M  V30 8865 H 854.849 0.483303 -1.41367 0
M  V30 8866 H 856.731 3.51006 -2.33179 0
M  V30 8867 H 855.406 2.98226 -1.25868 0
M  V30 8868 H 854.313 1.82438 -3.26599 0
M  V30 8869 H 855.646 2.41749 -4.2874 0
M  V30 8870 N 857.298 1.47698 0.54982 0
M  V30 8871 C 858.23 1.56806 1.67166 0
M  V30 8872 C 859.243 0.453709 1.5635 0
M  V30 8873 O 860.432 0.723663 1.63173 0
M  V30 8874 C 857.532 1.4632 3.05686 0
M  V30 8875 C 856.705 2.72452 3.42182 0
M  V30 8876 C 855.764 2.55698 4.59897 0
M  V30 8877 O 854.79 3.29534 4.64108 0
M  V30 8878 N 855.992 1.64009 5.56849 0
M  V30 8879 H 858.757 2.53545 1.59797 0
M  V30 8880 H 856.318 1.44171 0.736635 0
M  V30 8881 H 858.31 1.32835 3.82279 0
M  V30 8882 H 856.88 0.57634 3.07241 0
M  V30 8883 H 856.1 3.00644 2.54964 0
M  V30 8884 H 857.388 3.56172 3.63344 0
M  V30 8885 H 856.786 1.03186 5.5621 0
M  V30 8886 H 855.343 1.56473 6.3274 0
M  V30 8887 N 858.776 -0.797141 1.35954 0
M  V30 8888 C 860.192 -1.09408 1.16198 0
M  V30 8889 C 860.392 -2.01491 -0.0191682 0
M  V30 8890 O 859.448 -2.42977 -0.686902 0
M  V30 8891 C 860.761 -1.71597 2.46931 0
M  V30 8892 C 862.309 -1.83974 2.53224 0
M  V30 8893 C 862.784 -2.49579 3.84024 0
M  V30 8894 N 864.275 -2.57055 3.85327 0
M  V30 8895 C 865.01 -3.08608 4.83268 0
M  V30 8896 N 864.506 -3.60527 5.91601 0
M  V30 8897 N 866.299 -3.07249 4.70696 0
M  V30 8898 H 858.45 -0.185209 2.11591 0
M  V30 8899 H 860.713 -0.144768 0.936881 0
M  V30 8900 H 860.419 -1.11404 3.3359 0
M  V30 8901 H 860.293 -2.71193 2.62172 0
M  V30 8902 H 862.68 -2.43308 1.66988 0
M  V30 8903 H 862.761 -0.83207 2.41889 0
M  V30 8904 H 862.405 -1.90892 4.70662 0
M  V30 8905 H 862.335 -3.50902 3.92651 0
M  V30 8906 H 864.826 -2.20283 3.07057 0
M  V30 8907 H 865.139 -3.98192 6.62317 0
M  V30 8908 H 863.484 -3.587 5.95281 0
M  V30 8909 H 866.675 -2.65972 3.85197 0
M  V30 8910 H 866.848 -3.47119 5.47186 0
M  V30 8911 N 860.254 -1.20106 -1.0204 0
M  V30 8912 C 861.531 -0.918029 -1.72718 0
M  V30 8913 C 861.911 0.574163 -2.03142 0
M  V30 8914 O 861.259 1.53476 -1.69285 0
M  V30 8915 C 861.469 -1.78698 -2.9978 0
M  V30 8916 C 862.817 -2.02648 -3.7312 0
M  V30 8917 O 863.841 -1.75919 -3.09727 0
M  V30 8918 O 862.7 -2.47767 -4.87107 0
M  V30 8919 H 859.794 -0.342904 -0.752559 0
M  V30 8920 H 862.34 -1.30961 -1.07923 0
M  V30 8921 H 861.112 -2.79757 -2.7359 0
M  V30 8922 H 860.735 -1.39522 -3.72316 0
M  V30 8923 N 861.732 1.21287 -1.00634 0
M  V30 8924 C 862.962 1.94103 -0.70765 0
M  V30 8925 C 863.37 1.74382 0.733991 0
M  V30 8926 O 862.713 1.04843 1.50843 0
M  V30 8927 C 862.775 3.46705 -0.950581 0
M  V30 8928 C 862.439 3.90176 -2.37932 0
M  V30 8929 C 863.436 3.96769 -3.35961 0
M  V30 8930 C 861.121 4.22453 -2.71733 0
M  V30 8931 C 863.115 4.35034 -4.65858 0
M  V30 8932 C 860.802 4.60394 -4.01846 0
M  V30 8933 C 861.8 4.66656 -4.9872 0
M  V30 8934 O 861.488 5.03732 -6.26505 0
M  V30 8935 H 861.22 0.62405 -0.259881 0
M  V30 8936 H 863.774 1.55015 -1.34757 0
M  V30 8937 H 862.004 3.85868 -0.253492 0
M  V30 8938 H 863.693 4.00741 -0.645069 0
M  V30 8939 H 864.459 3.72009 -3.11182 0
M  V30 8940 H 860.338 4.16776 -1.97025 0
M  V30 8941 H 863.882 4.39836 -5.4147 0
M  V30 8942 H 859.779 4.84609 -4.26409 0
M  V30 8943 H 860.547 5.21761 -6.30641 0
M  V30 8944 N 863.21 0.781244 1.36873 0
M  V30 8945 C 864.487 0.274217 1.93668 0
M  V30 8946 C 864.867 -1.2323 1.71399 0
M  V30 8947 O 864.215 -2.01993 1.06822 0
M  V30 8948 C 864.425 0.657939 3.42742 0
M  V30 8949 C 865.773 0.63307 4.19854 0
M  V30 8950 O 866.797 0.597909 3.51146 0
M  V30 8951 O 865.656 0.668636 5.42394 0
M  V30 8952 H 862.75 0.0658059 0.824378 0
M  V30 8953 H 865.296 0.863238 1.46104 0
M  V30 8954 H 864.068 1.69728 3.52573 0
M  V30 8955 H 863.691 0.0423678 3.97577 0
M  V30 8956 N 864.689 -1.48329 0.532571 0
M  V30 8957 C 865.914 -2.074 0.00147755 0
M  V30 8958 C 866.339 -1.38615 -1.27151 0
M  V30 8959 O 865.697 -0.452949 -1.75551 0
M  V30 8960 C 865.745 -3.60029 -0.202866 0
M  V30 8961 O 864.849 -3.92327 -1.27097 0
M  V30 8962 H 864.19 -0.662777 0.0402883 0
M  V30 8963 H 866.72 -1.90701 0.741224 0
M  V30 8964 H 866.73 -4.05783 -0.424722 0
M  V30 8965 H 865.405 -4.09496 0.727033 0
M  V30 8966 H 863.982 -3.58348 -1.03156 0
M  V30 8967 N 866.167 -0.267825 -1.55308 0
M  V30 8968 C 867.583 0.0865107 -1.59365 0
M  V30 8969 C 867.783 1.55205 -1.28505 0
M  V30 8970 O 866.839 2.29978 -1.04241 0
M  V30 8971 C 868.152 -0.28155 -2.99379 0
M  V30 8972 C 869.7 -0.227565 -3.12172 0
M  V30 8973 C 870.175 -0.569959 -4.5444 0
M  V30 8974 N 871.666 -0.521238 -4.60258 0
M  V30 8975 C 872.401 -0.759061 -5.68354 0
M  V30 8976 N 871.897 -1.06112 -6.84626 0
M  V30 8977 N 873.69 -0.688351 -5.57869 0
M  V30 8978 H 865.841 -1.22332 -1.73633 0
M  V30 8979 H 868.104 -0.493703 -0.809297 0
M  V30 8980 H 867.81 -1.3005 -3.26772 0
M  V30 8981 H 867.684 0.381192 -3.75269 0
M  V30 8982 H 870.071 0.782093 -2.84548 0
M  V30 8983 H 870.152 -0.924461 -2.38511 0
M  V30 8984 H 869.796 -1.57727 -4.82788 0
M  V30 8985 H 869.726 0.148646 -5.2639 0
M  V30 8986 H 872.217 -0.297359 -3.76728 0
M  V30 8987 H 872.53 -1.22945 -7.62958 0
M  V30 8988 H 870.875 -1.09881 -6.86259 0
M  V30 8989 H 874.066 -0.452268 -4.6591 0
M  V30 8990 H 874.239 -0.877081 -6.42037 0
M  V30 8991 N 867.645 1.57599 0.00500368 0
M  V30 8992 C 868.873 1.94626 0.702016 0
M  V30 8993 C 869.288 0.86953 1.67585 0
M  V30 8994 O 868.645 -0.15199 1.81866 0
M  V30 8995 C 868.696 3.31658 1.43824 0
M  V30 8996 O 868.417 4.35197 0.503467 0
M  V30 8997 C 869.918 3.83114 2.23021 0
M  V30 8998 H 867.138 0.641785 0.195841 0
M  V30 8999 H 869.682 2.04451 -0.0446287 0
M  V30 9000 H 867.837 3.23156 2.13655 0
M  V30 9001 H 868.251 5.1444 1.02235 0
M  V30 9002 H 869.725 4.81438 2.7004 0
M  V30 9003 H 870.202 3.15559 3.05482 0
M  V30 9004 H 870.808 3.94775 1.58216 0
M  V30 9005 N 869.123 -0.277682 1.55134 0
M  V30 9006 C 870.086 -1.32635 1.86924 0
M  V30 9007 C 871.086 -1.42578 0.743507 0
M  V30 9008 O 872.276 -1.4181 1.01171 0
M  V30 9009 C 869.408 -2.70832 2.07034 0
M  V30 9010 H 870.601 -1.0568 2.80663 0
M  V30 9011 H 868.154 -0.515517 1.47554 0
M  V30 9012 H 868.889 -3.02974 1.15661 0
M  V30 9013 H 868.674 -2.65001 2.88993 0
M  V30 9014 H 870.164 -3.46611 2.32918 0
M  V30 9015 N 870.601 -1.47988 -0.541979 0
M  V30 9016 C 871.531 -1.64503 -1.65713 0
M  V30 9017 C 872.512 -0.494116 -1.62765 0
M  V30 9018 O 873.697 -0.725256 -1.80149 0
M  V30 9019 C 870.827 -1.67337 -3.04328 0
M  V30 9020 C 869.781 -2.81809 -3.2213 0
M  V30 9021 C 869.107 -2.69724 -4.61685 0
M  V30 9022 C 870.407 -4.23241 -3.06046 0
M  V30 9023 H 872.101 -2.5786 -1.52147 0
M  V30 9024 H 869.647 -1.24094 -0.730529 0
M  V30 9025 H 871.6 -1.77481 -3.82202 0
M  V30 9026 H 870.324 -0.705514 -3.18889 0
M  V30 9027 H 868.983 -2.71201 -2.46669 0
M  V30 9028 H 868.631 -1.70934 -4.73065 0
M  V30 9029 H 868.331 -3.4653 -4.74543 0
M  V30 9030 H 869.855 -2.81818 -5.41674 0
M  V30 9031 H 871.269 -4.34746 -3.73723 0
M  V30 9032 H 869.666 -5.00952 -3.30405 0
M  V30 9033 H 870.736 -4.40543 -2.02609 0
M  V30 9034 N 872.079 0.78992 -1.36375 0
M  V30 9035 C 873.029 1.89227 -1.27189 0
M  V30 9036 C 874.013 1.60067 -0.163498 0
M  V30 9037 O 875.205 1.72507 -0.396262 0
M  V30 9038 C 872.334 3.26431 -1.06292 0
M  V30 9039 C 871.42 3.61602 -2.21596 0
M  V30 9040 N 871.811 3.68086 -3.4691 0
M  V30 9041 C 870.109 3.9166 -2.1335 0
M  V30 9042 C 870.81 3.99481 -4.22835 0
M  V30 9043 N 869.786 4.14438 -3.5177 0
M  V30 9044 H 873.588 1.92465 -2.22113 0
M  V30 9045 H 871.102 0.985414 -1.29087 0
M  V30 9046 H 873.099 4.05267 -0.97798 0
M  V30 9047 H 871.759 3.24468 -0.122676 0
M  V30 9048 H 872.77 3.50743 -3.81051 0
M  V30 9049 H 869.447 3.97626 -1.27279 0
M  V30 9050 H 870.837 4.11425 -5.31205 0
M  V30 9051 N 873.557 1.20646 1.01402 0
M  V30 9052 C 874.803 1.0197 1.753 0
M  V30 9053 C 875.136 -0.446803 1.8899 0
M  V30 9054 O 874.411 -1.33169 1.41762 0
M  V30 9055 C 874.694 1.70693 3.17074 0
M  V30 9056 C 874.547 3.24805 3.11162 0
M  V30 9057 C 875.866 1.44212 4.15802 0
M  V30 9058 H 872.985 0.371844 0.636318 0
M  V30 9059 H 875.627 1.48696 1.18277 0
M  V30 9060 H 873.777 1.30968 3.65759 0
M  V30 9061 H 875.449 3.73841 2.70261 0
M  V30 9062 H 873.692 3.55576 2.48492 0
M  V30 9063 H 874.363 3.68049 4.11393 0
M  V30 9064 H 876.839 1.7868 3.75783 0
M  V30 9065 H 875.715 1.94825 5.13161 0
M  V30 9066 H 875.976 0.370252 4.40547 0
M  V30 9067 N 875.035 -1.20752 1.01276 0
M  V30 9068 C 875.998 -2.2162 0.584583 0
M  V30 9069 C 876.998 -1.57094 -0.343215 0
M  V30 9070 O 878.188 -1.73696 -0.132433 0
M  V30 9071 C 875.32 -3.40583 -0.146872 0
M  V30 9072 H 876.513 -2.61015 1.47686 0
M  V30 9073 H 874.066 -1.34148 0.802123 0
M  V30 9074 H 874.801 -3.06686 -1.05424 0
M  V30 9075 H 874.586 -3.88642 0.51958 0
M  V30 9076 H 876.076 -4.15339 -0.433924 0
M  V30 9077 N 876.513 -0.788492 -1.36457 0
M  V30 9078 C 877.476 -0.192209 -2.28393 0
M  V30 9079 C 878.476 0.609916 -1.48784 0
M  V30 9080 O 879.666 0.431046 -1.68783 0
M  V30 9081 C 876.798 0.734096 -3.32902 0
M  V30 9082 H 877.991 -1.00284 -2.82636 0
M  V30 9083 H 875.544 -0.557852 -1.46006 0
M  V30 9084 H 876.279 1.5691 -2.83813 0
M  V30 9085 H 876.064 0.160875 -3.9177 0
M  V30 9086 H 877.554 1.1462 -4.01562 0
M  V30 9087 N 877.991 1.48044 -0.54043 0
M  V30 9088 C 878.954 2.28273 0.205966 0
M  V30 9089 C 879.954 1.35983 0.858209 0
M  V30 9090 O 881.144 1.58776 0.716651 0
M  V30 9091 C 878.276 3.15174 1.29917 0
M  V30 9092 H 879.469 2.95727 -0.498555 0
M  V30 9093 H 877.022 1.53457 -0.296745 0
M  V30 9094 H 877.757 2.52374 2.03661 0
M  V30 9095 H 877.542 3.83074 0.836475 0
M  V30 9096 H 879.032 3.75666 1.82387 0
M  V30 9097 N 879.47 0.276058 1.55163 0
M  V30 9098 C 880.38 -0.621066 2.2623 0
M  V30 9099 C 881.396 -1.16931 1.28853 0
M  V30 9100 O 882.572 -1.1994 1.61791 0
M  V30 9101 C 879.637 -1.78824 2.97023 0
M  V30 9102 C 878.698 -1.27657 4.09881 0
M  V30 9103 C 877.931 -2.38812 4.77289 0
M  V30 9104 O 878.154 -3.58188 4.43912 0
M  V30 9105 O 877.088 -2.06915 5.65217 0
M  V30 9106 H 880.914 -0.0453346 3.03666 0
M  V30 9107 H 878.499 0.0434275 1.49337 0
M  V30 9108 H 880.381 -2.46877 3.41511 0
M  V30 9109 H 879.056 -2.35104 2.22503 0
M  V30 9110 H 877.963 -0.56248 3.69847 0
M  V30 9111 H 879.296 -0.759509 4.86305 0
M  V30 9112 N 880.948 -1.576 0.00335426 0
M  V30 9113 C 882.196 -1.90336 -0.679446 0
M  V30 9114 C 882.517 -0.877777 -1.74127 0
M  V30 9115 O 881.787 0.0843585 -1.95718 0
M  V30 9116 H 880.367 -0.702509 -0.253948 0
M  V30 9117 H 883.029 -1.94848 0.0450731 0
M  V30 9118 H 882.125 -2.90197 -1.14857 0
M  V30 9119 N 882.426 0.269451 -1.5528 0
M  V30 9120 C 883.376 1.33553 -1.84791 0
M  V30 9121 C 884.36 1.44532 -0.707067 0
M  V30 9122 O 885.552 1.48153 -0.968493 0
M  V30 9123 C 882.681 2.69516 -2.12641 0
M  V30 9124 C 881.767 2.62633 -3.32993 0
M  V30 9125 N 882.158 2.25371 -4.52815 0
M  V30 9126 C 880.456 2.93688 -3.35654 0
M  V30 9127 C 881.157 2.28567 -5.34913 0
M  V30 9128 N 880.133 2.67181 -4.73408 0
M  V30 9129 H 883.935 1.03758 -2.74976 0
M  V30 9130 H 881.449 0.478087 -1.55203 0
M  V30 9131 H 883.446 3.46424 -2.3194 0
M  V30 9132 H 882.106 3.00197 -1.23742 0
M  V30 9133 H 883.117 1.9729 -4.7885 0
M  V30 9134 H 879.794 3.29057 -2.56958 0
M  V30 9135 H 881.184 2.02289 -6.40725 0
M  V30 9136 N 883.904 1.48273 0.534124 0
M  V30 9137 C 885.15 1.56311 1.29208 0
M  V30 9138 C 885.483 0.234481 1.92779 0
M  V30 9139 O 884.758 -0.759143 1.79073 0
M  V30 9140 C 885.041 2.69831 2.3846 0
M  V30 9141 C 884.894 4.12385 1.79608 0
M  V30 9142 C 886.213 2.79133 3.40254 0
M  V30 9143 H 883.332 0.56899 0.468422 0
M  V30 9144 H 885.974 1.80429 0.595438 0
M  V30 9145 H 884.124 2.49397 2.97881 0
M  V30 9146 H 885.796 4.44246 1.24269 0
M  V30 9147 H 884.039 4.19579 1.10162 0
M  V30 9148 H 884.71 4.87629 2.58693 0
M  V30 9149 H 887.186 2.97632 2.90783 0
M  V30 9150 H 886.062 3.60298 4.14097 0
M  V30 9151 H 886.323 1.87122 4.00547 0
M  V30 9152 N 885.382 -0.782676 1.36792 0
M  V30 9153 C 886.292 -1.92679 1.33835 0
M  V30 9154 C 887.308 -1.72344 0.23952 0
M  V30 9155 O 888.484 -1.95766 0.473045 0
M  V30 9156 C 885.549 -3.27644 1.1336 0
M  V30 9157 C 884.61 -3.6071 2.32781 0
M  V30 9158 C 883.843 -4.89234 2.13273 0
M  V30 9159 O 884.066 -5.59468 1.11136 0
M  V30 9160 O 883 -5.21112 3.01208 0
M  V30 9161 H 886.826 -1.98124 2.30175 0
M  V30 9162 H 884.411 -0.923887 1.17408 0
M  V30 9163 H 886.293 -4.08394 1.03886 0
M  V30 9164 H 884.968 -3.23076 0.200868 0
M  V30 9165 H 883.875 -2.80238 2.47825 0
M  V30 9166 H 885.208 -3.70008 3.24584 0
M  V30 9167 N 886.86 -1.21182 -1.00761 0
M  V30 9168 C 888.106 -1.02898 -1.74756 0
M  V30 9169 C 888.439 0.436774 -1.89225 0
M  V30 9170 O 887.714 1.32415 -1.42466 0
M  V30 9171 C 887.997 -1.72372 -3.16164 0
M  V30 9172 C 887.85 -3.2645 -3.09435 0
M  V30 9173 C 889.169 -1.46415 -4.15031 0
M  V30 9174 H 886.288 -0.375214 -0.634337 0
M  V30 9175 H 888.93 -1.49321 -1.17487 0
M  V30 9176 H 887.08 -1.32906 -3.65059 0
M  V30 9177 H 888.752 -3.75269 -2.68274 0
M  V30 9178 H 886.995 -3.56889 -2.46603 0
M  V30 9179 H 887.666 -3.70226 -4.09435 0
M  V30 9180 H 890.142 -1.80671 -3.7483 0
M  V30 9181 H 889.018 -1.97544 -5.12121 0
M  V30 9182 H 889.279 -0.39361 -4.40344 0
M  V30 9183 N 888.338 1.20213 -1.01915 0
M  V30 9184 C 889.584 1.89928 -0.711007 0
M  V30 9185 C 889.917 1.7881 0.75767 0
M  V30 9186 O 889.192 1.17399 1.55073 0
M  V30 9187 C 889.475 3.41225 -1.15053 0
M  V30 9188 C 889.328 3.61264 -2.67971 0
M  V30 9189 C 890.647 4.34108 -0.72377 0
M  V30 9190 H 887.766 0.689702 -0.259768 0
M  V30 9191 H 890.408 1.41557 -1.26734 0
M  V30 9192 H 888.558 3.82552 -0.677199 0
M  V30 9193 H 890.23 3.29173 -3.23176 0
M  V30 9194 H 888.473 3.04647 -3.08824 0
M  V30 9195 H 889.144 4.67331 -2.93779 0
M  V30 9196 H 891.62 4.00442 -1.13073 0
M  V30 9197 H 890.496 5.38581 -1.05931 0
M  V30 9198 H 890.757 4.40512 0.374424 0
M  V30 9199 N 889.816 0.795718 1.36037 0
M  V30 9200 C 890.763 0.196548 2.29962 0
M  V30 9201 C 891.733 -0.663213 1.52285 0
M  V30 9202 O 892.918 -0.610574 1.80767 0
M  V30 9203 C 890.058 -0.657639 3.38776 0
M  V30 9204 C 889.171 0.221358 4.31433 0
M  V30 9205 C 888.306 -0.6398 5.27333 0
M  V30 9206 C 887.345 0.240265 6.11628 0
M  V30 9207 N 886.482 -0.580237 6.99698 0
M  V30 9208 H 891.322 1.00295 2.80615 0
M  V30 9209 H 888.859 0.506147 1.38118 0
M  V30 9210 H 890.817 -1.16793 4.00519 0
M  V30 9211 H 889.447 -1.42941 2.89426 0
M  V30 9212 H 888.499 0.84967 3.70789 0
M  V30 9213 H 889.811 0.899195 4.90628 0
M  V30 9214 H 888.965 -1.21566 5.94396 0
M  V30 9215 H 887.704 -1.35124 4.68607 0
M  V30 9216 H 886.709 0.828474 5.43522 0
M  V30 9217 H 887.934 0.949403 6.72431 0
M  V30 9218 H 885.88 -1.27585 6.43473 0
M  V30 9219 H 885.797 0.0397853 7.5599 0
M  V30 9220 H 887.065 -1.13972 7.71123 0
M  V30 9221 N 891.294 -1.47756 0.548274 0
M  V30 9222 C 892.541 -2.02489 0.0208955 0
M  V30 9223 C 892.869 -1.42356 -1.32533 0
M  V30 9224 O 892.124 -0.565448 -1.87353 0
M  V30 9225 C 892.423 -3.5716 -0.131069 0
M  V30 9226 C 892.089 -4.36169 1.14313 0
M  V30 9227 C 890.751 -4.57476 1.4923 0
M  V30 9228 C 893.103 -4.81801 1.9879 0
M  V30 9229 C 890.431 -5.21662 2.68487 0
M  V30 9230 C 892.783 -5.47303 3.17242 0
M  V30 9231 C 891.447 -5.66844 3.52483 0
M  V30 9232 H 890.717 -0.740961 0.00764621 0
M  V30 9233 H 893.364 -1.77531 0.717987 0
M  V30 9234 H 891.669 -3.8106 -0.911063 0
M  V30 9235 H 893.366 -3.9715 -0.55433 0
M  V30 9236 H 889.956 -4.19858 0.861235 0
M  V30 9237 H 894.14 -4.65126 1.73123 0
M  V30 9238 H 889.396 -5.34987 2.95971 0
M  V30 9239 H 893.57 -5.81626 3.82994 0
M  V30 9240 H 891.197 -6.16352 4.44988 0
M  V30 9241 N 892.772 -0.284283 -1.55015 0
M  V30 9242 C 893.702 0.592663 -2.25853 0
M  V30 9243 C 894.683 1.15151 -1.25197 0
M  V30 9244 O 895.868 1.18395 -1.53936 0
M  V30 9245 C 892.998 1.77254 -2.98661 0
M  V30 9246 C 891.952 1.34482 -4.06323 0
M  V30 9247 C 891.278 2.60853 -4.66754 0
M  V30 9248 C 892.578 0.488288 -5.20013 0
M  V30 9249 H 894.272 0.00187041 -2.994 0
M  V30 9250 H 891.818 -0.000540402 -1.44 0
M  V30 9251 H 893.771 2.39199 -3.46932 0
M  V30 9252 H 892.495 2.38931 -2.22664 0
M  V30 9253 H 891.154 0.748519 -3.58877 0
M  V30 9254 H 890.802 3.20808 -3.87416 0
M  V30 9255 H 890.502 2.32942 -5.39455 0
M  V30 9256 H 892.026 3.23631 -5.1778 0
M  V30 9257 H 893.44 1.01298 -5.6428 0
M  V30 9258 H 891.837 0.303669 -5.99331 0
M  V30 9259 H 892.907 -0.490727 -4.8241 0
M  V30 9260 N 894.251 1.57596 -0.0117121 0
M  V30 9261 C 895.181 2.12188 0.9746 0
M  V30 9262 C 896.162 1.03379 1.35081 0
M  V30 9263 O 897.347 1.31123 1.4325 0
M  V30 9264 C 894.477 2.63477 2.26268 0
M  V30 9265 C 893.431 3.76917 2.02774 0
M  V30 9266 C 892.757 4.14566 3.37697 0
M  V30 9267 C 894.057 5.03715 1.38089 0
M  V30 9268 H 895.751 2.9485 0.520007 0
M  V30 9269 H 893.297 1.41836 0.248685 0
M  V30 9270 H 895.25 3.00299 2.95633 0
M  V30 9271 H 893.974 1.77953 2.73862 0
M  V30 9272 H 892.633 3.40507 1.35832 0
M  V30 9273 H 892.281 3.26048 3.83016 0
M  V30 9274 H 891.981 4.91 3.22789 0
M  V30 9275 H 893.505 4.53956 4.08358 0
M  V30 9276 H 894.919 5.38233 1.97428 0
M  V30 9277 H 893.316 5.85032 1.33634 0
M  V30 9278 H 894.386 4.83624 0.351575 0
M  V30 9279 N 895.729 -0.261212 1.5542 0
M  V30 9280 C 896.639 -1.34493 1.92221 0
M  V30 9281 C 897.655 -1.53421 0.82086 0
M  V30 9282 O 898.831 -1.6732 1.12099 0
M  V30 9283 C 895.896 -2.68209 2.19692 0
M  V30 9284 C 894.957 -2.57927 3.43179 0
M  V30 9285 C 894.19 -3.85266 3.69331 0
M  V30 9286 O 894.413 -4.86493 2.97793 0
M  V30 9287 O 893.347 -3.8476 4.62865 0
M  V30 9288 H 897.173 -1.06278 2.84497 0
M  V30 9289 H 894.758 -0.460752 1.42118 0
M  V30 9290 H 896.64 -3.47252 2.38734 0
M  V30 9291 H 895.315 -2.96186 1.30597 0
M  V30 9292 H 894.222 -1.77219 3.2946 0
M  V30 9293 H 895.555 -2.34898 4.32532 0
M  V30 9294 N 897.207 -1.48554 -0.526253 0
M  V30 9295 C 898.17 -1.62868 -1.61266 0
M  V30 9296 C 899.17 -0.501762 -1.52771 0
M  V30 9297 O 900.36 -0.76764 -1.56374 0
M  V30 9298 C 897.492 -1.60238 -3.00893 0
M  V30 9299 H 898.685 -2.59742 -1.49913 0
M  V30 9300 H 896.238 -1.37207 -0.748595 0
M  V30 9301 H 896.973 -0.648545 -3.17749 0
M  V30 9302 H 896.758 -2.42054 -3.08468 0
M  V30 9303 H 898.248 -1.73455 -3.79872 0
M  V30 9304 N 898.685 0.775411 -1.37205 0
M  V30 9305 C 899.925 1.54689 -1.33606 0
M  V30 9306 C 900.289 1.91834 0.0798549 0
M  V30 9307 O 901.49 2.67722 0.240531 0
M  V30 9308 C 899.761 2.7804 -2.24563 0
M  V30 9309 S 901.32 3.68143 -2.38781 0
M  V30 9310 H 898.138 0.529631 -0.474355 0
M  V30 9311 H 900.74 0.912128 -1.72918 0
M  V30 9312 H 899.444 2.48825 -3.26365 0
M  V30 9313 H 898.975 3.46479 -1.86322 0
M  V30 9314 H 900.99 4.69843 -1.59568 0
M  V30 9315 N 900.163 1.21714 1.00117 0
M  V30 9316 C 901.11 0.979837 2.08968 0
M  V30 9317 C 902.08 -0.0955324 1.65825 0
M  V30 9318 O 903.265 0.0523742 1.90728 0
M  V30 9319 C 900.405 0.554758 3.40612 0
M  V30 9320 C 899.518 1.69999 3.97145 0
M  V30 9321 C 898.653 1.2237 5.16913 0
M  V30 9322 C 897.692 2.34101 5.65564 0
M  V30 9323 N 896.829 1.87579 6.76579 0
M  V30 9324 H 901.669 1.91167 2.28602 0
M  V30 9325 H 899.206 0.952645 1.12085 0
M  V30 9326 H 901.164 0.289526 4.16194 0
M  V30 9327 H 899.794 -0.340073 3.21004 0
M  V30 9328 H 898.846 2.07976 3.18512 0
M  V30 9329 H 900.158 2.54074 4.29241 0
M  V30 9330 H 899.312 0.915358 5.99755 0
M  V30 9331 H 898.051 0.353045 4.8642 0
M  V30 9332 H 897.056 2.65734 4.81316 0
M  V30 9333 H 898.281 3.21669 5.98085 0
M  V30 9334 H 896.227 1.02863 6.47885 0
M  V30 9335 H 896.144 2.65225 7.07949 0
M  V30 9336 H 897.412 1.5979 7.62947 0
M  V30 9337 N 901.641 -1.19671 1.02551 0
M  V30 9338 C 902.887 -1.89548 0.721069 0
M  V30 9339 C 903.22 -1.79209 -0.748176 0
M  V30 9340 O 902.495 -1.1822 -1.54448 0
M  V30 9341 C 902.778 -3.4061 1.16861 0
M  V30 9342 C 902.631 -3.59838 2.69883 0
M  V30 9343 C 903.95 -4.33718 0.746782 0
M  V30 9344 H 901.069 -0.688315 0.263422 0
M  V30 9345 H 903.711 -1.40883 1.27483 0
M  V30 9346 H 901.861 -3.82188 0.697477 0
M  V30 9347 H 903.533 -3.27454 3.24917 0
M  V30 9348 H 901.776 -3.03005 3.10435 0
M  V30 9349 H 902.447 -4.65766 2.96253 0
M  V30 9350 H 904.923 -3.99837 1.15195 0
M  V30 9351 H 903.799 -5.38012 1.08786 0
M  V30 9352 H 904.06 -4.40704 -0.351057 0
M  V30 9353 N 903.119 -0.802921 -1.35613 0
M  V30 9354 C 904.067 -0.198783 -2.31749 0
M  V30 9355 C 905.061 0.649416 -1.56458 0
M  V30 9356 O 906.267 0.542989 -1.71615 0
M  V30 9357 H 902.642 -0.0455177 -0.750621 0
M  V30 9358 H 904.613 -1.02479 -2.80251 0
M  V30 9359 C 903.362 0.641066 -3.41739 0
M  V30 9360 H 902.685 -0.00226244 -3.998 0
M  V30 9361 H 904.125 1.03022 -4.11294 0
M  V30 9362 C 902.584 1.80505 -2.84464 0
M  V30 9363 O 903.114 2.90235 -2.77717 0
M  V30 9364 N 901.32 1.61542 -2.41563 0
M  V30 9365 H 900.867 0.722863 -2.4725 0
M  V30 9366 H 900.825 2.39581 -2.03589 0
M  V30 9367 N 904.597 1.47463 -0.556102 0
M  V30 9368 C 906.008 1.86298 -0.122429 0
M  V30 9369 C 906.359 1.46285 1.30749 0
M  V30 9370 O 905.484 0.865405 1.98342 0
M  V30 9371 C 906.079 3.38115 -0.215407 0
M  V30 9372 C 904.638 3.76046 0.163223 0
M  V30 9373 C 903.785 2.71515 -0.563466 0
M  V30 9374 H 906.736 1.38996 -0.765888 0
M  V30 9375 H 906.757 3.76263 0.566271 0
M  V30 9376 H 906.269 3.67207 -1.25622 0
M  V30 9377 H 904.37 3.5257 1.20519 0
M  V30 9378 H 904.483 4.78705 -0.194568 0
M  V30 9379 H 902.847 2.54699 -0.00667879 0
M  V30 9380 H 903.63 3.03449 -1.60542 0
M  V30 9381 N 906.075 0.2925 1.54862 0
M  V30 9382 C 907.322 -0.319263 1.99967 0
M  V30 9383 C 907.65 -1.54547 1.18092 0
M  V30 9384 O 906.905 -1.94186 0.242969 0
M  V30 9385 C 907.204 -0.728674 3.49893 0
M  V30 9386 C 906.87 0.394836 4.49168 0
M  V30 9387 C 905.532 0.703289 4.76033 0
M  V30 9388 C 907.884 1.15103 5.08331 0
M  V30 9389 C 905.212 1.77121 5.59325 0
M  V30 9390 C 907.564 2.20881 5.92785 0
M  V30 9391 C 906.228 2.52342 6.17964 0
M  V30 9392 H 905.498 -0.116827 0.731733 0
M  V30 9393 H 908.145 0.40983 1.87063 0
M  V30 9394 H 906.45 -1.53772 3.60363 0
M  V30 9395 H 908.147 -1.21305 3.82212 0
M  V30 9396 H 904.737 0.144319 4.28357 0
M  V30 9397 H 908.921 0.92599 4.87585 0
M  V30 9398 H 904.177 2.01978 5.77074 0
M  V30 9399 H 908.351 2.79939 6.37657 0
M  V30 9400 H 905.978 3.35225 6.82296 0
M  V30 9401 N 907.553 -1.57587 0.0200696 0
M  V30 9402 C 908.964 -1.79312 -0.520019 0
M  V30 9403 C 909.315 -0.929475 -1.72787 0
M  V30 9404 O 908.44 -0.137389 -2.15963 0
M  V30 9405 C 909.035 -3.25203 -0.950172 0
M  V30 9406 C 907.594 -3.47954 -1.43543 0
M  V30 9407 C 906.741 -2.74459 -0.395917 0
M  V30 9408 H 909.692 -1.56779 0.246153 0
M  V30 9409 H 909.713 -3.34418 -1.81508 0
M  V30 9410 H 909.225 -3.88035 -0.070883 0
M  V30 9411 H 907.326 -2.90363 -2.33495 0
M  V30 9412 H 907.439 -4.56661 -1.44905 0
M  V30 9413 H 905.803 -2.39669 -0.862022 0
M  V30 9414 H 906.586 -3.40001 0.47475 0
M  V30 9415 N 909.032 0.252966 -1.55557 0
M  V30 9416 C 909.979 1.3131 -1.89806 0
M  V30 9417 C 910.949 1.48121 -0.751633 0
M  V30 9418 O 912.134 1.62202 -1.00474 0
M  V30 9419 C 909.274 2.66467 -2.19293 0
M  V30 9420 C 908.387 2.57714 -3.46709 0
M  V30 9421 C 907.522 3.85184 -3.65796 0
M  V30 9422 C 906.561 3.71023 -4.86835 0
M  V30 9423 N 905.698 4.90371 -5.02474 0
M  V30 9424 H 910.538 1.01402 -2.80217 0
M  V30 9425 H 908.075 0.489462 -1.38718 0
M  V30 9426 H 910.033 3.45132 -2.34392 0
M  V30 9427 H 908.663 2.94536 -1.32093 0
M  V30 9428 H 907.715 1.70651 -3.39974 0
M  V30 9429 H 909.027 2.43158 -4.35517 0
M  V30 9430 H 908.181 4.72292 -3.80822 0
M  V30 9431 H 906.92 4.0263 -2.7521 0
M  V30 9432 H 905.925 2.82299 -4.71792 0
M  V30 9433 H 907.15 3.55078 -5.78875 0
M  V30 9434 H 905.096 5.0819 -4.14824 0
M  V30 9435 H 905.013 4.78423 -5.85361 0
M  V30 9436 H 906.281 5.78995 -5.21905 0
M  V30 9437 N 910.51 1.48831 0.518367 0
M  V30 9438 C 911.787 1.47933 1.27966 0
M  V30 9439 C 912.167 0.197393 2.10175 0
M  V30 9440 O 911.515 -0.820656 2.13255 0
M  V30 9441 C 911.725 2.74816 2.15121 0
M  V30 9442 C 913.073 3.23613 2.74881 0
M  V30 9443 O 914.097 2.75814 2.254 0
M  V30 9444 O 912.956 4.06818 3.64913 0
M  V30 9445 H 910.05 0.591316 0.578164 0
M  V30 9446 H 912.596 1.61077 0.534065 0
M  V30 9447 H 911.368 3.59621 1.54234 0
M  V30 9448 H 910.991 2.64449 2.96905 0
M  V30 9449 N 911.988 -0.768124 1.37614 0
M  V30 9450 C 913.404 -1.06919 1.18493 0
M  V30 9451 C 913.604 -2.01486 0.0235753 0
M  V30 9452 O 912.66 -2.4438 -0.635209 0
M  V30 9453 C 913.973 -1.66321 2.50515 0
M  V30 9454 C 915.521 -1.78562 2.57069 0
M  V30 9455 C 915.996 -2.41377 3.89231 0
M  V30 9456 N 917.487 -2.48824 3.90693 0
M  V30 9457 C 918.222 -2.98288 4.89706 0
M  V30 9458 N 917.718 -3.47897 5.99115 0
M  V30 9459 N 919.511 -2.97196 4.77107 0
M  V30 9460 H 911.662 -0.140286 2.11936 0
M  V30 9461 H 913.925 -0.124863 0.939741 0
M  V30 9462 H 913.631 -1.04303 3.35878 0
M  V30 9463 H 913.505 -2.65571 2.67866 0
M  V30 9464 H 915.892 -2.39712 1.72111 0
M  V30 9465 H 915.973 -0.780574 2.43599 0
M  V30 9466 H 915.617 -1.80866 4.74605 0
M  V30 9467 H 915.547 -3.42495 4.00006 0
M  V30 9468 H 918.038 -2.1372 3.1166 0
M  V30 9469 H 918.351 -3.84053 6.70614 0
M  V30 9470 H 916.696 -3.45993 6.02755 0
M  V30 9471 H 919.887 -2.57741 3.90752 0
M  V30 9472 H 920.06 -3.35434 5.54426 0
M  V30 9473 N 913.466 -1.22244 -0.994698 0
M  V30 9474 C 914.712 -1.05752 -1.73747 0
M  V30 9475 C 915.067 0.403416 -1.88123 0
M  V30 9476 O 914.36 1.29511 -1.412 0
M  V30 9477 C 914.554 -1.70014 -3.14372 0
M  V30 9478 C 914.383 -3.22205 -3.1371 0
M  V30 9479 C 913.153 -3.91301 -3.19705 0
M  V30 9480 C 915.351 -4.19163 -2.98005 0
M  V30 9481 N 913.333 -5.30594 -3.08778 0
M  V30 9482 C 914.704 -5.45274 -2.95087 0
M  V30 9483 C 916.759 -4.10078 -2.82383 0
M  V30 9484 C 915.462 -6.63345 -2.78146 0
M  V30 9485 C 917.488 -5.27797 -2.66803 0
M  V30 9486 C 916.85 -6.52826 -2.6457 0
M  V30 9487 H 912.949 -0.441393 -0.64552 0
M  V30 9488 H 915.533 -1.54757 -1.18146 0
M  V30 9489 H 913.704 -1.23562 -3.68221 0
M  V30 9490 H 915.436 -1.46631 -3.77202 0
M  V30 9491 H 912.191 -3.42289 -3.27315 0
M  V30 9492 H 912.615 -6.0358 -3.06628 0
M  V30 9493 H 917.257 -3.14201 -2.82909 0
M  V30 9494 H 914.975 -7.59373 -2.76367 0
M  V30 9495 H 918.561 -5.22598 -2.557 0
M  V30 9496 H 917.441 -7.42383 -2.5266 0
M  V30 9497 N 914.944 1.19125 -1.03184 0
M  V30 9498 C 915.892 2.24492 -0.608781 0
M  V30 9499 C 916.886 1.65529 0.360065 0
M  V30 9500 O 918.092 1.78546 0.22832 0
M  V30 9501 H 914.467 0.73048 -0.178616 0
M  V30 9502 H 916.438 2.5749 -1.50803 0
M  V30 9503 C 915.187 3.47693 0.0215126 0
M  V30 9504 H 914.51 3.93354 -0.715024 0
M  V30 9505 H 915.95 4.23072 0.280429 0
M  V30 9506 C 914.409 3.12088 1.26896 0
M  V30 9507 O 914.939 3.25013 2.36071 0
M  V30 9508 N 913.145 2.66494 1.15886 0
M  V30 9509 H 912.692 2.56176 0.270463 0
M  V30 9510 H 912.65 2.43042 1.99444 0
M  V30 9511 N 916.422 0.810101 1.35185 0
M  V30 9512 C 917.37 0.211071 2.3164 0
M  V30 9513 C 918.364 -0.641109 1.568 0
M  V30 9514 O 919.57 -0.533881 1.719 0
M  V30 9515 H 915.945 0.0494978 0.750369 0
M  V30 9516 H 917.916 1.03964 2.79703 0
M  V30 9517 C 916.665 -0.622933 3.42074 0
M  V30 9518 H 915.988 0.0234648 3.99793 0
M  V30 9519 H 917.428 -1.0084 4.11834 0
M  V30 9520 C 915.887 -1.78994 2.85417 0
M  V30 9521 O 916.417 -2.88758 2.79252 0
M  V30 9522 N 914.623 -1.60259 2.42416 0
M  V30 9523 H 914.17 -0.70974 2.4763 0
M  V30 9524 H 914.128 -2.38498 2.04857 0
M  V30 9525 N 917.9 -1.47166 0.563914 0
M  V30 9526 C 919.128 -2.06846 0.0474287 0
M  V30 9527 C 919.543 -1.41557 -1.24928 0
M  V30 9528 O 918.9 -0.514376 -1.75101 0
M  V30 9529 C 918.951 -3.6121 -0.144831 0
M  V30 9530 O 918.672 -4.24052 1.10053 0
M  V30 9531 C 920.173 -4.37773 -0.69783 0
M  V30 9532 H 917.393 -0.669217 0.0488896 0
M  V30 9533 H 919.937 -1.89072 0.779235 0
M  V30 9534 H 918.092 -3.78474 -0.82679 0
M  V30 9535 H 918.506 -5.16677 0.902481 0
M  V30 9536 H 919.98 -5.46438 -0.781616 0
M  V30 9537 H 920.457 -4.04517 -1.71063 0
M  V30 9538 H 921.063 -4.25269 -0.0513516 0
M  V30 9539 N 919.378 -0.300708 -1.54705 0
M  V30 9540 C 920.789 0.191995 -1.8571 0
M  V30 9541 C 921.14 1.53447 -1.22264 0
M  V30 9542 O 920.265 2.10054 -0.520226 0
M  V30 9543 C 920.86 0.355148 -3.36933 0
M  V30 9544 C 919.419 0.792071 -3.67972 0
M  V30 9545 C 918.566 -0.099756 -2.77121 0
M  V30 9546 H 921.517 -0.521729 -1.49879 0
M  V30 9547 H 921.538 1.18977 -3.61421 0
M  V30 9548 H 921.05 -0.622075 -3.83082 0
M  V30 9549 H 919.151 1.77986 -3.27341 0
M  V30 9550 H 919.264 0.611661 -4.75179 0
M  V30 9551 H 917.628 0.420909 -2.51198 0
M  V30 9552 H 918.411 -1.07333 -3.2609 0
M  V30 9553 N 920.856 1.57574 -0.0284266 0
M  V30 9554 C 921.789 2.05684 0.988401 0
M  V30 9555 C 922.767 0.952468 1.31783 0
M  V30 9556 O 923.951 1.22274 1.43462 0
M  V30 9557 C 921.078 2.47832 2.30862 0
M  V30 9558 C 920.124 3.69282 2.13384 0
M  V30 9559 S 920.957 5.15962 1.43331 0
M  V30 9560 C 922.113 5.61404 2.76723 0
M  V30 9561 H 922.346 2.9161 0.578873 0
M  V30 9562 H 919.879 1.53309 0.183244 0
M  V30 9563 H 921.837 2.7278 3.06759 0
M  V30 9564 H 920.498 1.62253 2.68947 0
M  V30 9565 H 919.691 3.96618 3.10983 0
M  V30 9566 H 919.293 3.44482 1.45629 0
M  V30 9567 H 921.585 5.65601 3.72963 0
M  V30 9568 H 922.528 6.60956 2.54053 0
M  V30 9569 H 922.936 4.89051 2.81939 0
M  V30 9570 N 922.334 -0.244713 1.55689 0
M  V30 9571 C 923.611 -0.995407 1.68378 0
M  V30 9572 C 923.991 -2.03288 0.568949 0
M  V30 9573 O 923.339 -2.24469 -0.427299 0
M  V30 9574 C 923.549 -1.62678 3.08767 0
M  V30 9575 C 924.897 -2.1278 3.67437 0
M  V30 9576 O 925.921 -1.72614 3.11581 0
M  V30 9577 O 924.78 -2.86536 4.65359 0
M  V30 9578 H 921.874 -0.463476 0.684923 0
M  V30 9579 H 924.42 -0.238326 1.68018 0
M  V30 9580 H 923.192 -0.876469 3.81358 0
M  V30 9581 H 922.815 -2.45 3.13146 0
M  V30 9582 N 923.813 -1.49104 -0.510467 0
M  V30 9583 C 924.723 -1.67792 -1.6396 0
M  V30 9584 C 925.739 -0.560454 -1.64727 0
M  V30 9585 O 926.915 -0.833985 -1.83321 0
M  V30 9586 C 923.98 -1.73154 -3.00364 0
M  V30 9587 C 923.041 -2.9667 -3.10299 0
M  V30 9588 C 922.274 -3.01767 -4.40196 0
M  V30 9589 O 922.497 -2.1472 -5.28443 0
M  V30 9590 O 921.431 -3.94137 -4.54906 0
M  V30 9591 H 925.257 -2.63428 -1.51126 0
M  V30 9592 H 922.842 -1.32734 -0.685719 0
M  V30 9593 H 924.724 -1.79089 -3.81451 0
M  V30 9594 H 923.399 -0.806952 -3.1348 0
M  V30 9595 H 922.306 -2.96257 -2.28435 0
M  V30 9596 H 923.639 -3.88578 -3.02106 0
M  V30 9597 N 925.291 0.760815 -1.38019 0
M  V30 9598 C 926.254 1.85604 -1.34476 0
M  V30 9599 C 927.254 1.58897 -0.24666 0
M  V30 9600 O 928.444 1.66776 -0.50314 0
M  V30 9601 C 925.576 3.22945 -1.09176 0
M  V30 9602 H 926.769 1.90155 -2.31908 0
M  V30 9603 H 924.322 0.961746 -1.23208 0
M  V30 9604 H 925.057 3.24066 -0.123216 0
M  V30 9605 H 924.842 3.43723 -1.88672 0
M  V30 9606 H 926.332 4.03022 -1.09375 0
M  V30 9607 N 926.769 1.22769 0.988202 0
M  V30 9608 C 927.699 1.02627 2.09738 0
M  V30 9609 C 928.68 -0.0543211 1.70013 0
M  V30 9610 O 929.865 0.108811 1.93895 0
M  V30 9611 C 926.995 0.608302 3.41931 0
M  V30 9612 C 925.949 1.63536 3.95525 0
M  V30 9613 C 925.275 1.07308 5.23822 0
M  V30 9614 C 926.575 3.02649 4.25677 0
M  V30 9615 H 928.269 1.954 2.26847 0
M  V30 9616 H 925.815 0.940888 1.09011 0
M  V30 9617 H 927.768 0.454478 4.18942 0
M  V30 9618 H 926.492 -0.355095 3.24664 0
M  V30 9619 H 925.151 1.77704 3.20651 0
M  V30 9620 H 924.799 0.100894 5.02899 0
M  V30 9621 H 924.499 1.75925 5.60646 0
M  V30 9622 H 926.023 0.930938 6.03462 0
M  V30 9623 H 927.437 2.91828 4.93467 0
M  V30 9624 H 925.834 3.68434 4.73684 0
M  V30 9625 H 926.904 3.52228 3.33262 0
M  V30 9626 N 928.247 -1.18576 1.03814 0
M  V30 9627 C 929.197 -2.20034 0.597409 0
M  V30 9628 C 930.181 -1.56849 -0.358796 0
M  V30 9629 O 931.373 -1.761 -0.178262 0
M  V30 9630 C 928.502 -3.43276 -0.0407965 0
M  V30 9631 C 927.588 -4.13588 0.938404 0
M  V30 9632 N 927.979 -4.59941 2.10447 0
M  V30 9633 C 926.277 -4.3941 0.763853 0
M  V30 9634 C 926.978 -5.1404 2.72282 0
M  V30 9635 N 925.954 -5.05401 2.00176 0
M  V30 9636 H 929.756 -2.53562 1.48606 0
M  V30 9637 H 927.27 -1.34753 0.906384 0
M  V30 9638 H 929.267 -4.15217 -0.374222 0
M  V30 9639 H 927.927 -3.11245 -0.925014 0
M  V30 9640 H 928.938 -4.54471 2.48347 0
M  V30 9641 H 925.615 -4.1744 -0.0704869 0
M  V30 9642 H 927.005 -5.60128 3.71088 0
M  V30 9643 N 929.725 -0.817259 -1.34754 0
M  V30 9644 C 930.972 -0.402648 -1.98457 0
M  V30 9645 C 931.3 1.03287 -1.64809 0
M  V30 9646 O 930.555 1.73316 -0.908851 0
M  V30 9647 C 930.854 -0.5453 -3.53216 0
M  V30 9648 C 930.52 -1.9457 -4.06759 0
M  V30 9649 C 929.182 -2.32881 -4.21094 0
M  V30 9650 C 931.534 -2.86141 -4.35629 0
M  V30 9651 C 928.862 -3.62108 -4.61622 0
M  V30 9652 C 931.214 -4.14826 -4.776 0
M  V30 9653 C 929.878 -4.53121 -4.9014 0
M  V30 9654 H 929.148 -0.147339 -0.726204 0
M  V30 9655 H 931.795 -1.04011 -1.60791 0
M  V30 9656 H 930.1 0.175576 -3.91406 0
M  V30 9657 H 931.797 -0.205112 -4.00475 0
M  V30 9658 H 928.387 -1.6381 -3.96061 0
M  V30 9659 H 932.571 -2.57788 -4.24098 0
M  V30 9660 H 927.827 -3.91613 -4.69521 0
M  V30 9661 H 932.001 -4.85874 -4.98899 0
M  V30 9662 H 929.628 -5.53307 -5.21302 0
M  V30 9663 N 931.203 1.46865 -0.571711 0
M  V30 9664 C 932.451 2.0203 -0.0530022 0
M  V30 9665 C 932.772 1.44687 1.30731 0
M  V30 9666 O 932.042 0.627429 1.85581 0
M  V30 9667 H 930.622 0.746815 -0.0166035 0
M  V30 9668 H 933.284 1.80099 -0.745003 0
M  V30 9669 H 932.38 3.12091 0.0242538 0
M  V30 9670 N 932.681 0.308908 1.54543 0
M  V30 9671 C 933.631 -0.578902 2.20528 0
M  V30 9672 C 934.615 -1.09288 1.18088 0
M  V30 9673 O 935.807 -1.03234 1.43777 0
M  V30 9674 C 932.936 -1.74649 2.95555 0
M  V30 9675 C 932.022 -1.24809 4.05319 0
M  V30 9676 N 932.413 -0.46828 5.03628 0
M  V30 9677 C 930.711 -1.52813 4.19004 0
M  V30 9678 C 931.412 -0.201896 5.8135 0
M  V30 9679 N 930.388 -0.783927 5.37918 0
M  V30 9680 H 934.19 0.0243496 2.9389 0
M  V30 9681 H 931.704 0.114049 1.61999 0
M  V30 9682 H 933.701 -2.39414 3.41301 0
M  V30 9683 H 932.361 -2.35336 2.23712 0
M  V30 9684 H 933.372 -0.112453 5.17778 0
M  V30 9685 H 930.049 -2.14191 3.58369 0
M  V30 9686 H 931.439 0.424929 6.70555 0
M  V30 9687 N 934.159 -1.57557 0.0367827 0
M  V30 9688 C 935.109 -2.07182 -0.95183 0
M  V30 9689 C 936.093 -0.973921 -1.28076 0
M  V30 9690 O 937.285 -1.23741 -1.26559 0
M  V30 9691 C 934.414 -2.60869 -2.23164 0
M  V30 9692 C 933.5 -3.77602 -1.93074 0
M  V30 9693 N 933.891 -4.87923 -1.33283 0
M  V30 9694 C 932.189 -3.86234 -2.23023 0
M  V30 9695 C 932.89 -5.69083 -1.20498 0
M  V30 9696 N 931.866 -5.16233 -1.70306 0
M  V30 9697 H 935.668 -2.89876 -0.484647 0
M  V30 9698 H 933.182 -1.61528 -0.16804 0
M  V30 9699 H 935.179 -2.94716 -2.9487 0
M  V30 9700 H 933.839 -1.79607 -2.70502 0
M  V30 9701 H 934.85 -5.08018 -1.00686 0
M  V30 9702 H 931.527 -3.15891 -2.72981 0
M  V30 9703 H 932.917 -6.6779 -0.741999 0
M  V30 9704 N 935.637 0.236453 -1.55816 0
M  V30 9705 C 936.914 0.986463 -1.68903 0
M  V30 9706 C 937.294 2.02984 -0.579722 0
M  V30 9707 O 936.642 2.24693 0.415389 0
M  V30 9708 C 936.852 1.61038 -3.09625 0
M  V30 9709 C 938.2 2.10829 -3.6856 0
M  V30 9710 O 939.224 1.7096 -3.12492 0
M  V30 9711 O 938.083 2.84064 -4.66873 0
M  V30 9712 H 935.177 0.459837 -0.687371 0
M  V30 9713 H 937.723 0.229412 -1.68142 0
M  V30 9714 H 936.495 0.856232 -3.81817 0
M  V30 9715 H 936.118 2.43336 -3.14441 0
M  V30 9716 N 937.115 1.49373 0.502552 0
M  V30 9717 C 938.361 1.59016 1.25864 0
M  V30 9718 C 938.694 0.27532 1.92238 0
M  V30 9719 O 937.969 -0.720988 1.80643 0
M  V30 9720 C 938.252 2.74828 2.32683 0
M  V30 9721 C 938.105 4.16102 1.7082 0
M  V30 9722 C 939.424 2.86288 3.34256 0
M  V30 9723 H 936.543 0.578798 0.456248 0
M  V30 9724 H 939.185 1.81651 0.557032 0
M  V30 9725 H 937.335 2.5566 2.92524 0
M  V30 9726 H 939.007 4.46782 1.14818 0
M  V30 9727 H 937.25 4.21822 1.01238 0
M  V30 9728 H 937.921 4.93006 2.48292 0
M  V30 9729 H 940.397 3.03733 2.84404 0
M  V30 9730 H 939.273 3.69001 4.06362 0
M  V30 9731 H 939.534 1.95576 3.96488 0
M  V30 9732 N 938.594 -0.753485 1.38421 0
M  V30 9733 C 939.841 -1.51261 1.34634 0
M  V30 9734 C 940.169 -1.94396 -0.0635771 0
M  V30 9735 O 939.424 -1.65736 -1.04068 0
M  V30 9736 C 939.723 -2.77836 2.24816 0
M  V30 9737 C 939.389 -2.53662 3.72782 0
M  V30 9738 C 938.051 -2.46779 4.13103 0
M  V30 9739 C 940.403 -2.32548 4.66445 0
M  V30 9740 C 937.731 -2.16796 5.45176 0
M  V30 9741 C 940.083 -2.04085 5.98775 0
M  V30 9742 C 938.747 -1.95658 6.3818 0
M  V30 9743 H 938.017 -0.553503 0.492661 0
M  V30 9744 H 940.664 -0.866406 1.7078 0
M  V30 9745 H 938.969 -3.47106 1.81726 0
M  V30 9746 H 940.666 -3.35793 2.19189 0
M  V30 9747 H 937.256 -2.59891 3.40815 0
M  V30 9748 H 941.44 -2.36845 4.3614 0
M  V30 9749 H 936.696 -2.0878 5.74648 0
M  V30 9750 H 940.87 -1.86751 6.70893 0
M  V30 9751 H 938.497 -1.7219 7.40442 0
M  V30 9752 N 940.072 -1.23292 -0.981677 0
M  V30 9753 C 941.019 -1.01296 -2.07383 0
M  V30 9754 C 941.989 0.069139 -1.65956 0
M  V30 9755 O 943.174 -0.0827108 -1.90621 0
M  V30 9756 C 940.314 -0.608876 -3.39686 0
M  V30 9757 C 939.427 -1.76296 -3.9439 0
M  V30 9758 C 938.562 -1.30578 -5.14901 0
M  V30 9759 C 937.601 -2.4307 -5.61768 0
M  V30 9760 N 936.738 -1.98319 -6.73509 0
M  V30 9761 H 941.578 -1.9478 -2.25532 0
M  V30 9762 H 939.115 -0.970356 -1.10555 0
M  V30 9763 H 941.073 -0.355702 -4.15681 0
M  V30 9764 H 939.703 0.288961 -3.21504 0
M  V30 9765 H 938.755 -2.13017 -3.15163 0
M  V30 9766 H 940.067 -2.60871 -4.25145 0
M  V30 9767 H 939.221 -1.01066 -5.98223 0
M  V30 9768 H 937.96 -0.430386 -4.85797 0
M  V30 9769 H 936.965 -2.73358 -4.77028 0
M  V30 9770 H 938.19 -3.31144 -5.92892 0
M  V30 9771 H 936.136 -1.13157 -6.46167 0
M  V30 9772 H 936.053 -2.76454 -7.0364 0
M  V30 9773 H 937.321 -1.71907 -7.60308 0
M  V30 9774 N 941.55 1.18024 -1.04442 0
M  V30 9775 C 942.799 1.8743 -0.745185 0
M  V30 9776 C 943.112 1.81459 0.730206 0
M  V30 9777 O 944.318 2.46263 1.1431 0
M  V30 9778 C 942.774 3.36266 -1.28271 0
M  V30 9779 C 942.382 3.50757 -2.787 0
M  V30 9780 C 944.126 4.11048 -1.06018 0
M  V30 9781 C 942.033 4.93573 -3.25791 0
M  V30 9782 H 940.963 0.702038 -0.27506 0
M  V30 9783 H 943.614 1.33333 -1.26073 0
M  V30 9784 H 941.996 3.89853 -0.695002 0
M  V30 9785 H 943.17 3.07423 -3.43261 0
M  V30 9786 H 941.485 2.89385 -2.99408 0
M  V30 9787 H 944.082 5.16395 -1.38711 0
M  V30 9788 H 944.425 4.163 0.00241716 0
M  V30 9789 H 944.958 3.63644 -1.61269 0
M  V30 9790 H 941.697 4.93491 -4.31447 0
M  V30 9791 H 941.217 5.37607 -2.65968 0
M  V30 9792 H 942.896 5.62307 -3.20031 0
M  V30 9793 N 943.028 0.824394 1.34319 0
M  V30 9794 C 943.958 0.262077 2.32025 0
M  V30 9795 C 944.939 -0.622277 1.58309 0
M  V30 9796 O 946.124 -0.548848 1.86283 0
M  V30 9797 C 943.254 -0.57567 3.42496 0
M  V30 9798 C 942.208 0.21167 4.27476 0
M  V30 9799 C 941.534 -0.748913 5.29429 0
M  V30 9800 C 942.834 1.42068 5.02607 0
M  V30 9801 H 944.528 1.07842 2.79304 0
M  V30 9802 H 942.074 0.520022 1.34282 0
M  V30 9803 H 944.027 -0.979251 4.09864 0
M  V30 9804 H 942.751 -1.42508 2.93869 0
M  V30 9805 H 941.41 0.596636 3.61712 0
M  V30 9806 H 941.058 -1.59432 4.77064 0
M  V30 9807 H 940.758 -0.226313 5.87164 0
M  V30 9808 H 942.282 -1.15032 5.99667 0
M  V30 9809 H 943.696 1.09103 5.62823 0
M  V30 9810 H 942.093 1.87903 5.69923 0
M  V30 9811 H 943.163 2.1981 4.32217 0
M  V30 9812 N 944.506 -1.46559 0.579492 0
M  V30 9813 C 945.438 -2.28383 -0.19337 0
M  V30 9814 C 946.451 -1.38324 -0.858511 0
M  V30 9815 O 947.64 -1.62952 -0.728615 0
M  V30 9816 C 944.74 -3.13262 -1.29306 0
M  V30 9817 C 943.913 -4.31426 -0.720459 0
M  V30 9818 C 942.972 -4.97728 -1.70744 0
M  V30 9819 O 941.998 -5.55423 -1.24476 0
M  V30 9820 N 943.2 -4.94445 -3.04146 0
M  V30 9821 H 945.965 -2.95353 0.508611 0
M  V30 9822 H 943.526 -1.56436 0.417046 0
M  V30 9823 H 945.518 -3.54483 -1.95254 0
M  V30 9824 H 944.088 -2.48388 -1.89795 0
M  V30 9825 H 943.308 -3.94028 0.116398 0
M  V30 9826 H 944.596 -5.07808 -0.31763 0
M  V30 9827 H 943.994 -4.4881 -3.44363 0
M  V30 9828 H 942.551 -5.39616 -3.65592 0
M  V30 9829 N 945.984 -0.3171 -1.54377 0
M  V30 9830 C 946.894 0.560867 -2.27797 0
M  V30 9831 C 947.91 1.13473 -1.31908 0
M  V30 9832 O 949.086 1.15608 -1.64914 0
M  V30 9833 C 946.151 1.70886 -3.0166 0
M  V30 9834 C 945.212 1.16745 -4.13121 0
M  V30 9835 C 944.445 2.26073 -4.83453 0
M  V30 9836 O 944.668 3.46292 -4.53252 0
M  V30 9837 O 943.602 1.91856 -5.70504 0
M  V30 9838 H 947.428 -0.035193 -3.0368 0
M  V30 9839 H 945.013 -0.0830062 -1.49169 0
M  V30 9840 H 946.895 2.37736 -3.47936 0
M  V30 9841 H 945.57 2.29122 -2.28658 0
M  V30 9842 H 944.477 0.464224 -3.71209 0
M  V30 9843 H 945.81 0.630307 -4.88147 0
M  V30 9844 N 947.462 1.57535 -0.0451378 0
M  V30 9845 C 948.692 1.96476 0.638814 0
M  V30 9846 C 949.1 0.921056 1.65267 0
M  V30 9847 O 948.443 -0.103843 1.83406 0
M  V30 9848 C 948.505 3.31629 1.38788 0
M  V30 9849 C 948.169 4.5391 0.530545 0
M  V30 9850 C 949.166 5.19512 -0.200864 0
M  V30 9851 C 946.851 5.00159 0.463242 0
M  V30 9852 C 948.845 6.29695 -0.988078 0
M  V30 9853 C 946.532 6.10221 -0.327665 0
M  V30 9854 C 947.53 6.74849 -1.05202 0
M  V30 9855 O 947.218 7.82795 -1.82993 0
M  V30 9856 H 946.95 0.651625 0.17989 0
M  V30 9857 H 949.504 2.05126 -0.106031 0
M  V30 9858 H 947.734 3.19516 2.17822 0
M  V30 9859 H 949.423 3.5536 1.96148 0
M  V30 9860 H 950.189 4.84742 -0.158299 0
M  V30 9861 H 946.068 4.49651 1.01663 0
M  V30 9862 H 949.612 6.80072 -1.55397 0
M  V30 9863 H 945.509 6.44428 -0.37189 0
M  V30 9864 H 946.277 7.99542 -1.7514 0
M  V30 9865 N 948.94 -0.228186 1.55939 0
M  V30 9866 C 949.872 -1.30605 1.88348 0
M  V30 9867 C 950.885 -1.43375 0.771198 0
M  V30 9868 O 952.074 -1.44391 1.04945 0
M  V30 9869 C 949.174 -2.68248 2.07115 0
M  V30 9870 C 948.347 -2.77509 3.38094 0
M  V30 9871 C 947.406 -3.96121 3.46373 0
M  V30 9872 O 946.432 -3.8477 4.19453 0
M  V30 9873 N 947.634 -5.10132 2.77031 0
M  V30 9874 H 950.399 -1.03132 2.81396 0
M  V30 9875 H 947.96 -0.418245 1.56404 0
M  V30 9876 H 949.952 -3.45966 2.09976 0
M  V30 9877 H 948.522 -2.88348 1.20723 0
M  V30 9878 H 947.742 -1.8632 3.47388 0
M  V30 9879 H 949.03 -2.80662 4.2439 0
M  V30 9880 H 948.428 -5.22249 2.17424 0
M  V30 9881 H 946.985 -5.85916 2.85561 0
M  V30 9882 N 950.418 -1.49637 -0.494624 0
M  V30 9883 C 951.664 -1.59681 -1.25019 0
M  V30 9884 C 951.997 -0.285511 -1.9209 0
M  V30 9885 O 951.272 0.711398 -1.81023 0
M  V30 9886 C 951.555 -2.76058 -2.31222 0
M  V30 9887 C 951.408 -4.17002 -1.68611 0
M  V30 9888 C 952.727 -2.88056 -3.32734 0
M  V30 9889 H 949.846 -0.581209 -0.453172 0
M  V30 9890 H 952.488 -1.81944 -0.547391 0
M  V30 9891 H 950.638 -2.57207 -2.91164 0
M  V30 9892 H 952.31 -4.47385 -1.12447 0
M  V30 9893 H 950.553 -4.22352 -0.989991 0
M  V30 9894 H 951.224 -4.94316 -2.45674 0
M  V30 9895 H 953.7 -3.05237 -2.82789 0
M  V30 9896 H 952.576 -3.71151 -4.04399 0
M  V30 9897 H 952.837 -1.97676 -3.95445 0
M  V30 9898 N 951.896 0.746133 -1.38819 0
M  V30 9899 C 952.828 1.86991 -1.3254 0
M  V30 9900 C 953.841 1.61077 -0.236216 0
M  V30 9901 O 955.03 1.71518 -0.494341 0
M  V30 9902 C 952.13 3.22786 -1.03258 0
M  V30 9903 C 951.303 3.76145 -2.23234 0
M  V30 9904 C 950.362 4.90474 -1.90581 0
M  V30 9905 O 949.388 5.04717 -2.63153 0
M  V30 9906 N 950.59 5.74015 -0.86525 0
M  V30 9907 H 953.355 1.92885 -2.2938 0
M  V30 9908 H 950.916 0.926392 -1.32776 0
M  V30 9909 H 952.908 3.96824 -0.794533 0
M  V30 9910 H 951.478 3.12231 -0.151895 0
M  V30 9911 H 950.698 2.93587 -2.63059 0
M  V30 9912 H 951.986 4.08528 -3.03285 0
M  V30 9913 H 951.384 5.65086 -0.263577 0
M  V30 9914 H 949.941 6.48168 -0.687087 0
M  V30 9915 N 953.375 1.23811 0.975125 0
M  V30 9916 C 954.605 1.0986 1.7497 0
M  V30 9917 C 955.013 -0.352366 1.8589 0
M  V30 9918 O 954.356 -1.2553 1.34119 0
M  V30 9919 C 954.418 1.65584 3.19096 0
M  V30 9920 C 954.082 3.14395 3.3167 0
M  V30 9921 C 955.079 4.1163 3.17579 0
M  V30 9922 C 952.764 3.54208 3.56149 0
M  V30 9923 C 954.758 5.46661 3.27781 0
M  V30 9924 C 952.445 4.89382 3.65989 0
M  V30 9925 C 953.443 5.85418 3.51817 0
M  V30 9926 O 953.131 7.18135 3.61299 0
M  V30 9927 H 952.863 0.384854 0.555755 0
M  V30 9928 H 955.417 1.64242 1.23343 0
M  V30 9929 H 953.647 1.05627 3.71994 0
M  V30 9930 H 955.336 1.47032 3.78334 0
M  V30 9931 H 956.102 3.82214 2.98559 0
M  V30 9932 H 951.981 2.79968 3.66249 0
M  V30 9933 H 955.525 6.21601 3.16636 0
M  V30 9934 H 951.422 5.18473 3.84521 0
M  V30 9935 H 952.19 7.25956 3.78061 0
M  V30 9936 N 954.853 -1.17469 1.05066 0
M  V30 9937 C 956.081 -1.9162 0.780334 0
M  V30 9938 C 956.496 -1.76745 -0.663817 0
M  V30 9939 O 955.853 -1.10377 -1.45338 0
M  V30 9940 C 955.904 -3.42723 1.14992 0
M  V30 9941 O 955.625 -3.57139 2.53739 0
M  V30 9942 C 957.126 -4.33952 0.905549 0
M  V30 9943 H 954.346 -0.608022 0.283814 0
M  V30 9944 H 956.89 -1.4897 1.401 0
M  V30 9945 H 955.045 -3.83124 0.57403 0
M  V30 9946 H 955.459 -4.5075 2.68189 0
M  V30 9947 H 956.933 -5.38487 1.21391 0
M  V30 9948 H 957.41 -4.38911 -0.159295 0
M  V30 9949 H 958.016 -3.99263 1.46522 0
M  V30 9950 N 956.331 -0.831506 -1.3388 0
M  V30 9951 C 957.742 -0.481375 -1.80388 0
M  V30 9952 C 958.093 0.998993 -1.68863 0
M  V30 9953 O 957.218 1.77795 -1.2336 0
M  V30 9954 C 957.813 -0.86699 -3.27519 0
M  V30 9955 C 956.372 -0.569105 -3.72073 0
M  V30 9956 C 955.519 -1.07929 -2.55434 0
M  V30 9957 H 958.47 -1.02089 -1.21505 0
M  V30 9958 H 958.491 -0.174128 -3.80101 0
M  V30 9959 H 958.003 -1.94447 -3.35875 0
M  V30 9960 H 956.104 0.498607 -3.69249 0
M  V30 9961 H 956.217 -1.11918 -4.65845 0
M  V30 9962 H 954.581 -0.500465 -2.49735 0
M  V30 9963 H 955.364 -2.16339 -2.66556 0
M  V30 9964 N 957.809 1.4625 -0.587256 0
M  V30 9965 C 958.741 2.28482 0.181256 0
M  V30 9966 C 959.754 1.38777 0.851163 0
M  V30 9967 O 960.943 1.63336 0.719963 0
M  V30 9968 C 958.043 3.13944 1.27643 0
M  V30 9969 C 957.216 4.31802 0.697569 0
M  V30 9970 C 956.275 4.98626 1.68102 0
M  V30 9971 O 955.301 5.56075 1.21529 0
M  V30 9972 N 956.503 4.96051 3.0152 0
M  V30 9973 H 959.268 2.95079 -0.524267 0
M  V30 9974 H 956.829 1.56213 -0.425336 0
M  V30 9975 H 958.821 3.55513 1.93371 0
M  V30 9976 H 957.391 2.49391 1.88475 0
M  V30 9977 H 956.611 3.93961 -0.137293 0
M  V30 9978 H 957.899 5.07969 0.290696 0
M  V30 9979 H 957.297 4.5063 3.41978 0
M  V30 9980 H 955.854 5.41547 3.62725 0
M  V30 9981 N 959.287 0.325282 1.54207 0
M  V30 9982 C 960.535 -0.276229 2.00203 0
M  V30 9983 C 960.856 -1.52519 1.21503 0
M  V30 9984 O 960.126 -1.93313 0.317302 0
M  V30 9985 H 958.706 -0.105059 0.739575 0
M  V30 9986 H 961.368 0.442225 1.89817 0
M  V30 9987 H 960.464 -0.531427 3.07542 0
M  V30 9988 N 960.765 -1.57509 0.0534917 0
M  V30 9989 C 962.042 -1.84137 -0.659767 0
M  V30 9990 C 962.422 -0.942362 -1.88899 0
M  V30 9991 O 961.77 -0.00398566 -2.285 0
M  V30 9992 C 961.98 -3.33919 -1.01486 0
M  V30 9993 C 963.328 -4.00989 -1.39616 0
M  V30 9994 O 964.352 -3.38557 -1.10713 0
M  V30 9995 O 963.211 -5.11071 -1.93567 0
M  V30 9996 H 960.305 -0.760081 -0.325893 0
M  V30 9997 H 962.851 -1.69497 0.0830315 0
M  V30 9998 H 961.623 -3.91046 -0.141041 0
M  V30 9999 H 961.246 -3.53755 -1.81503 0
M  V30 10000 N 962.243 0.219913 -1.56058 0
M  V30 10001 C 963.468 0.965073 -1.83579 0
M  V30 10002 C 963.893 1.77092 -0.634024 0
M  V30 10003 O 963.251 1.76434 0.417205 0
M  V30 10004 C 963.299 1.85705 -3.09105 0
M  V30 10005 O 962.403 2.95261 -2.87914 0
M  V30 10006 H 961.744 0.273173 -0.605204 0
M  V30 10007 H 964.274 0.23273 -2.03272 0
M  V30 10008 H 964.284 2.26655 -3.39252 0
M  V30 10009 H 962.959 1.26476 -3.96203 0
M  V30 10010 H 961.536 2.58246 -2.69005 0
M  V30 10011 N 963.721 1.49897 0.486681 0
M  V30 10012 C 964.998 1.50614 1.24799 0
M  V30 10013 C 965.378 0.24193 2.09709 0
M  V30 10014 O 964.726 -0.775237 2.14947 0
M  V30 10015 C 964.936 2.79318 2.09243 0
M  V30 10016 C 966.284 3.29371 2.67955 0
M  V30 10017 O 967.308 2.80533 2.19499 0
M  V30 10018 O 966.167 4.14466 3.56202 0
M  V30 10019 H 963.261 0.603447 0.565491 0
M  V30 10020 H 965.807 1.62174 0.499778 0
M  V30 10021 H 964.579 3.62812 1.46572 0
M  V30 10022 H 964.202 2.70687 2.91229 0
M  V30 10023 N 965.199 -0.738761 1.39212 0
M  V30 10024 C 966.147 -1.8741 1.3777 0
M  V30 10025 C 967.141 -1.67371 0.261375 0
M  V30 10026 O 968.347 -1.74759 0.431209 0
M  V30 10027 H 964.722 -0.616843 0.430126 0
M  V30 10028 H 966.693 -1.85742 2.33543 0
M  V30 10029 C 965.442 -3.25053 1.23433 0
M  V30 10030 H 964.765 -3.41066 2.086 0
M  V30 10031 H 966.205 -4.04696 1.2648 0
M  V30 10032 C 964.664 -3.36851 -0.0575624 0
M  V30 10033 O 965.194 -3.88293 -1.02915 0
M  V30 10034 N 963.4 -2.90355 -0.119364 0
M  V30 10035 H 962.947 -2.48681 0.671976 0
M  V30 10036 H 962.905 -2.98628 -0.983286 0
M  V30 10037 N 966.677 -1.24326 -0.968545 0
M  V30 10038 C 967.925 -1.08032 -1.70803 0
M  V30 10039 C 968.246 0.381728 -1.91227 0
M  V30 10040 O 967.516 1.27253 -1.48942 0
M  V30 10041 H 966.096 -0.396777 -0.632912 0
M  V30 10042 H 968.758 -1.56232 -1.16523 0
M  V30 10043 H 967.854 -1.57769 -2.69287 0
M  V30 10044 N 968.156 1.1691 -1.05688 0
M  V30 10045 C 969.103 2.21095 -0.662246 0
M  V30 10046 C 970.073 1.62623 0.338083 0
M  V30 10047 O 971.258 1.89428 0.228362 0
M  V30 10048 C 968.398 3.45066 -0.0484018 0
M  V30 10049 C 967.511 4.17809 -1.09817 0
M  V30 10050 C 966.646 5.29281 -0.451114 0
M  V30 10051 C 965.685 5.93817 -1.48484 0
M  V30 10052 N 964.822 6.96793 -0.861588 0
M  V30 10053 H 969.662 2.54204 -1.55513 0
M  V30 10054 H 967.199 1.24863 -0.777665 0
M  V30 10055 H 969.157 4.15932 0.324978 0
M  V30 10056 H 967.787 3.12526 0.807918 0
M  V30 10057 H 966.839 3.45608 -1.58932 0
M  V30 10058 H 968.151 4.61907 -1.88265 0
M  V30 10059 H 967.305 6.06695 -0.0244251 0
M  V30 10060 H 966.044 4.8633 0.365306 0
M  V30 10061 H 965.049 5.1513 -1.92149 0
M  V30 10062 H 966.274 6.38848 -2.30325 0
M  V30 10063 H 964.22 6.55967 -0.0657688 0
M  V30 10064 H 964.137 7.39229 -1.58354 0
M  V30 10065 H 965.405 7.78142 -0.45984 0
M  V30 10066 N 969.634 0.838594 1.33437 0
M  V30 10067 C 970.544 0.274048 2.32994 0
M  V30 10068 C 971.56 -0.599776 1.63336 0
M  V30 10069 O 972.736 -0.503963 1.94993 0
M  V30 10070 C 969.801 -0.541804 3.4244 0
M  V30 10071 C 968.862 0.356262 4.27819 0
M  V30 10072 C 968.095 -0.420747 5.32039 0
M  V30 10073 O 968.318 -1.65247 5.45939 0
M  V30 10074 O 967.252 0.205101 6.0155 0
M  V30 10075 H 971.078 1.09846 2.83139 0
M  V30 10076 H 968.663 0.601111 1.36774 0
M  V30 10077 H 970.545 -1.00544 4.0923 0
M  V30 10078 H 969.22 -1.34328 2.94513 0
M  V30 10079 H 968.127 0.867726 3.63897 0
M  V30 10080 H 969.46 1.1225 4.79229 0
M  V30 10081 N 971.112 -1.45937 0.595003 0
M  V30 10082 C 972.06 -2.32155 -0.143798 0
M  V30 10083 C 973.054 -1.45221 -0.872198 0
M  V30 10084 O 974.26 -1.61777 -0.789191 0
M  V30 10085 H 970.635 -0.749165 -0.0652377 0
M  V30 10086 H 972.606 -2.92264 0.602005 0
M  V30 10087 C 971.355 -3.28615 -1.13611 0
M  V30 10088 H 970.678 -3.95496 -0.585044 0
M  V30 10089 H 972.118 -3.91699 -1.62321 0
M  V30 10090 C 970.577 -2.54863 -2.20333 0
M  V30 10091 O 971.107 -2.32071 -3.27881 0
M  V30 10092 N 969.313 -2.15213 -1.95274 0
M  V30 10093 H 968.86 -2.33949 -1.07822 0
M  V30 10094 H 968.818 -1.66188 -2.66888 0
M  V30 10095 N 972.59 -0.333456 -1.54032 0
M  V30 10096 C 973.522 0.562174 -2.22199 0
M  V30 10097 C 974.535 1.07202 -1.22522 0
M  V30 10098 O 975.724 0.983897 -1.48935 0
M  V30 10099 C 972.824 1.78525 -2.88066 0
M  V30 10100 C 971.997 1.41242 -4.13968 0
M  V30 10101 C 971.056 2.49408 -4.63338 0
M  V30 10102 O 970.082 2.13138 -5.27789 0
M  V30 10103 N 971.284 3.805 -4.38406 0
M  V30 10104 H 974.049 -0.0215629 -2.99692 0
M  V30 10105 H 971.61 -0.157111 -1.61136 0
M  V30 10106 H 973.602 2.50298 -3.18014 0
M  V30 10107 H 972.172 2.2766 -2.14219 0
M  V30 10108 H 971.392 0.525887 -3.90676 0
M  V30 10109 H 972.68 1.13916 -4.95884 0
M  V30 10110 H 972.078 4.12761 -3.86839 0
M  V30 10111 H 970.635 4.48474 -4.72984 0
M  V30 10112 N 974.068 1.57479 -0.061844 0
M  V30 10113 C 975.296 1.97429 0.618837 0
M  V30 10114 C 975.711 0.939826 1.63746 0
M  V30 10115 O 975.068 -0.0747173 1.82347 0
M  V30 10116 C 975.119 3.3746 1.29628 0
M  V30 10117 O 974.84 4.36941 0.318431 0
M  V30 10118 C 976.341 3.92228 2.06572 0
M  V30 10119 H 973.561 0.649513 0.168444 0
M  V30 10120 H 976.105 2.04078 -0.131303 0
M  V30 10121 H 974.26 3.31928 1.99757 0
M  V30 10122 H 974.674 5.18313 0.803239 0
M  V30 10123 H 976.148 4.92458 2.49377 0
M  V30 10124 H 976.625 3.28231 2.91824 0
M  V30 10125 H 977.231 4.01131 1.4133 0
M  V30 10126 N 975.546 -0.211634 1.56173 0
M  V30 10127 C 976.792 -0.935935 1.79911 0
M  V30 10128 C 977.125 -1.83589 0.633155 0
M  V30 10129 O 976.4 -1.91004 -0.367132 0
M  V30 10130 C 976.683 -1.76638 3.13801 0
M  V30 10131 C 976.536 -0.892259 4.40861 0
M  V30 10132 C 977.855 -2.74224 3.44223 0
M  V30 10133 H 974.974 -0.338822 0.654499 0
M  V30 10134 H 977.616 -0.20422 1.88899 0
M  V30 10135 H 975.766 -2.39021 3.0627 0
M  V30 10136 H 977.438 -0.284407 4.60422 0
M  V30 10137 H 975.681 -0.198145 4.33347 0
M  V30 10138 H 976.352 -1.50793 5.31004 0
M  V30 10139 H 978.828 -2.21975 3.51946 0
M  V30 10140 H 977.704 -3.29424 4.39057 0
M  V30 10141 H 977.965 -3.52455 2.66885 0
M  V30 10142 N 977.024 -1.50153 -0.478725 0
M  V30 10143 C 977.974 -1.64848 -1.57509 0
M  V30 10144 C 978.958 -0.503327 -1.52825 0
M  V30 10145 O 980.15 -0.75737 -1.59978 0
M  V30 10146 C 977.279 -1.73893 -2.96 0
M  V30 10147 C 976.365 -2.9406 -3.05597 0
M  V30 10148 N 976.756 -4.17844 -2.85027 0
M  V30 10149 C 975.054 -2.92459 -3.36725 0
M  V30 10150 C 975.755 -4.98739 -2.9939 0
M  V30 10151 N 974.731 -4.32542 -3.29255 0
M  V30 10152 H 978.533 -2.58254 -1.40293 0
M  V30 10153 H 976.047 -1.47232 -0.685307 0
M  V30 10154 H 978.044 -1.82523 -3.74821 0
M  V30 10155 H 976.704 -0.816402 -3.14269 0
M  V30 10156 H 977.715 -4.47465 -2.60759 0
M  V30 10157 H 974.392 -2.09675 -3.6103 0
M  V30 10158 H 975.782 -6.07146 -2.8779 0
M  V30 10159 N 978.502 0.731368 -1.39602 0
M  V30 10160 C 979.449 1.84541 -1.38612 0
M  V30 10161 C 980.419 1.64279 -0.245287 0
M  V30 10162 O 981.604 1.85635 -0.440954 0
M  V30 10163 C 978.744 3.22092 -1.23897 0
M  V30 10164 C 977.857 3.54034 -2.47555 0
M  V30 10165 C 976.992 4.81007 -2.25402 0
M  V30 10166 C 976.031 5.05804 -3.44716 0
M  V30 10167 N 975.168 6.23981 -3.21857 0
M  V30 10168 H 980.008 1.84722 -2.33841 0
M  V30 10169 H 977.545 0.902569 -1.16156 0
M  V30 10170 H 979.503 4.01499 -1.13376 0
M  V30 10171 H 978.133 3.2118 -0.322958 0
M  V30 10172 H 977.185 2.69301 -2.68665 0
M  V30 10173 H 978.497 3.68275 -3.36415 0
M  V30 10174 H 977.651 5.68401 -2.12143 0
M  V30 10175 H 976.39 4.68946 -1.33943 0
M  V30 10176 H 975.395 4.1687 -3.58468 0
M  V30 10177 H 976.62 5.19747 -4.37081 0
M  V30 10178 H 974.566 6.13202 -2.33065 0
M  V30 10179 H 974.483 6.38826 -4.04274 0
M  V30 10180 H 975.751 7.14205 -3.123 0
M  V30 10181 N 979.98 1.24838 0.961938 0
M  V30 10182 C 980.928 1.0436 2.07874 0
M  V30 10183 C 981.922 -0.0232531 1.69384 0
M  V30 10184 O 983.128 0.131773 1.79517 0
M  V30 10185 H 979.503 0.320492 0.680286 0
M  V30 10186 H 981.474 1.99055 2.22306 0
M  V30 10187 C 980.223 0.671246 3.41159 0
M  V30 10188 H 979.546 1.48395 3.7124 0
M  V30 10189 H 980.986 0.567608 4.20184 0
M  V30 10190 C 979.445 -0.622124 3.31106 0
M  V30 10191 O 979.975 -1.66627 3.65511 0
M  V30 10192 N 978.181 -0.605009 2.84232 0
M  V30 10193 H 977.728 0.245052 2.56432 0
M  V30 10194 H 977.686 -1.47056 2.77888 0
M  V30 10195 N 981.458 -1.16348 1.06306 0
M  V30 10196 C 982.388 -2.2291 0.695234 0
M  V30 10197 C 983.369 -1.67208 -0.312343 0
M  V30 10198 O 984.554 -1.93293 -0.187442 0
M  V30 10199 C 981.684 -3.47205 0.0810149 0
M  V30 10200 C 980.638 -4.15801 1.01458 0
M  V30 10201 C 979.964 -5.3405 0.263656 0
M  V30 10202 C 981.264 -4.66766 2.34365 0
M  V30 10203 H 982.958 -2.53934 1.58613 0
M  V30 10204 H 980.504 -1.22056 0.76409 0
M  V30 10205 H 982.457 -4.2098 -0.18818 0
M  V30 10206 H 981.181 -3.15482 -0.844897 0
M  V30 10207 H 979.84 -3.43954 1.26852 0
M  V30 10208 H 979.488 -4.9858 -0.665378 0
M  V30 10209 H 979.188 -5.80885 0.88582 0
M  V30 10210 H 980.712 -6.106 0.00200994 0
M  V30 10211 H 982.126 -5.3212 2.13356 0
M  V30 10212 H 980.523 -5.24223 2.9208 0
M  V30 10213 H 981.593 -3.82969 2.97426 0
M  V30 10214 N 982.937 -0.845659 -1.3299 0
M  V30 10215 C 984.214 -0.366306 -1.92139 0
M  V30 10216 C 984.594 1.14912 -1.77083 0
M  V30 10217 O 983.942 1.96667 -1.16338 0
M  V30 10218 C 984.152 -0.820716 -3.39213 0
M  V30 10219 C 985.5 -0.832667 -4.16355 0
M  V30 10220 O 986.524 -0.764764 -3.47893 0
M  V30 10221 O 985.383 -0.926658 -5.38586 0
M  V30 10222 H 982.477 -0.105063 -0.820299 0
M  V30 10223 H 985.023 -0.931962 -1.41819 0
M  V30 10224 H 983.795 -1.86357 -3.44074 0
M  V30 10225 H 983.418 -0.232009 -3.96923 0
M  V30 10226 N 984.415 1.45619 -0.602734 0
M  V30 10227 C 985.663 2.01873 -0.095844 0
M  V30 10228 C 985.984 1.47427 1.27633 0
M  V30 10229 O 985.254 0.666652 1.84208 0
M  V30 10230 H 983.834 0.746295 -0.0324408 0
M  V30 10231 H 986.496 1.78478 -0.783037 0
M  V30 10232 H 985.592 3.12072 -0.0419507 0
M  V30 10233 N 985.893 0.34162 1.53853 0
M  V30 10234 C 986.823 -0.508431 2.27897 0
M  V30 10235 C 987.804 -1.10425 1.29384 0
M  V30 10236 O 988.989 -1.126 1.58224 0
M  V30 10237 C 986.119 -1.66048 3.05034 0
M  V30 10238 C 985.073 -1.19309 4.11035 0
M  V30 10239 C 984.399 -2.4335 4.76114 0
M  V30 10240 C 985.699 -0.294952 5.21467 0
M  V30 10241 H 987.393 0.109251 2.99201 0
M  V30 10242 H 984.939 0.0539847 1.43899 0
M  V30 10243 H 986.892 -2.26158 3.5557 0
M  V30 10244 H 985.616 -2.30503 2.31379 0
M  V30 10245 H 984.275 -0.614809 3.61408 0
M  V30 10246 H 983.923 -3.06208 3.99056 0
M  V30 10247 H 983.623 -2.1276 5.47729 0
M  V30 10248 H 985.147 -3.0419 5.29434 0
M  V30 10249 H 986.561 -0.80285 5.67651 0
M  V30 10250 H 984.958 -0.0810221 6.00045 0
M  V30 10251 H 986.028 0.669433 4.80257 0
M  V30 10252 N 987.371 -1.57444 0.0701946 0
M  V30 10253 C 988.301 -2.15659 -0.895176 0
M  V30 10254 C 989.282 -1.08321 -1.31151 0
M  V30 10255 O 990.467 -1.36349 -1.38284 0
M  V30 10256 C 987.597 -2.71693 -2.16334 0
M  V30 10257 C 986.551 -3.84183 -1.88645 0
M  V30 10258 C 985.877 -4.26814 -3.22078 0
M  V30 10259 C 987.177 -5.08493 -1.19299 0
M  V30 10260 H 988.871 -2.96576 -0.410217 0
M  V30 10261 H 986.417 -1.42662 -0.195872 0
M  V30 10262 H 988.37 -3.11064 -2.84284 0
M  V30 10263 H 987.094 -1.87994 -2.67069 0
M  V30 10264 H 985.753 -3.45314 -1.23101 0
M  V30 10265 H 985.401 -3.40039 -3.70651 0
M  V30 10266 H 985.101 -5.02642 -3.04344 0
M  V30 10267 H 986.625 -4.68799 -3.91228 0
M  V30 10268 H 988.039 -5.4519 -1.77316 0
M  V30 10269 H 986.436 -5.89588 -1.11828 0
M  V30 10270 H 987.506 -4.84595 -0.171839 0
M  V30 10271 O 988.888 0.0704711 -1.61346 0
M  V30 10272 H 989.579 0.696202 -1.80756 0
M  V30 END ATOM
M  V30 BEGIN BOND
M  V30 END BOND
M  V30 END CTAB
M  END
$$$$
