drugbank_target|O95167 NADH dehydrogenase [ubiquinone] 1 alpha subcomplex subunit 3 (DB00157)
 OpenBabel12092119373D

  0  0  0     0  0            999 V3000
M  V30 BEGIN CTAB
M  V30 COUNTS 1321 1344 0 0 0
M  V30 BEGIN ATOM
M  V30 1 H -0.908 1.98254 -0.117106 0
M  V30 2 N 0 1.576 0 0
M  V30 3 C 0.933 2.03868 1.02534 0
M  V30 4 C 1.911 0.928543 1.3348 0
M  V30 5 O 3.095 1.19667 1.45644 0
M  V30 6 C 0.222 2.43627 2.35294 0
M  V30 7 C -0.732 3.65373 2.2001 0
M  V30 8 S 0.101 5.13292 1.52614 0
M  V30 9 C 1.257 5.56322 2.86805 0
M  V30 10 H 1.49 2.90518 0.631377 0
M  V30 11 H -0.977 1.52953 0.210867 0
M  V30 12 H 0.981 2.67203 3.11629 0
M  V30 13 H -0.358 1.57376 2.7183 0
M  V30 14 H -1.165 3.90944 3.18086 0
M  V30 15 H -1.563 3.418 1.51819 0
M  V30 16 H 0.729 5.58782 3.83104 0
M  V30 17 H 1.672 6.56266 2.65933 0
M  V30 18 H 2.08 4.83886 2.90714 0
M  V30 19 N 1.4781 -0.272755 1.55222 0
M  V30 20 C 2.4411 -1.32041 1.87344 0
M  V30 21 C 3.4411 -1.42342 0.74803 0
M  V30 22 O 4.6311 -1.41488 1.0162 0
M  V30 23 C 1.7631 -2.70173 2.07893 0
M  V30 24 H 2.9561 -1.04789 2.80997 0
M  V30 25 H 0.5091 -0.51083 1.47717 0
M  V30 26 H 1.2441 -3.02605 1.16622 0
M  V30 27 H 1.0291 -2.64082 2.89833 0
M  V30 28 H 2.5191 -3.45869 2.34017 0
M  V30 29 N 2.9562 -1.48159 -0.537278 0
M  V30 30 C 3.9192 -1.61665 -1.62472 0
M  V30 31 C 4.9192 -0.490395 -1.5314 0
M  V30 32 O 6.1092 -0.755998 -1.5694 0
M  V30 33 C 3.2412 -1.57997 -3.02076 0
M  V30 34 H 4.4342 -2.58621 -1.51839 0
M  V30 35 H 1.9872 -1.36647 -0.758771 0
M  V30 36 H 2.7222 -0.624913 -3.18222 0
M  V30 37 H 2.5072 -2.39755 -3.10258 0
M  V30 38 H 3.9972 -1.70627 -3.81151 0
M  V30 39 N 4.4343 0.785586 -1.36625 0
M  V30 40 C 5.8503 1.08419 -1.17122 0
M  V30 41 C 6.0503 2.015 0.00208491 0
M  V30 42 O 5.1063 2.43551 0.666278 0
M  V30 43 C 6.4193 1.69498 -2.48377 0
M  V30 44 C 7.9673 1.81821 -2.54775 0
M  V30 45 C 8.4423 2.46315 -3.86126 0
M  V30 46 N 9.9333 2.53779 -3.87492 0
M  V30 47 C 10.6683 3.045 -4.85868 0
M  V30 48 N 10.1643 3.55499 -5.94637 0
M  V30 49 N 11.9573 3.03247 -4.73284 0
M  V30 50 H 4.1083 0.167264 -2.1174 0
M  V30 51 H 6.3713 0.13682 -0.938075 0
M  V30 52 H 6.0773 1.08571 -3.34522 0
M  V30 53 H 5.9513 2.6896 -2.64462 0
M  V30 54 H 8.3383 2.41884 -1.69045 0
M  V30 55 H 8.4193 0.811532 -2.42586 0
M  V30 56 H 8.0633 1.86895 -4.72263 0
M  V30 57 H 7.9933 3.47561 -3.95612 0
M  V30 58 H 10.4843 2.17672 -3.08913 0
M  V30 59 H 10.7973 3.92562 -6.65669 0
M  V30 60 H 9.1423 3.5364 -5.98301 0
M  V30 61 H 12.3333 2.62696 -3.87438 0
M  V30 62 H 12.5063 3.42467 -5.50109 0
M  V30 63 N 5.9124 1.20967 1.01018 0
M  V30 64 C 7.1584 1.02526 1.74975 0
M  V30 65 C 7.4914 -0.4408 1.89131 0
M  V30 66 O 6.7664 -1.32718 1.42184 0
M  V30 67 C 7.0494 1.71699 3.1653 0
M  V30 68 C 6.9024 3.25791 3.10129 0
M  V30 69 C 8.2214 1.45531 4.15342 0
M  V30 70 H 5.3404 0.373863 0.635134 0
M  V30 71 H 7.9824 1.49071 1.17805 0
M  V30 72 H 6.1324 1.32128 3.65341 0
M  V30 73 H 7.8044 3.74697 2.69072 0
M  V30 74 H 6.0474 3.56363 2.47362 0
M  V30 75 H 6.7184 3.69353 4.10222 0
M  V30 76 H 9.1944 1.79872 3.75213 0
M  V30 77 H 8.0704 1.96453 5.1254 0
M  V30 78 H 8.3314 0.384237 4.40427 0
M  V30 79 N 7.3905 -1.2043 1.01659 0
M  V30 80 C 8.6385 -1.89423 0.704522 0
M  V30 81 C 8.9595 -1.79231 -0.768197 0
M  V30 82 O 8.2295 -1.1947 -1.55254 0
M  V30 83 H 6.8095 -0.701178 0.257602 0
M  V30 84 H 9.4715 -1.4626 1.28818 0
M  V30 85 H 8.5675 -2.96052 0.987916 0
M  V30 86 N 8.8686 -0.792821 -1.36206 0
M  V30 87 C 9.8316 -0.199459 -2.2833 0
M  V30 88 C 10.8316 0.605189 -1.48977 0
M  V30 89 O 12.0216 0.425685 -1.68919 0
M  V30 90 C 9.1536 0.723523 -3.33134 0
M  V30 91 H 10.3466 -1.01181 -2.82316 0
M  V30 92 H 7.8996 -0.562485 -1.45828 0
M  V30 93 H 8.6346 1.56008 -2.84309 0
M  V30 94 H 8.4196 0.148436 -3.91819 0
M  V30 95 H 9.9096 1.13344 -4.01924 0
M  V30 96 N 10.3467 1.47872 -0.545128 0
M  V30 97 C 11.5937 2.02493 -0.0165858 0
M  V30 98 C 11.9217 1.42073 1.32836 0
M  V30 99 O 11.1767 0.561459 1.87473 0
M  V30 100 C 11.4757 3.57131 0.13867 0
M  V30 101 C 11.1417 4.36411 -1.13384 0
M  V30 102 C 9.8037 4.57792 -1.48256 0
M  V30 103 C 12.1557 4.82223 -1.97764 0
M  V30 104 C 9.4837 5.22233 -2.67376 0
M  V30 105 C 11.8357 5.47977 -3.16076 0
M  V30 106 C 10.4997 5.67593 -3.51275 0
M  V30 107 H 9.7697 0.740975 -0.00606918 0
M  V30 108 H 12.4167 1.77683 -0.714207 0
M  V30 109 H 10.7217 3.80865 0.919172 0
M  V30 110 H 12.4187 3.97031 0.562782 0
M  V30 111 H 9.0087 4.2004 -0.852297 0
M  V30 112 H 13.1927 4.65493 -1.72132 0
M  V30 113 H 8.4487 5.35616 -2.94831 0
M  V30 114 H 12.6227 5.8244 -3.81755 0
M  V30 115 H 10.2497 6.17298 -4.43675 0
M  V30 116 N 11.8248 0.280983 1.55075 0
M  V30 117 C 12.7548 -0.597469 2.25727 0
M  V30 118 C 13.7358 -1.15417 1.24952 0
M  V30 119 O 14.9208 -1.18722 1.53684 0
M  V30 120 C 12.0508 -1.7789 2.98283 0
M  V30 121 C 11.0048 -1.35347 4.06036 0
M  V30 122 C 10.3308 -2.61846 4.66198 0
M  V30 123 C 11.6308 -0.499354 5.19907 0
M  V30 124 H 13.3248 -0.00824265 2.99399 0
M  V30 125 H 10.8708 -0.0025244 1.44 0
M  V30 126 H 12.8238 -2.39937 3.46422 0
M  V30 127 H 11.5478 -2.39405 2.22155 0
M  V30 128 H 10.2068 -0.756156 3.58717 0
M  V30 129 H 9.8548 -3.21632 3.86732 0
M  V30 130 H 9.5548 -2.3409 5.38958 0
M  V30 131 H 11.0788 -3.24732 5.1709 0
M  V30 132 H 12.4928 -1.02498 5.64063 0
M  V30 133 H 10.8898 -0.316424 5.99265 0
M  V30 134 H 11.9598 0.480459 4.82514 0
M  V30 135 N 13.3029 -1.57598 0.00835791 0
M  V30 136 C 14.2499 -2.08945 -0.980346 0
M  V30 137 C 15.2199 -0.986738 -1.33614 0
M  V30 138 O 16.4049 -1.25968 -1.43306 0
M  V30 139 C 13.5449 -2.60425 -2.26435 0
M  V30 140 C 12.6579 -3.84628 -1.96685 0
M  V30 141 C 11.7929 -4.24579 -3.19228 0
M  V30 142 C 10.8319 -5.41596 -2.85202 0
M  V30 143 N 9.9689 -5.768 -4.00307 0
M  V30 144 H 14.8089 -2.93148 -0.535551 0
M  V30 145 H 12.3459 -1.44912 -0.252776 0
M  V30 146 H 14.3039 -2.88354 -3.01509 0
M  V30 147 H 12.9339 -1.79083 -2.68568 0
M  V30 148 H 11.9859 -3.63556 -1.11942 0
M  V30 149 H 13.2979 -4.69796 -1.67611 0
M  V30 150 H 12.4519 -4.53834 -4.02641 0
M  V30 151 H 11.1909 -3.38137 -3.51447 0
M  V30 152 H 10.1959 -5.12056 -2.00198 0
M  V30 153 H 11.4209 -6.29721 -2.54222 0
M  V30 154 H 9.3669 -4.93316 -4.32407 0
M  V30 155 H 9.2839 -6.5656 -3.74786 0
M  V30 156 H 10.5519 -6.10652 -4.84484 0
M  V30 157 N 14.781 0.264519 -1.55364 0
M  V30 158 C 15.729 1.34702 -1.89626 0
M  V30 159 C 16.723 1.50712 -0.773459 0
M  V30 160 O 17.929 1.52395 -0.957897 0
M  V30 161 H 14.304 0.450682 -0.601988 0
M  V30 162 H 16.275 1.0306 -2.80038 0
M  V30 163 C 15.024 2.6989 -2.19214 0
M  V30 164 H 14.347 2.58365 -3.05103 0
M  V30 165 H 15.787 3.44553 -2.47102 0
M  V30 166 C 14.246 3.21637 -1.00254 0
M  V30 167 O 14.776 4.00973 -0.241501 0
M  V30 168 N 12.982 2.7943 -0.797938 0
M  V30 169 H 12.529 2.15026 -1.4185 0
M  V30 170 H 12.487 3.144 -0.00363422 0
M  V30 171 N 16.2591 1.48442 0.529413 0
M  V30 172 C 17.2221 1.62524 1.61612 0
M  V30 173 C 18.2221 0.498509 1.52877 0
M  V30 174 O 19.4121 0.76431 1.56537 0
M  V30 175 C 16.5441 1.59597 3.01233 0
M  V30 176 H 17.7371 2.59423 1.50465 0
M  V30 177 H 15.2901 1.37047 0.751514 0
M  V30 178 H 16.0251 0.641781 3.17886 0
M  V30 179 H 15.8101 2.41397 3.08982 0
M  V30 180 H 17.3001 1.72646 3.80241 0
M  V30 181 N 17.7372 -0.778329 1.37039 0
M  V30 182 C 18.9832 -1.53817 1.33086 0
M  V30 183 C 19.3382 -1.92208 -0.0860346 0
M  V30 184 O 18.6312 -1.60713 -1.04316 0
M  V30 185 C 18.8252 -2.81845 2.19768 0
M  V30 186 C 18.6542 -2.55967 3.69744 0
M  V30 187 C 17.4242 -2.50428 4.38878 0
M  V30 188 C 19.6222 -2.2441 4.62758 0
M  V30 189 N 17.6042 -2.16564 5.74433 0
M  V30 190 C 18.9752 -2.0063 5.86641 0
M  V30 191 C 21.0302 -2.1051 4.5121 0
M  V30 192 C 19.7332 -1.64354 7.00272 0
M  V30 193 C 21.7592 -1.75634 5.64718 0
M  V30 194 C 21.1212 -1.52709 6.87648 0
M  V30 195 H 17.2202 -0.563434 0.542279 0
M  V30 196 H 19.8042 -0.908617 1.72198 0
M  V30 197 H 17.9752 -3.42649 1.82883 0
M  V30 198 H 19.7072 -3.47682 2.07122 0
M  V30 199 H 16.4622 -2.66056 3.91805 0
M  V30 200 H 16.8862 -2.02348 6.46053 0
M  V30 201 H 21.5282 -2.26919 3.56746 0
M  V30 202 H 19.2462 -1.46683 7.94676 0
M  V30 203 H 22.8322 -1.65546 5.57751 0
M  V30 204 H 21.7122 -1.2612 7.73992 0
M  V30 205 N 19.2153 -1.21501 -1.00376 0
M  V30 206 C 20.4923 -0.941745 -1.71437 0
M  V30 207 C 20.8723 0.546114 -2.03914 0
M  V30 208 O 20.2203 1.51128 -1.71384 0
M  V30 209 C 20.4303 -1.82812 -2.97289 0
M  V30 210 C 21.7783 -2.07771 -3.70292 0
M  V30 211 O 22.8023 -1.80171 -3.07273 0
M  V30 212 O 21.6613 -2.54456 -4.83647 0
M  V30 213 H 18.7553 -0.353243 -0.747762 0
M  V30 214 H 21.3013 -1.32436 -1.06108 0
M  V30 215 H 20.0733 -2.83501 -2.69709 0
M  V30 216 H 19.6963 -1.4464 -3.70358 0
M  V30 217 N 20.6934 1.19889 -1.02296 0
M  V30 218 C 21.6404 2.22901 -0.598651 0
M  V30 219 C 22.6104 1.61588 0.384521 0
M  V30 220 O 23.7954 1.88697 0.282522 0
M  V30 221 C 20.9354 3.45063 0.0504476 0
M  V30 222 C 20.0484 4.20783 -0.978053 0
M  V30 223 C 19.1834 5.30356 -0.299338 0
M  V30 224 C 18.2224 5.97826 -1.31416 0
M  V30 225 N 17.3594 6.98975 -0.661667 0
M  V30 226 H 22.1994 2.58554 -1.48169 0
M  V30 227 H 19.7364 1.27039 -0.741584 0
M  V30 228 H 21.6944 4.14831 0.443971 0
M  V30 229 H 20.3244 3.10084 0.897097 0
M  V30 230 H 19.3764 3.50018 -1.48969 0
M  V30 231 H 20.6884 4.67109 -1.74958 0
M  V30 232 H 19.8424 6.06516 0.149347 0
M  V30 233 H 18.5814 4.85084 0.504445 0
M  V30 234 H 17.5864 5.20422 -1.77317 0
M  V30 235 H 18.8114 6.45183 -2.11933 0
M  V30 236 H 16.7574 6.55886 0.122132 0
M  V30 237 H 16.6744 7.43461 -1.37117 0
M  V30 238 H 17.9424 7.7914 -0.236785 0
M  V30 239 N 22.1715 0.800033 1.35784 0
M  V30 240 C 23.0815 0.207204 2.33683 0
M  V30 241 C 24.0975 -0.64631 1.61551 0
M  V30 242 O 25.2735 -0.559604 1.93469 0
M  V30 243 C 22.3385 -0.639659 3.40748 0
M  V30 244 C 21.3995 0.233585 4.28664 0
M  V30 245 C 20.6325 -0.572954 5.30616 0
M  V30 246 O 20.8555 -1.80816 5.40982 0
M  V30 247 O 19.7895 0.0327285 6.01891 0
M  V30 248 H 23.6155 1.01692 2.86169 0
M  V30 249 H 21.2005 0.561691 1.38439 0
M  V30 250 H 23.0825 -1.12223 4.06182 0
M  V30 251 H 21.7575 -1.42708 2.90544 0
M  V30 252 H 20.6645 0.763147 3.66233 0
M  V30 253 H 21.9975 0.984784 4.82248 0
M  V30 254 N 23.6496 -1.47581 0.552962 0
M  V30 255 C 25.0606 -1.86324 0.118463 0
M  V30 256 C 25.4116 -1.46006 -1.3106 0
M  V30 257 O 24.5366 -0.861182 -1.98526 0
M  V30 258 C 25.1316 -3.3816 0.20821 0
M  V30 259 C 23.6906 -3.7601 -0.171226 0
M  V30 260 C 22.8376 -2.71634 0.557686 0
M  V30 261 H 25.7886 -1.39159 0.762928 0
M  V30 262 H 25.8096 -3.76141 -0.574278 0
M  V30 263 H 25.3216 -3.67473 1.24841 0
M  V30 264 H 23.4226 -3.52313 -1.21269 0
M  V30 265 H 23.5356 -4.78745 0.184379 0
M  V30 266 H 21.8996 -2.547 0.00125792 0
M  V30 267 H 22.6826 -3.0379 1.59896 0
M  V30 268 N 25.1277 -0.289203 -1.54924 0
M  V30 269 C 26.3737 0.323998 -2.00195 0
M  V30 270 C 26.7067 1.54441 -1.17735 0
M  V30 271 O 25.9817 1.92875 -0.250878 0
M  V30 272 C 26.2647 0.692276 -3.53383 0
M  V30 273 C 26.1177 -0.536457 -4.46589 0
M  V30 274 C 27.4367 1.52335 -4.12895 0
M  V30 275 H 24.5557 0.116289 -0.727768 0
M  V30 276 H 27.1977 -0.398954 -1.85764 0
M  V30 277 H 25.3477 1.30822 -3.65811 0
M  V30 278 H 27.0197 -1.17499 -4.46085 0
M  V30 279 H 25.2627 -1.17192 -4.1767 0
M  V30 280 H 25.9337 -0.234806 -5.515 0
M  V30 281 H 28.4097 1.00302 -4.0383 0
M  V30 282 H 27.2857 1.74982 -5.20262 0
M  V30 283 H 27.5467 2.50886 -3.64018 0
M  V30 284 N 26.6058 1.57591 -0.0167156 0
M  V30 285 C 27.5358 2.12496 0.967858 0
M  V30 286 C 28.5168 1.03807 1.34752 0
M  V30 287 O 29.7018 1.31577 1.42833 0
M  V30 288 C 26.8318 2.64194 2.25431 0
M  V30 289 C 25.7858 3.77559 2.01576 0
M  V30 290 C 25.1118 4.15636 3.36379 0
M  V30 291 C 26.4118 5.04151 1.36489 0
M  V30 292 H 28.1058 2.95013 0.510643 0
M  V30 293 H 25.6518 1.41915 0.244181 0
M  V30 294 H 27.6048 3.01236 2.94678 0
M  V30 295 H 26.3288 1.78821 2.73296 0
M  V30 296 H 24.9878 3.40937 1.34751 0
M  V30 297 H 24.6358 3.27263 3.81979 0
M  V30 298 H 24.3358 4.92022 3.21229 0
M  V30 299 H 25.8598 4.5525 4.06915 0
M  V30 300 H 27.2738 5.38857 1.95718 0
M  V30 301 H 25.6708 5.85453 1.31776 0
M  V30 302 H 26.7408 4.83733 0.336219 0
M  V30 303 N 28.0839 -0.256276 1.55502 0
M  V30 304 C 29.3299 -0.987079 1.77157 0
M  V30 305 C 29.6629 -1.85327 0.580315 0
M  V30 306 O 28.9379 -1.89874 -0.421686 0
M  V30 307 C 29.2209 -1.85553 3.08613 0
M  V30 308 C 29.0739 -1.01816 4.38125 0
M  V30 309 C 30.3929 -2.8397 3.36228 0
M  V30 310 H 27.5119 -0.357428 0.644526 0
M  V30 311 H 30.1539 -0.258239 1.88237 0
M  V30 312 H 28.3039 -2.47695 2.99298 0
M  V30 313 H 29.9759 -0.416159 4.59419 0
M  V30 314 H 28.2189 -0.322178 4.32602 0
M  V30 315 H 28.8899 -1.65939 5.26468 0
M  V30 316 H 31.3659 -2.31964 3.45445 0
M  V30 317 H 30.2419 -3.41864 4.29442 0
M  V30 318 H 30.5029 -3.59955 2.56681 0
M  V30 319 N 29.562 -1.4872 -0.521534 0
M  V30 320 C 30.808 -1.574 -1.27879 0
M  V30 321 C 31.141 -0.250817 -1.92573 0
M  V30 322 O 30.416 0.743934 -1.79711 0
M  V30 323 C 30.699 -2.71843 -2.36164 0
M  V30 324 C 30.552 -4.13893 -1.76105 0
M  V30 325 C 31.871 -2.82008 -3.37875 0
M  V30 326 H 28.99 -0.572941 -0.463581 0
M  V30 327 H 31.632 -1.80927 -0.580119 0
M  V30 328 H 29.782 -2.51914 -2.95756 0
M  V30 329 H 31.454 -4.45284 -1.20499 0
M  V30 330 H 29.697 -4.20498 -1.06601 0
M  V30 331 H 30.368 -4.89804 -2.5455 0
M  V30 332 H 32.844 -3.00086 -2.88249 0
M  V30 333 H 31.72 -3.63796 -4.11028 0
M  V30 334 H 31.981 -1.90511 -3.98946 0
M  V30 335 N 31.0401 0.771051 -1.3745 0
M  V30 336 C 32.2651 1.56529 -1.36065 0
M  V30 337 C 32.6901 1.88029 0.0515859 0
M  V30 338 O 32.0481 1.49282 1.02882 0
M  V30 339 C 32.0961 2.85187 -2.20683 0
M  V30 340 O 31.2001 3.79593 -1.61193 0
M  V30 341 H 30.5411 0.47411 -0.464883 0
M  V30 342 H 33.0711 0.954269 -1.80983 0
M  V30 343 H 33.0811 3.34283 -2.33921 0
M  V30 344 H 31.7561 2.61588 -3.23334 0
M  V30 345 H 30.3331 3.38239 -1.56999 0
M  V30 346 N 32.5182 1.22032 0.997298 0
M  V30 347 C 33.7652 1.04222 1.73621 0
M  V30 348 C 34.0932 -0.423264 1.89839 0
M  V30 349 O 33.3482 -1.3302 1.43542 0
M  V30 350 C 33.6472 1.69345 3.14733 0
M  V30 351 C 33.3132 3.19226 3.18442 0
M  V30 352 C 31.9752 3.60124 3.19161 0
M  V30 353 C 34.3272 4.15181 3.15078 0
M  V30 354 C 31.6552 4.95467 3.14212 0
M  V30 355 C 34.0072 5.50495 3.1167 0
M  V30 356 C 32.6712 5.90779 3.10703 0
M  V30 357 H 31.9412 0.381374 0.635323 0
M  V30 358 H 34.5882 1.51732 1.16831 0
M  V30 359 H 32.8932 1.14147 3.74803 0
M  V30 360 H 34.5902 1.53059 3.7064 0
M  V30 361 H 31.1802 2.86659 3.18629 0
M  V30 362 H 35.3642 3.84605 3.13676 0
M  V30 363 H 30.6202 5.25916 3.11805 0
M  V30 364 H 34.7942 6.24576 3.08022 0
M  V30 365 H 32.4212 6.9562 3.06622 0
M  V30 366 N 33.9963 -1.19345 1.0293 0
M  V30 367 C 35.2423 -1.89318 0.727083 0
M  V30 368 C 35.5753 -1.79446 -0.742483 0
M  V30 369 O 34.8503 -1.1871 -1.54072 0
M  V30 370 C 35.1333 -3.40238 1.17942 0
M  V30 371 C 34.9863 -3.58979 2.71024 0
M  V30 372 C 36.3053 -4.33479 0.760548 0
M  V30 373 H 33.4243 -0.687475 0.265606 0
M  V30 374 H 36.0663 -1.40477 1.2793 0
M  V30 375 H 34.2163 -3.81964 0.709608 0
M  V30 376 H 35.8883 -3.26421 3.25955 0
M  V30 377 H 34.1313 -3.02018 3.11396 0
M  V30 378 H 34.8023 -4.64823 2.9773 0
M  V30 379 H 37.2783 -3.99469 1.16464 0
M  V30 380 H 36.1543 -5.37664 1.10493 0
M  V30 381 H 36.4153 -4.40813 -0.337063 0
M  V30 382 N 35.4744 -0.807222 -1.35358 0
M  V30 383 C 36.7204 -0.388463 -1.99045 0
M  V30 384 C 37.0534 1.04184 -1.63888 0
M  V30 385 O 36.3284 1.72292 -0.902535 0
M  V30 386 C 36.6114 -0.572783 -3.55515 0
M  V30 387 C 36.4644 -2.04807 -4.00468 0
M  V30 388 C 37.7834 0.00114064 -4.401 0
M  V30 389 H 34.9024 -0.142619 -0.723069 0
M  V30 390 H 37.5444 -1.01687 -1.60498 0
M  V30 391 H 35.6944 -0.0378425 -3.88482 0
M  V30 392 H 37.3664 -2.64544 -3.77908 0
M  V30 393 H 35.6094 -2.54427 -3.51353 0
M  V30 394 H 36.2804 -2.12792 -5.09337 0
M  V30 395 H 38.7564 -0.455716 -4.13597 0
M  V30 396 H 37.6324 -0.157737 -5.48673 0
M  V30 397 H 37.8934 1.09488 -4.28328 0
M  V30 398 N 36.9525 1.47285 -0.560781 0
M  V30 399 C 38.2005 2.02064 -0.0379868 0
M  V30 400 C 38.5215 1.43711 1.31803 0
M  V30 401 O 37.7915 0.61362 1.86042 0
M  V30 402 H 36.3715 0.746918 -0.0110531 0
M  V30 403 H 39.0335 1.80648 -0.731598 0
M  V30 404 H 38.1295 3.12064 0.0474463 0
M  V30 405 N 38.4306 0.297415 1.54768 0
M  V30 406 C 39.6786 -0.312295 1.99673 0
M  V30 407 C 39.9996 -1.54686 1.18732 0
M  V30 408 O 39.2696 -1.93854 0.282382 0
M  V30 409 H 37.8496 -0.118381 0.73756 0
M  V30 410 H 40.5116 0.407915 1.90583 0
M  V30 411 H 39.6076 -0.586813 3.06534 0
M  V30 412 N 39.9087 -1.5758 0.0250728 0
M  V30 413 C 40.8387 -2.13007 -0.956575 0
M  V30 414 C 41.8197 -1.0452 -1.342 0
M  V30 415 O 43.0047 -1.32332 -1.42133 0
M  V30 416 C 40.1347 -2.65386 -2.24026 0
M  V30 417 C 39.0887 -3.78623 -1.99571 0
M  V30 418 C 38.4147 -4.17414 -3.3417 0
M  V30 419 C 39.7147 -5.04867 -1.33814 0
M  V30 420 H 41.4087 -2.9528 -0.494991 0
M  V30 421 H 38.9547 -1.42042 -0.236651 0
M  V30 422 H 40.9077 -3.02794 -2.93076 0
M  V30 423 H 39.6317 -1.80268 -2.72343 0
M  V30 424 H 38.2907 -3.41646 -1.32941 0
M  V30 425 H 37.9387 -3.29284 -3.80238 0
M  V30 426 H 37.6387 -4.93719 -3.18615 0
M  V30 427 H 39.1627 -4.57402 -4.04495 0
M  V30 428 H 40.5767 -5.39888 -1.92857 0
M  V30 429 H 38.9737 -5.86144 -1.28669 0
M  V30 430 H 40.0437 -4.83904 -0.310561 0
M  V30 431 N 41.3868 0.248026 -1.55636 0
M  V30 432 C 42.3498 1.29044 -1.89421 0
M  V30 433 C 43.3498 1.41134 -0.770581 0
M  V30 434 O 44.5398 1.39854 -1.03858 0
M  V30 435 C 41.6718 2.66831 -2.12165 0
M  V30 436 H 42.8648 1.00305 -2.82629 0
M  V30 437 H 40.4178 0.487265 -1.48511 0
M  V30 438 H 41.1528 3.00711 -1.21422 0
M  V30 439 H 40.9378 2.59438 -2.93997 0
M  V30 440 H 42.4278 3.42103 -2.3949 0
M  V30 441 N 42.8649 1.48995 0.513639 0
M  V30 442 C 44.1109 1.58076 1.27042 0
M  V30 443 C 44.4439 0.261026 1.92438 0
M  V30 444 O 43.7189 -0.734393 1.80103 0
M  V30 445 C 44.0019 2.73091 2.34719 0
M  V30 446 C 43.8549 4.14821 1.73907 0
M  V30 447 C 45.1739 2.83796 3.36375 0
M  V30 448 H 42.2929 0.575391 0.460536 0
M  V30 449 H 44.9349 1.81232 0.570516 0
M  V30 450 H 43.0849 2.53479 2.94416 0
M  V30 451 H 44.7569 4.45917 1.18135 0
M  V30 452 H 42.9999 4.21058 1.0437 0
M  V30 453 H 43.6709 4.91147 2.51949 0
M  V30 454 H 46.1469 3.01611 2.86653 0
M  V30 455 H 45.0229 3.65971 4.09093 0
M  V30 456 H 45.2839 1.92624 3.9793 0
M  V30 457 N 44.343 -0.763751 1.37857 0
M  V30 458 C 45.592 -1.51789 1.32827 0
M  V30 459 C 45.905 -1.95426 -0.0823719 0
M  V30 460 O 47.111 -2.70298 -0.255172 0
M  V30 461 C 45.567 -2.74133 2.33193 0
M  V30 462 C 45.175 -2.37562 3.79827 0
M  V30 463 C 46.919 -3.52054 2.37188 0
M  V30 464 C 44.826 -3.56456 4.71904 0
M  V30 465 H 43.756 -0.569896 0.493695 0
M  V30 466 H 46.407 -0.835822 1.63359 0
M  V30 467 H 44.789 -3.4427 1.9569 0
M  V30 468 H 45.963 -1.75157 4.26212 0
M  V30 469 H 44.278 -1.72798 3.78853 0
M  V30 470 H 46.875 -4.40437 3.03182 0
M  V30 471 H 47.218 -3.92486 1.38782 0
M  V30 472 H 47.751 -2.88921 2.7344 0
M  V30 473 H 44.49 -3.21099 5.71468 0
M  V30 474 H 44.01 -4.17938 4.30218 0
M  V30 475 H 45.689 -4.23168 4.89426 0
M  V30 476 N 45.8211 -1.22559 -0.990812 0
M  V30 477 C 46.7511 -1.0218 -2.09956 0
M  V30 478 C 47.7321 0.0579394 -1.70001 0
M  V30 479 O 48.9171 -0.104684 -1.93918 0
M  V30 480 C 46.0471 -0.601023 -3.4206 0
M  V30 481 C 45.0011 -1.62694 -3.95872 0
M  V30 482 C 44.3271 -1.06193 -5.24049 0
M  V30 483 C 45.6271 -3.01743 -4.2632 0
M  V30 484 H 47.3211 -1.94916 -2.27262 0
M  V30 485 H 44.8671 -0.938566 -1.09211 0
M  V30 486 H 46.8201 -0.445561 -4.19038 0
M  V30 487 H 45.5441 0.362005 -3.24588 0
M  V30 488 H 44.2031 -1.77021 -3.21028 0
M  V30 489 H 43.8511 -0.0901903 -5.02919 0
M  V30 490 H 43.5511 -1.74732 -5.61019 0
M  V30 491 H 45.0751 -0.918092 -6.03658 0
M  V30 492 H 46.4891 -2.90777 -4.94087 0
M  V30 493 H 44.8861 -3.67425 -4.74467 0
M  V30 494 H 45.9561 -3.51518 -3.34011 0
M  V30 495 N 47.2992 1.18797 -1.03562 0
M  V30 496 C 48.7102 1.70322 -0.764676 0
M  V30 497 C 49.0612 1.82708 0.714996 0
M  V30 498 O 48.1862 1.50299 1.55689 0
M  V30 499 C 48.7812 3.09356 -1.38145 0
M  V30 500 C 47.3402 3.58114 -1.15895 0
M  V30 501 C 46.4872 2.34798 -1.4753 0
M  V30 502 H 49.4382 1.03543 -1.20268 0
M  V30 503 H 49.4592 3.72378 -0.781977 0
M  V30 504 H 48.9712 3.00309 -2.45837 0
M  V30 505 H 47.0722 3.72464 -0.100544 0
M  V30 506 H 47.1852 4.4184 -1.8524 0
M  V30 507 H 45.5492 2.38464 -0.894829 0
M  V30 508 H 46.3322 2.28375 -2.56319 0
M  V30 509 N 48.7773 0.814389 1.34928 0
M  V30 510 C 50.1883 0.458364 1.80986 0
M  V30 511 C 50.5393 -1.02042 1.67577 0
M  V30 512 O 49.6643 -1.79352 1.21086 0
M  V30 513 C 50.2593 0.825212 3.28597 0
M  V30 514 C 48.8183 0.521677 3.72767 0
M  V30 515 C 47.9653 1.04668 2.56788 0
M  V30 516 H 50.9163 1.00533 1.22795 0
M  V30 517 H 50.9373 0.12571 3.80292 0
M  V30 518 H 50.4493 1.90154 3.38324 0
M  V30 519 H 48.5503 -0.545589 3.68584 0
M  V30 520 H 48.6633 1.05977 4.67232 0
M  V30 521 H 47.0273 0.468622 2.50352 0
M  V30 522 H 47.8103 2.12927 2.6929 0
M  V30 523 N 50.2554 -1.46986 0.568584 0
M  V30 524 C 51.1854 -2.32946 -0.160753 0
M  V30 525 C 52.1664 -1.44487 -0.897631 0
M  V30 526 O 53.3514 -1.73327 -0.875867 0
M  V30 527 C 50.4814 -3.26494 -1.18403 0
M  V30 528 C 49.4354 -4.24282 -0.562895 0
M  V30 529 C 48.7614 -5.07236 -1.69163 0
M  V30 530 C 50.0614 -5.19989 0.490761 0
M  V30 531 H 51.7554 -2.94175 0.556916 0
M  V30 532 H 49.3014 -1.4146 0.26927 0
M  V30 533 H 51.2544 -3.85477 -1.70251 0
M  V30 534 H 49.9784 -2.63343 -1.93179 0
M  V30 535 H 48.6374 -3.66541 -0.0656164 0
M  V30 536 H 48.2854 -4.4048 -2.42871 0
M  V30 537 H 47.9854 -5.7345 -1.28174 0
M  V30 538 H 49.5094 -5.6908 -2.21314 0
M  V30 539 H 50.9234 -5.73271 0.0579047 0
M  V30 540 H 49.3204 -5.94469 0.820165 0
M  V30 541 H 50.3904 -4.64777 1.3824 0
M  V30 542 N 51.7335 -0.305618 -1.54608 0
M  V30 543 C 52.9585 0.307562 -2.05107 0
M  V30 544 C 53.3835 1.46385 -1.18123 0
M  V30 545 O 52.7415 1.8034 -0.186324 0
M  V30 546 C 52.7895 0.73704 -3.52987 0
M  V30 547 O 51.8935 1.84134 -3.6901 0
M  V30 548 H 51.2345 0.0589143 -0.661381 0
M  V30 549 H 53.7645 -0.448807 -1.99617 0
M  V30 550 H 53.7745 1.02459 -3.94925 0
M  V30 551 H 52.4495 -0.108773 -4.15758 0
M  V30 552 H 51.0265 1.55398 -3.38978 0
M  V30 553 N 53.2116 1.57565 -0.0334293 0
M  V30 554 C 54.6226 1.79746 0.504798 0
M  V30 555 C 54.9736 0.944091 1.71992 0
M  V30 556 O 54.0986 0.155694 2.15839 0
M  V30 557 C 54.6936 3.25997 0.922567 0
M  V30 558 C 53.2526 3.49159 1.40588 0
M  V30 559 C 52.3996 2.74785 0.372633 0
M  V30 560 H 55.3506 1.56565 -0.259436 0
M  V30 561 H 55.3716 3.35945 1.78666 0
M  V30 562 H 54.8836 3.88081 0.0379825 0
M  V30 563 H 52.9846 2.92332 2.31025 0
M  V30 564 H 53.0976 4.57873 1.41028 0
M  V30 565 H 51.4616 2.40391 0.841672 0
M  V30 566 H 52.2446 3.39587 -0.503559 0
M  V30 567 N 54.6897 -0.239769 1.55765 0
M  V30 568 C 55.9197 -0.982743 1.8173 0
M  V30 569 C 56.3277 -1.7917 0.607835 0
M  V30 570 O 55.6707 -1.78525 -0.432973 0
M  V30 571 C 55.7327 -1.96332 3.01155 0
M  V30 572 C 55.3967 -1.34062 4.36894 0
M  V30 573 C 56.3937 -0.739539 5.14613 0
M  V30 574 C 54.0787 -1.35784 4.83599 0
M  V30 575 C 56.0727 -0.163989 6.37189 0
M  V30 576 C 53.7597 -0.778441 6.06122 0
M  V30 577 C 54.7577 -0.182548 6.82756 0
M  V30 578 O 54.4457 0.387887 8.02964 0
M  V30 579 H 54.1777 -0.294481 0.608487 0
M  V30 580 H 56.7317 -0.26572 2.03674 0
M  V30 581 H 54.9617 -2.71884 2.74984 0
M  V30 582 H 56.6507 -2.57032 3.14149 0
M  V30 583 H 57.4167 -0.718687 4.79646 0
M  V30 584 H 53.2957 -1.81105 4.23936 0
M  V30 585 H 56.8397 0.301753 6.96947 0
M  V30 586 H 52.7367 -0.796645 6.40565 0
M  V30 587 H 53.5047 0.28044 8.18019 0
M  V30 588 N 56.1678 -1.49265 -0.50573 0
M  V30 589 C 57.4148 -1.58513 -1.26015 0
M  V30 590 C 57.7428 -0.26972 -1.92621 0
M  V30 591 O 56.9978 0.741997 -1.81088 0
M  V30 592 C 57.2968 -2.69008 -2.35308 0
M  V30 593 C 56.9628 -4.10662 -1.86192 0
M  V30 594 C 55.6248 -4.49212 -1.72516 0
M  V30 595 C 57.9768 -4.99336 -1.49375 0
M  V30 596 C 55.3048 -5.74214 -1.20394 0
M  V30 597 C 57.6568 -6.24852 -0.987072 0
M  V30 598 C 56.3208 -6.62236 -0.836669 0
M  V30 599 H 55.5908 -0.580041 -0.461122 0
M  V30 600 H 58.2378 -1.83078 -0.561665 0
M  V30 601 H 56.5428 -2.38396 -3.10926 0
M  V30 602 H 58.2398 -2.73373 -2.93374 0
M  V30 603 H 54.8298 -3.8023 -1.97795 0
M  V30 604 H 59.0138 -4.70212 -1.5879 0
M  V30 605 H 54.2698 -6.01883 -1.07458 0
M  V30 606 H 58.4438 -6.92944 -0.692983 0
M  V30 607 H 56.0708 -7.58979 -0.430607 0
M  V30 608 N 57.6459 0.756429 -1.3826 0
M  V30 609 C 58.5929 1.87011 -1.35261 0
M  V30 610 C 59.5629 1.64695 -0.215616 0
M  V30 611 O 60.7479 1.864 -0.407399 0
M  V30 612 C 57.8879 3.24275 -1.18068 0
M  V30 613 C 57.0009 3.58442 -2.41129 0
M  V30 614 C 56.1359 4.84994 -2.16689 0
M  V30 615 C 55.1749 5.11939 -3.35537 0
M  V30 616 N 54.3119 6.29685 -3.10549 0
M  V30 617 H 59.1519 1.8891 -2.30472 0
M  V30 618 H 56.6889 0.923373 -1.14509 0
M  V30 619 H 58.6469 4.03479 -1.06116 0
M  V30 620 H 57.2769 3.21711 -0.264973 0
M  V30 621 H 56.3289 2.74103 -2.63764 0
M  V30 622 H 57.6409 3.74283 -3.29717 0
M  V30 623 H 56.7949 5.72135 -2.01857 0
M  V30 624 H 55.5339 4.71286 -1.25462 0
M  V30 625 H 54.5389 4.23268 -3.50891 0
M  V30 626 H 55.7639 5.27546 -4.27635 0
M  V30 627 H 53.7099 6.17306 -2.21967 0
M  V30 628 H 53.6269 6.46014 -3.92686 0
M  V30 629 H 54.8949 7.19722 -2.99367 0
M  V30 630 N 59.124 1.23083 0.984299 0
M  V30 631 C 60.354 1.08556 1.75781 0
M  V30 632 C 60.762 -0.366171 1.85623 0
M  V30 633 O 60.105 -1.26524 1.33182 0
M  V30 634 C 60.167 1.63208 3.20318 0
M  V30 635 C 59.831 3.11922 3.33997 0
M  V30 636 C 60.828 4.09259 3.2063 0
M  V30 637 C 58.513 3.51552 3.58771 0
M  V30 638 C 60.507 5.4421 3.31835 0
M  V30 639 C 58.194 4.86649 3.69616 0
M  V30 640 C 59.192 5.82787 3.56157 0
M  V30 641 O 58.88 7.15431 3.66626 0
M  V30 642 H 58.612 0.380713 0.5586 0
M  V30 643 H 61.166 1.63321 1.2456 0
M  V30 644 H 59.396 1.0286 3.72769 0
M  V30 645 H 61.085 1.44216 3.79416 0
M  V30 646 H 61.851 3.79984 3.01392 0
M  V30 647 H 57.73 2.77239 3.6832 0
M  V30 648 H 61.274 6.1923 3.21247 0
M  V30 649 H 57.171 5.15601 3.88363 0
M  V30 650 H 57.939 7.23127 3.83445 0
M  V30 651 N 60.6021 -1.18246 1.0419 0
M  V30 652 C 61.8271 -1.92736 0.765996 0
M  V30 653 C 62.2521 -1.75728 -0.67091 0
M  V30 654 O 61.6101 -1.06825 -1.46486 0
M  V30 655 C 61.6581 -3.42148 1.13875 0
M  V30 656 O 60.7621 -4.11548 0.264954 0
M  V30 657 H 60.1031 -0.601238 0.281797 0
M  V30 658 H 62.6331 -1.49942 1.39207 0
M  V30 659 H 62.6431 -3.92858 1.1012 0
M  V30 660 H 61.3181 -3.53848 2.18551 0
M  V30 661 H 59.8951 -3.71137 0.362226 0
M  V30 662 N 62.0802 -0.821533 -1.34494 0
M  V30 663 C 63.3262 -0.409552 -1.98622 0
M  V30 664 C 63.6592 1.0244 -1.64984 0
M  V30 665 O 62.9342 1.71325 -0.920758 0
M  V30 666 C 63.2172 -0.610458 -3.54888 0
M  V30 667 C 63.0702 -2.09043 -3.98273 0
M  V30 668 C 64.3892 -0.0455379 -4.40076 0
M  V30 669 H 61.5082 -0.15028 -0.721516 0
M  V30 670 H 64.1502 -1.03384 -1.59411 0
M  V30 671 H 62.3002 -0.079044 -3.8842 0
M  V30 672 H 63.9722 -2.68537 -3.75081 0
M  V30 673 H 62.2152 -2.58139 -3.48635 0
M  V30 674 H 62.8862 -2.18182 -5.07051 0
M  V30 675 H 65.3622 -0.499557 -4.1309 0
M  V30 676 H 64.2382 -0.215922 -5.48475 0
M  V30 677 H 64.4992 1.04939 -4.29465 0
M  V30 678 N 63.5583 1.46682 -0.576371 0
M  V30 679 C 64.4913 2.27243 0.208731 0
M  V30 680 C 65.4693 1.35238 0.902746 0
M  V30 681 O 66.6533 1.64641 0.917904 0
M  V30 682 C 63.7803 3.12802 1.29896 0
M  V30 683 C 62.8263 4.20524 0.711457 0
M  V30 684 S 63.6593 5.33548 -0.456781 0
M  V30 685 C 64.8153 6.22673 0.634798 0
M  V30 686 H 65.0483 2.93484 -0.474838 0
M  V30 687 H 62.5813 1.50069 -0.363118 0
M  V30 688 H 64.5393 3.62661 1.92321 0
M  V30 689 H 63.2003 2.45887 1.95444 0
M  V30 690 H 62.3933 4.80191 1.53076 0
M  V30 691 H 61.9953 3.73645 0.162999 0
M  V30 692 H 64.2873 6.60181 1.52209 0
M  V30 693 H 65.2303 7.0806 0.0750311 0
M  V30 694 H 65.6383 5.56684 0.936092 0
M  V30 695 N 65.0364 0.313813 1.54444 0
M  V30 696 C 66.2854 -0.292519 1.99568 0
M  V30 697 C 66.5984 -1.54011 1.20582 0
M  V30 698 O 67.8044 -2.22183 1.56035 0
M  V30 699 C 66.2604 -0.571752 3.55329 0
M  V30 700 C 65.8684 0.658229 4.43138 0
M  V30 701 C 67.6124 -1.13857 4.08946 0
M  V30 702 C 65.5194 0.351439 5.90355 0
M  V30 703 H 64.4494 -0.113079 0.745472 0
M  V30 704 H 67.1004 0.424518 1.78522 0
M  V30 705 H 65.4824 -1.34872 3.72325 0
M  V30 706 H 66.6564 1.43403 4.37918 0
M  V30 707 H 64.9714 1.14458 4.0036 0
M  V30 708 H 67.5684 -1.38257 5.16516 0
M  V30 709 H 67.9114 -2.08489 3.6033 0
M  V30 710 H 68.4444 -0.423015 3.95544 0
M  V30 711 H 65.1834 1.26667 6.43145 0
M  V30 712 H 64.7034 -0.386842 5.98551 0
M  V30 713 H 66.3824 -0.0423134 6.46986 0
M  V30 714 N 66.5145 -1.57545 0.0417849 0
M  V30 715 C 67.4625 -2.12148 -0.953723 0
M  V30 716 C 68.4565 -1.05104 -1.32852 0
M  V30 717 O 69.6625 -1.23524 -1.30927 0
M  V30 718 H 66.0375 -0.677957 -0.325389 0
M  V30 719 H 68.0085 -2.94707 -0.467991 0
M  V30 720 C 66.7575 -2.6739 -2.22257 0
M  V30 721 H 66.0805 -3.49413 -1.94295 0
M  V30 722 H 67.5205 -3.09227 -2.90094 0
M  V30 723 C 65.9795 -1.60723 -2.96091 0
M  V30 724 O 66.5095 -1.01449 -3.88679 0
M  V30 725 N 64.7155 -1.32466 -2.58652 0
M  V30 726 H 64.2625 -1.80856 -1.83437 0
M  V30 727 H 64.2205 -0.61325 -3.08361 0
M  V30 728 N 67.9926 0.231505 -1.5589 0
M  V30 729 C 68.9396 1.28682 -1.91598 0
M  V30 730 C 69.9096 1.47071 -0.771974 0
M  V30 731 O 71.0946 1.60802 -1.027 0
M  V30 732 C 68.2346 2.6342 -2.22944 0
M  V30 733 C 67.3476 2.52912 -3.50228 0
M  V30 734 C 66.4826 3.80106 -3.7107 0
M  V30 735 C 65.5216 3.64279 -4.91902 0
M  V30 736 N 64.6586 4.834 -5.09184 0
M  V30 737 H 69.4986 0.975305 -2.81588 0
M  V30 738 H 67.0356 0.470299 -1.39379 0
M  V30 739 H 68.9936 3.41869 -2.39126 0
M  V30 740 H 67.6236 2.92687 -1.36139 0
M  V30 741 H 66.6756 1.6595 -3.42294 0
M  V30 742 H 67.9876 2.37133 -4.38827 0
M  V30 743 H 67.1416 4.66999 -3.87295 0
M  V30 744 H 65.8806 3.98799 -2.80733 0
M  V30 745 H 64.8856 2.7577 -4.75637 0
M  V30 746 H 66.1106 3.47067 -5.83714 0
M  V30 747 H 64.0566 5.02425 -4.21788 0
M  V30 748 H 63.9736 4.70311 -5.91898 0
M  V30 749 H 65.2416 5.71747 -5.29835 0
M  V30 750 N 69.4707 1.49531 0.497807 0
M  V30 751 C 70.4337 1.65916 1.58128 0
M  V30 752 C 71.4337 0.530825 1.51786 0
M  V30 753 O 72.6237 0.797342 1.54881 0
M  V30 754 C 69.7557 1.65951 2.9778 0
M  V30 755 H 70.9487 2.62556 1.44929 0
M  V30 756 H 68.5017 1.38611 0.722275 0
M  V30 757 H 69.2367 0.709065 3.16453 0
M  V30 758 H 69.0217 2.47897 3.03792 0
M  V30 759 H 70.5117 1.80673 3.76493 0
M  V30 760 N 70.9488 -0.749086 1.3866 0
M  V30 761 C 72.1768 -1.53834 1.38358 0
M  V30 762 C 72.5918 -1.88783 -0.0255219 0
M  V30 763 O 71.9488 -1.53101 -0.993292 0
M  V30 764 C 71.9998 -2.83468 2.2434 0
M  V30 765 O 71.7208 -2.50008 3.5976 0
M  V30 766 C 73.2218 -3.7758 2.32267 0
M  V30 767 H 70.4418 -0.47585 0.473083 0
M  V30 768 H 72.9858 -0.926726 1.82297 0
M  V30 769 H 71.1408 -3.40995 1.83851 0
M  V30 770 H 71.5548 -3.33182 4.05081 0
M  V30 771 H 73.0288 -4.65478 2.96706 0
M  V30 772 H 73.5058 -4.18334 1.33765 0
M  V30 773 H 74.1118 -3.25976 2.73166 0
M  V30 774 N 72.4269 -1.23603 -0.977757 0
M  V30 775 C 73.8379 -1.06424 -1.53398 0
M  V30 776 C 74.1889 0.367578 -1.92726 0
M  V30 777 O 73.3139 1.25465 -1.76316 0
M  V30 778 C 73.9089 -1.92568 -2.78753 0
M  V30 779 C 72.4679 -1.79642 -3.30765 0
M  V30 780 C 71.6149 -1.88111 -2.03739 0
M  V30 781 H 74.5659 -1.37227 -0.797152 0
M  V30 782 H 74.5869 -1.45203 -3.51705 0
M  V30 783 H 74.0989 -2.96771 -2.50098 0
M  V30 784 H 72.1999 -0.782325 -3.64294 0
M  V30 785 H 72.3129 -2.63174 -4.00345 0
M  V30 786 H 70.6769 -1.31723 -2.17994 0
M  V30 787 H 71.4599 -2.93875 -1.77461 0
M  V30 788 N 73.905 1.17692 -1.04816 0
M  V30 789 C 75.135 1.91508 -0.775128 0
M  V30 790 C 75.543 1.76844 0.67253 0
M  V30 791 O 74.886 1.10057 1.47082 0
M  V30 792 C 74.948 3.43167 -1.0713 0
M  V30 793 C 74.612 3.81612 -2.51438 0
M  V30 794 C 75.609 3.84772 -3.49638 0
M  V30 795 C 73.294 4.12687 -2.86348 0
M  V30 796 C 75.288 4.18469 -4.80794 0
M  V30 797 C 72.975 4.46053 -4.17708 0
M  V30 798 C 73.973 4.48921 -5.14741 0
M  V30 799 O 73.661 4.81504 -6.43746 0
M  V30 800 H 73.393 0.614575 -0.281555 0
M  V30 801 H 75.947 1.50206 -1.40098 0
M  V30 802 H 74.177 3.84745 -0.388342 0
M  V30 803 H 75.866 3.98239 -0.784883 0
M  V30 804 H 76.632 3.60893 -3.24008 0
M  V30 805 H 72.511 4.09627 -2.11486 0
M  V30 806 H 76.055 4.20623 -5.56527 0
M  V30 807 H 71.952 4.69393 -4.43103 0
M  V30 808 H 72.72 4.99377 -6.4851 0
M  V30 809 N 75.3831 0.828654 1.34056 0
M  V30 810 C 76.3311 0.242973 2.31327 0
M  V30 811 C 77.3251 -0.61944 1.57668 0
M  V30 812 O 78.5311 -0.51014 1.7262 0
M  V30 813 H 74.9061 0.059834 0.749616 0
M  V30 814 H 76.8771 1.07809 2.78244 0
M  V30 815 C 75.6261 -0.575733 3.429 0
M  V30 816 H 74.9491 0.0785582 3.99723 0
M  V30 817 H 76.3891 -0.951547 4.13185 0
M  V30 818 C 74.8481 -1.75044 2.87856 0
M  V30 819 O 75.3781 -2.84882 2.83205 0
M  V30 820 N 73.5841 -1.56903 2.44602 0
M  V30 821 H 73.1311 -0.675547 2.48584 0
M  V30 822 H 73.0891 -2.35652 2.08124 0
M  V30 823 N 76.8612 -1.46375 0.584142 0
M  V30 824 C 78.0912 -2.06461 0.0758195 0
M  V30 825 C 78.4992 -1.43322 -1.23512 0
M  V30 826 O 77.8422 -0.533216 -1.75791 0
M  V30 827 C 77.9042 -3.59131 -0.162773 0
M  V30 828 C 77.5682 -4.4447 1.06279 0
M  V30 829 C 78.5652 -4.80918 1.97519 0
M  V30 830 C 76.2502 -4.85584 1.28504 0
M  V30 831 C 78.2442 -5.57309 3.09331 0
M  V30 832 C 75.9312 -5.61734 2.4062 0
M  V30 833 C 76.9292 -5.9751 3.30863 0
M  V30 834 O 76.6172 -6.72121 4.41032 0
M  V30 835 H 76.3492 -0.673745 0.0551725 0
M  V30 836 H 78.9032 -1.88969 0.804984 0
M  V30 837 H 77.1332 -3.74936 -0.946565 0
M  V30 838 H 78.8222 -4.0114 -0.619782 0
M  V30 839 H 79.5882 -4.49732 1.81565 0
M  V30 840 H 75.4672 -4.57187 0.591702 0
M  V30 841 H 79.0112 -5.85152 3.79793 0
M  V30 842 H 74.9082 -5.92334 2.56537 0
M  V30 843 H 75.6762 -6.90547 4.39417 0
M  V30 844 N 78.3393 -0.321999 -1.54275 0
M  V30 845 C 79.7503 0.166384 -1.85957 0
M  V30 846 C 80.1013 1.51747 -1.24367 0
M  V30 847 O 79.2263 2.09317 -0.549124 0
M  V30 848 C 79.8213 0.308681 -3.37391 0
M  V30 849 C 78.3803 0.741286 -3.69028 0
M  V30 850 C 77.5273 -0.137937 -2.76957 0
M  V30 851 H 80.4783 -0.542335 -1.49146 0
M  V30 852 H 80.4993 1.13984 -3.63026 0
M  V30 853 H 80.0113 -0.674809 -3.82188 0
M  V30 854 H 78.1123 1.73458 -3.29762 0
M  V30 855 H 78.2253 0.546118 -4.75977 0
M  V30 856 H 76.5893 0.386251 -2.51754 0
M  V30 857 H 77.3723 -1.11816 -3.2458 0
M  V30 858 N 79.8174 1.5752 -0.0501392 0
M  V30 859 C 81.0634 1.92936 0.624798 0
M  V30 860 C 81.3964 0.928685 1.70555 0
M  V30 861 O 80.6714 -0.0454779 1.94447 0
M  V30 862 C 80.9544 3.38737 1.22185 0
M  V30 863 C 80.8074 4.49552 0.149218 0
M  V30 864 C 82.1264 3.84913 2.13378 0
M  V30 865 H 79.2454 0.701604 0.225657 0
M  V30 866 H 81.8874 1.89671 -0.111693 0
M  V30 867 H 80.0374 3.4165 1.84953 0
M  V30 868 H 81.7094 4.58768 -0.482648 0
M  V30 869 H 79.9524 4.30638 -0.522841 0
M  V30 870 H 80.6234 5.48653 0.606966 0
M  V30 871 H 83.0994 3.8387 1.60572 0
M  V30 872 H 81.9754 4.87584 2.52097 0
M  V30 873 H 82.2364 3.21611 3.03346 0
M  V30 874 N 81.2955 -0.223234 1.56011 0
M  V30 875 C 82.7065 -0.790368 1.69145 0
M  V30 876 C 83.0575 -1.85055 0.651845 0
M  V30 877 O 82.1825 -2.15498 -0.197359 0
M  V30 878 C 82.7775 -1.4404 3.06656 0
M  V30 879 C 81.3365 -1.95494 3.2165 0
M  V30 880 C 80.4835 -0.814506 2.65068 0
M  V30 881 H 83.4345 0.00139011 1.587 0
M  V30 882 H 83.4555 -2.30916 3.0242 0
M  V30 883 H 82.9675 -0.668543 3.82298 0
M  V30 884 H 81.0685 -2.75487 2.50874 0
M  V30 885 H 81.1815 -2.13607 4.28846 0
M  V30 886 H 79.5455 -1.22137 2.23505 0
M  V30 887 H 80.3285 -0.0553515 3.43255 0
M  V30 888 N 82.7736 -1.49793 -0.48987 0
M  V30 889 C 84.0196 -1.60078 -1.24511 0
M  V30 890 C 84.3526 -0.291608 -1.91998 0
M  V30 891 O 83.6276 0.705647 -1.81248 0
M  V30 892 C 83.9106 -2.76791 -2.30345 0
M  V30 893 C 83.7636 -4.17535 -1.67286 0
M  V30 894 C 85.0826 -2.89111 -3.31817 0
M  V30 895 H 82.2016 -0.582645 -0.451324 0
M  V30 896 H 84.8436 -1.82117 -0.541612 0
M  V30 897 H 82.9936 -2.5813 -2.90346 0
M  V30 898 H 84.6656 -4.4774 -1.11026 0
M  V30 899 H 82.9086 -4.22665 -0.976577 0
M  V30 900 H 83.5796 -4.95094 -2.44103 0
M  V30 901 H 86.0556 -3.06133 -2.81819 0
M  V30 902 H 84.9316 -3.72433 -4.03219 0
M  V30 903 H 85.1926 -1.9893 -3.94815 0
M  V30 904 N 84.2517 0.741722 -1.39055 0
M  V30 905 C 85.6677 1.04638 -1.20512 0
M  V30 906 C 85.8677 2.01405 -0.0620218 0
M  V30 907 O 84.9237 2.45547 0.588457 0
M  V30 908 C 86.2367 1.6151 -2.53643 0
M  V30 909 C 87.7847 1.73623 -2.6043 0
M  V30 910 C 88.2597 2.33906 -3.93767 0
M  V30 911 N 89.7507 2.41323 -3.9537 0
M  V30 912 C 90.4857 2.88888 -4.95309 0
M  V30 913 N 89.9817 3.36401 -6.05645 0
M  V30 914 N 91.7747 2.88037 -4.82692 0
M  V30 915 H 83.9257 0.0998155 -2.12165 0
M  V30 916 H 86.1887 0.106907 -0.941953 0
M  V30 917 H 85.8947 0.978739 -3.37807 0
M  V30 918 H 85.7687 2.60411 -2.72885 0
M  V30 919 H 88.1557 2.36384 -1.76655 0
M  V30 920 H 88.2367 0.733945 -2.45045 0
M  V30 921 H 87.8807 1.71776 -4.7797 0
M  V30 922 H 87.8107 3.34799 -4.06469 0
M  V30 923 H 90.3017 2.07734 -3.15682 0
M  V30 924 H 90.6147 3.71186 -6.77821 0
M  V30 925 H 88.9597 3.34427 -6.09248 0
M  V30 926 H 92.1507 2.50237 -3.95599 0
M  V30 927 H 92.3237 3.24792 -5.60726 0
M  V30 928 N 85.7298 1.2412 0.971189 0
M  V30 929 C 87.0068 0.986867 1.6888 0
M  V30 930 C 87.3868 -0.491857 2.0529 0
M  V30 931 O 86.7348 -1.46531 1.75331 0
M  V30 932 C 86.9448 1.9063 2.92338 0
M  V30 933 C 88.2928 2.17515 3.64654 0
M  V30 934 O 89.3168 1.88254 3.02388 0
M  V30 935 O 88.1758 2.6719 4.7673 0
M  V30 936 H 85.2698 0.372944 0.738134 0
M  V30 937 H 87.8158 1.35203 1.02559 0
M  V30 938 H 86.5878 2.90552 2.62097 0
M  V30 939 H 86.2108 1.54408 3.66393 0
M  V30 940 N 87.2079 -1.17134 1.05439 0
M  V30 941 C 88.4849 -1.83411 0.679699 0
M  V30 942 C 88.8649 -1.9368 -0.839726 0
M  V30 943 O 88.2129 -1.47325 -1.74664 0
M  V30 944 C 88.4229 -3.20918 1.37159 0
M  V30 945 C 89.7709 -3.96796 1.51123 0
M  V30 946 O 90.7949 -3.30406 1.3308 0
M  V30 947 O 89.6539 -5.15778 1.80651 0
M  V30 948 H 86.7479 -0.79154 0.239569 0
M  V30 949 H 89.2939 -1.24411 1.15413 0
M  V30 950 H 88.0659 -3.08428 2.40807 0
M  V30 951 H 87.6889 -3.87587 0.886674 0
M  V30 952 N 88.686 -0.835752 -1.33615 0
M  V30 953 C 89.934 -0.429109 -1.97492 0
M  V30 954 C 90.255 1.01433 -1.66543 0
M  V30 955 O 89.525 1.70611 -0.962744 0
M  V30 956 H 88.105 -0.155686 -0.730596 0
M  V30 957 H 90.767 -1.06802 -1.63031 0
M  V30 958 H 89.863 -0.55861 -3.0706 0
M  V30 959 N 90.1641 1.46063 -0.591896 0
M  V30 960 C 91.1121 2.32124 0.148739 0
M  V30 961 C 92.1061 1.45035 0.875286 0
M  V30 962 O 93.3121 1.61609 0.792632 0
M  V30 963 H 89.6871 0.749024 0.066832 0
M  V30 964 H 91.6581 2.92392 -0.595783 0
M  V30 965 C 90.4071 3.28373 1.1431 0
M  V30 966 H 89.7301 3.95371 0.59346 0
M  V30 967 H 91.1701 3.91352 1.63155 0
M  V30 968 C 89.6291 2.54393 2.20875 0
M  V30 969 O 90.1591 2.31373 3.28374 0
M  V30 970 N 88.3651 2.14797 1.95731 0
M  V30 971 H 87.9121 2.33719 1.08319 0
M  V30 972 H 87.8701 1.65619 2.67241 0
M  V30 973 N 91.6422 0.330177 1.54103 0
M  V30 974 C 92.5752 -0.575477 2.20825 0
M  V30 975 C 93.5532 -1.11064 1.18758 0
M  V30 976 O 94.7372 -1.17341 1.47524 0
M  V30 977 C 91.8642 -1.79032 2.87516 0
M  V30 978 C 90.9102 -1.38581 4.03358 0
M  V30 979 S 91.7432 -0.416911 5.33875 0
M  V30 980 C 92.8992 -1.63889 6.04062 0
M  V30 981 H 93.1322 -0.00872114 2.97299 0
M  V30 982 H 90.6652 0.114254 1.53977 0
M  V30 983 H 92.6232 -2.48734 3.2656 0
M  V30 984 H 91.2842 -2.32827 2.10832 0
M  V30 985 H 90.4772 -2.29123 4.48908 0
M  V30 986 H 90.0792 -0.768419 3.66021 0
M  V30 987 H 92.3712 -2.57536 6.26643 0
M  V30 988 H 93.3142 -1.22542 6.97416 0
M  V30 989 H 93.7222 -1.82887 5.34053 0
M  V30 990 N 93.1203 -1.57491 0.0584922 0
M  V30 991 C 94.5313 -1.80526 -0.476138 0
M  V30 992 C 94.8823 -0.971334 -1.70469 0
M  V30 993 O 94.0073 -0.190012 -2.15564 0
M  V30 994 C 94.6023 -3.27424 -0.870587 0
M  V30 995 C 93.1613 -3.51351 -1.35015 0
M  V30 996 C 92.3083 -2.75343 -0.32887 0
M  V30 997 H 95.2593 -1.56133 0.284312 0
M  V30 998 H 95.2803 -3.38745 -1.73299 0
M  V30 999 H 94.7923 -3.88093 0.0237627 0
M  V30 1000 H 92.8933 -2.95971 -2.26345 0
M  V30 1001 H 93.0063 -4.60059 -1.33726 0
M  V30 1002 H 91.3703 -2.417 -0.803321 0
M  V30 1003 H 92.1533 -3.38743 0.557521 0
M  V30 1004 N 94.5984 0.214957 -1.56127 0
M  V30 1005 C 95.8754 0.963093 -1.70247 0
M  V30 1006 C 96.2554 2.02166 -0.60764 0
M  V30 1007 O 95.6034 2.25244 0.384385 0
M  V30 1008 C 95.8134 1.56756 -3.11815 0
M  V30 1009 C 97.1614 2.0573 -3.7143 0
M  V30 1010 O 98.1854 1.66637 -3.14818 0
M  V30 1011 O 97.0444 2.77603 -4.70743 0
M  V30 1012 H 94.1384 0.450321 -0.693643 0
M  V30 1013 H 96.6844 0.206219 -1.68442 0
M  V30 1014 H 95.4564 0.803533 -3.82961 0
M  V30 1015 H 95.0794 2.3898 -3.17765 0
M  V30 1016 N 96.0765 1.50051 0.48192 0
M  V30 1017 C 97.3225 1.60736 1.2366 0
M  V30 1018 C 97.6555 0.301786 1.91841 0
M  V30 1019 O 96.9305 -0.696025 1.8162 0
M  V30 1020 C 97.2135 2.78009 2.28874 0
M  V30 1021 C 97.0665 4.18416 1.65069 0
M  V30 1022 C 98.3855 2.90867 3.30279 0
M  V30 1023 H 95.5045 0.585031 0.448228 0
M  V30 1024 H 98.1465 1.82402 0.531946 0
M  V30 1025 H 96.2965 2.59667 2.88973 0
M  V30 1026 H 97.9685 4.48322 1.0865 0
M  V30 1027 H 96.2115 4.23177 0.954148 0
M  V30 1028 H 96.8825 4.96381 2.41474 0
M  V30 1029 H 99.3585 3.07623 2.80191 0
M  V30 1030 H 98.2345 3.74566 4.01238 0
M  V30 1031 H 98.4955 2.01021 3.93755 0
M  V30 1032 N 97.5546 -0.734337 1.39446 0
M  V30 1033 C 98.9656 -1.31264 1.32766 0
M  V30 1034 C 99.3166 -1.96198 -0.00767497 0
M  V30 1035 O 98.4416 -1.96346 -0.909796 0
M  V30 1036 C 99.0366 -2.38682 2.4045 0
M  V30 1037 C 97.5956 -2.92184 2.37288 0
M  V30 1038 C 96.7426 -1.6576 2.22304 0
M  V30 1039 H 99.6936 -0.531799 1.49525 0
M  V30 1040 H 99.7146 -3.19087 2.07276 0
M  V30 1041 H 99.2266 -1.91392 3.37625 0
M  V30 1042 H 97.3276 -3.43752 1.43754 0
M  V30 1043 H 97.4406 -3.45253 3.3217 0
M  V30 1044 H 95.8046 -1.9012 1.69489 0
M  V30 1045 H 96.5876 -1.20521 3.21449 0
M  V30 1046 N 99.0327 -1.24633 -0.964593 0
M  V30 1047 C 100.258 -1.11596 -1.74818 0
M  V30 1048 C 100.683 0.32723 -1.85232 0
M  V30 1049 O 100.041 1.23695 -1.32549 0
M  V30 1050 C 100.089 -1.76397 -3.1451 0
M  V30 1051 O 99.1927 -1.03685 -3.99153 0
M  V30 1052 H 98.5337 -0.390196 -0.537255 0
M  V30 1053 H 101.064 -1.65002 -1.20977 0
M  V30 1054 H 101.074 -1.8228 -3.65018 0
M  V30 1055 H 99.7487 -2.81401 -3.06246 0
M  V30 1056 H 98.3257 -1.05611 -3.57632 0
M  V30 1057 N 100.511 1.16574 -1.06058 0
M  V30 1058 C 101.461 2.18854 -0.63929 0
M  V30 1059 C 102.445 1.57505 0.328798 0
M  V30 1060 O 103.637 1.76408 0.144623 0
M  V30 1061 C 100.766 3.43291 -0.0247203 0
M  V30 1062 C 99.8518 4.11722 -1.01716 0
M  V30 1063 N 100.243 4.55841 -2.19186 0
M  V30 1064 C 98.5408 4.37872 -0.847569 0
M  V30 1065 C 99.2418 5.08751 -2.82042 0
M  V30 1066 N 98.2178 5.01489 -2.09784 0
M  V30 1067 H 102.02 2.5068 -1.53417 0
M  V30 1068 H 99.5338 1.32999 -0.931935 0
M  V30 1069 H 101.531 4.15856 0.294915 0
M  V30 1070 H 100.191 3.12954 0.865448 0
M  V30 1071 H 101.202 4.49649 -2.56975 0
M  V30 1072 H 97.8788 4.17499 -0.00918848 0
M  V30 1073 H 99.2688 5.52944 -3.81709 0
M  V30 1074 N 101.989 0.842826 1.3317 0
M  V30 1075 C 103.4 0.496651 1.79973 0
M  V30 1076 C 103.751 -0.984641 1.69703 0
M  V30 1077 O 102.876 -1.76743 1.24863 0
M  V30 1078 C 103.471 0.894727 3.26772 0
M  V30 1079 C 102.03 0.600629 3.71577 0
M  V30 1080 C 101.177 1.10091 2.5451 0
M  V30 1081 H 104.128 1.03116 1.20635 0
M  V30 1082 H 104.149 0.206347 3.7994 0
M  V30 1083 H 103.661 1.97287 3.34215 0
M  V30 1084 H 101.762 -0.467284 3.69658 0
M  V30 1085 H 101.875 1.15863 4.64879 0
M  V30 1086 H 100.239 0.52162 2.49301 0
M  V30 1087 H 101.022 2.18591 2.64713 0
M  V30 1088 N 103.467 -1.45747 0.599634 0
M  V30 1089 C 104.399 -2.28628 -0.161879 0
M  V30 1090 C 105.412 -1.39494 -0.839367 0
M  V30 1091 O 106.601 -1.63941 -0.706089 0
M  V30 1092 C 103.701 -3.15014 -1.24976 0
M  V30 1093 C 102.874 -4.32378 -0.660935 0
M  V30 1094 C 101.933 -5.00033 -1.63869 0
M  V30 1095 O 100.959 -5.57085 -1.1681 0
M  V30 1096 N 102.161 -4.98589 -2.97303 0
M  V30 1097 H 104.926 -2.94624 0.549265 0
M  V30 1098 H 102.487 -1.55847 0.438565 0
M  V30 1099 H 104.479 -3.5714 -1.9035 0
M  V30 1100 H 103.049 -2.5098 -1.86354 0
M  V30 1101 H 102.269 -3.9383 0.170688 0
M  V30 1102 H 103.557 -5.08197 -0.247619 0
M  V30 1103 H 102.955 -4.53514 -3.38145 0
M  V30 1104 H 101.512 -5.44603 -3.58121 0
M  V30 1105 N 104.945 -0.338344 -1.53925 0
M  V30 1106 C 106.222 0.314774 -1.93051 0
M  V30 1107 C 106.602 1.68669 -1.26941 0
M  V30 1108 O 105.95 2.24636 -0.418445 0
M  V30 1109 C 106.16 0.392249 -3.46789 0
M  V30 1110 C 107.508 0.645554 -4.19664 0
M  V30 1111 O 108.532 0.474575 -3.53024 0
M  V30 1112 O 107.391 0.976408 -5.37707 0
M  V30 1113 H 104.485 0.182598 -0.80659 0
M  V30 1114 H 107.031 -0.389141 -1.65178 0
M  V30 1115 H 105.803 -0.570702 -3.87116 0
M  V30 1116 H 105.426 1.14316 -3.80812 0
M  V30 1117 N 106.423 1.57458 -0.0668435 0
M  V30 1118 C 107.834 1.80776 0.466558 0
M  V30 1119 C 108.185 0.980361 1.69951 0
M  V30 1120 O 107.31 0.201441 2.1546 0
M  V30 1121 C 107.905 3.27881 0.85321 0
M  V30 1122 C 106.464 3.52062 1.3315 0
M  V30 1123 C 105.611 2.75513 0.314264 0
M  V30 1124 H 108.562 1.5598 -0.292588 0
M  V30 1125 H 108.583 3.39659 1.715 0
M  V30 1126 H 108.095 3.88075 -0.0443439 0
M  V30 1127 H 106.196 2.97167 2.24772 0
M  V30 1128 H 106.309 4.60762 1.31285 0
M  V30 1129 H 104.673 2.42123 0.790492 0
M  V30 1130 H 105.456 3.38442 -0.575477 0
M  V30 1131 N 107.901 -0.206675 1.56239 0
M  V30 1132 C 108.833 -1.27997 1.9013 0
M  V30 1133 C 109.846 -1.42299 0.790883 0
M  V30 1134 O 111.035 -1.42931 1.06925 0
M  V30 1135 C 108.135 -2.65368 2.10792 0
M  V30 1136 C 107.308 -2.72824 3.41886 0
M  V30 1137 C 106.367 -3.9131 3.51799 0
M  V30 1138 O 105.393 -3.78953 4.24716 0
M  V30 1139 N 106.595 -5.06265 2.84035 0
M  V30 1140 H 109.36 -0.992444 2.82791 0
M  V30 1141 H 106.921 -0.396652 1.56966 0
M  V30 1142 H 108.913 -3.43039 2.14724 0
M  V30 1143 H 107.483 -2.86657 1.24685 0
M  V30 1144 H 106.703 -1.81515 3.49923 0
M  V30 1145 H 107.991 -2.74786 4.28217 0
M  V30 1146 H 107.389 -5.19203 2.246 0
M  V30 1147 H 105.946 -5.81925 2.93609 0
M  V30 1148 N 109.379 -1.50304 -0.473955 0
M  V30 1149 C 110.627 -1.60832 -1.22382 0
M  V30 1150 C 110.948 -0.30939 -1.9253 0
M  V30 1151 O 110.218 0.67296 -1.83978 0
M  V30 1152 H 108.798 -0.592652 -0.454723 0
M  V30 1153 H 111.46 -1.87068 -0.546968 0
M  V30 1154 H 110.556 -2.41803 -1.97327 0
M  V30 1155 N 110.857 0.726932 -1.39834 0
M  V30 1156 C 112.268 1.30558 -1.3346 0
M  V30 1157 C 112.619 1.962 -0.00273003 0
M  V30 1158 O 111.744 1.96826 0.899371 0
M  V30 1159 C 112.339 2.37404 -2.41713 0
M  V30 1160 C 110.898 2.90921 -2.38835 0
M  V30 1161 C 110.045 1.64578 -2.2318 0
M  V30 1162 H 112.996 0.523862 -1.49804 0
M  V30 1163 H 113.017 3.17984 -2.08966 0
M  V30 1164 H 112.529 1.89599 -3.38635 0
M  V30 1165 H 110.63 3.42985 -1.45575 0
M  V30 1166 H 110.743 3.43487 -3.33997 0
M  V30 1167 H 109.107 1.89219 -1.70494 0
M  V30 1168 H 109.89 1.18814 -3.22084 0
M  V30 1169 N 112.336 1.25143 0.95797 0
M  V30 1170 C 113.561 1.12521 1.74223 0
M  V30 1171 C 113.986 -0.317402 1.85403 0
M  V30 1172 O 113.344 -1.2299 1.33204 0
M  V30 1173 C 113.392 1.78062 3.1357 0
M  V30 1174 O 112.496 1.058 3.98598 0
M  V30 1175 H 111.837 0.39304 0.535178 0
M  V30 1176 H 114.367 1.65641 1.201 0
M  V30 1177 H 114.377 1.84213 3.64046 0
M  V30 1178 H 113.052 2.83021 3.04749 0
M  V30 1179 H 111.629 1.07506 3.57067 0
M  V30 1180 N 113.814 -1.1601 1.06675 0
M  V30 1181 C 114.744 -2.22688 0.702307 0
M  V30 1182 C 115.725 -1.67306 -0.307032 0
M  V30 1183 O 116.91 -1.93352 -0.181305 0
M  V30 1184 C 114.04 -3.47178 0.092038 0
M  V30 1185 C 112.994 -4.15477 1.02777 0
M  V30 1186 C 112.32 -5.33963 0.28061 0
M  V30 1187 C 113.62 -4.66019 2.35846 0
M  V30 1188 H 115.314 -2.53429 1.59419 0
M  V30 1189 H 112.86 -1.21813 0.767961 0
M  V30 1190 H 114.813 -4.21037 -0.174814 0
M  V30 1191 H 113.537 -3.15749 -0.834877 0
M  V30 1192 H 112.196 -3.43549 1.27944 0
M  V30 1193 H 111.844 -4.98788 -0.649545 0
M  V30 1194 H 111.544 -5.806 0.904258 0
M  V30 1195 H 113.068 -6.10596 0.021396 0
M  V30 1196 H 114.482 -5.3144 2.15045 0
M  V30 1197 H 112.879 -5.23293 2.93743 0
M  V30 1198 H 113.949 -3.82023 2.98641 0
M  V30 1199 N 115.292 -0.849877 -1.32721 0
M  V30 1200 C 116.202 -0.293791 -2.32753 0
M  V30 1201 C 117.218 0.585906 -1.63839 0
M  V30 1202 O 118.394 0.487413 -1.95413 0
M  V30 1203 C 115.459 0.512752 -3.42887 0
M  V30 1204 C 114.52 -0.39252 -4.27502 0
M  V30 1205 C 113.753 0.375625 -5.32377 0
M  V30 1206 O 113.976 1.60613 -5.4732 0
M  V30 1207 O 112.91 -0.256094 -6.01355 0
M  V30 1208 H 116.736 -1.12242 -2.82197 0
M  V30 1209 H 114.321 -0.612685 -1.36259 0
M  V30 1210 H 116.203 0.970704 -4.10067 0
M  V30 1211 H 114.878 1.31826 -2.95641 0
M  V30 1212 H 113.785 -0.898547 -3.63149 0
M  V30 1213 H 115.118 -1.16309 -4.7826 0
M  V30 1214 N 116.77 1.45427 -0.607355 0
M  V30 1215 C 118.016 2.03097 -0.111035 0
M  V30 1216 C 118.371 1.46735 1.24445 0
M  V30 1217 O 117.664 0.632478 1.8086 0
M  V30 1218 C 117.858 3.57398 -0.0129263 0
M  V30 1219 C 117.687 4.28726 -1.35735 0
M  V30 1220 C 116.457 4.66659 -1.93798 0
M  V30 1221 C 118.655 4.60699 -2.28607 0
M  V30 1222 N 116.637 5.22845 -3.21723 0
M  V30 1223 C 118.008 5.17716 -3.41131 0
M  V30 1224 C 120.063 4.42638 -2.27982 0
M  V30 1225 C 118.766 5.58576 -4.53194 0
M  V30 1226 C 120.792 4.84531 -3.39093 0
M  V30 1227 C 120.154 5.4164 -4.50339 0
M  V30 1228 H 116.253 0.777476 -0.083994 0
M  V30 1229 H 118.837 1.77249 -0.805655 0
M  V30 1230 H 117.008 3.82907 0.650914 0
M  V30 1231 H 118.74 4.01722 0.490033 0
M  V30 1232 H 115.495 4.50207 -1.47007 0
M  V30 1233 H 115.919 5.55438 -3.87063 0
M  V30 1234 H 120.561 3.97798 -1.43235 0
M  V30 1235 H 118.279 6.02382 -5.38667 0
M  V30 1236 H 121.865 4.72289 -3.39757 0
M  V30 1237 H 120.745 5.73461 -5.34895 0
M  V30 1238 N 118.248 0.346503 1.53744 0
M  V30 1239 C 119.178 -0.501193 2.28058 0
M  V30 1240 C 120.159 -1.10014 1.29734 0
M  V30 1241 O 121.344 -1.12097 1.58581 0
M  V30 1242 C 118.474 -1.65078 3.05559 0
M  V30 1243 C 117.428 -1.18003 4.11411 0
M  V30 1244 C 116.754 -2.41837 4.76884 0
M  V30 1245 C 118.054 -0.278394 5.21558 0
M  V30 1246 H 119.748 0.11875 2.99164 0
M  V30 1247 H 117.294 0.0585531 1.43881 0
M  V30 1248 H 119.247 -2.25028 3.56287 0
M  V30 1249 H 117.971 -2.29767 2.32109 0
M  V30 1250 H 116.63 -0.603331 3.61601 0
M  V30 1251 H 116.278 -3.0494 4.00026 0
M  V30 1252 H 115.978 -2.1102 5.48402 0
M  V30 1253 H 117.502 -3.02508 5.30397 0
M  V30 1254 H 118.916 -0.784823 5.67903 0
M  V30 1255 H 117.313 -0.0619707 6.00068 0
M  V30 1256 H 118.383 0.684677 4.80042 0
M  V30 1257 N 119.726 -1.57421 0.075193 0
M  V30 1258 C 120.673 -2.12915 -0.890843 0
M  V30 1259 C 121.643 -1.04252 -1.29309 0
M  V30 1260 O 122.828 -1.31933 -1.37834 0
M  V30 1261 C 119.968 -2.69795 -2.15186 0
M  V30 1262 C 119.081 -3.92624 -1.80194 0
M  V30 1263 C 118.216 -4.37736 -3.00933 0
M  V30 1264 C 117.255 -5.53205 -2.61974 0
M  V30 1265 N 116.392 -5.9326 -3.75483 0
M  V30 1266 H 121.232 -2.95156 -0.410735 0
M  V30 1267 H 118.769 -1.45854 -0.191086 0
M  V30 1268 H 120.727 -3.00883 -2.89008 0
M  V30 1269 H 119.357 -1.90313 -2.60731 0
M  V30 1270 H 118.409 -3.67977 -0.964218 0
M  V30 1271 H 119.721 -4.76482 -1.47534 0
M  V30 1272 H 118.875 -4.70503 -3.8303 0
M  V30 1273 H 117.614 -3.52739 -3.36789 0
M  V30 1274 H 116.619 -5.20086 -1.783 0
M  V30 1275 H 117.844 -6.39936 -2.27284 0
M  V30 1276 H 115.79 -5.11212 -4.11094 0
M  V30 1277 H 115.707 -6.71865 -3.46602 0
M  V30 1278 H 116.975 -6.30651 -4.58148 0
M  V30 1279 N 121.204 0.198386 -1.56346 0
M  V30 1280 C 122.151 1.24589 -1.94284 0
M  V30 1281 C 123.121 1.454 -0.802997 0
M  V30 1282 O 124.306 1.58588 -1.06087 0
M  V30 1283 C 121.446 2.58631 -2.28482 0
M  V30 1284 C 120.559 2.45426 -3.55514 0
M  V30 1285 C 119.694 3.7215 -3.79049 0
M  V30 1286 C 118.733 3.53763 -4.99518 0
M  V30 1287 N 117.87 4.72491 -5.19323 0
M  V30 1288 H 122.71 0.915356 -2.83593 0
M  V30 1289 H 120.247 0.440629 -1.40346 0
M  V30 1290 H 122.205 3.3672 -2.46324 0
M  V30 1291 H 120.835 2.89734 -1.42317 0
M  V30 1292 H 119.887 1.58652 -3.45737 0
M  V30 1293 H 121.199 2.27772 -4.43758 0
M  V30 1294 H 120.353 4.58679 -3.97113 0
M  V30 1295 H 119.092 3.92754 -2.89129 0
M  V30 1296 H 118.097 2.65619 -4.8138 0
M  V30 1297 H 119.322 3.34607 -5.90944 0
M  V30 1298 H 117.268 4.93365 -4.3235 0
M  V30 1299 H 117.185 4.5765 -6.01741 0
M  V30 1300 H 118.453 5.6038 -5.41843 0
M  V30 1301 N 122.682 1.50554 0.465978 0
M  V30 1302 C 123.612 1.72722 1.57128 0
M  V30 1303 C 124.593 0.576294 1.6004 0
M  V30 1304 O 125.778 0.81598 1.76225 0
M  V30 1305 C 122.908 1.82605 2.95419 0
M  V30 1306 C 121.862 2.97835 3.07373 0
M  V30 1307 C 121.188 2.92867 4.47363 0
M  V30 1308 C 122.488 4.38265 2.84114 0
M  V30 1309 H 124.182 2.65267 1.38829 0
M  V30 1310 H 121.728 1.2765 0.666441 0
M  V30 1311 H 123.681 1.96698 3.72677 0
M  V30 1312 H 122.405 0.866858 3.14886 0
M  V30 1313 H 121.064 2.83401 2.3255 0
M  V30 1314 H 120.712 1.94783 4.63755 0
M  V30 1315 H 120.412 3.70227 4.56296 0
M  V30 1316 H 121.936 3.09015 5.26633 0
M  V30 1317 H 123.35 4.53198 3.51118 0
M  V30 1318 H 121.747 5.17115 3.04487 0
M  V30 1319 H 122.817 4.50281 1.7993 0
M  V30 1320 O 124.199 -0.611556 1.49473 0
M  V30 1321 H 124.89 -1.26607 1.46596 0
M  V30 END ATOM
M  V30 BEGIN BOND
M  V30 END BOND
M  V30 END CTAB
M  END
$$$$
