drugbank_target|O95139 NADH dehydrogenase [ubiquinone] 1 beta subcomplex subunit 6 (DB00157)
 OpenBabel12092119303D

  0  0  0     0  0            999 V3000
M  V30 BEGIN CTAB
M  V30 COUNTS 2207 2245 0 0 0
M  V30 BEGIN ATOM
M  V30 1 H -0.908 1.98254 -0.117106 0
M  V30 2 N 0 1.576 0 0
M  V30 3 C 0.933 2.03868 1.02534 0
M  V30 4 C 1.911 0.928543 1.3348 0
M  V30 5 O 3.095 1.19667 1.45644 0
M  V30 6 C 0.222 2.43627 2.35294 0
M  V30 7 C -0.732 3.65373 2.2001 0
M  V30 8 S 0.101 5.13292 1.52614 0
M  V30 9 C 1.257 5.56322 2.86805 0
M  V30 10 H 1.49 2.90518 0.631377 0
M  V30 11 H -0.977 1.52953 0.210867 0
M  V30 12 H 0.981 2.67203 3.11629 0
M  V30 13 H -0.358 1.57376 2.7183 0
M  V30 14 H -1.165 3.90944 3.18086 0
M  V30 15 H -1.563 3.418 1.51819 0
M  V30 16 H 0.729 5.58782 3.83104 0
M  V30 17 H 1.672 6.56266 2.65933 0
M  V30 18 H 2.08 4.83886 2.90714 0
M  V30 19 N 1.4781 -0.272755 1.55222 0
M  V30 20 C 2.7061 -1.02255 1.79865 0
M  V30 21 C 3.1211 -1.79924 0.572088 0
M  V30 22 O 2.4781 -1.76638 -0.458842 0
M  V30 23 C 2.5291 -1.98094 3.02392 0
M  V30 24 O 2.2501 -1.23572 4.20311 0
M  V30 25 C 3.7511 -2.84884 3.39641 0
M  V30 26 H 0.9711 -0.302057 0.599168 0
M  V30 27 H 3.5151 -0.303465 2.02236 0
M  V30 28 H 1.6701 -2.65465 2.82147 0
M  V30 29 H 2.0841 -1.88172 4.89583 0
M  V30 30 H 3.5581 -3.47927 4.28545 0
M  V30 31 H 4.0351 -3.54665 2.59055 0
M  V30 32 H 4.6411 -2.23003 3.62146 0
M  V30 33 N 2.9562 -1.48159 -0.537278 0
M  V30 34 C 4.2042 -1.55497 -1.29094 0
M  V30 35 C 4.5252 -0.227454 -1.93669 0
M  V30 36 O 3.7952 0.750386 -1.80959 0
M  V30 37 H 2.3752 -0.572832 -0.47945 0
M  V30 38 H 5.0372 -1.84579 -0.625818 0
M  V30 39 H 4.1332 -2.33216 -2.07405 0
M  V30 40 N 4.4343 0.785586 -1.36625 0
M  V30 41 C 5.6643 1.5722 -1.34036 0
M  V30 42 C 6.0723 1.89033 0.0795062 0
M  V30 43 O 5.4153 1.50881 1.04789 0
M  V30 44 C 5.4773 2.91759 -2.10041 0
M  V30 45 C 5.1413 2.82654 -3.59104 0
M  V30 46 C 6.1383 2.54634 -4.53274 0
M  V30 47 C 3.8233 3.01111 -4.02042 0
M  V30 48 C 5.8173 2.45177 -5.88359 0
M  V30 49 C 3.5043 2.91276 -5.37216 0
M  V30 50 C 4.5023 2.63348 -6.30188 0
M  V30 51 O 4.1903 2.53514 -7.6288 0
M  V30 52 H 3.9223 0.494177 -0.461265 0
M  V30 53 H 6.4763 0.982632 -1.8037 0
M  V30 54 H 4.7063 3.52781 -1.58375 0
M  V30 55 H 6.3953 3.53059 -2.00261 0
M  V30 56 H 7.1613 2.40073 -4.21414 0
M  V30 57 H 3.0403 3.21854 -3.30047 0
M  V30 58 H 6.5843 2.23299 -6.60896 0
M  V30 59 H 2.4813 3.054 -5.68684 0
M  V30 60 H 3.2493 2.68967 -7.73045 0
M  V30 61 N 5.9124 1.20967 1.01018 0
M  V30 62 C 7.1404 1.04956 1.78303 0
M  V30 63 C 7.5554 -0.400915 1.84494 0
M  V30 64 O 6.9124 -1.27826 1.30257 0
M  V30 65 C 6.9634 1.63403 3.22462 0
M  V30 66 O 6.6844 3.02775 3.16637 0
M  V30 67 C 8.1854 1.52432 4.16268 0
M  V30 68 H 5.4054 0.368858 0.560522 0
M  V30 69 H 7.9494 1.60193 1.27116 0
M  V30 70 H 6.1044 1.1227 3.70775 0
M  V30 71 H 6.5184 3.30626 4.07169 0
M  V30 72 H 7.9924 1.98078 5.15237 0
M  V30 73 H 8.4694 0.477875 4.36592 0
M  V30 74 H 9.0754 2.02787 3.73841 0
M  V30 75 N 7.3905 -1.2043 1.01659 0
M  V30 76 C 8.8015 -1.71517 0.737482 0
M  V30 77 C 9.1525 -1.81547 -0.743973 0
M  V30 78 O 8.2775 -1.47803 -1.58061 0
M  V30 79 C 8.8725 -3.11515 1.33206 0
M  V30 80 C 7.4315 -3.59912 1.10183 0
M  V30 81 C 6.5785 -2.37116 1.43776 0
M  V30 82 H 9.5295 -1.05444 1.18606 0
M  V30 83 H 9.5505 -3.73575 0.722636 0
M  V30 84 H 9.0625 -3.04182 2.41028 0
M  V30 85 H 7.1635 -3.72577 0.0412756 0
M  V30 86 H 7.2765 -4.44731 1.78188 0
M  V30 87 H 5.6405 -2.39857 0.856778 0
M  V30 88 H 6.4235 -2.32424 2.52654 0
M  V30 89 N 8.8686 -0.792821 -1.36206 0
M  V30 90 C 10.1456 -0.290627 -1.93429 0
M  V30 91 C 10.5256 1.21773 -1.72437 0
M  V30 92 O 9.8736 2.0108 -1.08531 0
M  V30 93 C 10.0836 -0.686973 -3.42172 0
M  V30 94 C 11.4316 -0.668643 -4.19302 0
M  V30 95 O 12.4556 -0.627658 -3.50626 0
M  V30 96 O 11.3146 -0.714597 -5.41808 0
M  V30 97 H 8.4086 -0.0727927 -0.82379 0
M  V30 98 H 10.9546 -0.875593 -1.45367 0
M  V30 99 H 9.7266 -1.72711 -3.51122 0
M  V30 100 H 9.3496 -0.0760733 -3.97527 0
M  V30 101 N 10.3467 1.47872 -0.545128 0
M  V30 102 C 11.2567 2.33633 0.212746 0
M  V30 103 C 12.2727 1.4744 0.923983 0
M  V30 104 O 13.4487 1.80393 0.895572 0
M  V30 105 C 10.5137 3.23884 1.23693 0
M  V30 106 C 9.5747 4.25961 0.534417 0
M  V30 107 C 8.8077 5.11899 1.5098 0
M  V30 108 O 9.0307 5.00077 2.7437 0
M  V30 109 O 7.9647 5.92831 1.0409 0
M  V30 110 H 11.7907 2.99714 -0.490416 0
M  V30 111 H 9.3757 1.46235 -0.305871 0
M  V30 112 H 11.2577 3.79666 1.82843 0
M  V30 113 H 9.9327 2.60446 1.92222 0
M  V30 114 H 8.8397 3.73972 -0.0979679 0
M  V30 115 H 10.1727 4.92079 -0.109213 0
M  V30 116 N 11.8248 0.280983 1.55075 0
M  V30 117 C 12.7718 -0.603937 2.22758 0
M  V30 118 C 13.7418 -1.1452 1.20309 0
M  V30 119 O 14.9268 -1.19343 1.48869 0
M  V30 120 C 12.0668 -1.77947 2.95684 0
M  V30 121 C 11.1798 -1.2715 4.12864 0
M  V30 122 C 10.3148 -2.4093 4.7342 0
M  V30 123 C 9.3538 -1.87165 5.82783 0
M  V30 124 N 8.4908 -2.94441 6.37377 0
M  V30 125 H 13.3308 -0.020124 2.97993 0
M  V30 126 H 10.8678 0.00183425 1.471 0
M  V30 127 H 12.8258 -2.47055 3.36184 0
M  V30 128 H 11.4558 -2.33522 2.22861 0
M  V30 129 H 10.5078 -0.473331 3.77444 0
M  V30 130 H 11.8198 -0.837751 4.91715 0
M  V30 131 H 10.9738 -3.18021 5.1667 0
M  V30 132 H 9.7128 -2.87623 3.93859 0
M  V30 133 H 8.7178 -1.08556 5.38976 0
M  V30 134 H 9.9428 -1.41401 6.64216 0
M  V30 135 H 7.8888 -3.40505 5.60707 0
M  V30 136 H 7.8058 -2.55501 7.11516 0
M  V30 137 H 9.0738 -3.71489 6.85285 0
M  V30 138 N 13.3029 -1.57598 0.00835791 0
M  V30 139 C 14.2329 -2.1198 -0.979113 0
M  V30 140 C 15.2139 -1.03091 -1.35301 0
M  V30 141 O 16.3989 -1.30818 -1.43528 0
M  V30 142 C 13.5289 -2.62995 -2.26828 0
M  V30 143 C 12.4829 -3.76485 -2.03576 0
M  V30 144 C 11.8089 -4.13846 -3.38579 0
M  V30 145 C 13.1089 -5.0342 -1.39161 0
M  V30 146 H 14.8029 -2.94738 -0.526281 0
M  V30 147 H 12.3489 -1.41783 -0.251704 0
M  V30 148 H 14.3019 -2.99669 -2.96271 0
M  V30 149 H 13.0259 -1.7737 -2.7424 0
M  V30 150 H 11.6849 -3.40217 -1.36557 0
M  V30 151 H 11.3329 -3.25232 -3.83709 0
M  V30 152 H 11.0329 -4.90312 -3.23834 0
M  V30 153 H 12.5569 -4.53086 -4.09323 0
M  V30 154 H 13.9709 -5.37812 -1.98573 0
M  V30 155 H 12.3679 -5.84746 -1.34878 0
M  V30 156 H 13.4379 -4.83548 -0.361868 0
M  V30 157 N 14.781 0.264519 -1.55364 0
M  V30 158 C 16.197 0.61215 -1.47394 0
M  V30 159 C 16.397 1.89134 -0.695018 0
M  V30 160 O 15.453 2.51563 -0.217275 0
M  V30 161 C 16.766 0.731235 -2.91674 0
M  V30 162 C 18.314 0.82473 -3.01939 0
M  V30 163 C 18.789 0.975522 -4.4749 0
M  V30 164 N 20.28 1.04083 -4.51354 0
M  V30 165 C 21.015 1.17646 -5.61201 0
M  V30 166 N 20.511 1.27874 -6.80896 0
M  V30 167 N 22.304 1.20823 -5.48961 0
M  V30 168 H 14.455 -0.575456 -2.04456 0
M  V30 169 H 16.718 -0.196099 -0.927496 0
M  V30 170 H 16.424 -0.138392 -3.51428 0
M  V30 171 H 16.298 1.60883 -3.41169 0
M  V30 172 H 18.685 1.68482 -2.42276 0
M  V30 173 H 18.766 -0.0776479 -2.55682 0
M  V30 174 H 18.41 0.120058 -5.07758 0
M  V30 175 H 18.34 1.89268 -4.91412 0
M  V30 176 H 20.831 0.973846 -3.65136 0
M  V30 177 H 21.144 1.38081 -7.60364 0
M  V30 178 H 19.489 1.24863 -6.83692 0
M  V30 179 H 22.68 1.12469 -4.54388 0
M  V30 180 H 22.853 1.31049 -6.3461 0
M  V30 181 N 16.2591 1.48442 0.529413 0
M  V30 182 C 17.1891 1.65902 1.64313 0
M  V30 183 C 18.1701 0.507897 1.6234 0
M  V30 184 O 19.3551 0.740503 1.79528 0
M  V30 185 C 16.4851 1.69911 3.02898 0
M  V30 186 C 15.4391 2.8453 3.19729 0
M  V30 187 C 14.7651 2.73629 4.59381 0
M  V30 188 C 16.0651 4.25821 3.02447 0
M  V30 189 H 17.7591 2.5914 1.49955 0
M  V30 190 H 15.3051 1.24709 0.719982 0
M  V30 191 H 17.2581 1.80715 3.80684 0
M  V30 192 H 15.9821 0.732524 3.18279 0
M  V30 193 H 14.6411 2.73283 2.44361 0
M  V30 194 H 14.2891 1.74938 4.71599 0
M  V30 195 H 13.9891 3.50541 4.71588 0
M  V30 196 H 15.5131 2.86401 5.39265 0
M  V30 197 H 16.9271 4.37898 3.70024 0
M  V30 198 H 15.3241 5.03735 3.26146 0
M  V30 199 H 16.3941 4.42244 1.98867 0
M  V30 200 N 17.7372 -0.778329 1.37039 0
M  V30 201 C 18.6692 -1.90034 1.2814 0
M  V30 202 C 19.6822 -1.61585 0.198558 0
M  V30 203 O 20.8712 -1.72625 0.454175 0
M  V30 204 C 17.9712 -3.25108 0.956968 0
M  V30 205 C 17.1442 -3.81253 2.14394 0
M  V30 206 C 16.2032 -4.94789 1.79082 0
M  V30 207 O 15.2292 -5.10721 2.51301 0
M  V30 208 N 16.4312 -5.75878 0.731043 0
M  V30 209 H 19.1962 -1.98186 2.24816 0
M  V30 210 H 16.7572 -0.957129 1.30578 0
M  V30 211 H 18.7492 -3.9857 0.701701 0
M  V30 212 H 17.3192 -3.125 0.0789812 0
M  V30 213 H 16.5392 -2.99647 2.56135 0
M  V30 214 H 17.8272 -4.15495 2.93668 0
M  V30 215 H 17.2252 -5.65547 0.131618 0
M  V30 216 H 15.7822 -6.49596 0.535622 0
M  V30 217 N 19.2153 -1.21501 -1.00376 0
M  V30 218 C 20.1473 -0.933174 -2.09343 0
M  V30 219 C 21.1603 0.0840896 -1.62583 0
M  V30 220 O 22.3493 -0.148563 -1.77881 0
M  V30 221 C 19.4493 -0.379869 -3.36764 0
M  V30 222 C 18.6223 -1.45176 -4.12605 0
M  V30 223 C 17.6813 -0.907476 -5.18316 0
M  V30 224 O 16.7073 -1.5912 -5.46507 0
M  V30 225 N 17.9093 0.276649 -5.7984 0
M  V30 226 H 20.6743 -1.87124 -2.34104 0
M  V30 227 H 18.2353 -1.12043 -1.16867 0
M  V30 228 H 20.2273 -0.00131488 -4.047 0
M  V30 229 H 18.7973 0.463048 -3.09151 0
M  V30 230 H 18.0173 -2.00411 -3.39454 0
M  V30 231 H 19.3053 -2.17328 -4.6005 0
M  V30 232 H 18.7033 0.849147 -5.59291 0
M  V30 233 H 17.2603 0.596702 -6.49063 0
M  V30 234 N 20.6934 1.19889 -1.02296 0
M  V30 235 C 21.6234 2.25141 -0.619174 0
M  V30 236 C 22.6044 1.66051 0.368915 0
M  V30 237 O 23.7894 1.92546 0.252941 0
M  V30 238 C 20.9194 3.4728 0.0368783 0
M  V30 239 C 19.8734 4.19005 -0.872865 0
M  V30 240 C 19.1994 5.34637 -0.0822402 0
M  V30 241 C 20.4994 4.74452 -2.18387 0
M  V30 242 H 22.1934 2.59171 -1.49903 0
M  V30 243 H 19.7394 1.24579 -0.722222 0
M  V30 244 H 21.6924 4.20098 0.330958 0
M  V30 245 H 20.4164 3.12433 0.95149 0
M  V30 246 H 19.0754 3.48061 -1.15105 0
M  V30 247 H 18.7234 4.96034 0.83422 0
M  V30 248 H 18.4234 5.83557 -0.688149 0
M  V30 249 H 19.9474 6.10255 0.205238 0
M  V30 250 H 21.3614 5.39055 -1.95172 0
M  V30 251 H 19.7584 5.33834 -2.74119 0
M  V30 252 H 20.8284 3.92844 -2.84257 0
M  V30 253 N 22.1715 0.800033 1.35784 0
M  V30 254 C 23.5875 0.482977 1.52117 0
M  V30 255 C 23.7875 -0.996948 1.75109 0
M  V30 256 O 22.8435 -1.78216 1.78872 0
M  V30 257 C 24.1565 1.32264 2.70049 0
M  V30 258 C 25.7045 1.31742 2.83924 0
M  V30 259 C 26.1795 2.14106 4.04874 0
M  V30 260 N 27.6705 2.11607 4.12039 0
M  V30 261 C 28.4055 2.72099 5.04727 0
M  V30 262 N 27.9015 3.41492 6.02789 0
M  V30 263 N 29.6945 2.61776 4.97423 0
M  V30 264 H 21.8455 1.75856 1.19115 0
M  V30 265 H 24.1085 0.748122 0.582252 0
M  V30 266 H 23.8145 2.37261 2.59616 0
M  V30 267 H 23.6885 0.971303 3.6448 0
M  V30 268 H 26.0755 0.275333 2.93813 0
M  V30 269 H 26.1565 1.70859 1.9037 0
M  V30 270 H 25.8005 3.18351 3.95746 0
M  V30 271 H 25.7305 1.72353 4.97596 0
M  V30 272 H 28.2215 1.61112 3.41835 0
M  V30 273 H 28.5345 3.84953 6.70098 0
M  V30 274 H 26.8795 3.45596 6.02983 0
M  V30 275 H 30.0705 2.07157 4.19766 0
M  V30 276 H 30.2435 3.0921 5.69468 0
M  V30 277 N 23.6496 -1.47581 0.552962 0
M  V30 278 C 24.5596 -2.33743 -0.200353 0
M  V30 279 C 25.5756 -1.47928 -0.916151 0
M  V30 280 O 26.7516 -1.80865 -0.885993 0
M  V30 281 C 23.8166 -3.24536 -1.21973 0
M  V30 282 C 22.8776 -4.26238 -0.511819 0
M  V30 283 C 22.1106 -5.12693 -1.48263 0
M  V30 284 O 22.3336 -5.01525 -2.71714 0
M  V30 285 O 21.2676 -5.93375 -1.00945 0
M  V30 286 H 25.0936 -2.9945 0.506304 0
M  V30 287 H 22.6786 -1.46071 0.313622 0
M  V30 288 H 24.5606 -3.80631 -1.80827 0
M  V30 289 H 23.2356 -2.61462 -1.90839 0
M  V30 290 H 22.1426 -3.73914 0.117799 0
M  V30 291 H 23.4756 -4.92014 0.135308 0
M  V30 292 N 25.1277 -0.289203 -1.54924 0
M  V30 293 C 26.0577 0.58549 -2.2604 0
M  V30 294 C 27.0387 1.14753 -1.25562 0
M  V30 295 O 28.2237 1.17906 -1.54311 0
M  V30 296 C 25.3537 1.76305 -2.99222 0
M  V30 297 C 24.3077 1.33191 -4.06748 0
M  V30 298 C 23.6337 2.5937 -4.6758 0
M  V30 299 C 24.9337 0.471775 -5.20165 0
M  V30 300 H 26.6277 -0.00763532 -2.99399 0
M  V30 301 H 24.1737 -0.00511229 -1.43999 0
M  V30 302 H 26.1267 2.38097 -3.47689 0
M  V30 303 H 24.8507 2.38223 -2.23422 0
M  V30 304 H 23.5097 0.737121 -3.59113 0
M  V30 305 H 23.1577 3.19576 -3.88433 0
M  V30 306 H 22.8577 2.31228 -5.40192 0
M  V30 307 H 24.3817 3.21985 -5.18804 0
M  V30 308 H 25.7957 0.995056 -5.64599 0
M  V30 309 H 24.1927 0.284639 -5.99425 0
M  V30 310 H 25.2627 -0.506041 -4.82252 0
M  V30 311 N 26.6058 1.57591 -0.0167156 0
M  V30 312 C 28.0218 1.55946 0.339557 0
M  V30 313 C 28.2218 1.02109 1.73713 0
M  V30 314 O 27.2778 0.662303 2.43659 0
M  V30 315 C 28.5908 3.00037 0.199499 0
M  V30 316 C 30.1388 3.11805 0.273193 0
M  V30 317 C 30.6138 4.57713 0.162068 0
M  V30 318 N 32.1048 4.6268 0.219444 0
M  V30 319 C 32.8398 5.73185 0.157054 0
M  V30 320 N 32.3358 6.92786 0.0442936 0
M  V30 321 N 34.1288 5.61707 0.21014 0
M  V30 322 H 26.2798 1.90921 -0.930758 0
M  V30 323 H 28.5428 0.877674 -0.358319 0
M  V30 324 H 28.2488 3.4333 -0.76273 0
M  V30 325 H 28.1228 3.64387 0.974786 0
M  V30 326 H 30.5098 2.68433 1.22587 0
M  V30 327 H 30.5908 2.50201 -0.532256 0
M  V30 328 H 30.2348 5.01763 -0.78714 0
M  V30 329 H 30.1648 5.17283 0.986222 0
M  V30 330 H 32.6558 3.76649 0.307246 0
M  V30 331 H 32.9688 7.728 0.00304069 0
M  V30 332 H 31.3138 6.94999 0.00968457 0
M  V30 333 H 34.5048 4.6716 0.296546 0
M  V30 334 H 34.6778 6.47807 0.158054 0
M  V30 335 N 28.0839 -0.256276 1.55502 0
M  V30 336 C 29.4999 -0.604325 1.47716 0
M  V30 337 C 29.6999 -1.88763 0.705039 0
M  V30 338 O 28.7559 -2.51445 0.230613 0
M  V30 339 C 30.0689 -0.715756 2.92057 0
M  V30 340 C 31.6169 -0.808706 3.02372 0
M  V30 341 C 32.0919 -0.951777 4.48001 0
M  V30 342 N 33.5829 -1.01688 4.519 0
M  V30 343 C 34.3179 -1.14668 5.61817 0
M  V30 344 N 33.8139 -1.24261 6.81565 0
M  V30 345 N 35.6069 -1.1791 5.49594 0
M  V30 346 H 27.7579 0.586291 2.04148 0
M  V30 347 H 30.0209 0.201015 0.926443 0
M  V30 348 H 29.7269 0.157027 3.51349 0
M  V30 349 H 29.6009 -1.59071 3.42018 0
M  V30 350 H 31.9879 -1.67195 2.43166 0
M  V30 351 H 32.0689 0.0912063 2.55637 0
M  V30 352 H 31.7129 -0.0931291 5.07815 0
M  V30 353 H 31.6429 -1.86659 4.92408 0
M  V30 354 H 34.1339 -0.954468 3.65648 0
M  V30 355 H 34.4469 -1.34046 7.61086 0
M  V30 356 H 32.7919 -1.21236 6.84344 0
M  V30 357 H 35.9829 -1.10057 4.54978 0
M  V30 358 H 36.1559 -1.27681 6.35296 0
M  V30 359 N 29.562 -1.4872 -0.521534 0
M  V30 360 C 30.978 -1.35028 -0.850855 0
M  V30 361 C 31.178 -0.367712 -1.98116 0
M  V30 362 O 30.234 0.208037 -2.51642 0
M  V30 363 C 31.547 -2.75263 -1.21041 0
M  V30 364 C 33.095 -2.83813 -1.31981 0
M  V30 365 C 33.57 -4.24769 -1.71276 0
M  V30 366 N 35.061 -4.27482 -1.78363 0
M  V30 367 C 35.796 -5.33494 -2.1017 0
M  V30 368 N 35.292 -6.49775 -2.40343 0
M  V30 369 N 37.085 -5.20894 -2.11248 0
M  V30 370 H 29.236 -2.11214 0.22413 0
M  V30 371 H 31.499 -0.947252 0.0376439 0
M  V30 372 H 31.205 -3.48765 -0.453415 0
M  V30 373 H 31.079 -3.09327 -2.15863 0
M  V30 374 H 33.466 -2.10561 -2.06756 0
M  V30 375 H 33.547 -2.53358 -0.352596 0
M  V30 376 H 33.191 -4.9854 -0.970588 0
M  V30 377 H 33.121 -4.52673 -2.69062 0
M  V30 378 H 35.612 -3.43611 -1.57288 0
M  V30 379 H 35.925 -7.26402 -2.63743 0
M  V30 380 H 34.27 -6.53035 -2.37844 0
M  V30 381 H 37.461 -4.29065 -1.87139 0
M  V30 382 H 37.634 -6.03612 -2.35704 0
M  V30 383 N 31.0401 0.771051 -1.3745 0
M  V30 384 C 32.2861 1.53109 -1.339 0
M  V30 385 C 32.6411 1.9225 0.0758401 0
M  V30 386 O 31.9341 1.61264 1.03463 0
M  V30 387 C 32.1281 2.80676 -2.2126 0
M  V30 388 C 31.9571 2.54003 -3.71096 0
M  V30 389 C 30.7271 2.48097 -4.402 0
M  V30 390 C 32.9251 2.21953 -4.63941 0
M  V30 391 N 30.9071 2.13515 -5.75573 0
M  V30 392 C 32.2781 1.97516 -5.87697 0
M  V30 393 C 34.3331 2.08114 -4.5232 0
M  V30 394 C 33.0361 1.60638 -7.01133 0
M  V30 395 C 35.0621 1.72636 -5.65642 0
M  V30 396 C 34.4241 1.4906 -6.88448 0
M  V30 397 H 30.5231 0.56055 -0.54526 0
M  V30 398 H 33.1071 0.899472 -1.72678 0
M  V30 399 H 31.2781 3.41674 -1.84698 0
M  V30 400 H 33.0101 3.46578 -2.08963 0
M  V30 401 H 29.7651 2.63974 -3.93211 0
M  V30 402 H 30.1891 1.98919 -6.47117 0
M  V30 403 H 34.8311 2.25024 -3.57944 0
M  V30 404 H 32.5491 1.42467 -7.95443 0
M  V30 405 H 36.1351 1.62586 -5.58621 0
M  V30 406 H 35.0151 1.22014 -7.7465 0
M  V30 407 N 32.5182 1.22032 0.997298 0
M  V30 408 C 33.4482 1.01065 2.10495 0
M  V30 409 C 34.4292 -0.0669542 1.69968 0
M  V30 410 O 35.6142 0.0943987 1.9397 0
M  V30 411 C 32.7442 0.582874 3.42374 0
M  V30 412 C 31.6982 1.60592 3.96729 0
M  V30 413 C 31.0242 1.03412 5.24605 0
M  V30 414 C 32.3242 2.99478 4.27914 0
M  V30 415 H 34.0182 1.93708 2.28292 0
M  V30 416 H 31.5642 0.932761 1.09707 0
M  V30 417 H 33.5172 0.423332 4.19268 0
M  V30 418 H 32.2412 -0.379213 3.24391 0
M  V30 419 H 30.9002 1.75316 3.21963 0
M  V30 420 H 30.5482 0.063518 5.0296 0
M  V30 421 H 30.2482 1.71754 5.61938 0
M  V30 422 H 31.7722 0.886066 6.04137 0
M  V30 423 H 33.1862 2.88153 4.95622 0
M  V30 424 H 31.5832 3.64903 4.76409 0
M  V30 425 H 32.6532 3.49742 3.3587 0
M  V30 426 N 33.9963 -1.19345 1.0293 0
M  V30 427 C 34.9433 -2.2258 0.610464 0
M  V30 428 C 35.9133 -1.6179 -0.375946 0
M  V30 429 O 37.0983 -1.88844 -0.272511 0
M  V30 430 C 34.2383 -3.45085 -0.0321473 0
M  V30 431 C 33.3513 -4.20258 1.00035 0
M  V30 432 C 32.4863 -5.3019 0.32746 0
M  V30 433 C 31.5253 -5.97121 1.34584 0
M  V30 434 N 30.6623 -6.98615 0.698726 0
M  V30 435 H 35.5023 -2.57764 1.49538 0
M  V30 436 H 33.0393 -1.26644 0.748311 0
M  V30 437 H 34.9973 -4.15061 -0.421966 0
M  V30 438 H 33.6273 -3.10555 -0.88064 0
M  V30 439 H 32.6793 -3.49223 1.50823 0
M  V30 440 H 33.9913 -4.66175 1.77433 0
M  V30 441 H 33.1453 -6.06587 -0.11718 0
M  V30 442 H 31.8843 -4.85345 -0.478713 0
M  V30 443 H 30.8893 -5.19474 1.80074 0
M  V30 444 H 32.1143 -6.4405 2.15352 0
M  V30 445 H 30.0603 -6.55942 -0.0873471 0
M  V30 446 H 29.9773 -7.42724 1.41058 0
M  V30 447 H 31.2453 -7.79004 0.278102 0
M  V30 448 N 35.4744 -0.807222 -1.35358 0
M  V30 449 C 36.7514 -0.311126 -1.9311 0
M  V30 450 C 37.1314 1.19937 -1.73719 0
M  V30 451 O 36.4794 1.99918 -1.10657 0
M  V30 452 C 36.6894 -0.723226 -3.41424 0
M  V30 453 C 38.0374 -0.713078 -4.18569 0
M  V30 454 O 39.0614 -0.664811 -3.49941 0
M  V30 455 O 37.9204 -0.772022 -5.41019 0
M  V30 456 H 35.0144 -0.081526 -0.822972 0
M  V30 457 H 37.5604 -0.890962 -1.4443 0
M  V30 458 H 36.3324 -1.76426 -3.4927 0
M  V30 459 H 35.9554 -0.118232 -3.97424 0
M  V30 460 N 36.9525 1.47285 -0.560781 0
M  V30 461 C 37.8845 2.28118 0.222438 0
M  V30 462 C 38.8975 1.37219 0.876056 0
M  V30 463 O 40.0865 1.62011 0.749307 0
M  V30 464 C 37.1865 3.1159 1.33285 0
M  V30 465 C 36.3595 4.30473 0.77534 0
M  V30 466 C 35.4185 4.95513 1.77069 0
M  V30 467 O 34.4445 5.53792 1.31539 0
M  V30 468 N 35.6465 4.90531 3.10418 0
M  V30 469 H 38.4115 2.95976 -0.470958 0
M  V30 470 H 35.9725 1.56955 -0.39709 0
M  V30 471 H 37.9645 3.51967 1.99752 0
M  V30 472 H 36.5345 2.45951 1.92943 0
M  V30 473 H 35.7545 3.94144 -0.0662113 0
M  V30 474 H 37.0425 5.07362 0.382272 0
M  V30 475 H 36.4405 4.44389 3.5005 0
M  V30 476 H 34.9975 5.34917 3.72434 0
M  V30 477 N 38.4306 0.297415 1.54768 0
M  V30 478 C 39.3406 -0.58983 2.27064 0
M  V30 479 C 40.3566 -1.15144 1.30453 0
M  V30 480 O 41.5326 -1.17699 1.63428 0
M  V30 481 C 38.5976 -1.74714 2.9946 0
M  V30 482 C 37.6586 -1.21997 4.11601 0
M  V30 483 C 36.8916 -2.32212 4.80535 0
M  V30 484 O 37.1146 -3.52036 4.48806 0
M  V30 485 O 36.0486 -1.99106 5.68014 0
M  V30 486 H 39.8746 -0.00348199 3.037 0
M  V30 487 H 37.4596 0.0640035 1.49263 0
M  V30 488 H 39.3416 -2.42147 3.44881 0
M  V30 489 H 38.0166 -2.32016 2.25722 0
M  V30 490 H 36.9236 -0.511458 3.70587 0
M  V30 491 H 38.2566 -0.692419 4.87305 0
M  V30 492 N 39.9087 -1.5758 0.0250728 0
M  V30 493 C 40.8387 -2.13007 -0.956575 0
M  V30 494 C 41.8197 -1.0452 -1.342 0
M  V30 495 O 43.0047 -1.32332 -1.42133 0
M  V30 496 C 40.1347 -2.65386 -2.24026 0
M  V30 497 C 39.0887 -3.78623 -1.99571 0
M  V30 498 C 38.4147 -4.17414 -3.3417 0
M  V30 499 C 39.7147 -5.04867 -1.33814 0
M  V30 500 H 41.4087 -2.9528 -0.494991 0
M  V30 501 H 38.9547 -1.42042 -0.236651 0
M  V30 502 H 40.9077 -3.02794 -2.93076 0
M  V30 503 H 39.6317 -1.80268 -2.72343 0
M  V30 504 H 38.2907 -3.41646 -1.32941 0
M  V30 505 H 37.9387 -3.29284 -3.80238 0
M  V30 506 H 37.6387 -4.93719 -3.18615 0
M  V30 507 H 39.1627 -4.57402 -4.04495 0
M  V30 508 H 40.5767 -5.39888 -1.92857 0
M  V30 509 H 38.9737 -5.86144 -1.28669 0
M  V30 510 H 40.0437 -4.83904 -0.310561 0
M  V30 511 N 41.3868 0.248026 -1.55636 0
M  V30 512 C 42.6118 0.998028 -1.81808 0
M  V30 513 C 43.0368 1.78207 -0.601979 0
M  V30 514 O 42.3948 1.75653 0.448961 0
M  V30 515 C 42.4428 1.9125 -3.05705 0
M  V30 516 O 41.5468 3.00406 -2.82542 0
M  V30 517 H 40.8878 0.284045 -0.600179 0
M  V30 518 H 43.4178 0.269357 -2.02819 0
M  V30 519 H 43.4278 2.32737 -3.35108 0
M  V30 520 H 42.1028 1.33602 -3.93857 0
M  V30 521 H 40.6798 2.63056 -2.64303 0
M  V30 522 N 42.8649 1.48995 0.513639 0
M  V30 523 C 44.2759 1.5119 1.09537 0
M  V30 524 C 44.6269 0.290906 1.94031 0
M  V30 525 O 43.7519 -0.60049 2.07902 0
M  V30 526 C 44.3469 2.73964 1.99322 0
M  V30 527 C 42.9059 2.78978 2.52682 0
M  V30 528 C 42.0529 2.44934 1.30009 0
M  V30 529 H 45.0039 1.55875 0.298125 0
M  V30 530 H 45.0249 2.53409 2.83838 0
M  V30 531 H 44.5369 3.62813 1.37799 0
M  V30 532 H 42.6379 1.94378 3.1788 0
M  V30 533 H 42.7509 3.8083 2.90698 0
M  V30 534 H 41.1149 1.9644 1.62122 0
M  V30 535 H 41.8979 3.36043 0.702131 0
M  V30 536 N 44.343 -0.763751 1.37857 0
M  V30 537 C 45.759 -1.06542 1.18832 0
M  V30 538 C 45.959 -2.01478 0.0299722 0
M  V30 539 O 45.015 -2.4458 -0.627447 0
M  V30 540 C 46.328 -1.65525 2.51042 0
M  V30 541 C 47.876 -1.77745 2.57635 0
M  V30 542 C 48.351 -2.4014 3.89996 0
M  V30 543 N 49.842 -2.47582 3.91481 0
M  V30 544 C 50.577 -2.96732 4.9065 0
M  V30 545 N 50.073 -3.45993 6.00217 0
M  V30 546 N 51.866 -2.95679 4.78048 0
M  V30 547 H 44.017 -0.133556 2.1198 0
M  V30 548 H 46.28 -0.121879 0.940133 0
M  V30 549 H 45.986 -1.03236 3.36207 0
M  V30 550 H 45.86 -2.64719 2.68707 0
M  V30 551 H 48.247 -2.39164 1.72872 0
M  V30 552 H 48.328 -0.772836 2.43846 0
M  V30 553 H 47.972 -1.79358 4.75177 0
M  V30 554 H 47.902 -3.41223 4.01092 0
M  V30 555 H 50.393 -2.1273 3.12337 0
M  V30 556 H 50.706 -3.81922 6.7183 0
M  V30 557 H 49.051 -3.44077 6.03851 0
M  V30 558 H 52.242 -2.56499 3.91568 0
M  V30 559 H 52.415 -3.33672 5.55488 0
M  V30 560 N 45.8211 -1.22559 -0.990812 0
M  V30 561 C 46.7311 -1.01394 -2.11557 0
M  V30 562 C 47.7471 0.0383962 -1.73958 0
M  V30 563 O 48.9231 -0.154787 -2.00804 0
M  V30 564 C 45.9881 -0.596569 -3.41529 0
M  V30 565 C 45.0491 -1.72276 -3.93217 0
M  V30 566 C 44.2821 -1.32521 -5.16985 0
M  V30 567 O 44.5051 -0.204909 -5.70032 0
M  V30 568 O 43.4391 -2.14247 -5.62478 0
M  V30 569 H 47.2651 -1.95633 -2.32296 0
M  V30 570 H 44.8501 -1.01172 -1.0993 0
M  V30 571 H 46.7321 -0.374263 -4.19735 0
M  V30 572 H 45.4071 0.316939 -3.22145 0
M  V30 573 H 44.3141 -1.99961 -3.16174 0
M  V30 574 H 45.6471 -2.61421 -4.17037 0
M  V30 575 N 47.2992 1.18797 -1.03562 0
M  V30 576 C 48.7102 1.70322 -0.764676 0
M  V30 577 C 49.0612 1.82708 0.714996 0
M  V30 578 O 48.1862 1.50299 1.55689 0
M  V30 579 C 48.7812 3.09356 -1.38145 0
M  V30 580 C 47.3402 3.58114 -1.15895 0
M  V30 581 C 46.4872 2.34798 -1.4753 0
M  V30 582 H 49.4382 1.03543 -1.20268 0
M  V30 583 H 49.4592 3.72378 -0.781977 0
M  V30 584 H 48.9712 3.00309 -2.45837 0
M  V30 585 H 47.0722 3.72464 -0.100544 0
M  V30 586 H 47.1852 4.4184 -1.8524 0
M  V30 587 H 45.5492 2.38464 -0.894829 0
M  V30 588 H 46.3322 2.28375 -2.56319 0
M  V30 589 N 48.7773 0.814389 1.34928 0
M  V30 590 C 50.0233 0.399013 1.98836 0
M  V30 591 C 50.3563 -1.03314 1.64438 0
M  V30 592 O 49.6313 -1.71811 0.911659 0
M  V30 593 C 49.9143 0.591629 3.55207 0
M  V30 594 C 49.7673 2.06928 3.99376 0
M  V30 595 C 51.0863 0.022199 4.40094 0
M  V30 596 H 48.2053 0.146451 0.722303 0
M  V30 597 H 50.8473 1.02537 1.59957 0
M  V30 598 H 48.9973 0.0584441 3.88456 0
M  V30 599 H 50.6693 2.66544 3.76499 0
M  V30 600 H 48.9123 2.56287 3.49999 0
M  V30 601 H 49.5833 2.1549 5.08201 0
M  V30 602 H 52.0593 0.477643 4.13349 0
M  V30 603 H 50.9353 0.186832 5.48582 0
M  V30 604 H 51.1963 -1.07215 4.28902 0
M  V30 605 N 50.2554 -1.46986 0.568584 0
M  V30 606 C 51.1854 -2.32946 -0.160753 0
M  V30 607 C 52.1664 -1.44487 -0.897631 0
M  V30 608 O 53.3514 -1.73327 -0.875867 0
M  V30 609 C 50.4814 -3.26494 -1.18403 0
M  V30 610 C 49.4354 -4.24282 -0.562895 0
M  V30 611 C 48.7614 -5.07236 -1.69163 0
M  V30 612 C 50.0614 -5.19989 0.490761 0
M  V30 613 H 51.7554 -2.94175 0.556916 0
M  V30 614 H 49.3014 -1.4146 0.26927 0
M  V30 615 H 51.2544 -3.85477 -1.70251 0
M  V30 616 H 49.9784 -2.63343 -1.93179 0
M  V30 617 H 48.6374 -3.66541 -0.0656164 0
M  V30 618 H 48.2854 -4.4048 -2.42871 0
M  V30 619 H 47.9854 -5.7345 -1.28174 0
M  V30 620 H 49.5094 -5.6908 -2.21314 0
M  V30 621 H 50.9234 -5.73271 0.0579047 0
M  V30 622 H 49.3204 -5.94469 0.820165 0
M  V30 623 H 50.3904 -4.64777 1.3824 0
M  V30 624 N 51.7335 -0.305618 -1.54608 0
M  V30 625 C 53.1445 0.186098 -1.8577 0
M  V30 626 C 53.4955 1.53058 -1.22751 0
M  V30 627 O 52.6205 2.09888 -0.526893 0
M  V30 628 C 53.2155 0.344449 -3.37044 0
M  V30 629 C 51.7745 0.780384 -3.68221 0
M  V30 630 C 50.9215 -0.108554 -2.77087 0
M  V30 631 H 53.8725 -0.526485 -1.49712 0
M  V30 632 H 53.8935 1.17828 -3.61796 0
M  V30 633 H 53.4055 -0.634235 -3.82883 0
M  V30 634 H 51.5065 1.76945 -3.27904 0
M  V30 635 H 51.6195 0.596572 -4.75371 0
M  V30 636 H 49.9835 0.412931 -2.5133 0
M  V30 637 H 50.7665 -1.08368 -3.25747 0
M  V30 638 N 53.2116 1.57565 -0.0334293 0
M  V30 639 C 54.6226 1.79746 0.504798 0
M  V30 640 C 54.9736 0.944091 1.71992 0
M  V30 641 O 54.0986 0.155694 2.15839 0
M  V30 642 C 54.6936 3.25997 0.922567 0
M  V30 643 C 53.2526 3.49159 1.40588 0
M  V30 644 C 52.3996 2.74785 0.372633 0
M  V30 645 H 55.3506 1.56565 -0.259436 0
M  V30 646 H 55.3716 3.35945 1.78666 0
M  V30 647 H 54.8836 3.88081 0.0379825 0
M  V30 648 H 52.9846 2.92332 2.31025 0
M  V30 649 H 53.0976 4.57873 1.41028 0
M  V30 650 H 51.4616 2.40391 0.841672 0
M  V30 651 H 52.2446 3.39587 -0.503559 0
M  V30 652 N 54.6897 -0.239769 1.55765 0
M  V30 653 C 55.6217 -1.32001 1.87372 0
M  V30 654 C 56.6347 -1.43944 0.760522 0
M  V30 655 O 57.8237 -1.45167 1.0387 0
M  V30 656 C 54.9237 -2.69779 2.05115 0
M  V30 657 C 54.0967 -2.80014 3.36022 0
M  V30 658 C 53.1557 -3.98684 3.4342 0
M  V30 659 O 52.1817 -3.87877 4.16582 0
M  V30 660 N 53.3837 -5.12176 2.73232 0
M  V30 661 H 56.1487 -1.0522 2.80622 0
M  V30 662 H 53.7097 -0.429857 1.56089 0
M  V30 663 H 55.7017 -3.47517 2.07399 0
M  V30 664 H 54.2717 -2.89237 1.18577 0
M  V30 665 H 53.4917 -1.88896 3.45994 0
M  V30 666 H 54.7797 -2.83808 4.22292 0
M  V30 667 H 54.1777 -5.2385 2.13536 0
M  V30 668 H 52.7347 -5.88022 2.81199 0
M  V30 669 N 56.1678 -1.49265 -0.50573 0
M  V30 670 C 57.1148 -1.65585 -1.6078 0
M  V30 671 C 58.0848 -0.497396 -1.58478 0
M  V30 672 O 59.2698 -0.72385 -1.76536 0
M  V30 673 C 56.4098 -1.72408 -2.98948 0
M  V30 674 C 55.5228 -2.99525 -3.11301 0
M  V30 675 C 54.6578 -2.97356 -4.40174 0
M  V30 676 C 53.6968 -4.19074 -4.46143 0
M  V30 677 N 52.8338 -4.14841 -5.66437 0
M  V30 678 H 57.6738 -2.59688 -1.46172 0
M  V30 679 H 55.2108 -1.28761 -0.711261 0
M  V30 680 H 57.1688 -1.74344 -3.79025 0
M  V30 681 H 55.7988 -0.817753 -3.1227 0
M  V30 682 H 54.8508 -3.07222 -2.24318 0
M  V30 683 H 56.1628 -3.89518 -3.11572 0
M  V30 684 H 55.3168 -2.97829 -5.28567 0
M  V30 685 H 54.0558 -2.05133 -4.42461 0
M  V30 686 H 53.0608 -4.1885 -3.56153 0
M  V30 687 H 54.2858 -5.12483 -4.45575 0
M  V30 688 H 52.2318 -3.25453 -5.69575 0
M  V30 689 H 52.1488 -4.98564 -5.68304 0
M  V30 690 H 53.4168 -4.1941 -6.57051 0
M  V30 691 N 57.6459 0.756429 -1.3826 0
M  V30 692 C 58.5789 1.87802 -1.29637 0
M  V30 693 C 59.5569 1.61667 -0.173939 0
M  V30 694 O 60.7409 1.85208 -0.350775 0
M  V30 695 C 57.8679 3.23354 -1.00797 0
M  V30 696 C 56.9139 3.68379 -2.14939 0
M  V30 697 S 57.7469 3.8025 -3.77054 0
M  V30 698 C 58.9029 5.18626 -3.50396 0
M  V30 699 H 59.1359 1.94829 -2.24564 0
M  V30 700 H 56.6689 0.919117 -1.24063 0
M  V30 701 H 58.6269 4.01637 -0.848413 0
M  V30 702 H 57.2879 3.14008 -0.0759369 0
M  V30 703 H 56.4809 4.66693 -1.90299 0
M  V30 704 H 56.0829 2.97242 -2.26988 0
M  V30 705 H 58.3749 6.04289 -3.06334 0
M  V30 706 H 59.3179 5.48286 -4.48094 0
M  V30 707 H 59.7259 4.87289 -2.84973 0
M  V30 708 N 59.124 1.23083 0.984299 0
M  V30 709 C 60.372 1.05848 1.72165 0
M  V30 710 C 60.693 -0.406049 1.90726 0
M  V30 711 O 59.963 -1.29139 1.47309 0
M  V30 712 H 58.543 0.388685 0.637913 0
M  V30 713 H 61.205 1.54736 1.18503 0
M  V30 714 H 60.301 1.54327 2.71274 0
M  V30 715 N 60.6021 -1.18246 1.0419 0
M  V30 716 C 62.0131 -1.69914 0.773698 0
M  V30 717 C 62.3641 -1.83085 -0.705297 0
M  V30 718 O 61.4891 -1.51123 -1.5489 0
M  V30 719 C 62.0841 -3.08619 1.39784 0
M  V30 720 C 60.6431 -3.57494 1.17792 0
M  V30 721 C 59.7901 -2.34013 1.48773 0
M  V30 722 H 62.7411 -1.02904 1.20816 0
M  V30 723 H 62.7621 -3.71958 0.801714 0
M  V30 724 H 62.2741 -2.99001 2.47426 0
M  V30 725 H 60.3751 -3.72406 0.120295 0
M  V30 726 H 60.4881 -4.40852 1.87581 0
M  V30 727 H 58.8521 -2.37986 0.907463 0
M  V30 728 H 59.6351 -2.27013 2.57527 0
M  V30 729 N 62.0802 -0.821533 -1.34494 0
M  V30 730 C 63.0132 -0.187704 -2.27427 0
M  V30 731 C 63.9912 0.65507 -1.48821 0
M  V30 732 O 65.1752 0.619111 -1.78043 0
M  V30 733 C 62.3022 0.737996 -3.30562 0
M  V30 734 C 61.3482 -0.0270713 -4.26491 0
M  V30 735 S 62.1812 -1.37329 -5.17592 0
M  V30 736 C 63.3372 -0.452427 -6.24263 0
M  V30 737 H 63.5702 -0.975598 -2.80837 0
M  V30 738 H 61.1032 -0.61736 -1.4152 0
M  V30 739 H 63.0612 1.26654 -3.90473 0
M  V30 740 H 61.7222 1.4994 -2.76001 0
M  V30 741 H 60.9152 0.6766 -4.99438 0
M  V30 742 H 60.5172 -0.48612 -3.70827 0
M  V30 743 H 62.8092 0.356557 -6.76561 0
M  V30 744 H 63.7522 -1.15153 -6.98674 0
M  V30 745 H 64.1602 -0.0414755 -5.64485 0
M  V30 746 N 63.5583 1.46682 -0.576371 0
M  V30 747 C 64.4683 2.34032 0.163141 0
M  V30 748 C 65.4843 1.49367 0.892501 0
M  V30 749 O 66.6603 1.82252 0.857106 0
M  V30 750 C 63.7253 3.26435 1.16795 0
M  V30 751 C 62.7863 4.26998 0.443944 0
M  V30 752 C 62.0193 5.14986 1.40088 0
M  V30 753 O 62.2423 5.05785 2.637 0
M  V30 754 O 61.1763 5.94906 0.914917 0
M  V30 755 H 65.0023 2.98607 -0.55388 0
M  V30 756 H 62.5873 1.45554 -0.336821 0
M  V30 757 H 64.4693 3.83459 1.74748 0
M  V30 758 H 63.1443 2.64465 1.86655 0
M  V30 759 H 62.0513 3.7368 -0.177271 0
M  V30 760 H 63.3843 4.91736 -0.213566 0
M  V30 761 N 65.0364 0.313813 1.54444 0
M  V30 762 C 65.9834 -0.55655 2.23989 0
M  V30 763 C 66.9534 -1.11943 1.22711 0
M  V30 764 O 68.1384 -1.16158 1.51367 0
M  V30 765 C 65.2784 -1.71635 2.99392 0
M  V30 766 C 64.3914 -1.18364 4.15468 0
M  V30 767 C 63.5264 -2.30834 4.78424 0
M  V30 768 C 62.5654 -1.74762 5.86622 0
M  V30 769 N 61.7024 -2.80855 6.43479 0
M  V30 770 H 66.5424 0.0430893 2.97969 0
M  V30 771 H 64.0794 0.0330359 1.47063 0
M  V30 772 H 66.0374 -2.39868 3.41349 0
M  V30 773 H 64.6674 -2.28742 2.27765 0
M  V30 774 H 63.7194 -0.393163 3.78363 0
M  V30 775 H 65.0314 -0.733262 4.93381 0
M  V30 776 H 64.1854 -3.0699 5.23299 0
M  V30 777 H 62.9244 -2.79204 3.99871 0
M  V30 778 H 61.9294 -0.970995 5.41158 0
M  V30 779 H 63.1544 -1.2728 6.67066 0
M  V30 780 H 61.1004 -3.28535 5.67804 0
M  V30 781 H 61.0174 -2.40351 7.16776 0
M  V30 782 H 62.2854 -3.5687 6.93011 0
M  V30 783 N 66.5145 -1.57545 0.0417849 0
M  V30 784 C 67.7615 -1.92317 -0.634082 0
M  V30 785 C 68.0895 -0.919334 -1.71402 0
M  V30 786 O 67.3445 0.0698253 -1.95575 0
M  V30 787 C 67.6435 -3.33794 -1.27735 0
M  V30 788 C 67.3095 -4.49716 -0.326543 0
M  V30 789 C 65.9715 -4.81156 -0.0648814 0
M  V30 790 C 68.3235 -5.20182 0.325623 0
M  V30 791 C 65.6515 -5.80414 0.856539 0
M  V30 792 C 68.0035 -6.20424 1.23518 0
M  V30 793 C 66.6675 -6.50298 1.5056 0
M  V30 794 H 65.9375 -0.703736 -0.232027 0
M  V30 795 H 68.5845 -1.91205 0.106259 0
M  V30 796 H 66.8895 -3.31228 -2.09274 0
M  V30 797 H 68.5865 -3.57975 -1.80707 0
M  V30 798 H 65.1765 -4.25176 -0.540665 0
M  V30 799 H 69.3605 -4.96112 0.136546 0
M  V30 800 H 64.6165 -6.019 1.07363 0
M  V30 801 H 68.7905 -6.74141 1.74664 0
M  V30 802 H 66.4175 -7.27025 2.22123 0
M  V30 803 N 67.9926 0.231505 -1.5589 0
M  V30 804 C 69.2386 0.954429 -1.79617 0
M  V30 805 C 69.5936 1.82367 -0.613199 0
M  V30 806 O 68.8866 1.87524 0.393094 0
M  V30 807 C 69.0806 1.83577 -3.0665 0
M  V30 808 C 68.9096 1.05334 -4.3719 0
M  V30 809 C 67.6796 0.75225 -4.99669 0
M  V30 810 C 69.8776 0.423444 -5.12554 0
M  V30 811 N 67.8596 -0.052627 -6.13877 0
M  V30 812 C 69.2306 -0.245287 -6.19515 0
M  V30 813 C 71.2856 0.335466 -4.96769 0
M  V30 814 C 69.9886 -0.993566 -7.12405 0
M  V30 815 C 72.0146 -0.399321 -5.9005 0
M  V30 816 C 71.3766 -1.05663 -6.9643 0
M  V30 817 H 67.4756 0.329846 -0.709031 0
M  V30 818 H 70.0596 0.226172 -1.93382 0
M  V30 819 H 68.2306 2.53592 -2.94186 0
M  V30 820 H 69.9626 2.49541 -3.18608 0
M  V30 821 H 66.7176 1.06783 -4.61405 0
M  V30 822 H 67.1416 -0.443609 -6.75545 0
M  V30 823 H 71.7836 0.829311 -4.14587 0
M  V30 824 H 69.5016 -1.49896 -7.94076 0
M  V30 825 H 73.0876 -0.468265 -5.79913 0
M  V30 826 H 71.9676 -1.61612 -7.67366 0
M  V30 827 N 69.4707 1.49531 0.497807 0
M  V30 828 C 70.4187 1.66926 1.61983 0
M  V30 829 C 71.4127 0.535167 1.60724 0
M  V30 830 O 72.6187 0.714896 1.65195 0
M  V30 831 H 68.9937 0.526415 0.537021 0
M  V30 832 H 70.9647 2.61098 1.44465 0
M  V30 833 C 69.7137 1.75602 3.00099 0
M  V30 834 H 69.0367 2.62244 3.01775 0
M  V30 835 H 70.4767 1.91807 3.78135 0
M  V30 836 C 68.9357 0.501543 3.33146 0
M  V30 837 O 69.4657 -0.371342 3.9998 0
M  V30 838 N 67.6717 0.363531 2.88317 0
M  V30 839 H 67.2187 1.07485 2.34104 0
M  V30 840 H 67.1767 -0.474728 3.10795 0
M  V30 841 N 70.9488 -0.749086 1.3866 0
M  V30 842 C 71.8958 -1.86291 1.36251 0
M  V30 843 C 72.8658 -1.64578 0.224347 0
M  V30 844 O 74.0508 -1.86181 0.417279 0
M  V30 845 C 71.1908 -3.23644 1.19786 0
M  V30 846 C 70.3038 -3.57158 2.43027 0
M  V30 847 C 69.4388 -4.83838 2.19258 0
M  V30 848 C 68.4778 -5.10152 3.38247 0
M  V30 849 N 67.6148 -6.28029 3.13884 0
M  V30 850 H 72.4548 -1.87685 2.3147 0
M  V30 851 H 69.9918 -0.917287 1.14997 0
M  V30 852 H 71.9498 -4.0291 1.08254 0
M  V30 853 H 70.5798 -3.21566 0.282031 0
M  V30 854 H 69.6318 -2.72701 2.65214 0
M  V30 855 H 70.9438 -3.7253 3.31697 0
M  V30 856 H 70.0978 -5.71057 2.04888 0
M  V30 857 H 68.8368 -4.70614 1.2796 0
M  V30 858 H 67.8418 -4.21401 3.53131 0
M  V30 859 H 69.0668 -5.25271 4.30427 0
M  V30 860 H 67.0128 -6.1612 2.25238 0
M  V30 861 H 66.9298 -6.43922 3.96106 0
M  V30 862 H 68.1978 -7.18124 3.03179 0
M  V30 863 N 72.4269 -1.23603 -0.977757 0
M  V30 864 C 73.6739 -1.06971 -1.71941 0
M  V30 865 C 74.0019 0.393009 -1.90488 0
M  V30 866 O 73.2569 1.30719 -1.4564 0
M  V30 867 C 73.5559 -1.7433 -3.11999 0
M  V30 868 C 73.2219 -3.24252 -3.13323 0
M  V30 869 C 71.8839 -3.65156 -3.13392 0
M  V30 870 C 74.2359 -4.20141 -3.08433 0
M  V30 871 C 71.5639 -5.00403 -3.0629 0
M  V30 872 C 73.9159 -5.55384 -3.02873 0
M  V30 873 C 72.5799 -5.95647 -3.01265 0
M  V30 874 H 71.8499 -0.391433 -0.629175 0
M  V30 875 H 74.4969 -1.53572 -1.14403 0
M  V30 876 H 72.8019 -1.20096 -3.7294 0
M  V30 877 H 74.4989 -1.58936 -3.68158 0
M  V30 878 H 71.0889 -2.91692 -3.14029 0
M  V30 879 H 75.2729 -3.89547 -3.07517 0
M  V30 880 H 70.5289 -5.3081 -3.03399 0
M  V30 881 H 74.7029 -6.29398 -2.98046 0
M  V30 882 H 72.3299 -7.0041 -2.95516 0
M  V30 883 N 73.905 1.17692 -1.04816 0
M  V30 884 C 74.835 2.23777 -0.666791 0
M  V30 885 C 75.816 1.66796 0.33361 0
M  V30 886 O 77.001 1.93039 0.212042 0
M  V30 887 C 74.131 3.47281 -0.0367933 0
M  V30 888 C 73.085 4.17059 -0.961546 0
M  V30 889 C 72.411 5.34342 -0.195626 0
M  V30 890 C 73.711 4.69713 -2.28402 0
M  V30 891 H 75.405 2.55933 -1.55367 0
M  V30 892 H 72.951 1.23019 -0.748484 0
M  V30 893 H 74.904 4.20706 0.241775 0
M  V30 894 H 73.628 3.14381 0.885004 0
M  V30 895 H 72.287 3.45541 -1.22462 0
M  V30 896 H 71.935 4.97692 0.728816 0
M  V30 897 H 71.635 5.81966 -0.811775 0
M  V30 898 H 73.159 6.10553 0.0757473 0
M  V30 899 H 74.573 5.34794 -2.06563 0
M  V30 900 H 72.97 5.279 -2.8538 0
M  V30 901 H 74.04 3.86726 -2.92525 0
M  V30 902 N 75.3831 0.828654 1.34056 0
M  V30 903 C 76.2931 0.256725 2.33191 0
M  V30 904 C 77.3091 -0.611898 1.62886 0
M  V30 905 O 78.4851 -0.51844 1.94613 0
M  V30 906 C 75.5501 -0.567238 3.42028 0
M  V30 907 C 74.6111 0.324458 4.28072 0
M  V30 908 C 73.8441 -0.460274 5.31712 0
M  V30 909 O 74.0671 -1.693 5.44696 0
M  V30 910 O 73.0011 0.160391 6.01686 0
M  V30 911 H 76.8271 1.07739 2.83947 0
M  V30 912 H 74.4121 0.59093 1.37217 0
M  V30 913 H 76.2941 -1.03582 4.08471 0
M  V30 914 H 74.9691 -1.36513 2.93506 0
M  V30 915 H 73.8761 0.840659 3.64532 0
M  V30 916 H 75.2091 1.08685 4.8005 0
M  V30 917 N 76.8612 -1.46375 0.584142 0
M  V30 918 C 77.8092 -2.32042 -0.161047 0
M  V30 919 C 78.8032 -1.44569 -0.882966 0
M  V30 920 O 80.0092 -1.61186 -0.801191 0
M  V30 921 H 76.3842 -0.748659 -0.0708033 0
M  V30 922 H 78.3552 -2.92704 0.580269 0
M  V30 923 C 77.1042 -3.27762 -1.1605 0
M  V30 924 H 76.4272 -3.95051 -0.614419 0
M  V30 925 H 77.8672 -3.90481 -1.65228 0
M  V30 926 C 76.3262 -2.53218 -2.22221 0
M  V30 927 O 76.8562 -2.29628 -3.29597 0
M  V30 928 N 75.0622 -2.13756 -1.96868 0
M  V30 929 H 74.6092 -2.33142 -1.09557 0
M  V30 930 H 74.5672 -1.642 -2.68115 0
M  V30 931 N 78.3393 -0.321999 -1.54275 0
M  V30 932 C 79.2863 0.544664 -2.24281 0
M  V30 933 C 80.2563 1.1129 -1.23303 0
M  V30 934 O 81.4413 1.15354 -1.51981 0
M  V30 935 C 78.5813 1.70045 -3.00298 0
M  V30 936 C 77.6943 1.16159 -4.1609 0
M  V30 937 C 76.8293 2.28293 -4.79641 0
M  V30 938 C 75.8683 1.71648 -5.8754 0
M  V30 939 N 75.0053 2.77438 -6.44959 0
M  V30 940 H 79.8453 -0.0588907 -2.97942 0
M  V30 941 H 77.3823 -0.0408345 -1.47043 0
M  V30 942 H 79.3403 2.38054 -3.42616 0
M  V30 943 H 77.9703 2.27531 -2.28975 0
M  V30 944 H 77.0223 0.373092 -3.78566 0
M  V30 945 H 78.3343 0.707087 -4.93763 0
M  V30 946 H 77.4883 3.0421 -5.2492 0
M  V30 947 H 76.2273 2.77079 -4.01346 0
M  V30 948 H 75.2323 0.942282 -5.41665 0
M  V30 949 H 76.4573 1.23741 -6.67731 0
M  V30 950 H 74.4033 3.25519 -5.69538 0
M  V30 951 H 74.3203 2.36547 -7.1804 0
M  V30 952 H 75.5883 3.53189 -6.94894 0
M  V30 953 N 79.8174 1.5752 -0.0501392 0
M  V30 954 C 81.0424 1.97376 0.636997 0
M  V30 955 C 81.4674 0.927466 1.63645 0
M  V30 956 O 80.8254 -0.10941 1.8097 0
M  V30 957 C 80.8734 3.36304 1.30123 0
M  V30 958 O 79.9774 3.34156 2.41689 0
M  V30 959 H 79.3184 0.642998 0.165679 0
M  V30 960 H 81.8484 2.04258 -0.118233 0
M  V30 961 H 81.8584 3.73008 1.65315 0
M  V30 962 H 80.5334 4.11993 0.568746 0
M  V30 963 H 79.1104 3.09196 2.08451 0
M  V30 964 N 81.2955 -0.223234 1.56011 0
M  V30 965 C 82.7065 -0.790368 1.69145 0
M  V30 966 C 83.0575 -1.85055 0.651845 0
M  V30 967 O 82.1825 -2.15498 -0.197359 0
M  V30 968 C 82.7775 -1.4404 3.06656 0
M  V30 969 C 81.3365 -1.95494 3.2165 0
M  V30 970 C 80.4835 -0.814506 2.65068 0
M  V30 971 H 83.4345 0.00139011 1.587 0
M  V30 972 H 83.4555 -2.30916 3.0242 0
M  V30 973 H 82.9675 -0.668543 3.82298 0
M  V30 974 H 81.0685 -2.75487 2.50874 0
M  V30 975 H 81.1815 -2.13607 4.28846 0
M  V30 976 H 79.5455 -1.22137 2.23505 0
M  V30 977 H 80.3285 -0.0553515 3.43255 0
M  V30 978 N 82.7736 -1.49793 -0.48987 0
M  V30 979 C 84.0196 -1.61049 -1.24236 0
M  V30 980 C 84.3746 -0.298412 -1.90072 0
M  V30 981 O 83.6676 0.702262 -1.78266 0
M  V30 982 C 83.8616 -2.71488 -2.32441 0
M  V30 983 C 83.6906 -4.13308 -1.77218 0
M  V30 984 C 82.4606 -4.79955 -1.58023 0
M  V30 985 C 84.6586 -4.98176 -1.27772 0
M  V30 986 N 82.6406 -6.06052 -0.978465 0
M  V30 987 C 84.0116 -6.14843 -0.798 0
M  V30 988 C 86.0666 -4.84091 -1.16449 0
M  V30 989 C 84.7696 -7.18975 -0.216245 0
M  V30 990 C 86.7956 -5.88382 -0.596698 0
M  V30 991 C 86.1576 -7.04285 -0.127262 0
M  V30 992 H 82.2566 -0.643611 -0.444172 0
M  V30 993 H 84.8406 -1.86842 -0.54754 0
M  V30 994 H 83.0116 -2.47449 -2.99372 0
M  V30 995 H 84.7436 -2.72205 -2.99477 0
M  V30 996 H 81.4986 -4.36936 -1.82712 0
M  V30 997 H 81.9226 -6.73407 -0.696534 0
M  V30 998 H 86.5646 -3.94786 -1.5134 0
M  V30 999 H 84.2826 -8.0797 0.144903 0
M  V30 1000 H 87.8686 -5.79545 -0.511716 0
M  V30 1001 H 86.7486 -7.83606 0.30523 0
M  V30 1002 N 84.2517 0.741722 -1.39055 0
M  V30 1003 C 85.6677 1.04638 -1.20512 0
M  V30 1004 C 85.8677 2.01405 -0.0620218 0
M  V30 1005 O 84.9237 2.45547 0.588457 0
M  V30 1006 C 86.2367 1.6151 -2.53643 0
M  V30 1007 C 87.7847 1.73623 -2.6043 0
M  V30 1008 C 88.2597 2.33906 -3.93767 0
M  V30 1009 N 89.7507 2.41323 -3.9537 0
M  V30 1010 C 90.4857 2.88888 -4.95309 0
M  V30 1011 N 89.9817 3.36401 -6.05645 0
M  V30 1012 N 91.7747 2.88037 -4.82692 0
M  V30 1013 H 83.9257 0.0998155 -2.12165 0
M  V30 1014 H 86.1887 0.106907 -0.941953 0
M  V30 1015 H 85.8947 0.978739 -3.37807 0
M  V30 1016 H 85.7687 2.60411 -2.72885 0
M  V30 1017 H 88.1557 2.36384 -1.76655 0
M  V30 1018 H 88.2367 0.733945 -2.45045 0
M  V30 1019 H 87.8807 1.71776 -4.7797 0
M  V30 1020 H 87.8107 3.34799 -4.06469 0
M  V30 1021 H 90.3017 2.07734 -3.15682 0
M  V30 1022 H 90.6147 3.71186 -6.77821 0
M  V30 1023 H 88.9597 3.34427 -6.09248 0
M  V30 1024 H 92.1507 2.50237 -3.95599 0
M  V30 1025 H 92.3237 3.24792 -5.60726 0
M  V30 1026 N 85.7298 1.2412 0.971189 0
M  V30 1027 C 86.6768 1.0305 2.06517 0
M  V30 1028 C 87.6468 -0.0550666 1.66009 0
M  V30 1029 O 88.8318 0.0988688 1.90544 0
M  V30 1030 C 85.9718 0.637653 3.39158 0
M  V30 1031 C 85.0848 1.79633 3.92882 0
M  V30 1032 C 84.2198 1.34939 5.13775 0
M  V30 1033 C 83.2588 2.47823 5.59687 0
M  V30 1034 N 82.3958 2.04022 6.71803 0
M  V30 1035 H 87.2358 1.96685 2.23873 0
M  V30 1036 H 84.7728 0.979694 1.09729 0
M  V30 1037 H 86.7308 0.390931 4.15364 0
M  V30 1038 H 85.3608 -0.261693 3.21737 0
M  V30 1039 H 84.4128 2.15681 3.13346 0
M  V30 1040 H 85.7248 2.64466 4.22918 0
M  V30 1041 H 84.8788 1.06134 5.97345 0
M  V30 1042 H 83.6178 0.471557 4.85415 0
M  V30 1043 H 82.6228 2.77392 4.74693 0
M  V30 1044 H 83.8478 3.36158 5.90063 0
M  V30 1045 H 81.7938 1.18632 6.45184 0
M  V30 1046 H 81.7108 2.82409 7.01271 0
M  V30 1047 H 82.9788 1.78347 7.58823 0
M  V30 1048 N 87.2079 -1.17134 1.05439 0
M  V30 1049 C 88.1409 -2.2012 0.601855 0
M  V30 1050 C 89.1189 -1.58314 -0.370854 0
M  V30 1051 O 90.3029 -1.8638 -0.281882 0
M  V30 1052 C 87.4299 -3.38491 -0.118868 0
M  V30 1053 C 86.4759 -4.18752 0.809242 0
M  V30 1054 S 87.3089 -4.83602 2.29977 0
M  V30 1055 C 88.4649 -6.0536 1.59029 0
M  V30 1056 H 88.6979 -2.58165 1.47438 0
M  V30 1057 H 86.2309 -1.27788 0.866573 0
M  V30 1058 H 88.1889 -4.07084 -0.528495 0
M  V30 1059 H 86.8499 -2.98829 -0.967465 0
M  V30 1060 H 86.0429 -5.03373 0.251379 0
M  V30 1061 H 85.6449 -3.5561 1.15835 0
M  V30 1062 H 87.9369 -6.71615 0.891017 0
M  V30 1063 H 88.8799 -6.65679 2.41407 0
M  V30 1064 H 89.2879 -5.54138 1.07663 0
M  V30 1065 N 88.686 -0.835752 -1.33615 0
M  V30 1066 C 89.932 -0.430596 -1.98176 0
M  V30 1067 C 90.265 1.00684 -1.66061 0
M  V30 1068 O 89.54 1.70339 -0.938877 0
M  V30 1069 C 89.823 -0.648065 -3.5422 0
M  V30 1070 C 89.676 -2.13255 -3.96033 0
M  V30 1071 C 90.995 -0.0922113 -4.40003 0
M  V30 1072 H 88.114 -0.157924 -0.719881 0
M  V30 1073 H 90.756 -1.05069 -1.58305 0
M  V30 1074 H 88.906 -0.120237 -3.88314 0
M  V30 1075 H 90.578 -2.725 -3.72211 0
M  V30 1076 H 88.821 -2.61823 -3.45878 0
M  V30 1077 H 89.492 -2.23547 -5.04708 0
M  V30 1078 H 91.968 -0.543343 -4.12537 0
M  V30 1079 H 90.844 -0.274083 -5.48215 0
M  V30 1080 H 91.105 1.00378 -4.30554 0
M  V30 1081 N 90.1641 1.46063 -0.591896 0
M  V30 1082 C 91.1141 2.27458 0.157172 0
M  V30 1083 C 92.0981 1.3641 0.853301 0
M  V30 1084 O 93.2901 1.60517 0.74588 0
M  V30 1085 C 90.4191 3.22956 1.16423 0
M  V30 1086 C 89.5051 4.2149 0.469742 0
M  V30 1087 N 89.8961 5.03519 -0.479839 0
M  V30 1088 C 88.1941 4.40161 0.719319 0
M  V30 1089 C 88.8951 5.74904 -0.886591 0
M  V30 1090 N 87.8711 5.43097 -0.233731 0
M  V30 1091 H 91.6731 2.88272 -0.572392 0
M  V30 1092 H 89.1871 1.57024 -0.414375 0
M  V30 1093 H 91.1841 3.79986 1.71513 0
M  V30 1094 H 89.8441 2.63701 1.89451 0
M  V30 1095 H 90.8551 5.1078 -0.855823 0
M  V30 1096 H 87.5321 3.92046 1.43548 0
M  V30 1097 H 88.9221 6.50844 -1.66888 0
M  V30 1098 N 91.6422 0.330177 1.54103 0
M  V30 1099 C 92.8902 -0.269871 2.0029 0
M  V30 1100 C 93.2112 -1.52133 1.21986 0
M  V30 1101 O 92.4812 -1.93212 0.323438 0
M  V30 1102 H 91.0612 -0.10271 0.739905 0
M  V30 1103 H 93.7232 0.448249 1.89675 0
M  V30 1104 H 92.8192 -0.52166 3.07709 0
M  V30 1105 N 93.1203 -1.57491 0.0584922 0
M  V30 1106 C 94.3663 -1.93264 -0.614558 0
M  V30 1107 C 94.6993 -0.937717 -1.7006 0
M  V30 1108 O 93.9743 0.0351652 -1.94468 0
M  V30 1109 C 94.2573 -3.3938 -1.20386 0
M  V30 1110 C 94.1103 -4.49625 -0.125375 0
M  V30 1111 C 95.4293 -3.86039 -2.11334 0
M  V30 1112 H 92.5483 -0.702791 -0.221933 0
M  V30 1113 H 95.1903 -1.8961 0.12175 0
M  V30 1114 H 93.3403 -3.42626 -1.83139 0
M  V30 1115 H 95.0123 -4.58506 0.506971 0
M  V30 1116 H 93.2553 -4.30354 0.545672 0
M  V30 1117 H 93.9263 -5.48967 -0.577861 0
M  V30 1118 H 96.4023 -3.84716 -1.58534 0
M  V30 1119 H 95.2783 -4.88914 -2.49507 0
M  V30 1120 H 95.5393 -3.23215 -3.01636 0
M  V30 1121 N 94.5984 0.214957 -1.56127 0
M  V30 1122 C 95.8284 0.953707 -1.8327 0
M  V30 1123 C 96.2364 1.78181 -0.636262 0
M  V30 1124 O 95.5794 1.79191 0.404516 0
M  V30 1125 C 95.6414 1.91516 -3.0424 0
M  V30 1126 C 95.3054 1.27094 -4.38972 0
M  V30 1127 C 96.3024 0.657575 -5.15725 0
M  V30 1128 C 93.9874 1.28073 -4.85698 0
M  V30 1129 C 95.9814 0.0625968 -6.37369 0
M  V30 1130 C 93.6684 0.681914 -6.07283 0
M  V30 1131 C 94.6664 0.0739046 -6.8296 0
M  V30 1132 O 94.3544 -0.515582 -8.02245 0
M  V30 1133 H 94.0864 0.284764 -0.613095 0
M  V30 1134 H 96.6404 0.233283 -2.04071 0
M  V30 1135 H 94.8704 2.67475 -2.79274 0
M  V30 1136 H 96.5594 2.52001 -3.18198 0
M  V30 1137 H 97.3254 0.642288 -4.80728 0
M  V30 1138 H 93.2044 1.74337 -4.26764 0
M  V30 1139 H 96.7484 -0.412593 -6.96379 0
M  V30 1140 H 92.6454 0.694636 -6.41752 0
M  V30 1141 H 93.4134 -0.410544 -8.1747 0
M  V30 1142 N 96.0765 1.50051 0.48192 0
M  V30 1143 C 97.0235 1.68122 1.58125 0
M  V30 1144 C 97.9935 0.522545 1.57666 0
M  V30 1145 O 99.1785 0.751844 1.75362 0
M  V30 1146 C 96.3185 1.77142 2.96167 0
M  V30 1147 C 95.4315 3.0444 3.06497 0
M  V30 1148 C 94.5665 3.04321 4.35387 0
M  V30 1149 C 93.6055 4.26118 4.3942 0
M  V30 1150 N 92.7425 4.238 5.59766 0
M  V30 1151 H 97.5825 2.6198 1.42022 0
M  V30 1152 H 95.1195 1.29877 0.690687 0
M  V30 1153 H 97.0775 1.80352 3.76203 0
M  V30 1154 H 95.7075 0.867329 3.1093 0
M  V30 1155 H 94.7595 3.10752 2.19402 0
M  V30 1156 H 96.0715 3.94426 3.05336 0
M  V30 1157 H 95.2255 3.062 5.23762 0
M  V30 1158 H 93.9645 2.12147 4.39141 0
M  V30 1159 H 92.9695 4.24463 3.49444 0
M  V30 1160 H 94.1945 5.19507 4.37366 0
M  V30 1161 H 92.1405 3.34474 5.64326 0
M  V30 1162 H 92.0575 5.07542 5.60301 0
M  V30 1163 H 93.3255 4.2981 6.50295 0
M  V30 1164 N 97.5546 -0.734337 1.39446 0
M  V30 1165 C 98.5016 -1.84835 1.38219 0
M  V30 1166 C 99.4716 -1.64331 0.24179 0
M  V30 1167 O 100.657 -1.85728 0.437002 0
M  V30 1168 C 97.7966 -3.22355 1.23212 0
M  V30 1169 C 96.9096 -3.5456 2.46801 0
M  V30 1170 C 96.0446 -4.81485 2.24377 0
M  V30 1171 C 95.0836 -5.06536 3.43639 0
M  V30 1172 N 94.2206 -6.24665 3.20528 0
M  V30 1173 H 99.0606 -1.85219 2.33448 0
M  V30 1174 H 96.5976 -0.905039 1.15963 0
M  V30 1175 H 98.5556 -4.0174 1.12522 0
M  V30 1176 H 97.1856 -3.21248 0.316121 0
M  V30 1177 H 96.2376 -2.69872 2.68092 0
M  V30 1178 H 97.5496 -3.6899 3.3563 0
M  V30 1179 H 96.7036 -5.68852 2.10933 0
M  V30 1180 H 95.4426 -4.6923 1.32944 0
M  V30 1181 H 94.4476 -4.17632 3.5758 0
M  V30 1182 H 95.6726 -5.20676 4.35974 0
M  V30 1183 H 93.6186 -6.13696 2.3176 0
M  V30 1184 H 93.5356 -6.39685 4.02913 0
M  V30 1185 H 94.8036 -7.14868 3.10779 0
M  V30 1186 N 99.0327 -1.24633 -0.964593 0
M  V30 1187 C 100.258 -1.11596 -1.74818 0
M  V30 1188 C 100.683 0.32723 -1.85232 0
M  V30 1189 O 100.041 1.23695 -1.32549 0
M  V30 1190 C 100.089 -1.76397 -3.1451 0
M  V30 1191 O 99.1927 -1.03685 -3.99153 0
M  V30 1192 H 98.5337 -0.390196 -0.537255 0
M  V30 1193 H 101.064 -1.65002 -1.20977 0
M  V30 1194 H 101.074 -1.8228 -3.65018 0
M  V30 1195 H 99.7487 -2.81401 -3.06246 0
M  V30 1196 H 98.3257 -1.05611 -3.57632 0
M  V30 1197 N 100.511 1.16574 -1.06058 0
M  V30 1198 C 101.76 1.86385 -0.770944 0
M  V30 1199 C 102.073 1.82448 0.705129 0
M  V30 1200 O 103.279 2.47815 1.10905 0
M  V30 1201 C 101.735 3.34466 -1.32893 0
M  V30 1202 C 101.343 3.46883 -2.83507 0
M  V30 1203 C 103.087 4.09548 -1.11672 0
M  V30 1204 C 100.994 4.89036 -3.32562 0
M  V30 1205 H 99.9238 0.698181 -0.284709 0
M  V30 1206 H 102.575 1.31583 -1.27899 0
M  V30 1207 H 100.957 3.88859 -0.748662 0
M  V30 1208 H 102.131 3.02663 -3.47465 0
M  V30 1209 H 100.446 2.85232 -3.03368 0
M  V30 1210 H 103.043 5.14434 -1.45814 0
M  V30 1211 H 103.386 4.16264 -0.0549535 0
M  V30 1212 H 103.919 3.61387 -1.66265 0
M  V30 1213 H 100.658 4.87499 -4.38207 0
M  V30 1214 H 100.178 5.3389 -2.73351 0
M  V30 1215 H 101.857 5.57843 -3.2775 0
M  V30 1216 N 101.989 0.842826 1.3317 0
M  V30 1217 C 103.236 0.440447 1.97652 0
M  V30 1218 C 103.564 -1.00123 1.6675 0
M  V30 1219 O 102.819 -1.7155 0.941761 0
M  V30 1220 C 103.118 0.612607 3.52111 0
M  V30 1221 C 102.784 2.02297 4.02972 0
M  V30 1222 C 101.446 2.40874 4.16573 0
M  V30 1223 C 103.798 2.94402 4.30089 0
M  V30 1224 C 101.126 3.70852 4.54627 0
M  V30 1225 C 103.478 4.23865 4.69597 0
M  V30 1226 C 102.142 4.62392 4.81404 0
M  V30 1227 H 101.412 0.161171 0.72326 0
M  V30 1228 H 104.059 1.07061 1.58777 0
M  V30 1229 H 102.364 -0.100849 3.9167 0
M  V30 1230 H 104.061 0.2815 4.00011 0
M  V30 1231 H 100.651 1.71338 3.92863 0
M  V30 1232 H 104.835 2.65835 4.19101 0
M  V30 1233 H 100.091 4.00501 4.61962 0
M  V30 1234 H 104.265 4.95306 4.89536 0
M  V30 1235 H 101.892 5.63154 5.10648 0
M  V30 1236 N 103.467 -1.45747 0.599634 0
M  V30 1237 C 104.713 -2.02592 0.0918643 0
M  V30 1238 C 105.046 -1.46806 -1.27128 0
M  V30 1239 O 104.321 -0.639658 -1.83681 0
M  V30 1240 C 104.604 -3.60073 0.0443398 0
M  V30 1241 C 104.457 -4.26208 1.43759 0
M  V30 1242 C 105.776 -4.35309 -0.647608 0
M  V30 1243 H 102.895 -0.736175 0.034857 0
M  V30 1244 H 105.537 -1.73694 0.770081 0
M  V30 1245 H 103.687 -3.84823 -0.533224 0
M  V30 1246 H 105.359 -4.12668 2.06162 0
M  V30 1247 H 103.602 -3.84916 2.00056 0
M  V30 1248 H 104.273 -5.35069 1.35665 0
M  V30 1249 H 106.749 -4.15805 -0.156776 0
M  V30 1250 H 105.625 -5.45038 -0.649942 0
M  V30 1251 H 105.886 -4.07598 -1.71219 0
M  V30 1252 N 104.945 -0.338344 -1.53925 0
M  V30 1253 C 106.192 0.259758 -2.00827 0
M  V30 1254 C 106.52 1.50973 -1.22628 0
M  V30 1255 O 105.775 1.93379 -0.300509 0
M  V30 1256 C 106.074 0.62448 -3.51902 0
M  V30 1257 C 105.74 -0.528006 -4.47798 0
M  V30 1258 C 104.402 -0.844298 -4.73735 0
M  V30 1259 C 106.754 -1.30143 -5.0469 0
M  V30 1260 C 104.082 -1.93648 -5.53821 0
M  V30 1261 C 106.434 -2.38382 -5.85967 0
M  V30 1262 C 105.098 -2.70576 -6.10201 0
M  V30 1263 H 104.368 0.0950523 -0.734878 0
M  V30 1264 H 107.015 -0.465182 -1.85764 0
M  V30 1265 H 105.32 1.43006 -3.64769 0
M  V30 1266 H 107.017 1.09905 -3.85645 0
M  V30 1267 H 103.607 -0.271421 -4.2774 0
M  V30 1268 H 107.791 -1.07033 -4.84621 0
M  V30 1269 H 103.047 -2.19021 -5.70824 0
M  V30 1270 H 107.221 -2.98746 -6.29066 0
M  V30 1271 H 104.848 -3.55333 -6.72044 0
M  V30 1272 N 106.423 1.57458 -0.0668435 0
M  V30 1273 C 107.651 1.97624 0.612565 0
M  V30 1274 C 108.066 0.94502 1.63447 0
M  V30 1275 O 107.423 -0.0689276 1.8237 0
M  V30 1276 C 107.474 3.37869 1.28555 0
M  V30 1277 O 107.195 4.3704 0.304557 0
M  V30 1278 C 108.696 3.92882 2.05325 0
M  V30 1279 H 105.916 0.650045 0.166381 0
M  V30 1280 H 108.46 2.04035 -0.137782 0
M  V30 1281 H 106.615 3.3256 1.98702 0
M  V30 1282 H 107.029 5.18565 0.786779 0
M  V30 1283 H 108.503 4.93247 2.47812 0
M  V30 1284 H 108.98 3.29156 2.9078 0
M  V30 1285 H 109.586 4.01577 1.40056 0
M  V30 1286 N 107.901 -0.206675 1.56239 0
M  V30 1287 C 108.851 -1.26 1.90021 0
M  V30 1288 C 109.835 -1.41566 0.764721 0
M  V30 1289 O 111.027 -1.44131 1.02739 0
M  V30 1290 C 108.156 -2.6073 2.23326 0
M  V30 1291 C 107.242 -2.49005 3.43304 0
M  V30 1292 N 107.633 -2.06946 4.61527 0
M  V30 1293 C 105.931 -2.79927 3.47213 0
M  V30 1294 C 106.632 -2.06832 5.43687 0
M  V30 1295 N 105.608 -2.47892 4.83788 0
M  V30 1296 H 109.41 -0.925955 2.78932 0
M  V30 1297 H 106.924 -0.415172 1.57003 0
M  V30 1298 H 108.921 -3.36798 2.45708 0
M  V30 1299 H 107.581 -2.94968 1.35735 0
M  V30 1300 H 108.592 -1.77839 4.86409 0
M  V30 1301 H 105.269 -3.18438 2.70006 0
M  V30 1302 H 106.659 -1.76312 6.48354 0
M  V30 1303 N 109.379 -1.50304 -0.473955 0
M  V30 1304 C 110.625 -1.61389 -1.22806 0
M  V30 1305 C 110.958 -0.311955 -1.91678 0
M  V30 1306 O 110.233 0.686384 -1.81986 0
M  V30 1307 C 110.516 -2.79219 -2.27396 0
M  V30 1308 C 110.369 -4.19286 -1.62848 0
M  V30 1309 C 111.688 -2.92614 -3.28732 0
M  V30 1310 H 108.807 -0.587399 -0.445119 0
M  V30 1311 H 111.449 -1.82681 -0.522265 0
M  V30 1312 H 109.599 -2.61195 -2.87592 0
M  V30 1313 H 111.271 -4.48892 -1.06271 0
M  V30 1314 H 109.514 -4.23677 -0.931693 0
M  V30 1315 H 110.185 -4.97655 -2.38838 0
M  V30 1316 H 112.661 -3.09105 -2.78556 0
M  V30 1317 H 111.537 -3.76688 -3.99246 0
M  V30 1318 H 111.798 -2.03107 -3.92683 0
M  V30 1319 N 110.857 0.726932 -1.39834 0
M  V30 1320 C 111.787 1.85405 -1.41941 0
M  V30 1321 C 112.768 1.67751 -0.281728 0
M  V30 1322 O 113.953 1.8795 -0.488717 0
M  V30 1323 C 111.083 3.23243 -1.2701 0
M  V30 1324 C 110.037 3.55549 -2.38262 0
M  V30 1325 C 109.363 4.9241 -2.08415 0
M  V30 1326 C 110.663 3.577 -3.80589 0
M  V30 1327 H 112.357 1.83899 -2.36266 0
M  V30 1328 H 109.903 0.883349 -1.13723 0
M  V30 1329 H 111.856 4.01775 -1.27103 0
M  V30 1330 H 110.58 3.25296 -0.291564 0
M  V30 1331 H 109.239 2.79351 -2.37399 0
M  V30 1332 H 108.887 4.91052 -1.0898 0
M  V30 1333 H 108.587 5.14992 -2.82943 0
M  V30 1334 H 110.111 5.73289 -2.10171 0
M  V30 1335 H 111.525 4.26293 -3.83337 0
M  V30 1336 H 109.922 3.91804 -4.54543 0
M  V30 1337 H 110.992 2.57328 -4.10987 0
M  V30 1338 N 112.336 1.25143 0.95797 0
M  V30 1339 C 113.582 1.09855 1.70469 0
M  V30 1340 C 113.915 -0.360187 1.90831 0
M  V30 1341 O 113.19 -1.26568 1.47685 0
M  V30 1342 C 113.473 1.8497 3.08963 0
M  V30 1343 C 113.326 3.38652 2.96032 0
M  V30 1344 C 114.645 1.63016 4.08795 0
M  V30 1345 H 111.764 0.400465 0.618706 0
M  V30 1346 H 114.406 1.53933 1.11376 0
M  V30 1347 H 112.556 1.47505 3.59409 0
M  V30 1348 H 114.228 3.85772 2.52938 0
M  V30 1349 H 112.471 3.66534 2.32025 0
M  V30 1350 H 113.142 3.8642 3.94187 0
M  V30 1351 H 115.618 1.95625 3.67247 0
M  V30 1352 H 114.494 2.18015 5.03747 0
M  V30 1353 H 114.755 0.570692 4.38401 0
M  V30 1354 N 113.814 -1.1601 1.06675 0
M  V30 1355 C 115.225 -1.68235 0.809565 0
M  V30 1356 C 115.576 -1.8454 -0.666303 0
M  V30 1357 O 114.701 -1.54374 -1.5165 0
M  V30 1358 C 115.296 -3.05585 1.46299 0
M  V30 1359 C 113.855 -3.54915 1.25349 0
M  V30 1360 C 113.002 -2.30804 1.53703 0
M  V30 1361 H 115.953 -1.00318 1.22971 0
M  V30 1362 H 115.974 -3.70174 0.880431 0
M  V30 1363 H 115.486 -2.93686 2.53713 0
M  V30 1364 H 113.587 -3.72067 0.199261 0
M  V30 1365 H 113.7 -4.36774 1.9689 0
M  V30 1366 H 112.064 -2.36007 0.957739 0
M  V30 1367 H 112.847 -2.21499 2.62284 0
M  V30 1368 N 115.292 -0.849877 -1.32721 0
M  V30 1369 C 116.538 -0.451591 -1.97708 0
M  V30 1370 C 116.871 0.989175 -1.6712 0
M  V30 1371 O 116.146 1.69334 -0.956891 0
M  V30 1372 C 116.429 -0.685598 -3.53513 0
M  V30 1373 C 116.282 -2.17444 -3.93749 0
M  V30 1374 C 117.601 -0.138874 -4.39881 0
M  V30 1375 H 114.72 -0.16555 -0.718166 0
M  V30 1376 H 117.362 -1.06742 -1.57182 0
M  V30 1377 H 115.512 -0.161416 -3.88165 0
M  V30 1378 H 117.184 -2.76433 -3.693 0
M  V30 1379 H 115.427 -2.65476 -3.43081 0
M  V30 1380 H 116.098 -2.28888 -5.02309 0
M  V30 1381 H 118.574 -0.587068 -4.11938 0
M  V30 1382 H 117.45 -0.332213 -5.47894 0
M  V30 1383 H 117.711 0.95806 -4.31594 0
M  V30 1384 N 116.77 1.45427 -0.607355 0
M  V30 1385 C 118.016 2.03097 -0.111035 0
M  V30 1386 C 118.371 1.46735 1.24445 0
M  V30 1387 O 117.664 0.632478 1.8086 0
M  V30 1388 C 117.858 3.57398 -0.0129263 0
M  V30 1389 C 117.687 4.28726 -1.35735 0
M  V30 1390 C 116.457 4.66659 -1.93798 0
M  V30 1391 C 118.655 4.60699 -2.28607 0
M  V30 1392 N 116.637 5.22845 -3.21723 0
M  V30 1393 C 118.008 5.17716 -3.41131 0
M  V30 1394 C 120.063 4.42638 -2.27982 0
M  V30 1395 C 118.766 5.58576 -4.53194 0
M  V30 1396 C 120.792 4.84531 -3.39093 0
M  V30 1397 C 120.154 5.4164 -4.50339 0
M  V30 1398 H 116.253 0.777476 -0.083994 0
M  V30 1399 H 118.837 1.77249 -0.805655 0
M  V30 1400 H 117.008 3.82907 0.650914 0
M  V30 1401 H 118.74 4.01722 0.490033 0
M  V30 1402 H 115.495 4.50207 -1.47007 0
M  V30 1403 H 115.919 5.55438 -3.87063 0
M  V30 1404 H 120.561 3.97798 -1.43235 0
M  V30 1405 H 118.279 6.02382 -5.38667 0
M  V30 1406 H 121.865 4.72289 -3.39757 0
M  V30 1407 H 120.745 5.73461 -5.34895 0
M  V30 1408 N 118.248 0.346503 1.53744 0
M  V30 1409 C 119.497 -0.250122 2.00143 0
M  V30 1410 C 119.81 -1.51418 1.23822 0
M  V30 1411 O 121.016 -2.18823 1.60713 0
M  V30 1412 C 119.472 -0.496252 3.56462 0
M  V30 1413 C 119.08 0.752077 4.41642 0
M  V30 1414 C 120.824 -1.05157 4.11269 0
M  V30 1415 C 118.731 0.476583 5.89477 0
M  V30 1416 H 117.661 -0.0972409 0.747703 0
M  V30 1417 H 120.312 0.46229 1.77581 0
M  V30 1418 H 118.694 -1.26944 3.75102 0
M  V30 1419 H 119.868 1.5266 4.34778 0
M  V30 1420 H 118.183 1.22925 3.97842 0
M  V30 1421 H 120.78 -1.27269 5.19333 0
M  V30 1422 H 121.123 -2.00799 3.64672 0
M  V30 1423 H 121.656 -0.339019 3.96353 0
M  V30 1424 H 118.395 1.4028 6.40314 0
M  V30 1425 H 117.915 -0.259794 5.99237 0
M  V30 1426 H 119.594 0.0949315 6.4693 0
M  V30 1427 N 119.726 -1.57421 0.075193 0
M  V30 1428 C 120.975 -1.92794 -0.592731 0
M  V30 1429 C 121.288 -0.957478 -1.70563 0
M  V30 1430 O 122.494 -1.20417 -2.43335 0
M  V30 1431 C 120.95 -3.42495 -1.10569 0
M  V30 1432 C 120.558 -4.47994 -0.0236121 0
M  V30 1433 C 122.302 -3.86864 -1.74748 0
M  V30 1434 C 120.209 -5.88829 -0.550803 0
M  V30 1435 H 119.139 -0.719591 -0.225177 0
M  V30 1436 H 121.79 -1.82902 0.147978 0
M  V30 1437 H 120.172 -3.47471 -1.89947 0
M  V30 1438 H 121.346 -4.54637 0.751099 0
M  V30 1439 H 119.661 -4.13113 0.522159 0
M  V30 1440 H 122.258 -4.8947 -2.15229 0
M  V30 1441 H 122.601 -3.24417 -2.60882 0
M  V30 1442 H 123.134 -3.84504 -1.01986 0
M  V30 1443 H 119.873 -6.54929 0.273457 0
M  V30 1444 H 119.393 -5.85698 -1.29296 0
M  V30 1445 H 121.072 -6.38811 -1.02613 0
M  V30 1446 N 121.204 0.198386 -1.56346 0
M  V30 1447 C 122.154 1.2499 -1.90687 0
M  V30 1448 C 123.138 1.41158 -0.772217 0
M  V30 1449 O 124.33 1.43584 -1.03502 0
M  V30 1450 C 121.459 2.59542 -2.24706 0
M  V30 1451 C 120.545 2.47181 -3.44619 0
M  V30 1452 N 120.936 2.04495 -4.62618 0
M  V30 1453 C 119.234 2.78082 -3.48692 0
M  V30 1454 C 119.935 2.03945 -5.44776 0
M  V30 1455 N 118.911 2.45323 -4.85095 0
M  V30 1456 H 122.713 0.911149 -2.7942 0
M  V30 1457 H 120.227 0.40684 -1.57221 0
M  V30 1458 H 122.224 3.3549 -2.47491 0
M  V30 1459 H 120.884 2.94244 -1.37298 0
M  V30 1460 H 121.895 1.75256 -4.87345 0
M  V30 1461 H 118.572 3.17002 -2.71691 0
M  V30 1462 H 119.962 1.72872 -6.4928 0
M  V30 1463 N 122.682 1.50554 0.465978 0
M  V30 1464 C 123.912 1.65323 1.23903 0
M  V30 1465 C 124.32 0.338051 1.86155 0
M  V30 1466 O 123.663 -0.690518 1.70228 0
M  V30 1467 C 123.725 2.69048 2.3844 0
M  V30 1468 C 123.389 4.12462 1.96784 0
M  V30 1469 C 124.386 4.98168 1.48745 0
M  V30 1470 C 122.071 4.58407 2.05349 0
M  V30 1471 C 124.065 6.27868 1.0982 0
M  V30 1472 C 121.752 5.88112 1.66035 0
M  V30 1473 C 122.75 6.72668 1.18349 0
M  V30 1474 O 122.438 7.99951 0.795825 0
M  V30 1475 H 122.17 0.558629 0.38067 0
M  V30 1476 H 124.724 1.97561 0.562022 0
M  V30 1477 H 122.954 2.32062 3.09328 0
M  V30 1478 H 124.643 2.72985 3.0039 0
M  V30 1479 H 125.409 4.63885 1.41546 0
M  V30 1480 H 121.288 3.92735 2.41414 0
M  V30 1481 H 124.832 6.93819 0.725293 0
M  V30 1482 H 120.729 6.21914 1.72895 0
M  V30 1483 H 121.497 8.13265 0.924222 0
M  V30 1484 N 124.16 -0.719506 1.40217 0
M  V30 1485 C 125.39 -1.50646 1.41384 0
M  V30 1486 C 125.798 -1.89197 0.0107743 0
M  V30 1487 O 125.141 -1.55709 -0.974708 0
M  V30 1488 C 125.203 -2.81405 2.23722 0
M  V30 1489 C 124.867 -2.65199 3.72181 0
M  V30 1490 C 125.864 -2.32717 4.64907 0
M  V30 1491 C 123.549 -2.81586 4.1595 0
M  V30 1492 C 125.543 -2.16827 5.99387 0
M  V30 1493 C 123.23 -2.65313 5.50502 0
M  V30 1494 C 124.228 -2.32981 6.42035 0
M  V30 1495 O 123.916 -2.16827 7.74107 0
M  V30 1496 H 123.648 -0.471606 0.484318 0
M  V30 1497 H 126.202 -0.895456 1.84853 0
M  V30 1498 H 124.432 -3.44823 1.75026 0
M  V30 1499 H 126.121 -3.43102 2.16878 0
M  V30 1500 H 126.887 -2.19694 4.32388 0
M  V30 1501 H 122.766 -3.0574 3.45027 0
M  V30 1502 H 126.31 -1.91513 6.70797 0
M  V30 1503 H 122.207 -2.7792 5.82607 0
M  V30 1504 H 122.975 -2.31778 7.84998 0
M  V30 1505 N 125.638 -1.25649 -0.95132 0
M  V30 1506 C 126.571 -1.00644 -2.04807 0
M  V30 1507 C 127.549 0.0654271 -1.62468 0
M  V30 1508 O 128.733 -0.074911 -1.88351 0
M  V30 1509 C 125.86 -0.522052 -3.34653 0
M  V30 1510 C 124.906 -1.58495 -3.95957 0
M  V30 1511 S 125.739 -3.17108 -4.31512 0
M  V30 1512 C 126.895 -2.70412 -5.64471 0
M  V30 1513 H 127.128 -1.93508 -2.25703 0
M  V30 1514 H 124.661 -1.09216 -1.09139 0
M  V30 1515 H 126.619 -0.24923 -4.09743 0
M  V30 1516 H 125.28 0.386146 -3.11717 0
M  V30 1517 H 124.473 -1.1968 -4.89584 0
M  V30 1518 H 124.075 -1.80862 -3.2736 0
M  V30 1519 H 126.367 -2.14245 -6.42733 0
M  V30 1520 H 127.31 -3.62693 -6.08161 0
M  V30 1521 H 127.718 -2.10302 -5.23864 0
M  V30 1522 N 127.117 1.15442 -1.07289 0
M  V30 1523 C 128.064 2.20161 -0.692653 0
M  V30 1524 C 129.034 1.63073 0.31564 0
M  V30 1525 O 130.219 1.89725 0.202235 0
M  V30 1526 C 127.359 3.44967 -0.0959509 0
M  V30 1527 C 126.472 4.16256 -1.15564 0
M  V30 1528 C 125.607 5.28609 -0.524011 0
M  V30 1529 C 124.646 5.91715 -1.56653 0
M  V30 1530 N 123.783 6.9554 -0.957531 0
M  V30 1531 H 128.623 2.52037 -1.59002 0
M  V30 1532 H 126.16 1.2378 -0.794798 0
M  V30 1533 H 128.118 4.16341 0.267628 0
M  V30 1534 H 126.748 3.1361 0.764772 0
M  V30 1535 H 125.8 3.43385 -1.6368 0
M  V30 1536 H 127.112 4.59268 -1.94613 0
M  V30 1537 H 126.266 6.06604 -0.108032 0
M  V30 1538 H 125.005 4.86787 0.29825 0
M  V30 1539 H 124.01 5.12433 -1.9923 0
M  V30 1540 H 125.235 6.35614 -2.39107 0
M  V30 1541 H 123.181 6.55814 -0.156162 0
M  V30 1542 H 123.098 7.36977 -1.68526 0
M  V30 1543 H 124.366 7.77435 -0.567032 0
M  V30 1544 N 128.595 0.856903 1.32268 0
M  V30 1545 C 129.825 0.47475 2.01071 0
M  V30 1546 C 130.233 -0.933746 1.64553 0
M  V30 1547 O 129.576 -1.62114 0.863989 0
M  V30 1548 C 129.638 0.536746 3.55471 0
M  V30 1549 C 129.302 1.90453 4.15423 0
M  V30 1550 C 130.299 2.87029 4.33486 0
M  V30 1551 C 127.984 2.20229 4.51447 0
M  V30 1552 C 129.978 4.11532 4.86744 0
M  V30 1553 C 127.665 3.44984 5.0441 0
M  V30 1554 C 128.663 4.40452 5.22007 0
M  V30 1555 O 128.351 5.62998 5.73837 0
M  V30 1556 H 128.083 0.184778 0.650256 0
M  V30 1557 H 130.637 1.15615 1.69771 0
M  V30 1558 H 128.867 -0.20152 3.86175 0
M  V30 1559 H 130.556 0.169875 4.05544 0
M  V30 1560 H 131.322 2.6533 4.05986 0
M  V30 1561 H 127.201 1.46705 4.37034 0
M  V30 1562 H 130.745 4.86056 5.00395 0
M  V30 1563 H 126.642 3.66532 5.31342 0
M  V30 1564 H 127.41 5.64987 5.92226 0
M  V30 1565 N 130.073 -1.45103 0.615059 0
M  V30 1566 C 131.023 -2.27679 -0.120966 0
M  V30 1567 C 132.007 -1.3775 -0.831491 0
M  V30 1568 O 133.199 -1.61683 -0.720249 0
M  V30 1569 C 130.328 -3.24767 -1.1127 0
M  V30 1570 C 129.414 -4.22184 -0.402627 0
M  V30 1571 N 129.805 -5.02692 0.559884 0
M  V30 1572 C 128.103 -4.4125 -0.649202 0
M  V30 1573 C 128.804 -5.73421 0.977942 0
M  V30 1574 N 127.78 -5.42657 0.320104 0
M  V30 1575 H 131.582 -2.87325 0.618181 0
M  V30 1576 H 129.096 -1.56345 0.439304 0
M  V30 1577 H 131.093 -3.82666 -1.65446 0
M  V30 1578 H 129.753 -2.66682 -1.85232 0
M  V30 1579 H 130.764 -5.09354 0.936976 0
M  V30 1580 H 127.441 -3.9428 -1.37293 0
M  V30 1581 H 128.831 -6.48107 1.77222 0
M  V30 1582 N 131.551 -0.354651 -1.53558 0
M  V30 1583 C 132.797 0.238797 -2.01389 0
M  V30 1584 C 133.13 1.49309 -1.2418 0
M  V30 1585 O 132.405 1.91638 -0.332457 0
M  V30 1586 C 132.688 0.541771 -3.56001 0
M  V30 1587 C 132.541 -0.725388 -4.43912 0
M  V30 1588 C 133.86 1.34685 -4.18984 0
M  V30 1589 H 130.979 0.0853177 -0.732045 0
M  V30 1590 H 133.621 -0.477384 -1.83905 0
M  V30 1591 H 131.771 1.15189 -3.71031 0
M  V30 1592 H 133.443 -1.36313 -4.407 0
M  V30 1593 H 131.686 -1.34801 -4.12324 0
M  V30 1594 H 132.357 -0.468505 -5.50008 0
M  V30 1595 H 134.833 0.830837 -4.07721 0
M  V30 1596 H 133.709 1.52759 -5.27215 0
M  V30 1597 H 133.97 2.35221 -3.74331 0
M  V30 1598 N 133.029 1.57378 -0.0835403 0
M  V30 1599 C 134.254 1.98682 0.594987 0
M  V30 1600 C 134.679 0.961969 1.61641 0
M  V30 1601 O 134.037 -0.0709989 1.81161 0
M  V30 1602 C 134.085 3.38988 1.2296 0
M  V30 1603 O 133.189 3.39208 2.34546 0
M  V30 1604 H 132.53 0.646368 0.152002 0
M  V30 1605 H 135.06 2.03961 -0.161533 0
M  V30 1606 H 135.07 3.76431 1.57366 0
M  V30 1607 H 133.745 4.13107 0.481228 0
M  V30 1608 H 132.322 3.13548 2.01846 0
M  V30 1609 N 134.507 -0.190092 1.56449 0
M  V30 1610 C 135.417 -1.25591 1.98152 0
M  V30 1611 C 136.433 -1.49519 0.889944 0
M  V30 1612 O 137.609 -1.62036 1.19609 0
M  V30 1613 C 134.674 -2.57916 2.3169 0
M  V30 1614 C 133.735 -2.42015 3.5458 0
M  V30 1615 C 132.968 -3.6803 3.8651 0
M  V30 1616 O 133.191 -4.72413 3.1966 0
M  V30 1617 O 132.125 -3.6326 4.79923 0
M  V30 1618 H 135.951 -0.931988 2.89046 0
M  V30 1619 H 133.536 -0.395488 1.4407 0
M  V30 1620 H 135.418 -3.36008 2.54316 0
M  V30 1621 H 134.093 -2.89925 1.43963 0
M  V30 1622 H 133 -1.62017 3.37196 0
M  V30 1623 H 134.333 -2.14937 4.4279 0
M  V30 1624 N 135.985 -1.50799 -0.457987 0
M  V30 1625 C 136.932 -1.70617 -1.5543 0
M  V30 1626 C 137.902 -0.547562 -1.56815 0
M  V30 1627 O 139.087 -0.779647 -1.74144 0
M  V30 1628 C 136.227 -1.81831 -2.93311 0
M  V30 1629 C 135.34 -3.09278 -3.01615 0
M  V30 1630 C 134.475 -3.11209 -4.30491 0
M  V30 1631 C 133.514 -4.33055 -4.32585 0
M  V30 1632 N 132.651 -4.32652 -5.52952 0
M  V30 1633 H 137.491 -2.64207 -1.37836 0
M  V30 1634 H 135.028 -1.30959 -0.669937 0
M  V30 1635 H 136.986 -1.86314 -3.73287 0
M  V30 1636 H 135.616 -0.916685 -3.0951 0
M  V30 1637 H 134.668 -3.14203 -2.1443 0
M  V30 1638 H 135.98 -3.99233 -2.99022 0
M  V30 1639 H 135.134 -3.14494 -5.18824 0
M  V30 1640 H 133.873 -2.19106 -4.35711 0
M  V30 1641 H 132.878 -4.29969 -3.42647 0
M  V30 1642 H 134.103 -5.264 -4.29046 0
M  V30 1643 H 132.049 -3.43409 -5.58933 0
M  V30 1644 H 131.966 -5.16392 -5.52155 0
M  V30 1645 H 133.234 -4.40101 -6.43375 0
M  V30 1646 N 137.463 0.71206 -1.40597 0
M  V30 1647 C 138.874 1.29135 -1.34837 0
M  V30 1648 C 139.225 1.96186 -0.0235395 0
M  V30 1649 O 138.35 1.97768 0.878444 0
M  V30 1650 C 138.945 2.34827 -2.44217 0
M  V30 1651 C 137.504 2.88371 -2.41907 0
M  V30 1652 C 136.651 1.62202 -2.24913 0
M  V30 1653 H 139.602 0.507944 -1.50352 0
M  V30 1654 H 139.623 3.15749 -2.12327 0
M  V30 1655 H 139.135 1.85996 -3.40627 0
M  V30 1656 H 137.236 3.41422 -1.49204 0
M  V30 1657 H 137.349 3.39925 -3.37621 0
M  V30 1658 H 135.713 1.874 -1.72492 0
M  V30 1659 H 136.496 1.15391 -3.23326 0
M  V30 1660 N 138.941 1.26152 0.944643 0
M  V30 1661 C 140.171 1.14094 1.72239 0
M  V30 1662 C 140.579 -0.306931 1.86694 0
M  V30 1663 O 139.922 -1.22222 1.3714 0
M  V30 1664 C 139.984 1.73316 3.14963 0
M  V30 1665 C 139.648 3.2239 3.23904 0
M  V30 1666 C 140.645 4.19252 3.07447 0
M  V30 1667 C 138.33 3.62788 3.47405 0
M  V30 1668 C 140.324 5.54491 3.14353 0
M  V30 1669 C 138.011 4.98162 3.53947 0
M  V30 1670 C 139.009 5.93823 3.37436 0
M  V30 1671 O 138.697 7.26732 3.43679 0
M  V30 1672 H 138.429 0.398292 0.546205 0
M  V30 1673 H 140.983 1.67201 1.19301 0
M  V30 1674 H 139.213 1.14667 3.69308 0
M  V30 1675 H 140.902 1.56214 3.74636 0
M  V30 1676 H 141.668 3.8938 2.8915 0
M  V30 1677 H 137.547 2.88816 3.59313 0
M  V30 1678 H 141.091 6.29137 3.01384 0
M  V30 1679 H 136.988 5.27695 3.71763 0
M  V30 1680 H 137.756 7.3496 3.60245 0
M  V30 1681 N 140.419 -1.14872 1.07899 0
M  V30 1682 C 141.667 -1.85422 0.803941 0
M  V30 1683 C 141.988 -1.83051 -0.67211 0
M  V30 1684 O 141.258 -1.27532 -1.48703 0
M  V30 1685 H 139.838 -0.686537 0.294408 0
M  V30 1686 H 142.5 -1.39226 1.3639 0
M  V30 1687 H 141.596 -2.90399 1.14346 0
M  V30 1688 N 141.898 -0.863906 -1.31812 0
M  V30 1689 C 143.147 -0.46801 -1.96195 0
M  V30 1690 C 143.46 0.983474 -1.69077 0
M  V30 1691 O 144.666 1.48523 -2.27273 0
M  V30 1692 C 143.122 -0.785995 -3.51212 0
M  V30 1693 C 142.73 -2.25383 -3.87178 0
M  V30 1694 C 144.474 -0.458274 -4.22019 0
M  V30 1695 C 142.381 -2.51455 -5.3528 0
M  V30 1696 H 141.311 -0.171283 -0.734287 0
M  V30 1697 H 143.962 -1.05597 -1.50072 0
M  V30 1698 H 142.344 -0.127359 -3.95795 0
M  V30 1699 H 143.518 -2.95502 -3.53575 0
M  V30 1700 H 141.833 -2.54698 -3.2942 0
M  V30 1701 H 144.43 -0.630369 -5.30971 0
M  V30 1702 H 144.773 0.600834 -4.11941 0
M  V30 1703 H 145.306 -1.07319 -3.8305 0
M  V30 1704 H 142.045 -3.56025 -5.50387 0
M  V30 1705 H 141.565 -1.85923 -5.70257 0
M  V30 1706 H 143.244 -2.35874 -6.02472 0
M  V30 1707 N 143.376 1.44774 -0.622745 0
M  V30 1708 C 144.622 2.0242 -0.124083 0
M  V30 1709 C 144.955 1.4881 1.24777 0
M  V30 1710 O 144.23 0.668799 1.8264 0
M  V30 1711 C 144.513 3.59957 -0.101619 0
M  V30 1712 C 144.366 4.23867 -1.50521 0
M  V30 1713 C 145.685 4.36284 0.578272 0
M  V30 1714 H 142.804 0.735528 -0.0465645 0
M  V30 1715 H 145.446 1.72447 -0.797617 0
M  V30 1716 H 143.596 3.85623 0.471934 0
M  V30 1717 H 145.268 4.09336 -2.12701 0
M  V30 1718 H 143.511 3.81684 -2.06154 0
M  V30 1719 H 144.182 5.32843 -1.4416 0
M  V30 1720 H 146.658 4.16001 0.0906057 0
M  V30 1721 H 145.534 5.46004 0.563149 0
M  V30 1722 H 145.795 4.10271 1.64713 0
M  V30 1723 N 144.854 0.36279 1.53368 0
M  V30 1724 C 145.764 -0.492994 2.29362 0
M  V30 1725 C 146.78 -1.09507 1.35219 0
M  V30 1726 O 147.956 -1.10662 1.68273 0
M  V30 1727 C 145.021 -1.61855 3.066 0
M  V30 1728 C 144.082 -1.04429 4.16405 0
M  V30 1729 C 143.315 -2.11621 4.89951 0
M  V30 1730 O 143.538 -3.32684 4.63333 0
M  V30 1731 O 142.472 -1.74835 5.75948 0
M  V30 1732 H 146.298 0.125331 3.03441 0
M  V30 1733 H 143.883 0.127253 1.48857 0
M  V30 1734 H 145.765 -2.27302 3.54841 0
M  V30 1735 H 144.44 -2.22233 2.3536 0
M  V30 1736 H 143.347 -0.353819 3.72423 0
M  V30 1737 H 144.68 -0.485113 4.89804 0
M  V30 1738 N 146.332 -1.57332 0.0918853 0
M  V30 1739 C 147.279 -2.13847 -0.868211 0
M  V30 1740 C 148.249 -1.05618 -1.28196 0
M  V30 1741 O 149.434 -1.33387 -1.36427 0
M  V30 1742 C 146.574 -2.72062 -2.12312 0
M  V30 1743 C 145.687 -3.94514 -1.7602 0
M  V30 1744 C 144.822 -4.40903 -2.96273 0
M  V30 1745 C 143.861 -5.55953 -2.56092 0
M  V30 1746 N 142.998 -5.97209 -3.69169 0
M  V30 1747 H 147.838 -2.95575 -0.379406 0
M  V30 1748 H 145.375 -1.46048 -0.175606 0
M  V30 1749 H 147.333 -3.03931 -2.858 0
M  V30 1750 H 145.963 -1.93068 -2.58698 0
M  V30 1751 H 145.015 -3.68979 -0.925135 0
M  V30 1752 H 146.327 -4.7802 -1.42472 0
M  V30 1753 H 145.481 -4.74539 -3.78018 0
M  V30 1754 H 144.22 -3.56291 -3.33029 0
M  V30 1755 H 143.225 -5.21948 -1.72773 0
M  V30 1756 H 144.45 -6.42311 -2.20484 0
M  V30 1757 H 142.396 -5.15543 -4.05649 0
M  V30 1758 H 142.313 -6.75504 -3.39456 0
M  V30 1759 H 143.581 -6.35475 -4.51434 0
M  V30 1760 N 147.81 0.181792 -1.56548 0
M  V30 1761 C 148.757 1.22521 -1.95595 0
M  V30 1762 C 149.727 1.4454 -0.818373 0
M  V30 1763 O 150.912 1.57454 -1.07763 0
M  V30 1764 C 148.052 2.56193 -2.31212 0
M  V30 1765 C 147.165 2.41641 -3.58097 0
M  V30 1766 C 146.3 3.68108 -3.82975 0
M  V30 1767 C 145.339 3.48445 -5.03242 0
M  V30 1768 N 144.476 4.66956 -5.24306 0
M  V30 1769 H 149.316 0.885226 -2.84548 0
M  V30 1770 H 146.853 0.425718 -1.40805 0
M  V30 1771 H 148.811 3.34088 -2.49882 0
M  V30 1772 H 147.441 2.88208 -1.45382 0
M  V30 1773 H 146.493 1.54976 -3.474 0
M  V30 1774 H 147.805 2.23052 -4.46149 0
M  V30 1775 H 146.959 4.54441 -4.01956 0
M  V30 1776 H 145.698 3.89666 -2.93278 0
M  V30 1777 H 144.703 2.60499 -4.8417 0
M  V30 1778 H 145.928 3.2832 -5.9446 0
M  V30 1779 H 143.874 4.88752 -4.37559 0
M  V30 1780 H 143.791 4.51242 -6.06561 0
M  V30 1781 H 145.059 5.54602 -5.47756 0
M  V30 1782 N 149.288 1.51039 0.449983 0
M  V30 1783 C 150.513 1.6715 1.22783 0
M  V30 1784 C 150.938 0.363081 1.84563 0
M  V30 1785 O 150.296 -0.675433 1.68249 0
M  V30 1786 C 150.344 2.77985 2.29689 0
M  V30 1787 O 149.448 2.40707 3.34864 0
M  V30 1788 H 148.789 0.557746 0.360299 0
M  V30 1789 H 151.319 1.97535 0.533005 0
M  V30 1790 H 151.329 3.01693 2.74673 0
M  V30 1791 H 150.004 3.72935 1.84098 0
M  V30 1792 H 148.581 2.27523 2.95445 0
M  V30 1793 N 150.766 -0.704594 1.40972 0
M  V30 1794 C 152.182 -1.01406 1.23244 0
M  V30 1795 C 152.382 -2.01169 0.115399 0
M  V30 1796 O 151.438 -2.47021 -0.523147 0
M  V30 1797 C 152.751 -1.54728 2.57836 0
M  V30 1798 C 154.299 -1.66658 2.64942 0
M  V30 1799 C 154.774 -2.23383 3.9983 0
M  V30 1800 N 156.265 -2.30756 4.01629 0
M  V30 1801 C 157 -2.75655 5.02794 0
M  V30 1802 N 156.496 -3.20225 6.14352 0
M  V30 1803 N 158.289 -2.75138 4.90159 0
M  V30 1804 H 150.44 -0.0435285 2.12355 0
M  V30 1805 H 152.703 -0.0818951 0.944456 0
M  V30 1806 H 152.409 -0.888832 3.40283 0
M  V30 1807 H 152.283 -2.53084 2.79693 0
M  V30 1808 H 154.67 -2.31617 1.8286 0
M  V30 1809 H 154.751 -0.668717 2.46904 0
M  V30 1810 H 154.395 -1.59043 4.82357 0
M  V30 1811 H 154.325 -3.23904 4.15203 0
M  V30 1812 H 156.816 -1.99291 3.21079 0
M  V30 1813 H 157.129 -3.53084 6.87424 0
M  V30 1814 H 155.474 -3.18156 6.17901 0
M  V30 1815 H 158.665 -2.39661 4.02095 0
M  V30 1816 H 158.838 -3.09812 5.6914 0
M  V30 1817 N 152.244 -1.26651 -0.937939 0
M  V30 1818 C 153.493 -1.11775 -1.67897 0
M  V30 1819 C 153.806 0.33794 -1.92659 0
M  V30 1820 O 155.012 0.607434 -2.64618 0
M  V30 1821 C 153.468 -1.9523 -3.02346 0
M  V30 1822 C 153.076 -3.45393 -2.8532 0
M  V30 1823 C 154.82 -1.88972 -3.80118 0
M  V30 1824 C 152.727 -4.21083 -4.15263 0
M  V30 1825 H 151.657 -0.414696 -0.629717 0
M  V30 1826 H 154.308 -1.50988 -1.04283 0
M  V30 1827 H 152.69 -1.48853 -3.66959 0
M  V30 1828 H 153.864 -3.99561 -2.29537 0
M  V30 1829 H 152.179 -3.52921 -2.20988 0
M  V30 1830 H 154.776 -2.42805 -4.76392 0
M  V30 1831 H 155.119 -0.86113 -4.07296 0
M  V30 1832 H 155.652 -2.33189 -3.22285 0
M  V30 1833 H 152.391 -5.24425 -3.93267 0
M  V30 1834 H 151.911 -3.71695 -4.70747 0
M  V30 1835 H 153.59 -4.29706 -4.83696 0
M  V30 1836 N 153.722 1.14298 -1.08507 0
M  V30 1837 C 154.969 1.85359 -0.815373 0
M  V30 1838 C 155.297 1.83001 0.658865 0
M  V30 1839 O 154.552 1.25655 1.50031 0
M  V30 1840 C 154.851 3.33547 -1.28379 0
M  V30 1841 C 154.517 3.56093 -2.76602 0
M  V30 1842 C 153.179 3.61955 -3.17084 0
M  V30 1843 C 155.531 3.64834 -3.72217 0
M  V30 1844 C 152.859 3.74082 -4.51973 0
M  V30 1845 C 155.211 3.78487 -5.06883 0
M  V30 1846 C 153.875 3.82598 -5.46969 0
M  V30 1847 H 153.145 0.678276 -0.298366 0
M  V30 1848 H 155.792 1.35002 -1.35819 0
M  V30 1849 H 154.097 3.86191 -0.660593 0
M  V30 1850 H 155.794 3.86959 -1.05186 0
M  V30 1851 H 152.384 3.52179 -2.4427 0
M  V30 1852 H 156.568 3.59595 -3.42061 0
M  V30 1853 H 151.824 3.75527 -4.82483 0
M  V30 1854 H 155.998 3.84193 -5.80834 0
M  V30 1855 H 153.625 3.91747 -6.51489 0
M  V30 1856 N 155.201 0.870884 1.31352 0
M  V30 1857 C 156.612 0.534714 1.78879 0
M  V30 1858 C 156.963 -0.948423 1.71754 0
M  V30 1859 O 156.088 -1.74055 1.28584 0
M  V30 1860 C 156.683 0.963839 3.24801 0
M  V30 1861 C 155.242 0.679311 3.70219 0
M  V30 1862 C 154.389 1.15465 2.52117 0
M  V30 1863 H 157.34 1.05651 1.18421 0
M  V30 1864 H 157.361 0.286892 3.79417 0
M  V30 1865 H 156.873 2.04332 3.29955 0
M  V30 1866 H 154.974 -0.388769 3.70566 0
M  V30 1867 H 155.087 1.25698 4.62317 0
M  V30 1868 H 153.451 0.574383 2.48139 0
M  V30 1869 H 154.234 2.24157 2.60016 0
M  V30 1870 N 156.679 -1.44442 0.630414 0
M  V30 1871 C 157.927 -2.01653 0.134351 0
M  V30 1872 C 158.248 -1.49836 -1.24796 0
M  V30 1873 O 157.518 -0.701684 -1.82902 0
M  V30 1874 H 156.098 -0.74554 0.0466769 0
M  V30 1875 H 158.76 -1.76952 0.816955 0
M  V30 1876 H 157.856 -3.11935 0.101498 0
M  V30 1877 N 158.157 -0.370918 -1.53173 0
M  V30 1878 C 159.434 0.273754 -1.93675 0
M  V30 1879 C 159.814 1.65938 -1.3049 0
M  V30 1880 O 159.162 2.23698 -0.465999 0
M  V30 1881 C 159.372 0.318602 -3.47543 0
M  V30 1882 C 160.72 0.556392 -4.20939 0
M  V30 1883 O 161.744 0.399587 -3.53952 0
M  V30 1884 O 160.603 0.862133 -5.39657 0
M  V30 1885 H 157.697 0.165448 -0.810281 0
M  V30 1886 H 160.243 -0.42409 -1.64315 0
M  V30 1887 H 159.015 -0.652687 -3.85818 0
M  V30 1888 H 158.638 1.06212 -3.83151 0
M  V30 1889 N 159.635 1.57281 -0.100228 0
M  V30 1890 C 160.863 1.98879 0.570509 0
M  V30 1891 C 161.278 0.979476 1.61405 0
M  V30 1892 O 160.635 -0.0302288 1.82475 0
M  V30 1893 C 160.686 3.4052 1.2136 0
M  V30 1894 O 160.407 4.37588 0.211786 0
M  V30 1895 C 161.908 3.97149 1.96945 0
M  V30 1896 H 159.128 0.653428 0.152555 0
M  V30 1897 H 161.672 2.03697 -0.18103 0
M  V30 1898 H 159.827 3.367 1.91603 0
M  V30 1899 H 160.241 5.20118 0.676607 0
M  V30 1900 H 161.715 4.98393 2.37294 0
M  V30 1901 H 162.192 3.3525 2.83733 0
M  V30 1902 H 162.798 4.04458 1.31506 0
M  V30 1903 N 161.113 -0.173488 1.56642 0
M  V30 1904 C 162.362 -0.888758 1.81063 0
M  V30 1905 C 162.675 -1.83506 0.67712 0
M  V30 1906 O 163.881 -2.59254 0.806206 0
M  V30 1907 C 162.337 -1.63091 3.20826 0
M  V30 1908 C 161.945 -0.728357 4.4204 0
M  V30 1909 C 163.689 -2.33454 3.54541 0
M  V30 1910 C 161.596 -1.47062 5.72823 0
M  V30 1911 H 160.526 -0.335618 0.675186 0
M  V30 1912 H 163.177 -0.141712 1.82952 0
M  V30 1913 H 161.559 -2.42263 3.13248 0
M  V30 1914 H 162.733 0.0262449 4.60793 0
M  V30 1915 H 161.048 -0.134492 4.16183 0
M  V30 1916 H 163.645 -2.89578 4.49498 0
M  V30 1917 H 163.988 -3.08687 2.79317 0
M  V30 1918 H 164.521 -1.61227 3.63663 0
M  V30 1919 H 161.26 -0.760658 6.51072 0
M  V30 1920 H 160.78 -2.1986 5.58052 0
M  V30 1921 H 162.459 -2.01868 6.14702 0
M  V30 1922 N 162.591 -1.51276 -0.441967 0
M  V30 1923 C 163.521 -1.752 -1.54361 0
M  V30 1924 C 164.502 -0.601682 -1.59103 0
M  V30 1925 O 165.687 -0.843913 -1.74905 0
M  V30 1926 C 162.817 -1.87282 -2.92477 0
M  V30 1927 C 161.771 -3.02687 -3.02596 0
M  V30 1928 C 161.097 -2.99947 -4.42647 0
M  V30 1929 C 162.397 -4.4273 -2.77106 0
M  V30 1930 H 164.091 -2.67442 -1.34592 0
M  V30 1931 H 161.637 -1.28694 -0.646048 0
M  V30 1932 H 163.59 -2.02602 -3.695 0
M  V30 1933 H 162.314 -0.916844 -3.13467 0
M  V30 1934 H 160.973 -2.87065 -2.28012 0
M  V30 1935 H 160.621 -2.02136 -4.60597 0
M  V30 1936 H 160.321 -3.77439 -4.50348 0
M  V30 1937 H 161.845 -3.17354 -5.2165 0
M  V30 1938 H 163.259 -4.58727 -3.43864 0
M  V30 1939 H 161.656 -5.21893 -2.96222 0
M  V30 1940 H 162.726 -4.53087 -1.72744 0
M  V30 1941 N 164.069 0.697108 -1.41344 0
M  V30 1942 C 164.979 1.84088 -1.45427 0
M  V30 1943 C 165.995 1.70545 -0.34501 0
M  V30 1944 O 167.171 1.92488 -0.592492 0
M  V30 1945 C 164.236 3.20056 -1.33286 0
M  V30 1946 C 163.297 3.45718 -2.54514 0
M  V30 1947 C 162.53 4.75199 -2.42944 0
M  V30 1948 O 162.753 5.51579 -1.45318 0
M  V30 1949 O 161.687 5.0161 -3.32672 0
M  V30 1950 H 165.513 1.836 -2.41919 0
M  V30 1951 H 163.098 0.849966 -1.22866 0
M  V30 1952 H 164.98 4.01236 -1.28794 0
M  V30 1953 H 163.655 3.2123 -0.39909 0
M  V30 1954 H 162.562 2.64474 -2.64583 0
M  V30 1955 H 163.895 3.49356 -3.46715 0
M  V30 1956 N 165.547 1.27147 0.931209 0
M  V30 1957 C 166.775 1.16082 1.71267 0
M  V30 1958 C 167.19 -0.282772 1.8667 0
M  V30 1959 O 166.547 -1.19283 1.38122 0
M  V30 1960 C 166.598 1.8358 3.11417 0
M  V30 1961 O 166.319 3.22299 2.96741 0
M  V30 1962 C 167.82 1.78597 4.05732 0
M  V30 1963 H 165.04 0.403758 0.535929 0
M  V30 1964 H 167.584 1.67953 1.16671 0
M  V30 1965 H 165.739 1.35623 3.62885 0
M  V30 1966 H 166.153 3.55851 3.85319 0
M  V30 1967 H 167.627 2.30444 5.01597 0
M  V30 1968 H 168.104 0.754564 4.3267 0
M  V30 1969 H 168.71 2.26152 3.60188 0
M  V30 1970 N 167.025 -1.13721 1.09112 0
M  V30 1971 C 168.273 -1.84559 0.823562 0
M  V30 1972 C 168.594 -1.83754 -0.652658 0
M  V30 1973 O 167.864 -1.29102 -1.47342 0
M  V30 1974 H 166.444 -0.683376 0.301673 0
M  V30 1975 H 169.106 -1.37771 1.37859 0
M  V30 1976 H 168.202 -2.8917 1.17419 0
M  V30 1977 N 168.503 -0.877838 -1.30888 0
M  V30 1978 C 169.413 -0.343096 -2.32078 0
M  V30 1979 C 170.429 0.551022 -1.65045 0
M  V30 1980 O 171.605 0.445854 -1.96403 0
M  V30 1981 C 168.67 0.439905 -3.43898 0
M  V30 1982 C 167.731 -0.483111 -4.26573 0
M  V30 1983 C 166.964 0.262616 -5.33053 0
M  V30 1984 O 167.187 1.48967 -5.50604 0
M  V30 1985 O 166.121 -0.383593 -6.00676 0
M  V30 1986 H 169.947 -1.18203 -2.79753 0
M  V30 1987 H 167.532 -0.64145 -1.34929 0
M  V30 1988 H 169.414 0.883504 -4.12034 0
M  V30 1989 H 168.089 1.25526 -2.98371 0
M  V30 1990 H 166.996 -0.975374 -3.61161 0
M  V30 1991 H 168.329 -1.26427 -4.75686 0
M  V30 1992 N 169.982 1.44106 -0.638065 0
M  V30 1993 C 171.228 2.02277 -0.145546 0
M  V30 1994 C 171.561 1.50125 1.23191 0
M  V30 1995 O 170.836 0.688133 1.8192 0
M  V30 1996 C 171.119 3.59829 -0.139791 0
M  V30 1997 C 170.972 4.22247 -1.55008 0
M  V30 1998 C 172.291 4.36873 0.531966 0
M  V30 1999 H 169.41 0.734992 -0.0543632 0
M  V30 2000 H 172.052 1.71592 -0.815863 0
M  V30 2001 H 170.202 3.86102 0.431007 0
M  V30 2002 H 171.874 4.07057 -2.1703 0
M  V30 2003 H 170.117 3.79476 -2.10191 0
M  V30 2004 H 170.788 5.31284 -1.49804 0
M  V30 2005 H 173.264 4.16074 0.0464781 0
M  V30 2006 H 172.14 5.4657 0.505206 0
M  V30 2007 H 172.401 4.11995 1.60352 0
M  V30 2008 N 171.46 0.379036 1.52974 0
M  V30 2009 C 172.709 -0.207612 2.00629 0
M  V30 2010 C 173.022 -1.48758 1.27006 0
M  V30 2011 O 174.228 -2.15365 1.65318 0
M  V30 2012 C 172.684 -0.42053 3.57435 0
M  V30 2013 C 172.292 0.845587 4.39948 0
M  V30 2014 C 174.036 -0.964102 4.13407 0
M  V30 2015 C 171.943 0.601513 5.88333 0
M  V30 2016 H 170.873 -0.0813591 0.749598 0
M  V30 2017 H 173.524 0.499853 1.76561 0
M  V30 2018 H 171.906 -1.18959 3.7771 0
M  V30 2019 H 173.08 1.61848 4.31442 0
M  V30 2020 H 171.395 1.31336 3.95145 0
M  V30 2021 H 173.992 -1.16225 5.21916 0
M  V30 2022 H 174.335 -1.93019 3.68849 0
M  V30 2023 H 174.868 -0.25487 3.96983 0
M  V30 2024 H 171.607 1.53831 6.37194 0
M  V30 2025 H 171.127 -0.132628 5.99653 0
M  V30 2026 H 172.806 0.232134 6.46583 0
M  V30 2027 N 172.938 -1.57226 0.108567 0
M  V30 2028 C 174.349 -1.8195 -0.418464 0
M  V30 2029 C 174.7 -1.02508 -1.67292 0
M  V30 2030 O 173.825 -0.258496 -2.14851 0
M  V30 2031 C 174.42 -3.30028 -0.765979 0
M  V30 2032 C 172.979 -3.55469 -1.23769 0
M  V30 2033 C 172.126 -2.7625 -0.241106 0
M  V30 2034 H 175.077 -1.55149 0.33384 0
M  V30 2035 H 175.098 -3.44086 -1.62434 0
M  V30 2036 H 174.61 -3.87821 0.147219 0
M  V30 2037 H 172.711 -3.03022 -2.16814 0
M  V30 2038 H 172.824 -4.6408 -1.19022 0
M  V30 2039 H 171.188 -2.44133 -0.72602 0
M  V30 2040 H 171.971 -3.36797 0.665007 0
M  V30 2041 N 174.416 0.165178 -1.56732 0
M  V30 2042 C 175.827 0.727046 -1.71962 0
M  V30 2043 C 176.178 1.82508 -0.720078 0
M  V30 2044 O 175.303 2.16082 0.117242 0
M  V30 2045 C 175.898 1.32559 -3.11791 0
M  V30 2046 C 174.457 1.83422 -3.28684 0
M  V30 2047 C 173.604 0.715567 -2.67908 0
M  V30 2048 H 176.555 -0.0602896 -1.58585 0
M  V30 2049 H 176.576 2.19533 -3.10782 0
M  V30 2050 H 176.088 0.526195 -3.84516 0
M  V30 2051 H 174.189 2.65986 -2.60926 0
M  V30 2052 H 174.302 1.97543 -4.36478 0
M  V30 2053 H 172.666 1.13758 -2.27884 0
M  V30 2054 H 173.449 -0.0720836 -3.43224 0
M  V30 2055 N 175.894 1.51508 0.433938 0
M  V30 2056 C 176.827 1.67756 1.54704 0
M  V30 2057 C 177.805 0.525127 1.53887 0
M  V30 2058 O 178.989 0.749393 1.72963 0
M  V30 2059 C 176.116 1.69424 2.9328 0
M  V30 2060 C 175.162 2.90673 3.12108 0
M  V30 2061 S 175.995 4.51431 2.88046 0
M  V30 2062 C 177.151 4.55849 4.28897 0
M  V30 2063 H 177.384 2.61904 1.40689 0
M  V30 2064 H 174.917 1.41235 0.62386 0
M  V30 2065 H 176.875 1.7107 3.73156 0
M  V30 2066 H 175.536 0.764464 3.04655 0
M  V30 2067 H 174.729 2.88251 4.13434 0
M  V30 2068 H 174.331 2.86786 2.40062 0
M  V30 2069 H 176.623 4.31699 5.22152 0
M  V30 2070 H 177.566 5.57676 4.36351 0
M  V30 2071 H 177.974 3.85137 4.12711 0
M  V30 2072 N 177.372 -0.689602 1.41712 0
M  V30 2073 C 178.319 -1.80345 1.44029 0
M  V30 2074 C 179.289 -1.63478 0.293948 0
M  V30 2075 O 180.474 -1.84244 0.495869 0
M  V30 2076 C 177.614 -3.18272 1.33405 0
M  V30 2077 C 176.727 -3.46529 2.57956 0
M  V30 2078 C 175.862 -4.74103 2.39582 0
M  V30 2079 C 174.901 -4.95347 3.5958 0
M  V30 2080 N 174.038 -6.14151 3.40239 0
M  V30 2081 H 178.878 -1.77698 2.39222 0
M  V30 2082 H 176.415 -0.867688 1.18784 0
M  V30 2083 H 178.373 -3.97956 1.25246 0
M  V30 2084 H 177.003 -3.2008 0.418164 0
M  V30 2085 H 176.055 -2.61207 2.76542 0
M  V30 2086 H 177.367 -3.58126 3.47199 0
M  V30 2087 H 176.521 -5.61853 2.28924 0
M  V30 2088 H 175.26 -4.64763 1.47805 0
M  V30 2089 H 174.265 -4.06044 3.70686 0
M  V30 2090 H 175.49 -5.06542 4.52318 0
M  V30 2091 H 173.436 -6.06013 2.51167 0
M  V30 2092 H 173.353 -6.26543 4.23061 0
M  V30 2093 H 174.621 -7.04619 3.33365 0
M  V30 2094 N 178.85 -1.27639 -0.924453 0
M  V30 2095 C 179.76 -1.12466 -2.05885 0
M  V30 2096 C 180.776 -0.053869 -1.73917 0
M  V30 2097 O 181.952 -0.261012 -1.99702 0
M  V30 2098 C 179.017 -0.776768 -3.37886 0
M  V30 2099 C 178.078 -1.92878 -3.83532 0
M  V30 2100 C 177.311 -1.59739 -5.09234 0
M  V30 2101 O 177.534 -0.506782 -5.68144 0
M  V30 2102 O 176.468 -2.43761 -5.50331 0
M  V30 2103 H 180.294 -2.07671 -2.21599 0
M  V30 2104 H 177.879 -1.06857 -1.04413 0
M  V30 2105 H 179.761 -0.596229 -4.17161 0
M  V30 2106 H 178.436 0.145732 -3.23372 0
M  V30 2107 H 177.343 -2.1644 -3.0513 0
M  V30 2108 H 178.676 -2.8316 -4.02593 0
M  V30 2109 N 180.328 1.1314 -1.09713 0
M  V30 2110 C 181.575 1.84484 -0.834987 0
M  V30 2111 C 181.903 1.83689 0.639418 0
M  V30 2112 O 181.158 1.2724 1.4869 0
M  V30 2113 C 181.457 3.32167 -1.3191 0
M  V30 2114 C 181.123 3.53139 -2.80363 0
M  V30 2115 C 179.785 3.58571 -3.20905 0
M  V30 2116 C 182.137 3.60866 -3.76065 0
M  V30 2117 C 179.465 3.69267 -4.55916 0
M  V30 2118 C 181.817 3.73089 -5.10869 0
M  V30 2119 C 180.481 3.76775 -5.50996 0
M  V30 2120 H 179.751 0.675073 -0.305544 0
M  V30 2121 H 182.398 1.33554 -1.37243 0
M  V30 2122 H 180.703 3.85469 -0.701517 0
M  V30 2123 H 182.4 3.85821 -1.09284 0
M  V30 2124 H 178.99 3.49569 -2.47991 0
M  V30 2125 H 183.174 3.55946 -3.45855 0
M  V30 2126 H 178.43 3.70388 -4.86438 0
M  V30 2127 H 182.604 3.78011 -5.84877 0
M  V30 2128 H 180.231 3.84815 -6.55608 0
M  V30 2129 N 181.806 0.884767 1.30421 0
M  V30 2130 C 183.217 0.553656 1.78302 0
M  V30 2131 C 183.568 -0.930153 1.7275 0
M  V30 2132 O 182.693 -1.72681 1.30423 0
M  V30 2133 C 183.288 0.998234 3.2376 0
M  V30 2134 C 181.847 0.71854 3.69478 0
M  V30 2135 C 180.994 1.18132 2.50879 0
M  V30 2136 H 183.945 1.06901 1.17294 0
M  V30 2137 H 183.966 0.327118 3.79091 0
M  V30 2138 H 183.478 2.0782 3.27769 0
M  V30 2139 H 181.579 -0.349444 3.70958 0
M  V30 2140 H 181.692 1.30595 4.60958 0
M  V30 2141 H 180.056 0.600669 2.47516 0
M  V30 2142 H 180.839 2.26902 2.57624 0
M  V30 2143 N 183.284 -1.43765 0.645699 0
M  V30 2144 C 184.561 -1.9541 0.0862963 0
M  V30 2145 C 184.941 -1.58725 -1.39175 0
M  V30 2146 O 184.289 -0.868581 -2.11348 0
M  V30 2147 C 184.499 -3.47488 0.324565 0
M  V30 2148 C 185.847 -4.24001 0.225497 0
M  V30 2149 O 186.871 -3.55274 0.256715 0
M  V30 2150 O 185.73 -5.46313 0.142801 0
M  V30 2151 H 182.824 -0.826882 -0.0139483 0
M  V30 2152 H 185.37 -1.53743 0.718415 0
M  V30 2153 H 184.142 -3.67289 1.3496 0
M  V30 2154 H 183.765 -3.96135 -0.340987 0
M  V30 2155 N 184.763 -0.387143 -1.52771 0
M  V30 2156 C 185.695 0.484089 -2.2403 0
M  V30 2157 C 186.708 1.02849 -1.26198 0
M  V30 2158 O 187.897 0.931186 -1.52286 0
M  V30 2159 C 184.997 1.68337 -2.94136 0
M  V30 2160 C 184.17 1.26672 -4.18656 0
M  V30 2161 C 183.229 2.33045 -4.7178 0
M  V30 2162 O 182.255 1.94541 -5.34923 0
M  V30 2163 N 183.457 3.64929 -4.5145 0
M  V30 2164 H 186.222 -0.126404 -2.99433 0
M  V30 2165 H 183.783 -0.213392 -1.60488 0
M  V30 2166 H 185.775 2.39019 -3.26577 0
M  V30 2167 H 184.345 2.20025 -2.22053 0
M  V30 2168 H 183.565 0.388878 -3.92277 0
M  V30 2169 H 184.853 0.964964 -4.99566 0
M  V30 2170 H 184.251 3.98974 -4.01044 0
M  V30 2171 H 182.808 4.31651 -4.88386 0
M  V30 2172 N 186.241 1.57166 -0.116904 0
M  V30 2173 C 187.191 2.11756 0.845178 0
M  V30 2174 C 188.175 1.03783 1.22955 0
M  V30 2175 O 189.367 1.3002 1.20099 0
M  V30 2176 C 186.496 2.71886 2.09602 0
M  V30 2177 C 185.582 3.86937 1.7361 0
M  V30 2178 N 185.973 4.94073 1.08284 0
M  V30 2179 C 184.271 3.97082 2.03082 0
M  V30 2180 C 184.972 5.74477 0.913855 0
M  V30 2181 N 183.948 5.2423 1.43818 0
M  V30 2182 H 187.75 2.91967 0.336523 0
M  V30 2183 H 185.264 1.62174 0.0856332 0
M  V30 2184 H 187.261 3.09338 2.79492 0
M  V30 2185 H 185.921 1.93138 2.61013 0
M  V30 2186 H 186.932 5.12483 0.747067 0
M  V30 2187 H 183.609 3.29372 2.56554 0
M  V30 2188 H 184.999 6.70701 0.40125 0
M  V30 2189 N 187.719 -0.156864 1.56817 0
M  V30 2190 C 188.669 -1.19891 1.93934 0
M  V30 2191 C 189.653 -1.39061 0.809372 0
M  V30 2192 O 190.845 -1.40789 1.07273 0
M  V30 2193 C 187.974 -2.53493 2.31508 0
M  V30 2194 C 187.06 -2.37957 3.51052 0
M  V30 2195 N 187.451 -1.92158 4.67877 0
M  V30 2196 C 185.749 -2.68739 3.55943 0
M  V30 2197 C 186.45 -1.8943 5.49992 0
M  V30 2198 N 185.426 -2.32375 4.91429 0
M  V30 2199 H 189.228 -0.836746 2.81737 0
M  V30 2200 H 186.742 -0.365012 1.58245 0
M  V30 2201 H 188.739 -3.28811 2.56299 0
M  V30 2202 H 187.399 -2.905 1.45051 0
M  V30 2203 H 188.41 -1.62274 4.91821 0
M  V30 2204 H 185.087 -3.09687 2.80001 0
M  V30 2205 H 186.477 -1.55596 6.53636 0
M  V30 2206 O 189.236 -1.58657 -0.301679 0
M  V30 2207 H 189.927 -1.6887 -0.948812 0
M  V30 END ATOM
M  V30 BEGIN BOND
M  V30 END BOND
M  V30 END CTAB
M  END
$$$$
