drugbank_target|O95169 NADH dehydrogenase [ubiquinone] 1 beta subcomplex subunit 8, mitochondrial (DB00157)
 OpenBabel12092119363D

  0  0  0     0  0            999 V3000
M  V30 BEGIN CTAB
M  V30 COUNTS 2978 3036 0 0 0
M  V30 BEGIN ATOM
M  V30 1 H -0.908 1.98254 -0.117106 0
M  V30 2 N 0 1.576 0 0
M  V30 3 C 0.933 2.03868 1.02534 0
M  V30 4 C 1.911 0.928543 1.3348 0
M  V30 5 O 3.095 1.19667 1.45644 0
M  V30 6 C 0.222 2.43627 2.35294 0
M  V30 7 C -0.732 3.65373 2.2001 0
M  V30 8 S 0.101 5.13292 1.52614 0
M  V30 9 C 1.257 5.56322 2.86805 0
M  V30 10 H 1.49 2.90518 0.631377 0
M  V30 11 H -0.977 1.52953 0.210867 0
M  V30 12 H 0.981 2.67203 3.11629 0
M  V30 13 H -0.358 1.57376 2.7183 0
M  V30 14 H -1.165 3.90944 3.18086 0
M  V30 15 H -1.563 3.418 1.51819 0
M  V30 16 H 0.729 5.58782 3.83104 0
M  V30 17 H 1.672 6.56266 2.65933 0
M  V30 18 H 2.08 4.83886 2.90714 0
M  V30 19 N 1.4781 -0.272755 1.55222 0
M  V30 20 C 2.4411 -1.32041 1.87344 0
M  V30 21 C 3.4411 -1.42342 0.74803 0
M  V30 22 O 4.6311 -1.41488 1.0162 0
M  V30 23 C 1.7631 -2.70173 2.07893 0
M  V30 24 H 2.9561 -1.04789 2.80997 0
M  V30 25 H 0.5091 -0.51083 1.47717 0
M  V30 26 H 1.2441 -3.02605 1.16622 0
M  V30 27 H 1.0291 -2.64082 2.89833 0
M  V30 28 H 2.5191 -3.45869 2.34017 0
M  V30 29 N 2.9562 -1.48159 -0.537278 0
M  V30 30 C 4.2022 -1.56035 -1.29541 0
M  V30 31 C 4.5352 -0.230377 -1.92829 0
M  V30 32 O 3.8102 0.762952 -1.78911 0
M  V30 33 C 4.0932 -2.69323 -2.39034 0
M  V30 34 C 3.9462 -4.12002 -1.80485 0
M  V30 35 C 5.2652 -2.78408 -3.40847 0
M  V30 36 H 2.3842 -0.567992 -0.469632 0
M  V30 37 H 5.0262 -1.80302 -0.599277 0
M  V30 38 H 3.1762 -2.48763 -2.98412 0
M  V30 39 H 4.8482 -4.43981 -1.25215 0
M  V30 40 H 3.0912 -4.19344 -1.11055 0
M  V30 41 H 3.7622 -4.87077 -2.59731 0
M  V30 42 H 6.2382 -2.97012 -2.91416 0
M  V30 43 H 5.1142 -3.59416 -4.14863 0
M  V30 44 H 5.3752 -1.86269 -4.00944 0
M  V30 45 N 4.4343 0.785586 -1.36625 0
M  V30 46 C 5.3973 1.87999 -1.31107 0
M  V30 47 C 6.3973 1.59316 -0.217959 0
M  V30 48 O 7.5873 1.67656 -0.472977 0
M  V30 49 C 4.7193 3.24861 -1.03334 0
M  V30 50 H 5.9123 1.94307 -2.2844 0
M  V30 51 H 3.4653 0.983813 -1.21453 0
M  V30 52 H 4.2003 3.24235 -0.0647432 0
M  V30 53 H 3.9853 3.4707 -1.82441 0
M  V30 54 H 5.4753 4.04929 -1.02088 0
M  V30 55 N 5.9124 1.20967 1.01018 0
M  V30 56 C 7.3284 0.965905 1.27053 0
M  V30 57 C 7.5284 -0.350785 1.98423 0
M  V30 58 O 6.5844 -1.07773 2.28344 0
M  V30 59 C 7.8974 2.15294 2.09926 0
M  V30 60 C 9.4454 2.19463 2.23171 0
M  V30 61 C 9.9204 3.3767 3.09424 0
M  V30 62 N 11.4114 3.37724 3.17012 0
M  V30 63 C 12.1464 4.25837 3.83993 0
M  V30 64 N 11.6424 5.24138 4.53047 0
M  V30 65 N 13.4354 4.1366 3.80581 0
M  V30 66 H 5.5864 2.0565 0.531194 0
M  V30 67 H 7.8494 0.90024 0.297106 0
M  V30 68 H 7.5554 3.10684 1.64828 0
M  V30 69 H 7.4294 2.13923 3.10672 0
M  V30 70 H 9.8164 1.24632 2.6749 0
M  V30 71 H 9.8974 2.2488 1.21912 0
M  V30 72 H 9.5414 4.32791 2.65808 0
M  V30 73 H 9.4714 3.29491 4.10784 0
M  V30 74 H 11.9624 2.6658 2.6785 0
M  V30 75 H 12.2754 5.87684 5.01844 0
M  V30 76 H 10.6204 5.28068 4.5185 0
M  V30 77 H 13.8114 3.36127 3.25785 0
M  V30 78 H 13.9844 4.82538 4.32505 0
M  V30 79 N 7.3905 -1.2043 1.01659 0
M  V30 80 C 8.3535 -2.21433 0.591616 0
M  V30 81 C 9.3535 -1.57203 -0.338226 0
M  V30 82 O 10.5435 -1.73737 -0.126918 0
M  V30 83 C 7.6755 -3.40628 -0.136058 0
M  V30 84 H 8.8685 -2.60545 1.48514 0
M  V30 85 H 6.4215 -1.33893 0.806379 0
M  V30 86 H 7.1565 -3.07019 -1.04449 0
M  V30 87 H 6.9415 -3.88475 0.531917 0
M  V30 88 H 8.4315 -4.15475 -0.420735 0
M  V30 89 N 8.8686 -0.792821 -1.36206 0
M  V30 90 C 10.1166 -0.366062 -1.98757 0
M  V30 91 C 10.4376 1.0668 -1.63231 0
M  V30 92 O 9.7076 1.73587 -0.907978 0
M  V30 93 H 8.2876 -0.132364 -0.735179 0
M  V30 94 H 10.9496 -1.01562 -1.66347 0
M  V30 95 H 10.0456 -0.460638 -3.08682 0
M  V30 96 N 10.3467 1.47872 -0.545128 0
M  V30 97 C 11.5927 2.02793 -0.0166104 0
M  V30 98 C 11.9257 1.41987 1.32489 0
M  V30 99 O 11.2007 0.571045 1.85928 0
M  V30 100 C 11.4837 3.59989 0.0893294 0
M  V30 101 C 11.3367 4.3125 -1.27841 0
M  V30 102 C 12.6557 4.32606 0.808724 0
M  V30 103 H 9.7747 0.736962 -0.00751035 0
M  V30 104 H 12.4167 1.76433 -0.705085 0
M  V30 105 H 10.5667 3.82579 0.675681 0
M  V30 106 H 12.2387 4.20035 -1.90704 0
M  V30 107 H 10.4817 3.92076 -1.85632 0
M  V30 108 H 11.1527 5.39736 -1.15713 0
M  V30 109 H 13.6287 4.14936 0.310992 0
M  V30 110 H 12.5047 5.42251 0.851782 0
M  V30 111 H 12.7657 4.00963 1.86229 0
M  V30 112 N 11.8248 0.280983 1.55075 0
M  V30 113 C 12.7548 -0.597469 2.25727 0
M  V30 114 C 13.7358 -1.15417 1.24952 0
M  V30 115 O 14.9208 -1.18722 1.53684 0
M  V30 116 C 12.0508 -1.7789 2.98283 0
M  V30 117 C 11.0048 -1.35347 4.06036 0
M  V30 118 C 10.3308 -2.61846 4.66198 0
M  V30 119 C 11.6308 -0.499354 5.19907 0
M  V30 120 H 13.3248 -0.00824265 2.99399 0
M  V30 121 H 10.8708 -0.0025244 1.44 0
M  V30 122 H 12.8238 -2.39937 3.46422 0
M  V30 123 H 11.5478 -2.39405 2.22155 0
M  V30 124 H 10.2068 -0.756156 3.58717 0
M  V30 125 H 9.8548 -3.21632 3.86732 0
M  V30 126 H 9.5548 -2.3409 5.38958 0
M  V30 127 H 11.0788 -3.24732 5.1709 0
M  V30 128 H 12.4928 -1.02498 5.64063 0
M  V30 129 H 10.8898 -0.316424 5.99265 0
M  V30 130 H 11.9598 0.480459 4.82514 0
M  V30 131 N 13.3029 -1.57598 0.00835791 0
M  V30 132 C 14.5509 -1.90551 -0.6734 0
M  V30 133 C 14.8719 -0.883301 -1.73847 0
M  V30 134 O 14.1419 0.0781442 -1.95744 0
M  V30 135 H 12.7219 -0.703312 -0.251717 0
M  V30 136 H 15.3839 -1.94833 0.0512592 0
M  V30 137 H 14.4799 -2.9056 -1.13935 0
M  V30 138 N 14.781 0.264519 -1.55364 0
M  V30 139 C 16.027 0.99646 -1.76631 0
M  V30 140 C 16.36 1.85632 -0.570478 0
M  V30 141 O 15.635 1.89647 0.43175 0
M  V30 142 C 15.918 1.87187 -3.07625 0
M  V30 143 C 15.771 1.04138 -4.37579 0
M  V30 144 C 17.09 2.85749 -3.34717 0
M  V30 145 H 14.209 0.360841 -0.642622 0
M  V30 146 H 16.851 0.268218 -1.88097 0
M  V30 147 H 15.001 2.49279 -2.9798 0
M  V30 148 H 16.673 0.440517 -4.59192 0
M  V30 149 H 14.916 0.345115 -4.32425 0
M  V30 150 H 15.587 1.68729 -5.2558 0
M  V30 151 H 18.063 2.33793 -3.4421 0
M  V30 152 H 16.939 3.44136 -4.27623 0
M  V30 153 H 17.2 3.61311 -2.54768 0
M  V30 154 N 16.2591 1.48442 0.529413 0
M  V30 155 C 17.1911 1.59095 1.64989 0
M  V30 156 C 18.2041 0.475212 1.5571 0
M  V30 157 O 19.3931 0.746081 1.6216 0
M  V30 158 C 16.4931 1.50518 3.0364 0
M  V30 159 C 15.6661 2.77142 3.38395 0
M  V30 160 C 14.7251 2.62012 4.56329 0
M  V30 161 O 13.7511 3.35898 4.59522 0
M  V30 162 N 14.9531 1.71667 5.54536 0
M  V30 163 H 17.7181 2.55723 1.56287 0
M  V30 164 H 15.2791 1.45173 0.716697 0
M  V30 165 H 17.2711 1.38091 3.80412 0
M  V30 166 H 15.8411 0.618627 3.06418 0
M  V30 167 H 15.0611 3.0413 2.50796 0
M  V30 168 H 16.3491 3.61146 3.58401 0
M  V30 169 H 15.7471 1.10841 5.54735 0
M  V30 170 H 14.3041 1.65178 6.30523 0
M  V30 171 N 17.7372 -0.778329 1.37039 0
M  V30 172 C 18.9832 -1.53817 1.33086 0
M  V30 173 C 19.3382 -1.92208 -0.0860346 0
M  V30 174 O 18.6312 -1.60713 -1.04316 0
M  V30 175 C 18.8252 -2.81845 2.19768 0
M  V30 176 C 18.6542 -2.55967 3.69744 0
M  V30 177 C 17.4242 -2.50428 4.38878 0
M  V30 178 C 19.6222 -2.2441 4.62758 0
M  V30 179 N 17.6042 -2.16564 5.74433 0
M  V30 180 C 18.9752 -2.0063 5.86641 0
M  V30 181 C 21.0302 -2.1051 4.5121 0
M  V30 182 C 19.7332 -1.64354 7.00272 0
M  V30 183 C 21.7592 -1.75634 5.64718 0
M  V30 184 C 21.1212 -1.52709 6.87648 0
M  V30 185 H 17.2202 -0.563434 0.542279 0
M  V30 186 H 19.8042 -0.908617 1.72198 0
M  V30 187 H 17.9752 -3.42649 1.82883 0
M  V30 188 H 19.7072 -3.47682 2.07122 0
M  V30 189 H 16.4622 -2.66056 3.91805 0
M  V30 190 H 16.8862 -2.02348 6.46053 0
M  V30 191 H 21.5282 -2.26919 3.56746 0
M  V30 192 H 19.2462 -1.46683 7.94676 0
M  V30 193 H 22.8322 -1.65546 5.57751 0
M  V30 194 H 21.7122 -1.2612 7.73992 0
M  V30 195 N 19.2153 -1.21501 -1.00376 0
M  V30 196 C 20.1453 -0.999478 -2.11028 0
M  V30 197 C 21.1263 0.0759671 -1.6993 0
M  V30 198 O 22.3113 -0.0841106 -1.94018 0
M  V30 199 C 19.4413 -0.564709 -3.42678 0
M  V30 200 C 18.3953 -1.58486 -3.97576 0
M  V30 201 C 17.7213 -1.00628 -5.25146 0
M  V30 202 C 19.0213 -2.97204 -4.29496 0
M  V30 203 H 20.7153 -1.92495 -2.29317 0
M  V30 204 H 18.2613 -0.92693 -1.102 0
M  V30 205 H 20.2143 -0.401091 -4.19487 0
M  V30 206 H 18.9383 0.396411 -3.24185 0
M  V30 207 H 17.5973 -1.73606 -3.22888 0
M  V30 208 H 17.2453 -0.0368439 -5.02987 0
M  V30 209 H 16.9453 -1.68771 -5.62841 0
M  V30 210 H 18.4693 -0.854015 -6.04598 0
M  V30 211 H 19.8833 -2.8552 -4.97143 0
M  V30 212 H 18.2803 -3.62372 -4.78338 0
M  V30 213 H 19.3503 -3.47956 -3.3772 0
M  V30 214 N 20.6934 1.19889 -1.02296 0
M  V30 215 C 21.6254 2.22334 -0.556787 0
M  V30 216 C 22.6384 1.58674 0.364199 0
M  V30 217 O 23.8274 1.77768 0.161533 0
M  V30 218 C 20.9274 3.38257 0.208694 0
M  V30 219 C 20.1004 4.31504 -0.71577 0
M  V30 220 C 19.1594 5.262 0.00325597 0
M  V30 221 O 18.1854 5.65798 -0.621357 0
M  V30 222 N 19.3874 5.66303 1.27599 0
M  V30 223 H 22.1524 2.62957 -1.43784 0
M  V30 224 H 19.7134 1.34495 -0.901261 0
M  V30 225 H 21.7054 3.98616 0.699111 0
M  V30 226 H 20.2754 2.96472 0.991102 0
M  V30 227 H 19.4954 3.69016 -1.38638 0
M  V30 228 H 20.7834 4.9072 -1.34428 0
M  V30 229 H 20.1814 5.36155 1.80429 0
M  V30 230 H 18.7384 6.28942 1.71102 0
M  V30 231 N 22.1715 0.800033 1.35784 0
M  V30 232 C 23.5875 0.482977 1.52117 0
M  V30 233 C 23.7875 -0.996948 1.75109 0
M  V30 234 O 22.8435 -1.78216 1.78872 0
M  V30 235 C 24.1565 1.32264 2.70049 0
M  V30 236 C 25.7045 1.31742 2.83924 0
M  V30 237 C 26.1795 2.14106 4.04874 0
M  V30 238 N 27.6705 2.11607 4.12039 0
M  V30 239 C 28.4055 2.72099 5.04727 0
M  V30 240 N 27.9015 3.41492 6.02789 0
M  V30 241 N 29.6945 2.61776 4.97423 0
M  V30 242 H 21.8455 1.75856 1.19115 0
M  V30 243 H 24.1085 0.748122 0.582252 0
M  V30 244 H 23.8145 2.37261 2.59616 0
M  V30 245 H 23.6885 0.971303 3.6448 0
M  V30 246 H 26.0755 0.275333 2.93813 0
M  V30 247 H 26.1565 1.70859 1.9037 0
M  V30 248 H 25.8005 3.18351 3.95746 0
M  V30 249 H 25.7305 1.72353 4.97596 0
M  V30 250 H 28.2215 1.61112 3.41835 0
M  V30 251 H 28.5345 3.84953 6.70098 0
M  V30 252 H 26.8795 3.45596 6.02983 0
M  V30 253 H 30.0705 2.07157 4.19766 0
M  V30 254 H 30.2435 3.0921 5.69468 0
M  V30 255 N 23.6496 -1.47581 0.552962 0
M  V30 256 C 24.6126 -2.28439 -0.186605 0
M  V30 257 C 25.6126 -1.36706 -0.84665 0
M  V30 258 O 26.8026 -1.59378 -0.703164 0
M  V30 259 C 23.9346 -3.16264 -1.2724 0
M  V30 260 H 25.1276 -2.95294 0.523609 0
M  V30 261 H 22.6806 -1.532 0.309745 0
M  V30 262 H 23.4156 -2.54091 -2.01514 0
M  V30 263 H 23.2006 -3.83769 -0.803968 0
M  V30 264 H 24.6906 -3.77198 -1.79196 0
M  V30 265 N 25.1277 -0.289203 -1.54924 0
M  V30 266 C 26.3527 0.329299 -2.04769 0
M  V30 267 C 26.7777 1.4763 -1.16564 0
M  V30 268 O 26.1357 1.80527 -0.167186 0
M  V30 269 C 26.1837 0.774438 -3.52186 0
M  V30 270 O 25.2877 1.88038 -3.67036 0
M  V30 271 H 24.6287 0.0659259 -0.660719 0
M  V30 272 H 27.1587 -0.42761 -2.00082 0
M  V30 273 H 27.1687 1.06642 -3.93816 0
M  V30 274 H 25.8437 -0.0646707 -4.1585 0
M  V30 275 H 24.4207 1.58985 -3.3731 0
M  V30 276 N 26.6058 1.57591 -0.0167156 0
M  V30 277 C 28.0218 1.55946 0.339557 0
M  V30 278 C 28.2218 1.02109 1.73713 0
M  V30 279 O 27.2778 0.662303 2.43659 0
M  V30 280 C 28.5908 3.00037 0.199499 0
M  V30 281 C 30.1388 3.11805 0.273193 0
M  V30 282 C 30.6138 4.57713 0.162068 0
M  V30 283 N 32.1048 4.6268 0.219444 0
M  V30 284 C 32.8398 5.73185 0.157054 0
M  V30 285 N 32.3358 6.92786 0.0442936 0
M  V30 286 N 34.1288 5.61707 0.21014 0
M  V30 287 H 26.2798 1.90921 -0.930758 0
M  V30 288 H 28.5428 0.877674 -0.358319 0
M  V30 289 H 28.2488 3.4333 -0.76273 0
M  V30 290 H 28.1228 3.64387 0.974786 0
M  V30 291 H 30.5098 2.68433 1.22587 0
M  V30 292 H 30.5908 2.50201 -0.532256 0
M  V30 293 H 30.2348 5.01763 -0.78714 0
M  V30 294 H 30.1648 5.17283 0.986222 0
M  V30 295 H 32.6558 3.76649 0.307246 0
M  V30 296 H 32.9688 7.728 0.00304069 0
M  V30 297 H 31.3138 6.94999 0.00968457 0
M  V30 298 H 34.5048 4.6716 0.296546 0
M  V30 299 H 34.6778 6.47807 0.158054 0
M  V30 300 N 28.0839 -0.256276 1.55502 0
M  V30 301 C 29.0319 -1.33694 1.90338 0
M  V30 302 C 30.0259 -1.50299 0.781441 0
M  V30 303 O 31.2319 -1.51885 0.965966 0
M  V30 304 H 27.6069 -0.447483 0.60437 0
M  V30 305 H 29.5779 -1.01574 2.8058 0
M  V30 306 C 28.3269 -2.68724 2.20642 0
M  V30 307 H 27.6499 -2.56743 3.06469 0
M  V30 308 H 29.0899 -3.43237 2.48926 0
M  V30 309 C 27.5489 -3.21101 1.01959 0
M  V30 310 O 28.0789 -4.0084 0.262762 0
M  V30 311 N 26.2849 -2.79003 0.812746 0
M  V30 312 H 25.8319 -2.14271 1.42989 0
M  V30 313 H 25.7899 -3.14393 0.0203076 0
M  V30 314 N 29.562 -1.4872 -0.521534 0
M  V30 315 C 30.808 -1.574 -1.27879 0
M  V30 316 C 31.141 -0.250817 -1.92573 0
M  V30 317 O 30.416 0.743934 -1.79711 0
M  V30 318 C 30.699 -2.71843 -2.36164 0
M  V30 319 C 30.552 -4.13893 -1.76105 0
M  V30 320 C 31.871 -2.82008 -3.37875 0
M  V30 321 H 28.99 -0.572941 -0.463581 0
M  V30 322 H 31.632 -1.80927 -0.580119 0
M  V30 323 H 29.782 -2.51914 -2.95756 0
M  V30 324 H 31.454 -4.45284 -1.20499 0
M  V30 325 H 29.697 -4.20498 -1.06601 0
M  V30 326 H 30.368 -4.89804 -2.5455 0
M  V30 327 H 32.844 -3.00086 -2.88249 0
M  V30 328 H 31.72 -3.63796 -4.11028 0
M  V30 329 H 31.981 -1.90511 -3.98946 0
M  V30 330 N 31.0401 0.771051 -1.3745 0
M  V30 331 C 31.9731 1.89166 -1.27638 0
M  V30 332 C 32.9511 1.61842 -0.156782 0
M  V30 333 O 34.1351 1.85569 -0.331111 0
M  V30 334 C 31.2621 3.24405 -0.973621 0
M  V30 335 C 30.3081 3.70638 -2.1102 0
M  V30 336 S 31.1411 3.84228 -3.73 0
M  V30 337 C 32.2971 5.22313 -3.44876 0
M  V30 338 H 32.5301 1.972 -2.22485 0
M  V30 339 H 30.0631 0.932224 -1.23081 0
M  V30 340 H 32.0211 4.02514 -0.805766 0
M  V30 341 H 30.6821 3.14071 -0.0426279 0
M  V30 342 H 29.8751 4.68685 -1.85338 0
M  V30 343 H 29.4771 2.99632 -2.23822 0
M  V30 344 H 31.7691 6.07505 -2.99908 0
M  V30 345 H 32.7121 5.53008 -4.42253 0
M  V30 346 H 33.1201 4.90284 -2.79789 0
M  V30 347 N 32.5182 1.22032 0.997298 0
M  V30 348 C 33.9292 1.0397 1.55071 0
M  V30 349 C 34.2802 -0.398192 1.92117 0
M  V30 350 O 33.4052 -1.28254 1.74298 0
M  V30 351 C 34.0002 1.88109 2.81781 0
M  V30 352 C 32.5592 1.74357 3.33581 0
M  V30 353 C 31.7062 1.84846 2.06706 0
M  V30 354 H 34.6572 1.35941 0.818883 0
M  V30 355 H 34.6782 1.39589 3.53971 0
M  V30 356 H 34.1902 2.92754 2.54787 0
M  V30 357 H 32.2912 0.72427 3.65493 0
M  V30 358 H 32.4042 2.56772 4.04481 0
M  V30 359 H 30.7682 1.28238 2.20062 0
M  V30 360 H 31.5512 2.91014 1.82114 0
M  V30 361 N 33.9963 -1.19345 1.0293 0
M  V30 362 C 34.9263 -2.2481 0.631105 0
M  V30 363 C 35.9073 -1.66245 -0.360104 0
M  V30 364 O 37.0923 -1.92677 -0.242726 0
M  V30 365 C 34.2223 -3.47295 -0.0184607 0
M  V30 366 C 33.1763 -4.18536 0.895073 0
M  V30 367 C 32.5023 -5.34586 0.110592 0
M  V30 368 C 33.8023 -4.73287 2.209 0
M  V30 369 H 35.4963 -2.58372 1.51275 0
M  V30 370 H 33.0423 -1.24194 0.728818 0
M  V30 371 H 34.9953 -4.20268 -0.308675 0
M  V30 372 H 33.7193 -3.12933 -0.934907 0
M  V30 373 H 32.3783 -3.47446 1.16949 0
M  V30 374 H 32.0263 -4.96469 -0.807902 0
M  V30 375 H 31.7263 -5.83183 0.719087 0
M  V30 376 H 33.2503 -6.10355 -0.172871 0
M  V30 377 H 34.6643 -5.38013 1.98028 0
M  V30 378 H 33.0613 -5.32373 2.76946 0
M  V30 379 H 34.1313 -3.91331 2.86336 0
M  V30 380 N 35.4744 -0.807222 -1.35358 0
M  V30 381 C 36.7224 -0.387122 -1.98358 0
M  V30 382 C 37.0434 1.04942 -1.64354 0
M  V30 383 O 36.3134 1.72615 -0.926339 0
M  V30 384 H 34.8934 -0.140154 -0.733734 0
M  V30 385 H 37.5554 -1.0332 -1.6526 0
M  V30 386 H 36.6514 -0.493352 -3.08176 0
M  V30 387 N 36.9525 1.47285 -0.560781 0
M  V30 388 C 37.9155 2.28535 0.174488 0
M  V30 389 C 38.9155 1.37153 0.839388 0
M  V30 390 O 40.1055 1.59748 0.694702 0
M  V30 391 C 37.2375 3.16934 1.25561 0
M  V30 392 H 38.4305 2.95012 -0.539262 0
M  V30 393 H 35.9835 1.53034 -0.317865 0
M  V30 394 H 36.7185 2.55157 2.00164 0
M  V30 395 H 36.5035 3.8419 0.783604 0
M  V30 396 H 37.9935 3.78143 1.77193 0
M  V30 397 N 38.4306 0.297415 1.54768 0
M  V30 398 C 39.8466 -0.0560823 1.59501 0
M  V30 399 C 40.0466 -1.52725 1.31444 0
M  V30 400 O 39.1026 -2.27947 1.08611 0
M  V30 401 C 40.4156 0.338631 2.98787 0
M  V30 402 C 41.9636 0.287097 3.11681 0
M  V30 403 C 42.4386 0.656579 4.53269 0
M  V30 404 N 43.9296 0.608977 4.59179 0
M  V30 405 C 44.6646 0.867385 5.66802 0
M  V30 406 N 44.1606 1.19157 6.82476 0
M  V30 407 N 45.9536 0.794687 5.56454 0
M  V30 408 H 38.1046 1.25624 1.71267 0
M  V30 409 H 40.3676 0.509057 0.799728 0
M  V30 410 H 40.0736 1.36263 3.2423 0
M  V30 411 H 39.9476 -0.309508 3.75928 0
M  V30 412 H 42.3346 -0.727649 2.85988 0
M  V30 413 H 42.4156 0.969809 2.36703 0
M  V30 414 H 42.0596 1.66912 4.7969 0
M  V30 415 H 41.9896 -0.0481649 5.26578 0
M  V30 416 H 44.4806 0.369198 3.76092 0
M  V30 417 H 44.7936 1.37482 7.60473 0
M  V30 418 H 43.1386 1.22958 6.84037 0
M  V30 419 H 46.3296 0.541098 4.64962 0
M  V30 420 H 46.5026 0.999445 6.40246 0
M  V30 421 N 39.9087 -1.5758 0.0250728 0
M  V30 422 C 41.1367 -1.9593 -0.664747 0
M  V30 423 C 41.5517 -0.901352 -1.65895 0
M  V30 424 O 40.9087 0.117255 -1.82123 0
M  V30 425 C 40.9597 -3.34342 -1.37468 0
M  V30 426 O 40.6807 -4.36079 -0.420324 0
M  V30 427 C 42.1817 -3.873 -2.1567 0
M  V30 428 H 39.4017 -0.645405 -0.183557 0
M  V30 429 H 41.9457 -2.04329 0.0836372 0
M  V30 430 H 40.1007 -3.27175 -2.0745 0
M  V30 431 H 40.5147 -5.16297 -0.923991 0
M  V30 432 H 41.9887 -4.86504 -2.60803 0
M  V30 433 H 42.4657 -3.21331 -2.99405 0
M  V30 434 H 43.0717 -3.97723 -1.50654 0
M  V30 435 N 41.3868 0.248026 -1.55636 0
M  V30 436 C 42.3498 1.29044 -1.89421 0
M  V30 437 C 43.3498 1.41134 -0.770581 0
M  V30 438 O 44.5398 1.39854 -1.03858 0
M  V30 439 C 41.6718 2.66831 -2.12165 0
M  V30 440 H 42.8648 1.00305 -2.82629 0
M  V30 441 H 40.4178 0.487265 -1.48511 0
M  V30 442 H 41.1528 3.00711 -1.21422 0
M  V30 443 H 40.9378 2.59438 -2.93997 0
M  V30 444 H 42.4278 3.42103 -2.3949 0
M  V30 445 N 42.8649 1.48995 0.513639 0
M  V30 446 C 44.0899 1.61792 1.29762 0
M  V30 447 C 44.5149 0.284475 1.85936 0
M  V30 448 O 43.8729 -0.746185 1.65232 0
M  V30 449 C 43.9209 2.67993 2.41272 0
M  V30 450 O 43.0249 2.26287 3.44772 0
M  V30 451 H 42.3659 0.541963 0.38363 0
M  V30 452 H 44.8959 1.95097 0.616307 0
M  V30 453 H 44.9059 2.89772 2.87221 0
M  V30 454 H 43.5809 3.64791 1.9975 0
M  V30 455 H 42.1579 2.14788 3.04829 0
M  V30 456 N 44.343 -0.763751 1.37857 0
M  V30 457 C 45.293 -1.86765 1.30777 0
M  V30 458 C 46.277 -1.59726 0.194015 0
M  V30 459 O 47.469 -1.7172 0.42911 0
M  V30 460 C 44.598 -3.24343 1.12502 0
M  V30 461 C 43.684 -3.57307 2.28456 0
M  V30 462 N 44.075 -3.61398 3.53871 0
M  V30 463 C 42.373 -3.87517 2.20786 0
M  V30 464 C 43.074 -3.91339 4.30382 0
M  V30 465 N 42.05 -4.07649 3.59615 0
M  V30 466 H 45.852 -1.88191 2.25746 0
M  V30 467 H 43.366 -0.9606 1.30944 0
M  V30 468 H 45.363 -4.03327 1.05514 0
M  V30 469 H 44.023 -3.24175 0.184574 0
M  V30 470 H 45.034 -3.43407 3.87675 0
M  V30 471 H 41.711 -3.95125 1.34844 0
M  V30 472 H 43.101 -4.01213 5.3896 0
M  V30 473 N 45.8211 -1.22559 -0.990812 0
M  V30 474 C 46.7541 -0.940773 -2.07905 0
M  V30 475 C 47.7321 0.117082 -1.62178 0
M  V30 476 O 48.9161 -0.0149506 -1.88494 0
M  V30 477 C 46.0431 -0.415321 -3.36144 0
M  V30 478 C 45.0891 -1.45818 -4.00799 0
M  V30 479 S 45.9221 -3.03219 -4.41382 0
M  V30 480 C 47.0781 -2.52317 -5.72789 0
M  V30 481 H 47.3111 -1.8623 -2.31745 0
M  V30 482 H 44.8441 -1.05688 -1.12558 0
M  V30 483 H 46.8021 -0.118747 -4.10328 0
M  V30 484 H 45.4631 0.485121 -3.10331 0
M  V30 485 H 44.6561 -1.04044 -4.93144 0
M  V30 486 H 44.2581 -1.70356 -3.32949 0
M  V30 487 H 46.5501 -1.93688 -6.49224 0
M  V30 488 H 47.4931 -3.43161 -6.19392 0
M  V30 489 H 47.9011 -1.93529 -5.30289 0
M  V30 490 N 47.2992 1.18797 -1.03562 0
M  V30 491 C 48.5272 1.92599 -0.755869 0
M  V30 492 C 48.9422 1.75886 0.686271 0
M  V30 493 O 48.2992 1.08517 1.46732 0
M  V30 494 C 48.3502 3.44159 -1.10619 0
M  V30 495 O 48.0712 3.60341 -2.4917 0
M  V30 496 C 49.5722 4.3507 -0.850214 0
M  V30 497 H 46.7922 0.611587 -0.276048 0
M  V30 498 H 49.3362 1.50742 -1.38192 0
M  V30 499 H 47.4912 3.83823 -0.525194 0
M  V30 500 H 47.9052 4.54128 -2.62427 0
M  V30 501 H 49.3792 5.39989 -1.14523 0
M  V30 502 H 49.8562 4.38673 0.215176 0
M  V30 503 H 50.4622 4.01097 -1.41426 0
M  V30 504 N 48.7773 0.814389 1.34928 0
M  V30 505 C 49.7243 0.22822 2.29669 0
M  V30 506 C 50.6943 -0.642164 1.53184 0
M  V30 507 O 51.8793 -0.585605 1.81591 0
M  V30 508 C 49.0193 -0.61089 3.3965 0
M  V30 509 C 48.1323 0.280792 4.31086 0
M  V30 510 C 47.2673 -0.567067 5.28165 0
M  V30 511 C 46.3063 0.324531 6.11239 0
M  V30 512 N 45.4433 -0.483756 7.00431 0
M  V30 513 H 50.2833 1.04153 2.79206 0
M  V30 514 H 47.8203 0.525133 1.37407 0
M  V30 515 H 49.7783 -1.11263 4.0209 0
M  V30 516 H 48.4083 -1.38939 2.91369 0
M  V30 517 H 47.4603 0.900688 3.69583 0
M  V30 518 H 48.7723 0.966723 4.89342 0
M  V30 519 H 47.9263 -1.13363 5.96015 0
M  V30 520 H 46.6653 -1.28654 4.70425 0
M  V30 521 H 45.6703 0.903298 5.42329 0
M  V30 522 H 46.8953 1.04198 6.71059 0
M  V30 523 H 44.8413 -1.18706 6.45171 0
M  V30 524 H 44.7583 0.143965 7.55863 0
M  V30 525 H 46.0263 -1.03334 7.7262 0
M  V30 526 N 50.2554 -1.46986 0.568584 0
M  V30 527 C 51.5324 -1.95592 -0.0174074 0
M  V30 528 C 51.9124 -1.51124 -1.47393 0
M  V30 529 O 51.2604 -0.755329 -2.15655 0
M  V30 530 C 51.4704 -3.48719 0.139913 0
M  V30 531 C 52.8184 -4.246 0.000426376 0
M  V30 532 O 53.8424 -3.56135 0.0680316 0
M  V30 533 O 52.7014 -5.46302 -0.146988 0
M  V30 534 H 49.7954 -0.82498 -0.0577599 0
M  V30 535 H 52.3414 -1.57335 0.635909 0
M  V30 536 H 51.1134 -3.73927 1.15301 0
M  V30 537 H 50.7364 -3.93771 -0.550491 0
M  V30 538 N 51.7335 -0.305618 -1.54608 0
M  V30 539 C 52.6665 0.610536 -2.19881 0
M  V30 540 C 53.6445 1.1294 -1.16976 0
M  V30 541 O 54.8285 1.19673 -1.45638 0
M  V30 542 C 51.9555 1.83583 -2.84631 0
M  V30 543 C 51.0015 1.4498 -4.01102 0
M  V30 544 S 51.8345 0.501793 -5.33144 0
M  V30 545 C 52.9905 1.73478 -6.01379 0
M  V30 546 H 53.2235 0.0560177 -2.97247 0
M  V30 547 H 50.7565 -0.0897434 -1.54139 0
M  V30 548 H 52.7145 2.53898 -3.22562 0
M  V30 549 H 51.3755 2.36152 -2.07102 0
M  V30 550 H 50.5685 2.36236 -4.45206 0
M  V30 551 H 50.1705 0.826553 -3.64752 0
M  V30 552 H 52.4625 2.67473 -6.22467 0
M  V30 553 H 53.4055 1.33622 -6.95378 0
M  V30 554 H 53.8135 1.9136 -5.31076 0
M  V30 555 N 53.2116 1.57565 -0.0334293 0
M  V30 556 C 54.4586 1.91978 0.644272 0
M  V30 557 C 54.7866 0.910231 1.71887 0
M  V30 558 O 54.0416 -0.0801961 1.95536 0
M  V30 559 C 54.3406 3.33112 1.29504 0
M  V30 560 C 54.0066 4.49537 0.350388 0
M  V30 561 C 52.6686 4.81115 0.0903974 0
M  V30 562 C 55.0206 5.20347 -0.298032 0
M  V30 563 C 52.3486 5.8086 -0.825746 0
M  V30 564 C 54.7006 6.2107 -1.20226 0
M  V30 565 C 53.3646 6.51088 -1.4711 0
M  V30 566 H 52.6346 0.702496 0.235756 0
M  V30 567 H 55.2816 1.91259 -0.0961176 0
M  V30 568 H 53.5866 3.30113 2.11028 0
M  V30 569 H 55.2836 3.57011 1.82603 0
M  V30 570 H 51.8736 4.24883 0.563205 0
M  V30 571 H 56.0576 4.96178 -0.110234 0
M  V30 572 H 51.3136 6.02461 -1.04169 0
M  V30 573 H 55.4876 6.75057 -1.71086 0
M  V30 574 H 53.1146 7.28193 -2.18264 0
M  V30 575 N 54.6897 -0.239769 1.55765 0
M  V30 576 C 56.1007 -0.808263 1.68297 0
M  V30 577 C 56.4517 -1.85736 0.632181 0
M  V30 578 O 55.5767 -2.15277 -0.220204 0
M  V30 579 C 56.1717 -1.47284 3.05111 0
M  V30 580 C 54.7307 -1.98895 3.19559 0
M  V30 581 C 53.8777 -0.842575 2.64189 0
M  V30 582 H 56.8287 -0.0154422 1.58692 0
M  V30 583 H 56.8497 -2.34111 2.99954 0
M  V30 584 H 56.3617 -0.709053 3.81568 0
M  V30 585 H 54.4627 -2.78132 2.47938 0
M  V30 586 H 54.5757 -2.18143 4.26556 0
M  V30 587 H 52.9397 -1.24501 2.22197 0
M  V30 588 H 53.7227 -0.0917552 3.43177 0
M  V30 589 N 56.1678 -1.49265 -0.50573 0
M  V30 590 C 57.4158 -1.582 -1.25766 0
M  V30 591 C 57.7368 -0.268482 -1.93143 0
M  V30 592 O 57.0068 0.711833 -1.8251 0
M  V30 593 H 55.5868 -0.582873 -0.467191 0
M  V30 594 H 58.2488 -1.85865 -0.586525 0
M  V30 595 H 57.3448 -2.37563 -2.02412 0
M  V30 596 N 57.6459 0.756429 -1.3826 0
M  V30 597 C 59.0569 1.33359 -1.30661 0
M  V30 598 C 59.4079 1.96161 0.0388875 0
M  V30 599 O 58.5329 1.94874 0.940918 0
M  V30 600 C 59.1279 2.42477 -2.36622 0
M  V30 601 C 57.6869 2.95922 -2.3261 0
M  V30 602 C 56.8339 1.69275 -2.19639 0
M  V30 603 H 59.7849 0.55552 -1.4866 0
M  V30 604 H 59.8059 3.22345 -2.02174 0
M  V30 605 H 59.3179 1.96739 -3.34538 0
M  V30 606 H 57.4189 3.45996 -1.38267 0
M  V30 607 H 57.5319 3.50494 -3.26636 0
M  V30 608 H 55.8959 1.92793 -1.66442 0
M  V30 609 H 56.6789 1.25619 -3.19491 0
M  V30 610 N 59.124 1.23083 0.984299 0
M  V30 611 C 60.354 1.08556 1.75781 0
M  V30 612 C 60.762 -0.366171 1.85623 0
M  V30 613 O 60.105 -1.26524 1.33182 0
M  V30 614 C 60.167 1.63208 3.20318 0
M  V30 615 C 59.831 3.11922 3.33997 0
M  V30 616 C 60.828 4.09259 3.2063 0
M  V30 617 C 58.513 3.51552 3.58771 0
M  V30 618 C 60.507 5.4421 3.31835 0
M  V30 619 C 58.194 4.86649 3.69616 0
M  V30 620 C 59.192 5.82787 3.56157 0
M  V30 621 O 58.88 7.15431 3.66626 0
M  V30 622 H 58.612 0.380713 0.5586 0
M  V30 623 H 61.166 1.63321 1.2456 0
M  V30 624 H 59.396 1.0286 3.72769 0
M  V30 625 H 61.085 1.44216 3.79416 0
M  V30 626 H 61.851 3.79984 3.01392 0
M  V30 627 H 57.73 2.77239 3.6832 0
M  V30 628 H 61.274 6.1923 3.21247 0
M  V30 629 H 57.171 5.15601 3.88363 0
M  V30 630 H 57.939 7.23127 3.83445 0
M  V30 631 N 60.6021 -1.18246 1.0419 0
M  V30 632 C 62.0131 -1.69914 0.773698 0
M  V30 633 C 62.3641 -1.83085 -0.705297 0
M  V30 634 O 61.4891 -1.51123 -1.5489 0
M  V30 635 C 62.0841 -3.08619 1.39784 0
M  V30 636 C 60.6431 -3.57494 1.17792 0
M  V30 637 C 59.7901 -2.34013 1.48773 0
M  V30 638 H 62.7411 -1.02904 1.20816 0
M  V30 639 H 62.7621 -3.71958 0.801714 0
M  V30 640 H 62.2741 -2.99001 2.47426 0
M  V30 641 H 60.3751 -3.72406 0.120295 0
M  V30 642 H 60.4881 -4.40852 1.87581 0
M  V30 643 H 58.8521 -2.37986 0.907463 0
M  V30 644 H 59.6351 -2.27013 2.57527 0
M  V30 645 N 62.0802 -0.821533 -1.34494 0
M  V30 646 C 63.4962 -0.507117 -1.51329 0
M  V30 647 C 63.6962 0.968964 -1.76673 0
M  V30 648 O 62.7522 1.75348 -1.81685 0
M  V30 649 C 64.0652 -1.36544 -2.67911 0
M  V30 650 C 65.6132 -1.36242 -2.81793 0
M  V30 651 C 66.0882 -2.2052 -4.01416 0
M  V30 652 N 67.5792 -2.18136 -4.08621 0
M  V30 653 C 68.3142 -2.80095 -5.00334 0
M  V30 654 N 67.8102 -3.51039 -5.9728 0
M  V30 655 N 69.6032 -2.69656 -4.93196 0
M  V30 656 H 61.7542 -1.77729 -1.16302 0
M  V30 657 H 64.0172 -0.757291 -0.570276 0
M  V30 658 H 63.7232 -2.41361 -2.55808 0
M  V30 659 H 63.5972 -1.02917 -3.62888 0
M  V30 660 H 65.9842 -0.322041 -2.93338 0
M  V30 661 H 66.0652 -1.73866 -1.87628 0
M  V30 662 H 65.7092 -3.24607 -3.90631 0
M  V30 663 H 65.6392 -1.80247 -4.94791 0
M  V30 664 H 68.1302 -1.6653 -3.39229 0
M  V30 665 H 68.4432 -3.95565 -6.63889 0
M  V30 666 H 66.7882 -3.55145 -5.97409 0
M  V30 667 H 69.9792 -2.13808 -4.16418 0
M  V30 668 H 70.1522 -3.1823 -5.64476 0
M  V30 669 N 63.5583 1.46682 -0.576371 0
M  V30 670 C 64.7863 2.06798 -0.0649635 0
M  V30 671 C 65.2013 1.42612 1.23723 0
M  V30 672 O 64.5583 0.529203 1.74659 0
M  V30 673 C 64.6093 3.6132 0.114202 0
M  V30 674 O 64.3303 4.23104 -1.13644 0
M  V30 675 C 65.8313 4.38349 0.66069 0
M  V30 676 H 63.0513 0.668778 -0.0545616 0
M  V30 677 H 65.5953 1.88404 -0.795237 0
M  V30 678 H 63.7503 3.79162 0.794673 0
M  V30 679 H 64.1643 5.15894 -0.946253 0
M  V30 680 H 65.6383 5.47081 0.73526 0
M  V30 681 H 66.1153 4.05953 1.67627 0
M  V30 682 H 66.7213 4.25297 0.0152951 0
M  V30 683 N 65.0364 0.313813 1.54444 0
M  V30 684 C 66.4474 -0.176243 1.85866 0
M  V30 685 C 66.7984 -1.52405 1.23561 0
M  V30 686 O 65.9234 -2.09605 0.538016 0
M  V30 687 C 66.5184 -0.32657 3.37222 0
M  V30 688 C 65.0774 -0.760846 3.6863 0
M  V30 689 C 64.2244 0.123247 2.77026 0
M  V30 690 H 67.1754 0.534418 1.49431 0
M  V30 691 H 67.1964 -1.15908 3.62416 0
M  V30 692 H 66.7084 0.654531 3.82541 0
M  V30 693 H 64.8094 -1.75204 3.28838 0
M  V30 694 H 64.9224 -0.571353 4.75681 0
M  V30 695 H 63.2864 -0.399597 2.51546 0
M  V30 696 H 64.0694 1.10094 3.25168 0
M  V30 697 N 66.5145 -1.57545 0.0417849 0
M  V30 698 C 67.4245 -2.14451 -0.951213 0
M  V30 699 C 68.4405 -1.09992 -1.34825 0
M  V30 700 O 69.6165 -1.42114 -1.42708 0
M  V30 701 C 66.6815 -2.67063 -2.21084 0
M  V30 702 C 65.7425 -3.86284 -1.87304 0
M  V30 703 C 64.9755 -4.36378 -3.07261 0
M  V30 704 O 65.1985 -3.85587 -4.20332 0
M  V30 705 O 64.1325 -5.28077 -2.88822 0
M  V30 706 H 67.9585 -2.99601 -0.497287 0
M  V30 707 H 65.5435 -1.48317 -0.179567 0
M  V30 708 H 67.4255 -3.00914 -2.95006 0
M  V30 709 H 66.1005 -1.84989 -2.65633 0
M  V30 710 H 65.0075 -3.57338 -1.10727 0
M  V30 711 H 66.3405 -4.6956 -1.47562 0
M  V30 712 N 67.9926 0.231505 -1.5589 0
M  V30 713 C 68.9026 1.308 -1.94752 0
M  V30 714 C 69.9186 1.51826 -0.849989 0
M  V30 715 O 71.0946 1.6515 -1.15271 0
M  V30 716 C 68.1596 2.63968 -2.24771 0
M  V30 717 C 67.2206 2.51331 -3.48039 0
M  V30 718 C 66.4536 3.78148 -3.76616 0
M  V30 719 O 66.6766 4.80722 -3.07022 0
M  V30 720 O 65.6106 3.75857 -4.70123 0
M  V30 721 H 69.4366 1.0083 -2.86474 0
M  V30 722 H 67.0216 0.433547 -1.42971 0
M  V30 723 H 68.9036 3.42633 -2.45318 0
M  V30 724 H 67.5786 2.9364 -1.36225 0
M  V30 725 H 66.4856 1.709 -3.32782 0
M  V30 726 H 67.8186 2.26601 -4.36936 0
M  V30 727 N 69.4707 1.49531 0.497807 0
M  V30 728 C 70.8867 1.36365 0.829266 0
M  V30 729 C 71.0867 0.399184 1.97506 0
M  V30 730 O 70.1427 -0.167977 2.51941 0
M  V30 731 C 71.4557 2.77153 1.16647 0
M  V30 732 C 73.0037 2.85877 1.27449 0
M  V30 733 C 73.4787 4.2744 1.64497 0
M  V30 734 N 74.9697 4.30265 1.7154 0
M  V30 735 C 75.7047 5.3677 2.01656 0
M  V30 736 N 75.2007 6.53516 2.29976 0
M  V30 737 N 76.9937 5.24189 2.02934 0
M  V30 738 H 69.1447 2.10831 -0.257703 0
M  V30 739 H 71.4077 0.946534 -0.0527091 0
M  V30 740 H 71.1137 3.49442 0.397872 0
M  V30 741 H 70.9877 3.12722 2.10915 0
M  V30 742 H 73.3747 2.13824 2.0338 0
M  V30 743 H 73.4557 2.53887 0.312244 0
M  V30 744 H 73.0997 5.00021 0.891151 0
M  V30 745 H 73.0297 4.56896 2.61827 0
M  V30 746 H 75.5207 3.4607 1.51802 0
M  V30 747 H 75.8337 7.30506 2.52153 0
M  V30 748 H 74.1787 6.56737 2.27425 0
M  V30 749 H 77.3697 4.31988 1.80289 0
M  V30 750 H 77.5427 6.07286 2.26071 0
M  V30 751 N 70.9488 -0.749086 1.3866 0
M  V30 752 C 71.9118 -1.84457 1.36045 0
M  V30 753 C 72.9118 -1.58682 0.260122 0
M  V30 754 O 74.1018 -1.66343 0.517261 0
M  V30 755 C 71.2338 -3.22008 1.11911 0
M  V30 756 H 72.4268 -1.88182 2.33512 0
M  V30 757 H 69.9798 -0.951266 1.24019 0
M  V30 758 H 70.7148 -3.2395 0.150686 0
M  V30 759 H 70.4998 -3.42111 1.91579 0
M  V30 760 H 71.9898 -4.0208 1.12788 0
M  V30 761 N 72.4269 -1.23603 -0.977757 0
M  V30 762 C 73.3899 -1.02069 -2.05218 0
M  V30 763 C 74.3899 0.0184305 -1.60789 0
M  V30 764 O 75.5799 -0.221569 -1.72785 0
M  V30 765 C 72.7119 -0.544926 -3.36517 0
M  V30 766 H 73.9049 -1.9742 -2.25755 0
M  V30 767 H 71.4579 -1.05684 -1.15155 0
M  V30 768 H 72.1929 0.412241 -3.21669 0
M  V30 769 H 71.9779 -1.2948 -3.70105 0
M  V30 770 H 73.4679 -0.414985 -4.15533 0
M  V30 771 N 73.905 1.17692 -1.04816 0
M  V30 772 C 74.868 2.19787 -0.650117 0
M  V30 773 C 75.868 1.58044 0.296427 0
M  V30 774 O 77.058 1.74012 0.0808097 0
M  V30 775 C 74.19 3.40869 0.0456987 0
M  V30 776 H 75.383 2.56516 -1.5537 0
M  V30 777 H 72.936 1.31708 -0.841594 0
M  V30 778 H 73.671 3.09681 0.962726 0
M  V30 779 H 73.456 3.86928 -0.634727 0
M  V30 780 H 74.946 4.16445 0.310432 0
M  V30 781 N 75.3831 0.828654 1.34056 0
M  V30 782 C 76.3461 0.259927 2.27721 0
M  V30 783 C 77.3461 -0.565478 1.50529 0
M  V30 784 O 78.5361 -0.38075 1.69988 0
M  V30 785 C 75.6681 -0.634944 3.34935 0
M  V30 786 H 76.8611 1.0863 2.79534 0
M  V30 787 H 74.4141 0.600951 1.44285 0
M  V30 788 H 75.1491 -1.48416 2.88346 0
M  V30 789 H 74.9341 -0.0444999 3.92075 0
M  V30 790 H 76.4241 -1.02648 4.04788 0
M  V30 791 N 76.8612 -1.46375 0.584142 0
M  V30 792 C 77.8082 -2.30323 -0.148286 0
M  V30 793 C 78.7782 -1.40703 -0.882713 0
M  V30 794 O 79.9632 -1.69651 -0.873099 0
M  V30 795 C 77.1032 -3.25196 -1.15507 0
M  V30 796 C 76.2162 -4.29915 -0.423943 0
M  V30 797 C 75.3512 -5.11914 -1.41838 0
M  V30 798 C 74.3902 -6.08381 -0.673736 0
M  V30 799 N 73.5272 -6.83242 -1.6163 0
M  V30 800 H 78.3672 -2.92427 0.573644 0
M  V30 801 H 75.9042 -1.44118 0.294703 0
M  V30 802 H 77.8622 -3.78646 -1.75166 0
M  V30 803 H 76.4922 -2.64898 -1.8447 0
M  V30 804 H 75.5442 -3.7931 0.287714 0
M  V30 805 H 76.8562 -4.98549 0.158128 0
M  V30 806 H 76.0102 -5.69648 -2.08773 0
M  V30 807 H 74.7492 -4.43243 -2.03438 0
M  V30 808 H 73.7542 -5.49799 0.00938483 0
M  V30 809 H 74.9792 -6.79071 -0.0631082 0
M  V30 810 H 72.9252 -6.1728 -2.22038 0
M  V30 811 H 72.8422 -7.48144 -1.08707 0
M  V30 812 H 74.1102 -7.45534 -2.27596 0
M  V30 813 N 78.3393 -0.321999 -1.54275 0
M  V30 814 C 79.2863 0.544664 -2.24281 0
M  V30 815 C 80.2563 1.1129 -1.23303 0
M  V30 816 O 81.4413 1.15354 -1.51981 0
M  V30 817 C 78.5813 1.70045 -3.00298 0
M  V30 818 C 77.6943 1.16159 -4.1609 0
M  V30 819 C 76.8293 2.28293 -4.79641 0
M  V30 820 C 75.8683 1.71648 -5.8754 0
M  V30 821 N 75.0053 2.77438 -6.44959 0
M  V30 822 H 79.8453 -0.0588907 -2.97942 0
M  V30 823 H 77.3823 -0.0408345 -1.47043 0
M  V30 824 H 79.3403 2.38054 -3.42616 0
M  V30 825 H 77.9703 2.27531 -2.28975 0
M  V30 826 H 77.0223 0.373092 -3.78566 0
M  V30 827 H 78.3343 0.707087 -4.93763 0
M  V30 828 H 77.4883 3.0421 -5.2492 0
M  V30 829 H 76.2273 2.77079 -4.01346 0
M  V30 830 H 75.2323 0.942282 -5.41665 0
M  V30 831 H 76.4573 1.23741 -6.67731 0
M  V30 832 H 74.4033 3.25519 -5.69538 0
M  V30 833 H 74.3203 2.36547 -7.1804 0
M  V30 834 H 75.5883 3.53189 -6.94894 0
M  V30 835 N 79.8174 1.5752 -0.0501392 0
M  V30 836 C 81.0474 1.96678 0.632573 0
M  V30 837 C 81.4554 0.926298 1.64974 0
M  V30 838 O 80.7984 -0.09802 1.83438 0
M  V30 839 C 80.8604 3.32068 1.37735 0
M  V30 840 C 80.5244 4.54076 0.516131 0
M  V30 841 C 81.5214 5.19445 -0.217357 0
M  V30 842 C 79.2064 5.00304 0.44736 0
M  V30 843 C 81.2004 6.29378 -1.00807 0
M  V30 844 C 78.8874 6.10114 -0.347038 0
M  V30 845 C 79.8854 6.74512 -1.07344 0
M  V30 846 O 79.5734 7.82211 -1.85477 0
M  V30 847 H 79.3054 0.652193 0.177821 0
M  V30 848 H 81.8594 2.05091 -0.112543 0
M  V30 849 H 80.0894 3.20206 2.16807 0
M  V30 850 H 81.7784 3.55981 1.95019 0
M  V30 851 H 82.5444 4.84689 -0.173688 0
M  V30 852 H 78.4234 4.49971 1.00235 0
M  V30 853 H 81.9674 6.79575 -1.57556 0
M  V30 854 H 77.8644 6.44307 -0.392349 0
M  V30 855 H 78.6324 7.98982 -1.77678 0
M  V30 856 N 81.2955 -0.223234 1.56011 0
M  V30 857 C 82.2435 -1.29627 1.93131 0
M  V30 858 C 83.2375 -1.48608 0.813146 0
M  V30 859 O 84.4435 -1.49802 0.997966 0
M  V30 860 H 80.8185 -0.434563 0.613726 0
M  V30 861 H 82.7895 -0.955995 2.82672 0
M  V30 862 C 81.5385 -2.63983 2.26292 0
M  V30 863 H 80.8615 -2.50185 3.11846 0
M  V30 864 H 82.3015 -3.3788 2.56151 0
M  V30 865 C 80.7605 -3.18866 1.08747 0
M  V30 866 O 81.2905 -4.00192 0.347727 0
M  V30 867 N 79.4965 -2.77217 0.871743 0
M  V30 868 H 79.0435 -2.1119 1.47501 0
M  V30 869 H 79.0015 -3.1428 0.0869905 0
M  V30 870 N 82.7736 -1.49793 -0.48987 0
M  V30 871 C 83.7066 -1.61898 -1.60823 0
M  V30 872 C 84.6846 -0.467651 -1.5573 0
M  V30 873 O 85.8686 -0.684682 -1.75626 0
M  V30 874 C 82.9956 -1.58422 -2.99366 0
M  V30 875 C 82.0416 -2.78889 -3.22682 0
M  V30 876 S 82.8746 -4.40429 -3.04602 0
M  V30 877 C 84.0306 -4.39617 -4.4552 0
M  V30 878 H 84.2636 -2.56502 -1.50312 0
M  V30 879 H 81.7966 -1.38822 -0.675849 0
M  V30 880 H 83.7546 -1.57103 -3.79248 0
M  V30 881 H 82.4156 -0.650866 -3.07283 0
M  V30 882 H 81.6086 -2.72708 -4.23847 0
M  V30 883 H 81.2106 -2.77678 -2.50541 0
M  V30 884 H 83.5026 -4.12022 -5.37814 0
M  V30 885 H 84.4456 -5.41097 -4.56749 0
M  V30 886 H 84.8536 -3.69554 -4.2672 0
M  V30 887 N 84.2517 0.741722 -1.39055 0
M  V30 888 C 85.6677 1.04638 -1.20512 0
M  V30 889 C 85.8677 2.01405 -0.0620218 0
M  V30 890 O 84.9237 2.45547 0.588457 0
M  V30 891 C 86.2367 1.6151 -2.53643 0
M  V30 892 C 87.7847 1.73623 -2.6043 0
M  V30 893 C 88.2597 2.33906 -3.93767 0
M  V30 894 N 89.7507 2.41323 -3.9537 0
M  V30 895 C 90.4857 2.88888 -4.95309 0
M  V30 896 N 89.9817 3.36401 -6.05645 0
M  V30 897 N 91.7747 2.88037 -4.82692 0
M  V30 898 H 83.9257 0.0998155 -2.12165 0
M  V30 899 H 86.1887 0.106907 -0.941953 0
M  V30 900 H 85.8947 0.978739 -3.37807 0
M  V30 901 H 85.7687 2.60411 -2.72885 0
M  V30 902 H 88.1557 2.36384 -1.76655 0
M  V30 903 H 88.2367 0.733945 -2.45045 0
M  V30 904 H 87.8807 1.71776 -4.7797 0
M  V30 905 H 87.8107 3.34799 -4.06469 0
M  V30 906 H 90.3017 2.07734 -3.15682 0
M  V30 907 H 90.6147 3.71186 -6.77821 0
M  V30 908 H 88.9597 3.34427 -6.09248 0
M  V30 909 H 92.1507 2.50237 -3.95599 0
M  V30 910 H 92.3237 3.24792 -5.60726 0
M  V30 911 N 85.7298 1.2412 0.971189 0
M  V30 912 C 86.9758 1.08041 1.71625 0
M  V30 913 C 87.3088 -0.380407 1.90438 0
M  V30 914 O 86.5838 -1.28127 1.46334 0
M  V30 915 C 86.8668 1.81682 3.10908 0
M  V30 916 C 86.7198 3.35493 2.99608 0
M  V30 917 C 88.0388 1.58671 4.10501 0
M  V30 918 H 85.1578 0.39388 0.622919 0
M  V30 919 H 87.7998 1.52743 1.13003 0
M  V30 920 H 85.9498 1.43684 3.60953 0
M  V30 921 H 87.6218 3.83068 2.57015 0
M  V30 922 H 85.8648 3.64052 2.35899 0
M  V30 923 H 86.5358 3.82217 3.98264 0
M  V30 924 H 89.0118 1.91719 3.69301 0
M  V30 925 H 87.8878 2.1266 5.06031 0
M  V30 926 H 88.1488 0.524161 4.38982 0
M  V30 927 N 87.2079 -1.17134 1.05439 0
M  V30 928 C 88.1179 -2.24878 0.668365 0
M  V30 929 C 89.1339 -1.71186 -0.311687 0
M  V30 930 O 90.3099 -2.00738 -0.163161 0
M  V30 931 C 87.3749 -3.46662 0.051648 0
M  V30 932 C 86.4359 -4.15429 1.08246 0
M  V30 933 C 85.6689 -5.31399 0.495082 0
M  V30 934 O 85.8919 -5.66153 -0.694743 0
M  V30 935 O 84.8259 -5.89187 1.23056 0
M  V30 936 H 88.6519 -2.60189 1.56637 0
M  V30 937 H 86.2369 -1.24482 0.826104 0
M  V30 938 H 88.1189 -4.20394 -0.290966 0
M  V30 939 H 86.7939 -3.13142 -0.819971 0
M  V30 940 H 85.7009 -3.43704 1.47711 0
M  V30 941 H 87.0339 -4.52982 1.92532 0
M  V30 942 N 88.686 -0.835752 -1.33615 0
M  V30 943 C 89.963 -0.352017 -1.92406 0
M  V30 944 C 90.343 1.16225 -1.76224 0
M  V30 945 O 89.691 1.97526 -1.14873 0
M  V30 946 C 89.901 -0.795485 -3.39813 0
M  V30 947 C 91.249 -0.801703 -4.16963 0
M  V30 948 O 92.273 -0.738889 -3.48452 0
M  V30 949 O 91.132 -0.886607 -5.3926 0
M  V30 950 H 88.226 -0.0989641 -0.821057 0
M  V30 951 H 90.772 -0.921397 -1.42507 0
M  V30 952 H 89.544 -1.83795 -3.45449 0
M  V30 953 H 89.167 -0.202505 -3.97084 0
M  V30 954 N 90.1641 1.46063 -0.591896 0
M  V30 955 C 91.3941 2.06418 -0.0867676 0
M  V30 956 C 91.8021 1.43975 1.22751 0
M  V30 957 O 91.1451 0.542531 1.75506 0
M  V30 958 C 91.2071 3.59213 0.143725 0
M  V30 959 C 90.8711 4.439 -1.08635 0
M  V30 960 C 91.8681 4.79864 -2.00067 0
M  V30 961 C 89.5531 4.84896 -1.31077 0
M  V30 962 C 91.5471 5.55661 -3.12282 0
M  V30 963 C 89.2341 5.6045 -2.43596 0
M  V30 964 C 90.2321 5.95747 -3.34027 0
M  V30 965 O 89.9201 6.69772 -4.4459 0
M  V30 966 H 89.6521 0.673443 -0.0587447 0
M  V30 967 H 92.2061 1.88539 -0.814994 0
M  V30 968 H 90.4361 3.75433 0.926668 0
M  V30 969 H 92.1251 4.01463 0.5985 0
M  V30 970 H 92.8911 4.48763 -1.83947 0
M  V30 971 H 88.7701 4.56867 -0.61594 0
M  V30 972 H 92.3141 5.8313 -3.82891 0
M  V30 973 H 88.2111 5.90965 -2.59674 0
M  V30 974 H 88.9791 6.88207 -4.43073 0
M  V30 975 N 91.6422 0.330177 1.54103 0
M  V30 976 C 92.5522 -0.541534 2.28264 0
M  V30 977 C 93.5682 -1.12351 1.32866 0
M  V30 978 O 94.7442 -1.14206 1.65888 0
M  V30 979 C 91.8092 -1.68322 3.03098 0
M  V30 980 C 90.8702 -1.13238 4.14096 0
M  V30 981 C 90.1032 -2.21966 4.85352 0
M  V30 982 O 90.3262 -3.42437 4.56172 0
M  V30 983 O 89.2602 -1.87013 5.7211 0
M  V30 984 H 93.0862 0.060938 3.03639 0
M  V30 985 H 90.6712 0.09565 1.49093 0
M  V30 986 H 92.5532 -2.34777 3.49939 0
M  V30 987 H 91.2282 -2.27176 2.30593 0
M  V30 988 H 90.1352 -0.432736 3.71589 0
M  V30 989 H 91.4682 -0.588898 4.88664 0
M  V30 990 N 93.1203 -1.57491 0.0584922 0
M  V30 991 C 94.5313 -1.80526 -0.476138 0
M  V30 992 C 94.8823 -0.971334 -1.70469 0
M  V30 993 O 94.0073 -0.190012 -2.15564 0
M  V30 994 C 94.6023 -3.27424 -0.870587 0
M  V30 995 C 93.1613 -3.51351 -1.35015 0
M  V30 996 C 92.3083 -2.75343 -0.32887 0
M  V30 997 H 95.2593 -1.56133 0.284312 0
M  V30 998 H 95.2803 -3.38745 -1.73299 0
M  V30 999 H 94.7923 -3.88093 0.0237627 0
M  V30 1000 H 92.8933 -2.95971 -2.26345 0
M  V30 1001 H 93.0063 -4.60059 -1.33726 0
M  V30 1002 H 91.3703 -2.417 -0.803321 0
M  V30 1003 H 92.1533 -3.38743 0.557521 0
M  V30 1004 N 94.5984 0.214957 -1.56127 0
M  V30 1005 C 95.8284 0.953707 -1.8327 0
M  V30 1006 C 96.2364 1.78181 -0.636262 0
M  V30 1007 O 95.5794 1.79191 0.404516 0
M  V30 1008 C 95.6414 1.91516 -3.0424 0
M  V30 1009 C 95.3054 1.27094 -4.38972 0
M  V30 1010 C 96.3024 0.657575 -5.15725 0
M  V30 1011 C 93.9874 1.28073 -4.85698 0
M  V30 1012 C 95.9814 0.0625968 -6.37369 0
M  V30 1013 C 93.6684 0.681914 -6.07283 0
M  V30 1014 C 94.6664 0.0739046 -6.8296 0
M  V30 1015 O 94.3544 -0.515582 -8.02245 0
M  V30 1016 H 94.0864 0.284764 -0.613095 0
M  V30 1017 H 96.6404 0.233283 -2.04071 0
M  V30 1018 H 94.8704 2.67475 -2.79274 0
M  V30 1019 H 96.5594 2.52001 -3.18198 0
M  V30 1020 H 97.3254 0.642288 -4.80728 0
M  V30 1021 H 93.2044 1.74337 -4.26764 0
M  V30 1022 H 96.7484 -0.412593 -6.96379 0
M  V30 1023 H 92.6454 0.694636 -6.41752 0
M  V30 1024 H 93.4134 -0.410544 -8.1747 0
M  V30 1025 N 96.0765 1.50051 0.48192 0
M  V30 1026 C 97.4875 1.5348 1.06305 0
M  V30 1027 C 97.8385 0.331997 1.93371 0
M  V30 1028 O 96.9635 -0.556256 2.09129 0
M  V30 1029 C 97.5585 2.7813 1.93466 0
M  V30 1030 C 96.1175 2.84275 2.46707 0
M  V30 1031 C 95.2645 2.47637 1.24785 0
M  V30 1032 H 98.2155 1.56472 0.264995 0
M  V30 1033 H 98.2365 2.59372 2.78399 0
M  V30 1034 H 97.7485 3.65654 1.30072 0
M  V30 1035 H 95.8495 2.01077 3.13686 0
M  V30 1036 H 95.9625 3.8691 2.82555 0
M  V30 1037 H 94.3265 1.99835 1.57918 0
M  V30 1038 H 95.1095 3.37457 0.630694 0
M  V30 1039 N 97.5546 -0.734337 1.39446 0
M  V30 1040 C 98.8316 -1.48579 1.27215 0
M  V30 1041 C 99.2116 -2.1077 -0.117968 0
M  V30 1042 O 98.5596 -1.98646 -1.12924 0
M  V30 1043 C 98.7696 -2.53667 2.39696 0
M  V30 1044 C 100.118 -3.20031 2.79044 0
M  V30 1045 O 101.142 -2.6398 2.39151 0
M  V30 1046 O 100.001 -4.21455 3.47905 0
M  V30 1047 H 97.0946 -0.659816 0.49857 0
M  V30 1048 H 99.6406 -0.768106 1.51322 0
M  V30 1049 H 98.4126 -2.06096 3.32626 0
M  V30 1050 H 98.0356 -3.32994 2.17258 0
M  V30 1051 N 99.0327 -1.24633 -0.964593 0
M  V30 1052 C 100.31 -0.995809 -1.68354 0
M  V30 1053 C 100.69 0.480964 -2.05548 0
M  V30 1054 O 100.038 1.45599 -1.76105 0
M  V30 1055 C 100.248 -1.92177 -2.91323 0
M  V30 1056 C 101.596 -2.19446 -3.63495 0
M  V30 1057 O 102.62 -1.89855 -3.01386 0
M  V30 1058 O 101.479 -2.69714 -4.75307 0
M  V30 1059 H 98.5727 -0.376854 -0.736146 0
M  V30 1060 H 101.119 -1.35745 -1.0184 0
M  V30 1061 H 99.8907 -2.91938 -2.60553 0
M  V30 1062 H 99.5137 -1.56349 -3.65569 0
M  V30 1063 N 100.511 1.16574 -1.06058 0
M  V30 1064 C 101.759 1.86677 -0.77434 0
M  V30 1065 C 102.08 1.81959 0.701147 0
M  V30 1066 O 101.35 1.2515 1.50713 0
M  V30 1067 H 99.9298 0.691134 -0.283449 0
M  V30 1068 H 102.592 1.41378 -1.34158 0
M  V30 1069 H 101.688 2.92181 -1.09711 0
M  V30 1070 N 101.989 0.842826 1.3317 0
M  V30 1071 C 102.922 0.223862 2.27099 0
M  V30 1072 C 103.9 -0.631311 1.49844 0
M  V30 1073 O 105.084 -0.590708 1.79005 0
M  V30 1074 C 102.211 -0.685313 3.31694 0
M  V30 1075 C 101.257 0.094919 4.26394 0
M  V30 1076 S 102.09 1.45546 5.15341 0
M  V30 1077 C 103.246 0.551685 6.23464 0
M  V30 1078 H 103.479 1.02015 2.79249 0
M  V30 1079 H 101.012 0.639797 1.4052 0
M  V30 1080 H 102.97 -1.20426 3.92438 0
M  V30 1081 H 101.631 -1.4553 2.78352 0
M  V30 1082 H 100.824 -0.597059 5.00451 0
M  V30 1083 H 100.426 0.545054 3.70007 0
M  V30 1084 H 102.718 -0.248877 6.77043 0
M  V30 1085 H 103.661 1.26253 6.96754 0
M  V30 1086 H 104.069 0.131275 5.64347 0
M  V30 1087 N 103.467 -1.45747 0.599634 0
M  V30 1088 C 104.715 -2.01893 0.0915472 0
M  V30 1089 C 105.036 -1.47155 -1.27946 0
M  V30 1090 O 104.306 -0.66273 -1.84349 0
M  V30 1091 H 102.886 -0.746363 0.0308524 0
M  V30 1092 H 105.548 -1.78645 0.779237 0
M  V30 1093 H 104.644 -3.1208 0.0353086 0
M  V30 1094 N 104.945 -0.338344 -1.53925 0
M  V30 1095 C 106.175 0.260919 -2.04946 0
M  V30 1096 C 106.583 1.45174 -1.2133 0
M  V30 1097 O 105.926 1.82122 -0.240262 0
M  V30 1098 C 105.988 0.744596 -3.51704 0
M  V30 1099 C 105.652 -0.325883 -4.55837 0
M  V30 1100 C 106.649 -1.16687 -5.06636 0
M  V30 1101 C 104.334 -0.478317 -5.00017 0
M  V30 1102 C 106.328 -2.14588 -6.00192 0
M  V30 1103 C 104.015 -1.46073 -5.93385 0
M  V30 1104 C 105.013 -2.29297 -6.4336 0
M  V30 1105 O 104.701 -3.25867 -7.34892 0
M  V30 1106 H 104.433 0.0551207 -0.673749 0
M  V30 1107 H 106.987 -0.486984 -1.99544 0
M  V30 1108 H 105.217 1.54366 -3.54553 0
M  V30 1109 H 106.906 1.26383 -3.85723 0
M  V30 1110 H 107.672 -1.06016 -4.73271 0
M  V30 1111 H 103.551 0.159613 -4.60724 0
M  V30 1112 H 107.095 -2.79585 -6.39123 0
M  V30 1113 H 102.992 -1.56802 -6.26166 0
M  V30 1114 H 103.76 -3.21278 -7.5281 0
M  V30 1115 N 106.423 1.57458 -0.0668435 0
M  V30 1116 C 107.671 1.92919 0.602214 0
M  V30 1117 C 107.992 0.947215 1.70449 0
M  V30 1118 O 107.262 -0.00544117 1.95899 0
M  V30 1119 H 105.842 0.71217 0.22544 0
M  V30 1120 H 108.504 1.94508 -0.123535 0
M  V30 1121 H 107.6 2.94589 1.03073 0
M  V30 1122 N 107.901 -0.206675 1.56239 0
M  V30 1123 C 109.178 -0.954051 1.70755 0
M  V30 1124 C 109.558 -2.01841 0.618353 0
M  V30 1125 O 108.906 -2.25444 -0.372434 0
M  V30 1126 C 109.116 -1.551 3.12642 0
M  V30 1127 C 110.464 -2.03757 3.72516 0
M  V30 1128 O 111.488 -1.64965 3.15698 0
M  V30 1129 O 110.347 -2.75103 4.72208 0
M  V30 1130 H 107.441 -0.446636 0.696021 0
M  V30 1131 H 109.987 -0.197283 1.68549 0
M  V30 1132 H 108.759 -0.783212 3.83382 0
M  V30 1133 H 108.382 -2.37291 3.19028 0
M  V30 1134 N 109.379 -1.50304 -0.473955 0
M  V30 1135 C 110.609 -1.64663 -1.24778 0
M  V30 1136 C 111.017 -0.328174 -1.86332 0
M  V30 1137 O 110.36 0.699536 -1.69859 0
M  V30 1138 C 110.422 -2.6778 -2.39863 0
M  V30 1139 C 110.086 -4.11413 -1.98969 0
M  V30 1140 C 111.083 -4.97372 -1.51385 0
M  V30 1141 C 108.768 -4.57312 -2.07777 0
M  V30 1142 C 110.762 -6.27277 -1.13148 0
M  V30 1143 C 108.449 -5.87223 -1.69152 0
M  V30 1144 C 109.447 -6.72031 -1.21915 0
M  V30 1145 O 109.135 -7.99518 -0.838237 0
M  V30 1146 H 108.867 -0.556602 -0.383627 0
M  V30 1147 H 111.421 -1.9726 -0.572491 0
M  V30 1148 H 109.651 -2.30419 -3.10554 0
M  V30 1149 H 111.34 -2.71388 -3.01833 0
M  V30 1150 H 112.106 -4.63128 -1.44004 0
M  V30 1151 H 107.985 -3.91449 -2.43493 0
M  V30 1152 H 111.529 -6.93425 -0.762077 0
M  V30 1153 H 107.426 -6.20989 -1.76191 0
M  V30 1154 H 108.194 -8.12764 -0.967339 0
M  V30 1155 N 110.857 0.726932 -1.39834 0
M  V30 1156 C 112.268 1.30558 -1.3346 0
M  V30 1157 C 112.619 1.962 -0.00273003 0
M  V30 1158 O 111.744 1.96826 0.899371 0
M  V30 1159 C 112.339 2.37404 -2.41713 0
M  V30 1160 C 110.898 2.90921 -2.38835 0
M  V30 1161 C 110.045 1.64578 -2.2318 0
M  V30 1162 H 112.996 0.523862 -1.49804 0
M  V30 1163 H 113.017 3.17984 -2.08966 0
M  V30 1164 H 112.529 1.89599 -3.38635 0
M  V30 1165 H 110.63 3.42985 -1.45575 0
M  V30 1166 H 110.743 3.43487 -3.33997 0
M  V30 1167 H 109.107 1.89219 -1.70494 0
M  V30 1168 H 109.89 1.18814 -3.22084 0
M  V30 1169 N 112.336 1.25143 0.95797 0
M  V30 1170 C 113.283 1.05235 2.05412 0
M  V30 1171 C 114.253 -0.0374561 1.66058 0
M  V30 1172 O 115.438 0.119073 1.90428 0
M  V30 1173 C 112.578 0.673589 3.38462 0
M  V30 1174 C 111.691 1.8379 3.90954 0
M  V30 1175 C 110.826 1.40381 5.12315 0
M  V30 1176 C 109.865 2.53746 5.57027 0
M  V30 1177 N 109.002 2.11136 6.69601 0
M  V30 1178 H 113.842 1.99048 2.21774 0
M  V30 1179 H 111.379 0.991277 1.08683 0
M  V30 1180 H 113.337 0.434964 4.14926 0
M  V30 1181 H 111.967 -0.227554 3.21997 0
M  V30 1182 H 111.019 2.18992 3.11041 0
M  V30 1183 H 112.331 2.68937 4.20089 0
M  V30 1184 H 111.485 1.12464 5.96185 0
M  V30 1185 H 110.224 0.523015 4.84887 0
M  V30 1186 H 109.229 2.82412 4.71724 0
M  V30 1187 H 110.454 3.42398 5.86464 0
M  V30 1188 H 108.4 1.25468 6.4389 0
M  V30 1189 H 108.317 2.89832 6.98236 0
M  V30 1190 H 109.585 1.86385 7.56889 0
M  V30 1191 N 113.814 -1.1601 1.06675 0
M  V30 1192 C 114.744 -2.22688 0.702307 0
M  V30 1193 C 115.725 -1.67306 -0.307032 0
M  V30 1194 O 116.91 -1.93352 -0.181305 0
M  V30 1195 C 114.04 -3.47178 0.092038 0
M  V30 1196 C 112.994 -4.15477 1.02777 0
M  V30 1197 C 112.32 -5.33963 0.28061 0
M  V30 1198 C 113.62 -4.66019 2.35846 0
M  V30 1199 H 115.314 -2.53429 1.59419 0
M  V30 1200 H 112.86 -1.21813 0.767961 0
M  V30 1201 H 114.813 -4.21037 -0.174814 0
M  V30 1202 H 113.537 -3.15749 -0.834877 0
M  V30 1203 H 112.196 -3.43549 1.27944 0
M  V30 1204 H 111.844 -4.98788 -0.649545 0
M  V30 1205 H 111.544 -5.806 0.904258 0
M  V30 1206 H 113.068 -6.10596 0.021396 0
M  V30 1207 H 114.482 -5.3144 2.15045 0
M  V30 1208 H 112.879 -5.23293 2.93743 0
M  V30 1209 H 113.949 -3.82023 2.98641 0
M  V30 1210 N 115.292 -0.849877 -1.32721 0
M  V30 1211 C 116.703 -0.506188 -1.79707 0
M  V30 1212 C 117.054 0.975627 -1.70223 0
M  V30 1213 O 116.179 1.76078 -1.25799 0
M  V30 1214 C 116.774 -0.912044 -3.26293 0
M  V30 1215 C 115.333 -0.620326 -3.71253 0
M  V30 1216 C 114.48 -1.11439 -2.53922 0
M  V30 1217 H 117.431 -1.03754 -1.20087 0
M  V30 1218 H 117.452 -0.226493 -3.79825 0
M  V30 1219 H 116.964 -1.99057 -3.33164 0
M  V30 1220 H 115.065 0.447674 -3.69901 0
M  V30 1221 H 115.178 -1.18327 -4.64258 0
M  V30 1222 H 113.542 -0.534834 -2.49021 0
M  V30 1223 H 114.325 -2.19992 -2.6355 0
M  V30 1224 N 116.77 1.45427 -0.607355 0
M  V30 1225 C 118.047 1.9557 -0.0344566 0
M  V30 1226 C 118.427 1.54979 1.43334 0
M  V30 1227 O 117.775 0.812241 2.13576 0
M  V30 1228 C 117.985 3.48226 -0.232321 0
M  V30 1229 C 119.333 4.2445 -0.113001 0
M  V30 1230 O 120.357 3.55829 -0.162431 0
M  V30 1231 O 119.216 5.465 0.00209442 0
M  V30 1232 H 116.31 0.826222 0.0358667 0
M  V30 1233 H 118.856 1.55594 -0.6774 0
M  V30 1234 H 117.628 3.70739 -1.25174 0
M  V30 1235 H 117.251 3.95092 0.445896 0
M  V30 1236 N 118.248 0.346503 1.53744 0
M  V30 1237 C 119.664 -0.00530975 1.59599 0
M  V30 1238 C 119.864 -1.48465 1.36236 0
M  V30 1239 O 118.92 -2.24376 1.15808 0
M  V30 1240 C 120.233 0.433516 2.97559 0
M  V30 1241 C 121.781 0.386111 3.10609 0
M  V30 1242 C 122.256 0.800451 4.50951 0
M  V30 1243 N 123.747 0.754753 4.5701 0
M  V30 1244 C 124.482 1.04727 5.63755 0
M  V30 1245 N 123.978 1.4081 6.7834 0
M  V30 1246 N 125.771 0.971316 5.53644 0
M  V30 1247 H 117.922 1.31009 1.67184 0
M  V30 1248 H 120.185 0.534242 0.783128 0
M  V30 1249 H 119.891 1.46509 3.19731 0
M  V30 1250 H 119.765 -0.189753 3.76722 0
M  V30 1251 H 122.152 -0.636295 2.88158 0
M  V30 1252 H 122.233 1.04462 2.33498 0
M  V30 1253 H 121.877 1.82088 4.74137 0
M  V30 1254 H 121.807 0.119386 5.26465 0
M  V30 1255 H 124.298 0.488662 3.74727 0
M  V30 1256 H 124.611 1.61607 7.55714 0
M  V30 1257 H 122.956 1.44657 6.79779 0
M  V30 1258 H 126.147 0.688748 4.63005 0
M  V30 1259 H 126.32 1.20263 6.36742 0
M  V30 1260 N 119.726 -1.57421 0.075193 0
M  V30 1261 C 120.951 -1.98364 -0.605515 0
M  V30 1262 C 121.376 -0.953383 -1.62149 0
M  V30 1263 O 120.734 0.0806053 -1.81121 0
M  V30 1264 C 120.782 -3.38332 -1.24756 0
M  V30 1265 O 119.886 -3.37959 -2.36342 0
M  V30 1266 H 119.227 -0.645553 -0.155428 0
M  V30 1267 H 121.757 -2.04044 0.150714 0
M  V30 1268 H 121.767 -3.75591 -1.5936 0
M  V30 1269 H 120.442 -4.12846 -0.503129 0
M  V30 1270 H 119.019 -3.12474 -2.03506 0
M  V30 1271 N 121.204 0.198386 -1.56346 0
M  V30 1272 C 122.136 1.26987 -1.90806 0
M  V30 1273 C 123.149 1.41877 -0.798419 0
M  V30 1274 O 124.338 1.42362 -1.07682 0
M  V30 1275 C 121.438 2.64246 -2.12196 0
M  V30 1276 C 120.611 2.71007 -3.43328 0
M  V30 1277 C 119.67 3.89439 -3.5387 0
M  V30 1278 O 118.696 3.76695 -4.26719 0
M  V30 1279 N 119.898 5.04752 -2.86715 0
M  V30 1280 H 122.663 0.977433 -2.83313 0
M  V30 1281 H 120.224 0.388322 -1.57174 0
M  V30 1282 H 122.216 3.41896 -2.1654 0
M  V30 1283 H 120.786 2.85992 -1.26204 0
M  V30 1284 H 120.006 1.79657 -3.50881 0
M  V30 1285 H 121.294 2.72512 -4.29668 0
M  V30 1286 H 120.692 5.18004 -2.2735 0
M  V30 1287 H 119.249 5.8036 -2.96691 0
M  V30 1288 N 122.682 1.50554 0.465978 0
M  V30 1289 C 123.632 1.66177 1.56106 0
M  V30 1290 C 124.616 0.516265 1.52393 0
M  V30 1291 O 125.808 0.770906 1.5933 0
M  V30 1292 C 122.937 1.76396 2.94515 0
M  V30 1293 C 122.023 2.9664 3.03093 0
M  V30 1294 N 122.414 4.20245 2.81474 0
M  V30 1295 C 120.712 2.95304 3.34233 0
M  V30 1296 C 121.413 5.01259 2.95151 0
M  V30 1297 N 120.389 4.35318 3.25576 0
M  V30 1298 H 124.191 2.59434 1.38099 0
M  V30 1299 H 121.705 1.47808 0.6728 0
M  V30 1300 H 123.702 1.85694 3.73261 0
M  V30 1301 H 122.362 0.843017 3.13565 0
M  V30 1302 H 123.373 4.4966 2.56956 0
M  V30 1303 H 120.05 2.12729 3.59239 0
M  V30 1304 H 121.44 6.09564 2.82632 0
M  V30 1305 N 124.16 -0.719506 1.40217 0
M  V30 1306 C 125.07 -1.86378 1.42479 0
M  V30 1307 C 126.086 -1.71073 0.317834 0
M  V30 1308 O 127.262 -1.93406 0.561794 0
M  V30 1309 C 124.327 -3.22136 1.28178 0
M  V30 1310 C 123.388 -3.49723 2.48982 0
M  V30 1311 C 122.621 -4.79004 2.35353 0
M  V30 1312 O 122.844 -5.53821 1.36524 0
M  V30 1313 O 121.778 -5.06839 3.2465 0
M  V30 1314 H 125.604 -1.87425 2.38968 0
M  V30 1315 H 123.189 -0.869405 1.21498 0
M  V30 1316 H 125.071 -4.03234 1.22395 0
M  V30 1317 H 123.746 -3.21825 0.347934 0
M  V30 1318 H 122.653 -2.6865 2.60342 0
M  V30 1319 H 123.986 -3.54828 3.41113 0
M  V30 1320 N 125.638 -1.25649 -0.95132 0
M  V30 1321 C 127.054 -1.02542 -1.223 0
M  V30 1322 C 127.254 0.255715 -1.99871 0
M  V30 1323 O 126.31 0.967558 -2.33226 0
M  V30 1324 C 127.623 -2.25065 -1.99415 0
M  V30 1325 C 129.171 -2.29861 -2.12446 0
M  V30 1326 C 129.646 -3.52048 -2.92961 0
M  V30 1327 N 131.137 -3.52465 -3.00538 0
M  V30 1328 C 131.872 -4.43672 -3.63239 0
M  V30 1329 N 131.368 -5.45157 -4.27523 0
M  V30 1330 N 133.161 -4.31346 -3.60412 0
M  V30 1331 H 125.312 -2.07951 -0.432471 0
M  V30 1332 H 127.575 -0.91339 -0.253816 0
M  V30 1333 H 127.281 -3.18194 -1.49817 0
M  V30 1334 H 127.155 -2.28502 -3.00111 0
M  V30 1335 H 129.542 -1.37252 -2.61239 0
M  V30 1336 H 129.623 -2.3044 -1.11044 0
M  V30 1337 H 129.267 -4.44981 -2.44856 0
M  V30 1338 H 129.197 -3.48715 -3.94596 0
M  V30 1339 H 131.688 -2.79056 -2.54826 0
M  V30 1340 H 132.001 -6.10958 -4.73234 0
M  V30 1341 H 130.346 -5.49025 -4.26141 0
M  V30 1342 H 133.537 -3.51288 -3.09377 0
M  V30 1343 H 133.71 -5.02624 -4.0899 0
M  V30 1344 N 127.117 1.15442 -1.07289 0
M  V30 1345 C 128.394 1.82306 -0.708792 0
M  V30 1346 C 128.774 1.94991 0.808807 0
M  V30 1347 O 128.122 1.50085 1.72298 0
M  V30 1348 C 128.332 3.18695 -1.42247 0
M  V30 1349 C 129.68 3.94341 -1.57417 0
M  V30 1350 O 130.704 3.28247 -1.38319 0
M  V30 1351 O 129.563 5.12839 -1.88834 0
M  V30 1352 H 126.657 0.787628 -0.252132 0
M  V30 1353 H 129.203 1.22559 -1.17377 0
M  V30 1354 H 127.975 3.04557 -2.45684 0
M  V30 1355 H 127.598 3.86128 -0.948223 0
M  V30 1356 N 128.595 0.856903 1.32268 0
M  V30 1357 C 130.006 0.515711 1.79436 0
M  V30 1358 C 130.357 -0.966586 1.70738 0
M  V30 1359 O 129.482 -1.75409 1.26731 0
M  V30 1360 C 130.077 0.929335 3.25805 0
M  V30 1361 C 128.636 0.640006 3.70919 0
M  V30 1362 C 127.783 1.12784 2.53328 0
M  V30 1363 H 130.734 1.04389 1.19535 0
M  V30 1364 H 130.755 0.246633 3.797 0
M  V30 1365 H 130.267 2.00821 3.32103 0
M  V30 1366 H 128.368 -0.428051 3.70133 0
M  V30 1367 H 128.481 1.20788 4.63624 0
M  V30 1368 H 126.845 0.548033 2.48734 0
M  V30 1369 H 127.628 2.21387 2.62379 0
M  V30 1370 N 130.073 -1.45103 0.615059 0
M  V30 1371 C 131.319 -2.03035 0.121804 0
M  V30 1372 C 131.674 -1.47393 -1.23665 0
M  V30 1373 O 130.967 -0.642061 -1.80522 0
M  V30 1374 C 131.161 -3.57386 0.0318797 0
M  V30 1375 C 130.99 -4.28 1.38007 0
M  V30 1376 C 129.76 -4.65624 1.9627 0
M  V30 1377 C 131.958 -4.5948 2.31047 0
M  V30 1378 N 129.94 -5.21132 3.24492 0
M  V30 1379 C 131.311 -5.159 3.43872 0
M  V30 1380 C 133.366 -4.41423 2.30326 0
M  V30 1381 C 132.069 -5.56165 4.5615 0
M  V30 1382 C 134.095 -4.82726 3.41658 0
M  V30 1383 C 133.457 -5.39245 4.53205 0
M  V30 1384 H 129.556 -0.77702 0.0881159 0
M  V30 1385 H 132.14 -1.76819 0.815044 0
M  V30 1386 H 130.311 -3.83247 -0.630599 0
M  V30 1387 H 132.043 -4.01976 -0.468721 0
M  V30 1388 H 128.798 -4.49421 1.49392 0
M  V30 1389 H 129.222 -5.53377 3.90004 0
M  V30 1390 H 133.864 -3.97033 1.45343 0
M  V30 1391 H 131.582 -5.99517 5.41854 0
M  V30 1392 H 135.168 -4.7048 3.42257 0
M  V30 1393 H 134.048 -5.70616 5.37929 0
M  V30 1394 N 131.551 -0.354651 -1.53558 0
M  V30 1395 C 132.781 0.239167 -2.05211 0
M  V30 1396 C 133.189 1.43879 -1.22863 0
M  V30 1397 O 132.532 1.81857 -0.259565 0
M  V30 1398 C 132.594 0.707251 -3.52474 0
M  V30 1399 C 132.258 -0.374212 -4.55465 0
M  V30 1400 C 133.255 -1.22054 -5.0537 0
M  V30 1401 C 130.94 -0.531323 -4.99482 0
M  V30 1402 C 132.934 -2.20942 -5.97882 0
M  V30 1403 C 130.621 -1.52358 -5.91802 0
M  V30 1404 C 131.619 -2.36108 -6.40892 0
M  V30 1405 O 131.307 -3.33643 -7.31394 0
M  V30 1406 H 131.039 0.0479716 -0.674296 0
M  V30 1407 H 133.593 -0.508121 -1.99016 0
M  V30 1408 H 131.823 1.50596 -3.56171 0
M  V30 1409 H 133.512 1.22285 -3.87042 0
M  V30 1410 H 134.278 -1.1103 -4.7212 0
M  V30 1411 H 130.157 0.110738 -4.60867 0
M  V30 1412 H 133.701 -2.86348 -6.36121 0
M  V30 1413 H 129.598 -1.63434 -6.24467 0
M  V30 1414 H 130.366 -3.29244 -7.4936 0
M  V30 1415 N 133.029 1.57378 -0.0835403 0
M  V30 1416 C 134.254 1.98682 0.594987 0
M  V30 1417 C 134.679 0.961969 1.61641 0
M  V30 1418 O 134.037 -0.0709989 1.81161 0
M  V30 1419 C 134.085 3.38988 1.2296 0
M  V30 1420 O 133.189 3.39208 2.34546 0
M  V30 1421 H 132.53 0.646368 0.152002 0
M  V30 1422 H 135.06 2.03961 -0.161533 0
M  V30 1423 H 135.07 3.76431 1.57366 0
M  V30 1424 H 133.745 4.13107 0.481228 0
M  V30 1425 H 132.322 3.13548 2.01846 0
M  V30 1426 N 134.507 -0.190092 1.56449 0
M  V30 1427 C 135.753 -0.906472 1.82084 0
M  V30 1428 C 136.108 -1.80677 0.661335 0
M  V30 1429 O 135.401 -1.88501 -0.343237 0
M  V30 1430 C 135.595 -1.75382 3.1141 0
M  V30 1431 C 135.424 -0.937053 4.39829 0
M  V30 1432 C 134.194 -0.619507 5.01488 0
M  V30 1433 C 136.392 -0.2874 5.13496 0
M  V30 1434 N 134.374 0.215367 6.13522 0
M  V30 1435 C 135.745 0.409454 6.18646 0
M  V30 1436 C 137.8 -0.203639 4.97483 0
M  V30 1437 C 136.503 1.1821 7.0952 0
M  V30 1438 C 138.529 0.555622 5.88784 0
M  V30 1439 C 137.891 1.24091 6.93384 0
M  V30 1440 H 133.99 -0.310931 0.717528 0
M  V30 1441 H 136.574 -0.174821 1.93914 0
M  V30 1442 H 134.745 -2.45703 3.00806 0
M  V30 1443 H 136.477 -2.41006 3.25112 0
M  V30 1444 H 133.232 -0.945126 4.64074 0
M  V30 1445 H 133.656 0.622562 6.74131 0
M  V30 1446 H 138.298 -0.719099 4.1664 0
M  V30 1447 H 136.016 1.70897 7.89823 0
M  V30 1448 H 139.602 0.621854 5.78467 0
M  V30 1449 H 138.482 1.81901 7.62812 0
M  V30 1450 N 135.985 -1.50799 -0.457987 0
M  V30 1451 C 137.262 -1.52968 -1.21902 0
M  V30 1452 C 137.642 -0.281906 -2.09209 0
M  V30 1453 O 136.99 0.734076 -2.16388 0
M  V30 1454 C 137.2 -2.8326 -2.03875 0
M  V30 1455 C 138.548 -3.34425 -2.6162 0
M  V30 1456 O 139.572 -2.8467 -2.14106 0
M  V30 1457 O 138.431 -4.21188 -3.48228 0
M  V30 1458 H 135.525 -0.614129 -0.553873 0
M  V30 1459 H 138.071 -1.63098 -0.468739 0
M  V30 1460 H 136.843 -3.65543 -1.39621 0
M  V30 1461 H 136.466 -2.76195 -2.8601 0
M  V30 1462 N 137.463 0.71206 -1.40597 0
M  V30 1463 C 138.395 1.83704 -1.37061 0
M  V30 1464 C 139.408 1.60453 -0.275426 0
M  V30 1465 O 140.597 1.70262 -0.53602 0
M  V30 1466 C 137.697 3.20172 -1.11099 0
M  V30 1467 C 136.87 3.7059 -2.3234 0
M  V30 1468 C 135.929 4.85681 -2.02485 0
M  V30 1469 O 134.955 4.9815 -2.75382 0
M  V30 1470 N 136.157 5.71735 -1.00497 0
M  V30 1471 H 138.922 1.87235 -2.34016 0
M  V30 1472 H 136.483 0.893739 -1.34996 0
M  V30 1473 H 138.475 3.94768 -0.891064 0
M  V30 1474 H 137.045 3.11767 -0.227989 0
M  V30 1475 H 136.265 2.87085 -2.7014 0
M  V30 1476 H 137.553 4.01011 -3.13157 0
M  V30 1477 H 136.951 5.64275 -0.401298 0
M  V30 1478 H 135.508 6.463 -0.844942 0
M  V30 1479 N 138.941 1.26152 0.944643 0
M  V30 1480 C 140.352 1.10454 1.50522 0
M  V30 1481 C 140.703 -0.31635 1.93633 0
M  V30 1482 O 139.828 -1.20746 1.79581 0
M  V30 1483 C 140.423 1.99891 2.73549 0
M  V30 1484 C 138.982 1.88348 3.25886 0
M  V30 1485 C 138.129 1.93447 1.9868 0
M  V30 1486 H 141.08 1.39292 0.760489 0
M  V30 1487 H 141.101 1.54477 3.47732 0
M  V30 1488 H 140.613 3.03297 2.42141 0
M  V30 1489 H 138.714 0.878636 3.62092 0
M  V30 1490 H 138.827 2.73696 3.93227 0
M  V30 1491 H 137.191 1.37456 2.14425 0
M  V30 1492 H 137.974 2.98476 1.69607 0
M  V30 1493 N 140.419 -1.14872 1.07899 0
M  V30 1494 C 141.667 -1.85422 0.803941 0
M  V30 1495 C 141.988 -1.83051 -0.67211 0
M  V30 1496 O 141.258 -1.27532 -1.48703 0
M  V30 1497 H 139.838 -0.686537 0.294408 0
M  V30 1498 H 142.5 -1.39226 1.3639 0
M  V30 1499 H 141.596 -2.90399 1.14346 0
M  V30 1500 N 141.898 -0.863906 -1.31812 0
M  V30 1501 C 142.828 -0.330843 -2.31144 0
M  V30 1502 C 143.809 0.575005 -1.60087 0
M  V30 1503 O 144.994 0.493304 -1.8783 0
M  V30 1504 C 142.124 0.47374 -3.44054 0
M  V30 1505 C 141.078 -0.338481 -4.26659 0
M  V30 1506 C 140.404 0.591412 -5.31419 0
M  V30 1507 C 141.704 -1.56926 -4.98168 0
M  V30 1508 H 143.398 -1.16086 -2.75979 0
M  V30 1509 H 140.944 -0.559657 -1.32679 0
M  V30 1510 H 142.897 0.857143 -4.12591 0
M  V30 1511 H 141.621 1.33721 -2.9797 0
M  V30 1512 H 140.28 -0.703754 -3.59782 0
M  V30 1513 H 139.928 1.45199 -4.81587 0
M  V30 1514 H 139.628 0.0519022 -5.87577 0
M  V30 1515 H 141.152 0.97179 -6.02817 0
M  V30 1516 H 142.566 -1.25764 -5.59336 0
M  V30 1517 H 140.963 -2.04739 -5.64094 0
M  V30 1518 H 142.033 -2.32544 -4.25501 0
M  V30 1519 N 143.376 1.44774 -0.622745 0
M  V30 1520 C 144.792 1.56986 -0.287652 0
M  V30 1521 C 144.992 1.61167 1.20944 0
M  V30 1522 O 144.048 1.55015 1.99315 0
M  V30 1523 C 145.361 2.84551 -0.972188 0
M  V30 1524 C 146.909 2.9825 -0.949536 0
M  V30 1525 C 147.384 4.28605 -1.61437 0
M  V30 1526 N 148.875 4.35399 -1.58057 0
M  V30 1527 C 149.61 5.34964 -2.064 0
M  V30 1528 N 149.106 6.40981 -2.62897 0
M  V30 1529 N 150.899 5.26419 -1.97078 0
M  V30 1530 H 143.05 1.40304 -1.59463 0
M  V30 1531 H 145.313 0.671794 -0.668878 0
M  V30 1532 H 145.019 2.87417 -2.02693 0
M  V30 1533 H 144.893 3.73807 -0.504771 0
M  V30 1534 H 147.28 2.94941 0.0967067 0
M  V30 1535 H 147.361 2.10364 -1.45536 0
M  V30 1536 H 147.005 4.32672 -2.66002 0
M  V30 1537 H 146.935 5.15334 -1.08344 0
M  V30 1538 H 149.426 3.59397 -1.16801 0
M  V30 1539 H 149.739 7.13225 -2.97539 0
M  V30 1540 H 148.084 6.4169 -2.66943 0
M  V30 1541 H 151.275 4.42504 -1.52669 0
M  V30 1542 H 151.448 6.03861 -2.35066 0
M  V30 1543 N 144.854 0.36279 1.53368 0
M  V30 1544 C 145.784 -0.476976 2.28576 0
M  V30 1545 C 146.765 -1.08631 1.30894 0
M  V30 1546 O 147.95 -1.10409 1.59761 0
M  V30 1547 C 145.08 -1.61828 3.07293 0
M  V30 1548 C 144.034 -1.13633 4.1264 0
M  V30 1549 C 143.36 -2.36766 4.79423 0
M  V30 1550 C 144.66 -0.223061 5.21823 0
M  V30 1551 H 146.354 0.150474 2.99022 0
M  V30 1552 H 143.9 0.0738103 1.43811 0
M  V30 1553 H 145.853 -2.21237 3.58653 0
M  V30 1554 H 144.577 -2.27292 2.34533 0
M  V30 1555 H 143.236 -0.564945 3.62221 0
M  V30 1556 H 142.884 -3.0068 4.03238 0
M  V30 1557 H 142.584 -2.05192 5.50609 0
M  V30 1558 H 144.108 -2.96865 5.33576 0
M  V30 1559 H 145.522 -0.724545 5.68703 0
M  V30 1560 H 143.919 0.001678 6.001 0
M  V30 1561 H 144.989 0.735553 4.79289 0
M  V30 1562 N 146.332 -1.57332 0.0918853 0
M  V30 1563 C 147.28 -2.15075 -0.885747 0
M  V30 1564 C 148.274 -1.09277 -1.29441 0
M  V30 1565 O 149.48 -1.27627 -1.26931 0
M  V30 1566 H 145.855 -0.687966 -0.303656 0
M  V30 1567 H 147.826 -2.96047 -0.373995 0
M  V30 1568 C 146.575 -2.74325 -2.13638 0
M  V30 1569 H 145.898 -3.55418 -1.8308 0
M  V30 1570 H 147.338 -3.183 -2.80109 0
M  V30 1571 C 145.797 -1.70062 -2.90827 0
M  V30 1572 O 146.327 -1.13763 -3.85254 0
M  V30 1573 N 144.533 -1.40628 -2.54307 0
M  V30 1574 H 144.08 -1.866 -1.7759 0
M  V30 1575 H 144.038 -0.711043 -3.06254 0
M  V30 1576 N 147.81 0.181792 -1.56548 0
M  V30 1577 C 149.056 0.896803 -1.82562 0
M  V30 1578 C 149.411 1.80324 -0.670908 0
M  V30 1579 O 148.704 1.8868 0.333235 0
M  V30 1580 C 148.898 1.73728 -3.12335 0
M  V30 1581 C 148.727 0.913714 -4.4032 0
M  V30 1582 C 147.497 0.592903 -5.01809 0
M  V30 1583 C 149.695 0.260164 -5.13642 0
M  V30 1584 N 147.677 -0.247901 -6.13399 0
M  V30 1585 C 149.048 -0.442256 -6.18421 0
M  V30 1586 C 151.103 0.177253 -4.97584 0
M  V30 1587 C 149.806 -1.21971 -7.08883 0
M  V30 1588 C 151.832 -0.586839 -5.88481 0
M  V30 1589 C 151.194 -1.27766 -6.92716 0
M  V30 1590 H 147.293 0.307122 -0.719166 0
M  V30 1591 H 149.877 0.164535 -1.94004 0
M  V30 1592 H 148.048 2.44105 -3.02105 0
M  V30 1593 H 149.78 2.39279 -3.26386 0
M  V30 1594 H 146.535 0.920502 -4.64568 0
M  V30 1595 H 146.959 -0.658304 -6.73792 0
M  V30 1596 H 151.601 0.696993 -4.17015 0
M  V30 1597 H 149.319 -1.75083 -7.88905 0
M  V30 1598 H 152.905 -0.652522 -5.78129 0
M  V30 1599 H 151.785 -1.85943 -7.61836 0
M  V30 1600 N 149.288 1.51039 0.449983 0
M  V30 1601 C 150.536 1.62759 1.19808 0
M  V30 1602 C 150.857 0.339981 1.92013 0
M  V30 1603 O 150.127 -0.643606 1.85026 0
M  V30 1604 H 148.707 0.599811 0.445237 0
M  V30 1605 H 151.369 1.87914 0.517138 0
M  V30 1606 H 150.465 2.44911 1.93455 0
M  V30 1607 N 150.766 -0.704594 1.40972 0
M  V30 1608 C 151.676 -1.84856 1.44448 0
M  V30 1609 C 152.692 -1.70726 0.335961 0
M  V30 1610 O 153.868 -1.92799 0.582276 0
M  V30 1611 C 150.933 -3.20758 1.31587 0
M  V30 1612 C 149.994 -3.47063 2.52677 0
M  V30 1613 C 149.227 -4.76481 2.4042 0
M  V30 1614 O 149.45 -5.52341 1.42391 0
M  V30 1615 O 148.384 -5.03367 3.30007 0
M  V30 1616 H 152.21 -1.8488 2.40942 0
M  V30 1617 H 149.795 -0.85647 1.22413 0
M  V30 1618 H 151.677 -4.01913 1.26665 0
M  V30 1619 H 150.352 -3.21438 0.382049 0
M  V30 1620 H 149.259 -2.65873 2.63177 0
M  V30 1621 H 150.592 -3.5119 3.44858 0
M  V30 1622 N 152.244 -1.26651 -0.937939 0
M  V30 1623 C 153.655 -1.1125 -1.49934 0
M  V30 1624 C 154.006 0.306077 -1.93798 0
M  V30 1625 O 153.131 1.19792 -1.80219 0
M  V30 1626 C 153.726 -2.01339 -2.72485 0
M  V30 1627 C 152.285 -1.90074 -3.24883 0
M  V30 1628 C 151.432 -1.94498 -1.97651 0
M  V30 1629 H 154.383 -1.39693 -0.753091 0
M  V30 1630 H 154.404 -1.56319 -3.46907 0
M  V30 1631 H 153.916 -3.04577 -2.40529 0
M  V30 1632 H 152.017 -0.897827 -3.61621 0
M  V30 1633 H 152.13 -2.75778 -3.9177 0
M  V30 1634 H 150.494 -1.38591 -2.13693 0
M  V30 1635 H 151.277 -2.99372 -1.68022 0
M  V30 1636 N 153.722 1.14298 -1.08507 0
M  V30 1637 C 154.655 2.18447 -0.660004 0
M  V30 1638 C 155.633 1.59242 0.328749 0
M  V30 1639 O 156.817 1.87062 0.232367 0
M  V30 1640 C 153.944 3.38688 0.0290807 0
M  V30 1641 C 152.99 4.1646 -0.919982 0
M  V30 1642 S 153.823 4.77334 -2.42718 0
M  V30 1643 C 154.979 6.00931 -1.75024 0
M  V30 1644 H 155.212 2.54166 -1.54231 0
M  V30 1645 H 152.745 1.25446 -0.900149 0
M  V30 1646 H 154.703 4.08342 0.420378 0
M  V30 1647 H 153.364 3.01289 0.887895 0
M  V30 1648 H 152.557 5.02529 -0.384751 0
M  V30 1649 H 152.159 3.52414 -1.25223 0
M  V30 1650 H 154.451 6.69017 -1.06877 0
M  V30 1651 H 155.394 6.59044 -2.58971 0
M  V30 1652 H 155.802 5.51089 -1.22317 0
M  V30 1653 N 155.201 0.870884 1.31352 0
M  V30 1654 C 156.151 0.298889 2.26032 0
M  V30 1655 C 157.135 -0.564595 1.50669 0
M  V30 1656 O 158.327 -0.411323 1.72154 0
M  V30 1657 C 155.456 -0.497842 3.39671 0
M  V30 1658 C 154.542 0.378937 4.22404 0
M  V30 1659 N 154.933 1.47284 4.83881 0
M  V30 1660 C 153.231 0.171535 4.4567 0
M  V30 1661 C 153.932 2.01359 5.45738 0
M  V30 1662 N 152.908 1.31047 5.27568 0
M  V30 1663 H 156.71 1.13494 2.71102 0
M  V30 1664 H 154.224 0.718745 1.45629 0
M  V30 1665 H 156.221 -0.924155 4.06528 0
M  V30 1666 H 154.881 -1.33149 2.96144 0
M  V30 1667 H 155.892 1.85575 4.8351 0
M  V30 1668 H 152.569 -0.626091 4.12779 0
M  V30 1669 H 153.959 2.93143 6.0458 0
M  V30 1670 N 156.679 -1.44442 0.630414 0
M  V30 1671 C 157.925 -2.02894 0.143332 0
M  V30 1672 C 158.28 -1.48697 -1.22094 0
M  V30 1673 O 157.573 -0.661171 -1.79831 0
M  V30 1674 C 157.767 -3.57332 0.0697835 0
M  V30 1675 C 157.596 -4.26512 1.42539 0
M  V30 1676 C 156.366 -4.63516 2.01198 0
M  V30 1677 C 158.564 -4.57004 2.35907 0
M  V30 1678 N 156.546 -5.17661 3.30001 0
M  V30 1679 C 157.917 -5.12223 3.49324 0
M  V30 1680 C 159.972 -4.38955 2.34995 0
M  V30 1681 C 158.675 -5.51295 4.62024 0
M  V30 1682 C 160.701 -4.79075 3.46758 0
M  V30 1683 C 160.063 -5.34407 4.58899 0
M  V30 1684 H 156.162 -0.776041 0.0963523 0
M  V30 1685 H 158.746 -1.75945 0.833752 0
M  V30 1686 H 156.917 -3.83894 -0.589915 0
M  V30 1687 H 158.649 -4.02451 -0.42606 0
M  V30 1688 H 155.404 -4.47811 1.54151 0
M  V30 1689 H 155.828 -5.4921 3.95851 0
M  V30 1690 H 160.47 -3.95469 1.49545 0
M  V30 1691 H 158.188 -5.93736 5.48182 0
M  V30 1692 H 161.774 -4.66824 3.47227 0
M  V30 1693 H 160.654 -5.64878 5.4395 0
M  V30 1694 N 158.157 -0.370918 -1.53173 0
M  V30 1695 C 159.107 0.489588 -2.22681 0
M  V30 1696 C 160.091 1.04442 -1.22395 0
M  V30 1697 O 161.283 0.973578 -1.47819 0
M  V30 1698 C 158.412 1.626 -3.02351 0
M  V30 1699 C 157.498 1.08379 -4.10018 0
M  V30 1700 N 157.889 0.265004 -5.05105 0
M  V30 1701 C 156.187 1.35809 -4.2482 0
M  V30 1702 C 156.888 -0.0324755 -5.81691 0
M  V30 1703 N 155.864 0.566581 -5.40639 0
M  V30 1704 H 159.666 -0.142729 -2.93553 0
M  V30 1705 H 157.18 -0.179221 -1.61408 0
M  V30 1706 H 159.177 2.2547 -3.50669 0
M  V30 1707 H 157.837 2.26132 -2.33011 0
M  V30 1708 H 158.848 -0.0962352 -5.17811 0
M  V30 1709 H 155.525 1.9958 -3.66707 0
M  V30 1710 H 156.915 -0.69473 -6.68299 0
M  V30 1711 N 159.635 1.57281 -0.100228 0
M  V30 1712 C 160.565 2.17328 0.853857 0
M  V30 1713 C 161.546 1.10804 1.2906 0
M  V30 1714 O 162.731 1.38963 1.35657 0
M  V30 1715 C 159.861 2.75772 2.11109 0
M  V30 1716 C 158.815 3.87713 1.81279 0
M  V30 1717 C 158.141 4.32882 3.13874 0
M  V30 1718 C 159.441 5.10677 1.09574 0
M  V30 1719 H 161.135 2.97305 0.353545 0
M  V30 1720 H 158.681 1.43009 0.168612 0
M  V30 1721 H 160.634 3.16433 2.78296 0
M  V30 1722 H 159.358 1.93057 2.63432 0
M  V30 1723 H 158.017 3.476 1.16489 0
M  V30 1724 H 157.665 3.47051 3.64095 0
M  V30 1725 H 157.365 5.08358 2.94696 0
M  V30 1726 H 158.889 4.7618 3.82211 0
M  V30 1727 H 160.303 5.48474 1.66879 0
M  V30 1728 H 158.7 5.91615 1.00557 0
M  V30 1729 H 159.77 4.84835 0.0793299 0
M  V30 1730 N 161.113 -0.173488 1.56642 0
M  V30 1731 C 162.39 -0.917617 1.7274 0
M  V30 1732 C 162.77 -2.00484 0.661027 0
M  V30 1733 O 162.118 -2.26184 -0.32453 0
M  V30 1734 C 162.328 -1.48433 3.15862 0
M  V30 1735 C 163.676 -1.95809 3.76754 0
M  V30 1736 O 164.7 -1.58231 3.19126 0
M  V30 1737 O 163.559 -2.65024 4.77938 0
M  V30 1738 H 160.653 -0.431772 0.705338 0
M  V30 1739 H 163.199 -0.161487 1.6893 0
M  V30 1740 H 161.971 -0.701715 3.84957 0
M  V30 1741 H 161.594 -2.30471 3.23989 0
M  V30 1742 N 162.591 -1.51276 -0.441967 0
M  V30 1743 C 163.524 -1.66933 -1.55591 0
M  V30 1744 C 164.502 -0.516958 -1.54163 0
M  V30 1745 O 165.686 -0.740209 -1.73358 0
M  V30 1746 C 162.813 -1.67866 -2.94174 0
M  V30 1747 C 161.859 -2.89013 -3.13646 0
M  V30 1748 S 162.692 -4.49897 -2.90436 0
M  V30 1749 C 163.848 -4.53568 -4.31308 0
M  V30 1750 H 164.081 -2.61155 -1.42076 0
M  V30 1751 H 161.614 -1.40902 -0.631341 0
M  V30 1752 H 163.572 -1.69089 -3.74058 0
M  V30 1753 H 162.233 -0.748296 -3.05056 0
M  V30 1754 H 161.426 -2.86054 -4.14957 0
M  V30 1755 H 161.028 -2.85509 -2.4158 0
M  V30 1756 H 163.32 -4.28924 -5.24434 0
M  V30 1757 H 164.263 -5.55355 -4.39303 0
M  V30 1758 H 164.671 -3.82943 -4.14747 0
M  V30 1759 N 164.069 0.697108 -1.41344 0
M  V30 1760 C 165.299 1.48377 -1.43763 0
M  V30 1761 C 165.707 1.89156 -0.0408726 0
M  V30 1762 O 165.05 1.57239 0.949812 0
M  V30 1763 C 165.112 2.7781 -2.2817 0
M  V30 1764 C 164.776 2.59244 -3.76353 0
M  V30 1765 C 165.773 2.25292 -4.68551 0
M  V30 1766 C 163.458 2.74933 -4.20378 0
M  V30 1767 C 165.452 2.07264 -6.02761 0
M  V30 1768 C 163.139 2.56521 -5.54653 0
M  V30 1769 C 164.137 2.22737 -6.4566 0
M  V30 1770 O 163.825 2.04485 -7.77458 0
M  V30 1771 H 163.557 0.463842 -0.491759 0
M  V30 1772 H 166.111 0.865934 -1.86255 0
M  V30 1773 H 164.341 3.41995 -1.8049 0
M  V30 1774 H 166.03 3.39608 -2.22309 0
M  V30 1775 H 166.796 2.12787 -4.35829 0
M  V30 1776 H 162.675 3.00213 -3.49848 0
M  V30 1777 H 166.219 1.80817 -6.73759 0
M  V30 1778 H 162.116 2.68616 -5.86955 0
M  V30 1779 H 162.884 2.1926 -7.88586 0
M  V30 1780 N 165.547 1.27147 0.931209 0
M  V30 1781 C 166.495 1.09398 2.05268 0
M  V30 1782 C 167.489 0.0180591 1.6939 0
M  V30 1783 O 168.695 0.17551 1.79142 0
M  V30 1784 H 165.07 0.336986 0.672268 0
M  V30 1785 H 167.041 2.04416 2.17386 0
M  V30 1786 C 165.79 0.75424 3.39421 0
M  V30 1787 H 165.113 1.57404 3.67511 0
M  V30 1788 H 166.553 0.669903 4.18674 0
M  V30 1789 C 165.012 -0.541197 3.32525 0
M  V30 1790 O 165.542 -1.57664 3.69466 0
M  V30 1791 N 163.748 -0.535517 2.85623 0
M  V30 1792 H 163.295 0.307511 2.55758 0
M  V30 1793 H 163.253 -1.40236 2.81392 0
M  V30 1794 N 167.025 -1.13721 1.09112 0
M  V30 1795 C 168.441 -1.36914 0.820174 0
M  V30 1796 C 168.641 -1.93356 -0.567079 0
M  V30 1797 O 167.697 -2.15093 -1.32255 0
M  V30 1798 C 169.01 -2.3235 1.90877 0
M  V30 1799 C 170.558 -2.45973 1.93562 0
M  V30 1800 C 171.033 -3.44714 3.01556 0
M  V30 1801 N 172.524 -3.52263 3.00775 0
M  V30 1802 C 173.259 -4.28536 3.80978 0
M  V30 1803 N 172.755 -5.07991 4.71081 0
M  V30 1804 N 174.548 -4.23804 3.69251 0
M  V30 1805 H 166.699 -0.754348 1.98553 0
M  V30 1806 H 168.962 -0.3944 0.862063 0
M  V30 1807 H 168.668 -1.98027 2.90651 0
M  V30 1808 H 168.542 -3.32332 1.78424 0
M  V30 1809 H 170.929 -2.79584 0.944286 0
M  V30 1810 H 171.01 -1.45926 2.10093 0
M  V30 1811 H 170.654 -3.11835 4.00901 0
M  V30 1812 H 170.584 -4.44558 2.82269 0
M  V30 1813 H 173.075 -2.95567 2.35475 0
M  V30 1814 H 173.388 -5.63487 5.28869 0
M  V30 1815 H 171.733 -5.07235 4.75119 0
M  V30 1816 H 174.924 -3.60806 2.98222 0
M  V30 1817 H 175.097 -4.82995 4.31995 0
M  V30 1818 N 168.503 -0.877838 -1.30888 0
M  V30 1819 C 169.451 -0.328662 -2.30266 0
M  V30 1820 C 170.445 0.560496 -1.59859 0
M  V30 1821 O 171.651 0.445722 -1.74394 0
M  V30 1822 H 168.026 -0.0876142 -0.746879 0
M  V30 1823 H 169.997 -1.18061 -2.74051 0
M  V30 1824 C 168.746 0.448071 -3.44801 0
M  V30 1825 H 168.069 -0.226859 -3.99156 0
M  V30 1826 H 169.509 0.797541 -4.16432 0
M  V30 1827 C 167.968 1.64239 -2.94155 0
M  V30 1828 O 168.498 2.74175 -2.93583 0
M  V30 1829 N 166.704 1.47716 -2.50256 0
M  V30 1830 H 166.251 0.582821 -2.5092 0
M  V30 1831 H 166.209 2.27765 -2.16727 0
M  V30 1832 N 169.982 1.44106 -0.638065 0
M  V30 1833 C 171.398 1.56672 -0.304286 0
M  V30 1834 C 171.598 1.6244 1.19228 0
M  V30 1835 O 170.654 1.57121 1.9766 0
M  V30 1836 C 171.967 2.83503 -1.00231 0
M  V30 1837 C 173.515 2.97226 -0.981116 0
M  V30 1838 C 173.99 4.26868 -1.65974 0
M  V30 1839 N 175.481 4.33698 -1.62666 0
M  V30 1840 C 176.216 5.32745 -2.12063 0
M  V30 1841 N 175.712 6.38157 -2.6968 0
M  V30 1842 N 177.505 5.24299 -2.02651 0
M  V30 1843 H 169.656 1.38605 -1.60942 0
M  V30 1844 H 171.919 0.664661 -0.675965 0
M  V30 1845 H 171.625 2.85251 -2.0573 0
M  V30 1846 H 171.499 3.73251 -0.54439 0
M  V30 1847 H 173.886 2.95027 0.0654188 0
M  V30 1848 H 173.967 2.08808 -1.47759 0
M  V30 1849 H 173.611 4.29826 -2.70576 0
M  V30 1850 H 173.541 5.14156 -1.13804 0
M  V30 1851 H 176.032 3.58138 -1.20606 0
M  V30 1852 H 176.345 7.10029 -3.05087 0
M  V30 1853 H 174.69 6.38823 -2.73734 0
M  V30 1854 H 177.881 4.4086 -1.57353 0
M  V30 1855 H 178.054 6.01334 -2.41457 0
M  V30 1856 N 171.46 0.379036 1.52974 0
M  V30 1857 C 172.706 -0.206727 2.01744 0
M  V30 1858 C 173.039 -1.47314 1.26539 0
M  V30 1859 O 172.314 -1.91084 0.362903 0
M  V30 1860 C 172.597 -0.485066 3.56818 0
M  V30 1861 C 172.45 0.795919 4.42702 0
M  V30 1862 C 173.769 -1.28003 4.21074 0
M  V30 1863 H 170.888 -0.0736607 0.73331 0
M  V30 1864 H 173.53 0.506581 1.83122 0
M  V30 1865 H 171.68 -1.09272 3.72816 0
M  V30 1866 H 173.352 1.43307 4.38476 0
M  V30 1867 H 171.595 1.41344 4.10127 0
M  V30 1868 H 172.266 0.555947 5.49193 0
M  V30 1869 H 174.742 -0.765867 4.08991 0
M  V30 1870 H 173.618 -1.44352 5.29579 0
M  V30 1871 H 173.879 -2.29236 3.78026 0
M  V30 1872 N 172.938 -1.57226 0.108567 0
M  V30 1873 C 174.215 -1.86333 -0.594939 0
M  V30 1874 C 174.595 -1.00788 -1.85486 0
M  V30 1875 O 173.943 -0.0839293 -2.28346 0
M  V30 1876 C 174.153 -3.37265 -0.897405 0
M  V30 1877 C 175.501 -4.05629 -1.25501 0
M  V30 1878 O 176.525 -3.42224 -0.987998 0
M  V30 1879 O 175.384 -5.17531 -1.75567 0
M  V30 1880 H 172.478 -0.771018 -0.2991 0
M  V30 1881 H 175.024 -1.69102 0.142283 0
M  V30 1882 H 173.796 -3.913 -0.00413806 0
M  V30 1883 H 173.419 -3.59889 -1.69014 0
M  V30 1884 N 174.416 0.165178 -1.56732 0
M  V30 1885 C 175.644 0.896218 -1.86482 0
M  V30 1886 C 176.059 1.75555 -0.694675 0
M  V30 1887 O 175.416 1.79379 0.33607 0
M  V30 1888 C 175.467 1.76792 -3.1532 0
M  V30 1889 O 175.188 0.943239 -4.27825 0
M  V30 1890 C 176.689 2.6081 -3.58459 0
M  V30 1891 H 173.909 0.260064 -0.618553 0
M  V30 1892 H 176.453 0.163428 -2.03846 0
M  V30 1893 H 174.608 2.45398 -2.99764 0
M  V30 1894 H 175.022 1.53998 -5.01383 0
M  V30 1895 H 176.496 3.17579 -4.51495 0
M  V30 1896 H 176.973 3.35977 -2.82872 0
M  V30 1897 H 177.579 1.97526 -3.76648 0
M  V30 1898 N 175.894 1.51508 0.433938 0
M  V30 1899 C 177.119 1.68443 1.21003 0
M  V30 1900 C 177.544 0.382636 1.84167 0
M  V30 1901 O 176.902 -0.65755 1.68956 0
M  V30 1902 C 176.95 2.80405 2.26727 0
M  V30 1903 O 176.054 2.44245 3.32292 0
M  V30 1904 H 175.395 0.561536 0.354363 0
M  V30 1905 H 177.925 1.9809 0.512024 0
M  V30 1906 H 177.935 3.0459 2.71457 0
M  V30 1907 H 176.61 3.74867 1.80132 0
M  V30 1908 H 175.187 2.30644 2.93015 0
M  V30 1909 N 177.372 -0.689602 1.41712 0
M  V30 1910 C 178.783 -1.26973 1.36875 0
M  V30 1911 C 179.134 -1.96124 0.054748 0
M  V30 1912 O 178.259 -1.99141 -0.84687 0
M  V30 1913 C 178.854 -2.30912 2.47922 0
M  V30 1914 C 177.413 -2.84486 2.46464 0
M  V30 1915 C 176.56 -1.58603 2.27465 0
M  V30 1916 H 179.511 -0.48396 1.51141 0
M  V30 1917 H 179.532 -3.12331 2.17323 0
M  V30 1918 H 179.044 -1.80554 3.43543 0
M  V30 1919 H 177.145 -3.39005 1.54617 0
M  V30 1920 H 177.258 -3.34511 3.42986 0
M  V30 1921 H 175.622 -1.84632 1.75451 0
M  V30 1922 H 176.405 -1.10233 3.25121 0
M  V30 1923 N 178.85 -1.27639 -0.924453 0
M  V30 1924 C 180.078 -1.16989 -1.70649 0
M  V30 1925 C 180.493 0.272869 -1.86818 0
M  V30 1926 O 179.85 1.18549 -1.38753 0
M  V30 1927 C 179.901 -1.85229 -3.10439 0
M  V30 1928 O 179.622 -3.23868 -2.95028 0
M  V30 1929 C 181.123 -1.80746 -4.04779 0
M  V30 1930 H 178.343 -0.406595 -0.53378 0
M  V30 1931 H 180.887 -1.68569 -1.15778 0
M  V30 1932 H 179.042 -1.37545 -3.6216 0
M  V30 1933 H 179.456 -3.57889 -3.83426 0
M  V30 1934 H 180.93 -2.33101 -5.00368 0
M  V30 1935 H 181.407 -0.777499 -4.32263 0
M  V30 1936 H 182.013 -2.28059 -3.58984 0
M  V30 1937 N 180.328 1.1314 -1.09713 0
M  V30 1938 C 181.739 1.66029 -0.853885 0
M  V30 1939 C 182.09 1.86241 0.617142 0
M  V30 1940 O 181.215 1.5834 1.47503 0
M  V30 1941 C 181.81 3.01599 -1.5435 0
M  V30 1942 C 180.369 3.51467 -1.34714 0
M  V30 1943 C 179.516 2.26648 -1.59769 0
M  V30 1944 H 182.467 0.970226 -1.25588 0
M  V30 1945 H 182.488 3.67709 -0.978267 0
M  V30 1946 H 182 2.86856 -2.6141 0
M  V30 1947 H 180.101 3.71408 -0.297838 0
M  V30 1948 H 180.214 4.314 -2.08401 0
M  V30 1949 H 178.578 2.33385 -1.01998 0
M  V30 1950 H 179.361 2.14467 -2.68065 0
M  V30 1951 N 181.806 0.884767 1.30421 0
M  V30 1952 C 183.052 0.503851 1.96441 0
M  V30 1953 C 183.385 -0.944518 1.69684 0
M  V30 1954 O 182.66 -1.66737 1.00145 0
M  V30 1955 C 182.943 0.779085 3.51571 0
M  V30 1956 C 182.796 2.27807 3.87846 0
M  V30 1957 C 184.115 0.255452 4.39358 0
M  V30 1958 H 181.234 0.184533 0.713524 0
M  V30 1959 H 183.876 1.10872 1.54297 0
M  V30 1960 H 182.026 0.264274 3.876 0
M  V30 1961 H 183.698 2.86127 3.61841 0
M  V30 1962 H 181.941 2.74479 3.35922 0
M  V30 1963 H 182.612 2.42125 4.96064 0
M  V30 1964 H 185.088 0.696079 4.10236 0
M  V30 1965 H 183.964 0.477361 5.4682 0
M  V30 1966 H 184.225 -0.843293 4.33983 0
M  V30 1967 N 183.284 -1.43765 0.645699 0
M  V30 1968 C 184.509 -2.06767 0.161883 0
M  V30 1969 C 184.934 -1.48034 -1.16049 0
M  V30 1970 O 184.292 -0.587369 -1.71522 0
M  V30 1971 C 184.34 -3.60519 0.0762003 0
M  V30 1972 O 183.444 -4.00982 -0.963721 0
M  V30 1973 H 182.785 -0.657675 0.091429 0
M  V30 1974 H 185.315 -1.84397 0.886499 0
M  V30 1975 H 185.325 -4.07853 -0.109604 0
M  V30 1976 H 184 -4.02646 1.04157 0
M  V30 1977 H 182.577 -3.65253 -0.751312 0
M  V30 1978 N 184.763 -0.387143 -1.52771 0
M  V30 1979 C 186.009 0.188506 -2.02525 0
M  V30 1980 C 186.364 1.44649 -1.26864 0
M  V30 1981 O 185.657 1.88189 -0.359945 0
M  V30 1982 C 185.851 0.512209 -3.53711 0
M  V30 1983 C 185.68 -0.712855 -4.44014 0
M  V30 1984 C 184.45 -1.23147 -4.90064 0
M  V30 1985 C 186.648 -1.58453 -4.89282 0
M  V30 1986 N 184.63 -2.41431 -5.64433 0
M  V30 1987 C 186.001 -2.61381 -5.6221 0
M  V30 1988 C 188.056 -1.60488 -4.71326 0
M  V30 1989 C 186.759 -3.66227 -6.19088 0
M  V30 1990 C 188.785 -2.6424 -5.29085 0
M  V30 1991 C 188.147 -3.6589 -6.01917 0
M  V30 1992 H 184.246 0.0311236 -0.78138 0
M  V30 1993 H 186.83 -0.536548 -1.87161 0
M  V30 1994 H 185.001 1.20632 -3.69192 0
M  V30 1995 H 186.733 1.07482 -3.90166 0
M  V30 1996 H 183.488 -0.792795 -4.66917 0
M  V30 1997 H 183.912 -3.01274 -6.0627 0
M  V30 1998 H 188.554 -0.83247 -4.14524 0
M  V30 1999 H 186.272 -4.44337 -6.74974 0
M  V30 2000 H 189.858 -2.66695 -5.17074 0
M  V30 2001 H 188.738 -4.44855 -6.45813 0
M  V30 2002 N 186.241 1.57166 -0.116904 0
M  V30 2003 C 187.191 2.11756 0.845178 0
M  V30 2004 C 188.175 1.03783 1.22955 0
M  V30 2005 O 189.367 1.3002 1.20099 0
M  V30 2006 C 186.496 2.71886 2.09602 0
M  V30 2007 C 185.582 3.86937 1.7361 0
M  V30 2008 N 185.973 4.94073 1.08284 0
M  V30 2009 C 184.271 3.97082 2.03082 0
M  V30 2010 C 184.972 5.74477 0.913855 0
M  V30 2011 N 183.948 5.2423 1.43818 0
M  V30 2012 H 187.75 2.91967 0.336523 0
M  V30 2013 H 185.264 1.62174 0.0856332 0
M  V30 2014 H 187.261 3.09338 2.79492 0
M  V30 2015 H 185.921 1.93138 2.61013 0
M  V30 2016 H 186.932 5.12483 0.747067 0
M  V30 2017 H 183.609 3.29372 2.56554 0
M  V30 2018 H 184.999 6.70701 0.40125 0
M  V30 2019 N 187.719 -0.156864 1.56817 0
M  V30 2020 C 188.965 -0.872416 1.83076 0
M  V30 2021 C 189.298 -1.81261 0.697001 0
M  V30 2022 O 188.573 -1.92171 -0.30008 0
M  V30 2023 C 188.856 -1.65551 3.19789 0
M  V30 2024 C 188.709 -0.737467 4.43713 0
M  V30 2025 C 190.028 -2.62012 3.53606 0
M  V30 2026 H 187.147 -0.315715 0.665953 0
M  V30 2027 H 189.789 -0.138004 1.89498 0
M  V30 2028 H 187.939 -2.28159 3.14445 0
M  V30 2029 H 189.611 -0.123143 4.61136 0
M  V30 2030 H 187.854 -0.0464067 4.33775 0
M  V30 2031 H 188.525 -1.32122 5.35955 0
M  V30 2032 H 191.001 -2.09525 3.59497 0
M  V30 2033 H 189.877 -3.13861 4.50314 0
M  V30 2034 H 190.138 -3.42902 2.79053 0
M  V30 2035 N 189.197 -1.51736 -0.425897 0
M  V30 2036 C 190.13 -1.68574 -1.53812 0
M  V30 2037 C 191.108 -0.53328 -1.53606 0
M  V30 2038 O 192.292 -0.758555 -1.72564 0
M  V30 2039 C 189.419 -1.70977 -2.92377 0
M  V30 2040 C 188.465 -2.92324 -3.10563 0
M  V30 2041 S 189.298 -4.52952 -2.85648 0
M  V30 2042 C 190.454 -4.58117 -4.26474 0
M  V30 2043 H 190.687 -2.62647 -1.39298 0
M  V30 2044 H 188.22 -1.41564 -0.616361 0
M  V30 2045 H 190.178 -1.73047 -3.72243 0
M  V30 2046 H 188.839 -0.78061 -3.04245 0
M  V30 2047 H 188.032 -2.90439 -4.11899 0
M  V30 2048 H 187.634 -2.88055 -2.38538 0
M  V30 2049 H 189.926 -4.34462 -5.19855 0
M  V30 2050 H 190.869 -5.59983 -4.33388 0
M  V30 2051 H 191.277 -3.8732 -4.10662 0
M  V30 2052 N 190.675 0.682077 -1.42076 0
M  V30 2053 C 191.915 1.45424 -1.43636 0
M  V30 2054 C 192.279 1.91939 -0.0484001 0
M  V30 2055 O 193.48 2.6873 0.0612514 0
M  V30 2056 C 191.751 2.62427 -2.42625 0
M  V30 2057 S 193.31 3.51379 -2.62827 0
M  V30 2058 H 190.128 0.496779 -0.508657 0
M  V30 2059 H 192.73 0.794645 -1.78621 0
M  V30 2060 H 191.434 2.26481 -3.42249 0
M  V30 2061 H 190.965 3.33266 -2.09039 0
M  V30 2062 H 192.98 4.58141 -1.9058 0
M  V30 2063 N 192.153 1.28127 0.917671 0
M  V30 2064 C 193.086 1.06039 2.02067 0
M  V30 2065 C 194.064 -0.0223285 1.62585 0
M  V30 2066 O 195.248 0.124823 1.88086 0
M  V30 2067 C 192.375 0.610596 3.33151 0
M  V30 2068 C 191.421 1.68937 3.91615 0
M  V30 2069 S 192.254 3.28437 4.22953 0
M  V30 2070 C 193.41 2.85283 5.57103 0
M  V30 2071 H 193.643 1.99425 2.20493 0
M  V30 2072 H 191.176 1.12071 1.06205 0
M  V30 2073 H 193.134 0.357778 4.08938 0
M  V30 2074 H 191.795 -0.303364 3.12632 0
M  V30 2075 H 190.988 1.32619 4.86239 0
M  V30 2076 H 190.59 1.89478 3.2245 0
M  V30 2077 H 192.882 2.3121 6.36827 0
M  V30 2078 H 193.825 3.7869 5.98331 0
M  V30 2079 H 194.233 2.24118 5.18104 0
M  V30 2080 N 193.631 -1.12557 1.10312 0
M  V30 2081 C 194.563 -2.17971 0.708625 0
M  V30 2082 C 195.576 -1.60806 -0.254027 0
M  V30 2083 O 196.765 -1.78458 -0.0386891 0
M  V30 2084 C 193.865 -3.38891 0.0248198 0
M  V30 2085 C 193.038 -4.25548 1.01132 0
M  V30 2086 C 192.097 -5.24972 0.35924 0
M  V30 2087 O 191.123 -5.60174 1.00965 0
M  V30 2088 N 192.325 -5.73747 -0.882847 0
M  V30 2089 H 195.09 -2.52427 1.61557 0
M  V30 2090 H 192.651 -1.27967 0.991771 0
M  V30 2091 H 194.643 -4.02485 -0.422852 0
M  V30 2092 H 193.213 -3.02596 -0.784514 0
M  V30 2093 H 192.433 -3.58589 1.6373 0
M  V30 2094 H 193.721 -4.80294 1.67914 0
M  V30 2095 H 193.119 -5.4731 -1.43065 0
M  V30 2096 H 191.676 -6.39234 -1.27369 0
M  V30 2097 N 195.109 -0.891671 -1.2995 0
M  V30 2098 C 196.039 -0.379797 -2.30391 0
M  V30 2099 C 197.02 0.540919 -1.6127 0
M  V30 2100 O 198.205 0.453352 -1.88834 0
M  V30 2101 C 195.335 0.400654 -3.44981 0
M  V30 2102 C 194.289 -0.428905 -4.25846 0
M  V30 2103 C 193.615 0.478557 -5.32554 0
M  V30 2104 C 194.915 -1.67458 -4.94727 0
M  V30 2105 H 196.609 -1.21914 -2.73454 0
M  V30 2106 H 194.155 -0.587675 -1.31462 0
M  V30 2107 H 196.108 0.769434 -4.14316 0
M  V30 2108 H 194.832 1.27371 -3.0074 0
M  V30 2109 H 193.491 -0.779911 -3.58208 0
M  V30 2110 H 193.139 1.34951 -4.84559 0
M  V30 2111 H 192.839 -0.0727433 -5.87555 0
M  V30 2112 H 194.363 0.843705 -6.04743 0
M  V30 2113 H 195.777 -1.376 -5.56542 0
M  V30 2114 H 194.174 -2.16659 -5.59624 0
M  V30 2115 H 195.244 -2.41518 -4.20473 0
M  V30 2116 N 196.587 1.43421 -0.653314 0
M  V30 2117 C 197.834 2.01812 -0.166745 0
M  V30 2118 C 198.162 1.51535 1.21931 0
M  V30 2119 O 197.417 0.698975 1.82792 0
M  V30 2120 C 197.716 3.57176 -0.126623 0
M  V30 2121 C 197.382 4.26798 -1.45444 0
M  V30 2122 C 196.044 4.45534 -1.81805 0
M  V30 2123 C 198.396 4.66225 -2.32989 0
M  V30 2124 C 195.724 5.00961 -3.05377 0
M  V30 2125 C 198.076 5.23021 -3.55853 0
M  V30 2126 C 196.74 5.39973 -3.9241 0
M  V30 2127 H 196.01 0.738484 -0.0610162 0
M  V30 2128 H 198.657 1.71896 -0.84404 0
M  V30 2129 H 196.962 3.86634 0.634123 0
M  V30 2130 H 198.659 4.00112 0.266723 0
M  V30 2131 H 195.249 4.12561 -1.16153 0
M  V30 2132 H 199.433 4.51443 -2.06187 0
M  V30 2133 H 194.689 5.12271 -3.3375 0
M  V30 2134 H 198.863 5.52518 -4.23907 0
M  V30 2135 H 196.49 5.82687 -4.88242 0
M  V30 2136 N 198.065 0.39524 1.52563 0
M  V30 2137 C 199.313 -0.184678 2.01254 0
M  V30 2138 C 199.634 -1.46822 1.28329 0
M  V30 2139 O 198.904 -1.91666 0.405094 0
M  V30 2140 H 197.484 -0.0712355 0.743596 0
M  V30 2141 H 200.146 0.528293 1.87603 0
M  V30 2142 H 199.242 -0.390681 3.09645 0
M  V30 2143 N 199.544 -1.57102 0.125237 0
M  V30 2144 C 200.791 -1.95407 -0.531248 0
M  V30 2145 C 201.119 -1.0089 -1.66287 0
M  V30 2146 O 200.374 -0.0339431 -1.95671 0
M  V30 2147 C 200.673 -3.40096 -1.09862 0
M  V30 2148 C 200.339 -4.50815 -0.0876989 0
M  V30 2149 C 199.001 -4.80824 0.19026 0
M  V30 2150 C 201.353 -5.17724 0.600902 0
M  V30 2151 C 198.681 -5.75058 1.163 0
M  V30 2152 C 201.033 -6.13005 1.56231 0
M  V30 2153 C 199.697 -6.41403 1.8482 0
M  V30 2154 H 198.967 -0.715046 -0.194397 0
M  V30 2155 H 201.614 -1.90373 0.207463 0
M  V30 2156 H 199.919 -3.41855 -1.91422 0
M  V30 2157 H 201.616 -3.6705 -1.61478 0
M  V30 2158 H 198.206 -4.27444 -0.314528 0
M  V30 2159 H 202.39 -4.94691 0.399333 0
M  V30 2160 H 197.646 -5.95362 1.39117 0
M  V30 2161 H 201.82 -6.63934 2.10153 0
M  V30 2162 H 199.447 -7.14229 2.60349 0
M  V30 2163 N 201.022 0.148545 -1.56898 0
M  V30 2164 C 201.952 1.18524 -2.01182 0
M  V30 2165 C 202.933 1.4489 -0.891123 0
M  V30 2166 O 204.118 1.55836 -1.15882 0
M  V30 2167 C 201.248 2.51879 -2.39112 0
M  V30 2168 C 200.202 2.40038 -3.54353 0
M  V30 2169 C 199.528 3.78089 -3.78091 0
M  V30 2170 C 200.828 1.88577 -4.87069 0
M  V30 2171 H 202.522 0.817029 -2.88036 0
M  V30 2172 H 200.068 0.391575 -1.38574 0
M  V30 2173 H 202.021 3.24627 -2.68692 0
M  V30 2174 H 200.745 2.90532 -1.49193 0
M  V30 2175 H 199.404 1.69742 -3.24936 0
M  V30 2176 H 199.052 4.14175 -2.85426 0
M  V30 2177 H 198.752 3.71028 -4.55645 0
M  V30 2178 H 200.276 4.52387 -4.10095 0
M  V30 2179 H 201.69 2.51117 -5.15377 0
M  V30 2180 H 200.087 1.9241 -5.68417 0
M  V30 2181 H 201.157 0.84136 -4.77545 0
M  V30 2182 N 202.5 1.5196 0.417844 0
M  V30 2183 C 203.463 1.74065 1.49111 0
M  V30 2184 C 204.463 0.610537 1.48758 0
M  V30 2185 O 205.653 0.87832 1.50437 0
M  V30 2186 C 202.785 1.81502 2.88565 0
M  V30 2187 H 203.978 2.69869 1.30807 0
M  V30 2188 H 201.531 1.42244 0.647785 0
M  V30 2189 H 202.266 0.875813 3.1225 0
M  V30 2190 H 202.051 2.63651 2.90225 0
M  V30 2191 H 203.541 2.00376 3.66387 0
M  V30 2192 N 203.978 -0.674533 1.42435 0
M  V30 2193 C 205.225 -1.43459 1.42919 0
M  V30 2194 C 205.553 -1.94446 0.0457312 0
M  V30 2195 O 204.808 -1.7132 -0.94593 0
M  V30 2196 C 205.107 -2.64767 2.40069 0
M  V30 2197 C 204.773 -2.3232 3.86443 0
M  V30 2198 C 203.435 -2.23182 4.26314 0
M  V30 2199 C 205.787 -2.05977 4.78773 0
M  V30 2200 C 203.115 -1.85827 5.56494 0
M  V30 2201 C 205.467 -1.70125 6.09295 0
M  V30 2202 C 204.131 -1.59498 6.48164 0
M  V30 2203 H 203.401 -0.524952 0.522978 0
M  V30 2204 H 206.048 -0.769097 1.75377 0
M  V30 2205 H 204.353 -3.36349 2.00939 0
M  V30 2206 H 206.05 -3.22949 2.37707 0
M  V30 2207 H 202.64 -2.40334 3.54877 0
M  V30 2208 H 206.824 -2.11969 4.48757 0
M  V30 2209 H 202.08 -1.76168 5.8547 0
M  V30 2210 H 206.254 -1.48767 6.80324 0
M  V30 2211 H 203.881 -1.30322 7.48946 0
M  V30 2212 N 205.456 -1.28612 -0.910864 0
M  V30 2213 C 206.389 -1.07109 -2.01502 0
M  V30 2214 C 207.367 0.013706 -1.62594 0
M  V30 2215 O 208.551 -0.134796 -1.88017 0
M  V30 2216 C 205.678 -0.628255 -3.32822 0
M  V30 2217 C 204.724 -1.71012 -3.90714 0
M  V30 2218 S 205.557 -3.30676 -4.21205 0
M  V30 2219 C 206.713 -2.88234 -5.55583 0
M  V30 2220 H 206.946 -2.00591 -2.19432 0
M  V30 2221 H 204.479 -1.12633 -1.05609 0
M  V30 2222 H 206.437 -0.37946 -4.08742 0
M  V30 2223 H 205.098 0.28678 -3.12788 0
M  V30 2224 H 204.291 -1.35195 -4.85529 0
M  V30 2225 H 203.893 -1.91186 -3.21441 0
M  V30 2226 H 206.185 -2.34584 -6.35591 0
M  V30 2227 H 207.128 -3.81857 -5.96314 0
M  V30 2228 H 207.536 -2.26862 -5.16908 0
M  V30 2229 N 206.934 1.1197 -1.10907 0
M  V30 2230 C 208.183 1.82947 -0.849302 0
M  V30 2231 C 208.496 1.85275 0.627112 0
M  V30 2232 O 209.702 2.52296 1.00295 0
M  V30 2233 C 208.158 3.28529 -1.46959 0
M  V30 2234 C 207.766 3.34546 -2.97965 0
M  V30 2235 C 209.51 4.04443 -1.28942 0
M  V30 2236 C 207.417 4.74491 -3.53004 0
M  V30 2237 H 206.347 0.685477 -0.314065 0
M  V30 2238 H 208.998 1.2604 -1.33365 0
M  V30 2239 H 207.38 3.85333 -0.912917 0
M  V30 2240 H 208.554 2.87654 -3.59989 0
M  V30 2241 H 206.869 2.72108 -3.15192 0
M  V30 2242 H 209.466 5.07787 -1.67502 0
M  V30 2243 H 209.809 4.15656 -0.231456 0
M  V30 2244 H 210.342 3.5401 -1.81443 0
M  V30 2245 H 207.081 4.68474 -4.58489 0
M  V30 2246 H 206.601 5.21816 -2.9575 0
M  V30 2247 H 208.28 5.4344 -3.51115 0
M  V30 2248 N 208.412 0.89855 1.29475 0
M  V30 2249 C 209.659 0.523882 1.95606 0
M  V30 2250 C 209.987 -0.929608 1.70847 0
M  V30 2251 O 209.242 -1.67401 1.01367 0
M  V30 2252 C 209.541 0.761398 3.49195 0
M  V30 2253 C 209.207 2.19207 3.94029 0
M  V30 2254 C 207.869 2.58326 4.05982 0
M  V30 2255 C 210.221 3.12379 4.17216 0
M  V30 2256 C 207.549 3.898 4.38489 0
M  V30 2257 C 209.901 4.43401 4.51197 0
M  V30 2258 C 208.565 4.82394 4.61359 0
M  V30 2259 H 207.835 0.191702 0.715773 0
M  V30 2260 H 210.482 1.13699 1.54094 0
M  V30 2261 H 208.787 0.0653622 3.91745 0
M  V30 2262 H 210.484 0.450904 3.98457 0
M  V30 2263 H 207.074 1.87846 3.85242 0
M  V30 2264 H 211.258 2.83371 4.07449 0
M  V30 2265 H 206.514 4.19734 4.44559 0
M  V30 2266 H 210.688 5.15623 4.68087 0
M  V30 2267 H 208.315 5.84306 4.86303 0
M  V30 2268 N 209.89 -1.43072 0.660911 0
M  V30 2269 C 210.823 -2.28074 -0.0758862 0
M  V30 2270 C 211.801 -1.40271 -0.822362 0
M  V30 2271 O 212.985 -1.69713 -0.820352 0
M  V30 2272 C 210.112 -3.19843 -1.11437 0
M  V30 2273 C 209.158 -4.23957 -0.465069 0
M  V30 2274 S 209.991 -5.29978 0.767078 0
M  V30 2275 C 211.147 -6.25314 -0.270682 0
M  V30 2276 H 211.38 -2.90216 0.645139 0
M  V30 2277 H 208.913 -1.47697 0.449995 0
M  V30 2278 H 210.871 -3.73257 -1.70849 0
M  V30 2279 H 209.532 -2.56863 -1.80776 0
M  V30 2280 H 208.725 -4.88299 -1.24819 0
M  V30 2281 H 208.327 -3.73959 0.0551242 0
M  V30 2282 H 210.619 -6.67932 -1.13459 0
M  V30 2283 H 211.562 -7.07293 0.337916 0
M  V30 2284 H 211.97 -5.61195 -0.609937 0
M  V30 2285 N 211.368 -0.403325 -1.52352 0
M  V30 2286 C 212.608 0.173946 -2.03659 0
M  V30 2287 C 212.972 1.42869 -1.28267 0
M  V30 2288 O 214.173 2.08403 -1.69769 0
M  V30 2289 C 212.444 0.421478 -3.54906 0
M  V30 2290 S 214.003 0.967027 -4.28012 0
M  V30 2291 H 210.821 0.0477461 -0.709395 0
M  V30 2292 H 213.423 -0.554906 -1.87459 0
M  V30 2293 H 212.127 -0.498616 -4.0736 0
M  V30 2294 H 211.658 1.17837 -3.75337 0
M  V30 2295 H 213.673 2.24812 -4.4235 0
M  V30 2296 N 212.846 1.57033 -0.133567 0
M  V30 2297 C 214.092 1.96764 0.515326 0
M  V30 2298 C 214.447 1.01653 1.63353 0
M  V30 2299 O 213.74 0.0491374 1.91537 0
M  V30 2300 C 213.934 3.40674 1.08057 0
M  V30 2301 C 213.763 4.49696 0.0186522 0
M  V30 2302 C 212.533 5.03567 -0.418174 0
M  V30 2303 C 214.731 5.08536 -0.767809 0
M  V30 2304 N 212.713 5.9618 -1.46434 0
M  V30 2305 C 214.084 5.97231 -1.6648 0
M  V30 2306 C 216.139 4.9115 -0.817087 0
M  V30 2307 C 214.842 6.70401 -2.60681 0
M  V30 2308 C 216.868 5.65012 -1.74687 0
M  V30 2309 C 216.23 6.53403 -2.63141 0
M  V30 2310 H 212.329 0.765919 0.157771 0
M  V30 2311 H 214.913 1.93395 -0.22506 0
M  V30 2312 H 213.084 3.44662 1.79061 0
M  V30 2313 H 214.816 3.67495 1.69497 0
M  V30 2314 H 211.571 4.73594 -0.0229803 0
M  V30 2315 H 211.995 6.47191 -1.98678 0
M  V30 2316 H 216.637 4.22543 -0.147326 0
M  V30 2317 H 214.355 7.38245 -3.28664 0
M  V30 2318 H 217.941 5.53559 -1.79063 0
M  V30 2319 H 216.821 7.09556 -3.33917 0
M  V30 2320 N 214.325 -0.140222 1.56975 0
M  V30 2321 C 215.571 -0.852949 1.83991 0
M  V30 2322 C 215.904 -1.80512 0.716187 0
M  V30 2323 O 215.179 -1.92479 -0.279681 0
M  V30 2324 C 215.462 -1.6215 3.21527 0
M  V30 2325 C 215.315 -0.690363 4.4447 0
M  V30 2326 C 216.634 -2.58247 3.56366 0
M  V30 2327 H 213.753 -0.308634 0.669264 0
M  V30 2328 H 216.395 -0.117898 1.89634 0
M  V30 2329 H 214.545 -2.24812 3.16847 0
M  V30 2330 H 216.217 -0.0742264 4.6124 0
M  V30 2331 H 214.46 -0.000396433 4.338 0
M  V30 2332 H 215.131 -1.2643 5.37326 0
M  V30 2333 H 217.607 -2.05701 3.61699 0
M  V30 2334 H 216.483 -3.09067 4.53617 0
M  V30 2335 H 216.744 -3.39923 2.82674 0
M  V30 2336 N 215.803 -1.52179 -0.40978 0
M  V30 2337 C 217.051 -1.65878 -1.15451 0
M  V30 2338 C 217.372 -0.390771 -1.91044 0
M  V30 2339 O 216.642 0.594323 -1.86667 0
M  V30 2340 H 215.222 -0.611405 -0.429177 0
M  V30 2341 H 217.884 -1.89219 -0.467134 0
M  V30 2342 H 216.98 -2.49954 -1.86894 0
M  V30 2343 N 217.281 0.66697 -1.42791 0
M  V30 2344 C 218.558 1.4234 -1.34159 0
M  V30 2345 C 218.938 2.11093 0.0172729 0
M  V30 2346 O 218.286 2.03808 1.03318 0
M  V30 2347 C 218.496 2.41942 -2.51526 0
M  V30 2348 C 219.844 3.06353 -2.93995 0
M  V30 2349 O 220.868 2.52269 -2.51473 0
M  V30 2350 O 219.727 4.04376 -3.67617 0
M  V30 2351 H 216.821 0.635277 -0.529483 0
M  V30 2352 H 219.367 0.695034 -1.54814 0
M  V30 2353 H 218.139 1.89991 -3.42081 0
M  V30 2354 H 217.762 3.22249 -2.32898 0
M  V30 2355 N 218.759 1.29093 0.90403 0
M  V30 2356 C 220.005 1.16986 1.65656 0
M  V30 2357 C 220.338 -0.278925 1.92186 0
M  V30 2358 O 219.613 -1.2019 1.5292 0
M  V30 2359 C 219.896 1.97908 3.0084 0
M  V30 2360 C 219.749 3.50903 2.81403 0
M  V30 2361 C 221.068 1.80208 4.01513 0
M  V30 2362 H 218.187 0.426346 0.601164 0
M  V30 2363 H 220.829 1.58518 1.04747 0
M  V30 2364 H 218.979 1.62616 3.52829 0
M  V30 2365 H 220.651 3.96153 2.36348 0
M  V30 2366 H 218.894 3.76045 2.1627 0
M  V30 2367 H 219.565 4.02791 3.77443 0
M  V30 2368 H 222.041 2.11025 3.58619 0
M  V30 2369 H 220.917 2.39184 4.94047 0
M  V30 2370 H 221.178 0.756119 4.35586 0
M  V30 2371 N 220.237 -1.11381 1.11499 0
M  V30 2372 C 221.467 -1.86663 0.885464 0
M  V30 2373 C 221.875 -1.80464 -0.568281 0
M  V30 2374 O 221.218 -1.18445 -1.40415 0
M  V30 2375 C 221.28 -3.36337 1.26956 0
M  V30 2376 C 220.944 -3.66304 2.73259 0
M  V30 2377 C 221.941 -3.63733 3.71476 0
M  V30 2378 C 219.626 -3.9529 3.09921 0
M  V30 2379 C 221.62 -3.89725 5.04374 0
M  V30 2380 C 219.307 -4.20941 4.43004 0
M  V30 2381 C 220.305 -4.18147 5.40039 0
M  V30 2382 O 219.993 -4.43153 6.70724 0
M  V30 2383 H 219.725 -0.597114 0.316908 0
M  V30 2384 H 222.279 -1.41782 1.48617 0
M  V30 2385 H 220.509 -3.81826 0.611999 0
M  V30 2386 H 222.198 -3.92986 1.01573 0
M  V30 2387 H 222.964 -3.41389 3.44498 0
M  V30 2388 H 218.843 -3.966 2.35009 0
M  V30 2389 H 222.387 -3.8746 5.80104 0
M  V30 2390 H 218.284 -4.42761 4.69716 0
M  V30 2391 H 219.052 -4.60717 6.76522 0
M  V30 2392 N 221.715 -0.905404 -1.28997 0
M  V30 2393 C 223.126 -0.581953 -1.77398 0
M  V30 2394 C 223.477 0.902552 -1.74208 0
M  V30 2395 O 222.602 1.70584 -1.33154 0
M  V30 2396 C 223.197 -1.04961 -3.22131 0
M  V30 2397 C 221.756 -0.777229 -3.68288 0
M  V30 2398 C 220.903 -1.22109 -2.48967 0
M  V30 2399 H 223.854 -1.08754 -1.15578 0
M  V30 2400 H 223.875 -0.387387 -3.78523 0
M  V30 2401 H 223.387 -2.13008 -3.24421 0
M  V30 2402 H 221.488 0.290383 -3.71467 0
M  V30 2403 H 221.601 -1.37911 -4.58822 0
M  V30 2404 H 219.965 -0.639971 -2.46529 0
M  V30 2405 H 220.748 -2.30972 -2.53982 0
M  V30 2406 N 223.193 1.4272 -0.668489 0
M  V30 2407 C 224.439 2.01923 -0.188419 0
M  V30 2408 C 224.772 1.52704 1.19979 0
M  V30 2409 O 224.047 0.726566 1.8042 0
M  V30 2410 C 224.33 3.59451 -0.216085 0
M  V30 2411 C 224.183 4.18864 -1.6393 0
M  V30 2412 C 225.502 4.37903 0.439179 0
M  V30 2413 H 222.621 0.733674 -0.0699412 0
M  V30 2414 H 225.263 1.69822 -0.852076 0
M  V30 2415 H 223.413 3.86929 0.349012 0
M  V30 2416 H 225.085 4.02362 -2.25616 0
M  V30 2417 H 223.328 3.74933 -2.18193 0
M  V30 2418 H 223.999 5.27987 -1.61039 0
M  V30 2419 H 226.475 4.16079 -0.0417878 0
M  V30 2420 H 225.351 5.47519 0.389157 0
M  V30 2421 H 225.612 4.15303 1.51577 0
M  V30 2422 N 224.671 0.411399 1.52136 0
M  V30 2423 C 225.901 -0.16284 2.05957 0
M  V30 2424 C 226.309 -1.3922 1.28119 0
M  V30 2425 O 225.652 -1.80768 0.326881 0
M  V30 2426 C 225.714 -0.575946 3.54856 0
M  V30 2427 C 225.378 0.542998 4.53763 0
M  V30 2428 C 226.375 1.40726 5.00492 0
M  V30 2429 C 224.06 0.716337 4.97166 0
M  V30 2430 C 226.054 2.4298 5.8927 0
M  V30 2431 C 223.741 1.74218 5.8574 0
M  V30 2432 C 224.739 2.59731 6.31687 0
M  V30 2433 O 224.427 3.60558 7.18507 0
M  V30 2434 H 224.159 -0.0229125 0.675612 0
M  V30 2435 H 226.713 0.581634 1.96993 0
M  V30 2436 H 224.943 -1.37274 3.61515 0
M  V30 2437 H 226.632 -1.07836 3.91313 0
M  V30 2438 H 227.398 1.28476 4.67674 0
M  V30 2439 H 223.277 0.0603857 4.6096 0
M  V30 2440 H 226.821 3.0976 6.25055 0
M  V30 2441 H 222.718 1.86498 6.17971 0
M  V30 2442 H 223.486 3.56829 7.36624 0
M  V30 2443 N 226.149 -1.5696 0.141893 0
M  V30 2444 C 227.081 -2.13619 -0.830627 0
M  V30 2445 C 228.094 -1.08439 -1.21428 0
M  V30 2446 O 229.283 -1.35734 -1.15925 0
M  V30 2447 C 226.383 -2.63978 -2.12529 0
M  V30 2448 C 225.556 -3.93504 -1.9098 0
M  V30 2449 C 224.615 -4.29225 -3.04388 0
M  V30 2450 O 223.641 -4.97641 -2.76302 0
M  V30 2451 N 224.843 -3.88393 -4.31429 0
M  V30 2452 H 227.608 -2.97691 -0.34641 0
M  V30 2453 H 225.169 -1.61846 -0.0418375 0
M  V30 2454 H 227.161 -2.84891 -2.87436 0
M  V30 2455 H 225.731 -1.84659 -2.52229 0
M  V30 2456 H 224.951 -3.81269 -1.00139 0
M  V30 2457 H 226.239 -4.78154 -1.73914 0
M  V30 2458 H 225.637 -3.33257 -4.57117 0
M  V30 2459 H 224.194 -4.14368 -5.03133 0
M  V30 2460 N 227.627 0.131896 -1.57047 0
M  V30 2461 C 229.038 0.690407 -1.73465 0
M  V30 2462 C 229.389 1.8094 -0.758629 0
M  V30 2463 O 228.514 2.16282 0.0713813 0
M  V30 2464 C 229.109 1.25916 -3.14532 0
M  V30 2465 C 227.668 1.76409 -3.32501 0
M  V30 2466 C 226.815 0.658579 -2.69366 0
M  V30 2467 H 229.766 -0.0939144 -1.58422 0
M  V30 2468 H 229.787 2.12892 -3.15369 0
M  V30 2469 H 229.299 0.444515 -3.85546 0
M  V30 2470 H 227.4 2.60391 -2.66509 0
M  V30 2471 H 227.513 1.88241 -4.4057 0
M  V30 2472 H 225.877 1.08899 -2.30246 0
M  V30 2473 H 226.66 -0.14487 -3.42994 0
M  V30 2474 N 229.106 1.52395 0.401703 0
M  V30 2475 C 230.352 1.67065 1.14966 0
M  V30 2476 C 230.685 0.403052 1.89971 0
M  V30 2477 O 229.96 -0.598774 1.85054 0
M  V30 2478 C 230.243 2.8975 2.13815 0
M  V30 2479 C 230.096 4.26578 1.42658 0
M  V30 2480 C 231.415 3.07965 3.14397 0
M  V30 2481 H 228.534 0.607968 0.416587 0
M  V30 2482 H 231.176 1.84965 0.434511 0
M  V30 2483 H 229.326 2.74619 2.74803 0
M  V30 2484 H 230.998 4.53451 0.847329 0
M  V30 2485 H 229.241 4.27639 0.72849 0
M  V30 2486 H 229.912 5.08483 2.14823 0
M  V30 2487 H 232.388 3.22043 2.63491 0
M  V30 2488 H 231.264 3.95308 3.80819 0
M  V30 2489 H 231.525 2.21611 3.82545 0
M  V30 2490 N 230.584 -0.659388 1.43143 0
M  V30 2491 C 231.832 -1.41654 1.44147 0
M  V30 2492 C 232.153 -1.94893 0.0645739 0
M  V30 2493 O 231.423 -1.74044 -0.899198 0
M  V30 2494 H 230.003 -0.525708 0.530697 0
M  V30 2495 H 232.665 -0.778097 1.78694 0
M  V30 2496 H 231.761 -2.26195 2.1504 0
M  V30 2497 N 232.062 -1.29571 -0.897171 0
M  V30 2498 C 233.473 -1.15964 -1.46319 0
M  V30 2499 C 233.824 0.244267 -1.94674 0
M  V30 2500 O 232.949 1.13998 -1.83939 0
M  V30 2501 C 233.544 -2.09906 -2.65942 0
M  V30 2502 C 232.103 -2.00314 -3.18671 0
M  V30 2503 C 231.25 -2.00687 -1.91363 0
M  V30 2504 H 234.201 -1.42019 -0.708268 0
M  V30 2505 H 234.222 -1.67276 -3.41759 0
M  V30 2506 H 233.734 -3.12075 -2.30718 0
M  V30 2507 H 231.835 -1.01242 -3.58582 0
M  V30 2508 H 231.948 -2.88102 -3.82798 0
M  V30 2509 H 230.312 -1.45319 -2.09175 0
M  V30 2510 H 231.095 -3.04566 -1.58413 0
M  V30 2511 N 233.54 1.10788 -1.12088 0
M  V30 2512 C 234.487 2.17025 -0.785407 0
M  V30 2513 C 235.457 1.64265 0.246191 0
M  V30 2514 O 236.642 1.90412 0.121584 0
M  V30 2515 C 233.782 3.44249 -0.242177 0
M  V30 2516 C 232.895 4.1098 -1.33115 0
M  V30 2517 C 232.03 5.25911 -0.747741 0
M  V30 2518 C 231.069 5.84538 -1.81609 0
M  V30 2519 N 230.206 6.90853 -1.25167 0
M  V30 2520 H 235.046 2.45066 -1.69548 0
M  V30 2521 H 232.583 1.20297 -0.846582 0
M  V30 2522 H 234.541 4.17101 0.0908026 0
M  V30 2523 H 233.171 3.16571 0.631072 0
M  V30 2524 H 232.223 3.36133 -1.78097 0
M  V30 2525 H 233.535 4.50601 -2.13917 0
M  V30 2526 H 232.689 6.056 -0.365216 0
M  V30 2527 H 231.428 4.87614 0.0915188 0
M  V30 2528 H 230.433 5.03522 -2.20785 0
M  V30 2529 H 231.658 6.249 -2.6585 0
M  V30 2530 H 229.604 6.54562 -0.434174 0
M  V30 2531 H 229.521 7.29166 -1.99633 0
M  V30 2532 H 230.789 7.7433 -0.896259 0
M  V30 2533 N 235.018 0.912232 1.28515 0
M  V30 2534 C 235.95 0.35676 2.26406 0
M  V30 2535 C 236.963 -0.503933 1.54804 0
M  V30 2536 O 238.152 -0.319059 1.75625 0
M  V30 2537 C 235.252 -0.508825 3.35058 0
M  V30 2538 C 234.425 0.329007 4.36161 0
M  V30 2539 C 233.484 -0.471422 5.24084 0
M  V30 2540 O 232.51 0.115482 5.69083 0
M  V30 2541 N 233.712 -1.77479 5.52704 0
M  V30 2542 H 236.477 1.19818 2.74707 0
M  V30 2543 H 234.038 0.778022 1.4198 0
M  V30 2544 H 236.03 -1.051 3.90815 0
M  V30 2545 H 234.6 -1.25095 2.86478 0
M  V30 2546 H 233.82 1.05256 3.79888 0
M  V30 2547 H 235.108 0.90234 5.00735 0
M  V30 2548 H 234.506 -2.27417 5.17975 0
M  V30 2549 H 233.063 -2.26382 6.11224 0
M  V30 2550 N 236.496 -1.42363 0.676048 0
M  V30 2551 C 237.726 -2.05561 0.206967 0
M  V30 2552 C 238.134 -1.50887 -1.14148 0
M  V30 2553 O 237.477 -0.643933 -1.72044 0
M  V30 2554 C 237.539 -3.5944 0.0659508 0
M  V30 2555 C 237.203 -4.36812 1.34331 0
M  V30 2556 C 238.2 -4.67383 2.27704 0
M  V30 2557 C 235.885 -4.76429 1.59125 0
M  V30 2558 C 237.879 -5.36509 3.44147 0
M  V30 2559 C 235.566 -5.45294 2.75857 0
M  V30 2560 C 236.564 -5.75259 3.68193 0
M  V30 2561 O 236.252 -6.42712 4.82883 0
M  V30 2562 H 235.984 -0.668872 0.0979084 0
M  V30 2563 H 238.538 -1.83467 0.923531 0
M  V30 2564 H 236.768 -3.80197 -0.706204 0
M  V30 2565 H 238.457 -4.0427 -0.363418 0
M  V30 2566 H 239.223 -4.37275 2.09799 0
M  V30 2567 H 235.102 -4.52498 0.881258 0
M  V30 2568 H 238.646 -5.59814 4.16238 0
M  V30 2569 H 234.543 -5.7482 2.93688 0
M  V30 2570 H 235.311 -6.61204 4.82444 0
M  V30 2571 N 237.974 -0.419461 -1.51915 0
M  V30 2572 C 239.385 0.0477853 -1.86639 0
M  V30 2573 C 239.736 1.43531 -1.33766 0
M  V30 2574 O 238.861 2.05401 -0.68113 0
M  V30 2575 C 239.456 0.0934885 -3.38671 0
M  V30 2576 C 238.015 0.505097 -3.72996 0
M  V30 2577 C 237.162 -0.313792 -2.75519 0
M  V30 2578 H 240.113 -0.636088 -1.45395 0
M  V30 2579 H 240.134 0.906667 -3.6954 0
M  V30 2580 H 239.646 -0.916501 -3.77123 0
M  V30 2581 H 237.747 1.52135 -3.40126 0
M  V30 2582 H 237.86 0.242309 -4.78487 0
M  V30 2583 H 236.224 0.225363 -2.53701 0
M  V30 2584 H 237.007 -1.32232 -3.16812 0
M  V30 2585 N 239.452 1.56882 -0.150215 0
M  V30 2586 C 240.682 2.00302 0.506213 0
M  V30 2587 C 241.09 1.02934 1.58749 0
M  V30 2588 O 240.433 0.0188384 1.8369 0
M  V30 2589 C 240.495 3.40156 1.16337 0
M  V30 2590 C 240.159 4.56439 0.226311 0
M  V30 2591 C 241.156 5.17012 -0.547265 0
M  V30 2592 C 238.841 5.02136 0.128279 0
M  V30 2593 C 240.835 6.21693 -1.40629 0
M  V30 2594 C 238.522 6.06672 -0.734345 0
M  V30 2595 C 239.52 6.6632 -1.50023 0
M  V30 2596 O 239.208 7.68831 -2.34848 0
M  V30 2597 H 238.94 0.662182 0.135984 0
M  V30 2598 H 241.494 2.03961 -0.242746 0
M  V30 2599 H 239.724 3.33346 1.96004 0
M  V30 2600 H 241.413 3.67663 1.71985 0
M  V30 2601 H 242.179 4.82603 -0.48158 0
M  V30 2602 H 238.058 4.55435 0.714157 0
M  V30 2603 H 241.602 6.68179 -2.00455 0
M  V30 2604 H 237.499 6.40507 -0.801309 0
M  V30 2605 H 238.267 7.86065 -2.28131 0
M  V30 2606 N 240.93 -0.123565 1.57115 0
M  V30 2607 C 241.878 -1.17082 2.00984 0
M  V30 2608 C 242.872 -1.43136 0.906009 0
M  V30 2609 O 244.078 -1.43152 1.09121 0
M  V30 2610 H 240.453 -0.394653 0.64012 0
M  V30 2611 H 242.424 -0.774292 2.88179 0
M  V30 2612 C 241.173 -2.49057 2.42623 0
M  V30 2613 H 240.496 -2.29846 3.27125 0
M  V30 2614 H 241.936 -3.20906 2.7712 0
M  V30 2615 C 240.395 -3.11305 1.28805 0
M  V30 2616 O 240.925 -3.97171 0.60153 0
M  V30 2617 N 239.131 -2.71111 1.04628 0
M  V30 2618 H 238.678 -2.01382 1.60634 0
M  V30 2619 H 238.636 -3.1309 0.286685 0
M  V30 2620 N 242.408 -1.52605 -0.393616 0
M  V30 2621 C 243.356 -1.77688 -1.50099 0
M  V30 2622 C 244.35 -0.644615 -1.56656 0
M  V30 2623 O 245.556 -0.826997 -1.59877 0
M  V30 2624 H 241.931 -0.562159 -0.499481 0
M  V30 2625 H 243.902 -2.7043 -1.26135 0
M  V30 2626 C 242.651 -1.95858 -2.87289 0
M  V30 2627 H 241.974 -2.8241 -2.82992 0
M  V30 2628 H 243.414 -2.174 -3.64024 0
M  V30 2629 C 241.873 -0.729848 -3.28899 0
M  V30 2630 O 242.403 0.0949217 -4.01588 0
M  V30 2631 N 240.609 -0.561283 -2.85128 0
M  V30 2632 H 240.156 -1.23357 -2.26143 0
M  V30 2633 H 240.114 0.2595 -3.13327 0
M  V30 2634 N 243.887 0.651787 -1.4349 0
M  V30 2635 C 244.817 1.77621 -1.51569 0
M  V30 2636 C 245.798 1.66022 -0.370253 0
M  V30 2637 O 246.983 1.85095 -0.587658 0
M  V30 2638 C 244.113 3.16056 -1.43966 0
M  V30 2639 C 243.067 3.4242 -2.56774 0
M  V30 2640 C 242.393 4.8067 -2.34223 0
M  V30 2641 C 243.693 3.37023 -3.99015 0
M  V30 2642 H 245.387 1.71117 -2.45681 0
M  V30 2643 H 242.933 0.821825 -1.18246 0
M  V30 2644 H 244.886 3.94472 -1.48221 0
M  V30 2645 H 243.61 3.23293 -0.463586 0
M  V30 2646 H 242.269 2.66375 -2.51873 0
M  V30 2647 H 241.917 4.84585 -1.34856 0
M  V30 2648 H 241.617 4.9927 -3.09844 0
M  V30 2649 H 243.141 5.61342 -2.40265 0
M  V30 2650 H 244.555 4.05374 -4.05395 0
M  V30 2651 H 242.952 3.67159 -4.74673 0
M  V30 2652 H 244.022 2.3518 -4.2405 0
M  V30 2653 N 245.365 1.30045 0.890287 0
M  V30 2654 C 246.595 1.21296 1.67245 0
M  V30 2655 C 247.003 -0.227471 1.87828 0
M  V30 2656 O 246.346 -1.16296 1.422 0
M  V30 2657 C 246.408 1.86519 3.07329 0
M  V30 2658 C 246.072 3.35837 3.09939 0
M  V30 2659 C 247.069 4.31915 2.89389 0
M  V30 2660 C 244.754 3.77196 3.31706 0
M  V30 2661 C 246.748 5.67325 2.90552 0
M  V30 2662 C 244.435 5.12725 3.32499 0
M  V30 2663 C 245.433 6.076 3.11947 0
M  V30 2664 O 245.121 7.40655 3.12547 0
M  V30 2665 H 244.853 0.4211 0.528821 0
M  V30 2666 H 247.407 1.72111 1.12103 0
M  V30 2667 H 245.637 1.30228 3.64112 0
M  V30 2668 H 247.326 1.71963 3.67673 0
M  V30 2669 H 248.092 4.01294 2.72375 0
M  V30 2670 H 243.971 3.03796 3.4674 0
M  V30 2671 H 247.515 6.41354 2.74429 0
M  V30 2672 H 243.412 5.42988 3.49047 0
M  V30 2673 H 244.18 7.49577 3.28749 0
M  V30 2674 N 246.843 -1.10192 1.12674 0
M  V30 2675 C 247.773 -2.18652 0.819362 0
M  V30 2676 C 248.754 -1.68698 -0.217915 0
M  V30 2677 O 249.939 -1.94041 -0.0785581 0
M  V30 2678 C 247.069 -3.46202 0.27594 0
M  V30 2679 C 246.023 -4.09444 1.24656 0
M  V30 2680 C 245.349 -5.31725 0.563258 0
M  V30 2681 C 246.649 -4.52863 2.60217 0
M  V30 2682 H 248.343 -2.44622 1.72628 0
M  V30 2683 H 245.889 -1.17571 0.831451 0
M  V30 2684 H 247.842 -4.21372 0.0486149 0
M  V30 2685 H 246.566 -3.1973 -0.666331 0
M  V30 2686 H 245.225 -3.36284 1.45974 0
M  V30 2687 H 244.873 -5.0153 -0.384235 0
M  V30 2688 H 244.573 -5.74991 1.21075 0
M  V30 2689 H 246.097 -6.09624 0.34503 0
M  V30 2690 H 247.511 -5.19294 2.42913 0
M  V30 2691 H 245.908 -5.06986 3.21068 0
M  V30 2692 H 246.978 -3.65656 3.18471 0
M  V30 2693 N 248.321 -0.919034 -1.28029 0
M  V30 2694 C 249.231 -0.416756 -2.30869 0
M  V30 2695 C 250.247 0.498235 -1.66714 0
M  V30 2696 O 251.423 0.383144 -1.97722 0
M  V30 2697 C 248.488 0.330274 -3.45123 0
M  V30 2698 C 247.549 -0.618578 -4.2482 0
M  V30 2699 C 246.782 0.0928959 -5.33619 0
M  V30 2700 O 247.005 1.31375 -5.55065 0
M  V30 2701 O 245.939 -0.574499 -5.99152 0
M  V30 2702 H 249.765 -1.27043 -2.75851 0
M  V30 2703 H 247.35 -0.684052 -1.3282 0
M  V30 2704 H 249.232 0.751972 -4.14636 0
M  V30 2705 H 247.907 1.1597 -3.02213 0
M  V30 2706 H 246.814 -1.08978 -3.57875 0
M  V30 2707 H 248.147 -1.41497 -4.71423 0
M  V30 2708 N 249.799 1.42003 -0.683588 0
M  V30 2709 C 251.215 1.55625 -0.353976 0
M  V30 2710 C 251.415 1.66151 1.14 0
M  V30 2711 O 250.471 1.63329 1.92561 0
M  V30 2712 C 251.784 2.80171 -1.092 0
M  V30 2713 C 253.332 2.93954 -1.07518 0
M  V30 2714 C 253.807 4.21372 -1.79471 0
M  V30 2715 N 255.298 4.28303 -1.76381 0
M  V30 2716 C 256.033 5.25729 -2.28904 0
M  V30 2717 N 255.529 6.29254 -2.89846 0
M  V30 2718 N 257.322 5.17586 -2.19228 0
M  V30 2719 H 249.473 1.33415 -1.6527 0
M  V30 2720 H 251.736 0.64282 -0.696769 0
M  V30 2721 H 251.442 2.78561 -2.14701 0
M  V30 2722 H 251.316 3.7133 -0.662862 0
M  V30 2723 H 253.703 2.95086 -0.028475 0
M  V30 2724 H 253.784 2.04002 -1.54328 0
M  V30 2725 H 253.428 4.21001 -2.84114 0
M  V30 2726 H 253.358 5.10275 -1.30104 0
M  V30 2727 H 255.849 3.54119 -1.31939 0
M  V30 2728 H 256.162 6.99964 -3.27522 0
M  V30 2729 H 254.507 6.29791 -2.93919 0
M  V30 2730 H 257.698 4.35631 -1.71299 0
M  V30 2731 H 257.871 5.93348 -2.60466 0
M  V30 2732 N 251.277 0.427512 1.51691 0
M  V30 2733 C 252.525 -0.141948 2.01601 0
M  V30 2734 C 252.846 -1.44067 1.31414 0
M  V30 2735 O 252.116 -1.90763 0.445658 0
M  V30 2736 H 250.696 -0.0554468 0.744939 0
M  V30 2737 H 253.358 0.567968 1.86441 0
M  V30 2738 H 252.454 -0.324913 3.10404 0
M  V30 2739 N 252.755 -1.56801 0.158532 0
M  V30 2740 C 254.003 -1.96102 -0.488712 0
M  V30 2741 C 254.324 -1.04498 -1.64636 0
M  V30 2742 O 253.594 -0.108783 -1.95598 0
M  V30 2743 H 252.174 -0.724102 -0.183535 0
M  V30 2744 H 254.836 -1.93457 0.236728 0
M  V30 2745 H 253.932 -3.00097 -0.857219 0
M  V30 2746 N 254.233 0.115231 -1.57178 0
M  V30 2747 C 255.51 0.852873 -1.76027 0
M  V30 2748 C 255.89 1.97892 -0.73498 0
M  V30 2749 O 255.238 2.27232 0.24036 0
M  V30 2750 C 255.448 1.36608 -3.21153 0
M  V30 2751 C 256.796 1.81692 -3.83762 0
M  V30 2752 O 257.82 1.46278 -3.24779 0
M  V30 2753 O 256.679 2.47104 -4.87444 0
M  V30 2754 H 253.773 0.405296 -0.720877 0
M  V30 2755 H 256.319 0.0986785 -1.69413 0
M  V30 2756 H 255.091 0.558357 -3.87296 0
M  V30 2757 H 254.714 2.18287 -3.3232 0
M  V30 2758 N 255.711 1.52812 0.385517 0
M  V30 2759 C 257.122 1.5993 0.963293 0
M  V30 2760 C 257.473 0.454302 1.90868 0
M  V30 2761 O 256.598 -0.422132 2.12243 0
M  V30 2762 C 257.193 2.89871 1.75387 0
M  V30 2763 C 255.752 2.99389 2.28129 0
M  V30 2764 C 254.899 2.55071 1.08783 0
M  V30 2765 H 257.85 1.5784 0.164948 0
M  V30 2766 H 257.871 2.76553 2.61341 0
M  V30 2767 H 257.383 3.73186 1.06554 0
M  V30 2768 H 255.484 2.20619 3.00263 0
M  V30 2769 H 255.597 4.04096 2.57377 0
M  V30 2770 H 253.961 2.09473 1.4489 0
M  V30 2771 H 254.744 3.40785 0.414807 0
M  V30 2772 N 257.189 -0.644168 1.43834 0
M  V30 2773 C 258.414 -1.43642 1.49605 0
M  V30 2774 C 258.839 -1.8773 0.117913 0
M  V30 2775 O 258.197 -1.57938 -0.890239 0
M  V30 2776 C 258.245 -2.6416 2.45463 0
M  V30 2777 O 257.349 -3.63538 1.94714 0
M  V30 2778 H 256.69 -0.430329 0.50568 0
M  V30 2779 H 259.22 -0.787448 1.8884 0
M  V30 2780 H 259.23 -3.11864 2.63068 0
M  V30 2781 H 257.905 -2.31414 3.45572 0
M  V30 2782 H 256.482 -3.2273 1.86814 0
M  V30 2783 N 258.668 -1.30515 -0.883378 0
M  V30 2784 C 259.615 -1.17032 -1.98927 0
M  V30 2785 C 260.585 -0.0594241 -1.65994 0
M  V30 2786 O 261.77 -0.229895 -1.8941 0
M  V30 2787 C 258.91 -0.869777 -3.33959 0
M  V30 2788 C 258.023 -2.06271 -3.79574 0
M  V30 2789 C 257.158 -1.70011 -5.03259 0
M  V30 2790 C 256.197 -2.8579 -5.41286 0
M  V30 2791 N 255.334 -2.49816 -6.56153 0
M  V30 2792 H 260.174 -2.1164 -2.09792 0
M  V30 2793 H 257.711 -1.05296 -1.02719 0
M  V30 2794 H 259.669 -0.676138 -4.11685 0
M  V30 2795 H 258.299 0.0394332 -3.22776 0
M  V30 2796 H 257.351 -2.36755 -2.97744 0
M  V30 2797 H 258.663 -2.92971 -4.03694 0
M  V30 2798 H 257.817 -1.47032 -5.88614 0
M  V30 2799 H 256.556 -0.804829 -4.81013 0
M  V30 2800 H 255.561 -3.09434 -4.54456 0
M  V30 2801 H 256.786 -3.76008 -5.65504 0
M  V30 2802 H 254.732 -1.62795 -6.35479 0
M  V30 2803 H 254.649 -3.30048 -6.8015 0
M  V30 2804 H 255.917 -2.30197 -7.44735 0
M  V30 2805 N 260.146 1.09593 -1.13257 0
M  V30 2806 C 261.056 2.19739 -0.821691 0
M  V30 2807 C 262.072 1.72926 0.19302 0
M  V30 2808 O 263.248 2.01385 0.0244895 0
M  V30 2809 C 260.313 3.45482 -0.290333 0
M  V30 2810 C 259.374 4.06985 -1.36607 0
M  V30 2811 C 258.607 5.26726 -0.859975 0
M  V30 2812 O 258.83 5.69594 0.303082 0
M  V30 2813 O 257.764 5.7931 -1.63351 0
M  V30 2814 H 261.59 2.48781 -1.74189 0
M  V30 2815 H 259.175 1.18496 -0.909894 0
M  V30 2816 H 261.057 4.214 0.000674022 0
M  V30 2817 H 259.732 3.18047 0.602306 0
M  V30 2818 H 258.639 3.32712 -1.71037 0
M  V30 2819 H 259.972 4.38643 -2.23279 0
M  V30 2820 N 261.624 0.925811 1.2754 0
M  V30 2821 C 263.035 0.610102 1.7645 0
M  V30 2822 C 263.386 -0.874723 1.75622 0
M  V30 2823 O 262.511 -1.68444 1.35851 0
M  V30 2824 C 263.106 1.10073 3.20421 0
M  V30 2825 C 261.665 0.835723 3.67005 0
M  V30 2826 C 260.812 1.26054 2.46993 0
M  V30 2827 H 263.763 1.10579 1.13833 0
M  V30 2828 H 263.784 0.447557 3.77859 0
M  V30 2829 H 263.296 2.18143 3.20991 0
M  V30 2830 H 261.397 -0.231249 3.71882 0
M  V30 2831 H 261.51 1.45193 4.56569 0
M  V30 2832 H 259.874 0.679111 2.45479 0
M  V30 2833 H 260.657 2.34984 2.50275 0
M  V30 2834 N 263.102 -1.41638 0.69111 0
M  V30 2835 C 264.012 -2.34588 0.0233487 0
M  V30 2836 C 265.028 -1.55987 -0.770984 0
M  V30 2837 O 266.204 -1.88486 -0.709569 0
M  V30 2838 C 263.269 -3.34684 -0.904851 0
M  V30 2839 C 262.33 -4.29176 -0.103225 0
M  V30 2840 C 261.563 -5.2449 -0.987216 0
M  V30 2841 O 261.786 -5.2514 -2.22674 0
M  V30 2842 O 260.72 -6.00295 -0.439281 0
M  V30 2843 H 264.546 -2.93261 0.789416 0
M  V30 2844 H 262.131 -1.42417 0.45142 0
M  V30 2845 H 264.013 -3.96133 -1.43724 0
M  V30 2846 H 262.688 -2.78461 -1.65049 0
M  V30 2847 H 261.595 -3.71089 0.473655 0
M  V30 2848 H 262.928 -4.88484 0.60365 0
M  V30 2849 N 264.58 -0.43555 -1.51462 0
M  V30 2850 C 265.996 -0.0877501 -1.59359 0
M  V30 2851 C 266.196 1.4027 -1.4466 0
M  V30 2852 O 265.252 2.17243 -1.28693 0
M  V30 2853 C 266.565 -0.606264 -2.94525 0
M  V30 2854 C 268.113 -0.566548 -3.0783 0
M  V30 2855 C 268.588 -1.06201 -4.45517 0
M  V30 2856 N 270.079 -1.01992 -4.51832 0
M  V30 2857 C 270.814 -1.37417 -5.5669 0
M  V30 2858 N 270.31 -1.80119 -6.68976 0
M  V30 2859 N 272.103 -1.29245 -5.47039 0
M  V30 2860 H 264.254 -1.40533 -1.59261 0
M  V30 2861 H 266.517 -0.578992 -0.750648 0
M  V30 2862 H 266.223 -1.64901 -3.10645 0
M  V30 2863 H 266.097 -0.0302097 -3.77188 0
M  V30 2864 H 268.484 0.467208 -2.91378 0
M  V30 2865 H 268.565 -1.17898 -2.2701 0
M  V30 2866 H 268.209 -2.09422 -4.62715 0
M  V30 2867 H 268.139 -0.426127 -5.24873 0
M  V30 2868 H 270.63 -0.706308 -3.71241 0
M  V30 2869 H 270.943 -2.05392 -7.45006 0
M  V30 2870 H 269.288 -1.84044 -6.70189 0
M  V30 2871 H 272.479 -0.957522 -4.58202 0
M  V30 2872 H 272.652 -1.57182 -6.28648 0
M  V30 2873 N 266.058 1.56714 -0.166846 0
M  V30 2874 C 267.304 1.97039 0.479962 0
M  V30 2875 C 267.637 1.05264 1.63197 0
M  V30 2876 O 266.912 0.0988833 1.94248 0
M  V30 2877 C 267.195 3.46867 0.967212 0
M  V30 2878 C 267.048 4.49421 -0.18466 0
M  V30 2879 C 268.367 3.9968 1.84238 0
M  V30 2880 H 265.486 0.71641 0.172992 0
M  V30 2881 H 268.128 1.8832 -0.252079 0
M  V30 2882 H 266.278 3.54428 1.59101 0
M  V30 2883 H 267.95 4.53924 -0.821621 0
M  V30 2884 H 266.193 4.25573 -0.840837 0
M  V30 2885 H 266.864 5.51644 0.198317 0
M  V30 2886 H 269.34 3.94723 1.31655 0
M  V30 2887 H 268.216 5.04941 2.15234 0
M  V30 2888 H 268.477 3.43226 2.78654 0
M  V30 2889 N 267.536 -0.106894 1.57237 0
M  V30 2890 C 268.782 -0.81373 1.85759 0
M  V30 2891 C 269.115 -1.78952 0.754315 0
M  V30 2892 O 268.39 -1.93029 -0.23879 0
M  V30 2893 C 268.673 -1.55293 3.24894 0
M  V30 2894 C 268.526 -0.595929 4.45835 0
M  V30 2895 C 269.845 -2.5063 3.61763 0
M  V30 2896 H 266.964 -0.294369 0.67566 0
M  V30 2897 H 269.606 -0.0776472 1.89841 0
M  V30 2898 H 267.756 -2.1804 3.21544 0
M  V30 2899 H 269.428 0.0236262 4.61294 0
M  V30 2900 H 267.671 0.0916191 4.33703 0
M  V30 2901 H 268.342 -1.15004 5.39887 0
M  V30 2902 H 270.818 -1.97982 3.65981 0
M  V30 2903 H 269.694 -2.99376 4.60071 0
M  V30 2904 H 269.955 -3.3385 2.89821 0
M  V30 2905 N 269.014 -1.53014 -0.377408 0
M  V30 2906 C 269.964 -1.74996 -1.46152 0
M  V30 2907 C 270.948 -0.604236 -1.49123 0
M  V30 2908 O 272.14 -0.862489 -1.54564 0
M  V30 2909 C 269.269 -1.93267 -2.8373 0
M  V30 2910 C 268.355 -3.13807 -2.85283 0
M  V30 2911 N 268.746 -4.35941 -2.56493 0
M  V30 2912 C 267.044 -3.14288 -3.16448 0
M  V30 2913 C 267.745 -5.17615 -2.65424 0
M  V30 2914 N 266.721 -4.53559 -2.99641 0
M  V30 2915 H 270.523 -2.67044 -1.22738 0
M  V30 2916 H 268.037 -1.51479 -0.585479 0
M  V30 2917 H 270.034 -2.0714 -3.61799 0
M  V30 2918 H 268.694 -1.0244 -3.08117 0
M  V30 2919 H 269.705 -4.63876 -2.30302 0
M  V30 2920 H 266.382 -2.33312 -3.46225 0
M  V30 2921 H 267.772 -6.25006 -2.46612 0
M  V30 2922 N 270.492 0.636531 -1.44174 0
M  V30 2923 C 271.722 1.42146 -1.49927 0
M  V30 2924 C 272.13 1.88812 -0.121063 0
M  V30 2925 O 271.473 1.61126 0.882267 0
M  V30 2926 C 271.535 2.67883 -2.39748 0
M  V30 2927 C 271.199 2.43048 -3.8701 0
M  V30 2928 C 272.196 2.05216 -4.77684 0
M  V30 2929 C 269.881 2.56856 -4.3166 0
M  V30 2930 C 271.875 1.81512 -6.11009 0
M  V30 2931 C 269.562 2.32766 -5.65034 0
M  V30 2932 C 270.56 1.95152 -6.54526 0
M  V30 2933 O 270.248 1.71326 -7.85431 0
M  V30 2934 H 269.98 0.442567 -0.51099 0
M  V30 2935 H 272.534 0.786158 -1.8976 0
M  V30 2936 H 270.764 3.34032 -1.94832 0
M  V30 2937 H 272.453 3.29874 -2.36513 0
M  V30 2938 H 273.219 1.94111 -4.44462 0
M  V30 2939 H 269.098 2.85104 -3.62266 0
M  V30 2940 H 272.642 1.52077 -6.80822 0
M  V30 2941 H 268.539 2.43479 -5.97819 0
M  V30 2942 H 269.307 1.85616 -7.97176 0
M  V30 2943 N 271.97 1.30982 0.876444 0
M  V30 2944 C 272.88 1.2003 2.01569 0
M  V30 2945 C 273.896 0.11838 1.73597 0
M  V30 2946 O 275.072 0.33495 1.98595 0
M  V30 2947 C 272.137 0.901637 3.34771 0
M  V30 2948 C 271.198 2.06979 3.76109 0
M  V30 2949 C 270.431 1.78529 5.02954 0
M  V30 2950 O 270.654 0.717296 5.65872 0
M  V30 2951 O 269.588 2.64019 5.40905 0
M  V30 2952 H 273.414 2.15753 2.13739 0
M  V30 2953 H 270.999 1.10658 1.00375 0
M  V30 2954 H 272.881 0.750645 4.1466 0
M  V30 2955 H 271.556 -0.0256141 3.2369 0
M  V30 2956 H 270.463 2.27616 2.96887 0
M  V30 2957 H 271.796 2.97907 3.91807 0
M  V30 2958 N 273.449 -1.08991 1.13837 0
M  V30 2959 C 274.698 -1.80631 0.897509 0
M  V30 2960 C 275.011 -1.86872 -0.57777 0
M  V30 2961 O 276.217 -2.54866 -0.935701 0
M  V30 2962 C 274.673 -3.24517 1.55618 0
M  V30 2963 C 274.281 -3.26529 3.0673 0
M  V30 2964 C 276.025 -4.00882 1.3962 0
M  V30 2965 C 273.932 -4.64965 3.65461 0
M  V30 2966 H 272.862 -0.67691 0.332129 0
M  V30 2967 H 275.513 -1.2246 1.3666 0
M  V30 2968 H 273.895 -3.82778 1.01476 0
M  V30 2969 H 275.069 -2.78008 3.67489 0
M  V30 2970 H 273.384 -2.63656 3.22296 0
M  V30 2971 H 275.981 -5.03167 1.80906 0
M  V30 2972 H 276.324 -4.14896 0.341578 0
M  V30 2973 H 276.857 -3.49075 1.90766 0
M  V30 2974 H 273.596 -4.56153 4.70749 0
M  V30 2975 H 273.116 -5.13792 3.09481 0
M  V30 2976 H 274.795 -5.3394 3.654 0
M  V30 2977 O 274.966 -1.06362 -1.21529 0
M  V30 2978 H 275.657 -0.745266 -1.78789 0
M  V30 END ATOM
M  V30 BEGIN BOND
M  V30 END BOND
M  V30 END CTAB
M  END
$$$$
