drugbank_target|O95182 NADH dehydrogenase [ubiquinone] 1 alpha subcomplex subunit 7 (DB00157)
 OpenBabel12092119313D

  0  0  0     0  0            999 V3000
M  V30 BEGIN CTAB
M  V30 COUNTS 1792 1813 0 0 0
M  V30 BEGIN ATOM
M  V30 1 H -0.908 1.98254 -0.117106 0
M  V30 2 N 0 1.576 0 0
M  V30 3 C 0.933 2.03868 1.02534 0
M  V30 4 C 1.911 0.928543 1.3348 0
M  V30 5 O 3.095 1.19667 1.45644 0
M  V30 6 C 0.222 2.43627 2.35294 0
M  V30 7 C -0.732 3.65373 2.2001 0
M  V30 8 S 0.101 5.13292 1.52614 0
M  V30 9 C 1.257 5.56322 2.86805 0
M  V30 10 H 1.49 2.90518 0.631377 0
M  V30 11 H -0.977 1.52953 0.210867 0
M  V30 12 H 0.981 2.67203 3.11629 0
M  V30 13 H -0.358 1.57376 2.7183 0
M  V30 14 H -1.165 3.90944 3.18086 0
M  V30 15 H -1.563 3.418 1.51819 0
M  V30 16 H 0.729 5.58782 3.83104 0
M  V30 17 H 1.672 6.56266 2.65933 0
M  V30 18 H 2.08 4.83886 2.90714 0
M  V30 19 N 1.4781 -0.272755 1.55222 0
M  V30 20 C 2.4411 -1.32041 1.87344 0
M  V30 21 C 3.4411 -1.42342 0.74803 0
M  V30 22 O 4.6311 -1.41488 1.0162 0
M  V30 23 C 1.7631 -2.70173 2.07893 0
M  V30 24 H 2.9561 -1.04789 2.80997 0
M  V30 25 H 0.5091 -0.51083 1.47717 0
M  V30 26 H 1.2441 -3.02605 1.16622 0
M  V30 27 H 1.0291 -2.64082 2.89833 0
M  V30 28 H 2.5191 -3.45869 2.34017 0
M  V30 29 N 2.9562 -1.48159 -0.537278 0
M  V30 30 C 4.1812 -1.59707 -1.32319 0
M  V30 31 C 4.6062 -0.254859 -1.86365 0
M  V30 32 O 3.9642 0.772378 -1.64024 0
M  V30 33 C 4.0122 -2.6412 -2.45505 0
M  V30 34 O 3.1162 -2.20774 -3.48328 0
M  V30 35 H 2.4572 -0.535791 -0.392204 0
M  V30 36 H 4.9872 -1.94092 -0.647268 0
M  V30 37 H 4.9972 -2.85166 -2.91795 0
M  V30 38 H 3.6722 -3.61567 -2.05528 0
M  V30 39 H 2.2492 -2.09911 -3.08207 0
M  V30 40 N 4.4343 0.785586 -1.36625 0
M  V30 41 C 5.3973 1.87999 -1.31107 0
M  V30 42 C 6.3973 1.59316 -0.217959 0
M  V30 43 O 7.5873 1.67656 -0.472977 0
M  V30 44 C 4.7193 3.24861 -1.03334 0
M  V30 45 H 5.9123 1.94307 -2.2844 0
M  V30 46 H 3.4653 0.983813 -1.21453 0
M  V30 47 H 4.2003 3.24235 -0.0647432 0
M  V30 48 H 3.9853 3.4707 -1.82441 0
M  V30 49 H 5.4753 4.04929 -1.02088 0
M  V30 50 N 5.9124 1.20967 1.01018 0
M  V30 51 C 7.1404 1.04956 1.78303 0
M  V30 52 C 7.5554 -0.400915 1.84494 0
M  V30 53 O 6.9124 -1.27826 1.30257 0
M  V30 54 C 6.9634 1.63403 3.22462 0
M  V30 55 O 6.6844 3.02775 3.16637 0
M  V30 56 C 8.1854 1.52432 4.16268 0
M  V30 57 H 5.4054 0.368858 0.560522 0
M  V30 58 H 7.9494 1.60193 1.27116 0
M  V30 59 H 6.1044 1.1227 3.70775 0
M  V30 60 H 6.5184 3.30626 4.07169 0
M  V30 61 H 7.9924 1.98078 5.15237 0
M  V30 62 H 8.4694 0.477875 4.36592 0
M  V30 63 H 9.0754 2.02787 3.73841 0
M  V30 64 N 7.3905 -1.2043 1.01659 0
M  V30 65 C 8.8065 -1.41852 0.731442 0
M  V30 66 C 9.0065 -1.89358 -0.688898 0
M  V30 67 O 8.0625 -2.06247 -1.45666 0
M  V30 68 C 9.3755 -2.44019 1.75714 0
M  V30 69 C 10.9235 -2.57785 1.77527 0
M  V30 70 C 11.3985 -3.63194 2.79023 0
M  V30 71 N 12.8895 -3.70678 2.77763 0
M  V30 72 C 13.6245 -4.51897 3.52954 0
M  V30 73 N 13.1205 -5.36921 4.37821 0
M  V30 74 N 14.9135 -4.4643 3.41551 0
M  V30 75 H 7.0645 -0.879093 1.93354 0
M  V30 76 H 9.3275 -0.448425 0.835236 0
M  V30 77 H 9.0335 -2.1611 2.77469 0
M  V30 78 H 8.9075 -3.43007 1.56927 0
M  V30 79 H 11.2945 -2.85023 0.764569 0
M  V30 80 H 11.3755 -1.58992 2.00387 0
M  V30 81 H 11.0195 -3.36699 3.80258 0
M  V30 82 H 10.9495 -4.61609 2.53425 0
M  V30 83 H 13.4405 -3.09944 2.16201 0
M  V30 84 H 13.7535 -5.95981 4.91962 0
M  V30 85 H 12.0985 -5.36424 4.41899 0
M  V30 86 H 15.2895 -3.79042 2.74672 0
M  V30 87 H 15.4625 -5.09491 4.00404 0
M  V30 88 N 8.8686 -0.792821 -1.36206 0
M  V30 89 C 9.7986 -0.207853 -2.32573 0
M  V30 90 C 10.7796 0.659055 -1.56813 0
M  V30 91 O 11.9646 0.592176 -1.84951 0
M  V30 92 C 9.0946 0.655449 -3.41059 0
M  V30 93 C 8.0486 -0.111842 -4.27854 0
M  V30 94 C 7.3746 0.872274 -5.27537 0
M  V30 95 C 8.6746 -1.30299 -5.05786 0
M  V30 96 H 10.3686 -1.01294 -2.81744 0
M  V30 97 H 7.9146 -0.48854 -1.3546 0
M  V30 98 H 9.8676 1.07464 -4.07467 0
M  V30 99 H 8.5916 1.49328 -2.90463 0
M  V30 100 H 7.2506 -0.512053 -3.63006 0
M  V30 101 H 6.8986 1.70523 -4.73214 0
M  V30 102 H 6.5986 0.363291 -5.86476 0
M  V30 103 H 8.1226 1.28996 -5.96818 0
M  V30 104 H 9.5366 -0.959379 -5.65216 0
M  V30 105 H 7.9336 -1.7455 -5.74154 0
M  V30 106 H 9.0036 -2.09663 -4.37229 0
M  V30 107 N 10.3467 1.47872 -0.545128 0
M  V30 108 C 11.5957 2.01695 -0.0145033 0
M  V30 109 C 11.9087 1.42609 1.33873 0
M  V30 110 O 13.1147 1.88021 1.95858 0
M  V30 111 C 11.5707 3.59892 0.0245068 0
M  V30 112 C 11.1787 4.27966 -1.32475 0
M  V30 113 C 12.9227 4.21507 0.50316 0
M  V30 114 C 10.8297 5.78136 -1.2455 0
M  V30 115 H 9.7597 0.753998 -0.00165172 0
M  V30 116 H 12.4107 1.69985 -0.691175 0
M  V30 117 H 10.7927 3.88509 0.766575 0
M  V30 118 H 11.9667 4.11003 -2.08357 0
M  V30 119 H 10.2817 3.78286 -1.74036 0
M  V30 120 H 12.8787 5.31538 0.580656 0
M  V30 121 H 13.2217 3.87855 1.51243 0
M  V30 122 H 13.7547 3.97376 -0.183681 0
M  V30 123 H 10.4937 6.16388 -2.23039 0
M  V30 124 H 10.0137 5.97469 -0.528282 0
M  V30 125 H 11.6927 6.40099 -0.942488 0
M  V30 126 N 11.8248 0.280983 1.55075 0
M  V30 127 C 12.7568 -0.637268 2.20163 0
M  V30 128 C 13.7698 -1.11298 1.18813 0
M  V30 129 O 14.9588 -1.03388 1.4551 0
M  V30 130 C 12.0588 -1.88199 2.81841 0
M  V30 131 C 11.2318 -1.55211 4.08936 0
M  V30 132 C 10.2908 -2.64991 4.54606 0
M  V30 133 O 9.3168 -2.30929 5.2025 0
M  V30 134 N 10.5188 -3.95161 4.25238 0
M  V30 135 H 13.2838 -0.0801694 2.99593 0
M  V30 136 H 10.8448 0.102329 1.61576 0
M  V30 137 H 12.8368 -2.60948 3.09335 0
M  V30 138 H 11.4068 -2.34799 2.06369 0
M  V30 139 H 10.6268 -0.658185 3.88666 0
M  V30 140 H 11.9148 -1.30681 4.91732 0
M  V30 141 H 11.3128 -4.25653 3.72607 0
M  V30 142 H 9.8698 -4.6427 4.5749 0
M  V30 143 N 13.3029 -1.57598 0.00835791 0
M  V30 144 C 14.7189 -1.55764 -0.347822 0
M  V30 145 C 14.9189 -1.01186 -1.74252 0
M  V30 146 O 13.9749 -0.649371 -2.44007 0
M  V30 147 C 15.2879 -2.99927 -0.215407 0
M  V30 148 C 16.8359 -3.11656 -0.289725 0
M  V30 149 C 17.3109 -4.57621 -0.18634 0
M  V30 150 N 18.8019 -4.62557 -0.243978 0
M  V30 151 C 19.5369 -5.73094 -0.18745 0
M  V30 152 N 19.0329 -6.92753 -0.0810331 0
M  V30 153 N 20.8259 -5.61588 -0.239925 0
M  V30 154 H 12.9769 -1.91411 0.92062 0
M  V30 155 H 15.2399 -0.879562 0.353659 0
M  V30 156 H 14.9459 -3.43729 0.744512 0
M  V30 157 H 14.8199 -3.63865 -0.994097 0
M  V30 158 H 17.2069 -2.67779 -1.24009 0
M  V30 159 H 17.2879 -2.5048 0.51898 0
M  V30 160 H 16.9319 -5.02174 0.760519 0
M  V30 161 H 16.8619 -5.16752 -1.01364 0
M  V30 162 H 19.3529 -3.76481 -0.327217 0
M  V30 163 H 19.6659 -7.72787 -0.0440241 0
M  V30 164 H 18.0109 -6.94984 -0.0465419 0
M  V30 165 H 21.2019 -4.66996 -0.321317 0
M  V30 166 H 21.3749 -6.47714 -0.192407 0
M  V30 167 N 14.781 0.264519 -1.55364 0
M  V30 168 C 15.711 1.33121 -1.91836 0
M  V30 169 C 16.692 1.51101 -0.781192 0
M  V30 170 O 17.877 1.64003 -1.04003 0
M  V30 171 C 15.007 2.68921 -2.19769 0
M  V30 172 C 13.961 2.65661 -3.35571 0
M  V30 173 C 13.287 4.05093 -3.49004 0
M  V30 174 C 14.587 2.24187 -4.71739 0
M  V30 175 H 16.281 1.02844 -2.81182 0
M  V30 176 H 13.827 0.493286 -1.35287 0
M  V30 177 H 15.78 3.43663 -2.43872 0
M  V30 178 H 14.504 3.00799 -1.27231 0
M  V30 179 H 13.163 1.93377 -3.1145 0
M  V30 180 H 12.811 4.34206 -2.53917 0
M  V30 181 H 12.511 4.03804 -4.26868 0
M  V30 182 H 14.035 4.81561 -3.75408 0
M  V30 183 H 15.449 2.88654 -4.9533 0
M  V30 184 H 13.846 2.34044 -5.52579 0
M  V30 185 H 14.916 1.19327 -4.69988 0
M  V30 186 N 16.2591 1.48442 0.529413 0
M  V30 187 C 17.6751 1.34575 0.858004 0
M  V30 188 C 17.8751 0.3572 1.98309 0
M  V30 189 O 16.9311 -0.221379 2.51528 0
M  V30 190 C 18.2441 2.74617 1.22499 0
M  V30 191 C 19.7921 2.83109 1.33484 0
M  V30 192 C 20.2671 4.23854 1.73526 0
M  V30 193 N 21.7581 4.2653 1.80628 0
M  V30 194 C 22.4931 5.32372 2.12997 0
M  V30 195 N 21.9891 6.48491 2.43786 0
M  V30 196 N 23.7821 5.19766 2.14008 0
M  V30 197 H 15.9331 2.1133 -0.212925 0
M  V30 198 H 18.1961 0.947439 -0.0326199 0
M  V30 199 H 17.9021 3.4852 0.471905 0
M  V30 200 H 17.7761 3.08177 2.17501 0
M  V30 201 H 20.1631 2.09462 2.0787 0
M  V30 202 H 20.2441 2.53168 0.366027 0
M  V30 203 H 19.8881 4.98018 0.997013 0
M  V30 204 H 19.8181 4.5124 2.71459 0
M  V30 205 H 22.3091 3.42772 1.59108 0
M  V30 206 H 22.6221 7.24993 2.67592 0
M  V30 207 H 20.9671 6.51765 2.41304 0
M  V30 208 H 24.1581 4.28066 1.89412 0
M  V30 209 H 24.3311 6.02354 2.38902 0
M  V30 210 N 17.7372 -0.778329 1.37039 0
M  V30 211 C 18.6852 -1.91278 1.32345 0
M  V30 212 C 19.6792 -1.68051 0.213331 0
M  V30 213 O 20.8852 -1.75922 0.38098 0
M  V30 214 H 17.2602 -0.628909 0.412283 0
M  V30 215 H 19.2312 -1.92355 2.28127 0
M  V30 216 C 17.9802 -3.28455 1.14073 0
M  V30 217 H 17.3032 -3.46901 1.98746 0
M  V30 218 H 18.7432 -4.08152 1.14837 0
M  V30 219 C 17.2022 -3.36548 -0.154015 0
M  V30 220 O 17.7322 -3.85186 -1.13993 0
M  V30 221 N 15.9382 -2.89894 -0.202475 0
M  V30 222 H 15.4852 -2.50504 0.600476 0
M  V30 223 H 15.4432 -2.9569 -1.06841 0
M  V30 224 N 19.2153 -1.21501 -1.00376 0
M  V30 225 C 20.4613 -1.04457 -1.74529 0
M  V30 226 C 20.8163 0.417386 -1.87818 0
M  V30 227 O 20.1093 1.30556 -1.40234 0
M  V30 228 C 20.3033 -1.67673 -3.15627 0
M  V30 229 C 20.1323 -3.19865 -3.16096 0
M  V30 230 C 18.9023 -3.88915 -3.22604 0
M  V30 231 C 21.1003 -4.16936 -3.01112 0
M  V30 232 N 19.0823 -5.28284 -3.12712 0
M  V30 233 C 20.4533 -5.43066 -2.99131 0
M  V30 234 C 22.5083 -4.07968 -2.85423 0
M  V30 235 C 21.2113 -6.6126 -2.83068 0
M  V30 236 C 23.2373 -5.258 -2.70718 0
M  V30 237 C 22.5993 -6.50842 -2.69414 0
M  V30 238 H 18.6983 -0.436584 -0.648782 0
M  V30 239 H 21.2823 -1.53875 -1.19293 0
M  V30 240 H 19.4533 -1.20822 -3.6913 0
M  V30 241 H 21.1853 -1.43824 -3.78281 0
M  V30 242 H 17.9403 -3.39847 -3.2985 0
M  V30 243 H 18.3643 -6.01284 -3.11105 0
M  V30 244 H 23.0063 -3.1209 -2.85236 0
M  V30 245 H 20.7243 -7.57298 -2.82002 0
M  V30 246 H 24.3103 -5.20683 -2.59577 0
M  V30 247 H 23.1903 -7.40485 -2.5817 0
M  V30 248 N 20.6934 1.19889 -1.02296 0
M  V30 249 C 21.6564 2.21116 -0.603351 0
M  V30 250 C 22.6564 1.5738 0.329884 0
M  V30 251 O 23.8464 1.73802 0.117702 0
M  V30 252 C 20.9784 3.40696 0.117992 0
M  V30 253 H 22.1714 2.59754 -1.49893 0
M  V30 254 H 19.7244 1.33463 -0.813468 0
M  V30 255 H 20.4594 3.07569 1.0282 0
M  V30 256 H 20.2444 3.88188 -0.552511 0
M  V30 257 H 21.7344 4.15692 0.398696 0
M  V30 258 N 22.1715 0.800033 1.35784 0
M  V30 259 C 23.3965 0.388511 2.03729 0
M  V30 260 C 23.8215 -0.990481 1.5991 0
M  V30 261 O 23.1795 -1.64013 0.772612 0
M  V30 262 C 23.2275 0.4726 3.5749 0
M  V30 263 O 22.3315 -0.51646 4.09153 0
M  V30 264 H 21.6725 0.163271 0.643614 0
M  V30 265 H 24.2025 1.0841 1.73518 0
M  V30 266 H 24.2125 0.34003 4.06581 0
M  V30 267 H 22.8875 1.47848 3.88734 0
M  V30 268 H 21.4645 -0.344673 3.71304 0
M  V30 269 N 23.6496 -1.47581 0.552962 0
M  V30 270 C 24.8976 -2.02082 0.0272703 0
M  V30 271 C 25.2186 -1.4301 -1.32563 0
M  V30 272 O 24.4886 -0.603745 -1.86365 0
M  V30 273 H 23.0686 -0.746966 0.00709182 0
M  V30 274 H 25.7306 -1.81033 0.722008 0
M  V30 275 H 24.8266 -3.12034 -0.0639951 0
M  V30 276 N 25.1277 -0.289203 -1.54924 0
M  V30 277 C 26.0777 0.606939 -2.19773 0
M  V30 278 C 27.0617 1.10783 -1.16687 0
M  V30 279 O 28.2537 1.05057 -1.4245 0
M  V30 280 C 25.3827 1.78398 -2.93307 0
M  V30 281 C 24.4687 1.29961 -4.03697 0
M  V30 282 N 24.8597 0.532377 -5.0299 0
M  V30 283 C 23.1577 1.58136 -4.17024 0
M  V30 284 C 23.8587 0.275912 -5.81045 0
M  V30 285 N 22.8347 0.852365 -5.36876 0
M  V30 286 H 26.6367 0.0130779 -2.93897 0
M  V30 287 H 24.1507 -0.09341 -1.62131 0
M  V30 288 H 26.1477 2.43741 -3.38225 0
M  V30 289 H 24.8077 2.38166 -2.20697 0
M  V30 290 H 25.8187 0.17838 -5.17593 0
M  V30 291 H 22.4957 2.18738 -3.55612 0
M  V30 292 H 23.8857 -0.339502 -6.71042 0
M  V30 293 N 26.6058 1.57591 -0.0167156 0
M  V30 294 C 27.8828 1.82547 0.702564 0
M  V30 295 C 28.2628 0.898018 1.91047 0
M  V30 296 O 27.6108 -0.0493456 2.28447 0
M  V30 297 C 27.8208 3.31459 1.09251 0
M  V30 298 C 29.1688 3.97622 1.48937 0
M  V30 299 O 30.1928 3.35881 1.18584 0
M  V30 300 O 29.0518 5.06415 2.05442 0
M  V30 301 H 26.1458 0.752268 0.343544 0
M  V30 302 H 28.6918 1.69644 -0.0434495 0
M  V30 303 H 27.4638 3.9061 0.23227 0
M  V30 304 H 27.0868 3.49422 1.89709 0
M  V30 305 N 28.0839 -0.256276 1.55502 0
M  V30 306 C 29.0139 -1.32102 1.92539 0
M  V30 307 C 29.9949 -1.50684 0.789194 0
M  V30 308 O 31.1799 -1.63449 1.04872 0
M  V30 309 C 28.3099 -2.67752 2.21192 0
M  V30 310 C 27.2639 -2.63878 3.36975 0
M  V30 311 C 26.5899 -4.03236 3.51147 0
M  V30 312 C 27.8899 -2.21682 4.72921 0
M  V30 313 H 29.5839 -1.01351 2.81724 0
M  V30 314 H 27.1299 -0.486105 1.35547 0
M  V30 315 H 29.0829 -3.42365 2.45691 0
M  V30 316 H 27.8069 -3.0012 1.28824 0
M  V30 317 H 26.4659 -1.91722 3.12471 0
M  V30 318 H 26.1139 -4.32854 2.56216 0
M  V30 319 H 25.8139 -4.01535 4.29003 0
M  V30 320 H 27.3379 -4.79563 3.77957 0
M  V30 321 H 28.7519 -2.86023 4.96854 0
M  V30 322 H 27.1489 -2.3111 5.53812 0
M  V30 323 H 28.2189 -1.16833 4.70615 0
M  V30 324 N 29.562 -1.4872 -0.521534 0
M  V30 325 C 30.494 -1.59968 -1.64143 0
M  V30 326 C 31.507 -0.483463 -1.55456 0
M  V30 327 O 32.696 -0.75467 -1.61762 0
M  V30 328 C 29.796 -1.52127 -3.02838 0
M  V30 329 C 28.969 -2.78932 -3.36921 0
M  V30 330 C 28.028 -2.64428 -4.54933 0
M  V30 331 O 27.054 -3.38331 -4.57735 0
M  V30 332 N 28.256 -1.74606 -5.53618 0
M  V30 333 H 31.021 -2.56548 -1.54929 0
M  V30 334 H 28.582 -1.45551 -0.708988 0
M  V30 335 H 30.574 -1.40106 -3.79674 0
M  V30 336 H 29.144 -0.634868 -3.06085 0
M  V30 337 H 28.364 -3.05455 -2.4918 0
M  V30 338 H 29.652 -3.63041 -3.56481 0
M  V30 339 H 29.05 -1.13782 -5.54139 0
M  V30 340 H 27.607 -1.6852 -6.29638 0
M  V30 341 N 31.0401 0.771051 -1.3745 0
M  V30 342 C 32.2881 1.52661 -1.32435 0
M  V30 343 C 32.6091 1.9479 0.0905024 0
M  V30 344 O 31.8791 1.66348 1.03466 0
M  V30 345 H 30.4591 0.566218 -0.487244 0
M  V30 346 H 33.1211 0.917636 -1.71946 0
M  V30 347 H 32.2171 2.42568 -1.96385 0
M  V30 348 N 32.5182 1.22032 0.997298 0
M  V30 349 C 33.4652 0.986467 2.08656 0
M  V30 350 C 34.4352 -0.0902671 1.65855 0
M  V30 351 O 35.6202 0.0584294 1.90711 0
M  V30 352 C 32.7602 0.565569 3.40434 0
M  V30 353 C 31.8732 1.71259 3.96604 0
M  V30 354 C 31.0082 1.24011 5.16522 0
M  V30 355 C 30.0472 2.35896 5.64818 0
M  V30 356 N 29.1842 1.89726 6.7598 0
M  V30 357 H 34.0242 1.91892 2.27994 0
M  V30 358 H 31.5612 0.956199 1.11782 0
M  V30 359 H 33.5192 0.302738 4.161 0
M  V30 360 H 32.1492 -0.329879 3.2111 0
M  V30 361 H 31.2012 2.08986 3.17851 0
M  V30 362 H 32.5132 2.55436 4.28432 0
M  V30 363 H 31.6672 0.934395 5.99461 0
M  V30 364 H 30.4062 0.368487 4.86306 0
M  V30 365 H 29.4112 2.67261 4.8047 0
M  V30 366 H 30.6362 3.23567 5.97061 0
M  V30 367 H 28.5822 1.0492 6.47555 0
M  V30 368 H 28.4992 2.67471 7.07103 0
M  V30 369 H 29.7672 1.62211 7.62435 0
M  V30 370 N 33.9963 -1.19345 1.0293 0
M  V30 371 C 34.9263 -2.2481 0.631105 0
M  V30 372 C 35.9073 -1.66245 -0.360104 0
M  V30 373 O 37.0923 -1.92677 -0.242726 0
M  V30 374 C 34.2223 -3.47295 -0.0184607 0
M  V30 375 C 33.1763 -4.18536 0.895073 0
M  V30 376 C 32.5023 -5.34586 0.110592 0
M  V30 377 C 33.8023 -4.73287 2.209 0
M  V30 378 H 35.4963 -2.58372 1.51275 0
M  V30 379 H 33.0423 -1.24194 0.728818 0
M  V30 380 H 34.9953 -4.20268 -0.308675 0
M  V30 381 H 33.7193 -3.12933 -0.934907 0
M  V30 382 H 32.3783 -3.47446 1.16949 0
M  V30 383 H 32.0263 -4.96469 -0.807902 0
M  V30 384 H 31.7263 -5.83183 0.719087 0
M  V30 385 H 33.2503 -6.10355 -0.172871 0
M  V30 386 H 34.6643 -5.38013 1.98028 0
M  V30 387 H 33.0613 -5.32373 2.76946 0
M  V30 388 H 34.1313 -3.91331 2.86336 0
M  V30 389 N 35.4744 -0.807222 -1.35358 0
M  V30 390 C 36.4064 -0.175717 -2.28525 0
M  V30 391 C 37.4194 0.625354 -1.5031 0
M  V30 392 O 38.6084 0.457611 -1.72535 0
M  V30 393 C 35.7084 0.773471 -3.29956 0
M  V30 394 C 34.8814 0.0186296 -4.37396 0
M  V30 395 C 33.9404 0.886395 -5.18681 0
M  V30 396 O 32.9664 0.337106 -5.68201 0
M  V30 397 N 34.1684 2.20839 -5.36852 0
M  V30 398 H 36.9334 -0.976091 -2.83359 0
M  V30 399 H 34.4944 -0.662737 -1.47714 0
M  V30 400 H 36.4864 1.35824 -3.81227 0
M  V30 401 H 35.0564 1.47465 -2.75632 0
M  V30 402 H 34.2764 -0.747349 -3.87051 0
M  V30 403 H 35.5644 -0.501577 -5.06322 0
M  V30 404 H 34.9624 2.67858 -4.98265 0
M  V30 405 H 33.5194 2.74237 -5.91301 0
M  V30 406 N 36.9525 1.47285 -0.560781 0
M  V30 407 C 37.8825 2.32857 0.173105 0
M  V30 408 C 38.8635 1.44009 0.905281 0
M  V30 409 O 40.0485 1.7286 0.885046 0
M  V30 410 C 37.1785 3.25861 1.20133 0
M  V30 411 C 36.1325 4.23978 0.585388 0
M  V30 412 C 35.4585 5.06332 1.7185 0
M  V30 413 C 36.7585 5.20242 -0.463178 0
M  V30 414 H 38.4525 2.94466 -0.541307 0
M  V30 415 H 35.9985 1.41601 -0.261764 0
M  V30 416 H 37.9515 3.84569 1.72293 0
M  V30 417 H 36.6755 2.62315 1.94573 0
M  V30 418 H 35.3345 3.66501 0.085054 0
M  V30 419 H 34.9825 4.39186 2.45203 0
M  V30 420 H 34.6825 5.72762 1.31213 0
M  V30 421 H 36.2065 5.67899 2.24329 0
M  V30 422 H 37.6205 5.73293 -0.027502 0
M  V30 423 H 36.0175 5.94896 -0.788627 0
M  V30 424 H 37.0875 4.65504 -1.35773 0
M  V30 425 N 38.4306 0.297415 1.54768 0
M  V30 426 C 39.8466 -0.0560823 1.59501 0
M  V30 427 C 40.0466 -1.52725 1.31444 0
M  V30 428 O 39.1026 -2.27947 1.08611 0
M  V30 429 C 40.4156 0.338631 2.98787 0
M  V30 430 C 41.9636 0.287097 3.11681 0
M  V30 431 C 42.4386 0.656579 4.53269 0
M  V30 432 N 43.9296 0.608977 4.59179 0
M  V30 433 C 44.6646 0.867385 5.66802 0
M  V30 434 N 44.1606 1.19157 6.82476 0
M  V30 435 N 45.9536 0.794687 5.56454 0
M  V30 436 H 38.1046 1.25624 1.71267 0
M  V30 437 H 40.3676 0.509057 0.799728 0
M  V30 438 H 40.0736 1.36263 3.2423 0
M  V30 439 H 39.9476 -0.309508 3.75928 0
M  V30 440 H 42.3346 -0.727649 2.85988 0
M  V30 441 H 42.4156 0.969809 2.36703 0
M  V30 442 H 42.0596 1.66912 4.7969 0
M  V30 443 H 41.9896 -0.0481649 5.26578 0
M  V30 444 H 44.4806 0.369198 3.76092 0
M  V30 445 H 44.7936 1.37482 7.60473 0
M  V30 446 H 43.1386 1.22958 6.84037 0
M  V30 447 H 46.3296 0.541098 4.64962 0
M  V30 448 H 46.5026 0.999445 6.40246 0
M  V30 449 N 39.9087 -1.5758 0.0250728 0
M  V30 450 C 41.1387 -1.95646 -0.663783 0
M  V30 451 C 41.5467 -0.899935 -1.66427 0
M  V30 452 O 40.8897 0.127191 -1.83259 0
M  V30 453 C 40.9517 -3.29835 -1.43 0
M  V30 454 C 40.6157 -4.53197 -0.588305 0
M  V30 455 C 41.6127 -5.19726 0.13469 0
M  V30 456 C 39.2977 -4.99529 -0.526897 0
M  V30 457 C 41.2917 -6.30902 0.90781 0
M  V30 458 C 38.9787 -6.10589 0.24993 0
M  V30 459 C 39.9767 -6.76134 0.965994 0
M  V30 460 O 39.6647 -7.85062 1.7301 0
M  V30 461 H 39.3967 -0.649282 -0.188174 0
M  V30 462 H 41.9507 -2.05245 0.0799006 0
M  V30 463 H 40.1807 -3.16716 -2.21873 0
M  V30 464 H 41.8697 -3.52833 -2.00658 0
M  V30 465 H 42.6357 -4.84904 0.0965562 0
M  V30 466 H 38.5147 -4.48319 -1.07381 0
M  V30 467 H 42.0587 -6.81995 1.46724 0
M  V30 468 H 37.9557 -6.44849 0.289795 0
M  V30 469 H 38.7237 -8.01708 1.64944 0
M  V30 470 N 41.3868 0.248026 -1.55636 0
M  V30 471 C 42.3188 1.32993 -1.8667 0
M  V30 472 C 43.3318 1.44345 -0.752877 0
M  V30 473 O 44.5208 1.45715 -1.03098 0
M  V30 474 C 41.6208 2.70863 -2.03682 0
M  V30 475 C 40.7938 2.81792 -3.34532 0
M  V30 476 C 39.8528 4.005 -3.41301 0
M  V30 477 O 38.8788 3.9008 -4.14519 0
M  V30 478 N 40.0808 5.13618 -2.70512 0
M  V30 479 H 42.8458 1.06707 -2.8006 0
M  V30 480 H 40.4068 0.438129 -1.55859 0
M  V30 481 H 42.3988 3.48612 -2.05553 0
M  V30 482 H 40.9688 2.89862 -1.17041 0
M  V30 483 H 40.1888 1.90729 -3.44987 0
M  V30 484 H 41.4768 2.86043 -4.20781 0
M  V30 485 H 40.8748 5.24975 -2.10755 0
M  V30 486 H 39.4318 5.89505 -2.78077 0
M  V30 487 N 42.8649 1.48995 0.513639 0
M  V30 488 C 43.7749 1.67443 1.64317 0
M  V30 489 C 44.7909 0.556947 1.64846 0
M  V30 490 O 45.9669 0.830082 1.83498 0
M  V30 491 C 43.0319 1.72515 3.00732 0
M  V30 492 C 42.0929 2.96009 3.1093 0
M  V30 493 C 41.3259 3.00829 4.40837 0
M  V30 494 O 41.5489 2.13594 5.28898 0
M  V30 495 O 40.4829 3.93168 4.55744 0
M  V30 496 H 44.3089 2.63106 1.51687 0
M  V30 497 H 41.8939 1.32588 0.688543 0
M  V30 498 H 43.7759 1.78277 3.81831 0
M  V30 499 H 42.4509 0.800278 3.13651 0
M  V30 500 H 41.3579 2.9577 2.29065 0
M  V30 501 H 42.6909 3.87934 3.02933 0
M  V30 502 N 44.343 -0.763751 1.37857 0
M  V30 503 C 45.592 -1.51789 1.32827 0
M  V30 504 C 45.905 -1.95426 -0.0823719 0
M  V30 505 O 47.111 -2.70298 -0.255172 0
M  V30 506 C 45.567 -2.74133 2.33193 0
M  V30 507 C 45.175 -2.37562 3.79827 0
M  V30 508 C 46.919 -3.52054 2.37188 0
M  V30 509 C 44.826 -3.56456 4.71904 0
M  V30 510 H 43.756 -0.569896 0.493695 0
M  V30 511 H 46.407 -0.835822 1.63359 0
M  V30 512 H 44.789 -3.4427 1.9569 0
M  V30 513 H 45.963 -1.75157 4.26212 0
M  V30 514 H 44.278 -1.72798 3.78853 0
M  V30 515 H 46.875 -4.40437 3.03182 0
M  V30 516 H 47.218 -3.92486 1.38782 0
M  V30 517 H 47.751 -2.88921 2.7344 0
M  V30 518 H 44.49 -3.21099 5.71468 0
M  V30 519 H 44.01 -4.17938 4.30218 0
M  V30 520 H 45.689 -4.23168 4.89426 0
M  V30 521 N 45.8211 -1.22559 -0.990812 0
M  V30 522 C 47.0461 -1.07862 -1.77145 0
M  V30 523 C 47.4711 0.366447 -1.84496 0
M  V30 524 O 46.8291 1.26478 -1.29896 0
M  V30 525 C 46.8771 -1.69686 -3.18181 0
M  V30 526 O 45.9811 -0.951946 -4.01263 0
M  V30 527 H 45.3221 -0.378712 -0.545411 0
M  V30 528 H 47.8521 -1.62399 -1.2445 0
M  V30 529 H 47.8621 -1.74496 -3.68802 0
M  V30 530 H 46.5371 -2.74841 -3.12146 0
M  V30 531 H 45.1141 -0.980011 -3.59792 0
M  V30 532 N 47.2992 1.18797 -1.03562 0
M  V30 533 C 48.2462 2.22253 -0.622259 0
M  V30 534 C 49.2162 1.61987 0.36736 0
M  V30 535 O 50.4012 1.88986 0.262492 0
M  V30 536 C 47.5412 3.45097 0.0138462 0
M  V30 537 C 46.6542 4.19722 -1.02263 0
M  V30 538 C 45.7892 5.30009 -0.355573 0
M  V30 539 C 44.8282 5.96399 -1.37749 0
M  V30 540 N 43.9652 6.98234 -0.735766 0
M  V30 541 H 48.8052 2.56968 -1.50903 0
M  V30 542 H 46.3422 1.26245 -0.755017 0
M  V30 543 H 48.3002 4.15279 0.399948 0
M  V30 544 H 46.9302 3.11018 0.864158 0
M  V30 545 H 45.9822 3.48418 -1.52673 0
M  V30 546 H 47.2942 4.65227 -1.79903 0
M  V30 547 H 46.4482 6.0664 0.0850095 0
M  V30 548 H 45.1872 4.85592 0.452967 0
M  V30 549 H 44.1922 5.18512 -1.82826 0
M  V30 550 H 45.4172 6.42899 -2.18764 0
M  V30 551 H 43.3632 6.55979 0.0525597 0
M  V30 552 H 43.2802 7.41965 -1.44995 0
M  V30 553 H 44.5482 7.78845 -0.31941 0
M  V30 554 N 48.7773 0.814389 1.34928 0
M  V30 555 C 50.1933 0.499084 1.51596 0
M  V30 556 C 50.3933 -0.978319 1.76157 0
M  V30 557 O 49.4493 -1.76309 1.80752 0
M  V30 558 C 50.7623 1.35121 2.68631 0
M  V30 559 C 52.3103 1.34746 2.82511 0
M  V30 560 C 52.7853 2.18388 4.0258 0
M  V30 561 N 54.2763 2.15966 4.09772 0
M  V30 562 C 55.0113 2.77437 5.01813 0
M  V30 563 N 54.5073 3.47866 5.99134 0
M  V30 564 N 56.3003 2.67037 4.94619 0
M  V30 565 H 48.4513 1.7711 1.17243 0
M  V30 566 H 50.7143 0.754256 0.574284 0
M  V30 567 H 50.4203 2.40001 2.57085 0
M  V30 568 H 50.2943 1.00991 3.63429 0
M  V30 569 H 52.6813 0.30648 2.93504 0
M  V30 570 H 52.7623 1.72869 1.88547 0
M  V30 571 H 52.4063 3.2253 3.92347 0
M  V30 572 H 52.3363 1.77621 4.9574 0
M  V30 573 H 54.8273 1.64729 3.40107 0
M  V30 574 H 55.1403 3.92038 6.65977 0
M  V30 575 H 53.4853 3.51972 5.99284 0
M  V30 576 H 56.6763 2.11597 4.17546 0
M  V30 577 H 56.8493 3.15232 5.66156 0
M  V30 578 N 50.2554 -1.46986 0.568584 0
M  V30 579 C 51.4834 -2.0683 0.0539956 0
M  V30 580 C 51.8984 -1.41953 -1.24478 0
M  V30 581 O 51.2554 -0.519933 -1.74937 0
M  V30 582 C 51.3064 -3.61254 -0.133362 0
M  V30 583 O 51.0274 -4.237 1.11399 0
M  V30 584 C 52.5284 -4.37992 -0.683927 0
M  V30 585 H 49.7484 -0.669058 0.0510141 0
M  V30 586 H 52.2924 -1.88824 0.785234 0
M  V30 587 H 50.4474 -3.78735 -0.81477 0
M  V30 588 H 50.8614 -5.16388 0.91888 0
M  V30 589 H 52.3354 -5.46684 -0.764263 0
M  V30 590 H 52.8124 -4.05058 -1.69778 0
M  V30 591 H 53.4184 -4.25283 -0.0378494 0
M  V30 592 N 51.7335 -0.305618 -1.54608 0
M  V30 593 C 52.6655 0.602161 -2.21149 0
M  V30 594 C 53.6785 1.09394 -1.20569 0
M  V30 595 O 54.8675 1.0106 -1.47136 0
M  V30 596 C 51.9675 1.83692 -2.84799 0
M  V30 597 C 51.1405 1.48686 -4.11353 0
M  V30 598 C 50.1995 2.57725 -4.58764 0
M  V30 599 O 49.2255 2.22623 -5.23858 0
M  V30 600 N 50.4275 3.88346 -4.31471 0
M  V30 601 H 53.1925 0.0324966 -2.99682 0
M  V30 602 H 50.7535 -0.128021 -1.61393 0
M  V30 603 H 52.7455 2.55994 -3.13448 0
M  V30 604 H 51.3155 2.31486 -2.10078 0
M  V30 605 H 50.5355 0.596269 -3.89664 0
M  V30 606 H 51.8235 1.22842 -4.93748 0
M  V30 607 H 51.2215 4.19671 -3.79331 0
M  V30 608 H 49.7785 4.56932 -4.64818 0
M  V30 609 N 53.2116 1.57565 -0.0334293 0
M  V30 610 C 54.6226 1.79746 0.504798 0
M  V30 611 C 54.9736 0.944091 1.71992 0
M  V30 612 O 54.0986 0.155694 2.15839 0
M  V30 613 C 54.6936 3.25997 0.922567 0
M  V30 614 C 53.2526 3.49159 1.40588 0
M  V30 615 C 52.3996 2.74785 0.372633 0
M  V30 616 H 55.3506 1.56565 -0.259436 0
M  V30 617 H 55.3716 3.35945 1.78666 0
M  V30 618 H 54.8836 3.88081 0.0379825 0
M  V30 619 H 52.9846 2.92332 2.31025 0
M  V30 620 H 53.0976 4.57873 1.41028 0
M  V30 621 H 51.4616 2.40391 0.841672 0
M  V30 622 H 52.2446 3.39587 -0.503559 0
M  V30 623 N 54.6897 -0.239769 1.55765 0
M  V30 624 C 56.1007 -0.808263 1.68297 0
M  V30 625 C 56.4517 -1.85736 0.632181 0
M  V30 626 O 55.5767 -2.15277 -0.220204 0
M  V30 627 C 56.1717 -1.47284 3.05111 0
M  V30 628 C 54.7307 -1.98895 3.19559 0
M  V30 629 C 53.8777 -0.842575 2.64189 0
M  V30 630 H 56.8287 -0.0154422 1.58692 0
M  V30 631 H 56.8497 -2.34111 2.99954 0
M  V30 632 H 56.3617 -0.709053 3.81568 0
M  V30 633 H 54.4627 -2.78132 2.47938 0
M  V30 634 H 54.5757 -2.18143 4.26556 0
M  V30 635 H 52.9397 -1.24501 2.22197 0
M  V30 636 H 53.7227 -0.0917552 3.43177 0
M  V30 637 N 56.1678 -1.49265 -0.50573 0
M  V30 638 C 57.5788 -1.51769 -1.08734 0
M  V30 639 C 57.9298 -0.301192 -1.93874 0
M  V30 640 O 57.0548 0.589456 -2.08217 0
M  V30 641 C 57.6498 -2.75017 -1.97867 0
M  V30 642 C 56.2088 -2.80314 -2.51199 0
M  V30 643 C 55.3558 -2.4562 -1.28709 0
M  V30 644 H 58.3068 -1.56031 -0.289855 0
M  V30 645 H 58.3278 -2.5491 -2.82491 0
M  V30 646 H 57.8398 -3.63539 -1.35873 0
M  V30 647 H 55.9408 -1.96061 -3.16845 0
M  V30 648 H 56.0538 -3.82366 -2.88675 0
M  V30 649 H 54.4178 -1.97297 -1.61078 0
M  V30 650 H 55.2008 -3.36411 -0.6843 0
M  V30 651 N 57.6459 0.756429 -1.3826 0
M  V30 652 C 58.5929 1.87011 -1.35261 0
M  V30 653 C 59.5629 1.64695 -0.215616 0
M  V30 654 O 60.7479 1.864 -0.407399 0
M  V30 655 C 57.8879 3.24275 -1.18068 0
M  V30 656 C 57.0009 3.58442 -2.41129 0
M  V30 657 C 56.1359 4.84994 -2.16689 0
M  V30 658 C 55.1749 5.11939 -3.35537 0
M  V30 659 N 54.3119 6.29685 -3.10549 0
M  V30 660 H 59.1519 1.8891 -2.30472 0
M  V30 661 H 56.6889 0.923373 -1.14509 0
M  V30 662 H 58.6469 4.03479 -1.06116 0
M  V30 663 H 57.2769 3.21711 -0.264973 0
M  V30 664 H 56.3289 2.74103 -2.63764 0
M  V30 665 H 57.6409 3.74283 -3.29717 0
M  V30 666 H 56.7949 5.72135 -2.01857 0
M  V30 667 H 55.5339 4.71286 -1.25462 0
M  V30 668 H 54.5389 4.23268 -3.50891 0
M  V30 669 H 55.7639 5.27546 -4.27635 0
M  V30 670 H 53.7099 6.17306 -2.21967 0
M  V30 671 H 53.6269 6.46014 -3.92686 0
M  V30 672 H 54.8949 7.19722 -2.99367 0
M  V30 673 N 59.124 1.23083 0.984299 0
M  V30 674 C 60.054 1.03292 2.09411 0
M  V30 675 C 61.035 -0.048923 1.7003 0
M  V30 676 O 62.22 0.114967 1.93859 0
M  V30 677 C 59.35 0.619155 3.41736 0
M  V30 678 C 58.304 1.64791 3.95004 0
M  V30 679 C 57.63 1.0897 5.23478 0
M  V30 680 C 58.93 3.03999 4.24714 0
M  V30 681 H 60.624 1.96119 2.26225 0
M  V30 682 H 58.17 0.944344 1.08711 0
M  V30 683 H 60.123 0.467777 4.18796 0
M  V30 684 H 58.847 -0.344786 3.24775 0
M  V30 685 H 57.506 1.78721 3.20085 0
M  V30 686 H 57.154 0.11686 5.02864 0
M  V30 687 H 56.854 1.77704 5.60085 0
M  V30 688 H 58.378 0.950093 6.03163 0
M  V30 689 H 59.792 2.93393 4.92538 0
M  V30 690 H 58.189 3.69936 4.72512 0
M  V30 691 H 59.259 3.53285 3.32142 0
M  V30 692 N 60.6021 -1.18246 1.0419 0
M  V30 693 C 62.0131 -1.69914 0.773698 0
M  V30 694 C 62.3641 -1.83085 -0.705297 0
M  V30 695 O 61.4891 -1.51123 -1.5489 0
M  V30 696 C 62.0841 -3.08619 1.39784 0
M  V30 697 C 60.6431 -3.57494 1.17792 0
M  V30 698 C 59.7901 -2.34013 1.48773 0
M  V30 699 H 62.7411 -1.02904 1.20816 0
M  V30 700 H 62.7621 -3.71958 0.801714 0
M  V30 701 H 62.2741 -2.99001 2.47426 0
M  V30 702 H 60.3751 -3.72406 0.120295 0
M  V30 703 H 60.4881 -4.40852 1.87581 0
M  V30 704 H 58.8521 -2.37986 0.907463 0
M  V30 705 H 59.6351 -2.27013 2.57527 0
M  V30 706 N 62.0802 -0.821533 -1.34494 0
M  V30 707 C 63.3262 -0.409552 -1.98622 0
M  V30 708 C 63.6592 1.0244 -1.64984 0
M  V30 709 O 62.9342 1.71325 -0.920758 0
M  V30 710 C 63.2172 -0.610458 -3.54888 0
M  V30 711 C 63.0702 -2.09043 -3.98273 0
M  V30 712 C 64.3892 -0.0455379 -4.40076 0
M  V30 713 H 61.5082 -0.15028 -0.721516 0
M  V30 714 H 64.1502 -1.03384 -1.59411 0
M  V30 715 H 62.3002 -0.079044 -3.8842 0
M  V30 716 H 63.9722 -2.68537 -3.75081 0
M  V30 717 H 62.2152 -2.58139 -3.48635 0
M  V30 718 H 62.8862 -2.18182 -5.07051 0
M  V30 719 H 65.3622 -0.499557 -4.1309 0
M  V30 720 H 64.2382 -0.215922 -5.48475 0
M  V30 721 H 64.4992 1.04939 -4.29465 0
M  V30 722 N 63.5583 1.46682 -0.576371 0
M  V30 723 C 64.8063 2.02013 -0.0594163 0
M  V30 724 C 65.1273 1.45101 1.30271 0
M  V30 725 O 64.3973 0.633317 1.8538 0
M  V30 726 H 62.9773 0.746759 -0.0189745 0
M  V30 727 H 65.6393 1.79862 -0.750717 0
M  V30 728 H 64.7353 3.12097 0.014345 0
M  V30 729 N 65.0364 0.313813 1.54444 0
M  V30 730 C 66.4474 -0.176243 1.85866 0
M  V30 731 C 66.7984 -1.52405 1.23561 0
M  V30 732 O 65.9234 -2.09605 0.538016 0
M  V30 733 C 66.5184 -0.32657 3.37222 0
M  V30 734 C 65.0774 -0.760846 3.6863 0
M  V30 735 C 64.2244 0.123247 2.77026 0
M  V30 736 H 67.1754 0.534418 1.49431 0
M  V30 737 H 67.1964 -1.15908 3.62416 0
M  V30 738 H 66.7084 0.654531 3.82541 0
M  V30 739 H 64.8094 -1.75204 3.28838 0
M  V30 740 H 64.9224 -0.571353 4.75681 0
M  V30 741 H 63.2864 -0.399597 2.51546 0
M  V30 742 H 64.0694 1.10094 3.25168 0
M  V30 743 N 66.5145 -1.57545 0.0417849 0
M  V30 744 C 67.7395 -1.97035 -0.647455 0
M  V30 745 C 68.1645 -0.918775 -1.64135 0
M  V30 746 O 67.5225 0.119006 -1.80909 0
M  V30 747 C 67.5705 -3.35609 -1.31905 0
M  V30 748 O 66.6745 -3.3287 -2.43457 0
M  V30 749 H 66.0155 -0.64211 -0.169086 0
M  V30 750 H 68.5455 -2.04318 0.107399 0
M  V30 751 H 68.5555 -3.72126 -1.67291 0
M  V30 752 H 67.2305 -4.11685 -0.590586 0
M  V30 753 H 65.8075 -3.08087 -2.10088 0
M  V30 754 N 67.9926 0.231505 -1.5589 0
M  V30 755 C 68.9426 1.29007 -1.87993 0
M  V30 756 C 69.9266 1.42764 -0.742102 0
M  V30 757 O 71.1186 1.45747 -1.00433 0
M  V30 758 C 68.2476 2.6425 -2.1915 0
M  V30 759 C 67.3336 2.54435 -3.39299 0
M  V30 760 N 67.7246 2.14262 -4.58176 0
M  V30 761 C 66.0226 2.85416 -3.42715 0
M  V30 762 C 66.7236 2.15455 -5.40328 0
M  V30 763 N 65.6996 2.55558 -4.79783 0
M  V30 764 H 69.5016 0.970213 -2.77424 0
M  V30 765 H 67.0156 0.440097 -1.56323 0
M  V30 766 H 69.0126 3.40665 -2.40319 0
M  V30 767 H 67.6726 2.9709 -1.31025 0
M  V30 768 H 68.6836 1.85554 -4.83518 0
M  V30 769 H 65.3606 3.22693 -2.64906 0
M  V30 770 H 66.7506 1.86605 -6.45467 0
M  V30 771 N 69.4707 1.49531 0.497807 0
M  V30 772 C 70.4177 1.66436 1.59899 0
M  V30 773 C 71.3877 0.505793 1.58212 0
M  V30 774 O 72.5727 0.733202 1.7615 0
M  V30 775 C 69.7127 1.7399 2.98029 0
M  V30 776 C 68.8257 3.01172 3.09708 0
M  V30 777 C 67.9607 2.99686 4.38591 0
M  V30 778 C 66.9997 4.21434 4.43914 0
M  V30 779 N 66.1367 4.1784 5.64229 0
M  V30 780 H 70.9767 2.60459 1.44793 0
M  V30 781 H 68.5137 1.29137 0.704423 0
M  V30 782 H 70.4717 1.76352 3.78095 0
M  V30 783 H 69.1017 0.834301 3.11832 0
M  V30 784 H 68.1537 3.08408 2.22685 0
M  V30 785 H 69.4657 3.91165 3.09502 0
M  V30 786 H 68.6197 3.00628 5.2698 0
M  V30 787 H 67.3587 2.07477 4.41367 0
M  V30 788 H 66.3637 4.20733 3.53926 0
M  V30 789 H 67.5887 5.14839 4.42851 0
M  V30 790 H 65.5347 3.28469 5.67841 0
M  V30 791 H 65.4517 5.01571 5.65652 0
M  V30 792 H 66.7197 4.22889 6.54817 0
M  V30 793 N 70.9488 -0.749086 1.3866 0
M  V30 794 C 71.8788 -1.8764 1.38973 0
M  V30 795 C 72.8598 -1.68178 0.255004 0
M  V30 796 O 74.0448 -1.88704 0.458754 0
M  V30 797 C 71.1748 -3.25222 1.21851 0
M  V30 798 C 70.1288 -3.59295 2.32575 0
M  V30 799 C 69.4548 -4.95663 2.00555 0
M  V30 800 C 70.7548 -3.63709 3.7485 0
M  V30 801 H 72.4488 -1.87635 2.3331 0
M  V30 802 H 69.9948 -0.901329 1.12303 0
M  V30 803 H 71.9478 -4.03746 1.20695 0
M  V30 804 H 70.6718 -3.25719 0.239775 0
M  V30 805 H 69.3308 -2.83093 2.32925 0
M  V30 806 H 68.9788 -4.92724 1.01154 0
M  V30 807 H 68.6788 -5.19429 2.74714 0
M  V30 808 H 70.2028 -5.7656 2.01024 0
M  V30 809 H 71.6168 -4.32338 3.76506 0
M  V30 810 H 70.0138 -3.98986 4.48252 0
M  V30 811 H 71.0838 -2.63834 4.06841 0
M  V30 812 N 72.4269 -1.23603 -0.977757 0
M  V30 813 C 73.6519 -1.09735 -1.75991 0
M  V30 814 C 74.0769 0.346858 -1.84874 0
M  V30 815 O 73.4349 1.25093 -1.3123 0
M  V30 816 C 73.4829 -1.73051 -3.16363 0
M  V30 817 O 72.5869 -0.994452 -4.0023 0
M  V30 818 H 71.9279 -0.384476 -0.541364 0
M  V30 819 H 74.4579 -1.6371 -1.2272 0
M  V30 820 H 74.4679 -1.78398 -3.66931 0
M  V30 821 H 73.1429 -2.78137 -3.09213 0
M  V30 822 H 71.7199 -1.01812 -3.58732 0
M  V30 823 N 73.905 1.17692 -1.04816 0
M  V30 824 C 74.853 2.23632 -0.63966 0
M  V30 825 C 75.847 1.6601 0.337219 0
M  V30 826 O 77.053 1.78844 0.203693 0
M  V30 827 H 73.428 0.727949 -0.188665 0
M  V30 828 H 75.399 2.55387 -1.54337 0
M  V30 829 C 74.148 3.4769 -0.0264051 0
M  V30 830 H 73.471 3.92331 -0.769164 0
M  V30 831 H 74.911 4.23418 0.222098 0
M  V30 832 C 73.37 3.13807 1.22584 0
M  V30 833 O 73.9 3.28236 2.31569 0
M  V30 834 N 72.106 2.68065 1.12202 0
M  V30 835 H 71.653 2.56525 0.235133 0
M  V30 836 H 71.611 2.45767 1.96076 0
M  V30 837 N 75.3831 0.828654 1.34056 0
M  V30 838 C 76.3311 0.242973 2.31327 0
M  V30 839 C 77.3251 -0.61944 1.57668 0
M  V30 840 O 78.5311 -0.51014 1.7262 0
M  V30 841 H 74.9061 0.059834 0.749616 0
M  V30 842 H 76.8771 1.07809 2.78244 0
M  V30 843 C 75.6261 -0.575733 3.429 0
M  V30 844 H 74.9491 0.0785582 3.99723 0
M  V30 845 H 76.3891 -0.951547 4.13185 0
M  V30 846 C 74.8481 -1.75044 2.87856 0
M  V30 847 O 75.3781 -2.84882 2.83205 0
M  V30 848 N 73.5841 -1.56903 2.44602 0
M  V30 849 H 73.1311 -0.675547 2.48584 0
M  V30 850 H 73.0891 -2.35652 2.08124 0
M  V30 851 N 76.8612 -1.46375 0.584142 0
M  V30 852 C 78.0912 -2.06461 0.0758195 0
M  V30 853 C 78.4992 -1.43322 -1.23512 0
M  V30 854 O 77.8422 -0.533216 -1.75791 0
M  V30 855 C 77.9042 -3.59131 -0.162773 0
M  V30 856 C 77.5682 -4.4447 1.06279 0
M  V30 857 C 78.5652 -4.80918 1.97519 0
M  V30 858 C 76.2502 -4.85584 1.28504 0
M  V30 859 C 78.2442 -5.57309 3.09331 0
M  V30 860 C 75.9312 -5.61734 2.4062 0
M  V30 861 C 76.9292 -5.9751 3.30863 0
M  V30 862 O 76.6172 -6.72121 4.41032 0
M  V30 863 H 76.3492 -0.673745 0.0551725 0
M  V30 864 H 78.9032 -1.88969 0.804984 0
M  V30 865 H 77.1332 -3.74936 -0.946565 0
M  V30 866 H 78.8222 -4.0114 -0.619782 0
M  V30 867 H 79.5882 -4.49732 1.81565 0
M  V30 868 H 75.4672 -4.57187 0.591702 0
M  V30 869 H 79.0112 -5.85152 3.79793 0
M  V30 870 H 74.9082 -5.92334 2.56537 0
M  V30 871 H 75.6762 -6.90547 4.39417 0
M  V30 872 N 78.3393 -0.321999 -1.54275 0
M  V30 873 C 79.5693 0.282642 -2.04658 0
M  V30 874 C 79.9773 1.46453 -1.19784 0
M  V30 875 O 79.3203 1.82367 -0.220932 0
M  V30 876 C 79.3823 0.781857 -3.50895 0
M  V30 877 C 79.0463 -0.277517 -4.56157 0
M  V30 878 C 80.0433 -1.11307 -5.07845 0
M  V30 879 C 77.7283 -0.425256 -5.00497 0
M  V30 880 C 79.7223 -2.08211 -6.02434 0
M  V30 881 C 77.4093 -1.39771 -5.94901 0
M  V30 882 C 78.4073 -2.2246 -6.45756 0
M  V30 883 O 78.0953 -3.18054 -7.38307 0
M  V30 884 H 77.8273 0.0622636 -0.673126 0
M  V30 885 H 80.3813 -0.465792 -2.00049 0
M  V30 886 H 78.6113 1.58118 -3.52896 0
M  V30 887 H 80.3003 1.30467 -3.84361 0
M  V30 888 H 81.0663 -1.00991 -4.74369 0
M  V30 889 H 76.9453 0.20847 -4.60528 0
M  V30 890 H 80.4893 -2.72791 -6.42052 0
M  V30 891 H 76.3863 -1.50152 -6.27794 0
M  V30 892 H 77.1543 -3.13275 -7.56175 0
M  V30 893 N 79.8174 1.5752 -0.0501392 0
M  V30 894 C 81.0574 1.94521 0.627783 0
M  V30 895 C 81.4214 0.928265 1.68069 0
M  V30 896 O 82.6224 1.18517 2.41261 0
M  V30 897 C 80.8934 3.36319 1.20932 0
M  V30 898 S 82.4524 3.95272 1.90539 0
M  V30 899 H 79.2704 0.680456 0.206158 0
M  V30 900 H 81.8724 1.95139 -0.118829 0
M  V30 901 H 80.5764 4.08132 0.430865 0
M  V30 902 H 80.1074 3.39193 1.99277 0
M  V30 903 H 82.1224 3.80415 3.18589 0
M  V30 904 N 81.2955 -0.223234 1.56011 0
M  V30 905 C 82.5235 -0.964812 1.83027 0
M  V30 906 C 82.9385 -1.78013 0.62904 0
M  V30 907 O 82.2955 -1.78008 -0.402414 0
M  V30 908 C 82.3465 -1.88373 3.08542 0
M  V30 909 O 82.0675 -1.10137 4.2403 0
M  V30 910 C 83.5685 -2.73934 3.48533 0
M  V30 911 H 80.7885 -0.282842 0.608475 0
M  V30 912 H 83.3325 -0.238971 2.03099 0
M  V30 913 H 81.4875 -2.56354 2.9045 0
M  V30 914 H 81.9015 -1.72501 4.95322 0
M  V30 915 H 83.3755 -3.34117 4.39397 0
M  V30 916 H 83.8525 -3.46244 2.70207 0
M  V30 917 H 84.4585 -2.11369 3.69057 0
M  V30 918 N 82.7736 -1.49793 -0.48987 0
M  V30 919 C 84.1896 -1.36803 -0.822022 0
M  V30 920 C 84.3896 -0.409652 -1.97292 0
M  V30 921 O 83.4456 0.154614 -2.52026 0
M  V30 922 C 84.7586 -2.77768 -1.15175 0
M  V30 923 C 86.3066 -2.86549 -1.25931 0
M  V30 924 C 86.7816 -4.28306 -1.62228 0
M  V30 925 N 88.2726 -4.31169 -1.69256 0
M  V30 926 C 89.0076 -5.37832 -1.98807 0
M  V30 927 N 88.5036 -6.54726 -2.26507 0
M  V30 928 N 90.2966 -5.25258 -2.00152 0
M  V30 929 H 82.4476 -2.10691 0.268881 0
M  V30 930 H 84.7106 -0.946241 0.057728 0
M  V30 931 H 84.4166 -3.49648 -0.379335 0
M  V30 932 H 84.2906 -3.13836 -2.09253 0
M  V30 933 H 86.6776 -2.14899 -2.02243 0
M  V30 934 H 86.7586 -2.54049 -0.298776 0
M  V30 935 H 86.4026 -5.00486 -0.864622 0
M  V30 936 H 86.3326 -4.58279 -2.594 0
M  V30 937 H 88.8236 -3.4687 -1.49965 0
M  V30 938 H 89.1366 -7.31833 -2.48276 0
M  V30 939 H 87.4816 -6.57933 -2.23939 0
M  V30 940 H 90.6726 -4.32938 -1.77996 0
M  V30 941 H 90.8456 -6.08476 -2.22848 0
M  V30 942 N 84.2517 0.741722 -1.39055 0
M  V30 943 C 85.5287 1.49252 -1.26425 0
M  V30 944 C 85.9087 2.10705 0.129144 0
M  V30 945 O 85.2567 1.98045 1.13976 0
M  V30 946 C 85.4667 2.54934 -2.38347 0
M  V30 947 C 86.8147 3.21506 -2.77343 0
M  V30 948 O 87.8387 2.65245 -2.37747 0
M  V30 949 O 86.6977 4.23294 -3.45665 0
M  V30 950 H 83.7917 0.662451 -0.495064 0
M  V30 951 H 86.3377 0.776121 -1.50912 0
M  V30 952 H 85.1097 2.07857 -3.31529 0
M  V30 953 H 84.7327 3.34141 -2.15489 0
M  V30 954 N 85.7298 1.2412 0.971189 0
M  V30 955 C 86.9778 1.07668 1.71032 0
M  V30 956 C 87.2988 -0.385797 1.91146 0
M  V30 957 O 86.5688 -1.27569 1.4867 0
M  V30 958 H 85.1488 0.395429 0.633755 0
M  V30 959 H 87.8108 1.55984 1.16855 0
M  V30 960 H 86.9068 1.57195 2.69622 0
M  V30 961 N 87.2079 -1.17134 1.05439 0
M  V30 962 C 88.6239 -1.39454 0.776201 0
M  V30 963 C 88.8239 -1.91454 -0.628307 0
M  V30 964 O 87.8799 -2.10777 -1.39031 0
M  V30 965 C 89.1929 -2.38305 1.83388 0
M  V30 966 C 90.7409 -2.52006 1.85639 0
M  V30 967 C 91.2159 -3.54133 2.90437 0
M  V30 968 N 92.7069 -3.61653 2.89415 0
M  V30 969 C 93.4419 -4.4044 3.67152 0
M  V30 970 N 92.9379 -5.22721 4.54681 0
M  V30 971 N 94.7309 -4.35337 3.55581 0
M  V30 972 H 86.8819 -0.817134 1.96053 0
M  V30 973 H 89.1449 -0.421626 0.849079 0
M  V30 974 H 88.8509 -2.07173 2.84204 0
M  V30 975 H 88.7249 -3.37841 1.67761 0
M  V30 976 H 91.1119 -2.82447 0.85486 0
M  V30 977 H 91.1929 -1.52537 2.05344 0
M  V30 978 H 90.8369 -3.24431 3.90777 0
M  V30 979 H 90.7669 -4.53313 2.67983 0
M  V30 980 H 93.2579 -3.02909 2.25952 0
M  V30 981 H 93.5709 -5.80027 5.10674 0
M  V30 982 H 91.9159 -5.22093 4.58741 0
M  V30 983 H 95.1069 -3.70112 2.86592 0
M  V30 984 H 95.2799 -4.96494 4.1641 0
M  V30 985 N 88.686 -0.835752 -1.33615 0
M  V30 986 C 90.102 -0.523139 -1.50783 0
M  V30 987 C 90.302 0.950171 -1.77691 0
M  V30 988 O 89.358 1.73411 -1.83534 0
M  V30 989 C 90.671 -1.39378 -2.66448 0
M  V30 990 C 92.219 -1.39223 -2.80332 0
M  V30 991 C 92.694 -2.24765 -3.99055 0
M  V30 992 N 94.185 -2.22458 -4.06284 0
M  V30 993 C 94.92 -2.85386 -4.97336 0
M  V30 994 N 94.416 -3.57354 -5.93523 0
M  V30 995 N 96.209 -2.74872 -4.90308 0
M  V30 996 H 88.36 -1.78952 -1.14411 0
M  V30 997 H 90.623 -0.763297 -0.562212 0
M  V30 998 H 90.329 -2.44061 -2.53234 0
M  V30 999 H 90.203 -1.0676 -3.61776 0
M  V30 1000 H 92.59 -0.353136 -2.92979 0
M  V30 1001 H 92.671 -1.75846 -1.85773 0
M  V30 1002 H 92.315 -3.28732 -3.87167 0
M  V30 1003 H 92.245 -1.85485 -4.92852 0
M  V30 1004 H 94.736 -1.70119 -3.37443 0
M  V30 1005 H 95.049 -4.02584 -6.59656 0
M  V30 1006 H 93.394 -3.61461 -5.93608 0
M  V30 1007 H 96.585 -2.18213 -4.14126 0
M  V30 1008 H 96.758 -3.24199 -5.61069 0
M  V30 1009 N 90.1641 1.46063 -0.591896 0
M  V30 1010 C 91.0741 2.34192 0.13831 0
M  V30 1011 C 92.0901 1.50305 0.876608 0
M  V30 1012 O 93.2661 1.8315 0.837728 0
M  V30 1013 C 90.3311 3.27656 1.13326 0
M  V30 1014 C 89.3921 4.27445 0.39863 0
M  V30 1015 C 88.6251 5.16443 1.34618 0
M  V30 1016 O 88.8481 5.08553 2.58321 0
M  V30 1017 O 87.7821 5.95843 0.851768 0
M  V30 1018 H 91.6081 2.98002 -0.58552 0
M  V30 1019 H 89.1931 1.45188 -0.352239 0
M  V30 1020 H 91.0751 3.85291 1.70671 0
M  V30 1021 H 89.7501 2.6643 1.83839 0
M  V30 1022 H 88.6571 3.73471 -0.216895 0
M  V30 1023 H 89.9901 4.91482 -0.265709 0
M  V30 1024 N 91.6422 0.330177 1.54103 0
M  V30 1025 C 92.8672 -0.274893 2.0557 0
M  V30 1026 C 93.2922 -1.44487 1.20437 0
M  V30 1027 O 92.6502 -1.80021 0.214991 0
M  V30 1028 C 92.6982 -0.68079 3.54115 0
M  V30 1029 O 91.8022 -1.7824 3.71893 0
M  V30 1030 H 91.1432 -0.0483849 0.662235 0
M  V30 1031 H 93.6732 0.480508 1.98878 0
M  V30 1032 H 93.6832 -0.961635 3.96505 0
M  V30 1033 H 92.3582 0.174903 4.15532 0
M  V30 1034 H 90.9352 -1.49985 3.41407 0
M  V30 1035 N 93.1203 -1.57491 0.0584922 0
M  V30 1036 C 94.3663 -1.93264 -0.614558 0
M  V30 1037 C 94.6993 -0.937717 -1.7006 0
M  V30 1038 O 93.9743 0.0351652 -1.94468 0
M  V30 1039 C 94.2573 -3.3938 -1.20386 0
M  V30 1040 C 94.1103 -4.49625 -0.125375 0
M  V30 1041 C 95.4293 -3.86039 -2.11334 0
M  V30 1042 H 92.5483 -0.702791 -0.221933 0
M  V30 1043 H 95.1903 -1.8961 0.12175 0
M  V30 1044 H 93.3403 -3.42626 -1.83139 0
M  V30 1045 H 95.0123 -4.58506 0.506971 0
M  V30 1046 H 93.2553 -4.30354 0.545672 0
M  V30 1047 H 93.9263 -5.48967 -0.577861 0
M  V30 1048 H 96.4023 -3.84716 -1.58534 0
M  V30 1049 H 95.2783 -4.88914 -2.49507 0
M  V30 1050 H 95.5393 -3.23215 -3.01636 0
M  V30 1051 N 94.5984 0.214957 -1.56127 0
M  V30 1052 C 96.0094 0.781386 -1.69562 0
M  V30 1053 C 96.3604 1.84707 -0.66165 0
M  V30 1054 O 95.4854 2.156 0.185927 0
M  V30 1055 C 96.0804 1.42411 -3.07416 0
M  V30 1056 C 94.6394 1.93786 -3.22683 0
M  V30 1057 C 93.7864 0.800438 -2.65496 0
M  V30 1058 H 96.7374 -0.00980633 -1.58697 0
M  V30 1059 H 96.7584 2.29309 -3.0364 0
M  V30 1060 H 96.2704 0.64826 -3.82648 0
M  V30 1061 H 94.3714 2.74152 -2.52332 0
M  V30 1062 H 94.4844 2.1133 -4.29973 0
M  V30 1063 H 92.8484 1.2095 -2.2415 0
M  V30 1064 H 93.6314 0.0371471 -3.4328 0
M  V30 1065 N 96.0765 1.50051 0.48192 0
M  V30 1066 C 97.4875 1.5348 1.06305 0
M  V30 1067 C 97.8385 0.331997 1.93371 0
M  V30 1068 O 96.9635 -0.556256 2.09129 0
M  V30 1069 C 97.5585 2.7813 1.93466 0
M  V30 1070 C 96.1175 2.84275 2.46707 0
M  V30 1071 C 95.2645 2.47637 1.24785 0
M  V30 1072 H 98.2155 1.56472 0.264995 0
M  V30 1073 H 98.2365 2.59372 2.78399 0
M  V30 1074 H 97.7485 3.65654 1.30072 0
M  V30 1075 H 95.8495 2.01077 3.13686 0
M  V30 1076 H 95.9625 3.8691 2.82555 0
M  V30 1077 H 94.3265 1.99835 1.57918 0
M  V30 1078 H 95.1095 3.37457 0.630694 0
M  V30 1079 N 97.5546 -0.734337 1.39446 0
M  V30 1080 C 98.7796 -1.52866 1.40167 0
M  V30 1081 C 99.2046 -1.881 -0.00171513 0
M  V30 1082 O 98.5626 -1.51957 -0.988879 0
M  V30 1083 C 98.6106 -2.79235 2.28167 0
M  V30 1084 O 97.7146 -3.75185 1.71201 0
M  V30 1085 H 97.0556 -0.461618 0.477289 0
M  V30 1086 H 99.5856 -0.905949 1.8345 0
M  V30 1087 H 99.5956 -3.27963 2.42702 0
M  V30 1088 H 98.2706 -2.52923 3.30156 0
M  V30 1089 H 96.8476 -3.33958 1.65912 0
M  V30 1090 N 99.0327 -1.24633 -0.964593 0
M  V30 1091 C 100.282 -1.08188 -1.7023 0
M  V30 1092 C 100.595 0.37873 -1.91898 0
M  V30 1093 O 101.801 0.663427 -2.6327 0
M  V30 1094 C 100.257 -1.88773 -3.06419 0
M  V30 1095 C 99.8647 -3.39263 -2.92582 0
M  V30 1096 C 101.609 -1.80867 -3.84041 0
M  V30 1097 C 99.5157 -4.1218 -4.24101 0
M  V30 1098 H 98.4457 -0.401245 -0.638372 0
M  V30 1099 H 101.097 -1.48742 -1.07462 0
M  V30 1100 H 99.4787 -1.41035 -3.70034 0
M  V30 1101 H 100.653 -3.94603 -2.37961 0
M  V30 1102 H 98.9677 -3.48154 -2.28424 0
M  V30 1103 H 101.565 -2.32646 -4.81435 0
M  V30 1104 H 101.908 -0.774543 -4.09031 0
M  V30 1105 H 102.441 -2.26301 -3.27159 0
M  V30 1106 H 99.1797 -5.15965 -4.04303 0
M  V30 1107 H 98.6997 -3.61626 -4.78526 0
M  V30 1108 H 100.379 -4.19349 -4.92702 0
M  V30 1109 N 100.511 1.16574 -1.06058 0
M  V30 1110 C 101.76 1.86385 -0.770944 0
M  V30 1111 C 102.073 1.82448 0.705129 0
M  V30 1112 O 103.279 2.47815 1.10905 0
M  V30 1113 C 101.735 3.34466 -1.32893 0
M  V30 1114 C 101.343 3.46883 -2.83507 0
M  V30 1115 C 103.087 4.09548 -1.11672 0
M  V30 1116 C 100.994 4.89036 -3.32562 0
M  V30 1117 H 99.9238 0.698181 -0.284709 0
M  V30 1118 H 102.575 1.31583 -1.27899 0
M  V30 1119 H 100.957 3.88859 -0.748662 0
M  V30 1120 H 102.131 3.02663 -3.47465 0
M  V30 1121 H 100.446 2.85232 -3.03368 0
M  V30 1122 H 103.043 5.14434 -1.45814 0
M  V30 1123 H 103.386 4.16264 -0.0549535 0
M  V30 1124 H 103.919 3.61387 -1.66265 0
M  V30 1125 H 100.658 4.87499 -4.38207 0
M  V30 1126 H 100.178 5.3389 -2.73351 0
M  V30 1127 H 101.857 5.57843 -3.2775 0
M  V30 1128 N 101.989 0.842826 1.3317 0
M  V30 1129 C 102.922 0.223862 2.27099 0
M  V30 1130 C 103.9 -0.631311 1.49844 0
M  V30 1131 O 105.084 -0.590708 1.79005 0
M  V30 1132 C 102.211 -0.685313 3.31694 0
M  V30 1133 C 101.257 0.094919 4.26394 0
M  V30 1134 S 102.09 1.45546 5.15341 0
M  V30 1135 C 103.246 0.551685 6.23464 0
M  V30 1136 H 103.479 1.02015 2.79249 0
M  V30 1137 H 101.012 0.639797 1.4052 0
M  V30 1138 H 102.97 -1.20426 3.92438 0
M  V30 1139 H 101.631 -1.4553 2.78352 0
M  V30 1140 H 100.824 -0.597059 5.00451 0
M  V30 1141 H 100.426 0.545054 3.70007 0
M  V30 1142 H 102.718 -0.248877 6.77043 0
M  V30 1143 H 103.661 1.26253 6.96754 0
M  V30 1144 H 104.069 0.131275 5.64347 0
M  V30 1145 N 103.467 -1.45747 0.599634 0
M  V30 1146 C 104.692 -2.07178 0.0960198 0
M  V30 1147 C 105.117 -1.44268 -1.207 0
M  V30 1148 O 104.475 -0.532503 -1.73303 0
M  V30 1149 C 104.523 -3.60579 -0.0385348 0
M  V30 1150 O 103.627 -3.97713 -1.0908 0
M  V30 1151 H 102.968 -0.660251 0.0704593 0
M  V30 1152 H 105.498 -1.87124 0.827385 0
M  V30 1153 H 105.508 -4.07298 -0.239304 0
M  V30 1154 H 104.183 -4.05756 0.912947 0
M  V30 1155 H 102.76 -3.62678 -0.867135 0
M  V30 1156 N 104.945 -0.338344 -1.53925 0
M  V30 1157 C 106.17 0.263987 -2.05713 0
M  V30 1158 C 106.595 1.43847 -1.21201 0
M  V30 1159 O 105.953 1.79904 -0.224535 0
M  V30 1160 C 106.001 0.662 -3.54471 0
M  V30 1161 O 105.105 1.76265 -3.72833 0
M  V30 1162 H 104.446 0.0448722 -0.662482 0
M  V30 1163 H 106.976 -0.491048 -1.9862 0
M  V30 1164 H 106.986 0.940594 -3.9701 0
M  V30 1165 H 105.661 -0.196937 -4.15433 0
M  V30 1166 H 104.238 1.48173 -3.42198 0
M  V30 1167 N 106.423 1.57458 -0.0668435 0
M  V30 1168 C 107.355 2.09413 0.931601 0
M  V30 1169 C 108.368 1.02522 1.26464 0
M  V30 1170 O 109.557 1.30049 1.22269 0
M  V30 1171 C 106.657 2.53537 2.24882 0
M  V30 1172 C 105.83 3.83944 2.09537 0
M  V30 1173 C 104.889 4.14214 3.2452 0
M  V30 1174 O 103.915 4.83891 2.9973 0
M  V30 1175 N 105.117 3.67367 4.49469 0
M  V30 1176 H 107.882 2.95699 0.488048 0
M  V30 1177 H 105.443 1.61462 0.119009 0
M  V30 1178 H 107.435 2.70853 3.00701 0
M  V30 1179 H 106.005 1.72415 2.60753 0
M  V30 1180 H 105.225 3.76057 1.18215 0
M  V30 1181 H 106.513 4.69312 1.96529 0
M  V30 1182 H 105.911 3.11068 4.72497 0
M  V30 1183 H 104.468 3.89891 5.2233 0
M  V30 1184 N 107.901 -0.206675 1.56239 0
M  V30 1185 C 108.848 -1.25617 1.93621 0
M  V30 1186 C 109.818 -1.45824 0.795274 0
M  V30 1187 O 111.003 -1.59148 1.05245 0
M  V30 1188 C 108.143 -2.59839 2.27107 0
M  V30 1189 C 107.256 -2.47308 3.54207 0
M  V30 1190 C 106.391 -3.74155 3.7707 0
M  V30 1191 C 105.43 -3.56407 4.97635 0
M  V30 1192 N 104.567 -4.75238 5.1681 0
M  V30 1193 H 109.407 -0.930383 2.83104 0
M  V30 1194 H 106.944 -0.448065 1.4011 0
M  V30 1195 H 108.902 -3.38021 2.44535 0
M  V30 1196 H 107.532 -2.90485 1.40778 0
M  V30 1197 H 106.584 -1.60483 3.4489 0
M  V30 1198 H 107.896 -2.30122 4.42544 0
M  V30 1199 H 107.05 -4.60778 3.94675 0
M  V30 1200 H 105.789 -3.94282 2.87042 0
M  V30 1201 H 104.794 -2.68168 4.79964 0
M  V30 1202 H 106.019 -3.37736 5.89161 0
M  V30 1203 H 103.965 -4.95651 4.29728 0
M  V30 1204 H 103.882 -4.60835 5.99306 0
M  V30 1205 H 105.15 -5.63246 5.38864 0
M  V30 1206 N 109.379 -1.50304 -0.473955 0
M  V30 1207 C 110.342 -1.6841 -1.55469 0
M  V30 1208 C 111.342 -0.554905 -1.50922 0
M  V30 1209 O 112.532 -0.821882 -1.53593 0
M  V30 1210 C 109.664 -1.70667 -2.95102 0
M  V30 1211 H 110.857 -2.64828 -1.40733 0
M  V30 1212 H 108.41 -1.39742 -0.700132 0
M  V30 1213 H 109.145 -0.75932 -3.15285 0
M  V30 1214 H 108.93 -2.52698 -2.9981 0
M  V30 1215 H 110.42 -1.8664 -3.73571 0
M  V30 1216 N 110.857 0.726932 -1.39834 0
M  V30 1217 C 111.787 1.85405 -1.41941 0
M  V30 1218 C 112.768 1.67751 -0.281728 0
M  V30 1219 O 113.953 1.8795 -0.488717 0
M  V30 1220 C 111.083 3.23243 -1.2701 0
M  V30 1221 C 110.037 3.55549 -2.38262 0
M  V30 1222 C 109.363 4.9241 -2.08415 0
M  V30 1223 C 110.663 3.577 -3.80589 0
M  V30 1224 H 112.357 1.83899 -2.36266 0
M  V30 1225 H 109.903 0.883349 -1.13723 0
M  V30 1226 H 111.856 4.01775 -1.27103 0
M  V30 1227 H 110.58 3.25296 -0.291564 0
M  V30 1228 H 109.239 2.79351 -2.37399 0
M  V30 1229 H 108.887 4.91052 -1.0898 0
M  V30 1230 H 108.587 5.14992 -2.82943 0
M  V30 1231 H 110.111 5.73289 -2.10171 0
M  V30 1232 H 111.525 4.26293 -3.83337 0
M  V30 1233 H 109.922 3.91804 -4.54543 0
M  V30 1234 H 110.992 2.57328 -4.10987 0
M  V30 1235 N 112.336 1.25143 0.95797 0
M  V30 1236 C 113.582 1.09855 1.70469 0
M  V30 1237 C 113.915 -0.360187 1.90831 0
M  V30 1238 O 113.19 -1.26568 1.47685 0
M  V30 1239 C 113.473 1.8497 3.08963 0
M  V30 1240 C 113.326 3.38652 2.96032 0
M  V30 1241 C 114.645 1.63016 4.08795 0
M  V30 1242 H 111.764 0.400465 0.618706 0
M  V30 1243 H 114.406 1.53933 1.11376 0
M  V30 1244 H 112.556 1.47505 3.59409 0
M  V30 1245 H 114.228 3.85772 2.52938 0
M  V30 1246 H 112.471 3.66534 2.32025 0
M  V30 1247 H 113.142 3.8642 3.94187 0
M  V30 1248 H 115.618 1.95625 3.67247 0
M  V30 1249 H 114.494 2.18015 5.03747 0
M  V30 1250 H 114.755 0.570692 4.38401 0
M  V30 1251 N 113.814 -1.1601 1.06675 0
M  V30 1252 C 115.039 -1.91068 0.806706 0
M  V30 1253 C 115.464 -1.77112 -0.633485 0
M  V30 1254 O 114.822 -1.09908 -1.44187 0
M  V30 1255 C 114.87 -3.39655 1.21106 0
M  V30 1256 O 113.974 -4.10893 0.352189 0
M  V30 1257 H 113.315 -0.595125 0.294486 0
M  V30 1258 H 115.845 -1.46955 1.42356 0
M  V30 1259 H 115.855 -3.90434 1.18428 0
M  V30 1260 H 114.53 -3.49132 2.26008 0
M  V30 1261 H 113.107 -3.70285 0.440868 0
M  V30 1262 N 115.292 -0.849877 -1.32721 0
M  V30 1263 C 116.54 -0.450032 -1.97026 0
M  V30 1264 C 116.861 0.996604 -1.67609 0
M  V30 1265 O 116.131 1.6958 -0.980786 0
M  V30 1266 H 114.711 -0.163426 -0.728904 0
M  V30 1267 H 117.373 -1.08526 -1.6189 0
M  V30 1268 H 116.469 -0.591146 -3.0645 0
M  V30 1269 N 116.77 1.45427 -0.607355 0
M  V30 1270 C 117.717 2.3053 0.111625 0
M  V30 1271 C 118.687 1.4209 0.860216 0
M  V30 1272 O 119.872 1.71019 0.845998 0
M  V30 1273 C 117.012 3.26992 1.10319 0
M  V30 1274 C 116.125 4.30535 0.355493 0
M  V30 1275 C 115.26 5.14105 1.33676 0
M  V30 1276 C 114.299 6.09376 0.576862 0
M  V30 1277 N 113.436 6.85727 1.5074 0
M  V30 1278 H 118.276 2.91477 -0.620093 0
M  V30 1279 H 115.813 1.43631 -0.317594 0
M  V30 1280 H 117.771 3.81385 1.6912 0
M  V30 1281 H 116.401 2.67799 1.80232 0
M  V30 1282 H 115.453 3.78805 -0.348023 0
M  V30 1283 H 116.765 4.98235 -0.237423 0
M  V30 1284 H 115.919 5.72897 1.99684 0
M  V30 1285 H 114.658 4.46423 1.9636 0
M  V30 1286 H 113.663 5.49715 -0.0968519 0
M  V30 1287 H 114.888 6.79085 -0.0449341 0
M  V30 1288 H 112.834 6.20735 2.12189 0
M  V30 1289 H 112.751 7.49778 0.967913 0
M  V30 1290 H 114.019 7.4906 2.15706 0
M  V30 1291 N 118.248 0.346503 1.53744 0
M  V30 1292 C 119.659 -0.136779 1.86198 0
M  V30 1293 C 120.01 -1.49749 1.26766 0
M  V30 1294 O 119.135 -2.08417 0.582355 0
M  V30 1295 C 119.73 -0.254966 3.37839 0
M  V30 1296 C 118.289 -0.682482 3.70161 0
M  V30 1297 C 117.436 0.181981 2.76702 0
M  V30 1298 H 120.387 0.565994 1.48264 0
M  V30 1299 H 120.408 -1.08195 3.64793 0
M  V30 1300 H 119.92 0.735526 3.81066 0
M  V30 1301 H 118.021 -1.68189 3.3248 0
M  V30 1302 H 118.134 -0.470326 4.76786 0
M  V30 1303 H 116.498 -0.34615 2.52337 0
M  V30 1304 H 117.281 1.16966 3.2276 0
M  V30 1305 N 119.726 -1.57421 0.075193 0
M  V30 1306 C 120.689 -2.11791 -0.876203 0
M  V30 1307 C 121.689 -1.04268 -1.22412 0
M  V30 1308 O 122.879 -1.30242 -1.15684 0
M  V30 1309 C 120.011 -2.62207 -2.17854 0
M  V30 1310 H 121.204 -2.9716 -0.40444 0
M  V30 1311 H 118.757 -1.55333 -0.173557 0
M  V30 1312 H 119.492 -1.803 -2.6956 0
M  V30 1313 H 119.277 -3.40802 -1.93897 0
M  V30 1314 H 120.767 -3.04335 -2.85955 0
M  V30 1315 N 121.204 0.198386 -1.56346 0
M  V30 1316 C 122.114 1.2664 -1.97483 0
M  V30 1317 C 123.13 1.49989 -0.882002 0
M  V30 1318 O 124.306 1.62668 -1.18748 0
M  V30 1319 C 121.371 2.59141 -2.30319 0
M  V30 1320 C 120.432 2.43892 -3.53292 0
M  V30 1321 C 119.665 3.70074 -3.84553 0
M  V30 1322 O 119.888 4.74101 -3.1715 0
M  V30 1323 O 118.822 3.658 -4.7799 0
M  V30 1324 H 122.648 0.947304 -2.88548 0
M  V30 1325 H 120.233 0.403123 -1.43859 0
M  V30 1326 H 122.115 3.37352 -2.5253 0
M  V30 1327 H 120.79 2.90684 -1.42423 0
M  V30 1328 H 119.697 1.63803 -3.36332 0
M  V30 1329 H 121.03 2.17282 -4.41644 0
M  V30 1330 N 122.682 1.50554 0.465978 0
M  V30 1331 C 123.907 1.65838 1.24549 0
M  V30 1332 C 124.332 0.343486 1.84937 0
M  V30 1333 O 123.69 -0.69324 1.67523 0
M  V30 1334 C 123.738 2.75533 2.32624 0
M  V30 1335 O 122.842 2.37142 3.37398 0
M  V30 1336 H 122.183 0.553893 0.366194 0
M  V30 1337 H 124.713 1.96959 0.553927 0
M  V30 1338 H 124.723 2.98763 2.77857 0
M  V30 1339 H 123.398 3.70962 1.88043 0
M  V30 1340 H 121.975 2.24377 2.97841 0
M  V30 1341 N 124.16 -0.719506 1.40217 0
M  V30 1342 C 125.385 -1.51371 1.4178 0
M  V30 1343 C 125.81 -1.88091 0.0182355 0
M  V30 1344 O 125.168 -1.52997 -0.972707 0
M  V30 1345 C 125.216 -2.768 2.31115 0
M  V30 1346 O 124.32 -3.73349 1.7517 0
M  V30 1347 H 123.661 -0.456529 0.482159 0
M  V30 1348 H 126.191 -0.88644 1.844 0
M  V30 1349 H 126.201 -3.25371 2.46167 0
M  V30 1350 H 124.876 -2.49407 3.3282 0
M  V30 1351 H 123.453 -3.32179 1.69444 0
M  V30 1352 N 125.638 -1.25649 -0.95132 0
M  V30 1353 C 126.601 -1.06399 -2.03007 0
M  V30 1354 C 127.601 -0.0156794 -1.60792 0
M  V30 1355 O 128.791 -0.25817 -1.72276 0
M  V30 1356 C 125.923 -0.616184 -3.35285 0
M  V30 1357 H 127.116 -2.02164 -2.21517 0
M  V30 1358 H 124.669 -1.08103 -1.12887 0
M  V30 1359 H 125.404 0.343917 -3.22471 0
M  V30 1360 H 125.189 -1.37301 -3.67275 0
M  V30 1361 H 126.679 -0.503032 -4.14559 0
M  V30 1362 N 127.117 1.15442 -1.07289 0
M  V30 1363 C 128.363 1.86489 -0.796846 0
M  V30 1364 C 128.696 1.82078 0.675371 0
M  V30 1365 O 127.971 1.24346 1.4956 0
M  V30 1366 C 128.254 3.35626 -1.30489 0
M  V30 1367 C 128.107 3.48673 -2.84161 0
M  V30 1368 C 129.426 4.30357 -0.920907 0
M  V30 1369 H 126.545 0.677144 -0.290939 0
M  V30 1370 H 129.187 1.35633 -1.33056 0
M  V30 1371 H 127.337 3.79068 -0.850883 0
M  V30 1372 H 129.009 3.14099 -3.37846 0
M  V30 1373 H 127.252 2.90253 -3.22391 0
M  V30 1374 H 127.923 4.53453 -3.14777 0
M  V30 1375 H 130.399 3.94871 -1.3121 0
M  V30 1376 H 129.275 5.33193 -1.30372 0
M  V30 1377 H 129.536 4.4176 0.173226 0
M  V30 1378 N 128.595 0.856903 1.32268 0
M  V30 1379 C 129.558 0.308171 2.27119 0
M  V30 1380 C 130.558 -0.533421 1.51695 0
M  V30 1381 O 131.748 -0.344607 1.70757 0
M  V30 1382 C 128.88 -0.563757 3.36206 0
M  V30 1383 H 130.073 1.14535 2.77167 0
M  V30 1384 H 127.626 0.631421 1.42978 0
M  V30 1385 H 128.361 -1.42266 2.91429 0
M  V30 1386 H 128.146 0.0386749 3.92081 0
M  V30 1387 H 129.636 -0.940386 4.06874 0
M  V30 1388 N 130.073 -1.45103 0.615059 0
M  V30 1389 C 131.036 -2.29025 -0.0895485 0
M  V30 1390 C 132.036 -1.40174 -0.787906 0
M  V30 1391 O 133.226 -1.62217 -0.634933 0
M  V30 1392 C 130.358 -3.21376 -1.13711 0
M  V30 1393 H 131.551 -2.92807 0.648382 0
M  V30 1394 H 129.104 -1.51749 0.374444 0
M  V30 1395 H 129.839 -2.6241 -1.90556 0
M  V30 1396 H 129.624 -3.86834 -0.640475 0
M  V30 1397 H 131.114 -3.84459 -1.63036 0
M  V30 1398 N 131.551 -0.354651 -1.53558 0
M  V30 1399 C 132.779 0.239515 -2.05509 0
M  V30 1400 C 133.194 1.4333 -1.2289 0
M  V30 1401 O 132.551 1.80538 -0.266899 0
M  V30 1402 C 132.602 0.643719 -3.55723 0
M  V30 1403 O 132.323 -0.502602 -4.35207 0
M  V30 1404 C 133.824 1.29743 -4.23889 0
M  V30 1405 H 131.044 0.0442697 -0.669538 0
M  V30 1406 H 133.588 -0.509856 -1.98042 0
M  V30 1407 H 131.743 1.34302 -3.63376 0
M  V30 1408 H 132.157 -0.178172 -5.24197 0
M  V30 1409 H 133.631 1.53091 -5.30346 0
M  V30 1410 H 134.108 2.25441 -3.76926 0
M  V30 1411 H 134.714 0.639865 -4.20459 0
M  V30 1412 N 133.029 1.57378 -0.0835403 0
M  V30 1413 C 133.939 2.16897 0.894021 0
M  V30 1414 C 134.955 1.13528 1.31861 0
M  V30 1415 O 136.131 1.45848 1.3889 0
M  V30 1416 C 133.196 2.72831 2.13925 0
M  V30 1417 C 132.257 3.91115 1.76997 0
M  V30 1418 C 131.49 4.44371 2.95584 0
M  V30 1419 O 131.713 3.96596 4.09961 0
M  V30 1420 O 130.647 5.35549 2.74719 0
M  V30 1421 H 134.473 3.00814 0.417679 0
M  V30 1422 H 132.058 1.48741 0.140181 0
M  V30 1423 H 133.94 3.0863 2.86924 0
M  V30 1424 H 132.615 1.91967 2.60635 0
M  V30 1425 H 131.522 3.60148 1.01214 0
M  V30 1426 H 132.855 4.73307 1.3506 0
M  V30 1427 N 134.507 -0.190092 1.56449 0
M  V30 1428 C 135.454 -1.23557 1.94942 0
M  V30 1429 C 136.424 -1.44972 0.810696 0
M  V30 1430 O 137.609 -1.58023 1.06927 0
M  V30 1431 C 134.749 -2.57416 2.2985 0
M  V30 1432 C 133.862 -2.43537 3.5681 0
M  V30 1433 C 132.997 -3.70134 3.81017 0
M  V30 1434 C 132.036 -3.51109 5.01387 0
M  V30 1435 N 131.173 -4.6973 5.21822 0
M  V30 1436 H 136.013 -0.900304 2.84075 0
M  V30 1437 H 133.55 -0.43318 1.40577 0
M  V30 1438 H 135.508 -3.35409 2.48106 0
M  V30 1439 H 134.138 -2.88975 1.43852 0
M  V30 1440 H 133.19 -1.56816 3.46573 0
M  V30 1441 H 134.502 -2.25415 4.4496 0
M  V30 1442 H 133.656 -4.56566 3.9954 0
M  V30 1443 H 132.395 -3.91215 2.91207 0
M  V30 1444 H 131.4 -2.63063 4.82782 0
M  V30 1445 H 132.625 -3.31468 5.9271 0
M  V30 1446 H 130.571 -4.91065 4.34961 0
M  V30 1447 H 130.488 -4.54452 6.0416 0
M  V30 1448 H 131.756 -5.57499 5.44808 0
M  V30 1449 N 135.985 -1.50799 -0.457987 0
M  V30 1450 C 136.932 -1.70617 -1.5543 0
M  V30 1451 C 137.902 -0.547562 -1.56815 0
M  V30 1452 O 139.087 -0.779647 -1.74144 0
M  V30 1453 C 136.227 -1.81831 -2.93311 0
M  V30 1454 C 135.34 -3.09278 -3.01615 0
M  V30 1455 C 134.475 -3.11209 -4.30491 0
M  V30 1456 C 133.514 -4.33055 -4.32585 0
M  V30 1457 N 132.651 -4.32652 -5.52952 0
M  V30 1458 H 137.491 -2.64207 -1.37836 0
M  V30 1459 H 135.028 -1.30959 -0.669937 0
M  V30 1460 H 136.986 -1.86314 -3.73287 0
M  V30 1461 H 135.616 -0.916685 -3.0951 0
M  V30 1462 H 134.668 -3.14203 -2.1443 0
M  V30 1463 H 135.98 -3.99233 -2.99022 0
M  V30 1464 H 135.134 -3.14494 -5.18824 0
M  V30 1465 H 133.873 -2.19106 -4.35711 0
M  V30 1466 H 132.878 -4.29969 -3.42647 0
M  V30 1467 H 134.103 -5.264 -4.29046 0
M  V30 1468 H 132.049 -3.43409 -5.58933 0
M  V30 1469 H 131.966 -5.16392 -5.52155 0
M  V30 1470 H 133.234 -4.40101 -6.43375 0
M  V30 1471 N 137.463 0.71206 -1.40597 0
M  V30 1472 C 138.426 1.80785 -1.40888 0
M  V30 1473 C 139.426 1.57937 -0.302103 0
M  V30 1474 O 140.616 1.64913 -0.561182 0
M  V30 1475 C 137.748 3.18927 -1.20409 0
M  V30 1476 H 138.941 1.81924 -2.38419 0
M  V30 1477 H 136.494 0.91805 -1.26497 0
M  V30 1478 H 137.229 3.23436 -0.236522 0
M  V30 1479 H 137.014 3.36911 -2.00582 0
M  V30 1480 H 138.504 3.98949 -1.23408 0
M  V30 1481 N 138.941 1.26152 0.944643 0
M  V30 1482 C 140.187 1.11657 1.69294 0
M  V30 1483 C 140.52 -0.339926 1.91202 0
M  V30 1484 O 139.795 -1.24994 1.49019 0
M  V30 1485 C 140.078 1.88236 3.06984 0
M  V30 1486 C 139.931 3.41772 2.92424 0
M  V30 1487 C 141.25 1.67343 4.07043 0
M  V30 1488 H 138.369 0.407004 0.614424 0
M  V30 1489 H 141.011 1.55106 1.09737 0
M  V30 1490 H 139.161 1.51308 3.57824 0
M  V30 1491 H 140.833 3.88433 2.48832 0
M  V30 1492 H 139.076 3.68974 2.28124 0
M  V30 1493 H 139.747 3.90579 3.90067 0
M  V30 1494 H 142.223 1.99509 3.65151 0
M  V30 1495 H 141.099 2.23346 5.01406 0
M  V30 1496 H 141.36 0.617158 4.37771 0
M  V30 1497 N 140.419 -1.14872 1.07899 0
M  V30 1498 C 141.647 -1.89661 0.82683 0
M  V30 1499 C 142.062 -1.78312 -0.620519 0
M  V30 1500 O 141.419 -1.13888 -1.42604 0
M  V30 1501 C 141.47 -3.39817 1.23316 0
M  V30 1502 O 141.191 -3.50845 2.62372 0
M  V30 1503 C 142.692 -4.31615 1.0111 0
M  V30 1504 H 139.912 -0.60092 0.298557 0
M  V30 1505 H 142.456 -1.4551 1.43691 0
M  V30 1506 H 140.611 -3.8161 0.667286 0
M  V30 1507 H 141.025 -4.44076 2.79101 0
M  V30 1508 H 142.499 -5.35367 1.34486 0
M  V30 1509 H 142.976 -4.39169 -0.0522168 0
M  V30 1510 H 143.582 -3.95572 1.56215 0
M  V30 1511 N 141.898 -0.863906 -1.31812 0
M  V30 1512 C 143.309 -0.52522 -1.7916 0
M  V30 1513 C 143.66 0.957518 -1.71248 0
M  V30 1514 O 142.785 1.74734 -1.27659 0
M  V30 1515 C 143.38 -0.9466 -3.25307 0
M  V30 1516 C 141.939 -0.659668 -3.70574 0
M  V30 1517 C 141.086 -1.14126 -2.52726 0
M  V30 1518 H 144.037 -1.05022 -1.1898 0
M  V30 1519 H 144.058 -0.266766 -3.79564 0
M  V30 1520 H 143.57 -2.02579 -3.31034 0
M  V30 1521 H 141.671 0.408416 -3.70355 0
M  V30 1522 H 141.784 -1.23245 -4.62977 0
M  V30 1523 H 140.148 -0.561216 -2.4844 0
M  V30 1524 H 140.931 -2.22775 -2.61201 0
M  V30 1525 N 143.376 1.44774 -0.622745 0
M  V30 1526 C 144.339 2.29069 0.0774015 0
M  V30 1527 C 145.339 1.4059 0.780461 0
M  V30 1528 O 146.529 1.62551 0.626322 0
M  V30 1529 C 143.661 3.21974 1.12006 0
M  V30 1530 H 144.854 2.92459 -0.663901 0
M  V30 1531 H 142.407 1.51548 -0.382486 0
M  V30 1532 H 143.142 2.63417 1.89162 0
M  V30 1533 H 142.927 3.87168 0.619951 0
M  V30 1534 H 144.417 3.85318 1.60995 0
M  V30 1535 N 144.854 0.36279 1.53368 0
M  V30 1536 C 146.265 -0.117022 1.86333 0
M  V30 1537 C 146.616 -1.48397 1.28347 0
M  V30 1538 O 145.741 -2.07787 0.604428 0
M  V30 1539 C 146.336 -0.21912 3.38091 0
M  V30 1540 C 144.895 -0.643184 3.70864 0
M  V30 1541 C 144.042 0.211318 2.76494 0
M  V30 1542 H 146.993 0.581687 1.47655 0
M  V30 1543 H 147.014 -1.04319 3.6592 0
M  V30 1544 H 146.526 0.775902 3.80265 0
M  V30 1545 H 144.627 -1.64654 3.34245 0
M  V30 1546 H 144.74 -0.41973 4.77258 0
M  V30 1547 H 143.104 -0.319367 2.5269 0
M  V30 1548 H 143.887 1.20383 3.21501 0
M  V30 1549 N 146.332 -1.57332 0.0918853 0
M  V30 1550 C 147.743 -1.81496 -0.437739 0
M  V30 1551 C 148.094 -1.00727 -1.6837 0
M  V30 1552 O 147.219 -0.235694 -2.15113 0
M  V30 1553 C 147.814 -3.29197 -0.800939 0
M  V30 1554 C 146.373 -3.54136 -1.27532 0
M  V30 1555 C 145.52 -2.75979 -0.270392 0
M  V30 1556 H 148.471 -1.55494 0.317366 0
M  V30 1557 H 148.492 -3.42344 -1.66074 0
M  V30 1558 H 148.004 -3.87955 0.106078 0
M  V30 1559 H 146.105 -3.00705 -2.20016 0
M  V30 1560 H 146.218 -4.62792 -1.23938 0
M  V30 1561 H 144.582 -2.43349 -0.751872 0
M  V30 1562 H 145.365 -3.37484 0.629248 0
M  V30 1563 N 147.81 0.181792 -1.56548 0
M  V30 1564 C 149.059 0.898348 -1.8059 0
M  V30 1565 C 149.372 1.83862 -0.667379 0
M  V30 1566 O 150.578 2.59678 -0.792446 0
M  V30 1567 C 149.034 1.64791 -3.19956 0
M  V30 1568 C 148.642 0.751789 -4.41647 0
M  V30 1569 C 150.386 2.35331 -3.53298 0
M  V30 1570 C 148.293 1.50098 -5.72035 0
M  V30 1571 H 147.223 0.339194 -0.673397 0
M  V30 1572 H 149.874 0.151413 -1.82874 0
M  V30 1573 H 148.256 2.43921 -3.11959 0
M  V30 1574 H 149.43 -0.0018076 -4.608 0
M  V30 1575 H 147.745 0.156562 -4.16106 0
M  V30 1576 H 150.342 2.91958 -4.47956 0
M  V30 1577 H 150.685 3.10164 -2.77676 0
M  V30 1578 H 151.218 1.63154 -3.62803 0
M  V30 1579 H 147.957 0.795175 -6.50659 0
M  V30 1580 H 147.477 2.22817 -5.56878 0
M  V30 1581 H 149.156 2.05125 -6.13622 0
M  V30 1582 N 149.288 1.51039 0.449983 0
M  V30 1583 C 150.235 1.71439 1.54523 0
M  V30 1584 C 151.205 0.555871 1.56522 0
M  V30 1585 O 152.39 0.788871 1.73728 0
M  V30 1586 C 149.53 1.83384 2.92343 0
M  V30 1587 C 148.643 3.10873 2.9997 0
M  V30 1588 C 147.778 3.13488 4.28834 0
M  V30 1589 C 146.817 4.35343 4.30282 0
M  V30 1590 N 145.954 4.35579 5.5065 0
M  V30 1591 H 150.794 2.64934 1.36433 0
M  V30 1592 H 148.331 1.31312 0.662982 0
M  V30 1593 H 150.289 1.88291 3.72293 0
M  V30 1594 H 148.919 0.933086 3.0902 0
M  V30 1595 H 147.971 3.15336 2.12761 0
M  V30 1596 H 149.283 4.00814 2.96901 0
M  V30 1597 H 148.437 3.17241 5.17149 0
M  V30 1598 H 147.176 2.21414 4.34543 0
M  V30 1599 H 146.181 4.3178 3.40362 0
M  V30 1600 H 147.406 5.28668 4.26248 0
M  V30 1601 H 145.352 3.46369 5.57104 0
M  V30 1602 H 145.269 5.19313 5.49409 0
M  V30 1603 H 146.537 4.43507 6.41032 0
M  V30 1604 N 150.766 -0.704594 1.40972 0
M  V30 1605 C 152.182 -1.01406 1.23244 0
M  V30 1606 C 152.382 -2.01169 0.115399 0
M  V30 1607 O 151.438 -2.47021 -0.523147 0
M  V30 1608 C 152.751 -1.54728 2.57836 0
M  V30 1609 C 154.299 -1.66658 2.64942 0
M  V30 1610 C 154.774 -2.23383 3.9983 0
M  V30 1611 N 156.265 -2.30756 4.01629 0
M  V30 1612 C 157 -2.75655 5.02794 0
M  V30 1613 N 156.496 -3.20225 6.14352 0
M  V30 1614 N 158.289 -2.75138 4.90159 0
M  V30 1615 H 150.44 -0.0435285 2.12355 0
M  V30 1616 H 152.703 -0.0818951 0.944456 0
M  V30 1617 H 152.409 -0.888832 3.40283 0
M  V30 1618 H 152.283 -2.53084 2.79693 0
M  V30 1619 H 154.67 -2.31617 1.8286 0
M  V30 1620 H 154.751 -0.668717 2.46904 0
M  V30 1621 H 154.395 -1.59043 4.82357 0
M  V30 1622 H 154.325 -3.23904 4.15203 0
M  V30 1623 H 156.816 -1.99291 3.21079 0
M  V30 1624 H 157.129 -3.53084 6.87424 0
M  V30 1625 H 155.474 -3.18156 6.17901 0
M  V30 1626 H 158.665 -2.39661 4.02095 0
M  V30 1627 H 158.838 -3.09812 5.6914 0
M  V30 1628 N 152.244 -1.26651 -0.937939 0
M  V30 1629 C 153.49 -1.13562 -1.68746 0
M  V30 1630 C 153.845 0.317241 -1.89767 0
M  V30 1631 O 153.138 1.22939 -1.46957 0
M  V30 1632 C 153.332 -1.84168 -3.06295 0
M  V30 1633 C 153.161 -3.36171 -2.98696 0
M  V30 1634 C 151.931 -4.05468 -3.01535 0
M  V30 1635 C 154.129 -4.32312 -2.78588 0
M  V30 1636 N 152.111 -5.44118 -2.84269 0
M  V30 1637 C 153.482 -5.58159 -2.69924 0
M  V30 1638 C 155.537 -4.22524 -2.63396 0
M  V30 1639 C 154.24 -6.75335 -2.47618 0
M  V30 1640 C 156.266 -5.39411 -2.42466 0
M  V30 1641 C 155.628 -6.64208 -2.34536 0
M  V30 1642 H 151.727 -0.470361 -0.624728 0
M  V30 1643 H 154.311 -1.59982 -1.10968 0
M  V30 1644 H 152.482 -1.40219 -3.62206 0
M  V30 1645 H 154.214 -1.63674 -3.70126 0
M  V30 1646 H 150.969 -3.56854 -3.11372 0
M  V30 1647 H 151.393 -6.1693 -2.78795 0
M  V30 1648 H 156.035 -3.26771 -2.68292 0
M  V30 1649 H 153.753 -7.71182 -2.41463 0
M  V30 1650 H 157.339 -5.33711 -2.31611 0
M  V30 1651 H 156.219 -7.53129 -2.18555 0
M  V30 1652 N 153.722 1.14298 -1.08507 0
M  V30 1653 C 154.632 2.23027 -0.727753 0
M  V30 1654 C 155.648 1.71952 0.26619 0
M  V30 1655 O 156.824 2.011 0.109882 0
M  V30 1656 C 153.889 3.46403 -0.143541 0
M  V30 1657 C 152.95 4.12413 -1.19223 0
M  V30 1658 C 152.183 5.29899 -0.635798 0
M  V30 1659 O 152.406 5.67796 0.544393 0
M  V30 1660 O 151.34 5.85717 -1.38634 0
M  V30 1661 H 155.166 2.55945 -1.63481 0
M  V30 1662 H 152.751 1.22248 -0.858817 0
M  V30 1663 H 154.633 4.21018 0.179404 0
M  V30 1664 H 153.308 3.15206 0.736659 0
M  V30 1665 H 152.215 3.39667 -1.56772 0
M  V30 1666 H 153.548 4.47718 -2.04474 0
M  V30 1667 N 155.201 0.870884 1.31352 0
M  V30 1668 C 156.131 0.343096 2.30966 0
M  V30 1669 C 157.112 -0.566507 1.60389 0
M  V30 1670 O 158.297 -0.483336 1.88089 0
M  V30 1671 C 155.427 -0.455487 3.443 0
M  V30 1672 C 154.381 0.361103 4.26474 0
M  V30 1673 C 153.707 -0.563221 5.31725 0
M  V30 1674 C 155.007 1.59566 4.97329 0
M  V30 1675 H 156.701 1.17548 2.75359 0
M  V30 1676 H 154.247 0.566686 1.32381 0
M  V30 1677 H 156.2 -0.83525 4.13039 0
M  V30 1678 H 154.924 -1.32139 2.98675 0
M  V30 1679 H 153.583 0.722825 3.59403 0
M  V30 1680 H 153.231 -1.42643 4.82351 0
M  V30 1681 H 152.931 -0.0207409 5.87596 0
M  V30 1682 H 154.455 -0.939808 6.03324 0
M  V30 1683 H 155.869 1.28728 5.58661 0
M  V30 1684 H 154.266 2.07728 5.63 0
M  V30 1685 H 155.336 2.34798 4.24262 0
M  V30 1686 N 156.679 -1.44442 0.630414 0
M  V30 1687 C 157.904 -2.06927 0.139944 0
M  V30 1688 C 158.329 -1.46795 -1.17613 0
M  V30 1689 O 157.687 -0.569144 -1.72135 0
M  V30 1690 C 157.735 -3.6058 0.0379581 0
M  V30 1691 O 156.839 -3.99937 -1.0062 0
M  V30 1692 H 156.18 -0.658608 0.0844483 0
M  V30 1693 H 158.71 -1.85327 0.866891 0
M  V30 1694 H 158.72 -4.07714 -0.152856 0
M  V30 1695 H 157.395 -4.03728 0.998809 0
M  V30 1696 H 155.972 -3.64436 -0.79001 0
M  V30 1697 N 158.157 -0.370918 -1.53173 0
M  V30 1698 C 159.382 0.220293 -2.06227 0
M  V30 1699 C 159.807 1.41243 -1.24225 0
M  V30 1700 O 159.165 1.79387 -0.262645 0
M  V30 1701 C 159.213 0.586663 -3.55796 0
M  V30 1702 O 158.317 1.68317 -3.76488 0
M  V30 1703 H 157.658 0.0308099 -0.663285 0
M  V30 1704 H 160.188 -0.533068 -1.97534 0
M  V30 1705 H 160.198 0.85617 -3.98916 0
M  V30 1706 H 158.873 -0.285013 -4.14922 0
M  V30 1707 H 157.45 1.40881 -3.45264 0
M  V30 1708 N 159.635 1.57281 -0.100228 0
M  V30 1709 C 160.912 1.86014 0.604812 0
M  V30 1710 C 161.292 0.998025 1.86018 0
M  V30 1711 O 160.64 0.0718184 2.28387 0
M  V30 1712 C 160.85 3.36784 0.915278 0
M  V30 1713 C 162.198 4.04957 1.27651 0
M  V30 1714 O 163.222 3.41695 1.00613 0
M  V30 1715 O 162.081 5.16593 1.7831 0
M  V30 1716 H 159.175 0.76942 0.303185 0
M  V30 1717 H 161.721 1.69176 -0.133313 0
M  V30 1718 H 160.493 3.91292 0.0248896 0
M  V30 1719 H 160.116 3.58987 1.70921 0
M  V30 1720 N 161.113 -0.173488 1.56642 0
M  V30 1721 C 162.045 -1.23935 1.92802 0
M  V30 1722 C 163.058 -1.40589 0.820889 0
M  V30 1723 O 164.247 -1.40631 1.09933 0
M  V30 1724 C 161.347 -2.60837 2.16373 0
M  V30 1725 C 160.52 -2.6551 3.47596 0
M  V30 1726 C 159.579 -3.8376 3.60021 0
M  V30 1727 O 158.605 -3.69859 4.32658 0
M  V30 1728 N 159.807 -5.00127 2.94709 0
M  V30 1729 H 162.572 -0.932236 2.84832 0
M  V30 1730 H 160.133 -0.363268 1.57772 0
M  V30 1731 H 162.125 -3.38407 2.21952 0
M  V30 1732 H 160.695 -2.83948 1.30738 0
M  V30 1733 H 159.915 -1.74052 3.53694 0
M  V30 1734 H 161.203 -2.65641 4.33949 0
M  V30 1735 H 160.601 -5.14322 2.35563 0
M  V30 1736 H 159.158 -5.75567 3.05886 0
M  V30 1737 N 162.591 -1.51276 -0.441967 0
M  V30 1738 C 164.002 -1.56244 -1.02199 0
M  V30 1739 C 164.353 -0.383149 -1.92422 0
M  V30 1740 O 163.478 0.500613 -2.1053 0
M  V30 1741 C 164.073 -2.83162 -1.86024 0
M  V30 1742 C 162.632 -2.90716 -2.39084 0
M  V30 1743 C 161.779 -2.50858 -1.18175 0
M  V30 1744 H 164.73 -1.5712 -0.223416 0
M  V30 1745 H 164.751 -2.66663 -2.71425 0
M  V30 1746 H 164.263 -3.68974 -1.20331 0
M  V30 1747 H 162.364 -2.09323 -3.08244 0
M  V30 1748 H 162.477 -3.94266 -2.72198 0
M  V30 1749 H 160.841 -2.03951 -1.52565 0
M  V30 1750 H 161.624 -3.3901 -0.541001 0
M  V30 1751 N 164.069 0.697108 -1.41344 0
M  V30 1752 C 165.299 1.48377 -1.43763 0
M  V30 1753 C 165.707 1.89156 -0.0408726 0
M  V30 1754 O 165.05 1.57239 0.949812 0
M  V30 1755 C 165.112 2.7781 -2.2817 0
M  V30 1756 C 164.776 2.59244 -3.76353 0
M  V30 1757 C 165.773 2.25292 -4.68551 0
M  V30 1758 C 163.458 2.74933 -4.20378 0
M  V30 1759 C 165.452 2.07264 -6.02761 0
M  V30 1760 C 163.139 2.56521 -5.54653 0
M  V30 1761 C 164.137 2.22737 -6.4566 0
M  V30 1762 O 163.825 2.04485 -7.77458 0
M  V30 1763 H 163.557 0.463842 -0.491759 0
M  V30 1764 H 166.111 0.865934 -1.86255 0
M  V30 1765 H 164.341 3.41995 -1.8049 0
M  V30 1766 H 166.03 3.39608 -2.22309 0
M  V30 1767 H 166.796 2.12787 -4.35829 0
M  V30 1768 H 162.675 3.00213 -3.49848 0
M  V30 1769 H 166.219 1.80817 -6.73759 0
M  V30 1770 H 162.116 2.68616 -5.86955 0
M  V30 1771 H 162.884 2.1926 -7.88586 0
M  V30 1772 N 165.547 1.27147 0.931209 0
M  V30 1773 C 166.477 1.12081 2.04842 0
M  V30 1774 C 167.458 0.0232364 1.70084 0
M  V30 1775 O 168.643 0.197085 1.93197 0
M  V30 1776 C 165.773 0.76354 3.38803 0
M  V30 1777 C 164.727 1.81396 3.87659 0
M  V30 1778 C 164.053 1.31075 5.18385 0
M  V30 1779 C 165.353 3.21739 4.11438 0
M  V30 1780 H 167.047 2.05537 2.17703 0
M  V30 1781 H 164.593 0.989603 1.04608 0
M  V30 1782 H 166.546 0.644982 4.16435 0
M  V30 1783 H 165.27 -0.206727 3.25945 0
M  V30 1784 H 163.929 1.92136 3.12217 0
M  V30 1785 H 163.577 0.330037 5.01916 0
M  V30 1786 H 163.277 2.013 5.52044 0
M  V30 1787 H 164.801 1.20506 5.98591 0
M  V30 1788 H 166.215 3.14019 4.79651 0
M  V30 1789 H 164.612 3.89644 4.56397 0
M  V30 1790 H 165.682 3.67054 3.16859 0
M  V30 1791 O 167.064 -1.06532 1.21381 0
M  V30 1792 H 167.755 -1.67472 0.973291 0
M  V30 END ATOM
M  V30 BEGIN BOND
M  V30 END BOND
M  V30 END CTAB
M  END
$$$$
