drugbank_target|O95255 Multidrug resistance-associated protein 6 (DB00171)
 OpenBabel12092120363D

  0  0  0     0  0            999 V3000
M  V30 BEGIN CTAB
M  V30 COUNTS 23449 23721 0 0 0
M  V30 BEGIN ATOM
M  V30 1 H -0.908 1.98254 -0.117106 0
M  V30 2 N 0 1.576 0 0
M  V30 3 C 0.933 2.03868 1.02534 0
M  V30 4 C 1.911 0.928543 1.3348 0
M  V30 5 O 3.095 1.19667 1.45644 0
M  V30 6 C 0.222 2.43627 2.35294 0
M  V30 7 C -0.732 3.65373 2.2001 0
M  V30 8 S 0.101 5.13292 1.52614 0
M  V30 9 C 1.257 5.56322 2.86805 0
M  V30 10 H 1.49 2.90518 0.631377 0
M  V30 11 H -0.977 1.52953 0.210867 0
M  V30 12 H 0.981 2.67203 3.11629 0
M  V30 13 H -0.358 1.57376 2.7183 0
M  V30 14 H -1.165 3.90944 3.18086 0
M  V30 15 H -1.563 3.418 1.51819 0
M  V30 16 H 0.729 5.58782 3.83104 0
M  V30 17 H 1.672 6.56266 2.65933 0
M  V30 18 H 2.08 4.83886 2.90714 0
M  V30 19 N 1.4781 -0.272755 1.55222 0
M  V30 20 C 2.4411 -1.32041 1.87344 0
M  V30 21 C 3.4411 -1.42342 0.74803 0
M  V30 22 O 4.6311 -1.41488 1.0162 0
M  V30 23 C 1.7631 -2.70173 2.07893 0
M  V30 24 H 2.9561 -1.04789 2.80997 0
M  V30 25 H 0.5091 -0.51083 1.47717 0
M  V30 26 H 1.2441 -3.02605 1.16622 0
M  V30 27 H 1.0291 -2.64082 2.89833 0
M  V30 28 H 2.5191 -3.45869 2.34017 0
M  V30 29 N 2.9562 -1.48159 -0.537278 0
M  V30 30 C 3.9192 -1.61665 -1.62472 0
M  V30 31 C 4.9192 -0.490395 -1.5314 0
M  V30 32 O 6.1092 -0.755998 -1.5694 0
M  V30 33 C 3.2412 -1.57997 -3.02076 0
M  V30 34 H 4.4342 -2.58621 -1.51839 0
M  V30 35 H 1.9872 -1.36647 -0.758771 0
M  V30 36 H 2.7222 -0.624913 -3.18222 0
M  V30 37 H 2.5072 -2.39755 -3.10258 0
M  V30 38 H 3.9972 -1.70627 -3.81151 0
M  V30 39 N 4.4343 0.785586 -1.36625 0
M  V30 40 C 5.8453 1.36101 -1.27803 0
M  V30 41 C 6.1963 1.96035 0.0804875 0
M  V30 42 O 5.3213 1.92834 0.982042 0
M  V30 43 C 5.9163 2.47442 -2.31426 0
M  V30 44 C 4.4753 3.00789 -2.26281 0
M  V30 45 C 3.6223 1.73896 -2.15999 0
M  V30 46 H 6.5733 0.586928 -1.47448 0
M  V30 47 H 6.5943 3.2656 -1.95291 0
M  V30 48 H 6.1063 2.03791 -3.30289 0
M  V30 49 H 4.2073 3.48851 -1.30896 0
M  V30 50 H 4.3203 3.57343 -3.19128 0
M  V30 51 H 2.6843 1.9628 -1.62316 0
M  V30 52 H 3.4673 1.32368 -3.16755 0
M  V30 53 N 5.9124 1.20967 1.01018 0
M  V30 54 C 6.8754 0.965918 2.07853 0
M  V30 55 C 7.8754 -0.0610545 1.60684 0
M  V30 56 O 9.0654 0.175681 1.73312 0
M  V30 57 C 6.1974 0.455513 3.37843 0
M  V30 58 H 7.3904 1.91365 2.3091 0
M  V30 59 H 4.9434 1.02594 1.17916 0
M  V30 60 H 5.6784 -0.497381 3.20463 0
M  V30 61 H 5.4634 1.19622 3.73407 0
M  V30 62 H 6.9534 0.304667 4.16487 0
M  V30 63 N 7.3905 -1.2043 1.01659 0
M  V30 64 C 8.3005 -2.2689 0.596484 0
M  V30 65 C 9.3165 -1.70107 -0.36599 0
M  V30 66 O 10.4925 -2.00117 -0.226942 0
M  V30 67 C 7.5575 -3.4665 -0.0586659 0
M  V30 68 C 6.6185 -4.18662 0.949751 0
M  V30 69 C 5.8515 -5.32705 0.32577 0
M  V30 70 O 6.0745 -5.63656 -0.874509 0
M  V30 71 O 5.0085 -5.92803 1.04249 0
M  V30 72 H 8.8345 -2.65041 1.4828 0
M  V30 73 H 6.4195 -1.27048 0.786082 0
M  V30 74 H 8.3015 -4.19256 -0.424564 0
M  V30 75 H 6.9765 -3.10375 -0.91918 0
M  V30 76 H 5.8835 -3.48229 1.36702 0
M  V30 77 H 7.2165 -4.58878 1.78023 0
M  V30 78 N 8.8686 -0.792821 -1.36206 0
M  V30 79 C 10.2796 -0.429513 -1.81692 0
M  V30 80 C 10.6306 1.04695 -1.65932 0
M  V30 81 O 9.7556 1.81256 -1.18218 0
M  V30 82 C 10.3506 -0.772831 -3.29868 0
M  V30 83 C 8.9096 -0.462307 -3.7355 0
M  V30 84 C 8.0566 -1.00569 -2.5842 0
M  V30 85 H 11.0076 -0.985672 -1.24379 0
M  V30 86 H 11.0286 -0.0651928 -3.80444 0
M  V30 87 H 10.5406 -1.84747 -3.41307 0
M  V30 88 H 8.6416 0.604158 -3.67669 0
M  V30 89 H 8.7546 -0.985299 -4.68859 0
M  V30 90 H 7.1186 -0.428734 -2.51066 0
M  V30 91 H 7.9016 -2.08616 -2.72643 0
M  V30 92 N 10.3467 1.47872 -0.545128 0
M  V30 93 C 11.5867 2.04391 -0.0187854 0
M  V30 94 C 11.9507 1.41162 1.30144 0
M  V30 95 O 13.1517 1.88656 1.91474 0
M  V30 96 C 11.4227 3.57299 0.0850867 0
M  V30 97 S 12.9817 4.35221 0.559302 0
M  V30 98 H 9.7997 0.710737 -0.0193301 0
M  V30 99 H 12.4017 1.81395 -0.729125 0
M  V30 100 H 11.1057 4.00847 -0.880351 0
M  V30 101 H 10.6367 3.84773 0.819348 0
M  V30 102 H 12.6517 4.61571 1.82118 0
M  V30 103 N 11.8248 0.280983 1.55075 0
M  V30 104 C 12.7878 -0.590896 2.21452 0
M  V30 105 C 13.7878 -1.07682 1.19421 0
M  V30 106 O 14.9778 -0.97605 1.44288 0
M  V30 107 C 12.1098 -1.81587 2.88511 0
M  V30 108 H 13.3028 -0.0112554 2.99898 0
M  V30 109 H 10.8558 0.0316438 1.56268 0
M  V30 110 H 11.5908 -2.43587 2.14093 0
M  V30 111 H 11.3758 -1.4753 3.63287 0
M  V30 112 H 12.8658 -2.43575 3.39206 0
M  V30 113 N 13.3029 -1.57598 0.00835791 0
M  V30 114 C 14.5509 -1.90551 -0.6734 0
M  V30 115 C 14.8719 -0.883301 -1.73847 0
M  V30 116 O 14.1419 0.0781442 -1.95744 0
M  V30 117 H 12.7219 -0.703312 -0.251717 0
M  V30 118 H 15.3839 -1.94833 0.0512592 0
M  V30 119 H 14.4799 -2.9056 -1.13935 0
M  V30 120 N 14.781 0.264519 -1.55364 0
M  V30 121 C 15.713 1.34965 -1.85248 0
M  V30 122 C 16.726 1.45136 -0.737525 0
M  V30 123 O 17.915 1.46801 -1.01547 0
M  V30 124 C 15.015 2.73008 -2.00797 0
M  V30 125 C 14.188 2.85324 -3.31525 0
M  V30 126 C 13.247 4.04097 -3.37034 0
M  V30 127 O 12.273 3.94455 -4.10358 0
M  V30 128 N 13.475 5.16458 -2.65049 0
M  V30 129 H 16.24 1.09672 -2.78913 0
M  V30 130 H 13.801 0.454635 -1.55386 0
M  V30 131 H 15.793 3.50772 -2.01844 0
M  V30 132 H 14.363 2.91087 -1.1396 0
M  V30 133 H 13.583 1.94377 -3.42945 0
M  V30 134 H 14.871 2.9049 -4.17724 0
M  V30 135 H 14.269 5.27181 -2.05175 0
M  V30 136 H 12.826 5.92422 -2.71809 0
M  V30 137 N 16.2591 1.48442 0.529413 0
M  V30 138 C 17.5071 1.56179 1.28267 0
M  V30 139 C 17.8281 0.237721 1.93546 0
M  V30 140 O 17.0981 -0.740779 1.81354 0
M  V30 141 H 15.6781 0.575367 0.476405 0
M  V30 142 H 18.3401 1.84909 0.61602 0
M  V30 143 H 17.4361 2.34312 2.06165 0
M  V30 144 N 17.7372 -0.778329 1.37039 0
M  V30 145 C 18.9832 -1.53892 1.32079 0
M  V30 146 C 19.3162 -1.9396 -0.0965386 0
M  V30 147 O 18.5912 -1.63568 -1.05242 0
M  V30 148 C 18.8742 -2.80847 2.25382 0
M  V30 149 C 18.7272 -2.47076 3.75864 0
M  V30 150 C 20.0462 -3.82741 2.1725 0
M  V30 151 H 17.1652 -0.558303 0.48111 0
M  V30 152 H 19.8072 -0.893397 1.67685 0
M  V30 153 H 17.9572 -3.35931 1.95148 0
M  V30 154 H 19.6292 -1.97957 4.16666 0
M  V30 155 H 17.8722 -1.79863 3.94755 0
M  V30 156 H 18.5432 -3.37798 4.36574 0
M  V30 157 H 21.0192 -3.37133 2.43887 0
M  V30 158 H 19.8952 -4.69303 2.84686 0
M  V30 159 H 20.1562 -4.2652 1.16331 0
M  V30 160 N 19.2153 -1.21501 -1.00376 0
M  V30 161 C 20.4613 -1.04457 -1.74529 0
M  V30 162 C 20.8163 0.417386 -1.87818 0
M  V30 163 O 20.1093 1.30556 -1.40234 0
M  V30 164 C 20.3033 -1.67673 -3.15627 0
M  V30 165 C 20.1323 -3.19865 -3.16096 0
M  V30 166 C 18.9023 -3.88915 -3.22604 0
M  V30 167 C 21.1003 -4.16936 -3.01112 0
M  V30 168 N 19.0823 -5.28284 -3.12712 0
M  V30 169 C 20.4533 -5.43066 -2.99131 0
M  V30 170 C 22.5083 -4.07968 -2.85423 0
M  V30 171 C 21.2113 -6.6126 -2.83068 0
M  V30 172 C 23.2373 -5.258 -2.70718 0
M  V30 173 C 22.5993 -6.50842 -2.69414 0
M  V30 174 H 18.6983 -0.436584 -0.648782 0
M  V30 175 H 21.2823 -1.53875 -1.19293 0
M  V30 176 H 19.4533 -1.20822 -3.6913 0
M  V30 177 H 21.1853 -1.43824 -3.78281 0
M  V30 178 H 17.9403 -3.39847 -3.2985 0
M  V30 179 H 18.3643 -6.01284 -3.11105 0
M  V30 180 H 23.0063 -3.1209 -2.85236 0
M  V30 181 H 20.7243 -7.57298 -2.82002 0
M  V30 182 H 24.3103 -5.20683 -2.59577 0
M  V30 183 H 23.1903 -7.40485 -2.5817 0
M  V30 184 N 20.6934 1.19889 -1.02296 0
M  V30 185 C 21.6414 2.24938 -0.592081 0
M  V30 186 C 22.6354 1.65257 0.372357 0
M  V30 187 O 23.8414 1.78371 0.241583 0
M  V30 188 H 20.2164 0.731787 -0.173182 0
M  V30 189 H 22.1874 2.58603 -1.48885 0
M  V30 190 C 20.9364 3.47668 0.047351 0
M  V30 191 H 20.2594 3.93875 -0.685772 0
M  V30 192 H 21.6994 4.22852 0.311862 0
M  V30 193 C 20.1584 3.11136 1.29212 0
M  V30 194 O 20.6884 3.2325 2.38479 0
M  V30 195 N 18.8944 2.65625 1.17863 0
M  V30 196 H 18.4414 2.55968 0.289493 0
M  V30 197 H 18.3994 2.41553 2.01245 0
M  V30 198 N 22.1715 0.800033 1.35784 0
M  V30 199 C 23.1035 0.163596 2.28615 0
M  V30 200 C 24.1165 -0.633317 1.49976 0
M  V30 201 O 25.3055 -0.466754 1.72289 0
M  V30 202 C 22.4055 -0.790958 3.29541 0
M  V30 203 C 21.5785 -0.0418255 4.3738 0
M  V30 204 C 20.6375 -0.91389 5.18203 0
M  V30 205 O 19.6635 -0.367234 5.68014 0
M  V30 206 N 20.8655 -2.23682 5.35674 0
M  V30 207 H 23.6305 0.96105 2.83873 0
M  V30 208 H 21.1915 0.654894 1.48063 0
M  V30 209 H 23.1835 -1.37844 3.80501 0
M  V30 210 H 21.7535 -1.48925 2.74846 0
M  V30 211 H 20.9735 0.726813 3.87442 0
M  V30 212 H 22.2615 0.474719 5.06581 0
M  V30 213 H 21.6595 -2.70497 4.96838 0
M  V30 214 H 20.2165 -2.77369 5.89839 0
M  V30 215 N 23.6496 -1.47581 0.552962 0
M  V30 216 C 24.8776 -2.06875 0.0320556 0
M  V30 217 C 25.2926 -1.40625 -1.25976 0
M  V30 218 O 24.6496 -0.501349 -1.75479 0
M  V30 219 C 24.7006 -3.61092 -0.17167 0
M  V30 220 O 24.4216 -4.24858 1.06899 0
M  V30 221 C 25.9226 -4.37242 -0.730344 0
M  V30 222 H 23.1426 -0.669561 0.043915 0
M  V30 223 H 25.6866 -1.89646 0.765163 0
M  V30 224 H 23.8416 -3.7785 -0.854894 0
M  V30 225 H 24.2556 -5.17334 0.864059 0
M  V30 226 H 25.7296 -5.45842 -0.822203 0
M  V30 227 H 26.2066 -4.03235 -1.74064 0
M  V30 228 H 26.8126 -4.25219 -0.0829543 0
M  V30 229 N 25.1277 -0.289203 -1.54924 0
M  V30 230 C 26.0377 0.601863 -2.26748 0
M  V30 231 C 27.0537 1.15834 -1.2984 0
M  V30 232 O 28.2297 1.18564 -1.62802 0
M  V30 233 C 25.2947 1.76299 -2.98529 0
M  V30 234 C 24.3557 1.24178 -4.10948 0
M  V30 235 C 23.5887 2.34757 -4.79296 0
M  V30 236 O 23.8117 3.54411 -4.46933 0
M  V30 237 O 22.7457 2.02115 -5.66951 0
M  V30 238 H 26.5717 0.0195879 -3.03694 0
M  V30 239 H 24.1567 -0.0560868 -1.49295 0
M  V30 240 H 26.0387 2.43973 -3.43592 0
M  V30 241 H 24.7137 2.33209 -2.24488 0
M  V30 242 H 23.6207 0.531104 -3.70311 0
M  V30 243 H 24.9537 0.718252 -4.86931 0
M  V30 244 N 26.6058 1.57591 -0.0167156 0
M  V30 245 C 28.0168 1.79201 0.523834 0
M  V30 246 C 28.3678 0.925796 1.72984 0
M  V30 247 O 27.4928 0.132792 2.15992 0
M  V30 248 C 28.0878 3.25 0.957091 0
M  V30 249 C 26.6468 3.47648 1.44283 0
M  V30 250 C 25.7938 2.74374 0.401757 0
M  V30 251 H 28.7448 1.56831 -0.242816 0
M  V30 252 H 28.7658 3.34031 1.82219 0
M  V30 253 H 28.2778 3.88019 0.0791415 0
M  V30 254 H 26.3788 2.89866 2.34113 0
M  V30 255 H 26.4918 4.56352 1.45877 0
M  V30 256 H 24.8558 2.39485 0.867121 0
M  V30 257 H 25.6388 3.40102 -0.467513 0
M  V30 258 N 28.0839 -0.256276 1.55502 0
M  V30 259 C 28.9939 -1.33882 1.92647 0
M  V30 260 C 30.0099 -1.53159 0.825727 0
M  V30 261 O 31.1859 -1.66963 1.12629 0
M  V30 262 C 28.2509 -2.6751 2.20543 0
M  V30 263 C 27.3119 -2.56836 3.43997 0
M  V30 264 C 26.5449 -3.84092 3.70553 0
M  V30 265 O 26.7679 -4.85545 2.99336 0
M  V30 266 O 25.7019 -3.83288 4.64084 0
M  V30 267 H 29.5279 -1.05374 2.84833 0
M  V30 268 H 27.1129 -0.456237 1.42263 0
M  V30 269 H 28.9949 -3.46492 2.39835 0
M  V30 270 H 27.6699 -2.9577 1.31536 0
M  V30 271 H 26.5769 -1.76172 3.30021 0
M  V30 272 H 27.9099 -2.33523 4.33275 0
M  V30 273 N 29.562 -1.4872 -0.521534 0
M  V30 274 C 30.973 -1.50607 -1.10337 0
M  V30 275 C 31.324 -0.280612 -1.94183 0
M  V30 276 O 30.449 0.611507 -2.0758 0
M  V30 277 C 31.044 -2.72903 -2.00772 0
M  V30 278 C 29.603 -2.77634 -2.54158 0
M  V30 279 C 28.75 -2.44241 -1.31307 0
M  V30 280 H 31.701 -1.55714 -0.306388 0
M  V30 281 H 31.722 -2.519 -2.85178 0
M  V30 282 H 31.234 -3.62077 -1.39721 0
M  V30 283 H 29.335 -1.92689 -3.18907 0
M  V30 284 H 29.448 -3.79283 -2.92714 0
M  V30 285 H 27.812 -1.95577 -1.63161 0
M  V30 286 H 28.595 -3.35666 -0.719943 0
M  V30 287 N 31.0401 0.771051 -1.3745 0
M  V30 288 C 32.0031 1.86598 -1.33093 0
M  V30 289 C 33.0031 1.59076 -0.234845 0
M  V30 290 O 34.1931 1.67145 -0.490732 0
M  V30 291 C 31.3251 3.23747 -1.06773 0
M  V30 292 H 32.5181 1.91873 -2.30488 0
M  V30 293 H 30.0711 0.970876 -1.2249 0
M  V30 294 H 30.8061 3.24148 -0.099129 0
M  V30 295 H 30.5911 3.45115 -1.86112 0
M  V30 296 H 32.0811 4.03824 -1.06377 0
M  V30 297 N 32.5182 1.22032 0.997298 0
M  V30 298 C 33.4812 0.987909 2.06816 0
M  V30 299 C 34.4812 -0.0440084 1.6074 0
M  V30 300 O 35.6712 0.194053 1.73116 0
M  V30 301 C 32.8032 0.49132 3.37341 0
M  V30 302 H 33.9962 1.93803 2.28868 0
M  V30 303 H 31.5492 1.03838 1.16822 0
M  V30 304 H 32.2842 -0.463364 3.20973 0
M  V30 305 H 32.0692 1.23575 3.72118 0
M  V30 306 H 33.5592 0.348824 4.16141 0
M  V30 307 N 33.9963 -1.19345 1.0293 0
M  V30 308 C 35.2243 -1.92997 0.745644 0
M  V30 309 C 35.6393 -1.75519 -0.695589 0
M  V30 310 O 34.9963 -1.07737 -1.47306 0
M  V30 311 C 35.0473 -3.44741 1.08792 0
M  V30 312 O 34.7683 -3.61658 2.47256 0
M  V30 313 C 36.2693 -4.35515 0.827129 0
M  V30 314 H 33.4893 -0.613042 0.272801 0
M  V30 315 H 36.0333 -1.51473 1.3739 0
M  V30 316 H 34.1883 -3.84097 0.504832 0
M  V30 317 H 34.6023 -4.55514 2.60015 0
M  V30 318 H 36.0763 -5.40589 1.11658 0
M  V30 319 H 36.5533 -4.38552 -0.238436 0
M  V30 320 H 37.1593 -4.01841 1.39297 0
M  V30 321 N 35.4744 -0.807222 -1.35358 0
M  V30 322 C 36.6994 -0.399309 -2.0352 0
M  V30 323 C 37.1244 0.981986 -1.60433 0
M  V30 324 O 36.4824 1.63601 -0.781299 0
M  V30 325 C 36.5304 -0.491552 -3.57234 0
M  V30 326 O 35.6344 0.494754 -4.09421 0
M  V30 327 H 34.9754 -0.166682 -0.642739 0
M  V30 328 H 37.5054 -1.09328 -1.72941 0
M  V30 329 H 37.5154 -0.361588 -4.06395 0
M  V30 330 H 36.1904 -1.49907 -3.87944 0
M  V30 331 H 34.7674 0.324977 -3.71481 0
M  V30 332 N 36.9525 1.47285 -0.560781 0
M  V30 333 C 37.8825 2.32857 0.173105 0
M  V30 334 C 38.8635 1.44009 0.905281 0
M  V30 335 O 40.0485 1.7286 0.885046 0
M  V30 336 C 37.1785 3.25861 1.20133 0
M  V30 337 C 36.1325 4.23978 0.585388 0
M  V30 338 C 35.4585 5.06332 1.7185 0
M  V30 339 C 36.7585 5.20242 -0.463178 0
M  V30 340 H 38.4525 2.94466 -0.541307 0
M  V30 341 H 35.9985 1.41601 -0.261764 0
M  V30 342 H 37.9515 3.84569 1.72293 0
M  V30 343 H 36.6755 2.62315 1.94573 0
M  V30 344 H 35.3345 3.66501 0.085054 0
M  V30 345 H 34.9825 4.39186 2.45203 0
M  V30 346 H 34.6825 5.72762 1.31213 0
M  V30 347 H 36.2065 5.67899 2.24329 0
M  V30 348 H 37.6205 5.73293 -0.027502 0
M  V30 349 H 36.0175 5.94896 -0.788627 0
M  V30 350 H 37.0875 4.65504 -1.35773 0
M  V30 351 N 38.4306 0.297415 1.54768 0
M  V30 352 C 39.3606 -0.573494 2.26348 0
M  V30 353 C 40.3416 -1.14085 1.26169 0
M  V30 354 O 41.5266 -1.17086 1.54934 0
M  V30 355 C 38.6566 -1.74716 3.00153 0
M  V30 356 C 37.6106 -1.31032 4.07449 0
M  V30 357 C 36.9366 -2.56887 4.68949 0
M  V30 358 C 38.2366 -0.444183 5.20408 0
M  V30 359 H 39.9306 0.0235131 2.99391 0
M  V30 360 H 37.4766 0.0127488 1.43994 0
M  V30 361 H 39.4296 -2.3625 3.48947 0
M  V30 362 H 38.1536 -2.37035 2.24682 0
M  V30 363 H 36.8126 -0.718066 3.59499 0
M  V30 364 H 36.4606 -3.17512 3.90122 0
M  V30 365 H 36.1606 -2.2836 5.41411 0
M  V30 366 H 37.6846 -3.19229 5.20505 0
M  V30 367 H 39.0986 -0.9651 5.65118 0
M  V30 368 H 37.4956 -0.252846 5.99567 0
M  V30 369 H 38.5656 0.531609 4.81977 0
M  V30 370 N 39.9087 -1.5758 0.0250728 0
M  V30 371 C 41.1337 -1.96337 -0.668317 0
M  V30 372 C 41.5587 -0.901314 -1.651 0
M  V30 373 O 40.9167 0.138187 -1.80773 0
M  V30 374 C 40.9647 -3.34191 -1.35457 0
M  V30 375 O 40.0687 -3.30269 -2.46974 0
M  V30 376 H 39.4097 -0.640281 -0.175887 0
M  V30 377 H 41.9397 -2.0442 0.0857224 0
M  V30 378 H 41.9497 -3.70331 -1.71228 0
M  V30 379 H 40.6247 -4.11036 -0.634218 0
M  V30 380 H 39.2017 -3.05841 -2.13344 0
M  V30 381 N 41.3868 0.248026 -1.55636 0
M  V30 382 C 42.3168 1.31079 -1.93237 0
M  V30 383 C 43.2978 1.50264 -0.797174 0
M  V30 384 O 44.4828 1.62891 -1.05737 0
M  V30 385 C 41.6128 2.66575 -2.22609 0
M  V30 386 C 40.5668 2.62087 -3.3837 0
M  V30 387 C 39.8928 4.01369 -3.53281 0
M  V30 388 C 41.1928 2.19171 -4.7409 0
M  V30 389 H 42.8868 0.998556 -2.82257 0
M  V30 390 H 40.4328 0.47891 -1.35803 0
M  V30 391 H 42.3858 3.41057 -2.47503 0
M  V30 392 H 41.1098 2.99432 -1.30414 0
M  V30 393 H 39.7688 1.90063 -3.13483 0
M  V30 394 H 39.4168 4.31489 -2.58508 0
M  V30 395 H 39.1168 3.99254 -4.31127 0
M  V30 396 H 40.6408 4.77552 -3.80495 0
M  V30 397 H 42.0548 2.83384 -4.98363 0
M  V30 398 H 40.4518 2.2817 -5.5503 0
M  V30 399 H 41.5218 1.14336 -4.71227 0
M  V30 400 N 42.8649 1.48995 0.513639 0
M  V30 401 C 44.1049 1.59452 1.27885 0
M  V30 402 C 44.4689 0.269479 1.90099 0
M  V30 403 O 45.6699 0.249139 2.67643 0
M  V30 404 C 43.9409 2.71277 2.32688 0
M  V30 405 S 45.4999 3.01604 3.18717 0
M  V30 406 H 42.3179 0.562565 0.434789 0
M  V30 407 H 44.9199 1.86595 0.583301 0
M  V30 408 H 43.6239 3.66089 1.8549 0
M  V30 409 H 43.1549 2.46086 3.06929 0
M  V30 410 H 45.1699 2.42155 4.331 0
M  V30 411 N 44.343 -0.763751 1.37857 0
M  V30 412 C 45.59 -1.52257 1.33506 0
M  V30 413 C 45.918 -1.94343 -0.078022 0
M  V30 414 O 45.173 -1.64958 -1.05297 0
M  V30 415 C 45.472 -2.79499 2.22745 0
M  V30 416 C 45.138 -2.56426 3.70886 0
M  V30 417 C 43.8 -2.49842 4.11257 0
M  V30 418 C 46.152 -2.36008 4.64704 0
M  V30 419 C 43.48 -2.20841 5.43549 0
M  V30 420 C 45.832 -2.0853 5.97242 0
M  V30 421 C 44.496 -2.00396 6.36709 0
M  V30 422 H 43.766 -0.557149 0.488534 0
M  V30 423 H 46.413 -0.879073 1.70131 0
M  V30 424 H 44.718 -3.48447 1.79142 0
M  V30 425 H 46.415 -3.37413 2.16688 0
M  V30 426 H 43.005 -2.62416 3.38874 0
M  V30 427 H 47.189 -2.40079 4.34368 0
M  V30 428 H 42.445 -2.13045 5.73081 0
M  V30 429 H 46.619 -1.91732 6.69486 0
M  V30 430 H 44.246 -1.77688 7.39142 0
M  V30 431 N 45.8211 -1.22559 -0.990812 0
M  V30 432 C 46.7511 -1.0218 -2.09956 0
M  V30 433 C 47.7321 0.0579394 -1.70001 0
M  V30 434 O 48.9171 -0.104684 -1.93918 0
M  V30 435 C 46.0471 -0.601023 -3.4206 0
M  V30 436 C 45.0011 -1.62694 -3.95872 0
M  V30 437 C 44.3271 -1.06193 -5.24049 0
M  V30 438 C 45.6271 -3.01743 -4.2632 0
M  V30 439 H 47.3211 -1.94916 -2.27262 0
M  V30 440 H 44.8671 -0.938566 -1.09211 0
M  V30 441 H 46.8201 -0.445561 -4.19038 0
M  V30 442 H 45.5441 0.362005 -3.24588 0
M  V30 443 H 44.2031 -1.77021 -3.21028 0
M  V30 444 H 43.8511 -0.0901903 -5.02919 0
M  V30 445 H 43.5511 -1.74732 -5.61019 0
M  V30 446 H 45.0751 -0.918092 -6.03658 0
M  V30 447 H 46.4891 -2.90777 -4.94087 0
M  V30 448 H 44.8861 -3.67425 -4.74467 0
M  V30 449 H 45.9561 -3.51518 -3.34011 0
M  V30 450 N 47.2992 1.18797 -1.03562 0
M  V30 451 C 48.7152 1.40671 -0.753917 0
M  V30 452 C 48.9152 1.9043 0.658686 0
M  V30 453 O 47.9712 2.08538 1.42366 0
M  V30 454 C 49.2842 2.41192 -1.79574 0
M  V30 455 C 50.8322 2.54928 -1.81606 0
M  V30 456 C 51.3072 3.58709 -2.84766 0
M  V30 457 N 52.7982 3.66212 -2.83625 0
M  V30 458 C 53.5332 4.46225 -3.60098 0
M  V30 459 N 53.0292 5.29888 -4.46308 0
M  V30 460 N 54.8222 4.40939 -3.4861 0
M  V30 461 H 46.9732 0.848221 -1.94728 0
M  V30 462 H 49.2362 0.435081 -0.842264 0
M  V30 463 H 48.9422 2.11669 -2.80872 0
M  V30 464 H 48.8162 3.40467 -1.62365 0
M  V30 465 H 51.2032 2.83771 -0.809817 0
M  V30 466 H 51.2842 1.55784 -2.02891 0
M  V30 467 H 50.9282 3.30607 -3.85566 0
M  V30 468 H 50.8582 4.57519 -2.60737 0
M  V30 469 H 53.3492 3.06466 -2.21105 0
M  V30 470 H 53.6622 5.88078 -5.01382 0
M  V30 471 H 52.0072 5.29326 -4.50377 0
M  V30 472 H 55.1982 3.74624 -2.80668 0
M  V30 473 H 55.3712 5.03056 -4.08459 0
M  V30 474 N 48.7773 0.814389 1.34928 0
M  V30 475 C 50.0053 0.411136 2.02774 0
M  V30 476 C 50.4203 -0.980316 1.61354 0
M  V30 477 O 49.7773 -1.63299 0.814847 0
M  V30 478 C 49.8283 0.493865 3.58111 0
M  V30 479 O 49.5493 1.83047 3.98027 0
M  V30 480 C 51.0503 0.0844174 4.4322 0
M  V30 481 H 48.2703 0.166037 0.650133 0
M  V30 482 H 50.8143 1.10018 1.72384 0
M  V30 483 H 48.9693 -0.147006 3.87121 0
M  V30 484 H 49.3833 1.79872 4.92693 0
M  V30 485 H 50.8573 0.193404 5.51661 0
M  V30 486 H 51.3343 -0.97113 4.28329 0
M  V30 487 H 51.9403 0.69875 4.19521 0
M  V30 488 N 50.2554 -1.46986 0.568584 0
M  V30 489 C 51.2184 -2.28624 -0.162366 0
M  V30 490 C 52.2184 -1.37596 -0.832103 0
M  V30 491 O 53.4084 -1.60115 -0.68622 0
M  V30 492 C 50.5404 -3.17596 -1.23878 0
M  V30 493 H 51.7334 -2.94722 0.554899 0
M  V30 494 H 49.2864 -1.52863 0.325976 0
M  V30 495 H 50.0214 -2.56214 -1.98808 0
M  V30 496 H 49.8064 -3.846 -0.763219 0
M  V30 497 H 51.2964 -3.79078 -1.75185 0
M  V30 498 N 51.7335 -0.305618 -1.54608 0
M  V30 499 C 52.9815 0.301701 -1.99835 0
M  V30 500 C 53.3025 1.54054 -1.19551 0
M  V30 501 O 52.5725 1.93702 -0.292658 0
M  V30 502 H 51.1525 0.114468 -0.738178 0
M  V30 503 H 53.8145 -0.418016 -1.90364 0
M  V30 504 H 52.9105 0.570548 -3.06841 0
M  V30 505 N 53.2116 1.57565 -0.0334293 0
M  V30 506 C 54.4576 1.92262 0.645226 0
M  V30 507 C 54.7906 0.910543 1.71531 0
M  V30 508 O 54.0656 -0.066099 1.94388 0
M  V30 509 C 54.3486 3.37422 1.2577 0
M  V30 510 C 54.2016 4.49369 0.196891 0
M  V30 511 C 55.5206 3.82628 2.17449 0
M  V30 512 H 52.6396 0.699171 0.233085 0
M  V30 513 H 55.2816 1.89779 -0.0915694 0
M  V30 514 H 53.4316 3.39669 1.88566 0
M  V30 515 H 55.1036 4.59254 -0.433962 0
M  V30 516 H 53.3466 4.31168 -0.477137 0
M  V30 517 H 54.0176 5.47978 0.665124 0
M  V30 518 H 56.4936 3.82145 1.64634 0
M  V30 519 H 55.3696 4.84883 2.57254 0
M  V30 520 H 55.6306 3.18376 3.0674 0
M  V30 521 N 54.6897 -0.239769 1.55765 0
M  V30 522 C 55.9357 -0.963942 1.79108 0
M  V30 523 C 56.2907 -1.82689 0.60352 0
M  V30 524 O 55.5837 -1.87313 -0.403033 0
M  V30 525 C 55.7777 -1.852 3.05672 0
M  V30 526 C 55.6067 -1.07651 4.36625 0
M  V30 527 C 54.3767 -0.778738 4.99263 0
M  V30 528 C 56.5747 -0.45062 5.12322 0
M  V30 529 N 54.5567 0.0200708 6.13897 0
M  V30 530 C 55.9277 0.212429 6.19636 0
M  V30 531 C 57.9827 -0.361806 4.96584 0
M  V30 532 C 56.6857 0.955772 7.12922 0
M  V30 533 C 58.7117 0.368023 5.90254 0
M  V30 534 C 58.0737 1.01968 6.96981 0
M  V30 535 H 54.1727 -0.333601 0.707272 0
M  V30 536 H 56.7567 -0.236425 1.93259 0
M  V30 537 H 54.9277 -2.55149 2.92837 0
M  V30 538 H 56.6597 -2.51228 3.1728 0
M  V30 539 H 53.4147 -1.09229 4.60832 0
M  V30 540 H 53.8387 0.407777 6.75771 0
M  V30 541 H 58.4807 -0.851286 4.14141 0
M  V30 542 H 56.1987 1.45683 7.9486 0
M  V30 543 H 59.7847 0.437504 5.80153 0
M  V30 544 H 58.6647 1.5754 7.68213 0
M  V30 545 N 56.1678 -1.49265 -0.50573 0
M  V30 546 C 57.4138 -1.58748 -1.26202 0
M  V30 547 C 57.7468 -0.271227 -1.92297 0
M  V30 548 O 57.0218 0.724831 -1.80489 0
M  V30 549 C 57.3048 -2.74332 -2.33268 0
M  V30 550 C 57.1578 -4.15737 -1.71705 0
M  V30 551 C 58.4768 -2.85576 -3.34865 0
M  V30 552 H 55.5958 -0.577826 -0.457478 0
M  V30 553 H 58.2378 -1.81532 -0.560897 0
M  V30 554 H 56.3878 -2.55036 -2.93068 0
M  V30 555 H 58.0598 -4.46537 -1.15769 0
M  V30 556 H 56.3028 -4.21605 -1.02135 0
M  V30 557 H 56.9738 -4.92477 -2.49341 0
M  V30 558 H 59.4498 -3.03127 -2.8505 0
M  V30 559 H 58.3258 -3.68135 -4.07146 0
M  V30 560 H 58.5868 -1.94732 -3.96903 0
M  V30 561 N 57.6459 0.756429 -1.3826 0
M  V30 562 C 59.0569 1.33359 -1.30661 0
M  V30 563 C 59.4079 1.96161 0.0388875 0
M  V30 564 O 58.5329 1.94874 0.940918 0
M  V30 565 C 59.1279 2.42477 -2.36622 0
M  V30 566 C 57.6869 2.95922 -2.3261 0
M  V30 567 C 56.8339 1.69275 -2.19639 0
M  V30 568 H 59.7849 0.55552 -1.4866 0
M  V30 569 H 59.8059 3.22345 -2.02174 0
M  V30 570 H 59.3179 1.96739 -3.34538 0
M  V30 571 H 57.4189 3.45996 -1.38267 0
M  V30 572 H 57.5319 3.50494 -3.26636 0
M  V30 573 H 55.8959 1.92793 -1.66442 0
M  V30 574 H 56.6789 1.25619 -3.19491 0
M  V30 575 N 59.124 1.23083 0.984299 0
M  V30 576 C 60.535 1.05609 1.5396 0
M  V30 577 C 60.886 -0.377793 1.92528 0
M  V30 578 O 60.011 -1.26398 1.75649 0
M  V30 579 C 60.606 1.91087 2.7977 0
M  V30 580 C 59.165 1.77885 3.31713 0
M  V30 581 C 58.312 1.87028 2.04733 0
M  V30 582 H 61.263 1.36802 0.804419 0
M  V30 583 H 61.284 1.43336 3.5247 0
M  V30 584 H 60.796 2.9544 2.51668 0
M  V30 585 H 58.897 0.762995 3.64704 0
M  V30 586 H 59.01 2.61047 4.01735 0
M  V30 587 H 57.374 1.30565 2.18689 0
M  V30 588 H 58.157 2.92929 1.79017 0
M  V30 589 N 60.6021 -1.18246 1.0419 0
M  V30 590 C 61.5351 -2.20746 0.578474 0
M  V30 591 C 62.5131 -1.57912 -0.387624 0
M  V30 592 O 63.6971 -1.86071 -0.301634 0
M  V30 593 C 60.8241 -3.38346 -0.154762 0
M  V30 594 C 59.8701 -4.19587 0.764782 0
M  V30 595 S 60.7031 -4.86014 2.24835 0
M  V30 596 C 61.8591 -6.07012 1.526 0
M  V30 597 H 62.0921 -2.59715 1.44691 0
M  V30 598 H 59.6251 -1.287 0.85297 0
M  V30 599 H 61.5831 -4.065 -0.571641 0
M  V30 600 H 60.2441 -2.97786 -0.999105 0
M  V30 601 H 59.4371 -5.03611 0.197976 0
M  V30 602 H 59.0391 -3.56818 1.12057 0
M  V30 603 H 61.3311 -6.72523 0.819733 0
M  V30 604 H 62.2741 -6.68202 2.34333 0
M  V30 605 H 62.6821 -5.55249 1.01779 0
M  V30 606 N 62.0802 -0.821533 -1.34494 0
M  V30 607 C 63.3102 -0.421272 -2.02259 0
M  V30 608 C 63.7182 0.977047 -1.6202 0
M  V30 609 O 63.0612 1.64348 -0.820703 0
M  V30 610 C 63.1232 -0.44231 -3.56769 0
M  V30 611 C 62.7872 -1.79372 -4.20327 0
M  V30 612 C 63.7842 -2.75435 -4.40944 0
M  V30 613 C 61.4692 -2.08182 -4.57127 0
M  V30 614 C 63.4632 -3.98482 -4.97484 0
M  V30 615 C 61.1502 -3.31489 -5.13379 0
M  V30 616 C 62.1482 -4.26457 -5.33501 0
M  V30 617 O 61.8362 -5.47585 -5.88562 0
M  V30 618 H 61.5682 -0.167473 -0.654927 0
M  V30 619 H 64.1222 -1.11073 -1.72777 0
M  V30 620 H 62.3522 0.303836 -3.85505 0
M  V30 621 H 64.0412 -0.0622925 -4.05852 0
M  V30 622 H 64.8072 -2.54473 -4.12878 0
M  V30 623 H 60.6862 -1.35066 -4.4077 0
M  V30 624 H 64.2302 -4.72618 -5.13106 0
M  V30 625 H 60.1272 -3.52316 -5.40873 0
M  V30 626 H 60.8952 -5.49086 -6.06998 0
M  V30 627 N 63.5583 1.46682 -0.576371 0
M  V30 628 C 64.4883 2.33028 0.148397 0
M  V30 629 C 65.4693 1.44961 0.889956 0
M  V30 630 O 66.6543 1.73789 0.866662 0
M  V30 631 C 63.7843 3.27117 1.1667 0
M  V30 632 C 62.7383 4.24575 0.540386 0
M  V30 633 C 62.0643 5.08126 1.6647 0
M  V30 634 C 63.3643 5.19722 -0.518331 0
M  V30 635 H 65.0583 2.93875 -0.572509 0
M  V30 636 H 62.6043 1.41315 -0.276768 0
M  V30 637 H 64.5573 3.86374 1.68204 0
M  V30 638 H 63.2813 2.64364 1.9178 0
M  V30 639 H 61.9403 3.66571 0.0461769 0
M  V30 640 H 61.5883 4.41762 2.40531 0
M  V30 641 H 61.2883 5.74122 1.25131 0
M  V30 642 H 62.8123 5.70246 2.18293 0
M  V30 643 H 64.2263 5.73232 -0.0883058 0
M  V30 644 H 62.6233 5.94026 -0.851679 0
M  V30 645 H 63.6933 4.64037 -1.40703 0
M  V30 646 N 65.0364 0.313813 1.54444 0
M  V30 647 C 66.2824 -0.284918 2.01395 0
M  V30 648 C 66.6374 -1.50537 1.19818 0
M  V30 649 O 65.9304 -1.89692 0.269748 0
M  V30 650 C 66.1244 -0.680386 3.50864 0
M  V30 651 C 65.9534 0.500198 4.4691 0
M  V30 652 C 64.7234 0.996248 4.95382 0
M  V30 653 C 66.9214 1.34928 4.96285 0
M  V30 654 N 64.9034 2.14226 5.75309 0
M  V30 655 C 66.2744 2.3426 5.7404 0
M  V30 656 C 68.3294 1.37818 4.78446 0
M  V30 657 C 67.0324 3.36272 6.35856 0
M  V30 658 C 69.0584 2.38695 5.4109 0
M  V30 659 C 68.4204 3.36755 6.18688 0
M  V30 660 H 64.5194 -0.0683689 0.779006 0
M  V30 661 H 67.1034 0.44664 1.89508 0
M  V30 662 H 65.2744 -1.38109 3.63016 0
M  V30 663 H 67.0064 -1.25975 3.84594 0
M  V30 664 H 63.7614 0.56912 4.70168 0
M  V30 665 H 64.1854 2.72005 6.19953 0
M  V30 666 H 68.8274 0.633747 4.18023 0
M  V30 667 H 66.5454 4.11627 6.95405 0
M  V30 668 H 70.1314 2.41721 5.29209 0
M  V30 669 H 69.0114 4.13535 6.66302 0
M  V30 670 N 66.5145 -1.57545 0.0417849 0
M  V30 671 C 67.7605 -1.92601 -0.635021 0
M  V30 672 C 68.0935 -0.919627 -1.71045 0
M  V30 673 O 67.3685 0.0557892 -1.9442 0
M  V30 674 C 67.6515 -3.38085 -1.23979 0
M  V30 675 C 67.5045 -4.49467 -0.173057 0
M  V30 676 C 68.8235 -3.83776 -2.15416 0
M  V30 677 H 65.9425 -0.700397 -0.229374 0
M  V30 678 H 68.5845 -1.89728 0.101633 0
M  V30 679 H 66.7345 -3.40664 -1.86762 0
M  V30 680 H 68.4065 -4.59018 0.458312 0
M  V30 681 H 66.6495 -4.30909 0.499996 0
M  V30 682 H 67.3205 -5.48323 -0.636054 0
M  V30 683 H 69.7965 -3.83013 -1.62605 0
M  V30 684 H 68.6725 -4.8624 -2.54679 0
M  V30 685 H 68.9335 -3.19998 -3.05047 0
M  V30 686 N 67.9926 0.231505 -1.5589 0
M  V30 687 C 68.9226 1.29022 -1.94617 0
M  V30 688 C 69.9036 1.4941 -0.813067 0
M  V30 689 O 71.0886 1.6176 -1.07459 0
M  V30 690 C 68.2186 2.64199 -2.25424 0
M  V30 691 C 67.1726 2.58484 -3.41131 0
M  V30 692 C 66.4986 3.97599 -3.57518 0
M  V30 693 C 67.7986 2.1413 -4.76388 0
M  V30 694 H 69.4926 0.968563 -2.83301 0
M  V30 695 H 67.0386 0.464479 -1.36303 0
M  V30 696 H 68.9916 3.38413 -2.51107 0
M  V30 697 H 67.7156 2.98032 -1.33583 0
M  V30 698 H 66.3746 1.86727 -3.15481 0
M  V30 699 H 66.0226 4.28723 -2.6307 0
M  V30 700 H 65.7226 3.94659 -4.35337 0
M  V30 701 H 67.2466 4.7349 -3.85538 0
M  V30 702 H 68.6606 2.78083 -5.01341 0
M  V30 703 H 67.0576 2.2227 -5.57419 0
M  V30 704 H 68.1276 1.09331 -4.72414 0
M  V30 705 N 69.4707 1.49531 0.497807 0
M  V30 706 C 70.7187 1.58865 1.24926 0
M  V30 707 C 71.0397 0.278721 1.92998 0
M  V30 708 O 70.3097 -0.702144 1.82885 0
M  V30 709 H 68.8897 0.585343 0.464094 0
M  V30 710 H 71.5517 1.86174 0.57666 0
M  V30 711 H 70.6477 2.38633 2.01149 0
M  V30 712 N 70.9488 -0.749086 1.3866 0
M  V30 713 C 72.3598 -1.32664 1.31366 0
M  V30 714 C 72.7108 -1.96179 -0.028484 0
M  V30 715 O 71.8358 -1.9537 -0.93057 0
M  V30 716 C 72.4308 -2.41219 2.37905 0
M  V30 717 C 70.9898 -2.94684 2.34176 0
M  V30 718 C 70.1368 -1.68108 2.20533 0
M  V30 719 H 73.0878 -0.547628 1.48952 0
M  V30 720 H 73.1088 -3.21268 2.0388 0
M  V30 721 H 72.6208 -1.94962 3.35576 0
M  V30 722 H 70.7218 -3.45258 1.401 0
M  V30 723 H 70.8348 -3.48757 3.2849 0
M  V30 724 H 69.1988 -1.91907 1.67463 0
M  V30 725 H 69.9818 -1.23923 3.20153 0
M  V30 726 N 72.4269 -1.23603 -0.977757 0
M  V30 727 C 73.6759 -1.06377 -1.71368 0
M  V30 728 C 73.9889 0.399062 -1.91486 0
M  V30 729 O 75.1949 0.691312 -2.62551 0
M  V30 730 C 73.6509 -1.85512 -3.08404 0
M  V30 731 C 73.2589 -3.36141 -2.96164 0
M  V30 732 C 75.0029 -1.76783 -3.85938 0
M  V30 733 C 72.9099 -4.07659 -4.28449 0
M  V30 734 H 71.8399 -0.394452 -0.642591 0
M  V30 735 H 74.4909 -1.47594 -1.09034 0
M  V30 736 H 72.8729 -1.37103 -3.71509 0
M  V30 737 H 74.0469 -3.92056 -2.42133 0
M  V30 738 H 72.3619 -3.45712 -2.32104 0
M  V30 739 H 74.9589 -2.27526 -4.83876 0
M  V30 740 H 75.3019 -0.731116 -4.0983 0
M  V30 741 H 75.8349 -2.22818 -3.2954 0
M  V30 742 H 72.5739 -5.11648 -4.09752 0
M  V30 743 H 72.0939 -3.5653 -4.82334 0
M  V30 744 H 73.7729 -4.141 -4.97122 0
M  V30 745 N 73.905 1.17692 -1.04816 0
M  V30 746 C 75.135 1.91508 -0.775128 0
M  V30 747 C 75.543 1.76844 0.67253 0
M  V30 748 O 74.886 1.10057 1.47082 0
M  V30 749 C 74.948 3.43167 -1.0713 0
M  V30 750 C 74.612 3.81612 -2.51438 0
M  V30 751 C 75.609 3.84772 -3.49638 0
M  V30 752 C 73.294 4.12687 -2.86348 0
M  V30 753 C 75.288 4.18469 -4.80794 0
M  V30 754 C 72.975 4.46053 -4.17708 0
M  V30 755 C 73.973 4.48921 -5.14741 0
M  V30 756 O 73.661 4.81504 -6.43746 0
M  V30 757 H 73.393 0.614575 -0.281555 0
M  V30 758 H 75.947 1.50206 -1.40098 0
M  V30 759 H 74.177 3.84745 -0.388342 0
M  V30 760 H 75.866 3.98239 -0.784883 0
M  V30 761 H 76.632 3.60893 -3.24008 0
M  V30 762 H 72.511 4.09627 -2.11486 0
M  V30 763 H 76.055 4.20623 -5.56527 0
M  V30 764 H 71.952 4.69393 -4.43103 0
M  V30 765 H 72.72 4.99377 -6.4851 0
M  V30 766 N 75.3831 0.828654 1.34056 0
M  V30 767 C 76.3131 0.269443 2.3194 0
M  V30 768 C 77.2941 -0.617247 1.58506 0
M  V30 769 O 78.4791 -0.542931 1.86456 0
M  V30 770 C 75.6091 -0.564793 3.42677 0
M  V30 771 C 74.5631 0.225241 4.27407 0
M  V30 772 C 73.8891 -0.7321 5.29664 0
M  V30 773 C 75.1891 1.43663 5.02154 0
M  V30 774 H 76.8831 1.08728 2.7896 0
M  V30 775 H 74.4291 0.524283 1.34117 0
M  V30 776 H 76.3821 -0.966233 4.10173 0
M  V30 777 H 75.1061 -1.41574 2.9432 0
M  V30 778 H 73.7651 0.608117 3.61521 0
M  V30 779 H 73.4131 -1.57916 4.77568 0
M  V30 780 H 73.1131 -0.20767 5.87233 0
M  V30 781 H 74.6371 -1.13128 6.00029 0
M  V30 782 H 76.0511 1.1089 5.62473 0
M  V30 783 H 74.4481 1.89711 5.69324 0
M  V30 784 H 75.5181 2.21181 4.31517 0
M  V30 785 N 76.8612 -1.46375 0.584142 0
M  V30 786 C 77.7912 -2.33103 -0.136037 0
M  V30 787 C 78.7722 -1.45431 -0.882255 0
M  V30 788 O 79.9572 -1.74246 -0.857434 0
M  V30 789 C 77.0872 -3.27731 -1.14933 0
M  V30 790 C 76.0412 -4.24855 -0.517862 0
M  V30 791 C 75.3672 -5.09001 -1.63773 0
M  V30 792 C 76.6672 -5.19439 0.545886 0
M  V30 793 H 78.3612 -2.93568 0.588086 0
M  V30 794 H 75.9072 -1.41166 0.284259 0
M  V30 795 H 77.8602 -3.87261 -1.66153 0
M  V30 796 H 76.5842 -2.65377 -1.90375 0
M  V30 797 H 75.2432 -3.6659 -0.0267361 0
M  V30 798 H 74.8912 -4.43031 -2.38185 0
M  V30 799 H 74.5912 -5.74777 -1.22085 0
M  V30 800 H 76.1152 -5.71396 -2.15266 0
M  V30 801 H 77.5292 -5.73177 0.118704 0
M  V30 802 H 75.9262 -5.93566 0.88317 0
M  V30 803 H 76.9962 -4.63285 1.43162 0
M  V30 804 N 78.3393 -0.321999 -1.54275 0
M  V30 805 C 79.5863 0.281044 -2.0054 0
M  V30 806 C 79.9143 1.52265 -1.21019 0
M  V30 807 O 79.1693 1.93687 -0.279982 0
M  V30 808 C 79.4683 0.661769 -3.5122 0
M  V30 809 C 79.1343 -0.480482 -4.48333 0
M  V30 810 C 77.7963 -0.794005 -4.74604 0
M  V30 811 C 80.1483 -1.24783 -5.06042 0
M  V30 812 C 77.4763 -1.87763 -5.55844 0
M  V30 813 C 79.8283 -2.32153 -5.88462 0
M  V30 814 C 78.4923 -2.64089 -6.13036 0
M  V30 815 H 77.7623 0.102841 -0.733829 0
M  V30 816 H 80.4093 -0.445453 -1.86247 0
M  V30 817 H 78.7143 1.46867 -3.63232 0
M  V30 818 H 80.4113 1.13989 -3.84457 0
M  V30 819 H 77.0013 -0.226039 -4.28004 0
M  V30 820 H 81.1853 -1.01887 -4.85729 0
M  V30 821 H 76.4413 -2.12954 -5.73115 0
M  V30 822 H 80.6153 -2.92057 -6.32199 0
M  V30 823 H 78.2423 -3.48185 -6.75775 0
M  V30 824 N 79.8174 1.5752 -0.0501392 0
M  V30 825 C 81.0664 1.91827 0.623328 0
M  V30 826 C 81.3794 0.930222 1.72065 0
M  V30 827 O 82.5854 1.1653 2.4522 0
M  V30 828 C 81.0414 3.40692 1.16003 0
M  V30 829 C 80.6494 4.479 0.0948811 0
M  V30 830 C 82.3934 3.84034 1.80881 0
M  V30 831 C 80.3004 5.87879 0.644411 0
M  V30 832 H 79.2304 0.715918 0.236596 0
M  V30 833 H 81.8814 1.83115 -0.118861 0
M  V30 834 H 80.2634 3.44405 1.9545 0
M  V30 835 H 81.4374 4.55775 -0.678675 0
M  V30 836 H 79.7524 4.13892 -0.45637 0
M  V30 837 H 82.3494 4.85984 2.22988 0
M  V30 838 H 82.6924 3.20225 2.6601 0
M  V30 839 H 83.2254 3.82833 1.0809 0
M  V30 840 H 79.9644 6.55282 -0.169229 0
M  V30 841 H 79.4844 5.83567 1.38598 0
M  V30 842 H 81.1634 6.37098 1.12763 0
M  V30 843 N 81.2955 -0.223234 1.56011 0
M  V30 844 C 82.2455 -1.28008 1.88674 0
M  V30 845 C 83.2295 -1.42369 0.749663 0
M  V30 846 O 84.4215 -1.45212 1.01205 0
M  V30 847 C 81.5505 -2.63084 2.20548 0
M  V30 848 C 80.6365 -2.52632 3.40643 0
M  V30 849 N 81.0275 -2.11829 4.59306 0
M  V30 850 C 79.3255 -2.83594 3.44224 0
M  V30 851 C 80.0265 -2.12587 5.41463 0
M  V30 852 N 79.0025 -2.5301 4.81131 0
M  V30 853 H 82.8045 -0.955487 2.77935 0
M  V30 854 H 80.3185 -0.431801 1.56554 0
M  V30 855 H 82.3155 -3.39385 2.42122 0
M  V30 856 H 80.9755 -2.96391 1.32599 0
M  V30 857 H 81.9865 -1.82988 4.84496 0
M  V30 858 H 78.6635 -3.21284 2.66614 0
M  V30 859 H 80.0535 -1.83179 6.46448 0
M  V30 860 N 82.7736 -1.49793 -0.48987 0
M  V30 861 C 83.7236 -1.63673 -1.5873 0
M  V30 862 C 84.7076 -0.491956 -1.53195 0
M  V30 863 O 85.8996 -0.745461 -1.60536 0
M  V30 864 C 83.0286 -1.71689 -2.97284 0
M  V30 865 C 82.1146 -2.91781 -3.07774 0
M  V30 866 N 82.5056 -4.15714 -2.88124 0
M  V30 867 C 80.8036 -2.89949 -3.38889 0
M  V30 868 C 81.5046 -4.965 -3.03088 0
M  V30 869 N 80.4806 -4.30083 -3.3246 0
M  V30 870 H 84.2826 -2.57204 -1.42208 0
M  V30 871 H 81.7966 -1.46719 -0.69623 0
M  V30 872 H 83.7936 -1.79732 -3.76168 0
M  V30 873 H 82.4536 -0.793024 -3.14867 0
M  V30 874 H 83.4646 -4.45515 -2.64077 0
M  V30 875 H 80.1416 -2.06987 -3.62578 0
M  V30 876 H 81.5316 -6.04991 -2.92294 0
M  V30 877 N 84.2517 0.741722 -1.39055 0
M  V30 878 C 85.2017 1.84661 -1.33732 0
M  V30 879 C 86.1857 1.59397 -0.219401 0
M  V30 880 O 87.3777 1.71015 -0.456375 0
M  V30 881 C 84.5067 3.22512 -1.17647 0
M  V30 882 C 83.5927 3.53628 -2.34112 0
M  V30 883 N 83.9837 3.55723 -3.59576 0
M  V30 884 C 82.2817 3.83956 -2.26923 0
M  V30 885 C 82.9827 3.84443 -4.36553 0
M  V30 886 N 81.9587 4.01877 -3.66055 0
M  V30 887 H 85.7607 1.84576 -2.28711 0
M  V30 888 H 83.2747 0.939647 -1.32455 0
M  V30 889 H 85.2717 4.01597 -1.11917 0
M  V30 890 H 83.9317 3.2384 -0.236124 0
M  V30 891 H 84.9427 3.37196 -3.93089 0
M  V30 892 H 81.6197 3.92929 -1.41113 0
M  V30 893 H 83.0097 3.92588 -5.45274 0
M  V30 894 N 85.7298 1.2412 0.971189 0
M  V30 895 C 86.9778 1.07668 1.71032 0
M  V30 896 C 87.2988 -0.385797 1.91146 0
M  V30 897 O 86.5688 -1.27569 1.4867 0
M  V30 898 H 85.1488 0.395429 0.633755 0
M  V30 899 H 87.8108 1.55984 1.16855 0
M  V30 900 H 86.9068 1.57195 2.69622 0
M  V30 901 N 87.2079 -1.17134 1.05439 0
M  V30 902 C 88.6239 -1.39454 0.776201 0
M  V30 903 C 88.8239 -1.91454 -0.628307 0
M  V30 904 O 87.8799 -2.10777 -1.39031 0
M  V30 905 C 89.1929 -2.38305 1.83388 0
M  V30 906 C 90.7409 -2.52006 1.85639 0
M  V30 907 C 91.2159 -3.54133 2.90437 0
M  V30 908 N 92.7069 -3.61653 2.89415 0
M  V30 909 C 93.4419 -4.4044 3.67152 0
M  V30 910 N 92.9379 -5.22721 4.54681 0
M  V30 911 N 94.7309 -4.35337 3.55581 0
M  V30 912 H 86.8819 -0.817134 1.96053 0
M  V30 913 H 89.1449 -0.421626 0.849079 0
M  V30 914 H 88.8509 -2.07173 2.84204 0
M  V30 915 H 88.7249 -3.37841 1.67761 0
M  V30 916 H 91.1119 -2.82447 0.85486 0
M  V30 917 H 91.1929 -1.52537 2.05344 0
M  V30 918 H 90.8369 -3.24431 3.90777 0
M  V30 919 H 90.7669 -4.53313 2.67983 0
M  V30 920 H 93.2579 -3.02909 2.25952 0
M  V30 921 H 93.5709 -5.80027 5.10674 0
M  V30 922 H 91.9159 -5.22093 4.58741 0
M  V30 923 H 95.1069 -3.70112 2.86592 0
M  V30 924 H 95.2799 -4.96494 4.1641 0
M  V30 925 N 88.686 -0.835752 -1.33615 0
M  V30 926 C 89.934 -0.429109 -1.97492 0
M  V30 927 C 90.255 1.01433 -1.66543 0
M  V30 928 O 89.525 1.70611 -0.962744 0
M  V30 929 H 88.105 -0.155686 -0.730596 0
M  V30 930 H 90.767 -1.06802 -1.63031 0
M  V30 931 H 89.863 -0.55861 -3.0706 0
M  V30 932 N 90.1641 1.46063 -0.591896 0
M  V30 933 C 91.3941 2.06418 -0.0867676 0
M  V30 934 C 91.8021 1.43975 1.22751 0
M  V30 935 O 91.1451 0.542531 1.75506 0
M  V30 936 C 91.2071 3.59213 0.143725 0
M  V30 937 C 90.8711 4.439 -1.08635 0
M  V30 938 C 91.8681 4.79864 -2.00067 0
M  V30 939 C 89.5531 4.84896 -1.31077 0
M  V30 940 C 91.5471 5.55661 -3.12282 0
M  V30 941 C 89.2341 5.6045 -2.43596 0
M  V30 942 C 90.2321 5.95747 -3.34027 0
M  V30 943 O 89.9201 6.69772 -4.4459 0
M  V30 944 H 89.6521 0.673443 -0.0587447 0
M  V30 945 H 92.2061 1.88539 -0.814994 0
M  V30 946 H 90.4361 3.75433 0.926668 0
M  V30 947 H 92.1251 4.01463 0.5985 0
M  V30 948 H 92.8911 4.48763 -1.83947 0
M  V30 949 H 88.7701 4.56867 -0.61594 0
M  V30 950 H 92.3141 5.8313 -3.82891 0
M  V30 951 H 88.2111 5.90965 -2.59674 0
M  V30 952 H 88.9791 6.88207 -4.43073 0
M  V30 953 N 91.6422 0.330177 1.54103 0
M  V30 954 C 92.5722 -0.525353 2.27513 0
M  V30 955 C 93.5532 -1.11383 1.2856 0
M  V30 956 O 94.7382 -1.13773 1.57383 0
M  V30 957 C 91.8682 -1.6831 3.03791 0
M  V30 958 C 90.8222 -1.2236 4.10137 0
M  V30 959 C 90.1482 -2.46882 4.74293 0
M  V30 960 C 91.4482 -0.333697 5.21233 0
M  V30 961 H 93.1422 0.087013 2.99274 0
M  V30 962 H 90.6882 0.0432893 1.43935 0
M  V30 963 H 92.6412 -2.28795 3.5388 0
M  V30 964 H 91.3652 -2.32216 2.29659 0
M  V30 965 H 90.0242 -0.64165 3.60941 0
M  V30 966 H 89.6722 -3.09165 3.96769 0
M  V30 967 H 89.3722 -2.16825 5.46133 0
M  V30 968 H 90.8962 -3.08117 5.27159 0
M  V30 969 H 92.3102 -0.845013 5.67038 0
M  V30 970 H 90.7072 -0.125612 5.99969 0
M  V30 971 H 91.7772 0.633724 4.80741 0
M  V30 972 N 93.1203 -1.57491 0.0584922 0
M  V30 973 C 94.5363 -1.56792 -0.298091 0
M  V30 974 C 94.7363 -1.06679 -1.70944 0
M  V30 975 O 93.7923 -0.726672 -2.41818 0
M  V30 976 C 95.1053 -3.00461 -0.119879 0
M  V30 977 C 96.6533 -3.1242 -0.190428 0
M  V30 978 C 97.1283 -4.57982 -0.0406567 0
M  V30 979 N 98.6193 -4.63099 -0.0966958 0
M  V30 980 C 99.3543 -5.734 -0.00502943 0
M  V30 981 N 98.8503 -6.9266 0.139402 0
M  V30 982 N 100.643 -5.62067 -0.0611391 0
M  V30 983 H 92.7943 -1.88386 0.98105 0
M  V30 984 H 95.0573 -0.867865 0.381463 0
M  V30 985 H 94.7633 -3.41187 0.85349 0
M  V30 986 H 94.6373 -3.66843 -0.877833 0
M  V30 987 H 97.0243 -2.71589 -1.15427 0
M  V30 988 H 97.1053 -2.48702 0.598405 0
M  V30 989 H 96.7493 -4.995 0.919897 0
M  V30 990 H 96.6793 -5.19715 -0.848727 0
M  V30 991 H 99.1703 -3.77331 -0.207277 0
M  V30 992 H 99.4833 -7.72536 0.201855 0
M  V30 993 H 97.8283 -6.94781 0.174586 0
M  V30 994 H 101.019 -4.67782 -0.172583 0
M  V30 995 H 101.192 -6.47999 0.0137562 0
M  V30 996 N 94.5984 0.214957 -1.56127 0
M  V30 997 C 95.5314 1.29382 -1.87977 0
M  V30 998 C 96.5094 1.44897 -0.737807 0
M  V30 999 O 97.6934 1.60605 -0.986833 0
M  V30 1000 C 94.8204 2.66325 -2.09258 0
M  V30 1001 C 93.8664 2.67789 -3.31951 0
M  V30 1002 S 94.6994 2.21198 -4.8768 0
M  V30 1003 C 95.8554 3.60003 -5.12004 0
M  V30 1004 H 96.0884 1.02173 -2.79192 0
M  V30 1005 H 93.6214 0.417516 -1.48648 0
M  V30 1006 H 95.5794 3.45162 -2.22201 0
M  V30 1007 H 94.2404 2.90755 -1.18829 0
M  V30 1008 H 93.4334 3.68436 -3.43906 0
M  V30 1009 H 93.0354 1.9702 -3.17898 0
M  V30 1010 H 95.3274 4.55739 -5.01307 0
M  V30 1011 H 96.2704 3.52959 -6.13861 0
M  V30 1012 H 96.6784 3.53996 -4.39712 0
M  V30 1013 N 96.0765 1.50051 0.48192 0
M  V30 1014 C 97.3015 1.64508 1.26301 0
M  V30 1015 C 97.7265 0.323851 1.85291 0
M  V30 1016 O 97.0845 -0.710969 1.66778 0
M  V30 1017 C 97.1325 2.7305 2.35533 0
M  V30 1018 O 96.2365 2.3355 3.39895 0
M  V30 1019 H 95.5775 0.549978 0.372048 0
M  V30 1020 H 98.1075 1.9636 0.574786 0
M  V30 1021 H 98.1175 2.95799 2.8101 0
M  V30 1022 H 96.7925 3.68946 1.91967 0
M  V30 1023 H 95.3695 2.21205 3.00204 0
M  V30 1024 N 97.5546 -0.734337 1.39446 0
M  V30 1025 C 98.9656 -1.31264 1.32766 0
M  V30 1026 C 99.3166 -1.96198 -0.00767497 0
M  V30 1027 O 98.4416 -1.96346 -0.909796 0
M  V30 1028 C 99.0366 -2.38682 2.4045 0
M  V30 1029 C 97.5956 -2.92184 2.37288 0
M  V30 1030 C 96.7426 -1.6576 2.22304 0
M  V30 1031 H 99.6936 -0.531799 1.49525 0
M  V30 1032 H 99.7146 -3.19087 2.07276 0
M  V30 1033 H 99.2266 -1.91392 3.37625 0
M  V30 1034 H 97.3276 -3.43752 1.43754 0
M  V30 1035 H 97.4406 -3.45253 3.3217 0
M  V30 1036 H 95.8046 -1.9012 1.69489 0
M  V30 1037 H 96.5876 -1.20521 3.21449 0
M  V30 1038 N 99.0327 -1.24633 -0.964593 0
M  V30 1039 C 99.9627 -1.06611 -2.07741 0
M  V30 1040 C 100.944 0.0218666 -1.70086 0
M  V30 1041 O 102.129 -0.145793 -1.93652 0
M  V30 1042 C 99.2587 -0.673444 -3.40708 0
M  V30 1043 C 98.2127 -1.71054 -3.92332 0
M  V30 1044 C 97.5387 -1.17285 -5.21678 0
M  V30 1045 C 98.8387 -3.10718 -4.19824 0
M  V30 1046 H 100.533 -1.99693 -2.23076 0
M  V30 1047 H 98.0787 -0.96152 -1.07195 0
M  V30 1048 H 100.032 -0.534345 -4.17998 0
M  V30 1049 H 98.7557 0.293073 -3.25282 0
M  V30 1050 H 97.4147 -1.83791 -3.17201 0
M  V30 1051 H 97.0627 -0.196847 -5.02615 0
M  V30 1052 H 96.7627 -1.86592 -5.57187 0
M  V30 1053 H 98.2867 -1.04593 -6.01575 0
M  V30 1054 H 99.7007 -3.01192 -4.87808 0
M  V30 1055 H 98.0977 -3.77406 -4.66567 0
M  V30 1056 H 99.1677 -3.58524 -3.26479 0
M  V30 1057 N 100.511 1.16574 -1.06058 0
M  V30 1058 C 101.758 1.87047 -0.775873 0
M  V30 1059 C 102.086 1.81562 0.697534 0
M  V30 1060 O 101.341 1.22445 1.52662 0
M  V30 1061 C 101.64 3.36195 -1.21275 0
M  V30 1062 C 101.306 3.6188 -2.68986 0
M  V30 1063 C 99.9678 3.68599 -3.09335 0
M  V30 1064 C 102.32 3.72648 -3.64394 0
M  V30 1065 C 99.6478 3.83584 -4.43937 0
M  V30 1066 C 102 3.89154 -4.98741 0
M  V30 1067 C 100.664 3.94114 -5.3873 0
M  V30 1068 H 99.9338 0.684452 -0.283912 0
M  V30 1069 H 102.581 1.37853 -1.32925 0
M  V30 1070 H 100.886 3.87505 -0.578528 0
M  V30 1071 H 102.583 3.89103 -0.969542 0
M  V30 1072 H 99.1728 3.57281 -2.36744 0
M  V30 1073 H 103.357 3.66769 -3.34356 0
M  V30 1074 H 98.6128 3.85677 -4.74409 0
M  V30 1075 H 102.787 3.96427 -5.72554 0
M  V30 1076 H 100.414 4.05478 -6.43033 0
M  V30 1077 N 101.989 0.842826 1.3317 0
M  V30 1078 C 102.936 0.276885 2.29133 0
M  V30 1079 C 103.906 -0.609527 1.54512 0
M  V30 1080 O 105.091 -0.546955 1.82792 0
M  V30 1081 C 102.231 -0.538707 3.40869 0
M  V30 1082 C 101.344 0.372169 4.30394 0
M  V30 1083 C 100.479 -0.454908 5.29249 0
M  V30 1084 C 99.5179 0.45411 6.10413 0
M  V30 1085 N 98.6549 -0.335075 7.013 0
M  V30 1086 H 103.495 1.10052 2.76934 0
M  V30 1087 H 101.032 0.554161 1.36262 0
M  V30 1088 H 102.99 -1.02709 4.0436 0
M  V30 1089 H 101.62 -1.32727 2.9425 0
M  V30 1090 H 100.672 0.97888 3.6759 0
M  V30 1091 H 101.984 1.0703 4.87182 0
M  V30 1092 H 101.138 -1.00695 5.98285 0
M  V30 1093 H 99.8769 -1.18646 4.73048 0
M  V30 1094 H 98.8819 1.01813 5.40291 0
M  V30 1095 H 100.107 1.18409 6.68697 0
M  V30 1096 H 98.0529 -1.04994 6.47543 0
M  V30 1097 H 97.9699 0.304262 7.55387 0
M  V30 1098 H 99.2379 -0.869224 7.74638 0
M  V30 1099 N 103.467 -1.45747 0.599634 0
M  V30 1100 C 104.43 -2.28917 -0.113835 0
M  V30 1101 C 105.43 -1.3933 -0.802729 0
M  V30 1102 O 106.62 -1.61534 -0.652103 0
M  V30 1103 C 103.752 -3.20152 -1.17114 0
M  V30 1104 H 104.945 -2.93478 0.617289 0
M  V30 1105 H 102.498 -1.52137 0.358327 0
M  V30 1106 H 103.233 -2.60374 -1.93329 0
M  V30 1107 H 103.018 -3.86133 -0.681468 0
M  V30 1108 H 104.508 -3.82708 -1.67105 0
M  V30 1109 N 104.945 -0.338344 -1.53925 0
M  V30 1110 C 105.892 0.520845 -2.24846 0
M  V30 1111 C 106.862 1.09976 -1.24477 0
M  V30 1112 O 108.047 1.13735 -1.53196 0
M  V30 1113 C 105.187 1.6685 -3.02084 0
M  V30 1114 C 104.3 1.11739 -4.17299 0
M  V30 1115 C 103.435 2.23193 -4.82036 0
M  V30 1116 C 102.474 1.65407 -5.89328 0
M  V30 1117 N 101.611 2.70582 -6.47866 0
M  V30 1118 H 106.451 -0.0904881 -2.97863 0
M  V30 1119 H 103.988 -0.0564282 -1.46992 0
M  V30 1120 H 105.946 2.34407 -3.45122 0
M  V30 1121 H 104.576 2.2509 -2.31375 0
M  V30 1122 H 103.628 0.332919 -3.7894 0
M  V30 1123 H 104.94 0.654677 -4.94485 0
M  V30 1124 H 104.094 2.98626 -5.28117 0
M  V30 1125 H 102.833 2.72807 -4.04262 0
M  V30 1126 H 101.838 0.884779 -5.42634 0
M  V30 1127 H 103.063 1.16652 -6.69006 0
M  V30 1128 H 101.009 3.1946 -5.72959 0
M  V30 1129 H 100.926 2.28917 -7.20509 0
M  V30 1130 H 102.194 3.45799 -6.98601 0
M  V30 1131 N 106.423 1.57458 -0.0668435 0
M  V30 1132 C 107.356 2.08033 0.93795 0
M  V30 1133 C 108.334 0.984321 1.29421 0
M  V30 1134 O 109.518 1.25736 1.40437 0
M  V30 1135 C 106.645 2.53388 2.24749 0
M  V30 1136 C 105.691 3.74376 2.04315 0
M  V30 1137 S 106.524 5.19303 1.30706 0
M  V30 1138 C 107.68 5.67986 2.62951 0
M  V30 1139 H 107.913 2.92935 0.50759 0
M  V30 1140 H 105.446 1.5371 0.145804 0
M  V30 1141 H 107.404 2.8018 3.00016 0
M  V30 1142 H 106.065 1.68763 2.64911 0
M  V30 1143 H 105.258 4.04083 3.01218 0
M  V30 1144 H 104.86 3.47931 1.37186 0
M  V30 1145 H 107.152 5.74528 3.5906 0
M  V30 1146 H 108.095 6.66955 2.3786 0
M  V30 1147 H 108.503 4.95781 2.69929 0
M  V30 1148 N 107.901 -0.206675 1.56239 0
M  V30 1149 C 109.147 -0.930218 1.80208 0
M  V30 1150 C 109.48 -1.83387 0.638981 0
M  V30 1151 O 108.755 -1.91119 -0.361066 0
M  V30 1152 C 109.038 -1.75641 3.1436 0
M  V30 1153 C 108.891 -0.878257 4.41142 0
M  V30 1154 C 110.21 -2.73129 3.45092 0
M  V30 1155 H 107.329 -0.336742 0.655571 0
M  V30 1156 H 109.971 -0.198222 1.88963 0
M  V30 1157 H 108.121 -2.38048 3.07027 0
M  V30 1158 H 109.793 -0.269787 4.6051 0
M  V30 1159 H 108.036 -0.184385 4.33408 0
M  V30 1160 H 108.707 -1.49106 5.3148 0
M  V30 1161 H 111.183 -2.20856 3.52649 0
M  V30 1162 H 110.059 -3.28028 4.40101 0
M  V30 1163 H 110.32 -3.51606 2.68003 0
M  V30 1164 N 109.379 -1.50304 -0.473955 0
M  V30 1165 C 110.309 -1.71886 -1.58042 0
M  V30 1166 C 111.29 -0.567799 -1.60344 0
M  V30 1167 O 112.475 -0.806623 -1.76656 0
M  V30 1168 C 109.605 -1.81036 -2.96384 0
M  V30 1169 C 108.559 -2.962 -3.08949 0
M  V30 1170 C 107.885 -2.9049 -4.48909 0
M  V30 1171 C 109.185 -4.36752 -2.86434 0
M  V30 1172 H 110.879 -2.64527 -1.40234 0
M  V30 1173 H 108.425 -1.27295 -0.673201 0
M  V30 1174 H 110.378 -1.94719 -3.73714 0
M  V30 1175 H 109.102 -0.850147 -3.15341 0
M  V30 1176 H 107.761 -2.82164 -2.3405 0
M  V30 1177 H 107.409 -1.92321 -4.64781 0
M  V30 1178 H 107.109 -3.67802 -4.58253 0
M  V30 1179 H 108.633 -3.06218 -5.28264 0
M  V30 1180 H 110.047 -4.5133 -3.53517 0
M  V30 1181 H 108.444 -5.15493 -3.07225 0
M  V30 1182 H 109.514 -4.49321 -1.82316 0
M  V30 1183 N 110.857 0.726932 -1.39834 0
M  V30 1184 C 112.105 1.4837 -1.37225 0
M  V30 1185 C 112.426 1.94979 0.0284857 0
M  V30 1186 O 111.696 1.69555 0.981213 0
M  V30 1187 H 110.276 0.55043 -0.505011 0
M  V30 1188 H 112.938 0.862468 -1.74778 0
M  V30 1189 H 112.034 2.36198 -2.04003 0
M  V30 1190 N 112.336 1.25143 0.95797 0
M  V30 1191 C 113.583 1.09692 1.70217 0
M  V30 1192 C 113.911 -0.362654 1.91089 0
M  V30 1193 O 113.166 -1.28386 1.47701 0
M  V30 1194 C 113.465 1.79272 3.09187 0
M  V30 1195 C 113.131 3.29196 3.08125 0
M  V30 1196 C 111.793 3.70096 3.07543 0
M  V30 1197 C 114.145 4.24995 3.0171 0
M  V30 1198 C 111.473 5.05213 2.9829 0
M  V30 1199 C 113.825 5.60132 2.93999 0
M  V30 1200 C 112.489 6.00365 2.9175 0
M  V30 1201 H 111.759 0.401393 0.622868 0
M  V30 1202 H 114.406 1.55372 1.11945 0
M  V30 1203 H 112.711 1.26014 3.70982 0
M  V30 1204 H 114.408 1.64773 3.65583 0
M  V30 1205 H 110.998 2.96651 3.09348 0
M  V30 1206 H 115.182 3.9439 3.01281 0
M  V30 1207 H 110.438 5.35569 2.94916 0
M  V30 1208 H 114.612 6.3406 2.87996 0
M  V30 1209 H 112.239 7.05023 2.84336 0
M  V30 1210 N 113.814 -1.1601 1.06675 0
M  V30 1211 C 114.777 -2.18724 0.685001 0
M  V30 1212 C 115.777 -1.58496 -0.271246 0
M  V30 1213 O 116.967 -1.74119 -0.0531156 0
M  V30 1214 C 114.099 -3.40899 0.00853648 0
M  V30 1215 H 115.292 -2.54011 1.59431 0
M  V30 1216 H 112.845 -1.30352 0.862441 0
M  V30 1217 H 113.58 -3.11173 -0.913337 0
M  V30 1218 H 113.365 -3.8587 0.696204 0
M  V30 1219 H 114.855 -4.16886 -0.24414 0
M  V30 1220 N 115.292 -0.849877 -1.32721 0
M  V30 1221 C 116.222 -0.306308 -2.31482 0
M  V30 1222 C 117.203 0.591952 -1.59468 0
M  V30 1223 O 118.388 0.513199 -1.87296 0
M  V30 1224 C 115.518 0.510204 -3.43532 0
M  V30 1225 C 114.472 -0.293209 -4.26994 0
M  V30 1226 C 113.798 0.647743 -5.30762 0
M  V30 1227 C 115.098 -1.51634 -4.99804 0
M  V30 1228 H 116.792 -1.13153 -2.77195 0
M  V30 1229 H 114.338 -0.545553 -1.33266 0
M  V30 1230 H 116.291 0.900856 -4.11658 0
M  V30 1231 H 115.015 1.36874 -2.96535 0
M  V30 1232 H 113.674 -0.665555 -3.60508 0
M  V30 1233 H 113.322 1.50299 -4.8002 0
M  V30 1234 H 113.022 0.11422 -5.87489 0
M  V30 1235 H 114.546 1.03567 -6.01753 0
M  V30 1236 H 115.96 -1.19824 -5.60638 0
M  V30 1237 H 114.357 -1.98745 -5.66234 0
M  V30 1238 H 115.427 -2.28018 -4.27943 0
M  V30 1239 N 116.77 1.45427 -0.607355 0
M  V30 1240 C 118.019 2.01452 -0.100036 0
M  V30 1241 C 118.332 1.48159 1.27704 0
M  V30 1242 O 119.538 1.96159 1.87707 0
M  V30 1243 C 117.994 3.59672 -0.128158 0
M  V30 1244 C 117.602 4.21962 -1.50507 0
M  V30 1245 C 119.346 4.23262 0.323932 0
M  V30 1246 C 117.253 5.72333 -1.48959 0
M  V30 1247 H 116.183 0.75325 -0.0336299 0
M  V30 1248 H 118.834 1.66901 -0.76265 0
M  V30 1249 H 117.216 3.91411 0.601105 0
M  V30 1250 H 118.39 4.01796 -2.25602 0
M  V30 1251 H 116.705 3.70565 -1.89923 0
M  V30 1252 H 119.302 5.33522 0.354691 0
M  V30 1253 H 119.645 3.93921 1.34656 0
M  V30 1254 H 120.178 3.96239 -0.352056 0
M  V30 1255 H 116.917 6.06373 -2.48981 0
M  V30 1256 H 116.437 5.94691 -0.781214 0
M  V30 1257 H 118.116 6.35525 -1.21313 0
M  V30 1258 N 118.248 0.346503 1.53744 0
M  V30 1259 C 119.494 -0.249473 2.0126 0
M  V30 1260 C 119.827 -1.49965 1.23386 0
M  V30 1261 O 119.102 -1.91811 0.32229 0
M  V30 1262 C 119.385 -0.560643 3.55709 0
M  V30 1263 C 119.238 0.701836 4.44291 0
M  V30 1264 C 120.557 -1.36905 4.18264 0
M  V30 1265 H 117.676 -0.0891987 0.731582 0
M  V30 1266 H 120.318 0.467624 1.84156 0
M  V30 1267 H 118.468 -1.17156 3.70414 0
M  V30 1268 H 120.14 1.33974 4.41417 0
M  V30 1269 H 118.383 1.32612 4.13033 0
M  V30 1270 H 119.054 0.43933 5.50249 0
M  V30 1271 H 121.53 -0.852448 4.07275 0
M  V30 1272 H 120.406 -1.55553 5.26398 0
M  V30 1273 H 120.667 -2.37203 3.73078 0
M  V30 1274 N 119.726 -1.57421 0.075193 0
M  V30 1275 C 120.656 -2.15942 -0.888324 0
M  V30 1276 C 121.637 -1.08737 -1.30806 0
M  V30 1277 O 122.822 -1.36787 -1.37851 0
M  V30 1278 C 119.952 -2.72379 -2.1547 0
M  V30 1279 C 118.906 -3.8478 -1.87425 0
M  V30 1280 C 118.232 -4.27834 -3.20721 0
M  V30 1281 C 119.532 -5.08869 -1.17684 0
M  V30 1282 H 121.226 -2.96705 -0.400799 0
M  V30 1283 H 118.772 -1.42723 -0.191342 0
M  V30 1284 H 120.725 -3.11965 -2.83295 0
M  V30 1285 H 119.449 -1.88841 -2.6647 0
M  V30 1286 H 118.108 -3.45703 -1.22004 0
M  V30 1287 H 117.756 -3.41214 -3.6957 0
M  V30 1288 H 117.456 -5.03605 -3.02746 0
M  V30 1289 H 118.98 -4.70039 -3.89738 0
M  V30 1290 H 120.394 -5.4575 -1.75584 0
M  V30 1291 H 118.791 -5.8994 -1.09956 0
M  V30 1292 H 119.861 -4.84648 -0.156453 0
M  V30 1293 N 121.204 0.198386 -1.56346 0
M  V30 1294 C 122.444 0.92609 -1.82217 0
M  V30 1295 C 122.808 1.80584 -0.652195 0
M  V30 1296 O 124.009 2.56907 -0.790716 0
M  V30 1297 C 122.28 1.72354 -3.13096 0
M  V30 1298 S 123.839 2.50371 -3.6036 0
M  V30 1299 H 120.657 0.310677 -0.639532 0
M  V30 1300 H 123.259 0.189755 -1.94577 0
M  V30 1301 H 121.963 1.0678 -3.96265 0
M  V30 1302 H 121.494 2.50175 -3.03605 0
M  V30 1303 H 123.509 3.74488 -3.25535 0
M  V30 1304 N 122.682 1.50554 0.465978 0
M  V30 1305 C 123.91 1.65563 1.24083 0
M  V30 1306 C 124.325 0.341051 1.85694 0
M  V30 1307 O 123.682 -0.677543 1.69457 0
M  V30 1308 C 123.733 2.75051 2.34583 0
M  V30 1309 O 123.454 4.01413 1.75497 0
M  V30 1310 C 124.955 3.01078 3.25372 0
M  V30 1311 H 122.175 0.55638 0.375077 0
M  V30 1312 H 124.719 1.96807 0.555624 0
M  V30 1313 H 122.874 2.46486 2.9887 0
M  V30 1314 H 123.288 4.62002 2.48303 0
M  V30 1315 H 124.762 3.81339 3.99105 0
M  V30 1316 H 125.239 2.12349 3.84453 0
M  V30 1317 H 125.845 3.31194 2.66816 0
M  V30 1318 N 124.16 -0.719506 1.40217 0
M  V30 1319 C 125.385 -1.51371 1.4178 0
M  V30 1320 C 125.81 -1.88091 0.0182355 0
M  V30 1321 O 125.168 -1.52997 -0.972707 0
M  V30 1322 C 125.216 -2.768 2.31115 0
M  V30 1323 O 124.32 -3.73349 1.7517 0
M  V30 1324 H 123.661 -0.456529 0.482159 0
M  V30 1325 H 126.191 -0.88644 1.844 0
M  V30 1326 H 126.201 -3.25371 2.46167 0
M  V30 1327 H 124.876 -2.49407 3.3282 0
M  V30 1328 H 123.453 -3.32179 1.69444 0
M  V30 1329 N 125.638 -1.25649 -0.95132 0
M  V30 1330 C 126.863 -1.13443 -1.73624 0
M  V30 1331 C 127.288 0.307565 -1.85568 0
M  V30 1332 O 126.646 1.22282 -1.33854 0
M  V30 1333 C 126.694 -1.79723 -3.12621 0
M  V30 1334 O 125.798 -1.07912 -3.98031 0
M  V30 1335 H 125.139 -0.395872 -0.533086 0
M  V30 1336 H 127.669 -1.66276 -1.1922 0
M  V30 1337 H 127.679 -1.86141 -3.63064 0
M  V30 1338 H 126.354 -2.84633 -3.03244 0
M  V30 1339 H 124.931 -1.09398 -3.56492 0
M  V30 1340 N 127.117 1.15442 -1.07289 0
M  V30 1341 C 128.363 1.86489 -0.796846 0
M  V30 1342 C 128.696 1.82078 0.675371 0
M  V30 1343 O 127.971 1.24346 1.4956 0
M  V30 1344 C 128.254 3.35626 -1.30489 0
M  V30 1345 C 128.107 3.48673 -2.84161 0
M  V30 1346 C 129.426 4.30357 -0.920907 0
M  V30 1347 H 126.545 0.677144 -0.290939 0
M  V30 1348 H 129.187 1.35633 -1.33056 0
M  V30 1349 H 127.337 3.79068 -0.850883 0
M  V30 1350 H 129.009 3.14099 -3.37846 0
M  V30 1351 H 127.252 2.90253 -3.22391 0
M  V30 1352 H 127.923 4.53453 -3.14777 0
M  V30 1353 H 130.399 3.94871 -1.3121 0
M  V30 1354 H 129.275 5.33193 -1.30372 0
M  V30 1355 H 129.536 4.4176 0.173226 0
M  V30 1356 N 128.595 0.856903 1.32268 0
M  V30 1357 C 129.558 0.308171 2.27119 0
M  V30 1358 C 130.558 -0.533421 1.51695 0
M  V30 1359 O 131.748 -0.344607 1.70757 0
M  V30 1360 C 128.88 -0.563757 3.36206 0
M  V30 1361 H 130.073 1.14535 2.77167 0
M  V30 1362 H 127.626 0.631421 1.42978 0
M  V30 1363 H 128.361 -1.42266 2.91429 0
M  V30 1364 H 128.146 0.0386749 3.92081 0
M  V30 1365 H 129.636 -0.940386 4.06874 0
M  V30 1366 N 130.073 -1.45103 0.615059 0
M  V30 1367 C 131.319 -2.02483 0.113347 0
M  V30 1368 C 131.652 -1.48146 -1.25564 0
M  V30 1369 O 130.927 -0.659104 -1.82992 0
M  V30 1370 C 131.21 -3.60005 0.0825278 0
M  V30 1371 C 131.063 -4.2466 1.48271 0
M  V30 1372 C 132.382 -4.35972 -0.601401 0
M  V30 1373 H 129.501 -0.735764 0.0426632 0
M  V30 1374 H 132.143 -1.72868 0.788461 0
M  V30 1375 H 130.293 -3.85367 -0.492378 0
M  V30 1376 H 131.965 -4.10458 2.10527 0
M  V30 1377 H 130.208 -3.82772 2.04127 0
M  V30 1378 H 130.879 -5.336 1.41332 0
M  V30 1379 H 133.355 -4.15947 -0.112666 0
M  V30 1380 H 132.231 -5.45697 -0.592097 0
M  V30 1381 H 132.492 -4.09391 -1.66887 0
M  V30 1382 N 131.551 -0.354651 -1.53558 0
M  V30 1383 C 132.514 0.484566 -2.24019 0
M  V30 1384 C 133.514 1.01861 -1.24422 0
M  V30 1385 O 134.704 0.906097 -1.4878 0
M  V30 1386 C 131.836 1.67615 -2.96847 0
M  V30 1387 H 133.029 -0.131843 -2.9961 0
M  V30 1388 H 130.582 -0.106165 -1.55939 0
M  V30 1389 H 131.317 2.33095 -2.25471 0
M  V30 1390 H 131.102 1.30029 -3.69912 0
M  V30 1391 H 132.592 2.27114 -3.50441 0
M  V30 1392 N 133.029 1.57378 -0.0835403 0
M  V30 1393 C 133.959 2.1641 0.87686 0
M  V30 1394 C 134.94 1.09429 1.30228 0
M  V30 1395 O 136.125 1.37516 1.37124 0
M  V30 1396 C 133.255 2.73517 2.14022 0
M  V30 1397 C 132.209 3.85769 1.85381 0
M  V30 1398 C 131.535 4.29529 3.18448 0
M  V30 1399 C 132.835 5.09486 1.14984 0
M  V30 1400 H 134.529 2.96914 0.385059 0
M  V30 1401 H 132.075 1.42823 0.18377 0
M  V30 1402 H 134.028 3.13463 2.81636 0
M  V30 1403 H 132.752 1.90252 2.65465 0
M  V30 1404 H 131.411 3.46345 1.20169 0
M  V30 1405 H 131.059 3.43169 3.67755 0
M  V30 1406 H 130.759 5.05204 3.00071 0
M  V30 1407 H 132.283 4.72099 3.8724 0
M  V30 1408 H 133.697 5.46674 1.72687 0
M  V30 1409 H 132.094 5.90515 1.06826 0
M  V30 1410 H 133.164 4.84724 0.130749 0
M  V30 1411 N 134.507 -0.190092 1.56449 0
M  V30 1412 C 135.753 -0.906472 1.82084 0
M  V30 1413 C 136.108 -1.80677 0.661335 0
M  V30 1414 O 135.401 -1.88501 -0.343237 0
M  V30 1415 C 135.595 -1.75382 3.1141 0
M  V30 1416 C 135.424 -0.937053 4.39829 0
M  V30 1417 C 134.194 -0.619507 5.01488 0
M  V30 1418 C 136.392 -0.2874 5.13496 0
M  V30 1419 N 134.374 0.215367 6.13522 0
M  V30 1420 C 135.745 0.409454 6.18646 0
M  V30 1421 C 137.8 -0.203639 4.97483 0
M  V30 1422 C 136.503 1.1821 7.0952 0
M  V30 1423 C 138.529 0.555622 5.88784 0
M  V30 1424 C 137.891 1.24091 6.93384 0
M  V30 1425 H 133.99 -0.310931 0.717528 0
M  V30 1426 H 136.574 -0.174821 1.93914 0
M  V30 1427 H 134.745 -2.45703 3.00806 0
M  V30 1428 H 136.477 -2.41006 3.25112 0
M  V30 1429 H 133.232 -0.945126 4.64074 0
M  V30 1430 H 133.656 0.622562 6.74131 0
M  V30 1431 H 138.298 -0.719099 4.1664 0
M  V30 1432 H 136.016 1.70897 7.89823 0
M  V30 1433 H 139.602 0.621854 5.78467 0
M  V30 1434 H 138.482 1.81901 7.62812 0
M  V30 1435 N 135.985 -1.50799 -0.457987 0
M  V30 1436 C 136.932 -1.70617 -1.5543 0
M  V30 1437 C 137.902 -0.547562 -1.56815 0
M  V30 1438 O 139.087 -0.779647 -1.74144 0
M  V30 1439 C 136.227 -1.81831 -2.93311 0
M  V30 1440 C 135.34 -3.09278 -3.01615 0
M  V30 1441 C 134.475 -3.11209 -4.30491 0
M  V30 1442 C 133.514 -4.33055 -4.32585 0
M  V30 1443 N 132.651 -4.32652 -5.52952 0
M  V30 1444 H 137.491 -2.64207 -1.37836 0
M  V30 1445 H 135.028 -1.30959 -0.669937 0
M  V30 1446 H 136.986 -1.86314 -3.73287 0
M  V30 1447 H 135.616 -0.916685 -3.0951 0
M  V30 1448 H 134.668 -3.14203 -2.1443 0
M  V30 1449 H 135.98 -3.99233 -2.99022 0
M  V30 1450 H 135.134 -3.14494 -5.18824 0
M  V30 1451 H 133.873 -2.19106 -4.35711 0
M  V30 1452 H 132.878 -4.29969 -3.42647 0
M  V30 1453 H 134.103 -5.264 -4.29046 0
M  V30 1454 H 132.049 -3.43409 -5.58933 0
M  V30 1455 H 131.966 -5.16392 -5.52155 0
M  V30 1456 H 133.234 -4.40101 -6.43375 0
M  V30 1457 N 137.463 0.71206 -1.40597 0
M  V30 1458 C 138.712 1.46754 -1.38369 0
M  V30 1459 C 139.025 1.95598 0.0097839 0
M  V30 1460 O 140.231 2.71059 0.154677 0
M  V30 1461 C 138.687 2.65289 -2.43207 0
M  V30 1462 C 138.295 2.23301 -3.88382 0
M  V30 1463 C 140.039 3.43008 -2.50091 0
M  V30 1464 C 137.946 3.38696 -4.84808 0
M  V30 1465 H 136.876 0.55118 -0.514506 0
M  V30 1466 H 139.527 0.774616 -1.66349 0
M  V30 1467 H 137.909 3.36769 -2.08332 0
M  V30 1468 H 139.083 1.59218 -4.32419 0
M  V30 1469 H 137.398 1.58618 -3.85006 0
M  V30 1470 H 139.995 4.28881 -3.1932 0
M  V30 1471 H 140.338 3.87065 -1.53253 0
M  V30 1472 H 140.871 2.78574 -2.83974 0
M  V30 1473 H 137.61 2.99668 -5.82992 0
M  V30 1474 H 137.13 4.01683 -4.45433 0
M  V30 1475 H 138.809 4.04712 -5.04794 0
M  V30 1476 N 138.941 1.26152 0.944643 0
M  V30 1477 C 139.873 1.03199 2.04652 0
M  V30 1478 C 140.886 -0.00642356 1.62799 0
M  V30 1479 O 142.075 0.233263 1.76969 0
M  V30 1480 C 139.175 0.540111 3.34568 0
M  V30 1481 C 138.348 1.64697 4.05208 0
M  V30 1482 C 137.407 1.15374 5.13396 0
M  V30 1483 O 136.433 1.85013 5.38293 0
M  V30 1484 N 137.635 0.00031529 5.805 0
M  V30 1485 H 140.4 1.9808 2.2491 0
M  V30 1486 H 137.961 1.17491 1.11389 0
M  V30 1487 H 139.953 0.194401 4.04233 0
M  V30 1488 H 138.523 -0.315021 3.11009 0
M  V30 1489 H 137.743 2.16379 3.29506 0
M  V30 1490 H 139.031 2.3903 4.49157 0
M  V30 1491 H 138.429 -0.581336 5.62705 0
M  V30 1492 H 136.986 -0.286346 6.51171 0
M  V30 1493 N 140.419 -1.14872 1.07899 0
M  V30 1494 C 141.351 -2.19425 0.662231 0
M  V30 1495 C 142.364 -1.60231 -0.288079 0
M  V30 1496 O 143.553 -1.78336 -0.076534 0
M  V30 1497 C 140.653 -3.38867 -0.0470695 0
M  V30 1498 C 139.826 -4.27597 0.920831 0
M  V30 1499 C 138.885 -5.25616 0.247805 0
M  V30 1500 O 137.911 -5.62189 0.890599 0
M  V30 1501 N 139.113 -5.71746 -1.00435 0
M  V30 1502 H 141.878 -2.55797 1.56166 0
M  V30 1503 H 139.439 -1.30042 0.964404 0
M  V30 1504 H 141.431 -4.01497 -0.50813 0
M  V30 1505 H 140.001 -3.00864 -0.848523 0
M  V30 1506 H 139.221 -3.61982 1.56087 0
M  V30 1507 H 140.509 -4.83748 1.57688 0
M  V30 1508 H 139.907 -5.44153 -1.54642 0
M  V30 1509 H 138.464 -6.36389 -1.40899 0
M  V30 1510 N 141.898 -0.863906 -1.31812 0
M  V30 1511 C 143.146 -0.470904 -1.96537 0
M  V30 1512 C 143.467 0.978771 -1.68657 0
M  V30 1513 O 142.737 1.6853 -0.998717 0
M  V30 1514 H 141.317 -0.171148 -0.72713 0
M  V30 1515 H 143.979 -1.10236 -1.60729 0
M  V30 1516 H 143.075 -0.623616 -3.05806 0
M  V30 1517 N 143.376 1.44774 -0.622745 0
M  V30 1518 C 144.604 2.06487 -0.130722 0
M  V30 1519 C 145.019 1.46476 1.19123 0
M  V30 1520 O 144.376 0.584502 1.72887 0
M  V30 1521 C 144.427 3.615 -0.000807207 0
M  V30 1522 O 144.148 4.19274 -1.27048 0
M  V30 1523 C 145.649 4.40229 0.520898 0
M  V30 1524 H 142.869 0.666704 -0.0758106 0
M  V30 1525 H 145.413 1.85779 -0.854774 0
M  V30 1526 H 143.568 3.81498 0.673643 0
M  V30 1527 H 143.982 5.12622 -1.1099 0
M  V30 1528 H 145.456 5.49144 0.560838 0
M  V30 1529 H 145.933 4.1108 1.54627 0
M  V30 1530 H 146.539 4.25131 -0.120018 0
M  V30 1531 N 144.854 0.36279 1.53368 0
M  V30 1532 C 146.265 -0.117022 1.86333 0
M  V30 1533 C 146.616 -1.48397 1.28347 0
M  V30 1534 O 145.741 -2.07787 0.604428 0
M  V30 1535 C 146.336 -0.21912 3.38091 0
M  V30 1536 C 144.895 -0.643184 3.70864 0
M  V30 1537 C 144.042 0.211318 2.76494 0
M  V30 1538 H 146.993 0.581687 1.47655 0
M  V30 1539 H 147.014 -1.04319 3.6592 0
M  V30 1540 H 146.526 0.775902 3.80265 0
M  V30 1541 H 144.627 -1.64654 3.34245 0
M  V30 1542 H 144.74 -0.41973 4.77258 0
M  V30 1543 H 143.104 -0.319367 2.5269 0
M  V30 1544 H 143.887 1.20383 3.21501 0
M  V30 1545 N 146.332 -1.57332 0.0918853 0
M  V30 1546 C 147.242 -2.17368 -0.882505 0
M  V30 1547 C 148.258 -1.14226 -1.31257 0
M  V30 1548 O 149.434 -1.46582 -1.38115 0
M  V30 1549 C 146.499 -2.73962 -2.12476 0
M  V30 1550 C 145.56 -3.92048 -1.7492 0
M  V30 1551 C 144.793 -4.45933 -2.93223 0
M  V30 1552 O 145.016 -3.98764 -4.07852 0
M  V30 1553 O 143.95 -5.36999 -2.71875 0
M  V30 1554 H 147.776 -3.01031 -0.40172 0
M  V30 1555 H 145.361 -1.48813 -0.132291 0
M  V30 1556 H 147.243 -3.10147 -2.85283 0
M  V30 1557 H 145.918 -1.93347 -2.59613 0
M  V30 1558 H 144.825 -3.6068 -0.993025 0
M  V30 1559 H 146.158 -4.74017 -1.32548 0
M  V30 1560 N 147.81 0.181792 -1.56548 0
M  V30 1561 C 148.773 1.20894 -1.94724 0
M  V30 1562 C 149.773 1.37738 -0.829747 0
M  V30 1563 O 150.963 1.35323 -1.09697 0
M  V30 1564 C 148.095 2.57593 -2.23291 0
M  V30 1565 H 149.288 0.882275 -2.86629 0
M  V30 1566 H 146.841 0.423838 -1.50444 0
M  V30 1567 H 147.576 2.95291 -1.34067 0
M  V30 1568 H 147.361 2.46735 -3.04736 0
M  V30 1569 H 148.851 3.31637 -2.53785 0
M  V30 1570 N 149.288 1.51039 0.449983 0
M  V30 1571 C 150.699 1.557 1.03026 0
M  V30 1572 C 151.05 0.372939 1.92623 0
M  V30 1573 O 150.175 -0.511771 2.10261 0
M  V30 1574 C 150.77 2.82171 1.87523 0
M  V30 1575 C 149.329 2.89444 2.40622 0
M  V30 1576 C 148.476 2.50228 1.19504 0
M  V30 1577 H 151.427 1.56999 0.231745 0
M  V30 1578 H 151.448 2.65219 2.72835 0
M  V30 1579 H 150.96 3.68331 1.22286 0
M  V30 1580 H 149.061 2.07685 3.0935 0
M  V30 1581 H 149.174 3.92816 2.74285 0
M  V30 1582 H 147.538 2.03139 1.53644 0
M  V30 1583 H 148.321 3.38719 0.558972 0
M  V30 1584 N 150.766 -0.704594 1.40972 0
M  V30 1585 C 151.676 -1.84856 1.44448 0
M  V30 1586 C 152.692 -1.70726 0.335961 0
M  V30 1587 O 153.868 -1.92799 0.582276 0
M  V30 1588 C 150.933 -3.20758 1.31587 0
M  V30 1589 C 149.994 -3.47063 2.52677 0
M  V30 1590 C 149.227 -4.76481 2.4042 0
M  V30 1591 O 149.45 -5.52341 1.42391 0
M  V30 1592 O 148.384 -5.03367 3.30007 0
M  V30 1593 H 152.21 -1.8488 2.40942 0
M  V30 1594 H 149.795 -0.85647 1.22413 0
M  V30 1595 H 151.677 -4.01913 1.26665 0
M  V30 1596 H 150.352 -3.21438 0.382049 0
M  V30 1597 H 149.259 -2.65873 2.63177 0
M  V30 1598 H 150.592 -3.5119 3.44858 0
M  V30 1599 N 152.244 -1.26651 -0.937939 0
M  V30 1600 C 153.491 -1.12387 -1.6845 0
M  V30 1601 C 153.819 0.332208 -1.91642 0
M  V30 1602 O 153.074 1.2602 -1.49725 0
M  V30 1603 C 153.373 -1.84168 -3.06295 0
M  V30 1604 C 153.039 -3.34056 -3.02849 0
M  V30 1605 C 151.701 -3.74942 -3.01616 0
M  V30 1606 C 154.053 -4.29741 -2.9491 0
M  V30 1607 C 151.381 -5.09894 -2.90215 0
M  V30 1608 C 153.733 -5.64738 -2.8505 0
M  V30 1609 C 152.397 -6.0493 -2.82162 0
M  V30 1610 H 151.667 -0.411252 -0.616403 0
M  V30 1611 H 154.314 -1.57134 -1.09459 0
M  V30 1612 H 152.619 -1.319 -3.6893 0
M  V30 1613 H 154.316 -1.70569 -3.62915 0
M  V30 1614 H 150.906 -3.01534 -3.0459 0
M  V30 1615 H 155.09 -3.99133 -2.94969 0
M  V30 1616 H 150.346 -5.40194 -2.86358 0
M  V30 1617 H 154.52 -6.38561 -2.77872 0
M  V30 1618 H 152.147 -7.09457 -2.73084 0
M  V30 1619 N 153.722 1.14298 -1.08507 0
M  V30 1620 C 154.652 2.21542 -0.737646 0
M  V30 1621 C 155.633 1.67773 0.280377 0
M  V30 1622 O 156.818 1.93616 0.150521 0
M  V30 1623 C 153.948 3.46988 -0.147259 0
M  V30 1624 C 152.902 4.13789 -1.09374 0
M  V30 1625 C 152.228 5.33449 -0.365524 0
M  V30 1626 C 153.528 4.62208 -2.4323 0
M  V30 1627 H 155.222 2.5086 -1.6343 0
M  V30 1628 H 152.768 1.20576 -0.787243 0
M  V30 1629 H 154.721 4.21262 0.107808 0
M  V30 1630 H 153.445 3.17037 0.784538 0
M  V30 1631 H 152.104 3.4147 -1.33393 0
M  V30 1632 H 151.752 4.99759 0.57011 0
M  V30 1633 H 151.452 5.79088 -0.996512 0
M  V30 1634 H 152.976 6.10485 -0.118534 0
M  V30 1635 H 154.39 5.27952 -2.23472 0
M  V30 1636 H 152.787 5.18553 -3.02031 0
M  V30 1637 H 153.857 3.77224 -3.04681 0
M  V30 1638 N 155.201 0.870884 1.31352 0
M  V30 1639 C 156.45 0.478408 1.95944 0
M  V30 1640 C 156.763 -0.974493 1.69597 0
M  V30 1641 O 157.969 -1.47316 2.28058 0
M  V30 1642 C 156.425 0.804609 3.50791 0
M  V30 1643 C 156.033 2.27433 3.85977 0
M  V30 1644 C 157.777 0.480648 4.2177 0
M  V30 1645 C 155.684 2.5429 5.33939 0
M  V30 1646 H 154.614 0.175175 0.733369 0
M  V30 1647 H 157.265 1.06391 1.4951 0
M  V30 1648 H 155.647 0.148347 3.95722 0
M  V30 1649 H 156.821 2.97373 3.52002 0
M  V30 1650 H 155.136 2.56442 3.28065 0
M  V30 1651 H 157.733 0.658519 5.30629 0
M  V30 1652 H 158.076 -0.578979 4.12254 0
M  V30 1653 H 158.609 1.09349 3.82476 0
M  V30 1654 H 155.348 3.58939 5.48491 0
M  V30 1655 H 154.868 1.88945 5.69263 0
M  V30 1656 H 156.547 2.39066 6.01212 0
M  V30 1657 N 156.679 -1.44442 0.630414 0
M  V30 1658 C 157.629 -2.27794 -0.0968103 0
M  V30 1659 C 158.613 -1.38624 -0.816834 0
M  V30 1660 O 159.805 -1.62438 -0.70306 0
M  V30 1661 C 156.934 -3.25929 -1.07819 0
M  V30 1662 C 156.02 -4.22588 -0.357826 0
M  V30 1663 N 156.411 -5.0207 0.613169 0
M  V30 1664 C 154.709 -4.41914 -0.602365 0
M  V30 1665 C 155.41 -5.72351 1.03871 0
M  V30 1666 N 154.386 -5.42287 0.377642 0
M  V30 1667 H 158.188 -2.86653 0.648621 0
M  V30 1668 H 155.702 -1.55871 0.455862 0
M  V30 1669 H 157.699 -3.84399 -1.61378 0
M  V30 1670 H 156.359 -2.68631 -1.82393 0
M  V30 1671 H 157.37 -5.08331 0.990947 0
M  V30 1672 H 154.047 -3.95714 -1.33103 0
M  V30 1673 H 155.437 -6.4619 1.84086 0
M  V30 1674 N 158.157 -0.370918 -1.53173 0
M  V30 1675 C 159.568 0.107139 -1.86392 0
M  V30 1676 C 159.919 1.47714 -1.29132 0
M  V30 1677 O 159.044 2.07464 -0.615439 0
M  V30 1678 C 159.639 0.201187 -3.38202 0
M  V30 1679 C 158.198 0.623507 -3.712 0
M  V30 1680 C 157.345 -0.225978 -2.76378 0
M  V30 1681 H 160.296 -0.58951 -1.47345 0
M  V30 1682 H 160.317 1.02377 -3.66468 0
M  V30 1683 H 159.829 -0.796058 -3.79848 0
M  V30 1684 H 157.93 1.62879 -3.35114 0
M  V30 1685 H 158.043 0.394414 -4.77474 0
M  V30 1686 H 156.407 0.305962 -2.52856 0
M  V30 1687 H 157.19 -1.22086 -3.20858 0
M  V30 1688 N 159.635 1.57281 -0.100228 0
M  V30 1689 C 160.863 1.98879 0.570509 0
M  V30 1690 C 161.278 0.979476 1.61405 0
M  V30 1691 O 160.635 -0.0302288 1.82475 0
M  V30 1692 C 160.686 3.4052 1.2136 0
M  V30 1693 O 160.407 4.37588 0.211786 0
M  V30 1694 C 161.908 3.97149 1.96945 0
M  V30 1695 H 159.128 0.653428 0.152555 0
M  V30 1696 H 161.672 2.03697 -0.18103 0
M  V30 1697 H 159.827 3.367 1.91603 0
M  V30 1698 H 160.241 5.20118 0.676607 0
M  V30 1699 H 161.715 4.98393 2.37294 0
M  V30 1700 H 162.192 3.3525 2.83733 0
M  V30 1701 H 162.798 4.04458 1.31506 0
M  V30 1702 N 161.113 -0.173488 1.56642 0
M  V30 1703 C 162.359 -0.891784 1.8214 0
M  V30 1704 C 162.692 -1.8199 0.677736 0
M  V30 1705 O 161.967 -1.91842 -0.320446 0
M  V30 1706 C 162.25 -1.68933 3.18015 0
M  V30 1707 C 162.103 -0.784487 4.42906 0
M  V30 1708 C 163.422 -2.65748 3.50808 0
M  V30 1709 H 160.541 -0.322761 0.662567 0
M  V30 1710 H 163.183 -0.158095 1.89341 0
M  V30 1711 H 161.333 -2.31482 3.12007 0
M  V30 1712 H 163.005 -0.172046 4.60979 0
M  V30 1713 H 161.248 -0.0924117 4.33702 0
M  V30 1714 H 161.919 -1.37799 5.34524 0
M  V30 1715 H 164.395 -2.13327 3.57255 0
M  V30 1716 H 163.271 -3.18619 4.4696 0
M  V30 1717 H 163.532 -3.45842 2.75401 0
M  V30 1718 N 162.591 -1.51276 -0.441967 0
M  V30 1719 C 163.837 -1.6492 -1.1905 0
M  V30 1720 C 164.192 -0.358731 -1.89026 0
M  V30 1721 O 163.485 0.645193 -1.8041 0
M  V30 1722 C 163.679 -2.78746 -2.23686 0
M  V30 1723 C 163.508 -4.18737 -1.63979 0
M  V30 1724 C 162.278 -4.84739 -1.42674 0
M  V30 1725 C 164.476 -5.01988 -1.11858 0
M  V30 1726 N 162.458 -6.08858 -0.785159 0
M  V30 1727 C 163.829 -6.17071 -0.601989 0
M  V30 1728 C 165.884 -4.87551 -1.0099 0
M  V30 1729 C 164.587 -7.19299 0.0126012 0
M  V30 1730 C 166.613 -5.89983 -0.409206 0
M  V30 1731 C 165.975 -7.04333 0.0968651 0
M  V30 1732 H 162.074 -0.657416 -0.423471 0
M  V30 1733 H 164.658 -1.8849 -0.48782 0
M  V30 1734 H 162.829 -2.56848 -2.91348 0
M  V30 1735 H 164.561 -2.81595 -2.90666 0
M  V30 1736 H 161.316 -4.42528 -1.68719 0
M  V30 1737 H 161.74 -6.75282 -0.481942 0
M  V30 1738 H 166.382 -3.99401 -1.38703 0
M  V30 1739 H 164.1 -8.071 0.401879 0
M  V30 1740 H 167.686 -5.8088 -0.327079 0
M  V30 1741 H 166.566 -7.82238 0.554373 0
M  V30 1742 N 164.069 0.697108 -1.41344 0
M  V30 1743 C 164.999 1.82353 -1.45841 0
M  V30 1744 C 165.98 1.67115 -0.317247 0
M  V30 1745 O 167.165 1.86871 -0.528474 0
M  V30 1746 C 164.295 3.20476 -1.33838 0
M  V30 1747 C 163.249 3.50415 -2.4575 0
M  V30 1748 C 162.575 4.87878 -2.18813 0
M  V30 1749 C 163.875 3.49546 -3.88091 0
M  V30 1750 H 165.569 1.78846 -2.40113 0
M  V30 1751 H 163.115 0.859028 -1.15571 0
M  V30 1752 H 165.068 3.98988 -1.35596 0
M  V30 1753 H 163.792 3.24604 -0.360498 0
M  V30 1754 H 162.451 2.74253 -2.43271 0
M  V30 1755 H 162.099 4.8863 -1.19371 0
M  V30 1756 H 161.799 5.08875 -2.93803 0
M  V30 1757 H 163.323 5.68702 -2.22284 0
M  V30 1758 H 164.737 4.18066 -3.92293 0
M  V30 1759 H 163.134 3.82075 -4.62751 0
M  V30 1760 H 164.204 2.48552 -4.16353 0
M  V30 1761 N 165.547 1.27147 0.931209 0
M  V30 1762 C 166.775 1.16082 1.71267 0
M  V30 1763 C 167.19 -0.282772 1.8667 0
M  V30 1764 O 166.547 -1.19283 1.38122 0
M  V30 1765 C 166.598 1.8358 3.11417 0
M  V30 1766 O 166.319 3.22299 2.96741 0
M  V30 1767 C 167.82 1.78597 4.05732 0
M  V30 1768 H 165.04 0.403758 0.535929 0
M  V30 1769 H 167.584 1.67953 1.16671 0
M  V30 1770 H 165.739 1.35623 3.62885 0
M  V30 1771 H 166.153 3.55851 3.85319 0
M  V30 1772 H 167.627 2.30444 5.01597 0
M  V30 1773 H 168.104 0.754564 4.3267 0
M  V30 1774 H 168.71 2.26152 3.60188 0
M  V30 1775 N 167.025 -1.13721 1.09112 0
M  V30 1776 C 168.253 -1.88773 0.846899 0
M  V30 1777 C 168.668 -1.7896 -0.601572 0
M  V30 1778 O 168.025 -1.15394 -1.41388 0
M  V30 1779 C 168.076 -3.3849 1.26913 0
M  V30 1780 O 167.797 -3.48043 2.66079 0
M  V30 1781 C 169.298 -4.30518 1.05682 0
M  V30 1782 H 166.518 -0.59772 0.304914 0
M  V30 1783 H 169.062 -1.43977 1.45227 0
M  V30 1784 H 167.217 -3.80881 0.707723 0
M  V30 1785 H 167.631 -4.4109 2.83795 0
M  V30 1786 H 169.105 -5.3391 1.40156 0
M  V30 1787 H 169.582 -4.392 -0.00563416 0
M  V30 1788 H 170.188 -3.93893 1.60402 0
M  V30 1789 N 168.503 -0.877838 -1.30888 0
M  V30 1790 C 169.436 -0.283995 -2.26426 0
M  V30 1791 C 170.414 0.591361 -1.51465 0
M  V30 1792 O 171.598 0.54304 -1.80509 0
M  V30 1793 C 168.725 0.597129 -3.33395 0
M  V30 1794 C 167.771 -0.207937 -4.25993 0
M  V30 1795 S 168.604 -1.59158 -5.11301 0
M  V30 1796 C 169.76 -0.716791 -6.21782 0
M  V30 1797 H 169.993 -1.09383 -2.76446 0
M  V30 1798 H 167.526 -0.676828 -1.38775 0
M  V30 1799 H 169.484 1.09978 -3.95493 0
M  V30 1800 H 168.145 1.38099 -2.82113 0
M  V30 1801 H 167.338 0.464163 -5.01858 0
M  V30 1802 H 166.94 -0.642963 -3.68432 0
M  V30 1803 H 169.232 0.0692833 -6.77465 0
M  V30 1804 H 170.175 -1.44682 -6.93161 0
M  V30 1805 H 170.583 -0.280855 -5.63801 0
M  V30 1806 N 169.982 1.44106 -0.638065 0
M  V30 1807 C 171.207 2.0685 -0.150916 0
M  V30 1808 C 171.632 1.47417 1.16833 0
M  V30 1809 O 170.99 0.578264 1.71831 0
M  V30 1810 C 171.038 3.60555 -0.05708 0
M  V30 1811 O 170.142 4.00465 0.984972 0
M  V30 1812 H 169.483 0.658151 -0.0879399 0
M  V30 1813 H 172.013 1.84865 -0.876707 0
M  V30 1814 H 172.023 4.07789 0.131232 0
M  V30 1815 H 170.698 4.03193 -1.02021 0
M  V30 1816 H 169.275 3.64849 0.770672 0
M  V30 1817 N 171.46 0.379036 1.52974 0
M  V30 1818 C 172.707 -0.206421 2.01445 0
M  V30 1819 C 173.035 -1.47668 1.26587 0
M  V30 1820 O 172.29 -1.92514 0.351675 0
M  V30 1821 C 172.589 -0.53096 3.53434 0
M  V30 1822 C 172.255 0.646546 4.46241 0
M  V30 1823 C 170.917 0.969604 4.7133 0
M  V30 1824 C 173.269 1.43479 5.01062 0
M  V30 1825 C 170.597 2.08263 5.48492 0
M  V30 1826 C 172.949 2.53834 5.7944 0
M  V30 1827 C 171.613 2.86659 6.02812 0
M  V30 1828 H 170.883 -0.0755349 0.73714 0
M  V30 1829 H 173.53 0.514271 1.84465 0
M  V30 1830 H 171.835 -1.33285 3.68432 0
M  V30 1831 H 173.532 -0.996417 3.88423 0
M  V30 1832 H 170.122 0.384734 4.2687 0
M  V30 1833 H 174.306 1.19844 4.81613 0
M  V30 1834 H 169.562 2.34078 5.64816 0
M  V30 1835 H 173.736 3.15319 6.20924 0
M  V30 1836 H 171.363 3.73026 6.62387 0
M  V30 1837 N 172.938 -1.57226 0.108567 0
M  V30 1838 C 173.901 -2.13602 -0.831082 0
M  V30 1839 C 174.901 -1.06841 -1.20173 0
M  V30 1840 O 176.091 -1.32666 -1.12895 0
M  V30 1841 C 173.223 -2.66769 -2.12243 0
M  V30 1842 H 174.416 -2.97951 -0.341317 0
M  V30 1843 H 171.969 -1.55667 -0.14057 0
M  V30 1844 H 172.704 -1.85977 -2.65675 0
M  V30 1845 H 172.489 -3.44839 -1.86625 0
M  V30 1846 H 173.979 -3.10332 -2.79435 0
M  V30 1847 N 174.416 0.165178 -1.56732 0
M  V30 1848 C 175.662 0.882112 -1.82611 0
M  V30 1849 C 175.995 1.81628 -0.687378 0
M  V30 1850 O 175.27 1.92009 0.310267 0
M  V30 1851 C 175.553 1.67245 -3.18906 0
M  V30 1852 C 175.406 0.760987 -4.43316 0
M  V30 1853 C 176.725 2.63884 -3.52212 0
M  V30 1854 H 173.844 0.319242 -0.664269 0
M  V30 1855 H 176.486 0.148052 -1.89422 0
M  V30 1856 H 174.636 2.29824 -3.1323 0
M  V30 1857 H 176.308 0.147596 -4.61064 0
M  V30 1858 H 174.551 0.0694102 -4.33744 0
M  V30 1859 H 175.222 1.34962 -5.35247 0
M  V30 1860 H 177.698 2.11429 -3.58381 0
M  V30 1861 H 176.574 3.16245 -4.48643 0
M  V30 1862 H 176.835 3.44377 -2.77231 0
M  V30 1863 N 175.894 1.51508 0.433938 0
M  V30 1864 C 177.141 1.64345 1.18309 0
M  V30 1865 C 177.469 0.361315 1.91115 0
M  V30 1866 O 176.724 -0.654753 1.84422 0
M  V30 1867 C 177.023 2.79928 2.22205 0
M  V30 1868 C 176.689 4.19078 1.66387 0
M  V30 1869 C 175.351 4.56932 1.50887 0
M  V30 1870 C 177.703 5.05894 1.25381 0
M  V30 1871 C 175.031 5.79305 0.928608 0
M  V30 1872 C 177.383 6.2885 0.687823 0
M  V30 1873 C 176.047 6.65473 0.519755 0
M  V30 1874 H 175.317 0.601381 0.432923 0
M  V30 1875 H 177.964 1.85549 0.473676 0
M  V30 1876 H 176.269 2.52959 2.99197 0
M  V30 1877 H 177.966 2.87059 2.79997 0
M  V30 1878 H 174.556 3.89234 1.79428 0
M  V30 1879 H 178.74 4.77253 1.36175 0
M  V30 1880 H 173.996 6.06324 0.786186 0
M  V30 1881 H 178.17 6.95461 0.361581 0
M  V30 1882 H 175.797 7.6017 0.0679979 0
M  V30 1883 N 177.372 -0.689602 1.41712 0
M  V30 1884 C 178.302 -1.81577 1.46806 0
M  V30 1885 C 179.283 -1.66945 0.326105 0
M  V30 1886 O 180.468 -1.86588 0.538377 0
M  V30 1887 C 177.598 -3.19762 1.35535 0
M  V30 1888 C 176.552 -3.49107 2.47605 0
M  V30 1889 C 175.878 -4.86711 2.21397 0
M  V30 1890 C 177.178 -3.47483 3.89939 0
M  V30 1891 H 178.872 -1.7757 2.41058 0
M  V30 1892 H 176.418 -0.852887 1.16025 0
M  V30 1893 H 178.371 -3.98263 1.3771 0
M  V30 1894 H 177.095 -3.24409 0.377708 0
M  V30 1895 H 175.754 -2.72959 2.44722 0
M  V30 1896 H 175.402 -4.8799 1.21961 0
M  V30 1897 H 175.102 -5.0731 2.96497 0
M  V30 1898 H 176.626 -5.67515 2.25297 0
M  V30 1899 H 178.04 -4.1598 3.94505 0
M  V30 1900 H 176.437 -3.79615 4.64771 0
M  V30 1901 H 177.507 -2.46341 4.17665 0
M  V30 1902 N 178.85 -1.27639 -0.924453 0
M  V30 1903 C 180.099 -1.13549 -1.66702 0
M  V30 1904 C 180.412 0.317487 -1.93006 0
M  V30 1905 O 181.618 0.579333 -2.65247 0
M  V30 1906 C 180.074 -1.98426 -3.00259 0
M  V30 1907 C 179.682 -3.484 -2.81641 0
M  V30 1908 C 181.426 -1.92993 -3.78092 0
M  V30 1909 C 179.333 -4.25464 -4.10773 0
M  V30 1910 H 178.263 -0.421351 -0.625283 0
M  V30 1911 H 180.914 -1.52085 -1.02676 0
M  V30 1912 H 179.296 -1.52736 -3.6536 0
M  V30 1913 H 180.47 -4.01973 -2.25287 0
M  V30 1914 H 178.785 -3.55245 -2.17232 0
M  V30 1915 H 181.382 -2.47844 -4.7379 0
M  V30 1916 H 181.725 -0.904281 -4.0636 0
M  V30 1917 H 182.258 -2.36595 -3.19793 0
M  V30 1918 H 178.997 -5.28566 -3.87683 0
M  V30 1919 H 178.517 -3.76667 -4.66779 0
M  V30 1920 H 180.196 -4.34812 -4.79111 0
M  V30 1921 N 180.328 1.1314 -1.09713 0
M  V30 1922 C 181.278 2.16709 -0.708593 0
M  V30 1923 C 182.262 1.58471 0.278523 0
M  V30 1924 O 183.454 1.76779 0.088427 0
M  V30 1925 C 180.583 3.43039 -0.133923 0
M  V30 1926 C 179.669 4.08277 -1.14763 0
M  V30 1927 N 180.06 4.48637 -2.33577 0
M  V30 1928 C 178.358 4.34954 -0.986446 0
M  V30 1929 C 179.059 4.9952 -2.98085 0
M  V30 1930 N 178.035 4.94561 -2.25632 0
M  V30 1931 H 181.837 2.45672 -1.61315 0
M  V30 1932 H 179.351 1.29967 -0.973775 0
M  V30 1933 H 181.348 4.16583 0.162465 0
M  V30 1934 H 180.008 3.15549 0.765447 0
M  V30 1935 H 181.019 4.41246 -2.7115 0
M  V30 1936 H 177.696 4.17258 -0.142008 0
M  V30 1937 H 179.086 5.40521 -3.99108 0
M  V30 1938 N 181.806 0.884767 1.30421 0
M  V30 1939 C 183.034 0.518044 2.0031 0
M  V30 1940 C 183.449 -0.893408 1.66324 0
M  V30 1941 O 182.806 -1.5875 0.900262 0
M  V30 1942 C 182.857 0.682997 3.54989 0
M  V30 1943 O 182.578 2.03888 3.87764 0
M  V30 1944 C 184.079 0.31924 4.42149 0
M  V30 1945 H 181.299 0.200265 0.640418 0
M  V30 1946 H 183.843 1.19001 1.6631 0
M  V30 1947 H 181.998 0.0584052 3.87356 0
M  V30 1948 H 182.412 2.05735 4.82466 0
M  V30 1949 H 183.886 0.485555 5.4986 0
M  V30 1950 H 184.363 -0.742717 4.32875 0
M  V30 1951 H 184.969 0.920147 4.15227 0
M  V30 1952 N 183.284 -1.43765 0.645699 0
M  V30 1953 C 184.194 -2.34544 -0.0512957 0
M  V30 1954 C 185.21 -1.53455 -0.82022 0
M  V30 1955 O 186.386 -1.86133 -0.769176 0
M  V30 1956 C 183.451 -3.31636 -1.01087 0
M  V30 1957 C 182.512 -4.2863 -0.239712 0
M  V30 1958 C 181.745 -5.21084 -1.15358 0
M  V30 1959 O 181.968 -5.1779 -2.39269 0
M  V30 1960 O 180.902 -5.98593 -0.630038 0
M  V30 1961 H 184.728 -2.95624 0.695718 0
M  V30 1962 H 182.313 -1.43781 0.405882 0
M  V30 1963 H 184.195 -3.9136 -1.56254 0
M  V30 1964 H 182.87 -2.73069 -1.73824 0
M  V30 1965 H 181.777 -3.72408 0.355356 0
M  V30 1966 H 183.11 -4.90157 0.447936 0
M  V30 1967 N 184.763 -0.387143 -1.52771 0
M  V30 1968 C 186.179 -0.037007 -1.59557 0
M  V30 1969 C 186.379 1.44801 -1.40124 0
M  V30 1970 O 185.435 2.21227 -1.21716 0
M  V30 1971 C 186.748 -0.512256 -2.96305 0
M  V30 1972 C 188.296 -0.468328 -3.09476 0
M  V30 1973 C 188.771 -0.919731 -4.4867 0
M  V30 1974 N 190.262 -0.875656 -4.54848 0
M  V30 1975 C 190.997 -1.19637 -5.6078 0
M  V30 1976 N 190.493 -1.58745 -6.74368 0
M  V30 1977 N 192.286 -1.11776 -5.50874 0
M  V30 1978 H 184.437 -1.35395 -1.63652 0
M  V30 1979 H 186.7 -0.554818 -0.768688 0
M  V30 1980 H 186.406 -1.54935 -3.15734 0
M  V30 1981 H 186.28 0.089805 -3.77093 0
M  V30 1982 H 188.667 0.559671 -2.89744 0
M  V30 1983 H 188.748 -1.10616 -2.30646 0
M  V30 1984 H 188.392 -1.94595 -4.69143 0
M  V30 1985 H 188.322 -0.258927 -5.25963 0
M  V30 1986 H 190.813 -0.587843 -3.733 0
M  V30 1987 H 191.126 -1.81586 -7.51163 0
M  V30 1988 H 189.471 -1.6263 -6.75705 0
M  V30 1989 H 192.662 -0.811264 -4.61016 0
M  V30 1990 H 192.835 -1.37103 -6.3333 0
M  V30 1991 N 186.241 1.57166 -0.116904 0
M  V30 1992 C 187.188 2.15202 0.83408 0
M  V30 1993 C 188.158 1.07644 1.26499 0
M  V30 1994 O 189.343 1.35541 1.34288 0
M  V30 1995 C 186.483 2.75405 2.07957 0
M  V30 1996 C 185.596 3.97264 1.69721 0
M  V30 1997 C 184.731 4.45561 2.89221 0
M  V30 1998 C 183.77 5.59956 2.47215 0
M  V30 1999 N 182.907 6.03006 3.59622 0
M  V30 2000 H 187.747 2.96141 0.332335 0
M  V30 2001 H 185.284 1.46309 0.152349 0
M  V30 2002 H 187.242 3.08439 2.80929 0
M  V30 2003 H 185.872 1.97159 2.55594 0
M  V30 2004 H 184.924 3.70404 0.866316 0
M  V30 2005 H 186.236 4.80226 1.34849 0
M  V30 2006 H 185.39 4.80493 3.7042 0
M  V30 2007 H 184.129 3.61544 3.27318 0
M  V30 2008 H 183.134 5.2463 1.64448 0
M  V30 2009 H 184.359 6.45738 2.10238 0
M  V30 2010 H 182.305 5.21931 3.97396 0
M  V30 2011 H 182.222 6.80819 3.28667 0
M  V30 2012 H 183.49 6.42576 4.41267 0
M  V30 2013 N 187.719 -0.156864 1.56817 0
M  V30 2014 C 188.666 -1.19394 1.97519 0
M  V30 2015 C 189.636 -1.4322 0.841265 0
M  V30 2016 O 190.821 -1.55719 1.10255 0
M  V30 2017 C 187.961 -2.52483 2.35258 0
M  V30 2018 C 187.074 -2.35914 3.61896 0
M  V30 2019 C 186.209 -3.61969 3.88782 0
M  V30 2020 C 185.248 -3.40395 5.08722 0
M  V30 2021 N 184.385 -4.58556 5.31668 0
M  V30 2022 H 189.225 -0.839845 2.85921 0
M  V30 2023 H 186.762 -0.403264 1.41464 0
M  V30 2024 H 188.72 -3.30071 2.55165 0
M  V30 2025 H 187.35 -2.85859 1.49949 0
M  V30 2026 H 186.402 -1.49429 3.49821 0
M  V30 2027 H 187.714 -2.15926 4.49641 0
M  V30 2028 H 186.868 -4.47989 4.09135 0
M  V30 2029 H 185.607 -3.84951 2.9944 0
M  V30 2030 H 184.612 -2.52763 4.88253 0
M  V30 2031 H 185.837 -3.18822 5.99608 0
M  V30 2032 H 183.783 -4.81729 4.45279 0
M  V30 2033 H 183.7 -4.41535 6.13664 0
M  V30 2034 H 184.968 -5.45817 5.5651 0
M  V30 2035 N 189.197 -1.51736 -0.425897 0
M  V30 2036 C 190.445 -1.64644 -1.17204 0
M  V30 2037 C 190.766 -0.370486 -1.91448 0
M  V30 2038 O 190.036 0.614088 -1.86026 0
M  V30 2039 H 188.616 -0.606819 -0.435638 0
M  V30 2040 H 191.278 -1.88713 -0.487177 0
M  V30 2041 H 190.374 -2.47958 -1.89534 0
M  V30 2042 N 190.675 0.682077 -1.42076 0
M  V30 2043 C 191.921 1.44428 -1.42367 0
M  V30 2044 C 192.254 1.94164 -0.0373056 0
M  V30 2045 O 191.529 1.70429 0.937239 0
M  V30 2046 C 191.812 2.64654 -2.44194 0
M  V30 2047 C 191.665 2.20596 -3.91991 0
M  V30 2048 C 192.984 3.66865 -2.431 0
M  V30 2049 H 190.103 0.523834 -0.518428 0
M  V30 2050 H 192.745 0.77576 -1.73442 0
M  V30 2051 H 190.895 3.2169 -2.17826 0
M  V30 2052 H 192.567 1.68783 -4.29313 0
M  V30 2053 H 190.81 1.52242 -4.06208 0
M  V30 2054 H 191.481 3.06921 -4.58807 0
M  V30 2055 H 193.957 3.19531 -2.66532 0
M  V30 2056 H 192.833 4.48577 -3.16339 0
M  V30 2057 H 193.094 4.17493 -1.45437 0
M  V30 2058 N 192.153 1.28127 0.917671 0
M  V30 2059 C 193.085 1.07517 2.02417 0
M  V30 2060 C 194.098 0.0281099 1.62776 0
M  V30 2061 O 195.287 0.270748 1.76435 0
M  V30 2062 C 192.387 0.610957 3.33347 0
M  V30 2063 C 191.56 1.73255 4.01624 0
M  V30 2064 C 190.619 1.26238 5.10833 0
M  V30 2065 O 189.645 1.96389 5.34247 0
M  V30 2066 N 190.847 0.123448 5.80369 0
M  V30 2067 H 193.612 2.02806 2.20658 0
M  V30 2068 H 191.173 1.19827 1.08871 0
M  V30 2069 H 193.165 0.280101 4.0373 0
M  V30 2070 H 191.735 -0.24898 3.11607 0
M  V30 2071 H 190.955 2.23319 3.24842 0
M  V30 2072 H 192.243 2.48503 4.43986 0
M  V30 2073 H 191.641 -0.461847 5.63812 0
M  V30 2074 H 190.198 -0.148158 6.51632 0
M  V30 2075 N 193.631 -1.12557 1.10312 0
M  V30 2076 C 194.856 -1.88405 0.867085 0
M  V30 2077 C 195.281 -1.79038 -0.576817 0
M  V30 2078 O 194.639 -1.14439 -1.40618 0
M  V30 2079 C 194.687 -3.3563 1.31851 0
M  V30 2080 O 193.791 -4.09565 0.482734 0
M  V30 2081 H 193.132 -0.585455 0.313271 0
M  V30 2082 H 195.662 -1.42352 1.4696 0
M  V30 2083 H 195.672 -3.86469 1.3079 0
M  V30 2084 H 194.347 -3.41765 2.37001 0
M  V30 2085 H 192.924 -3.68695 0.558448 0
M  V30 2086 N 195.109 -0.891671 -1.2995 0
M  V30 2087 C 196.334 -0.527932 -2.00568 0
M  V30 2088 C 196.759 0.877969 -1.66353 0
M  V30 2089 O 196.117 1.58301 -0.883762 0
M  V30 2090 C 196.165 -0.717745 -3.53385 0
M  V30 2091 O 195.269 0.233376 -4.11739 0
M  V30 2092 H 194.61 -0.20722 -0.630837 0
M  V30 2093 H 197.14 -1.20105 -1.65638 0
M  V30 2094 H 197.15 -0.619307 -4.03272 0
M  V30 2095 H 195.825 -1.74276 -3.77625 0
M  V30 2096 H 194.402 0.0880706 -3.72796 0
M  V30 2097 N 196.587 1.43421 -0.653314 0
M  V30 2098 C 197.835 2.01414 -0.166415 0
M  V30 2099 C 198.156 1.51803 1.22397 0
M  V30 2100 O 197.426 0.730693 1.81763 0
M  V30 2101 H 196.006 0.744703 -0.0585319 0
M  V30 2102 H 198.668 1.75629 -0.845003 0
M  V30 2103 H 197.764 3.11734 -0.151111 0
M  V30 2104 N 198.065 0.39524 1.52563 0
M  V30 2105 C 199.311 -0.185318 2.01952 0
M  V30 2106 C 199.644 -1.45964 1.28095 0
M  V30 2107 O 198.919 -1.90689 0.38315 0
M  V30 2108 C 199.202 -0.447193 3.57312 0
M  V30 2109 C 199.055 0.842828 4.41833 0
M  V30 2110 C 200.374 -1.23529 4.22408 0
M  V30 2111 H 197.493 -0.0658788 0.73405 0
M  V30 2112 H 200.135 0.525975 1.82575 0
M  V30 2113 H 198.285 -1.05312 3.73954 0
M  V30 2114 H 199.957 1.4795 4.36931 0
M  V30 2115 H 198.2 1.45686 4.08605 0
M  V30 2116 H 198.871 0.614165 5.48573 0
M  V30 2117 H 201.347 -0.722445 4.0978 0
M  V30 2118 H 200.223 -1.38727 5.3108 0
M  V30 2119 H 200.484 -2.25213 3.80436 0
M  V30 2120 N 199.544 -1.57102 0.125237 0
M  V30 2121 C 200.474 -2.18659 -0.819174 0
M  V30 2122 C 201.455 -1.12843 -1.27281 0
M  V30 2123 O 202.64 -1.41104 -1.33429 0
M  V30 2124 C 199.77 -2.79096 -2.06695 0
M  V30 2125 C 198.724 -3.90548 -1.75088 0
M  V30 2126 C 198.05 -4.37821 -3.06948 0
M  V30 2127 C 199.35 -5.12356 -1.01435 0
M  V30 2128 H 201.044 -2.9783 -0.306202 0
M  V30 2129 H 198.59 -1.4326 -0.145839 0
M  V30 2130 H 200.543 -3.2082 -2.73226 0
M  V30 2131 H 199.267 -1.97223 -2.60328 0
M  V30 2132 H 197.926 -3.49409 -1.10944 0
M  V30 2133 H 197.574 -3.52799 -3.58527 0
M  V30 2134 H 197.274 -5.12982 -2.86571 0
M  V30 2135 H 198.798 -4.822 -3.74587 0
M  V30 2136 H 200.212 -5.5106 -1.58132 0
M  V30 2137 H 198.609 -5.9314 -0.911319 0
M  V30 2138 H 199.679 -4.849 -0.00218681 0
M  V30 2139 N 201.022 0.148545 -1.56898 0
M  V30 2140 C 202.269 0.861418 -1.83264 0
M  V30 2141 C 202.597 1.81239 -0.705883 0
M  V30 2142 O 201.852 1.93305 0.305212 0
M  V30 2143 C 202.151 1.67064 -3.1595 0
M  V30 2144 C 201.817 0.866591 -4.42494 0
M  V30 2145 C 200.479 0.644762 -4.76861 0
M  V30 2146 C 202.831 0.30418 -5.20312 0
M  V30 2147 C 200.159 -0.15021 -5.86508 0
M  V30 2148 C 202.511 -0.477824 -6.30793 0
M  V30 2149 C 201.175 -0.710244 -6.63711 0
M  V30 2150 H 200.445 0.315215 -0.670612 0
M  V30 2151 H 203.092 0.125142 -1.91091 0
M  V30 2152 H 201.397 2.47698 -3.03567 0
M  V30 2153 H 203.094 2.22566 -3.33565 0
M  V30 2154 H 199.684 1.04955 -4.15551 0
M  V30 2155 H 203.868 0.462844 -4.94137 0
M  V30 2156 H 199.124 -0.339796 -6.10455 0
M  V30 2157 H 203.298 -0.92076 -6.90286 0
M  V30 2158 H 200.925 -1.3281 -7.48509 0
M  V30 2159 N 202.5 1.5196 0.417844 0
M  V30 2160 C 203.748 1.65263 1.16329 0
M  V30 2161 C 204.069 0.380634 1.91249 0
M  V30 2162 O 203.339 -0.604214 1.86349 0
M  V30 2163 H 201.919 0.60912 0.432414 0
M  V30 2164 H 204.581 1.88969 0.477162 0
M  V30 2165 H 203.677 2.4896 1.88217 0
M  V30 2166 N 203.978 -0.674533 1.42435 0
M  V30 2167 C 205.208 -1.46071 1.46105 0
M  V30 2168 C 205.616 -1.89067 0.0709605 0
M  V30 2169 O 204.959 -1.58731 -0.924677 0
M  V30 2170 C 205.021 -2.74145 2.32561 0
M  V30 2171 C 204.685 -2.53224 3.8043 0
M  V30 2172 C 205.682 -2.17809 4.72075 0
M  V30 2173 C 203.367 -2.6821 4.24698 0
M  V30 2174 C 205.361 -1.97648 6.05982 0
M  V30 2175 C 203.048 -2.47665 5.58664 0
M  V30 2176 C 204.046 -2.12437 6.49122 0
M  V30 2177 O 203.734 -1.9209 7.80613 0
M  V30 2178 H 203.466 -0.455959 0.499076 0
M  V30 2179 H 206.02 -0.836193 1.87609 0
M  V30 2180 H 204.25 -3.3908 1.85908 0
M  V30 2181 H 205.939 -3.36028 2.27683 0
M  V30 2182 H 206.705 -2.05826 4.39159 0
M  V30 2183 H 202.584 -2.94609 3.54579 0
M  V30 2184 H 206.128 -1.70075 6.7655 0
M  V30 2185 H 202.025 -2.59244 5.91154 0
M  V30 2186 H 202.793 -2.06686 7.91974 0
M  V30 2187 N 205.456 -1.28612 -0.910864 0
M  V30 2188 C 206.702 -1.17116 -1.66299 0
M  V30 2189 C 207.057 0.276917 -1.90397 0
M  V30 2190 O 206.35 1.19795 -1.49532 0
M  V30 2191 C 206.544 -1.90624 -3.0232 0
M  V30 2192 C 206.373 -3.42431 -2.91498 0
M  V30 2193 C 205.143 -4.11773 -2.92867 0
M  V30 2194 C 207.341 -4.38124 -2.69355 0
M  V30 2195 N 205.323 -5.50025 -2.72664 0
M  V30 2196 C 206.694 -5.63759 -2.58023 0
M  V30 2197 C 208.749 -4.28016 -2.54375 0
M  V30 2198 C 207.452 -6.80436 -2.33238 0
M  V30 2199 C 209.478 -5.44433 -2.30969 0
M  V30 2200 C 208.84 -6.69034 -2.20394 0
M  V30 2201 H 204.939 -0.483506 -0.61461 0
M  V30 2202 H 207.523 -1.62299 -1.0755 0
M  V30 2203 H 205.694 -1.4787 -3.5915 0
M  V30 2204 H 207.426 -1.71488 -3.66571 0
M  V30 2205 H 204.181 -3.63378 -3.03732 0
M  V30 2206 H 204.605 -6.22705 -2.65646 0
M  V30 2207 H 209.247 -3.32388 -2.613 0
M  V30 2208 H 206.965 -7.7613 -2.25051 0
M  V30 2209 H 210.551 -5.38504 -2.20238 0
M  V30 2210 H 209.431 -7.57595 -2.02531 0
M  V30 2211 N 206.934 1.1197 -1.10907 0
M  V30 2212 C 207.864 2.19928 -0.784473 0
M  V30 2213 C 208.845 1.6833 0.244726 0
M  V30 2214 O 210.03 1.93892 0.109418 0
M  V30 2215 C 207.16 3.46597 -0.220827 0
M  V30 2216 C 206.114 4.11376 -1.18127 0
M  V30 2217 C 205.44 5.32554 -0.478594 0
M  V30 2218 C 206.74 4.56945 -2.52979 0
M  V30 2219 H 208.434 2.47337 -1.68715 0
M  V30 2220 H 205.98 1.18879 -0.812642 0
M  V30 2221 H 207.933 4.21396 0.0184278 0
M  V30 2222 H 206.657 3.1863 0.717113 0
M  V30 2223 H 205.316 3.38564 -1.40606 0
M  V30 2224 H 204.964 5.00856 0.463976 0
M  V30 2225 H 204.664 5.76844 -1.11912 0
M  V30 2226 H 206.188 6.10096 -0.248 0
M  V30 2227 H 207.602 5.23093 -2.3462 0
M  V30 2228 H 205.999 5.1203 -3.12962 0
M  V30 2229 H 207.069 3.70676 -3.12614 0
M  V30 2230 N 208.412 0.89855 1.29475 0
M  V30 2231 C 209.342 0.39201 2.30186 0
M  V30 2232 C 210.323 -0.532359 1.61555 0
M  V30 2233 O 211.508 -0.443331 1.89072 0
M  V30 2234 C 208.638 -0.382353 3.45189 0
M  V30 2235 C 207.592 0.451483 4.25612 0
M  V30 2236 C 206.918 -0.450307 5.328 0
M  V30 2237 C 208.218 1.70079 4.93832 0
M  V30 2238 H 209.912 1.23362 2.72804 0
M  V30 2239 H 207.458 0.594638 1.31149 0
M  V30 2240 H 209.411 -0.747451 4.14718 0
M  V30 2241 H 208.135 -1.25774 3.01411 0
M  V30 2242 H 206.794 0.798897 3.57789 0
M  V30 2243 H 206.442 -1.32379 4.85268 0
M  V30 2244 H 206.142 0.103902 5.87508 0
M  V30 2245 H 207.666 -0.811623 6.05182 0
M  V30 2246 H 209.08 1.40549 5.55805 0
M  V30 2247 H 207.477 2.19623 5.58467 0
M  V30 2248 H 208.547 2.43744 4.19186 0
M  V30 2249 N 209.89 -1.43072 0.660911 0
M  V30 2250 C 211.13 -2.03596 0.181146 0
M  V30 2251 C 211.494 -1.51057 -1.18515 0
M  V30 2252 O 212.695 -2.03275 -1.75877 0
M  V30 2253 C 210.966 -3.56845 0.19911 0
M  V30 2254 S 212.525 -4.38289 -0.211684 0
M  V30 2255 H 209.343 -0.706954 0.0757479 0
M  V30 2256 H 211.945 -1.75027 0.870965 0
M  V30 2257 H 210.649 -3.92583 1.1961 0
M  V30 2258 H 210.18 -3.90067 -0.510996 0
M  V30 2259 H 212.195 -4.74583 -1.44863 0
M  V30 2260 N 211.368 -0.403325 -1.52352 0
M  V30 2261 C 212.615 0.174347 -2.01748 0
M  V30 2262 C 212.943 1.45636 -1.2892 0
M  V30 2263 O 212.198 1.9193 -0.382258 0
M  V30 2264 C 212.497 0.474665 -3.54234 0
M  V30 2265 C 212.163 -0.717458 -4.45155 0
M  V30 2266 C 210.825 -1.04447 -4.69728 0
M  V30 2267 C 213.177 -1.51432 -4.98716 0
M  V30 2268 C 210.505 -2.16963 -5.45109 0
M  V30 2269 C 212.857 -2.6302 -5.75329 0
M  V30 2270 C 211.521 -2.96213 -5.98175 0
M  V30 2271 H 210.791 0.0637981 -0.738248 0
M  V30 2272 H 213.438 -0.543553 -1.83624 0
M  V30 2273 H 211.743 1.27406 -3.70506 0
M  V30 2274 H 213.44 0.934496 -3.89959 0
M  V30 2275 H 210.03 -0.452596 -4.26204 0
M  V30 2276 H 214.214 -1.27491 -4.79645 0
M  V30 2277 H 209.47 -2.43034 -5.61021 0
M  V30 2278 H 213.644 -3.25158 -6.15829 0
M  V30 2279 H 211.271 -3.83516 -6.56368 0
M  V30 2280 N 212.846 1.57033 -0.133567 0
M  V30 2281 C 214.092 1.95976 0.521649 0
M  V30 2282 C 214.425 1.01779 1.65393 0
M  V30 2283 O 213.7 0.0576581 1.94415 0
M  V30 2284 C 213.983 3.44738 1.04057 0
M  V30 2285 C 213.836 4.49711 -0.0892897 0
M  V30 2286 C 215.155 3.95682 1.92675 0
M  V30 2287 H 212.274 0.712579 0.188149 0
M  V30 2288 H 214.916 1.88813 -0.212076 0
M  V30 2289 H 213.066 3.50973 1.66583 0
M  V30 2290 H 214.738 4.55565 -0.725152 0
M  V30 2291 H 212.981 4.27261 -0.750378 0
M  V30 2292 H 213.652 5.51099 0.315284 0
M  V30 2293 H 216.128 3.91841 1.39998 0
M  V30 2294 H 215.004 5.00262 2.25897 0
M  V30 2295 H 215.265 3.37239 2.85872 0
M  V30 2296 N 214.325 -0.140222 1.56975 0
M  V30 2297 C 215.255 -1.17456 2.01808 0
M  V30 2298 C 216.236 -1.44415 0.898794 0
M  V30 2299 O 217.421 -1.5522 1.16707 0
M  V30 2300 C 214.551 -2.50607 2.40444 0
M  V30 2301 C 213.505 -2.38155 3.55621 0
M  V30 2302 C 212.831 -3.76078 3.80091 0
M  V30 2303 C 214.131 -1.85991 4.88062 0
M  V30 2304 H 215.825 -0.801743 2.88466 0
M  V30 2305 H 213.371 -0.38422 1.38779 0
M  V30 2306 H 215.324 -3.23197 2.7041 0
M  V30 2307 H 214.048 -2.89737 1.50732 0
M  V30 2308 H 212.707 -1.68016 3.25832 0
M  V30 2309 H 212.355 -4.12656 2.87618 0
M  V30 2310 H 212.055 -3.68606 4.57606 0
M  V30 2311 H 213.579 -4.50206 4.12488 0
M  V30 2312 H 214.993 -2.4838 5.16701 0
M  V30 2313 H 213.39 -1.89393 5.6943 0
M  V30 2314 H 214.46 -0.816023 4.77984 0
M  V30 2315 N 215.803 -1.52179 -0.40978 0
M  V30 2316 C 217.214 -1.58377 -0.988615 0
M  V30 2317 C 217.565 -0.423879 -1.91566 0
M  V30 2318 O 216.69 0.455844 -2.11544 0
M  V30 2319 C 217.285 -2.87044 -1.79976 0
M  V30 2320 C 215.844 -2.95722 -2.32863 0
M  V30 2321 C 214.991 -2.53309 -1.12828 0
M  V30 2322 H 217.942 -1.57558 -0.190039 0
M  V30 2323 H 217.963 -2.7236 -2.65707 0
M  V30 2324 H 217.475 -3.71444 -1.12478 0
M  V30 2325 H 215.576 -2.15814 -3.03735 0
M  V30 2326 H 215.689 -3.99951 -2.63773 0
M  V30 2327 H 214.053 -2.07142 -1.48204 0
M  V30 2328 H 214.836 -3.40082 -0.46897 0
M  V30 2329 N 217.281 0.66697 -1.42791 0
M  V30 2330 C 218.244 1.76211 -1.46568 0
M  V30 2331 C 219.244 1.56896 -0.352196 0
M  V30 2332 O 220.434 1.63044 -0.613364 0
M  V30 2333 C 217.566 3.14935 -1.30494 0
M  V30 2334 H 218.759 1.74247 -2.44086 0
M  V30 2335 H 216.312 0.877342 -1.29354 0
M  V30 2336 H 217.047 3.2252 -0.339301 0
M  V30 2337 H 216.832 3.30359 -2.11199 0
M  V30 2338 H 218.322 3.94821 -1.36038 0
M  V30 2339 N 218.759 1.29093 0.90403 0
M  V30 2340 C 219.987 1.19689 1.68766 0
M  V30 2341 C 220.402 -0.243113 1.87228 0
M  V30 2342 O 219.759 -1.16326 1.40621 0
M  V30 2343 C 219.81 1.90144 3.07453 0
M  V30 2344 O 219.531 3.2852 2.89838 0
M  V30 2345 C 221.032 1.87162 4.01852 0
M  V30 2346 H 218.252 0.415035 0.527244 0
M  V30 2347 H 220.796 1.7039 1.13082 0
M  V30 2348 H 218.951 1.43289 3.59926 0
M  V30 2349 H 219.365 3.63944 3.77684 0
M  V30 2350 H 220.839 2.41032 4.96596 0
M  V30 2351 H 221.316 0.84617 4.30972 0
M  V30 2352 H 221.922 2.33741 3.5531 0
M  V30 2353 N 220.237 -1.11381 1.11499 0
M  V30 2354 C 221.185 -2.19522 0.768956 0
M  V30 2355 C 222.179 -1.67693 -0.239857 0
M  V30 2356 O 223.385 -1.79727 -0.0990755 0
M  V30 2357 H 219.76 -0.715711 0.230786 0
M  V30 2358 H 221.731 -2.45954 1.68964 0
M  V30 2359 C 220.48 -3.46945 0.229073 0
M  V30 2360 H 219.803 -3.8718 0.996596 0
M  V30 2361 H 221.243 -4.23993 0.0251441 0
M  V30 2362 C 219.702 -3.2042 -1.04079 0
M  V30 2363 O 220.232 -3.41178 -2.12038 0
M  V30 2364 N 218.438 -2.74151 -0.963823 0
M  V30 2365 H 217.985 -2.57459 -0.0851722 0
M  V30 2366 H 217.943 -2.56781 -1.81414 0
M  V30 2367 N 221.715 -0.905404 -1.28997 0
M  V30 2368 C 222.678 -0.392253 -2.25819 0
M  V30 2369 C 223.678 0.476753 -1.5357 0
M  V30 2370 O 224.868 0.280994 -1.71919 0
M  V30 2371 C 222 0.438588 -3.38067 0
M  V30 2372 H 223.193 -1.24743 -2.72725 0
M  V30 2373 H 220.746 -0.684051 -1.40536 0
M  V30 2374 H 221.481 1.31352 -2.96508 0
M  V30 2375 H 221.266 -0.184167 -3.91667 0
M  V30 2376 H 222.756 0.78873 -4.10084 0
M  V30 2377 N 223.193 1.4272 -0.668489 0
M  V30 2378 C 224.156 2.292 0.00448567 0
M  V30 2379 C 225.156 1.43001 0.735339 0
M  V30 2380 O 226.346 1.64461 0.57429 0
M  V30 2381 C 223.478 3.25375 1.01705 0
M  V30 2382 H 224.671 2.90199 -0.756608 0
M  V30 2383 H 222.224 1.50254 -0.430506 0
M  V30 2384 H 222.959 2.69301 1.80686 0
M  V30 2385 H 222.744 3.88944 0.496463 0
M  V30 2386 H 224.234 3.90245 1.48655 0
M  V30 2387 N 224.671 0.411399 1.52136 0
M  V30 2388 C 225.603 -0.448386 2.24771 0
M  V30 2389 C 226.616 -1.00828 1.27818 0
M  V30 2390 O 227.805 -0.906841 1.53749 0
M  V30 2391 C 224.905 -1.63636 2.96777 0
M  V30 2392 C 224.078 -1.19995 4.20618 0
M  V30 2393 C 223.137 -2.25509 4.75428 0
M  V30 2394 O 222.163 -1.86007 5.3795 0
M  V30 2395 N 223.365 -3.577 4.57199 0
M  V30 2396 H 226.13 0.174025 2.99194 0
M  V30 2397 H 223.691 0.238897 1.60128 0
M  V30 2398 H 225.683 -2.33793 3.30338 0
M  V30 2399 H 224.253 -2.16465 2.25526 0
M  V30 2400 H 223.473 -0.326421 3.92846 0
M  V30 2401 H 224.761 -0.885365 5.01038 0
M  V30 2402 H 224.159 -3.92543 4.07341 0
M  V30 2403 H 222.716 -4.23827 4.95191 0
M  V30 2404 N 226.149 -1.5696 0.141893 0
M  V30 2405 C 227.081 -2.13619 -0.830627 0
M  V30 2406 C 228.094 -1.08439 -1.21428 0
M  V30 2407 O 229.283 -1.35734 -1.15925 0
M  V30 2408 C 226.383 -2.63978 -2.12529 0
M  V30 2409 C 225.556 -3.93504 -1.9098 0
M  V30 2410 C 224.615 -4.29225 -3.04388 0
M  V30 2411 O 223.641 -4.97641 -2.76302 0
M  V30 2412 N 224.843 -3.88393 -4.31429 0
M  V30 2413 H 227.608 -2.97691 -0.34641 0
M  V30 2414 H 225.169 -1.61846 -0.0418375 0
M  V30 2415 H 227.161 -2.84891 -2.87436 0
M  V30 2416 H 225.731 -1.84659 -2.52229 0
M  V30 2417 H 224.951 -3.81269 -1.00139 0
M  V30 2418 H 226.239 -4.78154 -1.73914 0
M  V30 2419 H 225.637 -3.33257 -4.57117 0
M  V30 2420 H 224.194 -4.14368 -5.03133 0
M  V30 2421 N 227.627 0.131896 -1.57047 0
M  V30 2422 C 228.59 1.14638 -1.98471 0
M  V30 2423 C 229.59 1.35029 -0.873148 0
M  V30 2424 O 230.78 1.31764 -1.13946 0
M  V30 2425 C 227.912 2.50358 -2.31373 0
M  V30 2426 H 229.105 0.79064 -2.8929 0
M  V30 2427 H 226.658 0.375761 -1.51716 0
M  V30 2428 H 227.393 2.90876 -1.43393 0
M  V30 2429 H 227.178 2.36915 -3.12432 0
M  V30 2430 H 228.668 3.23395 -2.64207 0
M  V30 2431 N 229.106 1.52395 0.401703 0
M  V30 2432 C 230.331 1.70972 1.17403 0
M  V30 2433 C 230.756 0.421615 1.83314 0
M  V30 2434 O 230.114 -0.621564 1.70312 0
M  V30 2435 C 230.162 2.85151 2.20728 0
M  V30 2436 O 229.266 2.51238 3.27037 0
M  V30 2437 H 228.607 0.568927 0.342372 0
M  V30 2438 H 231.137 1.99131 0.469891 0
M  V30 2439 H 231.147 3.10279 2.64936 0
M  V30 2440 H 229.822 3.78603 1.7214 0
M  V30 2441 H 228.399 2.36808 2.88057 0
M  V30 2442 N 230.584 -0.659388 1.43143 0
M  V30 2443 C 231.832 -1.41654 1.44147 0
M  V30 2444 C 232.153 -1.94893 0.0645739 0
M  V30 2445 O 231.423 -1.74044 -0.899198 0
M  V30 2446 H 230.003 -0.525708 0.530697 0
M  V30 2447 H 232.665 -0.778097 1.78694 0
M  V30 2448 H 231.761 -2.26195 2.1504 0
M  V30 2449 N 232.062 -1.29571 -0.897171 0
M  V30 2450 C 233.025 -1.14913 -1.98312 0
M  V30 2451 C 234.025 -0.0838629 -1.60581 0
M  V30 2452 O 235.215 -0.331006 -1.71026 0
M  V30 2453 C 232.347 -0.757835 -3.3237 0
M  V30 2454 H 233.54 -2.11377 -2.12743 0
M  V30 2455 H 231.093 -1.12793 -1.08201 0
M  V30 2456 H 231.828 0.206837 -3.2364 0
M  V30 2457 H 231.613 -1.52755 -3.61121 0
M  V30 2458 H 233.103 -0.678408 -4.12053 0
M  V30 2459 N 233.54 1.10788 -1.12088 0
M  V30 2460 C 234.788 1.8231 -0.872205 0
M  V30 2461 C 235.109 1.85419 0.603709 0
M  V30 2462 O 234.379 1.32963 1.43867 0
M  V30 2463 H 232.959 0.675137 -0.319686 0
M  V30 2464 H 235.621 1.34068 -1.41463 0
M  V30 2465 H 234.717 2.85955 -1.25045 0
M  V30 2466 N 235.018 0.912232 1.28515 0
M  V30 2467 C 236.265 0.544599 1.95039 0
M  V30 2468 C 236.593 -0.911435 1.71823 0
M  V30 2469 O 235.848 -1.66317 1.03137 0
M  V30 2470 C 236.147 0.798392 3.48368 0
M  V30 2471 C 235.813 2.23374 3.91682 0
M  V30 2472 C 234.475 2.62617 4.03219 0
M  V30 2473 C 236.827 3.16786 4.13879 0
M  V30 2474 C 234.155 3.94429 4.3433 0
M  V30 2475 C 236.507 4.48161 4.46469 0
M  V30 2476 C 235.171 4.8726 4.56217 0
M  V30 2477 H 234.441 0.199283 0.7137 0
M  V30 2478 H 237.088 1.15327 1.52879 0
M  V30 2479 H 235.393 0.106908 3.91654 0
M  V30 2480 H 237.09 0.493141 3.97956 0
M  V30 2481 H 233.68 1.91922 3.83228 0
M  V30 2482 H 237.864 2.87677 4.0442 0
M  V30 2483 H 233.12 4.24426 4.40082 0
M  V30 2484 H 237.294 5.20559 4.62592 0
M  V30 2485 H 234.921 5.89431 4.80078 0
M  V30 2486 N 236.496 -1.42363 0.676048 0
M  V30 2487 C 237.428 -2.29164 -0.0404605 0
M  V30 2488 C 238.441 -1.43747 -0.764245 0
M  V30 2489 O 239.63 -1.67453 -0.618195 0
M  V30 2490 C 236.73 -3.21196 -1.08103 0
M  V30 2491 C 235.903 -4.35273 -0.430812 0
M  V30 2492 C 234.962 -5.08017 -1.37133 0
M  V30 2493 O 233.988 -5.62494 -0.87116 0
M  V30 2494 N 235.19 -5.13647 -2.70456 0
M  V30 2495 H 237.955 -2.91298 0.704667 0
M  V30 2496 H 235.516 -1.53303 0.520559 0
M  V30 2497 H 237.508 -3.66728 -1.71152 0
M  V30 2498 H 236.078 -2.60505 -1.72788 0
M  V30 2499 H 235.298 -3.92372 0.379209 0
M  V30 2500 H 236.586 -5.08795 0.0221132 0
M  V30 2501 H 235.984 -4.708 -3.1363 0
M  V30 2502 H 234.541 -5.62821 -3.28749 0
M  V30 2503 N 237.974 -0.419461 -1.51915 0
M  V30 2504 C 239.199 0.154572 -2.06823 0
M  V30 2505 C 239.624 1.3722 -1.28656 0
M  V30 2506 O 238.982 1.78461 -0.319583 0
M  V30 2507 C 239.03 0.473172 -3.57482 0
M  V30 2508 O 238.134 1.56255 -3.81652 0
M  V30 2509 H 237.475 0.0096924 -0.663929 0
M  V30 2510 H 240.005 -0.595642 -1.95738 0
M  V30 2511 H 240.015 0.728825 -4.01438 0
M  V30 2512 H 238.69 -0.416873 -4.13805 0
M  V30 2513 H 237.267 1.29825 -3.49571 0
M  V30 2514 N 239.452 1.56882 -0.150215 0
M  V30 2515 C 240.729 1.87844 0.545327 0
M  V30 2516 C 241.109 1.0567 1.82749 0
M  V30 2517 O 240.457 0.144442 2.28043 0
M  V30 2518 C 240.667 3.39526 0.80767 0
M  V30 2519 C 242.015 4.08814 1.14703 0
M  V30 2520 O 243.039 3.44723 0.896917 0
M  V30 2521 O 241.898 5.22004 1.61784 0
M  V30 2522 H 238.992 0.778677 0.278553 0
M  V30 2523 H 241.538 1.68666 -0.187068 0
M  V30 2524 H 240.31 3.91173 -0.0996096 0
M  V30 2525 H 239.933 3.64243 1.59413 0
M  V30 2526 N 240.93 -0.123565 1.57115 0
M  V30 2527 C 242.341 -0.681198 1.73829 0
M  V30 2528 C 242.692 -1.80535 0.768214 0
M  V30 2529 O 241.817 -2.16317 -0.0599103 0
M  V30 2530 C 242.412 -1.24246 3.15196 0
M  V30 2531 C 240.971 -1.74643 3.33432 0
M  V30 2532 C 240.118 -0.644284 2.69711 0
M  V30 2533 H 243.069 0.102315 1.5837 0
M  V30 2534 H 243.09 -2.11216 3.16493 0
M  V30 2535 H 242.602 -0.424062 3.85776 0
M  V30 2536 H 240.703 -2.58974 2.67886 0
M  V30 2537 H 240.816 -1.85902 4.41562 0
M  V30 2538 H 239.18 -1.07676 2.3082 0
M  V30 2539 H 239.963 0.163058 3.42913 0
M  V30 2540 N 242.408 -1.52605 -0.393616 0
M  V30 2541 C 243.654 -1.67672 -1.14079 0
M  V30 2542 C 243.987 -0.413121 -1.89755 0
M  V30 2543 O 243.262 0.588952 -1.85369 0
M  V30 2544 C 243.545 -2.9088 -2.12276 0
M  V30 2545 C 243.398 -4.27329 -1.40394 0
M  V30 2546 C 244.717 -3.09628 -3.12759 0
M  V30 2547 H 241.836 -0.610168 -0.413356 0
M  V30 2548 H 244.478 -1.85193 -0.424696 0
M  V30 2549 H 242.628 -2.76073 -2.73342 0
M  V30 2550 H 244.3 -4.53894 -0.82327 0
M  V30 2551 H 242.543 -4.2802 -0.705801 0
M  V30 2552 H 243.214 -5.09615 -2.12123 0
M  V30 2553 H 245.69 -3.23436 -2.61779 0
M  V30 2554 H 244.566 -3.97322 -3.78717 0
M  V30 2555 H 244.827 -2.23637 -3.81365 0
M  V30 2556 N 243.887 0.651787 -1.4349 0
M  V30 2557 C 245.303 0.96762 -1.26922 0
M  V30 2558 C 245.503 2.00602 -0.189982 0
M  V30 2559 O 244.559 2.48793 0.431107 0
M  V30 2560 C 245.872 1.45052 -2.63401 0
M  V30 2561 C 247.42 1.5671 -2.70945 0
M  V30 2562 C 247.895 2.0839 -4.07845 0
M  V30 2563 N 249.386 2.1569 -4.09917 0
M  V30 2564 C 250.121 2.56804 -5.12679 0
M  V30 2565 N 249.617 2.97203 -6.25813 0
M  V30 2566 N 251.41 2.56756 -5.00033 0
M  V30 2567 H 243.561 -0.0353158 -2.12371 0
M  V30 2568 H 245.824 0.0467858 -0.946845 0
M  V30 2569 H 245.53 0.761926 -3.43348 0
M  V30 2570 H 245.404 2.42529 -2.88894 0
M  V30 2571 H 247.791 2.2467 -1.9133 0
M  V30 2572 H 247.872 0.57662 -2.49216 0
M  V30 2573 H 247.516 1.41031 -4.87927 0
M  V30 2574 H 247.446 3.08271 -4.26938 0
M  V30 2575 H 249.937 1.87237 -3.28254 0
M  V30 2576 H 250.25 3.27328 -7.00055 0
M  V30 2577 H 248.595 2.95004 -6.29283 0
M  V30 2578 H 251.786 2.24572 -4.10713 0
M  V30 2579 H 251.959 2.88475 -5.80247 0
M  V30 2580 N 245.365 1.30045 0.890287 0
M  V30 2581 C 246.315 1.12592 1.9826 0
M  V30 2582 C 247.299 0.0426021 1.60844 0
M  V30 2583 O 248.491 0.265346 1.75 0
M  V30 2584 C 245.62 0.814301 3.33503 0
M  V30 2585 C 244.706 1.93761 3.7725 0
M  V30 2586 N 245.097 3.18232 3.93143 0
M  V30 2587 C 243.395 1.83277 4.06602 0
M  V30 2588 C 244.096 3.9158 4.30163 0
M  V30 2589 N 243.072 3.19591 4.3973 0
M  V30 2590 H 246.874 2.07003 2.08631 0
M  V30 2591 H 244.388 1.21307 1.07974 0
M  V30 2592 H 246.385 0.67029 4.11476 0
M  V30 2593 H 245.045 -0.121797 3.24471 0
M  V30 2594 H 246.056 3.53581 3.78419 0
M  V30 2595 H 242.733 0.97001 4.06075 0
M  V30 2596 H 244.123 4.98744 4.50226 0
M  V30 2597 N 246.843 -1.10192 1.12674 0
M  V30 2598 C 247.773 -2.18652 0.819362 0
M  V30 2599 C 248.754 -1.68698 -0.217915 0
M  V30 2600 O 249.939 -1.94041 -0.0785581 0
M  V30 2601 C 247.069 -3.46202 0.27594 0
M  V30 2602 C 246.023 -4.09444 1.24656 0
M  V30 2603 C 245.349 -5.31725 0.563258 0
M  V30 2604 C 246.649 -4.52863 2.60217 0
M  V30 2605 H 248.343 -2.44622 1.72628 0
M  V30 2606 H 245.889 -1.17571 0.831451 0
M  V30 2607 H 247.842 -4.21372 0.0486149 0
M  V30 2608 H 246.566 -3.1973 -0.666331 0
M  V30 2609 H 245.225 -3.36284 1.45974 0
M  V30 2610 H 244.873 -5.0153 -0.384235 0
M  V30 2611 H 244.573 -5.74991 1.21075 0
M  V30 2612 H 246.097 -6.09624 0.34503 0
M  V30 2613 H 247.511 -5.19294 2.42913 0
M  V30 2614 H 245.908 -5.06986 3.21068 0
M  V30 2615 H 246.978 -3.65656 3.18471 0
M  V30 2616 N 248.321 -0.919034 -1.28029 0
M  V30 2617 C 249.546 -0.570357 -1.99403 0
M  V30 2618 C 249.971 0.842486 -1.68178 0
M  V30 2619 O 249.329 1.56391 -0.917141 0
M  V30 2620 C 249.377 -0.792541 -3.51783 0
M  V30 2621 O 248.481 0.145988 -4.12142 0
M  V30 2622 H 247.822 -0.220555 -0.6263 0
M  V30 2623 H 250.352 -1.23592 -1.63053 0
M  V30 2624 H 250.362 -0.704708 -4.01868 0
M  V30 2625 H 249.037 -1.82247 -3.73844 0
M  V30 2626 H 247.614 0.00897528 -3.72899 0
M  V30 2627 N 249.799 1.42003 -0.683588 0
M  V30 2628 C 251.027 2.05746 -0.218182 0
M  V30 2629 C 251.442 1.51396 1.12804 0
M  V30 2630 O 250.799 0.657303 1.70252 0
M  V30 2631 C 250.85 3.61171 -0.154131 0
M  V30 2632 O 250.571 4.13508 -1.44716 0
M  V30 2633 C 252.072 4.42042 0.333713 0
M  V30 2634 H 249.292 0.662888 -0.10402 0
M  V30 2635 H 251.836 1.81987 -0.9328 0
M  V30 2636 H 249.991 3.84012 0.511231 0
M  V30 2637 H 250.405 5.07453 -1.32632 0
M  V30 2638 H 251.879 5.51028 0.327423 0
M  V30 2639 H 252.356 4.17269 1.37053 0
M  V30 2640 H 252.962 4.24239 -0.300222 0
M  V30 2641 N 251.277 0.427512 1.51691 0
M  V30 2642 C 252.507 -0.140986 2.06118 0
M  V30 2643 C 252.915 -1.37854 1.29588 0
M  V30 2644 O 252.258 -1.80411 0.346036 0
M  V30 2645 C 252.32 -0.538276 3.55447 0
M  V30 2646 C 251.984 0.591095 4.53161 0
M  V30 2647 C 252.981 1.46027 4.98971 0
M  V30 2648 C 250.666 0.769028 4.96378 0
M  V30 2649 C 252.66 2.49216 5.8666 0
M  V30 2650 C 250.347 1.80421 5.83859 0
M  V30 2651 C 251.345 2.66417 6.28897 0
M  V30 2652 O 251.033 3.68159 7.14643 0
M  V30 2653 H 250.765 -0.0157455 0.675817 0
M  V30 2654 H 253.319 0.602495 1.96365 0
M  V30 2655 H 251.549 -1.33432 3.6295 0
M  V30 2656 H 253.238 -1.0368 3.92435 0
M  V30 2657 H 254.004 1.33429 4.66285 0
M  V30 2658 H 249.883 0.109273 4.6087 0
M  V30 2659 H 253.427 3.16372 6.21735 0
M  V30 2660 H 249.324 1.93042 6.15959 0
M  V30 2661 H 250.092 3.64622 7.32798 0
M  V30 2662 N 252.755 -1.56801 0.158532 0
M  V30 2663 C 253.685 -2.20347 -0.772609 0
M  V30 2664 C 254.666 -1.15518 -1.24859 0
M  V30 2665 O 255.851 -1.43902 -1.30406 0
M  V30 2666 C 252.981 -2.83417 -2.00729 0
M  V30 2667 C 251.935 -3.94174 -1.66765 0
M  V30 2668 C 251.261 -4.44233 -2.97592 0
M  V30 2669 C 252.561 -5.14392 -0.905447 0
M  V30 2670 H 254.255 -2.98413 -0.242959 0
M  V30 2671 H 251.801 -1.43537 -0.115419 0
M  V30 2672 H 253.754 -3.26543 -2.6636 0
M  V30 2673 H 252.478 -2.02701 -2.56086 0
M  V30 2674 H 251.137 -3.51684 -1.03508 0
M  V30 2675 H 250.785 -3.60325 -3.50963 0
M  V30 2676 H 250.485 -5.18945 -2.75626 0
M  V30 2677 H 252.009 -4.90037 -3.64274 0
M  V30 2678 H 253.423 -5.5429 -1.46408 0
M  V30 2679 H 251.82 -5.9494 -0.7853 0
M  V30 2680 H 252.89 -4.84795 0.100668 0
M  V30 2681 N 254.233 0.115231 -1.57178 0
M  V30 2682 C 255.473 0.828199 -1.8687 0
M  V30 2683 C 255.837 1.76873 -0.747002 0
M  V30 2684 O 257.038 2.52354 -0.925785 0
M  V30 2685 C 255.309 1.55515 -3.21792 0
M  V30 2686 S 256.868 2.30917 -3.73125 0
M  V30 2687 H 253.686 0.27634 -0.655101 0
M  V30 2688 H 256.288 0.0863469 -1.95309 0
M  V30 2689 H 254.992 0.856248 -4.01368 0
M  V30 2690 H 254.523 2.3373 -3.16439 0
M  V30 2691 H 256.538 3.56705 -3.44929 0
M  V30 2692 N 255.711 1.52812 0.385517 0
M  V30 2693 C 256.641 1.80808 1.47752 0
M  V30 2694 C 257.622 0.660318 1.5676 0
M  V30 2695 O 258.807 0.908246 1.71652 0
M  V30 2696 C 255.937 1.98008 2.85324 0
M  V30 2697 C 254.891 3.13709 2.91154 0
M  V30 2698 C 254.217 3.16169 4.31209 0
M  V30 2699 C 255.517 4.52709 2.60483 0
M  V30 2700 H 257.211 2.72253 1.24573 0
M  V30 2701 H 254.757 1.31003 0.597839 0
M  V30 2702 H 256.71 2.16176 3.61726 0
M  V30 2703 H 255.434 1.03255 3.09848 0
M  V30 2704 H 254.093 2.95329 2.17201 0
M  V30 2705 H 253.741 2.19092 4.52778 0
M  V30 2706 H 253.441 3.93894 4.36029 0
M  V30 2707 H 254.965 3.36496 5.09512 0
M  V30 2708 H 256.379 4.71173 3.26602 0
M  V30 2709 H 254.776 5.32528 2.76648 0
M  V30 2710 H 255.846 4.59186 1.55809 0
M  V30 2711 N 257.189 -0.644168 1.43834 0
M  V30 2712 C 258.414 -1.43642 1.49605 0
M  V30 2713 C 258.839 -1.8773 0.117913 0
M  V30 2714 O 258.197 -1.57938 -0.890239 0
M  V30 2715 C 258.245 -2.6416 2.45463 0
M  V30 2716 O 257.349 -3.63538 1.94714 0
M  V30 2717 H 256.69 -0.430329 0.50568 0
M  V30 2718 H 259.22 -0.787448 1.8884 0
M  V30 2719 H 259.23 -3.11864 2.63068 0
M  V30 2720 H 257.905 -2.31414 3.45572 0
M  V30 2721 H 256.482 -3.2273 1.86814 0
M  V30 2722 N 258.668 -1.30515 -0.883378 0
M  V30 2723 C 259.598 -1.19607 -2.00541 0
M  V30 2724 C 260.579 -0.086346 -1.69881 0
M  V30 2725 O 261.764 -0.268654 -1.92333 0
M  V30 2726 C 258.894 -0.888758 -3.35736 0
M  V30 2727 C 257.848 -1.95659 -3.8066 0
M  V30 2728 C 257.174 -1.50224 -5.13164 0
M  V30 2729 C 258.474 -3.36788 -3.99213 0
M  V30 2730 H 260.168 -2.13476 -2.09925 0
M  V30 2731 H 257.714 -1.02775 -1.00863 0
M  V30 2732 H 259.667 -0.799094 -4.13754 0
M  V30 2733 H 258.391 0.0856125 -3.26488 0
M  V30 2734 H 257.05 -2.03591 -3.04871 0
M  V30 2735 H 256.698 -0.516092 -5.00345 0
M  V30 2736 H 256.398 -2.2165 -5.44192 0
M  V30 2737 H 257.922 -1.42639 -5.93706 0
M  V30 2738 H 259.336 -3.31605 -4.67665 0
M  V30 2739 H 257.733 -4.06314 -4.41621 0
M  V30 2740 H 258.803 -3.78561 -3.03017 0
M  V30 2741 N 260.146 1.09593 -1.13257 0
M  V30 2742 C 261.392 1.82003 -0.89458 0
M  V30 2743 C 261.725 1.85402 0.577906 0
M  V30 2744 O 261 1.32099 1.42759 0
M  V30 2745 C 261.283 3.28237 -1.48096 0
M  V30 2746 C 261.136 3.3312 -3.02244 0
M  V30 2747 C 262.455 4.24871 -1.14774 0
M  V30 2748 H 259.574 0.66077 -0.326424 0
M  V30 2749 H 262.216 1.28389 -1.40058 0
M  V30 2750 H 260.366 3.74024 -1.05062 0
M  V30 2751 H 262.038 2.95748 -3.54021 0
M  V30 2752 H 260.281 2.72756 -3.37323 0
M  V30 2753 H 260.952 4.3613 -3.38371 0
M  V30 2754 H 263.428 3.87361 -1.51957 0
M  V30 2755 H 262.304 5.25532 -1.58452 0
M  V30 2756 H 262.565 4.42058 -0.0611849 0
M  V30 2757 N 261.624 0.925811 1.2754 0
M  V30 2758 C 262.87 0.566092 1.94739 0
M  V30 2759 C 263.203 -0.890057 1.72603 0
M  V30 2760 O 262.478 -1.63467 1.05399 0
M  V30 2761 C 262.761 0.89054 3.48915 0
M  V30 2762 C 262.614 2.4003 3.80402 0
M  V30 2763 C 263.933 0.395101 4.38323 0
M  V30 2764 H 261.052 0.20714 0.707292 0
M  V30 2765 H 263.694 1.15725 1.50691 0
M  V30 2766 H 261.844 0.387452 3.86563 0
M  V30 2767 H 263.516 2.97494 3.52555 0
M  V30 2768 H 261.759 2.85028 3.2702 0
M  V30 2769 H 262.43 2.57785 4.8811 0
M  V30 2770 H 264.906 0.826241 4.07814 0
M  V30 2771 H 263.782 0.651086 5.45025 0
M  V30 2772 H 264.043 -0.704798 4.36446 0
M  V30 2773 N 263.102 -1.41638 0.69111 0
M  V30 2774 C 264.065 -2.29178 0.0319786 0
M  V30 2775 C 265.065 -1.44153 -0.712496 0
M  V30 2776 O 266.255 -1.65354 -0.548053 0
M  V30 2777 C 263.387 -3.26952 -0.965161 0
M  V30 2778 H 264.58 -2.88959 0.802681 0
M  V30 2779 H 262.133 -1.4955 0.454356 0
M  V30 2780 H 262.868 -2.72142 -1.76378 0
M  V30 2781 H 262.653 -3.89685 -0.434522 0
M  V30 2782 H 264.143 -3.92561 -1.42428 0
M  V30 2783 N 264.58 -0.43555 -1.51462 0
M  V30 2784 C 265.512 0.41257 -2.25456 0
M  V30 2785 C 266.525 0.987822 -1.29406 0
M  V30 2786 O 267.714 0.882266 -1.55172 0
M  V30 2787 C 264.814 1.58894 -2.99342 0
M  V30 2788 C 263.987 1.13288 -4.22474 0
M  V30 2789 C 263.046 2.17917 -4.78956 0
M  V30 2790 O 262.072 1.77425 -5.40841 0
M  V30 2791 N 263.274 3.50382 -4.62832 0
M  V30 2792 H 266.039 -0.221603 -2.9888 0
M  V30 2793 H 263.6 -0.264342 -1.59727 0
M  V30 2794 H 265.592 2.28508 -3.34015 0
M  V30 2795 H 264.162 2.12849 -2.28941 0
M  V30 2796 H 263.382 0.263881 -3.93316 0
M  V30 2797 H 264.67 0.805542 -5.02383 0
M  V30 2798 H 264.068 3.86013 -4.13534 0
M  V30 2799 H 262.625 4.15895 -5.01871 0
M  V30 2800 N 266.058 1.56714 -0.166846 0
M  V30 2801 C 267.305 1.96747 0.479252 0
M  V30 2802 C 267.633 1.05263 1.63554 0
M  V30 2803 O 266.888 0.0858098 1.95512 0
M  V30 2804 C 267.187 3.42889 1.00806 0
M  V30 2805 C 266.853 4.50889 -0.0318574 0
M  V30 2806 C 265.515 4.8015 -0.317675 0
M  V30 2807 C 267.867 5.15949 -0.737956 0
M  V30 2808 C 265.195 5.71772 -1.31506 0
M  V30 2809 C 267.547 6.08647 -1.72429 0
M  V30 2810 C 266.211 6.36277 -2.0176 0
M  V30 2811 H 265.481 0.719949 0.175371 0
M  V30 2812 H 268.128 1.89756 -0.257864 0
M  V30 2813 H 266.433 3.4681 1.82291 0
M  V30 2814 H 268.13 3.71203 1.51689 0
M  V30 2815 H 264.72 4.28128 0.201088 0
M  V30 2816 H 268.904 4.93458 -0.530351 0
M  V30 2817 H 264.16 5.91465 -1.54853 0
M  V30 2818 H 268.334 6.58129 -2.27682 0
M  V30 2819 H 265.961 7.07075 -2.79194 0
M  V30 2820 N 267.536 -0.106894 1.57237 0
M  V30 2821 C 268.782 -0.81373 1.85759 0
M  V30 2822 C 269.115 -1.78952 0.754315 0
M  V30 2823 O 268.39 -1.93029 -0.23879 0
M  V30 2824 C 268.673 -1.55293 3.24894 0
M  V30 2825 C 268.526 -0.595929 4.45835 0
M  V30 2826 C 269.845 -2.5063 3.61763 0
M  V30 2827 H 266.964 -0.294369 0.67566 0
M  V30 2828 H 269.606 -0.0776472 1.89841 0
M  V30 2829 H 267.756 -2.1804 3.21544 0
M  V30 2830 H 269.428 0.0236262 4.61294 0
M  V30 2831 H 267.671 0.0916191 4.33703 0
M  V30 2832 H 268.342 -1.15004 5.39887 0
M  V30 2833 H 270.818 -1.97982 3.65981 0
M  V30 2834 H 269.694 -2.99376 4.60071 0
M  V30 2835 H 269.955 -3.3385 2.89821 0
M  V30 2836 N 269.014 -1.53014 -0.377408 0
M  V30 2837 C 269.944 -1.81589 -1.46791 0
M  V30 2838 C 270.925 -0.668622 -1.56408 0
M  V30 2839 O 272.11 -0.917337 -1.71168 0
M  V30 2840 C 269.24 -1.99519 -2.8427 0
M  V30 2841 C 268.194 -3.15249 -2.89486 0
M  V30 2842 C 267.52 -3.18451 -4.29527 0
M  V30 2843 C 268.82 -4.54084 -2.58079 0
M  V30 2844 H 270.514 -2.7291 -1.23127 0
M  V30 2845 H 268.06 -1.31319 -0.590883 0
M  V30 2846 H 270.013 -2.18092 -3.60575 0
M  V30 2847 H 268.737 -1.04897 -3.09296 0
M  V30 2848 H 267.396 -2.96477 -2.15631 0
M  V30 2849 H 267.044 -2.2149 -4.5161 0
M  V30 2850 H 266.744 -3.962 -4.33934 0
M  V30 2851 H 268.268 -3.39193 -5.07721 0
M  V30 2852 H 269.682 -4.72899 -3.24098 0
M  V30 2853 H 268.079 -5.33987 -2.7382 0
M  V30 2854 H 269.149 -4.60006 -1.53372 0
M  V30 2855 N 270.492 0.636531 -1.44174 0
M  V30 2856 C 271.717 1.42847 -1.50364 0
M  V30 2857 C 272.142 1.87665 -0.127867 0
M  V30 2858 O 271.5 1.58408 0.88185 0
M  V30 2859 C 271.548 2.62854 -2.4686 0
M  V30 2860 O 270.652 3.62501 -1.9664 0
M  V30 2861 H 269.993 0.427642 -0.507955 0
M  V30 2862 H 272.523 0.777422 -1.89255 0
M  V30 2863 H 272.533 3.10465 -2.64718 0
M  V30 2864 H 271.208 2.29578 -3.46795 0
M  V30 2865 H 269.785 3.21735 -1.88523 0
M  V30 2866 N 271.97 1.30982 0.876444 0
M  V30 2867 C 273.21 1.21589 1.64303 0
M  V30 2868 C 273.574 -0.223962 1.90689 0
M  V30 2869 O 274.775 -0.44128 2.65153 0
M  V30 2870 C 273.046 2.03007 2.94148 0
M  V30 2871 S 274.605 2.10405 3.85065 0
M  V30 2872 H 271.423 0.433161 0.563819 0
M  V30 2873 H 274.025 1.65565 1.03964 0
M  V30 2874 H 272.729 3.06719 2.72675 0
M  V30 2875 H 272.26 1.59725 3.59515 0
M  V30 2876 H 274.275 1.23765 4.80517 0
M  V30 2877 N 273.449 -1.08991 1.13837 0
M  V30 2878 C 274.379 -2.17771 0.842507 0
M  V30 2879 C 275.36 -1.6892 -0.20001 0
M  V30 2880 O 276.545 -1.94113 -0.0579731 0
M  V30 2881 C 273.675 -3.4589 0.312644 0
M  V30 2882 C 272.629 -4.08099 1.28992 0
M  V30 2883 C 271.955 -5.31098 0.619623 0
M  V30 2884 C 273.255 -4.50077 2.65005 0
M  V30 2885 H 274.949 -2.42777 1.75213 0
M  V30 2886 H 272.495 -1.16682 0.843875 0
M  V30 2887 H 274.448 -4.21297 0.0933043 0
M  V30 2888 H 273.172 -3.20419 -0.632382 0
M  V30 2889 H 271.831 -3.34717 1.49533 0
M  V30 2890 H 271.479 -5.0191 -0.33102 0
M  V30 2891 H 271.179 -5.73674 1.27167 0
M  V30 2892 H 272.703 -6.09224 0.409669 0
M  V30 2893 H 274.117 -5.16688 2.48407 0
M  V30 2894 H 272.514 -5.03553 3.26427 0
M  V30 2895 H 273.584 -3.62257 3.22332 0
M  V30 2896 N 274.927 -0.932562 -1.27047 0
M  V30 2897 C 275.89 -0.440064 -2.24936 0
M  V30 2898 C 276.89 0.444071 -1.54547 0
M  V30 2899 O 278.08 0.244465 -1.72476 0
M  V30 2900 C 275.212 0.36678 -3.38921 0
M  V30 2901 H 276.405 -1.305 -2.70018 0
M  V30 2902 H 273.958 -0.713707 -1.39054 0
M  V30 2903 H 274.693 1.25033 -2.99228 0
M  V30 2904 H 274.478 -0.267204 -3.91188 0
M  V30 2905 H 275.968 0.701567 -4.11665 0
M  V30 2906 N 276.405 1.4127 -0.698611 0
M  V30 2907 C 277.682 1.94955 -0.158762 0
M  V30 2908 C 278.062 1.63781 1.33188 0
M  V30 2909 O 277.41 0.946423 2.07979 0
M  V30 2910 C 277.62 3.46044 -0.453309 0
M  V30 2911 C 278.968 4.22872 -0.382707 0
M  V30 2912 O 279.992 3.54076 -0.388396 0
M  V30 2913 O 278.851 5.45407 -0.345463 0
M  V30 2914 H 275.945 0.82683 -0.0167505 0
M  V30 2915 H 278.491 1.50971 -0.77498 0
M  V30 2916 H 277.263 3.62028 -1.48498 0
M  V30 2917 H 276.886 3.97128 0.19373 0
M  V30 2918 N 277.883 0.443576 1.51229 0
M  V30 2919 C 278.815 -0.400608 2.25672 0
M  V30 2920 C 279.828 -0.980945 1.29928 0
M  V30 2921 O 281.017 -0.874024 1.55638 0
M  V30 2922 C 278.117 -1.57304 3.00181 0
M  V30 2923 C 277.29 -1.11046 4.23069 0
M  V30 2924 C 276.349 -2.15374 4.80105 0
M  V30 2925 O 275.375 -1.74554 5.41774 0
M  V30 2926 N 276.577 -3.47922 4.64683 0
M  V30 2927 H 279.342 0.23745 2.98758 0
M  V30 2928 H 276.903 0.272809 1.59585 0
M  V30 2929 H 278.895 -2.26733 3.35223 0
M  V30 2930 H 277.465 -2.11632 2.30066 0
M  V30 2931 H 276.685 -0.243019 3.9345 0
M  V30 2932 H 277.973 -0.778888 5.02803 0
M  V30 2933 H 277.371 -3.83815 4.15575 0
M  V30 2934 H 275.928 -4.13228 5.0407 0
M  V30 2935 N 279.361 -1.56624 0.175154 0
M  V30 2936 C 280.772 -1.83561 -0.340916 0
M  V30 2937 C 281.123 -1.09511 -1.62794 0
M  V30 2938 O 280.248 -0.349389 -2.13561 0
M  V30 2939 C 280.843 -3.32979 -0.625313 0
M  V30 2940 C 279.402 -3.60399 -1.08581 0
M  V30 2941 C 278.549 -2.77024 -0.123722 0
M  V30 2942 H 281.5 -1.53593 0.399344 0
M  V30 2943 H 281.521 -3.50666 -1.47694 0
M  V30 2944 H 281.033 -3.86847 0.311575 0
M  V30 2945 H 279.134 -3.11945 -2.03767 0
M  V30 2946 H 279.247 -4.68711 -0.992317 0
M  V30 2947 H 277.611 -2.46993 -0.621821 0
M  V30 2948 H 278.394 -3.33674 0.807256 0
M  V30 2949 N 280.839 0.0985539 -1.57292 0
M  V30 2950 C 282.25 0.653457 -1.74891 0
M  V30 2951 C 282.601 1.7929 -0.796838 0
M  V30 2952 O 281.726 2.16385 0.0254886 0
M  V30 2953 C 282.321 1.19216 -3.17133 0
M  V30 2954 C 280.88 1.69316 -3.36168 0
M  V30 2955 C 280.027 0.601294 -2.70702 0
M  V30 2956 H 282.978 -0.127497 -1.58187 0
M  V30 2957 H 282.999 2.06154 -3.19814 0
M  V30 2958 H 282.511 0.362635 -3.86402 0
M  V30 2959 H 280.612 2.5468 -2.71972 0
M  V30 2960 H 280.725 1.78853 -4.44464 0
M  V30 2961 H 279.089 1.0399 -2.32504 0
M  V30 2962 H 279.872 -0.217592 -3.4261 0
M  V30 2963 N 282.317 1.53212 0.369288 0
M  V30 2964 C 283.564 1.69215 1.11232 0
M  V30 2965 C 283.892 0.442048 1.8941 0
M  V30 2966 O 283.147 -0.575944 1.87033 0
M  V30 2967 C 283.446 2.89101 2.10132 0
M  V30 2968 C 283.112 4.25758 1.48463 0
M  V30 2969 C 281.774 4.6292 1.31372 0
M  V30 2970 C 284.126 5.10757 1.03811 0
M  V30 2971 C 281.454 5.82722 0.68207 0
M  V30 2972 C 283.806 6.31201 0.420487 0
M  V30 2973 C 282.47 6.67079 0.237038 0
M  V30 2974 H 281.74 0.619201 0.407027 0
M  V30 2975 H 284.387 1.87391 0.394552 0
M  V30 2976 H 282.692 2.65421 2.88199 0
M  V30 2977 H 284.389 2.98676 2.6757 0
M  V30 2978 H 280.979 3.96494 1.62758 0
M  V30 2979 H 285.163 4.82599 1.1581 0
M  V30 2980 H 280.419 6.09113 0.528316 0
M  V30 2981 H 284.593 6.96368 0.0662874 0
M  V30 2982 H 282.22 7.59774 -0.254477 0
M  V30 2983 N 283.795 -0.628877 1.44509 0
M  V30 2984 C 285.042 -1.38839 1.47411 0
M  V30 2985 C 285.37 -1.94202 0.10757 0
M  V30 2986 O 284.625 -1.74243 -0.890947 0
M  V30 2987 C 284.924 -2.56995 2.48371 0
M  V30 2988 C 284.59 -2.19908 3.93639 0
M  V30 2989 C 283.252 -2.09506 4.33198 0
M  V30 2990 C 285.604 -1.9064 4.85083 0
M  V30 2991 C 282.932 -1.68028 5.62124 0
M  V30 2992 C 285.284 -1.50655 6.14399 0
M  V30 2993 C 283.948 -1.38796 6.5291 0
M  V30 2994 H 283.218 -0.508048 0.539414 0
M  V30 2995 H 285.865 -0.712913 1.77735 0
M  V30 2996 H 284.17 -3.29786 2.11538 0
M  V30 2997 H 285.867 -3.15223 2.47861 0
M  V30 2998 H 282.457 -2.28922 3.62343 0
M  V30 2999 H 286.641 -1.97585 4.55273 0
M  V30 3000 H 281.897 -1.57452 5.90778 0
M  V30 3001 H 286.071 -1.27048 6.84713 0
M  V30 3002 H 283.698 -1.06429 7.52713 0
M  V30 3003 N 285.273 -1.31445 -0.869486 0
M  V30 3004 C 286.684 -1.19042 -1.43826 0
M  V30 3005 C 287.035 0.202919 -1.95148 0
M  V30 3006 O 286.16 1.10071 -1.86315 0
M  V30 3007 C 286.755 -2.15499 -2.6143 0
M  V30 3008 C 285.314 -2.07028 -3.14351 0
M  V30 3009 C 284.461 -2.04701 -1.87063 0
M  V30 3010 H 287.412 -1.43489 -0.677984 0
M  V30 3011 H 287.433 -1.74488 -3.38134 0
M  V30 3012 H 286.945 -3.16899 -2.24046 0
M  V30 3013 H 285.046 -1.08825 -3.56354 0
M  V30 3014 H 285.159 -2.96157 -3.766 0
M  V30 3015 H 283.523 -1.49724 -2.06046 0
M  V30 3016 H 284.306 -3.07857 -1.51917 0
M  V30 3017 N 286.751 1.08385 -1.14413 0
M  V30 3018 C 287.661 2.18856 -0.844951 0
M  V30 3019 C 288.677 1.73121 0.174668 0
M  V30 3020 O 289.853 2.014 0.00312857 0
M  V30 3021 C 286.918 3.45155 -0.32696 0
M  V30 3022 C 285.979 4.05513 -1.40916 0
M  V30 3023 C 285.212 5.25784 -0.915793 0
M  V30 3024 O 285.435 5.69884 0.242651 0
M  V30 3025 O 284.369 5.77545 -1.69487 0
M  V30 3026 H 288.195 2.46919 -1.76818 0
M  V30 3027 H 285.78 1.17524 -0.922411 0
M  V30 3028 H 287.662 4.21377 -0.0440211 0
M  V30 3029 H 286.337 3.18668 0.568539 0
M  V30 3030 H 285.244 3.30879 -1.74556 0
M  V30 3031 H 286.577 4.3625 -2.27919 0
M  V30 3032 N 288.23 0.939286 1.26551 0
M  V30 3033 C 289.507 0.5038 1.89001 0
M  V30 3034 C 289.887 -1.01854 1.84903 0
M  V30 3035 O 289.235 -1.87773 1.30206 0
M  V30 3036 C 289.445 1.063 3.32417 0
M  V30 3037 C 290.793 1.13051 4.09273 0
M  V30 3038 O 291.817 1.01345 3.41479 0
M  V30 3039 O 290.676 1.31233 5.30509 0
M  V30 3040 H 287.77 0.163897 0.810597 0
M  V30 3041 H 290.316 1.03173 1.34735 0
M  V30 3042 H 289.088 2.10665 3.29752 0
M  V30 3043 H 288.711 0.517408 3.94219 0
M  V30 3044 N 289.708 -1.40897 0.706093 0
M  V30 3045 C 291.119 -1.84023 0.315052 0
M  V30 3046 C 291.47 -1.5906 -1.14866 0
M  V30 3047 O 290.595 -1.06651 -1.88293 0
M  V30 3048 C 291.19 -3.34055 0.565038 0
M  V30 3049 C 289.749 -3.7571 0.227806 0
M  V30 3050 C 288.896 -2.64204 0.842122 0
M  V30 3051 H 291.847 -1.303 0.905963 0
M  V30 3052 H 291.868 -3.80107 -0.172843 0
M  V30 3053 H 291.38 -3.52192 1.63042 0
M  V30 3054 H 289.481 -3.63172 -0.832895 0
M  V30 3055 H 289.594 -4.74103 0.690174 0
M  V30 3056 H 287.958 -2.53255 0.270893 0
M  V30 3057 H 288.741 -2.85155 1.91158 0
M  V30 3058 N 291.186 -0.45159 -1.50991 0
M  V30 3059 C 292.118 0.388634 -2.25881 0
M  V30 3060 C 293.131 0.974041 -1.30446 0
M  V30 3061 O 294.32 0.865758 -1.56099 0
M  V30 3062 C 291.42 1.5571 -3.01011 0
M  V30 3063 C 290.593 1.08801 -4.23652 0
M  V30 3064 C 289.652 2.12825 -4.8124 0
M  V30 3065 O 288.678 1.71678 -5.42693 0
M  V30 3066 N 289.88 3.45453 -4.66522 0
M  V30 3067 H 292.645 -0.25329 -2.98628 0
M  V30 3068 H 290.206 -0.281268 -1.59438 0
M  V30 3069 H 292.198 2.24952 -3.3642 0
M  V30 3070 H 290.768 2.10409 -2.31186 0
M  V30 3071 H 289.988 0.22215 -3.93574 0
M  V30 3072 H 291.276 0.752213 -5.03209 0
M  V30 3073 H 290.674 3.81605 -4.17605 0
M  V30 3074 H 289.231 4.10549 -5.06254 0
M  V30 3075 N 292.664 1.56529 -0.183458 0
M  V30 3076 C 293.596 2.15747 0.773697 0
M  V30 3077 C 294.609 1.1162 1.1851 0
M  V30 3078 O 295.798 1.3876 1.12285 0
M  V30 3079 C 292.898 2.6952 2.05456 0
M  V30 3080 C 292.071 3.98429 1.8048 0
M  V30 3081 C 291.13 4.37145 2.92901 0
M  V30 3082 O 290.156 5.04791 2.6301 0
M  V30 3083 N 291.358 3.99695 4.2098 0
M  V30 3084 H 294.123 2.98505 0.26736 0
M  V30 3085 H 291.684 1.619 -0.0010878 0
M  V30 3086 H 293.676 2.92412 2.79781 0
M  V30 3087 H 292.246 1.91282 2.47245 0
M  V30 3088 H 291.466 3.8379 0.899947 0
M  V30 3089 H 292.754 4.82597 1.61175 0
M  V30 3090 H 292.152 3.4526 4.48121 0
M  V30 3091 H 290.709 4.27562 4.9197 0
M  V30 3092 N 294.142 -0.090211 1.57342 0
M  V30 3093 C 295.367 -0.810082 1.90925 0
M  V30 3094 C 295.792 -1.71248 0.778187 0
M  V30 3095 O 295.15 -1.79278 -0.269991 0
M  V30 3096 C 295.198 -1.59529 3.23393 0
M  V30 3097 O 294.302 -2.70461 3.11327 0
M  V30 3098 H 293.643 -0.222231 0.625707 0
M  V30 3099 H 296.173 -0.0639716 2.045 0
M  V30 3100 H 296.183 -1.97847 3.5682 0
M  V30 3101 H 294.858 -0.933055 4.05299 0
M  V30 3102 H 293.435 -2.35135 2.89423 0
M  V30 3103 N 295.62 -1.53406 -0.361157 0
M  V30 3104 C 296.568 -1.80832 -1.46296 0
M  V30 3105 C 297.562 -0.677699 -1.55253 0
M  V30 3106 O 298.768 -0.860723 -1.58087 0
M  V30 3107 H 295.143 -0.572627 -0.487445 0
M  V30 3108 H 297.114 -2.73045 -1.20371 0
M  V30 3109 C 295.863 -2.01907 -2.8307 0
M  V30 3110 H 295.186 -2.88349 -2.76938 0
M  V30 3111 H 296.626 -2.25072 -3.59331 0
M  V30 3112 C 295.085 -0.799449 -3.27277 0
M  V30 3113 O 295.615 0.00971761 -4.01699 0
M  V30 3114 N 293.821 -0.621637 -2.83873 0
M  V30 3115 H 293.368 -1.28126 -2.23476 0
M  V30 3116 H 293.326 0.19298 -3.13807 0
M  V30 3117 N 297.098 0.621204 -1.44841 0
M  V30 3118 C 298.509 1.20298 -1.42777 0
M  V30 3119 C 298.86 1.95639 -0.148259 0
M  V30 3120 O 297.985 2.02955 0.750892 0
M  V30 3121 C 298.58 2.1882 -2.58657 0
M  V30 3122 C 297.139 2.72403 -2.59756 0
M  V30 3123 C 296.286 1.4757 -2.34773 0
M  V30 3124 H 299.237 0.411297 -1.53278 0
M  V30 3125 H 299.258 3.01607 -2.31977 0
M  V30 3126 H 298.77 1.63957 -3.51766 0
M  V30 3127 H 296.871 3.31242 -1.70615 0
M  V30 3128 H 296.984 3.17765 -3.58556 0
M  V30 3129 H 295.348 1.76051 -1.8406 0
M  V30 3130 H 296.131 0.945954 -3.3001 0
M  V30 3131 N 298.576 1.31904 0.862503 0
M  V30 3132 C 299.816 1.23324 1.63004 0
M  V30 3133 C 300.18 -0.203724 1.90916 0
M  V30 3134 O 301.381 -0.413132 2.65606 0
M  V30 3135 C 299.652 2.06116 2.91978 0
M  V30 3136 S 301.211 2.14478 3.82812 0
M  V30 3137 H 298.029 0.439117 0.559193 0
M  V30 3138 H 300.631 1.66658 1.02202 0
M  V30 3139 H 299.335 3.09593 2.69407 0
M  V30 3140 H 298.866 1.6353 3.57801 0
M  V30 3141 H 300.881 1.28855 4.79177 0
M  V30 3142 N 300.054 -1.07777 1.14986 0
M  V30 3143 C 301.465 -1.61766 0.932127 0
M  V30 3144 C 301.816 -1.88974 -0.527581 0
M  V30 3145 O 300.941 -1.65198 -1.39781 0
M  V30 3146 C 301.536 -2.93891 1.68563 0
M  V30 3147 C 300.095 -3.44639 1.5133 0
M  V30 3148 C 299.242 -2.18767 1.704 0
M  V30 3149 H 302.193 -0.909201 1.30074 0
M  V30 3150 H 302.214 -3.62623 1.15259 0
M  V30 3151 H 301.726 -2.74057 2.74799 0
M  V30 3152 H 299.827 -3.69564 0.474702 0
M  V30 3153 H 299.94 -4.20966 2.28746 0
M  V30 3154 H 298.304 -2.28253 1.13016 0
M  V30 3155 H 299.087 -2.01433 2.77992 0
M  V30 3156 N 301.532 -0.945985 -1.26051 0
M  V30 3157 C 302.442 -0.465633 -2.29933 0
M  V30 3158 C 303.458 0.462761 -1.67733 0
M  V30 3159 O 304.634 0.341118 -1.9849 0
M  V30 3160 C 301.699 0.256994 -3.45746 0
M  V30 3161 C 300.76 -0.708549 -4.23412 0
M  V30 3162 C 299.993 -0.0203135 -5.33696 0
M  V30 3163 O 300.216 1.19571 -5.57726 0
M  V30 3164 O 299.15 -0.701459 -5.97799 0
M  V30 3165 H 302.976 -1.32866 -2.73094 0
M  V30 3166 H 300.561 -0.712071 -1.31339 0
M  V30 3167 H 302.443 0.663852 -4.16138 0
M  V30 3168 H 301.118 1.09533 -3.04605 0
M  V30 3169 H 300.025 -1.16545 -3.55483 0
M  V30 3170 H 301.358 -1.51465 -4.68315 0
M  V30 3171 N 303.011 1.40521 -0.713556 0
M  V30 3172 C 304.239 2.05237 -0.261775 0
M  V30 3173 C 304.654 1.53755 1.09567 0
M  V30 3174 O 304.011 0.693268 1.6882 0
M  V30 3175 C 304.062 3.60763 -0.230706 0
M  V30 3176 O 303.783 4.10345 -1.53455 0
M  V30 3177 C 305.284 4.42651 0.239874 0
M  V30 3178 H 302.504 0.660533 -0.118057 0
M  V30 3179 H 305.048 1.79967 -0.971192 0
M  V30 3180 H 303.203 3.8501 0.429661 0
M  V30 3181 H 303.617 5.04526 -1.43366 0
M  V30 3182 H 305.091 5.51599 0.210468 0
M  V30 3183 H 305.568 4.20082 1.28171 0
M  V30 3184 H 306.174 4.23507 -0.390142 0
M  V30 3185 N 304.489 0.459591 1.5075 0
M  V30 3186 C 305.737 -0.0991532 2.01857 0
M  V30 3187 C 306.058 -1.41247 1.34441 0
M  V30 3188 O 305.328 -1.89775 0.486022 0
M  V30 3189 H 303.908 -0.039633 0.745948 0
M  V30 3190 H 306.57 0.607387 1.85194 0
M  V30 3191 H 305.666 -0.258998 3.11023 0
M  V30 3192 N 305.967 -1.56429 0.191757 0
M  V30 3193 C 306.93 -2.17707 -0.716688 0
M  V30 3194 C 307.93 -1.13061 -1.14341 0
M  V30 3195 O 309.12 -1.38464 -1.05704 0
M  V30 3196 C 306.252 -2.77644 -1.97804 0
M  V30 3197 H 307.445 -2.99342 -0.1829 0
M  V30 3198 H 304.998 -1.56193 -0.0578566 0
M  V30 3199 H 305.733 -1.99799 -2.55443 0
M  V30 3200 H 305.518 -3.54246 -1.68083 0
M  V30 3201 H 307.008 -3.24708 -2.62592 0
M  V30 3202 N 307.445 0.0818655 -1.57387 0
M  V30 3203 C 308.408 1.08265 -2.02018 0
M  V30 3204 C 309.408 1.32183 -0.915664 0
M  V30 3205 O 310.598 1.28073 -1.18081 0
M  V30 3206 C 307.73 2.42871 -2.39221 0
M  V30 3207 H 308.923 0.698204 -2.91659 0
M  V30 3208 H 306.476 0.327303 -1.52835 0
M  V30 3209 H 307.211 2.86167 -1.52575 0
M  V30 3210 H 306.996 2.26855 -3.19811 0
M  V30 3211 H 308.486 3.14826 -2.74362 0
M  V30 3212 N 308.923 1.53595 0.353017 0
M  V30 3213 C 310.17 1.70385 1.09431 0
M  V30 3214 C 310.498 0.462113 1.88931 0
M  V30 3215 O 309.753 -0.556074 1.87633 0
M  V30 3216 C 310.052 2.91313 2.07054 0
M  V30 3217 C 309.718 4.27308 1.43939 0
M  V30 3218 C 308.38 4.64287 1.26454 0
M  V30 3219 C 310.732 5.11829 0.983883 0
M  V30 3220 C 308.06 5.83412 0.620226 0
M  V30 3221 C 310.412 6.31611 0.353516 0
M  V30 3222 C 309.076 6.67293 0.166272 0
M  V30 3223 H 308.346 0.623484 0.400436 0
M  V30 3224 H 310.993 1.87799 0.374655 0
M  V30 3225 H 309.298 2.68463 2.85368 0
M  V30 3226 H 310.995 3.01497 2.64387 0
M  V30 3227 H 307.585 3.98198 1.58543 0
M  V30 3228 H 311.769 4.838 1.10685 0
M  V30 3229 H 307.025 6.09639 0.463681 0
M  V30 3230 H 311.199 6.964 -0.00757555 0
M  V30 3231 H 308.826 7.59461 -0.335047 0
M  V30 3232 N 310.401 -0.613514 1.45168 0
M  V30 3233 C 311.812 -1.19539 1.43413 0
M  V30 3234 C 312.163 -1.95558 0.158632 0
M  V30 3235 O 311.288 -2.0335 -0.740119 0
M  V30 3236 C 311.883 -2.17445 2.59813 0
M  V30 3237 C 310.442 -2.71022 2.61197 0
M  V30 3238 C 309.589 -1.46323 2.35552 0
M  V30 3239 H 312.54 -0.403163 1.53494 0
M  V30 3240 H 312.561 -3.00373 2.33574 0
M  V30 3241 H 312.073 -1.62089 3.52631 0
M  V30 3242 H 310.174 -3.30332 1.7237 0
M  V30 3243 H 310.287 -3.15859 3.60236 0
M  V30 3244 H 308.651 -1.75072 1.84992 0
M  V30 3245 H 309.434 -0.92844 3.30507 0
M  V30 3246 N 311.879 -1.3236 -0.855495 0
M  V30 3247 C 313.104 -1.2601 -1.64731 0
M  V30 3248 C 313.529 0.169068 -1.87339 0
M  V30 3249 O 312.887 1.12016 -1.42556 0
M  V30 3250 C 312.935 -2.02417 -2.98429 0
M  V30 3251 O 312.039 -1.3714 -3.8893 0
M  V30 3252 H 311.38 -0.434325 -0.502253 0
M  V30 3253 H 313.91 -1.74661 -1.06558 0
M  V30 3254 H 313.92 -2.12559 -3.48257 0
M  V30 3255 H 312.595 -3.06343 -2.81295 0
M  V30 3256 H 311.172 -1.3554 -3.47395 0
M  V30 3257 N 313.357 1.07166 -1.15556 0
M  V30 3258 C 314.304 2.14417 -0.854055 0
M  V30 3259 C 315.274 1.64965 0.193806 0
M  V30 3260 O 316.459 1.90703 0.0609443 0
M  V30 3261 C 313.599 3.43304 -0.351574 0
M  V30 3262 C 312.712 4.06537 -1.46123 0
M  V30 3263 C 311.847 5.23266 -0.914677 0
M  V30 3264 C 310.886 5.78464 -2.00114 0
M  V30 3265 N 310.023 6.86521 -1.47083 0
M  V30 3266 H 314.863 2.39548 -1.77259 0
M  V30 3267 H 312.4 1.17543 -0.884425 0
M  V30 3268 H 314.358 4.17179 -0.0419409 0
M  V30 3269 H 312.988 3.18419 0.530037 0
M  V30 3270 H 312.04 3.30297 -1.88701 0
M  V30 3271 H 313.352 4.43567 -2.28144 0
M  V30 3272 H 312.506 6.04131 -0.557698 0
M  V30 3273 H 311.245 4.87658 -0.0636583 0
M  V30 3274 H 310.25 4.96243 -2.36692 0
M  V30 3275 H 311.475 6.16126 -2.85597 0
M  V30 3276 H 309.421 6.52849 -0.642198 0
M  V30 3277 H 309.338 7.22446 -2.22729 0
M  V30 3278 H 310.606 7.71087 -1.14215 0
M  V30 3279 N 314.835 0.952656 1.25548 0
M  V30 3280 C 315.798 0.475794 2.24207 0
M  V30 3281 C 316.798 -0.419428 1.55234 0
M  V30 3282 O 317.988 -0.216994 1.72843 0
M  V30 3283 C 315.12 -0.312814 3.39462 0
M  V30 3284 H 316.313 1.34779 2.67908 0
M  V30 3285 H 313.866 0.735739 1.37901 0
M  V30 3286 H 314.601 -1.20257 3.01179 0
M  V30 3287 H 314.386 0.329404 3.90714 0
M  V30 3288 H 315.876 -0.635986 4.12729 0
M  V30 3289 N 316.313 -1.40141 0.720998 0
M  V30 3290 C 317.541 -2.05096 0.272656 0
M  V30 3291 C 317.956 -1.54334 -1.0875 0
M  V30 3292 O 317.313 -0.702211 -1.6845 0
M  V30 3293 C 317.364 -3.60636 0.249835 0
M  V30 3294 O 317.085 -4.09526 1.55629 0
M  V30 3295 C 318.586 -4.42772 -0.216396 0
M  V30 3296 H 315.806 -0.659897 0.121558 0
M  V30 3297 H 318.35 -1.79449 0.980723 0
M  V30 3298 H 316.505 -3.85232 -0.409237 0
M  V30 3299 H 316.919 -5.03758 1.4604 0
M  V30 3300 H 318.393 -5.51702 -0.181212 0
M  V30 3301 H 318.87 -4.20756 -1.25941 0
M  V30 3302 H 319.476 -4.23294 0.412596 0
M  V30 3303 N 317.792 -0.46758 -1.50504 0
M  V30 3304 C 319.039 0.0886219 -2.02306 0
M  V30 3305 C 319.367 1.40037 -1.34981 0
M  V30 3306 O 318.622 1.90136 -0.463318 0
M  V30 3307 C 318.921 0.323995 -3.55928 0
M  V30 3308 C 318.587 -0.905618 -4.41712 0
M  V30 3309 C 317.249 -1.24275 -4.64875 0
M  V30 3310 C 319.601 -1.72448 -4.91845 0
M  V30 3311 C 316.929 -2.39888 -5.35417 0
M  V30 3312 C 319.281 -2.87185 -5.63656 0
M  V30 3313 C 317.945 -3.21317 -5.85074 0
M  V30 3314 H 317.215 0.0324291 -0.74029 0
M  V30 3315 H 319.862 -0.620945 -1.81153 0
M  V30 3316 H 318.167 1.11577 -3.75577 0
M  V30 3317 H 319.864 0.76826 -3.93572 0
M  V30 3318 H 316.454 -0.632956 -4.239 0
M  V30 3319 H 320.638 -1.4772 -4.73806 0
M  V30 3320 H 315.894 -2.66611 -5.50208 0
M  V30 3321 H 320.068 -3.50985 -6.01484 0
M  V30 3322 H 317.695 -4.1101 -6.39511 0
M  V30 3323 N 319.27 1.56325 -0.20005 0
M  V30 3324 C 320.516 1.98772 0.431408 0
M  V30 3325 C 320.871 1.0849 1.58895 0
M  V30 3326 O 320.164 0.130331 1.91156 0
M  V30 3327 C 320.358 3.4495 0.935103 0
M  V30 3328 C 320.187 4.49371 -0.172096 0
M  V30 3329 C 318.957 5.0134 -0.631377 0
M  V30 3330 C 321.155 5.04822 -0.982806 0
M  V30 3331 N 319.137 5.89433 -1.71588 0
M  V30 3332 C 320.508 5.89632 -1.91661 0
M  V30 3333 C 322.563 4.87242 -1.02467 0
M  V30 3334 C 321.266 6.58741 -2.88881 0
M  V30 3335 C 323.292 5.57094 -1.98494 0
M  V30 3336 C 322.654 6.41655 -2.90617 0
M  V30 3337 H 318.753 0.771922 0.125144 0
M  V30 3338 H 321.337 1.92266 -0.306883 0
M  V30 3339 H 319.508 3.51946 1.64282 0
M  V30 3340 H 321.24 3.74354 1.53758 0
M  V30 3341 H 317.995 4.73071 -0.223827 0
M  V30 3342 H 318.419 6.38182 -2.25948 0
M  V30 3343 H 323.061 4.21538 -0.326408 0
M  V30 3344 H 320.779 7.23641 -3.5968 0
M  V30 3345 H 324.365 5.45466 -2.0238 0
M  V30 3346 H 323.245 6.94755 -3.63711 0
M  V30 3347 N 320.748 -0.0735177 1.57428 0
M  V30 3348 C 321.994 -0.768909 1.88307 0
M  V30 3349 C 322.349 -1.75273 0.793535 0
M  V30 3350 O 321.642 -1.90527 -0.202466 0
M  V30 3351 C 321.836 -1.51799 3.23561 0
M  V30 3352 C 321.665 -0.608217 4.45568 0
M  V30 3353 C 320.435 -0.245808 5.04702 0
M  V30 3354 C 322.633 0.0942904 5.14214 0
M  V30 3355 N 320.615 0.66987 6.10234 0
M  V30 3356 C 321.986 0.867222 6.13905 0
M  V30 3357 C 324.041 0.165943 4.97623 0
M  V30 3358 C 322.744 1.70515 6.98797 0
M  V30 3359 C 324.77 0.990837 5.83041 0
M  V30 3360 C 324.132 1.75182 6.82269 0
M  V30 3361 H 320.231 -0.25685 0.738615 0
M  V30 3362 H 322.815 -0.030499 1.94676 0
M  V30 3363 H 320.986 -2.22713 3.18203 0
M  V30 3364 H 322.718 -2.16226 3.42094 0
M  V30 3365 H 319.473 -0.598284 4.69806 0
M  V30 3366 H 319.897 1.1209 6.67656 0
M  V30 3367 H 324.539 -0.408064 4.20826 0
M  V30 3368 H 322.257 2.29013 7.7497 0
M  V30 3369 H 325.843 1.04923 5.72261 0
M  V30 3370 H 324.723 2.37983 7.47217 0
M  V30 3371 N 322.226 -1.5378 -0.344866 0
M  V30 3372 C 323.472 -1.71216 -1.08687 0
M  V30 3373 C 323.805 -0.473281 -1.88345 0
M  V30 3374 O 323.08 0.52968 -1.87149 0
M  V30 3375 C 323.363 -2.97486 -2.02914 0
M  V30 3376 C 323.216 -4.31579 -1.26727 0
M  V30 3377 C 324.535 -3.19422 -3.0275 0
M  V30 3378 H 321.654 -0.62301 -0.393735 0
M  V30 3379 H 324.296 -1.8645 -0.365563 0
M  V30 3380 H 322.446 -2.84629 -2.64421 0
M  V30 3381 H 324.118 -4.56284 -0.67845 0
M  V30 3382 H 322.361 -4.30049 -0.569273 0
M  V30 3383 H 323.032 -5.16106 -1.95803 0
M  V30 3384 H 325.508 -3.316 -2.51357 0
M  V30 3385 H 324.384 -4.09169 -3.65885 0
M  V30 3386 H 324.645 -2.35656 -3.74057 0
M  V30 3387 N 323.704 0.605807 -1.45491 0
M  V30 3388 C 324.929 1.39625 -1.53361 0
M  V30 3389 C 325.354 1.87351 -0.167645 0
M  V30 3390 O 324.712 1.60243 0.848051 0
M  V30 3391 C 324.76 2.57559 -2.5238 0
M  V30 3392 O 323.864 3.58248 -2.04285 0
M  V30 3393 H 323.205 0.416771 -0.516912 0
M  V30 3394 H 325.735 0.737103 -1.90861 0
M  V30 3395 H 325.745 3.0478 -2.71244 0
M  V30 3396 H 324.42 2.22171 -3.51586 0
M  V30 3397 H 322.997 3.17664 -1.95305 0
M  V30 3398 N 325.182 1.32811 0.848464 0
M  V30 3399 C 326.43 1.23479 1.59991 0
M  V30 3400 C 326.751 -0.201853 1.93952 0
M  V30 3401 O 326.021 -1.12818 1.60153 0
M  V30 3402 H 324.601 0.454034 0.593179 0
M  V30 3403 H 327.263 1.66412 1.01455 0
M  V30 3404 H 326.359 1.82178 2.53412 0
M  V30 3405 N 326.66 -1.06551 1.16123 0
M  V30 3406 C 327.59 -2.15935 0.88851 0
M  V30 3407 C 328.571 -1.69306 -0.164135 0
M  V30 3408 O 329.756 -1.94193 -0.0167857 0
M  V30 3409 C 326.886 -3.45149 0.385942 0
M  V30 3410 C 325.84 -4.05271 1.3762 0
M  V30 3411 C 325.166 -5.29664 0.732137 0
M  V30 3412 C 326.466 -4.44355 2.74493 0
M  V30 3413 H 328.16 -2.39006 1.80323 0
M  V30 3414 H 325.706 -1.14866 0.868435 0
M  V30 3415 H 327.659 -4.21004 0.182647 0
M  V30 3416 H 326.383 -3.21689 -0.564274 0
M  V30 3417 H 325.042 -3.3147 1.56599 0
M  V30 3418 H 324.69 -5.02499 -0.224483 0
M  V30 3419 H 324.39 -5.70848 1.39307 0
M  V30 3420 H 325.914 -6.08218 0.538802 0
M  V30 3421 H 327.328 -5.11303 2.59311 0
M  V30 3422 H 325.725 -4.96515 3.37035 0
M  V30 3423 H 326.795 -3.55339 3.29943 0
M  V30 3424 N 328.138 -0.959301 -1.25041 0
M  V30 3425 C 329.384 -0.617525 -1.9317 0
M  V30 3426 C 329.717 0.843981 -1.74902 0
M  V30 3427 O 328.992 1.60615 -1.09696 0
M  V30 3428 C 329.275 -0.982736 -3.46431 0
M  V30 3429 C 329.128 -2.50032 -3.73904 0
M  V30 3430 C 330.447 -0.511176 -4.37121 0
M  V30 3431 H 327.566 -0.22582 -0.701552 0
M  V30 3432 H 330.208 -1.19679 -1.4757 0
M  V30 3433 H 328.358 -0.489806 -3.854 0
M  V30 3434 H 330.03 -3.06737 -3.44544 0
M  V30 3435 H 328.273 -2.93598 -3.19348 0
M  V30 3436 H 328.944 -2.70635 -4.81103 0
M  V30 3437 H 331.42 -0.934075 -4.0548 0
M  V30 3438 H 330.296 -0.795361 -5.43107 0
M  V30 3439 H 330.557 0.588834 -4.38161 0
M  V30 3440 N 329.616 1.39756 -0.72842 0
M  V30 3441 C 330.862 2.01425 -0.282761 0
M  V30 3442 C 331.217 1.56754 1.11561 0
M  V30 3443 O 330.51 0.783482 1.74849 0
M  V30 3444 C 330.704 3.56002 -0.315776 0
M  V30 3445 C 330.533 4.1568 -1.71582 0
M  V30 3446 C 329.303 4.48555 -2.32651 0
M  V30 3447 C 331.501 4.39667 -2.66829 0
M  V30 3448 N 329.483 4.93698 -3.64877 0
M  V30 3449 C 330.854 4.86942 -3.8378 0
M  V30 3450 C 332.909 4.21724 -2.64675 0
M  V30 3451 C 331.612 5.18158 -4.98904 0
M  V30 3452 C 333.638 4.54049 -3.78937 0
M  V30 3453 C 333 5.01525 -4.94623 0
M  V30 3454 H 329.099 0.76756 -0.149583 0
M  V30 3455 H 331.683 1.69784 -0.952976 0
M  V30 3456 H 329.854 3.87046 0.324057 0
M  V30 3457 H 331.586 4.0443 0.147808 0
M  V30 3458 H 328.341 4.36128 -1.84633 0
M  V30 3459 H 328.765 5.20635 -4.32744 0
M  V30 3460 H 333.407 3.84228 -1.76433 0
M  V30 3461 H 331.125 5.54562 -5.87781 0
M  V30 3462 H 334.711 4.41795 -3.78561 0
M  V30 3463 H 333.591 5.26065 -5.81572 0
M  V30 3464 N 331.094 0.475555 1.50254 0
M  V30 3465 C 332.51 0.12997 1.5907 0
M  V30 3466 C 332.71 -1.36385 1.48328 0
M  V30 3467 O 331.766 -2.13754 1.34407 0
M  V30 3468 C 333.079 0.684139 2.92814 0
M  V30 3469 C 334.627 0.647965 3.0622 0
M  V30 3470 C 335.102 1.17975 4.42545 0
M  V30 3471 N 336.593 1.13936 4.48969 0
M  V30 3472 C 337.328 1.52129 5.52851 0
M  V30 3473 N 336.824 1.97793 6.63965 0
M  V30 3474 N 338.617 1.43704 5.4342 0
M  V30 3475 H 330.768 1.44706 1.55479 0
M  V30 3476 H 333.031 0.598691 0.735033 0
M  V30 3477 H 332.737 1.73079 3.06164 0
M  V30 3478 H 332.611 0.130204 3.76975 0
M  V30 3479 H 334.998 -0.38979 2.92514 0
M  V30 3480 H 335.079 1.23876 2.23805 0
M  V30 3481 H 334.723 2.21616 4.57 0
M  V30 3482 H 334.653 0.565138 5.23559 0
M  V30 3483 H 337.144 0.804488 3.69238 0
M  V30 3484 H 337.457 2.25072 7.39299 0
M  V30 3485 H 335.802 2.01749 6.65073 0
M  V30 3486 H 338.993 1.07867 4.55502 0
M  V30 3487 H 339.166 1.73794 6.24259 0
M  V30 3488 N 332.573 -1.56217 0.208337 0
M  V30 3489 C 333.821 -1.97558 -0.426076 0
M  V30 3490 C 334.142 -1.09683 -1.61229 0
M  V30 3491 O 333.412 -0.170956 -1.95153 0
M  V30 3492 H 331.992 -0.729575 -0.160405 0
M  V30 3493 H 334.654 -1.92606 0.298155 0
M  V30 3494 H 333.75 -3.02672 -0.761312 0
M  V30 3495 N 334.051 0.0651679 -1.57465 0
M  V30 3496 C 335.281 0.774683 -1.91526 0
M  V30 3497 C 335.689 1.71305 -0.803196 0
M  V30 3498 O 335.032 1.82231 0.231881 0
M  V30 3499 C 335.094 1.61645 -3.21109 0
M  V30 3500 C 334.758 0.846753 -4.49087 0
M  V30 3501 C 335.755 0.163024 -5.19644 0
M  V30 3502 C 333.44 0.811966 -4.95694 0
M  V30 3503 C 335.434 -0.54519 -6.35064 0
M  V30 3504 C 333.121 0.0999836 -6.11018 0
M  V30 3505 C 334.119 -0.577388 -6.80555 0
M  V30 3506 O 333.807 -1.27789 -7.93678 0
M  V30 3507 H 333.539 0.225031 -0.637446 0
M  V30 3508 H 336.093 0.0377134 -2.05365 0
M  V30 3509 H 334.323 2.39638 -3.03497 0
M  V30 3510 H 336.012 2.20525 -3.40769 0
M  V30 3511 H 336.778 0.181163 -4.84662 0
M  V30 3512 H 332.657 1.32867 -4.41438 0
M  V30 3513 H 336.201 -1.07446 -6.89276 0
M  V30 3514 H 332.098 0.0797945 -6.45451 0
M  V30 3515 H 332.866 -1.18784 -8.09835 0
M  V30 3516 N 335.529 1.53961 0.336706 0
M  V30 3517 C 336.945 1.44378 0.680241 0
M  V30 3518 C 337.145 0.606034 1.9217 0
M  V30 3519 O 336.201 0.099688 2.52303 0
M  V30 3520 C 337.514 2.87945 0.8665 0
M  V30 3521 C 339.062 2.97763 0.964682 0
M  V30 3522 C 339.537 4.42453 1.18321 0
M  V30 3523 N 341.028 4.46008 1.25025 0
M  V30 3524 C 341.763 5.55102 1.43697 0
M  V30 3525 N 341.259 6.7419 1.59498 0
M  V30 3526 N 343.052 5.42727 1.463 0
M  V30 3527 H 335.203 2.06918 -0.479455 0
M  V30 3528 H 337.466 0.935634 -0.152619 0
M  V30 3529 H 337.172 3.51691 0.0256937 0
M  V30 3530 H 337.046 3.33293 1.76623 0
M  V30 3531 H 339.433 2.34153 1.796 0
M  V30 3532 H 339.514 2.55766 0.041708 0
M  V30 3533 H 339.158 5.06645 0.356788 0
M  V30 3534 H 339.088 4.82048 2.11985 0
M  V30 3535 H 341.579 3.60196 1.14312 0
M  V30 3536 H 341.892 7.53095 1.734 0
M  V30 3537 H 340.237 6.77123 1.56621 0
M  V30 3538 H 343.428 4.48647 1.33543 0
M  V30 3539 H 343.601 6.27806 1.6051 0
M  V30 3540 N 337.007 -0.598083 1.45811 0
M  V30 3541 C 338.423 -0.919847 1.30426 0
M  V30 3542 C 338.623 -1.99759 0.264303 0
M  V30 3543 O 337.679 -2.50221 -0.338472 0
M  V30 3544 C 338.992 -1.35176 2.68603 0
M  V30 3545 C 340.54 -1.46546 2.76574 0
M  V30 3546 C 341.015 -1.9311 4.15298 0
M  V30 3547 N 342.506 -2.00328 4.1764 0
M  V30 3548 C 343.241 -2.37599 5.21856 0
M  V30 3549 N 342.737 -2.73771 6.36413 0
M  V30 3550 N 344.53 -2.38021 5.09218 0
M  V30 3551 H 336.681 0.114111 2.12093 0
M  V30 3552 H 338.944 -0.0116121 0.947929 0
M  V30 3553 H 338.65 -0.633969 3.45939 0
M  V30 3554 H 338.524 -2.3164 2.97696 0
M  V30 3555 H 340.911 -2.17415 1.99537 0
M  V30 3556 H 340.992 -0.483727 2.51185 0
M  V30 3557 H 340.636 -1.22824 4.92825 0
M  V30 3558 H 340.566 -2.92213 4.38086 0
M  V30 3559 H 343.057 -1.74925 3.34977 0
M  V30 3560 H 343.37 -3.0112 7.11721 0
M  V30 3561 H 341.715 -2.71445 6.39799 0
M  V30 3562 H 344.906 -2.09174 4.18765 0
M  V30 3563 H 345.079 -2.66741 5.90554 0
M  V30 3564 N 338.485 -1.33259 -0.841409 0
M  V30 3565 C 339.896 -1.22066 -1.41269 0
M  V30 3566 C 340.247 0.161479 -1.95534 0
M  V30 3567 O 339.372 1.06094 -1.88608 0
M  V30 3568 C 339.967 -2.20996 -2.568 0
M  V30 3569 C 338.526 -2.13649 -3.09888 0
M  V30 3570 C 337.673 -2.08623 -1.82679 0
M  V30 3571 H 340.624 -1.44895 -0.647395 0
M  V30 3572 H 340.645 -1.81621 -3.34356 0
M  V30 3573 H 340.157 -3.2158 -2.17274 0
M  V30 3574 H 338.258 -1.16359 -3.53965 0
M  V30 3575 H 338.371 -3.04079 -3.70234 0
M  V30 3576 H 336.735 -1.54061 -2.02824 0
M  V30 3577 H 337.518 -3.1101 -1.45353 0
M  V30 3578 N 339.963 1.05934 -1.16686 0
M  V30 3579 C 340.893 2.1546 -0.899949 0
M  V30 3580 C 341.874 1.69391 0.155154 0
M  V30 3581 O 343.059 1.94199 0.00648693 0
M  V30 3582 C 340.189 3.44939 -0.404241 0
M  V30 3583 C 339.143 4.04536 -1.39767 0
M  V30 3584 C 338.469 5.29268 -0.760216 0
M  V30 3585 C 339.769 4.42893 -2.76845 0
M  V30 3586 H 341.463 2.38046 -1.81588 0
M  V30 3587 H 339.009 1.14404 -0.874514 0
M  V30 3588 H 340.962 4.20901 -0.204971 0
M  V30 3589 H 339.686 3.21983 0.547206 0
M  V30 3590 H 338.345 3.30635 -1.58355 0
M  V30 3591 H 337.993 5.02611 0.197831 0
M  V30 3592 H 337.693 5.70101 -1.42332 0
M  V30 3593 H 339.217 6.07924 -0.57105 0
M  V30 3594 H 340.631 5.09921 -2.62019 0
M  V30 3595 H 339.028 4.94721 -3.39663 0
M  V30 3596 H 340.098 3.53584 -3.31823 0
M  V30 3597 N 341.441 0.965919 1.2453 0
M  V30 3598 C 342.857 0.67216 1.44756 0
M  V30 3599 C 343.057 -0.766609 1.86347 0
M  V30 3600 O 342.113 -1.5407 2.00047 0
M  V30 3601 C 343.426 1.65473 2.51076 0
M  V30 3602 C 344.974 1.66716 2.64905 0
M  V30 3603 C 345.449 2.63766 3.74421 0
M  V30 3604 N 346.94 2.62198 3.81846 0
M  V30 3605 C 347.675 3.33966 4.66106 0
M  V30 3606 N 347.171 4.15245 5.54566 0
M  V30 3607 N 348.964 3.22799 4.60171 0
M  V30 3608 H 341.115 1.89553 0.958293 0
M  V30 3609 H 343.378 0.815979 0.482579 0
M  V30 3610 H 343.084 2.68296 2.27399 0
M  V30 3611 H 342.958 1.4261 3.49202 0
M  V30 3612 H 345.345 0.646057 2.87941 0
M  V30 3613 H 345.426 1.93642 1.67142 0
M  V30 3614 H 345.07 3.6601 3.52135 0
M  V30 3615 H 345 2.34121 4.71694 0
M  V30 3616 H 347.491 2.032 3.18619 0
M  V30 3617 H 347.804 4.66898 6.15814 0
M  V30 3618 H 346.149 4.1934 5.54237 0
M  V30 3619 H 349.34 2.58764 3.90075 0
M  V30 3620 H 349.513 3.78994 5.25612 0
M  V30 3621 N 342.919 -1.39368 0.735821 0
M  V30 3622 C 344.33 -1.83313 0.354015 0
M  V30 3623 C 344.681 -1.61461 -1.11466 0
M  V30 3624 O 343.806 -1.10621 -1.85989 0
M  V30 3625 C 344.401 -3.32781 0.635769 0
M  V30 3626 C 342.96 -3.75142 0.307448 0
M  V30 3627 C 342.107 -2.62358 0.897974 0
M  V30 3628 H 345.058 -1.28349 0.933398 0
M  V30 3629 H 345.079 -3.80388 -0.0921773 0
M  V30 3630 H 344.591 -3.48654 1.70476 0
M  V30 3631 H 342.692 -3.64857 -0.755674 0
M  V30 3632 H 342.805 -4.72532 0.790583 0
M  V30 3633 H 341.169 -2.52624 0.324551 0
M  V30 3634 H 341.952 -2.81036 1.97164 0
M  V30 3635 N 344.397 -0.483516 -1.5 0
M  V30 3636 C 345.344 0.304164 -2.28787 0
M  V30 3637 C 346.314 0.976114 -1.34392 0
M  V30 3638 O 347.499 0.986156 -1.63339 0
M  V30 3639 C 344.639 1.37298 -3.16612 0
M  V30 3640 C 343.752 0.714561 -4.26049 0
M  V30 3641 C 342.887 1.76232 -5.01114 0
M  V30 3642 C 341.926 1.08483 -6.0241 0
M  V30 3643 N 341.063 2.076 -6.70706 0
M  V30 3644 H 345.903 -0.373981 -2.95644 0
M  V30 3645 H 343.44 -0.196275 -1.45785 0
M  V30 3646 H 345.398 2.00445 -3.65893 0
M  V30 3647 H 344.028 2.02012 -2.51776 0
M  V30 3648 H 343.08 -0.0297798 -3.80388 0
M  V30 3649 H 344.392 0.180383 -4.98474 0
M  V30 3650 H 343.546 2.46929 -5.54176 0
M  V30 3651 H 342.285 2.33033 -4.28424 0
M  V30 3652 H 341.29 0.363545 -5.48597 0
M  V30 3653 H 342.515 0.523551 -6.77079 0
M  V30 3654 H 340.461 2.63394 -6.00799 0
M  V30 3655 H 340.378 1.59201 -7.39047 0
M  V30 3656 H 341.646 2.77639 -7.2838 0
M  V30 3657 N 345.875 1.56104 -0.216619 0
M  V30 3658 C 347.152 1.89988 0.465165 0
M  V30 3659 C 347.532 1.13326 1.78102 0
M  V30 3660 O 346.88 0.241033 2.27225 0
M  V30 3661 C 347.09 3.42646 0.662939 0
M  V30 3662 C 348.438 4.13311 0.972602 0
M  V30 3663 O 349.462 3.48217 0.749901 0
M  V30 3664 O 348.321 5.28396 1.39499 0
M  V30 3665 H 345.415 0.78979 0.245276 0
M  V30 3666 H 347.961 1.67721 -0.258436 0
M  V30 3667 H 346.733 3.90399 -0.26543 0
M  V30 3668 H 346.356 3.70677 1.43821 0
M  V30 3669 N 347.353 -0.0568162 1.57498 0
M  V30 3670 C 348.283 -1.06593 2.0775 0
M  V30 3671 C 349.264 -1.39448 0.974082 0
M  V30 3672 O 350.449 -1.48815 1.24771 0
M  V30 3673 C 347.579 -2.37509 2.5339 0
M  V30 3674 C 346.533 -2.1897 3.67745 0
M  V30 3675 C 345.859 -3.55402 3.99492 0
M  V30 3676 C 347.159 -1.59859 4.97235 0
M  V30 3677 H 348.853 -0.647706 2.9231 0
M  V30 3678 H 346.399 -0.310116 1.40621 0
M  V30 3679 H 348.352 -3.08409 2.87162 0
M  V30 3680 H 347.076 -2.8134 1.65878 0
M  V30 3681 H 345.735 -1.50508 3.3428 0
M  V30 3682 H 345.383 -3.9683 3.09088 0
M  V30 3683 H 345.083 -3.43831 4.76502 0
M  V30 3684 H 346.607 -4.27708 4.35773 0
M  V30 3685 H 348.021 -2.20642 5.29141 0
M  V30 3686 H 346.418 -1.58942 5.78669 0
M  V30 3687 H 347.488 -0.561506 4.81638 0
M  V30 3688 N 348.832 -1.54138 -0.328536 0
M  V30 3689 C 350.078 -1.73297 -1.06488 0
M  V30 3690 C 350.433 -0.497958 -1.85844 0
M  V30 3691 O 349.726 0.509591 -1.84699 0
M  V30 3692 C 349.92 -2.9457 -2.02393 0
M  V30 3693 C 349.749 -4.29747 -1.32467 0
M  V30 3694 C 348.519 -4.93987 -1.06324 0
M  V30 3695 C 350.717 -5.08903 -0.743137 0
M  V30 3696 N 348.699 -6.13005 -0.331359 0
M  V30 3697 C 350.07 -6.19836 -0.142602 0
M  V30 3698 C 352.125 -4.93699 -0.64546 0
M  V30 3699 C 350.828 -7.17224 0.546125 0
M  V30 3700 C 352.854 -5.91393 0.0295558 0
M  V30 3701 C 352.216 -7.01674 0.619056 0
M  V30 3702 H 348.315 -0.687017 -0.373539 0
M  V30 3703 H 350.899 -1.91589 -0.346659 0
M  V30 3704 H 349.07 -2.77752 -2.71493 0
M  V30 3705 H 350.802 -3.0238 -2.68977 0
M  V30 3706 H 347.557 -4.53824 -1.35428 0
M  V30 3707 H 347.981 -6.76997 0.0202939 0
M  V30 3708 H 352.623 -4.08589 -1.08695 0
M  V30 3709 H 350.341 -8.01896 0.999459 0
M  V30 3710 H 353.927 -5.81706 0.104705 0
M  V30 3711 H 352.807 -7.75971 1.13309 0
M  V30 3712 N 350.31 0.590341 -1.46126 0
M  V30 3713 C 351.535 1.37991 -1.54833 0
M  V30 3714 C 351.96 1.87163 -0.187506 0
M  V30 3715 O 351.318 1.61133 0.831008 0
M  V30 3716 C 351.366 2.54867 -2.55098 0
M  V30 3717 O 350.47 3.56061 -2.08073 0
M  V30 3718 H 349.811 0.411265 -0.521303 0
M  V30 3719 H 352.341 0.716819 -1.91632 0
M  V30 3720 H 352.351 3.01886 -2.74461 0
M  V30 3721 H 351.026 2.18429 -3.53923 0
M  V30 3722 H 349.603 3.15574 -1.98664 0
M  V30 3723 N 351.788 1.33704 0.83433 0
M  V30 3724 C 352.718 1.26967 1.95963 0
M  V30 3725 C 353.699 0.149337 1.69443 0
M  V30 3726 O 354.884 0.339852 1.91203 0
M  V30 3727 C 352.014 1.01275 3.32206 0
M  V30 3728 C 350.968 2.09652 3.73136 0
M  V30 3729 C 350.294 1.69166 5.07235 0
M  V30 3730 C 351.594 3.51372 3.86439 0
M  V30 3731 H 353.288 2.2112 2.01857 0
M  V30 3732 H 350.834 1.06447 0.969793 0
M  V30 3733 H 352.787 0.952106 4.10503 0
M  V30 3734 H 351.511 0.0356203 3.26581 0
M  V30 3735 H 350.17 2.14766 2.97104 0
M  V30 3736 H 349.818 0.701437 4.98085 0
M  V30 3737 H 349.518 2.41694 5.35591 0
M  V30 3738 H 351.042 1.64576 5.88003 0
M  V30 3739 H 352.456 3.48734 4.55036 0
M  V30 3740 H 350.853 4.22425 4.26236 0
M  V30 3741 H 351.923 3.89546 2.88759 0
M  V30 3742 N 353.266 -1.05314 1.17247 0
M  V30 3743 C 354.514 -1.77941 0.958194 0
M  V30 3744 C 354.835 -1.88089 -0.514556 0
M  V30 3745 O 354.105 -1.39676 -1.37359 0
M  V30 3746 H 352.685 -0.659116 0.351533 0
M  V30 3747 H 355.347 -1.27166 1.47699 0
M  V30 3748 H 354.443 -2.79663 1.38546 0
M  V30 3749 N 354.744 -0.972509 -1.24016 0
M  V30 3750 C 356.16 -0.679827 -1.44397 0
M  V30 3751 C 356.36 0.756716 -1.86751 0
M  V30 3752 O 355.416 1.53007 -2.00861 0
M  V30 3753 C 356.729 -1.66803 -2.50195 0
M  V30 3754 C 358.277 -1.68119 -2.64017 0
M  V30 3755 C 358.752 -2.65748 -3.73017 0
M  V30 3756 N 360.243 -2.64219 -3.8045 0
M  V30 3757 C 360.978 -3.36433 -4.64328 0
M  V30 3758 N 360.474 -4.1818 -5.52356 0
M  V30 3759 N 362.267 -3.25235 -4.58453 0
M  V30 3760 H 354.418 -1.90059 -0.948228 0
M  V30 3761 H 356.681 -0.818527 -0.478245 0
M  V30 3762 H 356.387 -2.69498 -2.25973 0
M  V30 3763 H 356.261 -1.4446 -3.48441 0
M  V30 3764 H 358.648 -0.661319 -2.87594 0
M  V30 3765 H 358.729 -1.94525 -1.66113 0
M  V30 3766 H 358.373 -3.67872 -3.50189 0
M  V30 3767 H 358.303 -2.36619 -4.70446 0
M  V30 3768 H 360.794 -2.04887 -3.17537 0
M  V30 3769 H 361.107 -4.70157 -6.13329 0
M  V30 3770 H 359.452 -4.22273 -5.52006 0
M  V30 3771 H 362.643 -2.60829 -3.88698 0
M  V30 3772 H 362.816 -3.81776 -5.23594 0
M  V30 3773 N 356.222 1.38976 -0.743202 0
M  V30 3774 C 357.132 2.3434 -0.110399 0
M  V30 3775 C 358.148 1.58741 0.712559 0
M  V30 3776 O 359.324 1.9099 0.639125 0
M  V30 3777 C 356.389 3.37812 0.780012 0
M  V30 3778 C 355.45 4.29263 -0.0561319 0
M  V30 3779 C 354.683 5.27793 0.791875 0
M  V30 3780 O 354.906 5.33043 2.03031 0
M  V30 3781 O 353.84 6.01512 0.216183 0
M  V30 3782 H 357.666 2.90129 -0.897714 0
M  V30 3783 H 355.251 1.40643 -0.503966 0
M  V30 3784 H 357.133 4.01194 1.28923 0
M  V30 3785 H 355.808 2.84395 1.546 0
M  V30 3786 H 354.715 3.69076 -0.611056 0
M  V30 3787 H 356.048 4.85907 -0.784531 0
M  V30 3788 N 357.7 0.491464 1.49741 0
M  V30 3789 C 358.648 -0.305837 2.30581 0
M  V30 3790 C 359.642 -0.971642 1.38764 0
M  V30 3791 O 360.848 -0.90042 1.5586 0
M  V30 3792 H 357.223 -0.117482 0.742767 0
M  V30 3793 H 359.194 0.396093 2.95759 0
M  V30 3794 C 357.943 -1.36319 3.19863 0
M  V30 3795 H 357.266 -0.860258 3.90435 0
M  V30 3796 H 358.706 -1.89323 3.79385 0
M  V30 3797 C 357.165 -2.37621 2.38826 0
M  V30 3798 O 357.695 -3.43311 2.08567 0
M  V30 3799 N 355.901 -2.09849 2.01026 0
M  V30 3800 H 355.448 -1.23922 2.25834 0
M  V30 3801 H 355.406 -2.77859 1.47112 0
M  V30 3802 N 359.178 -1.55987 0.224894 0
M  V30 3803 C 360.403 -2.03232 -0.41369 0
M  V30 3804 C 360.828 -1.10359 -1.52323 0
M  V30 3805 O 360.186 -0.092395 -1.81064 0
M  V30 3806 C 360.234 -3.48682 -0.919405 0
M  V30 3807 O 359.338 -3.58947 -2.03054 0
M  V30 3808 H 358.679 -0.657428 -0.0931903 0
M  V30 3809 H 361.209 -2.01679 0.34451 0
M  V30 3810 H 361.219 -3.8907 -1.22835 0
M  V30 3811 H 359.894 -4.15761 -0.107339 0
M  V30 3812 H 358.471 -3.30448 -1.72796 0
M  V30 3813 N 360.656 0.0484629 -1.57525 0
M  V30 3814 C 361.881 0.759177 -1.93006 0
M  V30 3815 C 362.306 1.69125 -0.823317 0
M  V30 3816 O 361.664 1.79931 0.222364 0
M  V30 3817 C 361.712 1.50899 -3.27509 0
M  V30 3818 O 360.816 2.62112 -3.18388 0
M  V30 3819 H 360.157 0.205564 -0.631379 0
M  V30 3820 H 362.687 0.00972959 -2.04598 0
M  V30 3821 H 362.697 1.88317 -3.6194 0
M  V30 3822 H 361.372 0.825269 -4.0763 0
M  V30 3823 H 359.949 2.27379 -2.95556 0
M  V30 3824 N 362.134 1.5431 0.320358 0
M  V30 3825 C 363.044 1.86946 1.41734 0
M  V30 3826 C 364.06 0.761689 1.56443 0
M  V30 3827 O 365.236 1.05629 1.71477 0
M  V30 3828 C 362.301 2.09293 2.76401 0
M  V30 3829 C 361.362 3.33082 2.70841 0
M  V30 3830 C 360.595 3.54353 3.99086 0
M  V30 3831 O 360.818 2.79002 4.97508 0
M  V30 3832 O 359.752 4.47838 4.0215 0
M  V30 3833 H 363.578 2.80232 1.17062 0
M  V30 3834 H 361.163 1.40255 0.514673 0
M  V30 3835 H 363.045 2.25303 3.56113 0
M  V30 3836 H 361.72 1.19194 3.00956 0
M  V30 3837 H 360.627 3.22454 1.89668 0
M  V30 3838 H 361.96 4.23249 2.5124 0
M  V30 3839 N 363.613 -0.582584 1.46437 0
M  V30 3840 C 364.523 -1.71949 1.59595 0
M  V30 3841 C 365.539 -1.67264 0.479443 0
M  V30 3842 O 366.715 -1.87171 0.743579 0
M  V30 3843 C 363.78 -3.08452 1.58298 0
M  V30 3844 C 362.841 -3.244 2.81182 0
M  V30 3845 C 362.074 -4.54391 2.79937 0
M  V30 3846 O 362.297 -5.38287 1.8869 0
M  V30 3847 O 361.231 -4.73588 3.71481 0
M  V30 3848 H 365.057 -1.63795 2.55744 0
M  V30 3849 H 362.642 -0.749643 1.29231 0
M  V30 3850 H 364.524 -3.89732 1.60271 0
M  V30 3851 H 363.199 -3.17043 0.653094 0
M  V30 3852 H 362.106 -2.42613 2.84763 0
M  V30 3853 H 363.439 -3.20699 3.7338 0
M  V30 3854 N 365.091 -1.34144 -0.827227 0
M  V30 3855 C 366.021 -1.28005 -1.95287 0
M  V30 3856 C 367.002 -0.158321 -1.69362 0
M  V30 3857 O 368.187 -0.349987 -1.9102 0
M  V30 3858 C 365.317 -1.03036 -3.31664 0
M  V30 3859 C 364.271 -2.11628 -3.72019 0
M  V30 3860 C 363.597 -1.71854 -5.0633 0
M  V30 3861 C 364.897 -3.53417 -3.8457 0
M  V30 3862 H 366.591 -2.22187 -2.00682 0
M  V30 3863 H 364.137 -1.0696 -0.964135 0
M  V30 3864 H 366.09 -0.973863 -4.09993 0
M  V30 3865 H 364.814 -0.0529391 -3.26557 0
M  V30 3866 H 363.473 -2.16339 -2.95961 0
M  V30 3867 H 363.121 -0.727841 -4.97706 0
M  V30 3868 H 362.821 -2.44531 -5.34302 0
M  V30 3869 H 364.345 -1.67692 -5.87122 0
M  V30 3870 H 365.759 -3.51142 -4.5318 0
M  V30 3871 H 364.156 -4.24679 -4.2399 0
M  V30 3872 H 365.226 -3.91072 -2.86689 0
M  V30 3873 N 366.569 1.04691 -1.17803 0
M  V30 3874 C 367.815 1.78045 -0.970969 0
M  V30 3875 C 368.148 1.87686 0.498751 0
M  V30 3876 O 367.423 1.38035 1.37027 0
M  V30 3877 C 367.706 3.2166 -1.61884 0
M  V30 3878 C 367.559 3.20001 -3.161 0
M  V30 3879 C 368.878 4.1962 -1.3269 0
M  V30 3880 H 365.997 0.64633 -0.354155 0
M  V30 3881 H 368.639 1.22333 -1.45378 0
M  V30 3882 H 366.789 3.69232 -1.20831 0
M  V30 3883 H 368.461 2.80467 -3.66246 0
M  V30 3884 H 366.704 2.58203 -3.48588 0
M  V30 3885 H 367.375 4.21386 -3.56564 0
M  V30 3886 H 369.851 3.80567 -1.68249 0
M  V30 3887 H 368.727 5.18339 -1.80599 0
M  V30 3888 H 368.988 4.414 -0.248622 0
M  V30 3889 N 368.047 0.979072 1.23499 0
M  V30 3890 C 369.272 0.664845 1.96455 0
M  V30 3891 C 369.697 -0.761287 1.72006 0
M  V30 3892 O 369.055 -1.51837 0.990713 0
M  V30 3893 C 369.103 0.959479 3.47601 0
M  V30 3894 O 368.207 0.0508168 4.12369 0
M  V30 3895 H 367.548 0.250185 0.615064 0
M  V30 3896 H 370.078 1.31231 1.5697 0
M  V30 3897 H 370.088 0.895642 3.98048 0
M  V30 3898 H 368.763 1.99876 3.64723 0
M  V30 3899 H 367.34 0.16895 3.72517 0
M  V30 3900 N 369.525 -1.3858 0.750561 0
M  V30 3901 C 370.941 -1.53759 0.427824 0
M  V30 3902 C 371.141 -1.71401 -1.05943 0
M  V30 3903 O 370.197 -1.72331 -1.84549 0
M  V30 3904 C 371.51 -2.74642 1.22443 0
M  V30 3905 C 373.058 -2.88489 1.2142 0
M  V30 3906 C 373.533 -4.12329 1.9937 0
M  V30 3907 N 375.024 -4.194 1.96616 0
M  V30 3908 C 375.759 -5.14209 2.53727 0
M  V30 3909 N 375.255 -6.14709 3.19539 0
M  V30 3910 N 377.048 -5.06537 2.43673 0
M  V30 3911 H 369.199 -1.25377 1.71447 0
M  V30 3912 H 371.462 -0.608844 0.726645 0
M  V30 3913 H 371.168 -2.68 2.27747 0
M  V30 3914 H 371.042 -3.67745 0.839273 0
M  V30 3915 H 373.429 -2.94614 0.169232 0
M  V30 3916 H 373.51 -1.96406 1.63885 0
M  V30 3917 H 373.154 -4.06966 3.03877 0
M  V30 3918 H 373.084 -5.03486 1.54302 0
M  V30 3919 H 375.575 -3.47421 1.48684 0
M  V30 3920 H 375.888 -6.8354 3.60545 0
M  V30 3921 H 374.233 -6.1505 3.23633 0
M  V30 3922 H 377.424 -4.26962 1.91889 0
M  V30 3923 H 377.597 -5.80245 2.88479 0
M  V30 3924 N 371.003 -0.499398 -1.49478 0
M  V30 3925 C 371.933 0.269244 -2.31943 0
M  V30 3926 C 372.914 0.964054 -1.40143 0
M  V30 3927 O 374.099 0.955767 -1.69052 0
M  V30 3928 C 371.229 1.33504 -3.20615 0
M  V30 3929 C 370.183 0.760202 -4.21195 0
M  V30 3930 C 369.509 1.9264 -4.98792 0
M  V30 3931 C 370.809 -0.247661 -5.21712 0
M  V30 3932 H 372.503 -0.419082 -2.96452 0
M  V30 3933 H 370.049 -0.202988 -1.42562 0
M  V30 3934 H 372.002 1.88048 -3.77115 0
M  V30 3935 H 370.726 2.05253 -2.54045 0
M  V30 3936 H 369.385 0.23653 -3.65836 0
M  V30 3937 H 369.033 2.63154 -4.28671 0
M  V30 3938 H 368.733 1.54785 -5.66847 0
M  V30 3939 H 370.257 2.4762 -5.58137 0
M  V30 3940 H 371.671 0.209579 -5.72917 0
M  V30 3941 H 370.068 -0.541962 -5.97648 0
M  V30 3942 H 371.138 -1.16409 -4.7072 0
M  V30 3943 N 372.481 1.55866 -0.233164 0
M  V30 3944 C 373.391 2.24431 0.683217 0
M  V30 3945 C 374.407 1.2558 1.2044 0
M  V30 3946 O 375.583 1.58422 1.24356 0
M  V30 3947 C 372.648 2.91979 1.86947 0
M  V30 3948 C 371.709 4.06204 1.38912 0
M  V30 3949 C 370.942 4.70522 2.51883 0
M  V30 3950 O 371.165 4.33865 3.70293 0
M  V30 3951 O 370.099 5.59296 2.22423 0
M  V30 3952 H 373.925 3.03426 0.129059 0
M  V30 3953 H 371.51 1.494 -0.0022283 0
M  V30 3954 H 373.392 3.34573 2.56201 0
M  V30 3955 H 372.067 2.15935 2.41151 0
M  V30 3956 H 370.974 3.68155 0.664259 0
M  V30 3957 H 372.307 4.84025 0.893328 0
M  V30 3958 N 373.959 -0.0401083 1.57549 0
M  V30 3959 C 374.906 -1.04413 2.05831 0
M  V30 3960 C 375.876 -1.36585 0.945184 0
M  V30 3961 O 377.061 -1.47112 1.21502 0
M  V30 3962 C 374.201 -2.34336 2.53339 0
M  V30 3963 C 373.314 -2.08419 3.78398 0
M  V30 3964 C 372.449 -3.32133 4.14561 0
M  V30 3965 C 371.488 -3.01721 5.3257 0
M  V30 3966 N 370.625 -4.17855 5.64218 0
M  V30 3967 H 375.465 -0.625442 2.91363 0
M  V30 3968 H 373.002 -0.297218 1.44066 0
M  V30 3969 H 374.96 -3.10234 2.78946 0
M  V30 3970 H 373.59 -2.73948 1.7074 0
M  V30 3971 H 372.642 -1.23069 3.59942 0
M  V30 3972 H 373.954 -1.81978 4.64419 0
M  V30 3973 H 373.108 -4.16406 4.41238 0
M  V30 3974 H 371.847 -3.61678 3.2717 0
M  V30 3975 H 370.852 -2.15849 5.05657 0
M  V30 3976 H 372.077 -2.73466 6.21605 0
M  V30 3977 H 370.023 -4.47372 4.79786 0
M  V30 3978 H 369.94 -3.94798 6.44725 0
M  V30 3979 H 371.208 -5.03033 5.95465 0
M  V30 3980 N 375.437 -1.54477 -0.31217 0
M  V30 3981 C 376.347 -1.87695 -1.4074 0
M  V30 3982 C 377.363 -0.769975 -1.56036 0
M  V30 3983 O 378.539 -1.06537 -1.70915 0
M  V30 3984 C 375.604 -2.10755 -2.75287 0
M  V30 3985 C 374.665 -3.34514 -2.69071 0
M  V30 3986 C 373.898 -3.56465 -3.97201 0
M  V30 3987 O 374.121 -2.81637 -4.96021 0
M  V30 3988 O 373.055 -4.49964 -3.9977 0
M  V30 3989 H 376.881 -2.80849 -1.15574 0
M  V30 3990 H 374.466 -1.40526 -0.507228 0
M  V30 3991 H 376.348 -2.27188 -3.54913 0
M  V30 3992 H 375.023 -1.20788 -3.0032 0
M  V30 3993 H 373.93 -3.23456 -1.87955 0
M  V30 3994 H 375.263 -4.24575 -2.48992 0
M  V30 3995 N 376.915 0.57481 -1.46744 0
M  V30 3996 C 378.161 1.33251 -1.53674 0
M  V30 3997 C 378.516 1.91468 -0.189125 0
M  V30 3998 O 377.809 1.73954 0.803151 0
M  V30 3999 C 378.003 2.476 -2.57738 0
M  V30 4000 C 377.832 2.00586 -4.02487 0
M  V30 4001 C 376.602 1.85237 -4.70123 0
M  V30 4002 C 378.8 1.56078 -4.90045 0
M  V30 4003 N 376.782 1.32377 -5.99458 0
M  V30 4004 C 378.153 1.14863 -6.09267 0
M  V30 4005 C 380.208 1.43968 -4.76632 0
M  V30 4006 C 378.911 0.627435 -7.16558 0
M  V30 4007 C 380.937 0.932512 -5.84002 0
M  V30 4008 C 380.299 0.53019 -7.02402 0
M  V30 4009 H 376.398 0.480284 -0.617131 0
M  V30 4010 H 378.982 0.653592 -1.83402 0
M  V30 4011 H 377.153 3.13045 -2.29907 0
M  V30 4012 H 378.885 3.14567 -2.54616 0
M  V30 4013 H 375.64 2.07423 -4.25761 0
M  V30 4014 H 376.064 1.08085 -6.68316 0
M  V30 4015 H 380.706 1.73689 -3.85476 0
M  V30 4016 H 378.424 0.317821 -8.07475 0
M  V30 4017 H 382.01 0.842611 -5.75666 0
M  V30 4018 H 380.89 0.14381 -7.84068 0
M  V30 4019 N 378.394 1.34581 0.820102 0
M  V30 4020 C 379.327 1.20735 1.93644 0
M  V30 4021 C 380.305 0.0983343 1.62302 0
M  V30 4022 O 381.489 0.263997 1.86642 0
M  V30 4023 C 378.616 0.856037 3.27704 0
M  V30 4024 C 377.662 1.97521 3.78005 0
M  V30 4025 S 378.495 3.58906 3.97425 0
M  V30 4026 C 379.651 3.25822 5.34407 0
M  V30 4027 H 379.884 2.15231 2.05093 0
M  V30 4028 H 377.417 1.1964 0.97599 0
M  V30 4029 H 379.375 0.660133 4.05157 0
M  V30 4030 H 378.036 -0.0706253 3.14021 0
M  V30 4031 H 377.229 1.68321 4.75062 0
M  V30 4032 H 376.831 2.12875 3.07507 0
M  V30 4033 H 379.123 2.77812 6.17922 0
M  V30 4034 H 380.066 4.22029 5.68592 0
M  V30 4035 H 380.474 2.61932 5.00052 0
M  V30 4036 N 379.872 -1.04064 1.18357 0
M  V30 4037 C 381.288 -1.2947 0.933258 0
M  V30 4038 C 381.488 -1.97466 -0.401169 0
M  V30 4039 O 380.544 -2.25528 -1.13549 0
M  V30 4040 C 381.857 -2.15337 2.09882 0
M  V30 4041 C 383.405 -2.28683 2.13712 0
M  V30 4042 C 383.88 -3.17917 3.29686 0
M  V30 4043 N 385.371 -3.25504 3.29547 0
M  V30 4044 C 386.106 -3.94706 4.15926 0
M  V30 4045 N 385.602 -4.66239 5.12439 0
M  V30 4046 N 387.395 -3.90986 4.0384 0
M  V30 4047 H 379.546 -0.583359 2.04232 0
M  V30 4048 H 381.809 -0.319921 0.892387 0
M  V30 4049 H 381.515 -1.72682 3.06389 0
M  V30 4050 H 381.389 -3.16015 2.05947 0
M  V30 4051 H 383.776 -2.70575 1.17784 0
M  V30 4052 H 383.857 -1.27596 2.21705 0
M  V30 4053 H 383.501 -2.76736 4.25887 0
M  V30 4054 H 383.431 -4.19036 3.1893 0
M  V30 4055 H 385.922 -2.74547 2.59677 0
M  V30 4056 H 386.235 -5.16638 5.74722 0
M  V30 4057 H 384.58 -4.65143 5.16398 0
M  V30 4058 H 387.771 -3.34234 3.27727 0
M  V30 4059 H 387.944 -4.44646 4.71375 0
M  V30 4060 N 381.35 -0.985608 -1.22978 0
M  V30 4061 C 382.298 -0.522631 -2.26652 0
M  V30 4062 C 383.292 0.422998 -1.64034 0
M  V30 4063 O 384.498 0.296319 -1.77544 0
M  V30 4064 H 380.873 -0.150597 -0.736766 0
M  V30 4065 H 382.844 -1.40863 -2.63059 0
M  V30 4066 C 381.593 0.154238 -3.47358 0
M  V30 4067 H 380.916 -0.564329 -3.95797 0
M  V30 4068 H 382.356 0.441744 -4.21693 0
M  V30 4069 C 380.815 1.38719 -3.07016 0
M  V30 4070 O 381.345 2.48307 -3.15764 0
M  V30 4071 N 379.551 1.25975 -2.61875 0
M  V30 4072 H 379.098 0.368068 -2.54957 0
M  V30 4073 H 379.056 2.08578 -2.3525 0
M  V30 4074 N 382.828 1.3818 -0.7579 0
M  V30 4075 C 384.244 1.5353 -0.435972 0
M  V30 4076 C 384.444 1.71961 1.05032 0
M  V30 4077 O 383.5 1.73307 1.83633 0
M  V30 4078 C 384.813 2.73989 -1.23898 0
M  V30 4079 C 386.361 2.87841 -1.22949 0
M  V30 4080 C 386.836 4.11266 -2.01554 0
M  V30 4081 N 388.327 4.18352 -1.98837 0
M  V30 4082 C 389.062 5.12856 -2.5645 0
M  V30 4083 N 388.558 6.13005 -3.22794 0
M  V30 4084 N 390.351 5.05238 -2.46356 0
M  V30 4085 H 382.502 1.24467 -1.7211 0
M  V30 4086 H 384.765 0.604982 -0.729864 0
M  V30 4087 H 384.471 2.66789 -2.29165 0
M  V30 4088 H 384.345 3.67294 -0.858764 0
M  V30 4089 H 386.732 2.9452 -0.184854 0
M  V30 4090 H 386.813 1.95534 -1.64924 0
M  V30 4091 H 386.457 4.05349 -3.06031 0
M  V30 4092 H 386.387 5.02661 -1.5697 0
M  V30 4093 H 388.878 3.46628 -1.50524 0
M  V30 4094 H 389.191 6.81619 -3.64165 0
M  V30 4095 H 387.536 6.13325 -3.2689 0
M  V30 4096 H 390.727 4.25938 -1.9415 0
M  V30 4097 H 390.9 5.78707 -2.91552 0
M  V30 4098 N 384.306 0.507319 1.49211 0
M  V30 4099 C 385.531 -0.033725 2.07373 0
M  V30 4100 C 385.956 -1.29485 1.36437 0
M  V30 4101 O 385.314 -1.76294 0.423087 0
M  V30 4102 C 385.362 -0.263945 3.59633 0
M  V30 4103 O 384.466 -1.33737 3.90113 0
M  V30 4104 H 383.807 0.0290331 0.663365 0
M  V30 4105 H 386.337 0.708749 1.91932 0
M  V30 4106 H 386.347 -0.493536 4.05004 0
M  V30 4107 H 385.022 0.657424 4.10671 0
M  V30 4108 H 383.599 -1.09224 3.56545 0
M  V30 4109 N 385.784 -1.5574 0.241426 0
M  V30 4110 C 386.747 -2.19877 -0.647063 0
M  V30 4111 C 387.747 -1.16642 -1.10686 0
M  V30 4112 O 388.937 -1.41757 -1.01245 0
M  V30 4113 C 386.069 -2.83797 -1.88871 0
M  V30 4114 H 387.262 -2.99772 -0.087574 0
M  V30 4115 H 384.815 -1.56298 -0.00813574 0
M  V30 4116 H 385.55 -2.07824 -2.48957 0
M  V30 4117 H 385.335 -3.59414 -1.56728 0
M  V30 4118 H 386.825 -3.32898 -2.52129 0
M  V30 4119 N 387.262 0.0317525 -1.57568 0
M  V30 4120 C 388.225 1.01783 -2.0536 0
M  V30 4121 C 389.225 1.29203 -0.957253 0
M  V30 4122 O 390.415 1.24251 -1.22095 0
M  V30 4123 C 387.547 2.35137 -2.46827 0
M  V30 4124 H 388.74 0.605062 -2.93733 0
M  V30 4125 H 386.293 0.278514 -1.53799 0
M  V30 4126 H 387.028 2.81168 -1.61602 0
M  V30 4127 H 386.813 2.16566 -3.26866 0
M  V30 4128 H 388.303 3.05938 -2.84239 0
M  V30 4129 N 388.74 1.54641 0.303973 0
M  V30 4130 C 390.156 1.45788 0.649463 0
M  V30 4131 C 390.356 0.64666 1.90842 0
M  V30 4132 O 389.412 0.153183 2.52035 0
M  V30 4133 C 390.725 2.89718 0.805227 0
M  V30 4134 C 392.273 2.99742 0.901305 0
M  V30 4135 C 392.748 4.44863 1.08909 0
M  V30 4136 N 394.239 4.48559 1.15536 0
M  V30 4137 C 394.974 5.58026 1.3189 0
M  V30 4138 N 394.47 6.77422 1.45161 0
M  V30 4139 N 396.263 5.45708 1.34755 0
M  V30 4140 H 388.414 2.05854 -0.523237 0
M  V30 4141 H 390.677 0.932186 -0.172431 0
M  V30 4142 H 390.383 3.51666 -0.0489108 0
M  V30 4143 H 390.257 3.36964 1.69513 0
M  V30 4144 H 392.644 2.3791 1.74593 0
M  V30 4145 H 392.725 2.55797 -0.0125531 0
M  V30 4146 H 392.369 5.07288 0.249241 0
M  V30 4147 H 392.299 4.86436 2.01713 0
M  V30 4148 H 394.79 3.6254 1.06646 0
M  V30 4149 H 395.103 7.56604 1.57387 0
M  V30 4150 H 393.448 6.80292 1.42223 0
M  V30 4151 H 396.639 4.51378 1.23996 0
M  V30 4152 H 396.812 6.3107 1.47157 0
M  V30 4153 N 390.218 -0.567019 1.47046 0
M  V30 4154 C 391.634 -0.891975 1.32348 0
M  V30 4155 C 391.834 -1.99154 0.306616 0
M  V30 4156 O 390.89 -2.50883 -0.28532 0
M  V30 4157 C 392.203 -1.29449 2.7141 0
M  V30 4158 C 393.751 -1.40646 2.79621 0
M  V30 4159 C 394.226 -1.84257 4.19301 0
M  V30 4160 N 395.717 -1.91424 4.21795 0
M  V30 4161 C 396.452 -2.26476 5.26779 0
M  V30 4162 N 395.948 -2.60211 6.42077 0
M  V30 4163 N 397.741 -2.27166 5.14152 0
M  V30 4164 H 389.892 0.159074 2.11803 0
M  V30 4165 H 392.155 0.00849752 0.947962 0
M  V30 4166 H 391.861 -0.560448 3.47206 0
M  V30 4167 H 391.735 -2.25273 3.02542 0
M  V30 4168 H 394.122 -2.13133 2.04104 0
M  V30 4169 H 394.203 -0.430339 2.52154 0
M  V30 4170 H 393.847 -1.12343 4.95319 0
M  V30 4171 H 393.777 -2.82855 4.44185 0
M  V30 4172 H 396.268 -1.6778 3.38612 0
M  V30 4173 H 396.581 -2.85956 7.17948 0
M  V30 4174 H 394.926 -2.57813 6.45413 0
M  V30 4175 H 398.117 -2.00244 4.23107 0
M  V30 4176 H 398.29 -2.54154 5.96079 0
M  V30 4177 N 391.696 -1.35014 -0.812953 0
M  V30 4178 C 392.646 -1.23959 -1.91359 0
M  V30 4179 C 393.63 -0.136306 -1.60322 0
M  V30 4180 O 394.822 -0.366925 -1.73155 0
M  V30 4181 C 391.951 -1.00736 -3.28188 0
M  V30 4182 C 391.037 -2.15426 -3.65311 0
M  V30 4183 N 391.428 -3.40612 -3.73921 0
M  V30 4184 C 389.726 -2.06672 -3.95225 0
M  V30 4185 C 390.427 -4.15994 -4.06601 0
M  V30 4186 N 389.403 -3.44685 -4.20349 0
M  V30 4187 H 393.205 -2.18815 -1.96208 0
M  V30 4188 H 390.719 -1.27395 -1.00718 0
M  V30 4189 H 392.716 -0.909052 -4.06868 0
M  V30 4190 H 391.376 -0.067586 -3.2463 0
M  V30 4191 H 392.387 -3.75043 -3.5716 0
M  V30 4192 H 389.064 -1.20511 -3.99729 0
M  V30 4193 H 390.454 -5.24145 -4.20382 0
M  V30 4194 N 393.175 1.03435 -1.18907 0
M  V30 4195 C 394.123 2.13703 -0.918353 0
M  V30 4196 C 395.117 1.68947 0.123767 0
M  V30 4197 O 396.323 1.79983 -0.0249701 0
M  V30 4198 H 392.698 0.698112 -0.279542 0
M  V30 4199 H 394.669 2.33731 -1.85506 0
M  V30 4200 C 393.418 3.44542 -0.467532 0
M  V30 4201 H 392.741 3.79394 -1.26095 0
M  V30 4202 H 394.181 4.22812 -0.317164 0
M  V30 4203 C 392.64 3.26829 0.817588 0
M  V30 4204 O 393.17 3.54975 1.88031 0
M  V30 4205 N 391.376 2.80139 0.772677 0
M  V30 4206 H 390.923 2.57434 -0.0923883 0
M  V30 4207 H 390.881 2.68668 1.63294 0
M  V30 4208 N 394.653 0.992116 1.22453 0
M  V30 4209 C 395.6 0.541731 2.24352 0
M  V30 4210 C 396.57 -0.425519 1.60557 0
M  V30 4211 O 397.755 -0.330453 1.87917 0
M  V30 4212 C 394.895 -0.138248 3.44823 0
M  V30 4213 C 394.008 0.870649 4.23136 0
M  V30 4214 C 393.143 0.164269 5.30946 0
M  V30 4215 C 392.182 1.16159 6.00977 0
M  V30 4216 N 391.319 0.483568 7.00433 0
M  V30 4217 H 396.159 1.41541 2.62241 0
M  V30 4218 H 393.696 0.709013 1.28885 0
M  V30 4219 H 395.654 -0.5494 4.13567 0
M  V30 4220 H 394.284 -0.975721 3.077 0
M  V30 4221 H 393.336 1.40013 3.53696 0
M  V30 4222 H 394.648 1.63014 4.7141 0
M  V30 4223 H 393.802 -0.303653 6.0594 0
M  V30 4224 H 392.541 -0.627733 4.83643 0
M  V30 4225 H 391.546 1.64015 5.24766 0
M  V30 4226 H 392.771 1.95445 6.50368 0
M  V30 4227 H 390.717 -0.289012 6.55363 0
M  V30 4228 H 390.634 1.18152 7.4671 0
M  V30 4229 H 391.902 0.0384219 7.79491 0
M  V30 4230 N 396.131 -1.37776 0.765217 0
M  V30 4231 C 397.094 -2.28686 0.153416 0
M  V30 4232 C 398.094 -1.47727 -0.635081 0
M  V30 4233 O 399.284 -1.68027 -0.459632 0
M  V30 4234 C 396.416 -3.31608 -0.790495 0
M  V30 4235 H 397.609 -2.84297 0.954723 0
M  V30 4236 H 395.162 -1.46932 0.53299 0
M  V30 4237 H 395.897 -2.81109 -1.61705 0
M  V30 4238 H 395.682 -3.9144 -0.227348 0
M  V30 4239 H 397.172 -3.99559 -1.21419 0
M  V30 4240 N 397.609 -0.515225 -1.4894 0
M  V30 4241 C 398.858 0.0261361 -2.01683 0
M  V30 4242 C 399.171 1.36719 -1.39883 0
M  V30 4243 O 400.377 1.99606 -1.84037 0
M  V30 4244 C 398.833 0.0970111 -3.59769 0
M  V30 4245 C 398.441 -1.23825 -4.30548 0
M  V30 4246 C 400.185 0.587981 -4.20408 0
M  V30 4247 C 398.092 -1.12877 -5.80528 0
M  V30 4248 H 397.022 0.0135398 -0.753878 0
M  V30 4249 H 399.673 -0.656787 -1.71343 0
M  V30 4250 H 398.055 0.844694 -3.86886 0
M  V30 4251 H 399.229 -2.00034 -4.15118 0
M  V30 4252 H 397.544 -1.66379 -3.81716 0
M  V30 4253 H 400.141 0.68763 -5.3026 0
M  V30 4254 H 400.484 1.59026 -3.84729 0
M  V30 4255 H 401.017 -0.103582 -3.97665 0
M  V30 4256 H 397.756 -2.10575 -6.20756 0
M  V30 4257 H 397.276 -0.407799 -5.98412 0
M  V30 4258 H 398.955 -0.813332 -6.41868 0
M  V30 4259 N 399.087 1.5561 -0.249682 0
M  V30 4260 C 400.05 2.20217 0.635394 0
M  V30 4261 C 401.05 1.17227 1.10066 0
M  V30 4262 O 402.24 1.42292 1.00492 0
M  V30 4263 C 399.372 2.84794 1.87363 0
M  V30 4264 H 400.565 2.99814 0.0716752 0
M  V30 4265 H 398.118 1.563 -0.000153234 0
M  V30 4266 H 398.853 2.09142 2.47851 0
M  V30 4267 H 398.638 3.60241 1.5482 0
M  V30 4268 H 400.128 3.3423 2.5036 0
M  V30 4269 N 400.565 -0.0233959 1.57583 0
M  V30 4270 C 401.812 -0.713063 1.8953 0
M  V30 4271 C 402.14 -1.75056 0.847673 0
M  V30 4272 O 401.395 -1.95119 -0.150636 0
M  V30 4273 C 401.694 -1.41428 3.28227 0
M  V30 4274 C 401.36 -0.512222 4.47981 0
M  V30 4275 C 400.022 -0.263785 4.80476 0
M  V30 4276 C 402.374 0.110248 5.21083 0
M  V30 4277 C 399.702 0.615804 5.83459 0
M  V30 4278 C 402.054 0.977573 6.25001 0
M  V30 4279 C 400.718 1.23542 6.55968 0
M  V30 4280 H 399.988 -0.260928 0.69354 0
M  V30 4281 H 402.635 0.0271047 1.91481 0
M  V30 4282 H 400.94 -2.22791 3.22291 0
M  V30 4283 H 402.637 -1.95355 3.50196 0
M  V30 4284 H 399.227 -0.716013 4.22577 0
M  V30 4285 H 403.411 -0.0687137 4.96252 0
M  V30 4286 H 398.667 0.82382 6.05824 0
M  V30 4287 H 402.841 1.46638 6.80786 0
M  V30 4288 H 400.468 1.91871 7.35588 0
M  V30 4289 N 402.043 -1.548 -0.295768 0
M  V30 4290 C 402.99 -1.86113 -1.36494 0
M  V30 4291 C 403.96 -0.7105 -1.50137 0
M  V30 4292 O 405.145 -0.959626 -1.64912 0
M  V30 4293 C 402.285 -2.11861 -2.72413 0
M  V30 4294 C 401.398 -3.39471 -2.67177 0
M  V30 4295 C 400.533 -3.55035 -3.95125 0
M  V30 4296 C 399.572 -4.76418 -3.84308 0
M  V30 4297 N 398.709 -4.8876 -5.04042 0
M  V30 4298 H 403.549 -2.77314 -1.09091 0
M  V30 4299 H 401.086 -1.37315 -0.52753 0
M  V30 4300 H 403.044 -2.24786 -3.51464 0
M  V30 4301 H 401.674 -1.2392 -2.98066 0
M  V30 4302 H 400.726 -3.35139 -1.79962 0
M  V30 4303 H 402.038 -4.28646 -2.55076 0
M  V30 4304 H 401.192 -3.67653 -4.82614 0
M  V30 4305 H 399.931 -2.64002 -4.10066 0
M  V30 4306 H 398.936 -4.63827 -2.95202 0
M  V30 4307 H 400.161 -5.68863 -3.70906 0
M  V30 4308 H 398.107 -4.00652 -5.19436 0
M  V30 4309 H 398.024 -5.71945 -4.94384 0
M  V30 4310 H 399.292 -5.0574 -5.93167 0
M  V30 4311 N 403.521 0.559213 -1.47345 0
M  V30 4312 C 404.937 0.884943 -1.32819 0
M  V30 4313 C 405.137 1.98988 -0.317173 0
M  V30 4314 O 404.193 2.51031 0.272011 0
M  V30 4315 C 405.506 1.28007 -2.72093 0
M  V30 4316 C 407.054 1.39161 -2.80363 0
M  V30 4317 C 407.529 1.82031 -4.20272 0
M  V30 4318 N 409.02 1.89185 -4.22804 0
M  V30 4319 C 409.755 2.2368 -5.27973 0
M  V30 4320 N 409.251 2.56802 -6.43447 0
M  V30 4321 N 411.044 2.24436 -5.15349 0
M  V30 4322 H 403.195 -0.170304 -2.11716 0
M  V30 4323 H 405.458 -0.0135247 -0.947904 0
M  V30 4324 H 405.164 0.542027 -3.47498 0
M  V30 4325 H 405.038 2.23665 -3.03733 0
M  V30 4326 H 407.425 2.12048 -2.05231 0
M  V30 4327 H 407.506 0.41696 -2.52379 0
M  V30 4328 H 407.15 1.09715 -4.95908 0
M  V30 4329 H 407.08 2.80495 -4.45679 0
M  V30 4330 H 409.571 1.65982 -3.39497 0
M  V30 4331 H 409.884 2.82144 -7.19454 0
M  V30 4332 H 408.229 2.54387 -6.46771 0
M  V30 4333 H 411.42 1.97998 -4.24163 0
M  V30 4334 H 411.593 2.50989 -5.97418 0
M  V30 4335 N 404.999 1.35443 0.805782 0
M  V30 4336 C 405.946 1.28431 1.91766 0
M  V30 4337 C 406.916 0.156102 1.65365 0
M  V30 4338 O 408.101 0.339936 1.87747 0
M  V30 4339 C 405.241 1.06301 3.2832 0
M  V30 4340 C 404.354 2.2805 3.66902 0
M  V30 4341 C 403.489 1.99064 4.92491 0
M  V30 4342 C 402.528 3.16863 5.23703 0
M  V30 4343 N 401.665 2.87647 6.40471 0
M  V30 4344 H 406.505 2.23511 1.97096 0
M  V30 4345 H 404.042 1.11105 0.964054 0
M  V30 4346 H 406 0.915012 4.07042 0
M  V30 4347 H 404.63 0.148822 3.22457 0
M  V30 4348 H 403.682 2.53711 2.83434 0
M  V30 4349 H 404.994 3.1601 3.85927 0
M  V30 4350 H 404.148 1.81099 5.7904 0
M  V30 4351 H 402.887 1.0839 4.75503 0
M  V30 4352 H 401.892 3.35404 4.35642 0
M  V30 4353 H 403.117 4.08339 5.4262 0
M  V30 4354 H 401.063 1.99568 6.24907 0
M  V30 4355 H 400.98 3.69141 6.59751 0
M  V30 4356 H 402.248 2.73226 7.30047 0
M  V30 4357 N 406.477 -1.02803 1.19454 0
M  V30 4358 C 407.725 -1.75869 0.995722 0
M  V30 4359 C 408.046 -1.89138 -0.474543 0
M  V30 4360 O 407.316 -1.42558 -1.34366 0
M  V30 4361 H 405.896 -0.651511 0.365435 0
M  V30 4362 H 408.558 -1.24004 1.50363 0
M  V30 4363 H 407.654 -2.76661 1.44447 0
M  V30 4364 N 407.956 -0.998596 -1.21925 0
M  V30 4365 C 409.204 -0.676325 -1.90448 0
M  V30 4366 C 409.525 0.794719 -1.78071 0
M  V30 4367 O 408.795 1.5701 -1.17152 0
M  V30 4368 H 407.375 -0.247165 -0.704925 0
M  V30 4369 H 410.037 -1.26633 -1.48156 0
M  V30 4370 H 409.133 -0.943858 -2.97486 0
M  V30 4371 N 409.434 1.37368 -0.772513 0
M  V30 4372 C 410.659 2.0447 -0.347386 0
M  V30 4373 C 411.084 1.57882 1.0225 0
M  V30 4374 O 410.442 0.73941 1.65537 0
M  V30 4375 C 410.49 3.58369 -0.400479 0
M  V30 4376 O 409.594 4.0803 0.598789 0
M  V30 4377 H 408.935 0.646773 -0.15027 0
M  V30 4378 H 411.465 1.75667 -1.04892 0
M  V30 4379 H 411.475 4.07183 -0.258045 0
M  V30 4380 H 410.15 3.91633 -1.39986 0
M  V30 4381 H 408.727 3.70534 0.419411 0
M  V30 4382 N 410.912 0.523116 1.48665 0
M  V30 4383 C 412.16 -0.0134497 2.02096 0
M  V30 4384 C 412.481 -1.35418 1.40311 0
M  V30 4385 O 411.751 -1.87543 0.566074 0
M  V30 4386 H 410.331 -0.00795915 0.746958 0
M  V30 4387 H 412.993 0.685388 1.82451 0
M  V30 4388 H 412.089 -0.126849 3.11842 0
M  V30 4389 N 412.39 -1.55475 0.257931 0
M  V30 4390 C 413.323 -2.179 -0.677862 0
M  V30 4391 C 414.301 -1.13448 -1.16483 0
M  V30 4392 O 415.485 -1.41889 -1.24095 0
M  V30 4393 C 412.612 -2.78851 -1.92249 0
M  V30 4394 C 411.658 -3.96454 -1.57246 0
M  V30 4395 S 412.491 -5.31349 -0.665501 0
M  V30 4396 C 413.647 -5.9576 -1.91889 0
M  V30 4397 H 413.88 -2.96934 -0.147396 0
M  V30 4398 H 411.413 -1.54342 0.0423023 0
M  V30 4399 H 413.371 -3.14602 -2.63697 0
M  V30 4400 H 412.032 -1.99742 -2.42409 0
M  V30 4401 H 411.225 -4.37731 -2.49814 0
M  V30 4402 H 410.827 -3.62038 -0.938325 0
M  V30 4403 H 413.119 -6.13947 -2.86487 0
M  V30 4404 H 414.062 -6.9094 -1.54942 0
M  V30 4405 H 414.47 -5.2494 -2.076 0
M  V30 4406 N 413.868 0.0150385 -1.57593 0
M  V30 4407 C 414.815 1.01126 -2.07466 0
M  V30 4408 C 415.785 1.35064 -0.966794 0
M  V30 4409 O 416.97 1.4516 -1.23827 0
M  V30 4410 C 414.11 2.30276 -2.57035 0
M  V30 4411 C 413.223 2.02373 -3.81666 0
M  V30 4412 C 412.358 3.25496 -4.19793 0
M  V30 4413 C 411.397 2.93211 -5.37303 0
M  V30 4414 N 410.534 4.08826 -5.70794 0
M  V30 4415 H 415.374 0.57901 -2.92321 0
M  V30 4416 H 412.911 0.27426 -1.44521 0
M  V30 4417 H 414.869 3.05757 -2.83846 0
M  V30 4418 H 413.499 2.71197 -1.75077 0
M  V30 4419 H 412.551 1.17327 -3.61854 0
M  V30 4420 H 413.863 1.74567 -4.67256 0
M  V30 4421 H 413.017 4.09333 -4.47807 0
M  V30 4422 H 411.756 3.56428 -3.32882 0
M  V30 4423 H 410.761 2.07777 -5.09027 0
M  V30 4424 H 411.986 2.63542 -6.25877 0
M  V30 4425 H 409.932 4.39682 -4.86842 0
M  V30 4426 H 409.849 3.84491 -6.50924 0
M  V30 4427 H 411.117 4.93496 -6.03392 0
M  V30 4428 N 415.346 1.54954 0.287554 0
M  V30 4429 C 416.309 1.86076 1.33823 0
M  V30 4430 C 417.309 0.734414 1.43049 0
M  V30 4431 O 418.499 1.00266 1.42452 0
M  V30 4432 C 415.631 2.05305 2.72144 0
M  V30 4433 H 416.824 2.79984 1.07465 0
M  V30 4434 H 414.377 1.47223 0.524902 0
M  V30 4435 H 415.112 1.1373 3.03704 0
M  V30 4436 H 414.897 2.873 2.66836 0
M  V30 4437 H 416.387 2.30706 3.48087 0
M  V30 4438 N 416.824 -0.551391 1.4764 0
M  V30 4439 C 418.235 -1.13349 1.48354 0
M  V30 4440 C 418.586 -1.94709 0.241432 0
M  V30 4441 O 417.711 -2.06306 -0.653205 0
M  V30 4442 C 418.306 -2.0623 2.68802 0
M  V30 4443 C 416.865 -2.597 2.72457 0
M  V30 4444 C 416.012 -1.36201 2.41546 0
M  V30 4445 H 418.963 -0.337698 1.55065 0
M  V30 4446 H 418.984 -2.90196 2.46103 0
M  V30 4447 H 418.496 -1.46987 3.59188 0
M  V30 4448 H 416.597 -3.22724 1.86225 0
M  V30 4449 H 416.71 -3.00296 3.73308 0
M  V30 4450 H 415.074 -1.67068 1.9225 0
M  V30 4451 H 415.857 -0.787425 3.34147 0
M  V30 4452 N 418.302 -1.35869 -0.798587 0
M  V30 4453 C 419.212 -1.31578 -1.94228 0
M  V30 4454 C 420.228 -0.21939 -1.72611 0
M  V30 4455 O 421.404 -0.450167 -1.96305 0
M  V30 4456 C 418.469 -1.09528 -3.28944 0
M  V30 4457 C 417.53 -2.28556 -3.63402 0
M  V30 4458 C 416.763 -2.07549 -4.9169 0
M  V30 4459 O 416.986 -1.046 -5.60727 0
M  V30 4460 O 415.92 -2.95106 -5.24591 0
M  V30 4461 H 419.746 -2.27847 -2.00796 0
M  V30 4462 H 417.331 -1.16322 -0.937526 0
M  V30 4463 H 419.213 -0.991127 -4.09579 0
M  V30 4464 H 417.888 -0.16315 -3.23289 0
M  V30 4465 H 416.795 -2.44538 -2.83112 0
M  V30 4466 H 418.128 -3.20244 -3.73771 0
M  V30 4467 N 419.78 1.02168 -1.19998 0
M  V30 4468 C 421.008 1.79296 -1.03249 0
M  V30 4469 C 421.423 1.84103 0.418502 0
M  V30 4470 O 420.78 1.29031 1.29063 0
M  V30 4471 C 420.831 3.24007 -1.60319 0
M  V30 4472 O 420.552 3.19512 -2.99739 0
M  V30 4473 C 422.053 4.17704 -1.48453 0
M  V30 4474 H 419.273 0.564016 -0.363493 0
M  V30 4475 H 421.817 1.28639 -1.58973 0
M  V30 4476 H 419.972 3.7183 -1.08727 0
M  V30 4477 H 420.386 4.10306 -3.26725 0
M  V30 4478 H 421.86 5.17104 -1.93153 0
M  V30 4479 H 422.337 4.37029 -0.436193 0
M  V30 4480 H 422.943 3.7576 -1.99211 0
M  V30 4481 N 421.258 1.00505 1.21394 0
M  V30 4482 C 422.168 0.574806 2.27449 0
M  V30 4483 C 423.184 -0.382206 1.6975 0
M  V30 4484 O 424.36 -0.246027 1.99892 0
M  V30 4485 C 421.425 -0.0917414 3.46579 0
M  V30 4486 C 420.486 0.909758 4.1955 0
M  V30 4487 C 419.719 0.274924 5.32991 0
M  V30 4488 O 419.942 -0.928254 5.62796 0
M  V30 4489 O 418.876 0.985877 5.93771 0
M  V30 4490 H 422.702 1.45744 2.66444 0
M  V30 4491 H 420.287 0.773923 1.27792 0
M  V30 4492 H 422.169 -0.464551 4.18832 0
M  V30 4493 H 420.844 -0.948755 3.09484 0
M  V30 4494 H 419.751 1.33372 3.49518 0
M  V30 4495 H 421.084 1.73636 4.60555 0
M  V30 4496 N 422.737 -1.36956 0.779787 0
M  V30 4497 C 424.148 -1.82094 0.412156 0
M  V30 4498 C 424.499 -1.64926 -1.06273 0
M  V30 4499 O 423.624 -1.16483 -1.82375 0
M  V30 4500 C 424.219 -3.3059 0.741319 0
M  V30 4501 C 422.778 -3.73974 0.426641 0
M  V30 4502 C 421.925 -2.59368 0.980987 0
M  V30 4503 H 424.876 -1.25314 0.973758 0
M  V30 4504 H 424.897 -3.80489 0.028887 0
M  V30 4505 H 424.409 -3.43054 1.81482 0
M  V30 4506 H 422.51 -3.67076 -0.639215 0
M  V30 4507 H 422.623 -4.69778 0.940515 0
M  V30 4508 H 420.987 -2.51463 0.404757 0
M  V30 4509 H 421.77 -2.74621 2.06005 0
M  V30 4510 N 424.215 -0.530993 -1.48385 0
M  V30 4511 C 425.462 0.0027373 -2.025 0
M  V30 4512 C 425.79 1.34186 -1.40799 0
M  V30 4513 O 425.045 1.88 -0.543544 0
M  V30 4514 C 425.344 0.172742 -3.56982 0
M  V30 4515 C 425.01 -1.09215 -4.37473 0
M  V30 4516 C 423.672 -1.43881 -4.59186 0
M  V30 4517 C 426.024 -1.93153 -4.84088 0
M  V30 4518 C 423.352 -2.62381 -5.2476 0
M  V30 4519 C 425.704 -3.10833 -5.50968 0
M  V30 4520 C 424.368 -3.45843 -5.70919 0
M  V30 4521 H 423.638 0.00100165 -0.740999 0
M  V30 4522 H 426.285 -0.697219 -1.78357 0
M  V30 4523 H 424.59 0.955473 -3.79971 0
M  V30 4524 H 426.287 0.600642 -3.96476 0
M  V30 4525 H 422.877 -0.812177 -4.20834 0
M  V30 4526 H 427.061 -1.67683 -4.67115 0
M  V30 4527 H 422.317 -2.89707 -5.38405 0
M  V30 4528 H 426.491 -3.7618 -5.86056 0
M  V30 4529 H 424.118 -4.37764 -6.21503 0
M  V30 4530 N 425.693 1.55336 -0.266172 0
M  V30 4531 C 426.623 2.25146 0.618981 0
M  V30 4532 C 427.604 1.23845 1.16604 0
M  V30 4533 O 428.789 1.52544 1.20183 0
M  V30 4534 C 425.919 2.96572 1.80728 0
M  V30 4535 C 424.873 4.04726 1.39215 0
M  V30 4536 C 424.199 4.63678 2.66283 0
M  V30 4537 C 425.499 5.19407 0.548942 0
M  V30 4538 H 427.193 2.99377 0.0368116 0
M  V30 4539 H 424.739 1.43991 0.0162651 0
M  V30 4540 H 426.692 3.44116 2.43232 0
M  V30 4541 H 425.416 2.19861 2.41514 0
M  V30 4542 H 424.075 3.57979 0.790351 0
M  V30 4543 H 423.723 3.83646 3.25308 0
M  V30 4544 H 423.423 5.367 2.39222 0
M  V30 4545 H 424.947 5.13967 3.29651 0
M  V30 4546 H 426.361 5.63059 1.07876 0
M  V30 4547 H 424.758 5.98936 0.373593 0
M  V30 4548 H 425.828 4.8295 -0.434394 0
M  V30 4549 N 427.171 -0.0066808 1.57599 0
M  V30 4550 C 428.587 -0.36267 1.55425 0
M  V30 4551 C 428.787 -1.75209 0.995187 0
M  V30 4552 O 427.843 -2.44616 0.626058 0
M  V30 4553 C 429.156 -0.244017 2.99708 0
M  V30 4554 C 430.704 -0.319451 3.11366 0
M  V30 4555 C 431.179 -0.229998 4.57422 0
M  V30 4556 N 432.67 -0.288105 4.62303 0
M  V30 4557 C 433.405 -0.242127 5.72889 0
M  V30 4558 N 432.901 -0.147133 6.92644 0
M  V30 4559 N 434.694 -0.293502 5.61333 0
M  V30 4560 H 426.845 0.902314 1.92281 0
M  V30 4561 H 429.108 0.34525 0.882896 0
M  V30 4562 H 428.814 0.711678 3.44424 0
M  V30 4563 H 428.688 -1.02877 3.629 0
M  V30 4564 H 431.075 -1.26559 2.66584 0
M  V30 4565 H 431.156 0.495055 2.50964 0
M  V30 4566 H 430.8 0.712566 5.02877 0
M  V30 4567 H 430.73 -1.0629 5.15761 0
M  V30 4568 H 433.221 -0.363126 3.76151 0
M  V30 4569 H 433.534 -0.117763 7.7271 0
M  V30 4570 H 431.879 -0.112857 6.94908 0
M  V30 4571 H 435.07 -0.365864 4.66668 0
M  V30 4572 H 435.243 -0.254204 6.47501 0
M  V30 4573 N 428.649 -1.55105 -0.279332 0
M  V30 4574 C 429.581 -1.83952 -1.36727 0
M  V30 4575 C 430.594 -0.723642 -1.45833 0
M  V30 4576 O 431.783 -1.00141 -1.47763 0
M  V30 4577 C 428.883 -1.98183 -2.74912 0
M  V30 4578 C 428.056 -3.28787 -2.88475 0
M  V30 4579 C 427.115 -3.33162 -4.07295 0
M  V30 4580 O 426.141 -4.06576 -3.98353 0
M  V30 4581 N 427.343 -2.60109 -5.18964 0
M  V30 4582 H 430.108 -2.77853 -1.12328 0
M  V30 4583 H 427.669 -1.54945 -0.469442 0
M  V30 4584 H 429.661 -1.98488 -3.52682 0
M  V30 4585 H 428.231 -1.11177 -2.92162 0
M  V30 4586 H 427.451 -3.41075 -1.97641 0
M  V30 4587 H 428.739 -4.14933 -2.94463 0
M  V30 4588 H 428.137 -2.00136 -5.29115 0
M  V30 4589 H 426.694 -2.66143 -5.94988 0
M  V30 4590 N 430.127 0.543554 -1.4793 0
M  V30 4591 C 431.037 1.67657 -1.64098 0
M  V30 4592 C 432.053 1.65934 -0.523622 0
M  V30 4593 O 433.229 1.85133 -0.792943 0
M  V30 4594 C 430.294 3.04146 -1.66421 0
M  V30 4595 C 429.355 3.16831 -2.89684 0
M  V30 4596 C 428.588 4.46809 -2.91886 0
M  V30 4597 O 428.811 5.33095 -2.02895 0
M  V30 4598 O 427.745 4.63573 -3.83906 0
M  V30 4599 H 431.571 1.56957 -2.59997 0
M  V30 4600 H 429.156 0.715116 -1.31173 0
M  V30 4601 H 431.038 3.85346 -1.70548 0
M  V30 4602 H 429.713 3.152 -0.736923 0
M  V30 4603 H 428.62 2.34977 -2.91095 0
M  V30 4604 H 429.953 3.10687 -3.81752 0
M  V30 4605 N 431.605 1.3629 0.791371 0
M  V30 4606 C 432.853 1.30154 1.5461 0
M  V30 4607 C 433.174 -0.119409 1.94634 0
M  V30 4608 O 432.444 -1.05924 1.64794 0
M  V30 4609 H 431.024 0.478784 0.573389 0
M  V30 4610 H 433.686 1.70565 0.94306 0
M  V30 4611 H 432.782 1.92762 2.45457 0
M  V30 4612 N 433.083 -1.0153 1.20538 0
M  V30 4613 C 434.308 -1.79283 1.04271 0
M  V30 4614 C 434.733 -1.8372 -0.403544 0
M  V30 4615 O 434.091 -1.27321 -1.2907 0
M  V30 4616 C 434.139 -3.21535 1.63241 0
M  V30 4617 O 433.243 -4.03099 0.870908 0
M  V30 4618 H 432.584 -0.55293 0.367647 0
M  V30 4619 H 435.114 -1.27696 1.59859 0
M  V30 4620 H 435.124 -3.72243 1.6703 0
M  V30 4621 H 433.799 -3.1762 2.68497 0
M  V30 4622 H 432.376 -3.61693 0.907323 0
M  V30 4623 N 434.561 -1.01147 -1.20859 0
M  V30 4624 C 435.493 -0.535546 -2.22855 0
M  V30 4625 C 436.506 0.379323 -1.58319 0
M  V30 4626 O 437.695 0.178489 -1.77605 0
M  V30 4627 C 434.795 0.240962 -3.38042 0
M  V30 4628 C 433.968 -0.674562 -4.32167 0
M  V30 4629 C 433.027 0.053467 -5.26173 0
M  V30 4630 O 432.053 -0.567339 -5.66366 0
M  V30 4631 N 433.255 1.32997 -5.65059 0
M  V30 4632 H 436.02 -1.41268 -2.64317 0
M  V30 4633 H 433.581 -0.888386 -1.35349 0
M  V30 4634 H 435.573 0.737115 -3.97931 0
M  V30 4635 H 434.143 1.01935 -2.95513 0
M  V30 4636 H 433.363 -1.35111 -3.70322 0
M  V30 4637 H 434.651 -1.2974 -4.91981 0
M  V30 4638 H 434.049 1.85536 -5.34409 0
M  V30 4639 H 432.606 1.77095 -6.2728 0
M  V30 4640 N 436.039 1.36541 -0.78704 0
M  V30 4641 C 437.285 2.00044 -0.367938 0
M  V30 4642 C 437.64 1.61345 1.04812 0
M  V30 4643 O 436.933 0.856936 1.71368 0
M  V30 4644 C 437.127 3.54343 -0.466485 0
M  V30 4645 C 436.956 4.08029 -1.89058 0
M  V30 4646 C 435.726 4.38284 -2.51466 0
M  V30 4647 C 437.924 4.27954 -2.85236 0
M  V30 4648 N 435.906 4.77778 -3.85488 0
M  V30 4649 C 437.277 4.70227 -4.04088 0
M  V30 4650 C 439.332 4.10119 -2.82324 0
M  V30 4651 C 438.035 4.96532 -5.20432 0
M  V30 4652 C 440.061 4.37569 -3.97854 0
M  V30 4653 C 439.423 4.80095 -5.15449 0
M  V30 4654 H 435.522 0.760525 -0.182004 0
M  V30 4655 H 438.106 1.65589 -1.02413 0
M  V30 4656 H 436.277 3.88072 0.159606 0
M  V30 4657 H 438.009 4.04693 -0.0238577 0
M  V30 4658 H 434.764 4.27905 -2.02965 0
M  V30 4659 H 435.188 5.01813 -4.54437 0
M  V30 4660 H 439.83 3.76399 -1.92571 0
M  V30 4661 H 437.548 5.29134 -6.10773 0
M  V30 4662 H 441.134 4.25341 -3.96958 0
M  V30 4663 H 440.014 5.00925 -6.0336 0
M  V30 4664 N 437.518 0.538854 1.48102 0
M  V30 4665 C 438.934 0.19732 1.58376 0
M  V30 4666 C 439.134 -1.29971 1.5398 0
M  V30 4667 O 438.19 -2.07861 1.43352 0
M  V30 4668 C 439.503 0.807716 2.89649 0
M  V30 4669 C 441.051 0.77726 3.03196 0
M  V30 4670 C 441.526 1.36639 4.37143 0
M  V30 4671 N 443.017 1.32875 4.43732 0
M  V30 4672 C 443.752 1.7544 5.45901 0
M  V30 4673 N 443.248 2.25776 6.54979 0
M  V30 4674 N 445.041 1.66623 5.36836 0
M  V30 4675 H 437.192 1.5117 1.49202 0
M  V30 4676 H 439.455 0.629327 0.708979 0
M  V30 4677 H 439.161 1.85909 2.98548 0
M  V30 4678 H 439.035 0.289975 3.76084 0
M  V30 4679 H 441.422 -0.265374 2.93904 0
M  V30 4680 H 441.503 1.33256 2.18349 0
M  V30 4681 H 441.147 2.408 4.47189 0
M  V30 4682 H 441.077 0.786689 5.20691 0
M  V30 4683 H 443.568 0.96037 3.65493 0
M  V30 4684 H 443.881 2.56226 7.29087 0
M  V30 4685 H 442.226 2.29775 6.55918 0
M  V30 4686 H 445.417 1.27089 4.50517 0
M  V30 4687 H 445.59 2.00115 6.16326 0
M  V30 4688 N 438.996 -1.55193 0.274407 0
M  V30 4689 C 440.407 -1.85358 -0.223488 0
M  V30 4690 C 440.758 -1.19642 -1.555 0
M  V30 4691 O 439.883 -0.484498 -2.10907 0
M  V30 4692 C 440.478 -3.36282 -0.412285 0
M  V30 4693 C 439.037 -3.66574 -0.854413 0
M  V30 4694 C 438.184 -2.7725 0.0527056 0
M  V30 4695 H 441.135 -1.50743 0.496215 0
M  V30 4696 H 441.156 -3.59349 -1.25094 0
M  V30 4697 H 440.668 -3.84083 0.556965 0
M  V30 4698 H 438.769 -3.24273 -1.83516 0
M  V30 4699 H 438.882 -4.74073 -0.692226 0
M  V30 4700 H 437.246 -2.50447 -0.463484 0
M  V30 4701 H 438.029 -3.27865 1.01783 0
M  V30 4702 N 440.474 -0.00167713 -1.576 0
M  V30 4703 C 441.404 0.988091 -2.11563 0
M  V30 4704 C 442.385 1.35736 -1.02517 0
M  V30 4705 O 443.57 1.44082 -1.30208 0
M  V30 4706 C 440.7 2.27941 -2.62031 0
M  V30 4707 C 439.654 2.0517 -3.75619 0
M  V30 4708 C 438.98 3.4033 -4.12407 0
M  V30 4709 C 440.28 1.41294 -5.02825 0
M  V30 4710 H 441.974 0.538771 -2.94513 0
M  V30 4711 H 439.52 0.257712 -1.41675 0
M  V30 4712 H 441.473 2.97539 -2.9841 0
M  V30 4713 H 440.197 2.74989 -1.76205 0
M  V30 4714 H 438.856 1.37998 -3.39635 0
M  V30 4715 H 438.504 3.85085 -3.23603 0
M  V30 4716 H 438.204 3.25909 -4.88935 0
M  V30 4717 H 439.728 4.1124 -4.51347 0
M  V30 4718 H 441.142 2.00851 -5.36965 0
M  V30 4719 H 439.539 1.37356 -5.84169 0
M  V30 4720 H 440.609 0.382362 -4.8339 0
M  V30 4721 N 441.952 1.55251 0.271103 0
M  V30 4722 C 442.882 1.9127 1.33933 0
M  V30 4723 C 443.863 0.77478 1.5143 0
M  V30 4724 O 445.048 1.03307 1.64442 0
M  V30 4725 C 442.178 2.18627 2.69851 0
M  V30 4726 C 441.132 3.34442 2.67081 0
M  V30 4727 C 440.458 3.47284 4.06569 0
M  V30 4728 C 441.758 4.70784 2.26185 0
M  V30 4729 H 443.452 2.80744 1.04035 0
M  V30 4730 H 440.998 1.35077 0.499017 0
M  V30 4731 H 442.951 2.42413 3.44694 0
M  V30 4732 H 441.675 1.25955 3.01335 0
M  V30 4733 H 440.334 3.10627 1.94695 0
M  V30 4734 H 439.982 2.52074 4.35279 0
M  V30 4735 H 439.682 4.25152 4.0561 0
M  V30 4736 H 441.206 3.73363 4.83148 0
M  V30 4737 H 442.62 4.94102 2.90751 0
M  V30 4738 H 441.017 5.51582 2.36384 0
M  V30 4739 H 442.087 4.69478 1.21319 0
M  V30 4740 N 443.43 -0.535701 1.48216 0
M  V30 4741 C 444.377 -1.64083 1.62312 0
M  V30 4742 C 445.347 -1.59448 0.465365 0
M  V30 4743 O 446.532 -1.77959 0.688135 0
M  V30 4744 C 443.672 -3.0236 1.66349 0
M  V30 4745 C 442.785 -3.17273 2.93193 0
M  V30 4746 C 441.92 -4.46075 2.88427 0
M  V30 4747 C 440.959 -4.54496 4.1 0
M  V30 4748 N 440.096 -5.7468 4.03345 0
M  V30 4749 H 444.936 -1.51374 2.5669 0
M  V30 4750 H 442.473 -0.737059 1.27302 0
M  V30 4751 H 444.431 -3.82461 1.66672 0
M  V30 4752 H 443.061 -3.13854 0.754672 0
M  V30 4753 H 442.113 -2.30462 3.02641 0
M  V30 4754 H 443.425 -3.19357 3.83162 0
M  V30 4755 H 442.579 -5.3446 2.87119 0
M  V30 4756 H 441.318 -4.46504 1.96177 0
M  V30 4757 H 440.323 -3.64519 4.11589 0
M  V30 4758 H 441.548 -4.5581 5.03402 0
M  V30 4759 H 439.494 -5.76017 3.13912 0
M  V30 4760 H 439.411 -5.78234 4.87013 0
M  V30 4761 H 440.679 -6.65367 4.06087 0
M  V30 4762 N 444.908 -1.36708 -0.784132 0
M  V30 4763 C 445.871 -1.31307 -1.87859 0
M  V30 4764 C 446.871 -0.219654 -1.59293 0
M  V30 4765 O 448.061 -0.47476 -1.67606 0
M  V30 4766 C 445.193 -1.03679 -3.24751 0
M  V30 4767 H 446.386 -2.28647 -1.94064 0
M  V30 4768 H 443.939 -1.21558 -0.98252 0
M  V30 4769 H 444.674 -0.0681936 -3.24228 0
M  V30 4770 H 444.459 -1.82811 -3.46876 0
M  V30 4771 H 445.949 -1.02518 -4.04821 0
M  V30 4772 N 446.386 1.0089 -1.21074 0
M  V30 4773 C 447.635 1.74019 -1.01981 0
M  V30 4774 C 447.948 1.90408 0.447665 0
M  V30 4775 O 449.154 2.60707 0.757906 0
M  V30 4776 C 447.61 3.13026 -1.77603 0
M  V30 4777 C 447.218 3.04623 -3.28495 0
M  V30 4778 C 448.962 3.90312 -1.66904 0
M  V30 4779 C 446.869 4.38685 -3.96623 0
M  V30 4780 H 445.799 0.652422 -0.377971 0
M  V30 4781 H 448.45 1.12755 -1.44771 0
M  V30 4782 H 446.832 3.74878 -1.27604 0
M  V30 4783 H 448.006 2.52032 -3.85767 0
M  V30 4784 H 446.321 2.40827 -3.39693 0
M  V30 4785 H 448.918 4.8951 -2.15138 0
M  V30 4786 H 449.261 4.11558 -0.62658 0
M  V30 4787 H 449.794 3.35104 -2.14359 0
M  V30 4788 H 446.533 4.22641 -5.01054 0
M  V30 4789 H 446.053 4.91252 -3.4414 0
M  V30 4790 H 447.732 5.075 -4.01314 0
M  V30 4791 N 447.864 1.01787 1.20321 0
M  V30 4792 C 449.11 0.718699 1.90279 0
M  V30 4793 C 449.465 -0.743669 1.77447 0
M  V30 4794 O 448.758 -1.53345 1.14874 0
M  V30 4795 C 448.952 1.09076 3.40349 0
M  V30 4796 C 448.781 2.58775 3.67784 0
M  V30 4797 C 447.551 3.25578 3.86428 0
M  V30 4798 C 449.749 3.56966 3.70243 0
M  V30 4799 N 447.731 4.64495 4.01395 0
M  V30 4800 C 449.102 4.8145 3.90649 0
M  V30 4801 C 451.157 3.5092 3.53213 0
M  V30 4802 C 449.86 6.00619 3.95789 0
M  V30 4803 C 451.886 4.69493 3.59625 0
M  V30 4804 C 451.248 5.92786 3.80505 0
M  V30 4805 H 447.347 0.31468 0.715891 0
M  V30 4806 H 449.931 1.30295 1.44677 0
M  V30 4807 H 448.102 0.534839 3.847 0
M  V30 4808 H 449.834 0.744997 3.97784 0
M  V30 4809 H 446.589 2.76003 3.84862 0
M  V30 4810 H 447.013 5.36624 4.12752 0
M  V30 4811 H 451.655 2.56593 3.36035 0
M  V30 4812 H 449.373 6.95326 4.11762 0
M  V30 4813 H 452.959 4.66432 3.47754 0
M  V30 4814 H 451.839 6.83003 3.85327 0
M  V30 4815 N 449.342 -1.36122 0.79427 0
M  V30 4816 C 450.274 -2.28683 0.153903 0
M  V30 4817 C 451.287 -1.49707 -0.639669 0
M  V30 4818 O 452.476 -1.7209 -0.474054 0
M  V30 4819 C 449.576 -3.29202 -0.804921 0
M  V30 4820 C 448.749 -4.37358 -0.060366 0
M  V30 4821 C 447.808 -5.17811 -0.935849 0
M  V30 4822 O 446.834 -5.67853 -0.391309 0
M  V30 4823 N 448.036 -5.34721 -2.25951 0
M  V30 4824 H 450.801 -2.84278 0.949008 0
M  V30 4825 H 448.362 -1.4834 0.648611 0
M  V30 4826 H 450.354 -3.79914 -1.39455 0
M  V30 4827 H 448.924 -2.74212 -1.50088 0
M  V30 4828 H 448.144 -3.87746 0.710382 0
M  V30 4829 H 449.432 -5.06777 0.45324 0
M  V30 4830 H 448.83 -4.95687 -2.72601 0
M  V30 4831 H 447.387 -5.88657 -2.79867 0
M  V30 4832 N 450.82 -0.546701 -1.47814 0
M  V30 4833 C 452.066 -0.0187684 -2.02791 0
M  V30 4834 C 452.399 1.32338 -1.42128 0
M  V30 4835 O 451.674 1.85867 -0.573023 0
M  V30 4836 C 451.957 0.0854985 -3.59998 0
M  V30 4837 C 451.81 -1.283 -4.31114 0
M  V30 4838 C 453.129 0.80412 -4.32691 0
M  V30 4839 H 450.248 -0.0082946 -0.736953 0
M  V30 4840 H 452.89 -0.706962 -1.76358 0
M  V30 4841 H 451.04 0.671609 -3.82651 0
M  V30 4842 H 452.712 -1.91151 -4.19832 0
M  V30 4843 H 450.955 -1.86049 -3.91878 0
M  V30 4844 H 451.626 -1.16287 -5.39612 0
M  V30 4845 H 454.102 0.306576 -4.14969 0
M  V30 4846 H 452.978 0.846011 -5.42341 0
M  V30 4847 H 453.239 1.85802 -4.01161 0
M  V30 4848 N 452.299 1.55045 -0.282633 0
M  V30 4849 C 453.546 1.9976 0.33199 0
M  V30 4850 C 453.874 1.17105 1.55295 0
M  V30 4851 O 453.129 0.230599 1.94337 0
M  V30 4852 C 453.428 3.49422 0.750938 0
M  V30 4853 C 453.094 4.4941 -0.366228 0
M  V30 4854 C 451.756 4.76471 -0.672964 0
M  V30 4855 C 454.108 5.09054 -1.11864 0
M  V30 4856 C 451.436 5.60442 -1.73556 0
M  V30 4857 C 453.788 5.9418 -2.17102 0
M  V30 4858 C 452.452 6.19558 -2.48402 0
M  V30 4859 H 451.722 0.730974 0.121484 0
M  V30 4860 H 454.369 1.8732 -0.39791 0
M  V30 4861 H 452.674 3.59377 1.56063 0
M  V30 4862 H 454.371 3.81432 1.23736 0
M  V30 4863 H 450.961 4.2844 -0.117041 0
M  V30 4864 H 455.145 4.88165 -0.894925 0
M  V30 4865 H 450.401 5.78349 -1.983 0
M  V30 4866 H 454.575 6.39427 -2.75873 0
M  V30 4867 H 452.202 6.84417 -3.30874 0
M  V30 4868 N 453.777 0.010035 1.57597 0
M  V30 4869 C 454.727 -0.986858 2.05536 0
M  V30 4870 C 455.711 -1.29711 0.952042 0
M  V30 4871 O 456.903 -1.28641 1.21575 0
M  V30 4872 C 454.032 -2.2756 2.57043 0
M  V30 4873 C 453.118 -1.99455 3.74271 0
M  V30 4874 N 453.509 -1.41546 4.85591 0
M  V30 4875 C 451.807 -2.29547 3.82393 0
M  V30 4876 C 452.508 -1.3014 5.66956 0
M  V30 4877 N 451.484 -1.79044 5.13268 0
M  V30 4878 H 455.286 -0.533778 2.89012 0
M  V30 4879 H 452.8 -0.195432 1.6122 0
M  V30 4880 H 454.797 -2.99829 2.89669 0
M  V30 4881 H 453.457 -2.73512 1.7499 0
M  V30 4882 H 454.468 -1.09294 5.06236 0
M  V30 4883 H 451.145 -2.78304 3.11213 0
M  V30 4884 H 452.535 -0.855237 6.66435 0
M  V30 4885 N 455.255 -1.55392 -0.262866 0
M  V30 4886 C 456.48 -1.80847 -1.01533 0
M  V30 4887 C 456.905 -0.584946 -1.78774 0
M  V30 4888 O 456.263 0.465701 -1.75217 0
M  V30 4889 C 456.311 -3.03866 -1.94159 0
M  V30 4890 O 455.415 -2.79662 -3.03089 0
M  V30 4891 H 454.756 -0.597441 -0.289759 0
M  V30 4892 H 457.286 -2.02553 -0.288698 0
M  V30 4893 H 457.296 -3.32872 -2.35924 0
M  V30 4894 H 455.971 -3.92564 -1.37354 0
M  V30 4895 H 454.548 -2.61781 -2.65566 0
M  V30 4896 N 456.733 0.527833 -1.48498 0
M  V30 4897 C 457.961 1.30823 -1.6029 0
M  V30 4898 C 458.376 1.86945 -0.263974 0
M  V30 4899 O 457.733 1.6651 0.747034 0
M  V30 4900 C 457.784 2.45756 -2.65116 0
M  V30 4901 O 457.505 1.91946 -3.93813 0
M  V30 4902 C 459.006 3.37543 -2.87367 0
M  V30 4903 H 456.226 0.397763 -0.540394 0
M  V30 4904 H 458.77 0.636529 -1.94341 0
M  V30 4905 H 456.925 3.08806 -2.33917 0
M  V30 4906 H 457.339 2.67195 -4.51339 0
M  V30 4907 H 458.813 4.14532 -3.6451 0
M  V30 4908 H 459.29 3.92905 -1.9627 0
M  V30 4909 H 459.896 2.80283 -3.19878 0
M  V30 4910 N 458.211 1.37122 0.776871 0
M  V30 4911 C 459.458 1.32047 1.53524 0
M  V30 4912 C 459.786 -0.0965631 1.9426 0
M  V30 4913 O 459.041 -1.06866 1.63945 0
M  V30 4914 C 459.34 2.20068 2.81611 0
M  V30 4915 C 459.006 3.68423 2.59953 0
M  V30 4916 C 457.668 4.08854 2.53755 0
M  V30 4917 C 460.02 4.62431 2.40431 0
M  V30 4918 C 457.348 5.41417 2.26018 0
M  V30 4919 C 459.7 5.95225 2.14219 0
M  V30 4920 C 458.364 6.34767 2.06462 0
M  V30 4921 H 457.634 0.483196 0.561785 0
M  V30 4922 H 460.281 1.69284 0.895268 0
M  V30 4923 H 458.586 1.75809 3.50141 0
M  V30 4924 H 460.283 2.13458 3.39465 0
M  V30 4925 H 456.873 3.36354 2.65638 0
M  V30 4926 H 461.057 4.32057 2.44213 0
M  V30 4927 H 456.313 5.71022 2.18504 0
M  V30 4928 H 460.487 6.67626 1.98112 0
M  V30 4929 H 458.114 7.37413 1.84733 0
M  V30 4930 N 459.689 -1.00246 1.21608 0
M  V30 4931 C 460.619 -2.10921 1.00172 0
M  V30 4932 C 461.6 -1.69938 -0.0741587 0
M  V30 4933 O 462.785 -1.94009 0.0861753 0
M  V30 4934 C 459.915 -3.42618 0.568355 0
M  V30 4935 C 458.869 -3.97407 1.58909 0
M  V30 4936 C 458.195 -5.25038 1.01187 0
M  V30 4937 C 459.495 -4.2918 2.97661 0
M  V30 4938 H 461.189 -2.29112 1.92739 0
M  V30 4939 H 458.735 -1.10101 0.928102 0
M  V30 4940 H 460.688 -4.19444 0.405555 0
M  V30 4941 H 459.412 -3.24227 -0.392961 0
M  V30 4942 H 458.071 -3.22703 1.73949 0
M  V30 4943 H 457.719 -5.02982 0.0421965 0
M  V30 4944 H 457.419 -5.62661 1.6937 0
M  V30 4945 H 458.943 -6.04507 0.860448 0
M  V30 4946 H 460.357 -4.96839 2.86049 0
M  V30 4947 H 458.754 -4.77952 3.6288 0
M  V30 4948 H 459.824 -3.3735 3.48315 0
M  V30 4949 N 461.167 -1.02423 -1.1978 0
M  V30 4950 C 462.097 -0.62157 -2.25075 0
M  V30 4951 C 463.078 0.367148 -1.6609 0
M  V30 4952 O 464.263 0.250892 -1.92573 0
M  V30 4953 C 461.393 0.0331826 -3.47284 0
M  V30 4954 C 460.347 -0.877323 -4.18912 0
M  V30 4955 C 459.673 -0.0879296 -5.34628 0
M  V30 4956 C 460.973 -2.18892 -4.74219 0
M  V30 4957 H 462.667 -1.50179 -2.59011 0
M  V30 4958 H 460.213 -0.723547 -1.24502 0
M  V30 4959 H 462.166 0.326488 -4.20133 0
M  V30 4960 H 460.89 0.948164 -3.12534 0
M  V30 4961 H 459.549 -1.15475 -3.47938 0
M  V30 4962 H 459.197 0.828941 -4.96123 0
M  V30 4963 H 458.897 -0.694359 -5.83483 0
M  V30 4964 H 460.421 0.198743 -6.10276 0
M  V30 4965 H 461.835 -1.95746 -5.38847 0
M  V30 4966 H 460.232 -2.74686 -5.33542 0
M  V30 4967 H 461.302 -2.84674 -3.92541 0
M  V30 4968 N 462.645 1.35699 -0.801477 0
M  V30 4969 C 463.893 1.9852 -0.37871 0
M  V30 4970 C 464.214 1.63907 1.05638 0
M  V30 4971 O 463.484 0.919013 1.73006 0
M  V30 4972 H 462.064 0.734322 -0.137042 0
M  V30 4973 H 464.726 1.65697 -1.02619 0
M  V30 4974 H 463.822 3.08382 -0.480284 0
M  V30 4975 N 464.123 0.554532 1.47522 0
M  V30 4976 C 465.351 0.034257 2.06872 0
M  V30 4977 C 465.766 -1.25826 1.40759 0
M  V30 4978 O 465.123 -1.75425 0.503217 0
M  V30 4979 C 465.174 -0.167827 3.6111 0
M  V30 4980 O 464.895 1.07351 4.24744 0
M  V30 4981 C 466.396 -0.72569 4.3732 0
M  V30 4982 H 463.616 0.0446275 0.669514 0
M  V30 4983 H 466.16 0.767181 1.89564 0
M  V30 4984 H 464.315 -0.850872 3.7794 0
M  V30 4985 H 464.729 0.869563 5.17242 0
M  V30 4986 H 466.203 -0.816394 5.45929 0
M  V30 4987 H 466.68 -1.73635 4.0342 0
M  V30 4988 H 467.286 -0.0784292 4.25228 0
M  V30 4989 N 465.601 -1.54893 0.290851 0
M  V30 4990 C 466.531 -2.26103 -0.583084 0
M  V30 4991 C 467.512 -1.25684 -1.14619 0
M  V30 4992 O 468.697 -1.54436 -1.17741 0
M  V30 4993 C 465.827 -2.99409 -1.75987 0
M  V30 4994 C 464.781 -4.0689 -1.32758 0
M  V30 4995 C 464.107 -4.67856 -2.58872 0
M  V30 4996 C 465.407 -5.20215 -0.46624 0
M  V30 4997 H 467.101 -2.99398 0.0108214 0
M  V30 4998 H 464.647 -1.43998 0.00664468 0
M  V30 4999 H 466.6 -3.47943 -2.37727 0
M  V30 5000 H 465.324 -2.23675 -2.37985 0
M  V30 5001 H 463.983 -3.59191 -0.733299 0
M  V30 5002 H 463.631 -3.88772 -3.19163 0
M  V30 5003 H 463.331 -5.40438 -2.30653 0
M  V30 5004 H 464.855 -5.19147 -3.21433 0
M  V30 5005 H 466.269 -5.64704 -0.989047 0
M  V30 5006 H 464.666 -5.99455 -0.27826 0
M  V30 5007 H 465.736 -4.82198 0.511173 0
M  V30 5008 N 467.08 -0.0183926 -1.57589 0
M  V30 5009 C 468.305 0.676634 -1.96052 0
M  V30 5010 C 468.73 1.6548 -0.894307 0
M  V30 5011 O 468.088 1.80712 0.145849 0
M  V30 5012 C 468.136 1.36872 -3.33614 0
M  V30 5013 O 467.24 2.48372 -3.29219 0
M  V30 5014 H 466.581 0.1786 -0.63953 0
M  V30 5015 H 469.111 -0.077056 -2.04455 0
M  V30 5016 H 469.121 1.72797 -3.69601 0
M  V30 5017 H 467.796 0.651636 -4.10763 0
M  V30 5018 H 466.373 2.14639 -3.04934 0
M  V30 5019 N 468.558 1.5553 0.254621 0
M  V30 5020 C 469.488 1.9268 1.31897 0
M  V30 5021 C 470.469 0.790797 1.506 0
M  V30 5022 O 471.654 1.05045 1.63337 0
M  V30 5023 C 468.784 2.21477 2.67517 0
M  V30 5024 C 467.738 3.37256 2.63519 0
M  V30 5025 C 467.064 3.51576 4.02862 0
M  V30 5026 C 468.364 4.73157 2.21179 0
M  V30 5027 H 470.058 2.81832 1.01051 0
M  V30 5028 H 467.604 1.35599 0.484662 0
M  V30 5029 H 469.557 2.46055 3.42104 0
M  V30 5030 H 468.281 1.29144 2.99982 0
M  V30 5031 H 466.94 3.12675 1.9139 0
M  V30 5032 H 466.588 2.56676 4.32581 0
M  V30 5033 H 466.288 4.2943 4.01078 0
M  V30 5034 H 467.812 3.78467 4.79161 0
M  V30 5035 H 469.226 4.97158 2.85494 0
M  V30 5036 H 467.623 5.54058 2.30521 0
M  V30 5037 H 468.693 4.70739 1.16332 0
M  V30 5038 N 470.036 -0.519951 1.48776 0
M  V30 5039 C 471.285 -1.27175 1.56555 0
M  V30 5040 C 471.598 -1.9401 0.248869 0
M  V30 5041 O 472.804 -2.70725 0.205004 0
M  V30 5042 C 471.26 -2.30811 2.76142 0
M  V30 5043 C 470.868 -1.7 4.14493 0
M  V30 5044 C 472.612 -3.06937 2.9324 0
M  V30 5045 C 470.519 -2.71635 5.25327 0
M  V30 5046 H 469.449 -0.478329 0.582853 0
M  V30 5047 H 472.1 -0.547916 1.75129 0
M  V30 5048 H 470.482 -3.06274 2.51023 0
M  V30 5049 H 471.656 -1.00658 4.49672 0
M  V30 5050 H 469.971 -1.06331 4.02595 0
M  V30 5051 H 472.568 -3.82905 3.73213 0
M  V30 5052 H 472.911 -3.63409 2.03075 0
M  V30 5053 H 473.444 -2.38589 3.18308 0
M  V30 5054 H 470.183 -2.1997 6.1749 0
M  V30 5055 H 469.703 -3.39275 4.94624 0
M  V30 5056 H 471.382 -3.34429 5.53865 0
M  V30 5057 N 471.514 -1.37532 -0.769588 0
M  V30 5058 C 472.763 -1.32183 -1.5235 0
M  V30 5059 C 473.076 0.0906555 -1.9539 0
M  V30 5060 O 474.282 0.266628 -2.70188 0
M  V30 5061 C 472.738 -2.32029 -2.75119 0
M  V30 5062 C 472.346 -3.78816 -2.3917 0
M  V30 5063 C 474.09 -2.35694 -3.53056 0
M  V30 5064 C 471.997 -4.70388 -3.58453 0
M  V30 5065 H 470.927 -0.491275 -0.571984 0
M  V30 5066 H 473.578 -1.63004 -0.842739 0
M  V30 5067 H 471.96 -1.94229 -3.45096 0
M  V30 5068 H 473.134 -4.25466 -1.76962 0
M  V30 5069 H 471.449 -3.78117 -1.74402 0
M  V30 5070 H 474.046 -3.01312 -4.41718 0
M  V30 5071 H 474.389 -1.37117 -3.93071 0
M  V30 5072 H 474.922 -2.72212 -2.90078 0
M  V30 5073 H 471.661 -5.70102 -3.23518 0
M  V30 5074 H 471.181 -4.28442 -4.19758 0
M  V30 5075 H 472.86 -4.87628 -4.25239 0
M  V30 5076 N 472.992 0.995999 -1.22138 0
M  V30 5077 C 474.217 1.77601 -1.0711 0
M  V30 5078 C 474.642 1.84339 0.374264 0
M  V30 5079 O 474 1.29359 1.27028 0
M  V30 5080 C 474.048 3.18897 -1.68336 0
M  V30 5081 O 473.152 4.01663 -0.934928 0
M  V30 5082 H 472.493 0.547011 -0.376397 0
M  V30 5083 H 475.023 1.25137 -1.6187 0
M  V30 5084 H 475.033 3.69539 -1.72931 0
M  V30 5085 H 473.708 3.13308 -2.73516 0
M  V30 5086 H 472.285 3.60204 -0.964751 0
M  V30 5087 N 474.47 1.03057 1.19235 0
M  V30 5088 C 475.747 0.642608 1.84743 0
M  V30 5089 C 476.127 -0.878577 1.91948 0
M  V30 5090 O 475.475 -1.77597 1.43776 0
M  V30 5091 C 475.685 1.30665 3.23616 0
M  V30 5092 C 477.033 1.43098 3.9976 0
M  V30 5093 O 478.057 1.26396 3.3302 0
M  V30 5094 O 476.916 1.70223 5.19313 0
M  V30 5095 H 474.01 0.223573 0.796206 0
M  V30 5096 H 476.556 1.12883 1.26711 0
M  V30 5097 H 475.328 2.34544 3.13217 0
M  V30 5098 H 474.951 0.808405 3.89295 0
M  V30 5099 N 475.948 -1.35272 0.808662 0
M  V30 5100 C 477.194 -1.99003 0.390581 0
M  V30 5101 C 477.527 -1.63999 -1.0401 0
M  V30 5102 O 476.802 -0.904368 -1.72196 0
M  V30 5103 C 477.085 -3.55454 0.576566 0
M  V30 5104 C 476.938 -4.00249 2.05233 0
M  V30 5105 C 478.257 -4.401 0.00354277 0
M  V30 5106 H 475.376 -0.722917 0.143388 0
M  V30 5107 H 478.018 -1.6039 1.01858 0
M  V30 5108 H 476.168 -3.88477 0.0419766 0
M  V30 5109 H 477.84 -3.77626 2.64946 0
M  V30 5110 H 476.083 -3.51082 2.54801 0
M  V30 5111 H 476.754 -5.0911 2.13333 0
M  V30 5112 H 479.23 -4.13548 0.460117 0
M  V30 5113 H 478.106 -5.48656 0.163575 0
M  V30 5114 H 478.367 -4.28444 -1.09032 0
M  V30 5115 N 477.426 -0.562348 -1.47226 0
M  V30 5116 C 478.673 -0.0402165 -2.0246 0
M  V30 5117 C 479.001 1.31169 -1.43614 0
M  V30 5118 O 478.256 1.86805 -0.5833 0
M  V30 5119 C 478.555 0.0969817 -3.57268 0
M  V30 5120 C 478.221 -1.1847 -4.35058 0
M  V30 5121 C 476.883 -1.53588 -4.56031 0
M  V30 5122 C 479.235 -2.03378 -4.79882 0
M  V30 5123 C 476.563 -2.73452 -5.19077 0
M  V30 5124 C 478.915 -3.2245 -5.44251 0
M  V30 5125 C 477.579 -3.57876 -5.63455 0
M  V30 5126 H 476.849 -0.0147163 -0.740854 0
M  V30 5127 H 479.496 -0.734895 -1.76838 0
M  V30 5128 H 477.801 0.87466 -3.81912 0
M  V30 5129 H 479.498 0.516408 -3.97661 0
M  V30 5130 H 476.088 -0.90126 -4.19017 0
M  V30 5131 H 480.272 -1.77553 -4.63453 0
M  V30 5132 H 475.528 -3.01062 -5.32139 0
M  V30 5133 H 479.702 -3.88526 -5.77945 0
M  V30 5134 H 477.329 -4.50849 -6.12078 0
M  V30 5135 N 478.904 1.54736 -0.299062 0
M  V30 5136 C 480.32 1.59507 0.0543849 0
M  V30 5137 C 480.52 1.31606 1.52585 0
M  V30 5138 O 479.576 1.08853 2.27832 0
M  V30 5139 C 480.889 2.98751 -0.34181 0
M  V30 5140 C 482.437 3.1165 -0.290414 0
M  V30 5141 C 482.912 4.53199 -0.661402 0
M  V30 5142 N 484.403 4.59114 -0.613863 0
M  V30 5143 C 485.138 5.66709 -0.873417 0
M  V30 5144 N 484.634 6.82349 -1.19884 0
M  V30 5145 N 486.427 5.56369 -0.800608 0
M  V30 5146 H 478.578 1.71133 -1.25806 0
M  V30 5147 H 480.841 0.799186 -0.509908 0
M  V30 5148 H 480.547 3.24085 -1.36608 0
M  V30 5149 H 480.421 3.75961 0.305508 0
M  V30 5150 H 482.808 2.86066 0.724605 0
M  V30 5151 H 482.889 2.366 -0.972327 0
M  V30 5152 H 482.533 4.79513 -1.67422 0
M  V30 5153 H 482.463 5.26583 0.0425612 0
M  V30 5154 H 484.954 3.76053 -0.3732 0
M  V30 5155 H 485.267 7.60326 -1.38291 0
M  V30 5156 H 483.612 6.83906 -1.23685 0
M  V30 5157 H 486.803 4.64904 -0.546045 0
M  V30 5158 H 486.976 6.40139 -1.00626 0
M  V30 5159 N 480.382 0.0267497 1.57577 0
M  V30 5160 C 481.629 -0.652404 1.91703 0
M  V30 5161 C 481.957 -1.72271 0.902936 0
M  V30 5162 O 481.212 -1.955 -0.0884843 0
M  V30 5163 C 481.511 -1.30914 3.3256 0
M  V30 5164 C 481.177 -0.369441 4.49384 0
M  V30 5165 C 479.839 -0.110791 4.81072 0
M  V30 5166 C 482.191 0.275971 5.20469 0
M  V30 5167 C 479.519 0.801116 5.81205 0
M  V30 5168 C 481.871 1.17592 6.21575 0
M  V30 5169 C 480.535 1.44348 6.51705 0
M  V30 5170 H 479.805 -0.238732 0.70149 0
M  V30 5171 H 482.452 0.0880091 1.91298 0
M  V30 5172 H 480.757 -2.12425 3.29216 0
M  V30 5173 H 482.454 -1.84115 3.56234 0
M  V30 5174 H 479.044 -0.581211 4.24641 0
M  V30 5175 H 483.228 0.0892 4.9622 0
M  V30 5176 H 478.484 1.01614 6.02897 0
M  V30 5177 H 482.658 1.68223 6.75777 0
M  V30 5178 H 480.285 2.15176 7.29111 0
M  V30 5179 N 481.861 -1.55662 -0.24637 0
M  V30 5180 C 483.089 -1.81575 -0.991876 0
M  V30 5181 C 483.504 -0.602545 -1.78927 0
M  V30 5182 O 482.861 0.428795 -1.77391 0
M  V30 5183 C 482.912 -3.05711 -1.92933 0
M  V30 5184 O 482.633 -4.22348 -1.1642 0
M  V30 5185 C 484.134 -3.44428 -2.79078 0
M  V30 5186 H 481.354 -0.604209 -0.291844 0
M  V30 5187 H 483.898 -2.02722 -0.269095 0
M  V30 5188 H 482.053 -2.86612 -2.60638 0
M  V30 5189 H 482.467 -4.92706 -1.79835 0
M  V30 5190 H 483.941 -4.34388 -3.40603 0
M  V30 5191 H 484.418 -2.65037 -3.50217 0
M  V30 5192 H 485.024 -3.65879 -2.16824 0
M  V30 5193 N 483.339 0.512053 -1.4905 0
M  V30 5194 C 484.585 1.26874 -1.58212 0
M  V30 5195 C 484.918 1.9241 -0.263073 0
M  V30 5196 O 484.193 1.80181 0.732476 0
M  V30 5197 C 484.476 2.34428 -2.73341 0
M  V30 5198 C 484.329 1.73466 -4.15006 0
M  V30 5199 C 485.648 3.36073 -2.84154 0
M  V30 5200 H 482.767 0.459924 -0.575881 0
M  V30 5201 H 485.409 0.568587 -1.81293 0
M  V30 5202 H 483.559 2.94146 -2.53792 0
M  V30 5203 H 485.231 1.17661 -4.46042 0
M  V30 5204 H 483.474 1.03921 -4.21168 0
M  V30 5205 H 484.145 2.51426 -4.91415 0
M  V30 5206 H 486.621 2.86332 -3.01916 0
M  V30 5207 H 485.497 4.08703 -3.66406 0
M  V30 5208 H 485.758 3.97725 -1.93048 0
M  V30 5209 N 484.817 1.37938 0.762283 0
M  V30 5210 C 486.228 1.30094 1.33912 0
M  V30 5211 C 486.579 -0.0472026 1.96143 0
M  V30 5212 O 485.704 -0.94917 1.94473 0
M  V30 5213 C 486.299 2.35592 2.43478 0
M  V30 5214 C 484.858 2.31353 2.96905 0
M  V30 5215 C 484.005 2.18919 1.70205 0
M  V30 5216 H 486.956 1.48423 0.561816 0
M  V30 5217 H 486.977 2.00806 3.23199 0
M  V30 5218 H 486.489 3.33701 1.98155 0
M  V30 5219 H 484.59 1.36799 3.46579 0
M  V30 5220 H 484.703 3.25147 3.51875 0
M  V30 5221 H 483.067 1.65624 1.93496 0
M  V30 5222 H 483.85 3.18956 1.26973 0
M  V30 5223 N 486.295 -0.989507 1.22664 0
M  V30 5224 C 487.242 -2.08024 0.999733 0
M  V30 5225 C 488.212 -1.65909 -0.0797047 0
M  V30 5226 O 489.397 -1.90669 0.0705715 0
M  V30 5227 C 486.537 -3.40067 0.587234 0
M  V30 5228 C 485.65 -3.95505 1.73781 0
M  V30 5229 C 484.785 -5.15722 1.27297 0
M  V30 5230 C 483.824 -5.63305 2.39488 0
M  V30 5231 N 482.961 -6.74758 1.94026 0
M  V30 5232 H 487.801 -2.26768 1.9334 0
M  V30 5233 H 485.338 -1.11171 0.963297 0
M  V30 5234 H 487.296 -4.15899 0.329227 0
M  V30 5235 H 485.926 -3.21314 -0.309426 0
M  V30 5236 H 484.978 -3.16513 2.11006 0
M  V30 5237 H 486.29 -4.26797 2.58158 0
M  V30 5238 H 485.444 -5.98854 0.972546 0
M  V30 5239 H 484.183 -4.86061 0.399445 0
M  V30 5240 H 483.188 -4.78759 2.70315 0
M  V30 5241 H 484.413 -5.94988 3.27362 0
M  V30 5242 H 482.359 -6.46874 1.09041 0
M  V30 5243 H 482.276 -7.05386 2.71968 0
M  V30 5244 H 483.544 -7.61387 1.67062 0
M  V30 5245 N 487.773 -1.03688 -1.18687 0
M  V30 5246 C 488.703 -0.645407 -2.24403 0
M  V30 5247 C 489.684 0.349511 -1.66471 0
M  V30 5248 O 490.869 0.230453 -1.92828 0
M  V30 5249 C 487.999 -0.00365337 -3.473 0
M  V30 5250 C 486.953 -0.921705 -4.17958 0
M  V30 5251 C 486.279 -0.144629 -5.34504 0
M  V30 5252 C 487.579 -2.23909 -4.71871 0
M  V30 5253 H 489.273 -1.52917 -2.57404 0
M  V30 5254 H 486.819 -0.736711 -1.23728 0
M  V30 5255 H 488.772 0.281908 -4.20456 0
M  V30 5256 H 487.496 0.914963 -3.13522 0
M  V30 5257 H 486.155 -1.19159 -3.46694 0
M  V30 5258 H 485.803 0.776274 -4.96974 0
M  V30 5259 H 485.503 -0.756206 -5.82714 0
M  V30 5260 H 487.027 0.134004 -6.10453 0
M  V30 5261 H 488.441 -2.0145 -5.36741 0
M  V30 5262 H 486.838 -2.8033 -5.30599 0
M  V30 5263 H 487.908 -2.88822 -3.895 0
M  V30 5264 N 489.251 1.34841 -0.815825 0
M  V30 5265 C 490.181 2.32187 -0.247298 0
M  V30 5266 C 491.162 1.5791 0.632344 0
M  V30 5267 O 492.347 1.8593 0.560698 0
M  V30 5268 C 489.477 3.42122 0.597466 0
M  V30 5269 C 488.431 4.27602 -0.184446 0
M  V30 5270 C 487.757 5.28942 0.782609 0
M  V30 5271 C 489.057 5.03502 -1.38865 0
M  V30 5272 H 490.751 2.79985 -1.06061 0
M  V30 5273 H 488.297 1.34611 -0.511461 0
M  V30 5274 H 490.25 4.09232 1.00533 0
M  V30 5275 H 488.974 2.92956 1.44376 0
M  V30 5276 H 487.633 3.62085 -0.573592 0
M  V30 5277 H 487.281 4.7604 1.62466 0
M  V30 5278 H 486.981 5.87008 0.263695 0
M  V30 5279 H 488.505 5.98922 1.18848 0
M  V30 5280 H 489.919 5.63506 -1.05518 0
M  V30 5281 H 488.316 5.71108 -1.8427 0
M  V30 5282 H 489.386 4.33608 -2.17054 0
M  V30 5283 N 490.729 0.570148 1.46925 0
M  V30 5284 C 491.954 0.0542592 2.07329 0
M  V30 5285 C 492.379 -1.23582 1.41806 0
M  V30 5286 O 491.737 -1.74341 0.497479 0
M  V30 5287 C 491.785 -0.111175 3.60429 0
M  V30 5288 O 490.889 -1.17071 3.95434 0
M  V30 5289 H 490.23 0.0571425 0.661537 0
M  V30 5290 H 492.76 0.789516 1.88753 0
M  V30 5291 H 492.77 -0.321315 4.06733 0
M  V30 5292 H 491.445 0.831012 4.07513 0
M  V30 5293 H 490.022 -0.940029 3.60857 0
M  V30 5294 N 492.207 -1.54576 0.307264 0
M  V30 5295 C 493.137 -2.26708 -0.55907 0
M  V30 5296 C 494.118 -1.26893 -1.1328 0
M  V30 5297 O 495.303 -1.55677 -1.16097 0
M  V30 5298 C 492.433 -3.01259 -1.72801 0
M  V30 5299 C 491.387 -4.08275 -1.28435 0
M  V30 5300 C 490.713 -4.70575 -2.53895 0
M  V30 5301 C 492.013 -5.2068 -0.411038 0
M  V30 5302 H 493.707 -2.9937 0.042576 0
M  V30 5303 H 491.253 -1.43983 0.0219173 0
M  V30 5304 H 493.206 -3.50444 -2.34023 0
M  V30 5305 H 491.93 -2.26187 -2.356 0
M  V30 5306 H 490.589 -3.59949 -0.695161 0
M  V30 5307 H 490.237 -3.92136 -3.15021 0
M  V30 5308 H 489.937 -5.42854 -2.24908 0
M  V30 5309 H 491.461 -5.22527 -3.15908 0
M  V30 5310 H 492.875 -5.65721 -0.929097 0
M  V30 5311 H 491.272 -5.99716 -0.214664 0
M  V30 5312 H 492.342 -4.81629 0.562287 0
M  V30 5313 N 493.685 -0.035106 -1.57561 0
M  V30 5314 C 494.932 0.642229 -1.92046 0
M  V30 5315 C 495.26 1.7179 -0.91206 0
M  V30 5316 O 494.515 1.95544 0.0781153 0
M  V30 5317 C 494.814 1.29149 -3.3325 0
M  V30 5318 C 494.48 0.345604 -4.49574 0
M  V30 5319 C 493.142 0.0852775 -4.81124 0
M  V30 5320 C 495.494 -0.303569 -5.20315 0
M  V30 5321 C 492.822 -0.831927 -5.80772 0
M  V30 5322 C 495.174 -1.20886 -6.20942 0
M  V30 5323 C 493.838 -1.47802 -6.50931 0
M  V30 5324 H 493.108 0.235008 -0.702746 0
M  V30 5325 H 495.755 -0.0981529 -1.91248 0
M  V30 5326 H 494.06 2.10676 -3.30337 0
M  V30 5327 H 495.757 1.82223 -3.57205 0
M  V30 5328 H 492.347 0.558683 -4.24943 0
M  V30 5329 H 496.531 -0.115515 -4.96166 0
M  V30 5330 H 491.787 -1.0481 -6.02349 0
M  V30 5331 H 495.961 -1.71804 -6.74875 0
M  V30 5332 H 493.588 -2.19039 -7.2796 0
M  V30 5333 N 495.163 1.55791 0.238111 0
M  V30 5334 C 496.093 1.94068 1.29846 0
M  V30 5335 C 497.074 0.806726 1.49753 0
M  V30 5336 O 498.259 1.06772 1.62214 0
M  V30 5337 C 495.389 2.24302 2.65153 0
M  V30 5338 C 494.343 3.40032 2.59927 0
M  V30 5339 C 493.669 3.55829 3.99111 0
M  V30 5340 C 494.969 4.75476 2.16148 0
M  V30 5341 H 496.663 2.82887 0.980563 0
M  V30 5342 H 494.209 1.36105 0.470253 0
M  V30 5343 H 496.162 2.4967 3.39475 0
M  V30 5344 H 494.886 1.32318 2.98596 0
M  V30 5345 H 493.545 3.14687 1.88063 0
M  V30 5346 H 493.193 2.6125 4.29834 0
M  V30 5347 H 492.893 4.3366 3.96501 0
M  V30 5348 H 494.417 3.83528 4.7512 0
M  V30 5349 H 495.831 5.00158 2.80205 0
M  V30 5350 H 494.228 5.56472 2.24631 0
M  V30 5351 H 495.298 4.71946 1.11333 0
M  V30 5352 N 496.642 -0.504142 1.49319 0
M  V30 5353 C 497.552 -1.63248 1.68486 0
M  V30 5354 C 498.568 -1.64488 0.567432 0
M  V30 5355 O 499.744 -1.82966 0.841749 0
M  V30 5356 C 496.809 -2.99627 1.74426 0
M  V30 5357 C 495.87 -3.09039 2.97982 0
M  V30 5358 C 495.103 -4.38913 3.0363 0
M  V30 5359 O 495.326 -5.27528 2.16958 0
M  V30 5360 O 494.26 -4.53231 3.96062 0
M  V30 5361 H 498.086 -1.50008 2.64067 0
M  V30 5362 H 495.671 -0.680086 1.33023 0
M  V30 5363 H 497.553 -3.80689 1.80705 0
M  V30 5364 H 496.228 -3.13136 0.820233 0
M  V30 5365 H 495.135 -2.27177 2.97223 0
M  V30 5366 H 496.468 -3.00456 3.89855 0
M  V30 5367 N 498.12 -1.38341 -0.754957 0
M  V30 5368 C 499.367 -1.34473 -1.51404 0
M  V30 5369 C 499.695 0.0656458 -1.94389 0
M  V30 5370 O 498.95 1.04244 -1.65625 0
M  V30 5371 C 499.249 -2.2452 -2.78075 0
M  V30 5372 C 498.915 -3.72512 -2.54059 0
M  V30 5373 C 497.577 -4.1284 -2.47218 0
M  V30 5374 C 499.929 -4.66197 -2.33044 0
M  V30 5375 C 497.257 -5.44945 -2.17376 0
M  V30 5376 C 499.609 -5.98558 -2.04723 0
M  V30 5377 C 498.273 -6.37972 -1.96337 0
M  V30 5378 H 497.543 -0.492072 -0.554027 0
M  V30 5379 H 500.19 -1.70687 -0.868223 0
M  V30 5380 H 498.495 -1.81357 -3.473 0
M  V30 5381 H 500.192 -2.18832 -3.36026 0
M  V30 5382 H 496.782 -3.40538 -2.60253 0
M  V30 5383 H 500.966 -4.35888 -2.37309 0
M  V30 5384 H 496.222 -5.74426 -2.09391 0
M  V30 5385 H 500.396 -6.70693 -1.87465 0
M  V30 5386 H 498.023 -7.40258 -1.72978 0
M  V30 5387 N 499.598 0.982988 -1.23187 0
M  V30 5388 C 500.847 1.71817 -1.05649 0
M  V30 5389 C 501.16 1.91315 0.407176 0
M  V30 5390 O 502.366 2.62256 0.702436 0
M  V30 5391 C 500.822 3.09188 -1.84203 0
M  V30 5392 C 500.43 2.97586 -3.34882 0
M  V30 5393 C 502.174 3.86684 -1.75146 0
M  V30 5394 C 500.081 4.30173 -4.05839 0
M  V30 5395 H 499.011 0.644258 -0.391724 0
M  V30 5396 H 501.662 1.09659 -1.4713 0
M  V30 5397 H 500.044 3.72087 -1.35527 0
M  V30 5398 H 501.218 2.43793 -3.91026 0
M  V30 5399 H 499.533 2.33567 -3.44725 0
M  V30 5400 H 502.13 4.84836 -2.25473 0
M  V30 5401 H 502.473 4.10136 -0.713737 0
M  V30 5402 H 503.006 3.30482 -2.21419 0
M  V30 5403 H 499.745 4.11918 -5.09906 0
M  V30 5404 H 499.265 4.83841 -3.54482 0
M  V30 5405 H 500.944 4.98873 -4.11989 0
M  V30 5406 N 501.076 1.04316 1.18135 0
M  V30 5407 C 502.324 0.746542 1.87806 0
M  V30 5408 C 502.645 -0.728082 1.80898 0
M  V30 5409 O 501.915 -1.52554 1.22899 0
M  V30 5410 H 500.495 0.273157 0.695265 0
M  V30 5411 H 503.157 1.32044 1.43354 0
M  V30 5412 H 502.253 1.05362 2.93778 0
M  V30 5413 N 502.554 -1.34406 0.822964 0
M  V30 5414 C 503.831 -1.92733 0.333641 0
M  V30 5415 C 504.211 -1.75107 -1.17901 0
M  V30 5416 O 503.559 -1.12983 -1.98613 0
M  V30 5417 C 503.769 -3.40557 0.763023 0
M  V30 5418 C 505.117 -4.17709 0.761879 0
M  V30 5419 O 506.141 -3.49141 0.705606 0
M  V30 5420 O 505 -5.40082 0.835109 0
M  V30 5421 H 502.094 -0.821964 0.0911249 0
M  V30 5422 H 504.64 -1.4338 0.907757 0
M  V30 5423 H 503.412 -3.47187 1.8049 0
M  V30 5424 H 503.035 -3.97259 0.164605 0
M  V30 5425 N 504.032 -0.577932 -1.46621 0
M  V30 5426 C 505.443 -0.150071 -1.86096 0
M  V30 5427 C 505.794 1.28563 -1.48209 0
M  V30 5428 O 504.919 1.97036 -0.894754 0
M  V30 5429 C 505.514 -0.265576 -3.37758 0
M  V30 5430 C 504.073 0.10738 -3.76247 0
M  V30 5431 C 503.22 -0.603711 -2.70649 0
M  V30 5432 H 506.171 -0.786438 -1.37844 0
M  V30 5433 H 506.192 0.510352 -3.77062 0
M  V30 5434 H 505.704 -1.3106 -3.65301 0
M  V30 5435 H 503.805 1.15272 -3.54321 0
M  V30 5436 H 503.918 -0.26561 -4.78363 0
M  V30 5437 H 502.282 -0.0444884 -2.54661 0
M  V30 5438 H 503.065 -1.65029 -3.01032 0
M  V30 5439 N 505.51 1.54411 -0.315457 0
M  V30 5440 C 506.457 2.24048 0.554166 0
M  V30 5441 C 507.427 1.2283 1.11812 0
M  V30 5442 O 508.612 1.51491 1.15997 0
M  V30 5443 C 505.752 2.99574 1.71316 0
M  V30 5444 C 504.865 4.15594 1.17922 0
M  V30 5445 C 504 4.78669 2.30324 0
M  V30 5446 C 503.039 5.86807 1.74137 0
M  V30 5447 N 502.176 6.43777 2.8017 0
M  V30 5448 H 507.016 2.97964 -0.0462602 0
M  V30 5449 H 504.553 1.47059 -0.0346009 0
M  V30 5450 H 506.511 3.41604 2.39505 0
M  V30 5451 H 505.141 2.28008 2.285 0
M  V30 5452 H 504.193 3.78404 0.389136 0
M  V30 5453 H 505.505 4.93459 0.728012 0
M  V30 5454 H 504.659 5.23626 3.06433 0
M  V30 5455 H 503.398 4.00168 2.78778 0
M  V30 5456 H 502.403 5.41261 0.965236 0
M  V30 5457 H 503.628 6.67201 1.2657 0
M  V30 5458 H 501.574 5.68153 3.2793 0
M  V30 5459 H 501.491 7.17031 2.39588 0
M  V30 5460 H 502.759 6.9339 3.56132 0
M  V30 5461 N 506.988 0.0434614 1.5754 0
M  V30 5462 C 508.399 -0.493343 1.80064 0
M  V30 5463 C 508.75 -1.71388 0.955023 0
M  V30 5464 O 507.875 -2.15736 0.169434 0
M  V30 5465 C 508.47 -0.90179 3.26578 0
M  V30 5466 C 507.029 -1.38362 3.50047 0
M  V30 5467 C 506.176 -0.355129 2.75017 0
M  V30 5468 H 509.127 0.2694 1.56397 0
M  V30 5469 H 509.148 -1.76523 3.37075 0
M  V30 5470 H 508.66 -0.013271 3.88098 0
M  V30 5471 H 506.761 -2.29159 2.93798 0
M  V30 5472 H 506.874 -1.3811 4.58762 0
M  V30 5473 H 505.238 -0.826348 2.40922 0
M  V30 5474 H 506.021 0.525172 3.39259 0
M  V30 5475 N 508.466 -1.55915 -0.229846 0
M  V30 5476 C 509.877 -1.68809 -0.797531 0
M  V30 5477 C 510.228 -0.643995 -1.8533 0
M  V30 5478 O 509.353 0.206492 -2.15413 0
M  V30 5479 C 509.948 -3.06043 -1.45338 0
M  V30 5480 C 508.507 -3.20819 -1.96856 0
M  V30 5481 C 507.654 -2.6472 -0.825736 0
M  V30 5482 H 510.605 -1.58699 -0.00533733 0
M  V30 5483 H 510.626 -3.01438 -2.32196 0
M  V30 5484 H 510.138 -3.82012 -0.684743 0
M  V30 5485 H 508.239 -2.49704 -2.76548 0
M  V30 5486 H 508.352 -4.27937 -2.15423 0
M  V30 5487 H 506.716 -2.22985 -1.23084 0
M  V30 5488 H 507.499 -3.43229 -0.0699019 0
M  V30 5489 N 509.944 0.496216 -1.49584 0
M  V30 5490 C 510.907 1.57952 -1.66084 0
M  V30 5491 C 511.907 1.51729 -0.53244 0
M  V30 5492 O 513.097 1.54796 -0.79899 0
M  V30 5493 C 510.229 2.97604 -1.66268 0
M  V30 5494 H 511.422 1.44649 -2.6271 0
M  V30 5495 H 508.975 0.7208 -1.38687 0
M  V30 5496 H 509.71 3.16378 -0.712432 0
M  V30 5497 H 509.495 3.03528 -2.4822 0
M  V30 5498 H 510.985 3.76301 -1.81073 0
M  V30 5499 N 511.423 1.38739 0.74761 0
M  V30 5500 C 512.669 1.3648 1.50814 0
M  V30 5501 C 513.024 -0.0431982 1.92351 0
M  V30 5502 O 512.317 -1.0071 1.62997 0
M  V30 5503 C 512.511 2.25992 2.7688 0
M  V30 5504 C 512.34 3.75354 2.47668 0
M  V30 5505 C 511.11 4.44348 2.40589 0
M  V30 5506 C 513.308 4.67642 2.14046 0
M  V30 5507 N 511.29 5.79114 2.03715 0
M  V30 5508 C 512.661 5.90965 1.87512 0
M  V30 5509 C 514.716 4.55787 2.00407 0
M  V30 5510 C 513.419 7.03759 1.48714 0
M  V30 5511 C 515.445 5.68491 1.63011 0
M  V30 5512 C 514.807 6.90879 1.37353 0
M  V30 5513 H 510.906 0.554695 0.551214 0
M  V30 5514 H 513.49 1.7418 0.870033 0
M  V30 5515 H 511.661 1.9047 3.3849 0
M  V30 5516 H 513.393 2.14815 3.42982 0
M  V30 5517 H 510.148 3.97634 2.57262 0
M  V30 5518 H 510.572 6.504 1.87906 0
M  V30 5519 H 515.214 3.61712 2.18916 0
M  V30 5520 H 512.932 7.97746 1.28945 0
M  V30 5521 H 516.518 5.613 1.53081 0
M  V30 5522 H 515.398 7.76609 1.08848 0
M  V30 5523 N 512.901 -0.976442 1.23707 0
M  V30 5524 C 513.848 -2.06952 1.02174 0
M  V30 5525 C 514.818 -1.65984 -0.0621034 0
M  V30 5526 O 516.003 -1.90584 0.0907906 0
M  V30 5527 C 513.143 -3.39425 0.62327 0
M  V30 5528 C 512.256 -3.9364 1.77966 0
M  V30 5529 C 511.391 -5.14343 1.3276 0
M  V30 5530 C 510.43 -5.60733 2.45449 0
M  V30 5531 N 509.567 -6.72662 2.01172 0
M  V30 5532 H 514.407 -2.24704 1.95734 0
M  V30 5533 H 511.944 -1.10143 0.975034 0
M  V30 5534 H 513.902 -4.15526 0.37332 0
M  V30 5535 H 512.532 -3.21624 -0.275329 0
M  V30 5536 H 511.584 -3.14258 2.14351 0
M  V30 5537 H 512.896 -4.24035 2.62671 0
M  V30 5538 H 512.05 -5.97789 1.03601 0
M  V30 5539 H 510.789 -4.8561 0.450975 0
M  V30 5540 H 509.794 -4.75865 2.75378 0
M  V30 5541 H 511.019 -5.91483 3.33654 0
M  V30 5542 H 508.965 -6.45681 1.15895 0
M  V30 5543 H 508.882 -7.02462 2.79434 0
M  V30 5544 H 510.15 -7.59572 1.75129 0
M  V30 5545 N 514.379 -1.04941 -1.1758 0
M  V30 5546 C 515.627 -0.756492 -1.87408 0
M  V30 5547 C 515.948 0.718478 -1.81281 0
M  V30 5548 O 515.218 1.519 -1.23706 0
M  V30 5549 H 513.798 -0.276841 -0.693807 0
M  V30 5550 H 516.46 -1.32803 -1.42652 0
M  V30 5551 H 515.556 -1.06918 -2.93215 0
M  V30 5552 N 515.857 1.33968 -0.830081 0
M  V30 5553 C 517.087 2.01987 -0.434142 0
M  V30 5554 C 517.495 1.62639 0.96671 0
M  V30 5555 O 516.838 0.831151 1.63822 0
M  V30 5556 C 516.9 3.5648 -0.465018 0
M  V30 5557 C 516.564 4.19176 -1.82045 0
M  V30 5558 C 517.561 4.39181 -2.78237 0
M  V30 5559 C 515.246 4.55792 -2.11089 0
M  V30 5560 C 517.24 4.94937 -4.01642 0
M  V30 5561 C 514.927 5.11258 -3.34752 0
M  V30 5562 C 515.925 5.30775 -4.29845 0
M  V30 5563 O 515.613 5.85064 -5.51322 0
M  V30 5564 H 515.345 0.653847 -0.171639 0
M  V30 5565 H 517.899 1.72066 -1.12171 0
M  V30 5566 H 516.129 3.8569 0.279284 0
M  V30 5567 H 517.818 4.05804 -0.0881334 0
M  V30 5568 H 518.584 4.11249 -2.57097 0
M  V30 5569 H 514.463 4.39901 -1.3787 0
M  V30 5570 H 518.007 5.10086 -4.75876 0
M  V30 5571 H 513.904 5.38619 -3.55753 0
M  V30 5572 H 514.672 6.03489 -5.5294 0
M  V30 5573 N 517.335 0.585699 1.46312 0
M  V30 5574 C 518.265 -0.133556 2.33118 0
M  V30 5575 C 519.246 -0.880707 1.45525 0
M  V30 5576 O 520.431 -0.855579 1.74337 0
M  V30 5577 C 517.561 -1.14585 3.27853 0
M  V30 5578 C 516.515 -0.513341 4.2491 0
M  V30 5579 C 515.841 -1.63231 5.09175 0
M  V30 5580 C 517.141 0.551413 5.19381 0
M  V30 5581 H 518.835 0.59121 2.93505 0
M  V30 5582 H 516.381 0.285761 1.41136 0
M  V30 5583 H 518.334 -1.65741 3.87438 0
M  V30 5584 H 517.058 -1.90093 2.65579 0
M  V30 5585 H 515.717 -0.0228349 3.66593 0
M  V30 5586 H 515.365 -2.37713 4.43285 0
M  V30 5587 H 515.065 -1.21473 5.74907 0
M  V30 5588 H 516.589 -2.14658 5.71624 0
M  V30 5589 H 518.003 0.124804 5.73164 0
M  V30 5590 H 516.4 0.889486 5.93471 0
M  V30 5591 H 517.47 1.43655 4.63132 0
M  V30 5592 N 518.813 -1.54241 0.323641 0
M  V30 5593 C 519.743 -2.27289 -0.534993 0
M  V30 5594 C 520.724 -1.28087 -1.11927 0
M  V30 5595 O 521.909 -1.56899 -1.14439 0
M  V30 5596 C 519.039 -3.03075 -1.69596 0
M  V30 5597 C 517.993 -4.09614 -1.24098 0
M  V30 5598 C 517.319 -4.73242 -2.4889 0
M  V30 5599 C 518.619 -5.21087 -0.355789 0
M  V30 5600 H 520.313 -2.99308 0.0743257 0
M  V30 5601 H 517.859 -1.43952 0.0371874 0
M  V30 5602 H 519.812 -3.52907 -2.30293 0
M  V30 5603 H 518.536 -2.28673 -2.33187 0
M  V30 5604 H 517.195 -3.60666 -0.656945 0
M  V30 5605 H 516.843 -3.95455 -3.10845 0
M  V30 5606 H 516.543 -5.45209 -2.19138 0
M  V30 5607 H 518.067 -5.25848 -3.10348 0
M  V30 5608 H 519.481 -5.66675 -0.869042 0
M  V30 5609 H 517.878 -5.9991 -0.151045 0
M  V30 5610 H 518.948 -4.81005 0.613339 0
M  V30 5611 N 520.291 -0.0518155 -1.57515 0
M  V30 5612 C 521.254 0.907547 -2.10467 0
M  V30 5613 C 522.254 1.23947 -1.02439 0
M  V30 5614 O 523.444 1.17604 -1.2851 0
M  V30 5615 C 520.576 2.21723 -2.58944 0
M  V30 5616 H 521.769 0.44851 -2.96527 0
M  V30 5617 H 519.322 0.196598 -1.55059 0
M  V30 5618 H 520.057 2.72206 -1.76279 0
M  V30 5619 H 519.842 1.98935 -3.37886 0
M  V30 5620 H 521.332 2.90441 -3.00056 0
M  V30 5621 N 521.769 1.56035 0.221574 0
M  V30 5622 C 523.015 1.79312 0.947372 0
M  V30 5623 C 523.348 0.621453 1.83988 0
M  V30 5624 O 522.623 -0.379287 1.90766 0
M  V30 5625 C 522.906 3.1267 1.78633 0
M  V30 5626 C 522.759 4.40284 0.920312 0
M  V30 5627 C 524.078 3.4247 2.7641 0
M  V30 5628 H 521.197 0.652328 0.342982 0
M  V30 5629 H 523.839 1.88765 0.216244 0
M  V30 5630 H 521.989 3.04741 2.40967 0
M  V30 5631 H 523.661 4.60232 0.313718 0
M  V30 5632 H 521.904 4.33212 0.225734 0
M  V30 5633 H 522.575 5.30033 1.54171 0
M  V30 5634 H 525.051 3.50526 2.24211 0
M  V30 5635 H 523.927 4.3695 3.32213 0
M  V30 5636 H 524.188 2.64635 3.54148 0
M  V30 5637 N 523.247 -0.488276 1.49845 0
M  V30 5638 C 524.177 -1.59675 1.70371 0
M  V30 5639 C 525.158 -1.60878 0.552473 0
M  V30 5640 O 526.343 -1.77417 0.78973 0
M  V30 5641 C 523.473 -2.98098 1.782 0
M  V30 5642 C 522.427 -3.11761 2.93239 0
M  V30 5643 C 521.753 -4.51661 2.86193 0
M  V30 5644 C 523.053 -2.90589 4.33999 0
M  V30 5645 H 524.747 -1.42752 2.63177 0
M  V30 5646 H 522.293 -0.685317 1.26647 0
M  V30 5647 H 524.246 -3.75555 1.91144 0
M  V30 5648 H 522.97 -3.16138 0.820018 0
M  V30 5649 H 521.629 -2.36732 2.79917 0
M  V30 5650 H 521.277 -4.66595 1.87877 0
M  V30 5651 H 520.977 -4.61742 3.63412 0
M  V30 5652 H 522.501 -5.31162 3.01163 0
M  V30 5653 H 523.915 -3.57807 4.47936 0
M  V30 5654 H 522.312 -3.1213 5.12538 0
M  V30 5655 H 523.382 -1.86595 4.4756 0
M  V30 5656 N 524.725 -1.39134 -0.740242 0
M  V30 5657 C 525.658 -1.3182 -1.86276 0
M  V30 5658 C 526.636 -0.192794 -1.61453 0
M  V30 5659 O 527.82 -0.372365 -1.84786 0
M  V30 5660 C 524.947 -1.04564 -3.22155 0
M  V30 5661 C 523.993 -2.19224 -3.65846 0
M  V30 5662 S 524.826 -3.81466 -3.75824 0
M  V30 5663 C 525.982 -3.56425 -5.14502 0
M  V30 5664 H 526.215 -2.26822 -1.92195 0
M  V30 5665 H 523.748 -1.25127 -0.904576 0
M  V30 5666 H 525.706 -0.895228 -4.00619 0
M  V30 5667 H 524.367 -0.112578 -3.13898 0
M  V30 5668 H 523.56 -1.95732 -4.6444 0
M  V30 5669 H 523.162 -2.30441 -2.94572 0
M  V30 5670 H 525.454 -3.13366 -6.00673 0
M  V30 5671 H 526.397 -4.54462 -5.43019 0
M  V30 5672 H 526.805 -2.90641 -4.8393 0
M  V30 5673 N 526.204 0.969867 -1.24223 0
M  V30 5674 C 527.451 1.71256 -1.08063 0
M  V30 5675 C 527.779 1.90734 0.380872 0
M  V30 5676 O 527.034 1.46469 1.29789 0
M  V30 5677 C 527.333 3.10883 -1.76314 0
M  V30 5678 C 526.999 3.11252 -3.26241 0
M  V30 5679 C 525.661 3.1106 -3.67144 0
M  V30 5680 C 528.013 3.05751 -4.22097 0
M  V30 5681 C 525.341 3.03097 -5.02344 0
M  V30 5682 C 527.693 2.9933 -5.57301 0
M  V30 5683 C 526.357 2.97466 -5.97554 0
M  V30 5684 H 525.627 0.62667 -0.395431 0
M  V30 5685 H 528.274 1.13422 -1.54297 0
M  V30 5686 H 526.579 3.72168 -1.22468 0
M  V30 5687 H 528.276 3.67138 -1.61277 0
M  V30 5688 H 524.866 3.12165 -2.93685 0
M  V30 5689 H 529.05 3.05031 -3.91497 0
M  V30 5690 H 524.306 3.00013 -5.32731 0
M  V30 5691 H 528.48 2.94033 -6.31283 0
M  V30 5692 H 526.107 2.91051 -7.02277 0
M  V30 5693 N 527.682 1.05563 1.17022 0
M  V30 5694 C 528.612 0.681026 2.23348 0
M  V30 5695 C 529.593 -0.322983 1.67005 0
M  V30 5696 O 530.778 -0.199746 1.9317 0
M  V30 5697 C 527.908 0.0589053 3.4725 0
M  V30 5698 C 526.862 0.988082 4.16438 0
M  V30 5699 C 526.188 0.229646 5.34207 0
M  V30 5700 C 527.488 2.31388 4.68249 0
M  V30 5701 H 529.182 1.56993 2.54938 0
M  V30 5702 H 526.728 0.756302 1.2254 0
M  V30 5703 H 528.681 -0.214982 4.20851 0
M  V30 5704 H 527.405 -0.864968 3.14938 0
M  V30 5705 H 526.064 1.24659 3.44754 0
M  V30 5706 H 525.712 -0.697111 4.98146 0
M  V30 5707 H 525.412 0.848815 5.81437 0
M  V30 5708 H 526.936 -0.0368694 6.10589 0
M  V30 5709 H 528.35 2.09964 5.33468 0
M  V30 5710 H 526.747 2.88736 5.26072 0
M  V30 5711 H 527.817 2.94982 3.84855 0
M  V30 5712 N 529.16 -1.33526 0.837174 0
M  V30 5713 C 530.385 -2.0258 0.444545 0
M  V30 5714 C 530.81 -1.6258 -0.946006 0
M  V30 5715 O 530.168 -0.817548 -1.6182 0
M  V30 5716 C 530.216 -3.5605 0.571006 0
M  V30 5717 O 529.32 -4.10422 -0.403431 0
M  V30 5718 H 528.661 -0.638866 0.180958 0
M  V30 5719 H 531.191 -1.70462 1.13154 0
M  V30 5720 H 531.201 -4.05488 0.452024 0
M  V30 5721 H 529.876 -3.84509 1.58512 0
M  V30 5722 H 528.453 -3.72113 -0.242147 0
M  V30 5723 N 530.638 -0.59345 -1.46 0
M  V30 5724 C 531.601 0.123538 -2.28867 0
M  V30 5725 C 532.601 0.808628 -1.38989 0
M  V30 5726 O 533.791 0.658945 -1.61256 0
M  V30 5727 C 530.923 1.1847 -3.19653 0
M  V30 5728 H 532.116 -0.604843 -2.93737 0
M  V30 5729 H 529.669 -0.351875 -1.52288 0
M  V30 5730 H 530.404 1.94431 -2.59552 0
M  V30 5731 H 530.189 0.69783 -3.8584 0
M  V30 5732 H 531.679 1.68726 -3.81997 0
M  V30 5733 N 532.116 1.54067 -0.331816 0
M  V30 5734 C 533.356 2.02625 0.26876 0
M  V30 5735 C 533.72 1.21462 1.48697 0
M  V30 5736 O 534.921 1.59863 2.16096 0
M  V30 5737 C 533.192 3.52554 0.586577 0
M  V30 5738 S 534.751 4.23035 1.16563 0
M  V30 5739 H 531.569 0.706395 0.0807862 0
M  V30 5740 H 534.171 1.89844 -0.466856 0
M  V30 5741 H 532.875 4.09242 -0.308046 0
M  V30 5742 H 532.406 3.69432 1.35217 0
M  V30 5743 H 534.421 4.31382 2.45203 0
M  V30 5744 N 533.594 0.0601682 1.57485 0
M  V30 5745 C 534.524 -0.90889 2.15085 0
M  V30 5746 C 535.505 -1.31838 1.07484 0
M  V30 5747 O 536.69 -1.3915 1.35466 0
M  V30 5748 C 533.82 -2.18059 2.7031 0
M  V30 5749 C 532.774 -1.91088 3.82974 0
M  V30 5750 C 532.1 -3.24789 4.24754 0
M  V30 5751 C 533.4 -1.22535 5.07723 0
M  V30 5752 H 535.094 -0.429093 2.96309 0
M  V30 5753 H 532.64 -0.204952 1.42534 0
M  V30 5754 H 534.593 -2.86258 3.09248 0
M  V30 5755 H 533.317 -2.6826 1.8629 0
M  V30 5756 H 531.976 -1.25297 3.44523 0
M  V30 5757 H 531.624 -3.72809 3.37672 0
M  V30 5758 H 531.324 -3.07538 5.00694 0
M  V30 5759 H 532.848 -3.94205 4.66299 0
M  V30 5760 H 534.262 -1.80783 5.4405 0
M  V30 5761 H 532.659 -1.1558 5.88864 0
M  V30 5762 H 533.729 -0.202692 4.84476 0
M  V30 5763 N 535.072 -1.5615 -0.213296 0
M  V30 5764 C 536.004 -1.89586 -1.28802 0
M  V30 5765 C 537.017 -0.784844 -1.42633 0
M  V30 5766 O 538.206 -1.06319 -1.43383 0
M  V30 5767 C 535.306 -2.09665 -2.66259 0
M  V30 5768 C 534.479 -3.40726 -2.7427 0
M  V30 5769 C 533.538 -3.50137 -3.92798 0
M  V30 5770 O 532.564 -4.23105 -3.8075 0
M  V30 5771 N 533.766 -2.81886 -5.07465 0
M  V30 5772 H 536.531 -2.82368 -1.00442 0
M  V30 5773 H 534.092 -1.56796 -0.403302 0
M  V30 5774 H 536.084 -2.13268 -3.43946 0
M  V30 5775 H 534.654 -1.23469 -2.87183 0
M  V30 5776 H 533.874 -3.4915 -1.82997 0
M  V30 5777 H 535.162 -4.27048 -2.76599 0
M  V30 5778 H 534.56 -2.22397 -5.2015 0
M  V30 5779 H 533.117 -2.91139 -5.83165 0
M  V30 5780 N 536.55 0.480323 -1.50102 0
M  V30 5781 C 537.778 1.25657 -1.64371 0
M  V30 5782 C 538.193 1.86011 -0.323316 0
M  V30 5783 O 537.55 1.68803 0.693682 0
M  V30 5784 C 537.601 2.37197 -2.728 0
M  V30 5785 O 537.322 1.7932 -3.9972 0
M  V30 5786 C 538.823 3.2823 -2.9796 0
M  V30 5787 H 536.043 0.380369 -0.552775 0
M  V30 5788 H 538.587 0.574379 -1.96268 0
M  V30 5789 H 536.742 3.01208 -2.43623 0
M  V30 5790 H 537.156 2.52701 -4.59611 0
M  V30 5791 H 538.63 4.02725 -3.77513 0
M  V30 5792 H 539.107 3.86462 -2.08671 0
M  V30 5793 H 539.713 2.69964 -3.28633 0
M  V30 5794 N 538.028 1.39524 0.732853 0
M  V30 5795 C 538.958 1.41153 1.86005 0
M  V30 5796 C 539.939 0.274614 1.67869 0
M  V30 5797 O 541.124 0.480745 1.88155 0
M  V30 5798 C 538.254 1.25638 3.23778 0
M  V30 5799 C 537.208 2.36752 3.56556 0
M  V30 5800 C 536.534 2.06326 4.93289 0
M  V30 5801 C 537.834 3.79069 3.5931 0
M  V30 5802 H 539.528 2.35484 1.84899 0
M  V30 5803 H 537.074 1.13348 0.888162 0
M  V30 5804 H 539.027 1.25398 4.0231 0
M  V30 5805 H 537.751 0.277772 3.25417 0
M  V30 5806 H 536.41 2.36213 2.80355 0
M  V30 5807 H 536.058 1.06897 4.9151 0
M  V30 5808 H 535.758 2.80757 5.16187 0
M  V30 5809 H 537.282 2.07739 5.74175 0
M  V30 5810 H 538.696 3.81526 4.27914 0
M  V30 5811 H 537.093 4.52878 3.93728 0
M  V30 5812 H 538.163 4.09893 2.59068 0
M  V30 5813 N 539.506 -0.963266 1.24736 0
M  V30 5814 C 540.753 -1.7068 1.0897 0
M  V30 5815 C 541.081 -1.90934 -0.370751 0
M  V30 5816 O 540.336 -1.47155 -1.29011 0
M  V30 5817 C 540.635 -3.09944 1.7796 0
M  V30 5818 C 540.301 -3.09518 3.27887 0
M  V30 5819 C 538.963 -3.09109 3.68789 0
M  V30 5820 C 541.315 -3.03509 4.23712 0
M  V30 5821 C 538.643 -3.00429 5.03944 0
M  V30 5822 C 540.995 -2.96371 5.5888 0
M  V30 5823 C 539.659 -2.94293 5.99123 0
M  V30 5824 H 538.929 -0.624564 0.398749 0
M  V30 5825 H 541.576 -1.12603 1.54896 0
M  V30 5826 H 539.881 -3.71513 1.2444 0
M  V30 5827 H 541.578 -3.66278 1.63222 0
M  V30 5828 H 538.168 -3.10603 2.95337 0
M  V30 5829 H 542.352 -3.0295 3.93109 0
M  V30 5830 H 537.608 -2.97183 5.34314 0
M  V30 5831 H 541.782 -2.90681 6.32833 0
M  V30 5832 H 539.409 -2.87322 7.03811 0
M  V30 5833 N 540.985 -1.06182 -1.16461 0
M  V30 5834 C 541.895 -0.682671 -2.24448 0
M  V30 5835 C 542.911 0.30078 -1.71381 0
M  V30 5836 O 544.087 0.150376 -2.00838 0
M  V30 5837 C 541.152 -0.0737202 -3.46622 0
M  V30 5838 C 540.213 -1.10889 -4.14731 0
M  V30 5839 C 539.446 -0.528908 -5.31073 0
M  V30 5840 O 539.669 0.65868 -5.66584 0
M  V30 5841 O 538.603 -1.26805 -5.88391 0
M  V30 5842 H 542.429 -1.58291 -2.59187 0
M  V30 5843 H 540.014 -0.834013 -1.23954 0
M  V30 5844 H 541.896 0.264192 -4.20571 0
M  V30 5845 H 540.571 0.800015 -3.13658 0
M  V30 5846 H 539.478 -1.49896 -3.42756 0
M  V30 5847 H 540.811 -1.95412 -4.51747 0
M  V30 5848 N 542.463 1.3308 -0.844243 0
M  V30 5849 C 543.395 2.27954 -0.238671 0
M  V30 5850 C 544.408 1.51978 0.583665 0
M  V30 5851 O 545.597 1.73731 0.409857 0
M  V30 5852 C 542.697 3.31963 0.682185 0
M  V30 5853 C 541.87 4.37281 -0.101998 0
M  V30 5854 C 540.929 5.20928 0.743022 0
M  V30 5855 O 539.955 5.68914 0.180285 0
M  V30 5856 N 541.157 5.42738 2.0595 0
M  V30 5857 H 543.922 2.8056 -1.05386 0
M  V30 5858 H 541.483 1.4583 -0.70322 0
M  V30 5859 H 543.475 3.84828 1.25259 0
M  V30 5860 H 542.045 2.79594 1.39808 0
M  V30 5861 H 541.265 3.84843 -0.853802 0
M  V30 5862 H 542.553 5.04746 -0.641015 0
M  V30 5863 H 541.951 5.05463 2.54016 0
M  V30 5864 H 540.508 5.98639 2.57827 0
M  V30 5865 N 543.941 0.601185 1.45683 0
M  V30 5866 C 544.873 -0.159446 2.28645 0
M  V30 5867 C 545.886 -0.837882 1.39583 0
M  V30 5868 O 547.075 -0.704344 1.64016 0
M  V30 5869 C 544.175 -1.24641 3.15147 0
M  V30 5870 C 543.348 -0.656334 4.32448 0
M  V30 5871 C 542.407 -1.63337 5.00208 0
M  V30 5872 O 541.433 -1.16217 5.57209 0
M  V30 5873 N 542.635 -2.96773 4.98905 0
M  V30 5874 H 545.4 0.5524 2.94565 0
M  V30 5875 H 542.961 0.440223 1.558 0
M  V30 5876 H 544.953 -1.8997 3.57342 0
M  V30 5877 H 543.523 -1.86087 2.51178 0
M  V30 5878 H 542.743 0.174879 3.93812 0
M  V30 5879 H 544.031 -0.242211 5.08223 0
M  V30 5880 H 543.429 -3.37662 4.53873 0
M  V30 5881 H 541.986 -3.57541 5.44984 0
M  V30 5882 N 545.419 -1.53889 0.339982 0
M  V30 5883 C 546.367 -2.26391 -0.533822 0
M  V30 5884 C 547.361 -1.28404 -1.10493 0
M  V30 5885 O 548.567 -1.46124 -1.05108 0
M  V30 5886 H 544.942 -0.727385 -0.190828 0
M  V30 5887 H 546.913 -2.98233 0.0997484 0
M  V30 5888 C 545.662 -3.04707 -1.67479 0
M  V30 5889 H 544.985 -3.79934 -1.2446 0
M  V30 5890 H 546.425 -3.58657 -2.26144 0
M  V30 5891 C 544.884 -2.13989 -2.60212 0
M  V30 5892 O 545.414 -1.73361 -3.62366 0
M  V30 5893 N 543.62 -1.79141 -2.28816 0
M  V30 5894 H 543.167 -2.12378 -1.45785 0
M  V30 5895 H 543.125 -1.18725 -2.91121 0
M  V30 5896 N 546.897 -0.0685191 -1.57451 0
M  V30 5897 C 547.83 0.935736 -2.08133 0
M  V30 5898 C 548.808 1.29317 -0.985698 0
M  V30 5899 O 549.992 1.40304 -1.25886 0
M  V30 5900 C 547.119 2.2448 -2.53627 0
M  V30 5901 C 546.165 2.03917 -3.74593 0
M  V30 5902 S 546.998 1.30154 -5.19442 0
M  V30 5903 C 548.154 2.62346 -5.68265 0
M  V30 5904 H 548.387 0.504473 -2.92989 0
M  V30 5905 H 545.92 0.144169 -1.53725 0
M  V30 5906 H 547.878 2.99718 -2.80499 0
M  V30 5907 H 546.539 2.64731 -1.69045 0
M  V30 5908 H 545.732 3.00788 -4.04404 0
M  V30 5909 H 545.334 1.36815 -3.48077 0
M  V30 5910 H 547.626 3.58448 -5.7491 0
M  V30 5911 H 548.569 2.3715 -6.67207 0
M  V30 5912 H 548.977 2.69401 -4.96068 0
M  V30 5913 N 548.375 1.56261 0.205012 0
M  V30 5914 C 549.605 1.83874 0.942018 0
M  V30 5915 C 550.013 0.647595 1.77772 0
M  V30 5916 O 549.356 -0.393098 1.79445 0
M  V30 5917 C 549.418 3.05453 1.89575 0
M  V30 5918 C 549.082 4.39772 1.24296 0
M  V30 5919 C 550.079 5.16133 0.624724 0
M  V30 5920 C 547.764 4.86504 1.24978 0
M  V30 5921 C 549.758 6.37396 0.0220117 0
M  V30 5922 C 547.445 6.07705 0.643232 0
M  V30 5923 C 548.443 6.82993 0.0304164 0
M  V30 5924 O 548.131 8.019 -0.566654 0
M  V30 5925 H 547.863 0.614896 0.280854 0
M  V30 5926 H 550.417 2.04215 0.220285 0
M  V30 5927 H 548.647 2.80972 2.65691 0
M  V30 5928 H 550.336 3.19797 2.4997 0
M  V30 5929 H 551.102 4.81127 0.611666 0
M  V30 5930 H 546.981 4.27865 1.71616 0
M  V30 5931 H 550.525 6.96102 -0.456926 0
M  V30 5932 H 546.422 6.42181 0.653759 0
M  V30 5933 H 547.19 8.17192 -0.462588 0
M  V30 5934 N 549.853 -0.472356 1.50355 0
M  V30 5935 C 551.269 -0.806001 1.37753 0
M  V30 5936 C 551.469 -1.968 0.432649 0
M  V30 5937 O 550.525 -2.52189 -0.12519 0
M  V30 5938 C 551.838 -1.11926 2.79093 0
M  V30 5939 C 553.386 -1.22579 2.87999 0
M  V30 5940 C 553.861 -1.57218 4.3017 0
M  V30 5941 N 555.352 -1.64212 4.33115 0
M  V30 5942 C 556.087 -1.92517 5.40116 0
M  V30 5943 N 555.583 -2.1885 6.57325 0
M  V30 5944 N 557.376 -1.94008 5.27558 0
M  V30 5945 H 549.527 0.293451 2.10363 0
M  V30 5946 H 551.79 0.0687672 0.945503 0
M  V30 5947 H 551.496 -0.338504 3.50067 0
M  V30 5948 H 551.37 -2.05577 3.16256 0
M  V30 5949 H 553.757 -1.99722 2.17245 0
M  V30 5950 H 553.838 -0.269107 2.54381 0
M  V30 5951 H 553.482 -0.806154 5.01461 0
M  V30 5952 H 553.412 -2.54034 4.61275 0
M  V30 5953 H 555.903 -1.45906 3.48597 0
M  V30 5954 H 556.216 -2.39718 7.3468 0
M  V30 5955 H 554.561 -2.16245 6.60502 0
M  V30 5956 H 557.752 -1.72931 4.34986 0
M  V30 5957 H 557.925 -2.15731 6.11035 0
M  V30 5958 N 551.331 -1.39911 -0.725443 0
M  V30 5959 C 552.261 -1.42138 -1.85254 0
M  V30 5960 C 553.242 -0.283513 -1.67721 0
M  V30 5961 O 554.427 -0.490717 -1.87898 0
M  V30 5962 C 551.557 -1.27354 -3.23107 0
M  V30 5963 C 550.511 -2.3864 -3.55296 0
M  V30 5964 C 549.837 -2.08939 -4.92188 0
M  V30 5965 C 551.137 -3.8097 -3.57295 0
M  V30 5966 H 552.831 -2.36461 -1.83648 0
M  V30 5967 H 550.377 -1.13817 -0.882138 0
M  V30 5968 H 552.33 -1.2753 -4.01639 0
M  V30 5969 H 551.054 -0.295025 -3.25265 0
M  V30 5970 H 549.713 -2.37696 -2.79099 0
M  V30 5971 H 549.361 -1.09502 -4.90936 0
M  V30 5972 H 549.061 -2.83491 -5.14691 0
M  V30 5973 H 550.585 -2.10781 -5.73065 0
M  V30 5974 H 551.999 -3.8379 -4.25885 0
M  V30 5975 H 550.396 -4.5496 -3.9132 0
M  V30 5976 H 551.466 -4.11261 -2.5689 0
M  V30 5977 N 552.809 0.956637 -1.25245 0
M  V30 5978 C 553.756 2.053 -1.05454 0
M  V30 5979 C 554.726 1.66062 0.0356889 0
M  V30 5980 O 555.911 1.90415 -0.121099 0
M  V30 5981 C 553.051 3.38391 -0.677191 0
M  V30 5982 C 552.164 3.90758 -1.84206 0
M  V30 5983 C 551.299 5.12165 -1.40926 0
M  V30 5984 C 550.338 5.56757 -2.54338 0
M  V30 5985 N 549.475 6.69376 -2.11848 0
M  V30 5986 H 554.315 2.21562 -1.99284 0
M  V30 5987 H 551.852 1.08578 -0.992434 0
M  V30 5988 H 553.81 4.1488 -0.43938 0
M  V30 5989 H 552.44 3.22021 0.224127 0
M  V30 5990 H 551.492 3.10808 -2.19323 0
M  V30 5991 H 552.804 4.19802 -2.69383 0
M  V30 5992 H 551.958 5.96065 -1.13098 0
M  V30 5993 H 550.697 4.84832 -0.528175 0
M  V30 5994 H 549.702 4.71423 -2.82913 0
M  V30 5995 H 550.927 5.861 -3.43022 0
M  V30 5996 H 548.873 6.43756 -1.26153 0
M  V30 5997 H 548.79 6.97927 -2.90574 0
M  V30 5998 H 550.058 7.5669 -1.87191 0
M  V30 5999 N 554.287 1.06798 1.15896 0
M  V30 6000 C 555.533 0.788934 1.86825 0
M  V30 6001 C 555.866 -0.683084 1.8179 0
M  V30 6002 O 555.141 -1.50086 1.23711 0
M  V30 6003 C 555.424 1.29065 3.36176 0
M  V30 6004 C 555.277 2.8268 3.49874 0
M  V30 6005 C 556.596 0.902655 4.30744 0
M  V30 6006 H 553.715 0.288066 0.678371 0
M  V30 6007 H 556.357 1.32479 1.36195 0
M  V30 6008 H 554.507 0.834806 3.79425 0
M  V30 6009 H 556.179 3.36511 3.15528 0
M  V30 6010 H 554.422 3.21157 2.91617 0
M  V30 6011 H 555.093 3.12852 4.54783 0
M  V30 6012 H 557.569 1.29535 3.95424 0
M  V30 6013 H 556.445 1.28111 5.3374 0
M  V30 6014 H 556.706 -0.191951 4.41683 0
M  V30 6015 N 555.766 -1.3263 0.851289 0
M  V30 6016 C 556.696 -2.31449 0.308771 0
M  V30 6017 C 557.677 -1.59531 -0.590255 0
M  V30 6018 O 558.862 -1.87351 -0.511205 0
M  V30 6019 C 555.992 -3.43586 -0.506548 0
M  V30 6020 C 554.946 -4.26963 0.297753 0
M  V30 6021 C 554.272 -5.30831 -0.642094 0
M  V30 6022 C 555.572 -4.99643 1.52166 0
M  V30 6023 H 557.266 -2.77074 1.13447 0
M  V30 6024 H 554.812 -1.33207 0.546971 0
M  V30 6025 H 556.765 -4.11754 -0.896474 0
M  V30 6026 H 555.489 -2.96681 -1.36558 0
M  V30 6027 H 554.148 -3.60437 0.669391 0
M  V30 6028 H 553.796 -4.8018 -1.49788 0
M  V30 6029 H 553.496 -5.87501 -0.107968 0
M  V30 6030 H 555.02 -6.01862 -1.02927 0
M  V30 6031 H 556.434 -5.6051 1.20421 0
M  V30 6032 H 554.831 -5.66022 1.99347 0
M  V30 6033 H 555.901 -4.27701 2.28474 0
M  V30 6034 N 557.244 -0.608902 -1.45362 0
M  V30 6035 C 558.176 0.147318 -2.28726 0
M  V30 6036 C 559.189 0.830468 -1.40025 0
M  V30 6037 O 560.378 0.695636 -1.64387 0
M  V30 6038 C 557.478 1.22968 -3.15804 0
M  V30 6039 C 556.651 0.633391 -4.3279 0
M  V30 6040 C 555.71 1.60682 -5.01067 0
M  V30 6041 O 554.736 1.13261 -5.57818 0
M  V30 6042 N 555.938 2.94123 -5.00472 0
M  V30 6043 H 558.703 -0.568014 -2.94268 0
M  V30 6044 H 556.264 -0.448479 -1.55564 0
M  V30 6045 H 558.256 1.88072 -3.58345 0
M  V30 6046 H 556.826 1.84752 -2.52162 0
M  V30 6047 H 556.046 -0.195762 -3.93714 0
M  V30 6048 H 557.334 0.215255 -5.08344 0
M  V30 6049 H 556.732 3.3525 -4.55657 0
M  V30 6050 H 555.289 3.54646 -5.46872 0
M  V30 6051 N 558.722 1.53707 -0.348139 0
M  V30 6052 C 559.655 2.21481 0.549667 0
M  V30 6053 C 560.633 1.20046 1.09671 0
M  V30 6054 O 561.817 1.48883 1.15612 0
M  V30 6055 C 558.944 2.89585 1.75664 0
M  V30 6056 C 557.99 4.04948 1.33864 0
M  V30 6057 S 558.823 5.34325 0.354577 0
M  V30 6058 C 559.979 6.05934 1.56828 0
M  V30 6059 H 560.212 2.97289 -0.0259755 0
M  V30 6060 H 557.745 1.53833 -0.132216 0
M  V30 6061 H 559.703 3.29441 2.44906 0
M  V30 6062 H 558.364 2.13535 2.30351 0
M  V30 6063 H 557.557 4.51552 2.23868 0
M  V30 6064 H 557.159 3.66893 0.725651 0
M  V30 6065 H 559.451 6.29606 2.50205 0
M  V30 6066 H 560.394 6.98799 1.14395 0
M  V30 6067 H 560.802 5.36151 1.76642 0
M  V30 6068 N 560.2 0.0768682 1.57412 0
M  V30 6069 C 561.616 -0.279772 1.57129 0
M  V30 6070 C 561.816 -1.69688 1.08666 0
M  V30 6071 O 560.872 -2.40953 0.754843 0
M  V30 6072 C 562.185 -0.0848055 3.0058 0
M  V30 6073 C 563.733 -0.153954 3.12621 0
M  V30 6074 C 564.208 0.0127946 4.57998 0
M  V30 6075 N 565.699 -0.0426435 4.6318 0
M  V30 6076 C 566.434 0.0618892 5.73367 0
M  V30 6077 N 565.93 0.220229 6.9245 0
M  V30 6078 N 567.723 0.00446072 5.621 0
M  V30 6079 H 559.874 1.00297 1.87228 0
M  V30 6080 H 562.137 0.391565 0.863354 0
M  V30 6081 H 561.843 0.89325 3.40168 0
M  V30 6082 H 561.717 -0.834961 3.67843 0
M  V30 6083 H 564.104 -1.1225 2.72917 0
M  V30 6084 H 564.185 0.627389 2.47987 0
M  V30 6085 H 563.829 0.978128 4.98392 0
M  V30 6086 H 563.759 -0.788016 5.20671 0
M  V30 6087 H 566.25 -0.163226 3.77547 0
M  V30 6088 H 566.563 0.291999 7.72248 0
M  V30 6089 H 564.908 0.255658 6.9453 0
M  V30 6090 H 568.099 -0.117979 4.67951 0
M  V30 6091 H 568.272 0.0893796 6.47938 0
M  V30 6092 N 561.678 -1.56367 -0.196722 0
M  V30 6093 C 562.608 -1.97442 -1.24655 0
M  V30 6094 C 563.589 -0.846147 -1.47561 0
M  V30 6095 O 564.774 -1.11035 -1.59326 0
M  V30 6096 C 561.904 -2.31253 -2.59112 0
M  V30 6097 C 560.858 -3.46804 -2.50821 0
M  V30 6098 C 560.184 -3.66286 -3.89536 0
M  V30 6099 C 561.484 -4.8104 -2.03465 0
M  V30 6100 H 563.178 -2.85388 -0.905216 0
M  V30 6101 H 560.724 -1.37304 -0.434002 0
M  V30 6102 H 562.677 -2.58583 -3.32736 0
M  V30 6103 H 561.401 -1.40188 -2.94983 0
M  V30 6104 H 560.06 -3.19563 -1.79653 0
M  V30 6105 H 559.708 -2.72555 -4.22756 0
M  V30 6106 H 559.408 -4.4402 -3.84864 0
M  V30 6107 H 560.932 -3.9599 -4.64784 0
M  V30 6108 H 562.346 -5.07411 -2.66846 0
M  V30 6109 H 560.743 -5.62232 -2.09798 0
M  V30 6110 H 561.813 -4.74732 -0.98781 0
M  V30 6111 N 563.156 0.464375 -1.50603 0
M  V30 6112 C 564.572 0.798684 -1.38178 0
M  V30 6113 C 564.772 1.96568 -0.44308 0
M  V30 6114 O 563.828 2.52252 0.111814 0
M  V30 6115 C 565.141 1.10444 -2.79683 0
M  V30 6116 C 566.689 1.2105 -2.88645 0
M  V30 6117 C 567.164 1.54934 -4.30998 0
M  V30 6118 N 568.655 1.61913 -4.3398 0
M  V30 6119 C 569.39 1.8965 -5.41129 0
M  V30 6120 N 568.886 2.15361 -6.58477 0
M  V30 6121 N 570.679 1.91207 -5.28579 0
M  V30 6122 H 562.83 -0.304603 -2.10204 0
M  V30 6123 H 565.093 -0.0737804 -0.945125 0
M  V30 6124 H 564.799 0.319934 -3.50242 0
M  V30 6125 H 564.673 2.03896 -3.17342 0
M  V30 6126 H 567.06 1.98567 -2.18301 0
M  V30 6127 H 567.141 0.255613 -2.5452 0
M  V30 6128 H 566.785 0.779549 -5.01882 0
M  V30 6129 H 566.715 2.51584 -4.62615 0
M  V30 6130 H 569.206 1.44055 -3.49366 0
M  V30 6131 H 569.519 2.35818 -7.35941 0
M  V30 6132 H 567.864 2.1274 -6.6164 0
M  V30 6133 H 571.055 1.70622 -4.35897 0
M  V30 6134 H 571.228 2.12488 -6.12171 0
M  V30 6135 N 564.634 1.40294 0.718013 0
M  V30 6136 C 565.859 1.41941 1.5122 0
M  V30 6137 C 566.284 0.0202371 1.88089 0
M  V30 6138 O 565.642 -0.971078 1.53101 0
M  V30 6139 C 565.69 2.3141 2.76554 0
M  V30 6140 O 564.794 1.75567 3.73162 0
M  V30 6141 H 564.135 0.482644 0.456016 0
M  V30 6142 H 566.665 1.84494 0.884478 0
M  V30 6143 H 566.675 2.46513 3.25108 0
M  V30 6144 H 565.35 3.33085 2.49053 0
M  V30 6145 H 563.927 1.69798 3.31999 0
M  V30 6146 N 566.112 -0.949982 1.2575 0
M  V30 6147 C 567.075 -2.02894 1.06615 0
M  V30 6148 C 568.075 -1.60791 0.0173905 0
M  V30 6149 O 569.265 -1.72249 0.260003 0
M  V30 6150 C 566.397 -3.35219 0.619751 0
M  V30 6151 H 567.59 -2.21302 2.02399 0
M  V30 6152 H 565.143 -1.12772 1.08223 0
M  V30 6153 H 565.878 -3.22508 -0.340486 0
M  V30 6154 H 565.663 -3.67129 1.37692 0
M  V30 6155 H 567.153 -4.14505 0.507443 0
M  V30 6156 N 567.59 -1.07411 -1.15328 0
M  V30 6157 C 568.839 -0.792643 -1.85473 0
M  V30 6158 C 569.152 0.683789 -1.83259 0
M  V30 6159 O 570.358 1.08005 -2.49093 0
M  V30 6160 C 568.814 -1.36787 -3.32892 0
M  V30 6161 C 568.422 -2.87536 -3.43551 0
M  V30 6162 C 570.166 -1.16444 -4.08217 0
M  V30 6163 C 568.073 -3.38247 -4.85122 0
M  V30 6164 H 567.003 -0.292838 -0.694811 0
M  V30 6165 H 569.654 -1.29426 -1.30082 0
M  V30 6166 H 568.036 -0.793993 -3.87958 0
M  V30 6167 H 569.21 -3.50973 -2.98588 0
M  V30 6168 H 567.525 -3.06676 -2.81672 0
M  V30 6169 H 570.122 -1.51808 -5.12697 0
M  V30 6170 H 570.465 -0.10353 -4.16171 0
M  V30 6171 H 570.998 -1.70472 -3.59422 0
M  V30 6172 H 567.737 -4.43866 -4.82351 0
M  V30 6173 H 567.257 -2.79564 -5.30664 0
M  V30 6174 H 568.936 -3.34238 -5.5398 0
M  V30 6175 N 569.068 1.32177 -0.85831 0
M  V30 6176 C 570.296 2.01313 -0.477582 0
M  V30 6177 C 570.711 1.6449 0.926736 0
M  V30 6178 O 570.068 0.868096 1.60531 0
M  V30 6179 C 570.119 3.56293 -0.611337 0
M  V30 6180 O 569.84 3.91794 -1.96034 0
M  V30 6181 C 571.341 4.42702 -0.230093 0
M  V30 6182 H 568.561 0.644323 -0.187322 0
M  V30 6183 H 571.105 1.68674 -1.15626 0
M  V30 6184 H 569.26 3.87395 0.0196494 0
M  V30 6185 H 569.674 4.86513 -1.95973 0
M  V30 6186 H 571.148 5.50727 -0.374674 0
M  V30 6187 H 571.625 4.3129 0.829779 0
M  V30 6188 H 572.231 4.16997 -0.836302 0
M  V30 6189 N 570.547 0.616602 1.45037 0
M  V30 6190 C 571.795 0.115103 2.01772 0
M  V30 6191 C 572.116 -1.2622 1.48639 0
M  V30 6192 O 571.386 -1.83563 0.684199 0
M  V30 6193 H 569.966 0.0395607 0.745952 0
M  V30 6194 H 572.628 0.800032 1.77723 0
M  V30 6195 H 571.724 0.0717274 3.12018 0
M  V30 6196 N 572.025 -1.5352 0.356285 0
M  V30 6197 C 572.955 -2.28372 -0.486661 0
M  V30 6198 C 573.936 -1.30432 -1.09185 0
M  V30 6199 O 575.121 -1.59291 -1.11085 0
M  V30 6200 C 572.251 -3.06604 -1.63129 0
M  V30 6201 C 571.205 -4.12154 -1.15381 0
M  V30 6202 C 570.531 -4.78415 -2.38796 0
M  V30 6203 C 571.831 -5.21724 -0.245179 0
M  V30 6204 H 573.525 -2.99083 0.137797 0
M  V30 6205 H 571.071 -1.43841 0.0677134 0
M  V30 6206 H 573.024 -3.57712 -2.22755 0
M  V30 6207 H 571.748 -2.33568 -2.28284 0
M  V30 6208 H 570.407 -3.61978 -0.580294 0
M  V30 6209 H 570.055 -4.01959 -3.02387 0
M  V30 6210 H 569.755 -5.49734 -2.07524 0
M  V30 6211 H 571.279 -5.32313 -2.99125 0
M  V30 6212 H 572.693 -5.68391 -0.748646 0
M  V30 6213 H 571.09 -6.00095 -0.0237608 0
M  V30 6214 H 572.16 -4.79596 0.715229 0
M  V30 6215 N 573.503 -0.0852151 -1.57369 0
M  V30 6216 C 574.749 0.581666 -1.94279 0
M  V30 6217 C 575.082 1.68444 -0.966446 0
M  V30 6218 O 574.357 1.945 0.00215277 0
M  V30 6219 C 574.64 1.14609 -3.41375 0
M  V30 6220 C 574.493 0.0490414 -4.49773 0
M  V30 6221 C 575.812 2.04751 -3.8957 0
M  V30 6222 H 572.931 0.209972 -0.706456 0
M  V30 6223 H 575.573 -0.153915 -1.89376 0
M  V30 6224 H 573.723 1.77297 -3.45685 0
M  V30 6225 H 575.395 -0.584721 -4.57579 0
M  V30 6226 H 573.638 -0.618638 -4.29366 0
M  V30 6227 H 574.309 0.484601 -5.49869 0
M  V30 6228 H 576.785 1.51981 -3.87351 0
M  V30 6229 H 575.661 2.41173 -4.93079 0
M  V30 6230 H 575.922 2.96107 -3.28288 0
M  V30 6231 N 574.981 1.5647 0.188427 0
M  V30 6232 C 576.211 1.84863 0.922463 0
M  V30 6233 C 576.619 0.666413 1.77075 0
M  V30 6234 O 575.962 -0.374044 1.79852 0
M  V30 6235 C 576.024 3.07447 1.86324 0
M  V30 6236 C 575.688 4.41066 1.19625 0
M  V30 6237 C 576.685 5.16767 0.569946 0
M  V30 6238 C 574.37 4.87802 1.19811 0
M  V30 6239 C 576.364 6.37384 -0.045594 0
M  V30 6240 C 574.051 6.08353 0.57874 0
M  V30 6241 C 575.049 6.82987 -0.0420259 0
M  V30 6242 O 574.737 8.01254 -0.651675 0
M  V30 6243 H 574.469 0.61784 0.274316 0
M  V30 6244 H 577.023 2.04437 0.198613 0
M  V30 6245 H 575.253 2.83774 2.62696 0
M  V30 6246 H 576.942 3.2243 2.46564 0
M  V30 6247 H 577.708 4.81749 0.560601 0
M  V30 6248 H 573.587 4.29662 1.67069 0
M  V30 6249 H 577.131 6.95578 -0.530731 0
M  V30 6250 H 573.028 6.42838 0.58561 0
M  V30 6251 H 573.796 8.16655 -0.549236 0
M  V30 6252 N 576.459 -0.456382 1.50847 0
M  V30 6253 C 577.875 -0.791345 1.386 0
M  V30 6254 C 578.075 -1.9633 0.453498 0
M  V30 6255 O 577.131 -2.52308 -0.0984353 0
M  V30 6256 C 578.444 -1.08959 2.80265 0
M  V30 6257 C 579.992 -1.19517 2.89283 0
M  V30 6258 C 580.467 -1.52647 4.31814 0
M  V30 6259 N 581.958 -1.59609 4.34832 0
M  V30 6260 C 582.693 -1.86777 5.42127 0
M  V30 6261 N 582.189 -2.11866 6.59609 0
M  V30 6262 N 583.982 -1.88402 5.29586 0
M  V30 6263 H 576.133 0.315746 2.1004 0
M  V30 6264 H 578.396 0.0787916 0.94472 0
M  V30 6265 H 578.102 -0.301355 3.50407 0
M  V30 6266 H 577.976 -2.02211 3.18419 0
M  V30 6267 H 580.363 -1.97406 2.19351 0
M  V30 6268 H 580.444 -0.242111 2.54652 0
M  V30 6269 H 580.088 -0.752922 5.02288 0
M  V30 6270 H 580.018 -2.49127 4.63943 0
M  V30 6271 H 582.509 -1.42201 3.50125 0
M  V30 6272 H 582.822 -2.31912 7.37182 0
M  V30 6273 H 581.167 -2.09228 6.62758 0
M  V30 6274 H 584.358 -1.68307 4.36795 0
M  V30 6275 H 584.531 -2.09238 6.13289 0
M  V30 6276 N 577.937 -1.40673 -0.710563 0
M  V30 6277 C 578.884 -1.41336 -1.82463 0
M  V30 6278 C 579.854 -0.269648 -1.63897 0
M  V30 6279 O 581.039 -0.468463 -1.8496 0
M  V30 6280 C 578.179 -1.28665 -3.20218 0
M  V30 6281 C 577.292 -2.52784 -3.5032 0
M  V30 6282 C 576.427 -2.32517 -4.77608 0
M  V30 6283 C 575.466 -3.52187 -5.0063 0
M  V30 6284 N 574.603 -3.31084 -6.19135 0
M  V30 6285 H 579.443 -2.36558 -1.8123 0
M  V30 6286 H 576.98 -1.17483 -0.885226 0
M  V30 6287 H 578.938 -1.19324 -3.99772 0
M  V30 6288 H 577.568 -0.370602 -3.20666 0
M  V30 6289 H 576.62 -2.72634 -2.65283 0
M  V30 6290 H 577.932 -3.41845 -3.63241 0
M  V30 6291 H 577.086 -2.20558 -5.65189 0
M  V30 6292 H 575.825 -1.40889 -4.66906 0
M  V30 6293 H 574.83 -3.64617 -4.11502 0
M  V30 6294 H 576.055 -4.44749 -5.13201 0
M  V30 6295 H 574.001 -2.42143 -6.09674 0
M  V30 6296 H 573.918 -4.13713 -6.32754 0
M  V30 6297 H 575.186 -3.22868 -7.0949 0
M  V30 6298 N 579.415 0.9433 -1.26252 0
M  V30 6299 C 580.661 1.69175 -1.11837 0
M  V30 6300 C 580.994 1.91238 0.337891 0
M  V30 6301 O 580.269 1.49152 1.24836 0
M  V30 6302 C 580.552 3.06783 -1.88563 0
M  V30 6303 C 580.405 2.9206 -3.42083 0
M  V30 6304 C 581.724 4.06865 -1.67776 0
M  V30 6305 H 578.843 0.61399 -0.407658 0
M  V30 6306 H 581.485 1.09572 -1.55222 0
M  V30 6307 H 579.635 3.57663 -1.51689 0
M  V30 6308 H 581.307 2.48419 -3.88698 0
M  V30 6309 H 579.55 2.27731 -3.69217 0
M  V30 6310 H 580.221 3.89651 -3.90994 0
M  V30 6311 H 582.697 3.64939 -1.99897 0
M  V30 6312 H 581.573 5.01168 -2.23879 0
M  V30 6313 H 581.834 4.37705 -0.621816 0
M  V30 6314 N 580.893 1.08022 1.14757 0
M  V30 6315 C 581.823 0.728248 2.21853 0
M  V30 6316 C 582.804 -0.287486 1.67653 0
M  V30 6317 O 583.989 -0.158727 1.9355 0
M  V30 6318 C 581.119 0.132549 3.47047 0
M  V30 6319 C 580.073 1.07619 4.14249 0
M  V30 6320 C 579.399 0.342907 5.33599 0
M  V30 6321 C 580.699 2.41268 4.63235 0
M  V30 6322 H 582.393 1.62365 2.51551 0
M  V30 6323 H 579.939 0.782125 1.20908 0
M  V30 6324 H 581.892 -0.125665 4.21213 0
M  V30 6325 H 580.616 -0.797971 3.16702 0
M  V30 6326 H 579.275 1.31944 3.42033 0
M  V30 6327 H 578.923 -0.59129 4.99513 0
M  V30 6328 H 578.623 0.971955 5.79506 0
M  V30 6329 H 580.147 0.0926538 6.1053 0
M  V30 6330 H 581.561 2.21232 5.28894 0
M  V30 6331 H 579.958 2.9983 5.19829 0
M  V30 6332 H 581.028 3.03079 3.78512 0
M  V30 6333 N 582.371 -1.3172 0.865308 0
M  V30 6334 C 583.334 -2.26918 0.322627 0
M  V30 6335 C 584.334 -1.52031 -0.523751 0
M  V30 6336 O 585.524 -1.70973 -0.333727 0
M  V30 6337 C 582.656 -3.36558 -0.542338 0
M  V30 6338 H 583.849 -2.76432 1.16298 0
M  V30 6339 H 581.402 -1.42573 0.640512 0
M  V30 6340 H 582.137 -2.92329 -1.40407 0
M  V30 6341 H 581.922 -3.92048 0.0636395 0
M  V30 6342 H 583.412 -4.07465 -0.91446 0
M  V30 6343 N 583.85 -0.624285 -1.44708 0
M  V30 6344 C 584.779 0.0717025 -2.3339 0
M  V30 6345 C 585.76 0.841814 -1.47809 0
M  V30 6346 O 586.946 0.809056 -1.76544 0
M  V30 6347 C 584.076 1.05852 -3.30776 0
M  V30 6348 C 583.029 0.400503 -4.26122 0
M  V30 6349 C 582.356 1.49674 -5.13324 0
M  V30 6350 C 583.656 -0.688924 -5.17737 0
M  V30 6351 H 585.35 -0.668819 -2.91834 0
M  V30 6352 H 582.896 -0.32308 -1.40329 0
M  V30 6353 H 584.849 1.5541 -3.91696 0
M  V30 6354 H 583.572 1.82984 -2.70526 0
M  V30 6355 H 582.231 -0.0743687 -3.66525 0
M  V30 6356 H 581.88 2.25877 -4.49431 0
M  V30 6357 H 581.58 1.06188 -5.77926 0
M  V30 6358 H 583.104 1.99427 -5.77115 0
M  V30 6359 H 584.518 -0.276724 -5.72632 0
M  V30 6360 H 582.915 -1.04652 -5.90904 0
M  V30 6361 H 583.985 -1.55884 -4.5916 0
M  V30 6362 N 585.328 1.53329 -0.364422 0
M  V30 6363 C 586.553 2.06132 0.229033 0
M  V30 6364 C 586.978 1.23625 1.41769 0
M  V30 6365 O 586.336 0.255038 1.79497 0
M  V30 6366 C 586.384 3.55544 0.60174 0
M  V30 6367 O 585.488 3.75771 1.69912 0
M  V30 6368 H 584.829 0.663148 0.0336213 0
M  V30 6369 H 587.359 1.97758 -0.524689 0
M  V30 6370 H 587.369 3.98549 0.873073 0
M  V30 6371 H 586.044 4.15039 -0.267421 0
M  V30 6372 H 584.621 3.44663 1.42343 0
M  V30 6373 N 586.806 0.0935595 1.57322 0
M  V30 6374 C 588.031 -0.582324 1.99057 0
M  V30 6375 C 588.456 -1.61025 0.972242 0
M  V30 6376 O 587.814 -1.81202 -0.0594622 0
M  V30 6377 C 587.862 -1.20799 3.39765 0
M  V30 6378 O 586.966 -2.32382 3.40694 0
M  V30 6379 H 586.307 -0.147884 0.647323 0
M  V30 6380 H 588.837 0.174516 2.03854 0
M  V30 6381 H 588.847 -1.54966 3.77425 0
M  V30 6382 H 587.522 -0.454914 4.13405 0
M  V30 6383 H 586.099 -1.99845 3.14827 0
M  V30 6384 N 588.284 -1.56567 -0.180126 0
M  V30 6385 C 589.532 -1.81133 -0.896392 0
M  V30 6386 C 589.853 -0.669114 -1.83161 0
M  V30 6387 O 589.123 0.311616 -1.93406 0
M  V30 6388 H 587.703 -0.668172 -0.333999 0
M  V30 6389 H 590.365 -1.94048 -0.182051 0
M  V30 6390 H 589.461 -2.74854 -1.47857 0
M  V30 6391 N 589.762 0.448376 -1.51087 0
M  V30 6392 C 590.987 1.22605 -1.6728 0
M  V30 6393 C 591.412 1.84524 -0.365045 0
M  V30 6394 O 590.77 1.6832 0.673642 0
M  V30 6395 C 590.818 2.29393 -2.78229 0
M  V30 6396 O 589.922 3.34608 -2.41063 0
M  V30 6397 H 589.263 0.359705 -0.558129 0
M  V30 6398 H 591.793 0.530903 -1.97592 0
M  V30 6399 H 591.803 2.74352 -3.01986 0
M  V30 6400 H 590.478 1.83701 -3.73131 0
M  V30 6401 H 589.055 2.95202 -2.27838 0
M  V30 6402 N 591.24 1.41047 0.703093 0
M  V30 6403 C 592.656 1.23351 1.01275 0
M  V30 6404 C 592.856 0.11754 2.01157 0
M  V30 6405 O 591.912 -0.520518 2.47077 0
M  V30 6406 C 593.225 2.58001 1.54454 0
M  V30 6407 C 594.773 2.65119 1.66376 0
M  V30 6408 C 595.248 4.00067 2.22958 0
M  V30 6409 N 596.739 4.01875 2.30328 0
M  V30 6410 C 597.474 5.03087 2.75119 0
M  V30 6411 N 596.97 6.14692 3.19571 0
M  V30 6412 N 598.763 4.90451 2.74616 0
M  V30 6413 H 590.914 2.1236 0.0412686 0
M  V30 6414 H 593.177 0.944543 0.08089 0
M  V30 6415 H 592.883 3.40378 0.88521 0
M  V30 6416 H 592.757 2.79962 2.52786 0
M  V30 6417 H 595.144 1.83106 2.31422 0
M  V30 6418 H 595.225 2.46975 0.666089 0
M  V30 6419 H 594.869 4.82526 1.58529 0
M  V30 6420 H 594.799 4.15547 3.23462 0
M  V30 6421 H 597.29 3.21291 1.98949 0
M  V30 6422 H 597.603 6.87799 3.52352 0
M  V30 6423 H 595.948 6.18239 3.17498 0
M  V30 6424 H 599.139 4.0235 2.39233 0
M  V30 6425 H 599.312 5.6947 3.09206 0
M  V30 6426 N 592.718 -0.936591 1.26751 0
M  V30 6427 C 593.665 -2.03597 1.08706 0
M  V30 6428 C 594.635 -1.66097 -0.00926542 0
M  V30 6429 O 595.82 -1.90199 0.151377 0
M  V30 6430 C 592.96 -3.3727 0.73094 0
M  V30 6431 C 592.073 -3.87778 1.90399 0
M  V30 6432 C 591.208 -5.09859 1.49056 0
M  V30 6433 C 590.247 -5.5264 2.63164 0
M  V30 6434 N 589.384 -6.65921 2.22471 0
M  V30 6435 H 594.224 -2.18364 2.02784 0
M  V30 6436 H 591.761 -1.06985 1.00958 0
M  V30 6437 H 593.719 -4.14128 0.505328 0
M  V30 6438 H 592.349 -3.22337 -0.172868 0
M  V30 6439 H 591.401 -3.07279 2.2424 0
M  V30 6440 H 592.713 -4.15464 2.76028 0
M  V30 6441 H 591.867 -5.9419 1.22567 0
M  V30 6442 H 590.606 -4.8393 0.60524 0
M  V30 6443 H 589.611 -4.66863 2.90377 0
M  V30 6444 H 590.836 -5.80568 3.52303 0
M  V30 6445 H 588.782 -6.41667 1.36379 0
M  V30 6446 H 588.699 -6.93216 3.01641 0
M  V30 6447 H 589.967 -7.53616 1.99205 0
M  V30 6448 N 594.196 -1.08629 -1.14182 0
M  V30 6449 C 595.159 -0.722027 -2.1753 0
M  V30 6450 C 596.159 0.244305 -1.58933 0
M  V30 6451 O 597.349 0.0235545 -1.74184 0
M  V30 6452 C 594.481 -0.0663966 -3.40835 0
M  V30 6453 H 595.674 -1.63719 -2.51269 0
M  V30 6454 H 593.227 -0.884442 -1.28869 0
M  V30 6455 H 593.962 0.860389 -3.12678 0
M  V30 6456 H 593.747 -0.761598 -3.84632 0
M  V30 6457 H 595.237 0.173346 -4.1724 0
M  V30 6458 N 595.674 1.31259 -0.872281 0
M  V30 6459 C 596.899 2.0133 -0.498099 0
M  V30 6460 C 597.324 1.65031 0.902568 0
M  V30 6461 O 596.682 0.860164 1.59596 0
M  V30 6462 C 596.73 3.54411 -0.665205 0
M  V30 6463 O 595.834 4.11347 0.294473 0
M  V30 6464 H 595.175 0.633844 -0.197832 0
M  V30 6465 H 597.705 1.67402 -1.17633 0
M  V30 6466 H 597.715 4.04147 -0.559373 0
M  V30 6467 H 596.39 3.80171 -1.68651 0
M  V30 6468 H 594.967 3.72624 0.143403 0
M  V30 6469 N 597.152 0.631951 1.44375 0
M  V30 6470 C 598.115 -0.0628142 2.29114 0
M  V30 6471 C 599.115 -0.771494 1.41084 0
M  V30 6472 O 600.305 -0.615959 1.62947 0
M  V30 6473 C 597.437 -1.09953 3.22681 0
M  V30 6474 H 598.63 0.682509 2.92031 0
M  V30 6475 H 596.183 0.392128 1.51301 0
M  V30 6476 H 596.918 -1.87481 2.64616 0
M  V30 6477 H 596.703 -0.595286 3.87555 0
M  V30 6478 H 598.193 -1.58538 3.86336 0
M  V30 6479 N 598.631 -1.53133 0.372548 0
M  V30 6480 C 599.877 -2.01654 -0.215277 0
M  V30 6481 C 600.21 -1.25914 -1.47849 0
M  V30 6482 O 599.485 -0.3548 -1.91237 0
M  V30 6483 C 599.768 -3.56609 -0.500187 0
M  V30 6484 C 599.621 -4.43036 0.777145 0
M  V30 6485 C 600.94 -4.20528 -1.29786 0
M  V30 6486 H 598.059 -0.732991 -0.0767686 0
M  V30 6487 H 600.701 -1.83335 0.498814 0
M  V30 6488 H 598.851 -3.7235 -1.10852 0
M  V30 6489 H 600.523 -4.39079 1.41447 0
M  V30 6490 H 598.766 -4.10723 1.39604 0
M  V30 6491 H 599.437 -5.49424 0.532662 0
M  V30 6492 H 601.913 -4.08663 -0.783198 0
M  V30 6493 H 600.789 -5.28962 -1.46596 0
M  V30 6494 H 601.05 -3.77051 -2.30836 0
M  V30 6495 N 600.109 -0.101901 -1.5727 0
M  V30 6496 C 601.357 0.559091 -1.94213 0
M  V30 6497 C 601.678 1.68297 -0.984948 0
M  V30 6498 O 600.948 1.95863 -0.0381975 0
M  V30 6499 H 599.528 0.20952 -0.717015 0
M  V30 6500 H 602.19 -0.166831 -1.94185 0
M  V30 6501 H 601.286 0.96485 -2.96811 0
M  V30 6502 N 601.587 1.56661 0.17182 0
M  V30 6503 C 602.864 1.72838 0.915778 0
M  V30 6504 C 603.244 0.66316 2.00413 0
M  V30 6505 O 602.592 -0.322123 2.26218 0
M  V30 6506 C 602.802 3.16019 1.48097 0
M  V30 6507 C 604.15 3.76962 1.95408 0
M  V30 6508 O 605.174 3.19294 1.57892 0
M  V30 6509 O 604.033 4.78219 2.64516 0
M  V30 6510 H 601.127 0.705797 0.431021 0
M  V30 6511 H 603.673 1.68947 0.159689 0
M  V30 6512 H 602.445 3.85031 0.697618 0
M  V30 6513 H 602.068 3.24234 2.30126 0
M  V30 6514 N 603.065 -0.440357 1.51323 0
M  V30 6515 C 604.311 -1.19181 1.64085 0
M  V30 6516 C 604.644 -1.90936 0.354575 0
M  V30 6517 O 603.919 -1.8347 -0.645675 0
M  V30 6518 C 604.202 -2.2112 2.84215 0
M  V30 6519 C 604.055 -1.53468 4.22809 0
M  V30 6520 C 605.374 -3.22133 2.99864 0
M  V30 6521 H 602.493 -0.431924 0.597169 0
M  V30 6522 H 605.135 -0.481443 1.83799 0
M  V30 6523 H 603.285 -2.81703 2.67537 0
M  V30 6524 H 604.957 -0.962455 4.51148 0
M  V30 6525 H 603.2 -0.837086 4.25647 0
M  V30 6526 H 603.871 -2.27694 5.02852 0
M  V30 6527 H 606.347 -2.71601 3.15233 0
M  V30 6528 H 605.223 -3.90756 3.85488 0
M  V30 6529 H 605.484 -3.88061 2.11804 0
M  V30 6530 N 604.543 -1.41418 -0.695603 0
M  V30 6531 C 605.789 -1.40982 -1.4578 0
M  V30 6532 C 606.122 -0.0187763 -1.94191 0
M  V30 6533 O 605.397 0.95346 -1.69527 0
M  V30 6534 C 605.68 -2.41657 -2.66972 0
M  V30 6535 C 605.533 -3.89869 -2.24327 0
M  V30 6536 C 606.852 -2.39589 -3.69168 0
M  V30 6537 H 603.971 -0.513405 -0.528757 0
M  V30 6538 H 606.613 -1.72693 -0.792275 0
M  V30 6539 H 604.763 -2.14746 -3.23754 0
M  V30 6540 H 606.435 -4.27683 -1.72872 0
M  V30 6541 H 604.678 -4.04737 -1.56111 0
M  V30 6542 H 605.349 -4.55857 -3.11285 0
M  V30 6543 H 607.825 -2.63471 -3.2206 0
M  V30 6544 H 606.701 -3.12044 -4.51575 0
M  V30 6545 H 606.962 -1.41447 -4.18862 0
M  V30 6546 N 606.021 0.929856 -1.27246 0
M  V30 6547 C 606.969 2.05151 -1.09616 0
M  V30 6548 C 607.963 1.69388 -0.0198617 0
M  V30 6549 O 609.169 1.79124 -0.177417 0
M  V30 6550 H 605.544 0.671909 -0.337701 0
M  V30 6551 H 607.515 2.17168 -2.04648 0
M  V30 6552 C 606.264 3.3934 -0.757851 0
M  V30 6553 H 605.587 3.67343 -1.57795 0
M  V30 6554 H 607.027 4.18603 -0.674358 0
M  V30 6555 C 605.486 3.32582 0.537658 0
M  V30 6556 O 606.016 3.69633 1.57271 0
M  V30 6557 N 604.222 2.8568 0.532478 0
M  V30 6558 H 603.769 2.55725 -0.310233 0
M  V30 6559 H 603.727 2.81541 1.39936 0
M  V30 6560 N 607.499 1.09233 1.13605 0
M  V30 6561 C 608.429 0.751738 2.21068 0
M  V30 6562 C 609.41 -0.269688 1.67948 0
M  V30 6563 O 610.595 -0.13819 1.93708 0
M  V30 6564 C 607.725 0.16935 3.46887 0
M  V30 6565 C 606.679 1.12007 4.13084 0
M  V30 6566 C 606.005 0.399483 5.33206 0
M  V30 6567 C 607.305 2.46168 4.6065 0
M  V30 6568 H 608.999 1.65024 2.49815 0
M  V30 6569 H 606.545 0.794905 1.20072 0
M  V30 6570 H 608.498 -0.0809824 4.21322 0
M  V30 6571 H 607.222 -0.764335 3.1753 0
M  V30 6572 H 605.881 1.35564 3.40614 0
M  V30 6573 H 605.529 -0.538277 5.00112 0
M  V30 6574 H 605.229 1.03337 5.78442 0
M  V30 6575 H 606.753 0.157403 6.10397 0
M  V30 6576 H 608.167 2.26829 5.26518 0
M  V30 6577 H 606.564 3.05326 5.1662 0
M  V30 6578 H 607.634 3.07076 3.75276 0
M  V30 6579 N 608.977 -1.30795 0.87923 0
M  V30 6580 C 610.223 -1.96653 0.495519 0
M  V30 6581 C 610.556 -1.69282 -0.951703 0
M  V30 6582 O 609.831 -0.994374 -1.6716 0
M  V30 6583 C 610.114 -3.51898 0.764174 0
M  V30 6584 C 609.967 -3.88808 2.2616 0
M  V30 6585 C 611.286 -4.39462 0.236825 0
M  V30 6586 H 608.405 -0.7143 0.181507 0
M  V30 6587 H 611.047 -1.54765 1.10217 0
M  V30 6588 H 609.197 -3.87709 0.247841 0
M  V30 6589 H 610.869 -3.63051 2.8459 0
M  V30 6590 H 609.112 -3.37082 2.73053 0
M  V30 6591 H 609.783 -4.97086 2.4002 0
M  V30 6592 H 612.259 -4.10528 0.678683 0
M  V30 6593 H 611.135 -5.47018 0.454176 0
M  V30 6594 H 611.396 -4.33621 -0.861683 0
M  V30 6595 N 610.455 -0.639598 -1.44038 0
M  V30 6596 C 611.68 -0.153117 -2.06834 0
M  V30 6597 C 612.105 1.16676 -1.47541 0
M  V30 6598 O 611.463 1.71769 -0.580093 0
M  V30 6599 C 611.511 -0.0609169 -3.60549 0
M  V30 6600 O 610.615 0.98071 -4.00569 0
M  V30 6601 H 609.956 -0.0886402 -0.658057 0
M  V30 6602 H 612.486 -0.878674 -1.84771 0
M  V30 6603 H 612.496 0.126892 -4.07803 0
M  V30 6604 H 611.171 -1.0245 -4.03084 0
M  V30 6605 H 609.748 0.766789 -3.64931 0
M  V30 6606 N 611.933 1.52934 -0.380664 0
M  V30 6607 C 613.179 2.01765 0.20458 0
M  V30 6608 C 613.512 1.26696 1.47179 0
M  V30 6609 O 612.787 0.364936 1.91046 0
M  V30 6610 C 613.07 3.56869 0.481269 0
M  V30 6611 C 612.923 4.42617 -0.800629 0
M  V30 6612 C 614.242 4.2121 1.27554 0
M  V30 6613 H 611.361 0.733388 0.0728803 0
M  V30 6614 H 614.003 1.83068 -0.50853 0
M  V30 6615 H 612.153 3.72932 1.08875 0
M  V30 6616 H 613.825 4.38323 -1.43773 0
M  V30 6617 H 612.068 4.09977 -1.4178 0
M  V30 6618 H 612.739 5.49134 -0.561791 0
M  V30 6619 H 615.215 4.09072 0.761514 0
M  V30 6620 H 614.091 5.29732 1.43788 0
M  V30 6621 H 614.352 3.78269 2.28833 0
M  V30 6622 N 613.412 0.11024 1.57214 0
M  V30 6623 C 614.689 -0.592956 1.86396 0
M  V30 6624 C 615.069 -1.85379 1.00985 0
M  V30 6625 O 614.417 -2.28337 0.0863592 0
M  V30 6626 C 614.627 -0.893816 3.3736 0
M  V30 6627 C 615.975 -1.25069 4.05762 0
M  V30 6628 O 616.999 -0.984356 3.42329 0
M  V30 6629 O 615.858 -1.75017 5.17718 0
M  V30 6630 H 612.952 -0.29828 0.771335 0
M  V30 6631 H 615.498 0.144083 1.69087 0
M  V30 6632 H 614.27 2.6031e-05 3.913 0
M  V30 6633 H 613.893 -1.68631 3.60068 0
M  V30 6634 N 614.89 -1.56749 -0.16351 0
M  V30 6635 C 616.136 -1.82704 -0.880168 0
M  V30 6636 C 616.469 -0.689311 -1.81555 0
M  V30 6637 O 615.744 0.308224 -1.92042 0
M  V30 6638 C 616.027 -3.19084 -1.66905 0
M  V30 6639 C 615.88 -4.43397 -0.756269 0
M  V30 6640 C 617.199 -3.52493 -2.63509 0
M  V30 6641 H 614.318 -0.664608 -0.318535 0
M  V30 6642 H 616.96 -1.89438 -0.146036 0
M  V30 6643 H 615.11 -3.13475 -2.2949 0
M  V30 6644 H 616.782 -4.61079 -0.14269 0
M  V30 6645 H 615.025 -4.33752 -0.0647944 0
M  V30 6646 H 615.696 -5.3539 -1.34393 0
M  V30 6647 H 618.172 -3.58606 -2.11047 0
M  V30 6648 H 617.048 -4.48979 -3.15767 0
M  V30 6649 H 617.309 -2.77597 -3.44082 0
M  V30 6650 N 616.368 0.432326 -1.51554 0
M  V30 6651 C 617.3 1.54357 -1.6943 0
M  V30 6652 C 618.313 1.52311 -0.574897 0
M  V30 6653 O 619.502 1.56997 -0.849369 0
M  V30 6654 C 616.602 2.93273 -1.69836 0
M  V30 6655 C 615.775 3.19768 -2.98442 0
M  V30 6656 C 614.834 4.38433 -2.90969 0
M  V30 6657 O 613.86 4.36842 -3.64908 0
M  V30 6658 N 615.062 5.42276 -2.07163 0
M  V30 6659 H 617.827 1.39426 -2.65293 0
M  V30 6660 H 615.388 0.621331 -1.49503 0
M  V30 6661 H 617.38 3.70687 -1.62399 0
M  V30 6662 H 615.95 3.01777 -0.815456 0
M  V30 6663 H 615.17 2.30607 -3.19709 0
M  V30 6664 H 616.458 3.343 -3.83563 0
M  V30 6665 H 615.856 5.46407 -1.46477 0
M  V30 6666 H 614.413 6.18524 -2.05601 0
M  V30 6667 N 617.846 1.41785 0.688094 0
M  V30 6668 C 619.262 1.24419 0.999608 0
M  V30 6669 C 619.462 0.138868 2.01021 0
M  V30 6670 O 618.518 -0.494283 2.47615 0
M  V30 6671 C 619.831 2.59625 1.51709 0
M  V30 6672 C 621.379 2.66869 1.63554 0
M  V30 6673 C 621.854 4.0241 2.18702 0
M  V30 6674 N 623.345 4.04295 2.26053 0
M  V30 6675 C 624.08 5.05977 2.69768 0
M  V30 6676 N 623.576 6.18047 3.13033 0
M  V30 6677 N 625.369 4.93336 2.69398 0
M  V30 6678 H 617.52 2.12392 0.0187427 0
M  V30 6679 H 619.783 0.945347 0.0708673 0
M  V30 6680 H 619.489 3.41297 0.849059 0
M  V30 6681 H 619.363 2.82628 2.49803 0
M  V30 6682 H 621.75 1.8555 2.29467 0
M  V30 6683 H 621.831 2.47668 0.639857 0
M  V30 6684 H 621.475 4.8418 1.53402 0
M  V30 6685 H 621.405 4.18955 3.19037 0
M  V30 6686 H 623.896 3.23383 1.9553 0
M  V30 6687 H 624.209 6.91498 3.45038 0
M  V30 6688 H 622.554 6.21572 3.10923 0
M  V30 6689 H 625.745 4.04865 2.34952 0
M  V30 6690 H 625.918 5.72717 3.03148 0
M  V30 6691 N 619.324 -0.923095 1.27737 0
M  V30 6692 C 620.254 -2.04124 1.13383 0
M  V30 6693 C 621.235 -1.70066 0.0340658 0
M  V30 6694 O 622.42 -1.93068 0.209383 0
M  V30 6695 C 619.55 -3.3831 0.785097 0
M  V30 6696 C 618.504 -3.86496 1.8386 0
M  V30 6697 C 617.83 -5.1754 1.34373 0
M  V30 6698 C 619.13 -4.09381 3.24353 0
M  V30 6699 H 620.824 -2.1639 2.06919 0
M  V30 6700 H 618.37 -1.03976 0.996243 0
M  V30 6701 H 620.323 -4.16016 0.671485 0
M  V30 6702 H 619.047 -3.2607 -0.185969 0
M  V30 6703 H 617.706 -3.10987 1.9412 0
M  V30 6704 H 617.354 -5.01696 0.361989 0
M  V30 6705 H 617.054 -5.50751 2.04811 0
M  V30 6706 H 618.578 -5.97811 1.24315 0
M  V30 6707 H 619.992 -4.77641 3.17067 0
M  V30 6708 H 618.389 -4.53906 3.92542 0
M  V30 6709 H 619.459 -3.14515 3.69064 0
M  V30 6710 N 620.802 -1.09834 -1.13024 0
M  V30 6711 C 622.03 -0.858902 -1.8823 0
M  V30 6712 C 622.445 0.590164 -1.79339 0
M  V30 6713 O 621.802 1.4065 -1.16292 0
M  V30 6714 C 621.853 -1.29066 -3.37675 0
M  V30 6715 O 621.574 -2.6829 -3.46341 0
M  V30 6716 C 623.075 -1.08421 -4.29837 0
M  V30 6717 H 620.295 -0.308713 -0.595766 0
M  V30 6718 H 622.839 -1.4614 -1.4305 0
M  V30 6719 H 620.994 -0.731961 -3.80422 0
M  V30 6720 H 621.408 -2.86598 -4.39274 0
M  V30 6721 H 622.882 -1.43553 -5.33007 0
M  V30 6722 H 623.359 -0.0223315 -4.39194 0
M  V30 6723 H 623.965 -1.62907 -3.92863 0
M  V30 6724 N 622.28 1.30327 -0.886154 0
M  V30 6725 C 623.19 2.31854 -0.357866 0
M  V30 6726 C 624.206 1.65392 0.540502 0
M  V30 6727 O 625.382 1.96683 0.433339 0
M  V30 6728 C 622.447 3.44171 0.417999 0
M  V30 6729 C 621.508 4.26257 -0.510263 0
M  V30 6730 C 620.741 5.3321 0.228669 0
M  V30 6731 O 620.964 5.51542 1.45458 0
M  V30 6732 O 619.898 6.0042 -0.421832 0
M  V30 6733 H 623.724 2.78995 -1.19982 0
M  V30 6734 H 621.309 1.34518 -0.650028 0
M  V30 6735 H 623.191 4.12588 0.857251 0
M  V30 6736 H 621.866 2.99164 1.23623 0
M  V30 6737 H 620.773 3.60533 -0.99835 0
M  V30 6738 H 622.106 4.74871 -1.29454 0
M  V30 6739 N 623.758 0.647228 1.43697 0
M  V30 6740 C 624.983 0.164083 2.0675 0
M  V30 6741 C 625.408 -1.15892 1.48158 0
M  V30 6742 O 624.766 -1.71459 0.589194 0
M  V30 6743 C 624.814 0.0800368 3.60511 0
M  V30 6744 O 623.918 -0.959453 4.01084 0
M  V30 6745 H 623.259 0.0921288 0.657578 0
M  V30 6746 H 625.789 0.88846 1.84303 0
M  V30 6747 H 625.799 -0.105263 4.07864 0
M  V30 6748 H 624.474 1.04586 4.02535 0
M  V30 6749 H 623.051 -0.747425 3.65333 0
M  V30 6750 N 625.236 -1.5273 0.388769 0
M  V30 6751 C 626.482 -2.01871 -0.193877 0
M  V30 6752 C 626.815 -1.27475 -1.46505 0
M  V30 6753 O 626.09 -0.375063 -1.90849 0
M  V30 6754 C 626.373 -3.5712 -0.462336 0
M  V30 6755 C 626.226 -4.42186 0.824091 0
M  V30 6756 C 627.545 -4.21881 -1.25319 0
M  V30 6757 H 624.664 -0.733764 -0.0689899 0
M  V30 6758 H 627.306 -1.82796 0.518231 0
M  V30 6759 H 625.456 -3.73504 -1.06896 0
M  V30 6760 H 627.128 -4.37554 1.46096 0
M  V30 6761 H 625.371 -4.09219 1.43952 0
M  V30 6762 H 626.042 -5.48828 0.590905 0
M  V30 6763 H 628.518 -4.0947 -0.73981 0
M  V30 6764 H 627.394 -5.30487 -1.40977 0
M  V30 6765 H 627.655 -3.79478 -2.26824 0
M  V30 6766 N 626.714 -0.118576 -1.57153 0
M  V30 6767 C 627.644 0.828436 -2.1831 0
M  V30 6768 C 628.625 1.27758 -1.12303 0
M  V30 6769 O 629.81 1.34026 -1.40537 0
M  V30 6770 C 626.94 2.07876 -2.78217 0
M  V30 6771 C 625.894 1.76742 -3.89803 0
M  V30 6772 C 625.22 3.08801 -4.36516 0
M  V30 6773 C 626.52 1.03606 -5.11921 0
M  V30 6774 H 628.214 0.318824 -2.97698 0
M  V30 6775 H 625.76 0.151911 -1.43196 0
M  V30 6776 H 627.713 2.74584 -3.19659 0
M  V30 6777 H 626.437 2.61161 -1.96118 0
M  V30 6778 H 625.096 1.12424 -3.48936 0
M  V30 6779 H 624.744 3.6002 -3.51276 0
M  V30 6780 H 624.444 2.88743 -5.11763 0
M  V30 6781 H 625.968 3.76627 -4.80608 0
M  V30 6782 H 627.382 1.60467 -5.50385 0
M  V30 6783 H 625.779 0.936454 -5.92748 0
M  V30 6784 H 626.849 0.0227421 -4.84895 0
M  V30 6785 N 628.193 1.56834 0.155195 0
M  V30 6786 C 629.423 1.86778 0.883044 0
M  V30 6787 C 629.831 0.703824 1.75622 0
M  V30 6788 O 629.174 -0.33581 1.80605 0
M  V30 6789 C 629.236 3.1133 1.79761 0
M  V30 6790 C 628.9 4.43504 1.10242 0
M  V30 6791 C 629.897 5.17859 0.460204 0
M  V30 6792 C 627.582 4.90233 1.09437 0
M  V30 6793 C 629.576 6.37144 -0.180782 0
M  V30 6794 C 627.263 6.09444 0.449569 0
M  V30 6795 C 628.261 6.82744 -0.186888 0
M  V30 6796 O 627.949 7.99692 -0.821486 0
M  V30 6797 H 627.681 0.62352 0.261149 0
M  V30 6798 H 630.235 2.04813 0.155204 0
M  V30 6799 H 628.465 2.89282 2.56618 0
M  V30 6800 H 630.154 3.27587 2.39669 0
M  V30 6801 H 630.92 4.8283 0.458289 0
M  V30 6802 H 626.799 4.33109 1.57917 0
M  V30 6803 H 630.343 6.94296 -0.678154 0
M  V30 6804 H 626.24 6.43936 0.449123 0
M  V30 6805 H 627.008 8.15306 -0.722337 0
M  V30 6806 N 629.671 -0.424282 1.51781 0
M  V30 6807 C 630.601 -1.52305 1.7699 0
M  V30 6808 C 631.582 -1.5839 0.620209 0
M  V30 6809 O 632.767 -1.73908 0.864268 0
M  V30 6810 C 629.897 -2.90271 1.90683 0
M  V30 6811 C 628.851 -2.99043 3.06198 0
M  V30 6812 C 628.177 -4.39116 3.05092 0
M  V30 6813 C 629.477 -2.7192 4.45934 0
M  V30 6814 H 631.171 -1.31461 2.68995 0
M  V30 6815 H 628.717 -0.630985 1.29439 0
M  V30 6816 H 630.67 -3.6711 2.06901 0
M  V30 6817 H 629.394 -3.12376 0.953365 0
M  V30 6818 H 628.053 -2.24646 2.89706 0
M  V30 6819 H 627.701 -4.58207 2.07498 0
M  V30 6820 H 627.401 -4.45912 3.82669 0
M  V30 6821 H 628.925 -5.17911 3.2342 0
M  V30 6822 H 630.339 -3.38487 4.62709 0
M  V30 6823 H 628.736 -2.90111 5.25315 0
M  V30 6824 H 629.806 -1.67445 4.55072 0
M  V30 6825 N 631.149 -1.42148 -0.680565 0
M  V30 6826 C 632.097 -1.45401 -1.81552 0
M  V30 6827 C 633.091 -0.33036 -1.66147 0
M  V30 6828 O 634.297 -0.503103 -1.72826 0
M  V30 6829 H 630.672 -0.455265 -0.59853 0
M  V30 6830 H 632.643 -2.41024 -1.75926 0
M  V30 6831 C 631.392 -1.36769 -3.19671 0
M  V30 6832 H 630.715 -2.22525 -3.32149 0
M  V30 6833 H 632.155 -1.43106 -3.9912 0
M  V30 6834 C 630.614 -0.0817752 -3.36801 0
M  V30 6835 O 631.144 0.867707 -3.92216 0
M  V30 6836 N 629.35 -0.000799811 -2.906 0
M  V30 6837 H 628.897 -0.774231 -2.4569 0
M  V30 6838 H 628.855 0.858961 -3.02439 0
M  V30 6839 N 632.627 0.916307 -1.28225 0
M  V30 6840 C 633.875 1.6619 -1.15002 0
M  V30 6841 C 634.196 1.92642 0.302329 0
M  V30 6842 O 633.466 1.54076 1.20985 0
M  V30 6843 H 632.046 0.615964 -0.422608 0
M  V30 6844 H 634.708 1.09963 -1.60917 0
M  V30 6845 H 633.804 2.62533 -1.68769 0
M  V30 6846 N 634.105 1.10431 1.1244 0
M  V30 6847 C 635.035 0.775143 2.20258 0
M  V30 6848 C 636.016 -0.25186 1.68225 0
M  V30 6849 O 637.201 -0.117637 1.93843 0
M  V30 6850 C 634.331 0.206133 3.46688 0
M  V30 6851 C 633.285 1.16382 4.11873 0
M  V30 6852 C 632.611 0.456014 5.32752 0
M  V30 6853 C 633.911 2.5104 4.58013 0
M  V30 6854 H 635.605 1.67665 2.4805 0
M  V30 6855 H 633.151 0.807595 1.19222 0
M  V30 6856 H 635.104 -0.036291 4.21384 0
M  V30 6857 H 633.828 -0.730614 3.18323 0
M  V30 6858 H 632.487 1.39169 3.39157 0
M  V30 6859 H 632.135 -0.485203 5.00654 0
M  V30 6860 H 631.835 1.09466 5.77314 0
M  V30 6861 H 633.359 0.222135 6.10196 0
M  V30 6862 H 634.773 2.32401 5.24083 0
M  V30 6863 H 633.17 3.10789 5.13352 0
M  V30 6864 H 634.24 3.11039 3.71998 0
M  V30 6865 N 635.583 -1.29855 0.893053 0
M  V30 6866 C 636.829 -1.96488 0.52574 0
M  V30 6867 C 637.184 -1.69164 -0.916594 0
M  V30 6868 O 636.477 -0.990405 -1.64017 0
M  V30 6869 C 636.671 -3.49515 0.746588 0
M  V30 6870 C 636.5 -3.91715 2.20884 0
M  V30 6871 C 635.27 -4.16915 2.85499 0
M  V30 6872 C 637.468 -4.03934 3.18342 0
M  V30 6873 N 635.45 -4.45634 4.22236 0
M  V30 6874 C 636.821 -4.36629 4.40176 0
M  V30 6875 C 638.876 -3.86387 3.14021 0
M  V30 6876 C 637.579 -4.53605 5.58243 0
M  V30 6877 C 639.605 -4.04569 4.31367 0
M  V30 6878 C 638.967 -4.37617 5.5197 0
M  V30 6879 H 635.066 -0.743657 0.241863 0
M  V30 6880 H 637.65 -1.56927 1.15248 0
M  V30 6881 H 635.821 -3.88113 0.149281 0
M  V30 6882 H 637.553 -4.03224 0.345372 0
M  V30 6883 H 634.308 -4.10423 2.36326 0
M  V30 6884 H 634.732 -4.64114 4.92876 0
M  V30 6885 H 639.374 -3.59906 2.21873 0
M  V30 6886 H 637.092 -4.78925 6.50889 0
M  V30 6887 H 640.678 -3.92452 4.29503 0
M  V30 6888 H 639.558 -4.51395 6.41258 0
M  V30 6889 N 637.061 -0.65484 -1.43351 0
M  V30 6890 C 637.991 0.0221809 -2.33489 0
M  V30 6891 C 638.972 0.810272 -1.49561 0
M  V30 6892 O 640.157 0.771426 -1.78221 0
M  V30 6893 C 637.287 0.988117 -3.32947 0
M  V30 6894 C 636.241 0.310026 -4.26876 0
M  V30 6895 C 635.567 1.38752 -5.16384 0
M  V30 6896 C 636.867 -0.798589 -5.16159 0
M  V30 6897 H 638.561 -0.730571 -2.9035 0
M  V30 6898 H 636.107 -0.352773 -1.39612 0
M  V30 6899 H 638.06 1.47067 -3.94904 0
M  V30 6900 H 636.784 1.77205 -2.74346 0
M  V30 6901 H 635.443 -0.152097 -3.66284 0
M  V30 6902 H 635.091 2.16293 -4.54121 0
M  V30 6903 H 634.791 0.939051 -5.80048 0
M  V30 6904 H 636.315 1.87141 -5.81215 0
M  V30 6905 H 637.729 -0.398126 -5.71916 0
M  V30 6906 H 636.126 -1.17163 -5.88552 0
M  V30 6907 H 637.196 -1.65588 -4.55751 0
M  V30 6908 N 638.539 1.52521 -0.396863 0
M  V30 6909 C 639.95 1.86547 0.0754868 0
M  V30 6910 C 640.301 1.31621 1.45501 0
M  V30 6911 O 639.426 0.650563 2.0639 0
M  V30 6912 C 640.021 3.38495 0.143754 0
M  V30 6913 C 638.58 3.72205 0.560413 0
M  V30 6914 C 637.727 2.75954 -0.272856 0
M  V30 6915 H 640.678 1.46323 -0.614434 0
M  V30 6916 H 640.699 3.68153 0.961425 0
M  V30 6917 H 640.211 3.78442 -0.860415 0
M  V30 6918 H 638.312 3.3783 1.57167 0
M  V30 6919 H 638.425 4.78074 0.313314 0
M  V30 6920 H 636.789 2.53339 0.263 0
M  V30 6921 H 637.572 3.1874 -1.27515 0
M  V30 6922 N 640.017 0.126909 1.57088 0
M  V30 6923 C 640.947 -0.816847 2.18746 0
M  V30 6924 C 641.928 -1.27161 1.12979 0
M  V30 6925 O 643.113 -1.33279 1.41246 0
M  V30 6926 C 640.243 -2.06398 2.79315 0
M  V30 6927 C 639.197 -1.74673 3.90735 0
M  V30 6928 C 638.523 -3.06482 4.38147 0
M  V30 6929 C 639.823 -1.0089 5.12463 0
M  V30 6930 H 641.517 -0.303032 2.97863 0
M  V30 6931 H 639.063 -0.144314 1.43275 0
M  V30 6932 H 641.016 -2.72885 3.2111 0
M  V30 6933 H 639.74 -2.60118 1.975 0
M  V30 6934 H 638.399 -1.10572 3.49527 0
M  V30 6935 H 638.047 -3.58152 3.5318 0
M  V30 6936 H 637.747 -2.86025 5.13287 0
M  V30 6937 H 639.271 -3.74073 4.82599 0
M  V30 6938 H 640.685 -1.57546 5.51228 0
M  V30 6939 H 639.082 -0.905006 5.93237 0
M  V30 6940 H 640.152 0.00297335 4.849 0
M  V30 6941 N 641.495 -1.56914 -0.146875 0
M  V30 6942 C 642.741 -1.83628 -0.860741 0
M  V30 6943 C 643.074 -0.708528 -1.80813 0
M  V30 6944 O 642.349 0.287838 -1.92358 0
M  V30 6945 C 642.632 -3.20836 -1.63511 0
M  V30 6946 C 642.485 -4.44174 -0.709199 0
M  V30 6947 C 643.804 -3.55268 -2.59756 0
M  V30 6948 H 640.923 -0.667949 -0.311468 0
M  V30 6949 H 643.565 -1.89582 -0.125936 0
M  V30 6950 H 641.715 -3.15891 -2.26153 0
M  V30 6951 H 643.387 -4.61205 -0.0937781 0
M  V30 6952 H 641.63 -4.33796 -0.0187856 0
M  V30 6953 H 642.301 -5.36785 -1.28707 0
M  V30 6954 H 644.777 -3.60824 -2.07232 0
M  V30 6955 H 643.653 -4.52303 -3.10987 0
M  V30 6956 H 643.914 -2.81231 -3.41118 0
M  V30 6957 N 642.974 0.416227 -1.52004 0
M  V30 6958 C 644.22 1.16233 -1.66917 0
M  V30 6959 C 644.575 1.8839 -0.390763 0
M  V30 6960 O 643.868 1.81479 0.614478 0
M  V30 6961 C 644.062 2.18923 -2.82502 0
M  V30 6962 C 643.891 1.56849 -4.2146 0
M  V30 6963 C 642.661 1.34426 -4.87091 0
M  V30 6964 C 644.859 1.03322 -5.03815 0
M  V30 6965 N 642.841 0.681703 -6.10103 0
M  V30 6966 C 644.212 0.497165 -6.18003 0
M  V30 6967 C 646.267 0.926997 -4.89194 0
M  V30 6968 C 644.97 -0.134687 -7.19174 0
M  V30 6969 C 646.996 0.309009 -5.90592 0
M  V30 6970 C 646.358 -0.216399 -7.04068 0
M  V30 6971 H 642.457 0.412252 -0.664509 0
M  V30 6972 H 645.041 0.455758 -1.89291 0
M  V30 6973 H 643.212 2.86946 -2.61756 0
M  V30 6974 H 644.944 2.85844 -2.86488 0
M  V30 6975 H 641.699 1.61183 -4.45328 0
M  V30 6976 H 642.123 0.367256 -6.76003 0
M  V30 6977 H 646.765 1.31904 -4.01698 0
M  V30 6978 H 644.483 -0.538811 -8.06302 0
M  V30 6979 H 648.069 0.228438 -5.81351 0
M  V30 6980 H 646.949 -0.687064 -7.81184 0
M  V30 6981 N 644.452 1.42507 0.673017 0
M  V30 6982 C 645.701 1.42364 1.42883 0
M  V30 6983 C 646.014 0.0441598 1.9555 0
M  V30 6984 O 647.22 -0.0798679 2.71382 0
M  V30 6985 C 645.676 2.5043 2.58482 0
M  V30 6986 C 645.284 3.94392 2.12506 0
M  V30 6987 C 647.028 2.59455 3.35981 0
M  V30 6988 C 644.935 4.93964 3.25198 0
M  V30 6989 H 643.865 0.52951 0.536782 0
M  V30 6990 H 646.516 1.68422 0.728448 0
M  V30 6991 H 644.898 2.1754 3.30896 0
M  V30 6992 H 646.072 4.36645 1.47233 0
M  V30 6993 H 644.387 3.89233 1.4794 0
M  V30 6994 H 646.984 3.31025 4.19912 0
M  V30 6995 H 647.327 1.63869 3.82691 0
M  V30 6996 H 647.86 2.91549 2.70637 0
M  V30 6997 H 644.599 5.91034 2.83477 0
M  V30 6998 H 644.119 4.56341 3.89247 0
M  V30 6999 H 645.798 5.15763 3.90637 0
M  V30 7000 N 645.93 -0.909495 1.28709 0
M  V30 7001 C 647.176 -1.66151 1.16283 0
M  V30 7002 C 647.509 -1.92067 -0.287069 0
M  V30 7003 O 646.784 -1.52409 -1.20837 0
M  V30 7004 C 647.067 -3.01676 1.9663 0
M  V30 7005 C 646.92 -2.82888 3.49707 0
M  V30 7006 C 648.239 -4.02274 1.78504 0
M  V30 7007 H 645.358 -0.602966 0.423793 0
M  V30 7008 H 648 -1.05418 1.58073 0
M  V30 7009 H 646.15 -3.53515 1.61119 0
M  V30 7010 H 647.822 -2.38026 3.95147 0
M  V30 7011 H 646.065 -2.17862 3.75125 0
M  V30 7012 H 646.736 -3.79147 4.01187 0
M  V30 7013 H 649.212 -3.59511 2.09503 0
M  V30 7014 H 648.088 -4.95056 2.37088 0
M  V30 7015 H 648.349 -4.35903 0.737647 0
M  V30 7016 N 647.408 -1.11026 -1.11852 0
M  V30 7017 C 648.654 -0.857729 -1.83768 0
M  V30 7018 C 648.987 0.615143 -1.842 0
M  V30 7019 O 648.262 1.45391 -1.29196 0
M  V30 7020 C 648.545 -1.41453 -3.31154 0
M  V30 7021 C 648.398 -2.95471 -3.39142 0
M  V30 7022 C 649.717 -1.0619 -4.27097 0
M  V30 7023 H 646.836 -0.313044 -0.667212 0
M  V30 7024 H 649.478 -1.37443 -1.31185 0
M  V30 7025 H 647.628 -0.975052 -3.76065 0
M  V30 7026 H 649.3 -3.4799 -3.02821 0
M  V30 7027 H 647.543 -3.31759 -2.79497 0
M  V30 7028 H 648.214 -3.29515 -4.42859 0
M  V30 7029 H 650.69 -1.44122 -3.90344 0
M  V30 7030 H 649.566 -1.47832 -5.28618 0
M  V30 7031 H 649.827 0.0278912 -4.42091 0
M  V30 7032 N 648.886 1.2938 -0.899927 0
M  V30 7033 C 650.126 1.97332 -0.532871 0
M  V30 7034 C 650.49 1.69385 0.904029 0
M  V30 7035 O 651.691 2.30793 1.37797 0
M  V30 7036 C 649.962 3.47927 -0.817393 0
M  V30 7037 S 651.521 4.3528 -0.55468 0
M  V30 7038 H 648.339 0.682966 -0.197683 0
M  V30 7039 H 650.941 1.57189 -1.16241 0
M  V30 7040 H 649.645 3.65761 -1.86138 0
M  V30 7041 H 649.176 3.93006 -0.175978 0
M  V30 7042 H 651.191 4.92557 0.600182 0
M  V30 7043 N 650.364 0.662433 1.43002 0
M  V30 7044 C 651.611 0.179591 2.01702 0
M  V30 7045 C 651.939 -1.20964 1.52309 0
M  V30 7046 O 651.194 -1.82343 0.7106 0
M  V30 7047 C 651.493 0.149363 3.57088 0
M  V30 7048 C 651.159 1.48158 4.25864 0
M  V30 7049 C 649.821 1.84638 4.44367 0
M  V30 7050 C 652.173 2.35953 4.64732 0
M  V30 7051 C 649.501 3.08561 4.99006 0
M  V30 7052 C 651.853 3.59176 5.20745 0
M  V30 7053 C 650.517 3.95841 5.37463 0
M  V30 7054 H 649.787 0.0657172 0.73808 0
M  V30 7055 H 652.434 0.854968 1.71355 0
M  V30 7056 H 650.739 -0.609491 3.8703 0
M  V30 7057 H 652.436 -0.241241 4.00274 0
M  V30 7058 H 649.026 1.18777 4.11813 0
M  V30 7059 H 653.21 2.09058 4.50121 0
M  V30 7060 H 648.466 3.37005 5.10135 0
M  V30 7061 H 652.64 4.27417 5.49807 0
M  V30 7062 H 650.267 4.91942 5.79566 0
M  V30 7063 N 651.842 -1.52309 0.404946 0
M  V30 7064 C 653.088 -2.02065 -0.172455 0
M  V30 7065 C 653.421 -1.29022 -1.45145 0
M  V30 7066 O 652.696 -0.395284 -1.90441 0
M  V30 7067 C 652.979 -3.5759 -0.424433 0
M  V30 7068 C 652.832 -4.41287 0.870945 0
M  V30 7069 C 654.151 -4.23186 -1.20837 0
M  V30 7070 H 651.27 -0.734454 -0.0612035 0
M  V30 7071 H 653.912 -1.82236 0.53759 0
M  V30 7072 H 652.062 -3.74617 -1.02929 0
M  V30 7073 H 653.734 -4.3598 1.50729 0
M  V30 7074 H 651.977 -4.07669 1.48284 0
M  V30 7075 H 652.648 -5.48171 0.649083 0
M  V30 7076 H 655.124 -4.10232 -0.696338 0
M  V30 7077 H 654 -5.31953 -1.35343 0
M  V30 7078 H 654.261 -3.81862 -2.22786 0
M  V30 7079 N 653.32 -0.135238 -1.57019 0
M  V30 7080 C 654.55 0.525303 -1.9981 0
M  V30 7081 C 654.958 1.59724 -1.01415 0
M  V30 7082 O 654.301 1.837 -0.00130938 0
M  V30 7083 C 654.363 1.19578 -3.3903 0
M  V30 7084 C 654.027 0.269855 -4.56203 0
M  V30 7085 C 655.024 -0.497905 -5.1751 0
M  V30 7086 C 652.709 0.176188 -5.01991 0
M  V30 7087 C 654.703 -1.3469 -6.23007 0
M  V30 7088 C 652.39 -0.676422 -6.07345 0
M  V30 7089 C 653.388 -1.43658 -6.67721 0
M  V30 7090 O 653.076 -2.27501 -7.71037 0
M  V30 7091 H 652.808 0.142296 -0.660854 0
M  V30 7092 H 655.362 -0.223272 -2.04183 0
M  V30 7093 H 653.592 1.99176 -3.3146 0
M  V30 7094 H 655.281 1.75486 -3.66005 0
M  V30 7095 H 656.047 -0.435507 -4.83041 0
M  V30 7096 H 651.926 0.757583 -4.54733 0
M  V30 7097 H 655.47 -1.9407 -6.70062 0
M  V30 7098 H 651.367 -0.740154 -6.41243 0
M  V30 7099 H 652.135 -2.20619 -7.88206 0
M  V30 7100 N 654.798 1.5699 0.138552 0
M  V30 7101 C 655.728 2.01933 1.17241 0
M  V30 7102 C 656.709 0.90033 1.44319 0
M  V30 7103 O 657.894 1.16872 1.55095 0
M  V30 7104 C 655.024 2.40711 2.50351 0
M  V30 7105 C 653.978 3.55874 2.37776 0
M  V30 7106 C 653.304 3.80491 3.75674 0
M  V30 7107 C 654.604 4.8826 1.85472 0
M  V30 7108 H 656.298 2.88551 0.798672 0
M  V30 7109 H 653.844 1.3882 0.382743 0
M  V30 7110 H 655.797 2.70754 3.22909 0
M  V30 7111 H 654.521 1.5104 2.89576 0
M  V30 7112 H 653.18 3.2601 1.67669 0
M  V30 7113 H 652.828 2.88057 4.12349 0
M  V30 7114 H 652.528 4.57998 3.68119 0
M  V30 7115 H 654.052 4.12967 4.49767 0
M  V30 7116 H 655.466 5.16965 2.4783 0
M  V30 7117 H 653.863 5.69631 1.88787 0
M  V30 7118 H 654.933 4.78071 0.810935 0
M  V30 7119 N 656.276 -0.40816 1.52223 0
M  V30 7120 C 657.522 -1.15347 1.67531 0
M  V30 7121 C 657.877 -1.8818 0.400748 0
M  V30 7122 O 657.17 -1.81803 -0.604845 0
M  V30 7123 C 657.364 -2.17422 2.83659 0
M  V30 7124 C 657.193 -1.54611 4.22286 0
M  V30 7125 C 655.963 -1.31841 4.87797 0
M  V30 7126 C 658.161 -1.00648 5.04355 0
M  V30 7127 N 656.143 -0.649338 6.10456 0
M  V30 7128 C 657.514 -0.464384 6.18258 0
M  V30 7129 C 659.569 -0.901041 4.89679 0
M  V30 7130 C 658.272 0.172825 7.19092 0
M  V30 7131 C 660.298 -0.277684 5.90748 0
M  V30 7132 C 659.66 0.253734 7.03943 0
M  V30 7133 H 655.759 -0.408722 0.666686 0
M  V30 7134 H 658.343 -0.445713 1.8953 0
M  V30 7135 H 656.514 -2.85554 2.63274 0
M  V30 7136 H 658.246 -2.84321 2.87999 0
M  V30 7137 H 655.001 -1.58819 4.46176 0
M  V30 7138 H 655.425 -0.3314 6.76188 0
M  V30 7139 H 660.067 -1.29772 4.02392 0
M  V30 7140 H 657.785 0.581564 8.06005 0
M  V30 7141 H 661.371 -0.197605 5.81464 0
M  V30 7142 H 660.251 0.728482 7.80809 0
M  V30 7143 N 657.755 -1.42862 -0.66545 0
M  V30 7144 C 658.687 -1.43026 -1.79098 0
M  V30 7145 C 659.7 -0.32803 -1.59461 0
M  V30 7146 O 660.889 -0.591709 -1.68407 0
M  V30 7147 C 657.989 -1.21566 -3.16346 0
M  V30 7148 C 657.162 -2.44399 -3.62751 0
M  V30 7149 C 656.221 -2.18344 -4.78761 0
M  V30 7150 O 655.247 -2.91611 -4.88827 0
M  V30 7151 N 656.449 -1.1924 -5.68122 0
M  V30 7152 H 659.214 -2.40045 -1.79439 0
M  V30 7153 H 656.775 -1.37861 -0.848872 0
M  V30 7154 H 658.767 -1.02037 -3.91625 0
M  V30 7155 H 657.337 -0.330368 -3.10849 0
M  V30 7156 H 656.557 -2.79433 -2.78048 0
M  V30 7157 H 657.845 -3.26173 -3.90498 0
M  V30 7158 H 657.243 -0.586603 -5.6265 0
M  V30 7159 H 655.8 -1.05698 -6.43173 0
M  V30 7160 N 659.233 0.902656 -1.29189 0
M  V30 7161 C 660.163 2.02294 -1.16616 0
M  V30 7162 C 661.144 1.6999 -0.0611175 0
M  V30 7163 O 662.329 1.9271 -0.240072 0
M  V30 7164 C 659.459 3.37018 -0.83882 0
M  V30 7165 C 658.413 3.83522 -1.89986 0
M  V30 7166 C 657.739 5.15337 -1.42589 0
M  V30 7167 C 659.039 4.04169 -3.30824 0
M  V30 7168 H 660.733 2.13071 -2.10336 0
M  V30 7169 H 658.279 1.02378 -1.01266 0
M  V30 7170 H 660.232 4.14895 -0.737584 0
M  V30 7171 H 658.956 3.26325 0.134071 0
M  V30 7172 H 657.615 3.07859 -1.99043 0
M  V30 7173 H 657.263 5.01056 -0.441759 0
M  V30 7174 H 656.963 5.47423 -2.13547 0
M  V30 7175 H 658.487 5.95758 -1.3381 0
M  V30 7176 H 659.901 4.72537 -3.24626 0
M  V30 7177 H 658.298 4.47604 -3.99713 0
M  V30 7178 H 659.368 3.08604 -3.74021 0
M  V30 7179 N 660.711 1.11618 1.11262 0
M  V30 7180 C 661.641 0.79846 2.19424 0
M  V30 7181 C 662.622 -0.234003 1.68483 0
M  V30 7182 O 663.807 -0.0970704 1.93957 0
M  V30 7183 C 660.937 0.242892 3.4645 0
M  V30 7184 C 659.891 1.20744 4.10615 0
M  V30 7185 C 659.217 0.512494 5.32238 0
M  V30 7186 C 660.517 2.55884 4.55325 0
M  V30 7187 H 662.211 1.70286 2.46258 0
M  V30 7188 H 659.757 0.820195 1.18359 0
M  V30 7189 H 661.71 0.00840447 4.21399 0
M  V30 7190 H 660.434 -0.696811 3.1908 0
M  V30 7191 H 659.093 1.42759 3.37662 0
M  V30 7192 H 658.741 -0.432075 5.01141 0
M  V30 7193 H 658.441 1.15583 5.7612 0
M  V30 7194 H 659.965 0.286842 6.09926 0
M  V30 7195 H 661.379 2.37946 5.21588 0
M  V30 7196 H 659.776 3.16216 5.10027 0
M  V30 7197 H 660.846 3.14968 3.68678 0
M  V30 7198 N 662.189 -1.289 0.906776 0
M  V30 7199 C 663.437 -1.94883 0.535266 0
M  V30 7200 C 663.758 -1.71784 -0.922791 0
M  V30 7201 O 663.028 -1.05359 -1.65156 0
M  V30 7202 H 661.608 -0.721109 0.194962 0
M  V30 7203 H 664.27 -1.57018 1.15461 0
M  V30 7204 H 663.366 -3.03591 0.723821 0
M  V30 7205 N 663.667 -0.670007 -1.42649 0
M  V30 7206 C 665.078 -0.268118 -1.84765 0
M  V30 7207 C 665.429 1.18877 -1.56086 0
M  V30 7208 O 664.554 1.90947 -1.01825 0
M  V30 7209 C 665.149 -0.47984 -3.35385 0
M  V30 7210 C 663.708 -0.132116 -3.76168 0
M  V30 7211 C 662.855 -0.774611 -2.66261 0
M  V30 7212 H 665.806 -0.872509 -1.32563 0
M  V30 7213 H 665.827 0.269522 -3.79544 0
M  V30 7214 H 665.339 -1.54026 -3.56227 0
M  V30 7215 H 663.44 0.92505 -3.60934 0
M  V30 7216 H 663.553 -0.569294 -4.75706 0
M  V30 7217 H 661.917 -0.206353 -2.53863 0
M  V30 7218 H 662.7 -1.83839 -2.89928 0
M  V30 7219 N 665.145 1.52092 -0.413018 0
M  V30 7220 C 666.37 2.06756 0.163338 0
M  V30 7221 C 666.795 1.28073 1.37764 0
M  V30 7222 O 666.153 0.312015 1.78595 0
M  V30 7223 C 666.201 3.57278 0.488322 0
M  V30 7224 O 665.305 3.80986 1.57871 0
M  V30 7225 H 664.646 0.663882 0.0125068 0
M  V30 7226 H 667.176 1.95988 -0.587339 0
M  V30 7227 H 667.186 4.01125 0.745836 0
M  V30 7228 H 665.861 4.13978 -0.399327 0
M  V30 7229 H 664.438 3.49017 1.31306 0
M  V30 7230 N 666.623 0.143563 1.56945 0
M  V30 7231 C 667.586 -0.783295 2.154 0
M  V30 7232 C 668.586 -1.17763 1.09492 0
M  V30 7233 O 669.776 -1.09912 1.35148 0
M  V30 7234 C 666.908 -2.06248 2.7143 0
M  V30 7235 H 668.101 -0.274863 2.98638 0
M  V30 7236 H 665.654 -0.105859 1.55941 0
M  V30 7237 H 666.389 -2.61466 1.91849 0
M  V30 7238 H 666.174 -1.78897 3.4891 0
M  V30 7239 H 667.664 -2.72453 3.16479 0
M  V30 7240 N 668.101 -1.57061 -0.130224 0
M  V30 7241 C 669.031 -2.02552 -1.16168 0
M  V30 7242 C 670.012 -0.907971 -1.4384 0
M  V30 7243 O 671.197 -1.17693 -1.54473 0
M  V30 7244 C 668.327 -2.42035 -2.49071 0
M  V30 7245 C 667.281 -3.5713 -2.35886 0
M  V30 7246 C 666.607 -3.82478 -3.7365 0
M  V30 7247 C 667.907 -4.89236 -1.8288 0
M  V30 7248 H 669.601 -2.8897 -0.783359 0
M  V30 7249 H 667.147 -1.39021 -0.375376 0
M  V30 7250 H 669.1 -2.72462 -3.21469 0
M  V30 7251 H 667.824 -1.52573 -2.88771 0
M  V30 7252 H 666.483 -3.26895 -1.65938 0
M  V30 7253 H 666.131 -2.9024 -4.10816 0
M  V30 7254 H 665.831 -4.59944 -3.65685 0
M  V30 7255 H 667.355 -4.15347 -4.47571 0
M  V30 7256 H 668.769 -5.18272 -2.45085 0
M  V30 7257 H 667.166 -5.70624 -1.85763 0
M  V30 7258 H 668.236 -4.78494 -0.785571 0
M  V30 7259 N 669.579 0.400081 -1.52437 0
M  V30 7260 C 670.807 1.16768 -1.70801 0
M  V30 7261 C 671.222 1.84036 -0.421462 0
M  V30 7262 O 670.579 1.72242 0.603228 0
M  V30 7263 C 670.63 2.22403 -2.8499 0
M  V30 7264 O 670.351 1.57879 -4.08663 0
M  V30 7265 C 671.852 3.11974 -3.1494 0
M  V30 7266 H 669.072 0.350533 -0.57216 0
M  V30 7267 H 671.616 0.469534 -1.99037 0
M  V30 7268 H 669.771 2.87871 -2.59247 0
M  V30 7269 H 670.185 2.27982 -4.7236 0
M  V30 7270 H 671.659 3.82148 -3.9833 0
M  V30 7271 H 672.136 3.74858 -2.28863 0
M  V30 7272 H 672.742 2.52165 -3.42481 0
M  V30 7273 N 671.057 1.43213 0.657864 0
M  V30 7274 C 672.02 1.47687 1.75275 0
M  V30 7275 C 673.02 0.362179 1.56668 0
M  V30 7276 O 674.21 0.623734 1.62651 0
M  V30 7277 C 671.342 1.32497 3.14098 0
M  V30 7278 H 672.535 2.4519 1.7269 0
M  V30 7279 H 670.088 1.2991 0.869087 0
M  V30 7280 H 670.823 0.359831 3.22298 0
M  V30 7281 H 670.608 2.13299 3.29008 0
M  V30 7282 H 672.098 1.38549 3.93946 0
M  V30 7283 N 672.536 -0.895792 1.29666 0
M  V30 7284 C 673.785 -1.64131 1.17234 0
M  V30 7285 C 674.098 -1.93665 -0.274416 0
M  V30 7286 O 675.304 -2.66472 -0.520105 0
M  V30 7287 C 673.76 -2.95764 2.05065 0
M  V30 7288 C 673.368 -2.7381 3.54587 0
M  V30 7289 C 675.112 -3.737 2.01367 0
M  V30 7290 C 673.019 -4.01194 4.34508 0
M  V30 7291 H 671.949 -0.615742 0.435175 0
M  V30 7292 H 674.6 -0.992626 1.54335 0
M  V30 7293 H 672.982 -3.61867 1.60837 0
M  V30 7294 H 674.156 -2.16277 4.06892 0
M  V30 7295 H 672.471 -2.09265 3.59996 0
M  V30 7296 H 675.068 -4.68152 2.58337 0
M  V30 7297 H 675.411 -4.04245 0.994575 0
M  V30 7298 H 675.944 -3.14444 2.43659 0
M  V30 7299 H 672.683 -3.75813 5.37071 0
M  V30 7300 H 672.203 -4.58272 3.86971 0
M  V30 7301 H 673.882 -4.69307 4.45376 0
M  V30 7302 N 674.014 -1.12206 -1.10668 0
M  V30 7303 C 674.977 -0.790867 -2.15123 0
M  V30 7304 C 675.977 0.193618 -1.5963 0
M  V30 7305 O 677.167 -0.0318728 -1.74171 0
M  V30 7306 C 674.299 -0.174797 -3.40452 0
M  V30 7307 H 675.492 -1.7163 -2.45933 0
M  V30 7308 H 673.045 -0.924993 -1.2599 0
M  V30 7309 H 673.78 0.760478 -3.15257 0
M  V30 7310 H 673.565 -0.88358 -3.82015 0
M  V30 7311 H 675.055 0.0405162 -4.1758 0
M  V30 7312 N 675.492 1.28418 -0.913599 0
M  V30 7313 C 676.738 1.9527 -0.547484 0
M  V30 7314 C 677.071 1.71745 0.906486 0
M  V30 7315 O 676.346 1.03834 1.64465 0
M  V30 7316 C 676.629 3.49748 -0.857205 0
M  V30 7317 C 676.482 3.82675 -2.3639 0
M  V30 7318 C 677.801 4.3868 -0.353258 0
M  V30 7319 H 674.92 0.709236 -0.200381 0
M  V30 7320 H 677.562 1.51789 -1.14281 0
M  V30 7321 H 675.712 3.86915 -0.350548 0
M  V30 7322 H 677.384 3.55378 -2.94116 0
M  V30 7323 H 675.627 3.29724 -2.81894 0
M  V30 7324 H 676.298 4.90547 -2.53115 0
M  V30 7325 H 678.774 4.08584 -0.787288 0
M  V30 7326 H 677.65 5.45621 -0.599049 0
M  V30 7327 H 677.911 4.35753 0.746413 0
M  V30 7328 N 676.97 0.677563 1.42291 0
M  V30 7329 C 678.217 0.200975 2.015 0
M  V30 7330 C 678.545 -1.19342 1.53583 0
M  V30 7331 O 677.8 -1.81579 0.7299 0
M  V30 7332 C 678.099 0.187229 3.56909 0
M  V30 7333 C 677.765 1.52667 4.24268 0
M  V30 7334 C 676.427 1.89341 4.42384 0
M  V30 7335 C 678.779 2.40869 4.62203 0
M  V30 7336 C 676.107 3.13836 4.95705 0
M  V30 7337 C 678.459 3.64679 5.16906 0
M  V30 7338 C 677.123 4.01519 5.33234 0
M  V30 7339 H 676.393 0.0735418 0.737342 0
M  V30 7340 H 679.04 0.873095 1.70439 0
M  V30 7341 H 677.345 -0.568407 3.87655 0
M  V30 7342 H 679.042 -0.198773 4.00507 0
M  V30 7343 H 675.632 1.23138 4.1053 0
M  V30 7344 H 679.816 2.1382 4.47878 0
M  V30 7345 H 675.072 3.42396 5.06532 0
M  V30 7346 H 679.246 4.33224 5.45243 0
M  V30 7347 H 676.873 4.98062 5.74316 0
M  V30 7348 N 678.448 -1.51871 0.421078 0
M  V30 7349 C 679.378 -2.30231 -0.389363 0
M  V30 7350 C 680.359 -1.34946 -1.03555 0
M  V30 7351 O 681.544 -1.63859 -1.04229 0
M  V30 7352 C 678.674 -3.13247 -1.49979 0
M  V30 7353 C 677.628 -4.16677 -0.977966 0
M  V30 7354 C 676.954 -4.88112 -2.1829 0
M  V30 7355 C 678.254 -5.22295 -0.0236775 0
M  V30 7356 H 679.948 -2.98229 0.264524 0
M  V30 7357 H 677.494 -1.43424 0.12866 0
M  V30 7358 H 679.447 -3.66838 -2.07383 0
M  V30 7359 H 678.171 -2.4304 -2.18173 0
M  V30 7360 H 676.83 -3.64114 -0.426245 0
M  V30 7361 H 676.478 -4.14423 -2.85066 0
M  V30 7362 H 676.178 -5.58041 -1.84021 0
M  V30 7363 H 677.702 -5.44521 -2.76278 0
M  V30 7364 H 679.116 -5.71055 -0.506899 0
M  V30 7365 H 677.513 -5.99656 0.230782 0
M  V30 7366 H 678.583 -4.76131 0.917999 0
M  V30 7367 N 679.926 -0.151884 -1.56866 0
M  V30 7368 C 681.151 0.508044 -2.01081 0
M  V30 7369 C 681.576 1.57306 -1.03134 0
M  V30 7370 O 680.934 1.81298 -0.0078309 0
M  V30 7371 C 680.982 1.08106 -3.44014 0
M  V30 7372 O 680.086 2.19577 -3.49084 0
M  V30 7373 H 679.427 0.123757 -0.652365 0
M  V30 7374 H 681.957 -0.250055 -2.03066 0
M  V30 7375 H 681.967 1.40851 -3.82916 0
M  V30 7376 H 680.642 0.301168 -4.14808 0
M  V30 7377 H 679.219 1.88023 -3.22027 0
M  V30 7378 N 681.404 1.57128 0.121893 0
M  V30 7379 C 682.334 2.03165 1.15092 0
M  V30 7380 C 683.315 0.915587 1.43356 0
M  V30 7381 O 684.5 1.1851 1.53847 0
M  V30 7382 C 681.63 2.43352 2.47784 0
M  V30 7383 C 680.584 3.58376 2.33989 0
M  V30 7384 C 679.91 3.84454 3.71617 0
M  V30 7385 C 681.21 4.90199 1.80283 0
M  V30 7386 H 682.904 2.89382 0.768023 0
M  V30 7387 H 680.45 1.39218 0.367998 0
M  V30 7388 H 682.403 2.74163 3.20019 0
M  V30 7389 H 681.127 1.54103 2.87958 0
M  V30 7390 H 679.786 3.2777 1.64202 0
M  V30 7391 H 679.434 2.92414 4.09271 0
M  V30 7392 H 679.134 4.61877 3.6324 0
M  V30 7393 H 680.658 4.17714 4.45362 0
M  V30 7394 H 682.072 5.19565 2.42333 0
M  V30 7395 H 680.469 5.71601 1.82735 0
M  V30 7396 H 681.539 4.78904 0.760184 0
M  V30 7397 N 682.882 -0.391992 1.52647 0
M  V30 7398 C 683.812 -1.48517 1.8018 0
M  V30 7399 C 684.793 -1.57039 0.653667 0
M  V30 7400 O 685.978 -1.72036 0.900962 0
M  V30 7401 C 683.108 -2.86161 1.96797 0
M  V30 7402 C 682.062 -2.92481 3.12472 0
M  V30 7403 C 681.388 -4.32546 3.14338 0
M  V30 7404 C 682.688 -2.624 4.51601 0
M  V30 7405 H 684.382 -1.25726 2.71723 0
M  V30 7406 H 681.928 -0.603387 1.30749 0
M  V30 7407 H 683.881 -3.62639 2.14641 0
M  V30 7408 H 682.605 -3.10283 1.01941 0
M  V30 7409 H 681.264 -2.18451 2.94406 0
M  V30 7410 H 680.912 -4.53703 2.1717 0
M  V30 7411 H 680.612 -4.37695 3.92042 0
M  V30 7412 H 682.136 -5.10934 3.34333 0
M  V30 7413 H 683.55 -3.28596 4.69785 0
M  V30 7414 H 681.947 -2.78903 5.3135 0
M  V30 7415 H 683.017 -1.57754 4.58521 0
M  V30 7416 N 684.36 -1.4356 -0.65026 0
M  V30 7417 C 685.771 -1.40324 -1.2315 0
M  V30 7418 C 686.122 -0.108812 -1.95898 0
M  V30 7419 O 685.247 0.79163 -2.01401 0
M  V30 7420 C 685.842 -2.54195 -2.23987 0
M  V30 7421 C 684.401 -2.54215 -2.77582 0
M  V30 7422 C 683.548 -2.31752 -1.5227 0
M  V30 7423 H 686.499 -1.52418 -0.442095 0
M  V30 7424 H 686.52 -2.25854 -3.0622 0
M  V30 7425 H 686.032 -3.48392 -1.71011 0
M  V30 7426 H 684.133 -1.63907 -3.34612 0
M  V30 7427 H 684.246 -3.52081 -3.24925 0
M  V30 7428 H 682.61 -1.80476 -1.79723 0
M  V30 7429 H 683.393 -3.28037 -1.01225 0
M  V30 7430 N 685.838 0.888903 -1.30139 0
M  V30 7431 C 686.768 2.01046 -1.18755 0
M  V30 7432 C 687.749 1.69916 -0.0791438 0
M  V30 7433 O 688.934 1.92445 -0.260498 0
M  V30 7434 C 686.064 3.36109 -0.874518 0
M  V30 7435 C 685.018 3.81486 -1.94043 0
M  V30 7436 C 684.344 5.13796 -1.48047 0
M  V30 7437 C 685.644 4.00637 -3.35093 0
M  V30 7438 H 687.338 2.10828 -2.12584 0
M  V30 7439 H 684.884 1.01298 -1.02346 0
M  V30 7440 H 686.837 4.14089 -0.781548 0
M  V30 7441 H 685.561 3.26449 0.0994519 0
M  V30 7442 H 684.22 3.05731 -2.02297 0
M  V30 7443 H 683.868 5.0056 -0.494878 0
M  V30 7444 H 683.568 5.45127 -2.19341 0
M  V30 7445 H 685.092 5.94305 -1.40121 0
M  V30 7446 H 686.506 4.69067 -3.2962 0
M  V30 7447 H 684.903 4.43339 -4.04438 0
M  V30 7448 H 685.973 3.0462 -3.77273 0
M  V30 7449 N 687.317 1.12792 1.10072 0
M  V30 7450 C 688.265 0.794523 2.18609 0
M  V30 7451 C 689.259 -0.220271 1.67962 0
M  V30 7452 O 690.465 -0.0780938 1.79831 0
M  V30 7453 H 686.84 0.239123 0.712969 0
M  V30 7454 H 688.811 1.71823 2.43966 0
M  V30 7455 C 687.56 0.269548 3.46654 0
M  V30 7456 H 686.883 1.04171 3.8599 0
M  V30 7457 H 688.323 0.0746242 4.23934 0
M  V30 7458 C 686.782 -1.00333 3.21613 0
M  V30 7459 O 687.312 -2.08042 3.4363 0
M  V30 7460 N 685.518 -0.931763 2.75257 0
M  V30 7461 H 685.065 -0.0551197 2.57541 0
M  V30 7462 H 685.023 -1.78405 2.58881 0
M  V30 7463 N 688.795 -1.27931 0.920396 0
M  V30 7464 C 690.042 -1.94689 0.557007 0
M  V30 7465 C 690.37 -1.724 -0.900476 0
M  V30 7466 O 689.625 -1.04194 -1.65657 0
M  V30 7467 C 689.924 -3.47853 0.820558 0
M  V30 7468 C 689.59 -3.90252 2.25863 0
M  V30 7469 C 688.252 -4.01539 2.65179 0
M  V30 7470 C 690.604 -4.11853 3.19415 0
M  V30 7471 C 687.932 -4.3181 3.97187 0
M  V30 7472 C 690.284 -4.43606 4.50995 0
M  V30 7473 C 688.948 -4.53105 4.90155 0
M  V30 7474 H 688.218 -0.712416 0.203823 0
M  V30 7475 H 690.865 -1.52142 1.16298 0
M  V30 7476 H 689.17 -3.91578 0.131844 0
M  V30 7477 H 690.867 -3.97634 0.51847 0
M  V30 7478 H 687.457 -3.81999 1.94358 0
M  V30 7479 H 691.641 -4.0258 2.90246 0
M  V30 7480 H 686.897 -4.37371 4.2722 0
M  V30 7481 H 691.071 -4.59268 5.23494 0
M  V30 7482 H 688.698 -4.76315 5.92476 0
M  V30 7483 N 690.273 -0.685099 -1.4193 0
M  V30 7484 C 691.52 -0.211658 -2.01391 0
M  V30 7485 C 691.848 1.18526 -1.54214 0
M  V30 7486 O 691.103 1.81189 -0.739519 0
M  V30 7487 C 691.402 -0.206154 -3.56805 0
M  V30 7488 C 691.068 -1.54915 -4.23453 0
M  V30 7489 C 689.73 -1.91684 -4.41373 0
M  V30 7490 C 692.082 -2.43317 -4.60919 0
M  V30 7491 C 689.41 -3.16461 -4.94034 0
M  V30 7492 C 691.762 -3.67415 -5.14965 0
M  V30 7493 C 690.426 -4.04341 -5.31098 0
M  V30 7494 H 689.696 -0.0774511 -0.736941 0
M  V30 7495 H 692.343 -0.882121 -1.69973 0
M  V30 7496 H 690.648 0.547841 -3.87951 0
M  V30 7497 H 692.345 0.17753 -4.00607 0
M  V30 7498 H 688.935 -1.25314 -4.09871 0
M  V30 7499 H 693.119 -2.16192 -4.46738 0
M  V30 7500 H 688.375 -3.45078 -5.04709 0
M  V30 7501 H 692.549 -4.3611 -5.42938 0
M  V30 7502 H 690.176 -5.01101 -5.71666 0
M  V30 7503 N 691.751 1.51645 -0.429126 0
M  V30 7504 C 693 2.01203 0.141538 0
M  V30 7505 C 693.313 1.31828 1.44502 0
M  V30 7506 O 694.519 1.7231 2.09813 0
M  V30 7507 C 692.975 3.58624 0.302786 0
M  V30 7508 C 692.583 4.3693 -0.989775 0
M  V30 7509 C 694.327 4.16353 0.827661 0
M  V30 7510 C 692.234 5.86037 -0.794619 0
M  V30 7511 H 691.164 0.751867 0.05667 0
M  V30 7512 H 693.815 1.74822 -0.557633 0
M  V30 7513 H 692.197 3.81417 1.06476 0
M  V30 7514 H 693.371 4.25887 -1.75945 0
M  V30 7515 H 691.686 3.90614 -1.44256 0
M  V30 7516 H 694.283 5.25455 0.990026 0
M  V30 7517 H 694.626 3.74995 1.80787 0
M  V30 7518 H 695.159 3.97606 0.124213 0
M  V30 7519 H 691.898 6.31792 -1.74697 0
M  V30 7520 H 691.418 5.99765 -0.0645968 0
M  V30 7521 H 693.097 6.45471 -0.444591 0
M  V30 7522 N 693.229 0.160201 1.56784 0
M  V30 7523 C 694.454 -0.497373 2.01348 0
M  V30 7524 C 694.879 -1.56757 1.03966 0
M  V30 7525 O 694.237 -1.81292 0.0174455 0
M  V30 7526 C 694.285 -1.0628 3.44582 0
M  V30 7527 O 693.389 -2.17723 3.50244 0
M  V30 7528 H 692.73 -0.120295 0.653012 0
M  V30 7529 H 695.26 0.260821 2.02931 0
M  V30 7530 H 695.27 -1.38819 3.83658 0
M  V30 7531 H 693.945 -0.279166 4.14962 0
M  V30 7532 H 692.522 -1.86313 3.2302 0
M  V30 7533 N 694.707 -1.5719 -0.113559 0
M  V30 7534 C 695.654 -2.00736 -1.13901 0
M  V30 7535 C 696.624 -0.88044 -1.40846 0
M  V30 7536 O 697.809 -1.14507 -1.5262 0
M  V30 7537 C 694.949 -2.42132 -2.45899 0
M  V30 7538 C 694.062 -3.68264 -2.25844 0
M  V30 7539 C 693.197 -3.98617 -3.5111 0
M  V30 7540 C 692.236 -5.17915 -3.26236 0
M  V30 7541 N 691.373 -5.44111 -4.4372 0
M  V30 7542 H 696.213 -2.88128 -0.760677 0
M  V30 7543 H 693.75 -1.42523 -0.364099 0
M  V30 7544 H 695.708 -2.6417 -3.22908 0
M  V30 7545 H 694.338 -1.57775 -2.81615 0
M  V30 7546 H 693.39 -3.53809 -1.39726 0
M  V30 7547 H 694.702 -4.55425 -2.03444 0
M  V30 7548 H 693.856 -4.21333 -4.36536 0
M  V30 7549 H 692.595 -3.09942 -3.76546 0
M  V30 7550 H 691.6 -4.95038 -2.39202 0
M  V30 7551 H 692.825 -6.08172 -3.02165 0
M  V30 7552 H 690.771 -4.58394 -4.69266 0
M  V30 7553 H 690.688 -6.25606 -4.24444 0
M  V30 7554 H 691.956 -5.71351 -5.30263 0
M  V30 7555 N 696.185 0.383891 -1.52853 0
M  V30 7556 C 697.132 1.46924 -1.77995 0
M  V30 7557 C 698.102 1.53958 -0.623396 0
M  V30 7558 O 699.287 1.70134 -0.863657 0
M  V30 7559 C 696.427 2.84093 -1.95921 0
M  V30 7560 C 695.54 2.86171 -3.23621 0
M  V30 7561 C 694.675 4.14799 -3.31836 0
M  V30 7562 C 693.714 4.10948 -4.53639 0
M  V30 7563 N 692.851 5.31192 -4.59107 0
M  V30 7564 H 697.691 1.24786 -2.70615 0
M  V30 7565 H 695.228 0.605265 -1.34071 0
M  V30 7566 H 697.186 3.63755 -2.04299 0
M  V30 7567 H 695.816 3.04671 -1.06656 0
M  V30 7568 H 694.868 1.9885 -3.24288 0
M  V30 7569 H 696.18 2.79194 -4.13343 0
M  V30 7570 H 695.334 5.02867 -3.39425 0
M  V30 7571 H 694.073 4.24505 -2.40097 0
M  V30 7572 H 693.078 3.21268 -4.46169 0
M  V30 7573 H 694.303 4.0286 -5.467 0
M  V30 7574 H 692.249 5.41518 -3.70262 0
M  V30 7575 H 692.166 5.26311 -5.42708 0
M  V30 7576 H 693.434 6.21143 -4.70958 0
M  V30 7577 N 697.663 1.43903 0.642637 0
M  V30 7578 C 699.079 1.27536 0.959519 0
M  V30 7579 C 699.279 0.202751 2.00477 0
M  V30 7580 O 698.335 -0.415256 2.49062 0
M  V30 7581 C 699.648 2.6432 1.43372 0
M  V30 7582 C 701.196 2.71937 1.54981 0
M  V30 7583 C 701.671 4.09164 2.05789 0
M  V30 7584 N 703.162 4.11282 2.13076 0
M  V30 7585 C 703.897 5.14303 2.53534 0
M  V30 7586 N 703.393 6.27693 2.93212 0
M  V30 7587 N 705.186 5.01657 2.53567 0
M  V30 7588 H 697.337 2.12344 -0.0488376 0
M  V30 7589 H 699.6 0.947124 0.0407559 0
M  V30 7590 H 699.306 3.43826 0.740048 0
M  V30 7591 H 699.18 2.90432 2.40685 0
M  V30 7592 H 701.567 1.92757 2.23448 0
M  V30 7593 H 701.648 2.49578 0.560739 0
M  V30 7594 H 701.292 4.88815 1.37921 0
M  V30 7595 H 701.222 4.28893 3.05546 0
M  V30 7596 H 703.713 3.2944 1.85143 0
M  V30 7597 H 704.026 7.02125 3.22863 0
M  V30 7598 H 702.371 6.31149 2.90991 0
M  V30 7599 H 705.562 4.12134 2.21952 0
M  V30 7600 H 705.735 5.82072 2.84774 0
M  V30 7601 N 699.141 -0.881989 1.30609 0
M  V30 7602 C 700.089 -2.00942 1.17155 0
M  V30 7603 C 701.083 -1.69198 0.0827154 0
M  V30 7604 O 702.289 -1.78342 0.243775 0
M  V30 7605 H 698.664 -0.658913 0.362406 0
M  V30 7606 H 700.635 -2.09423 2.12567 0
M  V30 7607 C 699.384 -3.36294 0.883273 0
M  V30 7608 H 698.707 -3.61233 1.7132 0
M  V30 7609 H 700.147 -4.15812 0.829255 0
M  V30 7610 C 698.606 -3.34348 -0.413851 0
M  V30 7611 O 699.136 -3.75216 -1.43444 0
M  V30 7612 N 697.342 -2.87459 -0.426082 0
M  V30 7613 H 696.889 -2.54397 0.40493 0
M  V30 7614 H 696.847 -2.8654 -1.29391 0
M  V30 7615 N 700.619 -1.13374 -1.09472 0
M  V30 7616 C 701.569 -0.77946 -2.14263 0
M  V30 7617 C 702.553 0.226271 -1.59301 0
M  V30 7618 O 703.745 0.0302581 -1.76974 0
M  V30 7619 C 700.874 -0.246635 -3.42413 0
M  V30 7620 C 699.96 -1.28124 -4.04283 0
M  V30 7621 N 700.351 -2.48201 -4.40715 0
M  V30 7622 C 698.649 -1.12892 -4.31476 0
M  V30 7623 C 699.35 -3.14347 -4.8945 0
M  V30 7624 N 698.326 -2.41771 -4.86876 0
M  V30 7625 H 702.128 -1.69305 -2.40235 0
M  V30 7626 H 699.642 -1.01598 -1.26695 0
M  V30 7627 H 701.639 0.0254131 -4.16892 0
M  V30 7628 H 700.299 0.661287 -3.17895 0
M  V30 7629 H 701.31 -2.85511 -4.32093 0
M  V30 7630 H 697.987 -0.279117 -4.16566 0
M  V30 7631 H 699.377 -4.16663 -5.27107 0
M  V30 7632 N 702.098 1.27442 -0.927168 0
M  V30 7633 C 703.048 2.24519 -0.396878 0
M  V30 7634 C 704.032 1.52981 0.498555 0
M  V30 7635 O 705.224 1.7378 0.336087 0
M  V30 7636 C 702.353 3.41514 0.349694 0
M  V30 7637 C 701.439 4.20357 -0.562226 0
M  V30 7638 N 701.83 4.7702 -1.68182 0
M  V30 7639 C 700.128 4.44503 -0.365135 0
M  V30 7640 C 700.829 5.36467 -2.24895 0
M  V30 7641 N 699.805 5.21371 -1.5386 0
M  V30 7642 H 703.607 2.65911 -1.25173 0
M  V30 7643 H 701.121 1.42366 -0.78138 0
M  V30 7644 H 703.118 4.10161 0.746536 0
M  V30 7645 H 701.778 3.01653 1.20148 0
M  V30 7646 H 702.789 4.74985 -2.06421 0
M  V30 7647 H 699.466 4.15111 0.446037 0
M  V30 7648 H 700.856 5.91264 -3.1915 0
M  V30 7649 N 703.576 0.692616 1.41565 0
M  V30 7650 C 704.508 -0.0137132 2.29196 0
M  V30 7651 C 705.521 -0.747417 1.44629 0
M  V30 7652 O 706.71 -0.598611 1.68163 0
M  V30 7653 C 703.81 -1.04347 3.22436 0
M  V30 7654 C 702.983 -0.379985 4.35746 0
M  V30 7655 C 702.042 -1.31195 5.09583 0
M  V30 7656 O 701.068 -0.805455 5.63472 0
M  V30 7657 N 702.27 -2.64443 5.16769 0
M  V30 7658 H 705.035 0.738614 2.90456 0
M  V30 7659 H 702.596 0.538415 1.52685 0
M  V30 7660 H 704.588 -1.6686 3.687 0
M  V30 7661 H 703.158 -1.69736 2.62504 0
M  V30 7662 H 702.378 0.424975 3.91903 0
M  V30 7663 H 703.666 0.0814904 5.08735 0
M  V30 7664 H 703.064 -3.08114 4.74428 0
M  V30 7665 H 701.621 -3.22159 5.66619 0
M  V30 7666 N 705.054 -1.51416 0.437162 0
M  V30 7667 C 705.964 -2.31493 -0.380537 0
M  V30 7668 C 706.98 -1.40399 -1.02782 0
M  V30 7669 O 708.156 -1.73471 -1.02323 0
M  V30 7670 C 705.221 -3.1413 -1.46709 0
M  V30 7671 C 704.282 -4.21003 -0.839953 0
M  V30 7672 C 703.515 -4.9969 -1.87473 0
M  V30 7673 O 703.738 -4.79008 -3.09689 0
M  V30 7674 O 702.672 -5.8379 -1.46536 0
M  V30 7675 H 706.498 -3.02469 0.273183 0
M  V30 7676 H 704.083 -1.48059 0.199706 0
M  V30 7677 H 705.965 -3.65505 -2.09724 0
M  V30 7678 H 704.64 -2.45919 -2.10489 0
M  V30 7679 H 703.547 -3.73706 -0.171752 0
M  V30 7680 H 704.88 -4.91587 -0.245638 0
M  V30 7681 N 706.532 -0.168513 -1.56696 0
M  V30 7682 C 707.442 0.775435 -2.21414 0
M  V30 7683 C 708.458 1.25529 -1.20492 0
M  V30 7684 O 709.634 1.30801 -1.53144 0
M  V30 7685 C 706.699 1.9886 -2.83999 0
M  V30 7686 C 705.76 1.5559 -4.00113 0
M  V30 7687 C 704.993 2.71124 -4.59704 0
M  V30 7688 O 705.216 3.87917 -4.18182 0
M  V30 7689 O 704.15 2.4536 -5.4962 0
M  V30 7690 H 707.976 0.254416 -3.02632 0
M  V30 7691 H 705.561 0.0595507 -1.49281 0
M  V30 7692 H 707.443 2.69816 -3.23693 0
M  V30 7693 H 706.118 2.49874 -2.05779 0
M  V30 7694 H 705.025 0.815924 -3.65094 0
M  V30 7695 H 706.358 1.09271 -4.79917 0
M  V30 7696 N 708.01 1.57248 0.105221 0
M  V30 7697 C 708.942 1.98008 1.15436 0
M  V30 7698 C 709.955 0.881236 1.36887 0
M  V30 7699 O 711.144 1.15943 1.35718 0
M  V30 7700 C 708.244 2.27509 2.51183 0
M  V30 7701 C 707.417 3.58811 2.50147 0
M  V30 7702 C 706.476 3.76365 3.67745 0
M  V30 7703 O 705.502 4.48329 3.50699 0
M  V30 7704 N 706.704 3.16174 4.86841 0
M  V30 7705 H 709.469 2.88616 0.807519 0
M  V30 7706 H 707.03 1.59202 0.29433 0
M  V30 7707 H 709.022 2.36455 3.28438 0
M  V30 7708 H 707.592 1.42959 2.77995 0
M  V30 7709 H 706.812 3.60927 1.5851 0
M  V30 7710 H 708.1 4.45088 2.46524 0
M  V30 7711 H 707.498 2.57701 5.03594 0
M  V30 7712 H 706.055 3.30621 5.61723 0
M  V30 7713 N 709.488 -0.375779 1.53054 0
M  V30 7714 C 710.421 -1.48187 1.7354 0
M  V30 7715 C 711.399 -1.5177 0.583495 0
M  V30 7716 O 712.583 -1.69976 0.81488 0
M  V30 7717 C 709.71 -2.86598 1.80497 0
M  V30 7718 C 708.756 -3.00784 3.02376 0
M  V30 7719 S 709.589 -2.70601 4.62099 0
M  V30 7720 C 710.745 -4.11181 4.71891 0
M  V30 7721 H 710.978 -1.30587 2.67085 0
M  V30 7722 H 708.511 -0.569485 1.43514 0
M  V30 7723 H 710.469 -3.66353 1.85192 0
M  V30 7724 H 709.13 -3.01514 0.880217 0
M  V30 7725 H 708.323 -4.02128 3.03824 0
M  V30 7726 H 707.925 -2.28939 2.95742 0
M  V30 7727 H 710.217 -5.0529 4.51319 0
M  V30 7728 H 711.16 -4.14742 5.73929 0
M  V30 7729 H 711.568 -3.97706 4.00612 0
M  V30 7730 N 710.966 -1.44241 -0.634997 0
M  V30 7731 C 712.382 -1.28043 -0.952742 0
M  V30 7732 C 712.582 -0.21338 -2.00367 0
M  V30 7733 O 711.638 0.402042 -2.49279 0
M  V30 7734 C 712.951 -2.65076 -1.41968 0
M  V30 7735 C 714.499 -2.72755 -1.53537 0
M  V30 7736 C 714.974 -4.10249 -2.03616 0
M  V30 7737 N 716.465 -4.12406 -2.10892 0
M  V30 7738 C 717.2 -5.15641 -2.50803 0
M  V30 7739 N 716.696 -6.29239 -2.89879 0
M  V30 7740 N 718.489 -5.02995 -2.50903 0
M  V30 7741 H 710.64 -2.12315 0.060098 0
M  V30 7742 H 712.903 -0.947326 -0.0357325 0
M  V30 7743 H 712.609 -3.44213 -0.721804 0
M  V30 7744 H 712.483 -2.91704 -2.39141 0
M  V30 7745 H 714.87 -1.93939 -2.22422 0
M  V30 7746 H 714.951 -2.49872 -0.547496 0
M  V30 7747 H 714.595 -4.8954 -1.35327 0
M  V30 7748 H 714.525 -4.30507 -3.03268 0
M  V30 7749 H 717.016 -3.30417 -1.83393 0
M  V30 7750 H 717.329 -7.03827 -3.19135 0
M  V30 7751 H 715.674 -6.32683 -2.8764 0
M  V30 7752 H 718.865 -4.13306 -2.19763 0
M  V30 7753 H 719.038 -5.83574 -2.81683 0
M  V30 7754 N 712.444 0.87505 -1.31075 0
M  V30 7755 C 713.376 1.98773 -1.14114 0
M  V30 7756 C 714.389 1.62595 -0.0816119 0
M  V30 7757 O 715.578 1.75449 -0.32861 0
M  V30 7758 C 712.678 3.31159 -0.720224 0
M  V30 7759 C 711.851 3.9571 -1.86366 0
M  V30 7760 C 710.91 5.06407 -1.42965 0
M  V30 7761 O 709.936 5.27501 -2.13848 0
M  V30 7762 N 711.138 5.79649 -0.314194 0
M  V30 7763 H 713.903 2.1387 -2.09951 0
M  V30 7764 H 711.464 1.04873 -1.23342 0
M  V30 7765 H 713.456 4.0259 -0.412687 0
M  V30 7766 H 712.026 3.12257 0.146396 0
M  V30 7767 H 711.246 3.17324 -2.33879 0
M  V30 7768 H 712.534 4.35576 -2.62966 0
M  V30 7769 H 711.932 5.65025 0.276228 0
M  V30 7770 H 710.489 6.51766 -0.0661641 0
M  V30 7771 N 713.922 1.13953 1.08869 0
M  V30 7772 C 714.869 0.82213 2.15661 0
M  V30 7773 C 715.839 -0.218274 1.6466 0
M  V30 7774 O 717.024 -0.0892475 1.90591 0
M  V30 7775 C 714.164 0.300572 3.43789 0
M  V30 7776 C 713.277 1.40071 4.08661 0
M  V30 7777 C 712.412 0.836897 5.24566 0
M  V30 7778 C 711.451 1.91504 5.81371 0
M  V30 7779 N 710.588 1.36875 6.88629 0
M  V30 7780 H 715.428 1.73683 2.42153 0
M  V30 7781 H 712.965 0.866879 1.18843 0
M  V30 7782 H 714.923 -0.0199943 4.17195 0
M  V30 7783 H 713.553 -0.577248 3.17597 0
M  V30 7784 H 712.605 1.83776 3.33062 0
M  V30 7785 H 713.917 2.21534 4.46905 0
M  V30 7786 H 713.071 0.467953 6.04893 0
M  V30 7787 H 711.81 -0.00874207 4.87699 0
M  V30 7788 H 710.815 2.29299 4.99702 0
M  V30 7789 H 712.04 2.76419 6.20298 0
M  V30 7790 H 709.986 0.545211 6.5373 0
M  V30 7791 H 709.903 2.1198 7.25672 0
M  V30 7792 H 711.171 1.02756 7.72698 0
M  V30 7793 N 715.4 -1.26948 0.933913 0
M  V30 7794 C 716.677 -1.89212 0.495784 0
M  V30 7795 C 717.057 -1.84469 -1.02637 0
M  V30 7796 O 716.405 -1.29409 -1.88323 0
M  V30 7797 C 716.615 -3.32865 1.0489 0
M  V30 7798 C 717.963 -4.09749 1.11315 0
M  V30 7799 O 718.987 -3.41905 0.998966 0
M  V30 7800 O 717.846 -5.31061 1.28983 0
M  V30 7801 H 714.94 -0.811284 0.160459 0
M  V30 7802 H 717.486 -1.35171 1.02601 0
M  V30 7803 H 716.258 -3.30642 2.09265 0
M  V30 7804 H 715.881 -3.94435 0.500692 0
M  V30 7805 N 716.879 -0.700114 -1.41195 0
M  V30 7806 C 718.104 -0.240704 -2.05998 0
M  V30 7807 C 718.529 1.10313 -1.52357 0
M  V30 7808 O 717.887 1.69154 -0.652424 0
M  V30 7809 C 717.935 -0.213783 -3.59966 0
M  V30 7810 O 717.039 0.809933 -4.04368 0
M  V30 7811 H 716.38 -0.116471 -0.653705 0
M  V30 7812 H 718.91 -0.956251 -1.80878 0
M  V30 7813 H 718.92 -0.0461852 -4.07974 0
M  V30 7814 H 717.595 -1.19454 -3.98376 0
M  V30 7815 H 716.172 0.611319 -3.67855 0
M  V30 7816 N 718.357 1.51182 -0.445186 0
M  V30 7817 C 719.773 1.59299 -0.0978954 0
M  V30 7818 C 719.973 1.4555 1.39346 0
M  V30 7819 O 719.029 1.30073 2.16419 0
M  V30 7820 C 720.342 2.94133 -0.625005 0
M  V30 7821 C 721.89 3.07463 -0.586137 0
M  V30 7822 C 722.365 4.44832 -1.09035 0
M  V30 7823 N 723.856 4.51173 -1.04867 0
M  V30 7824 C 724.591 5.55804 -1.40959 0
M  V30 7825 N 724.087 6.67816 -1.84375 0
M  V30 7826 N 725.88 5.46205 -1.32726 0
M  V30 7827 H 718.031 1.58363 -1.41544 0
M  V30 7828 H 720.294 0.746946 -0.58376 0
M  V30 7829 H 720 3.09589 -1.66876 0
M  V30 7830 H 719.874 3.77161 -0.0542262 0
M  V30 7831 H 722.261 2.9167 0.448646 0
M  V30 7832 H 722.342 2.26255 -1.19341 0
M  V30 7833 H 721.986 4.61372 -2.12364 0
M  V30 7834 H 721.916 5.24591 -0.459539 0
M  V30 7835 H 724.407 3.70783 -0.729932 0
M  V30 7836 H 724.72 7.43683 -2.10131 0
M  V30 7837 H 723.065 6.69003 -1.88308 0
M  V30 7838 H 726.256 4.57583 -0.986678 0
M  V30 7839 H 726.429 6.27634 -1.61182 0
M  V30 7840 N 719.835 0.176821 1.56605 0
M  V30 7841 C 720.798 -0.737429 2.17013 0
M  V30 7842 C 721.798 -1.15414 1.11965 0
M  V30 7843 O 722.988 -1.0702 1.37449 0
M  V30 7844 C 720.12 -2.00445 2.75744 0
M  V30 7845 H 721.313 -0.211455 2.99154 0
M  V30 7846 H 718.866 -0.0727582 1.56131 0
M  V30 7847 H 719.601 -2.57338 1.97352 0
M  V30 7848 H 719.386 -1.71456 3.52626 0
M  V30 7849 H 720.876 -2.65679 3.22187 0
M  V30 7850 N 721.313 -1.57302 -0.09688 0
M  V30 7851 C 722.729 -1.53094 -0.451041 0
M  V30 7852 C 722.929 -0.893265 -1.80618 0
M  V30 7853 O 721.985 -0.485013 -2.47798 0
M  V30 7854 C 723.298 -2.9782 -0.415172 0
M  V30 7855 C 724.846 -3.09026 -0.497155 0
M  V30 7856 C 725.321 -4.55356 -0.491452 0
M  V30 7857 N 726.812 -4.59896 -0.552258 0
M  V30 7858 C 727.547 -5.70563 -0.569654 0
M  V30 7859 N 727.043 -6.90666 -0.543365 0
M  V30 7860 N 728.836 -5.58733 -0.614331 0
M  V30 7861 H 720.987 -1.97131 0.790771 0
M  V30 7862 H 723.25 -0.901211 0.294147 0
M  V30 7863 H 722.956 -3.47933 0.513362 0
M  V30 7864 H 722.83 -3.56416 -1.23481 0
M  V30 7865 H 725.217 -2.58902 -1.41611 0
M  V30 7866 H 725.298 -2.53386 0.35059 0
M  V30 7867 H 724.942 -5.06131 0.423549 0
M  V30 7868 H 724.872 -5.08832 -1.35639 0
M  V30 7869 H 727.363 -3.73456 -0.577842 0
M  V30 7870 H 727.676 -7.70769 -0.559873 0
M  V30 7871 H 726.021 -6.93123 -0.510441 0
M  V30 7872 H 729.212 -4.63809 -0.632387 0
M  V30 7873 H 729.385 -6.44984 -0.62442 0
M  V30 7874 N 722.791 0.367657 -1.53252 0
M  V30 7875 C 723.721 1.45632 -1.8252 0
M  V30 7876 C 724.702 1.55979 -0.678568 0
M  V30 7877 O 725.887 1.70581 -0.928217 0
M  V30 7878 C 723.017 2.82994 -2.01325 0
M  V30 7879 C 721.971 2.87473 -3.17086 0
M  V30 7880 C 721.297 4.2749 -3.21179 0
M  V30 7881 C 722.597 2.55182 -4.55719 0
M  V30 7882 H 724.291 1.21387 -2.73689 0
M  V30 7883 H 721.837 0.58251 -1.31692 0
M  V30 7884 H 723.79 3.59179 -2.20383 0
M  V30 7885 H 722.514 3.08622 -1.06864 0
M  V30 7886 H 721.173 2.13739 -2.97844 0
M  V30 7887 H 720.821 4.5019 -2.24361 0
M  V30 7888 H 720.521 4.31403 -3.98955 0
M  V30 7889 H 722.045 5.0555 -3.42419 0
M  V30 7890 H 723.459 3.21081 -4.74953 0
M  V30 7891 H 721.856 2.70414 -5.3572 0
M  V30 7892 H 722.926 1.5044 -4.60973 0
M  V30 7893 N 724.269 1.44576 0.627338 0
M  V30 7894 C 725.497 1.51048 1.41394 0
M  V30 7895 C 725.912 0.136568 1.88305 0
M  V30 7896 O 725.269 -0.858251 1.6106 0
M  V30 7897 C 725.32 2.47837 2.63172 0
M  V30 7898 O 725.041 3.79887 2.18215 0
M  V30 7899 C 726.542 2.63811 3.56257 0
M  V30 7900 H 723.762 0.512171 0.4335 0
M  V30 7901 H 726.306 1.89576 0.766878 0
M  V30 7902 H 724.461 2.12433 3.23961 0
M  V30 7903 H 724.875 4.32177 2.97192 0
M  V30 7904 H 726.349 3.35554 4.38301 0
M  V30 7905 H 726.826 1.69169 4.05313 0
M  V30 7906 H 727.432 3.0013 3.01333 0
M  V30 7907 N 725.747 -0.868086 1.31537 0
M  V30 7908 C 726.972 -1.65926 1.24432 0
M  V30 7909 C 727.397 -1.87169 -0.186936 0
M  V30 7910 O 726.755 -1.4148 -1.13371 0
M  V30 7911 C 726.803 -3.00347 1.9956 0
M  V30 7912 O 725.907 -3.90221 1.33422 0
M  V30 7913 H 725.248 -0.506375 0.429512 0
M  V30 7914 H 727.778 -1.0822 1.73637 0
M  V30 7915 H 727.788 -3.50269 2.09226 0
M  V30 7916 H 726.463 -2.84205 3.03645 0
M  V30 7917 H 725.04 -3.48672 1.32219 0
M  V30 7918 N 727.225 -1.14528 -1.08264 0
M  V30 7919 C 728.45 -0.938381 -1.84957 0
M  V30 7920 C 728.875 0.508044 -1.81109 0
M  V30 7921 O 728.233 1.36146 -1.19724 0
M  V30 7922 C 728.281 -1.44568 -3.30352 0
M  V30 7923 O 727.385 -0.638745 -4.07423 0
M  V30 7924 H 726.726 -0.335394 -0.573068 0
M  V30 7925 H 729.256 -1.52287 -1.36637 0
M  V30 7926 H 729.266 -1.45449 -3.81194 0
M  V30 7927 H 727.941 -2.49876 -3.32468 0
M  V30 7928 H 726.518 -0.698801 -3.66294 0
M  V30 7929 N 728.703 1.26451 -0.940633 0
M  V30 7930 C 729.952 1.93071 -0.583656 0
M  V30 7931 C 730.265 1.74618 0.881366 0
M  V30 7932 O 731.471 2.35689 1.34769 0
M  V30 7933 C 729.927 3.45927 -0.993106 0
M  V30 7934 C 729.535 3.73115 -2.4797 0
M  V30 7935 C 731.279 4.18554 -0.707998 0
M  V30 7936 C 729.186 5.19408 -2.82788 0
M  V30 7937 H 728.116 0.722824 -0.214572 0
M  V30 7938 H 730.767 1.43538 -1.1432 0
M  V30 7939 H 729.149 3.94341 -0.362099 0
M  V30 7940 H 730.323 3.35408 -3.15971 0
M  V30 7941 H 728.638 3.13719 -2.73805 0
M  V30 7942 H 731.235 5.26293 -0.94447 0
M  V30 7943 H 731.578 4.14782 0.355225 0
M  V30 7944 H 732.111 3.76003 -1.2987 0
M  V30 7945 H 728.85 5.28281 -3.88071 0
M  V30 7946 H 728.37 5.58214 -2.19449 0
M  V30 7947 H 730.049 5.87407 -2.71224 0
M  V30 7948 N 730.181 0.707592 1.40822 0
M  V30 7949 C 731.111 0.0644925 2.33411 0
M  V30 7950 C 732.092 -0.754205 1.52466 0
M  V30 7951 O 733.277 -0.704749 1.80961 0
M  V30 7952 C 730.407 -0.863865 3.36385 0
M  V30 7953 C 729.361 -0.15138 4.27732 0
M  V30 7954 C 728.687 -1.19491 5.21177 0
M  V30 7955 C 729.987 0.989607 5.12839 0
M  V30 7956 H 731.681 0.837829 2.87438 0
M  V30 7957 H 729.227 0.404346 1.38207 0
M  V30 7958 H 731.18 -1.32309 4.0009 0
M  V30 7959 H 729.904 -1.66901 2.80734 0
M  V30 7960 H 728.563 0.287937 3.65467 0
M  V30 7961 H 728.211 -1.9929 4.61836 0
M  V30 7962 H 727.911 -0.723123 5.83134 0
M  V30 7963 H 729.435 -1.6544 5.8776 0
M  V30 7964 H 730.849 0.610114 5.70044 0
M  V30 7965 H 729.246 1.38926 5.83798 0
M  V30 7966 H 730.316 1.82389 4.49291 0
M  V30 7967 N 731.66 -1.50943 0.453197 0
M  V30 7968 C 733.076 -1.59245 0.106342 0
M  V30 7969 C 733.276 -1.46287 -1.38572 0
M  V30 7970 O 732.332 -1.31219 -2.15726 0
M  V30 7971 C 733.645 -2.93797 0.640595 0
M  V30 7972 C 735.193 -3.07148 0.602435 0
M  V30 7973 C 735.668 -4.44247 1.11393 0
M  V30 7974 N 737.159 -4.50611 1.07258 0
M  V30 7975 C 737.894 -5.55049 1.43905 0
M  V30 7976 N 737.39 -6.66828 1.87914 0
M  V30 7977 N 739.183 -5.45494 1.35621 0
M  V30 7978 H 731.334 -1.5761 1.42382 0
M  V30 7979 H 733.597 -0.74384 0.587713 0
M  V30 7980 H 733.303 -3.087 1.68515 0
M  V30 7981 H 733.177 -3.77127 0.0742272 0
M  V30 7982 H 735.564 -2.91903 -0.433171 0
M  V30 7983 H 735.645 -2.25619 1.20539 0
M  V30 7984 H 735.289 -4.60239 2.14808 0
M  V30 7985 H 735.219 -5.2434 0.487353 0
M  V30 7986 H 737.71 -3.70391 0.749585 0
M  V30 7987 H 738.023 -7.42558 2.14072 0
M  V30 7988 H 736.368 -6.67995 1.91853 0
M  V30 7989 H 739.559 -4.57053 1.01093 0
M  V30 7990 H 739.732 -6.2677 1.64508 0
M  V30 7991 N 733.138 -0.185124 -1.56509 0
M  V30 7992 C 734.086 0.756505 -2.19954 0
M  V30 7993 C 735.08 1.22725 -1.16769 0
M  V30 7994 O 736.286 1.1913 -1.34937 0
M  V30 7995 H 732.661 0.262279 -0.704779 0
M  V30 7996 H 734.632 0.197587 -2.97745 0
M  V30 7997 C 733.381 1.96975 -2.86524 0
M  V30 7998 H 732.704 1.61658 -3.65659 0
M  V30 7999 H 734.144 2.60719 -3.34367 0
M  V30 8000 C 732.603 2.80219 -1.87027 0
M  V30 8001 O 733.133 3.77821 -1.36433 0
M  V30 8002 N 731.339 2.4551 -1.55477 0
M  V30 8003 H 730.886 1.66199 -1.96813 0
M  V30 8004 H 730.844 3.01493 -0.891597 0
M  V30 8005 N 734.616 1.57351 0.0885366 0
M  V30 8006 C 735.841 1.91011 0.80805 0
M  V30 8007 C 736.266 0.780009 1.71165 0
M  V30 8008 O 735.624 -0.268083 1.79307 0
M  V30 8009 C 735.672 3.23562 1.59185 0
M  V30 8010 O 734.776 3.11615 2.7013 0
M  V30 8011 H 734.117 0.625943 0.221565 0
M  V30 8012 H 736.647 2.04507 0.0617954 0
M  V30 8013 H 736.657 3.5703 1.97468 0
M  V30 8014 H 735.332 4.05398 0.928741 0
M  V30 8015 H 733.909 2.89673 2.34827 0
M  V30 8016 N 736.094 -0.359525 1.53444 0
M  V30 8017 C 737.041 -1.44073 1.8031 0
M  V30 8018 C 738.011 -1.52946 0.647811 0
M  V30 8019 O 739.196 -1.68739 0.890614 0
M  V30 8020 C 736.336 -2.80941 2.00416 0
M  V30 8021 C 735.449 -2.80986 3.28132 0
M  V30 8022 C 734.584 -4.09468 3.38393 0
M  V30 8023 C 733.623 -4.03679 4.60119 0
M  V30 8024 N 732.76 -5.23821 4.675 0
M  V30 8025 H 737.6 -1.20464 2.72566 0
M  V30 8026 H 735.137 -0.583859 1.35017 0
M  V30 8027 H 737.095 -3.60459 2.1006 0
M  V30 8028 H 735.725 -3.02936 1.11489 0
M  V30 8029 H 734.777 -1.93666 3.27411 0
M  V30 8030 H 736.089 -2.72583 4.17732 0
M  V30 8031 H 735.243 -4.97404 3.47382 0
M  V30 8032 H 733.982 -4.20632 2.4682 0
M  V30 8033 H 732.987 -3.14129 4.51224 0
M  V30 8034 H 734.212 -3.94112 5.5304 0
M  V30 8035 H 732.158 -5.35559 3.7883 0
M  V30 8036 H 732.075 -5.17611 5.51013 0
M  V30 8037 H 733.343 -6.13572 4.8078 0
M  V30 8038 N 737.572 -1.44907 -0.619662 0
M  V30 8039 C 738.8 -1.51795 -1.40591 0
M  V30 8040 C 739.215 -0.146553 -1.8823 0
M  V30 8041 O 738.572 0.849698 -1.61513 0
M  V30 8042 C 738.623 -2.49229 -2.61853 0
M  V30 8043 O 738.344 -3.81039 -2.16197 0
M  V30 8044 C 739.845 -2.65696 -3.54853 0
M  V30 8045 H 737.065 -0.514463 -0.430777 0
M  V30 8046 H 739.609 -1.8998 -0.756813 0
M  V30 8047 H 737.764 -2.14149 -3.2283 0
M  V30 8048 H 738.178 -4.33747 -2.94896 0
M  V30 8049 H 739.652 -3.37874 -4.36515 0
M  V30 8050 H 740.129 -1.71316 -4.0441 0
M  V30 8051 H 740.735 -3.01724 -2.99737 0
M  V30 8052 N 739.05 0.861098 -1.31996 0
M  V30 8053 C 740.299 1.60965 -1.21545 0
M  V30 8054 C 740.612 1.94325 0.222972 0
M  V30 8055 O 741.818 2.67757 0.449272 0
M  V30 8056 C 740.274 2.90223 -2.12834 0
M  V30 8057 C 739.882 2.64313 -3.61722 0
M  V30 8058 C 741.626 3.68229 -2.11205 0
M  V30 8059 C 739.533 3.89532 -4.44993 0
M  V30 8060 H 738.463 0.603988 -0.451348 0
M  V30 8061 H 741.114 0.951358 -1.56912 0
M  V30 8062 H 739.496 3.57475 -1.70375 0
M  V30 8063 H 740.67 2.05413 -4.12483 0
M  V30 8064 H 738.985 1.99647 -3.65418 0
M  V30 8065 H 741.582 4.61138 -2.70658 0
M  V30 8066 H 741.925 4.01466 -1.1014 0
M  V30 8067 H 742.458 3.07873 -2.51911 0
M  V30 8068 H 739.197 3.61441 -5.46846 0
M  V30 8069 H 738.717 4.47851 -3.98985 0
M  V30 8070 H 740.396 4.57334 -4.57663 0
M  V30 8071 N 740.528 1.15101 1.07655 0
M  V30 8072 C 741.475 0.844958 2.14777 0
M  V30 8073 C 742.445 -0.200798 1.64882 0
M  V30 8074 O 743.63 -0.0690278 1.90675 0
M  V30 8075 C 740.77 0.337018 3.4345 0
M  V30 8076 C 739.883 1.44398 4.07153 0
M  V30 8077 C 739.018 0.892487 5.23649 0
M  V30 8078 C 738.057 1.9766 5.79307 0
M  V30 8079 N 737.194 1.44171 6.87138 0
M  V30 8080 H 742.034 1.76242 2.40297 0
M  V30 8081 H 739.571 0.879435 1.17917 0
M  V30 8082 H 741.529 0.024256 4.17193 0
M  V30 8083 H 740.159 -0.543531 3.18191 0
M  V30 8084 H 739.211 1.87299 3.31094 0
M  V30 8085 H 740.523 2.26262 4.4453 0
M  V30 8086 H 739.677 0.532083 6.04362 0
M  V30 8087 H 738.416 0.0429854 4.87681 0
M  V30 8088 H 737.421 2.34586 4.97242 0
M  V30 8089 H 738.646 2.82982 6.17331 0
M  V30 8090 H 736.592 0.614518 6.53115 0
M  V30 8091 H 736.509 2.19665 7.23383 0
M  V30 8092 H 737.777 1.10945 7.71564 0
M  V30 8093 N 742.006 -1.2595 0.947325 0
M  V30 8094 C 743.253 -1.93463 0.598178 0
M  V30 8095 C 743.581 -1.74271 -0.863705 0
M  V30 8096 O 742.836 -1.07684 -1.63409 0
M  V30 8097 C 743.135 -3.46034 0.894158 0
M  V30 8098 C 742.801 -3.85373 2.3409 0
M  V30 8099 C 741.463 -3.95823 2.73637 0
M  V30 8100 C 743.815 -4.04986 3.2808 0
M  V30 8101 C 741.143 -4.23288 4.06257 0
M  V30 8102 C 743.495 -4.3394 4.60303 0
M  V30 8103 C 742.159 -4.42606 4.99656 0
M  V30 8104 H 741.429 -0.707933 0.218889 0
M  V30 8105 H 744.076 -1.4964 1.19499 0
M  V30 8106 H 742.381 -3.9121 0.214874 0
M  V30 8107 H 744.078 -3.96445 0.602698 0
M  V30 8108 H 740.668 -3.7779 2.02417 0
M  V30 8109 H 744.852 -3.96333 2.9872 0
M  V30 8110 H 740.108 -4.28211 4.36401 0
M  V30 8111 H 744.282 -4.48061 5.33118 0
M  V30 8112 H 741.909 -4.63641 6.02446 0
M  V30 8113 N 743.484 -0.715051 -1.40445 0
M  V30 8114 C 744.434 -0.038591 -2.27967 0
M  V30 8115 C 745.418 0.733099 -1.43229 0
M  V30 8116 O 746.61 0.605388 -1.66325 0
M  V30 8117 C 743.739 0.882801 -3.31755 0
M  V30 8118 C 742.825 0.106325 -4.23967 0
M  V30 8119 N 743.216 -0.910143 -4.97544 0
M  V30 8120 C 741.514 0.33896 -4.4471 0
M  V30 8121 C 742.215 -1.37665 -5.65175 0
M  V30 8122 N 741.191 -0.698905 -5.39088 0
M  V30 8123 H 744.993 -0.81765 -2.82297 0
M  V30 8124 H 742.507 -0.547591 -1.5289 0
M  V30 8125 H 744.504 1.38273 -3.93302 0
M  V30 8126 H 743.164 1.66124 -2.78985 0
M  V30 8127 H 744.175 -1.29097 -5.01552 0
M  V30 8128 H 740.852 1.09377 -4.02918 0
M  V30 8129 H 742.242 -2.22122 -6.34123 0
M  V30 8130 N 744.962 1.50701 -0.461195 0
M  V30 8131 C 746.21 2.01867 0.0970051 0
M  V30 8132 C 746.531 1.34591 1.41104 0
M  V30 8133 O 745.801 0.488041 1.89723 0
M  V30 8134 H 744.381 0.74599 0.0388392 0
M  V30 8135 H 747.043 1.85129 -0.609357 0
M  V30 8136 H 746.139 3.11051 0.255688 0
M  V30 8137 N 746.441 0.193421 1.56409 0
M  V30 8138 C 747.687 -0.43983 1.98588 0
M  V30 8139 C 748.042 -1.59353 1.07816 0
M  V30 8140 O 747.335 -1.9121 0.122226 0
M  V30 8141 C 747.529 -0.949718 3.44551 0
M  V30 8142 C 747.358 0.153045 4.49439 0
M  V30 8143 C 746.128 0.610119 5.01603 0
M  V30 8144 C 748.326 0.961397 5.05234 0
M  V30 8145 N 746.308 1.69088 5.90155 0
M  V30 8146 C 747.679 1.8916 5.90439 0
M  V30 8147 C 749.734 1.004 4.87672 0
M  V30 8148 C 748.437 2.86086 6.5996 0
M  V30 8149 C 750.463 1.96131 5.57931 0
M  V30 8150 C 749.825 2.87895 6.42881 0
M  V30 8151 H 745.924 -0.128415 0.771384 0
M  V30 8152 H 748.508 0.29873 1.92395 0
M  V30 8153 H 746.679 -1.65772 3.51246 0
M  V30 8154 H 748.411 -1.55344 3.73698 0
M  V30 8155 H 745.166 0.203771 4.73161 0
M  V30 8156 H 745.59 2.23241 6.39134 0
M  V30 8157 H 750.232 0.308536 4.21673 0
M  V30 8158 H 747.95 3.56609 7.25159 0
M  V30 8159 H 751.536 2.00066 5.46319 0
M  V30 8160 H 750.416 3.60763 6.9629 0
M  V30 8161 N 747.919 -1.57396 -0.0801906 0
M  V30 8162 C 748.829 -2.06451 -1.11423 0
M  V30 8163 C 749.845 -0.992352 -1.42928 0
M  V30 8164 O 751.021 -1.30651 -1.53272 0
M  V30 8165 C 748.086 -2.49164 -2.41077 0
M  V30 8166 C 747.147 -3.70641 -2.16619 0
M  V30 8167 C 746.38 -4.11307 -3.40092 0
M  V30 8168 O 746.603 -3.51922 -4.48895 0
M  V30 8169 O 745.537 -5.04157 -3.288 0
M  V30 8170 H 749.363 -2.94857 -0.727519 0
M  V30 8171 H 746.948 -1.46484 -0.293743 0
M  V30 8172 H 748.83 -2.77196 -3.17396 0
M  V30 8173 H 747.505 -1.6389 -2.79145 0
M  V30 8174 H 746.412 -3.47703 -1.38033 0
M  V30 8175 H 747.745 -4.5674 -1.83437 0
M  V30 8176 N 749.397 0.351382 -1.53633 0
M  V30 8177 C 750.645 1.09034 -1.70165 0
M  V30 8178 C 750.966 1.89413 -0.463422 0
M  V30 8179 O 750.236 1.888 0.522624 0
M  V30 8180 H 748.816 0.405522 -0.627344 0
M  V30 8181 H 751.478 0.394554 -1.90865 0
M  V30 8182 H 750.574 1.77215 -2.56907 0
M  V30 8183 N 750.875 1.45233 0.611969 0
M  V30 8184 C 751.838 1.53189 1.70487 0
M  V30 8185 C 752.838 0.411839 1.55437 0
M  V30 8186 O 754.028 0.675164 1.60584 0
M  V30 8187 C 751.16 1.42422 3.09723 0
M  V30 8188 H 752.353 2.5056 1.64802 0
M  V30 8189 H 749.906 1.32609 0.827318 0
M  V30 8190 H 750.641 0.462185 3.2099 0
M  V30 8191 H 750.426 2.23658 3.22055 0
M  V30 8192 H 751.916 1.51012 3.89339 0
M  V30 8193 N 752.353 -0.854086 1.3245 0
M  V30 8194 C 753.6 -1.60831 1.23043 0
M  V30 8195 C 753.928 -1.93389 -0.2076 0
M  V30 8196 O 753.183 -1.5756 -1.16075 0
M  V30 8197 C 753.482 -2.93746 2.03587 0
M  V30 8198 C 753.148 -2.80615 3.52939 0
M  V30 8199 C 751.81 -2.76742 3.93659 0
M  V30 8200 C 754.162 -2.66507 4.4791 0
M  V30 8201 C 751.49 -2.56638 5.27592 0
M  V30 8202 C 753.842 -2.47939 5.81987 0
M  V30 8203 C 752.506 -2.42458 6.21909 0
M  V30 8204 H 751.776 -0.588523 0.450247 0
M  V30 8205 H 754.423 -0.990699 1.63882 0
M  V30 8206 H 752.728 -3.5963 1.55478 0
M  V30 8207 H 754.425 -3.51127 1.93677 0
M  V30 8208 H 751.015 -2.84456 3.20598 0
M  V30 8209 H 755.199 -2.68544 4.1737 0
M  V30 8210 H 750.455 -2.50831 5.57579 0
M  V30 8211 H 754.629 -2.36002 6.55192 0
M  V30 8212 H 752.256 -2.2664 7.2563 0
M  V30 8213 N 753.831 -1.1567 -1.07043 0
M  V30 8214 C 754.761 -0.879348 -2.16309 0
M  V30 8215 C 755.742 0.171311 -1.69235 0
M  V30 8216 O 756.927 0.0250175 -1.94184 0
M  V30 8217 C 754.057 -0.371307 -3.45309 0
M  V30 8218 C 753.011 -1.359 -4.05851 0
M  V30 8219 C 752.337 -0.709678 -5.29969 0
M  V30 8220 C 753.637 -2.72606 -4.45514 0
M  V30 8221 H 755.331 -1.79308 -2.39768 0
M  V30 8222 H 752.877 -0.863558 -1.15233 0
M  V30 8223 H 754.83 -0.164798 -4.21078 0
M  V30 8224 H 753.554 0.577906 -3.21446 0
M  V30 8225 H 752.213 -1.55193 -3.32131 0
M  V30 8226 H 751.861 0.245782 -5.02399 0
M  V30 8227 H 751.561 -1.36886 -5.71433 0
M  V30 8228 H 753.085 -0.513015 -6.08441 0
M  V30 8229 H 754.499 -2.57141 -5.12398 0
M  V30 8230 H 752.896 -3.34927 -4.97939 0
M  V30 8231 H 753.966 -3.28434 -3.56734 0
M  V30 8232 N 755.309 1.25446 -0.953992 0
M  V30 8233 C 756.586 1.884 -0.525823 0
M  V30 8234 C 756.966 1.86079 0.996891 0
M  V30 8235 O 756.314 1.32389 1.8624 0
M  V30 8236 C 756.524 3.31154 -1.10172 0
M  V30 8237 C 757.872 4.07926 -1.17819 0
M  V30 8238 O 758.896 3.40273 -1.05323 0
M  V30 8239 O 757.755 5.28942 -1.37415 0
M  V30 8240 H 754.849 0.808629 -0.173345 0
M  V30 8241 H 757.395 1.33522 -1.04738 0
M  V30 8242 H 756.167 3.27271 -2.14499 0
M  V30 8243 H 755.79 3.93588 -0.56338 0
M  V30 8244 N 756.787 0.722489 1.40064 0
M  V30 8245 C 758.203 0.396758 1.5459 0
M  V30 8246 C 758.403 -1.09375 1.69232 0
M  V30 8247 O 757.459 -1.87984 1.68578 0
M  V30 8248 C 758.772 1.16885 2.77053 0
M  V30 8249 C 760.32 1.15583 2.90877 0
M  V30 8250 C 760.795 1.91023 4.16262 0
M  V30 8251 N 762.286 1.88126 4.23276 0
M  V30 8252 C 763.021 2.43315 5.19216 0
M  V30 8253 N 762.517 3.07089 6.21022 0
M  V30 8254 N 764.31 2.33418 5.11344 0
M  V30 8255 H 756.461 1.68887 1.28806 0
M  V30 8256 H 758.724 0.714231 0.62336 0
M  V30 8257 H 758.43 2.22301 2.72534 0
M  V30 8258 H 758.304 0.765011 3.69361 0
M  V30 8259 H 760.691 0.10984 2.94896 0
M  V30 8260 H 760.772 1.59895 1.99668 0
M  V30 8261 H 760.416 2.95616 4.13006 0
M  V30 8262 H 760.346 1.44126 5.06493 0
M  V30 8263 H 762.837 1.41654 3.50346 0
M  V30 8264 H 763.15 3.467 6.90666 0
M  V30 8265 H 761.495 3.11175 6.21446 0
M  V30 8266 H 764.686 1.83248 4.30741 0
M  V30 8267 H 764.859 2.7673 5.85939 0
M  V30 8268 N 758.265 -1.50454 0.469181 0
M  V30 8269 C 759.511 -2.02615 -0.0865971 0
M  V30 8270 C 759.844 -1.35062 -1.39542 0
M  V30 8271 O 759.119 -0.475701 -1.88593 0
M  V30 8272 C 759.402 -3.59068 -0.272385 0
M  V30 8273 C 759.255 -4.37196 1.05733 0
M  V30 8274 C 760.574 -4.2793 -1.0278 0
M  V30 8275 H 757.693 -0.736389 -0.0299977 0
M  V30 8276 H 760.335 -1.79792 0.614399 0
M  V30 8277 H 758.485 -3.78646 -0.869471 0
M  V30 8278 H 760.157 -4.29195 1.69084 0
M  V30 8279 H 758.4 -4.01013 1.65442 0
M  V30 8280 H 759.071 -5.44924 0.880997 0
M  V30 8281 H 761.547 -4.12816 -0.521718 0
M  V30 8282 H 760.423 -5.37214 -1.12659 0
M  V30 8283 H 760.684 -3.90968 -2.0639 0
M  V30 8284 N 759.743 -0.201713 -1.56304 0
M  V30 8285 C 760.673 0.71155 -2.22394 0
M  V30 8286 C 761.654 1.21625 -1.18917 0
M  V30 8287 O 762.839 1.26388 -1.47444 0
M  V30 8288 C 759.969 1.92837 -2.88845 0
M  V30 8289 C 758.923 1.55831 -3.98623 0
M  V30 8290 C 758.249 2.85228 -4.52271 0
M  V30 8291 C 759.549 0.763249 -5.16693 0
M  V30 8292 H 761.243 0.160573 -2.98969 0
M  V30 8293 H 758.789 0.0757916 -1.438 0
M  V30 8294 H 760.742 2.57253 -3.33764 0
M  V30 8295 H 759.466 2.50398 -2.09686 0
M  V30 8296 H 758.125 0.9377 -3.54405 0
M  V30 8297 H 757.773 3.40893 -3.69866 0
M  V30 8298 H 757.473 2.6121 -5.26349 0
M  V30 8299 H 758.997 3.50622 -4.99897 0
M  V30 8300 H 760.411 1.31066 -5.58117 0
M  V30 8301 H 758.808 0.620935 -5.96879 0
M  V30 8302 H 759.878 -0.234322 -4.84334 0
M  V30 8303 N 761.222 1.57436 0.0718424 0
M  V30 8304 C 762.47 1.86878 0.769484 0
M  V30 8305 C 762.791 0.7937 1.78116 0
M  V30 8306 O 762.061 -0.177642 1.95093 0
M  V30 8307 H 760.641 0.689593 0.287177 0
M  V30 8308 H 763.303 1.94841 0.0479427 0
M  V30 8309 H 762.399 2.84387 1.28572 0
M  V30 8310 N 762.7 -0.34323 1.53817 0
M  V30 8311 C 763.949 -1.08086 1.70295 0
M  V30 8312 C 764.262 -1.89794 0.47302 0
M  V30 8313 O 765.468 -2.66498 0.518754 0
M  V30 8314 C 763.924 -1.97097 3.01133 0
M  V30 8315 C 763.532 -1.20594 4.31464 0
M  V30 8316 C 765.276 -2.70715 3.26976 0
M  V30 8317 C 763.183 -2.08636 5.53376 0
M  V30 8318 H 762.113 -0.407228 0.634572 0
M  V30 8319 H 764.764 -0.340328 1.80316 0
M  V30 8320 H 763.146 -2.74971 2.84969 0
M  V30 8321 H 764.32 -0.476282 4.58332 0
M  V30 8322 H 762.635 -0.587426 4.12236 0
M  V30 8323 H 765.232 -3.36857 4.15248 0
M  V30 8324 H 765.575 -3.37299 2.43998 0
M  V30 8325 H 766.108 -1.99914 3.43917 0
M  V30 8326 H 762.847 -1.46594 6.38898 0
M  V30 8327 H 762.367 -2.7939 5.30755 0
M  V30 8328 H 764.046 -2.67682 5.89029 0
M  V30 8329 N 764.178 -1.45556 -0.604258 0
M  V30 8330 C 765.594 -1.30035 -0.925368 0
M  V30 8331 C 765.794 -0.255833 -1.99869 0
M  V30 8332 O 764.85 0.349076 -2.50075 0
M  V30 8333 C 766.163 -2.68028 -1.36314 0
M  V30 8334 C 767.711 -2.75951 -1.47717 0
M  V30 8335 C 768.186 -4.14476 -1.94868 0
M  V30 8336 N 769.677 -4.16787 -2.02097 0
M  V30 8337 C 770.412 -5.20845 -2.39809 0
M  V30 8338 N 769.908 -6.35246 -2.76467 0
M  V30 8339 N 771.701 -5.08204 -2.40177 0
M  V30 8340 H 763.852 -2.1214 0.10512 0
M  V30 8341 H 766.115 -0.947871 -0.0156303 0
M  V30 8342 H 765.821 -3.45667 -0.648628 0
M  V30 8343 H 765.695 -2.96711 -2.329 0
M  V30 8344 H 768.082 -1.98613 -2.18258 0
M  V30 8345 H 768.163 -2.50977 -0.494371 0
M  V30 8346 H 767.807 -4.923 -1.24912 0
M  V30 8347 H 767.737 -4.36843 -2.94068 0
M  V30 8348 H 770.228 -3.34233 -1.76343 0
M  V30 8349 H 770.541 -7.10438 -3.04134 0
M  V30 8350 H 768.886 -6.38642 -2.74155 0
M  V30 8351 H 772.077 -4.17874 -2.10947 0
M  V30 8352 H 772.25 -5.89417 -2.69242 0
M  V30 8353 N 765.656 0.84705 -1.32902 0
M  V30 8354 C 766.904 1.5986 -1.2365 0
M  V30 8355 C 767.225 1.93974 0.199789 0
M  V30 8356 O 766.495 1.60273 1.12648 0
M  V30 8357 H 765.075 0.592696 -0.454665 0
M  V30 8358 H 767.737 1.01278 -1.66519 0
M  V30 8359 H 766.833 2.53218 -1.82448 0
M  V30 8360 N 767.134 1.16236 1.06428 0
M  V30 8361 C 768.066 0.825446 2.1382 0
M  V30 8362 C 769.079 -0.166707 1.61944 0
M  V30 8363 O 770.268 0.0578606 1.78406 0
M  V30 8364 C 767.368 0.208023 3.38261 0
M  V30 8365 C 766.541 1.23994 4.19457 0
M  V30 8366 C 765.6 0.642569 5.22262 0
M  V30 8367 O 764.626 1.31106 5.53895 0
M  V30 8368 N 765.828 -0.571327 5.77682 0
M  V30 8369 H 768.593 1.7497 2.43322 0
M  V30 8370 H 766.154 1.05951 1.22417 0
M  V30 8371 H 768.146 -0.204608 4.04182 0
M  V30 8372 H 766.716 -0.619752 3.06395 0
M  V30 8373 H 765.936 1.82879 3.49212 0
M  V30 8374 H 767.224 1.93638 4.70512 0
M  V30 8375 H 766.622 -1.13263 5.54245 0
M  V30 8376 H 765.179 -0.926187 6.45186 0
M  V30 8377 N 768.612 -1.24939 0.960631 0
M  V30 8378 C 769.522 -2.29374 0.492435 0
M  V30 8379 C 770.538 -1.68262 -0.443154 0
M  V30 8380 O 771.714 -1.98875 -0.31793 0
M  V30 8381 C 768.779 -3.46023 -0.216626 0
M  V30 8382 C 767.84 -4.22557 0.757915 0
M  V30 8383 C 767.073 -5.33636 0.0825969 0
M  V30 8384 O 767.296 -5.59084 -1.13054 0
M  V30 8385 O 766.23 -5.96939 0.771177 0
M  V30 8386 H 770.056 -2.71525 1.36044 0
M  V30 8387 H 767.641 -1.30499 0.72735 0
M  V30 8388 H 769.523 -4.16885 -0.615241 0
M  V30 8389 H 768.198 -3.05862 -1.05971 0
M  V30 8390 H 767.105 -3.54099 1.20685 0
M  V30 8391 H 768.438 -4.66516 1.5692 0
M  V30 8392 N 770.09 -0.729906 -1.39679 0
M  V30 8393 C 771.02 -0.101618 -2.33279 0
M  V30 8394 C 772.001 0.729854 -1.53646 0
M  V30 8395 O 773.186 0.67587 -1.82059 0
M  V30 8396 C 770.316 0.81024 -3.37716 0
M  V30 8397 C 769.27 0.0833126 -4.27919 0
M  V30 8398 C 768.596 1.11185 -5.23012 0
M  V30 8399 C 769.896 -1.07107 -5.112 0
M  V30 8400 H 771.59 -0.883452 -2.86069 0
M  V30 8401 H 769.136 -0.426283 -1.37546 0
M  V30 8402 H 771.089 1.25927 -4.02145 0
M  V30 8403 H 769.813 1.62413 -2.83354 0
M  V30 8404 H 768.472 -0.346043 -3.64963 0
M  V30 8405 H 768.12 1.91917 -4.64948 0
M  V30 8406 H 767.82 0.63026 -5.8421 0
M  V30 8407 H 769.344 1.56068 -5.90318 0
M  V30 8408 H 770.758 -0.700726 -5.69002 0
M  V30 8409 H 769.155 -1.48196 -5.81514 0
M  V30 8410 H 770.225 -1.89513 -4.46332 0
M  V30 8411 N 771.568 1.50203 -0.477153 0
M  V30 8412 C 772.816 2.01959 0.0755889 0
M  V30 8413 C 773.137 1.3608 1.39668 0
M  V30 8414 O 772.407 0.508136 1.89195 0
M  V30 8415 H 770.987 0.74636 0.0309248 0
M  V30 8416 H 773.649 1.84473 -0.628959 0
M  V30 8417 H 772.745 3.11305 0.222683 0
M  V30 8418 N 773.046 0.209999 1.56195 0
M  V30 8419 C 774.009 -0.691232 2.18528 0
M  V30 8420 C 775.009 -1.13013 1.14388 0
M  V30 8421 O 776.199 -1.04081 1.39688 0
M  V30 8422 C 773.331 -1.94551 2.79934 0
M  V30 8423 H 774.524 -0.147953 2.99535 0
M  V30 8424 H 772.077 -0.0396243 1.5625 0
M  V30 8425 H 772.812 -2.53094 2.02766 0
M  V30 8426 H 772.597 -1.63938 3.56184 0
M  V30 8427 H 774.087 -2.58785 3.2775 0
M  V30 8428 N 774.524 -1.57472 -0.0634922 0
M  V30 8429 C 775.454 -2.07297 -1.07473 0
M  V30 8430 C 776.435 -0.968162 -1.39859 0
M  V30 8431 O 777.62 -1.24139 -1.49343 0
M  V30 8432 C 774.75 -2.52381 -2.38581 0
M  V30 8433 C 773.704 -3.66813 -2.20526 0
M  V30 8434 C 773.03 -3.97982 -3.57092 0
M  V30 8435 C 774.33 -4.96553 -1.61965 0
M  V30 8436 H 776.024 -2.92033 -0.660092 0
M  V30 8437 H 773.57 -1.40488 -0.316074 0
M  V30 8438 H 775.523 -2.85852 -3.09624 0
M  V30 8439 H 774.247 -1.64684 -2.8204 0
M  V30 8440 H 772.906 -3.33639 -1.51924 0
M  V30 8441 H 772.554 -3.07403 -3.98136 0
M  V30 8442 H 772.254 -4.7504 -3.45848 0
M  V30 8443 H 773.778 -4.33956 -4.29552 0
M  V30 8444 H 775.192 -5.28201 -2.22883 0
M  V30 8445 H 773.589 -5.7799 -1.61394 0
M  V30 8446 H 774.659 -4.81396 -0.581918 0
M  V30 8447 N 776.003 0.335068 -1.53997 0
M  V30 8448 C 777.419 0.678704 -1.4445 0
M  V30 8449 C 777.619 1.92106 -0.608078 0
M  V30 8450 O 776.675 2.52292 -0.102373 0
M  V30 8451 C 777.988 0.863435 -2.88037 0
M  V30 8452 C 779.536 0.961513 -2.97866 0
M  V30 8453 C 780.011 1.1785 -4.42578 0
M  V30 8454 N 781.502 1.2455 -4.46141 0
M  V30 8455 C 782.237 1.43106 -5.55255 0
M  V30 8456 N 781.733 1.5878 -6.74359 0
M  V30 8457 N 783.526 1.45722 -5.42883 0
M  V30 8458 H 775.677 -0.481656 -2.06867 0
M  V30 8459 H 777.94 -0.153615 -0.935471 0
M  V30 8460 H 777.646 0.0219511 -3.51693 0
M  V30 8461 H 777.52 1.76268 -3.33481 0
M  V30 8462 H 779.907 1.79351 -2.34344 0
M  V30 8463 H 779.988 0.0389862 -2.5577 0
M  V30 8464 H 779.632 0.351397 -5.06683 0
M  V30 8465 H 779.562 2.11472 -4.82273 0
M  V30 8466 H 782.053 1.13928 -3.60318 0
M  V30 8467 H 782.366 1.72599 -7.53279 0
M  V30 8468 H 780.711 1.559 -6.77289 0
M  V30 8469 H 783.902 1.33065 -4.48789 0
M  V30 8470 H 784.075 1.59841 -6.27977 0
M  V30 8471 N 777.481 1.45874 0.596531 0
M  V30 8472 C 778.709 1.54013 1.38158 0
M  V30 8473 C 779.124 0.17648 1.87973 0
M  V30 8474 O 778.481 -0.823895 1.62844 0
M  V30 8475 C 778.532 2.53363 2.57855 0
M  V30 8476 O 778.253 3.8443 2.10108 0
M  V30 8477 C 779.754 2.71308 3.50581 0
M  V30 8478 H 776.974 0.521251 0.422538 0
M  V30 8479 H 779.518 1.9116 0.726493 0
M  V30 8480 H 777.673 2.19257 3.19382 0
M  V30 8481 H 778.087 4.38384 2.87958 0
M  V30 8482 H 779.561 3.44776 4.31084 0
M  V30 8483 H 780.038 1.77728 4.01633 0
M  V30 8484 H 780.644 3.06455 2.94899 0
M  V30 8485 N 778.959 -0.83999 1.33349 0
M  V30 8486 C 780.184 -1.63249 1.27924 0
M  V30 8487 C 780.609 -1.87523 -0.147193 0
M  V30 8488 O 779.967 -1.43853 -1.10345 0
M  V30 8489 C 780.015 -2.96046 2.05886 0
M  V30 8490 O 779.119 -3.87303 1.4167 0
M  V30 8491 H 778.46 -0.49715 0.440157 0
M  V30 8492 H 780.99 -1.04512 1.75893 0
M  V30 8493 H 781 -3.45752 2.16609 0
M  V30 8494 H 779.675 -2.77701 3.09605 0
M  V30 8495 H 778.252 -3.45789 1.39585 0
M  V30 8496 N 780.437 -1.16799 -1.0581 0
M  V30 8497 C 781.685 -0.950642 -1.78346 0
M  V30 8498 C 782.006 0.522524 -1.87869 0
M  V30 8499 O 781.276 1.3795 -1.39092 0
M  V30 8500 H 779.856 -0.348736 -0.6606 0
M  V30 8501 H 782.518 -1.47158 -1.27791 0
M  V30 8502 H 781.614 -1.37359 -2.80248 0
M  V30 8503 N 781.915 1.24427 -0.967243 0
M  V30 8504 C 782.845 2.2773 -0.515899 0
M  V30 8505 C 783.826 1.64197 0.444227 0
M  V30 8506 O 785.011 1.91193 0.340451 0
M  V30 8507 C 782.141 3.46751 0.195149 0
M  V30 8508 C 781.095 4.22548 -0.680953 0
M  V30 8509 C 780.421 5.34456 0.161561 0
M  V30 8510 C 781.721 4.83914 -1.96532 0
M  V30 8511 H 783.415 2.65735 -1.37933 0
M  V30 8512 H 780.961 1.27742 -0.664681 0
M  V30 8513 H 782.914 4.18153 0.522117 0
M  V30 8514 H 781.638 3.07771 1.09292 0
M  V30 8515 H 780.297 3.52946 -0.991186 0
M  V30 8516 H 779.945 4.91716 1.05947 0
M  V30 8517 H 779.645 5.86087 -0.421418 0
M  V30 8518 H 781.169 6.08685 0.483211 0
M  V30 8519 H 782.583 5.47392 -1.70396 0
M  V30 8520 H 780.98 5.45775 -2.49499 0
M  V30 8521 H 782.05 4.05393 -2.66053 0
M  V30 8522 N 783.393 0.737304 1.3929 0
M  V30 8523 C 784.323 0.113988 2.33222 0
M  V30 8524 C 785.304 -0.721695 1.54031 0
M  V30 8525 O 786.489 -0.666206 1.82415 0
M  V30 8526 C 783.619 -0.792319 3.38141 0
M  V30 8527 C 782.573 -0.0606178 4.27957 0
M  V30 8528 C 781.899 -1.08409 5.23595 0
M  V30 8529 C 783.199 1.09817 5.10625 0
M  V30 8530 H 784.893 0.898611 2.85596 0
M  V30 8531 H 782.439 0.433571 1.37318 0
M  V30 8532 H 784.392 -1.23793 4.02807 0
M  V30 8533 H 783.116 -1.60908 2.84211 0
M  V30 8534 H 781.775 0.365393 3.64775 0
M  V30 8535 H 781.423 -1.89449 4.6596 0
M  V30 8536 H 781.123 -0.599269 5.84536 0
M  V30 8537 H 782.647 -1.52936 5.91137 0
M  V30 8538 H 784.061 0.730892 5.68622 0
M  V30 8539 H 782.458 1.51278 5.80719 0
M  V30 8540 H 783.528 1.91878 4.45321 0
M  V30 8541 N 784.871 -1.49948 0.485112 0
M  V30 8542 C 786.118 -2.02396 -0.0650059 0
M  V30 8543 C 786.446 -1.36606 -1.38452 0
M  V30 8544 O 785.701 -0.485476 -1.89583 0
M  V30 8545 C 786 -3.56282 -0.282434 0
M  V30 8546 C 785.666 -4.40625 0.957106 0
M  V30 8547 C 784.328 -4.63393 1.29692 0
M  V30 8548 C 786.68 -4.89799 1.78176 0
M  V30 8549 C 784.008 -5.3258 2.4612 0
M  V30 8550 C 786.36 -5.60266 2.93743 0
M  V30 8551 C 785.024 -5.81284 3.28124 0
M  V30 8552 H 784.294 -0.740618 -0.0237873 0
M  V30 8553 H 786.941 -1.80416 0.642044 0
M  V30 8554 H 785.246 -3.76853 -1.07186 0
M  V30 8555 H 786.943 -3.94442 -0.722276 0
M  V30 8556 H 783.533 -4.23133 0.682384 0
M  V30 8557 H 787.717 -4.7205 1.53239 0
M  V30 8558 H 782.973 -5.47059 2.73014 0
M  V30 8559 H 787.147 -5.97347 3.5798 0
M  V30 8560 H 784.774 -6.34671 4.18446 0
M  V30 8561 N 786.349 -0.21828 -1.56081 0
M  V30 8562 C 787.574 0.422302 -2.03055 0
M  V30 8563 C 787.999 1.5279 -1.09713 0
M  V30 8564 O 787.357 1.81102 -0.0847187 0
M  V30 8565 C 787.405 0.934177 -3.48289 0
M  V30 8566 O 786.509 2.04574 -3.58083 0
M  V30 8567 H 785.85 0.0959764 -0.657027 0
M  V30 8568 H 788.38 -0.335958 -2.01823 0
M  V30 8569 H 788.39 1.24484 -3.88546 0
M  V30 8570 H 787.065 0.124963 -4.15712 0
M  V30 8571 H 785.642 1.74196 -3.29712 0
M  V30 8572 N 787.827 1.57504 0.0551401 0
M  V30 8573 C 789.073 1.88334 0.752216 0
M  V30 8574 C 789.406 0.812742 1.76375 0
M  V30 8575 O 788.681 -0.175198 1.93709 0
M  V30 8576 C 788.964 3.29824 1.44528 0
M  V30 8577 C 788.817 4.47553 0.449026 0
M  V30 8578 C 790.136 3.69808 2.38601 0
M  V30 8579 H 787.255 0.684973 0.271995 0
M  V30 8580 H 789.897 1.89994 0.0151895 0
M  V30 8581 H 788.047 3.28539 2.07351 0
M  V30 8582 H 789.719 4.60967 -0.175277 0
M  V30 8583 H 787.962 4.33168 -0.234162 0
M  V30 8584 H 788.633 5.43376 0.971917 0
M  V30 8585 H 791.109 3.72293 1.85842 0
M  V30 8586 H 789.985 4.69665 2.84088 0
M  V30 8587 H 790.246 3.00641 3.24141 0
M  V30 8588 N 789.305 -0.326896 1.54172 0
M  V30 8589 C 790.53 -1.08924 1.76494 0
M  V30 8590 C 790.955 -1.81039 0.510523 0
M  V30 8591 O 790.313 -1.73141 -0.537756 0
M  V30 8592 C 790.361 -2.06558 2.95578 0
M  V30 8593 O 789.465 -3.14394 2.6689 0
M  V30 8594 H 788.806 -0.314216 0.584948 0
M  V30 8595 H 791.336 -0.372207 2.01186 0
M  V30 8596 H 791.346 -2.49487 3.22832 0
M  V30 8597 H 790.021 -1.53469 3.86549 0
M  V30 8598 H 788.598 -2.76164 2.50576 0
M  V30 8599 N 790.784 -1.46188 -0.588786 0
M  V30 8600 C 791.714 -1.59148 -1.70863 0
M  V30 8601 C 792.695 -0.442083 -1.64255 0
M  V30 8602 O 793.88 -0.667575 -1.82365 0
M  V30 8603 C 791.01 -1.5757 -3.09498 0
M  V30 8604 C 789.964 -2.71418 -3.30932 0
M  V30 8605 C 789.29 -2.549 -4.70032 0
M  V30 8606 C 790.59 -4.1329 -3.19356 0
M  V30 8607 H 792.284 -2.52889 -1.60274 0
M  V30 8608 H 789.83 -1.21707 -0.769638 0
M  V30 8609 H 791.783 -1.65231 -3.87655 0
M  V30 8610 H 790.507 -0.603705 -3.20972 0
M  V30 8611 H 789.166 -2.63216 -2.55172 0
M  V30 8612 H 788.814 -1.55797 -4.78264 0
M  V30 8613 H 788.514 -3.31257 -4.85327 0
M  V30 8614 H 790.038 -2.64443 -5.50366 0
M  V30 8615 H 791.452 -4.22636 -3.87365 0
M  V30 8616 H 789.849 -4.90187 -3.46175 0
M  V30 8617 H 790.919 -4.33874 -2.16522 0
M  V30 8618 N 792.262 0.832906 -1.33792 0
M  V30 8619 C 793.508 1.59089 -1.25772 0
M  V30 8620 C 793.841 1.93414 0.174601 0
M  V30 8621 O 793.116 1.59195 1.11746 0
M  V30 8622 C 793.399 2.89699 -2.13885 0
M  V30 8623 C 793.252 2.62017 -3.65605 0
M  V30 8624 C 794.571 3.91182 -2.01654 0
M  V30 8625 H 791.69 0.577232 -0.458227 0
M  V30 8626 H 794.332 0.960227 -1.6395 0
M  V30 8627 H 792.482 3.4352 -1.81456 0
M  V30 8628 H 794.154 2.14582 -4.08353 0
M  V30 8629 H 792.397 1.95621 -3.87189 0
M  V30 8630 H 793.068 3.55112 -4.2261 0
M  V30 8631 H 795.544 3.46684 -2.30107 0
M  V30 8632 H 794.42 4.80391 -2.65548 0
M  V30 8633 H 794.681 4.30861 -0.990536 0
M  V30 8634 N 793.74 1.17359 1.05189 0
M  V30 8635 C 794.965 0.98709 1.82404 0
M  V30 8636 C 795.39 -0.459848 1.82392 0
M  V30 8637 O 794.748 -1.32924 1.23292 0
M  V30 8638 C 794.796 1.53276 3.26403 0
M  V30 8639 O 793.9 0.746541 4.05587 0
M  V30 8640 H 793.241 0.35047 0.563974 0
M  V30 8641 H 795.771 1.55856 1.32552 0
M  V30 8642 H 795.781 1.55504 3.77203 0
M  V30 8643 H 794.456 2.58603 3.25726 0
M  V30 8644 H 793.033 0.795671 3.64312 0
M  V30 8645 N 795.218 -1.23913 0.973828 0
M  V30 8646 C 796.465 -1.92151 0.639079 0
M  V30 8647 C 796.793 -1.76064 -0.826545 0
M  V30 8648 O 796.048 -1.11126 -1.61088 0
M  V30 8649 C 796.347 -3.4406 0.967356 0
M  V30 8650 C 796.013 -3.80321 2.42212 0
M  V30 8651 C 794.675 -3.8993 2.81971 0
M  V30 8652 C 797.027 -3.97935 3.36596 0
M  V30 8653 C 794.355 -4.14575 4.15144 0
M  V30 8654 C 796.707 -4.24079 4.69404 0
M  V30 8655 C 795.371 -4.31908 5.08932 0
M  V30 8656 H 794.641 -0.70313 0.233856 0
M  V30 8657 H 797.288 -1.47072 1.22646 0
M  V30 8658 H 795.593 -3.90667 0.297807 0
M  V30 8659 H 797.29 -3.95077 0.686654 0
M  V30 8660 H 793.88 -3.73411 2.10385 0
M  V30 8661 H 798.064 -3.89908 3.07059 0
M  V30 8662 H 793.32 -4.18858 4.45385 0
M  V30 8663 H 797.494 -4.36652 5.42502 0
M  V30 8664 H 795.121 -4.50758 6.12145 0
M  V30 8665 N 796.696 -0.74468 -1.38897 0
M  V30 8666 C 797.628 -0.0713608 -2.29089 0
M  V30 8667 C 798.641 0.693224 -1.47303 0
M  V30 8668 O 799.83 0.535785 -1.70269 0
M  V30 8669 C 796.93 0.923078 -3.26087 0
M  V30 8670 C 796.103 0.217998 -4.36856 0
M  V30 8671 C 795.162 1.12192 -5.14101 0
M  V30 8672 O 794.188 0.595771 -5.66073 0
M  V30 8673 N 795.39 2.45082 -5.26227 0
M  V30 8674 H 798.155 -0.845906 -2.87514 0
M  V30 8675 H 795.716 -0.594712 -1.50581 0
M  V30 8676 H 797.708 1.53061 -3.74639 0
M  V30 8677 H 796.278 1.59876 -2.68623 0
M  V30 8678 H 795.498 -0.570134 -3.90055 0
M  V30 8679 H 796.786 -0.270248 -5.08082 0
M  V30 8680 H 796.184 2.90294 -4.85537 0
M  V30 8681 H 794.741 3.00907 -5.78185 0
M  V30 8682 N 798.174 1.49689 -0.493057 0
M  V30 8683 C 799.42 2.02727 0.0543518 0
M  V30 8684 C 799.753 1.37264 1.37376 0
M  V30 8685 O 799.028 0.505644 1.87812 0
M  V30 8686 C 799.311 3.59456 0.215226 0
M  V30 8687 C 799.164 4.35459 -1.12675 0
M  V30 8688 C 800.483 4.29511 0.959586 0
M  V30 8689 H 797.602 0.736773 0.0182786 0
M  V30 8690 H 800.244 1.78792 -0.642924 0
M  V30 8691 H 798.394 3.79981 0.809122 0
M  V30 8692 H 800.066 4.2645 -1.75891 0
M  V30 8693 H 798.309 3.9833 -1.71801 0
M  V30 8694 H 798.98 5.43454 -0.967578 0
M  V30 8695 H 801.456 4.13594 0.455977 0
M  V30 8696 H 800.332 5.38939 1.04098 0
M  V30 8697 H 800.593 3.94202 2.00144 0
M  V30 8698 N 799.652 0.226554 1.55963 0
M  V30 8699 C 800.877 -0.411527 2.03276 0
M  V30 8700 C 801.302 -1.52206 1.10521 0
M  V30 8701 O 800.66 -1.81054 0.0943217 0
M  V30 8702 C 800.708 -0.915694 3.4878 0
M  V30 8703 O 799.812 -2.02672 3.59163 0
M  V30 8704 H 799.153 -0.0924907 0.657527 0
M  V30 8705 H 801.683 0.346656 2.01642 0
M  V30 8706 H 801.693 -1.22421 3.892 0
M  V30 8707 H 800.368 -0.102915 4.15773 0
M  V30 8708 H 798.945 -1.72445 3.30632 0
M  V30 8709 N 801.13 -1.57531 -0.0467866 0
M  V30 8710 C 802.358 -1.92696 -0.753371 0
M  V30 8711 C 802.773 -0.824792 -1.69831 0
M  V30 8712 O 802.13 0.200155 -1.81399 0
M  V30 8713 C 802.181 -3.27728 -1.52566 0
M  V30 8714 O 801.902 -4.3371 -0.618674 0
M  V30 8715 C 803.403 -3.77066 -2.33101 0
M  V30 8716 H 800.623 -0.636367 -0.212788 0
M  V30 8717 H 803.167 -2.04498 -0.00959361 0
M  V30 8718 H 801.322 -3.17378 -2.22148 0
M  V30 8719 H 801.736 -5.11548 -1.15839 0
M  V30 8720 H 803.21 -4.74109 -2.82709 0
M  V30 8721 H 803.687 -3.07348 -3.13741 0
M  V30 8722 H 804.293 -3.90442 -1.68628 0
M  V30 8723 N 802.608 0.318715 -1.54344 0
M  V30 8724 C 803.855 1.05608 -1.72781 0
M  V30 8725 C 804.183 1.87854 -0.504083 0
M  V30 8726 O 803.438 1.88826 0.51414 0
M  V30 8727 C 803.737 2.00514 -2.95853 0
M  V30 8728 C 803.403 1.34385 -4.30409 0
M  V30 8729 C 802.065 1.16081 -4.66989 0
M  V30 8730 C 804.417 0.869627 -5.13894 0
M  V30 8731 C 801.745 0.490114 -5.84649 0
M  V30 8732 C 804.097 0.212735 -6.32242 0
M  V30 8733 C 802.761 0.0175882 -6.67498 0
M  V30 8734 H 802.031 0.386449 -0.632249 0
M  V30 8735 H 804.678 0.332729 -1.88587 0
M  V30 8736 H 802.983 2.79317 -2.74753 0
M  V30 8737 H 804.68 2.57605 -3.07312 0
M  V30 8738 H 801.27 1.49634 -4.01631 0
M  V30 8739 H 805.454 0.998809 -4.86146 0
M  V30 8740 H 800.71 0.327767 -6.10521 0
M  V30 8741 H 804.884 -0.162699 -6.9621 0
M  V30 8742 H 802.511 -0.504137 -7.58527 0
M  V30 8743 N 804.086 1.46499 0.581025 0
M  V30 8744 C 805.016 1.60052 1.70017 0
M  V30 8745 C 805.997 0.450788 1.64018 0
M  V30 8746 O 807.182 0.677237 1.82009 0
M  V30 8747 C 804.312 1.5921 3.08658 0
M  V30 8748 C 803.266 2.73169 3.29488 0
M  V30 8749 C 802.592 2.57389 4.68674 0
M  V30 8750 C 803.892 4.14978 3.1716 0
M  V30 8751 H 805.586 2.53735 1.5893 0
M  V30 8752 H 803.132 1.22113 0.763173 0
M  V30 8753 H 805.085 1.67285 3.86773 0
M  V30 8754 H 803.809 0.620718 3.20647 0
M  V30 8755 H 802.468 2.64566 2.53773 0
M  V30 8756 H 802.116 1.58331 4.77431 0
M  V30 8757 H 801.816 3.33826 4.83564 0
M  V30 8758 H 803.34 2.67358 5.48956 0
M  V30 8759 H 804.754 4.24684 3.85119 0
M  V30 8760 H 803.151 4.92016 3.4357 0
M  V30 8761 H 804.221 4.35016 2.14218 0
M  V30 8762 N 805.565 -0.825799 1.34232 0
M  V30 8763 C 806.811 -1.58419 1.26614 0
M  V30 8764 C 807.144 -1.93503 -0.164341 0
M  V30 8765 O 806.419 -1.59785 -1.109 0
M  V30 8766 C 806.702 -2.8856 2.15418 0
M  V30 8767 C 806.555 -2.60075 3.66989 0
M  V30 8768 C 807.874 -3.90107 2.03726 0
M  V30 8769 H 804.993 -0.574794 0.461282 0
M  V30 8770 H 807.635 -0.951519 1.64457 0
M  V30 8771 H 805.785 -3.42553 1.83275 0
M  V30 8772 H 807.457 -2.12414 4.09485 0
M  V30 8773 H 805.7 -1.93565 3.88221 0
M  V30 8774 H 806.371 -3.52866 4.24488 0
M  V30 8775 H 808.847 -3.45459 2.31942 0
M  V30 8776 H 807.723 -4.78976 2.68092 0
M  V30 8777 H 807.984 -4.30329 1.01337 0
M  V30 8778 N 807.043 -1.17915 -1.04565 0
M  V30 8779 C 808.006 -0.903787 -2.10628 0
M  V30 8780 C 809.006 0.10873 -1.60432 0
M  V30 8781 O 810.196 -0.124152 -1.73757 0
M  V30 8782 C 807.328 -0.355017 -3.39046 0
M  V30 8783 H 808.521 -1.84425 -2.3649 0
M  V30 8784 H 806.074 -0.990477 -1.2091 0
M  V30 8785 H 806.809 0.592297 -3.18845 0
M  V30 8786 H 806.594 -1.08484 -3.76794 0
M  V30 8787 H 808.084 -0.180891 -4.17208 0
M  V30 8788 N 808.521 1.23394 -0.980386 0
M  V30 8789 C 809.451 2.2717 -0.540024 0
M  V30 8790 C 810.432 1.64659 0.426787 0
M  V30 8791 O 811.617 1.91543 0.320153 0
M  V30 8792 C 808.747 3.46939 0.15836 0
M  V30 8793 C 807.701 4.21802 -0.725732 0
M  V30 8794 C 807.027 5.34597 0.104866 0
M  V30 8795 C 808.327 4.81802 -2.01654 0
M  V30 8796 H 810.021 2.64257 -1.40743 0
M  V30 8797 H 807.567 1.2703 -0.678193 0
M  V30 8798 H 809.52 4.18683 0.477737 0
M  V30 8799 H 808.244 3.08912 1.06022 0
M  V30 8800 H 806.903 3.51875 -1.02857 0
M  V30 8801 H 806.551 4.92812 1.00726 0
M  V30 8802 H 806.251 5.85607 -0.483557 0
M  V30 8803 H 807.775 6.09163 0.418624 0
M  V30 8804 H 809.189 5.45554 -1.76193 0
M  V30 8805 H 807.586 5.43098 -2.55273 0
M  V30 8806 H 808.656 4.02549 -2.70338 0
M  V30 8807 N 809.999 0.752036 1.385 0
M  V30 8808 C 811.245 0.307958 2.00448 0
M  V30 8809 C 811.578 -1.10702 1.59558 0
M  V30 8810 O 810.853 -1.75788 0.832391 0
M  V30 8811 C 811.136 0.429092 3.57534 0
M  V30 8812 C 810.989 1.88507 4.08393 0
M  V30 8813 C 812.308 -0.178442 4.39738 0
M  V30 8814 H 809.427 0.113373 0.728228 0
M  V30 8815 H 812.069 0.951389 1.64465 0
M  V30 8816 H 810.219 -0.118695 3.88319 0
M  V30 8817 H 811.891 2.49104 3.88259 0
M  V30 8818 H 810.134 2.40066 3.61318 0
M  V30 8819 H 810.805 1.92099 5.17496 0
M  V30 8820 H 813.281 0.28872 4.15097 0
M  V30 8821 H 812.157 -0.0634349 5.48863 0
M  V30 8822 H 812.418 -1.26655 4.23569 0
M  V30 8823 N 811.477 -1.49425 0.500989 0
M  V30 8824 C 812.723 -2.02753 -0.0436 0
M  V30 8825 C 813.056 -1.37991 -1.36646 0
M  V30 8826 O 812.331 -0.515597 -1.87542 0
M  V30 8827 C 812.614 -3.59565 -0.19616 0
M  V30 8828 C 812.467 -4.34855 1.14982 0
M  V30 8829 C 813.786 -4.30014 -0.936795 0
M  V30 8830 H 810.905 -0.73686 -0.0143711 0
M  V30 8831 H 813.547 -1.78448 0.652397 0
M  V30 8832 H 811.697 -3.80405 -0.788959 0
M  V30 8833 H 813.369 -4.25512 1.7815 0
M  V30 8834 H 811.612 -3.97414 1.73911 0
M  V30 8835 H 812.283 -5.42933 0.996385 0
M  V30 8836 H 814.759 -4.1383 -0.434036 0
M  V30 8837 H 813.635 -5.39483 -1.01238 0
M  V30 8838 H 813.896 -3.95257 -1.9805 0
M  V30 8839 N 812.955 -0.234822 -1.55841 0
M  V30 8840 C 814.202 0.39326 -1.98645 0
M  V30 8841 C 814.53 1.58823 -1.12274 0
M  V30 8842 O 813.785 1.94954 -0.170731 0
M  V30 8843 C 814.084 0.858032 -3.46947 0
M  V30 8844 C 813.75 -0.227858 -4.50324 0
M  V30 8845 C 812.412 -0.526128 -4.78315 0
M  V30 8846 C 814.764 -0.961576 -5.12253 0
M  V30 8847 C 812.092 -1.5624 -5.65514 0
M  V30 8848 C 814.444 -1.98728 -6.00575 0
M  V30 8849 C 813.108 -2.29233 -6.26904 0
M  V30 8850 H 812.378 0.143904 -0.726892 0
M  V30 8851 H 815.025 -0.34012 -1.88455 0
M  V30 8852 H 813.33 1.67041 -3.54408 0
M  V30 8853 H 815.027 1.35407 -3.77447 0
M  V30 8854 H 811.617 0.0147624 -4.28597 0
M  V30 8855 H 815.801 -0.744388 -4.90686 0
M  V30 8856 H 811.057 -1.80422 -5.84173 0
M  V30 8857 H 815.231 -2.5608 -6.47608 0
M  V30 8858 H 812.858 -3.09671 -6.94268 0
M  V30 8859 N 814.433 1.57553 0.0384317 0
M  V30 8860 C 815.396 2.04927 1.02653 0
M  V30 8861 C 816.396 0.951768 1.29607 0
M  V30 8862 O 817.586 1.21568 1.24768 0
M  V30 8863 C 814.718 2.45828 2.36181 0
M  V30 8864 H 815.911 2.93474 0.617508 0
M  V30 8865 H 813.464 1.53679 0.285031 0
M  V30 8866 H 814.199 1.60408 2.8185 0
M  V30 8867 H 813.984 3.25945 2.1795 0
M  V30 8868 H 815.474 2.82939 3.0714 0
M  V30 8869 N 815.911 -0.310526 1.54511 0
M  V30 8870 C 817.157 -1.04846 1.73595 0
M  V30 8871 C 817.49 -1.87244 0.515118 0
M  V30 8872 O 816.765 -1.88282 -0.48786 0
M  V30 8873 C 817.048 -1.96237 3.01932 0
M  V30 8874 C 816.901 -1.17082 4.34295 0
M  V30 8875 C 818.22 -2.9556 3.26086 0
M  V30 8876 H 815.339 -0.37976 0.631626 0
M  V30 8877 H 817.981 -0.32394 1.87218 0
M  V30 8878 H 816.131 -2.58015 2.90449 0
M  V30 8879 H 817.803 -0.576643 4.57682 0
M  V30 8880 H 816.046 -0.473336 4.3121 0
M  V30 8881 H 816.717 -1.84257 5.20339 0
M  V30 8882 H 819.193 -2.43908 3.37117 0
M  V30 8883 H 818.069 -3.5668 4.17218 0
M  V30 8884 H 818.33 -3.68715 2.4393 0
M  V30 8885 N 817.389 -1.46805 -0.573248 0
M  V30 8886 C 818.339 -1.54497 -1.67674 0
M  V30 8887 C 819.323 -0.405117 -1.55716 0
M  V30 8888 O 820.515 -0.654097 -1.64471 0
M  V30 8889 C 817.644 -1.54717 -3.0646 0
M  V30 8890 C 816.73 -2.7403 -3.2368 0
M  V30 8891 N 817.121 -3.98871 -3.11023 0
M  V30 8892 C 815.419 -2.70453 -3.54642 0
M  V30 8893 C 816.12 -4.78689 -3.30502 0
M  V30 8894 N 815.096 -4.10727 -3.56096 0
M  V30 8895 H 818.898 -2.48809 -1.56433 0
M  V30 8896 H 816.412 -1.42576 -0.777554 0
M  V30 8897 H 818.409 -1.58316 -3.8567 0
M  V30 8898 H 817.069 -0.614886 -3.18825 0
M  V30 8899 H 818.08 -4.29976 -2.88688 0
M  V30 8900 H 814.757 -1.86291 -3.73633 0
M  V30 8901 H 816.147 -5.87615 -3.2582 0
M  V30 8902 N 818.867 0.818669 -1.34668 0
M  V30 8903 C 820.095 1.60674 -1.30351 0
M  V30 8904 C 820.51 1.88408 0.121546 0
M  V30 8905 O 819.867 1.47849 1.06991 0
M  V30 8906 C 819.918 2.94516 -2.09625 0
M  V30 8907 O 819.639 2.6799 -3.46573 0
M  V30 8908 C 821.14 3.8891 -2.12754 0
M  V30 8909 H 818.36 0.499306 -0.448258 0
M  V30 8910 H 820.904 1.01828 -1.77345 0
M  V30 8911 H 819.059 3.49908 -1.66262 0
M  V30 8912 H 819.473 3.53361 -3.87603 0
M  V30 8913 H 820.947 4.79972 -2.72637 0
M  V30 8914 H 821.424 4.24599 -1.12306 0
M  V30 8915 H 822.03 3.39453 -2.56225 0
M  V30 8916 N 820.346 1.18468 1.03938 0
M  V30 8917 C 821.276 0.936389 2.13902 0
M  V30 8918 C 822.257 -0.126381 1.6963 0
M  V30 8919 O 823.442 0.0264757 1.94182 0
M  V30 8920 C 820.572 0.462729 3.44204 0
M  V30 8921 C 819.526 1.46613 4.02105 0
M  V30 8922 C 818.852 0.84994 5.27902 0
M  V30 8923 C 820.152 2.84323 4.3813 0
M  V30 8924 H 821.846 1.85602 2.3493 0
M  V30 8925 H 819.392 0.893806 1.12903 0
M  V30 8926 H 821.345 0.276382 4.20493 0
M  V30 8927 H 820.069 -0.492477 3.22866 0
M  V30 8928 H 818.728 1.63944 3.27899 0
M  V30 8929 H 818.376 -0.112493 5.02874 0
M  V30 8930 H 818.076 1.51988 5.67603 0
M  V30 8931 H 819.6 0.674152 6.06867 0
M  V30 8932 H 821.014 2.70636 5.054 0
M  V30 8933 H 819.411 3.48012 4.88884 0
M  V30 8934 H 820.481 3.37776 3.47901 0
M  V30 8935 N 821.824 -1.22873 0.986916 0
M  V30 8936 C 823.07 -1.91746 0.660401 0
M  V30 8937 C 823.403 -1.76738 -0.804812 0
M  V30 8938 O 822.678 -1.13246 -1.58131 0
M  V30 8939 C 822.961 -3.44156 1.05966 0
M  V30 8940 C 822.814 -3.68242 2.58298 0
M  V30 8941 C 824.133 -4.35874 0.60842 0
M  V30 8942 H 821.252 -0.696347 0.241391 0
M  V30 8943 H 823.894 -1.44867 1.22937 0
M  V30 8944 H 822.044 -3.84213 0.575534 0
M  V30 8945 H 823.716 -3.37626 3.14335 0
M  V30 8946 H 821.959 -3.12728 3.00638 0
M  V30 8947 H 822.63 -4.74956 2.81285 0
M  V30 8948 H 825.106 -4.03299 1.02417 0
M  V30 8949 H 823.982 -5.41201 0.916142 0
M  V30 8950 H 824.243 -4.39364 -0.491086 0
M  V30 8951 N 823.302 -0.75937 -1.38099 0
M  V30 8952 C 824.265 -0.14372 -2.28749 0
M  V30 8953 C 825.265 0.641338 -1.47457 0
M  V30 8954 O 826.455 0.466751 -1.67831 0
M  V30 8955 C 823.587 0.804545 -3.3127 0
M  V30 8956 H 824.78 -0.942663 -2.847 0
M  V30 8957 H 822.333 -0.526757 -1.47156 0
M  V30 8958 H 823.068 1.62895 -2.80421 0
M  V30 8959 H 822.853 0.243939 -3.9134 0
M  V30 8960 H 824.343 1.23111 -3.99041 0
M  V30 8961 N 824.78 1.49157 -0.508906 0
M  V30 8962 C 825.69 2.33045 0.269656 0
M  V30 8963 C 826.706 1.45143 0.959662 0
M  V30 8964 O 827.882 1.78155 0.939295 0
M  V30 8965 C 824.947 3.20772 1.31554 0
M  V30 8966 C 824.008 4.24531 0.638131 0
M  V30 8967 C 823.241 5.08065 1.63418 0
M  V30 8968 O 823.464 4.93238 2.86483 0
M  V30 8969 O 822.398 5.90117 1.18516 0
M  V30 8970 H 826.224 3.00821 -0.417183 0
M  V30 8971 H 823.809 1.46938 -0.270119 0
M  V30 8972 H 825.691 3.75095 1.92047 0
M  V30 8973 H 824.366 2.55681 1.98516 0
M  V30 8974 H 823.273 3.74099 -0.00674357 0
M  V30 8975 H 824.606 4.92199 0.0108155 0
M  V30 8976 N 826.258 0.243083 1.55714 0
M  V30 8977 C 827.206 -0.674349 2.2261 0
M  V30 8978 C 828.2 -1.18307 1.21243 0
M  V30 8979 O 829.406 -1.1404 1.39265 0
M  V30 8980 H 825.781 -0.235941 0.714028 0
M  V30 8981 H 827.752 -0.0869446 2.98273 0
M  V30 8982 C 826.501 -1.86206 2.93637 0
M  V30 8983 H 825.824 -1.47975 3.71407 0
M  V30 8984 H 827.264 -2.4813 3.43813 0
M  V30 8985 C 825.723 -2.73084 1.97298 0
M  V30 8986 O 826.253 -3.72497 1.50361 0
M  V30 8987 N 824.459 -2.39571 1.64482 0
M  V30 8988 H 824.006 -1.5878 2.02846 0
M  V30 8989 H 823.964 -2.97976 1.00288 0
M  V30 8990 N 827.736 -1.57571 -0.0300757 0
M  V30 8991 C 828.699 -2.05468 -1.01565 0
M  V30 8992 C 829.699 -0.958628 -1.29101 0
M  V30 8993 O 830.889 -1.22228 -1.24121 0
M  V30 8994 C 828.021 -2.47077 -2.34874 0
M  V30 8995 H 829.214 -2.93797 -0.601936 0
M  V30 8996 H 826.767 -1.53828 -0.276878 0
M  V30 8997 H 827.502 -1.61901 -2.80996 0
M  V30 8998 H 827.287 -3.27097 -2.16218 0
M  V30 8999 H 828.777 -2.84564 -3.05635 0
M  V30 9000 N 829.214 0.302327 -1.54673 0
M  V30 9001 C 830.147 1.39738 -1.80412 0
M  V30 9002 C 831.125 1.48813 -0.655241 0
M  V30 9003 O 832.309 1.65895 -0.89505 0
M  V30 9004 C 829.436 2.7766 -1.93966 0
M  V30 9005 C 828.482 2.86014 -3.16383 0
M  V30 9006 S 829.315 2.48246 -4.74483 0
M  V30 9007 C 830.471 3.88198 -4.90971 0
M  V30 9008 H 830.704 1.17696 -2.73011 0
M  V30 9009 H 828.237 0.500364 -1.46068 0
M  V30 9010 H 830.195 3.571 -2.0246 0
M  V30 9011 H 828.856 2.96971 -1.02307 0
M  V30 9012 H 828.049 3.87174 -3.22664 0
M  V30 9013 H 827.651 2.14568 -3.06328 0
M  V30 9014 H 829.943 4.83181 -4.74913 0
M  V30 9015 H 830.886 3.86887 -5.93063 0
M  V30 9016 H 831.294 3.78139 -4.19131 0
M  V30 9017 N 830.692 1.47107 0.565454 0
M  V30 9018 C 831.64 1.59368 1.69424 0
M  V30 9019 C 832.634 0.461344 1.62997 0
M  V30 9020 O 833.84 0.638849 1.68282 0
M  V30 9021 H 830.215 0.501387 0.560459 0
M  V30 9022 H 832.186 2.54242 1.56217 0
M  V30 9023 C 830.935 1.61739 3.07792 0
M  V30 9024 H 830.258 2.48215 3.13416 0
M  V30 9025 H 831.698 1.7437 3.86486 0
M  V30 9026 C 830.157 0.349156 3.35086 0
M  V30 9027 O 830.687 -0.553287 3.97871 0
M  V30 9028 N 828.893 0.231723 2.89675 0
M  V30 9029 H 828.44 0.967021 2.3876 0
M  V30 9030 H 828.398 -0.615911 3.08308 0
M  V30 9031 N 832.17 -0.811516 1.35101 0
M  V30 9032 C 833.133 -1.90467 1.27495 0
M  V30 9033 C 834.133 -1.59703 0.187516 0
M  V30 9034 O 835.323 -1.68528 0.440896 0
M  V30 9035 C 832.455 -3.26774 0.971154 0
M  V30 9036 H 833.648 -1.98631 2.2469 0
M  V30 9037 H 831.201 -1.00681 1.19553 0
M  V30 9038 H 831.936 -3.243 0.0028557 0
M  V30 9039 H 831.721 -3.50488 1.75785 0
M  V30 9040 H 833.211 -4.06804 0.943414 0
M  V30 9041 N 833.648 -1.19017 -1.03309 0
M  V30 9042 C 834.558 -0.939303 -2.14975 0
M  V30 9043 C 835.574 0.0992359 -1.73717 0
M  V30 9044 O 836.75 -0.0844362 -2.01223 0
M  V30 9045 C 833.815 -0.476712 -3.43407 0
M  V30 9046 C 832.876 -1.58413 -3.99003 0
M  V30 9047 C 832.109 -1.14352 -5.21305 0
M  V30 9048 O 832.332 -0.00534408 -5.704 0
M  V30 9049 O 831.266 -1.94436 -5.6963 0
M  V30 9050 H 835.092 -1.87386 -2.38998 0
M  V30 9051 H 832.677 -0.972635 -1.13403 0
M  V30 9052 H 834.559 -0.22718 -4.20787 0
M  V30 9053 H 833.234 0.429455 -3.20839 0
M  V30 9054 H 832.141 -1.88777 -3.22977 0
M  V30 9055 H 833.474 -2.4667 -4.25928 0
M  V30 9056 N 835.127 1.22348 -0.993418 0
M  V30 9057 C 836.074 2.24294 -0.544118 0
M  V30 9058 C 837.044 1.60602 0.42381 0
M  V30 9059 O 838.229 1.87952 0.328453 0
M  V30 9060 C 835.369 3.44837 0.134578 0
M  V30 9061 C 834.482 4.23043 -0.875151 0
M  V30 9062 C 833.617 5.30928 -0.169919 0
M  V30 9063 C 832.656 6.00853 -1.16798 0
M  V30 9064 N 831.793 7.00381 -0.491021 0
M  V30 9065 H 836.633 2.6209 -1.4182 0
M  V30 9066 H 834.17 1.2881 -0.710384 0
M  V30 9067 H 836.128 4.13625 0.544998 0
M  V30 9068 H 834.758 3.07804 0.972446 0
M  V30 9069 H 833.81 3.53546 -1.40389 0
M  V30 9070 H 835.122 4.71237 -1.63516 0
M  V30 9071 H 834.276 6.05972 0.297205 0
M  V30 9072 H 833.015 4.8371 0.622586 0
M  V30 9073 H 832.02 5.24591 -1.64573 0
M  V30 9074 H 833.245 6.50159 -1.96137 0
M  V30 9075 H 831.191 6.55393 0.282037 0
M  V30 9076 H 831.108 7.46584 -1.18947 0
M  V30 9077 H 832.376 7.79486 -0.0467169 0
M  V30 9078 N 836.605 0.766683 1.37694 0
M  V30 9079 C 837.568 0.155849 2.2867 0
M  V30 9080 C 838.568 -0.633509 1.47795 0
M  V30 9081 O 839.758 -0.457844 1.68076 0
M  V30 9082 C 836.89 -0.786965 3.31692 0
M  V30 9083 H 838.083 0.957748 2.84196 0
M  V30 9084 H 835.636 0.534554 1.46875 0
M  V30 9085 H 836.371 -1.61406 2.8128 0
M  V30 9086 H 836.156 -0.223182 3.91464 0
M  V30 9087 H 837.646 -1.20994 3.99688 0
M  V30 9088 N 838.083 -1.48885 0.516809 0
M  V30 9089 C 839.33 -2.02488 -0.0220602 0
M  V30 9090 C 839.658 -1.39513 -1.35523 0
M  V30 9091 O 838.913 -0.52558 -1.8851 0
M  V30 9092 C 839.212 -3.56801 -0.206798 0
M  V30 9093 C 838.878 -4.38496 1.05035 0
M  V30 9094 C 837.54 -4.60538 1.39492 0
M  V30 9095 C 839.892 -4.85909 1.88525 0
M  V30 9096 C 837.22 -5.2724 2.57361 0
M  V30 9097 C 839.572 -5.53909 3.05561 0
M  V30 9098 C 838.236 -5.74193 3.4038 0
M  V30 9099 H 837.506 -0.740956 -0.00807238 0
M  V30 9100 H 840.153 -1.79014 0.680168 0
M  V30 9101 H 838.458 -3.79042 -0.991687 0
M  V30 9102 H 840.155 -3.95885 -0.638447 0
M  V30 9103 H 836.745 -4.2159 0.771984 0
M  V30 9104 H 840.929 -4.68694 1.63218 0
M  V30 9105 H 836.185 -5.41145 2.84556 0
M  V30 9106 H 840.359 -5.89619 3.7057 0
M  V30 9107 H 837.986 -6.25652 4.31814 0
M  V30 9108 N 839.561 -0.251338 -1.55583 0
M  V30 9109 C 840.807 0.37272 -1.99346 0
M  V30 9110 C 841.14 1.57266 -1.13934 0
M  V30 9111 O 840.415 1.9343 -0.20377 0
M  V30 9112 C 840.698 0.778245 -3.5159 0
M  V30 9113 C 840.551 -0.427394 -4.47765 0
M  V30 9114 C 841.87 1.62358 -4.09057 0
M  V30 9115 H 838.989 0.134002 -0.724715 0
M  V30 9116 H 841.631 -0.353536 -1.86682 0
M  V30 9117 H 839.781 1.39704 -3.62512 0
M  V30 9118 H 841.453 -1.06586 -4.48818 0
M  V30 9119 H 839.696 -1.06972 -4.20404 0
M  V30 9120 H 840.367 -0.10025 -5.51909 0
M  V30 9121 H 842.843 1.1012 -4.01264 0
M  V30 9122 H 841.719 1.87617 -5.1584 0
M  V30 9123 H 841.98 2.59688 -3.57791 0
M  V30 9124 N 841.039 1.57585 0.0217189 0
M  V30 9125 C 842.267 1.93871 0.722619 0
M  V30 9126 C 842.682 0.851706 1.68498 0
M  V30 9127 O 842.039 -0.17127 1.81695 0
M  V30 9128 C 842.09 3.30114 1.47333 0
M  V30 9129 O 841.811 4.34639 0.549597 0
M  V30 9130 C 843.312 3.80727 2.27072 0
M  V30 9131 H 840.532 0.639671 0.202637 0
M  V30 9132 H 843.076 2.04487 -0.0229414 0
M  V30 9133 H 841.231 3.20872 2.17071 0
M  V30 9134 H 841.645 5.13326 1.07686 0
M  V30 9135 H 843.119 4.78547 2.75131 0
M  V30 9136 H 843.596 3.12301 3.08812 0
M  V30 9137 H 844.202 3.93075 1.62395 0
M  V30 9138 N 842.517 -0.29412 1.54831 0
M  V30 9139 C 843.447 -1.36757 1.89261 0
M  V30 9140 C 844.428 -1.52564 0.752214 0
M  V30 9141 O 845.613 -1.65958 1.00855 0
M  V30 9142 C 842.743 -2.73066 2.14597 0
M  V30 9143 C 841.697 -2.72017 3.3044 0
M  V30 9144 C 841.023 -4.11679 3.4121 0
M  V30 9145 C 842.323 -2.33149 4.67375 0
M  V30 9146 H 844.017 -1.08191 2.79169 0
M  V30 9147 H 841.563 -0.519014 1.34321 0
M  V30 9148 H 843.516 -3.48255 2.37269 0
M  V30 9149 H 842.24 -3.03172 1.21467 0
M  V30 9150 H 840.899 -1.99285 3.07703 0
M  V30 9151 H 840.547 -4.38973 2.45584 0
M  V30 9152 H 840.247 -4.11877 4.19084 0
M  V30 9153 H 841.771 -4.88637 3.6615 0
M  V30 9154 H 843.185 -2.98054 4.89731 0
M  V30 9155 H 841.582 -2.44546 5.48012 0
M  V30 9156 H 842.652 -1.28275 4.67626 0
M  V30 9157 N 843.995 -1.47404 -0.557645 0
M  V30 9158 C 845.223 -1.57622 -1.34026 0
M  V30 9159 C 845.638 -0.226256 -1.87439 0
M  V30 9160 O 844.995 0.78043 -1.64971 0
M  V30 9161 C 845.046 -2.60111 -2.51047 0
M  V30 9162 O 844.767 -3.89866 -1.99841 0
M  V30 9163 C 846.268 -2.80508 -3.43264 0
M  V30 9164 H 843.488 -0.532271 -0.40857 0
M  V30 9165 H 846.032 -1.93019 -0.675555 0
M  V30 9166 H 844.187 -2.27648 -3.13457 0
M  V30 9167 H 844.601 -4.45864 -2.76234 0
M  V30 9168 H 846.075 -3.56084 -4.21792 0
M  V30 9169 H 846.552 -1.88314 -3.9678 0
M  V30 9170 H 847.158 -3.14166 -2.86671 0
M  V30 9171 N 845.473 0.80434 -1.35529 0
M  V30 9172 C 846.719 1.56385 -1.29118 0
M  V30 9173 C 847.052 1.9374 0.133536 0
M  V30 9174 O 846.327 1.6153 1.08344 0
M  V30 9175 C 846.61 2.85097 -2.19981 0
M  V30 9176 C 846.463 2.54204 -3.7108 0
M  V30 9177 C 847.782 3.86817 -2.09907 0
M  V30 9178 H 844.901 0.567382 -0.470368 0
M  V30 9179 H 847.543 0.925235 -1.6595 0
M  V30 9180 H 845.693 3.39594 -1.88701 0
M  V30 9181 H 847.365 2.05872 -4.12813 0
M  V30 9182 H 845.608 1.87364 -3.91251 0
M  V30 9183 H 846.279 3.46068 -4.30048 0
M  V30 9184 H 848.755 3.41725 -2.37409 0
M  V30 9185 H 847.631 4.7465 -2.75678 0
M  V30 9186 H 847.892 4.28663 -1.08171 0
M  V30 9187 N 846.951 1.19563 1.02676 0
M  V30 9188 C 847.881 0.959024 2.12897 0
M  V30 9189 C 848.862 -0.108382 1.69754 0
M  V30 9190 O 850.047 0.0470698 1.94143 0
M  V30 9191 C 847.177 0.499211 3.43693 0
M  V30 9192 C 846.131 1.5087 4.00528 0
M  V30 9193 C 845.457 0.905884 5.2697 0
M  V30 9194 C 846.757 2.88954 4.3509 0
M  V30 9195 H 848.451 1.88084 2.32948 0
M  V30 9196 H 845.997 0.905731 1.11949 0
M  V30 9197 H 847.95 0.320965 4.20176 0
M  V30 9198 H 846.674 -0.458205 3.2337 0
M  V30 9199 H 845.333 1.67413 3.26142 0
M  V30 9200 H 844.981 -0.0591506 5.02965 0
M  V30 9201 H 844.681 1.58 5.65959 0
M  V30 9202 H 846.205 0.73848 6.06118 0
M  V30 9203 H 847.619 2.75981 5.02501 0
M  V30 9204 H 846.016 3.53177 4.85166 0
M  V30 9205 H 847.086 3.41447 3.44299 0
M  V30 9206 N 848.429 -1.21819 0.999893 0
M  V30 9207 C 849.377 -2.26027 0.549047 0
M  V30 9208 C 850.371 -1.64516 -0.403826 0
M  V30 9209 O 851.577 -1.77878 -0.275578 0
M  V30 9210 H 847.952 -0.734958 0.159185 0
M  V30 9211 H 849.923 -2.61398 1.43923 0
M  V30 9212 C 848.672 -3.47514 -0.11369 0
M  V30 9213 H 847.995 -3.95112 0.610482 0
M  V30 9214 H 849.435 -4.22179 -0.3925 0
M  V30 9215 C 847.894 -3.08614 -1.35126 0
M  V30 9216 O 848.424 -3.1864 -2.44605 0
M  V30 9217 N 846.63 -2.63327 -1.22911 0
M  V30 9218 H 846.177 -2.55369 -0.338288 0
M  V30 9219 H 846.135 -2.37668 -2.05818 0
M  V30 9220 N 849.908 -0.773975 -1.37286 0
M  V30 9221 C 851.157 -0.335977 -1.98882 0
M  V30 9222 C 851.47 1.09416 -1.62134 0
M  V30 9223 O 852.676 1.63366 -2.1685 0
M  V30 9224 C 851.132 -0.549756 -3.55676 0
M  V30 9225 C 850.74 -1.9903 -4.01361 0
M  V30 9226 C 852.484 -0.175493 -4.24137 0
M  V30 9227 C 850.391 -2.15156 -5.50874 0
M  V30 9228 H 849.321 -0.121877 -0.744085 0
M  V30 9229 H 851.972 -0.953419 -1.56787 0
M  V30 9230 H 850.354 0.137175 -3.95762 0
M  V30 9231 H 851.528 -2.71237 -3.72515 0
M  V30 9232 H 849.843 -2.32137 -3.4569 0
M  V30 9233 H 852.44 -0.274463 -5.33995 0
M  V30 9234 H 852.783 0.874524 -4.07011 0
M  V30 9235 H 853.316 -0.815058 -3.89361 0
M  V30 9236 H 850.055 -3.18485 -5.72929 0
M  V30 9237 H 849.575 -1.47435 -5.81397 0
M  V30 9238 H 851.254 -1.95124 -6.16876 0
M  V30 9239 N 851.386 1.48609 -0.524698 0
M  V30 9240 C 852.316 2.32366 0.229837 0
M  V30 9241 C 853.297 1.41759 0.940129 0
M  V30 9242 O 854.482 1.7065 0.926936 0
M  V30 9243 C 851.612 3.22835 1.28043 0
M  V30 9244 C 850.566 4.22424 0.688603 0
M  V30 9245 C 849.892 5.0199 1.84146 0
M  V30 9246 C 851.192 5.21217 -0.336176 0
M  V30 9247 H 852.886 2.95698 -0.469339 0
M  V30 9248 H 850.432 1.42197 -0.227156 0
M  V30 9249 H 852.385 3.80253 1.8162 0
M  V30 9250 H 851.109 2.57492 2.00912 0
M  V30 9251 H 849.768 3.66185 0.174402 0
M  V30 9252 H 849.416 4.33076 2.5584 0
M  V30 9253 H 849.116 5.69392 1.45142 0
M  V30 9254 H 850.64 5.62259 2.38111 0
M  V30 9255 H 852.054 5.7319 0.112307 0
M  V30 9256 H 850.451 5.96642 -0.643324 0
M  V30 9257 H 851.521 4.68676 -1.24381 0
M  V30 9258 N 852.864 0.259585 1.55447 0
M  V30 9259 C 853.812 -0.6507 2.23313 0
M  V30 9260 C 854.806 -1.17014 1.22491 0
M  V30 9261 O 856.012 -1.12557 1.40467 0
M  V30 9262 H 852.387 -0.228354 0.71649 0
M  V30 9263 H 854.358 -0.0553039 2.98349 0
M  V30 9264 C 853.107 -1.83081 2.95596 0
M  V30 9265 H 852.43 -1.44027 3.72956 0
M  V30 9266 H 853.87 -2.44469 3.46426 0
M  V30 9267 C 852.329 -2.70976 2.00184 0
M  V30 9268 O 852.859 -3.70882 1.54304 0
M  V30 9269 N 851.065 -2.37813 1.67014 0
M  V30 9270 H 850.612 -1.5662 2.04519 0
M  V30 9271 H 850.57 -2.96896 1.03443 0
M  V30 9272 N 854.342 -1.57594 -0.0133615 0
M  V30 9273 C 855.289 -2.07574 -1.00905 0
M  V30 9274 C 856.259 -0.968231 -1.34961 0
M  V30 9275 O 857.444 -1.23981 -1.45028 0
M  V30 9276 C 854.584 -2.5728 -2.30002 0
M  V30 9277 C 853.697 -3.81881 -2.01967 0
M  V30 9278 C 852.832 -4.20139 -3.25049 0
M  V30 9279 C 851.871 -5.37614 -2.92639 0
M  V30 9280 N 851.008 -5.71229 -4.08218 0
M  V30 9281 H 855.848 -2.92382 -0.575899 0
M  V30 9282 H 853.385 -1.4455 -0.272722 0
M  V30 9283 H 855.343 -2.84171 -3.05454 0
M  V30 9284 H 853.973 -1.75365 -2.71011 0
M  V30 9285 H 853.025 -3.61979 -1.16942 0
M  V30 9286 H 854.337 -4.67441 -1.74069 0
M  V30 9287 H 853.491 -4.48242 -4.08857 0
M  V30 9288 H 852.23 -3.33262 -3.56073 0
M  V30 9289 H 851.235 -5.09248 -2.07235 0
M  V30 9290 H 852.46 -6.26157 -2.62876 0
M  V30 9291 H 850.406 -4.8731 -4.39164 0
M  V30 9292 H 850.323 -6.51333 -3.83799 0
M  V30 9293 H 851.591 -6.03917 -4.92854 0
M  V30 9294 N 855.82 0.285905 -1.54985 0
M  V30 9295 C 856.783 1.33625 -1.86218 0
M  V30 9296 C 857.783 1.42971 -0.735936 0
M  V30 9297 O 858.973 1.42345 -1.00417 0
M  V30 9298 C 856.105 2.71926 -2.05595 0
M  V30 9299 H 857.298 1.07167 -2.80099 0
M  V30 9300 H 854.851 0.523335 -1.47278 0
M  V30 9301 H 855.586 3.03583 -1.14053 0
M  V30 9302 H 855.371 2.6653 -2.87583 0
M  V30 9303 H 856.861 3.47841 -2.31077 0
M  V30 9304 N 857.298 1.47698 0.54982 0
M  V30 9305 C 858.23 1.56806 1.67166 0
M  V30 9306 C 859.243 0.453709 1.5635 0
M  V30 9307 O 860.432 0.723663 1.63173 0
M  V30 9308 C 857.532 1.4632 3.05686 0
M  V30 9309 C 856.705 2.72452 3.42182 0
M  V30 9310 C 855.764 2.55698 4.59897 0
M  V30 9311 O 854.79 3.29534 4.64108 0
M  V30 9312 N 855.992 1.64009 5.56849 0
M  V30 9313 H 858.757 2.53545 1.59797 0
M  V30 9314 H 856.318 1.44171 0.736635 0
M  V30 9315 H 858.31 1.32835 3.82279 0
M  V30 9316 H 856.88 0.57634 3.07241 0
M  V30 9317 H 856.1 3.00644 2.54964 0
M  V30 9318 H 857.388 3.56172 3.63344 0
M  V30 9319 H 856.786 1.03186 5.5621 0
M  V30 9320 H 855.343 1.56473 6.3274 0
M  V30 9321 N 858.776 -0.797141 1.35954 0
M  V30 9322 C 859.739 -1.89104 1.29508 0
M  V30 9323 C 860.739 -1.59495 0.204444 0
M  V30 9324 O 861.929 -1.68051 0.458746 0
M  V30 9325 C 859.061 -3.25726 1.00576 0
M  V30 9326 H 860.254 -1.96237 2.26785 0
M  V30 9327 H 857.807 -0.994075 1.20614 0
M  V30 9328 H 858.542 -3.24279 0.0372519 0
M  V30 9329 H 858.327 -3.48604 1.79492 0
M  V30 9330 H 859.817 -4.0578 0.986508 0
M  V30 9331 N 860.254 -1.20106 -1.0204 0
M  V30 9332 C 861.501 -1.00889 -1.75578 0
M  V30 9333 C 861.829 0.459415 -1.88996 0
M  V30 9334 O 861.084 1.35735 -1.40977 0
M  V30 9335 C 861.383 -1.63308 -3.17908 0
M  V30 9336 C 861.049 -3.13091 -3.24476 0
M  V30 9337 C 859.711 -3.53968 -3.25976 0
M  V30 9338 C 862.063 -4.09093 -3.22944 0
M  V30 9339 C 859.391 -4.89381 -3.2361 0
M  V30 9340 C 861.743 -5.44447 -3.22119 0
M  V30 9341 C 860.407 -5.84742 -3.2192 0
M  V30 9342 H 859.677 -0.36918 -0.642485 0
M  V30 9343 H 862.324 -1.49475 -1.19706 0
M  V30 9344 H 860.629 -1.06974 -3.76914 0
M  V30 9345 H 862.326 -1.45958 -3.73493 0
M  V30 9346 H 858.916 -2.80526 -3.24042 0
M  V30 9347 H 863.1 -3.78549 -3.20958 0
M  V30 9348 H 858.356 -5.1987 -3.21785 0
M  V30 9349 H 862.53 -6.18584 -3.19885 0
M  V30 9350 H 860.157 -6.89642 -3.19841 0
M  V30 9351 N 861.732 1.21287 -1.00634 0
M  V30 9352 C 862.662 2.25973 -0.588089 0
M  V30 9353 C 863.643 1.65527 0.391764 0
M  V30 9354 O 864.828 1.92179 0.279452 0
M  V30 9355 C 861.958 3.47197 0.0847336 0
M  V30 9356 C 860.912 4.20168 -0.815039 0
M  V30 9357 C 860.238 5.34699 -0.00855393 0
M  V30 9358 C 861.538 4.77416 -2.11828 0
M  V30 9359 H 863.232 2.61212 -1.46317 0
M  V30 9360 H 860.778 1.25563 -0.704985 0
M  V30 9361 H 862.731 4.19602 0.388821 0
M  V30 9362 H 861.455 3.11092 0.994456 0
M  V30 9363 H 860.114 3.49614 -1.10297 0
M  V30 9364 H 859.762 4.94837 0.902499 0
M  V30 9365 H 859.462 5.84449 -0.607664 0
M  V30 9366 H 860.986 6.09914 0.289317 0
M  V30 9367 H 862.4 5.41694 -1.87725 0
M  V30 9368 H 860.797 5.37561 -2.66736 0
M  V30 9369 H 861.867 3.96724 -2.78816 0
M  V30 9370 N 863.21 0.781244 1.36873 0
M  V30 9371 C 864.621 0.414093 1.8205 0
M  V30 9372 C 864.972 -1.06098 1.65039 0
M  V30 9373 O 864.097 -1.82251 1.16677 0
M  V30 9374 C 864.692 0.744837 3.30511 0
M  V30 9375 C 863.251 0.430621 3.73929 0
M  V30 9376 C 862.398 0.983746 2.59264 0
M  V30 9377 H 865.349 0.975091 1.2521 0
M  V30 9378 H 865.37 0.032936 3.80486 0
M  V30 9379 H 864.882 1.81847 3.42861 0
M  V30 9380 H 862.983 -0.635308 3.67144 0
M  V30 9381 H 863.096 0.945514 4.69677 0
M  V30 9382 H 861.46 0.407433 2.5142 0
M  V30 9383 H 862.243 2.06297 2.74402 0
M  V30 9384 N 864.689 -1.48329 0.532571 0
M  V30 9385 C 865.936 -2.025 -0.000582356 0
M  V30 9386 C 866.264 -1.40942 -1.34036 0
M  V30 9387 O 865.519 -0.545545 -1.87942 0
M  V30 9388 C 865.818 -3.57 -0.168943 0
M  V30 9389 C 865.484 -4.37357 1.0968 0
M  V30 9390 C 864.146 -4.59033 1.44369 0
M  V30 9391 C 866.498 -4.83882 1.93669 0
M  V30 9392 C 863.826 -5.24481 2.62939 0
M  V30 9393 C 866.178 -5.50637 3.11419 0
M  V30 9394 C 864.842 -5.70551 3.46451 0
M  V30 9395 H 864.112 -0.741 -0.000213099 0
M  V30 9396 H 866.759 -1.78282 0.699117 0
M  V30 9397 H 865.064 -3.80072 -0.951429 0
M  V30 9398 H 866.761 -3.9654 -0.596422 0
M  V30 9399 H 863.351 -4.20748 0.816655 0
M  V30 9400 H 867.535 -4.66936 1.6818 0
M  V30 9401 H 862.791 -5.38096 2.9028 0
M  V30 9402 H 866.965 -5.85655 3.76803 0
M  V30 9403 H 864.592 -6.21037 4.38425 0
M  V30 9404 N 866.167 -0.267825 -1.55308 0
M  V30 9405 C 867.392 0.357487 -2.04296 0
M  V30 9406 C 867.817 1.49222 -1.14518 0
M  V30 9407 O 867.175 1.80741 -0.142292 0
M  V30 9408 C 867.223 0.822899 -3.51085 0
M  V30 9409 O 866.327 1.93078 -3.6441 0
M  V30 9410 H 865.668 0.075025 -0.659748 0
M  V30 9411 H 868.198 -0.399996 -2.00652 0
M  V30 9412 H 868.208 1.12059 -3.92309 0
M  V30 9413 H 866.883 -0.0073562 -4.15899 0
M  V30 9414 H 865.46 1.63618 -3.35087 0
M  V30 9415 N 867.645 1.57599 0.00500368 0
M  V30 9416 C 868.894 1.89528 0.690061 0
M  V30 9417 C 869.207 0.869451 1.75214 0
M  V30 9418 O 870.413 1.07879 2.49147 0
M  V30 9419 C 868.869 3.36425 1.27852 0
M  V30 9420 C 868.477 4.47293 0.251531 0
M  V30 9421 C 870.221 3.77471 1.94206 0
M  V30 9422 C 868.128 5.85264 0.8497 0
M  V30 9423 H 867.058 0.707201 0.2615 0
M  V30 9424 H 869.709 1.83418 -0.0547209 0
M  V30 9425 H 868.091 3.37356 2.07381 0
M  V30 9426 H 869.265 4.5787 -0.518796 0
M  V30 9427 H 867.58 4.15235 -0.311281 0
M  V30 9428 H 870.177 4.77884 2.39855 0
M  V30 9429 H 870.52 3.10722 2.77051 0
M  V30 9430 H 871.053 3.78817 1.21419 0
M  V30 9431 H 867.792 6.55472 0.0601408 0
M  V30 9432 H 867.312 5.78361 1.5893 0
M  V30 9433 H 868.991 6.32762 1.34984 0
M  V30 9434 N 869.123 -0.277682 1.55134 0
M  V30 9435 C 870.073 -1.34531 1.8408 0
M  V30 9436 C 871.057 -1.44904 0.699393 0
M  V30 9437 O 872.249 -1.48664 0.960623 0
M  V30 9438 C 869.378 -2.7064 2.11208 0
M  V30 9439 C 868.464 -2.64396 3.31596 0
M  V30 9440 N 868.855 -2.2777 4.51613 0
M  V30 9441 C 867.153 -2.95464 3.34091 0
M  V30 9442 C 867.854 -2.31401 5.33693 0
M  V30 9443 N 866.83 -2.69688 4.71984 0
M  V30 9444 H 870.632 -1.05214 2.74421 0
M  V30 9445 H 868.146 -0.486311 1.54948 0
M  V30 9446 H 870.143 -3.47649 2.301 0
M  V30 9447 H 868.803 -3.00849 1.22148 0
M  V30 9448 H 869.814 -1.99827 4.77797 0
M  V30 9449 H 866.491 -3.30415 2.5521 0
M  V30 9450 H 867.881 -2.05685 6.39643 0
M  V30 9451 N 870.601 -1.47988 -0.541979 0
M  V30 9452 C 871.826 -1.59286 -1.32826 0
M  V30 9453 C 872.251 -0.24894 -1.86445 0
M  V30 9454 O 871.609 0.777581 -1.63778 0
M  V30 9455 C 871.657 -2.6334 -2.46343 0
M  V30 9456 O 870.761 -2.19667 -3.49028 0
M  V30 9457 H 870.102 -0.534543 -0.393903 0
M  V30 9458 H 872.632 -1.93885 -0.653427 0
M  V30 9459 H 872.642 -2.84238 -2.92699 0
M  V30 9460 H 871.317 -3.60913 -2.06675 0
M  V30 9461 H 869.894 -2.08932 -3.08872 0
M  V30 9462 N 872.079 0.78992 -1.36375 0
M  V30 9463 C 873.009 1.91683 -1.33341 0
M  V30 9464 C 873.99 1.68861 -0.204965 0
M  V30 9465 O 875.175 1.89982 -0.402531 0
M  V30 9466 C 872.305 3.28696 -1.12143 0
M  V30 9467 C 871.259 3.66041 -2.21806 0
M  V30 9468 C 870.585 5.01399 -1.85751 0
M  V30 9469 C 871.885 3.74677 -3.63888 0
M  V30 9470 H 873.579 1.94478 -2.27637 0
M  V30 9471 H 871.125 0.934271 -1.09578 0
M  V30 9472 H 873.078 4.07151 -1.08656 0
M  V30 9473 H 871.802 3.26287 -0.142974 0
M  V30 9474 H 870.461 2.89883 -2.24418 0
M  V30 9475 H 870.109 4.9551 -0.864817 0
M  V30 9476 H 869.809 5.27355 -2.59173 0
M  V30 9477 H 871.333 5.82274 -1.83819 0
M  V30 9478 H 872.747 4.43324 -3.63506 0
M  V30 9479 H 871.144 4.12118 -4.3621 0
M  V30 9480 H 872.214 2.75795 -3.9883 0
M  V30 9481 N 873.557 1.20646 1.01402 0
M  V30 9482 C 874.803 1.0197 1.753 0
M  V30 9483 C 875.136 -0.446803 1.8899 0
M  V30 9484 O 874.411 -1.33169 1.41762 0
M  V30 9485 C 874.694 1.70693 3.17074 0
M  V30 9486 C 874.547 3.24805 3.11162 0
M  V30 9487 C 875.866 1.44212 4.15802 0
M  V30 9488 H 872.985 0.371844 0.636318 0
M  V30 9489 H 875.627 1.48696 1.18277 0
M  V30 9490 H 873.777 1.30968 3.65759 0
M  V30 9491 H 875.449 3.73841 2.70261 0
M  V30 9492 H 873.692 3.55576 2.48492 0
M  V30 9493 H 874.363 3.68049 4.11393 0
M  V30 9494 H 876.839 1.7868 3.75783 0
M  V30 9495 H 875.715 1.94825 5.13161 0
M  V30 9496 H 875.976 0.370252 4.40547 0
M  V30 9497 N 875.035 -1.20752 1.01276 0
M  V30 9498 C 875.967 -2.22798 0.537917 0
M  V30 9499 C 876.98 -1.5836 -0.377638 0
M  V30 9500 O 878.169 -1.77624 -0.176599 0
M  V30 9501 C 875.269 -3.38068 -0.237364 0
M  V30 9502 C 874.442 -4.32095 0.679161 0
M  V30 9503 C 873.501 -5.26178 -0.0478676 0
M  V30 9504 O 872.527 -5.66305 0.573366 0
M  V30 9505 N 873.729 -5.65201 -1.32396 0
M  V30 9506 H 876.494 -2.64166 1.4155 0
M  V30 9507 H 874.055 -1.35254 0.889826 0
M  V30 9508 H 876.047 -3.98009 -0.73288 0
M  V30 9509 H 874.617 -2.95622 -1.0162 0
M  V30 9510 H 873.837 -3.70179 1.35505 0
M  V30 9511 H 875.125 -4.91842 1.30263 0
M  V30 9512 H 874.523 -5.34606 -1.84968 0
M  V30 9513 H 873.08 -6.27468 -1.76428 0
M  V30 9514 N 876.513 -0.788492 -1.36457 0
M  V30 9515 C 877.476 -0.192209 -2.28393 0
M  V30 9516 C 878.476 0.609916 -1.48784 0
M  V30 9517 O 879.666 0.431046 -1.68783 0
M  V30 9518 C 876.798 0.734096 -3.32902 0
M  V30 9519 H 877.991 -1.00284 -2.82636 0
M  V30 9520 H 875.544 -0.557852 -1.46006 0
M  V30 9521 H 876.279 1.5691 -2.83813 0
M  V30 9522 H 876.064 0.160875 -3.9177 0
M  V30 9523 H 877.554 1.1462 -4.01562 0
M  V30 9524 N 877.991 1.48044 -0.54043 0
M  V30 9525 C 879.407 1.58354 -0.199006 0
M  V30 9526 C 879.607 1.54118 1.29807 0
M  V30 9527 O 878.663 1.43573 2.07709 0
M  V30 9528 C 879.976 2.89563 -0.810797 0
M  V30 9529 C 881.524 3.03113 -0.780486 0
M  V30 9530 C 881.999 4.36997 -1.37104 0
M  V30 9531 N 883.49 4.43591 -1.33347 0
M  V30 9532 C 884.225 5.45714 -1.76021 0
M  V30 9533 N 883.721 6.54738 -2.26473 0
M  V30 9534 N 885.514 5.36659 -1.67194 0
M  V30 9535 H 877.665 1.49041 -1.51329 0
M  V30 9536 H 879.928 0.708309 -0.630081 0
M  V30 9537 H 879.634 2.9835 -1.86227 0
M  V30 9538 H 879.508 3.76053 -0.293977 0
M  V30 9539 H 881.895 2.93932 0.262246 0
M  V30 9540 H 881.976 2.18207 -1.33489 0
M  V30 9541 H 881.62 4.46932 -2.41276 0
M  V30 9542 H 881.55 5.20607 -0.792229 0
M  V30 9543 H 884.041 3.65391 -0.964259 0
M  V30 9544 H 884.354 7.28814 -2.57002 0
M  V30 9545 H 882.699 6.55673 -2.30473 0
M  V30 9546 H 885.89 4.50382 -1.27569 0
M  V30 9547 H 886.063 6.16113 -2.00771 0
M  V30 9548 N 879.47 0.276058 1.55163 0
M  V30 9549 C 880.716 -0.340959 1.99913 0
M  V30 9550 C 881.049 -1.55434 1.16422 0
M  V30 9551 O 880.324 -1.93081 0.234517 0
M  V30 9552 C 880.607 -0.722211 3.52783 0
M  V30 9553 C 880.46 0.498575 4.47028 0
M  V30 9554 C 881.779 -1.5583 4.11589 0
M  V30 9555 H 878.898 -0.122455 0.726756 0
M  V30 9556 H 881.54 0.38319 1.86096 0
M  V30 9557 H 879.69 -1.33919 3.64689 0
M  V30 9558 H 881.362 1.13713 4.47065 0
M  V30 9559 H 879.605 1.13646 4.18649 0
M  V30 9560 H 880.276 0.188041 5.5168 0
M  V30 9561 H 882.752 -1.03722 4.02965 0
M  V30 9562 H 881.628 -1.79387 5.1876 0
M  V30 9563 H 881.889 -2.53963 3.61877 0
M  V30 9564 N 880.948 -1.576 0.00335426 0
M  V30 9565 C 882.173 -1.95398 -0.695311 0
M  V30 9566 C 882.598 -0.878476 -1.66326 0
M  V30 9567 O 881.956 0.163086 -1.80565 0
M  V30 9568 C 882.004 -3.32293 -1.40049 0
M  V30 9569 O 881.108 -3.26834 -2.51502 0
M  V30 9570 H 880.449 -0.637796 -0.184694 0
M  V30 9571 H 882.979 -2.04519 0.057543 0
M  V30 9572 H 882.989 -3.67936 -1.76316 0
M  V30 9573 H 881.664 -4.10123 -0.690803 0
M  V30 9574 H 880.241 -3.02872 -2.17539 0
M  V30 9575 N 882.426 0.269451 -1.5528 0
M  V30 9576 C 883.673 1.00058 -1.76053 0
M  V30 9577 C 884.001 1.86156 -0.563592 0
M  V30 9578 O 883.256 1.90366 0.453806 0
M  V30 9579 C 883.555 1.91 -3.02082 0
M  V30 9580 C 883.221 1.20623 -4.34466 0
M  V30 9581 C 881.883 1.01165 -4.70446 0
M  V30 9582 C 884.235 0.705695 -5.164 0
M  V30 9583 C 881.563 0.303865 -5.85913 0
M  V30 9584 C 883.915 0.0114838 -6.32599 0
M  V30 9585 C 882.579 -0.19478 -6.67216 0
M  V30 9586 H 881.849 0.366138 -0.644223 0
M  V30 9587 H 884.496 0.272563 -1.8955 0
M  V30 9588 H 882.801 2.70435 -2.835 0
M  V30 9589 H 884.498 2.47698 -3.15352 0
M  V30 9590 H 881.088 1.36781 -4.06188 0
M  V30 9591 H 885.272 0.84364 -4.89077 0
M  V30 9592 H 880.528 0.133368 -6.11255 0
M  V30 9593 H 884.702 -0.384111 -6.9534 0
M  V30 9594 H 882.329 -0.745201 -7.56539 0
M  V30 9595 N 883.904 1.48273 0.534124 0
M  V30 9596 C 885.181 1.46567 1.29528 0
M  V30 9597 C 885.561 0.17509 2.10373 0
M  V30 9598 O 884.909 -0.843228 2.12372 0
M  V30 9599 C 885.119 2.72519 2.18023 0
M  V30 9600 C 886.467 3.2068 2.78298 0
M  V30 9601 O 887.491 2.73408 2.28313 0
M  V30 9602 O 886.35 4.02924 3.69208 0
M  V30 9603 H 883.444 0.585151 0.584403 0
M  V30 9604 H 885.99 1.60502 0.551119 0
M  V30 9605 H 884.762 3.57965 1.5804 0
M  V30 9606 H 884.385 2.61285 2.99693 0
M  V30 9607 N 885.382 -0.782676 1.36792 0
M  V30 9608 C 886.798 -1.08169 1.17352 0
M  V30 9609 C 886.998 -2.015 0.0022037 0
M  V30 9610 O 886.054 -2.43692 -0.661093 0
M  V30 9611 C 887.367 -1.68969 2.48737 0
M  V30 9612 C 888.915 -1.81278 2.55161 0
M  V30 9613 C 889.39 -2.45492 3.86649 0
M  V30 9614 N 890.881 -2.52954 3.88032 0
M  V30 9615 C 891.616 -3.03465 4.86515 0
M  V30 9616 N 891.112 -3.54232 5.95392 0
M  V30 9617 N 892.905 -3.02239 4.73928 0
M  V30 9618 H 885.056 -0.162757 2.11775 0
M  V30 9619 H 887.319 -0.134823 0.938364 0
M  V30 9620 H 887.025 -1.07859 3.34753 0
M  V30 9621 H 886.899 -2.68397 2.65034 0
M  V30 9622 H 889.286 -2.41524 1.69559 0
M  V30 9623 H 889.367 -0.806367 2.42758 0
M  V30 9624 H 889.011 -1.85889 4.7266 0
M  V30 9625 H 888.941 -3.46718 3.96351 0
M  V30 9626 H 891.432 -2.17014 3.09376 0
M  V30 9627 H 891.745 -3.91145 6.66503 0
M  V30 9628 H 890.09 -3.52366 5.99052 0
M  V30 9629 H 893.281 -2.61871 3.87996 0
M  V30 9630 H 893.454 -3.41295 5.50837 0
M  V30 9631 N 886.86 -1.21182 -1.00761 0
M  V30 9632 C 887.79 -0.992773 -2.11344 0
M  V30 9633 C 888.771 0.0813618 -1.69905 0
M  V30 9634 O 889.956 -0.0779503 -1.94043 0
M  V30 9635 C 887.086 -0.553826 -3.42856 0
M  V30 9636 C 886.04 -1.57223 -3.98077 0
M  V30 9637 C 885.366 -0.989605 -5.25463 0
M  V30 9638 C 886.666 -2.95839 -4.30438 0
M  V30 9639 H 888.36 -1.91766 -2.29927 0
M  V30 9640 H 885.906 -0.923426 -1.10494 0
M  V30 9641 H 887.859 -0.387771 -4.19612 0
M  V30 9642 H 886.583 0.406702 -3.24058 0
M  V30 9643 H 885.242 -1.7258 -3.23437 0
M  V30 9644 H 884.89 -0.0208743 -5.02996 0
M  V30 9645 H 884.59 -1.66984 -5.63374 0
M  V30 9646 H 886.114 -0.834815 -6.04866 0
M  V30 9647 H 887.528 -2.8394 -4.98047 0
M  V30 9648 H 885.925 -3.60851 -4.79486 0
M  V30 9649 H 886.995 -3.46882 -3.38823 0
M  V30 9650 N 888.338 1.20213 -1.01915 0
M  V30 9651 C 889.584 1.89928 -0.711007 0
M  V30 9652 C 889.917 1.7881 0.75767 0
M  V30 9653 O 889.192 1.17399 1.55073 0
M  V30 9654 C 889.475 3.41225 -1.15053 0
M  V30 9655 C 889.328 3.61264 -2.67971 0
M  V30 9656 C 890.647 4.34108 -0.72377 0
M  V30 9657 H 887.766 0.689702 -0.259768 0
M  V30 9658 H 890.408 1.41557 -1.26734 0
M  V30 9659 H 888.558 3.82552 -0.677199 0
M  V30 9660 H 890.23 3.29173 -3.23176 0
M  V30 9661 H 888.473 3.04647 -3.08824 0
M  V30 9662 H 889.144 4.67331 -2.93779 0
M  V30 9663 H 891.62 4.00442 -1.13073 0
M  V30 9664 H 890.496 5.38581 -1.05931 0
M  V30 9665 H 890.757 4.40512 0.374424 0
M  V30 9666 N 889.816 0.795718 1.36037 0
M  V30 9667 C 891.044 0.383153 2.03321 0
M  V30 9668 C 891.459 -1.00246 1.59988 0
M  V30 9669 O 890.816 -1.64406 0.792265 0
M  V30 9670 C 890.867 0.444467 3.58757 0
M  V30 9671 O 890.588 1.77544 4.00512 0
M  V30 9672 C 892.089 0.0233291 4.43294 0
M  V30 9673 H 889.309 0.157061 0.652359 0
M  V30 9674 H 891.853 1.07632 1.73884 0
M  V30 9675 H 890.008 -0.200341 3.86882 0
M  V30 9676 H 890.422 1.73065 4.95125 0
M  V30 9677 H 891.896 0.117361 5.51875 0
M  V30 9678 H 892.373 -1.03007 4.2695 0
M  V30 9679 H 892.979 0.64087 4.20444 0
M  V30 9680 N 891.294 -1.47756 0.548274 0
M  V30 9681 C 892.541 -2.02489 0.0208955 0
M  V30 9682 C 892.869 -1.42356 -1.32533 0
M  V30 9683 O 892.124 -0.565448 -1.87353 0
M  V30 9684 C 892.423 -3.5716 -0.131069 0
M  V30 9685 C 892.089 -4.36169 1.14313 0
M  V30 9686 C 890.751 -4.57476 1.4923 0
M  V30 9687 C 893.103 -4.81801 1.9879 0
M  V30 9688 C 890.431 -5.21662 2.68487 0
M  V30 9689 C 892.783 -5.47303 3.17242 0
M  V30 9690 C 891.447 -5.66844 3.52483 0
M  V30 9691 H 890.717 -0.740961 0.00764621 0
M  V30 9692 H 893.364 -1.77531 0.717987 0
M  V30 9693 H 891.669 -3.8106 -0.911063 0
M  V30 9694 H 893.366 -3.9715 -0.55433 0
M  V30 9695 H 889.956 -4.19858 0.861235 0
M  V30 9696 H 894.14 -4.65126 1.73123 0
M  V30 9697 H 889.396 -5.34987 2.95971 0
M  V30 9698 H 893.57 -5.81626 3.82994 0
M  V30 9699 H 891.197 -6.16352 4.44988 0
M  V30 9700 N 892.772 -0.284283 -1.55015 0
M  V30 9701 C 893.702 0.592663 -2.25853 0
M  V30 9702 C 894.683 1.15151 -1.25197 0
M  V30 9703 O 895.868 1.18395 -1.53936 0
M  V30 9704 C 892.998 1.77254 -2.98661 0
M  V30 9705 C 891.952 1.34482 -4.06323 0
M  V30 9706 C 891.278 2.60853 -4.66754 0
M  V30 9707 C 892.578 0.488288 -5.20013 0
M  V30 9708 H 894.272 0.00187041 -2.994 0
M  V30 9709 H 891.818 -0.000540402 -1.44 0
M  V30 9710 H 893.771 2.39199 -3.46932 0
M  V30 9711 H 892.495 2.38931 -2.22664 0
M  V30 9712 H 891.154 0.748519 -3.58877 0
M  V30 9713 H 890.802 3.20808 -3.87416 0
M  V30 9714 H 890.502 2.32942 -5.39455 0
M  V30 9715 H 892.026 3.23631 -5.1778 0
M  V30 9716 H 893.44 1.01298 -5.6428 0
M  V30 9717 H 891.837 0.303669 -5.99331 0
M  V30 9718 H 892.907 -0.490727 -4.8241 0
M  V30 9719 N 894.251 1.57596 -0.0117121 0
M  V30 9720 C 895.491 1.92932 0.675031 0
M  V30 9721 C 895.855 0.887004 1.70283 0
M  V30 9722 O 897.056 1.12599 2.4408 0
M  V30 9723 C 895.327 3.3327 1.29098 0
M  V30 9724 S 896.886 3.90509 2.00121 0
M  V30 9725 H 893.704 0.675226 0.22269 0
M  V30 9726 H 896.306 1.9537 -0.071208 0
M  V30 9727 H 895.01 4.0696 0.530262 0
M  V30 9728 H 894.541 3.34233 2.0749 0
M  V30 9729 H 896.556 3.72532 3.27771 0
M  V30 9730 N 895.729 -0.261212 1.5542 0
M  V30 9731 C 896.659 -1.32712 1.92119 0
M  V30 9732 C 897.64 -1.50934 0.784406 0
M  V30 9733 O 898.825 -1.63781 1.04352 0
M  V30 9734 C 895.955 -2.68453 2.20341 0
M  V30 9735 C 894.909 -2.64947 3.36136 0
M  V30 9736 C 894.235 -4.04349 3.49865 0
M  V30 9737 C 895.535 -2.23182 4.72215 0
M  V30 9738 H 897.229 -1.02245 2.81401 0
M  V30 9739 H 894.775 -0.490406 1.35392 0
M  V30 9740 H 896.728 -3.43144 2.44603 0
M  V30 9741 H 895.452 -3.00527 1.27871 0
M  V30 9742 H 894.111 -1.92714 3.11861 0
M  V30 9743 H 893.759 -4.33665 2.5484 0
M  V30 9744 H 893.459 -4.02895 4.27726 0
M  V30 9745 H 894.983 -4.80761 3.76432 0
M  V30 9746 H 896.397 -2.87599 4.95943 0
M  V30 9747 H 894.794 -2.32867 5.53076 0
M  V30 9748 H 895.864 -1.18327 4.70241 0
M  V30 9749 N 897.207 -1.48554 -0.526253 0
M  V30 9750 C 898.117 -1.66044 -1.65731 0
M  V30 9751 C 899.133 -0.542951 -1.65312 0
M  V30 9752 O 900.309 -0.814495 -1.84195 0
M  V30 9753 C 897.374 -1.69959 -3.02184 0
M  V30 9754 C 896.435 -2.93362 -3.13428 0
M  V30 9755 C 895.668 -2.97081 -4.43372 0
M  V30 9756 O 895.891 -2.09103 -5.3069 0
M  V30 9757 O 894.825 -3.8929 -4.59061 0
M  V30 9758 H 898.651 -2.61811 -1.53912 0
M  V30 9759 H 896.236 -1.31999 -0.699759 0
M  V30 9760 H 898.118 -1.75033 -3.83329 0
M  V30 9761 H 896.793 -0.773658 -3.14319 0
M  V30 9762 H 895.7 -2.93818 -2.31564 0
M  V30 9763 H 897.033 -3.85352 -3.06211 0
M  V30 9764 N 898.685 0.775411 -1.37205 0
M  V30 9765 C 899.595 1.91967 -1.34855 0
M  V30 9766 C 900.611 1.72214 -0.248656 0
M  V30 9767 O 901.787 1.95512 -0.483421 0
M  V30 9768 C 898.852 3.27038 -1.15096 0
M  V30 9769 C 897.913 3.5947 -2.34691 0
M  V30 9770 C 897.146 4.88097 -2.15865 0
M  V30 9771 O 897.369 5.58871 -1.14102 0
M  V30 9772 O 896.303 5.19507 -3.03967 0
M  V30 9773 H 900.129 1.969 -2.31223 0
M  V30 9774 H 897.714 0.917647 -1.17897 0
M  V30 9775 H 899.596 4.07837 -1.0605 0
M  V30 9776 H 898.271 3.22965 -0.217999 0
M  V30 9777 H 897.178 2.7892 -2.49308 0
M  V30 9778 H 898.511 3.68282 -3.26541 0
M  V30 9779 N 900.163 1.21714 1.00117 0
M  V30 9780 C 901.409 1.03823 1.74208 0
M  V30 9781 C 901.742 -0.426733 1.89454 0
M  V30 9782 O 901.017 -1.31658 1.43166 0
M  V30 9783 C 901.3 1.74047 3.15246 0
M  V30 9784 C 901.153 3.28087 3.077 0
M  V30 9785 C 902.472 1.48614 4.14249 0
M  V30 9786 H 899.591 0.378573 0.632338 0
M  V30 9787 H 902.233 1.49942 1.16694 0
M  V30 9788 H 900.383 1.3484 3.64349 0
M  V30 9789 H 902.055 3.76686 2.6628 0
M  V30 9790 H 900.298 3.58191 2.44707 0
M  V30 9791 H 900.969 3.72392 4.07466 0
M  V30 9792 H 903.445 1.82656 3.73866 0
M  V30 9793 H 902.321 2.00257 5.11066 0
M  V30 9794 H 902.582 0.416957 4.40129 0
M  V30 9795 N 901.641 -1.19671 1.02551 0
M  V30 9796 C 902.918 -1.85014 0.634771 0
M  V30 9797 C 903.298 -1.91574 -0.886706 0
M  V30 9798 O 902.646 -1.43022 -1.78205 0
M  V30 9799 C 902.856 -3.24167 1.29292 0
M  V30 9800 C 904.204 -4.00363 1.41402 0
M  V30 9801 O 905.228 -3.33553 1.24983 0
M  V30 9802 O 904.087 -5.2003 1.6802 0
M  V30 9803 H 901.181 -0.797147 0.220196 0
M  V30 9804 H 903.727 -1.27188 1.12345 0
M  V30 9805 H 902.499 -3.14208 2.33215 0
M  V30 9806 H 902.122 -3.89634 0.791895 0
M  V30 9807 N 903.119 -0.802921 -1.35613 0
M  V30 9808 C 904.53 -0.443004 -1.81368 0
M  V30 9809 C 904.881 1.03459 -1.66706 0
M  V30 9810 O 904.006 1.80372 -1.19561 0
M  V30 9811 C 904.601 -0.797324 -3.29284 0
M  V30 9812 C 903.16 -0.490055 -3.73196 0
M  V30 9813 C 902.307 -1.02487 -2.57666 0
M  V30 9814 H 905.258 -0.994888 -1.23643 0
M  V30 9815 H 905.279 -0.0934638 -3.80385 0
M  V30 9816 H 904.791 -1.87278 -3.39924 0
M  V30 9817 H 902.892 0.576818 -3.68108 0
M  V30 9818 H 903.005 -1.02012 -4.68114 0
M  V30 9819 H 901.369 -0.44738 -2.5074 0
M  V30 9820 H 902.152 -2.10636 -2.71085 0
M  V30 9821 N 904.597 1.47463 -0.556102 0
M  V30 9822 C 905.845 2.02075 -0.0315712 0
M  V30 9823 C 906.166 1.43292 1.32259 0
M  V30 9824 O 905.436 0.60771 1.86236 0
M  V30 9825 H 904.016 0.74695 -0.0086816 0
M  V30 9826 H 906.678 1.80879 -0.725859 0
M  V30 9827 H 905.774 3.12047 0.0573538 0
M  V30 9828 N 906.075 0.2925 1.54862 0
M  V30 9829 C 907.321 -0.319736 2.00264 0
M  V30 9830 C 907.654 -1.5419 1.18064 0
M  V30 9831 O 906.929 -1.92821 0.254983 0
M  V30 9832 C 907.212 -0.684753 3.5353 0
M  V30 9833 C 907.065 0.545961 4.46474 0
M  V30 9834 C 908.384 -1.51456 4.13218 0
M  V30 9835 H 905.503 -0.11474 0.728014 0
M  V30 9836 H 908.145 0.402907 1.85679 0
M  V30 9837 H 906.295 -1.30044 3.66089 0
M  V30 9838 H 907.967 1.18448 4.45834 0
M  V30 9839 H 906.21 1.1808 4.1742 0
M  V30 9840 H 906.881 0.246544 5.51449 0
M  V30 9841 H 909.357 -0.994421 4.04043 0
M  V30 9842 H 908.233 -1.73875 5.20633 0
M  V30 9843 H 908.494 -2.5011 3.64551 0
M  V30 9844 N 907.553 -1.57587 0.0200696 0
M  V30 9845 C 908.799 -1.91708 -0.661503 0
M  V30 9846 C 909.132 -0.895968 -1.72296 0
M  V30 9847 O 908.407 0.082577 -1.94325 0
M  V30 9848 C 908.69 -3.36344 -1.28627 0
M  V30 9849 C 908.543 -4.49186 -0.234982 0
M  V30 9850 C 909.862 -3.80771 -2.20685 0
M  V30 9851 H 906.981 -0.69717 -0.239005 0
M  V30 9852 H 909.623 -1.8985 0.0754764 0
M  V30 9853 H 907.773 -3.38058 -1.91439 0
M  V30 9854 H 909.445 -4.59606 0.395011 0
M  V30 9855 H 907.688 -4.31557 0.440565 0
M  V30 9856 H 908.359 -5.47395 -0.711558 0
M  V30 9857 H 910.835 -3.80735 -1.67868 0
M  V30 9858 H 909.711 -4.82685 -2.61356 0
M  V30 9859 H 909.972 -3.15764 -3.09428 0
M  V30 9860 N 909.032 0.252966 -1.55557 0
M  V30 9861 C 910.309 1.00432 -1.67847 0
M  V30 9862 C 910.689 2.03587 -0.55816 0
M  V30 9863 O 910.037 2.24239 0.439197 0
M  V30 9864 C 910.247 1.64313 -3.079 0
M  V30 9865 C 911.595 2.14726 -3.66303 0
M  V30 9866 O 912.619 1.74264 -3.10661 0
M  V30 9867 O 911.478 2.89 -4.63833 0
M  V30 9868 H 908.572 0.467102 -0.682455 0
M  V30 9869 H 911.118 0.247233 -1.67889 0
M  V30 9870 H 909.89 0.896681 -3.80888 0
M  V30 9871 H 909.513 2.46657 -3.11843 0
M  V30 9872 N 910.51 1.48831 0.518367 0
M  V30 9873 C 911.735 1.61379 1.30275 0
M  V30 9874 C 912.16 0.278571 1.86026 0
M  V30 9875 O 911.518 -0.751427 1.64995 0
M  V30 9876 C 911.566 2.67225 2.42122 0
M  V30 9877 O 910.67 2.25192 3.45489 0
M  V30 9878 H 910.011 0.540742 0.385349 0
M  V30 9879 H 912.541 1.949 0.622498 0
M  V30 9880 H 912.551 2.88859 2.8814 0
M  V30 9881 H 911.226 3.64155 2.00907 0
M  V30 9882 H 909.803 2.13819 3.05509 0
M  V30 9883 N 911.988 -0.768124 1.37614 0
M  V30 9884 C 913.213 -1.56239 1.36397 0
M  V30 9885 C 913.638 -1.8804 -0.0475839 0
M  V30 9886 O 912.996 -1.495 -1.02564 0
M  V30 9887 C 913.044 -2.84716 2.21289 0
M  V30 9888 O 912.148 -3.79249 1.62001 0
M  V30 9889 H 911.489 -0.473119 0.465891 0
M  V30 9890 H 914.019 -0.950415 1.81186 0
M  V30 9891 H 914.029 -3.33784 2.34632 0
M  V30 9892 H 912.704 -2.60899 3.2389 0
M  V30 9893 H 911.281 -3.37904 1.57719 0
M  V30 9894 N 913.466 -1.22244 -0.994698 0
M  V30 9895 C 914.691 -1.07299 -1.77487 0
M  V30 9896 C 915.116 0.372302 -1.84379 0
M  V30 9897 O 914.474 1.2689 -1.29494 0
M  V30 9898 C 914.522 -1.68675 -3.18718 0
M  V30 9899 O 913.626 -0.939202 -4.01563 0
M  V30 9900 H 912.967 -0.376979 -0.546611 0
M  V30 9901 H 915.497 -1.62003 -1.24965 0
M  V30 9902 H 915.507 -1.73324 -3.69354 0
M  V30 9903 H 914.182 -2.73849 -3.13017 0
M  V30 9904 H 912.759 -0.968583 -3.60101 0
M  V30 9905 N 914.944 1.19125 -1.03184 0
M  V30 9906 C 916.169 1.93379 -0.749628 0
M  V30 9907 C 916.594 1.75153 0.685785 0
M  V30 9908 O 915.952 1.05579 1.47386 0
M  V30 9909 C 916 3.43101 -1.1097 0
M  V30 9910 O 915.104 4.11758 -0.230053 0
M  V30 9911 H 914.445 0.603605 -0.276689 0
M  V30 9912 H 916.975 1.51116 -1.37931 0
M  V30 9913 H 916.985 3.93778 -1.06785 0
M  V30 9914 H 915.66 3.55688 -2.15544 0
M  V30 9915 H 914.237 3.7143 -0.330748 0
M  V30 9916 N 916.422 0.810101 1.35185 0
M  V30 9917 C 917.67 0.391343 1.98275 0
M  V30 9918 C 917.991 -1.04592 1.64577 0
M  V30 9919 O 917.261 -1.72417 0.93001 0
M  V30 9920 H 915.841 0.141715 0.733434 0
M  V30 9921 H 918.503 1.03672 1.6504 0
M  V30 9922 H 917.599 0.49991 3.0807 0
M  V30 9923 N 917.9 -1.47166 0.563914 0
M  V30 9924 C 919.125 -2.0735 0.0454698 0
M  V30 9925 C 919.55 -1.41281 -1.24182 0
M  V30 9926 O 918.908 -0.490084 -1.7455 0
M  V30 9927 C 918.956 -3.60378 -0.126453 0
M  V30 9928 O 918.06 -3.94934 -1.18746 0
M  V30 9929 H 917.401 -0.661773 0.0543377 0
M  V30 9930 H 919.931 -1.89086 0.781508 0
M  V30 9931 H 919.941 -4.06593 -0.338554 0
M  V30 9932 H 918.616 -4.07862 0.81373 0
M  V30 9933 H 917.193 -3.60455 -0.955318 0
M  V30 9934 N 919.378 -0.300708 -1.54705 0
M  V30 9935 C 920.341 0.562648 -2.22187 0
M  V30 9936 C 921.341 1.06152 -1.20782 0
M  V30 9937 O 922.531 0.957596 -1.45519 0
M  V30 9938 C 919.663 1.77899 -2.908 0
M  V30 9939 H 920.856 -0.0269361 -2.99888 0
M  V30 9940 H 918.409 -0.0515412 -1.56215 0
M  V30 9941 H 919.144 2.40841 -2.17177 0
M  V30 9942 H 918.929 1.42892 -3.65136 0
M  V30 9943 H 920.419 2.39236 -3.42281 0
M  V30 9944 N 920.856 1.57574 -0.0284266 0
M  V30 9945 C 921.819 2.09096 0.938691 0
M  V30 9946 C 922.819 1.00588 1.25454 0
M  V30 9947 O 924.009 1.2675 1.19499 0
M  V30 9948 C 921.141 2.55624 2.25542 0
M  V30 9949 H 922.334 2.95829 0.49248 0
M  V30 9950 H 919.887 1.5475 0.219594 0
M  V30 9951 H 920.622 1.72218 2.74793 0
M  V30 9952 H 920.407 3.34896 2.03929 0
M  V30 9953 H 921.897 2.95712 2.94863 0
M  V30 9954 N 922.334 -0.244713 1.55689 0
M  V30 9955 C 923.582 -0.970525 1.77272 0
M  V30 9956 C 923.903 -1.85771 0.592804 0
M  V30 9957 O 923.173 -1.91952 -0.391323 0
M  V30 9958 H 921.753 -0.361342 0.653789 0
M  V30 9959 H 924.415 -0.262134 1.93129 0
M  V30 9960 H 923.511 -1.59096 2.68505 0
M  V30 9961 N 923.813 -1.49104 -0.510467 0
M  V30 9962 C 924.76 -1.65074 -1.61305 0
M  V30 9963 C 925.73 -0.492362 -1.58635 0
M  V30 9964 O 926.915 -0.718241 -1.76765 0
M  V30 9965 C 924.055 -1.71457 -2.99493 0
M  V30 9966 C 923.168 -2.98536 -3.12251 0
M  V30 9967 C 922.303 -2.95957 -4.41116 0
M  V30 9968 C 921.342 -4.17655 -4.47471 0
M  V30 9969 N 920.479 -4.13041 -5.67751 0
M  V30 9970 H 925.319 -2.59222 -1.46996 0
M  V30 9971 H 922.856 -1.28535 -0.715346 0
M  V30 9972 H 924.814 -1.7314 -3.79577 0
M  V30 9973 H 923.444 -0.807834 -3.12528 0
M  V30 9974 H 922.496 -3.06509 -2.25292 0
M  V30 9975 H 923.808 -3.88527 -3.12807 0
M  V30 9976 H 922.962 -2.96149 -5.2951 0
M  V30 9977 H 921.701 -2.03728 -4.4311 0
M  V30 9978 H 920.706 -4.17717 -3.57481 0
M  V30 9979 H 921.931 -5.11066 -4.472 0
M  V30 9980 H 919.877 -3.23643 -5.70606 0
M  V30 9981 H 919.794 -4.96757 -5.69884 0
M  V30 9982 H 921.062 -4.17322 -6.58379 0
M  V30 9983 N 925.291 0.760815 -1.38019 0
M  V30 9984 C 926.568 1.5098 -1.24356 0
M  V30 9985 C 926.948 2.10507 0.158169 0
M  V30 9986 O 926.296 1.96455 1.16695 0
M  V30 9987 C 926.506 2.58195 -2.34811 0
M  V30 9988 C 927.854 3.25297 -2.72886 0
M  V30 9989 O 928.878 2.68496 -2.34069 0
M  V30 9990 O 927.737 4.28018 -3.39799 0
M  V30 9991 H 924.831 0.66921 -0.485888 0
M  V30 9992 H 927.377 0.796844 -1.49828 0
M  V30 9993 H 926.149 2.12406 -3.28633 0
M  V30 9994 H 925.772 3.37079 -2.10864 0
M  V30 9995 N 926.769 1.22769 0.988202 0
M  V30 9996 C 928.009 1.06673 1.74356 0
M  V30 9997 C 928.373 -0.390737 1.87982 0
M  V30 9998 O 929.574 -0.672677 2.60247 0
M  V30 9999 C 927.845 1.76361 3.10856 0
M  V30 10000 S 929.404 1.75738 4.02071 0
M  V30 10001 H 926.222 0.381917 0.599717 0
M  V30 10002 H 928.824 1.55784 1.18117 0
M  V30 10003 H 927.528 2.81559 2.98584 0
M  V30 10004 H 927.059 1.27501 3.72165 0
M  V30 10005 H 929.074 0.810418 4.89537 0
M  V30 10006 N 928.247 -1.18576 1.03814 0
M  V30 10007 C 929.496 -1.87822 0.735235 0
M  V30 10008 C 929.809 -1.81069 -0.739819 0
M  V30 10009 O 931.015 -2.45654 -1.15614 0
M  V30 10010 C 929.471 -3.36941 1.26486 0
M  V30 10011 C 929.079 -3.5223 2.76836 0
M  V30 10012 C 930.823 -4.11604 1.03836 0
M  V30 10013 C 928.73 -4.95294 3.23169 0
M  V30 10014 H 927.66 -0.703487 0.271333 0
M  V30 10015 H 930.311 -1.34 1.25365 0
M  V30 10016 H 928.693 -3.90217 0.674318 0
M  V30 10017 H 929.867 -3.09239 3.41625 0
M  V30 10018 H 928.182 -2.90969 2.97869 0
M  V30 10019 H 930.779 -5.17123 1.3597 0
M  V30 10020 H 931.122 -4.16293 -0.0244945 0
M  V30 10021 H 931.655 -3.64494 1.59338 0
M  V30 10022 H 928.394 -4.95772 4.28824 0
M  V30 10023 H 927.914 -5.3901 2.63113 0
M  V30 10024 H 929.593 -5.63996 3.17045 0
M  V30 10025 N 929.725 -0.817259 -1.34754 0
M  V30 10026 C 930.953 -0.415451 -2.02686 0
M  V30 10027 C 931.368 0.97688 -1.61563 0
M  V30 10028 O 930.725 1.63125 -0.818321 0
M  V30 10029 C 930.776 -0.501486 -3.58005 0
M  V30 10030 O 930.497 -1.83893 -3.97637 0
M  V30 10031 C 931.998 -0.0938504 -4.43201 0
M  V30 10032 H 929.218 -0.16742 -0.649778 0
M  V30 10033 H 931.762 -1.10384 -1.7215 0
M  V30 10034 H 929.917 0.138766 -3.87151 0
M  V30 10035 H 930.331 -1.8092 -4.92309 0
M  V30 10036 H 931.805 -0.205145 -5.51619 0
M  V30 10037 H 932.282 0.962011 -4.28535 0
M  V30 10038 H 932.888 -0.707677 -4.19371 0
M  V30 10039 N 931.203 1.46865 -0.571711 0
M  V30 10040 C 932.452 2.01636 -0.050881 0
M  V30 10041 C 932.765 1.45001 1.31279 0
M  V30 10042 O 933.971 1.91523 1.92435 0
M  V30 10043 C 932.427 3.59877 -0.0404114 0
M  V30 10044 C 932.035 4.25506 -1.40172 0
M  V30 10045 C 933.779 4.22346 0.42705 0
M  V30 10046 C 931.686 5.75795 -1.34958 0
M  V30 10047 H 930.616 0.753846 -0.0152514 0
M  V30 10048 H 933.267 1.68711 -0.721723 0
M  V30 10049 H 931.649 3.89829 0.696374 0
M  V30 10050 H 932.823 4.07178 -2.15737 0
M  V30 10051 H 931.138 3.75086 -1.8083 0
M  V30 10052 H 933.735 5.32499 0.484688 0
M  V30 10053 H 934.078 3.9052 1.44222 0
M  V30 10054 H 934.611 3.9698 -0.255326 0
M  V30 10055 H 931.35 6.12265 -2.3412 0
M  V30 10056 H 930.87 5.96419 -0.635962 0
M  V30 10057 H 932.549 6.38294 -1.05779 0
M  V30 10058 N 932.681 0.308908 1.54543 0
M  V30 10059 C 933.631 -0.578902 2.20528 0
M  V30 10060 C 934.615 -1.09288 1.18088 0
M  V30 10061 O 935.807 -1.03234 1.43777 0
M  V30 10062 C 932.936 -1.74649 2.95555 0
M  V30 10063 C 932.022 -1.24809 4.05319 0
M  V30 10064 N 932.413 -0.46828 5.03628 0
M  V30 10065 C 930.711 -1.52813 4.19004 0
M  V30 10066 C 931.412 -0.201896 5.8135 0
M  V30 10067 N 930.388 -0.783927 5.37918 0
M  V30 10068 H 934.19 0.0243496 2.9389 0
M  V30 10069 H 931.704 0.114049 1.61999 0
M  V30 10070 H 933.701 -2.39414 3.41301 0
M  V30 10071 H 932.361 -2.35336 2.23712 0
M  V30 10072 H 933.372 -0.112453 5.17778 0
M  V30 10073 H 930.049 -2.14191 3.58369 0
M  V30 10074 H 931.439 0.424929 6.70555 0
M  V30 10075 N 934.159 -1.57557 0.0367827 0
M  V30 10076 C 935.384 -1.96828 -0.653707 0
M  V30 10077 C 935.809 -0.913559 -1.64425 0
M  V30 10078 O 935.167 0.124749 -1.8087 0
M  V30 10079 C 935.215 -3.35189 -1.32969 0
M  V30 10080 O 934.319 -3.32095 -2.44513 0
M  V30 10081 H 933.66 -0.64157 -0.171124 0
M  V30 10082 H 936.19 -2.04351 0.100912 0
M  V30 10083 H 936.2 -3.71593 -1.68472 0
M  V30 10084 H 934.875 -4.11496 -0.603654 0
M  V30 10085 H 933.452 -3.07418 -2.11065 0
M  V30 10086 N 935.637 0.236453 -1.55816 0
M  V30 10087 C 936.6 1.27633 -1.90375 0
M  V30 10088 C 937.6 1.40557 -0.781048 0
M  V30 10089 O 938.79 1.39078 -1.04895 0
M  V30 10090 C 935.922 2.65247 -2.14142 0
M  V30 10091 H 937.115 0.982019 -2.83366 0
M  V30 10092 H 934.668 0.476215 -1.48869 0
M  V30 10093 H 935.403 2.99801 -1.23653 0
M  V30 10094 H 935.188 2.57246 -2.95917 0
M  V30 10095 H 936.678 3.40313 -2.42026 0
M  V30 10096 N 937.115 1.49373 0.502552 0
M  V30 10097 C 938.343 1.62488 1.28084 0
M  V30 10098 C 938.758 0.295667 1.86471 0
M  V30 10099 O 938.115 -0.718664 1.67754 0
M  V30 10100 C 938.166 2.69249 2.4122 0
M  V30 10101 O 937.887 3.97014 1.85234 0
M  V30 10102 C 939.388 2.93054 3.32617 0
M  V30 10103 H 936.608 0.547068 0.388533 0
M  V30 10104 H 939.152 1.95394 0.603452 0
M  V30 10105 H 937.307 2.39125 3.04792 0
M  V30 10106 H 937.721 4.55809 2.59496 0
M  V30 10107 H 939.195 3.71493 4.08285 0
M  V30 10108 H 939.672 2.02911 3.89517 0
M  V30 10109 H 940.278 3.24589 2.74813 0
M  V30 10110 N 938.594 -0.753485 1.38421 0
M  V30 10111 C 939.841 -1.51261 1.34634 0
M  V30 10112 C 940.169 -1.94396 -0.0635771 0
M  V30 10113 O 939.424 -1.65736 -1.04068 0
M  V30 10114 C 939.723 -2.77836 2.24816 0
M  V30 10115 C 939.389 -2.53662 3.72782 0
M  V30 10116 C 938.051 -2.46779 4.13103 0
M  V30 10117 C 940.403 -2.32548 4.66445 0
M  V30 10118 C 937.731 -2.16796 5.45176 0
M  V30 10119 C 940.083 -2.04085 5.98775 0
M  V30 10120 C 938.747 -1.95658 6.3818 0
M  V30 10121 H 938.017 -0.553503 0.492661 0
M  V30 10122 H 940.664 -0.866406 1.7078 0
M  V30 10123 H 938.969 -3.47106 1.81726 0
M  V30 10124 H 940.666 -3.35793 2.19189 0
M  V30 10125 H 937.256 -2.59891 3.40815 0
M  V30 10126 H 941.44 -2.36845 4.3614 0
M  V30 10127 H 936.696 -2.0878 5.74648 0
M  V30 10128 H 940.87 -1.86751 6.70893 0
M  V30 10129 H 938.497 -1.7219 7.40442 0
M  V30 10130 N 940.072 -1.23292 -0.981677 0
M  V30 10131 C 941.035 -1.01417 -2.05542 0
M  V30 10132 C 942.035 0.0235354 -1.60783 0
M  V30 10133 O 943.225 -0.216082 -1.72855 0
M  V30 10134 C 940.357 -0.534239 -3.36688 0
M  V30 10135 H 941.55 -1.96702 -2.26381 0
M  V30 10136 H 939.103 -1.05318 -1.1549 0
M  V30 10137 H 939.838 0.422452 -3.21537 0
M  V30 10138 H 939.623 -1.28304 -3.70514 0
M  V30 10139 H 941.113 -0.40179 -4.15663 0
M  V30 10140 N 941.55 1.18024 -1.04442 0
M  V30 10141 C 942.796 1.88631 -0.760907 0
M  V30 10142 C 943.151 1.79059 0.703957 0
M  V30 10143 O 942.444 1.18261 1.50748 0
M  V30 10144 C 942.638 3.37834 -1.16631 0
M  V30 10145 C 942.467 3.61929 -2.66904 0
M  V30 10146 C 941.237 3.7908 -3.34105 0
M  V30 10147 C 943.435 3.622 -3.65124 0
M  V30 10148 N 941.417 3.90949 -4.73321 0
M  V30 10149 C 942.788 3.79827 -4.90032 0
M  V30 10150 C 944.843 3.45308 -3.58701 0
M  V30 10151 C 943.546 3.82312 -6.09287 0
M  V30 10152 C 945.572 3.49078 -4.77387 0
M  V30 10153 C 944.934 3.67206 -6.01115 0
M  V30 10154 H 941.033 0.708704 -0.330549 0
M  V30 10155 H 943.617 1.41739 -1.33485 0
M  V30 10156 H 941.788 3.83413 -0.6204 0
M  V30 10157 H 943.52 3.96026 -0.83342 0
M  V30 10158 H 940.275 3.78619 -2.84508 0
M  V30 10159 H 940.699 4.00696 -5.45685 0
M  V30 10160 H 945.341 3.30236 -2.64015 0
M  V30 10161 H 943.059 3.96171 -7.04325 0
M  V30 10162 H 946.645 3.37277 -4.74063 0
M  V30 10163 H 945.525 3.70017 -6.91417 0
M  V30 10164 N 943.028 0.824394 1.34319 0
M  V30 10165 C 944.253 0.425194 2.02995 0
M  V30 10166 C 944.678 -0.961476 1.6167 0
M  V30 10167 O 944.036 -1.62593 0.80207 0
M  V30 10168 C 944.084 0.537004 3.56579 0
M  V30 10169 O 943.188 -0.442576 4.10018 0
M  V30 10170 H 942.529 0.174853 0.640564 0
M  V30 10171 H 945.059 1.11522 1.71534 0
M  V30 10172 H 945.069 0.413311 4.05901 0
M  V30 10173 H 943.744 1.54836 3.86004 0
M  V30 10174 H 942.321 -0.277644 3.71865 0
M  V30 10175 N 944.506 -1.46559 0.579492 0
M  V30 10176 C 945.438 -2.28383 -0.19337 0
M  V30 10177 C 946.451 -1.38324 -0.858511 0
M  V30 10178 O 947.64 -1.62952 -0.728615 0
M  V30 10179 C 944.74 -3.13262 -1.29306 0
M  V30 10180 C 943.913 -4.31426 -0.720459 0
M  V30 10181 C 942.972 -4.97728 -1.70744 0
M  V30 10182 O 941.998 -5.55423 -1.24476 0
M  V30 10183 N 943.2 -4.94445 -3.04146 0
M  V30 10184 H 945.965 -2.95353 0.508611 0
M  V30 10185 H 943.526 -1.56436 0.417046 0
M  V30 10186 H 945.518 -3.54483 -1.95254 0
M  V30 10187 H 944.088 -2.48388 -1.89795 0
M  V30 10188 H 943.308 -3.94028 0.116398 0
M  V30 10189 H 944.596 -5.07808 -0.31763 0
M  V30 10190 H 943.994 -4.4881 -3.44363 0
M  V30 10191 H 942.551 -5.39616 -3.65592 0
M  V30 10192 N 945.984 -0.3171 -1.54377 0
M  V30 10193 C 946.894 0.560867 -2.27797 0
M  V30 10194 C 947.91 1.13473 -1.31908 0
M  V30 10195 O 949.086 1.15608 -1.64914 0
M  V30 10196 C 946.151 1.70886 -3.0166 0
M  V30 10197 C 945.212 1.16745 -4.13121 0
M  V30 10198 C 944.445 2.26073 -4.83453 0
M  V30 10199 O 944.668 3.46292 -4.53252 0
M  V30 10200 O 943.602 1.91856 -5.70504 0
M  V30 10201 H 947.428 -0.035193 -3.0368 0
M  V30 10202 H 945.013 -0.0830062 -1.49169 0
M  V30 10203 H 946.895 2.37736 -3.47936 0
M  V30 10204 H 945.57 2.29122 -2.28658 0
M  V30 10205 H 944.477 0.464224 -3.71209 0
M  V30 10206 H 945.81 0.630307 -4.88147 0
M  V30 10207 N 947.462 1.57535 -0.0451378 0
M  V30 10208 C 948.687 1.97172 0.64326 0
M  V30 10209 C 949.112 0.922266 1.63939 0
M  V30 10210 O 948.47 -0.115155 1.80934 0
M  V30 10211 C 948.518 3.35889 1.3119 0
M  V30 10212 O 947.622 3.33387 2.42748 0
M  V30 10213 H 946.963 0.642469 0.167719 0
M  V30 10214 H 949.493 2.04295 -0.111747 0
M  V30 10215 H 949.503 3.72481 1.66499 0
M  V30 10216 H 948.178 4.1181 0.581823 0
M  V30 10217 H 946.755 3.08533 2.09432 0
M  V30 10218 N 948.94 -0.228186 1.55939 0
M  V30 10219 C 950.351 -0.795734 1.68893 0
M  V30 10220 C 950.702 -1.85261 0.645967 0
M  V30 10221 O 949.827 -2.15434 -0.2042 0
M  V30 10222 C 950.422 -1.45013 3.06197 0
M  V30 10223 C 948.981 -1.96514 3.21028 0
M  V30 10224 C 948.128 -0.822918 2.64808 0
M  V30 10225 H 951.079 -0.0036485 1.587 0
M  V30 10226 H 951.1 -2.31875 3.01685 0
M  V30 10227 H 950.612 -0.680678 3.82084 0
M  V30 10228 H 948.713 -2.76282 2.49998 0
M  V30 10229 H 948.826 -2.14967 4.28166 0
M  V30 10230 H 947.19 -1.22846 2.23116 0
M  V30 10231 H 947.973 -0.0662493 3.43236 0
M  V30 10232 N 950.418 -1.49637 -0.494624 0
M  V30 10233 C 951.829 -1.52573 -1.07603 0
M  V30 10234 C 952.18 -0.315591 -1.93645 0
M  V30 10235 O 951.305 0.573966 -2.08649 0
M  V30 10236 C 951.9 -2.7648 -1.95817 0
M  V30 10237 C 950.459 -2.82173 -2.49109 0
M  V30 10238 C 949.606 -2.4657 -1.2688 0
M  V30 10239 H 952.557 -1.56242 -0.278251 0
M  V30 10240 H 952.578 -2.57003 -2.80588 0
M  V30 10241 H 952.09 -3.64538 -1.33167 0
M  V30 10242 H 950.191 -1.9841 -3.15379 0
M  V30 10243 H 950.304 -3.84501 -2.85825 0
M  V30 10244 H 948.668 -1.98489 -1.59607 0
M  V30 10245 H 949.451 -3.3691 -0.659281 0
M  V30 10246 N 951.896 0.746133 -1.38819 0
M  V30 10247 C 953.136 1.51821 -1.36857 0
M  V30 10248 C 953.5 1.9196 0.0391461 0
M  V30 10249 O 954.701 2.68172 0.183689 0
M  V30 10250 C 952.972 2.73214 -2.3041 0
M  V30 10251 S 954.531 3.62995 -2.46536 0
M  V30 10252 H 951.349 0.51945 -0.485482 0
M  V30 10253 H 953.951 0.875244 -1.74813 0
M  V30 10254 H 952.655 2.41847 -3.31569 0
M  V30 10255 H 952.186 3.42449 -1.9363 0
M  V30 10256 H 954.201 4.66353 -1.69498 0
M  V30 10257 N 953.375 1.23811 0.975125 0
M  V30 10258 C 954.305 1.04846 2.08638 0
M  V30 10259 C 955.286 -0.0362859 1.70061 0
M  V30 10260 O 956.471 0.12937 1.93769 0
M  V30 10261 C 953.601 0.644534 3.41267 0
M  V30 10262 C 952.555 1.67722 3.93768 0
M  V30 10263 C 951.881 1.12857 5.22654 0
M  V30 10264 C 953.181 3.07147 4.22443 0
M  V30 10265 H 954.875 1.97795 2.24761 0
M  V30 10266 H 952.421 0.952397 1.08006 0
M  V30 10267 H 954.374 0.498887 4.18436 0
M  V30 10268 H 953.098 -0.320641 3.25022 0
M  V30 10269 H 951.757 1.81095 3.18748 0
M  V30 10270 H 951.405 0.154227 5.02764 0
M  V30 10271 H 951.105 1.81862 5.58749 0
M  V30 10272 H 952.629 0.994891 6.0244 0
M  V30 10273 H 954.043 2.97045 4.90344 0
M  V30 10274 H 952.44 3.73437 4.6975 0
M  V30 10275 H 953.51 3.55743 3.29507 0
M  V30 10276 N 954.853 -1.17469 1.05066 0
M  V30 10277 C 955.803 -2.19388 0.620713 0
M  V30 10278 C 956.787 -1.5722 -0.34214 0
M  V30 10279 O 957.979 -1.76279 -0.159574 0
M  V30 10280 C 955.108 -3.433 -0.00438518 0
M  V30 10281 C 954.194 -4.12569 0.982218 0
M  V30 10282 N 954.585 -4.57683 2.15313 0
M  V30 10283 C 952.883 -4.38575 0.810416 0
M  V30 10284 C 953.584 -5.11124 2.77719 0
M  V30 10285 N 952.56 -5.0325 2.05525 0
M  V30 10286 H 956.362 -2.51971 1.51287 0
M  V30 10287 H 953.876 -1.33784 0.920625 0
M  V30 10288 H 955.873 -4.15591 -0.330161 0
M  V30 10289 H 954.533 -3.12209 -0.89195 0
M  V30 10290 H 955.544 -4.51812 2.53154 0
M  V30 10291 H 952.221 -4.17492 -0.0262078 0
M  V30 10292 H 953.611 -5.56161 3.77008 0
M  V30 10293 N 956.331 -0.831506 -1.3388 0
M  V30 10294 C 957.747 -0.518349 -1.50948 0
M  V30 10295 C 957.947 0.955807 -1.77388 0
M  V30 10296 O 957.003 1.73993 -1.82983 0
M  V30 10297 C 958.316 -1.38531 -2.66889 0
M  V30 10298 C 959.864 -1.38332 -2.80772 0
M  V30 10299 C 960.339 -2.23497 -3.99766 0
M  V30 10300 N 961.83 -2.21167 -4.06988 0
M  V30 10301 C 962.565 -2.83805 -4.98239 0
M  V30 10302 N 962.061 -3.55468 -5.94655 0
M  V30 10303 N 963.854 -2.73314 -4.91178 0
M  V30 10304 H 956.005 -1.78588 -1.14978 0
M  V30 10305 H 958.268 -0.761508 -0.564633 0
M  V30 10306 H 957.974 -2.43255 -2.54007 0
M  V30 10307 H 957.848 -1.05611 -3.62114 0
M  V30 10308 H 960.235 -0.343832 -2.9309 0
M  V30 10309 H 960.316 -1.75256 -1.86331 0
M  V30 10310 H 959.96 -3.27501 -3.88208 0
M  V30 10311 H 959.89 -1.83919 -4.93438 0
M  V30 10312 H 962.381 -1.69046 -3.37982 0
M  V30 10313 H 962.694 -4.00487 -6.60931 0
M  V30 10314 H 961.039 -3.59575 -5.94753 0
M  V30 10315 H 964.23 -2.16897 -4.14817 0
M  V30 10316 H 964.403 -3.22416 -5.62096 0
M  V30 10317 N 957.809 1.4625 -0.587256 0
M  V30 10318 C 959.058 2.01571 -0.0722643 0
M  V30 10319 C 959.371 1.46385 1.29733 0
M  V30 10320 O 960.577 1.93554 1.90392 0
M  V30 10321 C 959.033 3.59814 -0.078579 0
M  V30 10322 C 958.641 4.23996 -1.44678 0
M  V30 10323 C 960.385 4.22776 0.382231 0
M  V30 10324 C 958.292 5.74332 -1.41057 0
M  V30 10325 H 957.222 0.753642 -0.0232461 0
M  V30 10326 H 959.873 1.67936 -0.739577 0
M  V30 10327 H 958.255 3.90546 0.654988 0
M  V30 10328 H 959.429 4.04867 -2.20043 0
M  V30 10329 H 957.744 3.73147 -1.84799 0
M  V30 10330 H 960.341 5.32983 0.428182 0
M  V30 10331 H 960.684 3.92027 1.40072 0
M  V30 10332 H 961.217 3.96687 -0.297417 0
M  V30 10333 H 957.956 6.09747 -2.40601 0
M  V30 10334 H 957.476 5.95711 -0.699185 0
M  V30 10335 H 959.155 6.37137 -1.12543 0
M  V30 10336 N 959.287 0.325282 1.54207 0
M  V30 10337 C 960.235 -0.5554 2.25872 0
M  V30 10338 C 961.229 -1.11714 1.27344 0
M  V30 10339 O 962.435 -1.06498 1.45115 0
M  V30 10340 H 958.81 -0.19776 0.725531 0
M  V30 10341 H 960.781 0.0712858 2.98315 0
M  V30 10342 C 959.53 -1.70379 3.03095 0
M  V30 10343 H 958.853 -1.2808 3.78729 0
M  V30 10344 H 960.293 -2.29556 3.56483 0
M  V30 10345 C 958.752 -2.62242 2.11496 0
M  V30 10346 O 959.282 -3.64003 1.69895 0
M  V30 10347 N 957.488 -2.30515 1.7695 0
M  V30 10348 H 957.035 -1.47805 2.10978 0
M  V30 10349 H 956.993 -2.92241 1.15942 0
M  V30 10350 N 960.765 -1.57509 0.0534917 0
M  V30 10351 C 961.695 -2.14698 -0.917999 0
M  V30 10352 C 962.676 -1.06924 -1.32292 0
M  V30 10353 O 963.861 -1.34875 -1.39723 0
M  V30 10354 C 960.991 -2.69383 -2.19203 0
M  V30 10355 C 959.945 -3.82161 -1.9271 0
M  V30 10356 C 959.271 -4.23373 -3.26587 0
M  V30 10357 C 960.571 -5.07199 -1.24686 0
M  V30 10358 H 962.265 -2.96125 -0.44165 0
M  V30 10359 H 959.811 -1.42446 -0.210993 0
M  V30 10360 H 961.764 -3.08031 -2.87567 0
M  V30 10361 H 960.488 -1.85151 -2.69048 0
M  V30 10362 H 959.147 -3.43989 -1.26757 0
M  V30 10363 H 958.795 -3.36089 -3.74237 0
M  V30 10364 H 958.495 -4.99385 -3.09658 0
M  V30 10365 H 960.019 -4.64623 -3.96178 0
M  V30 10366 H 961.433 -5.43279 -1.83088 0
M  V30 10367 H 959.83 -5.88369 -1.18076 0
M  V30 10368 H 960.9 -4.84386 -0.223227 0
M  V30 10369 N 962.243 0.219913 -1.56058 0
M  V30 10370 C 963.471 0.960915 -1.83232 0
M  V30 10371 C 963.886 1.77878 -0.632828 0
M  V30 10372 O 963.243 1.78093 0.398624 0
M  V30 10373 C 963.294 1.87716 -3.08942 0
M  V30 10374 O 963.015 1.09235 -4.24263 0
M  V30 10375 C 964.516 2.73192 -3.49115 0
M  V30 10376 H 961.736 0.281546 -0.609075 0
M  V30 10377 H 964.28 0.234648 -2.03149 0
M  V30 10378 H 962.435 2.55736 -2.90995 0
M  V30 10379 H 962.849 1.71446 -4.95688 0
M  V30 10380 H 964.323 3.33181 -4.40107 0
M  V30 10381 H 964.8 3.45668 -2.70943 0
M  V30 10382 H 965.406 2.10583 -3.69506 0
M  V30 10383 N 963.721 1.49897 0.486681 0
M  V30 10384 C 964.967 1.60342 1.2417 0
M  V30 10385 C 965.3 0.295694 1.91936 0
M  V30 10386 O 964.575 -0.701788 1.81398 0
M  V30 10387 C 964.858 2.77281 2.29755 0
M  V30 10388 C 964.711 4.1789 1.66397 0
M  V30 10389 C 966.03 2.89817 3.31201 0
M  V30 10390 H 963.149 0.583605 0.450083 0
M  V30 10391 H 965.791 1.82232 0.537734 0
M  V30 10392 H 963.941 2.58748 2.89796 0
M  V30 10393 H 965.613 4.47975 1.10073 0
M  V30 10394 H 963.856 4.22872 0.967579 0
M  V30 10395 H 964.527 4.95612 2.43049 0
M  V30 10396 H 967.003 3.06732 2.81167 0
M  V30 10397 H 965.879 3.7329 4.02425 0
M  V30 10398 H 966.14 1.9977 3.94391 0
M  V30 10399 N 965.199 -0.738761 1.39212 0
M  V30 10400 C 966.61 -1.31684 1.32348 0
M  V30 10401 C 966.961 -1.96195 -0.0139041 0
M  V30 10402 O 966.086 -1.96056 -0.916025 0
M  V30 10403 C 966.681 -2.39444 2.39691 0
M  V30 10404 C 965.24 -2.92935 2.36359 0
M  V30 10405 C 964.387 -1.66465 2.21776 0
M  V30 10406 H 967.338 -0.536543 1.49355 0
M  V30 10407 H 967.359 -3.19744 2.06262 0
M  V30 10408 H 966.871 -1.92463 3.37016 0
M  V30 10409 H 964.972 -3.44207 1.42662 0
M  V30 10410 H 965.085 -3.46306 3.31073 0
M  V30 10411 H 963.449 -1.90657 1.68884 0
M  V30 10412 H 964.232 -1.21541 3.21065 0
M  V30 10413 N 966.677 -1.24326 -0.968545 0
M  V30 10414 C 967.609 -0.992749 -2.06584 0
M  V30 10415 C 968.622 0.0374902 -1.62757 0
M  V30 10416 O 969.811 -0.199448 -1.77382 0
M  V30 10417 C 966.911 -0.476165 -3.35538 0
M  V30 10418 C 966.084 -1.56934 -4.08277 0
M  V30 10419 C 965.143 -1.05555 -5.15504 0
M  V30 10420 O 964.169 -1.74707 -5.41725 0
M  V30 10421 N 965.371 0.110465 -5.80395 0
M  V30 10422 H 968.136 -1.93752 -2.28649 0
M  V30 10423 H 965.697 -1.15344 -1.13611 0
M  V30 10424 H 967.689 -0.117223 -4.0453 0
M  V30 10425 H 966.259 0.374315 -3.10351 0
M  V30 10426 H 965.479 -2.10051 -3.33575 0
M  V30 10427 H 966.767 -2.30415 -4.53637 0
M  V30 10428 H 966.165 0.688614 -5.61493 0
M  V30 10429 H 964.722 0.41056 -6.50506 0
M  V30 10430 N 968.156 1.1691 -1.05688 0
M  V30 10431 C 969.404 1.86922 -0.768409 0
M  V30 10432 C 969.725 1.81735 0.706921 0
M  V30 10433 O 968.995 1.24671 1.51109 0
M  V30 10434 H 967.575 0.69203 -0.281253 0
M  V30 10435 H 970.237 1.41803 -1.33708 0
M  V30 10436 H 969.333 2.92528 -1.08783 0
M  V30 10437 N 969.634 0.838594 1.33437 0
M  V30 10438 C 970.874 0.440239 1.99603 0
M  V30 10439 C 971.238 -0.982061 1.64984 0
M  V30 10440 O 972.439 -1.48413 2.24114 0
M  V30 10441 C 970.71 0.654201 3.51362 0
M  V30 10442 S 972.269 0.351025 4.37394 0
M  V30 10443 H 969.087 0.165608 0.691444 0
M  V30 10444 H 971.689 1.08782 1.6244 0
M  V30 10445 H 970.393 1.68873 3.74045 0
M  V30 10446 H 969.924 -0.00754449 3.93399 0
M  V30 10447 H 971.939 -0.829298 4.89221 0
M  V30 10448 N 971.112 -1.45937 0.595003 0
M  V30 10449 C 972.042 -2.33198 -0.11871 0
M  V30 10450 C 973.023 -1.46083 -0.871423 0
M  V30 10451 O 974.208 -1.74879 -0.844461 0
M  V30 10452 C 971.338 -3.28576 -1.12495 0
M  V30 10453 C 970.292 -4.25229 -0.486275 0
M  V30 10454 C 969.618 -5.10204 -1.59986 0
M  V30 10455 C 970.918 -5.19019 0.584473 0
M  V30 10456 H 972.612 -2.93122 0.609886 0
M  V30 10457 H 970.158 -1.40951 0.294742 0
M  V30 10458 H 972.111 -3.88485 -1.6327 0
M  V30 10459 H 970.835 -2.66784 -1.88398 0
M  V30 10460 H 969.494 -3.666 0.000507962 0
M  V30 10461 H 969.142 -4.44789 -2.34886 0
M  V30 10462 H 968.842 -5.75669 -1.1781 0
M  V30 10463 H 970.366 -5.7298 -2.11014 0
M  V30 10464 H 971.78 -5.73073 0.161297 0
M  V30 10465 H 970.177 -5.92893 0.927256 0
M  V30 10466 H 971.247 -4.62208 1.46601 0
M  V30 10467 N 972.59 -0.333456 -1.54032 0
M  V30 10468 C 973.52 0.52051 -2.27625 0
M  V30 10469 C 974.501 1.1111 -1.28797 0
M  V30 10470 O 975.686 1.13438 -1.57625 0
M  V30 10471 C 972.816 1.67663 -3.04149 0
M  V30 10472 C 971.77 1.21487 -4.10396 0
M  V30 10473 C 971.096 2.45872 -4.74817 0
M  V30 10474 C 972.396 0.322603 -5.21303 0
M  V30 10475 H 974.09 -0.0933823 -2.99254 0
M  V30 10476 H 971.636 -0.0463526 -1.43925 0
M  V30 10477 H 973.589 2.28041 -3.54366 0
M  V30 10478 H 972.313 2.31727 -2.30153 0
M  V30 10479 H 970.972 0.633966 -3.61077 0
M  V30 10480 H 970.62 3.0832 -3.97426 0
M  V30 10481 H 970.32 2.15662 -5.46593 0
M  V30 10482 H 971.844 3.06994 -5.27814 0
M  V30 10483 H 973.258 0.832942 -5.67217 0
M  V30 10484 H 971.655 0.112843 -5.99994 0
M  V30 10485 H 972.725 -0.643954 -4.80605 0
M  V30 10486 N 974.068 1.57479 -0.061844 0
M  V30 10487 C 975.031 2.1104 0.894127 0
M  V30 10488 C 976.031 1.03227 1.23292 0
M  V30 10489 O 977.221 1.29256 1.16784 0
M  V30 10490 C 974.353 2.6035 2.20069 0
M  V30 10491 H 975.546 2.96807 0.429619 0
M  V30 10492 H 973.099 1.55181 0.18672 0
M  V30 10493 H 973.834 1.78008 2.71079 0
M  V30 10494 H 973.619 3.39146 1.9678 0
M  V30 10495 H 975.109 3.019 2.88525 0
M  V30 10496 N 975.546 -0.211634 1.56173 0
M  V30 10497 C 976.792 -0.935935 1.79911 0
M  V30 10498 C 977.125 -1.83589 0.633155 0
M  V30 10499 O 976.4 -1.91004 -0.367132 0
M  V30 10500 C 976.683 -1.76638 3.13801 0
M  V30 10501 C 976.536 -0.892259 4.40861 0
M  V30 10502 C 977.855 -2.74224 3.44223 0
M  V30 10503 H 974.974 -0.338822 0.654499 0
M  V30 10504 H 977.616 -0.20422 1.88899 0
M  V30 10505 H 975.766 -2.39021 3.0627 0
M  V30 10506 H 977.438 -0.284407 4.60422 0
M  V30 10507 H 975.681 -0.198145 4.33347 0
M  V30 10508 H 976.352 -1.50793 5.31004 0
M  V30 10509 H 978.828 -2.21975 3.51946 0
M  V30 10510 H 977.704 -3.29424 4.39057 0
M  V30 10511 H 977.965 -3.52455 2.66885 0
M  V30 10512 N 977.024 -1.50153 -0.478725 0
M  V30 10513 C 978.27 -1.60998 -1.23318 0
M  V30 10514 C 978.603 -0.305868 -1.91776 0
M  V30 10515 O 977.878 0.692158 -1.81767 0
M  V30 10516 C 978.161 -2.78495 -2.28282 0
M  V30 10517 C 978.014 -4.18767 -1.64178 0
M  V30 10518 C 979.333 -2.91569 -3.2966 0
M  V30 10519 H 976.452 -0.585983 -0.446982 0
M  V30 10520 H 979.094 -1.82514 -0.528063 0
M  V30 10521 H 977.244 -2.60281 -2.8842 0
M  V30 10522 H 978.916 -4.48552 -1.07696 0
M  V30 10523 H 977.159 -4.23379 -0.94514 0
M  V30 10524 H 977.83 -4.96894 -2.40417 0
M  V30 10525 H 980.306 -3.08219 -2.79536 0
M  V30 10526 H 979.182 -3.75419 -4.0044 0
M  V30 10527 H 979.443 -2.01859 -3.93326 0
M  V30 10528 N 978.502 0.731368 -1.39602 0
M  V30 10529 C 979.75 1.48805 -1.36753 0
M  V30 10530 C 980.071 1.94969 0.034676 0
M  V30 10531 O 979.341 1.69243 0.986591 0
M  V30 10532 H 977.921 0.55203 -0.503261 0
M  V30 10533 H 980.583 0.868013 -1.74504 0
M  V30 10534 H 979.679 2.36844 -2.03252 0
M  V30 10535 N 979.98 1.24838 0.961938 0
M  V30 10536 C 981.391 1.08369 1.5203 0
M  V30 10537 C 981.742 -0.343005 1.93178 0
M  V30 10538 O 980.867 -1.2321 1.779 0
M  V30 10539 C 981.462 1.96102 2.76278 0
M  V30 10540 C 980.021 1.8384 3.28451 0
M  V30 10541 C 979.168 1.9069 2.01327 0
M  V30 10542 H 982.119 1.38231 0.779613 0
M  V30 10543 H 982.14 1.4967 3.49827 0
M  V30 10544 H 981.652 2.99931 2.46298 0
M  V30 10545 H 979.753 0.828653 3.63269 0
M  V30 10546 H 979.866 2.68251 3.96961 0
M  V30 10547 H 978.23 1.34488 2.16299 0
M  V30 10548 H 979.013 2.96111 1.73705 0
M  V30 10549 N 981.458 -1.16348 1.06306 0
M  V30 10550 C 982.704 -1.87158 0.781007 0
M  V30 10551 C 983.037 -1.81499 -0.690784 0
M  V30 10552 O 982.312 -1.23074 -1.50609 0
M  V30 10553 C 982.595 -3.3672 1.27639 0
M  V30 10554 C 982.448 -3.51069 2.81194 0
M  V30 10555 C 983.767 -4.31122 0.884388 0
M  V30 10556 H 980.886 -0.679586 0.285187 0
M  V30 10557 H 983.528 -1.36756 1.31901 0
M  V30 10558 H 981.678 -3.79775 0.818715 0
M  V30 10559 H 983.35 -3.16952 3.35171 0
M  V30 10560 H 981.593 -2.92976 3.19918 0
M  V30 10561 H 982.264 -4.56105 3.10921 0
M  V30 10562 H 984.74 -3.95969 1.27858 0
M  V30 10563 H 983.616 -5.34279 1.25847 0
M  V30 10564 H 983.877 -4.41598 -0.210673 0
M  V30 10565 N 982.937 -0.845659 -1.3299 0
M  V30 10566 C 984.185 -0.443774 -1.97168 0
M  V30 10567 C 984.506 1.00192 -1.67292 0
M  V30 10568 O 983.776 1.69891 -0.975397 0
M  V30 10569 H 982.356 -0.161111 -0.729419 0
M  V30 10570 H 985.018 -1.08011 -1.62233 0
M  V30 10571 H 984.114 -0.581414 -3.06637 0
M  V30 10572 N 984.415 1.45619 -0.602734 0
M  V30 10573 C 985.378 2.28941 0.108962 0
M  V30 10574 C 986.378 1.39501 0.799762 0
M  V30 10575 O 987.568 1.61673 0.648663 0
M  V30 10576 C 984.7 3.204 1.16432 0
M  V30 10577 H 985.893 2.93346 -0.623534 0
M  V30 10578 H 983.446 1.52061 -0.361565 0
M  V30 10579 H 984.181 2.60785 1.92774 0
M  V30 10580 H 983.966 3.86277 0.673248 0
M  V30 10581 H 985.456 3.83063 1.6629 0
M  V30 10582 N 985.893 0.34162 1.53853 0
M  V30 10583 C 987.141 -0.254979 2.00485 0
M  V30 10584 C 987.462 -1.51222 1.23114 0
M  V30 10585 O 986.732 -1.92966 0.337787 0
M  V30 10586 H 985.312 -0.0972084 0.740648 0
M  V30 10587 H 987.974 0.462332 1.89337 0
M  V30 10588 H 987.07 -0.498778 3.08089 0
M  V30 10589 N 987.371 -1.57444 0.0701946 0
M  V30 10590 C 988.318 -2.12631 -0.897599 0
M  V30 10591 C 989.288 -1.03841 -1.29639 0
M  V30 10592 O 990.473 -1.31495 -1.38253 0
M  V30 10593 C 987.613 -2.6911 -2.16041 0
M  V30 10594 C 986.726 -3.9205 -1.8144 0
M  V30 10595 C 985.861 -4.36778 -3.02321 0
M  V30 10596 C 984.9 -5.52371 -2.63729 0
M  V30 10597 N 984.037 -5.92065 -3.77364 0
M  V30 10598 H 988.877 -2.95024 -0.420104 0
M  V30 10599 H 986.414 -1.45792 -0.195716 0
M  V30 10600 H 988.372 -2.99963 -2.89962 0
M  V30 10601 H 987.002 -1.89484 -2.61334 0
M  V30 10602 H 986.054 -3.67669 -0.975896 0
M  V30 10603 H 987.366 -4.76011 -1.49046 0
M  V30 10604 H 986.52 -4.69285 -3.84521 0
M  V30 10605 H 985.259 -3.51668 -3.37907 0
M  V30 10606 H 984.264 -5.19517 -1.7995 0
M  V30 10607 H 985.489 -6.39212 -2.29315 0
M  V30 10608 H 983.435 -5.09904 -4.12715 0
M  V30 10609 H 983.352 -6.70762 -3.48733 0
M  V30 10610 H 984.62 -6.29193 -4.60148 0
M  V30 10611 N 988.849 0.203349 -1.56283 0
M  V30 10612 C 990.074 0.945548 -1.84592 0
M  V30 10613 C 990.499 1.7641 -0.652772 0
M  V30 10614 O 989.857 1.76867 0.398468 0
M  V30 10615 C 989.905 1.82416 -3.11057 0
M  V30 10616 O 989.009 2.92191 -2.9103 0
M  V30 10617 H 988.35 0.266739 -0.608068 0
M  V30 10618 H 990.88 0.211158 -2.03507 0
M  V30 10619 H 990.89 2.23044 -3.41636 0
M  V30 10620 H 989.565 1.22267 -3.97522 0
M  V30 10621 H 988.142 2.55378 -2.71728 0
M  V30 10622 N 990.327 1.50405 0.470755 0
M  V30 10623 C 991.552 1.65442 1.25075 0
M  V30 10624 C 991.977 0.337612 1.85045 0
M  V30 10625 O 991.335 -0.698555 1.67302 0
M  V30 10626 C 991.383 2.74793 2.33498 0
M  V30 10627 O 990.487 2.36069 3.3815 0
M  V30 10628 H 989.828 0.552728 0.367951 0
M  V30 10629 H 992.358 1.96782 0.560177 0
M  V30 10630 H 992.368 2.97879 2.78804 0
M  V30 10631 H 991.043 3.70363 1.8922 0
M  V30 10632 H 989.62 2.2343 2.98552 0
M  V30 10633 N 991.805 -0.723954 1.39988 0
M  V30 10634 C 992.735 -1.85103 1.42335 0
M  V30 10635 C 993.716 -1.6769 0.285297 0
M  V30 10636 O 994.901 -1.87846 0.492716 0
M  V30 10637 C 992.031 -3.22972 1.27697 0
M  V30 10638 C 990.985 -3.55041 2.39018 0
M  V30 10639 C 990.311 -4.91965 2.09462 0
M  V30 10640 C 991.611 -3.56889 3.8135 0
M  V30 10641 H 993.305 -1.83396 2.36656 0
M  V30 10642 H 990.851 -0.880926 1.13911 0
M  V30 10643 H 992.804 -4.01503 1.27958 0
M  V30 10644 H 991.528 -3.25233 0.298487 0
M  V30 10645 H 990.187 -2.78845 2.37993 0
M  V30 10646 H 989.835 -4.90819 1.10025 0
M  V30 10647 H 989.535 -5.14389 2.84038 0
M  V30 10648 H 991.059 -5.7284 2.11391 0
M  V30 10649 H 992.473 -4.25476 3.84243 0
M  V30 10650 H 990.87 -3.90836 4.55376 0
M  V30 10651 H 991.94 -2.56452 4.11534 0
M  V30 10652 N 993.283 -1.25346 -0.955304 0
M  V30 10653 C 994.213 -1.08152 -2.06943 0
M  V30 10654 C 995.194 0.00922598 -1.70097 0
M  V30 10655 O 996.379 -0.160181 -1.93538 0
M  V30 10656 C 993.509 -0.698745 -3.40198 0
M  V30 10657 C 992.463 -1.73965 -3.9105 0
M  V30 10658 C 991.789 -1.21158 -5.20792 0
M  V30 10659 C 993.089 -3.13829 -4.17503 0
M  V30 10660 H 994.783 -2.01345 -2.21586 0
M  V30 10661 H 992.329 -0.969459 -1.06478 0
M  V30 10662 H 994.282 -0.565394 -4.1759 0
M  V30 10663 H 993.006 0.268892 -3.25491 0
M  V30 10664 H 991.665 -1.86143 -3.15827 0
M  V30 10665 H 991.313 -0.234193 -5.02455 0
M  V30 10666 H 991.013 -1.90728 -5.55785 0
M  V30 10667 H 992.537 -1.09061 -6.00781 0
M  V30 10668 H 993.951 -3.04809 -4.85556 0
M  V30 10669 H 992.348 -3.80863 -4.63749 0
M  V30 10670 H 993.418 -3.6094 -3.23806 0
M  V30 10671 N 994.761 1.15782 -1.06922 0
M  V30 10672 C 995.986 1.90896 -0.810771 0
M  V30 10673 C 996.411 1.77246 0.629714 0
M  V30 10674 O 995.769 1.10215 1.43953 0
M  V30 10675 C 995.817 3.39397 -1.21829 0
M  V30 10676 O 994.921 4.10818 -0.360934 0
M  V30 10677 H 994.262 0.594497 -0.295752 0
M  V30 10678 H 996.792 1.46652 -1.42669 0
M  V30 10679 H 996.802 3.90181 -1.19259 0
M  V30 10680 H 995.477 3.4865 -2.2675 0
M  V30 10681 H 994.054 3.7019 -0.448748 0
M  V30 10682 N 996.239 0.8527 1.3254 0
M  V30 10683 C 997.202 0.300959 2.27215 0
M  V30 10684 C 998.202 -0.538235 1.51525 0
M  V30 10685 O 999.392 -0.350027 1.70647 0
M  V30 10686 C 996.524 -0.574428 3.36025 0
M  V30 10687 H 997.717 1.13655 2.77529 0
M  V30 10688 H 995.27 0.626878 1.43178 0
M  V30 10689 H 996.005 -1.43191 2.90976 0
M  V30 10690 H 995.79 0.0262265 3.92091 0
M  V30 10691 H 997.28 -0.9533 4.06573 0
M  V30 10692 N 997.718 -1.45297 0.610449 0
M  V30 10693 C 998.648 -2.33311 -0.0939698 0
M  V30 10694 C 999.629 -1.46999 -0.85588 0
M  V30 10695 O 1000.81 -1.75764 -0.825865 0
M  V30 10696 C 997.944 -3.29751 -1.09003 0
M  V30 10697 C 996.898 -4.2572 -0.441146 0
M  V30 10698 C 996.224 -5.11873 -1.54566 0
M  V30 10699 C 997.524 -5.1837 0.639489 0
M  V30 10700 H 999.218 -2.92459 0.640941 0
M  V30 10701 H 996.764 -1.40631 0.309675 0
M  V30 10702 H 998.717 -3.90195 -1.59141 0
M  V30 10703 H 997.441 -2.68768 -1.85557 0
M  V30 10704 H 996.1 -3.66579 0.0393908 0
M  V30 10705 H 995.748 -4.47256 -2.30155 0
M  V30 10706 H 995.448 -5.76886 -1.11698 0
M  V30 10707 H 996.972 -5.75185 -2.04925 0
M  V30 10708 H 998.386 -5.7287 0.22207 0
M  V30 10709 H 996.783 -5.91876 0.990089 0
M  V30 10710 H 997.853 -4.60627 1.51495 0
M  V30 10711 N 999.196 -0.349774 -1.5367 0
M  V30 10712 C 1000.13 0.496338 -2.28164 0
M  V30 10713 C 1001.11 1.09737 -1.29968 0
M  V30 10714 O 1002.29 1.11759 -1.58819 0
M  V30 10715 C 999.422 1.64428 -3.0591 0
M  V30 10716 C 998.376 1.17127 -4.11661 0
M  V30 10717 C 997.702 2.40822 -4.77398 0
M  V30 10718 C 999.002 0.267293 -5.21616 0
M  V30 10719 H 1000.7 -0.125117 -2.99138 0
M  V30 10720 H 998.242 -0.0616152 -1.43868 0
M  V30 10721 H 1000.19 2.2427 -3.56765 0
M  V30 10722 H 998.919 2.29272 -2.32598 0
M  V30 10723 H 997.578 0.595634 -3.61729 0
M  V30 10724 H 997.226 3.04088 -4.00674 0
M  V30 10725 H 996.926 2.09852 -5.48849 0
M  V30 10726 H 998.45 3.01378 -5.3104 0
M  V30 10727 H 999.864 0.772734 -5.68068 0
M  V30 10728 H 998.261 0.0491991 -6.0008 0
M  V30 10729 H 999.331 -0.694892 -4.79895 0
M  V30 10730 N 1000.67 1.57404 -0.0785433 0
M  V30 10731 C 1001.92 1.93361 0.58786 0
M  V30 10732 C 1002.24 0.959856 1.6974 0
M  V30 10733 O 1001.51 0.0091173 1.95898 0
M  V30 10734 H 1000.09 0.713825 0.220141 0
M  V30 10735 H 1002.75 1.94411 -0.137986 0
M  V30 10736 H 1001.85 2.95346 1.00881 0
M  V30 10737 N 1002.15 -0.195058 1.56388 0
M  V30 10738 C 1003.06 -1.26219 1.97752 0
M  V30 10739 C 1004.08 -1.49801 0.885192 0
M  V30 10740 O 1005.25 -1.62415 1.19094 0
M  V30 10741 C 1002.32 -2.5865 2.3087 0
M  V30 10742 C 1001.38 -2.4314 3.5381 0
M  V30 10743 C 1000.61 -3.69255 3.85339 0
M  V30 10744 O 1000.84 -4.73425 3.18159 0
M  V30 10745 O 999.77 -3.64782 4.78767 0
M  V30 10746 H 1003.6 -0.941161 2.88749 0
M  V30 10747 H 1001.18 -0.40006 1.43944 0
M  V30 10748 H 1003.06 -3.36814 2.53247 0
M  V30 10749 H 1001.74 -2.9038 1.43042 0
M  V30 10750 H 1000.64 -1.63086 3.3668 0
M  V30 10751 H 1001.98 -2.16341 4.42105 0
M  V30 10752 N 1003.63 -1.50653 -0.462772 0
M  V30 10753 C 1004.56 -1.73056 -1.5676 0
M  V30 10754 C 1005.54 -0.579699 -1.59917 0
M  V30 10755 O 1006.73 -0.819729 -1.76051 0
M  V30 10756 C 1003.86 -1.83234 -2.9503 0
M  V30 10757 C 1002.81 -2.98488 -3.06739 0
M  V30 10758 C 1002.14 -2.93818 -4.46738 0
M  V30 10759 C 1003.44 -4.38869 -2.83181 0
M  V30 10760 H 1005.13 -2.65562 -1.38265 0
M  V30 10761 H 1002.68 -1.27792 -0.663722 0
M  V30 10762 H 1004.63 -1.97491 -3.72257 0
M  V30 10763 H 1003.35 -0.873558 -3.14701 0
M  V30 10764 H 1002.01 -2.83895 -2.31946 0
M  V30 10765 H 1001.66 -1.95769 -4.63339 0
M  V30 10766 H 1001.36 -3.71197 -4.55507 0
M  V30 10767 H 1002.88 -3.10135 -5.25974 0
M  V30 10768 H 1004.3 -4.53945 -3.50153 0
M  V30 10769 H 1002.69 -5.17762 -3.03386 0
M  V30 10770 H 1003.76 -4.50663 -1.78972 0
M  V30 10771 N 1005.11 0.71652 -1.4037 0
M  V30 10772 C 1006.33 1.51069 -1.42102 0
M  V30 10773 C 1006.76 1.88087 -0.0222387 0
M  V30 10774 O 1006.12 1.53204 0.969448 0
M  V30 10775 C 1006.16 2.76307 -2.31704 0
M  V30 10776 O 1005.27 3.72975 -1.75964 0
M  V30 10777 H 1004.61 0.455502 -0.483129 0
M  V30 10778 H 1007.14 0.882514 -1.84588 0
M  V30 10779 H 1007.15 3.24846 -2.46859 0
M  V30 10780 H 1005.82 2.48698 -3.3335 0
M  V30 10781 H 1004.4 3.31818 -1.70151 0
M  V30 10782 N 1006.59 1.25851 0.948643 0
M  V30 10783 C 1007.53 1.06759 2.04625 0
M  V30 10784 C 1008.5 -0.0251144 1.66081 0
M  V30 10785 O 1009.69 0.133221 1.90334 0
M  V30 10786 C 1006.83 0.698724 3.37952 0
M  V30 10787 C 1005.94 1.8669 3.89578 0
M  V30 10788 C 1005.08 1.44184 5.11258 0
M  V30 10789 C 1004.12 2.57878 5.55126 0
M  V30 10790 N 1003.25 2.16106 6.68014 0
M  V30 10791 H 1008.09 2.00691 2.20289 0
M  V30 10792 H 1005.63 0.999327 1.07944 0
M  V30 10793 H 1007.59 0.465788 4.14592 0
M  V30 10794 H 1006.22 -0.203618 3.22157 0
M  V30 10795 H 1005.27 2.21298 3.09405 0
M  V30 10796 H 1006.58 2.72051 4.18079 0
M  V30 10797 H 1005.74 1.16891 5.95333 0
M  V30 10798 H 1004.47 0.559035 4.84485 0
M  V30 10799 H 1003.48 2.85909 4.69612 0
M  V30 10800 H 1004.7 3.46747 5.83904 0
M  V30 10801 H 1002.65 1.3025 6.42939 0
M  V30 10802 H 1002.57 2.95012 6.96063 0
M  V30 10803 H 1003.84 1.92005 7.55483 0
M  V30 10804 N 1008.06 -1.15214 1.07534 0
M  V30 10805 C 1009.31 -1.86319 0.800814 0
M  V30 10806 C 1009.64 -1.82221 -0.671494 0
M  V30 10807 O 1008.92 -1.24664 -1.49295 0
M  V30 10808 C 1009.2 -3.35347 1.31203 0
M  V30 10809 C 1009.05 -3.48067 2.84902 0
M  V30 10810 C 1010.37 -4.3016 0.930064 0
M  V30 10811 H 1007.49 -0.676523 0.292379 0
M  V30 10812 H 1010.13 -1.35349 1.33344 0
M  V30 10813 H 1008.28 -3.78886 0.858949 0
M  V30 10814 H 1009.96 -3.13379 3.38514 0
M  V30 10815 H 1008.2 -2.89566 3.23008 0
M  V30 10816 H 1008.87 -4.52782 3.15741 0
M  V30 10817 H 1011.35 -3.94591 1.3205 0
M  V30 10818 H 1010.22 -5.32914 1.31507 0
M  V30 10819 H 1010.48 -4.41796 -0.163824 0
M  V30 10820 N 1009.54 -0.859717 -1.32086 0
M  V30 10821 C 1010.45 -0.31108 -2.32528 0
M  V30 10822 C 1011.47 0.573714 -1.6427 0
M  V30 10823 O 1012.64 0.472878 -1.9577 0
M  V30 10824 C 1009.71 0.487256 -3.43259 0
M  V30 10825 C 1008.77 -0.424279 -4.27198 0
M  V30 10826 C 1008 0.336051 -5.32641 0
M  V30 10827 O 1008.23 1.56541 -5.48499 0
M  V30 10828 O 1007.16 -0.300777 -6.01148 0
M  V30 10829 H 1010.99 -1.14336 -2.81355 0
M  V30 10830 H 1008.57 -0.622794 -1.358 0
M  V30 10831 H 1010.45 0.940203 -4.10777 0
M  V30 10832 H 1009.13 1.29626 -2.96612 0
M  V30 10833 H 1008.04 -0.925509 -3.62471 0
M  V30 10834 H 1009.37 -1.1986 -4.77383 0
M  V30 10835 N 1011.02 1.44971 -0.618145 0
M  V30 10836 C 1012.27 2.0176 -0.11725 0
M  V30 10837 C 1012.59 1.48773 1.26062 0
M  V30 10838 O 1011.86 0.686152 1.83491 0
M  V30 10839 H 1010.44 0.745909 -0.0403545 0
M  V30 10840 H 1013.1 1.77638 -0.801923 0
M  V30 10841 H 1012.2 3.1201 -0.0750477 0
M  V30 10842 N 1012.5 0.357919 1.53482 0
M  V30 10843 C 1013.75 -0.234163 2.01142 0
M  V30 10844 C 1014.07 -1.49399 1.2454 0
M  V30 10845 O 1013.33 -1.92981 0.325111 0
M  V30 10846 C 1013.63 -0.579617 3.52669 0
M  V30 10847 C 1013.29 0.584988 4.47089 0
M  V30 10848 C 1011.96 0.904558 4.72622 0
M  V30 10849 C 1014.31 1.3656 5.02992 0
M  V30 10850 C 1011.64 2.00685 5.5131 0
M  V30 10851 C 1013.99 2.45824 5.82884 0
M  V30 10852 C 1012.65 2.78325 6.06706 0
M  V30 10853 H 1011.92 -0.0856863 0.736029 0
M  V30 10854 H 1014.57 0.488801 1.85157 0
M  V30 10855 H 1012.87 -1.38349 3.66561 0
M  V30 10856 H 1014.57 -1.04985 3.87013 0
M  V30 10857 H 1011.16 0.32587 4.27359 0
M  V30 10858 H 1015.34 1.13196 4.83219 0
M  V30 10859 H 1010.6 2.26272 5.67988 0
M  V30 10860 H 1014.77 3.06732 6.25211 0
M  V30 10861 H 1012.4 3.63862 6.67464 0
M  V30 10862 N 1013.98 -1.5736 0.0868897 0
M  V30 10863 C 1015.22 -1.94341 -0.579598 0
M  V30 10864 C 1015.56 -0.968238 -1.68341 0
M  V30 10865 O 1014.83 8.29649e-05 -1.945 0
M  V30 10866 C 1015.11 -3.41497 -1.14245 0
M  V30 10867 C 1014.97 -4.49778 -0.044255 0
M  V30 10868 C 1016.29 -3.89788 -2.04336 0
M  V30 10869 H 1013.4 -0.70668 -0.20922 0
M  V30 10870 H 1016.05 -1.89359 0.15593 0
M  V30 10871 H 1014.2 -3.45873 -1.76929 0
M  V30 10872 H 1015.87 -4.57517 0.58959 0
M  V30 10873 H 1014.11 -4.293 0.623207 0
M  V30 10874 H 1014.78 -5.4992 -0.478749 0
M  V30 10875 H 1017.26 -3.87513 -1.51569 0
M  V30 10876 H 1016.13 -4.93335 -2.40648 0
M  V30 10877 H 1016.4 -3.28603 -2.95757 0
M  V30 10878 N 1015.45 0.186762 -1.56489 0
M  V30 10879 C 1016.68 0.925916 -1.85584 0
M  V30 10880 C 1017.1 1.75708 -0.671446 0
M  V30 10881 O 1016.46 1.7728 0.379687 0
M  V30 10882 C 1016.51 1.79107 -3.12975 0
M  V30 10883 O 1015.61 2.89088 -2.94112 0
M  V30 10884 H 1014.96 0.260275 -0.610863 0
M  V30 10885 H 1017.49 0.189561 -2.0372 0
M  V30 10886 H 1017.5 2.19408 -3.43983 0
M  V30 10887 H 1016.17 1.18044 -3.98796 0
M  V30 10888 H 1014.75 2.52482 -2.74422 0
M  V30 10889 N 1016.93 1.50896 0.454776 0
M  V30 10890 C 1018.18 1.61936 1.20248 0
M  V30 10891 C 1018.49 0.332983 1.92745 0
M  V30 10892 O 1019.7 0.322512 2.69578 0
M  V30 10893 C 1018.16 2.85916 2.18587 0
M  V30 10894 C 1017.76 4.21492 1.51818 0
M  V30 10895 C 1019.51 3.06307 2.93898 0
M  V30 10896 C 1017.42 5.3664 2.48539 0
M  V30 10897 H 1016.35 0.603098 0.452536 0
M  V30 10898 H 1019 1.77345 0.471257 0
M  V30 10899 H 1017.38 2.64101 2.95071 0
M  V30 10900 H 1018.55 4.53623 0.810123 0
M  V30 10901 H 1016.87 4.06837 0.887265 0
M  V30 10902 H 1019.46 3.89507 3.66317 0
M  V30 10903 H 1019.81 2.18683 3.54236 0
M  V30 10904 H 1020.34 3.2838 2.24525 0
M  V30 10905 H 1017.08 6.26469 1.92916 0
M  V30 10906 H 1016.6 5.08907 3.17449 0
M  V30 10907 H 1018.28 5.67881 3.10033 0
M  V30 10908 N 1018.41 -0.709066 1.40748 0
M  V30 10909 C 1019.32 -1.85314 1.43861 0
M  V30 10910 C 1020.34 -1.70832 0.330539 0
M  V30 10911 O 1021.51 -1.92983 0.576152 0
M  V30 10912 C 1018.58 -3.21174 1.30568 0
M  V30 10913 C 1017.64 -3.47863 2.51574 0
M  V30 10914 C 1016.87 -4.77241 2.38906 0
M  V30 10915 O 1017.09 -5.52791 1.40636 0
M  V30 10916 O 1016.03 -5.04413 3.28407 0
M  V30 10917 H 1019.85 -1.85644 2.40354 0
M  V30 10918 H 1017.44 -0.860352 1.2214 0
M  V30 10919 H 1019.32 -4.02313 1.25388 0
M  V30 10920 H 1018 -3.21557 0.371841 0
M  V30 10921 H 1016.9 -2.66708 2.62331 0
M  V30 10922 H 1018.24 -3.52283 3.43741 0
M  V30 10923 N 1019.89 -1.26353 -0.941956 0
M  V30 10924 C 1021.14 -1.1163 -1.68473 0
M  V30 10925 C 1021.46 0.34108 -1.91994 0
M  V30 10926 O 1020.73 1.24065 -1.51607 0
M  V30 10927 H 1019.31 -0.410113 -0.624353 0
M  V30 10928 H 1021.97 -1.58669 -1.13182 0
M  V30 10929 H 1021.07 -1.63445 -2.6588 0
M  V30 10930 N 1021.37 1.14642 -1.08144 0
M  V30 10931 C 1022.33 2.17834 -0.712799 0
M  V30 10932 C 1023.33 1.58828 0.251041 0
M  V30 10933 O 1024.52 1.74173 0.0309381 0
M  V30 10934 C 1021.65 3.4086 -0.0519477 0
M  V30 10935 H 1022.85 2.51961 -1.62653 0
M  V30 10936 H 1020.4 1.29243 -0.878971 0
M  V30 10937 H 1021.13 3.12311 0.873636 0
M  V30 10938 H 1020.92 3.84952 -0.745286 0
M  V30 10939 H 1022.41 4.17163 0.191031 0
M  V30 10940 N 1022.85 0.866709 1.31628 0
M  V30 10941 C 1024.09 0.476731 1.97117 0
M  V30 10942 C 1024.42 -0.967813 1.68366 0
M  V30 10943 O 1023.7 -1.68101 0.978377 0
M  V30 10944 C 1023.98 0.730561 3.52611 0
M  V30 10945 C 1023.84 2.2244 3.90948 0
M  V30 10946 C 1025.15 0.19488 4.39668 0
M  V30 10947 H 1022.27 0.174682 0.715999 0
M  V30 10948 H 1024.92 1.08735 1.5581 0
M  V30 10949 H 1023.07 0.210834 3.87927 0
M  V30 10950 H 1024.74 2.81113 3.6575 0
M  V30 10951 H 1022.98 2.69824 3.39673 0
M  V30 10952 H 1023.65 2.35266 4.99353 0
M  V30 10953 H 1026.13 0.639478 4.11157 0
M  V30 10954 H 1025 0.401958 5.47426 0
M  V30 10955 H 1025.26 -0.90302 4.32779 0
M  V30 10956 N 1024.32 -1.44642 0.625825 0
M  V30 10957 C 1025.29 -2.29085 -0.072526 0
M  V30 10958 C 1026.29 -1.40755 -0.777467 0
M  V30 10959 O 1027.48 -1.62684 -0.622861 0
M  V30 10960 C 1024.61 -3.22212 -1.1132 0
M  V30 10961 H 1025.8 -2.92317 0.670124 0
M  V30 10962 H 1023.35 -1.51466 0.38571 0
M  V30 10963 H 1024.09 -2.63819 -1.88601 0
M  V30 10964 H 1023.87 -3.87299 -0.611709 0
M  V30 10965 H 1025.36 -3.8566 -1.60175 0
M  V30 10966 N 1025.8 -0.366053 -1.5329 0
M  V30 10967 C 1027.03 0.22391 -2.05383 0
M  V30 10968 C 1027.44 1.42962 -1.23929 0
M  V30 10969 O 1026.78 1.81659 -0.273072 0
M  V30 10970 C 1026.84 0.681038 -3.5299 0
M  V30 10971 C 1026.51 -0.40805 -4.55175 0
M  V30 10972 C 1027.51 -1.25806 -5.04449 0
M  V30 10973 C 1025.19 -0.568428 -4.99073 0
M  V30 10974 C 1027.18 -2.25379 -5.96224 0
M  V30 10975 C 1024.87 -1.56752 -5.90654 0
M  V30 10976 C 1025.87 -2.40864 -6.39119 0
M  V30 10977 O 1025.56 -3.39069 -7.28895 0
M  V30 10978 H 1025.29 0.0429593 -0.674634 0
M  V30 10979 H 1027.84 -0.522897 -1.98633 0
M  V30 10980 H 1026.07 1.47945 -3.5728 0
M  V30 10981 H 1027.76 1.19406 -3.8794 0
M  V30 10982 H 1028.53 -1.14536 -4.71282 0
M  V30 10983 H 1024.41 0.0764858 -4.60937 0
M  V30 10984 H 1027.95 -2.91068 -6.33976 0
M  V30 10985 H 1023.85 -1.6807 -6.23236 0
M  V30 10986 H 1024.62 -3.34804 -7.46893 0
M  V30 10987 N 1027.28 1.57312 -0.0952337 0
M  V30 10988 C 1028.53 1.94646 0.569284 0
M  V30 10989 C 1028.86 0.977152 1.67825 0
M  V30 10990 O 1028.13 0.0102318 1.94497 0
M  V30 10991 C 1028.42 3.42098 1.12433 0
M  V30 10992 C 1028.27 4.49795 0.0204016 0
M  V30 10993 C 1029.59 3.90866 2.02266 0
M  V30 10994 H 1026.71 0.707779 0.205469 0
M  V30 10995 H 1029.35 1.89274 -0.16597 0
M  V30 10996 H 1027.5 3.46807 1.75092 0
M  V30 10997 H 1029.17 4.57198 -0.613845 0
M  V30 10998 H 1027.41 4.28964 -0.645965 0
M  V30 10999 H 1028.09 5.50166 0.449579 0
M  V30 11000 H 1030.56 3.88311 1.49512 0
M  V30 11001 H 1029.44 4.94604 2.38029 0
M  V30 11002 H 1029.7 3.30167 2.9401 0
M  V30 11003 N 1028.76 -0.17846 1.56586 0
M  V30 11004 C 1030.17 -0.741599 1.71339 0
M  V30 11005 C 1030.52 -1.83112 0.704579 0
M  V30 11006 O 1029.64 -2.15975 -0.135557 0
M  V30 11007 C 1030.24 -1.35198 3.10656 0
M  V30 11008 C 1028.8 -1.86202 3.27118 0
M  V30 11009 C 1027.95 -0.738255 2.67292 0
M  V30 11010 H 1030.9 0.0468424 1.58631 0
M  V30 11011 H 1030.92 -2.2216 3.0891 0
M  V30 11012 H 1030.43 -0.558776 3.84056 0
M  V30 11013 H 1028.53 -2.68188 2.58661 0
M  V30 11014 H 1028.64 -2.01237 4.34788 0
M  V30 11015 H 1027.01 -1.15686 2.26912 0
M  V30 11016 H 1027.79 0.0429821 3.43273 0
M  V30 11017 N 1030.24 -1.51135 -0.446768 0
M  V30 11018 C 1031.17 -1.67949 -1.55967 0
M  V30 11019 C 1032.18 -0.560337 -1.52853 0
M  V30 11020 O 1033.37 -0.83435 -1.578 0
M  V30 11021 C 1030.47 -1.6703 -2.9488 0
M  V30 11022 C 1029.64 -2.95377 -3.22601 0
M  V30 11023 C 1028.7 -2.86772 -4.4119 0
M  V30 11024 O 1027.73 -3.60722 -4.40304 0
M  V30 11025 N 1028.93 -2.01979 -5.44228 0
M  V30 11026 H 1031.69 -2.63951 -1.41951 0
M  V30 11027 H 1029.26 -1.48903 -0.635569 0
M  V30 11028 H 1031.25 -1.58854 -3.7222 0
M  V30 11029 H 1029.82 -0.786623 -3.02541 0
M  V30 11030 H 1029.04 -3.17494 -2.33647 0
M  V30 11031 H 1030.33 -3.80356 -3.37945 0
M  V30 11032 H 1029.72 -1.41257 -5.4778 0
M  V30 11033 H 1028.28 -1.99689 -6.20457 0
M  V30 11034 N 1031.71 0.701592 -1.41122 0
M  V30 11035 C 1032.62 1.84548 -1.44841 0
M  V30 11036 C 1033.64 1.70654 -0.339594 0
M  V30 11037 O 1034.82 1.92675 -0.586378 0
M  V30 11038 C 1031.88 3.20477 -1.3227 0
M  V30 11039 C 1030.94 3.46524 -2.53415 0
M  V30 11040 C 1030.17 4.75968 -2.41434 0
M  V30 11041 O 1030.4 5.52037 -1.43566 0
M  V30 11042 O 1029.33 5.02664 -3.31078 0
M  V30 11043 H 1033.16 1.84367 -2.41335 0
M  V30 11044 H 1030.74 0.853863 -1.22595 0
M  V30 11045 H 1032.62 4.01642 -1.2752 0
M  V30 11046 H 1031.3 3.21355 -0.388889 0
M  V30 11047 H 1030.21 2.65313 -2.63742 0
M  V30 11048 H 1031.54 3.50455 -3.45604 0
M  V30 11049 N 1033.19 1.2685 0.935242 0
M  V30 11050 C 1034.15 1.08975 2.01636 0
M  V30 11051 C 1035.15 0.0361543 1.60759 0
M  V30 11052 O 1036.34 0.280087 1.71934 0
M  V30 11053 C 1033.48 0.658831 3.34473 0
M  V30 11054 H 1034.67 2.04968 2.18925 0
M  V30 11055 H 1032.22 1.09531 1.11501 0
M  V30 11056 H 1032.96 -0.302824 3.22883 0
M  V30 11057 H 1032.74 1.41967 3.65497 0
M  V30 11058 H 1034.23 0.555783 4.13885 0
M  V30 11059 N 1034.67 -1.14067 1.0875 0
M  V30 11060 C 1035.92 -1.85677 0.830392 0
M  V30 11061 C 1036.27 -1.81549 -0.637016 0
M  V30 11062 O 1035.56 -1.23774 -1.46255 0
M  V30 11063 C 1035.76 -3.33273 1.29089 0
M  V30 11064 C 1035.59 -3.51774 2.80153 0
M  V30 11065 C 1034.36 -3.66419 3.47944 0
M  V30 11066 C 1036.56 -3.48399 3.78316 0
M  V30 11067 N 1034.54 -3.73112 4.87504 0
M  V30 11068 C 1035.91 -3.61378 5.03791 0
M  V30 11069 C 1037.96 -3.31758 3.7127 0
M  V30 11070 C 1036.67 -3.59435 6.23056 0
M  V30 11071 C 1038.69 -3.31119 4.90014 0
M  V30 11072 C 1038.05 -3.44643 6.1433 0
M  V30 11073 H 1034.15 -0.695948 0.356625 0
M  V30 11074 H 1036.74 -1.36687 1.38654 0
M  V30 11075 H 1034.91 -3.80846 0.762274 0
M  V30 11076 H 1036.64 -3.92659 0.979828 0
M  V30 11077 H 1033.4 -3.67799 2.98364 0
M  V30 11078 H 1033.82 -3.80167 5.6018 0
M  V30 11079 H 1038.46 -3.2021 2.76089 0
M  V30 11080 H 1036.18 -3.69758 7.18544 0
M  V30 11081 H 1039.77 -3.1945 4.86254 0
M  V30 11082 H 1038.65 -3.44101 7.04673 0
M  V30 11083 N 1036.15 -0.873678 -1.31166 0
M  V30 11084 C 1037.39 -0.487178 -1.96861 0
M  V30 11085 C 1037.73 0.95887 -1.68877 0
M  V30 11086 O 1037 1.6758 -0.987279 0
M  V30 11087 C 1037.29 -0.74925 -3.52219 0
M  V30 11088 C 1037.14 -2.2451 -3.89763 0
M  V30 11089 C 1038.46 -0.218194 -4.39559 0
M  V30 11090 H 1035.58 -0.178477 -0.715063 0
M  V30 11091 H 1038.22 -1.0956 -1.55231 0
M  V30 11092 H 1036.37 -0.231403 -3.8781 0
M  V30 11093 H 1038.04 -2.83049 -3.64254 0
M  V30 11094 H 1036.28 -2.71621 -3.38237 0
M  V30 11095 H 1036.95 -2.37911 -4.98099 0
M  V30 11096 H 1039.43 -0.661274 -4.10812 0
M  V30 11097 H 1038.31 -0.430983 -5.47205 0
M  V30 11098 H 1038.57 0.880056 -4.33252 0
M  V30 11099 N 1037.63 1.44308 -0.633487 0
M  V30 11100 C 1038.56 2.28943 0.108474 0
M  V30 11101 C 1039.57 1.41415 0.806582 0
M  V30 11102 O 1040.76 1.65544 0.667634 0
M  V30 11103 C 1037.86 3.17845 1.1759 0
M  V30 11104 C 1037.03 4.33802 0.559842 0
M  V30 11105 C 1036.09 5.03722 1.52154 0
M  V30 11106 O 1035.12 5.5966 1.03776 0
M  V30 11107 N 1036.32 5.05392 2.85586 0
M  V30 11108 H 1039.09 2.93262 -0.617879 0
M  V30 11109 H 1036.65 1.54781 -0.474819 0
M  V30 11110 H 1038.64 3.61485 1.81963 0
M  V30 11111 H 1037.21 2.55261 1.80445 0
M  V30 11112 H 1036.43 3.93325 -0.262559 0
M  V30 11113 H 1037.72 5.08637 0.128942 0
M  V30 11114 H 1037.11 4.61282 3.27468 0
M  V30 11115 H 1035.67 5.52813 3.45313 0
M  V30 11116 N 1039.1 0.374177 1.53094 0
M  V30 11117 C 1040.05 -0.48326 2.27524 0
M  V30 11118 C 1041.05 -1.07606 1.30833 0
M  V30 11119 O 1042.25 -1.01827 1.48429 0
M  V30 11120 H 1038.63 -0.174578 0.731455 0
M  V30 11121 H 1040.6 0.166156 2.97937 0
M  V30 11122 C 1039.35 -1.6065 3.08362 0
M  V30 11123 H 1038.67 -1.15966 3.82612 0
M  V30 11124 H 1040.11 -2.18099 3.63606 0
M  V30 11125 C 1038.57 -2.55381 2.19732 0
M  V30 11126 O 1039.1 -3.58414 1.8139 0
M  V30 11127 N 1037.31 -2.24769 1.84194 0
M  V30 11128 H 1036.85 -1.41018 2.15573 0
M  V30 11129 H 1036.81 -2.88404 1.25181 0
M  V30 11130 N 1040.58 -1.57259 0.103575 0
M  V30 11131 C 1041.81 -1.99 -0.566275 0
M  V30 11132 C 1042.23 -0.982909 -1.61197 0
M  V30 11133 O 1041.58 0.026345 -1.82481 0
M  V30 11134 C 1041.63 -3.40778 -1.20635 0
M  V30 11135 O 1041.35 -4.37632 -0.202472 0
M  V30 11136 C 1042.86 -3.97567 -1.961 0
M  V30 11137 H 1040.08 -0.653751 -0.151164 0
M  V30 11138 H 1042.62 -2.03658 0.185365 0
M  V30 11139 H 1040.77 -3.37107 -1.90886 0
M  V30 11140 H 1041.19 -5.2026 -0.665535 0
M  V30 11141 H 1042.66 -4.98897 -2.36233 0
M  V30 11142 H 1043.14 -3.35853 -2.83018 0
M  V30 11143 H 1043.75 -4.04737 -1.30645 0
M  V30 11144 N 1042.06 0.170153 -1.56679 0
M  V30 11145 C 1043.29 0.90618 -1.86556 0
M  V30 11146 C 1043.71 1.74986 -0.690044 0
M  V30 11147 O 1043.07 1.77672 0.360862 0
M  V30 11148 C 1043.12 1.75777 -3.14857 0
M  V30 11149 O 1042.22 2.85952 -2.97162 0
M  V30 11150 H 1041.56 0.253781 -0.613589 0
M  V30 11151 H 1044.09 0.167943 -2.0391 0
M  V30 11152 H 1044.1 2.15747 -3.46291 0
M  V30 11153 H 1042.78 1.13807 -4.00026 0
M  V30 11154 H 1041.35 2.49557 -2.77084 0
M  V30 11155 N 1043.54 1.5137 0.438746 0
M  V30 11156 C 1044.78 1.64211 1.19006 0
M  V30 11157 C 1045.12 0.356607 1.90898 0
M  V30 11158 O 1044.39 -0.643722 1.83539 0
M  V30 11159 C 1044.68 2.8445 2.20817 0
M  V30 11160 C 1044.53 4.22972 1.53018 0
M  V30 11161 C 1045.85 3.00207 3.21813 0
M  V30 11162 H 1042.97 0.597628 0.431288 0
M  V30 11163 H 1045.61 1.8385 0.479487 0
M  V30 11164 H 1043.76 2.67836 2.81418 0
M  V30 11165 H 1045.43 4.5125 0.957654 0
M  V30 11166 H 1043.67 4.25736 0.832556 0
M  V30 11167 H 1044.34 5.03094 2.27158 0
M  V30 11168 H 1046.82 3.15522 2.71266 0
M  V30 11169 H 1045.7 3.85904 3.90345 0
M  V30 11170 H 1045.96 2.12216 3.87836 0
M  V30 11171 N 1045.02 -0.694098 1.41492 0
M  V30 11172 C 1046.26 -1.4563 1.41137 0
M  V30 11173 C 1046.6 -1.94189 0.0208428 0
M  V30 11174 O 1045.87 -1.69628 -0.951655 0
M  V30 11175 C 1046.15 -2.66714 2.41941 0
M  V30 11176 C 1046.01 -2.23912 3.90107 0
M  V30 11177 C 1047.33 -3.68913 2.39981 0
M  V30 11178 H 1044.44 -0.52821 0.513968 0
M  V30 11179 H 1047.09 -0.790437 1.72778 0
M  V30 11180 H 1045.24 -3.23525 2.1509 0
M  V30 11181 H 1046.91 -1.72417 4.27867 0
M  V30 11182 H 1045.15 -1.5568 4.04903 0
M  V30 11183 H 1045.82 -3.108 4.56188 0
M  V30 11184 H 1048.3 -3.21779 2.63813 0
M  V30 11185 H 1047.17 -4.51242 3.12524 0
M  V30 11186 H 1047.44 -4.18711 1.41892 0
M  V30 11187 N 1046.49 -1.27344 -0.928501 0
M  V30 11188 C 1047.4 -1.11812 -2.06241 0
M  V30 11189 C 1048.42 -0.048347 -1.73933 0
M  V30 11190 O 1049.6 -0.25467 -1.99783 0
M  V30 11191 C 1046.66 -0.766036 -3.38131 0
M  V30 11192 C 1045.72 -1.91659 -3.84142 0
M  V30 11193 C 1044.96 -1.58121 -5.09738 0
M  V30 11194 O 1045.18 -0.488742 -5.68302 0
M  V30 11195 O 1044.11 -2.42013 -5.51102 0
M  V30 11196 H 1047.94 -2.06967 -2.22258 0
M  V30 11197 H 1045.52 -1.06524 -1.04752 0
M  V30 11198 H 1047.41 -0.582982 -4.17348 0
M  V30 11199 H 1046.08 0.155998 -3.23324 0
M  V30 11200 H 1044.99 -2.1547 -3.05816 0
M  V30 11201 H 1046.32 -2.8188 -4.0349 0
M  V30 11202 N 1047.97 1.13488 -1.09353 0
M  V30 11203 C 1048.92 2.20949 -0.726923 0
M  V30 11204 C 1049.91 1.67205 0.271816 0
M  V30 11205 O 1051.12 1.79505 0.133356 0
M  V30 11206 H 1047.5 0.719985 -0.217086 0
M  V30 11207 H 1049.47 2.49134 -1.6424 0
M  V30 11208 C 1048.22 3.47319 -0.162822 0
M  V30 11209 H 1047.54 3.89011 -0.922527 0
M  V30 11210 H 1048.98 4.23963 0.0557734 0
M  V30 11211 C 1047.44 3.18376 1.10175 0
M  V30 11212 O 1047.97 3.3707 2.18511 0
M  V30 11213 N 1046.17 2.72262 1.01597 0
M  V30 11214 H 1045.72 2.5725 0.134289 0
M  V30 11215 H 1045.68 2.53272 1.86281 0
M  V30 11216 N 1049.45 0.880621 1.30701 0
M  V30 11217 C 1050.7 0.497611 1.966 0
M  V30 11218 C 1051.03 -0.949901 1.69383 0
M  V30 11219 O 1050.31 -1.67054 0.996152 0
M  V30 11220 C 1050.59 0.767919 3.51817 0
M  V30 11221 C 1050.44 2.26574 3.88567 0
M  V30 11222 C 1051.76 0.241502 4.39437 0
M  V30 11223 H 1048.88 0.182267 0.714106 0
M  V30 11224 H 1051.52 1.10382 1.54648 0
M  V30 11225 H 1049.67 0.251967 3.87682 0
M  V30 11226 H 1051.34 2.84977 3.62748 0
M  V30 11227 H 1049.59 2.73411 3.36792 0
M  V30 11228 H 1050.26 2.40549 4.9683 0
M  V30 11229 H 1052.73 0.683051 4.10455 0
M  V30 11230 H 1051.61 0.459997 5.46969 0
M  V30 11231 H 1051.87 -0.857068 4.33713 0
M  V30 11232 N 1050.93 -1.4397 0.641131 0
M  V30 11233 C 1052.17 -2.03826 0.153071 0
M  V30 11234 C 1052.53 -1.4941 -1.20585 0
M  V30 11235 O 1053.73 -2.00832 -1.78661 0
M  V30 11236 C 1052.01 -3.57085 0.149914 0
M  V30 11237 S 1053.56 -4.37956 -0.272065 0
M  V30 11238 H 1050.38 -0.70793 0.0659981 0
M  V30 11239 H 1052.98 -1.76211 0.846761 0
M  V30 11240 H 1051.69 -3.94194 1.14188 0
M  V30 11241 H 1051.22 -3.89326 -0.564703 0
M  V30 11242 H 1053.23 -4.72542 -1.5139 0
M  V30 11243 N 1052.41 -0.382291 -1.52893 0
M  V30 11244 C 1053.65 0.202133 -2.01489 0
M  V30 11245 C 1053.98 1.47399 -1.26901 0
M  V30 11246 O 1053.24 1.92439 -0.355771 0
M  V30 11247 C 1053.54 0.523437 -3.53546 0
M  V30 11248 C 1053.2 -0.656042 -4.46102 0
M  V30 11249 C 1051.86 -0.979633 -4.71123 0
M  V30 11250 C 1054.22 -1.44545 -5.00756 0
M  V30 11251 C 1051.54 -2.0943 -5.48047 0
M  V30 11252 C 1053.9 -2.55066 -5.78899 0
M  V30 11253 C 1052.56 -2.87942 -6.02201 0
M  V30 11254 H 1051.83 0.0739659 -0.737299 0
M  V30 11255 H 1054.48 -0.518196 -1.84356 0
M  V30 11256 H 1052.78 1.325 -3.68715 0
M  V30 11257 H 1054.48 0.988148 -3.88634 0
M  V30 11258 H 1051.07 -0.393818 -4.26787 0
M  V30 11259 H 1055.25 -1.20869 -4.81357 0
M  V30 11260 H 1050.51 -2.3528 -5.64317 0
M  V30 11261 H 1054.68 -3.1664 -6.20252 0
M  V30 11262 H 1052.31 -3.74435 -6.61591 0
M  V30 11263 N 1053.89 1.57202 -0.111913 0
M  V30 11264 C 1055.13 1.94565 0.546713 0
M  V30 11265 C 1055.45 0.995644 1.67666 0
M  V30 11266 O 1054.72 0.0506681 1.95834 0
M  V30 11267 H 1053.3 0.718334 0.204951 0
M  V30 11268 H 1055.97 1.94074 -0.179193 0
M  V30 11269 H 1055.06 2.9742 0.945931 0
M  V30 11270 N 1055.36 -0.161842 1.56767 0
M  V30 11271 C 1056.3 -1.22499 1.93718 0
M  V30 11272 C 1057.31 -1.39975 0.831314 0
M  V30 11273 O 1058.5 -1.3981 1.10975 0
M  V30 11274 C 1055.6 -2.59222 2.18306 0
M  V30 11275 C 1054.77 -2.6292 3.4956 0
M  V30 11276 C 1053.83 -3.81074 3.62863 0
M  V30 11277 O 1052.86 -3.66633 4.35395 0
M  V30 11278 N 1054.06 -4.97923 2.98418 0
M  V30 11279 H 1056.82 -0.911043 2.85517 0
M  V30 11280 H 1054.38 -0.351533 1.58038 0
M  V30 11281 H 1056.38 -3.36749 2.24461 0
M  V30 11282 H 1054.95 -2.82969 1.32844 0
M  V30 11283 H 1054.17 -1.71418 3.54978 0
M  V30 11284 H 1055.45 -2.62409 4.35911 0
M  V30 11285 H 1054.85 -5.12557 2.39378 0
M  V30 11286 H 1053.41 -5.73277 3.10155 0
M  V30 11287 N 1056.84 -1.516 -0.430713 0
M  V30 11288 C 1057.75 -1.76247 -1.54836 0
M  V30 11289 C 1058.77 -0.646985 -1.61524 0
M  V30 11290 O 1059.94 -0.929987 -1.78643 0
M  V30 11291 C 1057.01 -1.88833 -2.90763 0
M  V30 11292 C 1056.07 -3.12701 -2.94137 0
M  V30 11293 C 1055.3 -3.24676 -4.23581 0
M  V30 11294 O 1055.53 -2.42429 -5.16318 0
M  V30 11295 O 1054.46 -4.17697 -4.33374 0
M  V30 11296 H 1058.29 -2.71069 -1.3695 0
M  V30 11297 H 1055.87 -1.36182 -0.614396 0
M  V30 11298 H 1057.75 -1.99057 -3.71422 0
M  V30 11299 H 1056.43 -0.971987 -3.08762 0
M  V30 11300 H 1055.33 -3.0795 -2.1241 0
M  V30 11301 H 1056.67 -4.04045 -2.81084 0
M  V30 11302 N 1058.32 0.686584 -1.41858 0
M  V30 11303 C 1059.25 1.81264 -1.47193 0
M  V30 11304 C 1060.23 1.66875 -0.329657 0
M  V30 11305 O 1061.42 1.86473 -0.542347 0
M  V30 11306 C 1058.55 3.19472 -1.36216 0
M  V30 11307 C 1057.5 3.4858 -2.48347 0
M  V30 11308 C 1056.83 4.86239 -2.22432 0
M  V30 11309 C 1058.13 3.46653 -3.90678 0
M  V30 11310 H 1059.82 1.77057 -2.41436 0
M  V30 11311 H 1057.37 0.850415 -1.16206 0
M  V30 11312 H 1059.32 3.97969 -1.38558 0
M  V30 11313 H 1058.04 3.24327 -0.384611 0
M  V30 11314 H 1056.7 2.72437 -2.45303 0
M  V30 11315 H 1056.35 4.8773 -1.22999 0
M  V30 11316 H 1056.05 5.06677 -2.97577 0
M  V30 11317 H 1057.57 5.67034 -2.26505 0
M  V30 11318 H 1058.99 4.15139 -3.95389 0
M  V30 11319 H 1057.38 3.78625 -4.65578 0
M  V30 11320 H 1058.45 2.45451 -4.18189 0
M  V30 11321 N 1059.8 1.27835 0.921735 0
M  V30 11322 C 1061.07 1.05238 1.64877 0
M  V30 11323 C 1061.45 -0.410921 2.07062 0
M  V30 11324 O 1060.8 -1.39538 1.80946 0
M  V30 11325 C 1061.01 2.01955 2.84632 0
M  V30 11326 C 1062.36 2.31657 3.55837 0
M  V30 11327 O 1063.38 1.99975 2.94768 0
M  V30 11328 O 1062.24 2.85692 4.65878 0
M  V30 11329 H 1059.34 0.401622 0.72293 0
M  V30 11330 H 1061.88 1.39123 0.971744 0
M  V30 11331 H 1060.66 3.00614 2.50494 0
M  V30 11332 H 1060.28 1.68667 3.60052 0
M  V30 11333 N 1061.28 -1.12907 1.09954 0
M  V30 11334 C 1062.69 -1.65847 0.857417 0
M  V30 11335 C 1063.04 -1.86372 -0.613176 0
M  V30 11336 O 1062.16 -1.58654 -1.47166 0
M  V30 11337 C 1062.76 -3.01269 1.54991 0
M  V30 11338 C 1061.32 -3.51179 1.35462 0
M  V30 11339 C 1060.46 -2.26307 1.60251 0
M  V30 11340 H 1063.41 -0.96755 1.25794 0
M  V30 11341 H 1063.44 -3.675 0.986091 0
M  V30 11342 H 1062.95 -2.86299 2.6202 0
M  V30 11343 H 1061.05 -3.71343 0.305742 0
M  V30 11344 H 1061.16 -4.30955 2.09318 0
M  V30 11345 H 1059.53 -2.33167 1.02494 0
M  V30 11346 H 1060.31 -2.13896 2.68521 0
M  V30 11347 N 1062.75 -0.88754 -1.30232 0
M  V30 11348 C 1064.16 -0.55745 -1.78184 0
M  V30 11349 C 1064.52 0.926474 -1.72948 0
M  V30 11350 O 1063.64 1.72403 -1.3079 0
M  V30 11351 C 1064.24 -1.00512 -3.23547 0
M  V30 11352 C 1062.79 -0.726402 -3.69324 0
M  V30 11353 C 1061.94 -1.18666 -2.50627 0
M  V30 11354 H 1064.89 -1.07151 -1.17066 0
M  V30 11355 H 1064.91 -0.335185 -3.79021 0
M  V30 11356 H 1064.43 -2.08517 -3.27326 0
M  V30 11357 H 1062.53 0.341548 -3.71031 0
M  V30 11358 H 1062.64 -1.31575 -4.60679 0
M  V30 11359 H 1061 -0.605936 -2.47387 0
M  V30 11360 H 1061.79 -2.2745 -2.57141 0
M  V30 11361 N 1064.23 1.43628 -0.648757 0
M  V30 11362 C 1065.48 2.02695 -0.169158 0
M  V30 11363 C 1065.83 1.50239 1.20191 0
M  V30 11364 O 1065.13 0.684018 1.78974 0
M  V30 11365 C 1065.32 3.57214 -0.115282 0
M  V30 11366 C 1065.15 4.24663 -1.47959 0
M  V30 11367 C 1063.92 4.60917 -2.07084 0
M  V30 11368 C 1066.12 4.53962 -2.41708 0
M  V30 11369 N 1064.1 5.13416 -3.36566 0
M  V30 11370 C 1065.47 5.07733 -3.55819 0
M  V30 11371 C 1067.53 4.35927 -2.40566 0
M  V30 11372 C 1066.23 5.45367 -4.69007 0
M  V30 11373 C 1068.25 4.7462 -3.52831 0
M  V30 11374 C 1067.62 5.2852 -4.65667 0
M  V30 11375 H 1063.72 0.774751 -0.106227 0
M  V30 11376 H 1066.3 1.74869 -0.85609 0
M  V30 11377 H 1064.47 3.84614 0.54098 0
M  V30 11378 H 1066.2 4.02961 0.374775 0
M  V30 11379 H 1062.96 4.45812 -1.59841 0
M  V30 11380 H 1063.38 5.44124 -4.02813 0
M  V30 11381 H 1068.02 3.93533 -1.54569 0
M  V30 11382 H 1065.74 5.86707 -5.55698 0
M  V30 11383 H 1069.33 4.62364 -3.53144 0
M  V30 11384 H 1068.21 5.57906 -5.511 0
M  V30 11385 N 1065.71 0.390394 1.52688 0
M  V30 11386 C 1066.64 -0.43567 2.294 0
M  V30 11387 C 1067.62 -1.06253 1.32832 0
M  V30 11388 O 1068.81 -1.07509 1.61726 0
M  V30 11389 C 1065.94 -1.56259 3.10162 0
M  V30 11390 C 1064.89 -1.06172 4.14622 0
M  V30 11391 C 1064.22 -2.2808 4.83615 0
M  V30 11392 C 1065.52 -0.128902 5.22141 0
M  V30 11393 H 1067.21 0.204384 2.98702 0
M  V30 11394 H 1064.76 0.0997377 1.43654 0
M  V30 11395 H 1066.71 -2.14732 3.62585 0
M  V30 11396 H 1065.43 -2.23025 2.38595 0
M  V30 11397 H 1064.09 -0.499518 3.63181 0
M  V30 11398 H 1063.74 -2.93358 4.08595 0
M  V30 11399 H 1063.44 -1.95227 5.5422 0
M  V30 11400 H 1064.96 -2.87193 5.38844 0
M  V30 11401 H 1066.38 -0.621849 5.69917 0
M  V30 11402 H 1064.78 0.109919 5.99999 0
M  V30 11403 H 1065.85 0.821884 4.77884 0
M  V30 11404 N 1067.19 -1.57141 0.120249 0
M  V30 11405 C 1068.1 -2.18925 -0.843155 0
M  V30 11406 C 1069.11 -1.16575 -1.29175 0
M  V30 11407 O 1070.29 -1.4905 -1.35448 0
M  V30 11408 C 1067.36 -2.7775 -2.075 0
M  V30 11409 C 1066.42 -3.95139 -1.6782 0
M  V30 11410 C 1065.65 -4.51149 -2.85132 0
M  V30 11411 O 1065.87 -4.06056 -4.00593 0
M  V30 11412 O 1064.81 -5.41815 -2.62145 0
M  V30 11413 H 1068.63 -3.01707 -0.347357 0
M  V30 11414 H 1066.22 -1.49028 -0.105427 0
M  V30 11415 H 1068.1 -3.15243 -2.79643 0
M  V30 11416 H 1066.77 -1.97998 -2.56083 0
M  V30 11417 H 1065.68 -3.62412 -0.927807 0
M  V30 11418 H 1067.01 -4.7633 -1.23977 0
M  V30 11419 N 1068.67 0.153526 -1.5685 0
M  V30 11420 C 1070.08 0.505939 -1.51368 0
M  V30 11421 C 1070.28 1.83721 -0.82757 0
M  V30 11422 O 1069.34 2.49385 -0.395364 0
M  V30 11423 C 1070.65 0.522269 -2.9613 0
M  V30 11424 C 1072.2 0.608238 -3.07033 0
M  V30 11425 C 1072.67 0.655292 -4.53288 0
M  V30 11426 N 1074.17 0.717695 -4.57606 0
M  V30 11427 C 1074.9 0.774977 -5.68139 0
M  V30 11428 N 1074.4 0.792003 -6.88258 0
M  V30 11429 N 1076.19 0.81536 -5.56155 0
M  V30 11430 H 1068.34 -0.71919 -1.99853 0
M  V30 11431 H 1070.6 -0.261466 -0.91123 0
M  V30 11432 H 1070.31 -0.387595 -3.49558 0
M  V30 11433 H 1070.18 1.3625 -3.51733 0
M  V30 11434 H 1072.57 1.50852 -2.53629 0
M  V30 11435 H 1072.65 -0.259014 -2.54485 0
M  V30 11436 H 1072.3 -0.240809 -5.07329 0
M  V30 11437 H 1072.23 1.53894 -5.03611 0
M  V30 11438 H 1074.72 0.7121 -3.7113 0
M  V30 11439 H 1075.03 0.837378 -7.6825 0
M  V30 11440 H 1073.37 0.759986 -6.90832 0
M  V30 11441 H 1076.57 0.799183 -4.61227 0
M  V30 11442 H 1076.74 0.856537 -6.42314 0
M  V30 11443 N 1070.14 1.51827 0.422667 0
M  V30 11444 C 1071.39 1.65464 1.17258 0
M  V30 11445 C 1071.72 0.376834 1.90509 0
M  V30 11446 O 1071 -0.624219 1.84211 0
M  V30 11447 C 1071.28 2.86776 2.17788 0
M  V30 11448 C 1071.13 4.24571 1.48523 0
M  V30 11449 C 1072.45 3.03603 3.18611 0
M  V30 11450 H 1069.57 0.602169 0.424925 0
M  V30 11451 H 1072.21 1.84349 0.45996 0
M  V30 11452 H 1070.36 2.70806 2.78561 0
M  V30 11453 H 1072.04 4.5224 0.909739 0
M  V30 11454 H 1070.28 4.26595 0.787354 0
M  V30 11455 H 1070.95 5.05475 2.2181 0
M  V30 11456 H 1073.43 3.18381 2.67904 0
M  V30 11457 H 1072.3 3.90022 3.8623 0
M  V30 11458 H 1072.56 2.16318 3.85563 0
M  V30 11459 N 1071.62 -0.679052 1.4222 0
M  V30 11460 C 1072.55 -1.80481 1.48152 0
M  V30 11461 C 1073.53 -1.66698 0.338502 0
M  V30 11462 O 1074.72 -1.86183 0.552228 0
M  V30 11463 C 1071.85 -3.18746 1.37908 0
M  V30 11464 C 1070.8 -3.47258 2.50192 0
M  V30 11465 C 1070.13 -4.85052 2.25008 0
M  V30 11466 C 1071.43 -3.44576 3.92511 0
M  V30 11467 H 1073.12 -1.75774 2.42371 0
M  V30 11468 H 1070.67 -0.844241 1.16656 0
M  V30 11469 H 1072.62 -3.97229 1.40666 0
M  V30 11470 H 1071.35 -3.24119 0.401806 0
M  V30 11471 H 1070 -2.71133 2.46744 0
M  V30 11472 H 1069.65 -4.8707 1.25584 0
M  V30 11473 H 1069.35 -5.05092 3.00259 0
M  V30 11474 H 1070.88 -5.65825 2.29508 0
M  V30 11475 H 1072.29 -4.13036 3.97585 0
M  V30 11476 H 1070.69 -3.76151 4.67579 0
M  V30 11477 H 1071.76 -2.4323 4.19484 0
M  V30 11478 N 1073.1 -1.28322 -0.914942 0
M  V30 11479 C 1074.01 -1.13993 -2.05043 0
M  V30 11480 C 1075.03 -0.0667921 -1.73872 0
M  V30 11481 O 1076.2 -0.275845 -1.99502 0
M  V30 11482 C 1073.27 -0.801856 -3.373 0
M  V30 11483 C 1072.33 -1.95723 -3.82088 0
M  V30 11484 C 1071.56 -1.63519 -5.08033 0
M  V30 11485 O 1071.78 -0.54899 -5.67752 0
M  V30 11486 O 1070.72 -2.47844 -5.48504 0
M  V30 11487 H 1074.54 -2.09313 -2.2005 0
M  V30 11488 H 1072.13 -1.0763 -1.03616 0
M  V30 11489 H 1074.01 -0.627214 -4.16706 0
M  V30 11490 H 1072.69 0.121696 -3.23471 0
M  V30 11491 H 1071.59 -2.18702 -3.03514 0
M  V30 11492 H 1072.93 -2.86144 -4.00478 0
M  V30 11493 N 1074.58 1.12322 -1.10551 0
M  V30 11494 C 1075.54 2.16273 -0.758844 0
M  V30 11495 C 1076.54 1.59325 0.217294 0
M  V30 11496 O 1077.73 1.74199 -0.00601346 0
M  V30 11497 C 1074.86 3.40674 -0.124238 0
M  V30 11498 H 1076.06 2.48454 -1.6796 0
M  V30 11499 H 1073.61 1.2735 -0.906188 0
M  V30 11500 H 1074.34 3.14094 0.807194 0
M  V30 11501 H 1074.13 3.83284 -0.826772 0
M  V30 11502 H 1075.62 4.17474 0.102502 0
M  V30 11503 N 1076.06 0.894434 1.2976 0
M  V30 11504 C 1077.3 0.524501 1.97556 0
M  V30 11505 C 1077.66 -0.911202 1.69 0
M  V30 11506 O 1078.86 -1.38774 2.30207 0
M  V30 11507 C 1077.13 0.802636 3.48271 0
M  V30 11508 S 1078.69 0.536223 4.35511 0
M  V30 11509 H 1075.51 0.194786 0.683798 0
M  V30 11510 H 1078.11 1.15574 1.5768 0
M  V30 11511 H 1076.82 1.84586 3.66546 0
M  V30 11512 H 1076.35 0.159316 3.93077 0
M  V30 11513 H 1078.36 -0.621056 4.92298 0
M  V30 11514 N 1077.53 -1.43282 0.656365 0
M  V30 11515 C 1078.5 -2.29188 -0.0239173 0
M  V30 11516 C 1079.5 -1.42373 -0.747436 0
M  V30 11517 O 1080.69 -1.63969 -0.588213 0
M  V30 11518 C 1077.82 -3.24501 -1.0446 0
M  V30 11519 H 1079.01 -2.9083 0.731978 0
M  V30 11520 H 1076.57 -1.50614 0.417752 0
M  V30 11521 H 1077.3 -2.6776 -1.82962 0
M  V30 11522 H 1077.09 -3.88509 -0.52942 0
M  V30 11523 H 1078.58 -3.88971 -1.51958 0
M  V30 11524 N 1079.01 -0.398486 -1.52479 0
M  V30 11525 C 1079.94 0.423498 -2.29627 0
M  V30 11526 C 1080.92 1.05547 -1.33394 0
M  V30 11527 O 1082.11 1.0665 -1.62294 0
M  V30 11528 C 1079.24 1.54612 -3.10986 0
M  V30 11529 C 1078.19 1.03971 -4.15179 0
M  V30 11530 C 1077.52 2.25512 -4.84818 0
M  V30 11531 C 1078.82 0.10121 -5.22202 0
M  V30 11532 H 1080.51 -0.220222 -2.98589 0
M  V30 11533 H 1078.06 -0.107355 -1.43599 0
M  V30 11534 H 1080.01 2.12806 -3.63719 0
M  V30 11535 H 1078.74 2.21756 -2.39774 0
M  V30 11536 H 1077.4 0.480251 -3.63441 0
M  V30 11537 H 1077.04 2.91187 -4.10145 0
M  V30 11538 H 1076.74 1.92285 -5.55248 0
M  V30 11539 H 1078.27 2.84331 -5.40359 0
M  V30 11540 H 1079.68 0.591617 -5.70239 0
M  V30 11541 H 1078.08 -0.141737 -5.99933 0
M  V30 11542 H 1079.15 -0.847216 -4.77441 0
M  V30 11543 N 1080.49 1.57075 -0.12858 0
M  V30 11544 C 1081.42 2.12907 0.848708 0
M  V30 11545 C 1082.44 1.07406 1.22343 0
M  V30 11546 O 1083.63 1.34746 1.17071 0
M  V30 11547 C 1080.73 2.62167 2.1476 0
M  V30 11548 C 1079.9 3.91871 1.94309 0
M  V30 11549 C 1078.96 4.26629 3.08016 0
M  V30 11550 O 1077.98 4.9528 2.80511 0
M  V30 11551 N 1079.19 3.84721 4.34706 0
M  V30 11552 H 1081.95 2.97387 0.371636 0
M  V30 11553 H 1079.51 1.61805 0.0555574 0
M  V30 11554 H 1081.5 2.82444 2.89841 0
M  V30 11555 H 1080.07 1.82514 2.53786 0
M  V30 11556 H 1079.29 3.80406 1.03367 0
M  V30 11557 H 1080.58 4.76662 1.77962 0
M  V30 11558 H 1079.98 3.2937 4.59926 0
M  V30 11559 H 1078.54 4.10087 5.06628 0
M  V30 11560 N 1081.97 -0.145205 1.5693 0
M  V30 11561 C 1083.38 -0.705089 1.72874 0
M  V30 11562 C 1083.73 -1.81577 0.743261 0
M  V30 11563 O 1082.86 -2.16214 -0.0897153 0
M  V30 11564 C 1083.45 -1.28578 3.13454 0
M  V30 11565 C 1082.01 -1.79221 3.30994 0
M  V30 11566 C 1081.16 -0.681392 2.68798 0
M  V30 11567 H 1084.11 0.0804798 1.58496 0
M  V30 11568 H 1084.13 -2.15558 3.13552 0
M  V30 11569 H 1083.64 -0.477186 3.85155 0
M  V30 11570 H 1081.74 -2.62642 2.64292 0
M  V30 11571 H 1081.86 -1.91969 4.38959 0
M  V30 11572 H 1080.22 -1.10847 2.29314 0
M  V30 11573 H 1081 0.115786 3.43105 0
M  V30 11574 N 1083.45 -1.52049 -0.414609 0
M  V30 11575 C 1084.72 -1.56397 -1.17471 0
M  V30 11576 C 1085.1 -0.34171 -2.08316 0
M  V30 11577 O 1084.45 0.6718 -2.18401 0
M  V30 11578 C 1084.66 -2.88983 -1.95678 0
M  V30 11579 C 1086.01 -3.41781 -2.51935 0
M  V30 11580 O 1087.03 -2.90686 -2.05865 0
M  V30 11581 O 1085.89 -4.30989 -3.36022 0
M  V30 11582 H 1082.99 -0.62974 -0.536056 0
M  V30 11583 H 1085.53 -1.64374 -0.421834 0
M  V30 11584 H 1084.31 -3.69392 -1.29094 0
M  V30 11585 H 1083.93 -2.84274 -2.77983 0
M  V30 11586 N 1084.93 0.6715 -1.42579 0
M  V30 11587 C 1086.17 1.43366 -1.43436 0
M  V30 11588 C 1086.5 1.94131 -0.0517339 0
M  V30 11589 O 1085.78 1.71121 0.924548 0
M  V30 11590 C 1086.06 2.62832 -2.46154 0
M  V30 11591 C 1085.92 2.17677 -3.9362 0
M  V30 11592 C 1087.23 3.65049 -2.4582 0
M  V30 11593 H 1084.35 0.519967 -0.522306 0
M  V30 11594 H 1087 0.762849 -1.74013 0
M  V30 11595 H 1085.15 3.20062 -2.2021 0
M  V30 11596 H 1086.82 1.65588 -4.30556 0
M  V30 11597 H 1085.06 1.49219 -4.07328 0
M  V30 11598 H 1085.73 3.03503 -4.61075 0
M  V30 11599 H 1088.21 3.17541 -2.68899 0
M  V30 11600 H 1087.08 4.46213 -3.19664 0
M  V30 11601 H 1087.34 4.16401 -1.48536 0
M  V30 11602 N 1086.4 1.28806 0.908124 0
M  V30 11603 C 1087.68 1.06981 1.63751 0
M  V30 11604 C 1088.06 -0.388936 2.07486 0
M  V30 11605 O 1087.41 -1.37611 1.82415 0
M  V30 11606 C 1087.62 2.04962 2.82474 0
M  V30 11607 C 1088.97 2.35418 3.5336 0
M  V30 11608 O 1089.99 2.03091 2.92631 0
M  V30 11609 O 1088.85 2.90617 4.62822 0
M  V30 11610 H 1085.94 0.409267 0.71863 0
M  V30 11611 H 1088.49 1.40146 0.956934 0
M  V30 11612 H 1087.26 3.03254 2.47291 0
M  V30 11613 H 1086.88 1.72476 3.58242 0
M  V30 11614 N 1087.88 -1.11734 1.11145 0
M  V30 11615 C 1089.11 -1.87755 0.881062 0
M  V30 11616 C 1089.53 -1.79461 -0.563496 0
M  V30 11617 O 1088.89 -1.15481 -1.39763 0
M  V30 11618 C 1088.94 -3.34641 1.34342 0
M  V30 11619 O 1088.04 -4.09195 0.513157 0
M  V30 11620 H 1087.38 -0.583111 0.317613 0
M  V30 11621 H 1089.91 -1.41256 1.48013 0
M  V30 11622 H 1089.92 -3.85486 1.33658 0
M  V30 11623 H 1088.6 -3.39994 2.39534 0
M  V30 11624 H 1087.17 -3.68269 0.585833 0
M  V30 11625 N 1089.36 -0.901303 -1.29284 0
M  V30 11626 C 1090.61 -0.528043 -1.95494 0
M  V30 11627 C 1090.93 0.92597 -1.71044 0
M  V30 11628 O 1090.19 1.67185 -1.01723 0
M  V30 11629 C 1090.49 -0.768828 -3.49033 0
M  V30 11630 C 1090.15 -2.20045 -3.93562 0
M  V30 11631 C 1088.82 -2.59189 -4.05431 0
M  V30 11632 C 1091.17 -3.13266 -4.1655 0
M  V30 11633 C 1088.5 -3.90733 -4.37658 0
M  V30 11634 C 1090.85 -4.4436 -4.50252 0
M  V30 11635 C 1089.51 -4.83375 -4.60331 0
M  V30 11636 H 1088.78 -0.193225 -0.715364 0
M  V30 11637 H 1091.43 -1.14027 -1.53851 0
M  V30 11638 H 1089.73 -0.0736997 -3.91731 0
M  V30 11639 H 1091.43 -0.459384 -3.9836 0
M  V30 11640 H 1088.02 -1.88666 -3.84842 0
M  V30 11641 H 1092.21 -2.84237 -4.06845 0
M  V30 11642 H 1087.46 -4.2068 -4.43665 0
M  V30 11643 H 1091.64 -5.16618 -4.66989 0
M  V30 11644 H 1089.26 -5.8534 -4.85058 0
M  V30 11645 N 1090.84 1.42931 -0.663954 0
M  V30 11646 C 1092.25 1.84877 -0.260283 0
M  V30 11647 C 1092.6 1.5558 1.19538 0
M  V30 11648 O 1091.72 1.01015 1.91377 0
M  V30 11649 C 1092.32 3.35585 -0.465618 0
M  V30 11650 C 1090.88 3.76221 -0.116169 0
M  V30 11651 C 1090.03 2.66587 -0.763317 0
M  V30 11652 H 1092.98 1.32932 -0.866882 0
M  V30 11653 H 1093 3.79427 0.285608 0
M  V30 11654 H 1092.51 3.56877 -1.52515 0
M  V30 11655 H 1090.61 3.60539 0.940342 0
M  V30 11656 H 1090.72 4.75943 -0.549123 0
M  V30 11657 H 1089.09 2.53948 -0.19559 0
M  V30 11658 H 1089.87 2.90704 -1.82609 0
M  V30 11659 N 1092.32 0.406567 1.52266 0
M  V30 11660 C 1093.23 -0.4271 2.30679 0
M  V30 11661 C 1094.24 -1.0559 1.383 0
M  V30 11662 O 1095.42 -1.05797 1.71374 0
M  V30 11663 C 1092.48 -1.53008 3.1111 0
M  V30 11664 C 1091.54 -0.924604 4.19225 0
M  V30 11665 C 1090.78 -1.97502 4.95811 0
M  V30 11666 O 1091 -3.19277 4.72671 0
M  V30 11667 O 1089.93 -1.58268 5.80719 0
M  V30 11668 H 1093.76 0.212187 3.02958 0
M  V30 11669 H 1091.34 0.169835 1.48432 0
M  V30 11670 H 1093.23 -2.17046 3.61205 0
M  V30 11671 H 1091.9 -2.15401 2.41628 0
M  V30 11672 H 1090.81 -0.247009 3.73284 0
M  V30 11673 H 1092.14 -0.34463 4.90992 0
M  V30 11674 N 1093.79 -1.57004 0.136909 0
M  V30 11675 C 1095.04 -1.9541 -0.51569 0
M  V30 11676 C 1095.36 -1.02219 -1.66061 0
M  V30 11677 O 1094.63 -0.0818172 -1.95729 0
M  V30 11678 H 1093.21 -0.721504 -0.193497 0
M  V30 11679 H 1095.88 -1.93765 0.210046 0
M  V30 11680 H 1094.97 -2.98887 -0.898494 0
M  V30 11681 N 1095.27 0.136881 -1.57004 0
M  V30 11682 C 1096.52 0.846257 -1.83088 0
M  V30 11683 C 1096.83 1.81876 -0.719765 0
M  V30 11684 O 1098.04 2.57302 -0.866494 0
M  V30 11685 C 1096.5 1.55559 -3.24545 0
M  V30 11686 C 1096.1 0.624989 -4.43619 0
M  V30 11687 C 1097.85 2.25115 -3.59893 0
M  V30 11688 C 1095.76 1.33653 -5.761 0
M  V30 11689 H 1094.69 0.319768 -0.682836 0
M  V30 11690 H 1097.34 0.0989741 -1.83233 0
M  V30 11691 H 1095.72 2.34887 -3.18817 0
M  V30 11692 H 1096.89 -0.133783 -4.60606 0
M  V30 11693 H 1095.21 0.0373216 -4.16383 0
M  V30 11694 H 1097.8 2.79008 -4.56134 0
M  V30 11695 H 1098.15 3.02084 -2.86446 0
M  V30 11696 H 1098.68 1.52696 -3.67327 0
M  V30 11697 H 1095.42 0.608495 -6.5267 0
M  V30 11698 H 1094.94 2.06776 -5.63031 0
M  V30 11699 H 1096.62 1.87467 -6.19246 0
M  V30 11700 N 1096.75 1.52266 0.40654 0
M  V30 11701 C 1097.7 1.72175 1.49465 0
M  V30 11702 C 1098.68 0.575668 1.50249 0
M  V30 11703 O 1099.88 0.832835 1.56182 0
M  V30 11704 C 1097.01 1.87818 2.87366 0
M  V30 11705 C 1096.09 3.08305 2.91219 0
M  V30 11706 N 1096.48 4.30967 2.64766 0
M  V30 11707 C 1094.78 3.08192 3.22388 0
M  V30 11708 C 1095.48 5.12455 2.75254 0
M  V30 11709 N 1094.46 4.47758 3.08242 0
M  V30 11710 H 1098.26 2.64653 1.27812 0
M  V30 11711 H 1095.77 1.50334 0.61428 0
M  V30 11712 H 1097.77 2.00198 3.65686 0
M  V30 11713 H 1096.43 0.965414 3.10016 0
M  V30 11714 H 1097.44 4.59397 2.39113 0
M  V30 11715 H 1094.12 2.26662 3.50615 0
M  V30 11716 H 1095.51 6.20186 2.58495 0
M  V30 11717 N 1098.23 -0.663929 1.42933 0
M  V30 11718 C 1099.46 -1.45192 1.474 0
M  V30 11719 C 1099.87 -1.88592 0.0886014 0
M  V30 11720 O 1099.23 -1.58824 -0.898962 0
M  V30 11721 C 1099.28 -2.69394 2.41059 0
M  V30 11722 O 1099 -2.27812 3.7421 0
M  V30 11723 C 1100.5 -3.62855 2.54659 0
M  V30 11724 H 1097.72 -0.446394 0.500973 0
M  V30 11725 H 1100.27 -0.814875 1.87563 0
M  V30 11726 H 1098.42 -3.29262 2.0412 0
M  V30 11727 H 1098.83 -3.08095 4.24474 0
M  V30 11728 H 1100.31 -4.46698 3.24291 0
M  V30 11729 H 1100.79 -4.09487 1.58799 0
M  V30 11730 H 1101.39 -3.08874 2.92364 0
M  V30 11731 N 1099.71 -1.29285 -0.901281 0
M  V30 11732 C 1100.93 -1.20169 -1.69039 0
M  V30 11733 C 1101.36 0.234509 -1.86632 0
M  V30 11734 O 1100.71 1.16935 -1.38549 0
M  V30 11735 C 1100.76 -1.91852 -3.05328 0
M  V30 11736 O 1099.87 -1.23448 -3.9349 0
M  V30 11737 H 1099.21 -0.416486 -0.517141 0
M  V30 11738 H 1101.74 -1.70826 -1.12603 0
M  V30 11739 H 1101.75 -2.00244 -3.5548 0
M  V30 11740 H 1100.42 -2.96313 -2.91841 0
M  V30 11741 H 1099 -1.23303 -3.51924 0
M  V30 11742 N 1101.18 1.11143 -1.11736 0
M  V30 11743 C 1102.43 1.82311 -0.862875 0
M  V30 11744 C 1102.75 1.85735 0.613326 0
M  V30 11745 O 1103.95 2.53034 0.984168 0
M  V30 11746 C 1102.41 3.27427 -1.49396 0
M  V30 11747 C 1102.02 3.32323 -3.00443 0
M  V30 11748 C 1103.76 4.03474 -1.31944 0
M  V30 11749 C 1101.67 4.71855 -3.56521 0
M  V30 11750 H 1100.6 0.683124 -0.31915 0
M  V30 11751 H 1103.25 1.25045 -1.34298 0
M  V30 11752 H 1101.63 3.84644 -0.941528 0
M  V30 11753 H 1102.8 2.84971 -3.62117 0
M  V30 11754 H 1101.12 2.69758 -3.17206 0
M  V30 11755 H 1103.72 5.06528 -1.71271 0
M  V30 11756 H 1104.06 4.15473 -0.262339 0
M  V30 11757 H 1104.59 3.52652 -1.84069 0
M  V30 11758 H 1101.33 4.65054 -4.61958 0
M  V30 11759 H 1100.85 5.19604 -2.99619 0
M  V30 11760 H 1102.53 5.40816 -3.55144 0
M  V30 11761 N 1102.66 0.908147 1.28804 0
M  V30 11762 C 1103.91 0.53734 1.94826 0
M  V30 11763 C 1104.23 -0.920962 1.71882 0
M  V30 11764 O 1103.5 -1.65043 1.05534 0
M  V30 11765 H 1102.08 0.195729 0.720902 0
M  V30 11766 H 1104.74 1.15628 1.56895 0
M  V30 11767 H 1103.84 0.727052 3.03513 0
M  V30 11768 N 1104.14 -1.42577 0.671525 0
M  V30 11769 C 1105.05 -2.34598 -0.00898225 0
M  V30 11770 C 1106.07 -1.54909 -0.792407 0
M  V30 11771 O 1107.24 -1.87491 -0.735477 0
M  V30 11772 C 1104.31 -3.33405 -0.950888 0
M  V30 11773 C 1103.37 -4.28993 -0.16236 0
M  V30 11774 C 1102.6 -5.2308 -1.0594 0
M  V30 11775 O 1102.82 -5.22022 -2.2989 0
M  V30 11776 O 1101.76 -5.99632 -0.521966 0
M  V30 11777 H 1105.58 -2.94321 0.748927 0
M  V30 11778 H 1103.17 -1.43025 0.43175 0
M  V30 11779 H 1105.05 -3.94115 -1.49169 0
M  V30 11780 H 1103.73 -2.7616 -1.68871 0
M  V30 11781 H 1102.63 -3.71707 0.42247 0
M  V30 11782 H 1103.97 -4.8927 0.536274 0
M  V30 11783 N 1105.62 -0.414636 -1.52048 0
M  V30 11784 C 1106.55 0.443601 -2.24866 0
M  V30 11785 C 1107.56 1.00556 -1.28032 0
M  V30 11786 O 1108.75 0.903566 -1.53941 0
M  V30 11787 C 1105.85 1.63004 -2.97124 0
M  V30 11788 C 1105.03 1.191 -4.20873 0
M  V30 11789 C 1104.08 2.24497 -4.75907 0
M  V30 11790 O 1103.11 1.84861 -5.38345 0
M  V30 11791 N 1104.31 3.56727 -4.57959 0
M  V30 11792 H 1107.08 -0.180393 -2.99157 0
M  V30 11793 H 1104.64 -0.242305 -1.60077 0
M  V30 11794 H 1106.63 2.33089 -3.30835 0
M  V30 11795 H 1105.2 2.15984 -2.25986 0
M  V30 11796 H 1104.42 0.318059 -3.92915 0
M  V30 11797 H 1105.71 0.874699 -5.01225 0
M  V30 11798 H 1105.11 3.91675 -4.08175 0
M  V30 11799 H 1103.66 4.22772 -4.96092 0
M  V30 11800 N 1107.1 1.56929 -0.145233 0
M  V30 11801 C 1108.34 1.95681 0.50532 0
M  V30 11802 C 1108.67 1.03098 1.65516 0
M  V30 11803 O 1107.94 0.0921961 1.95683 0
M  V30 11804 H 1106.52 0.72252 0.189668 0
M  V30 11805 H 1109.18 1.93651 -0.220318 0
M  V30 11806 H 1108.27 2.99359 0.882631 0
M  V30 11807 N 1108.58 -0.128553 1.57075 0
M  V30 11808 C 1109.51 -1.18822 1.94825 0
M  V30 11809 C 1110.49 -1.40609 0.816571 0
M  V30 11810 O 1111.67 -1.5492 1.07388 0
M  V30 11811 C 1108.8 -2.54383 2.23623 0
M  V30 11812 C 1107.84 -2.4908 3.4621 0
M  V30 11813 S 1108.68 -1.93974 4.99133 0
M  V30 11814 C 1109.83 -3.31228 5.31074 0
M  V30 11815 H 1110.07 -0.866246 2.844 0
M  V30 11816 H 1107.6 -0.334927 1.50724 0
M  V30 11817 H 1109.56 -3.32386 2.40893 0
M  V30 11818 H 1108.22 -2.83761 1.34678 0
M  V30 11819 H 1107.41 -3.48915 3.63695 0
M  V30 11820 H 1107.01 -1.79193 3.28277 0
M  V30 11821 H 1109.3 -4.27407 5.25671 0
M  V30 11822 H 1110.25 -3.18578 6.32387 0
M  V30 11823 H 1110.66 -3.29215 4.5856 0
M  V30 11824 N 1110.05 -1.5248 -0.398459 0
M  V30 11825 C 1111 -1.77211 -1.50662 0
M  V30 11826 C 1112 -0.639638 -1.5686 0
M  V30 11827 O 1113.2 -0.821917 -1.60139 0
M  V30 11828 H 1109.58 -0.56057 -0.501264 0
M  V30 11829 H 1111.55 -2.70028 -1.26993 0
M  V30 11830 C 1110.3 -1.94944 -2.8791 0
M  V30 11831 H 1109.62 -2.8151 -2.83888 0
M  V30 11832 H 1111.06 -2.16243 -3.64712 0
M  V30 11833 C 1109.52 -0.719402 -3.29129 0
M  V30 11834 O 1110.05 0.107671 -4.01556 0
M  V30 11835 N 1108.25 -0.552228 -2.85305 0
M  V30 11836 H 1107.8 -1.22638 -2.26534 0
M  V30 11837 H 1107.76 0.269447 -3.13243 0
M  V30 11838 N 1111.53 0.65634 -1.43283 0
M  V30 11839 C 1112.46 1.78101 -1.51004 0
M  V30 11840 C 1113.44 1.66138 -0.36498 0
M  V30 11841 O 1114.63 1.85281 -0.581778 0
M  V30 11842 C 1111.76 3.16511 -1.42961 0
M  V30 11843 C 1110.71 3.43233 -2.55685 0
M  V30 11844 C 1110.04 4.81411 -2.32696 0
M  V30 11845 C 1111.34 3.38288 -3.97943 0
M  V30 11846 H 1113.03 1.71896 -2.45137 0
M  V30 11847 H 1110.58 0.825575 -1.17984 0
M  V30 11848 H 1112.53 3.94941 -1.46968 0
M  V30 11849 H 1111.25 3.23439 -0.45332 0
M  V30 11850 H 1109.91 2.67173 -2.51026 0
M  V30 11851 H 1109.56 4.85011 -1.33317 0
M  V30 11852 H 1109.26 5.00251 -3.08257 0
M  V30 11853 H 1110.79 5.62102 -2.38481 0
M  V30 11854 H 1112.2 4.06659 -4.04106 0
M  V30 11855 H 1110.6 3.68664 -4.73505 0
M  V30 11856 H 1111.67 2.36525 -4.23301 0
M  V30 11857 N 1113.01 1.29761 0.894412 0
M  V30 11858 C 1114.23 1.21064 1.68399 0
M  V30 11859 C 1114.66 -0.224608 1.86754 0
M  V30 11860 O 1114.02 -1.16199 1.39167 0
M  V30 11861 C 1114.07 1.93468 3.04306 0
M  V30 11862 O 1113.17 1.25533 3.9283 0
M  V30 11863 H 1112.51 0.419223 0.514925 0
M  V30 11864 H 1115.04 1.71421 1.11696 0
M  V30 11865 H 1115.05 2.02127 3.54413 0
M  V30 11866 H 1113.73 2.97857 2.90265 0
M  V30 11867 H 1112.3 1.25168 3.51266 0
M  V30 11868 N 1114.49 -1.10549 1.12324 0
M  V30 11869 C 1115.74 -1.82124 0.876083 0
M  V30 11870 C 1116.06 -1.85547 -0.599761 0
M  V30 11871 O 1115.33 -1.33269 -1.43584 0
M  V30 11872 H 1113.91 -0.674455 0.321122 0
M  V30 11873 H 1116.57 -1.33766 1.41748 0
M  V30 11874 H 1115.66 -2.85688 1.25653 0
M  V30 11875 N 1115.97 -0.914965 -1.28321 0
M  V30 11876 C 1117.21 -0.547665 -1.94538 0
M  V30 11877 C 1117.53 0.911834 -1.72368 0
M  V30 11878 O 1116.8 1.64481 -1.06408 0
M  V30 11879 H 1115.38 -0.199549 -0.719853 0
M  V30 11880 H 1118.05 -1.16459 -1.5628 0
M  V30 11881 H 1117.14 -0.743138 -3.03124 0
M  V30 11882 N 1117.44 1.42219 -0.679077 0
M  V30 11883 C 1118.38 2.29172 0.035583 0
M  V30 11884 C 1119.39 1.43909 0.761183 0
M  V30 11885 O 1120.58 1.67584 0.61463 0
M  V30 11886 C 1117.68 3.21426 1.07419 0
M  V30 11887 C 1116.85 4.35364 0.421547 0
M  V30 11888 C 1115.91 5.08307 1.36051 0
M  V30 11889 O 1114.94 5.62678 0.859186 0
M  V30 11890 N 1116.14 5.14222 2.69362 0
M  V30 11891 H 1118.9 2.91147 -0.710865 0
M  V30 11892 H 1116.46 1.53192 -0.523821 0
M  V30 11893 H 1118.46 3.67091 1.70371 0
M  V30 11894 H 1117.03 2.60873 1.72233 0
M  V30 11895 H 1116.25 3.9229 -0.387559 0
M  V30 11896 H 1117.53 5.08789 -0.0329421 0
M  V30 11897 H 1116.93 4.71467 3.12627 0
M  V30 11898 H 1115.49 5.63519 3.27551 0
M  V30 11899 N 1118.92 0.422693 1.51826 0
M  V30 11900 C 1119.87 -0.396088 2.27376 0
M  V30 11901 C 1120.84 -1.02946 1.30351 0
M  V30 11902 O 1122.02 -1.05116 1.59233 0
M  V30 11903 C 1119.16 -1.49942 3.10824 0
M  V30 11904 C 1118.28 -0.885623 4.22825 0
M  V30 11905 C 1117.41 -1.96278 4.93608 0
M  V30 11906 C 1116.45 -1.32664 5.97551 0
M  V30 11907 N 1115.59 -2.34452 6.61798 0
M  V30 11908 H 1120.43 0.254571 2.96911 0
M  V30 11909 H 1117.96 0.137383 1.46457 0
M  V30 11910 H 1119.92 -2.15023 3.57521 0
M  V30 11911 H 1118.55 -2.11991 2.43433 0
M  V30 11912 H 1117.6 -0.123491 3.80199 0
M  V30 11913 H 1118.92 -0.381057 4.97342 0
M  V30 11914 H 1118.07 -2.69055 5.43778 0
M  V30 11915 H 1116.81 -2.50103 4.18688 0
M  V30 11916 H 1115.81 -0.584262 5.46687 0
M  V30 11917 H 1117.04 -0.7959 6.7442 0
M  V30 11918 H 1114.99 -2.87385 5.897 0
M  V30 11919 H 1114.9 -1.88845 7.32034 0
M  V30 11920 H 1116.17 -3.06757 7.16603 0
M  V30 11921 N 1120.4 -1.5685 0.153553 0
M  V30 11922 C 1121.33 -2.14231 -0.814729 0
M  V30 11923 C 1122.34 -1.09339 -1.20619 0
M  V30 11924 O 1123.53 -1.36592 -1.14913 0
M  V30 11925 C 1120.63 -2.6555 -2.10562 0
M  V30 11926 C 1119.81 -3.94912 -1.8805 0
M  V30 11927 C 1118.87 -4.31476 -3.0119 0
M  V30 11928 O 1117.89 -4.9968 -2.72596 0
M  V30 11929 N 1119.09 -3.91588 -4.28531 0
M  V30 11930 H 1121.86 -2.9794 -0.324277 0
M  V30 11931 H 1119.42 -1.61873 -0.0298087 0
M  V30 11932 H 1121.41 -2.87019 -2.85311 0
M  V30 11933 H 1119.98 -1.86529 -2.5085 0
M  V30 11934 H 1119.2 -3.82002 -0.973024 0
M  V30 11935 H 1120.49 -4.79433 -1.70356 0
M  V30 11936 H 1119.89 -3.36645 -4.54628 0
M  V30 11937 H 1118.44 -4.18095 -5.00039 0
M  V30 11938 N 1121.88 0.120221 -1.57141 0
M  V30 11939 C 1123.29 0.473718 -1.52408 0
M  V30 11940 C 1123.49 1.81925 -0.866354 0
M  V30 11941 O 1122.55 2.48491 -0.448173 0
M  V30 11942 C 1123.86 0.459338 -2.97171 0
M  V30 11943 C 1125.41 0.542975 -3.08254 0
M  V30 11944 C 1125.89 0.558996 -4.54576 0
M  V30 11945 N 1127.38 0.620469 -4.59026 0
M  V30 11946 C 1128.11 0.654292 -5.69655 0
M  V30 11947 N 1127.61 0.645835 -6.89783 0
M  V30 11948 N 1129.4 0.697208 -5.57759 0
M  V30 11949 H 1121.55 -0.76142 -1.98283 0
M  V30 11950 H 1123.81 -0.280736 -0.905479 0
M  V30 11951 H 1123.52 -0.461654 -3.48657 0
M  V30 11952 H 1123.39 1.28759 -3.54543 0
M  V30 11953 H 1125.78 1.45439 -2.56772 0
M  V30 11954 H 1125.86 -0.312936 -2.53879 0
M  V30 11955 H 1125.51 -0.348367 -5.06704 0
M  V30 11956 H 1125.44 1.43177 -5.06762 0
M  V30 11957 H 1127.93 0.633218 -3.72557 0
M  V30 11958 H 1128.24 0.674233 -7.69853 0
M  V30 11959 H 1126.59 0.613279 -6.92289 0
M  V30 11960 H 1129.78 0.70117 -4.62819 0
M  V30 11961 H 1129.95 0.7201 -6.43986 0
M  V30 11962 N 1123.36 1.52689 0.390367 0
M  V30 11963 C 1124.29 1.80338 1.48325 0
M  V30 11964 C 1125.27 0.655338 1.56969 0
M  V30 11965 O 1126.45 0.902792 1.7194 0
M  V30 11966 C 1123.58 1.97101 2.85952 0
M  V30 11967 C 1122.54 3.12783 2.92148 0
M  V30 11968 C 1121.86 3.14798 4.32211 0
M  V30 11969 C 1123.16 4.5188 2.61919 0
M  V30 11970 H 1124.86 2.71857 1.25437 0
M  V30 11971 H 1122.4 1.30813 0.601995 0
M  V30 11972 H 1124.36 2.15027 3.62411 0
M  V30 11973 H 1123.08 1.02271 3.10174 0
M  V30 11974 H 1121.74 2.94638 2.18137 0
M  V30 11975 H 1121.39 2.17653 4.53471 0
M  V30 11976 H 1121.09 3.92507 4.37278 0
M  V30 11977 H 1122.61 3.34877 5.10578 0
M  V30 11978 H 1124.02 4.70134 3.28096 0
M  V30 11979 H 1122.42 5.31647 2.78337 0
M  V30 11980 H 1123.49 4.58689 1.57266 0
M  V30 11981 N 1124.83 -0.648732 1.43629 0
M  V30 11982 C 1126.06 -1.44117 1.49148 0
M  V30 11983 C 1126.48 -1.87767 0.111952 0
M  V30 11984 O 1125.84 -1.57655 -0.895249 0
M  V30 11985 C 1125.89 -2.64938 2.44623 0
M  V30 11986 O 1124.99 -3.64155 1.93559 0
M  V30 11987 H 1124.34 -0.431933 0.504312 0
M  V30 11988 H 1126.87 -0.793439 1.88589 0
M  V30 11989 H 1126.88 -3.12698 2.62076 0
M  V30 11990 H 1125.55 -2.3251 3.44836 0
M  V30 11991 H 1124.13 -3.23322 1.85789 0
M  V30 11992 N 1126.31 -1.30234 -0.887518 0
M  V30 11993 C 1127.24 -1.18969 -2.00919 0
M  V30 11994 C 1128.22 -0.080952 -1.69907 0
M  V30 11995 O 1129.41 -0.262546 -1.92417 0
M  V30 11996 C 1126.54 -0.878094 -3.36016 0
M  V30 11997 C 1125.49 -1.94449 -3.81279 0
M  V30 11998 C 1124.82 -1.48594 -5.13638 0
M  V30 11999 C 1126.12 -3.35519 -4.00281 0
M  V30 12000 H 1127.81 -2.12808 -2.10602 0
M  V30 12001 H 1125.36 -1.02454 -1.01189 0
M  V30 12002 H 1127.31 -0.785954 -4.14006 0
M  V30 12003 H 1126.04 0.0959779 -3.26459 0
M  V30 12004 H 1124.69 -2.02622 -3.05516 0
M  V30 12005 H 1124.34 -0.500204 -5.00507 0
M  V30 12006 H 1124.04 -2.19921 -5.44893 0
M  V30 12007 H 1125.57 -1.40754 -5.94156 0
M  V30 12008 H 1126.98 -3.30119 -4.68716 0
M  V30 12009 H 1125.38 -4.0491 -4.42909 0
M  V30 12010 H 1126.45 -3.77597 -3.04218 0
M  V30 12011 N 1127.79 1.09952 -1.12909 0
M  V30 12012 C 1128.75 2.14615 -0.804548 0
M  V30 12013 C 1129.75 1.5975 0.18345 0
M  V30 12014 O 1130.94 1.74147 -0.0429623 0
M  V30 12015 C 1128.08 3.40333 -0.196471 0
M  V30 12016 H 1129.27 2.44835 -1.73193 0
M  V30 12017 H 1126.82 1.25399 -0.932997 0
M  V30 12018 H 1127.56 3.15735 0.740388 0
M  V30 12019 H 1127.34 3.81444 -0.907886 0
M  V30 12020 H 1128.83 4.17598 0.0139264 0
M  V30 12021 N 1129.27 0.921757 1.27833 0
M  V30 12022 C 1130.68 0.621102 1.47019 0
M  V30 12023 C 1130.88 -0.831338 1.83551 0
M  V30 12024 O 1129.94 -1.60974 1.94534 0
M  V30 12025 C 1131.25 1.56588 2.56712 0
M  V30 12026 C 1132.8 1.57346 2.70576 0
M  V30 12027 C 1133.28 2.50505 3.8342 0
M  V30 12028 N 1134.77 2.48678 3.90786 0
M  V30 12029 C 1135.5 3.17454 4.77505 0
M  V30 12030 N 1135 3.95588 5.68755 0
M  V30 12031 N 1136.79 3.06501 4.71183 0
M  V30 12032 H 1128.94 1.86085 1.02403 0
M  V30 12033 H 1131.21 0.798595 0.510833 0
M  V30 12034 H 1130.91 2.60175 2.36647 0
M  V30 12035 H 1130.79 1.30305 3.53978 0
M  V30 12036 H 1133.17 0.544919 2.90025 0
M  V30 12037 H 1133.25 1.87675 1.73815 0
M  V30 12038 H 1132.9 3.53466 3.64725 0
M  V30 12039 H 1132.83 2.17474 4.79596 0
M  V30 12040 H 1135.32 1.91928 3.25534 0
M  V30 12041 H 1135.63 4.45066 6.31772 0
M  V30 12042 H 1133.98 3.99692 5.6857 0
M  V30 12043 H 1137.17 2.44958 3.9889 0
M  V30 12044 H 1137.34 3.60372 5.3855 0
M  V30 12045 N 1130.75 -1.41857 0.686609 0
M  V30 12046 C 1131.71 -2.29187 0.0247022 0
M  V30 12047 C 1132.71 -1.43926 -0.717069 0
M  V30 12048 O 1133.9 -1.65179 -0.5533 0
M  V30 12049 C 1131.03 -3.26644 -0.975537 0
M  V30 12050 H 1132.22 -2.89212 0.793503 0
M  V30 12051 H 1129.78 -1.49694 0.449605 0
M  V30 12052 H 1130.51 -2.7158 -1.77242 0
M  V30 12053 H 1130.3 -3.89545 -0.446892 0
M  V30 12054 H 1131.79 -3.92107 -1.43673 0
M  V30 12055 N 1132.22 -0.430739 -1.51599 0
M  V30 12056 C 1133.47 0.138133 -2.02329 0
M  V30 12057 C 1133.8 1.42934 -1.31466 0
M  V30 12058 O 1133.08 1.89743 -0.427551 0
M  V30 12059 C 1133.36 0.363677 -3.58259 0
M  V30 12060 C 1133.21 -0.94572 -4.39746 0
M  V30 12061 C 1134.53 1.13637 -4.25176 0
M  V30 12062 H 1131.65 0.0487287 -0.735387 0
M  V30 12063 H 1134.29 -0.568444 -1.81297 0
M  V30 12064 H 1132.44 0.965552 -3.7631 0
M  V30 12065 H 1134.12 -1.58107 -4.33359 0
M  V30 12066 H 1132.36 -1.55183 -4.05094 0
M  V30 12067 H 1133.03 -0.742031 -5.4699 0
M  V30 12068 H 1135.51 0.626608 -4.11355 0
M  V30 12069 H 1134.38 1.26294 -5.34173 0
M  V30 12070 H 1134.64 2.16273 -3.85588 0
M  V30 12071 N 1133.7 1.56767 -0.161869 0
M  V30 12072 C 1134.93 2.00673 0.491314 0
M  V30 12073 C 1135.34 1.04111 1.5798 0
M  V30 12074 O 1134.68 0.0324889 1.83671 0
M  V30 12075 C 1134.75 3.41011 1.13806 0
M  V30 12076 C 1134.41 4.56595 0.192384 0
M  V30 12077 C 1135.41 5.16591 -0.585671 0
M  V30 12078 C 1133.09 5.02218 0.0909594 0
M  V30 12079 C 1135.09 6.20631 -1.45245 0
M  V30 12080 C 1132.77 6.06109 -0.77941 0
M  V30 12081 C 1133.77 6.65187 -1.54971 0
M  V30 12082 O 1133.46 7.67065 -2.40555 0
M  V30 12083 H 1133.19 0.663174 0.131059 0
M  V30 12084 H 1135.74 2.03775 -0.257896 0
M  V30 12085 H 1133.97 3.34793 1.93521 0
M  V30 12086 H 1135.66 3.68931 1.69248 0
M  V30 12087 H 1136.43 4.82232 -0.517432 0
M  V30 12088 H 1132.31 4.55953 0.680292 0
M  V30 12089 H 1135.85 6.66671 -2.05415 0
M  V30 12090 H 1131.75 6.39894 -0.848887 0
M  V30 12091 H 1132.52 7.84348 -2.33966 0
M  V30 12092 N 1135.18 -0.111886 1.57202 0
M  V30 12093 C 1136.6 -0.465629 1.52657 0
M  V30 12094 C 1136.8 -1.81463 0.875989 0
M  V30 12095 O 1135.85 -2.4825 0.461345 0
M  V30 12096 C 1137.17 -0.443571 2.9741 0
M  V30 12097 C 1138.71 -0.52662 3.08538 0
M  V30 12098 C 1139.19 -0.53488 4.54866 0
M  V30 12099 N 1140.68 -0.596117 4.59348 0
M  V30 12100 C 1141.41 -0.624073 5.69994 0
M  V30 12101 N 1140.91 -0.609245 6.90116 0
M  V30 12102 N 1142.7 -0.667619 5.58121 0
M  V30 12103 H 1134.85 0.771925 1.97876 0
M  V30 12104 H 1137.12 0.285534 0.903977 0
M  V30 12105 H 1136.82 0.480138 3.48407 0
M  V30 12106 H 1136.7 -1.26876 3.55221 0
M  V30 12107 H 1139.08 -1.44075 2.57539 0
M  V30 12108 H 1139.17 0.326396 2.53709 0
M  V30 12109 H 1138.81 0.375233 5.06512 0
M  V30 12110 H 1138.74 -1.40488 5.07514 0
M  V30 12111 H 1141.23 -0.613452 3.72888 0
M  V30 12112 H 1141.54 -0.633396 7.702 0
M  V30 12113 H 1139.89 -0.576557 6.92604 0
M  V30 12114 H 1143.08 -0.676616 4.63184 0
M  V30 12115 H 1143.25 -0.685938 6.44359 0
M  V30 12116 N 1136.66 -1.52894 -0.382264 0
M  V30 12117 C 1137.61 -1.78151 -1.46734 0
M  V30 12118 C 1138.58 -0.625034 -1.53891 0
M  V30 12119 O 1139.76 -0.865467 -1.70042 0
M  V30 12120 C 1136.9 -1.96223 -2.83885 0
M  V30 12121 C 1136.01 -3.23925 -2.85826 0
M  V30 12122 C 1135.15 -3.32277 -4.14446 0
M  V30 12123 C 1134.19 -4.54076 -4.10465 0
M  V30 12124 N 1133.32 -4.59672 -5.30703 0
M  V30 12125 H 1138.16 -2.70748 -1.24497 0
M  V30 12126 H 1135.7 -1.34135 -0.603838 0
M  V30 12127 H 1137.66 -2.04686 -3.63537 0
M  V30 12128 H 1136.29 -1.0698 -3.04557 0
M  V30 12129 H 1135.34 -3.245 -1.98505 0
M  V30 12130 H 1136.65 -4.1364 -2.78754 0
M  V30 12131 H 1135.81 -3.3996 -5.02506 0
M  V30 12132 H 1134.55 -2.40548 -4.2425 0
M  V30 12133 H 1133.55 -4.46511 -3.20793 0
M  V30 12134 H 1134.78 -5.47128 -4.02278 0
M  V30 12135 H 1132.72 -3.70838 -5.41124 0
M  V30 12136 H 1132.64 -5.43268 -5.25734 0
M  V30 12137 H 1133.91 -4.71618 -6.20642 0
M  V30 12138 N 1138.14 0.641106 -1.43971 0
M  V30 12139 C 1139.1 1.73539 -1.49723 0
M  V30 12140 C 1140.1 1.56235 -0.380438 0
M  V30 12141 O 1141.29 1.61912 -0.642673 0
M  V30 12142 C 1138.42 3.1253 -1.36153 0
M  V30 12143 H 1139.62 1.69816 -2.47189 0
M  V30 12144 H 1137.17 0.853867 -1.30915 0
M  V30 12145 H 1137.9 3.21856 -0.39742 0
M  V30 12146 H 1137.69 3.26496 -2.17124 0
M  V30 12147 H 1139.18 3.92303 -1.43138 0
M  V30 12148 N 1139.62 1.30703 0.880598 0
M  V30 12149 C 1140.58 1.17429 1.96832 0
M  V30 12150 C 1141.58 0.104305 1.60461 0
M  V30 12151 O 1142.77 0.352758 1.70591 0
M  V30 12152 C 1139.9 0.800099 3.31378 0
M  V30 12153 H 1141.09 2.14069 2.10034 0
M  V30 12154 H 1138.65 1.14162 1.06755 0
M  V30 12155 H 1139.38 -0.165606 3.23877 0
M  V30 12156 H 1139.17 1.57341 3.59146 0
M  V30 12157 H 1140.66 0.730826 4.11155 0
M  V30 12158 N 1141.09 -1.09351 1.1349 0
M  V30 12159 C 1142.34 -1.81812 0.898452 0
M  V30 12160 C 1142.67 -1.85525 -0.573959 0
M  V30 12161 O 1141.95 -1.32403 -1.42477 0
M  V30 12162 C 1142.23 -3.27921 1.48794 0
M  V30 12163 C 1142.08 -3.32476 3.02952 0
M  V30 12164 C 1143.4 -4.24625 1.15678 0
M  V30 12165 H 1140.52 -0.660074 0.327829 0
M  V30 12166 H 1143.16 -1.28091 1.40331 0
M  V30 12167 H 1141.31 -3.738 1.05858 0
M  V30 12168 H 1142.99 -2.94994 3.54649 0
M  V30 12169 H 1141.23 -2.72037 3.37903 0
M  V30 12170 H 1141.9 -4.35409 3.39298 0
M  V30 12171 H 1144.38 -3.87036 1.52781 0
M  V30 12172 H 1143.25 -5.25194 1.59571 0
M  V30 12173 H 1143.51 -4.42044 0.0705933 0
M  V30 12174 N 1142.57 -0.928524 -1.27343 0
M  V30 12175 C 1143.8 -0.584884 -1.98148 0
M  V30 12176 C 1144.21 0.841603 -1.69451 0
M  V30 12177 O 1143.55 1.57104 -0.952053 0
M  V30 12178 C 1143.61 -0.731911 -3.51971 0
M  V30 12179 C 1143.28 -2.13067 -4.04291 0
M  V30 12180 C 1144.28 -3.10492 -4.17002 0
M  V30 12181 C 1141.96 -2.44784 -4.38619 0
M  V30 12182 C 1143.95 -4.37742 -4.63315 0
M  V30 12183 C 1141.64 -3.72269 -4.84622 0
M  V30 12184 C 1142.64 -4.68562 -4.9693 0
M  V30 12185 O 1142.33 -5.93779 -5.41924 0
M  V30 12186 H 1142.06 -0.220347 -0.63908 0
M  V30 12187 H 1144.61 -1.24799 -1.63139 0
M  V30 12188 H 1142.84 -0.0116966 -3.86698 0
M  V30 12189 H 1144.53 -0.393206 -4.03991 0
M  V30 12190 H 1145.3 -2.8731 -3.9074 0
M  V30 12191 H 1141.18 -1.70577 -4.28281 0
M  V30 12192 H 1144.72 -5.12905 -4.72836 0
M  V30 12193 H 1140.62 -3.95269 -5.10326 0
M  V30 12194 H 1141.39 -5.96779 -5.60176 0
M  V30 12195 N 1144.05 1.41491 -0.694123 0
M  V30 12196 C 1144.98 2.33462 -0.0422169 0
M  V30 12197 C 1145.96 1.51739 0.76872 0
M  V30 12198 O 1147.15 1.8028 0.721985 0
M  V30 12199 C 1144.28 3.35545 0.895925 0
M  V30 12200 C 1143.23 4.27568 0.192188 0
M  V30 12201 C 1142.56 5.20014 1.24459 0
M  V30 12202 C 1143.86 5.1376 -0.940626 0
M  V30 12203 H 1145.55 2.88225 -0.810363 0
M  V30 12204 H 1143.1 1.38586 -0.39114 0
M  V30 12205 H 1145.05 3.9881 1.36121 0
M  V30 12206 H 1143.77 2.79129 1.69572 0
M  V30 12207 H 1142.43 3.65726 -0.25305 0
M  V30 12208 H 1142.08 4.59913 2.03687 0
M  V30 12209 H 1141.78 5.82417 0.778734 0
M  V30 12210 H 1143.3 5.86155 1.71041 0
M  V30 12211 H 1144.72 5.70601 -0.555692 0
M  V30 12212 H 1143.11 5.85097 -1.33349 0
M  V30 12213 H 1144.18 4.51011 -1.78093 0
M  V30 12214 N 1145.53 0.438773 1.51369 0
M  V30 12215 C 1146.46 -0.362467 2.3067 0
M  V30 12216 C 1147.44 -1.01973 1.36145 0
M  V30 12217 O 1148.62 -1.0231 1.65065 0
M  V30 12218 C 1145.75 -1.46313 3.14976 0
M  V30 12219 C 1144.71 -0.929272 4.1779 0
M  V30 12220 C 1144.03 -2.12579 4.90627 0
M  V30 12221 C 1145.33 0.0372782 5.22287 0
M  V30 12222 H 1147.03 0.29931 2.979 0
M  V30 12223 H 1144.57 0.14539 1.43264 0
M  V30 12224 H 1146.53 -2.03088 3.69233 0
M  V30 12225 H 1145.25 -2.15321 2.45569 0
M  V30 12226 H 1143.91 -0.383722 3.64586 0
M  V30 12227 H 1143.56 -2.8021 4.17722 0
M  V30 12228 H 1143.26 -1.77496 5.60151 0
M  V30 12229 H 1144.78 -2.69905 5.47708 0
M  V30 12230 H 1146.2 -0.44022 5.71607 0
M  V30 12231 H 1144.59 0.300748 5.99346 0
M  V30 12232 H 1145.66 0.973503 4.75027 0
M  V30 12233 N 1147.01 -1.56678 0.170181 0
M  V30 12234 C 1148.28 -1.88524 -0.521362 0
M  V30 12235 C 1148.66 -1.07989 -1.81388 0
M  V30 12236 O 1148.01 -0.17347 -2.27841 0
M  V30 12237 C 1148.22 -3.40527 -0.764367 0
M  V30 12238 C 1149.57 -4.10241 -1.09487 0
M  V30 12239 O 1150.59 -3.45837 -0.852945 0
M  V30 12240 O 1149.45 -5.24022 -1.55124 0
M  V30 12241 H 1146.55 -0.782161 -0.268614 0
M  V30 12242 H 1149.09 -1.68414 0.208531 0
M  V30 12243 H 1147.86 -3.91015 0.149416 0
M  V30 12244 H 1147.49 -3.66244 -1.54762 0
M  V30 12245 N 1148.48 0.103547 -1.57259 0
M  V30 12246 C 1149.76 0.839768 -1.76656 0
M  V30 12247 C 1150.14 1.9734 -0.749666 0
M  V30 12248 O 1149.49 2.27405 0.223466 0
M  V30 12249 C 1149.7 1.34218 -3.22159 0
M  V30 12250 C 1151.05 1.78835 -3.85102 0
M  V30 12251 O 1152.07 1.43861 -3.25857 0
M  V30 12252 O 1150.93 2.43474 -4.89267 0
M  V30 12253 H 1148.02 0.399928 -0.723869 0
M  V30 12254 H 1150.57 0.0860857 -1.69482 0
M  V30 12255 H 1149.34 0.52956 -3.877 0
M  V30 12256 H 1148.96 2.15811 -3.33933 0
M  V30 12257 N 1149.96 1.53094 0.37415 0
M  V30 12258 C 1151.37 1.60641 0.951381 0
M  V30 12259 C 1151.72 0.468474 1.90525 0
M  V30 12260 O 1150.85 -0.406347 2.12551 0
M  V30 12261 C 1151.44 2.91166 1.73228 0
M  V30 12262 C 1150 3.01077 2.25898 0
M  V30 12263 C 1149.15 2.55873 1.06885 0
M  V30 12264 H 1152.1 1.57959 0.153214 0
M  V30 12265 H 1152.12 2.78487 2.59278 0
M  V30 12266 H 1151.63 3.73968 1.03778 0
M  V30 12267 H 1149.73 2.22844 2.98615 0
M  V30 12268 H 1149.85 4.05998 2.54367 0
M  V30 12269 H 1148.21 2.10544 1.43329 0
M  V30 12270 H 1148.99 3.41084 0.38947 0
M  V30 12271 N 1151.44 -0.633461 1.44309 0
M  V30 12272 C 1152.37 -1.75676 1.53819 0
M  V30 12273 C 1153.35 -1.65537 0.391365 0
M  V30 12274 O 1154.54 -1.84332 0.611181 0
M  V30 12275 C 1151.67 -3.14197 1.47979 0
M  V30 12276 C 1150.62 -3.39122 2.61113 0
M  V30 12277 C 1149.95 -4.77648 2.40325 0
M  V30 12278 C 1151.25 -3.31914 4.03274 0
M  V30 12279 H 1152.94 -1.67974 2.47841 0
M  V30 12280 H 1150.49 -0.8067 1.19283 0
M  V30 12281 H 1152.44 -3.92553 1.53233 0
M  V30 12282 H 1151.16 -3.22677 0.504718 0
M  V30 12283 H 1149.82 -2.63145 2.55245 0
M  V30 12284 H 1149.47 -4.82829 1.41016 0
M  V30 12285 H 1149.17 -4.95284 3.16177 0
M  V30 12286 H 1150.69 -5.58237 2.47394 0
M  V30 12287 H 1152.11 -4.00178 4.10524 0
M  V30 12288 H 1150.5 -3.61085 4.7931 0
M  V30 12289 H 1151.57 -2.29761 4.2701 0
M  V30 12290 N 1152.92 -1.31168 -0.873655 0
M  V30 12291 C 1153.88 -1.18471 -1.96207 0
M  V30 12292 C 1154.88 -0.112814 -1.60404 0
M  V30 12293 O 1156.07 -0.3618 -1.70401 0
M  V30 12294 C 1153.2 -0.817662 -3.30949 0
M  V30 12295 H 1154.4 -2.1518 -2.08896 0
M  V30 12296 H 1151.95 -1.14727 -1.06149 0
M  V30 12297 H 1152.68 0.148428 -3.2396 0
M  V30 12298 H 1152.47 -1.59244 -3.58307 0
M  V30 12299 H 1153.96 -0.75262 -4.10762 0
M  V30 12300 N 1154.4 1.08748 -1.14068 0
M  V30 12301 C 1155.36 2.1375 -0.827266 0
M  V30 12302 C 1156.36 1.59936 0.166496 0
M  V30 12303 O 1157.55 1.74092 -0.0614305 0
M  V30 12304 C 1154.68 3.40106 -0.232557 0
M  V30 12305 H 1155.87 2.42985 -1.7578 0
M  V30 12306 H 1153.43 1.24402 -0.946244 0
M  V30 12307 H 1154.16 3.16503 0.706859 0
M  V30 12308 H 1153.95 3.8046 -0.948293 0
M  V30 12309 H 1155.44 4.17589 -0.0303662 0
M  V30 12310 N 1155.87 0.935264 1.26849 0
M  V30 12311 C 1156.8 0.457776 2.28969 0
M  V30 12312 C 1157.79 -0.48587 1.63013 0
M  V30 12313 O 1158.97 -0.388998 1.90264 0
M  V30 12314 C 1156.1 -0.283332 3.46142 0
M  V30 12315 C 1155.05 0.573196 4.24144 0
M  V30 12316 C 1154.38 -0.297525 5.33872 0
M  V30 12317 C 1155.68 1.84153 4.88759 0
M  V30 12318 H 1157.37 1.31125 2.69159 0
M  V30 12319 H 1154.92 0.631956 1.29392 0
M  V30 12320 H 1156.87 -0.628366 4.16689 0
M  V30 12321 H 1155.6 -1.1709 3.04889 0
M  V30 12322 H 1154.26 0.901043 3.55354 0
M  V30 12323 H 1153.9 -1.18427 4.8886 0
M  V30 12324 H 1153.6 0.272126 5.8697 0
M  V30 12325 H 1155.13 -0.637961 6.07258 0
M  V30 12326 H 1156.54 1.5641 5.51551 0
M  V30 12327 H 1154.94 2.35528 5.51948 0
M  V30 12328 H 1156.01 2.5565 4.12033 0
M  V30 12329 N 1157.35 -1.41121 0.701616 0
M  V30 12330 C 1158.63 -1.9492 0.162911 0
M  V30 12331 C 1159.01 -1.64064 -1.32839 0
M  V30 12332 O 1158.36 -0.950848 -2.07777 0
M  V30 12333 C 1158.57 -3.45946 0.460673 0
M  V30 12334 C 1159.92 -4.22789 0.391706 0
M  V30 12335 O 1160.94 -3.53993 0.395931 0
M  V30 12336 O 1159.8 -5.45332 0.357071 0
M  V30 12337 H 1156.89 -0.826793 0.0185103 0
M  V30 12338 H 1159.44 -1.50805 0.778192 0
M  V30 12339 H 1158.21 -3.61711 1.49269 0
M  V30 12340 H 1157.83 -3.97168 -0.185277 0
M  V30 12341 N 1158.83 -0.446794 -1.51134 0
M  V30 12342 C 1159.79 0.348311 -2.26538 0
M  V30 12343 C 1160.79 0.941566 -1.3035 0
M  V30 12344 O 1161.98 0.814537 -1.53984 0
M  V30 12345 C 1159.12 1.49371 -3.06433 0
M  V30 12346 H 1160.31 -0.312648 -2.98266 0
M  V30 12347 H 1157.86 -0.200201 -1.55013 0
M  V30 12348 H 1158.6 2.19045 -2.39144 0
M  V30 12349 H 1158.38 1.07439 -3.77093 0
M  V30 12350 H 1159.87 2.05522 -3.63525 0
M  V30 12351 N 1160.31 1.56586 -0.178487 0
M  V30 12352 C 1161.26 2.1491 0.761432 0
M  V30 12353 C 1162.24 1.08528 1.18788 0
M  V30 12354 O 1163.43 1.34633 1.14904 0
M  V30 12355 C 1160.56 2.79902 1.98771 0
M  V30 12356 C 1159.65 3.93452 1.58293 0
M  V30 12357 N 1160.04 4.97942 0.888124 0
M  V30 12358 C 1158.34 4.04745 1.87343 0
M  V30 12359 C 1159.04 5.7762 0.68772 0
M  V30 12360 N 1158.02 5.2947 1.23136 0
M  V30 12361 H 1161.82 2.93063 0.221693 0
M  V30 12362 H 1159.33 1.62385 0.0219283 0
M  V30 12363 H 1161.33 3.20067 2.67138 0
M  V30 12364 H 1159.99 2.03232 2.53233 0
M  V30 12365 H 1161 5.1502 0.545387 0
M  V30 12366 H 1157.68 3.39186 2.43432 0
M  V30 12367 H 1159.07 6.71759 0.13775 0
M  V30 12368 N 1161.79 -0.095206 1.57312 0
M  V30 12369 C 1163.03 -0.799903 1.86358 0
M  V30 12370 C 1163.37 -1.78386 0.767593 0
M  V30 12371 O 1162.64 -1.93201 -0.224439 0
M  V30 12372 C 1162.92 -1.52875 3.26039 0
M  V30 12373 C 1162.78 -0.562781 4.46265 0
M  V30 12374 C 1164.1 -2.47935 3.63616 0
M  V30 12375 H 1161.21 -0.289339 0.677829 0
M  V30 12376 H 1163.86 -0.0635369 1.89894 0
M  V30 12377 H 1162.01 -2.15645 3.23156 0
M  V30 12378 H 1163.68 0.0579068 4.61264 0
M  V30 12379 H 1161.92 0.123847 4.33623 0
M  V30 12380 H 1162.59 -1.10989 5.40727 0
M  V30 12381 H 1165.07 -1.95257 3.67442 0
M  V30 12382 H 1163.94 -2.95948 4.62283 0
M  V30 12383 H 1164.21 -3.31687 2.92294 0
M  V30 12384 N 1163.26 -1.53291 -0.366026 0
M  V30 12385 C 1164.51 -1.69117 -1.10653 0
M  V30 12386 C 1164.83 -0.445327 -1.89847 0
M  V30 12387 O 1164.1 0.540616 -1.88293 0
M  V30 12388 H 1162.68 -0.623446 -0.41149 0
M  V30 12389 H 1165.35 -1.90479 -0.412749 0
M  V30 12390 H 1164.44 -2.55205 -1.79658 0
M  V30 12391 N 1164.74 0.6258 -1.44643 0
M  V30 12392 C 1165.67 1.75086 -1.47911 0
M  V30 12393 C 1166.69 1.58496 -0.37188 0
M  V30 12394 O 1167.88 1.66712 -0.637925 0
M  V30 12395 C 1164.98 3.12874 -1.30243 0
M  V30 12396 C 1164.15 3.55873 -2.54309 0
M  V30 12397 C 1163.21 4.72558 -2.31464 0
M  V30 12398 O 1162.23 4.80599 -3.04981 0
M  V30 12399 N 1163.44 5.64617 -1.34862 0
M  V30 12400 H 1166.2 1.72751 -2.44902 0
M  V30 12401 H 1163.76 0.810531 -1.4015 0
M  V30 12402 H 1165.75 3.88663 -1.12798 0
M  V30 12403 H 1164.32 3.0982 -0.415966 0
M  V30 12404 H 1163.54 2.70237 -2.86994 0
M  V30 12405 H 1164.83 3.81355 -3.36817 0
M  V30 12406 H 1164.23 5.60819 -0.741542 0
M  V30 12407 H 1162.79 6.40013 -1.23394 0
M  V30 12408 N 1166.22 1.31629 0.866686 0
M  V30 12409 C 1167.17 1.16149 1.96197 0
M  V30 12410 C 1168.15 0.0716068 1.60741 0
M  V30 12411 O 1169.35 0.296868 1.74493 0
M  V30 12412 C 1166.48 0.874322 3.3198 0
M  V30 12413 C 1165.56 2.00534 3.73693 0
M  V30 12414 N 1165.95 3.25272 3.87339 0
M  V30 12415 C 1164.25 1.90582 4.0323 0
M  V30 12416 C 1164.95 3.99275 4.2303 0
M  V30 12417 N 1163.93 3.27471 4.33894 0
M  V30 12418 H 1167.73 2.10732 2.04864 0
M  V30 12419 H 1165.24 1.23234 1.05769 0
M  V30 12420 H 1167.24 0.7444 4.102 0
M  V30 12421 H 1165.9 -0.0632521 3.24638 0
M  V30 12422 H 1166.91 3.60349 3.71979 0
M  V30 12423 H 1163.59 1.0431 4.0426 0
M  V30 12424 H 1164.98 5.06784 4.41157 0
M  V30 12425 N 1167.7 -1.08142 1.14644 0
M  V30 12426 C 1168.95 -1.80849 0.917685 0
M  V30 12427 C 1169.28 -1.86123 -0.554249 0
M  V30 12428 O 1168.55 -1.33907 -1.41065 0
M  V30 12429 C 1168.84 -3.26325 1.52264 0
M  V30 12430 C 1168.69 -3.29244 3.06461 0
M  V30 12431 C 1170.01 -4.23375 1.20175 0
M  V30 12432 H 1167.13 -0.656559 0.334812 0
M  V30 12433 H 1169.77 -1.26595 1.41682 0
M  V30 12434 H 1167.92 -3.72656 1.09817 0
M  V30 12435 H 1169.59 -2.91216 3.57758 0
M  V30 12436 H 1167.83 -2.68438 3.40769 0
M  V30 12437 H 1168.51 -4.31785 3.43897 0
M  V30 12438 H 1170.98 -3.85394 1.56877 0
M  V30 12439 H 1169.86 -5.23472 1.65132 0
M  V30 12440 H 1170.12 -4.41944 0.117474 0
M  V30 12441 N 1169.18 -0.941978 -1.26351 0
M  V30 12442 C 1170.42 -0.589971 -1.93715 0
M  V30 12443 C 1170.75 0.871085 -1.73903 0
M  V30 12444 O 1170.01 1.63864 -1.06991 0
M  V30 12445 C 1170.31 -0.879481 -3.4641 0
M  V30 12446 C 1169.97 -2.32454 -3.86362 0
M  V30 12447 C 1168.63 -2.71957 -3.9698 0
M  V30 12448 C 1170.99 -3.2636 -4.06373 0
M  V30 12449 C 1168.31 -4.04459 -4.25006 0
M  V30 12450 C 1170.67 -4.58459 -4.35887 0
M  V30 12451 C 1169.33 -4.97775 -4.4472 0
M  V30 12452 H 1168.6 -0.215886 -0.708854 0
M  V30 12453 H 1171.25 -1.18863 -1.50146 0
M  V30 12454 H 1169.55 -0.198289 -3.91298 0
M  V30 12455 H 1171.25 -0.585887 -3.96697 0
M  V30 12456 H 1167.84 -2.00814 -3.78645 0
M  V30 12457 H 1172.02 -2.97037 -3.97596 0
M  V30 12458 H 1167.28 -4.34582 -4.30057 0
M  V30 12459 H 1171.45 -5.31213 -4.50317 0
M  V30 12460 H 1169.08 -6.00475 -4.66191 0
M  V30 12461 N 1170.66 1.40747 -0.709091 0
M  V30 12462 C 1171.6 2.32564 -0.0411392 0
M  V30 12463 C 1172.6 1.51692 0.75404 0
M  V30 12464 O 1173.8 1.67537 0.658139 0
M  V30 12465 H 1170.18 0.75198 0.00549889 0
M  V30 12466 H 1172.15 2.86556 -0.83235 0
M  V30 12467 C 1170.9 3.36604 0.871378 0
M  V30 12468 H 1170.22 3.98895 0.268912 0
M  V30 12469 H 1171.66 4.03359 1.30682 0
M  V30 12470 C 1170.12 2.71566 1.99384 0
M  V30 12471 O 1170.65 2.57392 3.08403 0
M  V30 12472 N 1168.86 2.3005 1.77554 0
M  V30 12473 H 1168.4 2.41778 0.888898 0
M  V30 12474 H 1168.36 1.8687 2.52838 0
M  V30 12475 N 1172.13 0.454803 1.50895 0
M  V30 12476 C 1173.07 -0.383826 2.25963 0
M  V30 12477 C 1174.08 -0.971263 1.30653 0
M  V30 12478 O 1175.27 -0.862434 1.56283 0
M  V30 12479 C 1172.37 -1.55069 3.01342 0
M  V30 12480 C 1171.54 -1.07899 4.23883 0
M  V30 12481 C 1170.6 -2.118 4.81692 0
M  V30 12482 O 1169.63 -1.70523 5.43057 0
M  V30 12483 N 1170.83 -3.44459 4.67256 0
M  V30 12484 H 1173.59 0.259646 2.98573 0
M  V30 12485 H 1171.15 0.284661 1.59378 0
M  V30 12486 H 1173.15 -2.24236 3.36898 0
M  V30 12487 H 1171.72 -2.09917 2.31633 0
M  V30 12488 H 1170.94 -0.213773 3.9362 0
M  V30 12489 H 1172.22 -0.741501 5.03368 0
M  V30 12490 H 1171.62 -3.80716 4.18416 0
M  V30 12491 H 1170.18 -4.0947 5.07127 0
M  V30 12492 N 1173.61 -1.56489 0.186789 0
M  V30 12493 C 1174.86 -1.97634 -0.454831 0
M  V30 12494 C 1175.19 -1.07334 -1.61843 0
M  V30 12495 O 1174.47 -0.123612 -1.94107 0
M  V30 12496 C 1174.75 -3.48071 -0.922962 0
M  V30 12497 C 1174.6 -4.49149 0.241877 0
M  V30 12498 C 1175.92 -4.01994 -1.79134 0
M  V30 12499 H 1173.04 -0.718555 -0.163854 0
M  V30 12500 H 1175.68 -1.87984 0.27604 0
M  V30 12501 H 1173.83 -3.56425 -1.54575 0
M  V30 12502 H 1175.5 -4.52841 0.87936 0
M  V30 12503 H 1173.75 -4.24468 0.894964 0
M  V30 12504 H 1174.42 -5.51851 -0.128051 0
M  V30 12505 H 1176.89 -3.96367 -1.26618 0
M  V30 12506 H 1175.77 -5.07641 -2.08787 0
M  V30 12507 H 1176.03 -3.46747 -2.74261 0
M  V30 12508 N 1175.09 0.086862 -1.5736 0
M  V30 12509 C 1176.34 0.787581 -1.85688 0
M  V30 12510 C 1176.65 1.79494 -0.777263 0
M  V30 12511 O 1177.86 2.54415 -0.947914 0
M  V30 12512 C 1176.31 1.45155 -3.2933 0
M  V30 12513 C 1175.92 0.483539 -4.45383 0
M  V30 12514 C 1177.67 2.13552 -3.66873 0
M  V30 12515 C 1175.57 1.15257 -5.8006 0
M  V30 12516 H 1174.5 0.297882 -0.692663 0
M  V30 12517 H 1177.15 0.0406299 -1.83455 0
M  V30 12518 H 1175.54 2.24625 -3.26128 0
M  V30 12519 H 1176.71 -0.280254 -4.59947 0
M  V30 12520 H 1175.02 -0.0951664 -4.16291 0
M  V30 12521 H 1177.62 2.64355 -4.6478 0
M  V30 12522 H 1177.96 2.92818 -2.95911 0
M  V30 12523 H 1178.5 1.40932 -3.71999 0
M  V30 12524 H 1175.24 0.400546 -6.54275 0
M  V30 12525 H 1174.76 1.88759 -5.69324 0
M  V30 12526 H 1176.44 1.67671 -6.24896 0
M  V30 12527 N 1176.57 1.53483 0.357892 0
M  V30 12528 C 1177.82 1.69701 1.09754 0
M  V30 12529 C 1178.14 0.455389 1.89608 0
M  V30 12530 O 1177.41 -0.530623 1.88577 0
M  V30 12531 H 1175.99 0.62562 0.408178 0
M  V30 12532 H 1178.65 1.90696 0.402641 0
M  V30 12533 H 1177.74 2.56154 1.78302 0
M  V30 12534 N 1178.05 -0.61812 1.44973 0
M  V30 12535 C 1179.46 -1.19994 1.43033 0
M  V30 12536 C 1179.81 -1.95607 0.152422 0
M  V30 12537 O 1178.93 -2.03114 -0.746571 0
M  V30 12538 C 1179.53 -2.18269 2.59122 0
M  V30 12539 C 1178.09 -2.7185 2.60336 0
M  V30 12540 C 1177.23 -1.4707 2.35086 0
M  V30 12541 H 1180.18 -0.408034 1.53365 0
M  V30 12542 H 1180.21 -3.01113 2.32619 0
M  V30 12543 H 1179.72 -1.63208 3.52115 0
M  V30 12544 H 1177.82 -3.30878 1.7132 0
M  V30 12545 H 1177.93 -3.17001 3.59231 0
M  V30 12546 H 1176.3 -1.75658 1.84435 0
M  V30 12547 H 1177.08 -0.938928 3.30211 0
M  V30 12548 N 1179.52 -1.32087 -0.859693 0
M  V30 12549 C 1180.77 -1.22119 -1.61033 0
M  V30 12550 C 1181.09 0.218289 -1.93774 0
M  V30 12551 O 1180.36 1.14172 -1.5919 0
M  V30 12552 H 1178.94 -0.448989 -0.597008 0
M  V30 12553 H 1181.6 -1.65545 -1.02863 0
M  V30 12554 H 1180.7 -1.80023 -2.54947 0
M  V30 12555 N 1181 1.07532 -1.15215 0
M  V30 12556 C 1182.25 1.79737 -0.924062 0
M  V30 12557 C 1182.57 1.87072 0.550356 0
M  V30 12558 O 1181.84 1.37029 1.4 0
M  V30 12559 H 1180.42 0.665704 -0.338891 0
M  V30 12560 H 1183.08 1.29961 -1.45245 0
M  V30 12561 H 1182.18 2.82256 -1.33184 0
M  V30 12562 N 1182.48 0.948665 1.2585 0
M  V30 12563 C 1183.41 0.482036 2.2847 0
M  V30 12564 C 1184.39 -0.468553 1.63519 0
M  V30 12565 O 1185.58 -0.368796 1.90666 0
M  V30 12566 C 1182.71 -0.246603 3.46423 0
M  V30 12567 C 1181.66 0.61815 4.23513 0
M  V30 12568 C 1180.99 -0.240884 5.34157 0
M  V30 12569 C 1182.29 1.89327 4.86778 0
M  V30 12570 H 1183.98 1.33973 2.67753 0
M  V30 12571 H 1181.53 0.645645 1.28715 0
M  V30 12572 H 1183.48 -0.584135 4.17332 0
M  V30 12573 H 1182.2 -1.13849 3.06114 0
M  V30 12574 H 1180.86 0.938682 3.54379 0
M  V30 12575 H 1180.51 -1.13235 4.90089 0
M  V30 12576 H 1180.21 0.334367 5.86648 0
M  V30 12577 H 1181.73 -0.573517 6.07901 0
M  V30 12578 H 1183.15 1.62252 5.49861 0
M  V30 12579 H 1181.55 2.41369 5.49419 0
M  V30 12580 H 1182.62 2.60006 4.09298 0
M  V30 12581 N 1183.96 -1.40369 0.716545 0
M  V30 12582 C 1184.89 -2.33365 0.0793533 0
M  V30 12583 C 1185.87 -1.52943 -0.744482 0
M  V30 12584 O 1187.05 -1.81406 -0.693212 0
M  V30 12585 C 1184.18 -3.36928 -0.842429 0
M  V30 12586 C 1183.14 -4.2782 -0.124142 0
M  V30 12587 C 1182.46 -5.21928 -1.1617 0
M  V30 12588 C 1183.76 -5.12199 1.02224 0
M  V30 12589 H 1185.46 -2.86899 0.856115 0
M  V30 12590 H 1183 -1.37946 0.413138 0
M  V30 12591 H 1184.96 -4.00925 -1.29759 0
M  V30 12592 H 1183.68 -2.81791 -1.6511 0
M  V30 12593 H 1182.34 -3.65277 0.311201 0
M  V30 12594 H 1181.99 -4.63096 -1.96345 0
M  V30 12595 H 1181.69 -5.83582 -0.685978 0
M  V30 12596 H 1183.21 -5.88802 -1.61694 0
M  V30 12597 H 1184.63 -5.69644 0.646399 0
M  V30 12598 H 1183.02 -5.82901 1.4264 0
M  V30 12599 H 1184.09 -4.4812 1.85246 0
M  V30 12600 N 1185.44 -0.462799 -1.50652 0
M  V30 12601 C 1186.37 0.371837 -2.26164 0
M  V30 12602 C 1187.38 0.96432 -1.31167 0
M  V30 12603 O 1188.57 0.854134 -1.56738 0
M  V30 12604 C 1185.67 1.53469 -3.0216 0
M  V30 12605 C 1184.84 1.0565 -4.24449 0
M  V30 12606 C 1183.9 2.09243 -4.82808 0
M  V30 12607 O 1182.93 1.67641 -5.43953 0
M  V30 12608 N 1184.13 3.41976 -4.69076 0
M  V30 12609 H 1186.9 -0.275476 -2.98431 0
M  V30 12610 H 1184.46 -0.293109 -1.59225 0
M  V30 12611 H 1186.45 2.22446 -3.38083 0
M  V30 12612 H 1185.02 2.08685 -2.32743 0
M  V30 12613 H 1184.24 0.192895 -3.93728 0
M  V30 12614 H 1185.53 0.714796 -5.03754 0
M  V30 12615 H 1184.92 3.78491 -4.20429 0
M  V30 12616 H 1183.48 4.06775 -5.09291 0
M  V30 12617 N 1186.91 1.56388 -0.195085 0
M  V30 12618 C 1188.16 1.97189 0.44281 0
M  V30 12619 C 1188.48 1.08312 1.62153 0
M  V30 12620 O 1187.75 0.154404 1.95291 0
M  V30 12621 H 1186.33 0.728188 0.166585 0
M  V30 12622 H 1189 1.92852 -0.281815 0
M  V30 12623 H 1188.09 3.02016 0.786945 0
M  V30 12624 N 1188.39 -0.0785156 1.57404 0
M  V30 12625 C 1189.62 -0.792042 1.9114 0
M  V30 12626 C 1190.04 -1.71458 0.790408 0
M  V30 12627 O 1189.39 -1.80959 -0.236662 0
M  V30 12628 C 1189.44 -1.59138 3.24588 0
M  V30 12629 O 1189.16 -0.705931 4.32375 0
M  V30 12630 C 1190.67 -2.4065 3.72293 0
M  V30 12631 H 1187.89 -0.225566 0.63195 0
M  V30 12632 H 1190.43 -0.0507929 2.04437 0
M  V30 12633 H 1188.58 -2.28498 3.12838 0
M  V30 12634 H 1189 -1.26121 5.09111 0
M  V30 12635 H 1190.47 -2.92204 4.68317 0
M  V30 12636 H 1190.95 -3.1987 3.00965 0
M  V30 12637 H 1191.56 -1.7646 3.86965 0
M  V30 12638 N 1189.87 -1.5367 -0.349747 0
M  V30 12639 C 1191.1 -1.74547 -1.11089 0
M  V30 12640 C 1191.51 -0.481741 -1.82551 0
M  V30 12641 O 1190.87 0.546272 -1.74132 0
M  V30 12642 C 1190.92 -2.92148 -2.12913 0
M  V30 12643 O 1190.64 -4.13633 -1.44358 0
M  V30 12644 C 1192.14 -3.25027 -3.01451 0
M  V30 12645 H 1189.36 -0.583376 -0.331532 0
M  V30 12646 H 1191.91 -2.00473 -0.403841 0
M  V30 12647 H 1190.06 -2.68572 -2.79192 0
M  V30 12648 H 1190.48 -4.79601 -2.12329 0
M  V30 12649 H 1191.95 -4.10679 -3.68845 0
M  V30 12650 H 1192.43 -2.41064 -3.67131 0
M  V30 12651 H 1193.03 -3.50586 -2.40768 0
M  V30 12652 N 1191.35 0.610423 -1.45298 0
M  V30 12653 C 1192.76 0.930872 -1.29642 0
M  V30 12654 C 1192.96 1.99976 -0.247358 0
M  V30 12655 O 1192.02 2.49925 0.359674 0
M  V30 12656 C 1193.33 1.37449 -2.67448 0
M  V30 12657 C 1194.88 1.48885 -2.75322 0
M  V30 12658 C 1195.36 1.96624 -4.13646 0
M  V30 12659 N 1196.85 2.03862 -4.15926 0
M  V30 12660 C 1197.58 2.42015 -5.19823 0
M  V30 12661 N 1197.08 2.79157 -6.34069 0
M  V30 12662 N 1198.87 2.42329 -5.07181 0
M  V30 12663 H 1191.02 -0.0961259 -2.12182 0
M  V30 12664 H 1193.29 0.0196483 -0.947796 0
M  V30 12665 H 1192.99 0.663276 -3.45389 0
M  V30 12666 H 1192.87 2.34155 -2.95721 0
M  V30 12667 H 1195.25 2.19098 -1.97686 0
M  V30 12668 H 1195.33 0.505006 -2.50765 0
M  V30 12669 H 1194.98 1.26998 -4.91766 0
M  V30 12670 H 1194.91 2.95917 -4.35592 0
M  V30 12671 H 1197.4 1.77759 -3.33482 0
M  V30 12672 H 1197.71 3.07143 -7.09142 0
M  V30 12673 H 1196.06 2.7686 -6.37474 0
M  V30 12674 H 1199.25 2.12717 -4.16976 0
M  V30 12675 H 1199.42 2.71738 -5.88271 0
M  V30 12676 N 1192.83 1.32541 0.852676 0
M  V30 12677 C 1194.08 1.22567 1.60188 0
M  V30 12678 C 1194.39 -0.210594 1.94463 0
M  V30 12679 O 1195.59 -0.432214 2.68038 0
M  V30 12680 C 1194.05 2.14678 2.88862 0
M  V30 12681 C 1193.66 3.63398 2.62004 0
M  V30 12682 C 1195.4 2.13545 3.66877 0
M  V30 12683 C 1193.31 4.47464 3.86691 0
M  V30 12684 H 1192.24 0.455184 0.601102 0
M  V30 12685 H 1194.89 1.57515 0.941347 0
M  V30 12686 H 1193.27 1.72647 3.56383 0
M  V30 12687 H 1194.45 4.13783 2.02782 0
M  V30 12688 H 1192.76 3.66681 1.97316 0
M  V30 12689 H 1195.36 2.73589 4.59405 0
M  V30 12690 H 1195.7 1.12694 4.00756 0
M  V30 12691 H 1196.23 2.53866 3.06263 0
M  V30 12692 H 1192.97 5.49136 3.57952 0
M  V30 12693 H 1192.49 4.01829 4.45302 0
M  V30 12694 H 1194.17 4.60565 4.5441 0
M  V30 12695 N 1194.3 -1.0692 1.15784 0
M  V30 12696 C 1195.23 -2.16216 0.881649 0
M  V30 12697 C 1196.22 -1.69253 -0.16951 0
M  V30 12698 O 1197.4 -1.94186 -0.0229511 0
M  V30 12699 C 1194.53 -3.4527 0.374982 0
M  V30 12700 C 1193.48 -4.05706 1.36332 0
M  V30 12701 C 1192.81 -5.29894 0.715317 0
M  V30 12702 C 1194.11 -4.45224 2.7308 0
M  V30 12703 H 1195.8 -2.39577 1.79563 0
M  V30 12704 H 1193.35 -1.15141 0.864784 0
M  V30 12705 H 1195.3 -4.2106 0.169279 0
M  V30 12706 H 1194.03 -3.21508 -0.574485 0
M  V30 12707 H 1192.69 -3.31965 1.55546 0
M  V30 12708 H 1192.33 -5.02425 -0.240436 0
M  V30 12709 H 1192.03 -5.71287 1.37494 0
M  V30 12710 H 1193.56 -6.08386 0.519489 0
M  V30 12711 H 1194.97 -5.12124 2.57686 0
M  V30 12712 H 1193.37 -4.97583 3.35457 0
M  V30 12713 H 1194.44 -3.56384 3.28813 0
M  V30 12714 N 1195.78 -0.955326 -1.25345 0
M  V30 12715 C 1197.03 -0.611388 -1.93365 0
M  V30 12716 C 1197.36 0.84953 -1.74633 0
M  V30 12717 O 1196.64 1.60962 -1.09185 0
M  V30 12718 C 1196.92 -0.971732 -3.46741 0
M  V30 12719 C 1196.77 -2.48843 -3.74696 0
M  V30 12720 C 1198.09 -0.497295 -4.37281 0
M  V30 12721 H 1195.21 -0.223591 -0.702265 0
M  V30 12722 H 1197.85 -1.1921 -1.47949 0
M  V30 12723 H 1196 -0.477568 -3.85554 0
M  V30 12724 H 1197.67 -3.05641 -3.45516 0
M  V30 12725 H 1195.92 -2.92582 -3.20278 0
M  V30 12726 H 1196.59 -2.69107 -4.8196 0
M  V30 12727 H 1199.06 -0.921196 -4.05775 0
M  V30 12728 H 1197.94 -0.778113 -5.43357 0
M  V30 12729 H 1198.2 0.602743 -4.37972 0
M  V30 12730 N 1197.26 1.39987 -0.723979 0
M  V30 12731 C 1198.49 2.05037 -0.27702 0
M  V30 12732 C 1198.9 1.54565 1.08421 0
M  V30 12733 O 1198.26 0.705795 1.683 0
M  V30 12734 C 1198.31 3.60582 -0.25751 0
M  V30 12735 O 1198.03 4.09194 -1.565 0
M  V30 12736 C 1199.53 4.42817 0.206972 0
M  V30 12737 H 1196.75 0.659637 -0.122963 0
M  V30 12738 H 1199.3 1.7924 -0.98454 0
M  V30 12739 H 1197.45 3.85319 0.401037 0
M  V30 12740 H 1197.87 5.03447 -1.47112 0
M  V30 12741 H 1199.34 5.5174 0.16947 0
M  V30 12742 H 1199.82 4.21023 1.25045 0
M  V30 12743 H 1200.42 4.23205 -0.421604 0
M  V30 12744 N 1198.74 0.470782 1.50404 0
M  V30 12745 C 1199.69 -0.342183 2.25418 0
M  V30 12746 C 1200.67 -0.961726 1.28995 0
M  V30 12747 O 1201.87 -0.874327 1.53898 0
M  V30 12748 C 1198.99 -1.42378 3.12383 0
M  V30 12749 C 1198.08 -0.811982 4.16254 0
M  V30 12750 N 1198.47 0.0675245 5.05755 0
M  V30 12751 C 1196.77 -1.07596 4.32827 0
M  V30 12752 C 1197.47 0.414693 5.8022 0
M  V30 12753 N 1196.45 -0.210047 5.43194 0
M  V30 12754 H 1200.25 0.335344 2.91981 0
M  V30 12755 H 1197.76 0.284911 1.59881 0
M  V30 12756 H 1199.76 -2.01936 3.64729 0
M  V30 12757 H 1198.42 -2.1033 2.47369 0
M  V30 12758 H 1199.43 0.436333 5.16059 0
M  V30 12759 H 1196.11 -1.75048 3.79031 0
M  V30 12760 H 1197.5 1.13243 6.62288 0
M  V30 12761 N 1200.22 -1.56282 0.203376 0
M  V30 12762 C 1201.18 -2.18233 -0.700489 0
M  V30 12763 C 1202.18 -1.13908 -1.13497 0
M  V30 12764 O 1203.37 -1.39246 -1.04672 0
M  V30 12765 C 1200.5 -2.79107 -1.95735 0
M  V30 12766 H 1201.7 -2.99469 -0.160649 0
M  V30 12767 H 1199.25 -1.56232 -0.0462475 0
M  V30 12768 H 1199.98 -2.01691 -2.53951 0
M  V30 12769 H 1199.77 -3.55486 -1.65446 0
M  V30 12770 H 1201.26 -3.2665 -2.60172 0
M  V30 12771 N 1201.7 0.070167 -1.57444 0
M  V30 12772 C 1202.63 1.08351 -2.06839 0
M  V30 12773 C 1203.61 1.40269 -0.962224 0
M  V30 12774 O 1204.79 1.49867 -1.23505 0
M  V30 12775 C 1201.92 2.39649 -2.51368 0
M  V30 12776 C 1200.88 2.22079 -3.65875 0
M  V30 12777 C 1200.2 3.58776 -3.96464 0
M  V30 12778 C 1201.5 1.64069 -4.95862 0
M  V30 12779 H 1203.2 0.672465 -2.9175 0
M  V30 12780 H 1200.74 0.322027 -1.40353 0
M  V30 12781 H 1202.69 3.10833 -2.84537 0
M  V30 12782 H 1201.42 2.82736 -1.63487 0
M  V30 12783 H 1200.08 1.53337 -3.32992 0
M  V30 12784 H 1199.73 3.99436 -3.05712 0
M  V30 12785 H 1199.43 3.47859 -4.7357 0
M  V30 12786 H 1200.95 4.31387 -4.32131 0
M  V30 12787 H 1202.36 2.2512 -5.27251 0
M  V30 12788 H 1200.76 1.63843 -5.773 0
M  V30 12789 H 1201.83 0.60232 -4.81145 0
M  V30 12790 N 1203.17 1.53854 0.341593 0
M  V30 12791 C 1204.12 1.7836 1.42028 0
M  V30 12792 C 1205.11 0.638876 1.47673 0
M  V30 12793 O 1206.3 0.898328 1.52509 0
M  V30 12794 C 1203.43 1.99837 2.79142 0
M  V30 12795 C 1202.51 3.20379 2.77881 0
M  V30 12796 N 1202.91 4.41809 2.46249 0
M  V30 12797 C 1201.2 3.21588 3.09026 0
M  V30 12798 C 1201.9 5.23668 2.53271 0
M  V30 12799 N 1200.88 4.60429 2.88974 0
M  V30 12800 H 1204.68 2.69836 1.16472 0
M  V30 12801 H 1202.2 1.52804 0.549966 0
M  V30 12802 H 1204.19 2.15528 3.56866 0
M  V30 12803 H 1202.85 1.09603 3.05642 0
M  V30 12804 H 1203.86 4.69125 2.19413 0
M  V30 12805 H 1200.54 2.41329 3.40686 0
M  V30 12806 H 1201.93 6.30591 2.31958 0
M  V30 12807 N 1204.65 -0.602709 1.4562 0
M  V30 12808 C 1205.9 -1.35769 1.49163 0
M  V30 12809 C 1206.21 -1.95102 0.139485 0
M  V30 12810 O 1207.42 -2.71449 0.0525919 0
M  V30 12811 C 1205.88 -2.45959 2.62739 0
M  V30 12812 C 1205.48 -1.93017 4.04288 0
M  V30 12813 C 1207.23 -3.22926 2.75534 0
M  V30 12814 C 1205.13 -3.00718 5.09237 0
M  V30 12815 H 1204.06 -0.510317 0.555061 0
M  V30 12816 H 1206.72 -0.645434 1.71774 0
M  V30 12817 H 1205.1 -3.19892 2.3342 0
M  V30 12818 H 1206.27 -1.2576 4.43307 0
M  V30 12819 H 1204.59 -1.2878 3.95986 0
M  V30 12820 H 1207.18 -4.03267 3.51112 0
M  V30 12821 H 1207.53 -3.74243 1.82339 0
M  V30 12822 H 1208.06 -2.56095 3.04402 0
M  V30 12823 H 1204.8 -2.54312 6.04157 0
M  V30 12824 H 1204.32 -3.66526 4.74783 0
M  V30 12825 H 1206 -3.65016 5.34202 0
M  V30 12826 N 1206.13 -1.32992 -0.845635 0
M  V30 12827 C 1207.06 -1.25301 -1.97033 0
M  V30 12828 C 1208.04 -0.134966 -1.69564 0
M  V30 12829 O 1209.23 -0.323629 -1.91484 0
M  V30 12830 C 1206.36 -0.984551 -3.33052 0
M  V30 12831 C 1205.31 -2.06481 -3.749 0
M  V30 12832 C 1204.64 -1.6486 -5.08651 0
M  V30 12833 C 1205.94 -3.48083 -3.89404 0
M  V30 12834 H 1207.63 -2.194 -2.03725 0
M  V30 12835 H 1205.18 -1.05621 -0.978783 0
M  V30 12836 H 1207.13 -0.917269 -4.11296 0
M  V30 12837 H 1205.85 -0.00793116 -3.26599 0
M  V30 12838 H 1204.51 -2.1224 -2.98915 0
M  V30 12839 H 1204.16 -0.659183 -4.98662 0
M  V30 12840 H 1203.86 -2.37145 -5.37621 0
M  V30 12841 H 1205.38 -1.59585 -5.89377 0
M  V30 12842 H 1206.8 -3.44863 -4.57976 0
M  V30 12843 H 1205.19 -4.18796 -4.29802 0
M  V30 12844 H 1206.26 -3.87084 -2.92051 0
M  V30 12845 N 1207.61 1.06304 -1.1635 0
M  V30 12846 C 1209.02 1.60566 -0.952652 0
M  V30 12847 C 1209.37 1.8963 0.503473 0
M  V30 12848 O 1208.49 1.66964 1.37666 0
M  V30 12849 C 1209.09 2.9172 -1.72292 0
M  V30 12850 C 1207.65 3.42684 -1.55707 0
M  V30 12851 C 1206.8 2.16579 -1.73172 0
M  V30 12852 H 1209.75 0.892563 -1.31221 0
M  V30 12853 H 1209.77 3.61126 -1.19868 0
M  V30 12854 H 1209.28 2.70535 -2.78267 0
M  V30 12855 H 1207.38 3.68929 -0.521726 0
M  V30 12856 H 1207.49 4.18018 -2.34088 0
M  V30 12857 H 1205.86 2.26795 -1.15914 0
M  V30 12858 H 1206.64 1.97877 -2.80535 0
M  V30 12859 N 1209.09 0.96196 1.24836 0
M  V30 12860 C 1210.02 0.445329 2.24832 0
M  V30 12861 C 1211.03 -0.442797 1.56663 0
M  V30 12862 O 1212.22 -0.249896 1.76742 0
M  V30 12863 C 1209.32 -0.376953 3.36797 0
M  V30 12864 C 1208.49 0.499908 4.34534 0
M  V30 12865 C 1207.55 -0.265402 5.2553 0
M  V30 12866 O 1206.58 0.338707 5.68191 0
M  V30 12867 N 1207.78 -1.55654 5.59243 0
M  V30 12868 H 1210.54 1.30505 2.69793 0
M  V30 12869 H 1208.11 0.833137 1.38818 0
M  V30 12870 H 1210.1 -0.896831 3.94638 0
M  V30 12871 H 1208.67 -1.13757 2.91167 0
M  V30 12872 H 1207.89 1.20082 3.75465 0
M  V30 12873 H 1209.18 1.09814 4.96808 0
M  V30 12874 H 1208.57 -2.06916 5.265 0
M  V30 12875 H 1207.13 -2.02223 6.19636 0
M  V30 12876 N 1210.56 -1.39601 0.731392 0
M  V30 12877 C 1211.53 -2.28992 0.0976037 0
M  V30 12878 C 1212.53 -1.46135 -0.670917 0
M  V30 12879 O 1213.72 -1.66856 -0.50047 0
M  V30 12880 C 1210.85 -3.29582 -0.871124 0
M  V30 12881 H 1212.04 -2.86541 0.885112 0
M  V30 12882 H 1209.59 -1.48188 0.497002 0
M  V30 12883 H 1210.33 -2.77082 -1.68512 0
M  V30 12884 H 1210.11 -3.9077 -0.322735 0
M  V30 12885 H 1211.6 -3.96479 -1.31126 0
M  V30 12886 N 1212.04 -0.478751 -1.50152 0
M  V30 12887 C 1213.32 0.135533 -1.9513 0
M  V30 12888 C 1213.7 1.56253 -1.41944 0
M  V30 12889 O 1213.05 2.19824 -0.623673 0
M  V30 12890 C 1213.26 0.0710037 -3.48928 0
M  V30 12891 C 1214.61 0.256075 -4.23827 0
M  V30 12892 O 1215.63 0.147234 -3.55896 0
M  V30 12893 O 1214.49 0.476741 -5.44417 0
M  V30 12894 H 1211.58 0.107491 -0.819985 0
M  V30 12895 H 1214.13 -0.539701 -1.60889 0
M  V30 12896 H 1212.9 -0.925012 -3.80209 0
M  V30 12897 H 1212.52 0.787362 -3.89726 0
M  V30 12898 N 1213.52 1.56172 -0.211661 0
M  V30 12899 C 1214.77 1.99087 0.416624 0
M  V30 12900 C 1215.12 1.09668 1.58084 0
M  V30 12901 O 1214.41 0.144533 1.91054 0
M  V30 12902 C 1214.61 3.45636 0.909442 0
M  V30 12903 C 1214.44 4.4923 -0.205486 0
M  V30 12904 C 1213.21 5.00857 -0.668617 0
M  V30 12905 C 1215.41 5.04078 -1.02029 0
M  V30 12906 N 1213.39 5.88141 -1.75964 0
M  V30 12907 C 1214.76 5.88192 -1.96037 0
M  V30 12908 C 1216.81 4.86467 -1.06085 0
M  V30 12909 C 1215.52 6.56576 -2.93768 0
M  V30 12910 C 1217.54 5.55604 -2.02629 0
M  V30 12911 C 1216.9 6.39477 -2.95378 0
M  V30 12912 H 1213 0.77283 0.119404 0
M  V30 12913 H 1215.59 1.92033 -0.321163 0
M  V30 12914 H 1213.76 3.53157 1.61662 0
M  V30 12915 H 1215.49 3.75486 1.50972 0
M  V30 12916 H 1212.25 4.72891 -0.258977 0
M  V30 12917 H 1212.67 6.36485 -2.30685 0
M  V30 12918 H 1217.31 4.21284 -0.357726 0
M  V30 12919 H 1215.03 7.20948 -3.65048 0
M  V30 12920 H 1218.62 5.43947 -2.06428 0
M  V30 12921 H 1217.5 6.92032 -3.68864 0
M  V30 12922 N 1215 -0.0618163 1.57479 0
M  V30 12923 C 1216.25 -0.75794 1.86918 0
M  V30 12924 C 1216.56 -1.78234 0.80572 0
M  V30 12925 O 1217.77 -2.52874 0.98827 0
M  V30 12926 C 1216.22 -1.39898 3.31597 0
M  V30 12927 C 1215.83 -0.412621 4.46096 0
M  V30 12928 C 1217.57 -2.07688 3.70224 0
M  V30 12929 C 1215.48 -1.06014 5.8182 0
M  V30 12930 H 1214.41 -0.286825 0.697314 0
M  V30 12931 H 1217.06 -0.0114386 1.83496 0
M  V30 12932 H 1215.44 -2.19408 3.29661 0
M  V30 12933 H 1216.62 0.353392 4.59443 0
M  V30 12934 H 1214.93 0.161383 4.16087 0
M  V30 12935 H 1217.53 -2.56928 4.68927 0
M  V30 12936 H 1217.87 -2.88073 3.00532 0
M  V30 12937 H 1218.41 -1.34996 3.74194 0
M  V30 12938 H 1215.15 -0.296405 6.5483 0
M  V30 12939 H 1214.67 -1.79677 5.72255 0
M  V30 12940 H 1216.34 -1.57708 6.27485 0
M  V30 12941 N 1216.48 -1.54033 -0.333429 0
M  V30 12942 C 1217.73 -1.70979 -1.07 0
M  V30 12943 C 1218.04 -0.485095 -1.89489 0
M  V30 12944 O 1219.24 -0.535712 -2.66162 0
M  V30 12945 C 1217.7 -3.02382 -1.95175 0
M  V30 12946 C 1217.31 -4.32223 -1.17844 0
M  V30 12947 C 1219.05 -3.28693 -2.68628 0
M  V30 12948 C 1216.96 -5.54693 -2.05109 0
M  V30 12949 H 1215.89 -0.637152 -0.403179 0
M  V30 12950 H 1218.54 -1.80529 -0.328839 0
M  V30 12951 H 1216.92 -2.86714 -2.73151 0
M  V30 12952 H 1218.1 -4.58626 -0.447089 0
M  V30 12953 H 1216.41 -4.12601 -0.561166 0
M  V30 12954 H 1219.01 -4.17385 -3.34207 0
M  V30 12955 H 1219.35 -2.46141 -3.35738 0
M  V30 12956 H 1219.88 -3.45183 -1.9772 0
M  V30 12957 H 1216.62 -6.39818 -1.42523 0
M  V30 12958 H 1216.14 -5.32524 -2.76005 0
M  V30 12959 H 1217.82 -5.90722 -2.63926 0
M  V30 12960 N 1217.95 0.594978 -1.45938 0
M  V30 12961 C 1219.2 1.35561 -1.50834 0
M  V30 12962 C 1219.53 1.93584 -0.154566 0
M  V30 12963 O 1218.81 1.75781 0.832541 0
M  V30 12964 C 1219.09 2.49414 -2.5974 0
M  V30 12965 C 1218.94 1.96506 -4.04605 0
M  V30 12966 C 1220.26 3.51505 -2.64825 0
M  V30 12967 H 1217.38 0.491549 -0.549134 0
M  V30 12968 H 1220.02 0.669536 -1.77812 0
M  V30 12969 H 1218.17 3.07939 -2.36866 0
M  V30 12970 H 1219.85 1.42533 -4.38728 0
M  V30 12971 H 1218.09 1.27418 -4.14665 0
M  V30 12972 H 1218.76 2.78636 -4.76515 0
M  V30 12973 H 1221.24 3.02841 -2.85353 0
M  V30 12974 H 1220.11 4.28641 -3.42867 0
M  V30 12975 H 1220.37 4.07942 -1.70399 0
M  V30 12976 N 1219.43 1.33438 0.838571 0
M  V30 12977 C 1220.36 1.26344 1.96365 0
M  V30 12978 C 1221.34 0.143956 1.6949 0
M  V30 12979 O 1222.53 0.333779 1.9131 0
M  V30 12980 C 1219.66 1.0022 3.32526 0
M  V30 12981 C 1218.61 2.08466 3.73799 0
M  V30 12982 C 1217.94 1.67555 5.07769 0
M  V30 12983 C 1219.24 3.50144 3.87552 0
M  V30 12984 H 1220.93 2.20478 2.02558 0
M  V30 12985 H 1218.48 1.06139 0.973168 0
M  V30 12986 H 1220.43 0.939068 4.10803 0
M  V30 12987 H 1219.16 0.0252514 3.2659 0
M  V30 12988 H 1217.81 2.13822 2.97785 0
M  V30 12989 H 1217.46 0.685619 4.98305 0
M  V30 12990 H 1217.16 2.39993 5.36356 0
M  V30 12991 H 1218.69 1.62708 5.88522 0
M  V30 12992 H 1220.1 3.47287 4.56141 0
M  V30 12993 H 1218.5 4.21069 4.27575 0
M  V30 12994 H 1219.57 3.88628 2.89994 0
M  V30 12995 N 1220.91 -1.05686 1.16912 0
M  V30 12996 C 1221.87 -2.11481 0.883647 0
M  V30 12997 C 1222.87 -1.60321 -0.124034 0
M  V30 12998 O 1224.06 -1.73868 0.107566 0
M  V30 12999 C 1221.2 -3.3937 0.322649 0
M  V30 13000 H 1222.39 -2.38239 1.8216 0
M  V30 13001 H 1219.94 -1.2185 0.978895 0
M  V30 13002 H 1220.68 -3.18266 -0.622695 0
M  V30 13003 H 1220.46 -3.77812 1.04883 0
M  V30 13004 H 1221.95 -4.17362 0.141072 0
M  V30 13005 N 1222.39 -0.968567 -1.24324 0
M  V30 13006 C 1223.34 -0.491346 -2.27351 0
M  V30 13007 C 1224.33 0.445563 -1.63435 0
M  V30 13008 O 1225.54 0.320758 -1.77119 0
M  V30 13009 H 1221.91 -0.14043 -0.738772 0
M  V30 13010 H 1223.88 -1.37224 -2.64976 0
M  V30 13011 C 1222.63 0.202093 -3.47112 0
M  V30 13012 H 1221.95 -0.50973 -3.96537 0
M  V30 13013 H 1223.39 0.499815 -4.21044 0
M  V30 13014 C 1221.85 1.42937 -3.05075 0
M  V30 13015 O 1222.38 2.52635 -3.12312 0
M  V30 13016 N 1220.59 1.29572 -2.60114 0
M  V30 13017 H 1220.14 0.403169 -2.54425 0
M  V30 13018 H 1220.09 2.118 -2.32353 0
M  V30 13019 N 1223.87 1.39211 -0.738786 0
M  V30 13020 C 1225.11 2.0004 -0.28782 0
M  V30 13021 C 1225.44 1.58921 1.13 0
M  V30 13022 O 1224.71 0.839193 1.77015 0
M  V30 13023 H 1223.29 0.739805 -0.103425 0
M  V30 13024 H 1225.95 1.70202 -0.949587 0
M  V30 13025 H 1225.04 3.10251 -0.339208 0
M  V30 13026 N 1225.34 0.486708 1.49896 0
M  V30 13027 C 1226.31 -0.288126 2.27382 0
M  V30 13028 C 1227.31 -0.906675 1.32801 0
M  V30 13029 O 1228.5 -0.773425 1.56089 0
M  V30 13030 C 1225.63 -1.41194 3.10285 0
M  V30 13031 H 1226.82 0.391618 2.97332 0
M  V30 13032 H 1224.38 0.24123 1.54427 0
M  V30 13033 H 1225.11 -2.12627 2.44868 0
M  V30 13034 H 1224.9 -0.974033 3.79809 0
M  V30 13035 H 1226.39 -1.95812 3.68846 0
M  V30 13036 N 1226.82 -1.56058 0.219941 0
M  V30 13037 C 1228.07 -1.97436 -0.412543 0
M  V30 13038 C 1228.39 -1.11058 -1.61014 0
M  V30 13039 O 1229.59 -1.42328 -2.31203 0
M  V30 13040 C 1228.05 -3.51227 -0.785362 0
M  V30 13041 C 1227.66 -4.46305 0.389328 0
M  V30 13042 C 1229.4 -4.01321 -1.38354 0
M  V30 13043 C 1227.31 -5.914 -0.00583531 0
M  V30 13044 H 1226.24 -0.73728 -0.157906 0
M  V30 13045 H 1228.89 -1.8076 0.315898 0
M  V30 13046 H 1227.27 -3.63497 -1.57118 0
M  V30 13047 H 1228.44 -4.45781 1.16686 0
M  V30 13048 H 1226.76 -4.06543 0.900633 0
M  V30 13049 H 1229.36 -5.07221 -1.69207 0
M  V30 13050 H 1229.7 -3.47077 -2.29876 0
M  V30 13051 H 1230.23 -3.92267 -0.66119 0
M  V30 13052 H 1226.97 -6.49623 0.87583 0
M  V30 13053 H 1226.49 -5.95121 -0.74772 0
M  V30 13054 H 1228.17 -6.45549 -0.43308 0
M  V30 13055 N 1228.3 0.053464 -1.57509 0
M  V30 13056 C 1229.26 1.04604 -2.03938 0
M  V30 13057 C 1230.26 1.30509 -0.939357 0
M  V30 13058 O 1231.45 1.25922 -1.20371 0
M  V30 13059 C 1228.59 2.38516 -2.43563 0
M  V30 13060 H 1229.78 0.645484 -2.92871 0
M  V30 13061 H 1227.33 0.299683 -1.534 0
M  V30 13062 H 1228.07 2.83368 -1.57712 0
M  V30 13063 H 1227.85 2.2105 -3.23851 0
M  V30 13064 H 1229.34 3.09826 -2.79996 0
M  V30 13065 N 1229.78 1.54207 0.325255 0
M  V30 13066 C 1230.69 1.86495 1.42326 0
M  V30 13067 C 1231.71 0.756718 1.56684 0
M  V30 13068 O 1232.88 1.05084 1.71812 0
M  V30 13069 C 1229.95 2.08414 2.77064 0
M  V30 13070 C 1229.01 3.32221 2.71897 0
M  V30 13071 C 1228.24 3.53085 4.00209 0
M  V30 13072 O 1228.46 2.77421 4.98391 0
M  V30 13073 O 1227.4 4.46559 4.0357 0
M  V30 13074 H 1231.22 2.79859 1.17951 0
M  V30 13075 H 1228.81 1.40091 0.519124 0
M  V30 13076 H 1230.69 2.24171 3.56827 0
M  V30 13077 H 1229.37 1.18238 3.01333 0
M  V30 13078 H 1228.27 3.21851 1.90691 0
M  V30 13079 H 1229.61 4.22449 2.52582 0
M  V30 13080 N 1231.26 -0.58723 1.46251 0
M  V30 13081 C 1232.19 -1.71113 1.50982 0
M  V30 13082 C 1233.17 -1.58466 0.364322 0
M  V30 13083 O 1234.35 -1.79745 0.567812 0
M  V30 13084 C 1231.48 -3.09128 1.38411 0
M  V30 13085 C 1230.53 -3.40308 2.57085 0
M  V30 13086 S 1231.36 -3.32881 4.19464 0
M  V30 13087 C 1232.51 -4.73441 4.09395 0
M  V30 13088 H 1232.75 -1.66841 2.46072 0
M  V30 13089 H 1230.28 -0.765598 1.34082 0
M  V30 13090 H 1232.24 -3.88751 1.31846 0
M  V30 13091 H 1230.9 -3.10895 0.447567 0
M  V30 13092 H 1230.09 -4.40849 2.4427 0
M  V30 13093 H 1229.69 -2.68244 2.60617 0
M  V30 13094 H 1231.99 -5.63723 3.75796 0
M  V30 13095 H 1232.93 -4.91313 5.09919 0
M  V30 13096 H 1233.34 -4.50079 3.40719 0
M  V30 13097 N 1232.74 -1.33881 -0.831482 0
M  V30 13098 C 1233.98 -1.25507 -1.58406 0
M  V30 13099 C 1234.3 0.177137 -1.94194 0
M  V30 13100 O 1233.57 1.10769 -1.61576 0
M  V30 13101 H 1232.15 -0.461551 -0.587349 0
M  V30 13102 H 1234.82 -1.6769 -0.99328 0
M  V30 13103 H 1233.91 -1.85391 -2.51071 0
M  V30 13104 N 1234.21 1.05064 -1.1747 0
M  V30 13105 C 1235.44 1.82299 -0.98903 0
M  V30 13106 C 1235.86 1.82441 0.457907 0
M  V30 13107 O 1235.22 1.23433 1.32793 0
M  V30 13108 C 1235.27 3.26239 -1.53624 0
M  V30 13109 O 1234.37 4.05507 -0.750857 0
M  V30 13110 H 1233.71 0.563601 -0.35107 0
M  V30 13111 H 1236.24 1.32386 -1.55997 0
M  V30 13112 H 1236.25 3.77038 -1.55906 0
M  V30 13113 H 1234.93 3.25451 -2.58949 0
M  V30 13114 H 1233.51 3.64227 -0.799548 0
M  V30 13115 N 1235.69 0.975146 1.23809 0
M  V30 13116 C 1236.92 0.658023 1.95841 0
M  V30 13117 C 1237.33 -0.778132 1.72458 0
M  V30 13118 O 1236.67 -1.53462 1.00971 0
M  V30 13119 C 1236.73 0.862038 3.49012 0
M  V30 13120 C 1236.4 2.27925 3.96105 0
M  V30 13121 C 1237.4 3.25755 4.05191 0
M  V30 13122 C 1235.08 2.60894 4.29231 0
M  V30 13123 C 1237.07 4.54636 4.46749 0
M  V30 13124 C 1234.76 3.89999 4.70472 0
M  V30 13125 C 1235.76 4.86682 4.79197 0
M  V30 13126 O 1235.45 6.13483 5.19513 0
M  V30 13127 H 1235.18 0.243915 0.630461 0
M  V30 13128 H 1237.73 1.30768 1.58395 0
M  V30 13129 H 1235.96 0.155209 3.86388 0
M  V30 13130 H 1237.65 0.542873 4.02253 0
M  V30 13131 H 1238.42 3.01614 3.79808 0
M  V30 13132 H 1234.3 1.86355 4.21655 0
M  V30 13133 H 1237.84 5.30101 4.53474 0
M  V30 13134 H 1233.74 4.13937 4.95304 0
M  V30 13135 H 1234.51 6.17158 5.37641 0
M  V30 13136 N 1237.17 -1.38817 0.746158 0
M  V30 13137 C 1238.1 -2.29081 0.0737986 0
M  V30 13138 C 1239.11 -1.47377 -0.691656 0
M  V30 13139 O 1240.3 -1.70326 -0.533973 0
M  V30 13140 C 1237.4 -3.26185 -0.919607 0
M  V30 13141 C 1236.58 -4.36879 -0.213349 0
M  V30 13142 C 1235.64 -5.1422 -1.11644 0
M  V30 13143 O 1234.66 -5.66137 -0.589747 0
M  V30 13144 N 1235.86 -5.26488 -2.44521 0
M  V30 13145 H 1238.63 -2.87424 0.848966 0
M  V30 13146 H 1236.19 -1.50518 0.596314 0
M  V30 13147 H 1238.18 -3.74802 -1.52662 0
M  V30 13148 H 1236.75 -2.68793 -1.5959 0
M  V30 13149 H 1235.97 -3.89994 0.574285 0
M  V30 13150 H 1237.26 -5.08053 0.275655 0
M  V30 13151 H 1236.66 -4.85846 -2.89777 0
M  V30 13152 H 1235.21 -5.78505 -3.00291 0
M  V30 13153 N 1238.65 -0.49465 -1.49636 0
M  V30 13154 C 1239.56 0.291881 -2.32777 0
M  V30 13155 C 1240.57 0.973468 -1.44221 0
M  V30 13156 O 1241.75 0.956252 -1.77251 0
M  V30 13157 C 1238.81 1.34609 -3.19502 0
M  V30 13158 C 1237.88 0.678611 -4.23903 0
M  V30 13159 C 1237.11 1.68259 -5.06483 0
M  V30 13160 O 1237.33 2.91176 -4.90482 0
M  V30 13161 O 1236.27 1.24141 -5.88959 0
M  V30 13162 H 1240.09 -0.388459 -3.01205 0
M  V30 13163 H 1237.68 -0.256086 -1.47189 0
M  V30 13164 H 1239.56 1.95617 -3.73245 0
M  V30 13165 H 1238.23 2.00947 -2.53775 0
M  V30 13166 H 1237.14 0.0289541 -3.74089 0
M  V30 13167 H 1238.47 0.0577817 -4.92166 0
M  V30 13168 N 1240.13 1.55939 -0.228214 0
M  V30 13169 C 1241.06 2.2357 0.6737 0
M  V30 13170 C 1242.04 1.20964 1.1959 0
M  V30 13171 O 1243.22 1.49568 1.23867 0
M  V30 13172 C 1240.35 2.92076 1.87906 0
M  V30 13173 C 1239.31 4.01211 1.49043 0
M  V30 13174 C 1238.63 4.57047 2.77511 0
M  V30 13175 C 1239.93 5.17914 0.67544 0
M  V30 13176 H 1241.63 2.99199 0.109806 0
M  V30 13177 H 1239.17 1.43908 0.0513732 0
M  V30 13178 H 1241.12 3.38083 2.51551 0
M  V30 13179 H 1239.85 2.13906 2.46803 0
M  V30 13180 H 1238.51 3.55945 0.877411 0
M  V30 13181 H 1238.16 3.75599 3.34566 0
M  V30 13182 H 1237.86 5.30707 2.52239 0
M  V30 13183 H 1239.38 5.05776 3.42087 0
M  V30 13184 H 1240.79 5.60261 1.21575 0
M  V30 13185 H 1239.19 5.97847 0.519536 0
M  V30 13186 H 1240.26 4.83866 -0.316495 0
M  V30 13187 N 1241.6 -0.0451101 1.57535 0
M  V30 13188 C 1242.53 -1.05046 2.08537 0
M  V30 13189 C 1243.52 -1.3872 0.984418 0
M  V30 13190 O 1244.7 -1.47884 1.25873 0
M  V30 13191 C 1241.83 -2.3562 2.55148 0
M  V30 13192 C 1240.78 -2.16231 3.69362 0
M  V30 13193 C 1240.11 -3.52423 4.02122 0
M  V30 13194 C 1241.41 -1.56159 4.98409 0
M  V30 13195 H 1243.1 -0.625965 2.92783 0
M  V30 13196 H 1240.65 -0.299657 1.40848 0
M  V30 13197 H 1242.6 -3.06266 2.89446 0
M  V30 13198 H 1241.33 -2.80099 1.67964 0
M  V30 13199 H 1239.99 -1.4802 3.35389 0
M  V30 13200 H 1239.63 -3.94522 3.12028 0
M  V30 13201 H 1239.33 -3.4028 4.79044 0
M  V30 13202 H 1240.86 -4.24458 4.38939 0
M  V30 13203 H 1242.27 -2.16703 5.30766 0
M  V30 13204 H 1240.67 -1.54638 5.79834 0
M  V30 13205 H 1241.74 -0.525698 4.82042 0
M  V30 13206 N 1243.08 -1.54377 -0.317073 0
M  V30 13207 C 1244.01 -1.80563 -1.41172 0
M  V30 13208 C 1245.03 -0.687865 -1.47554 0
M  V30 13209 O 1246.22 -0.965084 -1.50161 0
M  V30 13210 C 1243.32 -1.9142 -2.79663 0
M  V30 13211 C 1242.49 -3.21655 -2.96407 0
M  V30 13212 C 1241.55 -3.23131 -4.15298 0
M  V30 13213 O 1240.57 -3.96741 -4.08149 0
M  V30 13214 N 1241.78 -2.47376 -5.25153 0
M  V30 13215 H 1244.54 -2.75032 -1.1907 0
M  V30 13216 H 1242.1 -1.53754 -0.507086 0
M  V30 13217 H 1244.09 -1.89828 -3.57418 0
M  V30 13218 H 1242.66 -1.0402 -2.94786 0
M  V30 13219 H 1241.88 -3.36154 -2.05899 0
M  V30 13220 H 1243.17 -4.07629 -3.04494 0
M  V30 13221 H 1242.57 -1.87173 -5.33838 0
M  V30 13222 H 1241.13 -2.51555 -6.01301 0
M  V30 13223 N 1244.56 0.579466 -1.4656 0
M  V30 13224 C 1245.98 0.903163 -1.31587 0
M  V30 13225 C 1246.18 1.99406 -0.28972 0
M  V30 13226 O 1245.23 2.50632 0.30658 0
M  V30 13227 C 1246.55 1.31745 -2.70303 0
M  V30 13228 C 1248.09 1.43012 -2.78418 0
M  V30 13229 C 1248.57 1.87805 -4.17724 0
M  V30 13230 N 1250.06 1.94993 -4.20157 0
M  V30 13231 C 1250.79 2.30934 -5.2484 0
M  V30 13232 N 1250.29 2.65645 -6.39847 0
M  V30 13233 N 1252.08 2.31517 -5.12207 0
M  V30 13234 H 1244.23 -0.141111 -2.11931 0
M  V30 13235 H 1246.5 -0.000460304 -0.948 0
M  V30 13236 H 1246.2 0.589864 -3.46718 0
M  V30 13237 H 1246.08 2.2783 -3.00622 0
M  V30 13238 H 1248.46 2.14856 -2.02289 0
M  V30 13239 H 1248.55 0.451701 -2.5178 0
M  V30 13240 H 1248.19 1.16539 -4.94349 0
M  V30 13241 H 1248.12 2.86611 -4.41771 0
M  V30 13242 H 1250.61 1.70645 -3.37178 0
M  V30 13243 H 1250.92 2.92032 -7.15498 0
M  V30 13244 H 1249.27 2.63276 -6.43204 0
M  V30 13245 H 1252.46 2.03824 -4.21394 0
M  V30 13246 H 1252.63 2.59199 -5.93902 0
M  V30 13247 N 1246.04 1.3432 0.824371 0
M  V30 13248 C 1246.99 1.25776 1.93517 0
M  V30 13249 C 1247.96 0.133298 1.65564 0
M  V30 13250 O 1249.14 0.31403 1.88198 0
M  V30 13251 C 1246.28 1.01766 3.29754 0
M  V30 13252 C 1245.39 2.22973 3.7001 0
M  V30 13253 C 1244.53 1.92258 4.95187 0
M  V30 13254 C 1243.57 3.09616 5.2802 0
M  V30 13255 N 1242.7 2.78793 6.44375 0
M  V30 13256 H 1247.54 2.20774 2.00157 0
M  V30 13257 H 1245.08 1.09766 0.979274 0
M  V30 13258 H 1247.04 0.858831 4.08265 0
M  V30 13259 H 1245.67 0.10437 3.22631 0
M  V30 13260 H 1244.72 2.49781 2.86903 0
M  V30 13261 H 1246.03 3.10661 3.90245 0
M  V30 13262 H 1245.19 1.73102 5.81481 0
M  V30 13263 H 1243.93 1.01827 4.76951 0
M  V30 13264 H 1242.93 3.29368 4.40223 0
M  V30 13265 H 1244.16 4.00822 5.48196 0
M  V30 13266 H 1242.1 1.90938 6.27598 0
M  V30 13267 H 1242.02 3.60014 6.64775 0
M  V30 13268 H 1243.29 2.63139 7.33743 0
M  V30 13269 N 1247.52 -1.0444 1.18026 0
M  V30 13270 C 1248.76 -1.77224 0.971391 0
M  V30 13271 C 1249.09 -1.88466 -0.500564 0
M  V30 13272 O 1248.36 -1.40692 -1.36317 0
M  V30 13273 H 1246.94 -0.656485 0.356422 0
M  V30 13274 H 1249.6 -1.26064 1.4864 0
M  V30 13275 H 1248.69 -2.78626 1.4062 0
M  V30 13276 N 1248.99 -0.981699 -1.2329 0
M  V30 13277 C 1249.96 -0.527992 -2.23036 0
M  V30 13278 C 1250.96 0.383083 -1.5617 0
M  V30 13279 O 1252.15 0.176595 -1.73303 0
M  V30 13280 C 1249.28 0.233501 -3.40099 0
M  V30 13281 H 1250.47 -1.40995 -2.64689 0
M  V30 13282 H 1248.03 -0.767724 -1.36146 0
M  V30 13283 H 1248.76 1.13194 -3.03904 0
M  V30 13284 H 1248.55 -0.420505 -3.89839 0
M  V30 13285 H 1250.04 0.539485 -4.14101 0
M  V30 13286 N 1250.47 1.3842 -0.753509 0
M  V30 13287 C 1251.4 2.33073 -0.141198 0
M  V30 13288 C 1252.38 1.54863 0.70367 0
M  V30 13289 O 1253.57 1.8318 0.644872 0
M  V30 13290 C 1250.7 3.39043 0.752802 0
M  V30 13291 C 1249.65 4.27999 0.0106692 0
M  V30 13292 C 1248.98 5.24824 1.02291 0
M  V30 13293 C 1250.28 5.09308 -1.15768 0
M  V30 13294 H 1251.97 2.84528 -0.93188 0
M  V30 13295 H 1249.52 1.36802 -0.449567 0
M  V30 13296 H 1251.47 4.04224 1.19083 0
M  V30 13297 H 1250.2 2.8607 1.57581 0
M  V30 13298 H 1248.85 3.64323 -0.407939 0
M  V30 13299 H 1248.5 4.68139 1.83998 0
M  V30 13300 H 1248.2 5.85196 0.53101 0
M  V30 13301 H 1249.73 5.92882 1.46026 0
M  V30 13302 H 1251.14 5.6773 -0.797203 0
M  V30 13303 H 1249.54 5.78914 -1.58044 0
M  V30 13304 H 1250.61 4.43051 -1.97062 0
M  V30 13305 N 1251.95 0.502579 1.49372 0
M  V30 13306 C 1252.88 -0.321683 2.25921 0
M  V30 13307 C 1253.86 -0.968999 1.30572 0
M  V30 13308 O 1255.05 -0.998788 1.59864 0
M  V30 13309 C 1252.17 -1.45318 3.05942 0
M  V30 13310 C 1251.22 -0.920076 4.16457 0
M  V30 13311 S 1252.05 0.190402 5.35161 0
M  V30 13312 C 1253.21 -0.944222 6.18737 0
M  V30 13313 H 1253.44 0.328036 2.95485 0
M  V30 13314 H 1250.97 0.287903 1.51692 0
M  V30 13315 H 1252.93 -2.1015 3.52629 0
M  V30 13316 H 1251.59 -2.07452 2.35844 0
M  V30 13317 H 1250.79 -1.76808 4.71969 0
M  V30 13318 H 1250.39 -0.348944 3.72369 0
M  V30 13319 H 1252.68 -1.8491 6.51778 0
M  V30 13320 H 1253.62 -0.42769 7.06807 0
M  V30 13321 H 1254.03 -1.21227 5.5133 0
M  V30 13322 N 1253.43 -1.55816 0.23648 0
M  V30 13323 C 1254.67 -2.0059 -0.39281 0
M  V30 13324 C 1255.03 -1.12092 -1.55883 0
M  V30 13325 O 1256.23 -1.46277 -2.25514 0
M  V30 13326 C 1254.5 -3.48281 -0.80219 0
M  V30 13327 S 1256.06 -4.15069 -1.42348 0
M  V30 13328 H 1252.88 -0.700093 -0.124057 0
M  V30 13329 H 1255.48 -1.92355 0.349272 0
M  V30 13330 H 1254.19 -4.10362 0.0558941 0
M  V30 13331 H 1253.72 -3.60421 -1.57671 0
M  V30 13332 H 1255.73 -4.15493 -2.71257 0
M  V30 13333 N 1254.91 0.036755 -1.57557 0
M  V30 13334 C 1255.84 1.03939 -2.09091 0
M  V30 13335 C 1256.82 1.38196 -0.991761 0
M  V30 13336 O 1258 1.47214 -1.26656 0
M  V30 13337 C 1255.13 2.34263 -2.56394 0
M  V30 13338 C 1254.09 2.14269 -3.70504 0
M  V30 13339 C 1253.41 3.50286 -4.03985 0
M  V30 13340 C 1254.71 1.53514 -4.9923 0
M  V30 13341 H 1256.41 0.610429 -2.93111 0
M  V30 13342 H 1253.95 0.292183 -1.41005 0
M  V30 13343 H 1255.91 3.04727 -2.91066 0
M  V30 13344 H 1254.63 2.79205 -1.69447 0
M  V30 13345 H 1253.29 1.46239 -3.36169 0
M  V30 13346 H 1252.94 3.92861 -3.14116 0
M  V30 13347 H 1252.64 3.37735 -4.80842 0
M  V30 13348 H 1254.16 4.22124 -4.41184 0
M  V30 13349 H 1255.57 2.13885 -5.31908 0
M  V30 13350 H 1253.97 1.51561 -5.80646 0
M  V30 13351 H 1255.04 0.500126 -4.82314 0
M  V30 13352 N 1256.39 1.54543 0.308881 0
M  V30 13353 C 1257.32 1.87947 1.38557 0
M  V30 13354 C 1258.3 0.737622 1.53275 0
M  V30 13355 O 1259.48 0.992664 1.66913 0
M  V30 13356 C 1256.61 2.11982 2.75102 0
M  V30 13357 C 1255.57 3.2783 2.75158 0
M  V30 13358 C 1254.89 3.37266 4.14917 0
M  V30 13359 C 1256.19 4.65129 2.37598 0
M  V30 13360 H 1257.89 2.78123 1.1085 0
M  V30 13361 H 1255.43 1.3382 0.531808 0
M  V30 13362 H 1257.38 2.33935 3.50503 0
M  V30 13363 H 1256.11 1.18569 3.04317 0
M  V30 13364 H 1254.77 3.05787 2.02212 0
M  V30 13365 H 1254.42 2.41384 4.41296 0
M  V30 13366 H 1254.12 4.15135 4.15857 0
M  V30 13367 H 1255.64 3.61471 4.92109 0
M  V30 13368 H 1257.05 4.86865 3.02714 0
M  V30 13369 H 1255.45 5.45653 2.49765 0
M  V30 13370 H 1256.52 4.6638 1.32731 0
M  V30 13371 N 1257.86 -0.571685 1.46866 0
M  V30 13372 C 1259.14 -1.33216 1.43223 0
M  V30 13373 C 1259.52 -2.1075 0.121495 0
M  V30 13374 O 1258.87 -2.10157 -0.897003 0
M  V30 13375 C 1259.08 -2.24888 2.66882 0
M  V30 13376 C 1260.43 -2.86369 3.13493 0
M  V30 13377 O 1261.45 -2.35197 2.67509 0
M  V30 13378 O 1260.31 -3.79342 3.93398 0
M  V30 13379 H 1257.4 -0.599106 0.570089 0
M  V30 13380 H 1259.95 -0.591788 1.59047 0
M  V30 13381 H 1258.72 -1.67099 3.53827 0
M  V30 13382 H 1258.34 -3.06246 2.53573 0
M  V30 13383 N 1259.34 -1.34755 -0.817236 0
M  V30 13384 C 1260.27 -1.22648 -1.93624 0
M  V30 13385 C 1261.29 -0.152226 -1.62087 0
M  V30 13386 O 1262.48 -0.404578 -1.73855 0
M  V30 13387 C 1259.58 -0.863519 -3.27714 0
M  V30 13388 C 1258.75 -2.03394 -3.87233 0
M  V30 13389 C 1257.81 -1.64846 -4.99712 0
M  V30 13390 O 1256.83 -2.3658 -5.17705 0
M  V30 13391 N 1258.04 -0.565909 -5.77735 0
M  V30 13392 H 1260.8 -2.19051 -2.0454 0
M  V30 13393 H 1258.36 -1.27785 -0.994113 0
M  V30 13394 H 1260.35 -0.58733 -4.00415 0
M  V30 13395 H 1258.92 0.0104987 -3.12598 0
M  V30 13396 H 1258.14 -2.47454 -3.06856 0
M  V30 13397 H 1259.43 -2.81655 -4.23731 0
M  V30 13398 H 1258.83 0.030313 -5.65692 0
M  V30 13399 H 1257.39 -0.349467 -6.50862 0
M  V30 13400 N 1260.82 1.03812 -1.18578 0
M  V30 13401 C 1261.78 2.10049 -0.91718 0
M  V30 13402 C 1262.78 1.60498 0.0985122 0
M  V30 13403 O 1263.97 1.73674 -0.135213 0
M  V30 13404 C 1261.1 3.38813 -0.376599 0
M  V30 13405 H 1262.3 2.3531 -1.85927 0
M  V30 13406 H 1259.85 1.20277 -0.998156 0
M  V30 13407 H 1260.59 3.19216 0.571983 0
M  V30 13408 H 1260.37 3.76096 -1.10881 0
M  V30 13409 H 1261.86 4.17084 -0.207453 0
M  V30 13410 N 1262.3 0.988223 1.22768 0
M  V30 13411 C 1263.71 0.69816 1.4352 0
M  V30 13412 C 1263.91 -0.732872 1.877 0
M  V30 13413 O 1262.97 -1.50436 2.02793 0
M  V30 13414 C 1264.28 1.69975 2.4805 0
M  V30 13415 C 1265.83 1.71467 2.61855 0
M  V30 13416 C 1266.31 2.70477 3.69603 0
M  V30 13417 N 1267.8 2.69043 3.77055 0
M  V30 13418 C 1268.53 3.42319 4.60006 0
M  V30 13419 N 1268.03 4.2518 5.46986 0
M  V30 13420 N 1269.82 3.31047 4.54274 0
M  V30 13421 H 1261.97 1.91251 0.923948 0
M  V30 13422 H 1264.23 0.82455 0.467783 0
M  V30 13423 H 1263.94 2.72354 2.22523 0
M  V30 13424 H 1263.81 1.48885 3.46573 0
M  V30 13425 H 1266.2 0.697889 2.86729 0
M  V30 13426 H 1266.28 1.96625 1.63622 0
M  V30 13427 H 1265.93 3.72302 3.45476 0
M  V30 13428 H 1265.86 2.42591 4.67394 0
M  V30 13429 H 1268.35 2.08914 3.14902 0
M  V30 13430 H 1268.66 4.77929 6.07292 0
M  V30 13431 H 1267.01 4.29268 5.46584 0
M  V30 13432 H 1270.2 2.65758 3.85345 0
M  V30 13433 H 1270.37 3.88413 5.1869 0
M  V30 13434 N 1263.78 -1.38018 0.760839 0
M  V30 13435 C 1264.71 -2.2899 0.0980916 0
M  V30 13436 C 1265.72 -1.48102 -0.675985 0
M  V30 13437 O 1266.91 -1.70883 -0.515878 0
M  V30 13438 C 1264.01 -3.27142 -0.884959 0
M  V30 13439 C 1263.18 -4.37081 -0.167 0
M  V30 13440 C 1262.24 -5.15375 -1.06184 0
M  V30 13441 O 1261.27 -5.6673 -0.529667 0
M  V30 13442 N 1262.47 -5.29052 -2.38924 0
M  V30 13443 H 1265.23 -2.86508 0.879403 0
M  V30 13444 H 1262.8 -1.49877 0.612245 0
M  V30 13445 H 1264.79 -3.764 -1.48678 0
M  V30 13446 H 1263.36 -2.70471 -1.5673 0
M  V30 13447 H 1262.58 -3.89363 0.615617 0
M  V30 13448 H 1263.87 -5.07732 0.329525 0
M  V30 13449 H 1263.26 -4.88892 -2.84607 0
M  V30 13450 H 1261.82 -5.81658 -2.94139 0
M  V30 13451 N 1265.25 -0.510493 -1.49103 0
M  V30 13452 C 1266.66 -0.0650831 -1.86587 0
M  V30 13453 C 1267.02 1.35185 -1.42195 0
M  V30 13454 O 1266.14 2.0091 -0.804004 0
M  V30 13455 C 1266.74 -0.111333 -3.38617 0
M  V30 13456 C 1265.29 0.278782 -3.75366 0
M  V30 13457 C 1264.44 -0.479707 -2.73119 0
M  V30 13458 H 1267.39 -0.722784 -1.41285 0
M  V30 13459 H 1267.41 0.681706 -3.74343 0
M  V30 13460 H 1266.93 -1.14271 -3.70896 0
M  V30 13461 H 1265.03 1.31304 -3.48698 0
M  V30 13462 H 1265.14 -0.047271 -4.79077 0
M  V30 13463 H 1263.5 0.0716459 -2.54599 0
M  V30 13464 H 1264.29 -1.51135 -3.08242 0
M  V30 13465 N 1266.73 1.55688 -0.24474 0
M  V30 13466 C 1267.98 1.98498 0.379852 0
M  V30 13467 C 1268.3 1.13416 1.58625 0
M  V30 13468 O 1267.57 0.216456 1.947 0
M  V30 13469 H 1266.15 0.73312 0.143334 0
M  V30 13470 H 1268.81 1.91858 -0.343027 0
M  V30 13471 H 1267.91 3.04367 0.690463 0
M  V30 13472 N 1268.21 -0.0283989 1.57574 0
M  V30 13473 C 1269.49 -0.754527 1.80461 0
M  V30 13474 C 1269.87 -1.93539 0.842966 0
M  V30 13475 O 1269.21 -2.28212 -0.114714 0
M  V30 13476 C 1269.42 -1.18694 3.28196 0
M  V30 13477 C 1270.77 -1.60257 3.93196 0
M  V30 13478 O 1271.8 -1.2815 3.32349 0
M  V30 13479 O 1270.66 -2.19853 5.00327 0
M  V30 13480 H 1267.75 -0.364936 0.742126 0
M  V30 13481 H 1270.3 -0.00512589 1.69699 0
M  V30 13482 H 1269.07 -0.34398 3.89785 0
M  V30 13483 H 1268.69 -1.99633 3.43849 0
M  V30 13484 N 1269.69 -1.54705 -0.300681 0
M  V30 13485 C 1271.1 -1.45926 -0.646359 0
M  V30 13486 C 1271.3 -0.65072 -1.90704 0
M  V30 13487 O 1270.36 -0.158547 -2.52002 0
M  V30 13488 C 1271.67 -2.89889 -0.799059 0
M  V30 13489 C 1273.22 -2.99934 -0.894923 0
M  V30 13490 C 1273.7 -4.45093 -1.07962 0
M  V30 13491 N 1275.19 -4.48804 -1.14581 0
M  V30 13492 C 1275.92 -5.58305 -1.30702 0
M  V30 13493 N 1275.42 -6.77729 -1.43719 0
M  V30 13494 N 1277.21 -5.45994 -1.33593 0
M  V30 13495 H 1269.36 -2.05742 0.527617 0
M  V30 13496 H 1271.62 -0.931817 0.174415 0
M  V30 13497 H 1271.33 -3.51655 0.0563954 0
M  V30 13498 H 1271.2 -3.37325 -1.68796 0
M  V30 13499 H 1273.59 -2.38281 -1.74086 0
M  V30 13500 H 1273.67 -2.55794 0.0179973 0
M  V30 13501 H 1273.32 -5.0734 -0.238444 0
M  V30 13502 H 1273.25 -4.86864 -2.00677 0
M  V30 13503 H 1275.74 -3.62766 -1.05874 0
M  V30 13504 H 1276.05 -7.56937 -1.55776 0
M  V30 13505 H 1274.4 -6.80594 -1.40774 0
M  V30 13506 H 1277.59 -4.51641 -1.23035 0
M  V30 13507 H 1277.76 -6.31381 -1.45813 0
M  V30 13508 N 1271.17 0.563888 -1.47167 0
M  V30 13509 C 1272.41 1.31875 -1.53145 0
M  V30 13510 C 1272.74 1.94047 -0.192518 0
M  V30 13511 O 1272.01 1.79577 0.782872 0
M  V30 13512 H 1270.59 0.489694 -0.5641 0
M  V30 13513 H 1273.25 0.658976 -1.83422 0
M  V30 13514 H 1272.34 2.11574 -2.2944 0
M  V30 13515 N 1272.64 1.35187 0.810078 0
M  V30 13516 C 1273.55 1.29926 1.95337 0
M  V30 13517 C 1274.57 0.204748 1.72791 0
M  V30 13518 O 1275.75 0.433507 1.96679 0
M  V30 13519 C 1272.81 1.06736 3.29861 0
M  V30 13520 C 1271.87 2.25466 3.65326 0
M  V30 13521 C 1271.11 2.03373 4.93432 0
M  V30 13522 O 1271.33 0.998419 5.61594 0
M  V30 13523 O 1270.26 2.90648 5.27075 0
M  V30 13524 H 1274.09 2.26137 2.02721 0
M  V30 13525 H 1271.67 1.15523 0.947354 0
M  V30 13526 H 1273.56 0.956367 4.10404 0
M  V30 13527 H 1272.23 0.135735 3.23415 0
M  V30 13528 H 1271.14 2.42129 2.85175 0
M  V30 13529 H 1272.47 3.17063 3.76473 0
M  V30 13530 N 1274.12 -1.03182 1.19127 0
M  V30 13531 C 1275.37 -1.76184 0.990134 0
M  V30 13532 C 1275.69 -1.88986 -0.480546 0
M  V30 13533 O 1274.96 -1.4213 -1.34817 0
M  V30 13534 H 1273.54 -0.652668 0.363364 0
M  V30 13535 H 1276.2 -1.24481 1.49968 0
M  V30 13536 H 1275.3 -2.77119 1.43568 0
M  V30 13537 N 1275.6 -0.99472 -1.22242 0
M  V30 13538 C 1276.51 -0.555502 -2.27928 0
M  V30 13539 C 1277.53 0.396584 -1.6942 0
M  V30 13540 O 1278.7 0.262965 -1.99676 0
M  V30 13541 C 1275.77 0.121121 -3.46488 0
M  V30 13542 C 1274.83 -0.874155 -4.20306 0
M  V30 13543 C 1274.06 -0.229726 -5.33205 0
M  V30 13544 O 1274.28 0.975935 -5.61989 0
M  V30 13545 O 1273.22 -0.935501 -5.94586 0
M  V30 13546 H 1277.04 -1.4348 -2.6767 0
M  V30 13547 H 1274.63 -0.763061 -1.28444 0
M  V30 13548 H 1276.51 0.500043 -4.18423 0
M  V30 13549 H 1275.19 0.974959 -3.08668 0
M  V30 13550 H 1274.09 -1.30404 -3.50636 0
M  V30 13551 H 1275.43 -1.69725 -4.62011 0
M  V30 13552 N 1277.08 1.37613 -0.768148 0
M  V30 13553 C 1278.31 2.04052 -0.342111 0
M  V30 13554 C 1278.72 1.57936 1.03449 0
M  V30 13555 O 1278.08 0.758981 1.65969 0
M  V30 13556 C 1278.13 3.5958 -0.372096 0
M  V30 13557 O 1277.85 4.04008 -1.69439 0
M  V30 13558 C 1279.35 4.43251 0.0659884 0
M  V30 13559 H 1276.57 0.655391 -0.143886 0
M  V30 13560 H 1279.12 1.76017 -1.04107 0
M  V30 13561 H 1277.27 3.86399 0.278248 0
M  V30 13562 H 1277.68 4.98511 -1.63054 0
M  V30 13563 H 1279.16 5.52 -0.00614775 0
M  V30 13564 H 1279.64 4.24788 1.11588 0
M  V30 13565 H 1280.24 4.2165 -0.55603 0
M  V30 13566 N 1278.56 0.518393 1.4883 0
M  V30 13567 C 1279.47 -0.254811 2.33212 0
M  V30 13568 C 1280.48 -0.950401 1.45751 0
M  V30 13569 O 1281.66 -0.927932 1.78749 0
M  V30 13570 C 1278.72 -1.29509 3.21603 0
M  V30 13571 C 1277.78 -0.611086 4.24928 0
M  V30 13572 C 1277.02 -1.6018 5.09095 0
M  V30 13573 O 1277.24 -2.83336 4.95052 0
M  V30 13574 O 1276.17 -1.14756 5.90859 0
M  V30 13575 H 1280 0.436329 3.00549 0
M  V30 13576 H 1277.59 0.27947 1.46763 0
M  V30 13577 H 1279.47 -1.89654 3.7631 0
M  V30 13578 H 1278.14 -1.96884 2.5694 0
M  V30 13579 H 1277.05 0.0305638 3.74088 0
M  V30 13580 H 1278.38 0.0205249 4.92196 0
M  V30 13581 N 1280.03 -1.55556 0.252993 0
M  V30 13582 C 1281.45 -1.85032 -0.249011 0
M  V30 13583 C 1281.8 -1.17488 -1.57134 0
M  V30 13584 O 1280.92 -0.455387 -2.11554 0
M  V30 13585 C 1281.52 -3.35682 -0.458589 0
M  V30 13586 C 1280.08 -3.65362 -0.90485 0
M  V30 13587 C 1279.22 -2.77296 0.0144927 0
M  V30 13588 H 1282.17 -1.51412 0.475394 0
M  V30 13589 H 1282.19 -3.57591 -1.30034 0
M  V30 13590 H 1281.71 -3.84814 0.503981 0
M  V30 13591 H 1279.81 -3.21713 -1.87967 0
M  V30 13592 H 1279.92 -4.73074 -0.757492 0
M  V30 13593 H 1278.28 -2.49785 -0.497954 0
M  V30 13594 H 1279.07 -3.29236 0.972546 0
M  V30 13595 N 1281.51 0.0200419 -1.57587 0
M  V30 13596 C 1282.76 0.707627 -1.89307 0
M  V30 13597 C 1283.08 1.7541 -0.851831 0
M  V30 13598 O 1282.35 1.95571 0.113404 0
M  V30 13599 H 1280.93 0.264349 -0.698662 0
M  V30 13600 H 1283.59 -0.0161428 -1.94893 0
M  V30 13601 H 1282.69 1.19152 -2.8846 0
M  V30 13602 N 1282.99 1.54862 0.292472 0
M  V30 13603 C 1284.22 1.7855 1.04534 0
M  V30 13604 C 1284.63 0.549161 1.80637 0
M  V30 13605 O 1283.99 -0.481268 1.7604 0
M  V30 13606 C 1284.04 2.99849 2.01923 0
M  V30 13607 O 1283.76 4.18706 1.28907 0
M  V30 13608 C 1285.26 3.35991 2.8918 0
M  V30 13609 H 1282.48 0.595279 0.309652 0
M  V30 13610 H 1285.03 2.01834 0.329159 0
M  V30 13611 H 1283.18 2.78749 2.69032 0
M  V30 13612 H 1283.6 4.87151 1.94383 0
M  V30 13613 H 1285.07 4.24085 3.53349 0
M  V30 13614 H 1285.55 2.54524 3.57931 0
M  V30 13615 H 1286.15 3.59281 2.27591 0
M  V30 13616 N 1284.47 -0.556076 1.47464 0
M  V30 13617 C 1285.69 -1.3434 1.58011 0
M  V30 13618 C 1286.12 -1.86674 0.231138 0
M  V30 13619 O 1285.48 -1.63029 -0.793174 0
M  V30 13620 C 1285.52 -2.48844 2.60977 0
M  V30 13621 O 1284.63 -3.51108 2.16326 0
M  V30 13622 H 1283.97 -0.398986 0.53076 0
M  V30 13623 H 1286.5 -0.671898 1.93253 0
M  V30 13624 H 1286.51 -2.95398 2.81432 0
M  V30 13625 H 1285.18 -2.10109 3.58925 0
M  V30 13626 H 1283.76 -3.10852 2.05975 0
M  V30 13627 N 1285.95 -1.35615 -0.802897 0
M  V30 13628 C 1287.18 -1.32217 -1.59142 0
M  V30 13629 C 1287.59 0.0995496 -1.88537 0
M  V30 13630 O 1286.95 1.05258 -1.49087 0
M  V30 13631 C 1287 -2.13048 -2.92049 0
M  V30 13632 O 1286.72 -3.49677 -2.63927 0
M  V30 13633 C 1288.22 -2.17278 -3.864 0
M  V30 13634 H 1285.44 -0.454054 -0.49404 0
M  V30 13635 H 1287.98 -1.78521 -0.997516 0
M  V30 13636 H 1286.14 -1.70334 -3.47944 0
M  V30 13637 H 1286.55 -3.917 -3.48814 0
M  V30 13638 H 1288.03 -2.7822 -4.76758 0
M  V30 13639 H 1288.5 -1.17253 -4.23259 0
M  V30 13640 H 1289.11 -2.6017 -3.3644 0
M  V30 13641 N 1287.43 1.02549 -1.19673 0
M  V30 13642 C 1288.37 2.109 -0.937536 0
M  V30 13643 C 1289.34 1.65599 0.128923 0
M  V30 13644 O 1290.53 1.90795 -0.0139366 0
M  V30 13645 C 1287.67 3.4166 -0.48602 0
M  V30 13646 C 1286.78 4.0049 -1.61963 0
M  V30 13647 C 1285.92 5.19273 -1.11931 0
M  V30 13648 C 1284.95 5.70166 -2.22659 0
M  V30 13649 N 1284.09 6.80221 -1.73909 0
M  V30 13650 H 1288.93 2.32408 -1.86523 0
M  V30 13651 H 1286.47 1.13982 -0.929869 0
M  V30 13652 H 1288.43 4.16693 -0.205614 0
M  V30 13653 H 1287.06 3.20253 0.404678 0
M  V30 13654 H 1286.11 3.22638 -2.01516 0
M  V30 13655 H 1287.42 4.34273 -2.45374 0
M  V30 13656 H 1286.57 6.01478 -0.794336 0
M  V30 13657 H 1285.31 4.87033 -0.254972 0
M  V30 13658 H 1284.32 4.86572 -2.55983 0
M  V30 13659 H 1285.54 6.04444 -3.09554 0
M  V30 13660 H 1283.49 6.49826 -0.897889 0
M  V30 13661 H 1283.41 7.13149 -2.50907 0
M  V30 13662 H 1284.67 7.66011 -1.44386 0
M  V30 13663 N 1288.9 1.00119 1.21713 0
M  V30 13664 C 1290.18 0.597366 1.86255 0
M  V30 13665 C 1290.56 -0.925124 1.89749 0
M  V30 13666 O 1289.91 -1.8105 1.39402 0
M  V30 13667 C 1290.12 1.22735 3.26707 0
M  V30 13668 C 1291.47 1.33307 4.03131 0
M  V30 13669 O 1292.49 1.18237 3.36003 0
M  V30 13670 O 1291.35 1.57509 5.2331 0
M  V30 13671 H 1288.44 0.204091 0.801421 0
M  V30 13672 H 1290.99 1.09759 1.29426 0
M  V30 13673 H 1289.76 2.26837 3.18843 0
M  V30 13674 H 1289.38 0.713232 3.91151 0
M  V30 13675 N 1290.38 -1.37203 0.775435 0
M  V30 13676 C 1291.79 -1.82224 0.406372 0
M  V30 13677 C 1292.14 -1.64587 -1.06796 0
M  V30 13678 O 1291.27 -1.15903 -1.82744 0
M  V30 13679 C 1291.86 -3.30824 0.730819 0
M  V30 13680 C 1290.42 -3.74108 0.414766 0
M  V30 13681 C 1289.57 -2.59679 0.972747 0
M  V30 13682 H 1292.52 -1.25623 0.969775 0
M  V30 13683 H 1292.54 -3.80496 0.0168066 0
M  V30 13684 H 1292.05 -3.43628 1.80392 0
M  V30 13685 H 1290.15 -3.66871 -0.650866 0
M  V30 13686 H 1290.27 -4.70074 0.925595 0
M  V30 13687 H 1288.63 -2.51591 0.396772 0
M  V30 13688 H 1289.41 -2.75274 2.05132 0
M  V30 13689 N 1291.86 -0.526279 -1.48553 0
M  V30 13690 C 1293.28 -0.183886 -1.58537 0
M  V30 13691 C 1293.48 1.31272 -1.52872 0
M  V30 13692 O 1292.53 2.09069 -1.41585 0
M  V30 13693 C 1293.84 -0.78313 -2.90323 0
M  V30 13694 C 1295.39 -0.751527 -3.03844 0
M  V30 13695 C 1295.87 -1.32928 -4.38285 0
M  V30 13696 N 1297.36 -1.29109 -4.44843 0
M  V30 13697 C 1298.09 -1.70806 -5.47369 0
M  V30 13698 N 1297.59 -2.20215 -6.56869 0
M  V30 13699 N 1299.38 -1.62065 -5.3823 0
M  V30 13700 H 1291.53 -1.499 -1.50478 0
M  V30 13701 H 1293.8 -0.623294 -0.714289 0
M  V30 13702 H 1293.5 -1.83371 -3.00113 0
M  V30 13703 H 1293.38 -0.25808 -3.76316 0
M  V30 13704 H 1295.76 0.290282 -2.93669 0
M  V30 13705 H 1295.84 -1.314 -2.19471 0
M  V30 13706 H 1295.49 -2.37 -4.49214 0
M  V30 13707 H 1295.42 -0.742516 -5.21339 0
M  V30 13708 H 1297.91 -0.929348 -3.66294 0
M  V30 13709 H 1298.22 -2.50035 -7.31233 0
M  V30 13710 H 1296.57 -2.24206 -6.57842 0
M  V30 13711 H 1299.76 -1.23265 -4.51579 0
M  V30 13712 H 1299.93 -1.94883 -6.18001 0
M  V30 13713 N 1293.34 1.5542 -0.261239 0
M  V30 13714 C 1294.59 1.9889 0.358777 0
M  V30 13715 C 1294.91 1.15092 1.57413 0
M  V30 13716 O 1294.18 0.237095 1.9446 0
M  V30 13717 H 1292.76 0.734599 0.13555 0
M  V30 13718 H 1295.42 1.91483 -0.363357 0
M  V30 13719 H 1294.51 3.05082 0.658142 0
M  V30 13720 N 1294.82 -0.0116844 1.57596 0
M  V30 13721 C 1296.04 -0.71026 1.94327 0
M  V30 13722 C 1296.46 -1.67952 0.862418 0
M  V30 13723 O 1295.82 -1.818 -0.159698 0
M  V30 13724 C 1295.87 -1.45228 3.31045 0
M  V30 13725 O 1295.59 -0.52191 4.3498 0
M  V30 13726 C 1297.09 -2.24644 3.82165 0
M  V30 13727 H 1294.31 -0.198559 0.640949 0
M  V30 13728 H 1296.85 0.0359615 2.04468 0
M  V30 13729 H 1295.01 -2.15023 3.22248 0
M  V30 13730 H 1295.42 -1.04415 5.14002 0
M  V30 13731 H 1296.9 -2.72078 4.80289 0
M  V30 13732 H 1297.37 -3.06817 3.14261 0
M  V30 13733 H 1297.98 -1.59888 3.94101 0
M  V30 13734 N 1296.29 -1.55015 -0.284256 0
M  V30 13735 C 1297.52 -1.79431 -1.04016 0
M  V30 13736 C 1297.94 -0.560254 -1.79563 0
M  V30 13737 O 1297.3 0.489804 -1.74558 0
M  V30 13738 C 1297.35 -3.01162 -1.98328 0
M  V30 13739 O 1296.45 -2.75459 -3.06914 0
M  V30 13740 H 1295.79 -0.593391 -0.297965 0
M  V30 13741 H 1298.32 -2.02136 -0.316585 0
M  V30 13742 H 1298.33 -3.29589 -2.40489 0
M  V30 13743 H 1297.01 -3.90634 -1.42751 0
M  V30 13744 H 1295.59 -2.58096 -2.69148 0
M  V30 13745 N 1297.77 0.548248 -1.47757 0
M  V30 13746 C 1298.73 1.63666 -1.60456 0
M  V30 13747 C 1299.73 1.53499 -0.479028 0
M  V30 13748 O 1300.92 1.57497 -0.744342 0
M  V30 13749 C 1298.06 3.03239 -1.55754 0
M  V30 13750 H 1299.25 1.53752 -2.57488 0
M  V30 13751 H 1296.8 0.768881 -1.36081 0
M  V30 13752 H 1297.54 3.18677 -0.601303 0
M  V30 13753 H 1297.32 3.12027 -2.37448 0
M  V30 13754 H 1298.81 3.82406 -1.67797 0
M  V30 13755 N 1299.25 1.36039 0.795694 0
M  V30 13756 C 1300.5 1.29663 1.55023 0
M  V30 13757 C 1300.82 -0.125588 1.94595 0
M  V30 13758 O 1300.09 -1.06447 1.64456 0
M  V30 13759 H 1298.67 0.476962 0.574906 0
M  V30 13760 H 1301.33 1.70265 0.948471 0
M  V30 13761 H 1300.43 1.91982 2.46068 0
M  V30 13762 N 1300.73 -1.01913 1.20215 0
M  V30 13763 C 1302.14 -1.27766 0.956459 0
M  V30 13764 C 1302.34 -1.98158 -0.365486 0
M  V30 13765 O 1301.4 -2.27539 -1.09463 0
M  V30 13766 C 1302.71 -2.11516 2.13732 0
M  V30 13767 C 1304.26 -2.24792 2.17802 0
M  V30 13768 C 1304.74 -3.11919 3.35367 0
M  V30 13769 N 1306.23 -3.19507 3.35364 0
M  V30 13770 C 1306.96 -3.8714 4.22978 0
M  V30 13771 N 1306.46 -4.5692 5.20765 0
M  V30 13772 N 1308.25 -3.83638 4.10827 0
M  V30 13773 H 1300.4 -0.546426 2.05251 0
M  V30 13774 H 1302.67 -0.303772 0.898012 0
M  V30 13775 H 1302.37 -1.67127 3.09453 0
M  V30 13776 H 1302.25 -3.12249 2.11614 0
M  V30 13777 H 1304.63 -2.68407 1.22645 0
M  V30 13778 H 1304.71 -1.23576 2.2397 0
M  V30 13779 H 1304.36 -2.6901 4.30809 0
M  V30 13780 H 1304.29 -4.13215 3.26436 0
M  V30 13781 H 1306.78 -2.69819 2.64587 0
M  V30 13782 H 1307.09 -5.06188 5.83947 0
M  V30 13783 H 1305.44 -4.55753 5.24704 0
M  V30 13784 H 1308.63 -3.28268 3.33703 0
M  V30 13785 H 1308.8 -4.36071 4.79318 0
M  V30 13786 N 1302.21 -1.00763 -1.2118 0
M  V30 13787 C 1303.62 -0.720905 -1.42391 0
M  V30 13788 C 1303.82 0.702918 -1.88842 0
M  V30 13789 O 1302.88 1.47191 -2.05161 0
M  V30 13790 C 1304.19 -1.739 -2.45315 0
M  V30 13791 C 1305.74 -1.75611 -2.59094 0
M  V30 13792 C 1306.21 -2.76323 -3.65253 0
M  V30 13793 N 1307.71 -2.75007 -3.72727 0
M  V30 13794 C 1308.44 -3.49594 -4.54502 0
M  V30 13795 N 1307.94 -4.33828 -5.40153 0
M  V30 13796 N 1309.73 -3.38232 -4.4895 0
M  V30 13797 H 1301.88 -1.92697 -0.893404 0
M  V30 13798 H 1304.14 -0.831888 -0.454606 0
M  V30 13799 H 1303.85 -2.75859 -2.18162 0
M  V30 13800 H 1303.72 -1.5438 -3.44161 0
M  V30 13801 H 1306.11 -0.743416 -2.85582 0
M  V30 13802 H 1306.19 -1.99203 -1.60474 0
M  V30 13803 H 1305.84 -3.77751 -3.39509 0
M  V30 13804 H 1305.77 -2.49996 -4.63476 0
M  V30 13805 H 1308.26 -2.13897 -3.11539 0
M  V30 13806 H 1308.57 -4.8753 -5.99612 0
M  V30 13807 H 1306.91 -4.3791 -5.39685 0
M  V30 13808 H 1310.11 -2.71855 -3.81068 0
M  V30 13809 H 1310.28 -3.96615 -5.12445 0
M  V30 13810 N 1303.68 1.3679 -0.7827 0
M  V30 13811 C 1305.1 1.82006 -0.41603 0
M  V30 13812 C 1305.45 1.65151 1.05922 0
M  V30 13813 O 1304.57 1.1687 1.82127 0
M  V30 13814 C 1305.17 3.30432 -0.748353 0
M  V30 13815 C 1303.73 3.73883 -0.4346 0
M  V30 13816 C 1302.87 2.59159 -0.986505 0
M  V30 13817 H 1305.82 1.25107 -0.976423 0
M  V30 13818 H 1305.84 3.80482 -0.036985 0
M  V30 13819 H 1305.36 3.42667 -1.82212 0
M  V30 13820 H 1303.46 3.67211 0.631401 0
M  V30 13821 H 1303.57 4.69577 -0.950511 0
M  V30 13822 H 1301.93 2.51377 -0.410108 0
M  V30 13823 H 1302.72 2.74182 -2.06589 0
M  V30 13824 N 1305.16 0.53415 1.48272 0
M  V30 13825 C 1306.07 -0.230062 2.33469 0
M  V30 13826 C 1307.09 -0.934889 1.46751 0
M  V30 13827 O 1308.26 -0.908921 1.79724 0
M  V30 13828 C 1305.33 -1.2609 3.22958 0
M  V30 13829 C 1304.39 -0.565983 4.25553 0
M  V30 13830 C 1303.62 -1.54771 5.10766 0
M  V30 13831 O 1303.85 -2.7807 4.9803 0
M  V30 13832 O 1302.78 -1.08482 5.92043 0
M  V30 13833 H 1306.61 0.468182 3.0007 0
M  V30 13834 H 1304.19 0.29502 1.46458 0
M  V30 13835 H 1306.07 -1.85652 3.783 0
M  V30 13836 H 1304.75 -1.94148 2.59014 0
M  V30 13837 H 1303.66 0.0702391 3.74034 0
M  V30 13838 H 1304.99 0.0727277 4.92146 0
M  V30 13839 N 1306.64 -1.55279 0.269478 0
M  V30 13840 C 1307.57 -2.25278 -0.614188 0
M  V30 13841 C 1308.55 -1.24092 -1.1634 0
M  V30 13842 O 1309.74 -1.52799 -1.19858 0
M  V30 13843 C 1306.87 -2.96956 -1.80096 0
M  V30 13844 C 1305.82 -4.05021 -1.38353 0
M  V30 13845 C 1305.15 -4.64244 -2.65295 0
M  V30 13846 C 1306.45 -5.19523 -0.537886 0
M  V30 13847 H 1308.14 -2.99385 -0.0304397 0
M  V30 13848 H 1305.69 -1.43994 -0.0132004 0
M  V30 13849 H 1307.64 -3.44633 -2.42499 0
M  V30 13850 H 1306.36 -2.20374 -2.41045 0
M  V30 13851 H 1305.02 -3.58146 -0.78273 0
M  V30 13852 H 1304.67 -3.84337 -3.2449 0
M  V30 13853 H 1304.37 -5.37208 -2.38079 0
M  V30 13854 H 1305.89 -5.14668 -3.28557 0
M  V30 13855 H 1307.31 -5.63287 -1.06677 0
M  V30 13856 H 1305.71 -5.99014 -0.360845 0
M  V30 13857 H 1306.78 -4.82857 0.444672 0
M  V30 13858 N 1308.12 0.00332656 -1.576 0
M  V30 13859 C 1309.53 0.359361 -1.55502 0
M  V30 13860 C 1309.73 1.74997 -0.998914 0
M  V30 13861 O 1308.79 2.44482 -0.631263 0
M  V30 13862 C 1310.1 0.237638 -2.9976 0
M  V30 13863 C 1311.65 0.312824 -3.11433 0
M  V30 13864 C 1312.13 0.220262 -4.5747 0
M  V30 13865 N 1313.62 0.278265 -4.62363 0
M  V30 13866 C 1314.35 0.229933 -5.72939 0
M  V30 13867 N 1313.85 0.132391 -6.92673 0
M  V30 13868 N 1315.64 0.281555 -5.61394 0
M  V30 13869 H 1307.79 -0.906404 -1.92089 0
M  V30 13870 H 1310.06 -0.347129 -0.88216 0
M  V30 13871 H 1309.76 -0.719007 -3.44272 0
M  V30 13872 H 1309.64 1.02105 -3.63118 0
M  V30 13873 H 1312.02 1.25991 -2.66852 0
M  V30 13874 H 1312.1 -0.500395 -2.50858 0
M  V30 13875 H 1311.75 -0.723267 -5.02724 0
M  V30 13876 H 1311.68 1.05192 -5.15987 0
M  V30 13877 H 1314.17 0.35512 -3.76228 0
M  V30 13878 H 1314.48 0.101317 -7.72734 0
M  V30 13879 H 1312.83 0.0980665 -6.94931 0
M  V30 13880 H 1316.02 0.355931 -4.66745 0
M  V30 13881 H 1316.19 0.240423 -6.47554 0
M  V30 13882 N 1309.6 1.55164 0.276031 0
M  V30 13883 C 1311.01 1.46936 0.623061 0
M  V30 13884 C 1311.21 0.680977 1.89644 0
M  V30 13885 O 1310.27 0.198618 2.51718 0
M  V30 13886 C 1311.58 2.91123 0.752839 0
M  V30 13887 C 1313.13 3.01319 0.847093 0
M  V30 13888 C 1313.6 4.46755 1.00867 0
M  V30 13889 N 1315.1 4.5057 1.07427 0
M  V30 13890 C 1315.83 5.60314 1.21804 0
M  V30 13891 N 1315.33 6.7993 1.32919 0
M  V30 13892 N 1317.12 5.4805 1.2489 0
M  V30 13893 H 1309.27 2.04877 -0.560282 0
M  V30 13894 H 1311.53 0.928925 -0.189217 0
M  V30 13895 H 1311.24 3.51521 -0.112333 0
M  V30 13896 H 1311.11 3.39967 1.63408 0
M  V30 13897 H 1313.5 2.41021 1.70274 0
M  V30 13898 H 1313.58 2.55733 -0.0586896 0
M  V30 13899 H 1313.23 5.07655 0.1577 0
M  V30 13900 H 1313.16 4.89995 1.92906 0
M  V30 13901 H 1315.65 3.64404 1.00089 0
M  V30 13902 H 1315.96 7.59319 1.43714 0
M  V30 13903 H 1314.3 6.82747 1.29929 0
M  V30 13904 H 1317.5 4.53542 1.15834 0
M  V30 13905 H 1317.67 6.33621 1.3575 0
M  V30 13906 N 1311.07 -0.540404 1.48045 0
M  V30 13907 C 1311.98 -1.67308 1.64455 0
M  V30 13908 C 1313 -1.65823 0.527152 0
M  V30 13909 O 1314.18 -1.84964 0.796881 0
M  V30 13910 C 1311.24 -3.03792 1.67068 0
M  V30 13911 C 1310.3 -3.16213 2.90358 0
M  V30 13912 C 1309.54 -4.46187 2.92837 0
M  V30 13913 O 1309.76 -5.32662 2.04029 0
M  V30 13914 O 1308.69 -4.62754 3.84892 0
M  V30 13915 H 1312.52 -1.56403 2.6033 0
M  V30 13916 H 1310.1 -0.712323 1.31325 0
M  V30 13917 H 1311.99 -3.84982 1.71368 0
M  V30 13918 H 1310.66 -3.15043 0.74363 0
M  V30 13919 H 1309.57 -2.34357 2.91595 0
M  V30 13920 H 1310.9 -3.09874 3.82412 0
M  V30 13921 N 1312.55 -1.36459 -0.788468 0
M  V30 13922 C 1313.97 -1.16893 -1.08666 0
M  V30 13923 C 1314.17 0.00633808 -2.01499 0
M  V30 13924 O 1313.22 0.671417 -2.4341 0
M  V30 13925 C 1314.54 -2.48018 -1.70022 0
M  V30 13926 C 1316.09 -2.5439 -1.82358 0
M  V30 13927 C 1316.56 -3.85605 -2.47129 0
M  V30 13928 N 1318.05 -3.86956 -2.54597 0
M  V30 13929 C 1318.79 -4.85224 -3.05525 0
M  V30 13930 N 1318.28 -5.93885 -3.56753 0
M  V30 13931 N 1320.08 -4.72643 -3.04246 0
M  V30 13932 H 1312.23 -2.11705 -0.171733 0
M  V30 13933 H 1314.49 -0.937784 -0.1388 0
M  V30 13934 H 1314.2 -3.34292 -1.09277 0
M  V30 13935 H 1314.07 -2.63894 -2.69518 0
M  V30 13936 H 1316.46 -1.68534 -2.4224 0
M  V30 13937 H 1316.54 -2.42414 -0.816651 0
M  V30 13938 H 1316.18 -4.71868 -1.87891 0
M  V30 13939 H 1316.11 -3.94878 -3.48395 0
M  V30 13940 H 1318.6 -3.08453 -2.18323 0
M  V30 13941 H 1318.92 -6.64839 -3.93966 0
M  V30 13942 H 1317.26 -5.97553 -3.54902 0
M  V30 13943 H 1320.45 -3.86883 -2.63513 0
M  V30 13944 H 1320.62 -5.49385 -3.43627 0
M  V30 13945 N 1314.03 1.01274 -1.20754 0
M  V30 13946 C 1315.26 1.7906 -1.04653 0
M  V30 13947 C 1315.68 1.83806 0.399632 0
M  V30 13948 O 1315.04 1.27596 1.28798 0
M  V30 13949 C 1315.09 3.21187 -1.63925 0
M  V30 13950 O 1314.19 4.02913 -0.879486 0
M  V30 13951 H 1313.53 0.552147 -0.368823 0
M  V30 13952 H 1316.06 1.27356 -1.6013 0
M  V30 13953 H 1316.07 3.71887 -1.67822 0
M  V30 13954 H 1314.75 3.17048 -2.69172 0
M  V30 13955 H 1313.32 3.61499 -0.915019 0
M  V30 13956 N 1315.51 1.01404 1.20644 0
M  V30 13957 C 1316.76 0.697244 1.89265 0
M  V30 13958 C 1317.07 -0.776149 1.79542 0
M  V30 13959 O 1318.28 -1.2054 2.43274 0
M  V30 13960 C 1316.73 1.19672 3.39421 0
M  V30 13961 C 1316.34 2.69683 3.57736 0
M  V30 13962 C 1318.09 0.955225 4.13613 0
M  V30 13963 C 1315.99 3.13124 5.01704 0
M  V30 13964 H 1314.92 0.257105 0.708811 0
M  V30 13965 H 1317.57 1.22639 1.36499 0
M  V30 13966 H 1315.96 0.595562 3.91496 0
M  V30 13967 H 1317.13 3.35326 3.16059 0
M  V30 13968 H 1315.44 2.91946 2.96911 0
M  V30 13969 H 1318.04 1.25524 5.19757 0
M  V30 13970 H 1318.38 -0.108362 4.16159 0
M  V30 13971 H 1318.92 1.51962 3.67631 0
M  V30 13972 H 1315.66 4.18748 5.04311 0
M  V30 13973 H 1315.18 2.522 5.44201 0
M  V30 13974 H 1316.86 3.05617 5.70269 0
M  V30 13975 N 1316.99 -1.36373 0.789944 0
M  V30 13976 C 1317.93 -2.30043 0.186798 0
M  V30 13977 C 1318.9 -1.52002 -0.669663 0
M  V30 13978 O 1320.09 -1.80506 -0.618232 0
M  V30 13979 C 1317.23 -3.38494 -0.671994 0
M  V30 13980 C 1316.34 -4.31522 0.203067 0
M  V30 13981 C 1315.48 -5.27057 -0.662148 0
M  V30 13982 C 1314.52 -6.11725 0.214335 0
M  V30 13983 N 1313.65 -6.99446 -0.609892 0
M  V30 13984 H 1318.49 -2.81038 0.991048 0
M  V30 13985 H 1316.03 -1.38331 0.500288 0
M  V30 13986 H 1317.99 -4.0002 -1.1849 0
M  V30 13987 H 1316.62 -2.88818 -1.44167 0
M  V30 13988 H 1315.67 -3.71146 0.833945 0
M  V30 13989 H 1316.98 -4.91005 0.878389 0
M  V30 13990 H 1316.14 -5.93875 -1.24084 0
M  V30 13991 H 1314.88 -4.6803 -1.37109 0
M  V30 13992 H 1313.88 -5.43868 0.805426 0
M  V30 13993 H 1315.11 -6.72827 0.92089 0
M  V30 13994 H 1313.05 -6.42927 -1.30312 0
M  V30 13995 H 1312.97 -7.56 0.00773786 0
M  V30 13996 H 1314.24 -7.70633 -1.1724 0
M  V30 13997 N 1318.47 -0.542005 -1.47987 0
M  V30 13998 C 1319.69 -0.0146835 -2.07395 0
M  V30 13999 C 1320.12 1.26266 -1.39422 0
M  V30 14000 O 1319.47 1.75259 -0.464118 0
M  V30 14001 C 1319.52 0.179937 -3.60151 0
M  V30 14002 O 1318.63 1.24596 -3.93128 0
M  V30 14003 H 1317.97 -0.0445076 -0.662507 0
M  V30 14004 H 1320.5 -0.753352 -1.90226 0
M  V30 14005 H 1320.51 0.398876 -4.06046 0
M  V30 14006 H 1319.18 -0.753093 -4.09025 0
M  V30 14007 H 1317.76 1.00872 -3.58997 0
M  V30 14008 N 1319.94 1.55134 -0.277709 0
M  V30 14009 C 1321.19 1.99949 0.338831 0
M  V30 14010 C 1321.52 1.16587 1.5531 0
M  V30 14011 O 1320.8 0.236572 1.93056 0
M  V30 14012 C 1321.08 3.5286 0.718457 0
M  V30 14013 C 1320.93 4.46975 -0.503332 0
M  V30 14014 C 1322.25 4.11754 1.55392 0
M  V30 14015 H 1319.37 0.726885 0.121682 0
M  V30 14016 H 1322.01 1.86055 -0.385171 0
M  V30 14017 H 1320.16 3.64831 1.33531 0
M  V30 14018 H 1321.84 4.46944 -1.14188 0
M  V30 14019 H 1320.08 4.18528 -1.14092 0
M  V30 14020 H 1320.75 5.51659 -0.193912 0
M  V30 14021 H 1323.23 4.03075 1.03293 0
M  V30 14022 H 1322.1 5.1895 1.78835 0
M  V30 14023 H 1322.36 3.62147 2.53578 0
M  V30 14024 N 1321.42 0.00503138 1.57599 0
M  V30 14025 C 1322.83 -0.537106 1.78807 0
M  V30 14026 C 1323.18 -1.73666 0.912945 0
M  V30 14027 O 1322.31 -2.16085 0.116775 0
M  V30 14028 C 1322.9 -0.98116 3.24282 0
M  V30 14029 C 1321.46 -1.46857 3.46569 0
M  V30 14030 C 1320.61 -0.422088 2.74069 0
M  V30 14031 H 1323.56 0.231182 1.57007 0
M  V30 14032 H 1323.58 -1.8469 3.32671 0
M  V30 14033 H 1323.09 -0.107907 3.8795 0
M  V30 14034 H 1321.19 -2.36255 2.88122 0
M  V30 14035 H 1321.31 -1.49256 4.55258 0
M  V30 14036 H 1319.67 -0.884853 2.38836 0
M  V30 14037 H 1320.45 0.442285 3.40439 0
M  V30 14038 N 1322.9 -1.55308 -0.267798 0
M  V30 14039 C 1323.81 -1.91649 -1.35307 0
M  V30 14040 C 1324.83 -0.814349 -1.53767 0
M  V30 14041 O 1326 -1.11388 -1.67793 0
M  V30 14042 C 1323.07 -2.18553 -2.69138 0
M  V30 14043 C 1322.13 -3.42083 -2.5938 0
M  V30 14044 C 1321.36 -3.67695 -3.86828 0
M  V30 14045 O 1321.58 -2.95728 -4.87751 0
M  V30 14046 O 1320.52 -4.61229 -3.86718 0
M  V30 14047 H 1324.34 -2.84044 -1.07483 0
M  V30 14048 H 1321.93 -1.41921 -0.466772 0
M  V30 14049 H 1323.81 -2.3726 -3.48261 0
M  V30 14050 H 1322.49 -1.2934 -2.96737 0
M  V30 14051 H 1321.39 -3.28706 -1.78614 0
M  V30 14052 H 1322.73 -4.31532 -2.36729 0
M  V30 14053 N 1324.38 0.532545 -1.4833 0
M  V30 14054 C 1325.32 1.63737 -1.62661 0
M  V30 14055 C 1326.29 1.59348 -0.468758 0
M  V30 14056 O 1327.48 1.77812 -0.691921 0
M  V30 14057 C 1324.62 3.02006 -1.66993 0
M  V30 14058 C 1323.73 3.16648 -2.93867 0
M  V30 14059 C 1322.87 4.4546 -2.89376 0
M  V30 14060 C 1321.91 4.53622 -4.10966 0
M  V30 14061 N 1321.04 5.7382 -4.04567 0
M  V30 14062 H 1325.88 1.50828 -2.57012 0
M  V30 14063 H 1323.42 0.734348 -1.27459 0
M  V30 14064 H 1325.38 3.82105 -1.67486 0
M  V30 14065 H 1324.01 3.13693 -0.76135 0
M  V30 14066 H 1323.06 2.29817 -3.0313 0
M  V30 14067 H 1324.37 3.1854 -3.8384 0
M  V30 14068 H 1323.53 5.33848 -2.88256 0
M  V30 14069 H 1322.27 4.46085 -1.97127 0
M  V30 14070 H 1321.27 3.63642 -4.12364 0
M  V30 14071 H 1322.5 4.54738 -5.04371 0
M  V30 14072 H 1320.44 5.75347 -3.15137 0
M  V30 14073 H 1320.36 5.77196 -4.88243 0
M  V30 14074 H 1321.63 6.64502 -4.07502 0
M  V30 14075 N 1325.86 1.36875 0.78122 0
M  V30 14076 C 1327.13 1.22101 1.52809 0
M  V30 14077 C 1327.51 -0.189402 2.10249 0
M  V30 14078 O 1326.86 -1.19598 1.94701 0
M  V30 14079 C 1327.07 2.30953 2.61652 0
M  V30 14080 C 1328.42 2.68027 3.29313 0
M  V30 14081 O 1329.44 2.30058 2.71941 0
M  V30 14082 O 1328.3 3.33407 4.33015 0
M  V30 14083 H 1325.4 0.4759 0.676349 0
M  V30 14084 H 1327.94 1.48629 0.818998 0
M  V30 14085 H 1326.71 3.25443 2.17261 0
M  V30 14086 H 1326.34 2.05837 3.40172 0
M  V30 14087 N 1327.33 -1.00632 1.21289 0
M  V30 14088 C 1328.75 -1.26744 0.969956 0
M  V30 14089 C 1328.95 -1.98534 -0.344449 0
M  V30 14090 O 1328.01 -2.28687 -1.07044 0
M  V30 14091 C 1329.32 -2.09238 2.15963 0
M  V30 14092 C 1330.87 -2.22469 2.20174 0
M  V30 14093 C 1331.34 -3.08344 3.38656 0
M  V30 14094 N 1332.83 -3.15932 3.38734 0
M  V30 14095 C 1333.57 -3.82632 4.2706 0
M  V30 14096 N 1333.06 -4.51371 5.25582 0
M  V30 14097 N 1334.86 -3.79259 4.14872 0
M  V30 14098 H 1327.01 -0.524626 2.05819 0
M  V30 14099 H 1329.27 -0.294231 0.901184 0
M  V30 14100 H 1328.98 -1.63835 3.11209 0
M  V30 14101 H 1328.85 -3.09987 2.14914 0
M  V30 14102 H 1331.24 -2.67091 1.25485 0
M  V30 14103 H 1331.32 -1.21194 2.25268 0
M  V30 14104 H 1330.96 -2.64425 4.33638 0
M  V30 14105 H 1330.89 -4.0973 3.30801 0
M  V30 14106 H 1333.38 -2.66998 2.67434 0
M  V30 14107 H 1333.7 -4.99966 5.89283 0
M  V30 14108 H 1332.04 -4.50162 5.29508 0
M  V30 14109 H 1335.23 -3.2471 3.37166 0
M  V30 14110 H 1335.41 -4.30963 4.83916 0
M  V30 14111 N 1328.81 -1.02043 -1.20104 0
M  V30 14112 C 1330.04 -0.731315 -1.93544 0
M  V30 14113 C 1330.45 0.708582 -1.74999 0
M  V30 14114 O 1329.81 1.481 -1.06642 0
M  V30 14115 C 1329.86 -1.06233 -3.45538 0
M  V30 14116 O 1329.58 -2.44568 -3.63481 0
M  V30 14117 C 1331.08 -0.794818 -4.36116 0
M  V30 14118 H 1328.3 -0.268248 -0.615048 0
M  V30 14119 H 1330.85 -1.36264 -1.52488 0
M  V30 14120 H 1329 -0.476341 -3.8446 0
M  V30 14121 H 1329.42 -2.5663 -4.57429 0
M  V30 14122 H 1330.89 -1.07647 -5.41402 0
M  V30 14123 H 1331.37 0.270944 -4.38363 0
M  V30 14124 H 1331.97 -1.36314 -4.02863 0
M  V30 14125 N 1330.29 1.35952 -0.797165 0
M  V30 14126 C 1331.52 2.0328 -0.385316 0
M  V30 14127 C 1331.93 1.60095 1.00076 0
M  V30 14128 O 1331.29 0.794014 1.64322 0
M  V30 14129 C 1331.34 3.5871 -0.448284 0
M  V30 14130 O 1331.06 4.00323 -1.7797 0
M  V30 14131 C 1332.56 4.43291 -0.0280465 0
M  V30 14132 H 1329.78 0.652192 -0.157756 0
M  V30 14133 H 1332.33 1.73769 -1.07817 0
M  V30 14134 H 1330.48 3.86903 0.196224 0
M  V30 14135 H 1330.9 4.94941 -1.73592 0
M  V30 14136 H 1332.37 5.51862 -0.123234 0
M  V30 14137 H 1332.85 4.27059 1.02552 0
M  V30 14138 H 1333.45 4.20375 -0.645343 0
M  V30 14139 N 1331.77 0.549846 1.47697 0
M  V30 14140 C 1332.99 0.0256819 2.07384 0
M  V30 14141 C 1333.42 -1.25525 1.4009 0
M  V30 14142 O 1332.78 -1.7501 0.473406 0
M  V30 14143 C 1332.82 -0.160835 3.60241 0
M  V30 14144 O 1331.93 -1.22509 3.93783 0
M  V30 14145 H 1331.27 0.0480204 0.662261 0
M  V30 14146 H 1333.8 0.763429 1.89823 0
M  V30 14147 H 1333.81 -0.377337 4.06251 0
M  V30 14148 H 1332.48 0.774774 4.0862 0
M  V30 14149 H 1331.06 -0.98967 3.59527 0
M  V30 14150 N 1333.25 -1.54984 0.285932 0
M  V30 14151 C 1334.16 -2.26621 -0.606648 0
M  V30 14152 C 1335.17 -1.29595 -1.16108 0
M  V30 14153 O 1336.35 -1.62551 -1.18908 0
M  V30 14154 C 1333.41 -2.98156 -1.76929 0
M  V30 14155 C 1332.47 -4.10685 -1.25045 0
M  V30 14156 C 1331.71 -4.788 -2.35768 0
M  V30 14157 O 1331.93 -4.46183 -3.55354 0
M  V30 14158 O 1330.86 -5.66523 -2.03312 0
M  V30 14159 H 1334.69 -3.03689 -0.0259981 0
M  V30 14160 H 1332.28 -1.49306 0.0529355 0
M  V30 14161 H 1334.16 -3.43076 -2.44697 0
M  V30 14162 H 1332.83 -2.23996 -2.33683 0
M  V30 14163 H 1331.74 -3.70198 -0.538919 0
M  V30 14164 H 1333.07 -4.86778 -0.728528 0
M  V30 14165 N 1334.72 -0.0133892 -1.57594 0
M  V30 14166 C 1335.69 0.958601 -2.08191 0
M  V30 14167 C 1336.69 1.26408 -0.993865 0
M  V30 14168 O 1337.88 1.20703 -1.25604 0
M  V30 14169 C 1335.01 2.27971 -2.5346 0
M  V30 14170 H 1336.2 0.520686 -2.95345 0
M  V30 14171 H 1333.76 0.234351 -1.54533 0
M  V30 14172 H 1334.49 2.76424 -1.69588 0
M  V30 14173 H 1334.28 2.07116 -3.32935 0
M  V30 14174 H 1335.77 2.97672 -2.92884 0
M  V30 14175 N 1336.2 1.55448 0.259558 0
M  V30 14176 C 1337.13 1.85678 1.34373 0
M  V30 14177 C 1338.15 0.742155 1.449 0
M  V30 14178 O 1339.34 1.02015 1.46476 0
M  V30 14179 C 1336.44 2.01668 2.72366 0
M  V30 14180 C 1335.61 3.32434 2.84265 0
M  V30 14181 C 1334.67 3.38322 4.03019 0
M  V30 14182 O 1333.69 4.11616 3.93143 0
M  V30 14183 N 1334.9 2.66697 5.1561 0
M  V30 14184 H 1337.66 2.79261 1.08781 0
M  V30 14185 H 1335.22 1.5553 0.449672 0
M  V30 14186 H 1337.21 2.02963 3.50126 0
M  V30 14187 H 1335.78 1.14889 2.90722 0
M  V30 14188 H 1335 3.43564 1.93281 0
M  V30 14189 H 1336.29 4.18649 2.89155 0
M  V30 14190 H 1335.69 2.06857 5.26523 0
M  V30 14191 H 1334.25 2.73699 5.91551 0
M  V30 14192 N 1337.68 -0.524672 1.4861 0
M  V30 14193 C 1338.91 -1.30482 1.60568 0
M  V30 14194 C 1339.32 -1.86889 0.267952 0
M  V30 14195 O 1338.68 -1.66669 -0.743488 0
M  V30 14196 C 1338.73 -2.45191 2.65638 0
M  V30 14197 O 1338.45 -1.91107 3.9422 0
M  V30 14198 C 1339.95 -3.36931 2.88084 0
M  V30 14199 H 1337.17 -0.396612 0.541239 0
M  V30 14200 H 1339.72 -0.632392 1.94476 0
M  V30 14201 H 1337.87 -3.08308 2.34574 0
M  V30 14202 H 1338.29 -2.66234 4.51907 0
M  V30 14203 H 1339.76 -4.13755 3.65391 0
M  V30 14204 H 1340.24 -3.92487 1.97106 0
M  V30 14205 H 1340.84 -2.79601 3.20473 0
M  V30 14206 N 1339.16 -1.37287 -0.77395 0
M  V30 14207 C 1340.07 -1.35059 -1.91823 0
M  V30 14208 C 1341.08 -0.250489 -1.72188 0
M  V30 14209 O 1342.26 -0.485501 -1.95461 0
M  V30 14210 C 1339.33 -1.15444 -3.26915 0
M  V30 14211 C 1338.39 -2.35073 -3.5922 0
M  V30 14212 C 1337.62 -2.16384 -4.87867 0
M  V30 14213 O 1337.84 -1.14696 -5.58749 0
M  V30 14214 O 1336.78 -3.0452 -5.19183 0
M  V30 14215 H 1340.6 -2.31432 -1.96654 0
M  V30 14216 H 1338.19 -1.17994 -0.916392 0
M  V30 14217 H 1340.07 -1.06484 -4.07724 0
M  V30 14218 H 1338.74 -0.221435 -3.22942 0
M  V30 14219 H 1337.65 -2.49604 -2.78655 0
M  V30 14220 H 1338.98 -3.26933 -3.67934 0
M  V30 14221 N 1340.64 0.999871 -1.21821 0
M  V30 14222 C 1341.88 1.74098 -1.04009 0
M  V30 14223 C 1342.22 1.89499 0.424716 0
M  V30 14224 O 1341.49 1.43306 1.31505 0
M  V30 14225 C 1341.77 3.1506 -1.74382 0
M  V30 14226 C 1341.63 3.0735 -3.28414 0
M  V30 14227 C 1342.95 4.1409 -1.49055 0
M  V30 14228 H 1340.06 0.631935 -0.379245 0
M  V30 14229 H 1342.71 1.16534 -1.50066 0
M  V30 14230 H 1340.86 3.64206 -1.35227 0
M  V30 14231 H 1342.53 2.65879 -3.76969 0
M  V30 14232 H 1340.77 2.44325 -3.58452 0
M  V30 14233 H 1341.44 4.07069 -3.72825 0
M  V30 14234 H 1343.92 3.73672 -1.83054 0
M  V30 14235 H 1342.79 5.10853 -2.008 0
M  V30 14236 H 1343.06 4.40085 -0.421641 0
M  V30 14237 N 1342.11 1.02678 1.19562 0
M  V30 14238 C 1343.53 0.752027 1.70884 0
M  V30 14239 C 1343.88 -0.728523 1.82173 0
M  V30 14240 O 1343 -1.56799 1.49141 0
M  V30 14241 C 1343.6 1.35848 3.10372 0
M  V30 14242 C 1342.16 1.13236 3.58963 0
M  V30 14243 C 1341.3 1.45785 2.35886 0
M  V30 14244 H 1344.25 1.19497 1.04432 0
M  V30 14245 H 1344.27 0.754347 3.72948 0
M  V30 14246 H 1343.79 2.43604 3.02124 0
M  V30 14247 H 1341.89 0.0729271 3.72529 0
M  V30 14248 H 1342 1.81959 4.43202 0
M  V30 14249 H 1340.36 0.877125 2.3912 0
M  V30 14250 H 1341.15 2.54619 2.30269 0
M  V30 14251 N 1343.59 -1.35528 0.804364 0
M  V30 14252 C 1344.52 -2.32388 0.227604 0
M  V30 14253 C 1345.5 -1.57368 -0.645709 0
M  V30 14254 O 1346.69 -1.85448 -0.576441 0
M  V30 14255 C 1343.82 -3.41603 -0.62645 0
M  V30 14256 C 1342.77 -4.27743 0.148187 0
M  V30 14257 C 1342.1 -5.28259 -0.827425 0
M  V30 14258 C 1343.4 -5.04661 1.34591 0
M  V30 14259 H 1345.09 -2.80874 1.03684 0
M  V30 14260 H 1342.64 -1.3504 0.500031 0
M  V30 14261 H 1344.59 -4.08365 -1.03999 0
M  V30 14262 H 1343.32 -2.91721 -1.46855 0
M  V30 14263 H 1341.97 -3.62558 0.542874 0
M  V30 14264 H 1341.62 -4.74645 -1.66496 0
M  V30 14265 H 1341.32 -5.86763 -0.313453 0
M  V30 14266 H 1342.85 -5.97893 -1.23921 0
M  V30 14267 H 1344.26 -5.6438 1.00736 0
M  V30 14268 H 1342.66 -5.7265 1.79422 0
M  V30 14269 H 1343.73 -4.35432 2.1337 0
M  V30 14270 N 1345.07 -0.557671 -1.47404 0
M  V30 14271 C 1346.35 0.031908 -1.95574 0
M  V30 14272 C 1346.73 1.48509 -1.50027 0
M  V30 14273 O 1346.08 2.16209 -0.73932 0
M  V30 14274 C 1346.29 -0.114055 -3.48814 0
M  V30 14275 C 1347.63 0.0310533 -4.24589 0
M  V30 14276 O 1348.66 -0.041626 -3.56176 0
M  V30 14277 O 1347.52 0.187487 -5.46178 0
M  V30 14278 H 1344.61 0.0638747 -0.82453 0
M  V30 14279 H 1347.16 -0.624227 -1.57802 0
M  V30 14280 H 1345.93 -1.12525 -3.74772 0
M  V30 14281 H 1345.55 0.57967 -3.93352 0
M  V30 14282 N 1346.55 1.54831 -0.294147 0
M  V30 14283 C 1347.83 1.92071 0.369902 0
M  V30 14284 C 1348.21 1.22061 1.72233 0
M  V30 14285 O 1347.55 0.353975 2.25742 0
M  V30 14286 C 1347.76 3.45524 0.49135 0
M  V30 14287 C 1349.11 4.17644 0.765411 0
M  V30 14288 O 1350.14 3.51521 0.575428 0
M  V30 14289 O 1349 5.34692 1.12992 0
M  V30 14290 H 1346.09 0.801033 0.20561 0
M  V30 14291 H 1348.64 1.66224 -0.341702 0
M  V30 14292 H 1347.41 3.88591 -0.459663 0
M  V30 14293 H 1347.03 3.77384 1.25169 0
M  V30 14294 N 1348.03 0.0217466 1.57585 0
M  V30 14295 C 1349.44 -0.51811 1.79367 0
M  V30 14296 C 1349.79 -1.72688 0.931313 0
M  V30 14297 O 1348.91 -2.15949 0.139687 0
M  V30 14298 C 1349.51 -0.946711 3.25304 0
M  V30 14299 C 1348.07 -1.43173 3.48107 0
M  V30 14300 C 1347.22 -0.392996 2.74501 0
M  V30 14301 H 1350.17 0.247822 1.56753 0
M  V30 14302 H 1350.19 -1.81152 3.34611 0
M  V30 14303 H 1349.7 -0.0667536 3.88043 0
M  V30 14304 H 1347.8 -2.33186 2.90612 0
M  V30 14305 H 1347.91 -1.44419 4.56815 0
M  V30 14306 H 1346.28 -0.859471 2.39761 0
M  V30 14307 H 1347.06 0.478368 3.39951 0
M  V30 14308 N 1349.51 -1.55583 -0.251311 0
M  V30 14309 C 1350.78 -1.67954 -1.00254 0
M  V30 14310 C 1351.16 -0.560326 -2.03528 0
M  V30 14311 O 1350.51 0.436811 -2.24286 0
M  V30 14312 C 1350.72 -3.08075 -1.63985 0
M  V30 14313 C 1352.07 -3.66531 -2.14336 0
M  V30 14314 O 1353.09 -3.10846 -1.73934 0
M  V30 14315 O 1351.95 -4.64141 -2.88506 0
M  V30 14316 H 1349.05 -0.682952 -0.466375 0
M  V30 14317 H 1351.59 -1.67916 -0.245447 0
M  V30 14318 H 1350.36 -3.80983 -0.892627 0
M  V30 14319 H 1349.99 -3.12105 -2.46325 0
M  V30 14320 N 1350.98 0.516783 -1.48886 0
M  V30 14321 C 1352.4 0.84654 -1.35299 0
M  V30 14322 C 1352.6 1.97998 -0.374035 0
M  V30 14323 O 1351.66 2.51707 0.200003 0
M  V30 14324 C 1352.97 1.20162 -2.75648 0
M  V30 14325 C 1354.52 1.31074 -2.84233 0
M  V30 14326 C 1354.99 1.69919 -4.25313 0
M  V30 14327 N 1356.48 1.76998 -4.28049 0
M  V30 14328 C 1357.22 2.08466 -5.34162 0
M  V30 14329 N 1356.71 2.38268 -6.50538 0
M  V30 14330 N 1358.51 2.09584 -5.21566 0
M  V30 14331 H 1350.66 -0.230871 -2.11142 0
M  V30 14332 H 1352.92 -0.0406678 -0.947127 0
M  V30 14333 H 1352.63 0.442278 -3.48908 0
M  V30 14334 H 1352.5 2.14875 -3.10014 0
M  V30 14335 H 1354.89 2.06083 -2.1122 0
M  V30 14336 H 1354.97 0.344506 -2.5347 0
M  V30 14337 H 1354.61 0.954667 -4.98847 0
M  V30 14338 H 1354.54 2.67616 -4.5353 0
M  V30 14339 H 1357.03 1.56191 -3.44112 0
M  V30 14340 H 1357.35 2.61423 -7.2724 0
M  V30 14341 H 1355.69 2.35758 -6.53791 0
M  V30 14342 H 1358.88 1.85768 -4.2966 0
M  V30 14343 H 1359.06 2.33776 -6.04362 0
M  V30 14344 N 1352.46 1.37696 0.766659 0
M  V30 14345 C 1353.42 1.33688 1.86172 0
M  V30 14346 C 1354.42 0.239922 1.59 0
M  V30 14347 O 1355.61 0.496066 1.66988 0
M  V30 14348 C 1352.75 1.07807 3.23405 0
M  V30 14349 H 1353.94 2.311 1.91136 0
M  V30 14350 H 1351.49 1.22799 0.966961 0
M  V30 14351 H 1352.23 0.109477 3.24115 0
M  V30 14352 H 1352.01 1.87213 3.4452 0
M  V30 14353 H 1353.5 1.07665 4.03482 0
M  V30 14354 N 1353.94 -0.993397 1.22349 0
M  V30 14355 C 1355.19 -1.72945 1.04568 0
M  V30 14356 C 1355.51 -1.90419 -0.420178 0
M  V30 14357 O 1354.78 -1.46348 -1.30227 0
M  V30 14358 H 1353.36 -0.640777 0.383945 0
M  V30 14359 H 1356.02 -1.19647 1.53853 0
M  V30 14360 H 1355.12 -2.72411 1.52311 0
M  V30 14361 N 1355.42 -1.03311 -1.19015 0
M  V30 14362 C 1356.66 -0.742872 -1.89349 0
M  V30 14363 C 1357.02 0.721012 -1.78379 0
M  V30 14364 O 1356.31 1.51869 -1.16817 0
M  V30 14365 C 1356.51 -1.13402 -3.38932 0
M  V30 14366 C 1356.33 -2.63438 -3.64459 0
M  V30 14367 C 1355.1 -3.30473 -3.82251 0
M  V30 14368 C 1357.3 -3.61652 -3.65667 0
M  V30 14369 N 1355.28 -4.69569 -3.95447 0
M  V30 14370 C 1356.66 -4.86385 -3.84486 0
M  V30 14371 C 1358.71 -3.5539 -3.48715 0
M  V30 14372 C 1357.41 -6.05611 -3.88108 0
M  V30 14373 C 1359.44 -4.74035 -3.53617 0
M  V30 14374 C 1358.8 -5.97584 -3.72925 0
M  V30 14375 H 1354.9 -0.323772 -0.711826 0
M  V30 14376 H 1357.48 -1.32127 -1.43006 0
M  V30 14377 H 1355.66 -0.583786 -3.83988 0
M  V30 14378 H 1357.39 -0.795592 -3.96803 0
M  V30 14379 H 1354.14 -2.80882 -3.81317 0
M  V30 14380 H 1354.57 -5.41836 -4.05885 0
M  V30 14381 H 1359.21 -2.60852 -3.32741 0
M  V30 14382 H 1356.93 -7.00513 -4.02874 0
M  V30 14383 H 1360.51 -4.70823 -3.41786 0
M  V30 14384 H 1359.39 -6.87854 -3.76598 0
M  V30 14385 N 1356.9 1.35099 -0.81154 0
M  V30 14386 C 1358.31 1.81082 -0.454543 0
M  V30 14387 C 1358.66 1.67361 1.02395 0
M  V30 14388 O 1357.78 1.20707 1.79607 0
M  V30 14389 C 1358.38 3.2877 -0.818274 0
M  V30 14390 C 1356.94 3.72877 -0.513808 0
M  V30 14391 C 1356.08 2.57008 -1.04125 0
M  V30 14392 H 1359.03 1.23007 -1.00274 0
M  V30 14393 H 1359.06 3.80318 -0.117683 0
M  V30 14394 H 1358.57 3.38725 -1.89439 0
M  V30 14395 H 1356.67 3.68468 0.553368 0
M  V30 14396 H 1356.78 4.67455 -1.0499 0
M  V30 14397 H 1355.15 2.5045 -0.463337 0
M  V30 14398 H 1355.93 2.69738 -2.12358 0
M  V30 14399 N 1358.37 0.56548 1.47106 0
M  V30 14400 C 1359.34 -0.167191 2.28589 0
M  V30 14401 C 1360.34 -0.835005 1.3742 0
M  V30 14402 O 1361.53 -0.689598 1.59969 0
M  V30 14403 C 1358.66 -1.24548 3.17333 0
M  V30 14404 H 1359.85 0.548677 2.94838 0
M  V30 14405 H 1357.4 0.322749 1.52931 0
M  V30 14406 H 1358.14 -1.99348 2.55794 0
M  V30 14407 H 1357.92 -0.771335 3.84438 0
M  V30 14408 H 1359.41 -1.75985 3.78707 0
M  V30 14409 N 1359.85 -1.54672 0.302354 0
M  V30 14410 C 1361.1 -1.99771 -0.305919 0
M  V30 14411 C 1361.42 -1.19225 -1.54306 0
M  V30 14412 O 1360.69 -0.288569 -1.93763 0
M  V30 14413 H 1359.27 -0.737934 -0.116026 0
M  V30 14414 H 1361.93 -1.90452 0.413997 0
M  V30 14415 H 1361.03 -3.06719 -0.577024 0
M  V30 14416 N 1361.33 -0.0301034 -1.57571 0
M  V30 14417 C 1362.28 0.951421 -2.10277 0
M  V30 14418 C 1363.25 1.3224 -1.00508 0
M  V30 14419 O 1364.43 1.41554 -1.27934 0
M  V30 14420 C 1361.57 2.2282 -2.63525 0
M  V30 14421 C 1360.69 1.91359 -3.87306 0
M  V30 14422 C 1359.82 3.13339 -4.28943 0
M  V30 14423 C 1358.86 2.77701 -5.4548 0
M  V30 14424 N 1358 3.9231 -5.82269 0
M  V30 14425 H 1362.84 0.495049 -2.93859 0
M  V30 14426 H 1360.37 0.232756 -1.45247 0
M  V30 14427 H 1362.33 2.97502 -2.92487 0
M  V30 14428 H 1360.96 2.66072 -1.82772 0
M  V30 14429 H 1360.01 1.06915 -3.65066 0
M  V30 14430 H 1361.33 1.61112 -4.72064 0
M  V30 14431 H 1360.48 3.9634 -4.59347 0
M  V30 14432 H 1359.22 3.46747 -3.42954 0
M  V30 14433 H 1358.22 1.93113 -5.14769 0
M  V30 14434 H 1359.45 2.45508 -6.33169 0
M  V30 14435 H 1357.39 4.25559 -4.99235 0
M  V30 14436 H 1357.31 3.65691 -6.61669 0
M  V30 14437 H 1358.58 4.76012 -6.17279 0
M  V30 14438 N 1362.81 1.55714 0.243056 0
M  V30 14439 C 1364.09 1.68483 0.993614 0
M  V30 14440 C 1364.47 0.571112 2.03228 0
M  V30 14441 O 1363.81 -0.42491 2.24515 0
M  V30 14442 C 1364.02 3.0894 1.62349 0
M  V30 14443 C 1365.37 3.67663 2.12389 0
M  V30 14444 O 1366.4 3.11764 1.72283 0
M  V30 14445 O 1365.25 4.65664 2.8604 0
M  V30 14446 H 1362.35 0.685415 0.462747 0
M  V30 14447 H 1364.89 1.68043 0.236538 0
M  V30 14448 H 1363.67 3.81451 0.87241 0
M  V30 14449 H 1363.29 3.13407 2.44667 0
M  V30 14450 N 1364.29 -0.50888 1.49158 0
M  V30 14451 C 1365.51 -1.29245 1.62205 0
M  V30 14452 C 1365.94 -1.85845 0.29041 0
M  V30 14453 O 1365.29 -1.6547 -0.740906 0
M  V30 14454 C 1365.34 -2.40415 2.68762 0
M  V30 14455 O 1364.45 -3.44048 2.27387 0
M  V30 14456 H 1363.79 -0.381898 0.543185 0
M  V30 14457 H 1366.32 -0.610076 1.95293 0
M  V30 14458 H 1366.33 -2.86295 2.90688 0
M  V30 14459 H 1365 -1.98584 3.65427 0
M  V30 14460 H 1363.58 -3.04141 2.1576 0
M  V30 14461 N 1365.76 -1.381 -0.759346 0
M  V30 14462 C 1367.01 -1.33311 -1.51364 0
M  V30 14463 C 1367.33 0.0761325 -1.95452 0
M  V30 14464 O 1368.53 0.246541 -2.70378 0
M  V30 14465 C 1366.99 -2.34067 -2.73387 0
M  V30 14466 C 1366.6 -3.80583 -2.36348 0
M  V30 14467 C 1368.34 -2.38311 -3.51295 0
M  V30 14468 C 1366.25 -4.73039 -3.54948 0
M  V30 14469 H 1365.18 -0.495512 -0.568317 0
M  V30 14470 H 1367.83 -1.63625 -0.830602 0
M  V30 14471 H 1366.21 -1.96788 -3.43643 0
M  V30 14472 H 1367.38 -4.26769 -1.73796 0
M  V30 14473 H 1365.7 -3.79403 -1.71587 0
M  V30 14474 H 1368.3 -3.04586 -4.39467 0
M  V30 14475 H 1368.64 -1.40034 -3.92041 0
M  V30 14476 H 1369.17 -2.74361 -2.88047 0
M  V30 14477 H 1365.91 -5.7249 -3.19273 0
M  V30 14478 H 1365.43 -4.3155 -4.16563 0
M  V30 14479 H 1367.11 -4.90775 -4.21603 0
M  V30 14480 N 1367.24 0.986894 -1.22875 0
M  V30 14481 C 1368.17 2.08035 -0.961971 0
M  V30 14482 C 1369.19 1.62683 0.0616475 0
M  V30 14483 O 1370.38 1.77659 -0.173094 0
M  V30 14484 C 1367.48 3.36208 -0.426302 0
M  V30 14485 C 1366.65 4.10562 -1.50856 0
M  V30 14486 C 1365.71 5.17014 -0.97891 0
M  V30 14487 O 1364.73 5.44259 -1.66645 0
M  V30 14488 N 1365.94 5.80167 0.196613 0
M  V30 14489 H 1368.7 2.315 -1.90336 0
M  V30 14490 H 1366.26 1.1531 -1.13645 0
M  V30 14491 H 1368.25 4.0466 -0.0571577 0
M  V30 14492 H 1366.82 3.09761 0.420345 0
M  V30 14493 H 1366.04 3.36656 -2.05076 0
M  V30 14494 H 1367.33 4.57007 -2.23655 0
M  V30 14495 H 1366.73 5.60409 0.771892 0
M  V30 14496 H 1365.29 6.49825 0.507083 0
M  V30 14497 N 1368.72 1.0394 1.18466 0
M  V30 14498 C 1369.95 0.760909 1.92077 0
M  V30 14499 C 1370.36 -0.685622 1.7634 0
M  V30 14500 O 1369.7 -1.47894 1.08963 0
M  V30 14501 C 1369.76 1.04583 3.43952 0
M  V30 14502 C 1369.43 2.48602 3.83466 0
M  V30 14503 C 1370.42 3.46775 3.87354 0
M  V30 14504 C 1368.11 2.8328 4.14798 0
M  V30 14505 C 1370.1 4.77678 4.22022 0
M  V30 14506 C 1367.79 4.1439 4.49138 0
M  V30 14507 C 1368.79 5.11399 4.52725 0
M  V30 14508 O 1368.48 6.40159 4.86264 0
M  V30 14509 H 1368.21 0.276991 0.616646 0
M  V30 14510 H 1370.76 1.3898 1.5124 0
M  V30 14511 H 1368.99 0.359807 3.85022 0
M  V30 14512 H 1370.68 0.755336 3.9881 0
M  V30 14513 H 1371.45 3.21323 3.63286 0
M  V30 14514 H 1367.33 2.08444 4.11184 0
M  V30 14515 H 1370.87 5.53393 4.24737 0
M  V30 14516 H 1366.77 4.39611 4.72666 0
M  V30 14517 H 1367.54 6.4479 5.04171 0
M  V30 14518 N 1370.2 -1.34667 0.818693 0
M  V30 14519 C 1371.45 -1.98022 0.40396 0
M  V30 14520 C 1371.77 -1.65239 -1.03542 0
M  V30 14521 O 1371.04 -0.94097 -1.71821 0
M  V30 14522 H 1369.62 -0.732517 0.146382 0
M  V30 14523 H 1372.28 -1.64377 1.0472 0
M  V30 14524 H 1371.38 -3.07746 0.519516 0
M  V30 14525 N 1371.68 -0.573274 -1.46804 0
M  V30 14526 C 1373.09 -0.23423 -1.57872 0
M  V30 14527 C 1373.29 1.26342 -1.56971 0
M  V30 14528 O 1372.35 2.04459 -1.48165 0
M  V30 14529 C 1373.66 -0.875097 -2.87685 0
M  V30 14530 C 1375.21 -0.847812 -3.01299 0
M  V30 14531 C 1375.68 -1.46804 -4.33835 0
M  V30 14532 N 1377.18 -1.43196 -4.4051 0
M  V30 14533 C 1377.91 -1.88133 -5.41658 0
M  V30 14534 N 1377.41 -2.41001 -6.49531 0
M  V30 14535 N 1379.2 -1.79107 -5.32801 0
M  V30 14536 H 1371.35 -1.54612 -1.45633 0
M  V30 14537 H 1373.61 -0.645703 -0.694098 0
M  V30 14538 H 1373.32 -1.92826 -2.94127 0
M  V30 14539 H 1373.19 -0.377671 -3.75305 0
M  V30 14540 H 1375.58 0.196707 -2.94444 0
M  V30 14541 H 1375.66 -1.38316 -2.1518 0
M  V30 14542 H 1375.31 -2.51171 -4.41447 0
M  V30 14543 H 1375.24 -0.908 -5.18713 0
M  V30 14544 H 1377.73 -1.04541 -3.63152 0
M  V30 14545 H 1378.04 -2.73172 -7.22908 0
M  V30 14546 H 1376.38 -2.45021 -6.50377 0
M  V30 14547 H 1379.58 -1.37569 -4.47429 0
M  V30 14548 H 1379.75 -2.14445 -6.11488 0
M  V30 14549 N 1373.15 1.5451 -0.310553 0
M  V30 14550 C 1374.4 2.00623 0.296343 0
M  V30 14551 C 1374.73 1.19855 1.52802 0
M  V30 14552 O 1374.01 0.277468 1.92511 0
M  V30 14553 C 1374.29 3.54305 0.643448 0
M  V30 14554 C 1374.14 4.45807 -0.598029 0
M  V30 14555 C 1375.46 4.14958 1.46623 0
M  V30 14556 H 1372.58 0.729303 0.106236 0
M  V30 14557 H 1375.22 1.85196 -0.424549 0
M  V30 14558 H 1373.37 3.67581 1.25762 0
M  V30 14559 H 1375.05 4.44421 -1.23643 0
M  V30 14560 H 1373.29 4.16014 -1.22944 0
M  V30 14561 H 1373.96 5.51124 -0.310883 0
M  V30 14562 H 1376.44 4.05176 0.947199 0
M  V30 14563 H 1375.31 5.22627 1.67787 0
M  V30 14564 H 1375.57 3.67445 2.45839 0
M  V30 14565 N 1374.63 0.0384594 1.57553 0
M  V30 14566 C 1375.58 -0.940256 2.10779 0
M  V30 14567 C 1376.55 -1.31705 1.01208 0
M  V30 14568 O 1377.74 -1.40874 1.28683 0
M  V30 14569 C 1374.88 -2.21419 2.64703 0
M  V30 14570 C 1373.99 -1.89302 3.88315 0
M  V30 14571 C 1373.12 -3.1106 4.30599 0
M  V30 14572 C 1372.16 -2.74805 5.46945 0
M  V30 14573 N 1371.3 -3.89217 5.84341 0
M  V30 14574 H 1376.14 -0.479458 2.94118 0
M  V30 14575 H 1373.68 -0.22505 1.45368 0
M  V30 14576 H 1375.63 -2.95946 2.94061 0
M  V30 14577 H 1374.26 -2.65099 1.84181 0
M  V30 14578 H 1373.32 -1.04977 3.65628 0
M  V30 14579 H 1374.63 -1.58607 4.72912 0
M  V30 14580 H 1373.78 -3.93898 4.61442 0
M  V30 14581 H 1372.52 -3.44924 3.44788 0
M  V30 14582 H 1371.53 -1.9038 5.15786 0
M  V30 14583 H 1372.75 -2.42147 6.34462 0
M  V30 14584 H 1370.7 -4.22905 5.01485 0
M  V30 14585 H 1370.61 -3.62177 6.63599 0
M  V30 14586 H 1371.88 -4.72732 6.19794 0
M  V30 14587 N 1376.11 -1.55841 -0.234795 0
M  V30 14588 C 1377.07 -1.9051 -1.2743 0
M  V30 14589 C 1378.07 -0.782543 -1.40474 0
M  V30 14590 O 1379.26 -1.05043 -1.38966 0
M  V30 14591 C 1376.4 -2.14424 -2.65019 0
M  V30 14592 H 1377.59 -2.83471 -0.979003 0
M  V30 14593 H 1375.14 -1.48919 -0.47463 0
M  V30 14594 H 1375.88 -1.23972 -2.99669 0
M  V30 14595 H 1375.66 -2.96191 -2.56931 0
M  V30 14596 H 1377.15 -2.42388 -3.40056 0
M  V30 14597 N 1377.59 0.500963 -1.49426 0
M  V30 14598 C 1378.82 1.27911 -1.62624 0
M  V30 14599 C 1379.23 1.86439 -0.297651 0
M  V30 14600 O 1378.59 1.67831 0.716879 0
M  V30 14601 C 1378.64 2.40934 -2.69505 0
M  V30 14602 O 1378.36 1.84811 -3.97211 0
M  V30 14603 C 1379.86 3.32305 -2.93408 0
M  V30 14604 H 1377.08 0.387951 -0.547481 0
M  V30 14605 H 1379.63 0.601372 -1.95458 0
M  V30 14606 H 1377.78 3.04537 -2.39449 0
M  V30 14607 H 1378.2 2.59011 -4.56085 0
M  V30 14608 H 1379.67 4.0789 -3.71927 0
M  V30 14609 H 1380.15 3.89301 -2.03325 0
M  V30 14610 H 1380.75 2.74467 -3.24881 0
M  V30 14611 N 1379.07 1.38501 0.752011 0
M  V30 14612 C 1380.31 1.34995 1.51341 0
M  V30 14613 C 1380.65 -0.0594724 1.94109 0
M  V30 14614 O 1379.92 -1.02098 1.65548 0
M  V30 14615 C 1380.2 2.30705 2.76491 0
M  V30 14616 C 1380.06 3.80515 2.39851 0
M  V30 14617 C 1381.38 2.24521 3.78521 0
M  V30 14618 H 1378.5 0.491687 0.549011 0
M  V30 14619 H 1381.14 1.69361 0.861205 0
M  V30 14620 H 1379.29 2.01529 3.32142 0
M  V30 14621 H 1380.96 4.20371 1.89962 0
M  V30 14622 H 1379.2 3.98119 1.7229 0
M  V30 14623 H 1379.87 4.42946 3.29397 0
M  V30 14624 H 1382.35 2.50282 3.32413 0
M  V30 14625 H 1381.23 2.93598 4.63779 0
M  V30 14626 H 1381.49 1.24457 4.2422 0
M  V30 14627 N 1380.55 -0.980364 1.23396 0
M  V30 14628 C 1381.5 -2.05753 0.982323 0
M  V30 14629 C 1382.48 -1.6074 -0.0716939 0
M  V30 14630 O 1383.67 -1.76442 0.140438 0
M  V30 14631 C 1380.8 -3.38442 0.575481 0
M  V30 14632 C 1379.89 -3.90054 1.6649 0
M  V30 14633 N 1380.28 -4.14744 2.89519 0
M  V30 14634 C 1378.58 -4.18588 1.53949 0
M  V30 14635 C 1379.28 -4.56877 3.60053 0
M  V30 14636 N 1378.25 -4.61309 2.87567 0
M  V30 14637 H 1382.05 -2.22801 1.91669 0
M  V30 14638 H 1379.57 -1.16314 1.13335 0
M  V30 14639 H 1381.57 -4.15197 0.376477 0
M  V30 14640 H 1380.23 -3.22788 -0.351844 0
M  V30 14641 H 1381.24 -4.02566 3.25824 0
M  V30 14642 H 1377.91 -4.11937 0.679275 0
M  V30 14643 H 1379.3 -4.84498 4.65523 0
M  V30 14644 N 1382.02 -1.04567 -1.17913 0
M  V30 14645 C 1382.95 -0.662066 -2.23917 0
M  V30 14646 C 1383.93 0.33713 -1.66726 0
M  V30 14647 O 1385.12 0.216116 -1.92994 0
M  V30 14648 C 1382.25 -0.029463 -3.47288 0
M  V30 14649 C 1381.2 -0.95274 -4.17261 0
M  V30 14650 C 1380.53 -0.184347 -5.34382 0
M  V30 14651 C 1381.83 -2.2741 -4.70194 0
M  V30 14652 H 1383.52 -1.54826 -2.5626 0
M  V30 14653 H 1381.07 -0.745886 -1.23177 0
M  V30 14654 H 1383.02 0.250654 -4.20654 0
M  V30 14655 H 1381.75 0.891638 -3.14193 0
M  V30 14656 H 1380.41 -1.21732 -3.45799 0
M  V30 14657 H 1380.05 0.73932 -4.97537 0
M  V30 14658 H 1379.75 -0.79949 -5.82136 0
M  V30 14659 H 1381.28 0.0886344 -6.10536 0
M  V30 14660 H 1382.69 -2.05433 -5.35229 0
M  V30 14661 H 1381.09 -2.84265 -5.28501 0
M  V30 14662 H 1382.16 -2.91708 -3.87342 0
M  V30 14663 N 1383.5 1.34231 -0.825823 0
M  V30 14664 C 1384.46 2.27776 -0.25512 0
M  V30 14665 C 1385.46 1.50409 0.568654 0
M  V30 14666 O 1386.65 1.69907 0.384337 0
M  V30 14667 C 1383.79 3.348 0.642013 0
M  V30 14668 H 1384.98 2.79763 -1.0804 0
M  V30 14669 H 1382.53 1.44412 -0.597904 0
M  V30 14670 H 1383.27 2.88032 1.49024 0
M  V30 14671 H 1383.05 3.92064 0.0527756 0
M  V30 14672 H 1384.54 4.0457 1.03502 0
M  V30 14673 N 1384.98 0.581051 1.46498 0
M  V30 14674 C 1386.21 0.0714615 2.06476 0
M  V30 14675 C 1386.62 -1.23815 1.43061 0
M  V30 14676 O 1385.96 -1.75903 0.529504 0
M  V30 14677 C 1386.02 -0.170353 3.59096 0
M  V30 14678 C 1385.69 1.05341 4.44694 0
M  V30 14679 C 1386.68 1.96503 4.81334 0
M  V30 14680 C 1384.37 1.27479 4.85854 0
M  V30 14681 C 1386.36 3.08154 5.57961 0
M  V30 14682 C 1384.05 2.39434 5.62241 0
M  V30 14683 C 1385.05 3.29601 5.98207 0
M  V30 14684 O 1384.74 4.39612 6.7305 0
M  V30 14685 H 1384.47 0.0537502 0.67386 0
M  V30 14686 H 1387.02 0.800993 1.89138 0
M  V30 14687 H 1385.25 -0.954477 3.74735 0
M  V30 14688 H 1386.94 -0.628248 4.01009 0
M  V30 14689 H 1387.71 1.80615 4.50115 0
M  V30 14690 H 1383.59 0.582051 4.57311 0
M  V30 14691 H 1387.13 3.78557 5.85953 0
M  V30 14692 H 1383.03 2.55286 5.92874 0
M  V30 14693 H 1383.79 4.37959 6.91473 0
M  V30 14694 N 1386.46 -1.54343 0.318742 0
M  V30 14695 C 1387.39 -2.27118 -0.542206 0
M  V30 14696 C 1388.37 -1.27731 -1.12334 0
M  V30 14697 O 1389.55 -1.56535 -1.14937 0
M  V30 14698 C 1386.68 -3.02535 -1.70558 0
M  V30 14699 C 1385.64 -4.09218 -1.25398 0
M  V30 14700 C 1384.96 -4.72449 -2.50391 0
M  V30 14701 C 1386.26 -5.20971 -0.372332 0
M  V30 14702 H 1387.96 -2.9933 0.0648226 0
M  V30 14703 H 1385.5 -1.43963 0.0326168 0
M  V30 14704 H 1387.46 -3.52174 -2.31412 0
M  V30 14705 H 1386.18 -2.27931 -2.33912 0
M  V30 14706 H 1384.84 -3.60455 -0.668392 0
M  V30 14707 H 1384.49 -3.94466 -3.12099 0
M  V30 14708 H 1384.19 -5.4451 -2.20868 0
M  V30 14709 H 1385.71 -5.2486 -3.12016 0
M  V30 14710 H 1387.13 -5.66396 -0.887029 0
M  V30 14711 H 1385.52 -5.99859 -0.17009 0
M  V30 14712 H 1386.59 -4.81198 0.598064 0
M  V30 14713 N 1387.94 -0.0468143 -1.5753 0
M  V30 14714 C 1389.35 0.309707 -1.56566 0
M  V30 14715 C 1389.55 1.7173 -1.05408 0
M  V30 14716 O 1388.61 2.4235 -0.708723 0
M  V30 14717 C 1389.92 0.142151 -3.00364 0
M  V30 14718 C 1391.47 0.213585 -3.1227 0
M  V30 14719 C 1391.94 0.0746102 -4.57939 0
M  V30 14720 N 1393.43 0.131027 -4.63015 0
M  V30 14721 C 1394.17 0.0475409 -5.7338 0
M  V30 14722 N 1393.67 -0.0880445 -6.92744 0
M  V30 14723 N 1395.46 0.102809 -5.62006 0
M  V30 14724 H 1387.61 -0.967057 -1.89108 0
M  V30 14725 H 1389.87 -0.375018 -0.870669 0
M  V30 14726 H 1389.58 -0.828171 -3.4181 0
M  V30 14727 H 1389.45 0.905006 -3.66182 0
M  V30 14728 H 1391.84 1.17438 -2.70726 0
M  V30 14729 H 1391.92 -0.57995 -2.49139 0
M  V30 14730 H 1391.56 -0.882839 -5.00168 0
M  V30 14731 H 1391.49 0.887235 -5.19072 0
M  V30 14732 H 1393.99 0.235246 -3.77167 0
M  V30 14733 H 1394.3 -0.144574 -7.72665 0
M  V30 14734 H 1392.64 -0.12307 -6.94891 0
M  V30 14735 H 1395.83 0.207259 -4.67641 0
M  V30 14736 H 1396.01 0.0342865 -6.47991 0
M  V30 14737 N 1389.41 1.55964 0.226527 0
M  V30 14738 C 1390.38 1.91184 1.26418 0
M  V30 14739 C 1391.38 0.789982 1.40057 0
M  V30 14740 O 1392.57 1.05778 1.38407 0
M  V30 14741 C 1389.7 2.15826 2.63878 0
M  V30 14742 H 1390.89 2.83986 0.963956 0
M  V30 14743 H 1388.45 1.49169 0.466726 0
M  V30 14744 H 1389.18 1.2556 2.99007 0
M  V30 14745 H 1388.97 2.97549 2.55356 0
M  V30 14746 H 1390.46 2.44188 3.38765 0
M  V30 14747 N 1390.89 -0.493031 1.4969 0
M  V30 14748 C 1392.14 -1.24849 1.59814 0
M  V30 14749 C 1392.47 -1.92059 0.287555 0
M  V30 14750 O 1391.75 -1.81099 -0.709471 0
M  V30 14751 C 1392.03 -2.30929 2.76304 0
M  V30 14752 C 1391.88 -1.68167 4.17181 0
M  V30 14753 C 1393.2 -3.32427 2.8841 0
M  V30 14754 H 1390.32 -0.452553 0.581691 0
M  V30 14755 H 1392.96 -0.545455 1.82002 0
M  V30 14756 H 1391.11 -2.9089 2.57517 0
M  V30 14757 H 1392.78 -1.11971 4.47504 0
M  V30 14758 H 1391.03 -0.985496 4.22458 0
M  V30 14759 H 1391.7 -2.45148 4.94577 0
M  V30 14760 H 1394.17 -2.82464 3.05537 0
M  V30 14761 H 1393.05 -4.04004 3.71581 0
M  V30 14762 H 1393.31 -3.95234 1.98097 0
M  V30 14763 N 1392.37 -1.38898 -0.744656 0
M  V30 14764 C 1393.62 -1.35327 -1.50104 0
M  V30 14765 C 1393.94 0.0532788 -1.94927 0
M  V30 14766 O 1393.21 1.0027 -1.68294 0
M  V30 14767 H 1391.79 -0.49797 -0.556808 0
M  V30 14768 H 1394.45 -1.73667 -0.884625 0
M  V30 14769 H 1393.55 -2.00983 -2.38773 0
M  V30 14770 N 1393.85 0.973806 -1.23914 0
M  V30 14771 C 1395.08 1.75107 -1.10206 0
M  V30 14772 C 1395.49 1.85604 0.345935 0
M  V30 14773 O 1394.85 1.33996 1.239 0
M  V30 14774 C 1394.9 3.17466 -1.72909 0
M  V30 14775 O 1394.62 3.07504 -3.12047 0
M  V30 14776 C 1396.12 4.11557 -1.6473 0
M  V30 14777 H 1393.34 0.549318 -0.385345 0
M  V30 14778 H 1395.89 1.22301 -1.63898 0
M  V30 14779 H 1394.04 3.67277 -1.23234 0
M  V30 14780 H 1394.45 3.97169 -3.42575 0
M  V30 14781 H 1395.93 5.09126 -2.13295 0
M  V30 14782 H 1396.41 4.3498 -0.607352 0
M  V30 14783 H 1397.01 3.67653 -2.13802 0
M  V30 14784 N 1395.33 1.05191 1.17357 0
M  V30 14785 C 1396.74 0.788105 1.69251 0
M  V30 14786 C 1397.09 -0.689717 1.83677 0
M  V30 14787 O 1396.21 -1.53601 1.52433 0
M  V30 14788 C 1396.81 1.42401 3.07421 0
M  V30 14789 C 1395.37 1.20825 3.5648 0
M  V30 14790 C 1394.51 1.50756 2.3274 0
M  V30 14791 H 1397.47 1.21686 1.01874 0
M  V30 14792 H 1397.49 0.833285 3.71264 0
M  V30 14793 H 1397 2.49958 2.96889 0
M  V30 14794 H 1395.1 0.15193 3.7229 0
M  V30 14795 H 1395.21 1.91319 4.39242 0
M  V30 14796 H 1393.58 0.927649 2.37206 0
M  V30 14797 H 1394.36 2.59446 2.24817 0
M  V30 14798 N 1396.8 -1.33791 0.83293 0
M  V30 14799 C 1397.73 -2.31853 0.276846 0
M  V30 14800 C 1398.72 -1.58702 -0.612184 0
M  V30 14801 O 1399.9 -1.86629 -0.536975 0
M  V30 14802 C 1397.03 -3.42855 -0.55385 0
M  V30 14803 C 1395.98 -4.27333 0.238884 0
M  V30 14804 C 1395.31 -5.29895 -0.715187 0
M  V30 14805 C 1396.61 -5.01692 1.45265 0
M  V30 14806 H 1398.3 -2.78611 1.09618 0
M  V30 14807 H 1395.85 -1.33949 0.528562 0
M  V30 14808 H 1397.8 -4.10479 -0.953133 0
M  V30 14809 H 1396.53 -2.94771 -1.40634 0
M  V30 14810 H 1395.19 -3.61325 0.619656 0
M  V30 14811 H 1394.83 -4.7807 -1.56391 0
M  V30 14812 H 1394.53 -5.87296 -0.188921 0
M  V30 14813 H 1396.06 -6.00387 -1.11211 0
M  V30 14814 H 1397.47 -5.62117 1.12685 0
M  V30 14815 H 1395.87 -5.68715 1.91528 0
M  V30 14816 H 1396.94 -4.30809 2.22558 0
M  V30 14817 N 1398.28 -0.588812 -1.46187 0
M  V30 14818 C 1399.52 -0.0794904 -2.04245 0
M  V30 14819 C 1399.89 1.25893 -1.44965 0
M  V30 14820 O 1401.09 1.85785 -1.94261 0
M  V30 14821 C 1399.36 -0.0210846 -3.57394 0
M  V30 14822 S 1400.92 0.429775 -4.3669 0
M  V30 14823 H 1397.74 -0.0404337 -0.709849 0
M  V30 14824 H 1400.34 -0.782686 -1.79149 0
M  V30 14825 H 1399.04 -0.999032 -3.98055 0
M  V30 14826 H 1398.57 0.704691 -3.87037 0
M  V30 14827 H 1400.59 1.68327 -4.66777 0
M  V30 14828 N 1399.76 1.54172 -0.326923 0
M  V30 14829 C 1400.69 2.27402 0.530154 0
M  V30 14830 C 1401.67 1.28325 1.11655 0
M  V30 14831 O 1402.86 1.57142 1.14105 0
M  V30 14832 C 1399.99 3.03435 1.68951 0
M  V30 14833 C 1398.94 4.09877 1.23226 0
M  V30 14834 C 1398.27 4.7377 2.47882 0
M  V30 14835 C 1399.57 5.21161 0.344698 0
M  V30 14836 H 1401.26 2.99291 -0.0806959 0
M  V30 14837 H 1398.81 1.43944 -0.0402511 0
M  V30 14838 H 1400.76 3.53396 2.29541 0
M  V30 14839 H 1399.48 2.29169 2.327 0
M  V30 14840 H 1398.14 3.60805 0.649267 0
M  V30 14841 H 1397.79 3.96116 3.10002 0
M  V30 14842 H 1397.49 5.45674 2.17977 0
M  V30 14843 H 1399.01 5.26507 3.09229 0
M  V30 14844 H 1400.43 5.66859 0.856979 0
M  V30 14845 H 1398.83 5.99941 0.138276 0
M  V30 14846 H 1399.9 4.80874 -0.623575 0
M  V30 14847 N 1401.24 0.0551678 1.57503 0
M  V30 14848 C 1402.47 -0.626291 1.96879 0
M  V30 14849 C 1402.88 -1.64677 0.93156 0
M  V30 14850 O 1402.22 -1.83469 -0.0921632 0
M  V30 14851 C 1402.28 -1.36674 3.32506 0
M  V30 14852 C 1401.95 -0.501632 4.54239 0
M  V30 14853 C 1402.94 0.233939 5.19373 0
M  V30 14854 C 1400.63 -0.431385 5.00444 0
M  V30 14855 C 1402.62 1.02815 6.29053 0
M  V30 14856 C 1400.31 0.366514 6.1 0
M  V30 14857 C 1401.31 1.09497 6.74166 0
M  V30 14858 O 1400.99 1.87974 7.81614 0
M  V30 14859 H 1400.73 -0.175738 0.652757 0
M  V30 14860 H 1403.28 0.11909 2.05054 0
M  V30 14861 H 1401.51 -2.15783 3.20896 0
M  V30 14862 H 1403.2 -1.93882 3.56602 0
M  V30 14863 H 1403.97 0.189161 4.84631 0
M  V30 14864 H 1399.84 -0.98798 4.50289 0
M  V30 14865 H 1403.39 1.59724 6.79068 0
M  V30 14866 H 1399.29 0.412916 6.44178 0
M  V30 14867 H 1400.05 1.80228 7.98411 0
M  V30 14868 N 1402.72 -1.56081 -0.218252 0
M  V30 14869 C 1403.68 -1.91851 -1.25402 0
M  V30 14870 C 1404.68 -0.797399 -1.39636 0
M  V30 14871 O 1405.87 -1.06511 -1.37844 0
M  V30 14872 C 1403 -2.17223 -2.6273 0
M  V30 14873 H 1404.19 -2.84493 -0.948882 0
M  V30 14874 H 1401.75 -1.49414 -0.458809 0
M  V30 14875 H 1402.48 -1.27144 -2.98337 0
M  V30 14876 H 1402.27 -2.98899 -2.53775 0
M  V30 14877 H 1403.76 -2.45981 -3.37466 0
M  V30 14878 N 1404.2 0.485086 -1.49949 0
M  V30 14879 C 1405.13 1.59312 -1.7071 0
M  V30 14880 C 1406.11 1.6076 -0.555896 0
M  V30 14881 O 1407.29 1.77249 -0.793504 0
M  V30 14882 C 1404.42 2.97718 -1.78834 0
M  V30 14883 C 1403.38 3.11136 -2.93902 0
M  V30 14884 C 1402.7 4.51051 -2.87154 0
M  V30 14885 C 1404 2.89665 -4.34617 0
M  V30 14886 H 1405.7 1.42192 -2.6348 0
M  V30 14887 H 1403.24 0.68262 -1.26792 0
M  V30 14888 H 1405.19 3.75148 -1.91943 0
M  V30 14889 H 1403.92 3.15963 -0.826744 0
M  V30 14890 H 1402.58 2.36135 -2.80421 0
M  V30 14891 H 1402.23 4.66195 -1.88869 0
M  V30 14892 H 1401.93 4.60967 -3.64394 0
M  V30 14893 H 1403.45 5.3052 -3.02293 0
M  V30 14894 H 1404.86 3.56853 -4.48697 0
M  V30 14895 H 1403.26 3.11039 -5.13201 0
M  V30 14896 H 1404.33 1.85642 -4.47956 0
M  V30 14897 N 1405.67 1.39291 0.737279 0
M  V30 14898 C 1406.92 1.3639 1.49679 0
M  V30 14899 C 1407.25 -0.0408859 1.94457 0
M  V30 14900 O 1406.5 -1.02127 1.66939 0
M  V30 14901 C 1406.8 2.28043 2.75193 0
M  V30 14902 C 1406.47 3.75717 2.49294 0
M  V30 14903 C 1405.13 4.15955 2.41941 0
M  V30 14904 C 1407.48 4.69127 2.27088 0
M  V30 14905 C 1404.81 5.47669 2.10419 0
M  V30 14906 C 1407.16 6.01116 1.97084 0
M  V30 14907 C 1405.83 6.4042 1.88197 0
M  V30 14908 H 1405.1 0.499088 0.547716 0
M  V30 14909 H 1407.74 1.71779 0.846416 0
M  V30 14910 H 1406.05 1.85765 3.44962 0
M  V30 14911 H 1407.75 2.23093 3.33212 0
M  V30 14912 H 1404.34 3.43825 2.55896 0
M  V30 14913 H 1408.52 4.38875 2.31739 0
M  V30 14914 H 1403.78 5.77046 2.02059 0
M  V30 14915 H 1407.95 6.73026 1.78909 0
M  V30 14916 H 1405.58 7.42401 1.63537 0
M  V30 14917 N 1407.15 -0.967221 1.24429 0
M  V30 14918 C 1408.08 -2.07966 1.06172 0
M  V30 14919 C 1409.06 -1.70081 -0.0254566 0
M  V30 14920 O 1410.25 -1.93682 0.141705 0
M  V30 14921 C 1407.38 -3.4085 0.666251 0
M  V30 14922 C 1406.33 -3.92692 1.70225 0
M  V30 14923 C 1405.66 -5.21925 1.16183 0
M  V30 14924 C 1406.96 -4.20478 3.09831 0
M  V30 14925 H 1408.65 -2.23497 1.99222 0
M  V30 14926 H 1406.2 -1.07398 0.959255 0
M  V30 14927 H 1408.15 -4.1811 0.52552 0
M  V30 14928 H 1406.87 -3.2522 -0.299939 0
M  V30 14929 H 1405.53 -3.17588 1.83121 0
M  V30 14930 H 1405.18 -5.02655 0.186237 0
M  V30 14931 H 1404.88 -5.57579 1.85416 0
M  V30 14932 H 1406.41 -6.01795 1.03323 0
M  V30 14933 H 1407.82 -4.88442 3.00162 0
M  V30 14934 H 1406.22 -4.67362 3.7642 0
M  V30 14935 H 1407.29 -3.27235 3.57834 0
M  V30 14936 N 1408.63 -1.05812 -1.16797 0
M  V30 14937 C 1409.88 -0.771923 -1.8721 0
M  V30 14938 C 1410.2 0.701365 -1.81414 0
M  V30 14939 O 1409.46 1.5292 -1.22122 0
M  V30 14940 C 1409.76 -1.20565 -3.3645 0
M  V30 14941 C 1409.42 -2.68222 -3.62447 0
M  V30 14942 C 1408.09 -3.08556 -3.69251 0
M  V30 14943 C 1410.44 -3.63607 -3.73416 0
M  V30 14944 C 1407.77 -4.43126 -3.84521 0
M  V30 14945 C 1410.12 -4.97918 -3.90205 0
M  V30 14946 C 1408.78 -5.37897 -3.9525 0
M  V30 14947 H 1408.05 -0.282467 -0.68505 0
M  V30 14948 H 1410.7 -1.32633 -1.38133 0
M  V30 14949 H 1409 -0.570347 -3.87626 0
M  V30 14950 H 1410.7 -0.961326 -3.89306 0
M  V30 14951 H 1407.29 -2.3599 -3.5778 0
M  V30 14952 H 1411.48 -3.33581 -3.67474 0
M  V30 14953 H 1406.73 -4.73593 -3.86677 0
M  V30 14954 H 1410.91 -5.71716 -3.97635 0
M  V30 14955 H 1408.53 -6.42176 -4.06834 0
M  V30 14956 N 1410.11 1.33347 -0.840014 0
M  V30 14957 C 1411.04 2.31703 -0.289138 0
M  V30 14958 C 1412.02 1.59024 0.603759 0
M  V30 14959 O 1413.2 1.86911 0.527071 0
M  V30 14960 C 1410.33 3.43144 0.53566 0
M  V30 14961 C 1409.29 4.272 -0.261544 0
M  V30 14962 C 1408.61 5.30267 0.687075 0
M  V30 14963 C 1409.91 5.00915 -1.47924 0
M  V30 14964 H 1411.61 2.78026 -1.11094 0
M  V30 14965 H 1409.15 1.33666 -0.535658 0
M  V30 14966 H 1411.11 4.10979 0.931351 0
M  V30 14967 H 1409.83 2.95512 1.39069 0
M  V30 14968 H 1408.49 3.60991 -0.638809 0
M  V30 14969 H 1408.14 4.78893 1.53853 0
M  V30 14970 H 1407.84 5.87388 0.157773 0
M  V30 14971 H 1409.36 6.00968 1.08026 0
M  V30 14972 H 1410.78 5.61511 -1.15664 0
M  V30 14973 H 1409.17 5.67692 -1.94541 0
M  V30 14974 H 1410.24 4.29622 -2.24839 0
M  V30 14975 N 1411.59 0.596556 1.45873 0
M  V30 14976 C 1412.83 0.090321 2.042 0
M  V30 14977 C 1413.19 -1.25123 1.45631 0
M  V30 14978 O 1414.39 -1.84752 1.95243 0
M  V30 14979 C 1412.66 0.0400377 3.57378 0
M  V30 14980 S 1414.22 -0.40661 4.36912 0
M  V30 14981 H 1411.04 0.0441976 0.709625 0
M  V30 14982 H 1413.64 0.792175 1.78731 0
M  V30 14983 H 1412.34 1.02013 3.97519 0
M  V30 14984 H 1411.88 -0.684156 3.87405 0
M  V30 14985 H 1413.89 -1.65849 4.67663 0
M  V30 14986 N 1413.06 -1.53996 0.335095 0
M  V30 14987 C 1414 -2.22258 -0.559809 0
M  V30 14988 C 1415.01 -1.22636 -1.07071 0
M  V30 14989 O 1416.2 -1.4904 -0.982312 0
M  V30 14990 C 1413.3 -2.88256 -1.78218 0
M  V30 14991 C 1412.47 -4.14118 -1.40801 0
M  V30 14992 C 1411.53 -4.63603 -2.48915 0
M  V30 14993 O 1410.56 -5.28015 -2.12576 0
M  V30 14994 N 1411.76 -4.3881 -3.80034 0
M  V30 14995 H 1414.52 -2.9969 0.0247521 0
M  V30 14996 H 1412.08 -1.61119 0.158826 0
M  V30 14997 H 1414.08 -3.1828 -2.4996 0
M  V30 14998 H 1412.65 -2.14461 -2.27431 0
M  V30 14999 H 1411.87 -3.90732 -0.521729 0
M  V30 15000 H 1413.15 -4.96005 -1.13388 0
M  V30 15001 H 1412.55 -3.87278 -4.12349 0
M  V30 15002 H 1411.11 -4.73461 -4.47971 0
M  V30 15003 N 1414.54 -0.0635198 -1.57472 0
M  V30 15004 C 1415.47 0.93602 -2.09216 0
M  V30 15005 C 1416.49 1.2668 -1.02255 0
M  V30 15006 O 1417.68 1.22543 -1.2979 0
M  V30 15007 C 1414.78 2.25417 -2.53062 0
M  V30 15008 C 1413.95 2.10347 -3.83501 0
M  V30 15009 C 1413.01 3.25394 -4.13528 0
M  V30 15010 O 1412.03 3.00751 -4.83257 0
M  V30 15011 N 1413.24 4.50243 -3.66417 0
M  V30 15012 H 1416 0.494288 -2.95596 0
M  V30 15013 H 1413.56 0.122416 -1.61437 0
M  V30 15014 H 1415.55 3.01272 -2.70217 0
M  V30 15015 H 1414.12 2.61116 -1.71864 0
M  V30 15016 H 1413.34 1.19009 -3.75807 0
M  V30 15017 H 1414.63 1.97519 -4.68896 0
M  V30 15018 H 1414.03 4.73152 -3.1007 0
M  V30 15019 H 1412.59 5.23152 -3.88787 0
M  V30 15020 N 1416.02 1.56195 0.209972 0
M  V30 15021 C 1417.27 1.80011 0.93402 0
M  V30 15022 C 1417.6 0.635109 1.83521 0
M  V30 15023 O 1416.87 -0.365099 1.91043 0
M  V30 15024 C 1417.16 3.13989 1.76304 0
M  V30 15025 C 1417.01 4.40956 0.887567 0
M  V30 15026 C 1418.33 3.44514 2.73857 0
M  V30 15027 H 1415.45 0.654859 0.338125 0
M  V30 15028 H 1418.09 1.88921 0.20221 0
M  V30 15029 H 1416.24 3.06524 2.38695 0
M  V30 15030 H 1417.91 4.60452 0.279507 0
M  V30 15031 H 1416.15 4.33368 0.193533 0
M  V30 15032 H 1416.83 5.31164 1.50228 0
M  V30 15033 H 1419.3 3.52182 2.216 0
M  V30 15034 H 1418.18 4.39407 3.28957 0
M  V30 15035 H 1418.44 2.6726 3.52171 0
M  V30 15036 N 1417.5 -0.477127 1.50204 0
M  V30 15037 C 1418.46 -1.55824 1.68082 0
M  V30 15038 C 1419.46 -1.51039 0.551719 0
M  V30 15039 O 1420.65 -1.53766 0.818638 0
M  V30 15040 C 1417.78 -2.95462 1.70044 0
M  V30 15041 H 1418.98 -1.41292 2.64531 0
M  V30 15042 H 1416.53 -0.70308 1.39594 0
M  V30 15043 H 1417.26 -3.15445 0.752663 0
M  V30 15044 H 1417.05 -3.00343 2.52065 0
M  V30 15045 H 1418.54 -3.73964 1.85851 0
M  V30 15046 N 1418.98 -1.3968 -0.729882 0
M  V30 15047 C 1420.2 -1.40654 -1.52418 0
M  V30 15048 C 1420.63 -0.00428997 -1.881 0
M  V30 15049 O 1419.98 0.984023 -1.52272 0
M  V30 15050 C 1420.03 -2.29057 -2.78506 0
M  V30 15051 O 1419.14 -1.72397 -3.74637 0
M  V30 15052 H 1418.48 -0.478761 -0.460091 0
M  V30 15053 H 1421.01 -1.83738 -0.900087 0
M  V30 15054 H 1421.02 -2.43748 -3.27187 0
M  V30 15055 H 1419.69 -3.30961 -2.51868 0
M  V30 15056 H 1418.27 -1.66977 -3.33426 0
M  V30 15057 N 1420.45 0.960609 -1.2494 0
M  V30 15058 C 1421.7 1.70448 -1.09333 0
M  V30 15059 C 1422.03 1.91012 0.366687 0
M  V30 15060 O 1421.28 1.4743 1.28697 0
M  V30 15061 C 1421.58 3.09564 -1.78619 0
M  V30 15062 C 1421.25 3.08819 -3.28545 0
M  V30 15063 C 1419.91 3.08323 -3.69446 0
M  V30 15064 C 1422.26 3.02606 -4.24357 0
M  V30 15065 C 1419.59 2.99356 -5.04582 0
M  V30 15066 C 1421.94 2.9518 -5.5951 0
M  V30 15067 C 1420.61 2.93017 -5.99748 0
M  V30 15068 H 1419.88 0.623714 -0.400078 0
M  V30 15069 H 1422.52 1.12273 -1.55136 0
M  V30 15070 H 1420.83 3.71247 -1.2523 0
M  V30 15071 H 1422.53 3.6593 -1.64001 0
M  V30 15072 H 1419.12 3.09974 -2.95997 0
M  V30 15073 H 1423.3 3.02113 -3.93753 0
M  V30 15074 H 1418.56 2.96046 -5.34946 0
M  V30 15075 H 1422.73 2.89333 -6.3345 0
M  V30 15076 H 1420.36 2.85824 -7.04421 0
M  V30 15077 N 1421.93 1.0643 1.16234 0
M  V30 15078 C 1423.17 0.791061 1.88472 0
M  V30 15079 C 1423.54 -0.670265 1.79921 0
M  V30 15080 O 1424.74 -1.05815 2.47096 0
M  V30 15081 C 1423.01 1.27371 3.33933 0
M  V30 15082 S 1424.57 1.12974 4.24008 0
M  V30 15083 H 1421.39 0.286924 0.650535 0
M  V30 15084 H 1423.99 1.3615 1.40298 0
M  V30 15085 H 1422.69 2.33215 3.37696 0
M  V30 15086 H 1422.22 0.698083 3.87157 0
M  V30 15087 H 1424.24 0.0614942 4.96162 0
M  V30 15088 N 1423.41 -1.329 0.847073 0
M  V30 15089 C 1424.83 -1.50333 0.53593 0
M  V30 15090 C 1425.03 -1.78492 -0.93504 0
M  V30 15091 O 1424.08 -1.85001 -1.71846 0
M  V30 15092 C 1425.4 -2.65254 1.41636 0
M  V30 15093 C 1426.94 -2.79139 1.416 0
M  V30 15094 C 1427.42 -3.97131 2.28147 0
M  V30 15095 N 1428.91 -4.0438 2.25901 0
M  V30 15096 C 1429.64 -4.94893 2.89601 0
M  V30 15097 N 1429.14 -5.90466 3.62383 0
M  V30 15098 N 1430.93 -4.87955 2.79028 0
M  V30 15099 H 1423.08 -1.12886 1.79918 0
M  V30 15100 H 1425.35 -0.555707 0.768045 0
M  V30 15101 H 1425.05 -2.51151 2.46203 0
M  V30 15102 H 1424.93 -3.60856 1.09829 0
M  V30 15103 H 1427.31 -2.92669 0.378013 0
M  V30 15104 H 1427.4 -1.84273 1.77418 0
M  V30 15105 H 1427.04 -3.8436 3.32009 0
M  V30 15106 H 1426.97 -4.91258 1.89665 0
M  V30 15107 H 1429.46 -3.35986 1.72979 0
M  V30 15108 H 1429.77 -6.56212 4.08174 0
M  V30 15109 H 1428.12 -5.90516 3.66491 0
M  V30 15110 H 1431.31 -4.12258 2.21723 0
M  V30 15111 H 1431.48 -5.58295 3.28954 0
M  V30 15112 N 1424.89 -0.604284 -1.45555 0
M  V30 15113 C 1426.14 -0.0979922 -2.01862 0
M  V30 15114 C 1426.46 1.27476 -1.47563 0
M  V30 15115 O 1425.73 1.84137 -0.668612 0
M  V30 15116 H 1424.31 -0.033235 -0.74626 0
M  V30 15117 H 1426.97 -0.784936 -1.78395 0
M  V30 15118 H 1426.07 -0.0452716 -3.12067 0
M  V30 15119 N 1426.37 1.53816 -0.343257 0
M  V30 15120 C 1427.6 2.05028 0.254375 0
M  V30 15121 C 1428 1.21793 1.44786 0
M  V30 15122 O 1427.35 0.246075 1.82044 0
M  V30 15123 C 1427.41 3.5194 0.733364 0
M  V30 15124 C 1427.07 4.5573 -0.340434 0
M  V30 15125 C 1428.07 5.06261 -1.18304 0
M  V30 15126 C 1425.76 4.99862 -0.494277 0
M  V30 15127 C 1427.75 5.99504 -2.16503 0
M  V30 15128 C 1425.44 5.92916 -1.47967 0
M  V30 15129 C 1426.43 6.42625 -2.3135 0
M  V30 15130 O 1426.12 7.33848 -3.28211 0
M  V30 15131 H 1425.85 0.673922 0.0529695 0
M  V30 15132 H 1428.41 1.99387 -0.493352 0
M  V30 15133 H 1426.64 3.55044 1.53233 0
M  V30 15134 H 1428.33 3.86124 1.25151 0
M  V30 15135 H 1429.09 4.7293 -1.07527 0
M  V30 15136 H 1424.97 4.60772 0.144904 0
M  V30 15137 H 1428.52 6.38227 -2.81624 0
M  V30 15138 H 1424.41 6.25662 -1.588 0
M  V30 15139 H 1425.18 7.51781 -3.23679 0
M  V30 15140 N 1427.84 0.0718701 1.57436 0
M  V30 15141 C 1429.09 -0.592107 1.94591 0
M  V30 15142 C 1429.45 -1.67215 0.951678 0
M  V30 15143 O 1428.74 -1.91582 -0.0260281 0
M  V30 15144 C 1428.93 -1.21336 3.36173 0
M  V30 15145 C 1428.76 -0.195025 4.49277 0
M  V30 15146 C 1427.53 0.220335 5.04819 0
M  V30 15147 C 1429.73 0.567752 5.11157 0
M  V30 15148 N 1427.71 1.22937 6.01465 0
M  V30 15149 C 1429.08 1.42926 6.03301 0
M  V30 15150 C 1431.14 0.623812 4.93977 0
M  V30 15151 C 1429.84 2.34185 6.8011 0
M  V30 15152 C 1431.87 1.52391 5.71429 0
M  V30 15153 C 1431.23 2.3731 6.63222 0
M  V30 15154 H 1427.33 -0.187692 0.759141 0
M  V30 15155 H 1429.91 0.149031 1.94129 0
M  V30 15156 H 1428.08 -1.92442 3.37373 0
M  V30 15157 H 1429.81 -1.83781 3.60564 0
M  V30 15158 H 1426.57 -0.162798 4.7332 0
M  V30 15159 H 1426.99 1.7314 6.54486 0
M  V30 15160 H 1431.64 -0.0185243 4.22796 0
M  V30 15161 H 1429.35 2.99455 7.50568 0
M  V30 15162 H 1432.94 1.57212 5.60157 0
M  V30 15163 H 1431.82 3.05829 7.22107 0
M  V30 15164 N 1429.32 -1.56304 -0.201686 0
M  V30 15165 C 1430.25 -1.97046 -1.25281 0
M  V30 15166 C 1431.23 -0.841458 -1.47829 0
M  V30 15167 O 1432.42 -1.10529 -1.59678 0
M  V30 15168 C 1429.55 -2.30429 -2.59845 0
M  V30 15169 C 1428.5 -3.46006 -2.5192 0
M  V30 15170 C 1427.83 -3.65047 -3.90697 0
M  V30 15171 C 1429.13 -4.80391 -2.04992 0
M  V30 15172 H 1430.82 -2.85099 -0.914272 0
M  V30 15173 H 1428.37 -1.37166 -0.438359 0
M  V30 15174 H 1430.32 -2.57525 -3.33555 0
M  V30 15175 H 1429.05 -1.39251 -2.95426 0
M  V30 15176 H 1427.7 -3.18991 -1.80667 0
M  V30 15177 H 1427.35 -2.71211 -4.2362 0
M  V30 15178 H 1427.05 -4.42796 -3.86271 0
M  V30 15179 H 1428.58 -3.94512 -4.66039 0
M  V30 15180 H 1429.99 -5.06561 -2.68456 0
M  V30 15181 H 1428.39 -5.61563 -2.11582 0
M  V30 15182 H 1429.46 -4.74416 -1.00288 0
M  V30 15183 N 1430.8 0.469154 -1.50455 0
M  V30 15184 C 1432.03 1.24899 -1.65575 0
M  V30 15185 C 1432.45 1.85009 -0.339581 0
M  V30 15186 O 1431.81 1.67376 0.696774 0
M  V30 15187 C 1431.86 2.33205 -2.75041 0
M  V30 15188 O 1430.96 3.37898 -2.36429 0
M  V30 15189 H 1430.3 0.367362 -0.553119 0
M  V30 15190 H 1432.83 0.558083 -1.96842 0
M  V30 15191 H 1432.84 2.78487 -2.98176 0
M  V30 15192 H 1431.52 1.88826 -3.70564 0
M  V30 15193 H 1430.09 2.98314 -2.23748 0
M  V30 15194 N 1432.28 1.40065 0.722464 0
M  V30 15195 C 1433.21 1.42532 1.84951 0
M  V30 15196 C 1434.19 0.287082 1.6766 0
M  V30 15197 O 1435.37 0.494715 1.87793 0
M  V30 15198 C 1432.5 1.28041 3.22836 0
M  V30 15199 C 1431.46 2.39396 3.54787 0
M  V30 15200 C 1430.78 2.09986 4.91742 0
M  V30 15201 C 1432.08 3.81729 3.56483 0
M  V30 15202 H 1433.78 2.36851 1.83144 0
M  V30 15203 H 1431.32 1.14005 0.879714 0
M  V30 15204 H 1433.28 1.28385 4.01367 0
M  V30 15205 H 1432 0.301947 3.25201 0
M  V30 15206 H 1430.66 2.3829 2.78592 0
M  V30 15207 H 1430.31 1.10547 4.90702 0
M  V30 15208 H 1430.01 2.84586 5.14086 0
M  V30 15209 H 1431.53 2.12 5.72615 0
M  V30 15210 H 1432.95 3.84696 4.25067 0
M  V30 15211 H 1431.34 4.55791 3.90351 0
M  V30 15212 H 1432.41 4.11807 2.56014 0
M  V30 15213 N 1433.76 -0.95397 1.25448 0
M  V30 15214 C 1435 -1.70177 1.11407 0
M  V30 15215 C 1435.36 -1.89348 -0.341348 0
M  V30 15216 O 1434.65 -1.45382 -1.24798 0
M  V30 15217 C 1434.85 -3.08613 1.80258 0
M  V30 15218 C 1434.67 -3.02947 3.32345 0
M  V30 15219 C 1433.44 -3.06667 4.01601 0
M  V30 15220 C 1435.64 -2.84063 4.28734 0
M  V30 15221 N 1433.62 -2.91166 5.40459 0
M  V30 15222 C 1435 -2.77 5.54681 0
M  V30 15223 C 1437.05 -2.68748 4.19141 0
M  V30 15224 C 1435.75 -2.56186 6.72132 0
M  V30 15225 C 1437.78 -2.49306 5.36284 0
M  V30 15226 C 1437.14 -2.42963 6.61172 0
M  V30 15227 H 1433.24 -0.630659 0.462378 0
M  V30 15228 H 1435.82 -1.12994 1.58558 0
M  V30 15229 H 1434 -3.6396 1.35601 0
M  V30 15230 H 1435.73 -3.72177 1.58953 0
M  V30 15231 H 1432.48 -3.15885 3.52865 0
M  V30 15232 H 1432.91 -2.86618 6.13334 0
M  V30 15233 H 1437.55 -2.72426 3.23333 0
M  V30 15234 H 1435.27 -2.51251 7.68049 0
M  V30 15235 H 1438.85 -2.3838 5.30722 0
M  V30 15236 H 1437.73 -2.28115 7.50289 0
M  V30 15237 N 1435.24 -1.07045 -1.15668 0
M  V30 15238 C 1436.2 -0.69198 -2.18505 0
M  V30 15239 C 1437.2 0.266185 -1.58582 0
M  V30 15240 O 1438.39 0.0475566 -1.74135 0
M  V30 15241 C 1435.52 -0.0194196 -3.40894 0
M  V30 15242 H 1436.71 -1.60241 -2.53501 0
M  V30 15243 H 1434.27 -0.866598 -1.30076 0
M  V30 15244 H 1435 0.903398 -3.11463 0
M  V30 15245 H 1434.79 -0.708519 -3.85645 0
M  V30 15246 H 1436.28 0.230829 -4.16962 0
M  V30 15247 N 1436.71 1.32449 -0.85411 0
M  V30 15248 C 1437.99 1.91902 -0.378533 0
M  V30 15249 C 1438.37 1.77811 1.13782 0
M  V30 15250 O 1437.72 1.17588 1.95922 0
M  V30 15251 C 1437.93 3.38683 -0.842299 0
M  V30 15252 C 1439.28 4.15817 -0.859161 0
M  V30 15253 O 1440.3 3.47399 -0.786901 0
M  V30 15254 O 1439.16 5.37985 -0.960933 0
M  V30 15255 H 1436.25 0.819614 -0.110284 0
M  V30 15256 H 1438.8 1.41222 -0.940974 0
M  V30 15257 H 1437.57 3.4288 -1.88544 0
M  V30 15258 H 1437.19 3.96767 -0.257278 0
M  V30 15259 N 1438.19 0.611994 1.45232 0
M  V30 15260 C 1439.47 0.0407 1.95558 0
M  V30 15261 C 1439.85 -1.42839 1.55436 0
M  V30 15262 O 1439.2 -2.13316 0.819055 0
M  V30 15263 C 1439.41 0.243436 3.4815 0
M  V30 15264 C 1440.75 0.126551 4.24411 0
M  V30 15265 O 1441.78 0.17379 3.55776 0
M  V30 15266 O 1440.64 0.0153526 5.46498 0
M  V30 15267 H 1437.73 -0.0332288 0.826332 0
M  V30 15268 H 1440.28 0.682364 1.55377 0
M  V30 15269 H 1439.05 1.26357 3.70337 0
M  V30 15270 H 1438.67 -0.43328 3.95232 0
M  V30 15271 N 1439.67 -1.53632 0.351409 0
M  V30 15272 C 1441.08 -1.86241 -0.130834 0
M  V30 15273 C 1441.43 -1.27243 -1.49344 0
M  V30 15274 O 1440.56 -0.589006 -2.0823 0
M  V30 15275 C 1441.15 -3.37919 -0.244179 0
M  V30 15276 C 1439.71 -3.70377 -0.670662 0
M  V30 15277 C 1438.86 -2.76643 0.190813 0
M  V30 15278 H 1441.81 -1.48083 0.570724 0
M  V30 15279 H 1441.83 -3.65137 -1.07029 0
M  V30 15280 H 1441.34 -3.8083 0.747688 0
M  V30 15281 H 1439.44 -3.33015 -1.67127 0
M  V30 15282 H 1439.56 -4.76934 -0.455102 0
M  V30 15283 H 1437.92 -2.52446 -0.338092 0
M  V30 15284 H 1438.7 -3.22385 1.17996 0
M  V30 15285 N 1441.15 -0.0802183 -1.57396 0
M  V30 15286 C 1442.11 0.869437 -2.12069 0
M  V30 15287 C 1443.11 1.22079 -1.04658 0
M  V30 15288 O 1444.3 1.15267 -1.3061 0
M  V30 15289 C 1441.43 2.17016 -2.62901 0
M  V30 15290 H 1442.63 0.394952 -2.97288 0
M  V30 15291 H 1440.18 0.168597 -1.55388 0
M  V30 15292 H 1440.91 2.68983 -1.8116 0
M  V30 15293 H 1440.7 1.92808 -3.4142 0
M  V30 15294 H 1442.19 2.84982 -3.05246 0
M  V30 15295 N 1442.63 1.56409 0.193394 0
M  V30 15296 C 1443.87 1.80991 0.914875 0
M  V30 15297 C 1444.2 0.654538 1.82837 0
M  V30 15298 O 1443.48 -0.344816 1.91419 0
M  V30 15299 C 1443.76 3.15841 1.72964 0
M  V30 15300 C 1443.62 4.41873 0.840748 0
M  V30 15301 C 1444.93 3.474 2.70188 0
M  V30 15302 H 1442.05 0.658408 0.331161 0
M  V30 15303 H 1444.7 1.89125 0.182161 0
M  V30 15304 H 1442.85 3.09038 2.35431 0
M  V30 15305 H 1444.52 4.60723 0.230654 0
M  V30 15306 H 1442.76 4.33549 0.147558 0
M  V30 15307 H 1443.43 5.32728 1.44586 0
M  V30 15308 H 1445.91 3.54513 2.17852 0
M  V30 15309 H 1444.78 4.42872 3.24278 0
M  V30 15310 H 1445.04 2.7098 3.49317 0
M  V30 15311 N 1444.1 -0.461169 1.50702 0
M  V30 15312 C 1445.35 -1.21012 1.61866 0
M  V30 15313 C 1445.67 -1.9226 0.325736 0
M  V30 15314 O 1444.94 -1.84543 -0.657306 0
M  V30 15315 H 1443.52 -0.449671 0.596494 0
M  V30 15316 H 1446.18 -0.531056 1.87525 0
M  V30 15317 H 1445.28 -1.95266 2.4347 0
M  V30 15318 N 1445.58 -1.40446 -0.715026 0
M  V30 15319 C 1446.83 -1.3848 -1.47199 0
M  V30 15320 C 1447.15 0.0119198 -1.94996 0
M  V30 15321 O 1446.42 0.966772 -1.70383 0
M  V30 15322 H 1445 -0.509669 -0.54612 0
M  V30 15323 H 1447.66 -1.75505 -0.847588 0
M  V30 15324 H 1446.76 -2.06002 -2.34456 0
M  V30 15325 N 1447.06 0.947303 -1.25952 0
M  V30 15326 C 1447.99 2.0487 -1.02767 0
M  V30 15327 C 1449 1.62797 0.00985984 0
M  V30 15328 O 1450.19 1.77018 -0.229527 0
M  V30 15329 C 1447.29 3.34682 -0.533048 0
M  V30 15330 C 1446.47 4.05555 -1.63841 0
M  V30 15331 C 1445.53 5.13638 -1.1429 0
M  V30 15332 O 1444.55 5.38682 -1.83876 0
M  V30 15333 N 1445.75 5.80499 0.0119377 0
M  V30 15334 H 1448.52 2.25327 -1.97605 0
M  V30 15335 H 1446.08 1.11636 -1.17256 0
M  V30 15336 H 1448.07 4.04273 -0.185868 0
M  V30 15337 H 1446.64 3.10941 0.321585 0
M  V30 15338 H 1445.86 3.29962 -2.15683 0
M  V30 15339 H 1447.15 4.49661 -2.38081 0
M  V30 15340 H 1446.55 5.62581 0.593212 0
M  V30 15341 H 1445.1 6.51109 0.30009 0
M  V30 15342 N 1448.54 1.07657 1.15099 0
M  V30 15343 C 1449.47 0.657598 2.19564 0
M  V30 15344 C 1450.48 -0.29146 1.6017 0
M  V30 15345 O 1451.67 -0.0802981 1.78319 0
M  V30 15346 C 1448.77 -0.0542221 3.38857 0
M  V30 15347 C 1447.95 0.911803 4.27791 0
M  V30 15348 C 1447 0.236709 5.25667 0
M  V30 15349 O 1446.03 0.878731 5.62376 0
M  V30 15350 N 1447.23 -1.01641 5.71532 0
M  V30 15351 H 1450 1.55626 2.56126 0
M  V30 15352 H 1447.56 0.961657 1.30245 0
M  V30 15353 H 1449.55 -0.516603 4.01389 0
M  V30 15354 H 1448.12 -0.854871 3.00684 0
M  V30 15355 H 1447.34 1.55322 3.6231 0
M  V30 15356 H 1448.63 1.56667 4.8408 0
M  V30 15357 H 1448.03 -1.55791 5.43825 0
M  V30 15358 H 1446.58 -1.42242 6.3609 0
M  V30 15359 N 1450.02 -1.31994 0.861122 0
M  V30 15360 C 1451.24 -2.01211 0.481865 0
M  V30 15361 C 1451.66 -1.64687 -0.923233 0
M  V30 15362 O 1451.02 -0.87151 -1.60346 0
M  V30 15363 C 1451.07 -3.56162 0.618919 0
M  V30 15364 O 1450.79 -3.91376 1.96868 0
M  V30 15365 C 1452.29 -4.42652 0.239514 0
M  V30 15366 H 1449.51 -0.643922 0.188693 0
M  V30 15367 H 1452.05 -1.68427 1.15985 0
M  V30 15368 H 1450.21 -3.87398 -0.0114042 0
M  V30 15369 H 1450.62 -4.86095 1.97008 0
M  V30 15370 H 1452.1 -5.50646 0.386394 0
M  V30 15371 H 1452.57 -4.31466 -0.820598 0
M  V30 15372 H 1453.18 -4.16818 0.845175 0
M  V30 15373 N 1451.49 -0.619688 -1.44906 0
M  V30 15374 C 1452.43 0.130316 -2.28829 0
M  V30 15375 C 1453.44 0.820039 -1.40639 0
M  V30 15376 O 1454.63 0.683401 -1.649 0
M  V30 15377 C 1451.73 1.20618 -3.16709 0
M  V30 15378 C 1450.9 0.60121 -4.33248 0
M  V30 15379 C 1449.96 1.56954 -5.02247 0
M  V30 15380 O 1448.99 1.09112 -5.58644 0
M  V30 15381 N 1450.19 2.90395 -5.02644 0
M  V30 15382 H 1452.95 -0.589867 -2.93838 0
M  V30 15383 H 1450.51 -0.460028 -1.55227 0
M  V30 15384 H 1452.51 1.85404 -3.59732 0
M  V30 15385 H 1451.08 1.82873 -2.53528 0
M  V30 15386 H 1450.3 -0.225015 -3.93557 0
M  V30 15387 H 1451.58 0.177471 -5.0849 0
M  V30 15388 H 1450.98 3.31855 -4.58136 0
M  V30 15389 H 1449.54 3.50572 -5.49493 0
M  V30 15390 N 1452.97 1.53444 -0.359552 0
M  V30 15391 C 1453.94 2.24173 0.477412 0
M  V30 15392 C 1454.94 1.24747 1.01464 0
M  V30 15393 O 1456.13 1.49069 0.901343 0
M  V30 15394 C 1453.26 2.9738 1.66667 0
M  V30 15395 H 1454.45 2.99566 -0.141407 0
M  V30 15396 H 1452 1.55904 -0.111143 0
M  V30 15397 H 1452.74 2.26214 2.32374 0
M  V30 15398 H 1452.52 3.70325 1.28848 0
M  V30 15399 H 1454.01 3.51165 2.25994 0
M  V30 15400 N 1454.45 0.0885642 1.57351 0
M  V30 15401 C 1455.41 -0.858178 2.12528 0
M  V30 15402 C 1456.41 -1.21522 1.05304 0
M  V30 15403 O 1457.6 -1.14573 1.3122 0
M  V30 15404 C 1454.74 -2.15619 2.64048 0
M  V30 15405 H 1455.93 -0.37918 2.97493 0
M  V30 15406 H 1453.48 -0.160354 1.55475 0
M  V30 15407 H 1454.22 -2.68018 1.82584 0
M  V30 15408 H 1454 -1.90995 3.42437 0
M  V30 15409 H 1455.49 -2.83359 3.06753 0
M  V30 15410 N 1455.93 -1.56509 -0.185096 0
M  V30 15411 C 1456.86 -1.98363 -1.23184 0
M  V30 15412 C 1457.84 -0.85709 -1.46929 0
M  V30 15413 O 1459.02 -1.12216 -1.58497 0
M  V30 15414 C 1456.15 -2.33172 -2.57387 0
M  V30 15415 C 1455.11 -3.48658 -2.48236 0
M  V30 15416 C 1454.43 -3.69171 -3.86804 0
M  V30 15417 C 1455.73 -4.82538 -1.99885 0
M  V30 15418 H 1457.43 -2.86053 -0.883982 0
M  V30 15419 H 1454.97 -1.37623 -0.423786 0
M  V30 15420 H 1456.93 -2.61048 -3.30805 0
M  V30 15421 H 1455.65 -1.42377 -2.93933 0
M  V30 15422 H 1454.31 -3.20889 -1.77273 0
M  V30 15423 H 1453.96 -2.75689 -4.20719 0
M  V30 15424 H 1453.66 -4.46868 -3.81553 0
M  V30 15425 H 1455.18 -3.99433 -4.61829 0
M  V30 15426 H 1456.6 -5.0938 -2.63068 0
M  V30 15427 H 1454.99 -5.63775 -2.05614 0
M  V30 15428 H 1456.06 -4.75453 -0.952503 0
M  V30 15429 N 1457.41 0.45317 -1.50944 0
M  V30 15430 C 1458.82 0.788393 -1.38768 0
M  V30 15431 C 1459.02 1.96233 -0.457676 0
M  V30 15432 O 1458.08 2.52328 0.0930651 0
M  V30 15433 C 1459.39 1.08363 -2.80496 0
M  V30 15434 C 1460.94 1.18901 -2.89537 0
M  V30 15435 C 1461.41 1.51727 -4.32138 0
M  V30 15436 N 1462.91 1.58683 -4.35171 0
M  V30 15437 C 1463.64 1.85623 -5.42523 0
M  V30 15438 N 1463.14 2.10462 -6.60059 0
M  V30 15439 N 1464.93 1.87274 -5.29986 0
M  V30 15440 H 1457.08 -0.320216 -2.09972 0
M  V30 15441 H 1459.34 -0.0808021 -0.94455 0
M  V30 15442 H 1459.05 0.293897 -3.5047 0
M  V30 15443 H 1458.92 2.01532 -3.18849 0
M  V30 15444 H 1461.31 1.96939 -2.19771 0
M  V30 15445 H 1461.39 0.236691 -2.54703 0
M  V30 15446 H 1461.04 0.74223 -5.02447 0
M  V30 15447 H 1460.97 2.48139 -4.64472 0
M  V30 15448 H 1463.46 1.41455 -3.50427 0
M  V30 15449 H 1463.77 2.30343 -7.37673 0
M  V30 15450 H 1462.11 2.07817 -6.63202 0
M  V30 15451 H 1465.31 1.67377 -4.37153 0
M  V30 15452 H 1465.48 2.07933 -6.13733 0
M  V30 15453 N 1458.88 1.40823 0.707568 0
M  V30 15454 C 1460.13 1.39259 1.46463 0
M  V30 15455 C 1460.45 -0.00157854 1.95 0
M  V30 15456 O 1459.72 -0.957723 1.70893 0
M  V30 15457 H 1458.3 0.512558 0.543409 0
M  V30 15458 H 1460.97 1.75952 0.838269 0
M  V30 15459 H 1460.06 2.07243 2.3336 0
M  V30 15460 N 1460.36 -0.94061 1.26453 0
M  V30 15461 C 1461.61 -1.68354 1.11809 0
M  V30 15462 C 1461.93 -1.9203 -0.339037 0
M  V30 15463 O 1461.2 -1.51739 -1.23903 0
M  V30 15464 H 1459.78 -0.623916 0.410777 0
M  V30 15465 H 1462.44 -1.13014 1.58789 0
M  V30 15466 H 1461.54 -2.65706 1.63728 0
M  V30 15467 N 1461.84 -1.08266 -1.14527 0
M  V30 15468 C 1463.09 -0.806405 -1.84878 0
M  V30 15469 C 1463.4 0.670151 -1.83762 0
M  V30 15470 O 1464.61 1.06151 -2.49888 0
M  V30 15471 C 1463.06 -1.39257 -3.31867 0
M  V30 15472 C 1462.67 -2.90081 -3.41404 0
M  V30 15473 C 1464.42 -1.19475 -4.0734 0
M  V30 15474 C 1462.32 -3.41842 -4.82595 0
M  V30 15475 H 1461.25 -0.297993 -0.692615 0
M  V30 15476 H 1463.9 -1.30389 -1.29116 0
M  V30 15477 H 1462.29 -0.822802 -3.87358 0
M  V30 15478 H 1463.46 -3.53182 -2.95971 0
M  V30 15479 H 1461.78 -3.08761 -2.79385 0
M  V30 15480 H 1464.37 -1.55614 -5.11555 0
M  V30 15481 H 1464.72 -0.134455 -4.16083 0
M  V30 15482 H 1465.25 -1.73138 -3.58145 0
M  V30 15483 H 1461.99 -4.47439 -4.79039 0
M  V30 15484 H 1461.51 -2.835 -5.28572 0
M  V30 15485 H 1463.19 -3.38346 -5.51481 0
M  V30 15486 N 1463.32 1.31536 -0.86811 0
M  V30 15487 C 1464.57 1.96775 -0.47812 0
M  V30 15488 C 1464.89 1.68632 0.9692 0
M  V30 15489 O 1464.15 0.974357 1.6972 0
M  V30 15490 C 1464.45 3.50876 -0.679752 0
M  V30 15491 C 1464.11 3.99034 -2.09958 0
M  V30 15492 C 1462.78 4.11896 -2.48787 0
M  V30 15493 C 1465.13 4.24387 -3.02564 0
M  V30 15494 C 1462.46 4.47461 -3.79468 0
M  V30 15495 C 1464.81 4.61415 -4.32757 0
M  V30 15496 C 1463.47 4.72484 -4.71503 0
M  V30 15497 H 1462.74 0.720049 -0.174957 0
M  V30 15498 H 1465.39 1.56703 -1.10074 0
M  V30 15499 H 1463.69 3.91791 0.0260174 0
M  V30 15500 H 1465.39 3.994 -0.357855 0
M  V30 15501 H 1461.98 3.89518 -1.78811 0
M  V30 15502 H 1466.17 4.13947 -2.73791 0
M  V30 15503 H 1461.42 4.54227 -4.09252 0
M  V30 15504 H 1465.6 4.79985 -5.04566 0
M  V30 15505 H 1463.22 4.99798 -5.72806 0
M  V30 15506 N 1464.8 0.627364 1.44575 0
M  V30 15507 C 1466.05 0.130094 2.01681 0
M  V30 15508 C 1466.37 -1.25112 1.49572 0
M  V30 15509 O 1465.64 -1.8305 0.697822 0
M  V30 15510 H 1464.22 0.0451032 0.745637 0
M  V30 15511 H 1466.88 0.813218 1.77124 0
M  V30 15512 H 1465.97 0.0949131 3.11956 0
M  V30 15513 N 1466.28 -1.53251 0.367684 0
M  V30 15514 C 1467.21 -2.28728 -0.469676 0
M  V30 15515 C 1468.19 -1.3124 -1.08213 0
M  V30 15516 O 1469.37 -1.60112 -1.09898 0
M  V30 15517 C 1466.5 -3.07808 -1.60846 0
M  V30 15518 C 1465.46 -4.13 -1.12315 0
M  V30 15519 C 1464.78 -4.80176 -2.35234 0
M  V30 15520 C 1466.08 -5.21892 -0.2064 0
M  V30 15521 H 1467.78 -2.98972 0.160019 0
M  V30 15522 H 1465.32 -1.43786 0.0784011 0
M  V30 15523 H 1467.27 -3.59358 -2.20091 0
M  V30 15524 H 1466 -2.35258 -2.26542 0
M  V30 15525 H 1464.66 -3.62399 -0.553378 0
M  V30 15526 H 1464.31 -4.04196 -2.99391 0
M  V30 15527 H 1464.01 -5.51261 -2.03433 0
M  V30 15528 H 1465.53 -5.34521 -2.9516 0
M  V30 15529 H 1466.94 -5.68932 -0.706386 0
M  V30 15530 H 1465.34 -6.00096 0.0208362 0
M  V30 15531 H 1466.41 -4.79051 0.750851 0
M  V30 15532 N 1467.75 -0.0969077 -1.57302 0
M  V30 15533 C 1468.68 0.858443 -2.17147 0
M  V30 15534 C 1469.66 1.29294 -1.10531 0
M  V30 15535 O 1470.85 1.3595 -1.38676 0
M  V30 15536 C 1467.98 2.11691 -2.75326 0
M  V30 15537 C 1466.93 1.82097 -3.8733 0
M  V30 15538 C 1466.26 3.14787 -4.32219 0
M  V30 15539 C 1467.56 1.10651 -5.10444 0
M  V30 15540 H 1469.25 0.35982 -2.9723 0
M  V30 15541 H 1466.8 0.17163 -1.42974 0
M  V30 15542 H 1468.75 2.78963 -3.15844 0
M  V30 15543 H 1467.48 2.63839 -1.925 0
M  V30 15544 H 1466.14 1.17222 -3.47354 0
M  V30 15545 H 1465.78 3.64826 -3.46281 0
M  V30 15546 H 1465.48 2.95769 -5.07735 0
M  V30 15547 H 1467.01 3.83215 -4.75372 0
M  V30 15548 H 1468.42 1.68036 -5.48121 0
M  V30 15549 H 1466.82 1.01805 -5.91401 0
M  V30 15550 H 1467.89 0.0895634 -4.84817 0
M  V30 15551 N 1469.23 1.56605 0.176793 0
M  V30 15552 C 1470.48 1.81324 0.892535 0
M  V30 15553 C 1470.8 0.67301 1.83018 0
M  V30 15554 O 1470.07 -0.307498 1.93472 0
M  V30 15555 H 1468.65 0.668881 0.332576 0
M  V30 15556 H 1471.31 1.94086 0.17792 0
M  V30 15557 H 1470.41 2.75168 1.47272 0
M  V30 15558 N 1470.71 -0.445159 1.51182 0
M  V30 15559 C 1471.95 -1.2048 1.65118 0
M  V30 15560 C 1472.31 -1.88673 0.35589 0
M  V30 15561 O 1473.51 -2.66228 0.370932 0
M  V30 15562 C 1471.79 -2.20075 2.81606 0
M  V30 15563 S 1473.34 -3.04631 3.15825 0
M  V30 15564 H 1470.16 -0.408682 0.581807 0
M  V30 15565 H 1472.76 -0.497601 1.89061 0
M  V30 15566 H 1471.47 -1.68603 3.74167 0
M  V30 15567 H 1471 -2.95387 2.59827 0
M  V30 15568 H 1473.01 -4.21606 2.61654 0
M  V30 15569 N 1472.19 -1.41197 -0.700089 0
M  V30 15570 C 1473.12 -1.45456 -1.8266 0
M  V30 15571 C 1474.1 -0.313719 -1.67182 0
M  V30 15572 O 1475.28 -0.524528 -1.86982 0
M  V30 15573 C 1472.41 -1.33161 -3.20758 0
M  V30 15574 C 1471.37 -2.4501 -3.50933 0
M  V30 15575 C 1470.69 -2.17782 -4.88339 0
M  V30 15576 C 1471.99 -3.87352 -3.50365 0
M  V30 15577 H 1473.69 -2.39735 -1.79353 0
M  V30 15578 H 1471.23 -1.1539 -0.861465 0
M  V30 15579 H 1473.19 -1.34754 -3.99274 0
M  V30 15580 H 1471.91 -0.353646 -3.2468 0
M  V30 15581 H 1470.57 -2.42692 -2.74766 0
M  V30 15582 H 1470.22 -1.1834 -4.88881 0
M  V30 15583 H 1469.92 -2.92728 -5.09494 0
M  V30 15584 H 1471.44 -2.21083 -5.6917 0
M  V30 15585 H 1472.86 -3.9141 -4.18893 0
M  V30 15586 H 1471.25 -4.61944 -3.83051 0
M  V30 15587 H 1472.32 -4.15827 -2.4943 0
M  V30 15588 N 1473.67 0.933891 -1.2695 0
M  V30 15589 C 1474.6 2.03768 -1.04934 0
M  V30 15590 C 1475.61 1.62798 -0.00740752 0
M  V30 15591 O 1476.8 1.76765 -0.248289 0
M  V30 15592 C 1473.9 3.34097 -0.568515 0
M  V30 15593 C 1473.07 4.03794 -1.68133 0
M  V30 15594 C 1472.13 5.12397 -1.19731 0
M  V30 15595 O 1471.16 5.36701 -1.89579 0
M  V30 15596 N 1472.36 5.80479 -0.0496327 0
M  V30 15597 H 1475.12 2.23219 -1.99984 0
M  V30 15598 H 1472.69 1.10386 -1.18433 0
M  V30 15599 H 1474.68 4.04053 -0.228736 0
M  V30 15600 H 1473.25 3.11265 0.288587 0
M  V30 15601 H 1472.47 3.27655 -2.1917 0
M  V30 15602 H 1473.76 4.4711 -2.42837 0
M  V30 15603 H 1473.15 5.63179 0.533509 0
M  V30 15604 H 1471.71 6.5139 0.231014 0
M  V30 15605 N 1475.14 1.08871 1.13951 0
M  V30 15606 C 1476.11 0.726655 2.17376 0
M  V30 15607 C 1477.11 -0.240922 1.58985 0
M  V30 15608 O 1478.3 -0.0198472 1.74189 0
M  V30 15609 C 1475.43 0.0736505 3.4082 0
M  V30 15610 H 1476.62 1.64254 2.5092 0
M  V30 15611 H 1474.17 0.887183 1.28681 0
M  V30 15612 H 1474.91 -0.853733 3.12861 0
M  V30 15613 H 1474.69 0.769782 3.84469 0
M  V30 15614 H 1476.18 -0.164465 4.17276 0
M  V30 15615 N 1476.62 -1.31073 0.875073 0
M  V30 15616 C 1477.87 -1.95791 0.484661 0
M  V30 15617 C 1478.18 -1.69907 -0.969074 0
M  V30 15618 O 1479.39 -2.28527 -1.46587 0
M  V30 15619 C 1477.85 -3.50532 0.815804 0
M  V30 15620 C 1477.45 -3.85249 2.28664 0
M  V30 15621 C 1479.2 -4.21615 0.494111 0
M  V30 15622 C 1477.1 -5.33124 2.55993 0
M  V30 15623 H 1476.03 -0.732806 0.177516 0
M  V30 15624 H 1478.69 -1.49169 1.06868 0
M  V30 15625 H 1477.07 -3.95673 0.16098 0
M  V30 15626 H 1478.24 -3.51051 2.98496 0
M  V30 15627 H 1476.56 -3.27244 2.57488 0
M  V30 15628 H 1479.15 -5.30417 0.675456 0
M  V30 15629 H 1479.5 -4.12437 -0.565815 0
M  V30 15630 H 1480.03 -3.82125 1.1057 0
M  V30 15631 H 1476.77 -5.47343 3.60688 0
M  V30 15632 H 1476.29 -5.68657 1.90761 0
M  V30 15633 H 1477.97 -6.00446 2.40984 0
M  V30 15634 N 1478.1 -0.635022 -1.4424 0
M  V30 15635 C 1479.35 -0.140788 -2.01609 0
M  V30 15636 C 1479.67 1.24317 -1.50234 0
M  V30 15637 O 1478.94 1.82677 -0.707519 0
M  V30 15638 H 1477.52 -0.0490568 -0.745387 0
M  V30 15639 H 1480.18 -0.8226 -1.7669 0
M  V30 15640 H 1479.28 -0.111456 -3.11901 0
M  V30 15641 N 1479.58 1.53054 -0.375806 0
M  V30 15642 C 1480.51 2.28973 0.45754 0
M  V30 15643 C 1481.49 1.31812 1.07516 0
M  V30 15644 O 1482.67 1.60693 1.09048 0
M  V30 15645 C 1479.8 3.08657 1.59212 0
M  V30 15646 C 1478.76 4.1359 1.10123 0
M  V30 15647 C 1478.08 4.81417 2.32684 0
M  V30 15648 C 1479.38 5.21994 0.17872 0
M  V30 15649 H 1481.08 2.98883 -0.175872 0
M  V30 15650 H 1478.62 1.43743 -0.0860253 0
M  V30 15651 H 1480.58 3.6052 2.18182 0
M  V30 15652 H 1479.3 2.36456 2.25291 0
M  V30 15653 H 1477.96 3.62688 0.534151 0
M  V30 15654 H 1477.61 4.05778 2.97243 0
M  V30 15655 H 1477.31 5.52332 2.00506 0
M  V30 15656 H 1478.83 5.36079 2.92322 0
M  V30 15657 H 1480.25 5.69298 0.676204 0
M  V30 15658 H 1478.64 6.00077 -0.0526605 0
M  V30 15659 H 1479.71 4.78646 -0.776246 0
M  V30 15660 N 1481.06 0.105248 1.57248 0
M  V30 15661 C 1482.3 -0.556054 1.94716 0
M  V30 15662 C 1482.63 -1.67557 0.987669 0
M  V30 15663 O 1481.89 -1.95698 0.00905706 0
M  V30 15664 C 1482.19 -1.14178 3.38671 0
M  V30 15665 C 1481.85 -0.145022 4.50667 0
M  V30 15666 C 1480.51 0.129099 4.81027 0
M  V30 15667 C 1482.87 0.535015 5.18447 0
M  V30 15668 C 1480.19 1.08978 5.7649 0
M  V30 15669 C 1482.55 1.48423 6.14942 0
M  V30 15670 C 1481.21 1.76648 6.43702 0
M  V30 15671 H 1480.48 -0.203475 0.712516 0
M  V30 15672 H 1483.13 0.183237 1.90621 0
M  V30 15673 H 1481.43 -1.95754 3.39393 0
M  V30 15674 H 1483.13 -1.66132 3.64967 0
M  V30 15675 H 1479.72 -0.36886 4.2701 0
M  V30 15676 H 1483.9 0.336391 4.95159 0
M  V30 15677 H 1479.16 1.31535 5.97083 0
M  V30 15678 H 1483.33 2.01693 6.66553 0
M  V30 15679 H 1480.96 2.51245 7.17482 0
M  V30 15680 N 1482.53 -1.56697 -0.168486 0
M  V30 15681 C 1483.5 -1.95744 -1.19235 0
M  V30 15682 C 1484.5 -0.841419 -1.37028 0
M  V30 15683 O 1485.69 -1.10842 -1.34386 0
M  V30 15684 C 1482.82 -2.25471 -2.55686 0
M  V30 15685 H 1484.01 -2.87368 -0.857892 0
M  V30 15686 H 1481.57 -1.50798 -0.411041 0
M  V30 15687 H 1482.3 -1.36571 -2.94141 0
M  V30 15688 H 1482.09 -3.06822 -2.44137 0
M  V30 15689 H 1483.58 -2.56593 -3.29469 0
M  V30 15690 N 1484.01 0.437135 -1.51416 0
M  V30 15691 C 1485.24 1.21359 -1.68187 0
M  V30 15692 C 1485.66 1.84247 -0.378748 0
M  V30 15693 O 1485.02 1.68816 0.661115 0
M  V30 15694 C 1485.07 2.27319 -2.79926 0
M  V30 15695 O 1484.17 3.32807 -2.43543 0
M  V30 15696 H 1483.51 0.355547 -0.560787 0
M  V30 15697 H 1486.04 0.516204 -1.97981 0
M  V30 15698 H 1486.05 2.721 -3.04016 0
M  V30 15699 H 1484.73 1.80923 -3.74486 0
M  V30 15700 H 1483.31 2.93501 -2.30025 0
M  V30 15701 N 1485.49 1.41566 0.692592 0
M  V30 15702 C 1486.42 1.38067 1.81694 0
M  V30 15703 C 1487.4 0.247482 1.60706 0
M  V30 15704 O 1488.59 0.43487 1.83415 0
M  V30 15705 C 1485.71 1.15438 3.18421 0
M  V30 15706 C 1484.76 2.31515 3.58194 0
M  V30 15707 S 1485.59 3.94003 3.6266 0
M  V30 15708 C 1486.75 3.73683 5.02108 0
M  V30 15709 H 1486.98 2.33215 1.84386 0
M  V30 15710 H 1484.51 1.28125 0.861585 0
M  V30 15711 H 1486.47 1.03069 3.9735 0
M  V30 15712 H 1485.13 0.219055 3.13335 0
M  V30 15713 H 1484.33 2.11383 4.57529 0
M  V30 15714 H 1483.93 2.40307 2.86581 0
M  V30 15715 H 1486.22 3.33573 5.89691 0
M  V30 15716 H 1487.16 4.72631 5.27281 0
M  V30 15717 H 1487.57 3.06899 4.73786 0
M  V30 15718 N 1486.97 -0.927146 1.27443 0
M  V30 15719 C 1487.93 -2.00938 1.10257 0
M  V30 15720 C 1488.93 -1.60733 0.0463898 0
M  V30 15721 O 1490.12 -1.71752 0.291029 0
M  V30 15722 C 1487.25 -3.34047 0.680115 0
M  V30 15723 H 1488.45 -2.17615 2.06358 0
M  V30 15724 H 1486 -1.10802 1.10239 0
M  V30 15725 H 1486.73 -3.23069 -0.282259 0
M  V30 15726 H 1486.52 -3.64585 1.44291 0
M  V30 15727 H 1488.01 -4.13523 0.582126 0
M  V30 15728 N 1488.45 -1.09474 -1.13372 0
M  V30 15729 C 1489.41 -0.738173 -2.16988 0
M  V30 15730 C 1490.41 0.232488 -1.5911 0
M  V30 15731 O 1491.6 0.0106093 -1.74197 0
M  V30 15732 C 1488.73 -0.091724 -3.40777 0
M  V30 15733 H 1489.92 -1.65582 -2.50045 0
M  V30 15734 H 1487.48 -0.893994 -1.28209 0
M  V30 15735 H 1488.21 0.837129 -3.13309 0
M  V30 15736 H 1488 -0.790161 -3.84056 0
M  V30 15737 H 1489.49 0.142334 -4.17357 0
M  V30 15738 N 1489.92 1.30607 -0.882012 0
M  V30 15739 C 1491.17 1.96547 -0.499703 0
M  V30 15740 C 1491.5 1.69484 0.948098 0
M  V30 15741 O 1490.78 0.997929 1.66948 0
M  V30 15742 C 1491.06 3.51735 -0.771662 0
M  V30 15743 C 1490.91 3.88326 -2.26987 0
M  V30 15744 C 1492.23 4.39411 -0.246178 0
M  V30 15745 H 1489.35 0.713912 -0.183026 0
M  V30 15746 H 1491.99 1.5453 -1.10546 0
M  V30 15747 H 1490.14 3.87655 -0.256092 0
M  V30 15748 H 1491.82 3.62444 -2.85362 0
M  V30 15749 H 1490.06 3.36501 -2.7377 0
M  V30 15750 H 1490.73 4.96574 -2.41078 0
M  V30 15751 H 1493.21 4.10382 -0.687419 0
M  V30 15752 H 1492.08 5.4692 -0.465817 0
M  V30 15753 H 1492.34 4.33804 0.852452 0
M  V30 15754 N 1491.4 0.642663 1.43901 0
M  V30 15755 C 1492.33 -0.0419756 2.33462 0
M  V30 15756 C 1493.31 -0.822923 1.48869 0
M  V30 15757 O 1494.5 -0.786508 1.7756 0
M  V30 15758 C 1491.63 -1.01631 3.32097 0
M  V30 15759 C 1490.58 -0.346206 4.26597 0
M  V30 15760 C 1489.91 -1.43125 5.15189 0
M  V30 15761 C 1491.21 0.754799 5.16817 0
M  V30 15762 H 1492.9 0.705929 2.90959 0
M  V30 15763 H 1490.45 0.340924 1.39906 0
M  V30 15764 H 1492.4 -1.5041 3.93643 0
M  V30 15765 H 1491.13 -1.79525 2.72834 0
M  V30 15766 H 1489.78 0.121038 3.664 0
M  V30 15767 H 1489.43 -2.20135 4.52271 0
M  V30 15768 H 1489.13 -0.988194 5.79231 0
M  V30 15769 H 1490.66 -1.92061 5.79607 0
M  V30 15770 H 1492.07 0.349624 5.72233 0
M  V30 15771 H 1490.47 1.12169 5.89524 0
M  V30 15772 H 1491.54 1.61718 4.57138 0
M  V30 15773 N 1492.88 -1.52852 0.383918 0
M  V30 15774 C 1493.81 -2.29213 -0.44539 0
M  V30 15775 C 1494.79 -1.3238 -1.06815 0
M  V30 15776 O 1495.98 -1.61269 -1.08194 0
M  V30 15777 C 1493.11 -3.09497 -1.57573 0
M  V30 15778 C 1492.06 -4.14168 -1.07928 0
M  V30 15779 C 1491.39 -4.82644 -2.30128 0
M  V30 15780 C 1492.69 -5.22082 -0.151035 0
M  V30 15781 H 1494.38 -2.98786 0.19172 0
M  V30 15782 H 1491.93 -1.43695 0.0936471 0
M  V30 15783 H 1493.88 -3.61672 -2.16267 0
M  V30 15784 H 1492.6 -2.37647 -2.24034 0
M  V30 15785 H 1491.26 -3.62966 -0.514909 0
M  V30 15786 H 1490.91 -4.07348 -2.95087 0
M  V30 15787 H 1490.61 -5.53388 -1.97574 0
M  V30 15788 H 1492.14 -5.37621 -2.89475 0
M  V30 15789 H 1493.55 -5.69649 -0.646003 0
M  V30 15790 H 1491.95 -6.00041 0.0844833 0
M  V30 15791 H 1493.02 -4.78228 0.801618 0
M  V30 15792 N 1494.36 -0.113586 -1.5719 0
M  V30 15793 C 1495.61 0.544642 -1.94623 0
M  V30 15794 C 1495.93 1.6756 -0.997428 0
M  V30 15795 O 1495.2 1.95829 -0.0527521 0
M  V30 15796 H 1493.78 0.204186 -0.718552 0
M  V30 15797 H 1496.44 -0.181258 -1.94055 0
M  V30 15798 H 1495.54 0.942765 -2.9752 0
M  V30 15799 N 1495.84 1.56784 0.160173 0
M  V30 15800 C 1497.09 1.8226 0.873253 0
M  V30 15801 C 1497.41 0.692384 1.82294 0
M  V30 15802 O 1496.68 -0.286961 1.93787 0
M  V30 15803 H 1495.26 0.672371 0.325463 0
M  V30 15804 H 1497.92 1.94264 0.157325 0
M  V30 15805 H 1497.01 2.76714 1.44345 0
M  V30 15806 N 1497.32 -0.429099 1.51646 0
M  V30 15807 C 1498.28 -1.50398 1.72954 0
M  V30 15808 C 1499.28 -1.49207 0.599491 0
M  V30 15809 O 1500.47 -1.51084 0.867143 0
M  V30 15810 C 1497.6 -2.89903 1.79358 0
M  V30 15811 H 1498.79 -1.32805 2.68892 0
M  V30 15812 H 1496.35 -0.658313 1.4176 0
M  V30 15813 H 1497.08 -3.12891 0.852639 0
M  V30 15814 H 1496.87 -2.92171 2.61492 0
M  V30 15815 H 1498.36 -3.67862 1.97654 0
M  V30 15816 N 1498.79 -1.41931 -0.685074 0
M  V30 15817 C 1500.21 -1.24631 -0.996957 0
M  V30 15818 C 1500.41 -0.143146 -2.00991 0
M  V30 15819 O 1499.47 0.489012 -2.47719 0
M  V30 15820 C 1500.78 -2.59947 -1.51156 0
M  V30 15821 C 1502.33 -2.67216 -1.62986 0
M  V30 15822 C 1502.8 -4.02874 -2.17845 0
M  V30 15823 N 1504.29 -4.04775 -2.25192 0
M  V30 15824 C 1505.03 -5.0655 -2.68691 0
M  V30 15825 N 1504.52 -6.18712 -3.11717 0
M  V30 15826 N 1506.32 -4.93909 -2.68348 0
M  V30 15827 H 1498.47 -2.12395 -0.0142223 0
M  V30 15828 H 1500.73 -0.945496 -0.0688552 0
M  V30 15829 H 1500.44 -3.41477 -0.841793 0
M  V30 15830 H 1500.31 -2.83159 -2.49201 0
M  V30 15831 H 1502.7 -1.86038 -2.29071 0
M  V30 15832 H 1502.78 -2.47804 -0.634584 0
M  V30 15833 H 1502.42 -4.84505 -1.52372 0
M  V30 15834 H 1502.35 -4.19633 -3.18144 0
M  V30 15835 H 1504.84 -3.23798 -1.94841 0
M  V30 15836 H 1505.16 -6.9223 -3.43565 0
M  V30 15837 H 1503.5 -6.22232 -3.096 0
M  V30 15838 H 1506.69 -4.05364 -2.34089 0
M  V30 15839 H 1506.87 -5.73361 -3.01929 0
M  V30 15840 N 1500.27 0.920374 -1.27933 0
M  V30 15841 C 1501.23 2.0035 -1.11321 0
M  V30 15842 C 1502.23 1.60706 -0.0549132 0
M  V30 15843 O 1503.42 1.71595 -0.300134 0
M  V30 15844 C 1500.56 3.33681 -0.69782 0
M  V30 15845 H 1501.75 2.16518 -2.07509 0
M  V30 15846 H 1499.3 1.10216 -1.10825 0
M  V30 15847 H 1500.04 3.23214 0.265122 0
M  V30 15848 H 1499.82 3.63815 -1.46223 0
M  V30 15849 H 1501.31 4.13208 -0.604048 0
M  V30 15850 N 1501.75 1.10074 1.1279 0
M  V30 15851 C 1502.97 0.863106 1.88587 0
M  V30 15852 C 1503.4 -0.580595 1.78915 0
M  V30 15853 O 1502.76 -1.40859 1.14142 0
M  V30 15854 C 1502.81 1.31142 3.35908 0
M  V30 15855 O 1501.91 0.474088 4.09666 0
M  V30 15856 H 1501.25 0.312034 0.586115 0
M  V30 15857 H 1503.78 1.46659 1.42662 0
M  V30 15858 H 1503.79 1.29974 3.86744 0
M  V30 15859 H 1502.47 2.36279 3.42265 0
M  V30 15860 H 1501.04 0.550665 3.68812 0
M  V30 15861 N 1503.23 -1.30138 0.888926 0
M  V30 15862 C 1504.64 -1.48552 0.583486 0
M  V30 15863 C 1504.84 -1.81376 -0.877781 0
M  V30 15864 O 1503.9 -1.90374 -1.65873 0
M  V30 15865 C 1505.21 -2.60613 1.50004 0
M  V30 15866 C 1506.76 -2.74493 1.50409 0
M  V30 15867 C 1507.24 -3.89672 2.40666 0
M  V30 15868 N 1508.73 -3.96988 2.38652 0
M  V30 15869 C 1509.46 -4.85429 3.05199 0
M  V30 15870 N 1508.96 -5.78638 3.80985 0
M  V30 15871 N 1510.75 -4.78831 2.9441 0
M  V30 15872 H 1502.9 -1.07105 1.83418 0
M  V30 15873 H 1505.16 -0.530991 0.785336 0
M  V30 15874 H 1504.87 -2.43191 2.54069 0
M  V30 15875 H 1504.74 -3.5718 1.21254 0
M  V30 15876 H 1507.13 -2.91318 0.470933 0
M  V30 15877 H 1507.21 -1.78535 1.83191 0
M  V30 15878 H 1506.86 -3.73603 3.44069 0
M  V30 15879 H 1506.79 -4.84975 2.05198 0
M  V30 15880 H 1509.28 -3.30313 1.83581 0
M  V30 15881 H 1509.59 -6.42894 4.28844 0
M  V30 15882 H 1507.94 -5.78558 3.85092 0
M  V30 15883 H 1511.13 -4.04995 2.34727 0
M  V30 15884 H 1511.3 -5.47547 3.46549 0
M  V30 15885 N 1504.71 -0.650285 -1.43559 0
M  V30 15886 C 1505.64 0.0295939 -2.33481 0
M  V30 15887 C 1506.62 0.815017 -1.49303 0
M  V30 15888 O 1507.8 0.77708 -1.77975 0
M  V30 15889 C 1504.93 0.998683 -3.32631 0
M  V30 15890 C 1503.89 0.323577 -4.26775 0
M  V30 15891 C 1503.21 1.40391 -5.1594 0
M  V30 15892 C 1504.51 -0.782197 -5.1641 0
M  V30 15893 H 1506.21 -0.721349 -2.9058 0
M  V30 15894 H 1503.75 -0.348339 -1.39723 0
M  V30 15895 H 1505.7 1.4832 -3.94435 0
M  V30 15896 H 1504.43 1.78075 -2.73782 0
M  V30 15897 H 1503.09 -0.140467 -3.66331 0
M  V30 15898 H 1502.74 2.17734 -4.53432 0
M  V30 15899 H 1502.44 0.957462 -5.79747 0
M  V30 15900 H 1503.96 1.88985 -5.80618 0
M  V30 15901 H 1505.37 -0.379966 -5.72039 0
M  V30 15902 H 1503.77 -1.15293 -5.88921 0
M  V30 15903 H 1504.84 -1.6414 -4.56274 0
M  V30 15904 N 1506.18 1.52647 -0.392018 0
M  V30 15905 C 1507.11 2.29446 0.433228 0
M  V30 15906 C 1508.09 1.32945 1.06111 0
M  V30 15907 O 1509.28 1.61841 1.07337 0
M  V30 15908 C 1506.41 3.10328 1.55929 0
M  V30 15909 C 1505.36 4.14735 1.05731 0
M  V30 15910 C 1504.69 4.83858 2.27565 0
M  V30 15911 C 1505.99 5.22154 0.123346 0
M  V30 15912 H 1507.68 2.9868 -0.207563 0
M  V30 15913 H 1505.23 1.43643 -0.101266 0
M  V30 15914 H 1507.18 3.62814 2.14346 0
M  V30 15915 H 1505.91 2.38832 2.22771 0
M  V30 15916 H 1504.57 3.63234 0.495653 0
M  V30 15917 H 1504.21 4.08907 2.92923 0
M  V30 15918 H 1503.91 5.54428 1.94637 0
M  V30 15919 H 1505.44 5.39149 2.86619 0
M  V30 15920 H 1506.85 5.69983 0.615784 0
M  V30 15921 H 1505.25 5.99987 -0.116304 0
M  V30 15922 H 1506.32 4.77796 -0.826969 0
M  V30 15923 N 1507.66 0.121921 1.57128 0
M  V30 15924 C 1508.91 -0.535371 1.95295 0
M  V30 15925 C 1509.24 -1.665 1.00539 0
M  V30 15926 O 1508.49 -1.95677 0.0298129 0
M  V30 15927 C 1508.79 -1.10579 3.39863 0
M  V30 15928 C 1508.46 -0.0972144 4.50795 0
M  V30 15929 C 1507.12 0.180111 4.80863 0
M  V30 15930 C 1509.47 0.589973 5.1785 0
M  V30 15931 C 1506.8 1.15086 5.75302 0
M  V30 15932 C 1509.15 1.54937 6.13333 0
M  V30 15933 C 1507.82 1.83465 6.41792 0
M  V30 15934 H 1507.09 -0.195906 0.714634 0
M  V30 15935 H 1509.73 0.203445 1.90416 0
M  V30 15936 H 1508.04 -1.92143 3.4145 0
M  V30 15937 H 1509.73 -1.62252 3.66709 0
M  V30 15938 H 1506.32 -0.32355 4.27377 0
M  V30 15939 H 1510.51 0.38889 4.94774 0
M  V30 15940 H 1505.76 1.3786 5.95655 0
M  V30 15941 H 1509.94 2.08751 6.64376 0
M  V30 15942 H 1507.57 2.58841 7.14777 0
M  V30 15943 N 1509.14 -1.56867 -0.151857 0
M  V30 15944 C 1510.07 -1.94494 -1.21263 0
M  V30 15945 C 1511.09 -0.84021 -1.39443 0
M  V30 15946 O 1512.27 -1.11863 -1.391 0
M  V30 15947 C 1509.37 -2.19952 -2.57826 0
M  V30 15948 C 1508.55 -3.51227 -2.60689 0
M  V30 15949 C 1507.61 -3.65282 -3.78756 0
M  V30 15950 O 1506.63 -4.3772 -3.63854 0
M  V30 15951 N 1507.83 -3.01582 -4.96012 0
M  V30 15952 H 1510.6 -2.86092 -0.892845 0
M  V30 15953 H 1508.16 -1.58258 -0.341463 0
M  V30 15954 H 1510.15 -2.266 -3.35312 0
M  V30 15955 H 1508.72 -1.34643 -2.82117 0
M  V30 15956 H 1507.94 -3.56062 -1.69155 0
M  V30 15957 H 1509.23 -4.37574 -2.59628 0
M  V30 15958 H 1508.63 -2.42637 -5.11022 0
M  V30 15959 H 1507.19 -3.13799 -5.71291 0
M  V30 15960 N 1510.62 0.421051 -1.51871 0
M  V30 15961 C 1512.03 0.758781 -1.40409 0
M  V30 15962 C 1512.23 1.95219 -0.499197 0
M  V30 15963 O 1511.29 2.52469 0.0395216 0
M  V30 15964 C 1512.6 1.02388 -2.82731 0
M  V30 15965 C 1514.15 1.12733 -2.91994 0
M  V30 15966 C 1514.63 1.42527 -4.35259 0
M  V30 15967 N 1516.12 1.49417 -4.38439 0
M  V30 15968 C 1516.85 1.74074 -5.46339 0
M  V30 15969 N 1516.35 1.96414 -6.64375 0
M  V30 15970 N 1518.14 1.7599 -5.33839 0
M  V30 15971 H 1510.29 -0.364682 -2.09246 0
M  V30 15972 H 1512.56 -0.100819 -0.942624 0
M  V30 15973 H 1512.26 0.219491 -3.51014 0
M  V30 15974 H 1512.14 1.94724 -3.23052 0
M  V30 15975 H 1514.52 1.92233 -2.23899 0
M  V30 15976 H 1514.6 0.182611 -2.55147 0
M  V30 15977 H 1514.25 0.635486 -5.03909 0
M  V30 15978 H 1514.18 2.38231 -4.69631 0
M  V30 15979 H 1516.67 1.3399 -3.53348 0
M  V30 15980 H 1516.98 2.14644 -7.42393 0
M  V30 15981 H 1515.33 1.93702 -6.67461 0
M  V30 15982 H 1518.52 1.58067 -4.40605 0
M  V30 15983 H 1518.69 1.94868 -6.18005 0
M  V30 15984 N 1512.1 1.42293 0.677538 0
M  V30 15985 C 1513.03 1.48344 1.80323 0
M  V30 15986 C 1514.01 0.340276 1.66662 0
M  V30 15987 O 1515.19 0.554209 1.86124 0
M  V30 15988 C 1512.32 1.38247 3.18599 0
M  V30 15989 C 1511.28 2.50562 3.46991 0
M  V30 15990 C 1510.6 2.25524 4.84812 0
M  V30 15991 C 1511.9 3.92877 3.44158 0
M  V30 15992 H 1513.6 2.42558 1.75516 0
M  V30 15993 H 1511.14 1.16746 0.842999 0
M  V30 15994 H 1513.1 1.41089 3.97079 0
M  V30 15995 H 1511.82 0.405255 3.24076 0
M  V30 15996 H 1510.48 2.47032 2.7087 0
M  V30 15997 H 1510.13 1.26102 4.86937 0
M  V30 15998 H 1509.83 3.00797 5.04772 0
M  V30 15999 H 1511.35 2.3011 5.65581 0
M  V30 16000 H 1512.76 3.98024 4.12613 0
M  V30 16001 H 1511.16 4.6798 3.75653 0
M  V30 16002 H 1512.23 4.19743 2.42783 0
M  V30 16003 N 1513.57 -0.913576 1.28419 0
M  V30 16004 C 1514.5 -2.03275 1.14897 0
M  V30 16005 C 1515.49 -1.70036 0.0467034 0
M  V30 16006 O 1516.67 -1.92907 0.223725 0
M  V30 16007 C 1513.8 -3.37717 0.810217 0
M  V30 16008 C 1512.75 -3.85119 1.86728 0
M  V30 16009 C 1512.08 -5.16527 1.38215 0
M  V30 16010 C 1513.38 -4.06959 3.27386 0
M  V30 16011 H 1515.07 -2.14847 2.08522 0
M  V30 16012 H 1512.62 -1.03233 1.00394 0
M  V30 16013 H 1514.57 -4.15505 0.702382 0
M  V30 16014 H 1513.3 -3.26199 -0.161732 0
M  V30 16015 H 1511.96 -3.09536 1.96426 0
M  V30 16016 H 1511.6 -5.01413 0.399263 0
M  V30 16017 H 1511.3 -5.49213 2.08898 0
M  V30 16018 H 1512.83 -5.96871 1.28754 0
M  V30 16019 H 1514.24 -4.75272 3.20608 0
M  V30 16020 H 1512.64 -4.50977 3.95904 0
M  V30 16021 H 1513.71 -3.11764 3.71391 0
M  V30 16022 N 1515.05 -1.1067 -1.12204 0
M  V30 16023 C 1516.3 -0.861787 -1.84241 0
M  V30 16024 C 1516.65 0.60611 -1.82604 0
M  V30 16025 O 1515.95 1.44133 -1.26239 0
M  V30 16026 C 1516.14 -1.34727 -3.31034 0
M  V30 16027 C 1515.97 -2.86083 -3.46968 0
M  V30 16028 C 1514.74 -3.54113 -3.6046 0
M  V30 16029 C 1516.94 -3.84175 -3.41927 0
M  V30 16030 N 1514.92 -4.93767 -3.64784 0
M  V30 16031 C 1516.29 -5.09853 -3.52775 0
M  V30 16032 C 1518.35 -3.76847 -3.25408 0
M  V30 16033 C 1517.05 -6.29067 -3.48808 0
M  V30 16034 C 1519.07 -4.95564 -3.22755 0
M  V30 16035 C 1518.44 -6.20091 -3.34166 0
M  V30 16036 H 1514.54 -0.368386 -0.689794 0
M  V30 16037 H 1517.12 -1.40954 -1.34314 0
M  V30 16038 H 1515.29 -0.826806 -3.79498 0
M  V30 16039 H 1517.02 -1.04633 -3.9094 0
M  V30 16040 H 1513.78 -3.04564 -3.62682 0
M  V30 16041 H 1514.2 -5.66552 -3.70604 0
M  V30 16042 H 1518.84 -2.81485 -3.15478 0
M  V30 16043 H 1516.56 -7.24716 -3.57509 0
M  V30 16044 H 1520.15 -4.91606 -3.11151 0
M  V30 16045 H 1519.03 -7.10412 -3.32091 0
M  V30 16046 N 1516.53 1.29665 -0.895815 0
M  V30 16047 C 1517.81 1.90601 -0.439394 0
M  V30 16048 C 1518.19 1.81341 1.08068 0
M  V30 16049 O 1517.54 1.23761 1.92082 0
M  V30 16050 C 1517.75 3.35832 -0.949622 0
M  V30 16051 C 1519.09 4.12873 -0.991015 0
M  V30 16052 O 1520.12 3.4472 -0.897025 0
M  V30 16053 O 1518.98 5.34656 -1.1316 0
M  V30 16054 H 1516.07 0.81569 -0.136304 0
M  V30 16055 H 1518.62 1.38157 -0.985426 0
M  V30 16056 H 1517.39 3.36708 -1.99357 0
M  V30 16057 H 1517.01 3.95747 -0.383376 0
M  V30 16058 N 1518.01 0.657889 1.43212 0
M  V30 16059 C 1519.25 0.173443 2.02057 0
M  V30 16060 C 1519.59 -1.21108 1.51811 0
M  V30 16061 O 1518.86 -1.80953 0.71317 0
M  V30 16062 C 1519.15 0.189429 3.59601 0
M  V30 16063 C 1519 1.6082 4.20068 0
M  V30 16064 C 1520.32 -0.471633 4.37566 0
M  V30 16065 H 1517.44 0.0644999 0.734172 0
M  V30 16066 H 1520.08 0.839462 1.7045 0
M  V30 16067 H 1518.23 -0.377689 3.8666 0
M  V30 16068 H 1519.9 2.22627 4.04024 0
M  V30 16069 H 1518.14 2.15407 3.7654 0
M  V30 16070 H 1518.81 1.5712 5.29167 0
M  V30 16071 H 1521.29 0.0109387 4.16099 0
M  V30 16072 H 1520.17 -0.429739 5.47215 0
M  V30 16073 H 1520.43 -1.54652 4.14168 0
M  V30 16074 N 1519.49 -1.52437 0.400108 0
M  V30 16075 C 1520.73 -2.0201 -0.17887 0
M  V30 16076 C 1521.07 -1.2856 -1.45554 0
M  V30 16077 O 1520.34 -0.389236 -1.90565 0
M  V30 16078 C 1520.62 -3.57453 -0.435784 0
M  V30 16079 C 1520.48 -4.41562 0.85693 0
M  V30 16080 C 1521.8 -4.228 -1.2218 0
M  V30 16081 H 1518.91 -0.734256 -0.063535 0
M  V30 16082 H 1521.56 -1.82406 0.531801 0
M  V30 16083 H 1519.71 -3.74288 -1.04117 0
M  V30 16084 H 1521.38 -4.36456 1.49344 0
M  V30 16085 H 1519.62 -4.08138 1.46989 0
M  V30 16086 H 1520.29 -5.48374 0.631675 0
M  V30 16087 H 1522.77 -4.10009 -0.709359 0
M  V30 16088 H 1521.64 -5.3152 -1.37031 0
M  V30 16089 H 1521.91 -3.81153 -2.23998 0
M  V30 16090 N 1520.96 -0.130252 -1.57061 0
M  V30 16091 C 1522.38 0.226279 -1.57988 0
M  V30 16092 C 1522.58 1.65902 -1.14363 0
M  V30 16093 O 1521.64 2.38252 -0.836191 0
M  V30 16094 C 1522.95 -0.0172647 -3.00695 0
M  V30 16095 C 1524.5 0.0477572 -3.12964 0
M  V30 16096 C 1524.97 -0.168238 -4.57691 0
M  V30 16097 N 1526.46 -0.114591 -4.63058 0
M  V30 16098 C 1527.2 -0.256462 -5.72826 0
M  V30 16099 N 1526.69 -0.455129 -6.91303 0
M  V30 16100 N 1528.49 -0.195243 -5.61761 0
M  V30 16101 H 1520.64 -1.06594 -1.83716 0
M  V30 16102 H 1522.9 -0.420643 -0.849567 0
M  V30 16103 H 1522.61 -1.00819 -3.3694 0
M  V30 16104 H 1522.48 0.709629 -3.70465 0
M  V30 16105 H 1524.87 1.02922 -2.7657 0
M  V30 16106 H 1524.95 -0.711198 -2.45714 0
M  V30 16107 H 1524.59 -1.14673 -4.94785 0
M  V30 16108 H 1524.52 0.610839 -5.23045 0
M  V30 16109 H 1527.01 0.0349873 -3.77884 0
M  V30 16110 H 1527.33 -0.553943 -7.70812 0
M  V30 16111 H 1525.67 -0.491244 -6.93262 0
M  V30 16112 H 1528.86 -0.0409186 -4.68082 0
M  V30 16113 H 1529.04 -0.309248 -6.47262 0
M  V30 16114 N 1522.44 1.56945 0.143535 0
M  V30 16115 C 1523.67 1.88067 0.874385 0
M  V30 16116 C 1524.09 0.719645 1.73789 0
M  V30 16117 O 1523.45 -0.330654 1.78259 0
M  V30 16118 C 1523.5 3.17795 1.70408 0
M  V30 16119 O 1522.6 3.01973 2.80867 0
M  V30 16120 H 1521.94 0.617808 0.24333 0
M  V30 16121 H 1524.47 2.04165 0.133309 0
M  V30 16122 H 1524.48 3.49903 2.09838 0
M  V30 16123 H 1523.16 4.019 1.07001 0
M  V30 16124 H 1521.74 2.8128 2.44818 0
M  V30 16125 N 1523.92 -0.412991 1.52093 0
M  V30 16126 C 1525.33 -0.991955 1.58168 0
M  V30 16127 C 1525.68 -1.91655 0.419834 0
M  V30 16128 O 1524.81 -2.11448 -0.460308 0
M  V30 16129 C 1525.4 -1.80581 2.86663 0
M  V30 16130 C 1523.96 -2.33487 2.9523 0
M  V30 16131 C 1523.11 -1.13362 2.5307 0
M  V30 16132 H 1526.06 -0.193364 1.57518 0
M  V30 16133 H 1526.08 -2.66282 2.71798 0
M  V30 16134 H 1525.59 -1.13262 3.71205 0
M  V30 16135 H 1523.69 -3.0419 2.15173 0
M  V30 16136 H 1523.81 -2.64617 3.99393 0
M  V30 16137 H 1522.17 -1.48641 2.06828 0
M  V30 16138 H 1522.95 -0.476148 3.39982 0
M  V30 16139 N 1525.4 -1.4265 -0.669982 0
M  V30 16140 C 1526.65 -1.42667 -1.42579 0
M  V30 16141 C 1526.96 -0.0483217 -1.9554 0
M  V30 16142 O 1528.17 0.0740917 -2.71399 0
M  V30 16143 C 1526.62 -2.5098 -2.57948 0
M  V30 16144 C 1526.23 -3.94844 -2.11666 0
M  V30 16145 C 1527.98 -2.6017 -3.35428 0
M  V30 16146 C 1525.88 -4.94655 -3.24146 0
M  V30 16147 H 1524.81 -0.530651 -0.535654 0
M  V30 16148 H 1527.46 -1.68576 -0.724861 0
M  V30 16149 H 1525.85 -2.18244 -3.30432 0
M  V30 16150 H 1527.02 -4.36958 -1.46303 0
M  V30 16151 H 1525.33 -3.89547 -1.47111 0
M  V30 16152 H 1527.93 -3.31918 -4.19207 0
M  V30 16153 H 1528.27 -1.64683 -3.82342 0
M  V30 16154 H 1528.81 -2.92124 -2.70016 0
M  V30 16155 H 1525.55 -5.91636 -2.82218 0
M  V30 16156 H 1525.07 -4.57168 -3.88275 0
M  V30 16157 H 1526.75 -5.16593 -3.89538 0
M  V30 16158 N 1526.88 0.906753 -1.28902 0
M  V30 16159 C 1528.1 1.69547 -1.19452 0
M  V30 16160 C 1528.53 1.86531 0.242418 0
M  V30 16161 O 1527.89 1.38052 1.17521 0
M  V30 16162 C 1527.93 3.06139 -1.90556 0
M  V30 16163 O 1527.04 3.9401 -1.21779 0
M  V30 16164 H 1526.38 0.518902 -0.41429 0
M  V30 16165 H 1528.91 1.13327 -1.70347 0
M  V30 16166 H 1528.92 3.56326 -1.98736 0
M  V30 16167 H 1527.59 2.93094 -2.95074 0
M  V30 16168 H 1526.17 3.52444 -1.2181 0
M  V30 16169 N 1528.36 1.11264 1.11616 0
M  V30 16170 C 1529.6 0.860364 1.83314 0
M  V30 16171 C 1529.93 -0.614011 1.84554 0
M  V30 16172 O 1529.19 -1.4692 1.29279 0
M  V30 16173 C 1529.48 1.36481 3.30315 0
M  V30 16174 C 1529.15 2.85209 3.49237 0
M  V30 16175 C 1527.81 3.25822 3.54109 0
M  V30 16176 C 1530.16 3.81009 3.55642 0
M  V30 16177 C 1527.49 4.60968 3.62941 0
M  V30 16178 C 1529.84 5.15968 3.66005 0
M  V30 16179 C 1528.51 5.56142 3.69137 0
M  V30 16180 H 1527.78 0.314829 0.670793 0
M  V30 16181 H 1530.43 1.39073 1.31647 0
M  V30 16182 H 1528.73 0.754639 3.84464 0
M  V30 16183 H 1530.43 1.14597 3.84276 0
M  V30 16184 H 1527.02 2.52791 3.46114 0
M  V30 16185 H 1531.2 3.50734 3.5114 0
M  V30 16186 H 1526.46 4.91503 3.63641 0
M  V30 16187 H 1530.63 5.90037 3.69904 0
M  V30 16188 H 1528.26 6.60855 3.75732 0
M  V30 16189 N 1529.83 -1.29188 0.902679 0
M  V30 16190 C 1531.08 -1.95438 0.530124 0
M  V30 16191 C 1531.41 -1.71142 -0.924149 0
M  V30 16192 O 1530.66 -1.01901 -1.67077 0
M  V30 16193 C 1530.96 -3.48951 0.772542 0
M  V30 16194 C 1530.63 -3.93328 2.20464 0
M  V30 16195 C 1529.29 -4.05155 2.59621 0
M  V30 16196 C 1531.64 -4.16216 3.13709 0
M  V30 16197 C 1528.97 -4.37242 3.91198 0
M  V30 16198 C 1531.32 -4.49779 4.44839 0
M  V30 16199 C 1529.99 -4.59817 4.83865 0
M  V30 16200 H 1529.26 -0.715158 0.193986 0
M  V30 16201 H 1531.9 -1.5373 1.1419 0
M  V30 16202 H 1530.21 -3.91723 0.0778683 0
M  V30 16203 H 1531.91 -3.98311 0.463623 0
M  V30 16204 H 1528.5 -3.84641 1.89075 0
M  V30 16205 H 1532.68 -4.06542 2.8467 0
M  V30 16206 H 1527.94 -4.43217 4.21152 0
M  V30 16207 H 1532.11 -4.66439 5.17115 0
M  V30 16208 H 1529.74 -4.84435 5.85856 0
M  V30 16209 N 1531.31 -0.665475 -1.42861 0
M  V30 16210 C 1532.22 0.018927 -2.34592 0
M  V30 16211 C 1533.24 0.798967 -1.54572 0
M  V30 16212 O 1534.41 0.743419 -1.87177 0
M  V30 16213 C 1531.48 0.965013 -3.32999 0
M  V30 16214 C 1530.54 0.180544 -4.2892 0
M  V30 16215 C 1529.77 1.08157 -5.22626 0
M  V30 16216 O 1530 2.32101 -5.21043 0
M  V30 16217 O 1528.93 0.54738 -5.99406 0
M  V30 16218 H 1532.76 -0.736444 -2.94636 0
M  V30 16219 H 1530.34 -0.425684 -1.43207 0
M  V30 16220 H 1532.22 1.50839 -3.93479 0
M  V30 16221 H 1530.9 1.7004 -2.75442 0
M  V30 16222 H 1529.8 -0.40671 -3.71883 0
M  V30 16223 H 1531.14 -0.515529 -4.89493 0
M  V30 16224 N 1532.79 1.52222 -0.408187 0
M  V30 16225 C 1534.21 1.59491 -0.0590201 0
M  V30 16226 C 1534.41 1.42109 1.42854 0
M  V30 16227 O 1533.46 1.24757 2.19527 0
M  V30 16228 C 1534.77 2.9557 -0.553093 0
M  V30 16229 C 1536.32 3.08801 -0.510986 0
M  V30 16230 C 1536.8 4.47358 -0.981554 0
M  V30 16231 N 1538.29 4.53596 -0.938335 0
M  V30 16232 C 1539.02 5.59076 -1.27364 0
M  V30 16233 N 1538.52 6.72113 -1.68035 0
M  V30 16234 N 1540.31 5.49279 -1.19367 0
M  V30 16235 H 1532.46 1.61768 -1.37641 0
M  V30 16236 H 1534.73 0.760959 -0.565372 0
M  V30 16237 H 1534.43 3.13566 -1.59276 0
M  V30 16238 H 1534.31 3.77181 0.0377629 0
M  V30 16239 H 1536.69 2.90489 0.519637 0
M  V30 16240 H 1536.77 2.29098 -1.13788 0
M  V30 16241 H 1536.42 4.66413 -2.0105 0
M  V30 16242 H 1536.35 5.25556 -0.331478 0
M  V30 16243 H 1538.84 3.72453 -0.639297 0
M  V30 16244 H 1539.15 7.48586 -1.91934 0
M  V30 16245 H 1537.5 6.73396 -1.71938 0
M  V30 16246 H 1540.69 4.59853 -0.8748 0
M  V30 16247 H 1540.86 6.31378 -1.45829 0
M  V30 16248 N 1534.27 0.138579 1.5699 0
M  V30 16249 C 1535.5 -0.521806 2.00212 0
M  V30 16250 C 1535.91 -1.58967 1.01857 0
M  V30 16251 O 1535.27 -1.82494 0.0143099 0
M  V30 16252 C 1535.32 -1.13014 3.4338 0
M  V30 16253 O 1535.04 -0.104938 4.37974 0
M  V30 16254 C 1536.54 -1.87195 4.01837 0
M  V30 16255 H 1533.76 -0.136564 0.656956 0
M  V30 16256 H 1536.3 0.230685 2.03195 0
M  V30 16257 H 1534.46 -1.8333 3.41275 0
M  V30 16258 H 1534.87 -0.54948 5.21614 0
M  V30 16259 H 1536.35 -2.25061 5.04035 0
M  V30 16260 H 1536.82 -2.75467 3.42074 0
M  V30 16261 H 1537.43 -1.21597 4.07547 0
M  V30 16262 N 1535.75 -1.57019 -0.13521 0
M  V30 16263 C 1537.16 -1.73319 -0.694067 0
M  V30 16264 C 1537.51 -0.754808 -1.811 0
M  V30 16265 O 1536.63 0.0759463 -2.16267 0
M  V30 16266 C 1537.23 -3.14266 -1.26579 0
M  V30 16267 C 1535.79 -3.32128 -1.7711 0
M  V30 16268 C 1534.93 -2.69226 -0.664263 0
M  V30 16269 H 1537.88 -1.58441 0.0905702 0
M  V30 16270 H 1537.91 -3.14919 -2.13557 0
M  V30 16271 H 1537.42 -3.85451 -0.452652 0
M  V30 16272 H 1535.52 -2.65959 -2.60953 0
M  V30 16273 H 1535.63 -4.40172 -1.8917 0
M  V30 16274 H 1534 -2.30016 -1.09384 0
M  V30 16275 H 1534.78 -3.43024 0.13763 0
M  V30 16276 N 1537.22 0.404919 -1.52309 0
M  V30 16277 C 1538.47 1.14859 -1.65802 0
M  V30 16278 C 1538.79 1.91546 -0.396174 0
M  V30 16279 O 1539.99 2.68372 -0.410969 0
M  V30 16280 C 1538.45 2.09068 -2.92948 0
M  V30 16281 C 1538.06 1.37878 -4.26255 0
M  V30 16282 C 1539.8 2.83669 -3.15804 0
M  V30 16283 C 1537.71 2.30761 -5.44521 0
M  V30 16284 H 1536.64 0.432463 -0.61765 0
M  V30 16285 H 1539.29 0.412695 -1.78799 0
M  V30 16286 H 1537.67 2.86228 -2.7366 0
M  V30 16287 H 1538.84 0.660543 -4.56041 0
M  V30 16288 H 1537.16 0.753026 -4.09534 0
M  V30 16289 H 1539.76 3.53313 -4.0134 0
M  V30 16290 H 1540.1 3.46855 -2.30212 0
M  V30 16291 H 1540.63 2.13607 -3.35584 0
M  V30 16292 H 1537.37 1.72214 -6.32473 0
M  V30 16293 H 1536.89 3.00546 -5.19069 0
M  V30 16294 H 1538.57 2.91195 -5.77767 0
M  V30 16295 N 1538.7 1.43003 0.662408 0
M  V30 16296 C 1539.95 1.43848 1.41958 0
M  V30 16297 C 1540.27 0.06046 1.94906 0
M  V30 16298 O 1539.54 -0.90287 1.73854 0
M  V30 16299 H 1538.12 0.529587 0.526827 0
M  V30 16300 H 1540.78 1.7853 0.781867 0
M  V30 16301 H 1539.88 2.14562 2.26649 0
M  V30 16302 N 1540.18 -0.899904 1.29381 0
M  V30 16303 C 1541.13 -1.9909 1.11119 0
M  V30 16304 C 1542.11 -1.60871 0.030676 0
M  V30 16305 O 1543.31 -1.75192 0.252365 0
M  V30 16306 C 1540.44 -3.34097 0.789552 0
M  V30 16307 C 1539.52 -3.78676 1.90959 0
M  V30 16308 N 1539.91 -3.95492 3.15309 0
M  V30 16309 C 1538.21 -4.0795 1.80258 0
M  V30 16310 C 1538.91 -4.33054 3.8838 0
M  V30 16311 N 1537.89 -4.42087 3.16322 0
M  V30 16312 H 1541.69 -2.1016 2.0545 0
M  V30 16313 H 1539.2 -1.08871 1.20503 0
M  V30 16314 H 1541.2 -4.11962 0.639765 0
M  V30 16315 H 1539.86 -3.24372 -0.14585 0
M  V30 16316 H 1540.87 -3.8103 3.50766 0
M  V30 16317 H 1537.55 -4.06783 0.939877 0
M  V30 16318 H 1538.94 -4.53912 4.95393 0
M  V30 16319 N 1541.66 -1.11854 -1.11024 0
M  V30 16320 C 1542.59 -0.803129 -2.19253 0
M  V30 16321 C 1543.57 0.230417 -1.68532 0
M  V30 16322 O 1544.75 0.0929421 -1.93977 0
M  V30 16323 C 1541.88 -0.250265 -3.46397 0
M  V30 16324 C 1540.84 -1.21617 -4.10357 0
M  V30 16325 C 1540.16 -0.523821 -5.32128 0
M  V30 16326 C 1541.46 -2.56852 -4.54779 0
M  V30 16327 H 1543.16 -1.7081 -2.45895 0
M  V30 16328 H 1540.7 -0.822712 -1.18184 0
M  V30 16329 H 1542.66 -0.0173732 -4.21396 0
M  V30 16330 H 1541.38 0.690018 -3.19228 0
M  V30 16331 H 1540.04 -1.43477 -3.37357 0
M  V30 16332 H 1539.69 0.421408 -5.01232 0
M  V30 16333 H 1539.39 -1.16809 -5.75873 0
M  V30 16334 H 1540.91 -0.299823 -6.09863 0
M  V30 16335 H 1542.33 -2.39056 -5.21081 0
M  V30 16336 H 1540.72 -3.17301 -5.09353 0
M  V30 16337 H 1541.79 -3.15751 -3.68007 0
M  V30 16338 N 1543.14 1.28707 -0.909517 0
M  V30 16339 C 1544.07 2.29845 -0.411552 0
M  V30 16340 C 1545.05 1.62001 0.518615 0
M  V30 16341 O 1546.23 1.89442 0.427252 0
M  V30 16342 C 1543.36 3.45501 0.353013 0
M  V30 16343 C 1542.32 4.25213 -0.487625 0
M  V30 16344 C 1541.64 5.33164 0.405026 0
M  V30 16345 C 1542.94 4.9237 -1.74268 0
M  V30 16346 H 1544.64 2.71746 -1.25676 0
M  V30 16347 H 1542.18 1.30639 -0.605759 0
M  V30 16348 H 1544.14 4.15338 0.712191 0
M  V30 16349 H 1542.86 3.02469 1.23209 0
M  V30 16350 H 1541.52 3.57098 -0.829265 0
M  V30 16351 H 1541.17 4.86375 1.28252 0
M  V30 16352 H 1540.87 5.87399 -0.153811 0
M  V30 16353 H 1542.39 6.0585 0.760179 0
M  V30 16354 H 1543.8 5.5459 -1.45266 0
M  V30 16355 H 1542.2 5.56581 -2.2436 0
M  V30 16356 H 1543.27 4.171 -2.47297 0
M  V30 16357 N 1544.61 0.673042 1.42506 0
M  V30 16358 C 1545.56 -0.0180603 2.32593 0
M  V30 16359 C 1546.56 -0.7924 1.49724 0
M  V30 16360 O 1547.76 -0.700563 1.65807 0
M  V30 16361 H 1544.14 -0.0246346 0.751596 0
M  V30 16362 H 1546.11 0.759153 2.88582 0
M  V30 16363 C 1544.86 -0.95676 3.34277 0
M  V30 16364 H 1544.18 -0.370341 3.98081 0
M  V30 16365 H 1545.62 -1.40905 3.99902 0
M  V30 16366 C 1544.08 -2.0623 2.66403 0
M  V30 16367 O 1544.61 -3.14853 2.4946 0
M  V30 16368 N 1542.82 -1.83351 2.25457 0
M  V30 16369 H 1542.36 -0.950141 2.39437 0
M  V30 16370 H 1542.32 -2.57511 1.80375 0
M  V30 16371 N 1546.09 -1.52004 0.416254 0
M  V30 16372 C 1547.51 -1.59457 0.0674775 0
M  V30 16373 C 1547.71 -1.42865 -1.42098 0
M  V30 16374 O 1546.76 -1.2592 -2.18862 0
M  V30 16375 C 1548.08 -2.95272 0.56876 0
M  V30 16376 C 1549.63 -3.08525 0.527356 0
M  V30 16377 C 1550.1 -4.46832 1.00526 0
M  V30 16378 N 1551.59 -4.53092 0.962377 0
M  V30 16379 C 1552.33 -5.58393 1.30327 0
M  V30 16380 N 1551.82 -6.71212 1.71597 0
M  V30 16381 N 1553.62 -5.48639 1.22278 0
M  V30 16382 H 1545.77 -1.61036 1.38496 0
M  V30 16383 H 1548.03 -0.75795 0.569399 0
M  V30 16384 H 1547.74 -3.12717 1.60937 0
M  V30 16385 H 1547.61 -3.77196 -0.0177595 0
M  V30 16386 H 1550 -2.9076 -0.504225 0
M  V30 16387 H 1550.08 -2.28491 1.15002 0
M  V30 16388 H 1549.72 -4.6534 2.03521 0
M  V30 16389 H 1549.65 -5.25373 0.359345 0
M  V30 16390 H 1552.14 -3.72109 0.65904 0
M  V30 16391 H 1552.46 -7.47558 1.95901 0
M  V30 16392 H 1550.8 -6.72475 1.75507 0
M  V30 16393 H 1553.99 -4.59383 0.899175 0
M  V30 16394 H 1554.16 -6.30596 1.49175 0
M  V30 16395 N 1547.57 -0.146903 -1.56914 0
M  V30 16396 C 1548.82 0.504234 -1.96122 0
M  V30 16397 C 1549.15 1.64879 -1.03175 0
M  V30 16398 O 1548.4 1.95605 -0.0609397 0
M  V30 16399 C 1548.7 1.05159 -3.41579 0
M  V30 16400 C 1548.37 0.0254845 -4.50893 0
M  V30 16401 C 1547.03 -0.256589 -4.80515 0
M  V30 16402 C 1549.38 -0.672284 -5.16846 0
M  V30 16403 C 1546.71 -1.24224 -5.73398 0
M  V30 16404 C 1549.06 -1.64675 -6.1079 0
M  V30 16405 C 1547.72 -1.93652 -6.38792 0
M  V30 16406 H 1546.99 0.184512 -0.71766 0
M  V30 16407 H 1549.64 -0.233712 -1.90069 0
M  V30 16408 H 1547.95 1.86687 -3.44464 0
M  V30 16409 H 1549.64 1.56398 -3.69244 0
M  V30 16410 H 1546.23 0.255517 -4.27838 0
M  V30 16411 H 1550.42 -0.467555 -4.94093 0
M  V30 16412 H 1545.67 -1.47319 -5.93386 0
M  V30 16413 H 1549.85 -2.19294 -6.60971 0
M  V30 16414 H 1547.47 -2.70179 -7.10568 0
M  V30 16415 N 1549.05 1.57088 0.126881 0
M  V30 16416 C 1550.27 1.88984 0.854389 0
M  V30 16417 C 1550.7 0.738037 1.73016 0
M  V30 16418 O 1550.06 -0.311728 1.786 0
M  V30 16419 C 1550.1 3.19584 1.67028 0
M  V30 16420 O 1549.21 3.04935 2.77648 0
M  V30 16421 H 1548.55 0.620354 0.236763 0
M  V30 16422 H 1551.08 2.04295 0.111647 0
M  V30 16423 H 1551.09 3.52109 2.06115 0
M  V30 16424 H 1549.76 4.03012 1.02732 0
M  V30 16425 H 1548.34 2.83861 2.41821 0
M  V30 16426 N 1550.53 -0.396836 1.52522 0
M  V30 16427 C 1551.47 -1.48427 1.76743 0
M  V30 16428 C 1552.44 -1.54481 0.610321 0
M  V30 16429 O 1553.63 -1.7086 0.849201 0
M  V30 16430 C 1550.77 -2.85744 1.93505 0
M  V30 16431 C 1549.88 -2.88904 3.21183 0
M  V30 16432 C 1549.02 -4.17598 3.28307 0
M  V30 16433 C 1548.06 -4.14779 4.50138 0
M  V30 16434 N 1547.19 -5.35065 4.54587 0
M  V30 16435 H 1552.03 -1.27075 2.69548 0
M  V30 16436 H 1549.57 -0.61661 1.33553 0
M  V30 16437 H 1551.53 -3.65474 2.01208 0
M  V30 16438 H 1550.16 -3.05564 1.04069 0
M  V30 16439 H 1549.21 -2.01592 3.22591 0
M  V30 16440 H 1550.52 -2.82688 4.10961 0
M  V30 16441 H 1549.68 -5.05727 3.35149 0
M  V30 16442 H 1548.41 -4.26526 2.36489 0
M  V30 16443 H 1547.42 -3.25039 4.4343 0
M  V30 16444 H 1548.64 -4.07481 5.43264 0
M  V30 16445 H 1546.59 -5.44638 3.65658 0
M  V30 16446 H 1546.51 -5.30894 5.38227 0
M  V30 16447 H 1547.78 -6.25114 4.65675 0
M  V30 16448 N 1552.01 -1.43353 -0.654814 0
M  V30 16449 C 1552.92 -1.50831 -1.79687 0
M  V30 16450 C 1553.93 -0.395518 -1.69445 0
M  V30 16451 O 1555.11 -0.649408 -1.90643 0
M  V30 16452 C 1552.17 -1.42735 -3.15955 0
M  V30 16453 C 1551.23 -2.64671 -3.38005 0
M  V30 16454 C 1550.47 -2.56952 -4.67773 0
M  V30 16455 O 1550.69 -1.61638 -5.47019 0
M  V30 16456 O 1549.62 -3.47425 -4.91507 0
M  V30 16457 H 1553.45 -2.47266 -1.76333 0
M  V30 16458 H 1551.03 -1.25336 -0.813095 0
M  V30 16459 H 1552.92 -1.40656 -3.97233 0
M  V30 16460 H 1551.59 -0.494334 -3.19903 0
M  V30 16461 H 1550.5 -2.72323 -2.56498 0
M  V30 16462 H 1551.83 -3.5694 -3.38903 0
M  V30 16463 N 1553.48 0.89303 -1.29857 0
M  V30 16464 C 1554.71 1.67744 -1.21119 0
M  V30 16465 C 1555.13 1.87428 0.227198 0
M  V30 16466 O 1554.48 1.41605 1.15128 0
M  V30 16467 C 1554.53 3.05827 -1.92749 0
M  V30 16468 O 1554.26 2.87036 -3.30971 0
M  V30 16469 C 1555.76 4.00248 -1.9057 0
M  V30 16470 H 1552.98 0.523699 -0.4195 0
M  V30 16471 H 1555.52 1.1163 -1.71344 0
M  V30 16472 H 1553.68 3.58696 -1.46342 0
M  V30 16473 H 1554.09 3.74578 -3.6714 0
M  V30 16474 H 1555.56 4.9453 -2.45242 0
M  V30 16475 H 1556.04 4.30237 -0.882753 0
M  V30 16476 H 1556.65 3.53312 -2.36751 0
M  V30 16477 N 1554.96 1.12442 1.10429 0
M  V30 16478 C 1556.24 0.791191 1.78884 0
M  V30 16479 C 1556.62 -0.719044 1.98477 0
M  V30 16480 O 1555.97 -1.65275 1.57786 0
M  V30 16481 C 1556.18 1.56632 3.11877 0
M  V30 16482 C 1557.52 1.75236 3.86752 0
M  V30 16483 O 1558.55 1.53145 3.21598 0
M  V30 16484 O 1557.41 2.12025 5.03694 0
M  V30 16485 H 1554.5 0.287788 0.775311 0
M  V30 16486 H 1557.05 1.22844 1.17078 0
M  V30 16487 H 1555.82 2.59317 2.93037 0
M  V30 16488 H 1555.44 1.12332 3.81402 0
M  V30 16489 N 1556.44 -1.28223 0.91633 0
M  V30 16490 C 1557.67 -1.98986 0.566772 0
M  V30 16491 C 1558.08 -1.68455 -0.852553 0
M  V30 16492 O 1557.44 -0.938734 -1.56506 0
M  V30 16493 C 1557.49 -3.53217 0.769423 0
M  V30 16494 O 1557.21 -3.82674 2.1329 0
M  V30 16495 C 1558.71 -4.41238 0.427043 0
M  V30 16496 H 1555.93 -0.63534 0.215834 0
M  V30 16497 H 1558.48 -1.63357 1.23024 0
M  V30 16498 H 1556.63 -3.87098 0.152915 0
M  V30 16499 H 1557.05 -4.77302 2.17448 0
M  V30 16500 H 1558.52 -5.48512 0.619594 0
M  V30 16501 H 1559 -4.34558 -0.63686 0
M  V30 16502 H 1559.6 -4.12858 1.0212 0
M  V30 16503 N 1557.92 -0.68059 -1.42147 0
M  V30 16504 C 1559.16 -0.205567 -2.01755 0
M  V30 16505 C 1559.5 1.18677 -1.53718 0
M  V30 16506 O 1558.77 1.79796 -0.741867 0
M  V30 16507 C 1559.05 -0.246615 -3.59255 0
M  V30 16508 C 1558.91 -1.67483 -4.17456 0
M  V30 16509 C 1560.23 0.40196 -4.38261 0
M  V30 16510 H 1557.35 -0.0761717 -0.733053 0
M  V30 16511 H 1559.99 -0.866473 -1.69092 0
M  V30 16512 H 1558.14 0.316127 -3.87212 0
M  V30 16513 H 1559.81 -2.29026 -4.00431 0
M  V30 16514 H 1558.05 -2.2137 -3.73065 0
M  V30 16515 H 1558.72 -1.65519 -5.266 0
M  V30 16516 H 1561.2 -0.077135 -4.16028 0
M  V30 16517 H 1560.08 0.342627 -5.4783 0
M  V30 16518 H 1560.34 1.48044 -4.16576 0
M  V30 16519 N 1559.4 1.51781 -0.424309 0
M  V30 16520 C 1560.67 1.94514 0.205791 0
M  V30 16521 C 1561.05 1.36219 1.61269 0
M  V30 16522 O 1560.4 0.544019 2.21929 0
M  V30 16523 C 1560.61 3.48445 0.196749 0
M  V30 16524 C 1561.96 4.22628 0.408702 0
M  V30 16525 O 1562.98 3.55133 0.275441 0
M  V30 16526 O 1561.84 5.42344 0.672698 0
M  V30 16527 H 1558.94 0.815576 0.136983 0
M  V30 16528 H 1561.48 1.6273 -0.481349 0
M  V30 16529 H 1560.25 3.83297 -0.787342 0
M  V30 16530 H 1559.88 3.86634 0.92735 0
M  V30 16531 N 1560.87 0.155222 1.56834 0
M  V30 16532 C 1562.12 -0.494557 1.96677 0
M  V30 16533 C 1562.45 -1.63973 1.04051 0
M  V30 16534 O 1561.73 -1.94316 0.0844791 0
M  V30 16535 C 1562.01 -0.992902 3.46141 0
M  V30 16536 C 1561.86 0.151335 4.49545 0
M  V30 16537 C 1563.18 -1.87197 3.98303 0
M  V30 16538 H 1560.3 -0.178298 0.715107 0
M  V30 16539 H 1562.94 0.23811 1.88502 0
M  V30 16540 H 1561.09 -1.61724 3.53239 0
M  V30 16541 H 1562.77 0.787945 4.54521 0
M  V30 16542 H 1561.01 0.809262 4.26185 0
M  V30 16543 H 1561.68 -0.23921 5.51481 0
M  V30 16544 H 1564.16 -1.34578 3.93736 0
M  V30 16545 H 1563.03 -2.18972 5.03331 0
M  V30 16546 H 1563.29 -2.81191 3.41151 0
M  V30 16547 N 1562.35 -1.57153 -0.118549 0
M  V30 16548 C 1563.63 -1.75846 -0.856587 0
M  V30 16549 C 1564.01 -0.730801 -1.98047 0
M  V30 16550 O 1563.36 0.245156 -2.27181 0
M  V30 16551 C 1563.57 -3.20864 -1.37286 0
M  V30 16552 C 1564.91 -3.83378 -1.82501 0
M  V30 16553 O 1565.94 -3.24469 -1.46964 0
M  V30 16554 O 1564.8 -4.86922 -2.48132 0
M  V30 16555 H 1561.89 -0.72002 -0.406817 0
M  V30 16556 H 1564.44 -1.69392 -0.102254 0
M  V30 16557 H 1563.21 -3.87177 -0.566531 0
M  V30 16558 H 1562.83 -3.31858 -2.18988 0
M  V30 16559 N 1563.83 0.388742 -1.5273 0
M  V30 16560 C 1565.08 1.13094 -1.67011 0
M  V30 16561 C 1565.39 1.91115 -0.416467 0
M  V30 16562 O 1566.6 2.67921 -0.43941 0
M  V30 16563 C 1565.05 2.0595 -2.95149 0
M  V30 16564 C 1564.66 1.3335 -4.27694 0
M  V30 16565 C 1566.41 2.80303 -3.18795 0
M  V30 16566 C 1564.31 2.24973 -5.46938 0
M  V30 16567 H 1563.24 0.425887 -0.622203 0
M  V30 16568 H 1565.89 0.393708 -1.79227 0
M  V30 16569 H 1564.28 2.83309 -2.7668 0
M  V30 16570 H 1565.45 0.612137 -4.56716 0
M  V30 16571 H 1563.76 0.709547 -4.1031 0
M  V30 16572 H 1566.36 3.49036 -4.05065 0
M  V30 16573 H 1566.7 3.44394 -2.33877 0
M  V30 16574 H 1567.24 2.10036 -3.37831 0
M  V30 16575 H 1563.98 1.65497 -6.34264 0
M  V30 16576 H 1563.5 2.95024 -5.22227 0
M  V30 16577 H 1565.18 2.8505 -5.80823 0
M  V30 16578 N 1565.31 1.43698 0.647203 0
M  V30 16579 C 1566.72 1.40586 1.22851 0
M  V30 16580 C 1567.07 0.112981 1.95874 0
M  V30 16581 O 1566.19 -0.787342 2.01569 0
M  V30 16582 C 1566.79 2.54672 2.23445 0
M  V30 16583 C 1565.35 2.54806 2.7704 0
M  V30 16584 C 1564.5 2.32076 1.51777 0
M  V30 16585 H 1567.45 1.52512 0.43885 0
M  V30 16586 H 1567.47 2.26505 3.05738 0
M  V30 16587 H 1566.98 3.48755 1.70269 0
M  V30 16588 H 1565.08 1.64619 3.34262 0
M  V30 16589 H 1565.19 3.52771 3.24175 0
M  V30 16590 H 1563.56 1.80858 1.79339 0
M  V30 16591 H 1564.34 3.28252 1.00527 0
M  V30 16592 N 1566.79 -0.886131 1.30328 0
M  V30 16593 C 1568.06 -1.61912 1.09744 0
M  V30 16594 C 1568.44 -2.08116 -0.353663 0
M  V30 16595 O 1567.79 -1.84725 -1.34495 0
M  V30 16596 C 1568 -2.78954 2.09727 0
M  V30 16597 C 1569.35 -3.49313 2.41382 0
M  V30 16598 O 1570.37 -2.89141 2.08028 0
M  V30 16599 O 1569.23 -4.57823 2.98431 0
M  V30 16600 H 1566.33 -0.71158 0.421406 0
M  V30 16601 H 1568.87 -0.933009 1.4175 0
M  V30 16602 H 1567.64 -2.42109 3.07407 0
M  V30 16603 H 1567.27 -3.55263 1.78532 0
M  V30 16604 N 1568.26 -1.13026 -1.09832 0
M  V30 16605 C 1569.21 -0.803817 -2.1635 0
M  V30 16606 C 1570.18 0.232226 -1.64469 0
M  V30 16607 O 1571.37 0.105403 -1.90509 0
M  V30 16608 C 1568.51 -0.271414 -3.44031 0
M  V30 16609 C 1567.62 -1.36602 -4.09834 0
M  V30 16610 C 1566.75 -0.792393 -5.25257 0
M  V30 16611 C 1565.79 -1.86569 -5.82974 0
M  V30 16612 N 1564.93 -1.31032 -6.89764 0
M  V30 16613 H 1569.77 -1.71624 -2.43617 0
M  V30 16614 H 1567.31 -0.856772 -1.19574 0
M  V30 16615 H 1569.27 0.0553638 -4.17163 0
M  V30 16616 H 1567.9 0.604154 -3.17096 0
M  V30 16617 H 1566.95 -1.80946 -3.34608 0
M  V30 16618 H 1568.26 -2.17737 -4.48767 0
M  V30 16619 H 1567.41 -0.416652 -6.05268 0
M  V30 16620 H 1566.15 0.0500894 -4.87674 0
M  V30 16621 H 1565.16 -2.25054 -5.01628 0
M  V30 16622 H 1566.38 -2.7115 -6.22619 0
M  V30 16623 H 1564.33 -0.489768 -6.54169 0
M  V30 16624 H 1564.25 -2.0582 -7.27444 0
M  V30 16625 H 1565.51 -0.962011 -7.73541 0
M  V30 16626 N 1569.74 1.27735 -0.923117 0
M  V30 16627 C 1570.67 2.29395 -0.435907 0
M  V30 16628 C 1571.65 1.62542 0.501403 0
M  V30 16629 O 1572.84 1.89884 0.407135 0
M  V30 16630 C 1569.97 3.45856 0.316348 0
M  V30 16631 C 1568.92 4.24672 -0.532697 0
M  V30 16632 C 1568.25 5.33563 0.348454 0
M  V30 16633 C 1569.55 4.90494 -1.79481 0
M  V30 16634 H 1571.24 2.70398 -1.28551 0
M  V30 16635 H 1568.79 1.29989 -0.619581 0
M  V30 16636 H 1570.74 4.1607 0.668098 0
M  V30 16637 H 1569.47 3.03758 1.19994 0
M  V30 16638 H 1568.12 3.56198 -0.867093 0
M  V30 16639 H 1567.77 4.87708 1.23086 0
M  V30 16640 H 1567.47 5.87202 -0.216104 0
M  V30 16641 H 1569 6.06622 0.695878 0
M  V30 16642 H 1570.41 5.53019 -1.5114 0
M  V30 16643 H 1568.81 5.5417 -2.30251 0
M  V30 16644 H 1569.88 4.14454 -2.51707 0
M  V30 16645 N 1571.22 0.688118 1.41784 0
M  V30 16646 C 1572.64 0.358943 1.55511 0
M  V30 16647 C 1572.84 -1.13469 1.66514 0
M  V30 16648 O 1571.89 -1.92039 1.63943 0
M  V30 16649 C 1573.21 1.10094 2.79821 0
M  V30 16650 C 1574.75 1.08456 2.93609 0
M  V30 16651 C 1575.23 1.80815 4.20797 0
M  V30 16652 N 1576.72 1.77748 4.27738 0
M  V30 16653 C 1577.45 2.30581 5.24995 0
M  V30 16654 N 1576.95 2.91854 6.28326 0
M  V30 16655 N 1578.74 2.2088 5.16884 0
M  V30 16656 H 1570.89 1.65695 1.32886 0
M  V30 16657 H 1573.16 0.698818 0.640592 0
M  V30 16658 H 1572.86 2.15589 2.77874 0
M  V30 16659 H 1572.74 0.674713 3.71117 0
M  V30 16660 H 1575.12 0.0378955 2.95076 0
M  V30 16661 H 1575.21 1.54978 2.03508 0
M  V30 16662 H 1574.85 2.85457 4.20092 0
M  V30 16663 H 1574.78 1.31732 5.09857 0
M  V30 16664 H 1577.27 1.33069 3.53696 0
M  V30 16665 H 1577.58 3.29755 6.98915 0
M  V30 16666 H 1575.93 2.95929 6.28849 0
M  V30 16667 H 1579.12 1.72689 4.35082 0
M  V30 16668 H 1579.29 2.62359 5.92513 0
M  V30 16669 N 1572.7 -1.51554 0.432352 0
M  V30 16670 C 1573.92 -2.06947 -0.136995 0
M  V30 16671 C 1574.35 -1.29817 -1.36122 0
M  V30 16672 O 1573.71 -0.334733 -1.78183 0
M  V30 16673 C 1573.75 -3.57871 -0.442785 0
M  V30 16674 O 1572.86 -3.82966 -1.53007 0
M  V30 16675 H 1572.2 -0.663988 -0.00405152 0
M  V30 16676 H 1574.73 -1.95225 0.612249 0
M  V30 16677 H 1574.74 -4.02042 -0.694694 0
M  V30 16678 H 1573.41 -4.13436 0.452013 0
M  V30 16679 H 1571.99 -3.50661 -1.26851 0
M  V30 16680 N 1574.18 -0.163538 -1.56749 0
M  V30 16681 C 1575.11 0.765571 -2.20593 0
M  V30 16682 C 1576.09 1.24489 -1.15916 0
M  V30 16683 O 1577.27 1.29946 -1.44318 0
M  V30 16684 C 1574.4 1.99823 -2.84057 0
M  V30 16685 C 1573.36 1.65506 -3.94705 0
M  V30 16686 C 1572.68 2.96172 -4.45181 0
M  V30 16687 C 1573.98 0.88902 -5.14678 0
M  V30 16688 H 1575.68 0.233431 -2.98489 0
M  V30 16689 H 1573.22 0.110836 -1.43573 0
M  V30 16690 H 1575.18 2.65316 -3.27392 0
M  V30 16691 H 1573.9 2.55437 -2.03517 0
M  V30 16692 H 1572.56 1.02384 -3.52013 0
M  V30 16693 H 1572.21 3.49811 -3.61443 0
M  V30 16694 H 1571.91 2.73968 -5.19823 0
M  V30 16695 H 1573.43 3.62708 -4.91198 0
M  V30 16696 H 1574.84 1.44637 -5.54755 0
M  V30 16697 H 1573.24 0.766302 -5.95187 0
M  V30 16698 H 1574.31 -0.116145 -4.84761 0
M  V30 16699 N 1575.65 1.57214 0.110213 0
M  V30 16700 C 1576.58 2.04015 1.13579 0
M  V30 16701 C 1577.57 0.926215 1.42672 0
M  V30 16702 O 1578.75 1.19651 1.52962 0
M  V30 16703 C 1575.88 2.45187 2.45969 0
M  V30 16704 C 1574.83 3.60105 2.31319 0
M  V30 16705 C 1574.16 3.87205 3.68749 0
M  V30 16706 C 1575.46 4.91526 1.76635 0
M  V30 16707 H 1577.15 2.89944 0.746496 0
M  V30 16708 H 1574.7 1.39488 0.357642 0
M  V30 16709 H 1576.65 2.76534 3.17973 0
M  V30 16710 H 1575.38 1.56238 2.86805 0
M  V30 16711 H 1574.04 3.28981 1.61762 0
M  V30 16712 H 1573.68 2.95448 4.07087 0
M  V30 16713 H 1573.38 4.64563 3.59798 0
M  V30 16714 H 1574.91 4.21013 4.42245 0
M  V30 16715 H 1576.32 5.21351 2.38465 0
M  V30 16716 H 1574.72 5.72944 1.78482 0
M  V30 16717 H 1575.79 4.79456 0.724573 0
M  V30 16718 N 1577.13 -0.380637 1.52934 0
M  V30 16719 C 1578.07 -1.48737 1.73068 0
M  V30 16720 C 1579.04 -1.51954 0.578673 0
M  V30 16721 O 1580.23 -1.70234 0.809479 0
M  V30 16722 C 1577.35 -2.8717 1.79587 0
M  V30 16723 C 1576.4 -3.01742 3.0142 0
M  V30 16724 S 1577.23 -2.72067 4.61237 0
M  V30 16725 C 1578.39 -4.12677 4.70583 0
M  V30 16726 H 1578.62 -1.31435 2.66669 0
M  V30 16727 H 1576.16 -0.574038 1.43332 0
M  V30 16728 H 1578.11 -3.66939 1.84028 0
M  V30 16729 H 1576.77 -3.01792 0.87064 0
M  V30 16730 H 1575.97 -4.0309 3.02546 0
M  V30 16731 H 1575.57 -2.29876 2.95013 0
M  V30 16732 H 1577.86 -5.0672 4.49712 0
M  V30 16733 H 1578.8 -4.16563 5.72609 0
M  V30 16734 H 1579.21 -3.98976 3.99348 0
M  V30 16735 N 1578.61 -1.44039 -0.639573 0
M  V30 16736 C 1579.84 -1.49626 -1.42462 0
M  V30 16737 C 1580.25 -0.117078 -1.88837 0
M  V30 16738 O 1579.59 0.885666 -1.6094 0
M  V30 16739 C 1579.65 -2.39182 -2.68388 0
M  V30 16740 C 1579.32 -3.86496 -2.43865 0
M  V30 16741 C 1580.31 -4.7725 -2.06224 0
M  V30 16742 C 1578 -4.31117 -2.57766 0
M  V30 16743 C 1579.99 -6.10625 -1.82801 0
M  V30 16744 C 1577.68 -5.64541 -2.33958 0
M  V30 16745 C 1578.68 -6.54113 -1.96533 0
M  V30 16746 O 1578.37 -7.85068 -1.72983 0
M  V30 16747 H 1578.1 -0.510054 -0.443645 0
M  V30 16748 H 1580.65 -1.89593 -0.790162 0
M  V30 16749 H 1578.88 -1.94127 -3.34442 0
M  V30 16750 H 1580.57 -2.35816 -3.30372 0
M  V30 16751 H 1581.34 -4.44051 -1.95048 0
M  V30 16752 H 1577.22 -3.61663 -2.85868 0
M  V30 16753 H 1580.76 -6.80499 -1.53514 0
M  V30 16754 H 1576.66 -5.97304 -2.44741 0
M  V30 16755 H 1577.43 -7.96782 -1.87298 0
M  V30 16756 N 1580.09 0.879207 -1.30796 0
M  V30 16757 C 1581.05 1.96707 -1.17639 0
M  V30 16758 C 1582.05 1.6045 -0.106013 0
M  V30 16759 O 1583.24 1.70553 -0.354573 0
M  V30 16760 C 1580.37 3.31292 -0.803625 0
M  V30 16761 H 1581.57 2.09806 -2.14293 0
M  V30 16762 H 1579.12 1.06634 -1.14276 0
M  V30 16763 H 1579.85 3.23894 0.162159 0
M  V30 16764 H 1579.64 3.58979 -1.57723 0
M  V30 16765 H 1581.13 4.11077 -0.735201 0
M  V30 16766 N 1581.57 1.13606 1.09231 0
M  V30 16767 C 1582.81 0.899054 1.81448 0
M  V30 16768 C 1583.14 -0.574726 1.85815 0
M  V30 16769 O 1582.4 -1.44144 1.32366 0
M  V30 16770 C 1582.7 1.43456 3.27345 0
M  V30 16771 C 1582.36 2.92553 3.43109 0
M  V30 16772 C 1581.02 3.3326 3.47118 0
M  V30 16773 C 1583.38 3.88467 3.47481 0
M  V30 16774 C 1580.7 4.68562 3.53081 0
M  V30 16775 C 1583.06 5.23616 3.54978 0
M  V30 16776 C 1581.72 5.63847 3.57257 0
M  V30 16777 H 1580.99 0.328987 0.663964 0
M  V30 16778 H 1583.64 1.41834 1.28668 0
M  V30 16779 H 1581.94 0.83602 3.82777 0
M  V30 16780 H 1583.64 1.22723 3.81759 0
M  V30 16781 H 1580.23 2.60076 3.40674 0
M  V30 16782 H 1584.41 3.58103 3.43622 0
M  V30 16783 H 1579.67 4.99106 3.53134 0
M  V30 16784 H 1583.84 5.9775 3.57306 0
M  V30 16785 H 1581.47 6.68676 3.6163 0
M  V30 16786 N 1583.05 -1.27244 0.929878 0
M  V30 16787 C 1584.29 -1.93886 0.570331 0
M  V30 16788 C 1584.61 -1.7342 -0.891656 0
M  V30 16789 O 1583.88 -1.0832 -1.63228 0
M  V30 16790 H 1582.46 -0.717476 0.207937 0
M  V30 16791 H 1585.13 -1.5491 1.18275 0
M  V30 16792 H 1584.22 -3.02236 0.778463 0
M  V30 16793 N 1584.52 -0.695628 -1.41417 0
M  V30 16794 C 1585.45 -0.0447013 -2.33457 0
M  V30 16795 C 1586.43 0.767104 -1.51821 0
M  V30 16796 O 1587.62 0.720066 -1.80357 0
M  V30 16797 C 1584.75 0.892353 -3.3564 0
M  V30 16798 C 1583.7 0.187638 -4.27588 0
M  V30 16799 C 1583.03 1.23906 -5.20146 0
M  V30 16800 C 1584.33 -0.946093 -5.1366 0
M  V30 16801 H 1586.02 -0.81343 -2.88138 0
M  V30 16802 H 1583.57 -0.392614 -1.38544 0
M  V30 16803 H 1585.52 1.35696 -3.98954 0
M  V30 16804 H 1584.25 1.69275 -2.79309 0
M  V30 16805 H 1582.91 -0.256942 -3.65698 0
M  V30 16806 H 1582.55 2.03198 -4.6013 0
M  V30 16807 H 1582.25 0.772536 -5.82499 0
M  V30 16808 H 1583.78 1.70417 -5.86336 0
M  V30 16809 H 1585.19 -0.561764 -5.70541 0
M  V30 16810 H 1583.59 -1.33971 -5.84954 0
M  V30 16811 H 1584.66 -1.78573 -4.50821 0
M  V30 16812 N 1586 1.51322 -0.440383 0
M  V30 16813 C 1586.93 2.30708 0.360013 0
M  V30 16814 C 1587.91 1.36254 1.01828 0
M  V30 16815 O 1589.1 1.65174 1.02134 0
M  V30 16816 C 1586.23 3.15132 1.45977 0
M  V30 16817 C 1585.18 4.17889 0.924825 0
M  V30 16818 C 1584.51 4.90853 2.12056 0
M  V30 16819 C 1585.81 5.22282 -0.0428362 0
M  V30 16820 H 1587.5 2.97868 -0.30248 0
M  V30 16821 H 1585.05 1.43249 -0.146914 0
M  V30 16822 H 1587 3.69449 2.02695 0
M  V30 16823 H 1585.72 2.45798 2.1506 0
M  V30 16824 H 1584.38 3.64627 0.379842 0
M  V30 16825 H 1584.03 4.1802 2.79765 0
M  V30 16826 H 1583.73 5.60339 1.769 0
M  V30 16827 H 1585.26 5.47995 2.69322 0
M  V30 16828 H 1586.67 5.71654 0.434137 0
M  V30 16829 H 1585.07 5.99314 -0.307126 0
M  V30 16830 H 1586.14 4.74923 -0.978557 0
M  V30 16831 N 1587.48 0.171848 1.5666 0
M  V30 16832 C 1588.39 -0.770721 2.21579 0
M  V30 16833 C 1589.41 -1.25273 1.20759 0
M  V30 16834 O 1590.58 -1.30474 1.53422 0
M  V30 16835 C 1587.65 -1.98256 2.84422 0
M  V30 16836 C 1586.71 -1.54738 4.00443 0
M  V30 16837 C 1585.94 -2.70145 4.6028 0
M  V30 16838 O 1586.16 -3.87026 4.19007 0
M  V30 16839 O 1585.1 -2.44189 5.50141 0
M  V30 16840 H 1588.92 -0.247974 3.02686 0
M  V30 16841 H 1586.51 -0.0563734 1.49294 0
M  V30 16842 H 1588.39 -2.69127 3.24266 0
M  V30 16843 H 1587.07 -2.49435 2.0631 0
M  V30 16844 H 1585.97 -0.808152 3.65267 0
M  V30 16845 H 1587.31 -1.08249 4.80149 0
M  V30 16846 N 1588.96 -1.5727 -0.101874 0
M  V30 16847 C 1590.2 -1.86017 -0.807795 0
M  V30 16848 C 1590.54 -0.760024 -1.7871 0
M  V30 16849 O 1589.81 0.232627 -1.93104 0
M  V30 16850 C 1590.09 -3.25388 -1.54255 0
M  V30 16851 C 1589.95 -4.46023 -0.581693 0
M  V30 16852 C 1591.27 -3.62561 -2.49474 0
M  V30 16853 H 1588.39 -0.676596 -0.29221 0
M  V30 16854 H 1591.03 -1.89865 -0.0715861 0
M  V30 16855 H 1589.18 -3.22239 -2.17013 0
M  V30 16856 H 1590.85 -4.61284 0.0383529 0
M  V30 16857 H 1589.09 -4.33672 0.105465 0
M  V30 16858 H 1589.76 -5.40251 -1.1328 0
M  V30 16859 H 1592.24 -3.66611 -1.96813 0
M  V30 16860 H 1591.12 -4.61025 -2.97905 0
M  V30 16861 H 1591.38 -2.90885 -3.32924 0
M  V30 16862 N 1590.44 0.372521 -1.53134 0
M  V30 16863 C 1591.66 1.14116 -1.73183 0
M  V30 16864 C 1592.09 1.82475 -0.456553 0
M  V30 16865 O 1591.44 1.71468 0.588919 0
M  V30 16866 C 1591.49 2.15241 -2.89316 0
M  V30 16867 O 1590.6 3.22178 -2.57439 0
M  V30 16868 H 1589.94 0.331442 -0.575362 0
M  V30 16869 H 1592.47 0.431769 -1.99992 0
M  V30 16870 H 1592.48 2.58961 -3.15283 0
M  V30 16871 H 1591.15 1.64877 -3.81822 0
M  V30 16872 H 1589.73 2.83481 -2.42267 0
M  V30 16873 N 1591.91 1.44376 0.631925 0
M  V30 16874 C 1592.84 1.54005 1.75512 0
M  V30 16875 C 1593.82 0.393126 1.65495 0
M  V30 16876 O 1595.01 0.613143 1.84267 0
M  V30 16877 C 1592.14 1.48313 3.14039 0
M  V30 16878 C 1591.09 2.61474 3.38844 0
M  V30 16879 C 1590.42 2.40834 4.77392 0
M  V30 16880 C 1591.72 4.03627 3.31485 0
M  V30 16881 H 1593.41 2.48019 1.6771 0
M  V30 16882 H 1590.96 1.19368 0.80543 0
M  V30 16883 H 1592.91 1.5365 3.9239 0
M  V30 16884 H 1591.64 0.508152 3.22623 0
M  V30 16885 H 1590.3 2.55525 2.62874 0
M  V30 16886 H 1589.94 1.4153 4.82678 0
M  V30 16887 H 1589.64 3.16703 4.94947 0
M  V30 16888 H 1591.17 2.47988 5.57974 0
M  V30 16889 H 1592.58 4.1095 3.99741 0
M  V30 16890 H 1590.98 4.79694 3.60574 0
M  V30 16891 H 1592.05 4.27255 2.29307 0
M  V30 16892 N 1593.39 -0.872258 1.31261 0
M  V30 16893 C 1594.64 -1.62752 1.20994 0
M  V30 16894 C 1594.97 -1.9281 -0.231942 0
M  V30 16895 O 1594.25 -1.55808 -1.16423 0
M  V30 16896 C 1594.53 -2.95921 2.0519 0
M  V30 16897 C 1594.38 -2.72756 3.57665 0
M  V30 16898 C 1595.7 -3.96996 1.89953 0
M  V30 16899 H 1592.82 -0.590581 0.440889 0
M  V30 16900 H 1595.46 -1.00848 1.61027 0
M  V30 16901 H 1593.61 -3.48756 1.71177 0
M  V30 16902 H 1595.28 -2.26611 4.01803 0
M  V30 16903 H 1593.53 -2.07029 3.81211 0
M  V30 16904 H 1594.2 -3.67502 4.11882 0
M  V30 16905 H 1596.67 -3.53363 2.19713 0
M  V30 16906 H 1595.55 -4.88063 2.51169 0
M  V30 16907 H 1595.81 -4.33611 0.862191 0
M  V30 16908 N 1594.87 -1.14184 -1.08627 0
M  V30 16909 C 1596.12 -0.91001 -1.81236 0
M  V30 16910 C 1596.45 0.562134 -1.85886 0
M  V30 16911 O 1595.72 1.41631 -1.33307 0
M  V30 16912 C 1596.01 -1.50879 -3.26967 0
M  V30 16913 C 1595.86 -3.05063 -3.3054 0
M  V30 16914 C 1597.18 -1.18379 -4.2388 0
M  V30 16915 H 1594.3 -0.332025 -0.657973 0
M  V30 16916 H 1596.94 -1.41144 -1.27194 0
M  V30 16917 H 1595.09 -1.08236 -3.73118 0
M  V30 16918 H 1596.76 -3.5652 -2.9273 0
M  V30 16919 H 1595 -3.39628 -2.6988 0
M  V30 16920 H 1595.68 -3.42064 -4.33239 0
M  V30 16921 H 1598.15 -1.55242 -3.86056 0
M  V30 16922 H 1597.03 -1.62911 -5.24167 0
M  V30 16923 H 1597.29 -0.0987385 -4.4199 0
M  V30 16924 N 1596.35 1.26749 -0.936613 0
M  V30 16925 C 1597.31 2.24794 -0.447243 0
M  V30 16926 C 1598.31 1.54688 0.439135 0
M  V30 16927 O 1599.5 1.72553 0.238957 0
M  V30 16928 C 1596.63 3.39036 0.355958 0
M  V30 16929 H 1597.83 2.696 -1.31361 0
M  V30 16930 H 1595.38 1.38825 -0.718143 0
M  V30 16931 H 1596.11 2.99625 1.24077 0
M  V30 16932 H 1595.9 3.91101 -0.279691 0
M  V30 16933 H 1597.39 4.11887 0.688421 0
M  V30 16934 N 1597.83 0.703118 1.41046 0
M  V30 16935 C 1599.07 0.237638 2.01403 0
M  V30 16936 C 1599.41 -1.16217 1.55587 0
M  V30 16937 O 1598.68 -1.78593 0.770377 0
M  V30 16938 C 1598.96 0.303738 3.58817 0
M  V30 16939 C 1598.82 1.74103 4.14739 0
M  V30 16940 C 1600.14 -0.332186 4.38845 0
M  V30 16941 H 1597.25 0.0878243 0.731749 0
M  V30 16942 H 1599.9 0.893264 1.67693 0
M  V30 16943 H 1598.05 -0.254485 3.87666 0
M  V30 16944 H 1599.72 2.35368 3.96736 0
M  V30 16945 H 1597.96 2.27277 3.69496 0
M  V30 16946 H 1598.63 1.73876 5.239 0
M  V30 16947 H 1601.11 0.143312 4.15853 0
M  V30 16948 H 1599.98 -0.255429 5.48305 0
M  V30 16949 H 1600.25 -1.41397 4.18878 0
M  V30 16950 N 1599.3 -1.51086 0.448402 0
M  V30 16951 C 1600.27 -2.26575 -0.3459 0
M  V30 16952 C 1601.27 -1.3045 -0.940178 0
M  V30 16953 O 1602.46 -1.5407 -0.812898 0
M  V30 16954 C 1599.59 -3.06591 -1.49045 0
M  V30 16955 H 1600.78 -2.98232 0.315822 0
M  V30 16956 H 1598.34 -1.54991 0.201851 0
M  V30 16957 H 1599.07 -2.39377 -2.1879 0
M  V30 16958 H 1598.86 -3.77207 -1.07038 0
M  V30 16959 H 1600.35 -3.63743 -2.05135 0
M  V30 16960 N 1600.78 -0.180154 -1.56567 0
M  V30 16961 C 1602.01 0.46854 -2.01525 0
M  V30 16962 C 1602.43 1.56211 -1.06036 0
M  V30 16963 O 1601.78 1.82392 -0.06269 0
M  V30 16964 C 1601.83 1.0387 -3.46256 0
M  V30 16965 O 1601.55 -0.0112203 -4.38099 0
M  V30 16966 C 1603.06 1.76475 -4.06659 0
M  V30 16967 H 1600.28 0.119098 -0.660346 0
M  V30 16968 H 1602.82 -0.284477 -2.02512 0
M  V30 16969 H 1600.97 1.74217 -3.46016 0
M  V30 16970 H 1601.39 0.41099 -5.22887 0
M  V30 16971 H 1602.86 2.11618 -5.09825 0
M  V30 16972 H 1603.34 2.66301 -3.49257 0
M  V30 16973 H 1603.95 1.10749 -4.10627 0
M  V30 16974 N 1602.26 1.57322 0.0935319 0
M  V30 16975 C 1603.67 1.75099 0.64787 0
M  V30 16976 C 1604.02 0.802558 1.79035 0
M  V30 16977 O 1603.15 -0.0185803 2.16392 0
M  V30 16978 C 1603.74 3.17512 1.18203 0
M  V30 16979 C 1602.3 3.36707 1.68242 0
M  V30 16980 C 1601.45 2.70893 0.592649 0
M  V30 16981 H 1604.4 1.58146 -0.132546 0
M  V30 16982 H 1604.42 3.2047 2.05132 0
M  V30 16983 H 1603.93 3.86516 0.350297 0
M  V30 16984 H 1602.03 2.72784 2.5381 0
M  V30 16985 H 1602.15 4.45033 1.77433 0
M  V30 16986 H 1600.51 2.32835 1.03248 0
M  V30 16987 H 1601.29 3.42539 -0.228529 0
M  V30 16988 N 1603.74 -0.364395 1.53329 0
M  V30 16989 C 1604.67 -1.45243 1.8283 0
M  V30 16990 C 1605.65 -1.55834 0.681886 0
M  V30 16991 O 1606.83 -1.70383 0.931845 0
M  V30 16992 C 1603.96 -2.82565 2.01926 0
M  V30 16993 C 1602.92 -2.86797 3.17697 0
M  V30 16994 C 1602.24 -4.26806 3.22089 0
M  V30 16995 C 1603.54 -2.54212 4.56261 0
M  V30 16996 H 1605.24 -1.20804 2.73946 0
M  V30 16997 H 1602.78 -0.579705 1.31816 0
M  V30 16998 H 1604.74 -3.58709 2.21147 0
M  V30 16999 H 1603.46 -3.08394 1.07521 0
M  V30 17000 H 1602.12 -2.13105 2.98298 0
M  V30 17001 H 1601.77 -4.49712 2.25318 0
M  V30 17002 H 1601.47 -4.30553 3.99873 0
M  V30 17003 H 1602.99 -5.04821 3.43495 0
M  V30 17004 H 1604.41 -3.20069 4.75635 0
M  V30 17005 H 1602.8 -2.69273 5.36295 0
M  V30 17006 H 1603.87 -1.49458 4.61292 0
M  V30 17007 N 1605.22 -1.44709 -0.62426 0
M  V30 17008 C 1606.18 -1.51738 -1.7178 0
M  V30 17009 C 1607.18 -0.398646 -1.5578 0
M  V30 17010 O 1608.37 -0.661525 -1.61151 0
M  V30 17011 C 1605.5 -1.39792 -3.1092 0
M  V30 17012 H 1606.69 -2.49154 -1.6692 0
M  V30 17013 H 1604.25 -1.31903 -0.838531 0
M  V30 17014 H 1604.98 -0.434955 -3.2137 0
M  V30 17015 H 1604.77 -2.20919 -3.2394 0
M  V30 17016 H 1606.26 -1.47706 -3.90606 0
M  V30 17017 N 1606.69 0.865285 -1.31722 0
M  V30 17018 C 1607.92 1.65137 -1.24649 0
M  V30 17019 C 1608.34 1.87868 0.187391 0
M  V30 17020 O 1607.69 1.44015 1.12098 0
M  V30 17021 C 1607.75 3.0167 -1.99193 0
M  V30 17022 O 1607.47 2.79951 -3.36985 0
M  V30 17023 C 1608.97 3.96115 -1.99017 0
M  V30 17024 H 1606.19 0.514683 -0.430514 0
M  V30 17025 H 1608.73 1.07971 -1.73674 0
M  V30 17026 H 1606.89 3.55511 -1.53918 0
M  V30 17027 H 1607.3 3.66706 -3.75002 0
M  V30 17028 H 1608.77 4.89217 -2.55677 0
M  V30 17029 H 1609.25 4.28268 -0.973815 0
M  V30 17030 H 1609.86 3.4821 -2.44192 0
M  V30 17031 N 1608.17 1.14759 1.0802 0
M  V30 17032 C 1609.42 0.919609 1.80751 0
M  V30 17033 C 1609.75 -0.552268 1.86182 0
M  V30 17034 O 1609.03 -1.40922 1.34057 0
M  V30 17035 C 1609.31 1.52611 3.26162 0
M  V30 17036 C 1609.16 3.06811 3.28918 0
M  V30 17037 C 1610.48 1.20625 4.23246 0
M  V30 17038 H 1607.6 0.33551 0.656203 0
M  V30 17039 H 1610.24 1.41816 1.26444 0
M  V30 17040 H 1608.39 1.10213 3.72539 0
M  V30 17041 H 1610.06 3.58068 2.90835 0
M  V30 17042 H 1608.31 3.41055 2.68075 0
M  V30 17043 H 1608.98 3.44357 4.31419 0
M  V30 17044 H 1611.45 1.57287 3.85227 0
M  V30 17045 H 1610.33 1.65689 5.23296 0
M  V30 17046 H 1610.59 0.122177 4.41931 0
M  V30 17047 N 1609.65 -1.26251 0.943322 0
M  V30 17048 C 1610.61 -2.24554 0.459158 0
M  V30 17049 C 1611.61 -1.54918 -0.430926 0
M  V30 17050 O 1612.8 -1.72678 -0.229803 0
M  V30 17051 C 1609.94 -3.39221 -0.337973 0
M  V30 17052 H 1611.13 -2.689 1.32789 0
M  V30 17053 H 1608.68 -1.38442 0.725495 0
M  V30 17054 H 1609.42 -3.00279 -1.22486 0
M  V30 17055 H 1609.2 -3.90947 0.300428 0
M  V30 17056 H 1610.69 -4.12246 -0.666568 0
M  V30 17057 N 1611.13 -0.710588 -1.40671 0
M  V30 17058 C 1612.38 -0.244967 -2.00207 0
M  V30 17059 C 1612.69 1.16693 -1.56978 0
M  V30 17060 O 1613.9 1.73081 -2.09177 0
M  V30 17061 C 1612.35 -0.387049 -3.57813 0
M  V30 17062 C 1611.96 -1.80527 -4.10017 0
M  V30 17063 C 1613.71 0.0180338 -4.24496 0
M  V30 17064 C 1611.61 -1.89821 -5.60109 0
M  V30 17065 H 1610.54 -0.087831 -0.748867 0
M  V30 17066 H 1613.19 -0.880956 -1.6097 0
M  V30 17067 H 1611.58 0.317442 -3.94726 0
M  V30 17068 H 1612.75 -2.53974 -3.84492 0
M  V30 17069 H 1611.06 -2.16137 -3.55913 0
M  V30 17070 H 1613.66 -0.0307544 -5.34691 0
M  V30 17071 H 1614 1.05915 -4.02601 0
M  V30 17072 H 1614.54 -0.63672 -3.92671 0
M  V30 17073 H 1611.28 -2.92036 -5.86852 0
M  V30 17074 H 1610.8 -1.20779 -5.87514 0
M  V30 17075 H 1612.48 -1.66801 -6.25129 0
M  V30 17076 N 1612.61 1.50847 -0.456408 0
M  V30 17077 C 1613.54 2.31077 0.335523 0
M  V30 17078 C 1614.52 1.37326 1.00377 0
M  V30 17079 O 1615.7 1.66247 1.00376 0
M  V30 17080 C 1612.83 3.16662 1.42627 0
M  V30 17081 C 1611.79 4.18846 0.88045 0
M  V30 17082 C 1611.11 4.93074 2.06838 0
M  V30 17083 C 1612.41 5.22208 -0.0982288 0
M  V30 17084 H 1614.11 2.97531 -0.334056 0
M  V30 17085 H 1611.65 1.43085 -0.162099 0
M  V30 17086 H 1613.61 3.71578 1.98765 0
M  V30 17087 H 1612.33 2.48066 2.12441 0
M  V30 17088 H 1610.99 3.65009 0.341147 0
M  V30 17089 H 1610.64 4.20963 2.75316 0
M  V30 17090 H 1610.34 5.62184 1.70947 0
M  V30 17091 H 1611.86 5.5082 2.63494 0
M  V30 17092 H 1613.28 5.72082 0.373481 0
M  V30 17093 H 1611.67 5.98954 -0.370674 0
M  V30 17094 H 1612.74 4.73859 -1.02887 0
M  V30 17095 N 1614.09 0.188454 1.56469 0
M  V30 17096 C 1615.5 -0.325309 1.83844 0
M  V30 17097 C 1615.85 -1.61858 1.1089 0
M  V30 17098 O 1614.97 -2.13256 0.36752 0
M  V30 17099 C 1615.57 -0.597002 3.33499 0
M  V30 17100 C 1614.13 -1.05515 3.61308 0
M  V30 17101 C 1613.27 -0.100182 2.77119 0
M  V30 17102 H 1616.22 0.412378 1.53249 0
M  V30 17103 H 1616.25 -1.44709 3.51908 0
M  V30 17104 H 1615.76 0.344429 3.86569 0
M  V30 17105 H 1613.86 -2.01109 3.13665 0
M  V30 17106 H 1613.97 -0.952461 4.69537 0
M  V30 17107 H 1612.34 -0.600815 2.47512 0
M  V30 17108 H 1613.12 0.835574 3.32976 0
M  V30 17109 N 1615.56 -1.5737 -0.0851874 0
M  V30 17110 C 1616.49 -2.05796 -1.10319 0
M  V30 17111 C 1617.47 -0.948796 -1.4118 0
M  V30 17112 O 1618.66 -1.22069 -1.51039 0
M  V30 17113 C 1615.79 -2.49069 -2.42037 0
M  V30 17114 C 1614.74 -3.6374 -2.25561 0
M  V30 17115 C 1614.07 -3.93023 -3.62543 0
M  V30 17116 C 1615.37 -4.94274 -1.68793 0
M  V30 17117 H 1617.06 -2.91095 -0.700274 0
M  V30 17118 H 1614.61 -1.40039 -0.335405 0
M  V30 17119 H 1616.56 -2.81558 -3.13534 0
M  V30 17120 H 1615.29 -1.60781 -2.84283 0
M  V30 17121 H 1613.95 -3.31513 -1.56507 0
M  V30 17122 H 1613.59 -3.01887 -4.02335 0
M  V30 17123 H 1613.29 -4.70229 -3.52362 0
M  V30 17124 H 1614.82 -4.27995 -4.35491 0
M  V30 17125 H 1616.23 -5.25079 -2.30141 0
M  V30 17126 H 1614.63 -5.75711 -1.69344 0
M  V30 17127 H 1615.7 -4.80548 -0.648204 0
M  V30 17128 N 1617.04 0.356258 -1.53521 0
M  V30 17129 C 1618.29 1.0979 -1.70154 0
M  V30 17130 C 1618.62 1.89028 -0.458124 0
M  V30 17131 O 1617.87 1.87516 0.560033 0
M  V30 17132 C 1618.17 2.07669 -2.90875 0
M  V30 17133 C 1617.84 1.4484 -4.27004 0
M  V30 17134 C 1616.5 1.27434 -4.64019 0
M  V30 17135 C 1618.85 0.994684 -5.1162 0
M  V30 17136 C 1616.18 0.632539 -5.8328 0
M  V30 17137 C 1618.53 0.366847 -6.31535 0
M  V30 17138 C 1617.19 0.180356 -6.67256 0
M  V30 17139 H 1616.46 0.401751 -0.622637 0
M  V30 17140 H 1619.11 0.378618 -1.8772 0
M  V30 17141 H 1617.42 2.85934 -2.6786 0
M  V30 17142 H 1619.11 2.65023 -3.00939 0
M  V30 17143 H 1615.7 1.59384 -3.97863 0
M  V30 17144 H 1619.89 1.11706 -4.83565 0
M  V30 17145 H 1615.14 0.476548 -6.0954 0
M  V30 17146 H 1619.32 0.00712378 -6.964 0
M  V30 17147 H 1616.94 -0.319016 -7.5953 0
M  V30 17148 N 1618.52 1.45038 0.616577 0
M  V30 17149 C 1619.45 1.55858 1.73869 0
M  V30 17150 C 1620.43 0.410657 1.65069 0
M  V30 17151 O 1621.62 0.632652 1.83606 0
M  V30 17152 C 1618.75 1.51635 3.12448 0
M  V30 17153 C 1617.7 2.65053 3.36052 0
M  V30 17154 C 1617.03 2.45883 4.74811 0
M  V30 17155 C 1618.33 4.07121 3.27185 0
M  V30 17156 H 1620.02 2.49784 1.6507 0
M  V30 17157 H 1617.57 1.20216 0.792724 0
M  V30 17158 H 1619.52 1.57803 3.90738 0
M  V30 17159 H 1618.24 0.542342 3.22066 0
M  V30 17160 H 1616.9 2.58299 2.60149 0
M  V30 17161 H 1616.55 1.46641 4.8115 0
M  V30 17162 H 1616.25 3.21935 4.9156 0
M  V30 17163 H 1617.77 2.53892 5.55312 0
M  V30 17164 H 1619.19 4.15167 3.9536 0
M  V30 17165 H 1617.58 4.83491 3.55466 0
M  V30 17166 H 1618.65 4.29663 2.24762 0
M  V30 17167 N 1620 -0.858287 1.32179 0
M  V30 17168 C 1620.93 -1.98219 1.23415 0
M  V30 17169 C 1621.91 -1.69685 0.118779 0
M  V30 17170 O 1623.09 -1.91785 0.305342 0
M  V30 17171 C 1620.22 -3.33977 0.952725 0
M  V30 17172 C 1619.18 -3.76853 2.02894 0
M  V30 17173 C 1618.5 -5.10201 1.59999 0
M  V30 17174 C 1619.8 -3.92707 3.44352 0
M  V30 17175 H 1621.5 -2.05809 2.17446 0
M  V30 17176 H 1619.04 -0.988817 1.04682 0
M  V30 17177 H 1621 -4.12152 0.87798 0
M  V30 17178 H 1619.72 -3.26592 -0.023234 0
M  V30 17179 H 1618.38 -3.00926 2.09378 0
M  V30 17180 H 1618.03 -4.99268 0.61157 0
M  V30 17181 H 1617.73 -5.39859 2.32004 0
M  V30 17182 H 1619.25 -5.90873 1.53954 0
M  V30 17183 H 1620.67 -4.61246 3.40477 0
M  V30 17184 H 1619.06 -4.33779 4.14675 0
M  V30 17185 H 1620.13 -2.95731 3.8428 0
M  V30 17186 N 1621.48 -1.1533 -1.07409 0
M  V30 17187 C 1622.71 -0.950263 -1.83449 0
M  V30 17188 C 1623.11 0.504761 -1.82343 0
M  V30 17189 O 1622.46 1.36183 -1.23287 0
M  V30 17190 C 1622.52 -1.38651 -3.31687 0
M  V30 17191 C 1622.18 -2.85914 -3.56514 0
M  V30 17192 C 1623.18 -3.83981 -3.50506 0
M  V30 17193 C 1620.86 -3.23568 -3.84199 0
M  V30 17194 C 1622.86 -5.17707 -3.71831 0
M  V30 17195 C 1620.55 -4.57467 -4.05175 0
M  V30 17196 C 1621.54 -5.54345 -3.98986 0
M  V30 17197 O 1621.23 -6.85826 -4.19403 0
M  V30 17198 H 1620.96 -0.337616 -0.585655 0
M  V30 17199 H 1623.52 -1.53489 -1.36493 0
M  V30 17200 H 1621.75 -0.745282 -3.7945 0
M  V30 17201 H 1623.44 -1.15267 -3.89189 0
M  V30 17202 H 1624.2 -3.56237 -3.29121 0
M  V30 17203 H 1620.08 -2.48748 -3.88131 0
M  V30 17204 H 1623.63 -5.93311 -3.66916 0
M  V30 17205 H 1619.52 -4.84927 -4.26047 0
M  V30 17206 H 1620.29 -6.92235 -4.36753 0
M  V30 17207 N 1622.95 1.25748 -0.950004 0
M  V30 17208 C 1623.92 2.24307 -0.47106 0
M  V30 17209 C 1624.92 1.55145 0.422704 0
M  V30 17210 O 1626.11 1.72797 0.220642 0
M  V30 17211 C 1623.24 3.39395 0.319979 0
M  V30 17212 H 1624.43 2.68192 -1.34214 0
M  V30 17213 H 1621.98 1.38056 -0.732827 0
M  V30 17214 H 1622.72 3.00925 1.20892 0
M  V30 17215 H 1622.5 3.90783 -0.321157 0
M  V30 17216 H 1623.99 4.12594 0.644697 0
M  V30 17217 N 1624.43 0.718038 1.40292 0
M  V30 17218 C 1625.68 0.258092 2.00445 0
M  V30 17219 C 1626 -1.15347 1.57226 0
M  V30 17220 O 1625.27 -1.78241 0.812822 0
M  V30 17221 H 1623.85 0.0924316 0.741259 0
M  V30 17222 H 1626.51 0.924216 1.71593 0
M  V30 17223 H 1625.61 0.293113 3.10721 0
M  V30 17224 N 1625.91 -1.50602 0.464402 0
M  V30 17225 C 1627.16 -2.02287 -0.0928919 0
M  V30 17226 C 1627.49 -1.34685 -1.40321 0
M  V30 17227 O 1626.74 -0.459304 -1.90234 0
M  V30 17228 C 1627.04 -3.55859 -0.331507 0
M  V30 17229 C 1626.71 -4.41902 0.896292 0
M  V30 17230 C 1625.37 -4.65137 1.23294 0
M  V30 17231 C 1627.72 -4.92208 1.71409 0
M  V30 17232 C 1625.05 -5.35922 2.38757 0
M  V30 17233 C 1627.4 -5.6426 2.85995 0
M  V30 17234 C 1626.06 -5.85751 3.20082 0
M  V30 17235 H 1625.33 -0.74022 -0.0339916 0
M  V30 17236 H 1627.98 -1.81284 0.61712 0
M  V30 17237 H 1626.29 -3.7534 -1.1237 0
M  V30 17238 H 1627.98 -3.93409 -0.776566 0
M  V30 17239 H 1624.57 -4.24033 0.624007 0
M  V30 17240 H 1628.76 -4.74117 1.46719 0
M  V30 17241 H 1624.01 -5.50769 2.65449 0
M  V30 17242 H 1628.19 -6.02223 3.49714 0
M  V30 17243 H 1625.81 -6.40377 4.09659 0
M  V30 17244 N 1627.39 -0.19675 -1.56367 0
M  V30 17245 C 1628.32 0.75534 -2.16396 0
M  V30 17246 C 1629.33 1.17558 -1.12623 0
M  V30 17247 O 1630.52 1.11102 -1.39709 0
M  V30 17248 C 1627.62 2.03159 -2.71256 0
M  V30 17249 C 1626.8 1.77088 -3.99948 0
M  V30 17250 C 1625.85 2.89176 -4.39618 0
M  V30 17251 O 1624.88 2.58712 -5.07007 0
M  V30 17252 N 1626.08 4.17569 -4.03257 0
M  V30 17253 H 1628.85 0.241991 -2.98721 0
M  V30 17254 H 1626.41 -0.0148423 -1.61893 0
M  V30 17255 H 1628.4 2.77287 -2.94778 0
M  V30 17256 H 1626.97 2.45611 -1.93375 0
M  V30 17257 H 1626.19 0.867309 -3.84541 0
M  V30 17258 H 1627.48 1.5707 -4.83949 0
M  V30 17259 H 1626.88 4.45171 -3.49054 0
M  V30 17260 H 1625.43 4.88319 -4.31726 0
M  V30 17261 N 1628.87 1.57413 0.0768405 0
M  V30 17262 C 1630.09 1.91607 0.793833 0
M  V30 17263 C 1630.52 0.792708 1.70581 0
M  V30 17264 O 1629.87 -0.25475 1.79501 0
M  V30 17265 C 1629.92 3.24736 1.56776 0
M  V30 17266 O 1629.03 3.13613 2.67807 0
M  V30 17267 H 1628.37 0.627572 0.216908 0
M  V30 17268 H 1630.9 2.04547 0.0465957 0
M  V30 17269 H 1630.91 3.58488 1.94809 0
M  V30 17270 H 1629.58 4.06077 0.898588 0
M  V30 17271 H 1628.16 2.91411 2.32668 0
M  V30 17272 N 1630.34 -0.348112 1.53707 0
M  V30 17273 C 1631.27 -1.43296 1.8436 0
M  V30 17274 C 1632.26 -1.55102 0.698376 0
M  V30 17275 O 1633.44 -1.69385 0.949864 0
M  V30 17276 C 1630.57 -2.80407 2.04912 0
M  V30 17277 C 1629.52 -2.83412 3.20721 0
M  V30 17278 C 1628.85 -4.23365 3.26597 0
M  V30 17279 C 1630.15 -2.49358 4.58931 0
M  V30 17280 H 1631.84 -1.17892 2.75212 0
M  V30 17281 H 1629.39 -0.565692 1.32423 0
M  V30 17282 H 1631.34 -3.56343 2.24939 0
M  V30 17283 H 1630.07 -3.07236 1.10786 0
M  V30 17284 H 1628.73 -2.09929 3.00542 0
M  V30 17285 H 1628.37 -4.47297 2.30076 0
M  V30 17286 H 1628.07 -4.26287 4.04417 0
M  V30 17287 H 1629.6 -5.01149 3.4883 0
M  V30 17288 H 1631.01 -3.15006 4.79003 0
M  V30 17289 H 1629.41 -2.6357 5.3912 0
M  V30 17290 H 1630.48 -1.44557 4.62851 0
M  V30 17291 N 1631.82 -1.45363 -0.608876 0
M  V30 17292 C 1633.05 -1.52614 -1.39257 0
M  V30 17293 C 1633.46 -0.157106 -1.88547 0
M  V30 17294 O 1632.8 0.851329 -1.62782 0
M  V30 17295 C 1632.87 -2.44821 -2.63255 0
M  V30 17296 C 1632.53 -3.91582 -2.35612 0
M  V30 17297 C 1633.53 -4.81517 -1.96054 0
M  V30 17298 C 1631.21 -4.36488 -2.48564 0
M  V30 17299 C 1633.21 -6.14365 -1.69808 0
M  V30 17300 C 1630.89 -5.69377 -2.21931 0
M  V30 17301 C 1631.89 -6.58135 -1.82614 0
M  V30 17302 O 1631.58 -7.88561 -1.56292 0
M  V30 17303 H 1631.31 -0.51935 -0.432726 0
M  V30 17304 H 1633.86 -1.91227 -0.749768 0
M  V30 17305 H 1632.09 -2.01177 -3.30249 0
M  V30 17306 H 1633.78 -2.4277 -3.25296 0
M  V30 17307 H 1634.55 -4.48088 -1.85585 0
M  V30 17308 H 1630.43 -3.67646 -2.78133 0
M  V30 17309 H 1633.97 -6.83602 -1.39045 0
M  V30 17310 H 1629.87 -6.02361 -2.32016 0
M  V30 17311 H 1630.64 -8.00576 -1.70355 0
M  V30 17312 N 1633.3 0.851265 -1.32632 0
M  V30 17313 C 1634.55 1.60807 -1.23568 0
M  V30 17314 C 1634.88 1.93155 0.201238 0
M  V30 17315 O 1634.15 1.5764 1.13929 0
M  V30 17316 C 1634.44 2.92619 -2.09872 0
M  V30 17317 C 1634.29 2.67031 -3.61959 0
M  V30 17318 C 1635.61 3.93924 -1.96244 0
M  V30 17319 H 1632.73 0.583492 -0.450229 0
M  V30 17320 H 1635.37 0.98273 -1.62611 0
M  V30 17321 H 1633.52 3.45988 -1.76704 0
M  V30 17322 H 1635.19 2.2019 -4.05357 0
M  V30 17323 H 1633.44 2.00938 -3.84456 0
M  V30 17324 H 1634.11 3.60902 -4.17676 0
M  V30 17325 H 1636.58 3.49823 -2.25307 0
M  V30 17326 H 1635.46 4.84005 -2.58902 0
M  V30 17327 H 1635.72 4.32185 -0.931065 0
M  V30 17328 N 1634.78 1.15898 1.06796 0
M  V30 17329 C 1636.02 0.938728 1.79766 0
M  V30 17330 C 1636.36 -0.53249 1.86757 0
M  V30 17331 O 1635.63 -1.39492 1.35544 0
M  V30 17332 C 1635.92 1.56062 3.24525 0
M  V30 17333 C 1635.77 3.10283 3.25645 0
M  V30 17334 C 1637.09 1.25108 4.21943 0
M  V30 17335 H 1634.21 0.342451 0.652607 0
M  V30 17336 H 1636.85 1.4315 1.24933 0
M  V30 17337 H 1635 1.14158 3.71349 0
M  V30 17338 H 1636.67 3.61132 2.87021 0
M  V30 17339 H 1634.91 3.43879 2.64443 0
M  V30 17340 H 1635.58 3.48913 4.27743 0
M  V30 17341 H 1638.06 1.61364 3.83537 0
M  V30 17342 H 1636.94 1.7123 5.21509 0
M  V30 17343 H 1637.2 0.169043 4.41777 0
M  V30 17344 N 1636.26 -1.25243 0.956659 0
M  V30 17345 C 1637.48 -1.97621 0.629337 0
M  V30 17346 C 1637.91 -1.70606 -0.792158 0
M  V30 17347 O 1637.26 -0.963192 -1.53598 0
M  V30 17348 C 1637.31 -3.49273 0.896687 0
M  V30 17349 O 1636.42 -4.12393 -0.0234986 0
M  V30 17350 H 1635.76 -0.619472 0.239061 0
M  V30 17351 H 1638.29 -1.5931 1.28381 0
M  V30 17352 H 1638.3 -3.99597 0.82377 0
M  V30 17353 H 1636.97 -3.68265 1.93271 0
M  V30 17354 H 1635.55 -3.72761 0.101796 0
M  V30 17355 N 1637.73 -0.725468 -1.3991 0
M  V30 17356 C 1638.96 -0.277821 -2.05531 0
M  V30 17357 C 1639.38 1.07547 -1.54322 0
M  V30 17358 O 1638.74 1.6795 -0.682828 0
M  V30 17359 C 1638.79 -0.278676 -3.59522 0
M  V30 17360 O 1637.89 0.736864 -4.05764 0
M  V30 17361 H 1637.24 -0.128243 -0.651498 0
M  V30 17362 H 1639.77 -0.988721 -1.79124 0
M  V30 17363 H 1639.78 -0.119765 -4.07824 0
M  V30 17364 H 1638.45 -1.2662 -3.96157 0
M  V30 17365 H 1637.03 0.544869 -3.68898 0
M  V30 17366 N 1639.21 1.50354 -0.472382 0
M  V30 17367 C 1640.45 2.0424 0.0808914 0
M  V30 17368 C 1640.82 1.34648 1.36871 0
M  V30 17369 O 1642.02 1.79096 2.00444 0
M  V30 17370 C 1640.29 3.56459 0.259192 0
M  V30 17371 S 1641.85 4.31976 0.770836 0
M  V30 17372 H 1638.67 0.710834 0.015346 0
M  V30 17373 H 1641.27 1.84734 -0.639816 0
M  V30 17374 H 1639.97 4.04662 -0.683865 0
M  V30 17375 H 1639.5 3.80321 1.00598 0
M  V30 17376 H 1641.52 4.52142 2.04406 0
M  V30 17377 N 1640.69 0.205039 1.56261 0
M  V30 17378 C 1641.62 -0.743854 2.16794 0
M  V30 17379 C 1642.64 -1.16959 1.13245 0
M  V30 17380 O 1643.83 -1.1036 1.40296 0
M  V30 17381 C 1640.93 -2.01717 2.7233 0
M  V30 17382 C 1640.1 -1.74965 4.00882 0
M  V30 17383 C 1639.16 -2.86841 4.41145 0
M  V30 17384 O 1638.18 -2.5602 5.08372 0
M  V30 17385 N 1639.39 -4.15425 4.05466 0
M  V30 17386 H 1642.15 -0.226145 2.98846 0
M  V30 17387 H 1639.71 0.0234276 1.61883 0
M  V30 17388 H 1641.7 -2.7572 2.96244 0
M  V30 17389 H 1640.27 -2.44582 1.94675 0
M  V30 17390 H 1639.49 -0.846903 3.84995 0
M  V30 17391 H 1640.78 -1.54501 4.84775 0
M  V30 17392 H 1640.18 -4.43314 3.5141 0
M  V30 17393 H 1638.74 -4.86023 4.3431 0
M  V30 17394 N 1642.17 -1.57451 -0.0684915 0
M  V30 17395 C 1643.1 -2.06954 -1.0813 0
M  V30 17396 C 1644.08 -0.963716 -1.40166 0
M  V30 17397 O 1645.27 -1.23664 -1.49736 0
M  V30 17398 C 1642.4 -2.51622 -2.39381 0
M  V30 17399 C 1641.35 -3.66111 -2.2169 0
M  V30 17400 C 1640.68 -3.96846 -3.58354 0
M  V30 17401 C 1641.98 -4.96036 -1.63541 0
M  V30 17402 H 1643.67 -2.91822 -0.66936 0
M  V30 17403 H 1641.22 -1.40387 -0.320533 0
M  V30 17404 H 1643.17 -2.84867 -3.1053 0
M  V30 17405 H 1641.89 -1.63788 -2.82562 0
M  V30 17406 H 1640.55 -3.33155 -1.52982 0
M  V30 17407 H 1640.2 -3.06137 -3.9911 0
M  V30 17408 H 1639.9 -4.73939 -3.47354 0
M  V30 17409 H 1641.42 -4.3259 -4.30927 0
M  V30 17410 H 1642.84 -5.27491 -2.24559 0
M  V30 17411 H 1641.23 -5.77474 -1.63228 0
M  V30 17412 H 1642.3 -4.81208 -0.597199 0
M  V30 17413 N 1643.65 0.339955 -1.5389 0
M  V30 17414 C 1645.06 0.683287 -1.44234 0
M  V30 17415 C 1645.26 1.92298 -0.601976 0
M  V30 17416 O 1644.32 2.52324 -0.0943623 0
M  V30 17417 C 1645.63 0.872576 -2.87761 0
M  V30 17418 C 1647.18 0.970965 -2.97559 0
M  V30 17419 C 1647.66 1.19254 -4.42202 0
M  V30 17420 N 1649.15 1.25966 -4.45743 0
M  V30 17421 C 1649.88 1.44869 -5.54798 0
M  V30 17422 N 1649.38 1.6092 -6.73852 0
M  V30 17423 N 1651.17 1.47445 -5.42417 0
M  V30 17424 H 1643.32 -0.475086 -2.07019 0
M  V30 17425 H 1645.58 -0.150644 -0.935954 0
M  V30 17426 H 1645.29 0.033117 -3.51684 0
M  V30 17427 H 1645.16 1.77326 -3.32919 0
M  V30 17428 H 1647.55 1.80094 -2.33774 0
M  V30 17429 H 1647.63 0.0471065 -2.55757 0
M  V30 17430 H 1647.28 0.367482 -5.06569 0
M  V30 17431 H 1647.21 2.13002 -4.81599 0
M  V30 17432 H 1649.7 1.15072 -3.59954 0
M  V30 17433 H 1650.01 1.74989 -7.52727 0
M  V30 17434 H 1648.36 1.58049 -6.7679 0
M  V30 17435 H 1651.55 1.34489 -4.48364 0
M  V30 17436 H 1651.72 1.61834 -6.27466 0
M  V30 17437 N 1645.13 1.45684 0.601159 0
M  V30 17438 C 1646.54 1.30232 0.922598 0
M  V30 17439 C 1646.74 0.260086 1.99814 0
M  V30 17440 O 1645.8 -0.343753 2.50149 0
M  V30 17441 C 1647.11 2.68318 1.35743 0
M  V30 17442 C 1648.66 2.76264 1.47129 0
M  V30 17443 C 1649.13 4.1489 1.93986 0
M  V30 17444 N 1650.62 4.17216 2.01209 0
M  V30 17445 C 1651.36 5.21354 2.387 0
M  V30 17446 N 1650.86 6.35833 2.75114 0
M  V30 17447 N 1652.65 5.08714 2.39095 0
M  V30 17448 H 1644.8 2.12117 -0.109634 0
M  V30 17449 H 1647.06 0.947902 0.0136129 0
M  V30 17450 H 1646.77 3.45804 0.64127 0
M  V30 17451 H 1646.64 2.97206 2.32268 0
M  V30 17452 H 1649.03 1.99077 2.17835 0
M  V30 17453 H 1649.11 2.51082 0.489028 0
M  V30 17454 H 1648.75 4.92565 1.23864 0
M  V30 17455 H 1648.68 4.37468 2.93137 0
M  V30 17456 H 1651.18 3.34607 1.75632 0
M  V30 17457 H 1651.49 7.11084 3.02622 0
M  V30 17458 H 1649.83 6.39224 2.72795 0
M  V30 17459 H 1653.02 4.18322 2.10057 0
M  V30 17460 H 1653.2 5.89989 2.67987 0
M  V30 17461 N 1646.6 -0.84422 1.33082 0
M  V30 17462 C 1647.53 -1.96899 1.25511 0
M  V30 17463 C 1648.51 -1.69549 0.13677 0
M  V30 17464 O 1649.7 -1.9145 0.325667 0
M  V30 17465 C 1646.83 -3.32947 0.988094 0
M  V30 17466 C 1645.78 -3.7468 2.06879 0
M  V30 17467 C 1645.11 -5.08475 1.65401 0
M  V30 17468 C 1646.41 -3.89033 3.48498 0
M  V30 17469 H 1648.1 -2.03491 2.19617 0
M  V30 17470 H 1645.65 -0.977659 1.05725 0
M  V30 17471 H 1647.6 -4.11198 0.921645 0
M  V30 17472 H 1646.33 -3.26598 0.0114067 0
M  V30 17473 H 1644.99 -2.98689 2.12557 0
M  V30 17474 H 1644.63 -4.98592 0.66449 0
M  V30 17475 H 1644.33 -5.37368 2.37717 0
M  V30 17476 H 1645.86 -5.89207 1.60212 0
M  V30 17477 H 1647.27 -4.57609 3.4535 0
M  V30 17478 H 1645.67 -4.29357 4.19253 0
M  V30 17479 H 1646.74 -2.91639 3.87395 0
M  V30 17480 N 1648.08 -1.16463 -1.0618 0
M  V30 17481 C 1648.99 -0.886601 -2.17202 0
M  V30 17482 C 1650.01 0.141568 -1.73423 0
M  V30 17483 O 1651.18 -0.0353417 -2.01369 0
M  V30 17484 C 1648.25 -0.392829 -3.44467 0
M  V30 17485 C 1647.31 -1.48636 -4.02748 0
M  V30 17486 C 1646.54 -1.01606 -5.23939 0
M  V30 17487 O 1646.77 0.133753 -5.70243 0
M  V30 17488 O 1645.7 -1.80487 -5.74202 0
M  V30 17489 H 1649.53 -1.81502 -2.43497 0
M  V30 17490 H 1647.11 -0.944691 -1.15741 0
M  V30 17491 H 1648.99 -0.124501 -4.21216 0
M  V30 17492 H 1647.67 0.507566 -3.19696 0
M  V30 17493 H 1646.57 -1.80845 -3.27484 0
M  V30 17494 H 1647.91 -2.3621 -4.31817 0
M  V30 17495 N 1649.56 1.24734 -0.963288 0
M  V30 17496 C 1650.78 1.97285 -0.639808 0
M  V30 17497 C 1651.21 1.71024 0.783099 0
M  V30 17498 O 1650.57 0.971324 1.53085 0
M  V30 17499 C 1650.62 3.48793 -0.915197 0
M  V30 17500 O 1649.72 4.124 0.00162805 0
M  V30 17501 H 1649.06 0.618196 -0.242343 0
M  V30 17502 H 1651.59 1.58627 -1.29224 0
M  V30 17503 H 1651.6 3.99155 -0.84495 0
M  V30 17504 H 1650.28 3.67235 -1.95221 0
M  V30 17505 H 1648.85 3.72702 -0.121563 0
M  V30 17506 N 1651.04 0.732878 1.39523 0
M  V30 17507 C 1652 0.10004 2.28982 0
M  V30 17508 C 1653 -0.669361 1.46206 0
M  V30 17509 O 1654.19 -0.498694 1.66909 0
M  V30 17510 C 1651.32 -0.867616 3.29674 0
M  V30 17511 H 1652.52 0.88816 2.86447 0
M  V30 17512 H 1650.07 0.498578 1.48135 0
M  V30 17513 H 1650.8 -1.68217 2.77261 0
M  V30 17514 H 1650.59 -0.318577 3.90804 0
M  V30 17515 H 1652.08 -1.30704 3.96618 0
M  V30 17516 N 1652.52 -1.50101 0.480349 0
M  V30 17517 C 1653.74 -2.07278 -0.0710872 0
M  V30 17518 C 1654.17 -1.34082 -1.31923 0
M  V30 17519 O 1653.52 -0.391251 -1.77028 0
M  V30 17520 C 1653.57 -3.59099 -0.328706 0
M  V30 17521 O 1652.68 -3.8764 -1.40745 0
M  V30 17522 H 1652.02 -0.66378 0.0170748 0
M  V30 17523 H 1654.55 -1.93178 0.674049 0
M  V30 17524 H 1654.56 -4.04049 -0.566435 0
M  V30 17525 H 1653.23 -4.11789 0.583316 0
M  V30 17526 H 1651.81 -3.54519 -1.15631 0
M  V30 17527 N 1653.99 -0.213323 -1.5615 0
M  V30 17528 C 1655.22 0.425071 -2.0218 0
M  V30 17529 C 1655.63 1.54471 -1.09249 0
M  V30 17530 O 1654.97 1.83465 -0.0928585 0
M  V30 17531 C 1655.04 1.02533 -3.44568 0
M  V30 17532 C 1654.7 0.0421613 -4.56981 0
M  V30 17533 C 1655.7 -0.755199 -5.14386 0
M  V30 17534 C 1653.38 -0.0742081 -5.02245 0
M  V30 17535 C 1655.38 -1.65571 -6.1552 0
M  V30 17536 C 1653.06 -0.978264 -6.03219 0
M  V30 17537 C 1654.06 -1.76757 -6.59732 0
M  V30 17538 O 1653.75 -2.65644 -7.58741 0
M  V30 17539 H 1653.48 0.109184 -0.667124 0
M  V30 17540 H 1656.04 -0.324754 -2.02816 0
M  V30 17541 H 1654.27 1.82409 -3.40975 0
M  V30 17542 H 1655.95 1.57027 -3.74296 0
M  V30 17543 H 1656.72 -0.6757 -4.8027 0
M  V30 17544 H 1652.6 0.530016 -4.57943 0
M  V30 17545 H 1656.14 -2.27223 -6.59557 0
M  V30 17546 H 1652.04 -1.05881 -6.36757 0
M  V30 17547 H 1652.81 -2.59627 -7.76232 0
M  V30 17548 N 1655.47 1.57485 0.0601405 0
M  V30 17549 C 1656.7 1.92438 0.773466 0
M  V30 17550 C 1657.12 0.810755 1.6973 0
M  V30 17551 O 1656.48 -0.235697 1.79761 0
M  V30 17552 C 1656.53 3.26381 1.53323 0
M  V30 17553 O 1655.63 3.16436 2.64465 0
M  V30 17554 H 1654.97 0.629838 0.210239 0
M  V30 17555 H 1657.5 2.04585 0.0248981 0
M  V30 17556 H 1657.51 3.60534 1.90996 0
M  V30 17557 H 1656.19 4.07007 0.855468 0
M  V30 17558 H 1654.77 2.93862 2.29564 0
M  V30 17559 N 1656.95 -0.331789 1.54068 0
M  V30 17560 C 1658.18 -1.09484 1.76148 0
M  V30 17561 C 1658.6 -1.81201 0.504772 0
M  V30 17562 O 1657.96 -1.7297 -0.54325 0
M  V30 17563 C 1658.01 -2.07495 2.94921 0
M  V30 17564 O 1657.11 -3.15239 2.65891 0
M  V30 17565 H 1656.45 -0.316071 0.583948 0
M  V30 17566 H 1658.98 -0.378593 2.01067 0
M  V30 17567 H 1658.99 -2.5051 3.22038 0
M  V30 17568 H 1657.67 -1.54696 3.8606 0
M  V30 17569 H 1656.24 -2.76958 2.49697 0
M  V30 17570 N 1658.43 -1.46001 -0.593424 0
M  V30 17571 C 1659.67 -1.50978 -1.35401 0
M  V30 17572 C 1660.01 -0.156626 -1.93567 0
M  V30 17573 O 1659.28 0.83067 -1.7587 0
M  V30 17574 C 1659.57 -2.60005 -2.49137 0
M  V30 17575 C 1659.42 -4.04814 -1.96075 0
M  V30 17576 C 1660.74 -2.65199 -3.51223 0
M  V30 17577 H 1657.86 -0.549657 -0.490965 0
M  V30 17578 H 1660.5 -1.77883 -0.667644 0
M  V30 17579 H 1658.65 -2.37194 -3.07687 0
M  V30 17580 H 1660.32 -4.38879 -1.42066 0
M  V30 17581 H 1658.56 -4.148 -1.26976 0
M  V30 17582 H 1659.23 -4.76811 -2.78128 0
M  V30 17583 H 1661.71 -2.85675 -3.02537 0
M  V30 17584 H 1660.59 -3.43323 -4.28276 0
M  V30 17585 H 1660.85 -1.70833 -4.0776 0
M  V30 17586 N 1659.91 0.83715 -1.33527 0
M  V30 17587 C 1661.15 1.60619 -1.26416 0
M  V30 17588 C 1661.51 1.9127 0.16722 0
M  V30 17589 O 1662.71 2.66347 0.362323 0
M  V30 17590 C 1660.98 2.87988 -2.11655 0
M  V30 17591 S 1662.54 3.78645 -2.21751 0
M  V30 17592 H 1659.36 0.550704 -0.449718 0
M  V30 17593 H 1661.96 0.990005 -1.6858 0
M  V30 17594 H 1660.67 2.63444 -3.14683 0
M  V30 17595 H 1660.2 3.54612 -1.70334 0
M  V30 17596 H 1662.21 4.76629 -1.37984 0
M  V30 17597 N 1661.38 1.17024 1.05561 0
M  V30 17598 C 1662.61 0.981293 1.82717 0
M  V30 17599 C 1663.03 -0.465636 1.82246 0
M  V30 17600 O 1662.39 -1.33315 1.22869 0
M  V30 17601 C 1662.44 1.52239 3.26888 0
M  V30 17602 O 1661.54 0.73366 4.05822 0
M  V30 17603 H 1660.89 0.348677 0.565084 0
M  V30 17604 H 1663.42 1.55435 1.33046 0
M  V30 17605 H 1663.43 1.54306 3.77695 0
M  V30 17606 H 1662.1 2.57567 3.26545 0
M  V30 17607 H 1660.68 0.784101 3.64563 0
M  V30 17608 N 1662.86 -1.24221 0.969889 0
M  V30 17609 C 1663.81 -2.23043 0.472854 0
M  V30 17610 C 1664.8 -1.54585 -0.446344 0
M  V30 17611 O 1665.99 -1.74821 -0.27691 0
M  V30 17612 C 1663.12 -3.42504 -0.233578 0
M  V30 17613 C 1662.2 -4.18206 0.704577 0
M  V30 17614 N 1662.59 -4.71037 1.84276 0
M  V30 17615 C 1660.89 -4.43007 0.515795 0
M  V30 17616 C 1661.59 -5.28525 2.42974 0
M  V30 17617 N 1660.57 -5.15849 1.71467 0
M  V30 17618 H 1664.37 -2.6151 1.34126 0
M  V30 17619 H 1661.89 -1.39632 0.829251 0
M  V30 17620 H 1663.88 -4.12459 -0.606891 0
M  V30 17621 H 1662.54 -3.05557 -1.0984 0
M  V30 17622 H 1663.55 -4.67705 2.22424 0
M  V30 17623 H 1660.23 -4.16385 -0.304885 0
M  V30 17624 H 1661.62 -5.8009 3.39035 0
M  V30 17625 N 1664.34 -0.740267 -1.39132 0
M  V30 17626 C 1665.27 -0.0524011 -2.2814 0
M  V30 17627 C 1666.25 0.742237 -1.44671 0
M  V30 17628 O 1667.44 0.723684 -1.74055 0
M  V30 17629 C 1664.56 0.932876 -3.256 0
M  V30 17630 C 1663.61 0.226089 -4.259 0
M  V30 17631 S 1664.44 -1.06369 -5.24829 0
M  V30 17632 C 1665.6 -0.0811445 -6.25847 0
M  V30 17633 H 1665.83 -0.807208 -2.86132 0
M  V30 17634 H 1663.36 -0.532283 -1.44935 0
M  V30 17635 H 1665.32 1.49604 -3.82268 0
M  V30 17636 H 1663.98 1.66056 -2.66616 0
M  V30 17637 H 1663.18 0.971812 -4.94542 0
M  V30 17638 H 1662.78 -0.265186 -3.73059 0
M  V30 17639 H 1665.07 0.757451 -6.73252 0
M  V30 17640 H 1666.01 -0.734849 -7.04277 0
M  V30 17641 H 1666.42 0.293606 -5.63736 0
M  V30 17642 N 1665.82 1.49844 -0.488302 0
M  V30 17643 C 1666.78 2.27412 0.285706 0
M  V30 17644 C 1667.78 1.32897 0.905261 0
M  V30 17645 O 1668.97 1.56171 0.771763 0
M  V30 17646 C 1666.1 3.10435 1.40864 0
M  V30 17647 H 1667.3 2.9729 -0.394782 0
M  V30 17648 H 1664.85 1.54401 -0.242873 0
M  V30 17649 H 1665.58 2.45094 2.12367 0
M  V30 17650 H 1665.37 3.79913 0.969991 0
M  V30 17651 H 1666.86 3.69054 1.95419 0
M  V30 17652 N 1667.3 0.221601 1.56034 0
M  V30 17653 C 1668.21 -0.699837 2.23918 0
M  V30 17654 C 1669.22 -1.21367 1.24683 0
M  V30 17655 O 1670.4 -1.25527 1.57495 0
M  V30 17656 C 1667.46 -1.89107 2.90585 0
M  V30 17657 C 1666.52 -1.4192 4.05163 0
M  V30 17658 C 1665.76 -2.55365 4.68641 0
M  V30 17659 O 1665.98 -3.735 4.31108 0
M  V30 17660 O 1664.91 -2.26564 5.57631 0
M  V30 17661 H 1668.74 -0.151552 3.03322 0
M  V30 17662 H 1666.33 -0.0088482 1.49397 0
M  V30 17663 H 1668.21 -2.58674 3.32664 0
M  V30 17664 H 1666.88 -2.42745 2.14141 0
M  V30 17665 H 1665.79 -0.691536 3.67653 0
M  V30 17666 H 1667.12 -0.929189 4.8335 0
M  V30 17667 N 1668.77 -1.57515 -0.0517878 0
M  V30 17668 C 1670 -1.92456 -0.759485 0
M  V30 17669 C 1670.42 -0.819396 -1.70092 0
M  V30 17670 O 1669.77 0.205913 -1.81335 0
M  V30 17671 C 1669.83 -3.27242 -1.53606 0
M  V30 17672 O 1669.55 -4.33511 -0.632441 0
M  V30 17673 C 1671.05 -3.76324 -2.34297 0
M  V30 17674 H 1668.27 -0.635688 -0.214807 0
M  V30 17675 H 1670.81 -2.04494 -0.0160862 0
M  V30 17676 H 1668.97 -3.16671 -2.23155 0
M  V30 17677 H 1669.38 -5.11178 -1.17462 0
M  V30 17678 H 1670.85 -4.73209 -2.84213 0
M  V30 17679 H 1671.33 -3.06351 -3.14716 0
M  V30 17680 H 1671.94 -3.89904 -1.69866 0
M  V30 17681 N 1670.25 0.323614 -1.54242 0
M  V30 17682 C 1671.5 1.06156 -1.72444 0
M  V30 17683 C 1671.83 1.88013 -0.498116 0
M  V30 17684 O 1671.08 1.88661 0.520133 0
M  V30 17685 C 1671.38 2.01452 -2.95215 0
M  V30 17686 C 1671.05 1.3575 -4.2998 0
M  V30 17687 C 1669.71 1.17563 -4.66618 0
M  V30 17688 C 1672.06 0.885938 -5.13615 0
M  V30 17689 C 1669.39 0.508674 -5.84491 0
M  V30 17690 C 1671.74 0.232807 -6.32171 0
M  V30 17691 C 1670.41 0.0387807 -6.67489 0
M  V30 17692 H 1669.68 0.388454 -0.631019 0
M  V30 17693 H 1672.32 0.338714 -1.88481 0
M  V30 17694 H 1670.63 2.80188 -2.73865 0
M  V30 17695 H 1672.33 2.5858 -3.06492 0
M  V30 17696 H 1668.92 1.50908 -4.01154 0
M  V30 17697 H 1673.1 1.01424 -4.85826 0
M  V30 17698 H 1668.36 0.347149 -6.10414 0
M  V30 17699 H 1672.53 -0.140594 -6.96258 0
M  V30 17700 H 1670.16 -0.480052 -7.58683 0
M  V30 17701 N 1671.73 1.46313 0.585673 0
M  V30 17702 C 1672.66 1.52683 1.7094 0
M  V30 17703 C 1673.68 0.415447 1.5741 0
M  V30 17704 O 1674.87 0.683657 1.64889 0
M  V30 17705 C 1671.97 1.38822 3.09163 0
M  V30 17706 C 1671.14 2.64027 3.48724 0
M  V30 17707 C 1670.2 2.44407 4.65995 0
M  V30 17708 O 1669.22 3.18118 4.72006 0
M  V30 17709 N 1670.43 1.50381 5.60683 0
M  V30 17710 H 1673.19 2.49573 1.65932 0
M  V30 17711 H 1670.75 1.42332 0.771573 0
M  V30 17712 H 1672.74 1.23474 3.85404 0
M  V30 17713 H 1671.31 0.501247 3.08555 0
M  V30 17714 H 1670.53 2.94338 2.62219 0
M  V30 17715 H 1671.82 3.47206 3.71921 0
M  V30 17716 H 1671.22 0.895917 5.5856 0
M  V30 17717 H 1669.78 1.40997 6.36367 0
M  V30 17718 N 1673.21 -0.830057 1.33969 0
M  V30 17719 C 1674.46 -1.58272 1.25675 0
M  V30 17720 C 1674.78 -1.94213 -0.175071 0
M  V30 17721 O 1674.05 -1.61694 -1.10597 0
M  V30 17722 H 1672.63 -0.586858 0.462176 0
M  V30 17723 H 1675.29 -0.991495 1.67796 0
M  V30 17724 H 1674.39 -2.50874 1.85658 0
M  V30 17725 N 1674.69 -1.17582 -1.04939 0
M  V30 17726 C 1675.91 -0.99097 -1.82194 0
M  V30 17727 C 1676.34 0.455965 -1.8249 0
M  V30 17728 O 1675.7 1.32661 -1.23575 0
M  V30 17729 C 1675.74 -1.53971 -3.26076 0
M  V30 17730 O 1674.85 -0.755172 -4.05427 0
M  V30 17731 H 1674.19 -0.351669 -0.563227 0
M  V30 17732 H 1676.72 -1.56138 -1.3222 0
M  V30 17733 H 1676.73 -1.56307 -3.76872 0
M  V30 17734 H 1675.4 -2.59295 -3.25175 0
M  V30 17735 H 1673.98 -0.803423 -3.64142 0
M  V30 17736 N 1676.17 1.23705 -0.976463 0
M  V30 17737 C 1677.39 1.96055 -0.661065 0
M  V30 17738 C 1677.81 1.7233 0.77121 0
M  V30 17739 O 1677.17 1.01234 1.51849 0
M  V30 17740 C 1677.22 3.49144 -0.937071 0
M  V30 17741 O 1676.94 3.72061 -2.31305 0
M  V30 17742 C 1678.44 4.38698 -0.637077 0
M  V30 17743 H 1675.66 0.624319 -0.245901 0
M  V30 17744 H 1678.2 1.57301 -1.30678 0
M  V30 17745 H 1676.36 3.85928 -0.33743 0
M  V30 17746 H 1676.77 4.66383 -2.39973 0
M  V30 17747 H 1678.25 5.44931 -0.88059 0
M  V30 17748 H 1678.72 4.37102 0.428802 0
M  V30 17749 H 1679.33 4.07515 -1.21702 0
M  V30 17750 N 1677.64 0.747635 1.38738 0
M  V30 17751 C 1678.89 0.301593 2.00545 0
M  V30 17752 C 1679.22 -1.11208 1.59205 0
M  V30 17753 O 1678.5 -1.76052 0.826806 0
M  V30 17754 C 1678.78 0.417739 3.57669 0
M  V30 17755 C 1678.63 1.87209 4.0899 0
M  V30 17756 C 1679.95 -0.192403 4.39679 0
M  V30 17757 H 1677.07 0.11106 0.728584 0
M  V30 17758 H 1679.71 0.946162 1.64766 0
M  V30 17759 H 1677.86 -0.131024 3.88279 0
M  V30 17760 H 1679.54 2.4787 3.89048 0
M  V30 17761 H 1677.78 2.38917 3.62079 0
M  V30 17762 H 1678.45 1.90455 5.18103 0
M  V30 17763 H 1680.93 0.27554 4.15187 0
M  V30 17764 H 1679.8 -0.0808605 5.4884 0
M  V30 17765 H 1680.06 -1.28 4.23165 0
M  V30 17766 N 1679.12 -1.49583 0.496242 0
M  V30 17767 C 1680.37 -2.02738 -0.050037 0
M  V30 17768 C 1680.7 -1.37556 -1.37083 0
M  V30 17769 O 1679.98 -0.50964 -1.87704 0
M  V30 17770 C 1680.26 -3.59501 -0.207575 0
M  V30 17771 C 1680.11 -4.35218 1.13601 0
M  V30 17772 C 1681.43 -4.29715 -0.950443 0
M  V30 17773 H 1678.55 -0.736811 -0.0167105 0
M  V30 17774 H 1681.19 -1.78654 0.646728 0
M  V30 17775 H 1679.34 -3.80152 -0.801033 0
M  V30 17776 H 1681.01 -4.26075 1.76798 0
M  V30 17777 H 1679.26 -3.97964 1.72648 0
M  V30 17778 H 1679.93 -5.43247 0.979142 0
M  V30 17779 H 1682.4 -4.1369 -0.447173 0
M  V30 17780 H 1681.28 -5.39159 -1.02951 0
M  V30 17781 H 1681.54 -3.94627 -1.99304 0
M  V30 17782 N 1680.6 -0.229873 -1.55915 0
M  V30 17783 C 1682.02 0.125347 -1.59107 0
M  V30 17784 C 1682.22 1.58293 -1.24682 0
M  V30 17785 O 1681.27 2.32452 -0.986018 0
M  V30 17786 C 1682.58 -0.208461 -2.99977 0
M  V30 17787 C 1684.13 -0.151373 -3.12634 0
M  V30 17788 C 1684.61 -0.458972 -4.55694 0
M  V30 17789 N 1686.1 -0.408847 -4.61392 0
M  V30 17790 C 1686.83 -0.620239 -5.70036 0
M  V30 17791 N 1686.33 -0.893851 -6.8701 0
M  V30 17792 N 1688.12 -0.552107 -5.59382 0
M  V30 17793 H 1680.27 -1.18062 -1.76565 0
M  V30 17794 H 1682.54 -0.473821 -0.821095 0
M  V30 17795 H 1682.24 -1.22043 -3.29846 0
M  V30 17796 H 1682.12 0.472591 -3.74228 0
M  V30 17797 H 1684.5 0.851249 -2.82556 0
M  V30 17798 H 1684.58 -0.866024 -2.40694 0
M  V30 17799 H 1684.23 -1.45907 -4.86491 0
M  V30 17800 H 1684.16 0.276965 -5.25871 0
M  V30 17801 H 1686.65 -0.205404 -3.77341 0
M  V30 17802 H 1686.96 -1.04303 -7.65729 0
M  V30 17803 H 1685.31 -0.931138 -6.88734 0
M  V30 17804 H 1688.5 -0.338518 -4.66874 0
M  V30 17805 H 1688.67 -0.720256 -6.43985 0
M  V30 17806 N 1682.08 1.5754 0.0434337 0
M  V30 17807 C 1683.04 2.046 1.03303 0
M  V30 17808 C 1684.04 0.947648 1.29909 0
M  V30 17809 O 1685.23 1.21171 1.25153 0
M  V30 17810 C 1682.36 2.45077 2.36961 0
M  V30 17811 H 1683.56 2.93276 0.626822 0
M  V30 17812 H 1681.11 1.53588 0.289909 0
M  V30 17813 H 1681.84 1.59513 2.82358 0
M  V30 17814 H 1681.63 3.25252 2.18983 0
M  V30 17815 H 1683.12 2.81963 3.08037 0
M  V30 17816 N 1683.56 -0.31543 1.54411 0
M  V30 17817 C 1684.8 -1.0524 1.73005 0
M  V30 17818 C 1685.13 -1.87747 0.50808 0
M  V30 17819 O 1684.39 -1.88935 -0.51012 0
M  V30 17820 C 1684.68 -1.99884 2.96279 0
M  V30 17821 C 1684.35 -1.33468 4.30694 0
M  V30 17822 C 1683.01 -1.15087 4.67235 0
M  V30 17823 C 1685.36 -0.858688 5.14078 0
M  V30 17824 C 1682.69 -0.47767 5.84752 0
M  V30 17825 C 1685.04 -0.199278 6.32286 0
M  V30 17826 C 1683.71 -0.00338158 6.675 0
M  V30 17827 H 1682.98 -0.385102 0.63307 0
M  V30 17828 H 1685.63 -0.328714 1.88658 0
M  V30 17829 H 1683.93 -2.78732 2.75347 0
M  V30 17830 H 1685.63 -2.56951 3.07859 0
M  V30 17831 H 1682.22 -1.48779 4.01949 0
M  V30 17832 H 1686.4 -0.98846 4.86357 0
M  V30 17833 H 1681.66 -0.314772 6.10589 0
M  V30 17834 H 1685.83 0.177517 6.96174 0
M  V30 17835 H 1683.46 0.52028 7.58418 0
M  V30 17836 N 1685.03 -1.46622 -0.577906 0
M  V30 17837 C 1686.45 -1.31683 -0.901762 0
M  V30 17838 C 1686.65 -0.291842 -1.99375 0
M  V30 17839 O 1685.71 0.303913 -2.50664 0
M  V30 17840 C 1687.02 -2.70443 -1.31457 0
M  V30 17841 C 1688.57 -2.7857 -1.42715 0
M  V30 17842 C 1689.04 -4.17923 -1.87361 0
M  V30 17843 N 1690.53 -4.20364 -1.94546 0
M  V30 17844 C 1691.27 -5.25085 -2.30376 0
M  V30 17845 N 1690.76 -6.4013 -2.64964 0
M  V30 17846 N 1692.56 -5.12453 -2.30972 0
M  V30 17847 H 1684.71 -2.11916 0.143367 0
M  V30 17848 H 1686.97 -0.947999 0.00146914 0
M  V30 17849 H 1686.68 -3.46781 -0.586174 0
M  V30 17850 H 1686.55 -3.00864 -2.2751 0
M  V30 17851 H 1688.94 -2.02518 -2.14641 0
M  V30 17852 H 1689.02 -2.51828 -0.449021 0
M  V30 17853 H 1688.66 -4.94473 -1.16012 0
M  V30 17854 H 1688.59 -4.42076 -2.8614 0
M  V30 17855 H 1691.08 -3.37359 -1.70286 0
M  V30 17856 H 1691.4 -7.15808 -2.91271 0
M  V30 17857 H 1689.74 -6.43483 -2.62591 0
M  V30 17858 H 1692.93 -4.21611 -2.03376 0
M  V30 17859 H 1693.11 -5.94178 -2.58566 0
M  V30 17860 N 1686.51 0.822941 -1.34408 0
M  V30 17861 C 1687.74 1.61087 -1.2984 0
M  V30 17862 C 1688.16 1.88369 0.127527 0
M  V30 17863 O 1687.51 1.47508 1.0746 0
M  V30 17864 C 1687.56 2.9518 -2.08689 0
M  V30 17865 O 1687.28 2.69089 -3.45721 0
M  V30 17866 C 1688.79 3.89583 -2.11518 0
M  V30 17867 H 1686.01 0.500726 -0.44667 0
M  V30 17868 H 1688.55 1.02391 -1.77021 0
M  V30 17869 H 1686.7 3.50434 -1.6515 0
M  V30 17870 H 1687.12 3.5459 -3.86479 0
M  V30 17871 H 1688.59 4.80835 -2.71111 0
M  V30 17872 H 1689.07 4.24953 -1.10957 0
M  V30 17873 H 1689.68 3.40265 -2.55146 0
M  V30 17874 N 1687.99 1.18137 1.04314 0
M  V30 17875 C 1688.92 0.863879 2.12296 0
M  V30 17876 C 1689.94 -0.137469 1.62219 0
M  V30 17877 O 1691.12 0.0900306 1.78273 0
M  V30 17878 C 1688.22 0.269002 3.37831 0
M  V30 17879 C 1687.4 1.3154 4.17152 0
M  V30 17880 C 1686.46 0.736666 5.21018 0
M  V30 17881 O 1685.48 1.41075 5.5144 0
M  V30 17882 N 1686.68 -0.467037 5.78618 0
M  V30 17883 H 1689.45 1.7933 2.40127 0
M  V30 17884 H 1687.01 1.08142 1.20486 0
M  V30 17885 H 1689 -0.131671 4.04486 0
M  V30 17886 H 1687.57 -0.564386 3.07463 0
M  V30 17887 H 1686.79 1.89148 3.45856 0
M  V30 17888 H 1688.08 2.02093 4.66943 0
M  V30 17889 H 1687.48 -1.03247 5.56198 0
M  V30 17890 H 1686.04 -0.809663 6.46752 0
M  V30 17891 N 1689.47 -1.23186 0.98301 0
M  V30 17892 C 1690.43 -2.22979 0.530366 0
M  V30 17893 C 1691.43 -1.56211 -0.381421 0
M  V30 17894 O 1692.62 -1.73321 -0.17475 0
M  V30 17895 C 1689.75 -3.40124 -0.229882 0
M  V30 17896 H 1690.95 -2.64539 1.41277 0
M  V30 17897 H 1688.5 -1.36064 0.769172 0
M  V30 17898 H 1689.23 -3.04024 -1.12871 0
M  V30 17899 H 1689.02 -3.89794 0.424653 0
M  V30 17900 H 1690.51 -4.14158 -0.535078 0
M  V30 17901 N 1690.95 -0.754982 -1.38339 0
M  V30 17902 C 1692.36 -0.379276 -1.82807 0
M  V30 17903 C 1692.71 1.09228 -1.62984 0
M  V30 17904 O 1691.83 1.84445 -1.13177 0
M  V30 17905 C 1692.43 -0.681628 -3.31872 0
M  V30 17906 C 1690.99 -0.359183 -3.74682 0
M  V30 17907 C 1690.13 -0.93409 -2.61094 0
M  V30 17908 H 1693.09 -0.951019 -1.27048 0
M  V30 17909 H 1693.11 0.0396803 -3.80479 0
M  V30 17910 H 1692.62 -1.75271 -3.46268 0
M  V30 17911 H 1690.72 0.705257 -3.65865 0
M  V30 17912 H 1690.83 -0.85571 -4.71396 0
M  V30 17913 H 1689.2 -0.359379 -2.52152 0
M  V30 17914 H 1689.98 -2.01023 -2.78289 0
M  V30 17915 N 1692.42 1.49318 -0.504168 0
M  V30 17916 C 1693.67 2.02462 0.0392265 0
M  V30 17917 C 1694 1.38359 1.36701 0
M  V30 17918 O 1693.25 0.509579 1.88949 0
M  V30 17919 C 1693.55 3.56613 0.237041 0
M  V30 17920 C 1693.22 4.3937 -1.01314 0
M  V30 17921 C 1691.88 4.61704 -1.35583 0
M  V30 17922 C 1694.23 4.8749 -1.84399 0
M  V30 17923 C 1691.56 5.29403 -2.52882 0
M  V30 17924 C 1693.91 5.56479 -3.00854 0
M  V30 17925 C 1692.58 5.77058 -3.35499 0
M  V30 17926 H 1691.85 0.740861 0.014354 0
M  V30 17927 H 1694.49 1.79584 -0.664967 0
M  V30 17928 H 1692.8 3.78188 1.02379 0
M  V30 17929 H 1694.5 3.95329 0.671987 0
M  V30 17930 H 1691.09 4.2223 -0.736213 0
M  V30 17931 H 1695.27 4.7006 -1.59238 0
M  V30 17932 H 1690.53 5.43538 -2.79958 0
M  V30 17933 H 1694.7 5.9274 -3.65558 0
M  V30 17934 H 1692.33 6.29291 -4.26494 0
M  V30 17935 N 1693.9 0.238138 1.5579 0
M  V30 17936 C 1695.15 -0.389608 1.99022 0
M  V30 17937 C 1695.48 -1.58226 1.12597 0
M  V30 17938 O 1694.76 -1.93595 0.187363 0
M  V30 17939 C 1695.04 -0.808025 3.50917 0
M  V30 17940 C 1694.89 0.389417 4.48111 0
M  V30 17941 C 1696.21 -1.6582 4.07666 0
M  V30 17942 H 1693.33 -0.140141 0.723553 0
M  V30 17943 H 1695.97 0.337696 1.86975 0
M  V30 17944 H 1694.12 -1.42772 3.61315 0
M  V30 17945 H 1695.79 1.02777 4.49705 0
M  V30 17946 H 1694.04 1.03404 4.21296 0
M  V30 17947 H 1694.71 0.0534549 5.51974 0
M  V30 17948 H 1697.18 -1.13518 4.00316 0
M  V30 17949 H 1696.06 -1.91984 5.14231 0
M  V30 17950 H 1696.32 -2.62712 3.55577 0
M  V30 17951 N 1695.38 -1.57561 -0.0350783 0
M  V30 17952 C 1696.34 -2.05145 -1.02217 0
M  V30 17953 C 1697.34 -0.954524 -1.29404 0
M  V30 17954 O 1698.53 -1.21833 -1.24509 0
M  V30 17955 C 1695.67 -2.4633 -2.35658 0
M  V30 17956 H 1696.86 -2.93605 -0.61126 0
M  V30 17957 H 1694.41 -1.53739 -0.28176 0
M  V30 17958 H 1695.15 -1.61008 -2.81508 0
M  V30 17959 H 1694.93 -3.26408 -2.17256 0
M  V30 17960 H 1696.42 -2.83592 -3.06537 0
M  V30 17961 N 1696.86 0.307236 -1.54576 0
M  V30 17962 C 1697.79 1.40019 -1.81459 0
M  V30 17963 C 1698.8 1.47113 -0.697246 0
M  V30 17964 O 1699.99 1.49544 -0.974626 0
M  V30 17965 C 1697.09 2.78439 -1.93197 0
M  V30 17966 C 1696.27 2.94353 -3.23536 0
M  V30 17967 C 1695.32 4.13232 -3.25769 0
M  V30 17968 O 1694.35 4.05614 -3.99331 0
M  V30 17969 N 1695.55 5.23567 -2.50715 0
M  V30 17970 H 1698.32 1.17317 -2.75784 0
M  V30 17971 H 1695.88 0.497286 -1.54074 0
M  V30 17972 H 1697.87 3.56202 -1.921 0
M  V30 17973 H 1696.44 2.94117 -1.05895 0
M  V30 17974 H 1695.66 2.03754 -3.37458 0
M  V30 17975 H 1696.95 3.01892 -4.09559 0
M  V30 17976 H 1696.35 5.32635 -1.90569 0
M  V30 17977 H 1694.9 5.99687 -2.55379 0
M  V30 17978 N 1698.34 1.46926 0.570122 0
M  V30 17979 C 1699.28 1.5883 1.69929 0
M  V30 17980 C 1700.28 0.456167 1.63143 0
M  V30 17981 O 1701.48 0.633503 1.68484 0
M  V30 17982 H 1697.86 0.499606 0.562048 0
M  V30 17983 H 1699.83 2.53744 1.57023 0
M  V30 17984 C 1698.58 1.60761 3.08304 0
M  V30 17985 H 1697.9 2.47219 3.14202 0
M  V30 17986 H 1699.34 1.73142 3.87037 0
M  V30 17987 C 1697.8 0.338515 3.35195 0
M  V30 17988 O 1698.33 -0.565917 3.97694 0
M  V30 17989 N 1696.54 0.222525 2.89747 0
M  V30 17990 H 1696.08 0.959435 2.39066 0
M  V30 17991 H 1696.04 -0.625697 3.08111 0
M  V30 17992 N 1699.82 -0.815801 1.34842 0
M  V30 17993 C 1700.76 -1.94853 1.27024 0
M  V30 17994 C 1701.76 -1.68575 0.166936 0
M  V30 17995 O 1702.96 -1.76905 0.332352 0
M  V30 17996 H 1699.34 -0.640033 0.394794 0
M  V30 17997 H 1701.31 -1.98569 2.2274 0
M  V30 17998 C 1700.06 -3.31474 1.04977 0
M  V30 17999 H 1699.38 -3.52246 1.8911 0
M  V30 18000 H 1700.82 -4.11162 1.03545 0
M  V30 18001 C 1699.28 -3.35995 -0.246708 0
M  V30 18002 O 1699.81 -3.81898 -1.24566 0
M  V30 18003 N 1698.02 -2.89226 -0.282292 0
M  V30 18004 H 1697.56 -2.52063 0.531211 0
M  V30 18005 H 1697.52 -2.92633 -1.1495 0
M  V30 18006 N 1701.29 -1.18689 -1.03686 0
M  V30 18007 C 1702.26 -0.919415 -2.09951 0
M  V30 18008 C 1703.26 0.0968042 -1.60508 0
M  V30 18009 O 1704.45 -0.137062 -1.7366 0
M  V30 18010 C 1701.58 -0.380204 -3.38773 0
M  V30 18011 H 1702.77 -1.86178 -2.35112 0
M  V30 18012 H 1700.32 -0.999435 -1.20171 0
M  V30 18013 H 1701.06 0.568586 -3.19277 0
M  V30 18014 H 1700.84 -1.11281 -3.75977 0
M  V30 18015 H 1702.33 -0.211891 -4.17062 0
M  V30 18016 N 1702.77 1.22662 -0.989529 0
M  V30 18017 C 1704.19 1.43445 -0.699687 0
M  V30 18018 C 1704.39 1.87778 0.730875 0
M  V30 18019 O 1703.44 2.02953 1.5022 0
M  V30 18020 C 1704.76 2.47869 -1.70239 0
M  V30 18021 C 1706.3 2.61672 -1.71746 0
M  V30 18022 C 1706.78 3.69315 -2.7087 0
M  V30 18023 N 1708.27 3.76768 -2.69444 0
M  V30 18024 C 1709.01 4.59641 -3.42808 0
M  V30 18025 N 1708.5 5.46533 -4.25762 0
M  V30 18026 N 1710.29 4.53921 -3.3153 0
M  V30 18027 H 1702.45 0.921912 -1.91349 0
M  V30 18028 H 1704.71 0.466905 -0.825048 0
M  V30 18029 H 1704.41 2.22233 -2.7259 0
M  V30 18030 H 1704.29 3.46415 -1.49254 0
M  V30 18031 H 1706.68 2.86655 -0.70094 0
M  V30 18032 H 1706.76 1.63413 -1.96799 0
M  V30 18033 H 1706.4 3.4508 -3.72669 0
M  V30 18034 H 1706.33 4.67136 -2.43088 0
M  V30 18035 H 1708.82 3.1468 -2.09249 0
M  V30 18036 H 1709.13 6.06783 -4.78575 0
M  V30 18037 H 1707.48 5.46126 -4.2985 0
M  V30 18038 H 1710.67 3.85062 -2.66168 0
M  V30 18039 H 1710.84 5.18277 -3.88964 0
M  V30 18040 N 1704.25 0.762308 1.37937 0
M  V30 18041 C 1705.5 0.322846 2.00214 0
M  V30 18042 C 1705.83 -1.09513 1.60376 0
M  V30 18043 O 1705.1 -1.75165 0.845432 0
M  V30 18044 C 1705.39 0.455651 3.57206 0
M  V30 18045 C 1705.24 1.91537 4.06981 0
M  V30 18046 C 1706.56 -0.145758 4.39859 0
M  V30 18047 H 1703.68 0.118781 0.727365 0
M  V30 18048 H 1706.32 0.963585 1.63753 0
M  V30 18049 H 1704.47 -0.0898341 3.88396 0
M  V30 18050 H 1706.14 2.51983 3.86397 0
M  V30 18051 H 1704.38 2.42744 3.59524 0
M  V30 18052 H 1705.06 1.9594 5.16054 0
M  V30 18053 H 1707.53 0.31956 4.14871 0
M  V30 18054 H 1706.41 -0.0226441 5.48895 0
M  V30 18055 H 1706.67 -1.23504 4.24499 0
M  V30 18056 N 1705.73 -1.49049 0.51208 0
M  V30 18057 C 1707 -1.95383 -0.0920331 0
M  V30 18058 C 1707.38 -1.4539 -1.53053 0
M  V30 18059 O 1706.73 -0.672485 -2.1838 0
M  V30 18060 C 1706.94 -3.48999 0.00673901 0
M  V30 18061 C 1708.29 -4.24292 -0.161602 0
M  V30 18062 O 1709.31 -3.56135 -0.0679198 0
M  V30 18063 O 1708.17 -5.45343 -0.355351 0
M  V30 18064 H 1705.27 -0.822175 -0.0891992 0
M  V30 18065 H 1707.81 -1.59647 0.575406 0
M  V30 18066 H 1706.59 -3.78055 1.00948 0
M  V30 18067 H 1706.21 -3.91383 -0.700353 0
M  V30 18068 N 1707.21 -0.246397 -1.55662 0
M  V30 18069 C 1708.12 0.664125 -2.25003 0
M  V30 18070 C 1709.13 1.19368 -1.26598 0
M  V30 18071 O 1710.31 1.23006 -1.59473 0
M  V30 18072 C 1707.37 1.8446 -2.93557 0
M  V30 18073 C 1706.43 1.35456 -4.0737 0
M  V30 18074 C 1705.67 2.47877 -4.72645 0
M  V30 18075 O 1705.89 3.66594 -4.36995 0
M  V30 18076 O 1704.82 2.17663 -5.61165 0
M  V30 18077 H 1708.65 0.103277 -3.03524 0
M  V30 18078 H 1706.23 -0.0149207 -1.49393 0
M  V30 18079 H 1708.12 2.53349 -3.36737 0
M  V30 18080 H 1706.79 2.39308 -2.17976 0
M  V30 18081 H 1705.7 0.632958 -3.68706 0
M  V30 18082 H 1707.03 0.852175 -4.84767 0
M  V30 18083 N 1708.68 1.57577 0.026722 0
M  V30 18084 C 1709.91 1.94035 0.732473 0
M  V30 18085 C 1710.33 0.846575 1.67972 0
M  V30 18086 O 1709.69 -0.197514 1.80221 0
M  V30 18087 C 1709.74 3.2956 1.46365 0
M  V30 18088 O 1708.84 3.21975 2.57694 0
M  V30 18089 H 1708.18 0.634155 0.196832 0
M  V30 18090 H 1710.71 2.04592 -0.018503 0
M  V30 18091 H 1710.72 3.64504 1.83305 0
M  V30 18092 H 1709.4 4.0873 0.768943 0
M  V30 18093 H 1707.98 2.98665 2.23279 0
M  V30 18094 N 1710.16 -0.299034 1.54737 0
M  V30 18095 C 1711.09 -1.39055 1.82199 0
M  V30 18096 C 1712.11 -1.46741 0.705038 0
M  V30 18097 O 1713.3 -1.49025 0.982543 0
M  V30 18098 C 1710.4 -2.7741 1.94671 0
M  V30 18099 C 1709.57 -2.92633 3.25092 0
M  V30 18100 C 1708.63 -4.11499 3.27956 0
M  V30 18101 O 1707.65 -4.03491 4.01477 0
M  V30 18102 N 1708.86 -5.2223 2.53488 0
M  V30 18103 H 1711.62 -1.15852 2.76402 0
M  V30 18104 H 1709.18 -0.489108 1.54335 0
M  V30 18105 H 1711.17 -3.55178 1.93987 0
M  V30 18106 H 1709.74 -2.93552 1.07453 0
M  V30 18107 H 1708.96 -2.01962 3.38534 0
M  V30 18108 H 1710.25 -2.99716 4.11154 0
M  V30 18109 H 1709.65 -5.31617 1.93391 0
M  V30 18110 H 1708.21 -5.98325 2.58555 0
M  V30 18111 N 1711.64 -1.47227 -0.562322 0
M  V30 18112 C 1713.06 -1.32632 -0.887745 0
M  V30 18113 C 1713.26 -0.312972 -1.99055 0
M  V30 18114 O 1712.31 0.277309 -2.50973 0
M  V30 18115 C 1713.62 -2.71822 -1.28581 0
M  V30 18116 C 1715.17 -2.80068 -1.39753 0
M  V30 18117 C 1715.65 -4.19887 -1.82917 0
M  V30 18118 N 1717.14 -4.22404 -1.90077 0
M  V30 18119 C 1717.87 -5.27499 -2.24793 0
M  V30 18120 N 1717.37 -6.42904 -2.58159 0
M  V30 18121 N 1719.16 -5.14874 -2.25523 0
M  V30 18122 H 1711.31 -2.11752 0.165835 0
M  V30 18123 H 1713.58 -0.94793 0.0115238 0
M  V30 18124 H 1713.28 -3.47383 -0.549361 0
M  V30 18125 H 1713.16 -3.0326 -2.24306 0
M  V30 18126 H 1715.54 -2.04783 -2.1248 0
M  V30 18127 H 1715.62 -2.5229 -0.422286 0
M  V30 18128 H 1715.27 -4.95676 -1.10761 0
M  V30 18129 H 1715.2 -4.45086 -2.81436 0
M  V30 18130 H 1717.69 -3.39146 -1.66698 0
M  V30 18131 H 1718 -7.18857 -2.83662 0
M  V30 18132 H 1716.35 -6.46232 -2.55751 0
M  V30 18133 H 1719.54 -4.23745 -1.98892 0
M  V30 18134 H 1719.71 -5.96887 -2.5225 0
M  V30 18135 N 1713.12 0.808639 -1.35273 0
M  V30 18136 C 1714.37 1.56071 -1.27768 0
M  V30 18137 C 1714.68 1.9505 0.146545 0
M  V30 18138 O 1715.89 2.69314 0.343855 0
M  V30 18139 C 1714.34 2.81648 -2.24059 0
M  V30 18140 C 1713.95 2.49915 -3.71815 0
M  V30 18141 C 1715.69 3.59658 -2.25492 0
M  V30 18142 C 1713.6 3.7177 -4.59936 0
M  V30 18143 H 1712.53 0.585811 -0.474701 0
M  V30 18144 H 1715.18 0.889051 -1.60525 0
M  V30 18145 H 1713.56 3.50514 -1.84271 0
M  V30 18146 H 1714.74 1.89068 -4.20226 0
M  V30 18147 H 1713.05 1.85154 -3.72971 0
M  V30 18148 H 1715.65 4.50162 -2.88545 0
M  V30 18149 H 1715.99 3.96835 -1.2581 0
M  V30 18150 H 1716.53 2.97751 -2.63798 0
M  V30 18151 H 1713.26 3.39704 -5.60608 0
M  V30 18152 H 1712.78 4.3185 -4.16252 0
M  V30 18153 H 1714.46 4.39022 -4.75256 0
M  V30 18154 N 1714.6 1.19237 1.03055 0
M  V30 18155 C 1715.82 1.01983 1.80594 0
M  V30 18156 C 1716.25 -0.426875 1.83192 0
M  V30 18157 O 1715.6 -1.30678 1.2567 0
M  V30 18158 C 1715.65 1.59139 3.23585 0
M  V30 18159 O 1714.76 0.819576 4.04174 0
M  V30 18160 H 1714.1 0.360585 0.557561 0
M  V30 18161 H 1716.63 1.58222 1.29719 0
M  V30 18162 H 1716.64 1.62283 3.74337 0
M  V30 18163 H 1715.31 2.64436 3.21009 0
M  V30 18164 H 1713.89 0.861253 3.62818 0
M  V30 18165 N 1716.07 -1.22136 0.99602 0
M  V30 18166 C 1717.32 -1.90967 0.673634 0
M  V30 18167 C 1717.65 -1.77526 -0.794654 0
M  V30 18168 O 1716.9 -1.14014 -1.59058 0
M  V30 18169 C 1717.2 -3.42259 1.02926 0
M  V30 18170 C 1716.87 -3.75891 2.49032 0
M  V30 18171 C 1715.53 -3.84781 2.88959 0
M  V30 18172 C 1717.88 -3.91799 3.43719 0
M  V30 18173 C 1715.21 -4.0702 4.22554 0
M  V30 18174 C 1717.56 -4.15543 4.76977 0
M  V30 18175 C 1716.23 -4.22658 5.1664 0
M  V30 18176 H 1715.5 -0.698798 0.2465 0
M  V30 18177 H 1718.14 -1.44836 1.25279 0
M  V30 18178 H 1716.45 -3.90066 0.368224 0
M  V30 18179 H 1718.15 -3.93774 0.757803 0
M  V30 18180 H 1714.74 -3.69556 2.17086 0
M  V30 18181 H 1718.92 -3.84306 3.14042 0
M  V30 18182 H 1714.18 -4.10756 4.52868 0
M  V30 18183 H 1718.35 -4.26796 5.50289 0
M  V30 18184 H 1715.98 -4.39643 6.20176 0
M  V30 18185 N 1717.55 -0.769612 -1.37531 0
M  V30 18186 C 1718.96 -0.398644 -1.82394 0
M  V30 18187 C 1719.31 1.07493 -1.64133 0
M  V30 18188 O 1718.44 1.83234 -1.15127 0
M  V30 18189 C 1719.03 -0.716789 -3.31131 0
M  V30 18190 C 1717.59 -0.398903 -3.7428 0
M  V30 18191 C 1716.74 -0.96173 -2.60089 0
M  V30 18192 H 1719.69 -0.964441 -1.26033 0
M  V30 18193 H 1719.71 -0.00067688 -3.805 0
M  V30 18194 H 1719.22 -1.78933 -3.4439 0
M  V30 18195 H 1717.33 0.666412 -3.66592 0
M  V30 18196 H 1717.44 -0.90566 -4.70462 0
M  V30 18197 H 1715.8 -0.386103 -2.51757 0
M  V30 18198 H 1716.59 -2.03963 -2.76141 0
M  V30 18199 N 1719.03 1.48775 -0.519977 0
M  V30 18200 C 1720.45 1.58614 -0.177164 0
M  V30 18201 C 1720.65 1.52314 1.31919 0
M  V30 18202 O 1719.7 1.40697 2.09668 0
M  V30 18203 C 1721.02 2.90653 -0.770816 0
M  V30 18204 C 1722.56 3.0416 -0.73864 0
M  V30 18205 C 1723.04 4.38845 -1.31069 0
M  V30 18206 N 1724.53 4.45386 -1.27222 0
M  V30 18207 C 1725.26 5.48088 -1.68484 0
M  V30 18208 N 1724.76 6.57797 -2.17428 0
M  V30 18209 N 1726.55 5.38912 -1.59782 0
M  V30 18210 H 1718.7 1.51112 -1.49261 0
M  V30 18211 H 1720.97 0.716925 -0.62026 0
M  V30 18212 H 1720.67 3.00888 -1.82097 0
M  V30 18213 H 1720.55 3.76422 -0.242125 0
M  V30 18214 H 1722.93 2.93543 0.302728 0
M  V30 18215 H 1723.02 2.20026 -1.30469 0
M  V30 18216 H 1722.66 4.50215 -2.35093 0
M  V30 18217 H 1722.59 5.21649 -0.720409 0
M  V30 18218 H 1725.08 3.66685 -0.913813 0
M  V30 18219 H 1725.39 7.32287 -2.46933 0
M  V30 18220 H 1723.74 6.58787 -2.21415 0
M  V30 18221 H 1726.93 4.52097 -1.2135 0
M  V30 18222 H 1727.1 6.18821 -1.92261 0
M  V30 18223 N 1720.51 0.254649 1.55529 0
M  V30 18224 C 1721.44 -0.635656 2.24681 0
M  V30 18225 C 1722.42 -1.17519 1.22977 0
M  V30 18226 O 1723.6 -1.21311 1.51649 0
M  V30 18227 C 1720.73 -1.82922 2.95224 0
M  V30 18228 C 1719.69 -1.42212 4.03683 0
M  V30 18229 C 1719.01 -2.69713 4.61691 0
M  V30 18230 C 1720.31 -0.587436 5.18986 0
M  V30 18231 H 1722.01 -0.0590063 2.99342 0
M  V30 18232 H 1719.55 -0.02694 1.43975 0
M  V30 18233 H 1721.51 -2.45777 3.42304 0
M  V30 18234 H 1720.23 -2.43137 2.18064 0
M  V30 18235 H 1718.89 -0.81687 3.57383 0
M  V30 18236 H 1718.54 -3.28143 3.81223 0
M  V30 18237 H 1718.24 -2.43194 5.34911 0
M  V30 18238 H 1719.76 -3.33453 5.11509 0
M  V30 18239 H 1721.18 -1.12048 5.62244 0
M  V30 18240 H 1719.57 -0.417988 5.98643 0
M  V30 18241 H 1720.64 0.398577 4.83259 0
M  V30 18242 N 1721.99 -1.57589 -0.0183649 0
M  V30 18243 C 1723.23 -1.90038 -0.708056 0
M  V30 18244 C 1723.57 -0.853686 -1.7443 0
M  V30 18245 O 1722.84 0.12994 -1.94065 0
M  V30 18246 C 1723.12 -3.33107 -1.3679 0
M  V30 18247 C 1722.98 -4.48479 -0.344448 0
M  V30 18248 C 1724.3 -3.75276 -2.29904 0
M  V30 18249 H 1721.41 -0.691134 -0.255934 0
M  V30 18250 H 1724.06 -1.89978 0.0291579 0
M  V30 18251 H 1722.21 -3.33289 -1.99626 0
M  V30 18252 H 1723.88 -4.60432 0.282816 0
M  V30 18253 H 1722.12 -4.32503 0.335196 0
M  V30 18254 H 1722.79 -5.45497 -0.844832 0
M  V30 18255 H 1725.27 -3.76529 -1.77103 0
M  V30 18256 H 1724.14 -4.76168 -2.73049 0
M  V30 18257 H 1724.41 -3.08124 -3.17036 0
M  V30 18258 N 1723.46 0.290824 -1.54893 0
M  V30 18259 C 1724.43 1.34215 -1.85793 0
M  V30 18260 C 1725.43 1.43204 -0.731393 0
M  V30 18261 O 1726.62 1.42663 -0.999647 0
M  V30 18262 C 1723.75 2.72577 -2.0473 0
M  V30 18263 H 1724.94 1.08056 -2.79757 0
M  V30 18264 H 1722.5 0.528008 -1.47111 0
M  V30 18265 H 1723.23 3.03943 -1.13088 0
M  V30 18266 H 1723.02 2.67442 -2.86736 0
M  V30 18267 H 1724.51 3.48573 -2.29971 0
M  V30 18268 N 1724.94 1.47523 0.554506 0
M  V30 18269 C 1726.22 1.44768 1.31535 0
M  V30 18270 C 1726.6 0.146082 2.10594 0
M  V30 18271 O 1725.95 -0.872415 2.1119 0
M  V30 18272 C 1726.16 2.69489 2.21758 0
M  V30 18273 C 1727.51 3.16814 2.82691 0
M  V30 18274 O 1728.53 2.70235 2.32059 0
M  V30 18275 O 1727.39 3.97798 3.74725 0
M  V30 18276 H 1724.48 0.577042 0.592412 0
M  V30 18277 H 1727.03 1.59727 0.573186 0
M  V30 18278 H 1725.8 3.55753 1.62958 0
M  V30 18279 H 1725.42 2.5713 3.03266 0
M  V30 18280 N 1726.42 -0.801453 1.357 0
M  V30 18281 C 1727.84 -1.09776 1.1585 0
M  V30 18282 C 1728.04 -2.01484 -0.0255653 0
M  V30 18283 O 1727.09 -2.42758 -0.694613 0
M  V30 18284 C 1728.41 -1.72381 2.46385 0
M  V30 18285 C 1729.95 -1.84777 2.52639 0
M  V30 18286 C 1730.43 -2.50797 3.83229 0
M  V30 18287 N 1731.92 -2.58277 3.84509 0
M  V30 18288 C 1732.65 -3.10141 4.82286 0
M  V30 18289 N 1732.15 -3.62404 5.90454 0
M  V30 18290 N 1733.94 -3.08742 4.69718 0
M  V30 18291 H 1726.09 -0.191926 2.11531 0
M  V30 18292 H 1728.36 -0.147742 0.936417 0
M  V30 18293 H 1728.06 -1.12462 3.33234 0
M  V30 18294 H 1727.94 -2.72024 2.6131 0
M  V30 18295 H 1730.32 -2.43837 1.66215 0
M  V30 18296 H 1730.41 -0.839745 2.41624 0
M  V30 18297 H 1730.05 -1.92385 4.70053 0
M  V30 18298 H 1729.98 -3.52147 3.91535 0
M  V30 18299 H 1732.47 -2.21257 3.06356 0
M  V30 18300 H 1732.78 -4.00293 6.61049 0
M  V30 18301 H 1731.13 -3.60588 5.94139 0
M  V30 18302 H 1734.32 -2.67193 3.84351 0
M  V30 18303 H 1734.49 -3.48854 5.46081 0
M  V30 18304 N 1727.9 -1.19782 -1.02421 0
M  V30 18305 C 1729.14 -1.01483 -1.76275 0
M  V30 18306 C 1729.5 0.449171 -1.87083 0
M  V30 18307 O 1728.79 1.32915 -1.38 0
M  V30 18308 C 1728.99 -1.62297 -3.18425 0
M  V30 18309 C 1728.82 -3.14459 -3.21474 0
M  V30 18310 C 1727.59 -3.83389 -3.29152 0
M  V30 18311 C 1729.78 -4.11771 -3.08138 0
M  V30 18312 N 1727.77 -5.22906 -3.21625 0
M  V30 18313 C 1729.14 -5.37916 -3.08296 0
M  V30 18314 C 1731.19 -4.0307 -2.92299 0
M  V30 18315 C 1729.89 -6.56365 -2.9424 0
M  V30 18316 C 1731.92 -5.21134 -2.79594 0
M  V30 18317 C 1731.28 -6.4618 -2.80411 0
M  V30 18318 H 1727.38 -0.425521 -0.656092 0
M  V30 18319 H 1729.97 -1.5183 -1.21884 0
M  V30 18320 H 1728.14 -1.14546 -3.71125 0
M  V30 18321 H 1729.87 -1.37389 -3.80666 0
M  V30 18322 H 1726.62 -3.34205 -3.35565 0
M  V30 18323 H 1727.05 -5.95923 -3.21256 0
M  V30 18324 H 1731.69 -3.07209 -2.90487 0
M  V30 18325 H 1729.41 -7.52408 -2.94802 0
M  V30 18326 H 1732.99 -5.16207 -2.68368 0
M  V30 18327 H 1731.87 -7.36001 -2.70688 0
M  V30 18328 N 1729.38 1.21606 -1.00248 0
M  V30 18329 C 1730.31 2.26159 -0.580911 0
M  V30 18330 C 1731.29 1.65402 0.397017 0
M  V30 18331 O 1732.47 1.92089 0.285552 0
M  V30 18332 C 1729.6 3.47168 0.0957564 0
M  V30 18333 C 1728.56 4.20425 -0.801695 0
M  V30 18334 C 1727.88 5.34699 0.00842241 0
M  V30 18335 C 1729.18 4.78086 -2.10311 0
M  V30 18336 H 1730.88 2.61675 -1.45487 0
M  V30 18337 H 1728.42 1.25786 -0.700995 0
M  V30 18338 H 1730.38 4.19477 0.402141 0
M  V30 18339 H 1729.1 3.10775 1.00433 0
M  V30 18340 H 1727.76 3.49963 -1.09187 0
M  V30 18341 H 1727.41 4.94548 0.918206 0
M  V30 18342 H 1727.11 5.84639 -0.589105 0
M  V30 18343 H 1728.63 6.09819 0.30868 0
M  V30 18344 H 1730.05 5.42287 -1.86004 0
M  V30 18345 H 1728.44 5.38405 -2.65028 0
M  V30 18346 H 1729.51 3.97607 -2.77555 0
M  V30 18347 N 1730.86 0.776895 1.37121 0
M  V30 18348 C 1731.82 0.172839 2.28547 0
M  V30 18349 C 1732.82 -0.622508 1.48262 0
M  V30 18350 O 1734.01 -0.44534 1.68411 0
M  V30 18351 C 1731.14 -0.762294 3.32268 0
M  V30 18352 H 1732.33 0.978842 2.83476 0
M  V30 18353 H 1729.89 0.545454 1.46474 0
M  V30 18354 H 1730.62 -1.59311 2.82472 0
M  V30 18355 H 1730.41 -0.194084 3.91619 0
M  V30 18356 H 1731.9 -1.1802 4.00576 0
M  V30 18357 N 1732.33 -1.48497 0.527859 0
M  V30 18358 C 1733.3 -2.2809 -0.225312 0
M  V30 18359 C 1734.3 -1.35251 -0.869707 0
M  V30 18360 O 1735.49 -1.58163 -0.730086 0
M  V30 18361 C 1732.62 -3.14061 -1.32584 0
M  V30 18362 H 1733.81 -2.96139 0.473465 0
M  V30 18363 H 1731.36 -1.53703 0.283724 0
M  V30 18364 H 1732.1 -2.50638 -2.05794 0
M  V30 18365 H 1731.88 -3.82351 -0.868922 0
M  V30 18366 H 1733.37 -3.74106 -1.85566 0
M  V30 18367 N 1733.81 -0.262893 -1.55392 0
M  V30 18368 C 1734.76 0.645946 -2.23451 0
M  V30 18369 C 1735.75 1.16753 -1.2274 0
M  V30 18370 O 1736.96 1.12257 -1.40706 0
M  V30 18371 H 1733.33 0.226829 -0.716975 0
M  V30 18372 H 1735.31 0.0489539 -2.9836 0
M  V30 18373 C 1734.05 1.82451 -2.95985 0
M  V30 18374 H 1733.38 1.43233 -3.73262 0
M  V30 18375 H 1734.82 2.43731 -3.46945 0
M  V30 18376 C 1733.28 2.7055 -2.0076 0
M  V30 18377 O 1733.81 3.70552 -1.55093 0
M  V30 18378 N 1732.01 2.37457 -1.67519 0
M  V30 18379 H 1731.56 1.56184 -2.04852 0
M  V30 18380 H 1731.52 2.96675 -1.04074 0
M  V30 18381 N 1735.29 1.57597 0.0100073 0
M  V30 18382 C 1736.54 1.90411 0.697968 0
M  V30 18383 C 1736.87 0.862924 1.73975 0
M  V30 18384 O 1736.14 -0.119646 1.94132 0
M  V30 18385 C 1736.43 3.33828 1.35022 0
M  V30 18386 C 1736.28 4.48656 0.320659 0
M  V30 18387 C 1737.6 3.7649 2.27911 0
M  V30 18388 H 1734.72 0.692482 0.252266 0
M  V30 18389 H 1737.36 1.89959 -0.0392325 0
M  V30 18390 H 1735.51 3.34343 1.97856 0
M  V30 18391 H 1737.18 4.60276 -0.30723 0
M  V30 18392 H 1735.42 4.32319 -0.358128 0
M  V30 18393 H 1736.1 5.45937 0.815891 0
M  V30 18394 H 1738.57 3.77463 1.75104 0
M  V30 18395 H 1737.45 4.77609 2.70519 0
M  V30 18396 H 1737.71 3.09801 3.15398 0
M  V30 18397 N 1736.77 -0.282606 1.55045 0
M  V30 18398 C 1737.68 -1.37129 1.90349 0
M  V30 18399 C 1738.69 -1.54537 0.799639 0
M  V30 18400 O 1739.87 -1.68849 1.09782 0
M  V30 18401 C 1736.93 -2.71211 2.15975 0
M  V30 18402 C 1736 -2.62632 3.39592 0
M  V30 18403 C 1735.23 -3.90319 3.63987 0
M  V30 18404 O 1735.45 -4.90551 2.9106 0
M  V30 18405 O 1734.39 -3.91102 4.57518 0
M  V30 18406 H 1738.21 -1.10189 2.83006 0
M  V30 18407 H 1735.8 -0.480293 1.41469 0
M  V30 18408 H 1737.68 -3.50509 2.33926 0
M  V30 18409 H 1736.35 -2.97958 1.26503 0
M  V30 18410 H 1735.26 -1.81743 3.26987 0
M  V30 18411 H 1736.59 -2.40836 4.29254 0
M  V30 18412 N 1738.25 -1.47815 -0.546675 0
M  V30 18413 C 1739.18 -1.63976 -1.66235 0
M  V30 18414 C 1740.16 -0.488945 -1.62921 0
M  V30 18415 O 1741.34 -0.719532 -1.80378 0
M  V30 18416 C 1738.47 -1.6637 -3.04858 0
M  V30 18417 C 1737.43 -2.80785 -3.23023 0
M  V30 18418 C 1736.75 -2.68257 -4.62539 0
M  V30 18419 C 1738.05 -4.22267 -3.07388 0
M  V30 18420 H 1739.75 -2.57375 -1.52965 0
M  V30 18421 H 1737.29 -1.23861 -0.734465 0
M  V30 18422 H 1739.24 -1.76266 -3.82764 0
M  V30 18423 H 1737.97 -0.695386 -3.19111 0
M  V30 18424 H 1736.63 -2.70417 -2.47529 0
M  V30 18425 H 1736.28 -1.69431 -4.73606 0
M  V30 18426 H 1735.98 -3.45022 -4.75641 0
M  V30 18427 H 1737.5 -2.80097 -5.42566 0
M  V30 18428 H 1738.91 -4.33557 -3.75102 0
M  V30 18429 H 1737.31 -4.999 -3.31994 0
M  V30 18430 H 1738.38 -4.39897 -2.04006 0
M  V30 18431 N 1739.72 0.794246 -1.36123 0
M  V30 18432 C 1740.65 1.92105 -1.32732 0
M  V30 18433 C 1741.63 1.68925 -0.199603 0
M  V30 18434 O 1742.82 1.90109 -0.396498 0
M  V30 18435 C 1739.95 3.29051 -1.11098 0
M  V30 18436 C 1738.9 3.66743 -2.20643 0
M  V30 18437 C 1738.23 5.01986 -1.84159 0
M  V30 18438 C 1739.53 3.75831 -3.62696 0
M  V30 18439 H 1741.22 1.952 -2.27018 0
M  V30 18440 H 1738.77 0.937746 -1.09281 0
M  V30 18441 H 1740.72 4.07494 -1.07362 0
M  V30 18442 H 1739.45 3.26331 -0.132614 0
M  V30 18443 H 1738.11 2.90594 -2.23497 0
M  V30 18444 H 1737.75 4.95782 -0.849081 0
M  V30 18445 H 1737.45 5.28175 -2.57497 0
M  V30 18446 H 1738.98 5.82855 -1.8197 0
M  V30 18447 H 1740.39 4.44476 -3.62096 0
M  V30 18448 H 1738.79 4.135 -4.34899 0
M  V30 18449 H 1739.86 2.7706 -3.97952 0
M  V30 18450 N 1741.2 1.20323 1.01785 0
M  V30 18451 C 1742.45 1.01063 1.75016 0
M  V30 18452 C 1742.77 -0.458458 1.89534 0
M  V30 18453 O 1742.04 -1.3315 1.43694 0
M  V30 18454 H 1740.62 0.370957 0.648383 0
M  V30 18455 H 1743.28 1.51411 1.22722 0
M  V30 18456 H 1742.38 1.46792 2.75424 0
M  V30 18457 N 1742.68 -1.21073 1.00892 0
M  V30 18458 C 1743.63 -2.25613 0.565829 0
M  V30 18459 C 1744.62 -1.64812 -0.391588 0
M  V30 18460 O 1745.83 -1.78078 -0.262352 0
M  V30 18461 H 1742.2 -0.733755 0.164643 0
M  V30 18462 H 1744.17 -2.60321 1.45862 0
M  V30 18463 C 1742.92 -3.47589 -0.087861 0
M  V30 18464 H 1742.25 -3.94647 0.639828 0
M  V30 18465 H 1743.69 -4.22459 -0.361115 0
M  V30 18466 C 1742.14 -3.09609 -1.32829 0
M  V30 18467 O 1742.67 -3.20449 -2.4223 0
M  V30 18468 N 1740.88 -2.64234 -1.2095 0
M  V30 18469 H 1740.43 -2.55613 -0.319301 0
M  V30 18470 H 1740.39 -2.39191 -2.04046 0
M  V30 18471 N 1744.16 -0.784156 -1.36707 0
M  V30 18472 C 1745.41 -0.353434 -1.98986 0
M  V30 18473 C 1745.73 1.07714 -1.62551 0
M  V30 18474 O 1745 1.7416 -0.896938 0
M  V30 18475 H 1743.58 -0.127693 -0.736005 0
M  V30 18476 H 1746.24 -1.00503 -1.66988 0
M  V30 18477 H 1745.34 -0.441028 -3.08968 0
M  V30 18478 N 1745.64 1.48215 -0.535727 0
M  V30 18479 C 1746.57 2.3253 0.212562 0
M  V30 18480 C 1747.55 1.42454 0.929568 0
M  V30 18481 O 1748.73 1.71334 0.914228 0
M  V30 18482 C 1745.86 3.23777 1.25641 0
M  V30 18483 C 1744.82 4.22924 0.657191 0
M  V30 18484 C 1744.14 5.03345 1.80411 0
M  V30 18485 C 1745.44 5.20953 -0.374902 0
M  V30 18486 H 1747.14 2.95341 -0.491301 0
M  V30 18487 H 1744.68 1.42024 -0.237718 0
M  V30 18488 H 1746.64 3.81592 1.78789 0
M  V30 18489 H 1745.36 2.58978 1.98993 0
M  V30 18490 H 1744.02 3.66304 0.147184 0
M  V30 18491 H 1743.67 4.34965 2.52615 0
M  V30 18492 H 1743.37 5.70455 1.40906 0
M  V30 18493 H 1744.89 5.64013 2.33926 0
M  V30 18494 H 1746.3 5.73258 0.0697072 0
M  V30 18495 H 1744.7 5.96147 -0.687646 0
M  V30 18496 H 1745.77 4.67739 -1.27861 0
M  V30 18497 N 1747.11 0.27113 1.5525 0
M  V30 18498 C 1748.36 -0.347304 1.99804 0
M  V30 18499 C 1748.69 -1.55803 1.15928 0
M  V30 18500 O 1747.97 -1.93154 0.228386 0
M  V30 18501 C 1748.25 -0.733408 3.52552 0
M  V30 18502 C 1748.1 0.48438 4.47184 0
M  V30 18503 C 1749.42 -1.57136 4.11092 0
M  V30 18504 H 1746.54 -0.124762 0.726363 0
M  V30 18505 H 1749.18 0.37728 1.86217 0
M  V30 18506 H 1747.33 -1.35076 3.64262 0
M  V30 18507 H 1749.01 1.12293 4.47424 0
M  V30 18508 H 1747.25 1.12317 4.19008 0
M  V30 18509 H 1747.92 0.170525 5.51737 0
M  V30 18510 H 1750.4 -1.05001 4.02634 0
M  V30 18511 H 1749.27 -1.81033 5.18187 0
M  V30 18512 H 1749.53 -2.55111 3.61069 0
M  V30 18513 N 1748.59 -1.576 -0.00164943 0
M  V30 18514 C 1749.84 -1.90496 -0.686842 0
M  V30 18515 C 1750.17 -0.871747 -1.7387 0
M  V30 18516 O 1749.42 0.123698 -1.95309 0
M  V30 18517 C 1749.72 -3.30147 -1.36886 0
M  V30 18518 C 1749.39 -4.48645 -0.450358 0
M  V30 18519 C 1748.05 -4.80795 -0.197461 0
M  V30 18520 C 1750.4 -5.20882 0.18214 0
M  V30 18521 C 1747.73 -5.82554 0.696255 0
M  V30 18522 C 1750.08 -6.23593 1.06372 0
M  V30 18523 C 1748.75 -6.54201 1.32581 0
M  V30 18524 H 1748.02 -0.697074 -0.251333 0
M  V30 18525 H 1750.66 -1.91425 0.0535238 0
M  V30 18526 H 1748.97 -3.25334 -2.18323 0
M  V30 18527 H 1750.66 -3.52859 -1.90504 0
M  V30 18528 H 1747.25 -4.23525 -0.657635 0
M  V30 18529 H 1751.44 -4.963 -0.000231234 0
M  V30 18530 H 1746.69 -6.0463 0.907337 0
M  V30 18531 H 1750.87 -6.78698 1.56018 0
M  V30 18532 H 1748.5 -7.3287 2.02002 0
M  V30 18533 N 1750.07 0.274379 -1.55193 0
M  V30 18534 C 1751.03 1.32237 -1.87206 0
M  V30 18535 C 1752.03 1.4242 -0.74654 0
M  V30 18536 O 1753.22 1.41595 -1.01472 0
M  V30 18537 C 1750.36 2.7039 -2.0761 0
M  V30 18538 H 1751.55 1.05083 -2.80887 0
M  V30 18539 H 1749.1 0.512375 -1.47663 0
M  V30 18540 H 1749.84 3.02727 -1.16306 0
M  V30 18541 H 1749.62 2.64385 -2.89556 0
M  V30 18542 H 1751.11 3.46114 -2.33655 0
M  V30 18543 N 1751.55 1.48103 0.538828 0
M  V30 18544 C 1752.51 1.61495 1.62641 0
M  V30 18545 C 1753.51 0.488792 1.53191 0
M  V30 18546 O 1754.7 0.754355 1.57019 0
M  V30 18547 C 1751.83 1.57681 3.02241 0
M  V30 18548 H 1753.03 2.58462 1.5211 0
M  V30 18549 H 1750.58 1.36567 0.760201 0
M  V30 18550 H 1751.31 0.621583 3.18287 0
M  V30 18551 H 1751.1 2.3943 3.10509 0
M  V30 18552 H 1752.59 1.70228 3.81329 0
M  V30 18553 N 1753.03 -0.787016 1.36542 0
M  V30 18554 C 1753.99 -1.88136 1.3091 0
M  V30 18555 C 1754.99 -1.59339 0.216292 0
M  V30 18556 O 1756.18 -1.67706 0.471222 0
M  V30 18557 C 1753.31 -3.24969 1.02994 0
M  V30 18558 H 1754.5 -1.94546 2.28237 0
M  V30 18559 H 1752.06 -0.985084 1.2135 0
M  V30 18560 H 1752.79 -3.24242 0.0613497 0
M  V30 18561 H 1752.58 -3.47261 1.82078 0
M  V30 18562 H 1754.07 -4.05036 1.01664 0
M  V30 18563 N 1754.5 -1.20861 -1.01145 0
M  V30 18564 C 1755.73 -1.04769 -1.78413 0
M  V30 18565 C 1756.15 0.402846 -1.84452 0
M  V30 18566 O 1755.5 1.27962 -1.30123 0
M  V30 18567 C 1755.56 -1.63065 -3.22633 0
M  V30 18568 O 1755.28 -3.02443 -3.16954 0
M  V30 18569 C 1756.78 -1.51996 -4.16428 0
M  V30 18570 H 1754 -0.368271 -0.560908 0
M  V30 18571 H 1756.54 -1.6006 -1.27283 0
M  V30 18572 H 1754.7 -1.11882 -3.70892 0
M  V30 18573 H 1755.11 -3.30199 -4.07515 0
M  V30 18574 H 1756.58 -1.97539 -5.15444 0
M  V30 18575 H 1757.06 -0.473305 -4.36642 0
M  V30 18576 H 1757.67 -2.02396 -3.74054 0
M  V30 18577 N 1755.98 1.20536 -1.01532 0
M  V30 18578 C 1757.22 1.91582 -0.712451 0
M  V30 18579 C 1757.59 1.76995 0.744089 0
M  V30 18580 O 1758.79 2.4251 1.15942 0
M  V30 18581 C 1757.06 3.38914 -1.13454 0
M  V30 18582 S 1758.62 4.28316 -0.953443 0
M  V30 18583 H 1755.44 0.661843 -0.259779 0
M  V30 18584 H 1758.04 1.45808 -1.30232 0
M  V30 18585 H 1756.74 3.47051 -2.19052 0
M  V30 18586 H 1756.27 3.89712 -0.537396 0
M  V30 18587 H 1758.29 4.95992 0.143722 0
M  V30 18588 N 1757.46 0.791395 1.36289 0
M  V30 18589 C 1758.42 0.197069 2.28351 0
M  V30 18590 C 1759.42 -0.606748 1.48913 0
M  V30 18591 O 1760.61 -0.427453 1.68874 0
M  V30 18592 C 1757.75 -0.727009 3.33058 0
M  V30 18593 H 1758.94 1.00885 2.82422 0
M  V30 18594 H 1756.49 0.560959 1.45887 0
M  V30 18595 H 1757.23 -1.56306 2.84146 0
M  V30 18596 H 1757.01 -0.152537 3.91803 0
M  V30 18597 H 1758.5 -1.13765 4.01805 0
M  V30 18598 N 1758.94 -1.47929 0.54358 0
M  V30 18599 C 1760.19 -2.02795 0.014488 0
M  V30 18600 C 1760.52 -1.41848 -1.32638 0
M  V30 18601 O 1759.79 -0.569099 -1.85988 0
M  V30 18602 C 1760.08 -3.5998 -0.093097 0
M  V30 18603 C 1759.93 -4.31384 1.2739 0
M  V30 18604 C 1761.25 -4.32521 -0.813251 0
M  V30 18605 H 1758.37 -0.736969 0.00673905 0
M  V30 18606 H 1761.01 -1.76507 0.703238 0
M  V30 18607 H 1759.16 -3.82508 -0.679685 0
M  V30 18608 H 1760.83 -4.20235 1.90264 0
M  V30 18609 H 1759.07 -3.9227 1.85221 0
M  V30 18610 H 1759.75 -5.39856 1.15148 0
M  V30 18611 H 1762.22 -4.14903 -0.315334 0
M  V30 18612 H 1761.1 -5.42161 -0.857456 0
M  V30 18613 H 1761.36 -4.00768 -1.86649 0
M  V30 18614 N 1760.42 -0.27936 -1.55104 0
M  V30 18615 C 1761.35 0.599831 -2.25664 0
M  V30 18616 C 1762.33 1.15548 -1.24831 0
M  V30 18617 O 1763.51 1.18883 -1.53559 0
M  V30 18618 C 1760.64 1.78202 -2.98096 0
M  V30 18619 C 1759.6 1.35771 -4.05894 0
M  V30 18620 C 1758.92 2.62334 -4.65924 0
M  V30 18621 C 1760.22 0.504795 -5.19855 0
M  V30 18622 H 1761.92 0.0113761 -2.99398 0
M  V30 18623 H 1759.46 0.00403149 -1.43999 0
M  V30 18624 H 1761.42 2.403 -3.4617 0
M  V30 18625 H 1760.14 2.39637 -2.21905 0
M  V30 18626 H 1758.8 0.75991 -3.58638 0
M  V30 18627 H 1758.45 3.22036 -3.86396 0
M  V30 18628 H 1758.15 2.34654 -5.38713 0
M  V30 18629 H 1759.67 3.25273 -5.16749 0
M  V30 18630 H 1761.09 1.03089 -5.63955 0
M  V30 18631 H 1759.48 0.322696 -5.99232 0
M  V30 18632 H 1760.55 -0.475409 -4.82564 0
M  V30 18633 N 1761.9 1.57599 -0.0067085 0
M  V30 18634 C 1763.12 1.95545 0.69115 0
M  V30 18635 C 1763.55 0.882014 1.66139 0
M  V30 18636 O 1762.9 -0.159242 1.80599 0
M  V30 18637 C 1762.95 3.3259 1.39342 0
M  V30 18638 O 1762.06 3.27368 2.50806 0
M  V30 18639 H 1761.4 0.638188 0.183336 0
M  V30 18640 H 1763.93 2.04506 -0.0618957 0
M  V30 18641 H 1763.94 3.6831 1.75532 0
M  V30 18642 H 1762.61 4.10269 0.682072 0
M  V30 18643 H 1761.19 3.03334 2.16894 0
M  V30 18644 N 1763.37 -0.266145 1.55336 0
M  V30 18645 C 1764.32 -1.32914 1.88686 0
M  V30 18646 C 1765.29 -1.48752 0.739048 0
M  V30 18647 O 1766.48 -1.63048 0.990951 0
M  V30 18648 C 1763.62 -2.68317 2.17026 0
M  V30 18649 C 1762.73 -2.60644 3.44512 0
M  V30 18650 C 1761.86 -3.88271 3.62517 0
M  V30 18651 C 1760.9 -3.75137 4.83672 0
M  V30 18652 N 1760.04 -4.94614 4.98299 0
M  V30 18653 H 1764.88 -1.03774 2.79347 0
M  V30 18654 H 1762.42 -0.501205 1.38298 0
M  V30 18655 H 1764.37 -3.47107 2.31458 0
M  V30 18656 H 1763 -2.95645 1.29591 0
M  V30 18657 H 1762.06 -1.73527 3.38515 0
M  V30 18658 H 1763.37 -2.46842 4.3344 0
M  V30 18659 H 1762.52 -4.75503 3.76804 0
M  V30 18660 H 1761.26 -4.04949 2.71787 0
M  V30 18661 H 1760.27 -2.86289 4.69381 0
M  V30 18662 H 1761.49 -3.59973 5.75844 0
M  V30 18663 H 1759.44 -5.11689 4.10501 0
M  V30 18664 H 1759.35 -4.83369 5.81284 0
M  V30 18665 H 1760.62 -5.83399 5.16978 0
M  V30 18666 N 1764.85 -1.48386 -0.530967 0
M  V30 18667 C 1765.81 -1.62355 -1.61782 0
M  V30 18668 C 1766.81 -0.496909 -1.5293 0
M  V30 18669 O 1768 -0.762672 -1.56617 0
M  V30 18670 C 1765.14 -1.59282 -3.014 0
M  V30 18671 H 1766.33 -2.59265 -1.50737 0
M  V30 18672 H 1763.88 -1.36969 -0.752948 0
M  V30 18673 H 1764.62 -0.638453 -3.17953 0
M  V30 18674 H 1764.4 -2.41073 -3.09235 0
M  V30 18675 H 1765.89 -1.72248 -3.80421 0
M  V30 18676 N 1766.33 0.779763 -1.36958 0
M  V30 18677 C 1767.28 1.88277 -1.28592 0
M  V30 18678 C 1768.26 1.59941 -0.175389 0
M  V30 18679 O 1769.46 1.72208 -0.409071 0
M  V30 18680 C 1766.58 3.25632 -1.08715 0
M  V30 18681 C 1765.67 3.59945 -2.24277 0
M  V30 18682 N 1766.06 3.65497 -3.49636 0
M  V30 18683 C 1764.36 3.90064 -2.16255 0
M  V30 18684 C 1765.06 3.96328 -4.25792 0
M  V30 18685 N 1764.04 4.11812 -3.5484 0
M  V30 18686 H 1767.84 1.90809 -2.23538 0
M  V30 18687 H 1765.35 0.975794 -1.29815 0
M  V30 18688 H 1767.35 4.04529 -1.00807 0
M  V30 18689 H 1766.01 3.24368 -0.146786 0
M  V30 18690 H 1767.02 3.47902 -3.83647 0
M  V30 18691 H 1763.7 3.96669 -1.3023 0
M  V30 18692 H 1765.09 4.07466 -5.34248 0
M  V30 18693 N 1767.81 1.21396 1.00503 0
M  V30 18694 C 1768.74 0.997268 2.11132 0
M  V30 18695 C 1769.72 -0.0777455 1.69922 0
M  V30 18696 O 1770.9 0.08208 1.94026 0
M  V30 18697 C 1768.03 0.561122 3.42737 0
M  V30 18698 C 1766.99 1.58069 3.97741 0
M  V30 18699 C 1766.31 1.00079 5.25251 0
M  V30 18700 C 1767.61 2.96754 4.29807 0
M  V30 18701 H 1769.31 1.92255 2.29518 0
M  V30 18702 H 1766.85 0.925776 1.10297 0
M  V30 18703 H 1768.81 0.396701 4.19529 0
M  V30 18704 H 1767.53 -0.399804 3.24144 0
M  V30 18705 H 1766.19 1.73268 3.23069 0
M  V30 18706 H 1765.84 0.0315797 5.0299 0
M  V30 18707 H 1765.54 1.68182 5.63017 0
M  V30 18708 H 1767.06 0.847687 6.04687 0
M  V30 18709 H 1768.48 2.85 4.97441 0
M  V30 18710 H 1766.87 3.61871 4.78717 0
M  V30 18711 H 1767.94 3.47602 3.38084 0
M  V30 18712 N 1769.29 -1.19996 1.0217 0
M  V30 18713 C 1770.51 -1.94007 0.733207 0
M  V30 18714 C 1770.94 -1.74565 -0.70061 0
M  V30 18715 O 1770.29 -1.04326 -1.48276 0
M  V30 18716 C 1770.34 -3.44029 1.08057 0
M  V30 18717 O 1769.45 -4.11938 0.195135 0
M  V30 18718 H 1768.79 -0.605929 0.271562 0
M  V30 18719 H 1771.32 -1.5228 1.36645 0
M  V30 18720 H 1771.33 -3.94669 1.03443 0
M  V30 18721 H 1770 -3.57502 2.1252 0
M  V30 18722 H 1768.58 -3.71697 0.299246 0
M  V30 18723 N 1770.76 -0.798611 -1.35867 0
M  V30 18724 C 1771.73 -0.209177 -2.28243 0
M  V30 18725 C 1772.73 0.598842 -1.49233 0
M  V30 18726 O 1773.92 0.418491 -1.69098 0
M  V30 18727 C 1771.05 0.709336 -3.33438 0
M  V30 18728 H 1772.24 -1.02382 -2.81883 0
M  V30 18729 H 1769.79 -0.568687 -1.45587 0
M  V30 18730 H 1770.53 1.54797 -2.84971 0
M  V30 18731 H 1770.31 0.131756 -3.91879 0
M  V30 18732 H 1771.8 1.11632 -4.02403 0
M  V30 18733 N 1772.24 1.47639 -0.551417 0
M  V30 18734 C 1773.49 2.02084 -0.0251553 0
M  V30 18735 C 1773.81 1.42872 1.32713 0
M  V30 18736 O 1773.08 0.601794 1.86428 0
M  V30 18737 H 1771.66 0.746973 -0.00631005 0
M  V30 18738 H 1774.32 1.81109 -0.720113 0
M  V30 18739 H 1773.42 3.12028 0.0672608 0
M  V30 18740 N 1773.72 0.287581 1.54954 0
M  V30 18741 C 1774.65 -0.587855 2.25979 0
M  V30 18742 C 1775.63 -1.14884 1.25442 0
M  V30 18743 O 1776.82 -1.18067 1.54188 0
M  V30 18744 C 1773.95 -1.76618 2.99037 0
M  V30 18745 C 1772.9 -1.33617 4.06609 0
M  V30 18746 C 1772.23 -2.59859 4.67309 0
M  V30 18747 C 1773.53 -0.477219 5.20115 0
M  V30 18748 H 1775.22 0.00450183 2.994 0
M  V30 18749 H 1772.77 0.00360521 1.44 0
M  V30 18750 H 1774.72 -2.38461 3.4744 0
M  V30 18751 H 1773.44 -2.38457 2.23172 0
M  V30 18752 H 1772.1 -0.74088 3.59036 0
M  V30 18753 H 1771.75 -3.19983 3.88098 0
M  V30 18754 H 1771.45 -2.31793 5.3995 0
M  V30 18755 H 1772.97 -3.22528 5.18467 0
M  V30 18756 H 1774.39 -1.00096 5.64494 0
M  V30 18757 H 1772.79 -0.290913 5.99394 0
M  V30 18758 H 1773.86 0.500993 4.82305 0
M  V30 18759 N 1775.2 -1.57593 0.0150662 0
M  V30 18760 C 1776.44 -1.91497 -0.667587 0
M  V30 18761 C 1776.78 -0.890493 -1.7258 0
M  V30 18762 O 1776.05 0.0887462 -1.94297 0
M  V30 18763 C 1776.34 -3.35934 -1.29694 0
M  V30 18764 C 1776.19 -4.49109 -0.249242 0
M  V30 18765 C 1777.51 -3.80068 -2.21893 0
M  V30 18766 H 1774.63 -0.696408 -0.241217 0
M  V30 18767 H 1777.27 -1.89873 0.0694484 0
M  V30 18768 H 1775.42 -3.37448 -1.92512 0
M  V30 18769 H 1777.09 -4.59729 0.380417 0
M  V30 18770 H 1775.33 -4.31695 0.426861 0
M  V30 18771 H 1776 -5.47166 -0.728934 0
M  V30 18772 H 1778.48 -3.80201 -1.69076 0
M  V30 18773 H 1777.36 -4.81852 -2.62887 0
M  V30 18774 H 1777.62 -3.1478 -3.10429 0
M  V30 18775 N 1776.68 0.257904 -1.55475 0
M  V30 18776 C 1777.92 0.985519 -1.76442 0
M  V30 18777 C 1778.25 1.86267 -0.577033 0
M  V30 18778 O 1777.52 1.91613 0.407582 0
M  V30 18779 H 1776.1 0.366872 -0.650702 0
M  V30 18780 H 1778.76 0.278498 -1.929 0
M  V30 18781 H 1777.85 1.61367 -2.67146 0
M  V30 18782 N 1778.15 1.48666 0.52309 0
M  V30 18783 C 1779.4 1.57034 1.27854 0
M  V30 18784 C 1779.73 0.247256 1.92922 0
M  V30 18785 O 1778.98 -0.763049 1.80211 0
M  V30 18786 C 1779.28 2.66247 2.38426 0
M  V30 18787 C 1778.95 4.08464 1.90965 0
M  V30 18788 C 1777.61 4.47171 1.77739 0
M  V30 18789 C 1779.96 4.97562 1.55184 0
M  V30 18790 C 1777.29 5.72772 1.27077 0
M  V30 18791 C 1779.64 6.23659 1.05982 0
M  V30 18792 C 1778.31 6.61216 0.913782 0
M  V30 18793 H 1777.58 0.574628 0.46785 0
M  V30 18794 H 1780.22 1.82411 0.582961 0
M  V30 18795 H 1778.53 2.34756 3.13682 0
M  V30 18796 H 1780.23 2.69936 2.9654 0
M  V30 18797 H 1776.82 3.779 2.02212 0
M  V30 18798 H 1781 4.6833 1.64259 0
M  V30 18799 H 1776.26 6.0059 1.14464 0
M  V30 18800 H 1780.43 6.92089 0.773684 0
M  V30 18801 H 1778.06 7.58426 0.519021 0
M  V30 18802 N 1779.63 -0.772489 1.37369 0
M  V30 18803 C 1780.86 -1.56671 1.35901 0
M  V30 18804 C 1781.28 -1.88024 -0.0535538 0
M  V30 18805 O 1780.64 -1.49174 -1.03038 0
M  V30 18806 C 1780.69 -2.85417 2.20384 0
M  V30 18807 O 1779.79 -3.79761 1.60796 0
M  V30 18808 H 1779.13 -0.474596 0.464386 0
M  V30 18809 H 1781.66 -0.956162 1.80883 0
M  V30 18810 H 1781.67 -3.34527 2.33571 0
M  V30 18811 H 1780.35 -2.61926 3.2306 0
M  V30 18812 H 1778.93 -3.38403 1.56645 0
M  V30 18813 N 1781.11 -1.21927 -0.998575 0
M  V30 18814 C 1782.36 -1.04194 -1.73987 0
M  V30 18815 C 1782.69 0.4227 -1.89544 0
M  V30 18816 O 1781.96 1.31353 -1.43446 0
M  V30 18817 C 1782.25 -1.74717 -3.14874 0
M  V30 18818 C 1782.1 -3.28741 -3.07001 0
M  V30 18819 C 1783.42 -1.49495 -4.13931 0
M  V30 18820 H 1780.54 -0.379918 -0.631531 0
M  V30 18821 H 1783.18 -1.5019 -1.16374 0
M  V30 18822 H 1781.33 -1.35615 -3.64062 0
M  V30 18823 H 1783 -3.77252 -2.65478 0
M  V30 18824 H 1781.25 -3.58711 -2.43944 0
M  V30 18825 H 1781.92 -3.73258 -4.06672 0
M  V30 18826 H 1784.39 -1.83451 -3.73477 0
M  V30 18827 H 1783.27 -2.01344 -5.10639 0
M  V30 18828 H 1783.53 -0.426324 -4.4004 0
M  V30 18829 N 1782.59 1.19452 -1.02805 0
M  V30 18830 C 1783.81 1.93616 -0.743485 0
M  V30 18831 C 1784.24 1.74934 0.691342 0
M  V30 18832 O 1783.6 1.05111 1.47721 0
M  V30 18833 C 1783.64 3.43451 -1.0988 0
M  V30 18834 O 1782.75 4.11829 -0.216978 0
M  V30 18835 H 1782.09 0.60448 -0.274771 0
M  V30 18836 H 1784.62 1.51554 -1.37451 0
M  V30 18837 H 1784.63 3.94115 -1.05535 0
M  V30 18838 H 1783.3 3.5637 -2.14413 0
M  V30 18839 H 1781.88 3.71533 -0.318954 0
M  V30 18840 N 1784.07 0.805805 1.35442 0
M  V30 18841 C 1785.03 0.221278 2.28129 0
M  V30 18842 C 1786.03 -0.590919 1.49549 0
M  V30 18843 O 1787.22 -0.409518 1.69318 0
M  V30 18844 C 1784.35 -0.691643 3.3381 0
M  V30 18845 H 1785.54 1.03875 2.81336 0
M  V30 18846 H 1783.1 0.5764 1.45284 0
M  V30 18847 H 1783.83 -1.53283 2.85788 0
M  V30 18848 H 1783.62 -0.110972 3.91943 0
M  V30 18849 H 1785.11 -1.09497 4.02989 0
M  V30 18850 N 1785.54 -1.47344 0.559239 0
M  V30 18851 C 1786.51 -2.28516 -0.17688 0
M  V30 18852 C 1787.51 -1.37065 -0.840823 0
M  V30 18853 O 1788.7 -1.59676 -0.696373 0
M  V30 18854 C 1785.83 -3.16803 -1.25892 0
M  V30 18855 H 1787.02 -2.95068 0.536174 0
M  V30 18856 H 1784.58 -1.53067 0.316263 0
M  V30 18857 H 1785.31 -2.54947 -2.00431 0
M  V30 18858 H 1785.1 -3.84108 -0.787625 0
M  V30 18859 H 1786.59 -3.77958 -1.77589 0
M  V30 18860 N 1787.02 -0.295795 -1.54799 0
M  V30 18861 C 1787.95 0.575863 -2.26288 0
M  V30 18862 C 1788.93 1.14217 -1.26049 0
M  V30 18863 O 1790.12 1.17248 -1.54812 0
M  V30 18864 C 1787.25 1.7503 -2.9997 0
M  V30 18865 C 1786.2 1.31459 -4.07311 0
M  V30 18866 C 1785.53 2.57377 -4.6868 0
M  V30 18867 C 1786.83 0.449629 -5.20361 0
M  V30 18868 H 1788.52 -0.0203797 -2.99393 0
M  V30 18869 H 1786.07 -0.0112418 -1.43996 0
M  V30 18870 H 1788.02 2.36615 -3.487 0
M  V30 18871 H 1786.75 2.3727 -2.24434 0
M  V30 18872 H 1785.4 0.721829 -3.59423 0
M  V30 18873 H 1785.05 3.1792 -3.89789 0
M  V30 18874 H 1784.75 2.28927 -5.41171 0
M  V30 18875 H 1786.28 3.19774 -5.2017 0
M  V30 18876 H 1787.69 0.971014 -5.65017 0
M  V30 18877 H 1786.09 0.259121 -5.9954 0
M  V30 18878 H 1787.16 -0.526564 -4.82032 0
M  V30 18879 N 1788.5 1.57583 -0.0234236 0
M  V30 18880 C 1789.43 2.06766 0.988961 0
M  V30 18881 C 1790.45 0.98998 1.29241 0
M  V30 18882 O 1791.64 1.2663 1.25806 0
M  V30 18883 C 1788.74 2.47244 2.31784 0
M  V30 18884 C 1787.91 3.78023 2.20039 0
M  V30 18885 C 1786.97 4.05113 3.35812 0
M  V30 18886 O 1785.99 4.75447 3.12952 0
M  V30 18887 N 1787.2 3.5484 4.59422 0
M  V30 18888 H 1789.96 2.94242 0.569355 0
M  V30 18889 H 1787.52 1.61073 0.163461 0
M  V30 18890 H 1789.51 2.62463 3.08051 0
M  V30 18891 H 1788.08 1.65163 2.65405 0
M  V30 18892 H 1787.3 3.72656 1.28534 0
M  V30 18893 H 1788.59 4.63717 2.09389 0
M  V30 18894 H 1787.99 2.97928 4.8089 0
M  V30 18895 H 1786.55 3.75348 5.32877 0
M  V30 18896 N 1789.98 -0.249655 1.5561 0
M  V30 18897 C 1791.23 -0.979529 1.77576 0
M  V30 18898 C 1791.56 -1.85078 0.588198 0
M  V30 18899 O 1790.83 -1.90052 -0.4136 0
M  V30 18900 C 1791.12 -1.84238 3.094 0
M  V30 18901 C 1790.97 -0.9995 4.38554 0
M  V30 18902 C 1792.29 -2.82536 3.37433 0
M  V30 18903 H 1789.41 -0.354681 0.646042 0
M  V30 18904 H 1792.05 -0.250224 1.88345 0
M  V30 18905 H 1790.2 -2.46419 3.0035 0
M  V30 18906 H 1791.87 -0.396599 4.59592 0
M  V30 18907 H 1790.11 -0.30376 4.32735 0
M  V30 18908 H 1790.79 -1.63697 5.27169 0
M  V30 18909 H 1793.26 -2.30491 3.46429 0
M  V30 18910 H 1792.14 -3.40033 4.30893 0
M  V30 18911 H 1792.4 -3.58859 2.58211 0
M  V30 18912 N 1791.46 -1.48941 -0.515198 0
M  V30 18913 C 1792.69 -1.61396 -1.29457 0
M  V30 18914 C 1793.1 -0.279847 -1.86714 0
M  V30 18915 O 1792.46 0.732861 -1.67139 0
M  V30 18916 C 1792.51 -2.67194 -2.43494 0
M  V30 18917 O 1792.23 -3.95429 -1.88593 0
M  V30 18918 C 1793.73 -2.90224 -3.35089 0
M  V30 18919 H 1790.95 -0.543754 -0.393157 0
M  V30 18920 H 1793.49 -1.94875 -0.619996 0
M  V30 18921 H 1791.65 -2.36532 -3.06808 0
M  V30 18922 H 1792.06 -4.53593 -2.63351 0
M  V30 18923 H 1793.54 -3.68018 -4.1142 0
M  V30 18924 H 1794.01 -1.99601 -3.91224 0
M  V30 18925 H 1794.62 -3.22247 -2.77555 0
M  V30 18926 N 1792.94 0.765193 -1.37777 0
M  V30 18927 C 1793.87 1.888 -1.29951 0
M  V30 18928 C 1794.88 1.61387 -0.213996 0
M  V30 18929 O 1796.07 1.72183 -0.470657 0
M  V30 18930 C 1793.17 3.24178 -0.988004 0
M  V30 18931 C 1792.34 3.79186 -2.18029 0
M  V30 18932 C 1791.4 4.93054 -1.83804 0
M  V30 18933 O 1790.43 5.08296 -2.56172 0
M  V30 18934 N 1791.63 5.75153 -0.786062 0
M  V30 18935 H 1794.39 1.96028 -2.267 0
M  V30 18936 H 1791.96 0.944602 -1.31487 0
M  V30 18937 H 1793.95 3.97881 -0.739771 0
M  V30 18938 H 1792.52 3.1241 -0.108852 0
M  V30 18939 H 1791.74 2.97185 -2.58988 0
M  V30 18940 H 1793.03 4.12669 -2.97627 0
M  V30 18941 H 1792.42 5.65395 -0.185678 0
M  V30 18942 H 1790.98 6.49054 -0.597697 0
M  V30 18943 N 1794.41 1.22455 0.992094 0
M  V30 18944 C 1795.64 1.07594 1.76723 0
M  V30 18945 C 1796.06 -0.37345 1.8507 0
M  V30 18946 O 1795.41 -1.25876 1.32142 0
M  V30 18947 C 1795.46 1.68178 3.19998 0
M  V30 18948 O 1795.19 3.07447 3.12102 0
M  V30 18949 C 1796.69 1.58602 4.13957 0
M  V30 18950 H 1793.91 0.377148 0.554978 0
M  V30 18951 H 1796.45 1.62065 1.24721 0
M  V30 18952 H 1794.61 1.17768 3.69066 0
M  V30 18953 H 1795.02 3.36641 4.0221 0
M  V30 18954 H 1796.49 2.05714 5.12236 0
M  V30 18955 H 1796.97 0.542712 4.35834 0
M  V30 18956 H 1797.58 2.08321 3.70786 0
M  V30 18957 N 1795.89 -1.18905 1.03437 0
M  V30 18958 C 1796.82 -2.24539 0.640669 0
M  V30 18959 C 1797.8 -1.66396 -0.353024 0
M  V30 18960 O 1798.99 -1.92779 -0.234522 0
M  V30 18961 C 1796.12 -3.473 -0.00367731 0
M  V30 18962 C 1795.07 -4.18151 0.912881 0
M  V30 18963 C 1794.4 -5.34534 0.133347 0
M  V30 18964 C 1795.7 -4.72342 2.22913 0
M  V30 18965 H 1797.39 -2.57726 1.52374 0
M  V30 18966 H 1794.94 -1.23883 0.734098 0
M  V30 18967 H 1796.89 -4.20396 -0.290783 0
M  V30 18968 H 1795.61 -3.13328 -0.921578 0
M  V30 18969 H 1794.27 -3.46945 1.18427 0
M  V30 18970 H 1793.92 -4.96809 -0.786762 0
M  V30 18971 H 1793.62 -5.82872 0.743905 0
M  V30 18972 H 1795.15 -6.10423 -0.146889 0
M  V30 18973 H 1796.56 -5.37165 2.00317 0
M  V30 18974 H 1794.96 -5.31189 2.79209 0
M  V30 18975 H 1796.03 -3.90108 2.87999 0
M  V30 18976 N 1797.37 -0.812977 -1.35013 0
M  V30 18977 C 1798.3 -0.185443 -2.28449 0
M  V30 18978 C 1799.31 0.618951 -1.50575 0
M  V30 18979 O 1800.5 0.450262 -1.72728 0
M  V30 18980 C 1797.6 0.759419 -3.30282 0
M  V30 18981 C 1796.78 1.09356e-05 -4.374 0
M  V30 18982 C 1795.84 0.864309 -5.19053 0
M  V30 18983 O 1794.86 0.312916 -5.68339 0
M  V30 18984 N 1796.06 2.18551 -5.37788 0
M  V30 18985 H 1798.83 -0.988144 -2.82941 0
M  V30 18986 H 1796.39 -0.669018 -1.47431 0
M  V30 18987 H 1798.38 1.342 -3.81802 0
M  V30 18988 H 1796.95 1.4629 -2.76257 0
M  V30 18989 H 1796.17 -0.763818 -3.86729 0
M  V30 18990 H 1797.46 -0.523125 -5.06104 0
M  V30 18991 H 1796.86 2.65735 -4.99401 0
M  V30 18992 H 1795.41 2.71718 -5.92463 0
M  V30 18993 N 1798.85 1.47045 -0.567045 0
M  V30 18994 C 1800.09 2.03326 -0.0550208 0
M  V30 18995 C 1800.45 1.4325 1.28441 0
M  V30 18996 O 1799.74 0.582394 1.82534 0
M  V30 18997 C 1799.94 3.57298 0.0855754 0
M  V30 18998 C 1799.76 4.32304 -1.23868 0
M  V30 18999 C 1798.53 4.71822 -1.80864 0
M  V30 19000 C 1800.73 4.66824 -2.15823 0
M  V30 19001 N 1798.71 5.31513 -3.07192 0
M  V30 19002 C 1800.09 5.26921 -3.26733 0
M  V30 19003 C 1802.14 4.48753 -2.15696 0
M  V30 19004 C 1800.84 5.70854 -4.37628 0
M  V30 19005 C 1802.87 4.93692 -3.25611 0
M  V30 19006 C 1802.23 5.53846 -4.3524 0
M  V30 19007 H 1798.33 0.779496 -0.0625352 0
M  V30 19008 H 1800.91 1.79402 -0.7565 0
M  V30 19009 H 1799.09 3.80968 0.756194 0
M  V30 19010 H 1800.82 4.00219 0.600559 0
M  V30 19011 H 1797.57 4.54087 -1.34543 0
M  V30 19012 H 1798 5.65894 -3.71609 0
M  V30 19013 H 1802.64 4.01595 -1.32217 0
M  V30 19014 H 1800.36 6.16998 -5.21861 0
M  V30 19015 H 1803.94 4.81473 -3.26612 0
M  V30 19016 H 1802.82 5.87984 -5.18887 0
M  V30 19017 N 1800.33 0.304 1.5464 0
M  V30 19018 C 1801.57 -0.304845 2.00496 0
M  V30 19019 C 1801.9 -1.53308 1.19206 0
M  V30 19020 O 1801.18 -1.92627 0.269305 0
M  V30 19021 C 1801.46 -0.658462 3.54029 0
M  V30 19022 C 1801.32 0.579125 4.46056 0
M  V30 19023 C 1802.63 -1.4838 4.14332 0
M  V30 19024 H 1799.75 -0.109327 0.728846 0
M  V30 19025 H 1802.4 0.416694 1.85374 0
M  V30 19026 H 1800.55 -1.27319 3.67045 0
M  V30 19027 H 1802.22 1.21758 4.44941 0
M  V30 19028 H 1800.46 1.21179 4.16531 0
M  V30 19029 H 1801.13 0.287518 5.51251 0
M  V30 19030 H 1803.61 -0.964367 4.04771 0
M  V30 19031 H 1802.48 -1.70001 5.21911 0
M  V30 19032 H 1802.74 -2.47394 3.66399 0
M  V30 19033 N 1801.8 -1.57568 0.0317802 0
M  V30 19034 C 1803.05 -1.92194 -0.647238 0
M  V30 19035 C 1803.38 -0.908747 -1.71626 0
M  V30 19036 O 1802.66 0.0681334 -1.94381 0
M  V30 19037 C 1802.94 -3.3729 -1.26124 0
M  V30 19038 C 1802.79 -4.49348 -0.201594 0
M  V30 19039 C 1804.11 -3.824 -2.17849 0
M  V30 19040 H 1801.23 -0.698927 -0.233817 0
M  V30 19041 H 1803.87 -1.89789 0.0895831 0
M  V30 19042 H 1802.02 -3.39471 -1.88922 0
M  V30 19043 H 1803.7 -4.59299 0.429155 0
M  V30 19044 H 1801.94 -4.31218 0.472624 0
M  V30 19045 H 1802.61 -5.47908 -0.670859 0
M  V30 19046 H 1805.09 -3.81972 -1.65034 0
M  V30 19047 H 1803.96 -4.84614 -2.57761 0
M  V30 19048 H 1804.22 -3.18054 -3.07073 0
M  V30 19049 N 1803.28 0.241399 -1.5574 0
M  V30 19050 C 1804.7 0.590176 -1.48287 0
M  V30 19051 C 1804.9 1.8808 -0.723052 0
M  V30 19052 O 1803.95 2.51213 -0.25464 0
M  V30 19053 C 1805.27 0.687804 -2.92728 0
M  V30 19054 C 1806.82 0.779763 -3.03131 0
M  V30 19055 C 1807.29 0.908905 -4.48891 0
M  V30 19056 N 1808.78 0.973636 -4.52852 0
M  V30 19057 C 1809.52 1.09292 -5.62888 0
M  V30 19058 N 1809.01 1.1774 -6.82722 0
M  V30 19059 N 1810.81 1.12651 -5.50696 0
M  V30 19060 H 1802.96 -0.605781 -2.03578 0
M  V30 19061 H 1805.22 -0.209862 -0.924479 0
M  V30 19062 H 1804.93 -0.190608 -3.51183 0
M  V30 19063 H 1804.8 1.55794 -3.43523 0
M  V30 19064 H 1807.19 1.64863 -2.44754 0
M  V30 19065 H 1807.27 -0.115641 -2.55538 0
M  V30 19066 H 1806.91 0.0445788 -5.0788 0
M  V30 19067 H 1806.84 1.81943 -4.9417 0
M  V30 19068 H 1809.33 0.919469 -3.66544 0
M  V30 19069 H 1809.65 1.26764 -7.62332 0
M  V30 19070 H 1807.99 1.14688 -6.85472 0
M  V30 19071 H 1811.18 1.05703 -4.56009 0
M  V30 19072 H 1811.35 1.21602 -6.36488 0
M  V30 19073 N 1804.76 1.49212 0.507292 0
M  V30 19074 C 1805.71 1.65894 1.6304 0
M  V30 19075 C 1806.7 0.524951 1.61061 0
M  V30 19076 O 1807.91 0.704392 1.65645 0
M  V30 19077 H 1804.28 0.522994 0.540353 0
M  V30 19078 H 1806.25 2.60176 1.4612 0
M  V30 19079 C 1805 1.73692 3.01208 0
M  V30 19080 H 1804.33 2.60323 3.03434 0
M  V30 19081 H 1805.77 1.89402 3.79346 0
M  V30 19082 C 1804.23 0.480378 3.33458 0
M  V30 19083 O 1804.76 -0.396732 3.99736 0
M  V30 19084 N 1802.96 0.345216 2.88542 0
M  V30 19085 H 1802.51 1.05997 2.34782 0
M  V30 19086 H 1802.47 -0.494453 3.10488 0
M  V30 19087 N 1806.24 -0.757876 1.38181 0
M  V30 19088 C 1807.48 -1.51822 1.35358 0
M  V30 19089 C 1807.84 -1.92314 -0.0574579 0
M  V30 19090 O 1807.13 -1.62246 -1.01916 0
M  V30 19091 C 1807.33 -2.78548 2.23933 0
M  V30 19092 C 1807.16 -2.50444 3.73508 0
M  V30 19093 C 1805.93 -2.43877 4.42552 0
M  V30 19094 C 1808.12 -2.17507 4.66042 0
M  V30 19095 N 1806.11 -2.08003 5.77588 0
M  V30 19096 C 1807.48 -1.91888 5.89558 0
M  V30 19097 C 1809.53 -2.0378 4.54288 0
M  V30 19098 C 1808.23 -1.53928 7.02637 0
M  V30 19099 C 1810.26 -1.67221 5.67266 0
M  V30 19100 C 1809.62 -1.42472 6.89841 0
M  V30 19101 H 1805.72 -0.555312 0.550593 0
M  V30 19102 H 1808.31 -0.882923 1.7353 0
M  V30 19103 H 1806.48 -3.39893 1.87956 0
M  V30 19104 H 1808.21 -3.44565 2.12267 0
M  V30 19105 H 1804.96 -2.60203 3.95716 0
M  V30 19106 H 1805.39 -1.92723 6.48989 0
M  V30 19107 H 1810.03 -2.21592 3.60079 0
M  V30 19108 H 1807.75 -1.34856 7.96768 0
M  V30 19109 H 1811.33 -1.57238 5.60149 0
M  V30 19110 H 1810.21 -1.14602 7.75781 0
M  V30 19111 N 1807.72 -1.22979 -0.985586 0
M  V30 19112 C 1808.94 -1.0853 -1.7615 0
M  V30 19113 C 1809.36 0.36363 -1.85265 0
M  V30 19114 O 1808.72 1.25173 -1.32808 0
M  V30 19115 C 1808.77 -1.69872 -3.19101 0
M  V30 19116 O 1808.49 -3.09098 -3.10467 0
M  V30 19117 C 1809.99 -1.60795 -4.1311 0
M  V30 19118 H 1807.21 -0.380086 -0.55297 0
M  V30 19119 H 1809.75 -1.62724 -1.2386 0
M  V30 19120 H 1807.91 -1.19724 -3.68436 0
M  V30 19121 H 1808.32 -3.38769 -4.00419 0
M  V30 19122 H 1809.8 -2.08428 -5.11138 0
M  V30 19123 H 1810.27 -0.565817 -4.3554 0
M  V30 19124 H 1810.88 -2.10284 -3.69676 0
M  V30 19125 N 1809.19 1.18355 -1.04066 0
M  V30 19126 C 1810.47 1.8419 -0.65828 0
M  V30 19127 C 1810.85 1.92688 0.862238 0
M  V30 19128 O 1810.2 1.4528 1.76369 0
M  V30 19129 C 1810.41 3.22495 -1.3341 0
M  V30 19130 C 1811.76 3.9853 -1.46489 0
M  V30 19131 O 1812.78 3.31934 -1.29221 0
M  V30 19132 O 1811.64 5.17848 -1.74629 0
M  V30 19133 H 1808.73 0.794278 -0.230329 0
M  V30 19134 H 1811.28 1.25747 -1.13955 0
M  V30 19135 H 1810.05 3.11213 -2.37197 0
M  V30 19136 H 1809.68 3.88594 -0.841449 0
M  V30 19137 N 1810.67 0.820125 1.3458 0
M  V30 19138 C 1811.6 0.254709 2.32107 0
M  V30 19139 C 1812.58 -0.6273 1.58111 0
M  V30 19140 O 1813.77 -0.554759 1.86108 0
M  V30 19141 C 1810.9 -0.586541 3.42311 0
M  V30 19142 C 1809.85 0.198096 4.27541 0
M  V30 19143 C 1809.18 -0.765718 5.29189 0
M  V30 19144 C 1810.48 1.40472 5.03056 0
M  V30 19145 H 1812.17 1.06955 2.79644 0
M  V30 19146 H 1809.72 0.515756 1.34447 0
M  V30 19147 H 1811.67 -0.992259 4.09551 0
M  V30 19148 H 1810.4 -1.4344 2.93415 0
M  V30 19149 H 1809.05 0.585149 3.619 0
M  V30 19150 H 1808.7 -1.60946 4.76556 0
M  V30 19151 H 1808.4 -0.244954 5.87089 0
M  V30 19152 H 1809.93 -1.16935 5.99298 0
M  V30 19153 H 1811.34 1.07316 5.63166 0
M  V30 19154 H 1809.74 1.86092 5.70517 0
M  V30 19155 H 1810.81 2.18437 4.32913 0
M  V30 19156 N 1812.15 -1.46743 0.574835 0
M  V30 19157 C 1813.06 -2.34015 -0.16559 0
M  V30 19158 C 1814.08 -1.49273 -0.894064 0
M  V30 19159 O 1815.25 -1.82162 -0.859013 0
M  V30 19160 C 1812.32 -3.26313 -1.17136 0
M  V30 19161 C 1811.38 -4.26952 -0.448413 0
M  V30 19162 C 1810.61 -5.1484 -1.40627 0
M  V30 19163 O 1810.83 -5.05508 -2.6423 0
M  V30 19164 O 1809.77 -5.9481 -0.921143 0
M  V30 19165 H 1813.59 -2.98664 0.550754 0
M  V30 19166 H 1811.18 -1.45589 0.335297 0
M  V30 19167 H 1813.06 -3.83276 -1.75149 0
M  V30 19168 H 1811.74 -2.64269 -1.86931 0
M  V30 19169 H 1810.64 -3.73698 0.17336 0
M  V30 19170 H 1811.98 -4.91759 0.208419 0
M  V30 19171 N 1813.63 -0.312197 -1.54477 0
M  V30 19172 C 1814.58 0.57453 -2.25393 0
M  V30 19173 C 1815.57 1.12789 -1.26392 0
M  V30 19174 O 1816.78 1.07724 -1.44207 0
M  V30 19175 H 1813.15 0.203904 -0.723828 0
M  V30 19176 H 1815.12 -0.0459918 -2.98365 0
M  V30 19177 C 1813.87 1.72942 -3.01639 0
M  V30 19178 H 1813.19 1.31286 -3.7763 0
M  V30 19179 H 1814.63 2.3257 -3.54524 0
M  V30 19180 C 1813.09 2.64026 -2.09266 0
M  V30 19181 O 1813.62 3.65431 -1.66803 0
M  V30 19182 N 1811.83 2.32007 -1.74989 0
M  V30 19183 H 1811.38 1.49588 -2.09717 0
M  V30 19184 H 1811.33 2.93213 -1.1346 0
M  V30 19185 N 1815.11 1.57549 -0.040136 0
M  V30 19186 C 1816.33 1.96967 0.649517 0
M  V30 19187 C 1816.76 0.917056 1.64231 0
M  V30 19188 O 1816.11 -0.120899 1.80896 0
M  V30 19189 C 1816.16 3.35471 1.32256 0
M  V30 19190 O 1815.27 3.32615 2.43806 0
M  V30 19191 H 1814.61 0.641933 0.169758 0
M  V30 19192 H 1817.14 2.04329 -0.105261 0
M  V30 19193 H 1817.15 3.71951 1.6768 0
M  V30 19194 H 1815.82 4.11623 0.594895 0
M  V30 19195 H 1814.4 3.07867 2.10411 0
M  V30 19196 N 1816.58 -0.233136 1.55866 0
M  V30 19197 C 1817.83 -0.957205 1.7754 0
M  V30 19198 C 1818.15 -1.85956 0.606601 0
M  V30 19199 O 1819.35 -2.62142 0.706687 0
M  V30 19200 C 1817.81 -1.75215 3.14369 0
M  V30 19201 C 1817.42 -0.896509 4.38938 0
M  V30 19202 C 1819.16 -2.46813 3.45374 0
M  V30 19203 C 1817.07 -1.68814 5.66794 0
M  V30 19204 H 1816 -0.361139 0.661887 0
M  V30 19205 H 1818.65 -0.211424 1.82278 0
M  V30 19206 H 1817.03 -2.54041 3.03775 0
M  V30 19207 H 1818.2 -0.149614 4.60557 0
M  V30 19208 H 1816.52 -0.293211 4.15366 0
M  V30 19209 H 1819.12 -3.0652 4.38121 0
M  V30 19210 H 1819.46 -3.19121 2.67334 0
M  V30 19211 H 1819.99 -1.74987 3.57245 0
M  V30 19212 H 1816.73 -1.00855 6.47695 0
M  V30 19213 H 1816.25 -2.40995 5.49255 0
M  V30 19214 H 1817.93 -2.25178 6.06551 0
M  V30 19215 N 1818.06 -1.49479 -0.499372 0
M  V30 19216 C 1819.31 -1.59284 -1.25525 0
M  V30 19217 C 1819.64 -0.27941 -1.92179 0
M  V30 19218 O 1818.92 0.717142 -1.80796 0
M  V30 19219 C 1819.2 -2.75323 -2.32098 0
M  V30 19220 C 1819.05 -4.16464 -1.69934 0
M  V30 19221 C 1820.37 -2.86998 -3.33646 0
M  V30 19222 H 1817.49 -0.579768 -0.455015 0
M  V30 19223 H 1820.13 -1.81769 -0.553165 0
M  V30 19224 H 1818.28 -2.56282 -2.91979 0
M  V30 19225 H 1819.96 -4.47026 -1.13867 0
M  V30 19226 H 1818.2 -4.22036 -1.0034 0
M  V30 19227 H 1818.87 -4.93534 -2.47242 0
M  V30 19228 H 1821.35 -3.04337 -2.83757 0
M  V30 19229 H 1820.22 -3.69865 -4.05575 0
M  V30 19230 H 1820.48 -1.96419 -3.9607 0
M  V30 19231 N 1819.54 0.750537 -1.38581 0
M  V30 19232 C 1820.77 1.54489 -1.38376 0
M  V30 19233 C 1821.19 1.88085 0.023634 0
M  V30 19234 O 1820.55 1.50794 1.00652 0
M  V30 19235 C 1820.6 2.81875 -2.24897 0
M  V30 19236 O 1819.7 3.77155 -1.66817 0
M  V30 19237 H 1819.04 0.467148 -0.471878 0
M  V30 19238 H 1821.57 0.927264 -1.82381 0
M  V30 19239 H 1821.58 3.30769 -2.38864 0
M  V30 19240 H 1820.26 2.56753 -3.27186 0
M  V30 19241 H 1818.83 3.35868 -1.62009 0
M  V30 19242 N 1821.02 1.235 0.979051 0
M  V30 19243 C 1822.27 1.06949 1.72307 0
M  V30 19244 C 1822.6 -0.392491 1.90192 0
M  V30 19245 O 1821.87 -1.29054 1.45518 0
M  V30 19246 C 1822.16 1.79705 3.12055 0
M  V30 19247 C 1822.01 3.33583 3.01732 0
M  V30 19248 C 1823.33 1.56062 4.11501 0
M  V30 19249 H 1820.45 0.389917 0.625407 0
M  V30 19250 H 1823.09 1.52022 1.1397 0
M  V30 19251 H 1821.24 1.4139 3.61858 0
M  V30 19252 H 1822.91 3.81428 2.59443 0
M  V30 19253 H 1821.15 3.62547 2.38206 0
M  V30 19254 H 1821.83 3.79681 4.00683 0
M  V30 19255 H 1824.3 1.8937 3.70511 0
M  V30 19256 H 1823.18 2.09442 5.07371 0
M  V30 19257 H 1823.44 0.496276 4.39306 0
M  V30 19258 N 1822.5 -1.17802 1.04693 0
M  V30 19259 C 1823.41 -2.25298 0.654072 0
M  V30 19260 C 1824.42 -1.70984 -0.32255 0
M  V30 19261 O 1825.6 -2.0063 -0.175904 0
M  V30 19262 C 1822.66 -3.46687 0.0296345 0
M  V30 19263 C 1821.73 -4.16108 1.05606 0
M  V30 19264 C 1820.96 -5.31702 0.461329 0
M  V30 19265 O 1821.18 -5.65701 -0.730679 0
M  V30 19266 O 1820.12 -5.89956 1.19312 0
M  V30 19267 H 1823.94 -2.61179 1.54982 0
M  V30 19268 H 1821.53 -1.25005 0.818182 0
M  V30 19269 H 1823.41 -4.20201 -0.317654 0
M  V30 19270 H 1822.08 -3.12615 -0.839839 0
M  V30 19271 H 1820.99 -3.44635 1.45526 0
M  V30 19272 H 1822.32 -4.54195 1.89651 0
M  V30 19273 N 1823.98 -0.827251 -1.34143 0
M  V30 19274 C 1825.39 -0.513554 -1.51112 0
M  V30 19275 C 1825.59 0.961434 -1.77084 0
M  V30 19276 O 1824.65 1.74573 -1.82429 0
M  V30 19277 C 1825.96 -1.37683 -2.67327 0
M  V30 19278 C 1827.51 -1.3744 -2.8121 0
M  V30 19279 C 1827.98 -2.22226 -4.00474 0
M  V30 19280 N 1829.47 -2.19873 -4.07689 0
M  V30 19281 C 1830.21 -2.82222 -4.99138 0
M  V30 19282 N 1829.71 -3.53578 -5.95781 0
M  V30 19283 N 1831.5 -2.71753 -4.92043 0
M  V30 19284 H 1823.65 -1.78222 -1.15545 0
M  V30 19285 H 1825.91 -0.759711 -0.567047 0
M  V30 19286 H 1825.62 -2.42448 -2.54778 0
M  V30 19287 H 1825.49 -1.0446 -3.62447 0
M  V30 19288 H 1827.88 -0.334525 -2.93198 0
M  V30 19289 H 1827.96 -1.74663 -1.86886 0
M  V30 19290 H 1827.6 -3.26266 -3.89246 0
M  V30 19291 H 1827.53 -1.82352 -4.9402 0
M  V30 19292 H 1830.03 -1.67972 -3.38517 0
M  V30 19293 H 1830.34 -3.98387 -6.62199 0
M  V30 19294 H 1828.68 -3.57685 -5.95892 0
M  V30 19295 H 1831.87 -2.15579 -4.15504 0
M  V30 19296 H 1832.05 -3.2063 -5.63117 0
M  V30 19297 N 1825.45 1.46436 -0.582609 0
M  V30 19298 C 1826.39 2.2733 0.199056 0
M  V30 19299 C 1827.36 1.35621 0.896981 0
M  V30 19300 O 1828.55 1.65031 0.910887 0
M  V30 19301 C 1825.68 3.13352 1.28563 0
M  V30 19302 C 1824.72 4.20823 0.69355 0
M  V30 19303 S 1825.55 5.33349 -0.479488 0
M  V30 19304 C 1826.71 6.22937 0.608287 0
M  V30 19305 H 1826.94 2.93279 -0.487326 0
M  V30 19306 H 1824.48 1.49913 -0.369502 0
M  V30 19307 H 1826.43 3.63476 1.90775 0
M  V30 19308 H 1825.1 2.46716 1.94396 0
M  V30 19309 H 1824.29 4.80839 1.5103 0
M  V30 19310 H 1823.89 3.73711 0.147092 0
M  V30 19311 H 1826.18 6.60823 1.49397 0
M  V30 19312 H 1827.13 7.08086 0.0448907 0
M  V30 19313 H 1827.53 5.57078 0.912387 0
M  V30 19314 N 1826.93 0.320385 1.54309 0
M  V30 19315 C 1827.86 -0.580992 2.21714 0
M  V30 19316 C 1828.88 -1.08236 1.21609 0
M  V30 19317 O 1830.07 -0.996489 1.48096 0
M  V30 19318 C 1827.17 -1.80961 2.86542 0
M  V30 19319 C 1826.34 -1.44746 4.12756 0
M  V30 19320 C 1825.4 -2.53327 4.61207 0
M  V30 19321 O 1824.42 -2.17605 5.25963 0
M  V30 19322 N 1825.63 -3.84204 4.35164 0
M  V30 19323 H 1828.39 -0.00384608 2.997 0
M  V30 19324 H 1825.95 0.143444 1.61263 0
M  V30 19325 H 1827.94 -2.52985 3.1588 0
M  V30 19326 H 1826.51 -2.29468 2.12281 0
M  V30 19327 H 1825.73 -0.55899 3.90217 0
M  V30 19328 H 1827.02 -1.18116 4.949 0
M  V30 19329 H 1826.42 -4.16026 3.83326 0
M  V30 19330 H 1824.98 -4.52468 4.69165 0
M  V30 19331 N 1828.41 -1.57525 0.0484906 0
M  V30 19332 C 1829.69 -1.83927 -0.66561 0
M  V30 19333 C 1830.07 -0.93636 -1.89197 0
M  V30 19334 O 1829.41 0.00326905 -2.285 0
M  V30 19335 C 1829.62 -3.33595 -1.02545 0
M  V30 19336 C 1830.97 -4.00544 -1.40889 0
M  V30 19337 O 1832 -3.38204 -1.11787 0
M  V30 19338 O 1830.86 -5.10454 -1.95189 0
M  V30 19339 H 1827.95 -0.759042 -0.328305 0
M  V30 19340 H 1830.5 -1.69522 0.0776497 0
M  V30 19341 H 1829.27 -3.90999 -0.153456 0
M  V30 19342 H 1828.89 -3.53177 -1.82625 0
M  V30 19343 N 1829.89 0.224867 -1.55988 0
M  V30 19344 C 1831.12 0.965325 -1.82661 0
M  V30 19345 C 1831.53 1.78581 -0.624935 0
M  V30 19346 O 1830.87 1.7893 0.415886 0
M  V30 19347 C 1830.93 1.93444 -3.03018 0
M  V30 19348 C 1830.59 1.29879 -4.38156 0
M  V30 19349 C 1831.59 0.69031 -5.15297 0
M  V30 19350 C 1829.28 1.31155 -4.84875 0
M  V30 19351 C 1831.27 0.103067 -6.37317 0
M  V30 19352 C 1828.96 0.720461 -6.06838 0
M  V30 19353 C 1829.96 0.11727 -6.82899 0
M  V30 19354 O 1829.64 -0.464631 -8.02556 0
M  V30 19355 H 1829.38 0.288651 -0.611275 0
M  V30 19356 H 1831.93 0.246237 -2.03919 0
M  V30 19357 H 1830.16 2.69243 -2.7757 0
M  V30 19358 H 1831.85 2.54017 -3.16592 0
M  V30 19359 H 1832.61 0.672801 -4.80311 0
M  V30 19360 H 1828.49 1.77044 -4.25648 0
M  V30 19361 H 1832.04 -0.368366 -6.96627 0
M  V30 19362 H 1827.93 0.735372 -6.41298 0
M  V30 19363 H 1828.7 -0.358628 -8.17714 0
M  V30 19364 N 1831.37 1.49742 0.491438 0
M  V30 19365 C 1832.33 1.66587 1.57421 0
M  V30 19366 C 1833.33 0.537281 1.51558 0
M  V30 19367 O 1834.52 0.803928 1.5454 0
M  V30 19368 C 1831.65 1.67217 2.97071 0
M  V30 19369 H 1832.84 2.63171 1.4381 0
M  V30 19370 H 1830.4 1.38917 0.716368 0
M  V30 19371 H 1831.13 0.722529 3.16149 0
M  V30 19372 H 1830.92 2.49187 3.02734 0
M  V30 19373 H 1832.41 1.82274 3.75721 0
M  V30 19374 N 1832.84 -0.743177 1.38977 0
M  V30 19375 C 1834.09 -1.50377 1.36961 0
M  V30 19376 C 1834.45 -1.92364 -0.0370572 0
M  V30 19377 O 1833.74 -1.63317 -1.0019 0
M  V30 19378 C 1833.93 -2.76157 2.26874 0
M  V30 19379 C 1833.76 -2.46468 3.76143 0
M  V30 19380 C 1832.53 -2.3917 4.45113 0
M  V30 19381 C 1834.73 -2.12552 4.68323 0
M  V30 19382 N 1832.71 -2.01865 5.79762 0
M  V30 19383 C 1834.08 -1.85625 5.9156 0
M  V30 19384 C 1836.14 -1.98951 4.56424 0
M  V30 19385 C 1834.84 -1.46467 7.0423 0
M  V30 19386 C 1836.87 -1.61195 5.69008 0
M  V30 19387 C 1836.23 -1.35147 6.91314 0
M  V30 19388 H 1832.33 -0.549441 0.556452 0
M  V30 19389 H 1834.91 -0.864468 1.74456 0
M  V30 19390 H 1833.08 -3.3788 1.9155 0
M  V30 19391 H 1834.81 -3.42294 2.15909 0
M  V30 19392 H 1831.57 -2.55991 3.98454 0
M  V30 19393 H 1831.99 -1.85829 6.50997 0
M  V30 19394 H 1836.64 -2.1776 3.62409 0
M  V30 19395 H 1834.35 -1.26397 7.98154 0
M  V30 19396 H 1837.94 -1.51288 5.61786 0
M  V30 19397 H 1836.82 -1.06368 7.76953 0
M  V30 19398 N 1834.32 -1.24018 -0.972487 0
M  V30 19399 C 1835.55 -1.10392 -1.74989 0
M  V30 19400 C 1835.97 0.34396 -1.8564 0
M  V30 19401 O 1835.32 1.23757 -1.34128 0
M  V30 19402 C 1835.37 -1.73247 -3.17282 0
M  V30 19403 O 1835.09 -3.12374 -3.07171 0
M  V30 19404 C 1836.6 -1.65168 -4.11381 0
M  V30 19405 H 1833.82 -0.38593 -0.548907 0
M  V30 19406 H 1836.36 -1.64028 -1.22127 0
M  V30 19407 H 1834.51 -1.23625 -3.67145 0
M  V30 19408 H 1834.93 -3.42997 -3.96804 0
M  V30 19409 H 1836.4 -2.13837 -5.08898 0
M  V30 19410 H 1836.88 -0.61198 -4.34915 0
M  V30 19411 H 1837.49 -2.14194 -3.67425 0
M  V30 19412 N 1835.8 1.17245 -1.05316 0
M  V30 19413 C 1837.21 1.69167 -0.789906 0
M  V30 19414 C 1837.56 1.83751 0.687762 0
M  V30 19415 O 1836.69 1.52596 1.53438 0
M  V30 19416 C 1837.28 3.07269 -1.42728 0
M  V30 19417 C 1835.84 3.56352 -1.21204 0
M  V30 19418 C 1834.99 2.3258 -1.51003 0
M  V30 19419 H 1837.94 1.01744 -1.21794 0
M  V30 19420 H 1837.96 3.71175 -0.837236 0
M  V30 19421 H 1837.47 2.96622 -2.50273 0
M  V30 19422 H 1835.57 3.72274 -0.155891 0
M  V30 19423 H 1835.69 4.39038 -1.91787 0
M  V30 19424 H 1834.05 2.37107 -0.930172 0
M  V30 19425 H 1834.83 2.2454 -2.59685 0
M  V30 19426 N 1837.28 0.834353 1.33702 0
M  V30 19427 C 1838.23 0.26233 2.29304 0
M  V30 19428 C 1839.2 -0.619326 1.54122 0
M  V30 19429 O 1840.38 -0.558551 1.82441 0
M  V30 19430 C 1837.52 -0.560341 3.4052 0
M  V30 19431 C 1836.63 0.344832 4.30622 0
M  V30 19432 C 1835.77 -0.488505 5.28949 0
M  V30 19433 C 1834.81 0.415341 6.10689 0
M  V30 19434 N 1833.94 -0.3796 7.01073 0
M  V30 19435 H 1838.78 1.08291 2.77628 0
M  V30 19436 H 1836.32 0.545497 1.36612 0
M  V30 19437 H 1838.28 -1.05274 4.03699 0
M  V30 19438 H 1836.91 -1.34593 2.93402 0
M  V30 19439 H 1835.96 0.955519 3.68204 0
M  V30 19440 H 1837.27 1.03935 4.87851 0
M  V30 19441 H 1836.43 -1.04492 5.97634 0
M  V30 19442 H 1835.17 -1.21648 4.72285 0
M  V30 19443 H 1834.17 0.983803 5.40926 0
M  V30 19444 H 1835.4 1.1416 6.69436 0
M  V30 19445 H 1833.34 -1.09103 6.46864 0
M  V30 19446 H 1833.26 0.25629 7.55565 0
M  V30 19447 H 1834.53 -0.918394 7.74071 0
M  V30 19448 N 1838.76 -1.46125 0.590367 0
M  V30 19449 C 1839.67 -2.34177 -0.140761 0
M  V30 19450 C 1840.68 -1.50213 -0.878181 0
M  V30 19451 O 1841.86 -1.83063 -0.839644 0
M  V30 19452 C 1838.92 -3.27537 -1.13669 0
M  V30 19453 C 1837.98 -4.27403 -0.403103 0
M  V30 19454 C 1837.22 -5.16302 -1.35159 0
M  V30 19455 O 1837.44 -5.08283 -2.58853 0
M  V30 19456 O 1836.37 -5.95753 -0.858003 0
M  V30 19457 H 1840.2 -2.98063 0.582401 0
M  V30 19458 H 1837.79 -1.45225 0.35072 0
M  V30 19459 H 1839.67 -3.85112 -1.71074 0
M  V30 19460 H 1838.34 -2.66237 -1.84118 0
M  V30 19461 H 1837.25 -3.73493 0.212986 0
M  V30 19462 H 1838.58 -4.9151 0.260565 0
M  V30 19463 N 1840.23 -0.328564 -1.54137 0
M  V30 19464 C 1841.2 0.52248 -2.23165 0
M  V30 19465 C 1842.2 1.03956 -1.22677 0
M  V30 19466 O 1843.39 0.931193 -1.47222 0
M  V30 19467 C 1840.52 1.72624 -2.93962 0
M  V30 19468 H 1841.71 -0.081023 -2.99791 0
M  V30 19469 H 1839.27 -0.0797096 -1.56097 0
M  V30 19470 H 1840 2.36885 -2.21486 0
M  V30 19471 H 1839.79 1.36283 -3.67654 0
M  V30 19472 H 1841.28 2.33023 -3.4654 0
M  V30 19473 N 1841.71 1.57497 -0.0568439 0
M  V30 19474 C 1843.12 1.80477 0.478027 0
M  V30 19475 C 1843.47 0.969549 1.7057 0
M  V30 19476 O 1842.6 0.187756 2.15584 0
M  V30 19477 C 1843.19 3.27332 0.874013 0
M  V30 19478 C 1841.75 3.5121 1.35383 0
M  V30 19479 C 1840.9 2.75308 0.331752 0
M  V30 19480 H 1843.85 1.56162 -0.282678 0
M  V30 19481 H 1843.87 3.38563 1.73653 0
M  V30 19482 H 1843.38 3.88095 -0.019701 0
M  V30 19483 H 1841.49 2.95734 2.26655 0
M  V30 19484 H 1841.6 4.59919 1.34208 0
M  V30 19485 H 1839.96 2.41616 0.805851 0
M  V30 19486 H 1840.75 3.38801 -0.553975 0
M  V30 19487 N 1843.19 -0.216591 1.56105 0
M  V30 19488 C 1844.44 -0.937215 1.80521 0
M  V30 19489 C 1844.79 -1.81772 0.630605 0
M  V30 19490 O 1844.08 -1.87891 -0.375149 0
M  V30 19491 C 1844.28 -1.80637 3.08391 0
M  V30 19492 C 1844.11 -1.01149 4.38177 0
M  V30 19493 C 1842.88 -0.704448 5.00365 0
M  V30 19494 C 1845.08 -0.374425 5.12935 0
M  V30 19495 N 1843.06 0.11131 6.13799 0
M  V30 19496 C 1844.43 0.3045 6.19252 0
M  V30 19497 C 1846.48 -0.287961 4.97067 0
M  V30 19498 C 1845.19 1.06163 7.11423 0
M  V30 19499 C 1847.21 0.45571 5.89642 0
M  V30 19500 C 1846.57 1.12316 6.95388 0
M  V30 19501 H 1842.67 -0.323053 0.712152 0
M  V30 19502 H 1845.26 -0.207675 1.93589 0
M  V30 19503 H 1843.43 -2.50768 2.96597 0
M  V30 19504 H 1845.16 -2.46484 3.20979 0
M  V30 19505 H 1841.92 -1.02368 4.62404 0
M  V30 19506 H 1842.34 0.508169 6.7509 0
M  V30 19507 H 1846.98 -0.789639 4.15361 0
M  V30 19508 H 1844.7 1.57481 7.92607 0
M  V30 19509 H 1848.29 0.523682 5.79438 0
M  V30 19510 H 1847.17 1.68941 7.65786 0
M  V30 19511 N 1844.67 -1.5 -0.48349 0
M  V30 19512 C 1846.08 -1.37151 -0.816192 0
M  V30 19513 C 1846.28 -0.418047 -1.97116 0
M  V30 19514 O 1845.34 0.143884 -2.5209 0
M  V30 19515 C 1846.65 -2.78256 -1.13992 0
M  V30 19516 C 1848.2 -2.87082 -1.2471 0
M  V30 19517 C 1848.68 -4.28993 -1.60403 0
M  V30 19518 N 1850.17 -4.31886 -1.67419 0
M  V30 19519 C 1850.9 -5.38673 -1.96516 0
M  V30 19520 N 1850.4 -6.55685 -2.23718 0
M  V30 19521 N 1852.19 -5.26105 -1.97914 0
M  V30 19522 H 1844.34 -2.10575 0.277847 0
M  V30 19523 H 1846.61 -0.945986 0.0617554 0
M  V30 19524 H 1846.31 -3.49807 -0.364448 0
M  V30 19525 H 1846.19 -3.14724 -2.07916 0
M  V30 19526 H 1848.57 -2.15758 -2.01327 0
M  V30 19527 H 1848.65 -2.54174 -0.287959 0
M  V30 19528 H 1848.3 -5.0085 -0.84331 0
M  V30 19529 H 1848.23 -4.59379 -2.57447 0
M  V30 19530 H 1850.72 -3.47506 -1.48487 0
M  V30 19531 H 1851.03 -7.32883 -2.45158 0
M  V30 19532 H 1849.38 -6.58881 -2.21136 0
M  V30 19533 H 1852.57 -4.33692 -1.76151 0
M  V30 19534 H 1852.74 -6.09419 -2.20256 0
M  V30 19535 N 1846.15 0.735796 -1.39369 0
M  V30 19536 C 1847.08 1.86303 -1.4076 0
M  V30 19537 C 1848.06 1.67926 -0.27107 0
M  V30 19538 O 1849.24 1.88257 -0.476773 0
M  V30 19539 C 1846.37 3.24043 -1.24955 0
M  V30 19540 C 1845.33 3.57055 -2.35999 0
M  V30 19541 C 1844.65 4.93723 -2.05284 0
M  V30 19542 C 1845.95 3.60109 -3.7831 0
M  V30 19543 H 1847.65 1.85396 -2.35093 0
M  V30 19544 H 1845.19 0.890552 -1.1316 0
M  V30 19545 H 1847.15 4.02574 -1.24549 0
M  V30 19546 H 1845.87 3.25475 -0.270902 0
M  V30 19547 H 1844.53 2.80853 -2.35621 0
M  V30 19548 H 1844.18 4.91734 -1.05859 0
M  V30 19549 H 1843.88 5.16779 -2.79667 0
M  V30 19550 H 1845.4 5.74612 -2.06527 0
M  V30 19551 H 1846.81 4.28718 -3.80622 0
M  V30 19552 H 1845.21 3.94683 -4.52046 0
M  V30 19553 H 1846.28 2.59932 -4.09345 0
M  V30 19554 N 1847.63 1.24532 0.965897 0
M  V30 19555 C 1849.04 1.07886 1.52373 0
M  V30 19556 C 1849.39 -0.349136 1.93069 0
M  V30 19557 O 1848.51 -1.23774 1.77508 0
M  V30 19558 C 1849.11 1.95224 2.76899 0
M  V30 19559 C 1847.67 1.82796 3.29033 0
M  V30 19560 C 1846.81 1.9005 2.01931 0
M  V30 19561 H 1849.76 1.37982 0.783997 0
M  V30 19562 H 1849.79 1.48558 3.50301 0
M  V30 19563 H 1849.3 2.99148 2.47249 0
M  V30 19564 H 1847.4 0.817115 3.6353 0
M  V30 19565 H 1847.51 2.66989 3.97811 0
M  V30 19566 H 1845.88 1.338 2.16725 0
M  V30 19567 H 1846.66 2.95558 1.74644 0
M  V30 19568 N 1849.1 -1.16685 1.05936 0
M  V30 19569 C 1850.33 -1.91035 0.794553 0
M  V30 19570 C 1850.75 -1.77234 -0.650663 0
M  V30 19571 O 1850.1 -1.11454 -1.44514 0
M  V30 19572 C 1850.15 -3.41859 1.17536 0
M  V30 19573 O 1849.88 -3.55243 2.56386 0
M  V30 19574 C 1851.38 -4.33267 0.937774 0
M  V30 19575 H 1848.6 -0.605896 0.288325 0
M  V30 19576 H 1851.14 -1.47925 1.41203 0
M  V30 19577 H 1849.3 -3.82686 0.602486 0
M  V30 19578 H 1849.71 -4.48744 2.71531 0
M  V30 19579 H 1851.18 -5.3757 1.25389 0
M  V30 19580 H 1851.66 -4.39017 -0.126673 0
M  V30 19581 H 1852.27 -3.98163 1.49486 0
M  V30 19582 N 1850.58 -0.841432 -1.33258 0
M  V30 19583 C 1851.82 -0.444487 -1.99509 0
M  V30 19584 C 1852.19 0.978547 -1.65192 0
M  V30 19585 O 1853.39 1.47935 -2.24429 0
M  V30 19586 C 1851.66 -0.661677 -3.51222 0
M  V30 19587 S 1853.22 -0.360334 -4.37318 0
M  V30 19588 H 1850.03 -0.167079 -0.69109 0
M  V30 19589 H 1852.64 -1.09127 -1.62208 0
M  V30 19590 H 1851.34 -1.69669 -3.73685 0
M  V30 19591 H 1850.87 -0.000828389 -3.934 0
M  V30 19592 H 1852.89 0.818884 -4.89396 0
M  V30 19593 N 1852.06 1.4581 -0.598108 0
M  V30 19594 C 1853.02 2.28905 0.11623 0
M  V30 19595 C 1854.02 1.39246 0.804187 0
M  V30 19596 O 1855.21 1.61466 0.653793 0
M  V30 19597 C 1852.34 3.20029 1.17449 0
M  V30 19598 H 1853.54 2.93543 -0.614217 0
M  V30 19599 H 1851.09 1.52175 -0.356735 0
M  V30 19600 H 1851.83 2.60171 1.93601 0
M  V30 19601 H 1851.61 3.86061 0.685508 0
M  V30 19602 H 1853.1 3.82533 1.67505 0
M  V30 19603 N 1853.54 0.336733 1.53961 0
M  V30 19604 C 1854.5 -0.510638 2.23439 0
M  V30 19605 C 1855.5 -1.03304 1.23227 0
M  V30 19606 O 1856.69 -0.923373 1.47714 0
M  V30 19607 C 1853.82 -1.71063 2.94873 0
M  V30 19608 H 1855.02 0.0969205 2.99743 0
M  V30 19609 H 1852.57 0.0879867 1.56052 0
M  V30 19610 H 1853.3 -2.35707 2.22739 0
M  V30 19611 H 1853.09 -1.34331 3.68371 0
M  V30 19612 H 1854.58 -2.31182 3.47771 0
M  V30 19613 N 1855.02 -1.57465 0.0651956 0
M  V30 19614 C 1855.95 -2.09315 -0.933793 0
M  V30 19615 C 1856.96 -1.0239 -1.26571 0
M  V30 19616 O 1858.15 -1.29921 -1.22405 0
M  V30 19617 C 1855.25 -2.53302 -2.25147 0
M  V30 19618 C 1854.42 -3.83724 -2.09939 0
M  V30 19619 C 1853.48 -4.13874 -3.24953 0
M  V30 19620 O 1852.51 -4.83577 -3.00236 0
M  V30 19621 N 1853.71 -3.66896 -4.49853 0
M  V30 19622 H 1856.47 -2.95648 -0.491142 0
M  V30 19623 H 1854.04 -1.61449 -0.120698 0
M  V30 19624 H 1856.03 -2.70538 -3.00984 0
M  V30 19625 H 1854.6 -1.72142 -2.60933 0
M  V30 19626 H 1853.82 -3.75933 -1.18609 0
M  V30 19627 H 1855.11 -4.69106 -1.9702 0
M  V30 19628 H 1854.5 -3.10573 -4.72822 0
M  V30 19629 H 1853.06 -3.89344 -5.22738 0
M  V30 19630 N 1856.49 0.20831 -1.56217 0
M  V30 19631 C 1857.9 0.774162 -1.69893 0
M  V30 19632 C 1858.26 1.84424 -0.669506 0
M  V30 19633 O 1857.38 2.15677 0.176748 0
M  V30 19634 C 1857.98 1.41102 -3.08019 0
M  V30 19635 C 1856.53 1.9241 -3.23505 0
M  V30 19636 C 1855.68 0.789129 -2.65835 0
M  V30 19637 H 1858.63 -0.0165614 -1.58691 0
M  V30 19638 H 1858.65 2.28015 -3.04614 0
M  V30 19639 H 1858.17 0.631966 -3.8292 0
M  V30 19640 H 1856.27 2.73076 -2.53496 0
M  V30 19641 H 1856.38 2.09497 -4.30868 0
M  V30 19642 H 1854.74 1.19995 -2.24663 0
M  V30 19643 H 1855.53 0.0225345 -3.43293 0
M  V30 19644 N 1857.97 1.50255 0.475528 0
M  V30 19645 C 1859.38 1.53931 1.05651 0
M  V30 19646 C 1859.73 0.340226 1.93228 0
M  V30 19647 O 1858.86 -0.547349 2.09363 0
M  V30 19648 C 1859.45 2.78951 1.92281 0
M  V30 19649 C 1858.01 2.85323 2.45495 0
M  V30 19650 C 1857.16 2.48166 1.2373 0
M  V30 19651 H 1860.11 1.56583 0.258332 0
M  V30 19652 H 1860.13 2.60555 2.77293 0
M  V30 19653 H 1859.64 3.66205 1.28514 0
M  V30 19654 H 1857.74 2.0241 3.12827 0
M  V30 19655 H 1857.86 3.88109 2.80906 0
M  V30 19656 H 1856.22 2.00505 1.57066 0
M  V30 19657 H 1857 3.37722 0.616324 0
M  V30 19658 N 1859.45 -0.728395 1.39758 0
M  V30 19659 C 1860.7 -1.48916 1.38548 0
M  V30 19660 C 1861.05 -1.92393 -0.0166523 0
M  V30 19661 O 1860.34 -1.64371 -0.984518 0
M  V30 19662 C 1860.54 -2.73735 2.29791 0
M  V30 19663 C 1860.37 -2.42465 3.78736 0
M  V30 19664 C 1859.14 -2.34435 4.47625 0
M  V30 19665 C 1861.33 -2.07573 4.70551 0
M  V30 19666 N 1859.32 -1.95705 5.8187 0
M  V30 19667 C 1860.69 -1.7934 5.93496 0
M  V30 19668 C 1862.74 -1.94098 4.58509 0
M  V30 19669 C 1861.45 -1.38989 7.05744 0
M  V30 19670 C 1863.47 -1.55151 5.70686 0
M  V30 19671 C 1862.83 -1.27807 6.92708 0
M  V30 19672 H 1858.93 -0.543508 0.562248 0
M  V30 19673 H 1861.52 -0.845916 1.75363 0
M  V30 19674 H 1859.69 -3.3583 1.95123 0
M  V30 19675 H 1861.42 -3.39985 2.19528 0
M  V30 19676 H 1858.17 -2.51751 4.01146 0
M  V30 19677 H 1858.6 -1.78914 6.52931 0
M  V30 19678 H 1863.24 -2.13904 3.64698 0
M  V30 19679 H 1860.96 -1.17925 7.99449 0
M  V30 19680 H 1864.54 -1.45321 5.63359 0
M  V30 19681 H 1863.42 -0.981212 7.78037 0
M  V30 19682 N 1860.93 -1.25042 -0.959279 0
M  V30 19683 C 1862.34 -1.08692 -1.51799 0
M  V30 19684 C 1862.69 0.338893 -1.93251 0
M  V30 19685 O 1861.81 1.22831 -1.78162 0
M  V30 19686 C 1862.41 -1.9669 -2.7586 0
M  V30 19687 C 1860.97 -1.84538 -3.28059 0
M  V30 19688 C 1860.12 -1.91119 -2.0092 0
M  V30 19689 H 1863.07 -1.38396 -0.776669 0
M  V30 19690 H 1863.09 -1.50414 -3.49508 0
M  V30 19691 H 1862.6 -3.00455 -2.45659 0
M  V30 19692 H 1860.7 -0.836383 -3.63091 0
M  V30 19693 H 1860.81 -2.69095 -3.96389 0
M  V30 19694 H 1859.18 -1.34948 -2.16012 0
M  V30 19695 H 1859.96 -2.9648 -1.73074 0
M  V30 19696 N 1862.41 1.16121 -1.06553 0
M  V30 19697 C 1863.34 2.20181 -0.636617 0
M  V30 19698 C 1864.35 1.59884 0.306731 0
M  V30 19699 O 1865.54 1.78235 0.0973101 0
M  V30 19700 C 1862.64 3.38789 0.0865541 0
M  V30 19701 C 1861.81 4.28641 -0.870941 0
M  V30 19702 C 1860.87 5.25869 -0.186538 0
M  V30 19703 O 1859.9 5.63189 -0.825028 0
M  V30 19704 N 1861.1 5.70536 1.0709 0
M  V30 19705 H 1863.87 2.576 -1.53175 0
M  V30 19706 H 1861.43 1.31157 -0.949185 0
M  V30 19707 H 1863.42 4.00878 0.554881 0
M  V30 19708 H 1861.99 2.99854 0.883524 0
M  V30 19709 H 1861.21 3.63776 -1.51858 0
M  V30 19710 H 1862.5 4.85552 -1.5204 0
M  V30 19711 H 1861.89 5.42314 1.60973 0
M  V30 19712 H 1860.45 6.34704 1.48305 0
M  V30 19713 N 1863.88 0.848487 1.3281 0
M  V30 19714 C 1865.13 0.44797 1.97073 0
M  V30 19715 C 1865.45 -0.998358 1.67505 0
M  V30 19716 O 1864.72 -1.69683 0.97901 0
M  V30 19717 H 1863.3 0.162663 0.729075 0
M  V30 19718 H 1865.97 1.08356 1.62003 0
M  V30 19719 H 1865.06 0.587939 3.06512 0
M  V30 19720 N 1865.36 -1.4549 0.605832 0
M  V30 19721 C 1866.61 -2.01852 0.10014 0
M  V30 19722 C 1866.93 -1.47699 -1.27319 0
M  V30 19723 O 1866.2 -0.670571 -1.84066 0
M  V30 19724 H 1864.78 -0.746225 0.0340291 0
M  V30 19725 H 1867.44 -1.78311 0.786834 0
M  V30 19726 H 1866.54 -3.12062 0.0485925 0
M  V30 19727 N 1866.84 -0.344893 -1.5378 0
M  V30 19728 C 1867.77 0.545646 -2.2261 0
M  V30 19729 C 1868.79 1.06288 -1.23315 0
M  V30 19730 O 1869.97 0.972802 -1.49662 0
M  V30 19731 C 1867.07 1.76379 -2.89385 0
M  V30 19732 C 1866.25 1.38162 -4.15006 0
M  V30 19733 C 1865.31 2.45958 -4.65179 0
M  V30 19734 O 1864.33 2.0921 -5.29358 0
M  V30 19735 N 1865.53 3.77232 -4.41221 0
M  V30 19736 H 1868.3 -0.043834 -2.99668 0
M  V30 19737 H 1865.86 -0.169081 -1.61015 0
M  V30 19738 H 1867.85 2.47928 -3.19865 0
M  V30 19739 H 1866.42 2.26061 -2.15905 0
M  V30 19740 H 1865.64 0.496839 -3.91056 0
M  V30 19741 H 1866.93 1.10227 -4.96717 0
M  V30 19742 H 1866.33 4.09875 -3.89896 0
M  V30 19743 H 1864.89 4.44947 -4.76304 0
M  V30 19744 N 1868.32 1.57428 -0.0735454 0
M  V30 19745 C 1869.57 1.92732 0.594748 0
M  V30 19746 C 1869.88 0.955693 1.70663 0
M  V30 19747 O 1871.09 1.20162 2.43461 0
M  V30 19748 C 1869.54 3.42379 1.10927 0
M  V30 19749 C 1869.15 4.47991 0.0283008 0
M  V30 19750 C 1870.89 3.8668 1.75153 0
M  V30 19751 C 1868.8 5.88771 0.556965 0
M  V30 19752 H 1867.73 0.719355 0.22593 0
M  V30 19753 H 1870.38 1.82918 -0.146063 0
M  V30 19754 H 1868.76 3.47272 1.9031 0
M  V30 19755 H 1869.94 4.54716 -0.74634 0
M  V30 19756 H 1868.25 4.13168 -0.517835 0
M  V30 19757 H 1870.85 4.89244 2.15741 0
M  V30 19758 H 1871.19 3.24144 2.61221 0
M  V30 19759 H 1871.73 3.84397 1.02389 0
M  V30 19760 H 1868.47 6.54958 -0.266602 0
M  V30 19761 H 1867.99 5.85563 1.29909 0
M  V30 19762 H 1869.66 6.38703 1.03281 0
M  V30 19763 N 1869.8 -0.200022 1.56326 0
M  V30 19764 C 1870.71 -1.26847 1.9735 0
M  V30 19765 C 1871.72 -1.50081 0.880432 0
M  V30 19766 O 1872.9 -1.62792 1.18578 0
M  V30 19767 C 1869.96 -2.59382 2.30048 0
M  V30 19768 C 1869.02 -2.44262 3.53036 0
M  V30 19769 C 1868.26 -3.70476 3.84165 0
M  V30 19770 O 1868.48 -4.74433 3.16654 0
M  V30 19771 O 1867.41 -3.663 4.77606 0
M  V30 19772 H 1871.24 -0.950324 2.88449 0
M  V30 19773 H 1868.83 -0.404628 1.43816 0
M  V30 19774 H 1870.71 -3.37616 2.52177 0
M  V30 19775 H 1869.38 -2.90833 1.42119 0
M  V30 19776 H 1868.29 -1.64154 3.36161 0
M  V30 19777 H 1869.62 -2.17744 4.41416 0
M  V30 19778 N 1871.27 -1.50505 -0.467553 0
M  V30 19779 C 1872.52 -1.61671 -1.21938 0
M  V30 19780 C 1872.85 -0.318688 -1.91871 0
M  V30 19781 O 1872.1 0.695639 -1.82919 0
M  V30 19782 C 1872.4 -2.74913 -2.28381 0
M  V30 19783 C 1872.07 -4.1527 -1.75674 0
M  V30 19784 C 1870.73 -4.5346 -1.6102 0
M  V30 19785 C 1873.08 -5.02978 -1.3661 0
M  V30 19786 C 1870.41 -5.77094 -1.05732 0
M  V30 19787 C 1872.76 -6.27163 -0.827621 0
M  V30 19788 C 1871.43 -6.64152 -0.667746 0
M  V30 19789 H 1870.7 -0.591596 -0.446201 0
M  V30 19790 H 1873.34 -1.84449 -0.514858 0
M  V30 19791 H 1871.65 -2.46237 -3.04754 0
M  V30 19792 H 1873.35 -2.80756 -2.86317 0
M  V30 19793 H 1869.94 -3.85144 -1.88047 0
M  V30 19794 H 1874.12 -4.74103 -1.46764 0
M  V30 19795 H 1869.38 -6.04424 -0.920946 0
M  V30 19796 H 1873.55 -6.94484 -0.516286 0
M  V30 19797 H 1871.18 -7.5983 -0.237178 0
M  V30 19798 N 1872.75 0.720973 -1.40142 0
M  V30 19799 C 1874.17 1.02835 -1.22054 0
M  V30 19800 C 1874.37 2.0129 -0.091949 0
M  V30 19801 O 1873.42 2.46395 0.551897 0
M  V30 19802 C 1874.74 1.57722 -2.56016 0
M  V30 19803 C 1876.29 1.69734 -2.62982 0
M  V30 19804 C 1876.76 2.28027 -3.972 0
M  V30 19805 N 1878.25 2.3542 -3.98913 0
M  V30 19806 C 1878.99 2.81495 -4.99548 0
M  V30 19807 N 1878.48 3.27362 -6.10578 0
M  V30 19808 N 1880.28 2.80831 -4.86919 0
M  V30 19809 H 1872.43 0.068271 -2.1229 0
M  V30 19810 H 1874.69 0.0928952 -0.943438 0
M  V30 19811 H 1874.4 0.928424 -3.39224 0
M  V30 19812 H 1874.27 2.56326 -2.76725 0
M  V30 19813 H 1876.66 2.33732 -1.80148 0
M  V30 19814 H 1876.74 0.697443 -2.46108 0
M  V30 19815 H 1876.38 1.64653 -4.80471 0
M  V30 19816 H 1876.31 3.28721 -4.114 0
M  V30 19817 H 1878.8 2.03019 -3.18735 0
M  V30 19818 H 1879.12 3.61071 -6.83263 0
M  V30 19819 H 1877.46 3.25335 -6.14152 0
M  V30 19820 H 1880.65 2.4433 -3.99275 0
M  V30 19821 H 1880.82 3.16423 -5.65492 0
M  V30 19822 N 1874.23 1.25549 0.952634 0
M  V30 19823 C 1875.51 1.01186 1.67394 0
M  V30 19824 C 1875.89 -0.461292 2.05998 0
M  V30 19825 O 1875.24 -1.43909 1.77489 0
M  V30 19826 C 1875.45 1.94954 2.89472 0
M  V30 19827 C 1876.79 2.22911 3.6138 0
M  V30 19828 O 1877.82 1.92728 2.99557 0
M  V30 19829 O 1876.68 2.74246 4.72706 0
M  V30 19830 H 1873.77 0.383874 0.732509 0
M  V30 19831 H 1876.32 1.36712 1.00538 0
M  V30 19832 H 1875.09 2.94416 2.5775 0
M  V30 19833 H 1874.71 1.59837 3.64058 0
M  V30 19834 N 1875.71 -1.15554 1.07168 0
M  V30 19835 C 1876.96 -1.86296 0.793718 0
M  V30 19836 C 1877.28 -1.8222 -0.680145 0
M  V30 19837 O 1876.54 -1.23899 -1.51485 0
M  V30 19838 C 1876.84 -3.3502 1.24484 0
M  V30 19839 C 1876.5 -3.59292 2.72434 0
M  V30 19840 C 1875.17 -3.65625 3.12844 0
M  V30 19841 C 1877.52 -3.69147 3.6794 0
M  V30 19842 C 1874.85 -3.79323 4.47584 0
M  V30 19843 C 1877.2 -3.84368 5.02438 0
M  V30 19844 C 1875.86 -3.88946 5.42473 0
M  V30 19845 H 1875.13 -0.681707 0.290442 0
M  V30 19846 H 1877.78 -1.36575 1.34236 0
M  V30 19847 H 1876.08 -3.86934 0.615546 0
M  V30 19848 H 1877.78 -3.88158 1.00669 0
M  V30 19849 H 1874.37 -3.55002 2.40149 0
M  V30 19850 H 1878.55 -3.63556 3.37847 0
M  V30 19851 H 1873.81 -3.81124 4.78074 0
M  V30 19852 H 1877.98 -3.90935 5.76318 0
M  V30 19853 H 1875.61 -3.99312 6.4688 0
M  V30 19854 N 1877.19 -0.855519 -1.32358 0
M  V30 19855 C 1878.44 -0.458415 -1.96832 0
M  V30 19856 C 1878.76 0.98946 -1.68032 0
M  V30 19857 O 1878.03 1.69161 -0.987995 0
M  V30 19858 H 1876.61 -0.166527 -0.728202 0
M  V30 19859 H 1879.27 -1.09214 -1.61426 0
M  V30 19860 H 1878.36 -0.604185 -3.06196 0
M  V30 19861 N 1878.67 1.45167 -0.61354 0
M  V30 19862 C 1879.6 2.3333 0.089004 0
M  V30 19863 C 1880.58 1.47181 0.85275 0
M  V30 19864 O 1881.76 1.7594 0.822122 0
M  V30 19865 C 1878.89 3.29982 1.08301 0
M  V30 19866 C 1877.85 4.25813 0.432084 0
M  V30 19867 C 1877.17 5.122 1.53476 0
M  V30 19868 C 1878.47 5.18233 -0.65052 0
M  V30 19869 H 1880.17 2.92322 -0.647165 0
M  V30 19870 H 1877.71 1.40565 -0.312667 0
M  V30 19871 H 1879.66 3.90533 1.5831 0
M  V30 19872 H 1878.39 2.69162 1.84985 0
M  V30 19873 H 1877.05 3.6657 -0.0471927 0
M  V30 19874 H 1876.7 4.47744 2.29203 0
M  V30 19875 H 1876.4 5.77122 1.10469 0
M  V30 19876 H 1877.92 5.7562 2.037 0
M  V30 19877 H 1879.33 5.72821 -0.234262 0
M  V30 19878 H 1877.73 5.91664 -1.00268 0
M  V30 19879 H 1878.8 4.60304 -1.52475 0
M  V30 19880 N 1880.14 0.353044 1.53595 0
M  V30 19881 C 1881.56 0.0014839 1.596 0
M  V30 19882 C 1881.76 -1.47884 1.36867 0
M  V30 19883 O 1880.82 -2.23881 1.16762 0
M  V30 19884 C 1882.13 0.446178 2.97371 0
M  V30 19885 C 1883.68 0.399329 3.10442 0
M  V30 19886 C 1884.15 0.819639 4.50606 0
M  V30 19887 N 1885.64 0.7742 4.56684 0
M  V30 19888 C 1886.38 1.07126 5.63304 0
M  V30 19889 N 1885.87 1.43696 6.77734 0
M  V30 19890 N 1887.67 0.994874 5.53226 0
M  V30 19891 H 1879.82 1.31719 1.66625 0
M  V30 19892 H 1882.08 0.537571 0.780847 0
M  V30 19893 H 1881.79 1.47869 3.19105 0
M  V30 19894 H 1881.66 -0.173715 3.768 0
M  V30 19895 H 1884.05 -0.624023 2.88427 0
M  V30 19896 H 1884.13 1.05455 2.33051 0
M  V30 19897 H 1883.77 1.84105 4.73358 0
M  V30 19898 H 1883.7 0.141795 5.26409 0
M  V30 19899 H 1886.19 0.504609 3.74516 0
M  V30 19900 H 1886.51 1.64822 7.55019 0
M  V30 19901 H 1884.85 1.4755 6.79157 0
M  V30 19902 H 1888.04 0.70845 4.62708 0
M  V30 19903 H 1888.22 1.22972 6.36225 0
M  V30 19904 N 1881.62 -1.57387 0.0818932 0
M  V30 19905 C 1882.85 -1.97913 -0.592784 0
M  V30 19906 C 1883.26 -0.959377 -1.63072 0
M  V30 19907 O 1882.6 0.0610095 -1.83599 0
M  V30 19908 C 1882.66 -3.34778 -1.3101 0
M  V30 19909 C 1882.33 -4.55025 -0.424461 0
M  V30 19910 C 1883.33 -5.18902 0.322059 0
M  V30 19911 C 1881.01 -5.01104 -0.346382 0
M  V30 19912 C 1883 -6.27217 1.13478 0
M  V30 19913 C 1880.69 -6.0929 0.469997 0
M  V30 19914 C 1881.69 -6.7221 1.20924 0
M  V30 19915 O 1881.38 -7.78311 2.01213 0
M  V30 19916 H 1881.11 -0.655646 -0.164633 0
M  V30 19917 H 1883.66 -2.04823 0.153877 0
M  V30 19918 H 1881.89 -3.24513 -2.10305 0
M  V30 19919 H 1883.58 -3.59841 -1.87801 0
M  V30 19920 H 1884.35 -4.8424 0.271391 0
M  V30 19921 H 1880.23 -4.51901 -0.91141 0
M  V30 19922 H 1883.77 -6.7626 1.71227 0
M  V30 19923 H 1879.67 -6.43384 0.522194 0
M  V30 19924 H 1880.44 -7.95237 1.93753 0
M  V30 19925 N 1883.1 0.191729 -1.56429 0
M  V30 19926 C 1884.52 0.542701 -1.5009 0
M  V30 19927 C 1884.72 1.85685 -0.782522 0
M  V30 19928 O 1883.77 2.50275 -0.334432 0
M  V30 19929 C 1885.08 0.594326 -2.94768 0
M  V30 19930 C 1886.63 0.682929 -3.05459 0
M  V30 19931 C 1887.11 0.765634 -4.51555 0
M  V30 19932 N 1888.6 0.829072 -4.5572 0
M  V30 19933 C 1889.33 0.91329 -5.6608 0
M  V30 19934 N 1888.83 0.959603 -6.86122 0
M  V30 19935 N 1890.62 0.950739 -5.54001 0
M  V30 19936 H 1882.77 -0.670241 -2.01548 0
M  V30 19937 H 1885.04 -0.239168 -0.917335 0
M  V30 19938 H 1884.74 -0.302238 -3.50399 0
M  V30 19939 H 1884.62 1.44787 -3.48305 0
M  V30 19940 H 1887 1.56992 -2.49875 0
M  V30 19941 H 1887.08 -0.19688 -2.55041 0
M  V30 19942 H 1886.73 -0.117022 -5.07765 0
M  V30 19943 H 1886.66 1.66129 -4.99709 0
M  V30 19944 H 1889.15 0.802391 -3.69283 0
M  V30 19945 H 1889.46 1.02447 -7.65979 0
M  V30 19946 H 1887.81 0.928223 -6.88774 0
M  V30 19947 H 1891 0.911418 -4.59141 0
M  V30 19948 H 1891.17 1.01291 -6.40034 0
M  V30 19949 N 1884.58 1.50751 0.459565 0
M  V30 19950 C 1885.99 1.55043 1.04012 0
M  V30 19951 C 1886.34 0.360701 1.92856 0
M  V30 19952 O 1885.46 -0.525112 2.09932 0
M  V30 19953 C 1886.06 2.80975 1.89311 0
M  V30 19954 C 1884.62 2.87911 2.42455 0
M  V30 19955 C 1883.77 2.49464 1.2109 0
M  V30 19956 H 1886.72 1.56849 0.24171 0
M  V30 19957 H 1886.74 2.63482 2.74514 0
M  V30 19958 H 1886.25 3.67547 1.24623 0
M  V30 19959 H 1884.35 2.05717 3.10663 0
M  V30 19960 H 1884.46 3.91067 2.76773 0
M  V30 19961 H 1882.83 2.0216 1.54931 0
M  V30 19962 H 1883.61 3.38357 0.580469 0
M  V30 19963 N 1886.06 -0.713531 1.40522 0
M  V30 19964 C 1886.97 -1.8577 1.43272 0
M  V30 19965 C 1887.98 -1.70936 0.325113 0
M  V30 19966 O 1889.16 -1.93165 0.570022 0
M  V30 19967 C 1886.22 -3.21587 1.29548 0
M  V30 19968 C 1885.28 -3.4866 2.50469 0
M  V30 19969 C 1884.52 -4.77998 2.3739 0
M  V30 19970 O 1884.74 -5.53234 1.38881 0
M  V30 19971 O 1883.67 -5.05453 3.26804 0
M  V30 19972 H 1887.5 -1.86406 2.39763 0
M  V30 19973 H 1885.08 -0.864226 1.21867 0
M  V30 19974 H 1886.97 -4.02709 1.2411 0
M  V30 19975 H 1885.64 -3.21674 0.36163 0
M  V30 19976 H 1884.55 -2.67539 2.61483 0
M  V30 19977 H 1885.88 -3.53372 3.42621 0
M  V30 19978 N 1887.53 -1.26053 -0.945962 0
M  V30 19979 C 1888.46 -1.09687 -2.06134 0
M  V30 19980 C 1889.44 -0.00341513 -1.701 0
M  V30 19981 O 1890.63 -0.174559 -1.93414 0
M  V30 19982 C 1887.76 -0.724007 -3.3967 0
M  V30 19983 C 1886.71 -1.76866 -3.89747 0
M  V30 19984 C 1886.04 -1.25025 -5.19878 0
M  V30 19985 C 1887.34 -3.16923 -4.15159 0
M  V30 19986 H 1889.03 -2.02986 -2.20084 0
M  V30 19987 H 1886.58 -0.977346 -1.05754 0
M  V30 19988 H 1888.53 -0.596411 -4.17158 0
M  V30 19989 H 1887.26 0.244695 -3.25682 0
M  V30 19990 H 1885.92 -1.88485 -3.14435 0
M  V30 19991 H 1885.56 -0.271527 -5.02267 0
M  V30 19992 H 1885.26 -1.94853 -5.54352 0
M  V30 19993 H 1886.79 -1.13523 -5.99954 0
M  V30 19994 H 1888.2 -3.08409 -4.83277 0
M  V30 19995 H 1886.6 -3.84299 -4.60906 0
M  V30 19996 H 1887.67 -3.63337 -3.21114 0
M  V30 19997 N 1889.01 1.14984 -1.07779 0
M  V30 19998 C 1890.42 1.67453 -0.825611 0
M  V30 19999 C 1890.77 1.85168 0.648631 0
M  V30 20000 O 1889.9 1.55817 1.50167 0
M  V30 20001 C 1890.49 3.04172 -1.49214 0
M  V30 20002 C 1889.05 3.53701 -1.28736 0
M  V30 20003 C 1888.2 2.29324 -1.55903 0
M  V30 20004 H 1891.15 0.99138 -1.23925 0
M  V30 20005 H 1891.17 3.69315 -0.915779 0
M  V30 20006 H 1890.68 2.91247 -2.56509 0
M  V30 20007 H 1888.78 3.71859 -0.234821 0
M  V30 20008 H 1888.9 4.34871 -2.01056 0
M  V30 20009 H 1887.26 2.35081 -0.980257 0
M  V30 20010 H 1888.04 2.18982 -2.6439 0
M  V30 20011 N 1890.49 0.862526 1.31902 0
M  V30 20012 C 1891.42 0.328423 2.31179 0
M  V30 20013 C 1892.4 -0.57668 1.60026 0
M  V30 20014 O 1893.59 -0.49527 1.87778 0
M  V30 20015 C 1890.72 -0.47734 3.44004 0
M  V30 20016 C 1889.67 0.334015 4.26695 0
M  V30 20017 C 1889 -0.596973 5.31357 0
M  V30 20018 C 1890.3 1.56405 4.98332 0
M  V30 20019 H 1891.99 1.15797 2.761 0
M  V30 20020 H 1889.54 0.558268 1.32738 0
M  V30 20021 H 1891.49 -0.861461 4.12501 0
M  V30 20022 H 1890.21 -1.34033 2.9783 0
M  V30 20023 H 1888.87 0.699989 3.59855 0
M  V30 20024 H 1888.52 -1.45703 4.81435 0
M  V30 20025 H 1888.22 -0.0580517 5.87571 0
M  V30 20026 H 1889.74 -0.978099 6.02715 0
M  V30 20027 H 1891.16 1.25178 5.59467 0
M  V30 20028 H 1889.55 2.04149 5.64308 0
M  V30 20029 H 1890.62 2.32099 4.25744 0
M  V30 20030 N 1891.97 -1.4484 0.62123 0
M  V30 20031 C 1892.93 -2.29061 -0.0797989 0
M  V30 20032 C 1893.93 -1.40508 -0.781932 0
M  V30 20033 O 1895.12 -1.62485 -0.628023 0
M  V30 20034 C 1892.25 -3.21857 -1.12342 0
M  V30 20035 H 1893.45 -2.92528 0.66084 0
M  V30 20036 H 1891 -1.51588 0.3809 0
M  V30 20037 H 1891.73 -2.63218 -1.89437 0
M  V30 20038 H 1891.52 -3.87103 -0.624003 0
M  V30 20039 H 1893.01 -3.8515 -1.61398 0
M  V30 20040 N 1893.45 -0.361184 -1.53405 0
M  V30 20041 C 1894.69 0.230222 -2.01489 0
M  V30 20042 C 1895.03 1.48779 -1.24814 0
M  V30 20043 O 1894.3 1.91494 -0.340612 0
M  V30 20044 C 1894.58 0.526613 -3.56229 0
M  V30 20045 C 1894.44 -0.744277 -4.436 0
M  V30 20046 C 1895.76 1.32901 -4.19554 0
M  V30 20047 H 1892.87 0.0822009 -0.732402 0
M  V30 20048 H 1895.52 -0.485208 -1.837 0
M  V30 20049 H 1893.67 1.13609 -3.71517 0
M  V30 20050 H 1895.34 -1.38188 -4.40116 0
M  V30 20051 H 1893.58 -1.36555 -4.11747 0
M  V30 20052 H 1894.25 -0.491913 -5.49804 0
M  V30 20053 H 1896.73 0.813474 -4.08071 0
M  V30 20054 H 1895.6 1.50513 -5.27861 0
M  V30 20055 H 1895.87 2.33625 -3.75329 0
M  V30 20056 N 1894.92 1.57341 -0.0902386 0
M  V30 20057 C 1895.86 2.10775 0.900374 0
M  V30 20058 C 1896.87 1.0439 1.24926 0
M  V30 20059 O 1898.06 1.31851 1.20322 0
M  V30 20060 C 1895.16 2.56852 2.21089 0
M  V30 20061 C 1894.33 3.87016 2.03808 0
M  V30 20062 C 1893.39 4.18991 3.18328 0
M  V30 20063 O 1892.42 4.88292 2.92505 0
M  V30 20064 N 1893.62 3.74006 4.43959 0
M  V30 20065 H 1896.38 2.96392 0.444045 0
M  V30 20066 H 1893.94 1.61621 0.0949979 0
M  V30 20067 H 1895.94 2.75292 2.96642 0
M  V30 20068 H 1894.51 1.76271 2.58161 0
M  V30 20069 H 1893.73 3.77772 1.12613 0
M  V30 20070 H 1895.01 4.72181 1.89532 0
M  V30 20071 H 1894.41 3.18056 4.67821 0
M  V30 20072 H 1892.97 3.97611 5.16477 0
M  V30 20073 N 1896.4 -0.183431 1.56529 0
M  V30 20074 C 1897.65 -0.900214 1.80944 0
M  V30 20075 C 1897.97 -1.83302 0.665246 0
M  V30 20076 O 1897.24 -1.9334 -0.315697 0
M  V30 20077 H 1895.82 -0.335409 0.667465 0
M  V30 20078 H 1898.48 -0.186146 1.94009 0
M  V30 20079 H 1897.58 -1.48437 2.74541 0
M  V30 20080 N 1897.88 -1.50992 -0.451564 0
M  V30 20081 C 1899.13 -1.63197 -1.20394 0
M  V30 20082 C 1899.46 -0.340409 -1.91193 0
M  V30 20083 O 1898.73 0.65926 -1.82986 0
M  V30 20084 C 1899.02 -2.82567 -2.23221 0
M  V30 20085 C 1898.87 -4.2166 -1.56598 0
M  V30 20086 C 1900.19 -2.97468 -3.24347 0
M  V30 20087 H 1897.31 -0.59395 -0.43634 0
M  V30 20088 H 1899.95 -1.83437 -0.495056 0
M  V30 20089 H 1898.1 -2.65441 -2.83678 0
M  V30 20090 H 1899.77 -4.50422 -0.995877 0
M  V30 20091 H 1898.02 -4.25015 -0.86862 0
M  V30 20092 H 1898.69 -5.0115 -2.31415 0
M  V30 20093 H 1901.16 -3.13211 -2.73931 0
M  V30 20094 H 1900.04 -3.82581 -3.93603 0
M  V30 20095 H 1900.3 -2.08921 -3.89621 0
M  V30 20096 N 1899.36 0.706069 -1.40899 0
M  V30 20097 C 1900.58 1.50008 -1.43221 0
M  V30 20098 C 1901.01 1.88065 -0.0362158 0
M  V30 20099 O 1900.37 1.5392 0.958036 0
M  V30 20100 C 1900.41 2.74578 -2.33751 0
M  V30 20101 O 1899.52 3.71657 -1.78731 0
M  V30 20102 H 1898.86 0.451899 -0.486501 0
M  V30 20103 H 1901.39 0.868772 -1.85239 0
M  V30 20104 H 1901.4 3.23002 -2.49266 0
M  V30 20105 H 1900.07 2.46214 -3.35189 0
M  V30 20106 H 1898.65 3.30544 -1.72612 0
M  V30 20107 N 1900.84 1.26553 0.939264 0
M  V30 20108 C 1902.08 1.1221 1.68568 0
M  V30 20109 C 1902.41 -0.334213 1.91607 0
M  V30 20110 O 1901.67 -1.26177 1.49593 0
M  V30 20111 C 1901.97 1.83848 3.06488 0
M  V30 20112 C 1901.63 3.33739 3.03198 0
M  V30 20113 C 1900.29 3.74626 3.02008 0
M  V30 20114 C 1902.65 4.29432 2.9536 0
M  V30 20115 C 1899.97 5.0959 2.90748 0
M  V30 20116 C 1902.33 5.64439 2.85641 0
M  V30 20117 C 1900.99 6.04635 2.82795 0
M  V30 20118 H 1900.26 0.410606 0.616833 0
M  V30 20119 H 1902.91 1.57019 1.09623 0
M  V30 20120 H 1901.21 1.31514 3.69068 0
M  V30 20121 H 1902.91 1.70189 3.63093 0
M  V30 20122 H 1899.5 3.01216 3.04905 0
M  V30 20123 H 1903.68 3.98824 2.95386 0
M  V30 20124 H 1898.94 5.39894 2.86923 0
M  V30 20125 H 1903.11 6.3827 2.7854 0
M  V30 20126 H 1900.74 7.09171 2.73826 0
M  V30 20127 N 1902.31 -1.14411 1.08387 0
M  V30 20128 C 1903.26 -2.19489 0.713668 0
M  V30 20129 C 1904.23 -1.63368 -0.300036 0
M  V30 20130 O 1905.42 -1.8991 -0.184088 0
M  V30 20131 C 1902.56 -3.44859 0.128925 0
M  V30 20132 C 1901.67 -4.15132 1.19538 0
M  V30 20133 C 1900.8 -5.28084 0.574521 0
M  V30 20134 C 1899.84 -5.9019 1.62303 0
M  V30 20135 N 1898.98 -6.94593 1.02398 0
M  V30 20136 H 1903.82 -2.50505 1.61404 0
M  V30 20137 H 1901.36 -1.23014 0.806595 0
M  V30 20138 H 1903.32 -4.16578 -0.227814 0
M  V30 20139 H 1901.95 -3.14327 -0.734757 0
M  V30 20140 H 1901 -3.41804 1.66955 0
M  V30 20141 H 1902.31 -4.57387 1.98994 0
M  V30 20142 H 1901.46 -6.06473 0.166017 0
M  V30 20143 H 1900.2 -4.8705 -0.251701 0
M  V30 20144 H 1899.21 -5.10505 2.0412 0
M  V30 20145 H 1900.43 -6.33299 2.45172 0
M  V30 20146 H 1898.38 -6.55635 0.218849 0
M  V30 20147 H 1898.3 -7.35332 1.75564 0
M  V30 20148 H 1899.56 -7.76857 0.641327 0
M  V30 20149 N 1903.79 -0.869509 -1.31443 0
M  V30 20150 C 1905.04 -0.476357 -1.95994 0
M  V30 20151 C 1905.35 0.976268 -1.69494 0
M  V30 20152 O 1906.56 1.47555 -2.27903 0
M  V30 20153 C 1905.02 -0.800938 -3.50875 0
M  V30 20154 C 1904.62 -2.27029 -3.86215 0
M  V30 20155 C 1906.37 -0.476234 -4.2182 0
M  V30 20156 C 1904.28 -2.53731 -5.34205 0
M  V30 20157 H 1903.21 -0.174407 -0.733552 0
M  V30 20158 H 1905.86 -1.06235 -1.49621 0
M  V30 20159 H 1904.24 -0.144206 -3.95737 0
M  V30 20160 H 1905.41 -2.97005 -3.52313 0
M  V30 20161 H 1903.73 -2.56098 -3.28333 0
M  V30 20162 H 1906.32 -0.652965 -5.30698 0
M  V30 20163 H 1906.67 0.583294 -4.12193 0
M  V30 20164 H 1907.2 -1.08949 -3.8259 0
M  V30 20165 H 1903.94 -3.58365 -5.48867 0
M  V30 20166 H 1903.46 -1.88349 -5.6946 0
M  V30 20167 H 1905.14 -2.38437 -6.01462 0
M  V30 20168 N 1905.27 1.44508 -0.628902 0
M  V30 20169 C 1906.22 2.27784 0.0991943 0
M  V30 20170 C 1907.2 1.38538 0.818285 0
M  V30 20171 O 1908.4 1.62364 0.704759 0
M  V30 20172 C 1905.53 3.25816 1.0816 0
M  V30 20173 C 1904.61 4.2255 0.362249 0
M  V30 20174 N 1905 5.02133 -0.607915 0
M  V30 20175 C 1903.3 4.4185 0.60699 0
M  V30 20176 C 1904 5.7246 -1.03271 0
M  V30 20177 N 1902.98 5.42326 -0.371966 0
M  V30 20178 H 1906.78 2.86721 -0.645621 0
M  V30 20179 H 1904.29 1.55918 -0.45423 0
M  V30 20180 H 1906.29 3.8423 1.6178 0
M  V30 20181 H 1904.95 2.6844 1.82674 0
M  V30 20182 H 1905.96 5.08435 -0.985626 0
M  V30 20183 H 1902.64 3.95575 1.33517 0
M  V30 20184 H 1904.03 6.46383 -1.83409 0
M  V30 20185 N 1906.75 0.369315 1.53212 0
M  V30 20186 C 1907.71 -0.463128 2.24472 0
M  V30 20187 C 1908.71 -1.00667 1.2539 0
M  V30 20188 O 1909.9 -0.891832 1.4964 0
M  V30 20189 C 1907.03 -1.6477 2.98435 0
M  V30 20190 H 1908.23 0.160479 2.9947 0
M  V30 20191 H 1905.78 0.121068 1.5583 0
M  V30 20192 H 1906.52 -2.30929 2.27689 0
M  V30 20193 H 1906.3 -1.26487 3.71138 0
M  V30 20194 H 1907.79 -2.23753 3.52596 0
M  V30 20195 N 1908.23 -1.57291 0.0985816 0
M  V30 20196 C 1909.48 -1.94094 -0.563189 0
M  V30 20197 C 1909.8 -0.981394 -1.68504 0
M  V30 20198 O 1909.07 -0.0340632 -1.9587 0
M  V30 20199 H 1907.65 -0.716571 -0.211033 0
M  V30 20200 H 1910.31 -1.94219 0.162732 0
M  V30 20201 H 1909.4 -2.96607 -0.971113 0
M  V30 20202 N 1909.71 0.175127 -1.56624 0
M  V30 20203 C 1910.62 1.23691 -1.99343 0
M  V30 20204 C 1911.63 1.48662 -0.904197 0
M  V30 20205 O 1912.81 1.60885 -1.21153 0
M  V30 20206 C 1909.87 2.55689 -2.34145 0
M  V30 20207 C 1908.93 2.38614 -3.56878 0
M  V30 20208 C 1908.17 3.64318 -3.9001 0
M  V30 20209 O 1908.39 4.69335 -3.24162 0
M  V30 20210 O 1907.32 3.58655 -4.83373 0
M  V30 20211 H 1911.15 0.904314 -2.89924 0
M  V30 20212 H 1908.73 0.381697 -1.44442 0
M  V30 20213 H 1910.62 3.33562 -2.57516 0
M  V30 20214 H 1909.29 2.88535 -1.46728 0
M  V30 20215 H 1908.2 1.58786 -3.3873 0
M  V30 20216 H 1909.53 2.10694 -4.44825 0
M  V30 20217 N 1911.18 1.5123 0.44355 0
M  V30 20218 C 1912.13 1.72095 1.53792 0
M  V30 20219 C 1913.1 0.562529 1.56284 0
M  V30 20220 O 1914.29 0.796259 1.73391 0
M  V30 20221 C 1911.43 1.84627 2.9156 0
M  V30 20222 C 1910.54 3.12147 2.98644 0
M  V30 20223 C 1909.67 3.1531 4.27496 0
M  V30 20224 C 1908.71 4.37171 4.28425 0
M  V30 20225 N 1907.85 4.37919 5.48791 0
M  V30 20226 H 1912.69 2.65512 1.35304 0
M  V30 20227 H 1910.23 1.31593 0.657387 0
M  V30 20228 H 1912.18 1.89874 3.71488 0
M  V30 20229 H 1910.81 0.946232 3.0862 0
M  V30 20230 H 1909.87 3.16239 2.11417 0
M  V30 20231 H 1911.18 4.02074 2.95192 0
M  V30 20232 H 1910.33 3.19439 5.15794 0
M  V30 20233 H 1909.07 2.23261 4.33596 0
M  V30 20234 H 1908.08 4.33225 3.38521 0
M  V30 20235 H 1909.3 5.30477 4.23994 0
M  V30 20236 H 1907.25 3.48737 5.55624 0
M  V30 20237 H 1907.16 5.21647 5.47193 0
M  V30 20238 H 1908.43 4.46232 6.39138 0
M  V30 20239 N 1912.66 -0.698586 1.41271 0
M  V30 20240 C 1913.91 -1.46077 1.40674 0
M  V30 20241 C 1914.24 -1.94194 0.0146774 0
M  V30 20242 O 1913.52 -1.69325 -0.957036 0
M  V30 20243 C 1913.8 -2.67481 2.41093 0
M  V30 20244 C 1913.65 -2.25149 3.89394 0
M  V30 20245 C 1914.97 -3.69673 2.38809 0
M  V30 20246 H 1912.09 -0.529839 0.512288 0
M  V30 20247 H 1914.73 -0.795918 1.72526 0
M  V30 20248 H 1912.88 -3.24206 2.14062 0
M  V30 20249 H 1914.55 -1.73775 4.27317 0
M  V30 20250 H 1912.8 -1.56965 4.04406 0
M  V30 20251 H 1913.47 -3.12247 4.55199 0
M  V30 20252 H 1915.94 -3.22615 2.6279 0
M  V30 20253 H 1914.82 -4.52232 3.1109 0
M  V30 20254 H 1915.08 -4.1916 1.40562 0
M  V30 20255 N 1914.14 -1.27049 -0.93254 0
M  V30 20256 C 1915.39 -1.12879 -1.67639 0
M  V30 20257 C 1915.71 0.326803 -1.92242 0
M  V30 20258 O 1914.98 1.22934 -1.52525 0
M  V30 20259 H 1913.56 -0.414741 -0.621288 0
M  V30 20260 H 1916.22 -1.59505 -1.12 0
M  V30 20261 H 1915.32 -1.65417 -2.64658 0
M  V30 20262 N 1915.62 1.13835 -1.08993 0
M  V30 20263 C 1916.87 1.84361 -0.818161 0
M  V30 20264 C 1917.18 1.84185 0.658437 0
M  V30 20265 O 1918.39 2.50559 1.04558 0
M  V30 20266 C 1916.84 3.30973 -1.41367 0
M  V30 20267 C 1916.45 3.3955 -2.92249 0
M  V30 20268 C 1918.19 4.06571 -1.22066 0
M  V30 20269 C 1916.1 4.80408 -3.44908 0
M  V30 20270 H 1915.03 0.690704 -0.302397 0
M  V30 20271 H 1917.68 1.28283 -1.31208 0
M  V30 20272 H 1916.06 3.86826 -0.84745 0
M  V30 20273 H 1917.24 2.93716 -3.5506 0
M  V30 20274 H 1915.55 2.77413 -3.10533 0
M  V30 20275 H 1918.15 5.10554 -1.58868 0
M  V30 20276 H 1918.49 4.15989 -0.160946 0
M  V30 20277 H 1919.03 3.57036 -1.75415 0
M  V30 20278 H 1915.76 4.76181 -4.5048 0
M  V30 20279 H 1915.28 5.26756 -2.86859 0
M  V30 20280 H 1916.96 5.49315 -3.4185 0
M  V30 20281 N 1917.1 0.876467 1.3098 0
M  V30 20282 C 1918.34 0.491367 1.96757 0
M  V30 20283 C 1918.67 -0.955274 1.6908 0
M  V30 20284 O 1917.95 -1.6737 0.990843 0
M  V30 20285 C 1918.23 0.756745 3.52059 0
M  V30 20286 C 1918.09 2.25339 3.89284 0
M  V30 20287 C 1919.4 0.227549 4.39511 0
M  V30 20288 H 1916.52 0.179998 0.714681 0
M  V30 20289 H 1919.17 1.0989 1.54997 0
M  V30 20290 H 1917.32 0.239657 3.8776 0
M  V30 20291 H 1918.99 2.83824 3.63651 0
M  V30 20292 H 1917.23 2.72341 3.37658 0
M  V30 20293 H 1917.9 2.38971 4.97591 0
M  V30 20294 H 1920.38 0.670016 4.1067 0
M  V30 20295 H 1919.25 0.442629 5.47112 0
M  V30 20296 H 1919.51 -0.870833 4.33438 0
M  V30 20297 N 1918.57 -1.44173 0.636557 0
M  V30 20298 C 1919.82 -2.01594 0.142933 0
M  V30 20299 C 1920.14 -1.50366 -1.24157 0
M  V30 20300 O 1919.41 -0.709463 -1.82602 0
M  V30 20301 H 1917.99 -0.745335 0.04985 0
M  V30 20302 H 1920.65 -1.76602 0.824479 0
M  V30 20303 H 1919.75 -3.11889 0.114775 0
M  V30 20304 N 1920.05 -0.377435 -1.53014 0
M  V30 20305 C 1921.47 -0.0268747 -1.59577 0
M  V30 20306 C 1921.67 1.45688 -1.39202 0
M  V30 20307 O 1920.72 2.21996 -1.20309 0
M  V30 20308 C 1922.04 -0.493431 -2.96624 0
M  V30 20309 C 1923.58 -0.448667 -3.09768 0
M  V30 20310 C 1924.06 -0.891223 -4.49245 0
M  V30 20311 N 1925.55 -0.846756 -4.55395 0
M  V30 20312 C 1926.29 -1.16074 -5.61529 0
M  V30 20313 N 1925.78 -1.5446 -6.75362 0
M  V30 20314 N 1927.57 -1.08276 -5.51573 0
M  V30 20315 H 1919.73 -1.34353 -1.64508 0
M  V30 20316 H 1921.99 -0.549926 -0.772195 0
M  V30 20317 H 1921.69 -1.52927 -3.16712 0
M  V30 20318 H 1921.57 0.113748 -3.77028 0
M  V30 20319 H 1923.96 0.578058 -2.89383 0
M  V30 20320 H 1924.04 -1.0915 -2.31344 0
M  V30 20321 H 1923.68 -1.91612 -4.70369 0
M  V30 20322 H 1923.61 -0.225524 -5.26117 0
M  V30 20323 H 1926.1 -0.564127 -3.73666 0
M  V30 20324 H 1926.41 -1.76813 -7.52301 0
M  V30 20325 H 1924.76 -1.58336 -6.76724 0
M  V30 20326 H 1927.95 -0.781974 -4.61522 0
M  V30 20327 H 1928.12 -1.33078 -6.34188 0
M  V30 20328 N 1921.53 1.57237 -0.106922 0
M  V30 20329 C 1922.76 1.9912 0.562038 0
M  V30 20330 C 1923.17 0.986338 1.60987 0
M  V30 20331 O 1922.53 -0.0224611 1.82486 0
M  V30 20332 C 1922.58 3.41034 1.19909 0
M  V30 20333 O 1922.3 4.37674 0.193157 0
M  V30 20334 C 1923.8 3.97984 1.95253 0
M  V30 20335 H 1921.02 0.654071 0.149772 0
M  V30 20336 H 1923.57 2.03618 -0.189699 0
M  V30 20337 H 1921.72 3.37513 1.90168 0
M  V30 20338 H 1922.14 5.20401 0.654461 0
M  V30 20339 H 1923.61 4.99398 2.35171 0
M  V30 20340 H 1924.09 3.36455 2.82303 0
M  V30 20341 H 1924.69 4.05014 1.29784 0
M  V30 20342 N 1923.01 -0.166818 1.56715 0
M  V30 20343 C 1924.26 -0.880972 1.81888 0
M  V30 20344 C 1924.58 -1.82586 0.68465 0
M  V30 20345 O 1923.85 -1.93663 -0.295173 0
M  V30 20346 H 1922.43 -0.32831 0.670985 0
M  V30 20347 H 1925.09 -0.165558 1.94196 0
M  V30 20348 H 1924.19 -1.45517 2.761 0
M  V30 20349 N 1924.49 -1.51463 -0.435524 0
M  V30 20350 C 1925.45 -1.72315 -1.51129 0
M  V30 20351 C 1926.45 -0.593161 -1.4946 0
M  V30 20352 O 1927.64 -0.860731 -1.5145 0
M  V30 20353 C 1924.77 -1.78127 -2.9066 0
M  V30 20354 H 1925.96 -2.68327 -1.33943 0
M  V30 20355 H 1923.52 -1.4148 -0.664317 0
M  V30 20356 H 1924.25 -0.839367 -3.13249 0
M  V30 20357 H 1924.04 -2.60252 -2.93277 0
M  V30 20358 H 1925.53 -1.96093 -3.68697 0
M  V30 20359 N 1925.96 0.691085 -1.4164 0
M  V30 20360 C 1927.21 1.44828 -1.40959 0
M  V30 20361 C 1927.53 1.94988 -0.0211789 0
M  V30 20362 O 1926.8 1.71999 0.937714 0
M  V30 20363 H 1925.38 0.53739 -0.518865 0
M  V30 20364 H 1928.05 0.817677 -1.76918 0
M  V30 20365 H 1927.14 2.30926 -2.09952 0
M  V30 20366 N 1927.44 1.27542 0.925789 0
M  V30 20367 C 1928.39 1.10432 2.02666 0
M  V30 20368 C 1929.36 0.004846 1.66099 0
M  V30 20369 O 1930.54 0.167531 1.90063 0
M  V30 20370 C 1927.68 0.759567 3.36637 0
M  V30 20371 C 1926.8 1.93687 3.86147 0
M  V30 20372 C 1925.93 1.53382 5.08574 0
M  V30 20373 C 1924.97 2.67849 5.50385 0
M  V30 20374 N 1924.11 2.2812 6.64007 0
M  V30 20375 H 1928.95 2.04632 2.16633 0
M  V30 20376 H 1926.49 1.01863 1.06124 0
M  V30 20377 H 1928.44 0.540492 4.13684 0
M  V30 20378 H 1927.07 -0.145477 3.22472 0
M  V30 20379 H 1926.13 2.26843 3.05363 0
M  V30 20380 H 1927.44 2.79548 4.13104 0
M  V30 20381 H 1926.59 1.2761 5.93128 0
M  V30 20382 H 1925.33 0.646332 4.83398 0
M  V30 20383 H 1924.34 2.94333 4.64379 0
M  V30 20384 H 1925.56 3.57222 5.77554 0
M  V30 20385 H 1923.51 1.41825 6.40485 0
M  V30 20386 H 1923.42 3.07519 6.90629 0
M  V30 20387 H 1924.69 2.056 7.51897 0
M  V30 20388 N 1928.92 -1.13255 1.09595 0
M  V30 20389 C 1930.15 -1.88952 0.855104 0
M  V30 20390 C 1930.57 -1.78668 -0.588174 0
M  V30 20391 O 1929.93 -1.13544 -1.41341 0
M  V30 20392 C 1929.98 -3.36461 1.29717 0
M  V30 20393 O 1929.08 -4.09863 0.456717 0
M  V30 20394 H 1928.42 -0.587432 0.309547 0
M  V30 20395 H 1930.95 -1.43282 1.46053 0
M  V30 20396 H 1930.96 -3.87291 1.28333 0
M  V30 20397 H 1929.64 -3.43263 2.34826 0
M  V30 20398 H 1928.21 -3.69042 0.535026 0
M  V30 20399 N 1930.4 -0.883401 -1.30514 0
M  V30 20400 C 1931.62 -0.515186 -2.00899 0
M  V30 20401 C 1932.05 0.888515 -1.65792 0
M  V30 20402 O 1931.41 1.58859 -0.873692 0
M  V30 20403 C 1931.45 -0.695291 -3.53833 0
M  V30 20404 O 1930.56 0.259516 -4.11583 0
M  V30 20405 H 1929.9 -0.20321 -0.63214 0
M  V30 20406 H 1932.43 -1.19051 -1.66397 0
M  V30 20407 H 1932.44 -0.593688 -4.03657 0
M  V30 20408 H 1931.11 -1.71874 -3.78724 0
M  V30 20409 H 1929.69 0.111741 -3.72733 0
M  V30 20410 N 1931.88 1.43833 -0.644194 0
M  V30 20411 C 1932.81 2.33467 0.0394911 0
M  V30 20412 C 1933.79 1.48957 0.821339 0
M  V30 20413 O 1934.97 1.77644 0.784618 0
M  V30 20414 C 1932.1 3.32205 1.01277 0
M  V30 20415 C 1931.06 4.26634 0.341666 0
M  V30 20416 C 1930.38 5.15341 1.42577 0
M  V30 20417 C 1931.68 5.16737 -0.760299 0
M  V30 20418 H 1933.38 2.90883 -0.709025 0
M  V30 20419 H 1930.92 1.3987 -0.342413 0
M  V30 20420 H 1932.88 3.93803 1.49991 0
M  V30 20421 H 1931.6 2.73025 1.79234 0
M  V30 20422 H 1930.26 3.66387 -0.124937 0
M  V30 20423 H 1929.91 4.52505 2.19654 0
M  V30 20424 H 1929.61 5.79336 0.98203 0
M  V30 20425 H 1931.13 5.79811 1.91444 0
M  V30 20426 H 1932.54 5.72195 -0.355713 0
M  V30 20427 H 1930.94 5.89404 -1.12796 0
M  V30 20428 H 1932.01 4.56966 -1.62204 0
M  V30 20429 N 1933.35 0.385544 1.52811 0
M  V30 20430 C 1934.32 -0.439294 2.24951 0
M  V30 20431 C 1935.32 -0.993315 1.26451 0
M  V30 20432 O 1936.51 -0.875911 1.50577 0
M  V30 20433 C 1933.64 -1.61595 3.00166 0
M  V30 20434 H 1934.83 0.192232 2.99283 0
M  V30 20435 H 1932.39 0.137589 1.55693 0
M  V30 20436 H 1933.12 -2.28501 2.30125 0
M  V30 20437 H 1932.91 -1.22544 3.72459 0
M  V30 20438 H 1934.4 -2.20001 3.5495 0
M  V30 20439 N 1934.83 -1.57178 0.115259 0
M  V30 20440 C 1936.06 -1.99842 -0.554802 0
M  V30 20441 C 1936.48 -0.994368 -1.59668 0
M  V30 20442 O 1935.84 0.0344531 -1.81267 0
M  V30 20443 C 1935.89 -3.41399 -1.16099 0
M  V30 20444 O 1934.99 -3.43868 -2.27659 0
M  V30 20445 H 1934.33 -0.649301 -0.138937 0
M  V30 20446 H 1936.86 -2.03594 0.202629 0
M  V30 20447 H 1936.87 -3.79527 -1.49743 0
M  V30 20448 H 1935.55 -4.13993 -0.397827 0
M  V30 20449 H 1934.13 -3.17555 -1.95482 0
M  V30 20450 N 1936.31 0.158505 -1.56801 0
M  V30 20451 C 1937.56 0.871313 -1.82353 0
M  V30 20452 C 1937.88 1.8222 -0.694324 0
M  V30 20453 O 1937.15 1.93817 0.284899 0
M  V30 20454 H 1935.73 0.324747 -0.672717 0
M  V30 20455 H 1938.39 0.155257 -1.94281 0
M  V30 20456 H 1937.49 1.44051 -2.76868 0
M  V30 20457 N 1937.79 1.51692 0.427485 0
M  V30 20458 C 1938.72 1.76668 1.52679 0
M  V30 20459 C 1939.7 0.616865 1.58521 0
M  V30 20460 O 1940.89 0.860595 1.7409 0
M  V30 20461 C 1938.02 1.9007 2.90673 0
M  V30 20462 C 1936.97 3.05566 2.99689 0
M  V30 20463 C 1936.3 3.04165 4.39759 0
M  V30 20464 C 1937.6 4.45359 2.72861 0
M  V30 20465 H 1939.29 2.68717 1.32029 0
M  V30 20466 H 1936.84 1.29306 0.633716 0
M  V30 20467 H 1938.79 2.06125 3.67546 0
M  V30 20468 H 1937.51 0.946769 3.12576 0
M  V30 20469 H 1936.17 2.89231 2.25257 0
M  V30 20470 H 1935.82 2.0653 4.58644 0
M  V30 20471 H 1935.52 3.81727 4.46719 0
M  V30 20472 H 1937.04 3.22326 5.18592 0
M  V30 20473 H 1938.46 4.61993 3.39463 0
M  V30 20474 H 1936.85 5.24701 2.91219 0
M  V30 20475 H 1937.92 4.54717 1.68405 0
M  V30 20476 N 1939.27 -0.683564 1.42004 0
M  V30 20477 C 1940.2 -1.8095 1.47578 0
M  V30 20478 C 1941.18 -1.66804 0.333208 0
M  V30 20479 O 1942.36 -1.86357 0.546314 0
M  V30 20480 C 1939.49 -3.19182 1.36895 0
M  V30 20481 C 1938.45 -3.4805 2.49089 0
M  V30 20482 C 1937.77 -4.85764 2.23467 0
M  V30 20483 C 1939.07 -3.4582 3.91415 0
M  V30 20484 H 1940.77 -1.76543 2.41812 0
M  V30 20485 H 1938.31 -0.84794 1.16387 0
M  V30 20486 H 1940.27 -3.97674 1.39404 0
M  V30 20487 H 1938.99 -3.24245 0.391513 0
M  V30 20488 H 1937.65 -2.71915 2.45882 0
M  V30 20489 H 1937.3 -4.87467 1.24037 0
M  V30 20490 H 1937 -5.06043 2.98654 0
M  V30 20491 H 1938.52 -5.66551 2.27711 0
M  V30 20492 H 1939.94 -4.14297 3.96272 0
M  V30 20493 H 1938.33 -3.77633 4.66383 0
M  V30 20494 H 1939.4 -2.4456 4.1871 0
M  V30 20495 N 1940.75 -1.28031 -0.919012 0
M  V30 20496 C 1942.16 -1.05624 -1.19649 0
M  V30 20497 C 1942.36 0.204731 -2.00457 0
M  V30 20498 O 1941.42 0.907849 -2.35615 0
M  V30 20499 C 1942.73 -2.3007 -1.93619 0
M  V30 20500 C 1944.28 -2.35196 -2.06523 0
M  V30 20501 C 1944.75 -3.59395 -2.839 0
M  V30 20502 N 1946.24 -3.60004 -2.91464 0
M  V30 20503 C 1946.98 -4.52779 -3.51822 0
M  V30 20504 N 1946.48 -5.55868 -4.13501 0
M  V30 20505 N 1948.27 -4.40385 -3.4931 0
M  V30 20506 H 1940.42 -2.08985 -0.379372 0
M  V30 20507 H 1942.68 -0.919558 -0.230473 0
M  V30 20508 H 1942.39 -3.21907 -1.41665 0
M  V30 20509 H 1942.26 -2.36071 -2.94195 0
M  V30 20510 H 1944.65 -1.4386 -2.57659 0
M  V30 20511 H 1944.73 -2.33194 -1.0514 0
M  V30 20512 H 1944.37 -4.51072 -2.33445 0
M  V30 20513 H 1944.3 -3.58651 -3.85587 0
M  V30 20514 H 1946.8 -2.85455 -2.47637 0
M  V30 20515 H 1947.11 -6.22812 -4.57521 0
M  V30 20516 H 1945.45 -5.597 -4.12021 0
M  V30 20517 H 1948.64 -3.59053 -3.0033 0
M  V30 20518 H 1948.82 -5.12877 -3.96057 0
M  V30 20519 N 1942.22 1.12672 -1.10194 0
M  V30 20520 C 1943.15 2.20422 -0.770492 0
M  V30 20521 C 1944.13 1.68172 0.25541 0
M  V30 20522 O 1945.32 1.93818 0.121728 0
M  V30 20523 C 1942.45 3.4673 -0.198815 0
M  V30 20524 C 1941.4 4.12118 -1.15512 0
M  V30 20525 C 1940.73 5.32847 -0.444768 0
M  V30 20526 C 1942.03 4.58542 -2.50073 0
M  V30 20527 H 1943.72 2.48404 -1.67141 0
M  V30 20528 H 1941.27 1.19392 -0.805077 0
M  V30 20529 H 1943.22 4.21376 0.0451853 0
M  V30 20530 H 1941.95 3.18168 0.737331 0
M  V30 20531 H 1940.61 3.3945 -1.38453 0
M  V30 20532 H 1940.25 5.00551 0.49577 0
M  V30 20533 H 1939.95 5.77543 -1.08247 0
M  V30 20534 H 1941.48 6.10241 -0.209255 0
M  V30 20535 H 1942.89 5.24572 -2.31294 0
M  V30 20536 H 1941.29 5.14007 -3.09704 0
M  V30 20537 H 1942.36 3.72654 -3.10254 0
M  V30 20538 N 1943.7 0.89031 1.30043 0
M  V30 20539 C 1944.63 0.31832 2.26979 0
M  V30 20540 C 1945.65 -0.530108 1.53928 0
M  V30 20541 O 1946.84 -0.348791 1.75059 0
M  V30 20542 C 1943.94 -0.565563 3.34148 0
M  V30 20543 C 1943.11 0.255006 4.36656 0
M  V30 20544 C 1942.17 -0.560216 5.23209 0
M  V30 20545 O 1941.19 0.0189739 5.69197 0
M  V30 20546 N 1942.4 -1.86825 5.49615 0
M  V30 20547 H 1945.16 1.15143 2.76699 0
M  V30 20548 H 1942.72 0.753836 1.43279 0
M  V30 20549 H 1944.71 -1.11711 3.88976 0
M  V30 20550 H 1943.28 -1.29935 2.84316 0
M  V30 20551 H 1942.5 0.987993 3.81618 0
M  V30 20552 H 1943.79 0.817308 5.02193 0
M  V30 20553 H 1943.19 -2.36167 5.14045 0
M  V30 20554 H 1941.75 -2.36713 6.07297 0
M  V30 20555 N 1945.18 -1.43489 0.651812 0
M  V30 20556 C 1946.09 -2.34564 -0.0413115 0
M  V30 20557 C 1947.11 -1.53803 -0.81368 0
M  V30 20558 O 1948.28 -1.86459 -0.761246 0
M  V30 20559 C 1945.35 -3.32063 -0.996745 0
M  V30 20560 C 1944.41 -4.28728 -0.221464 0
M  V30 20561 C 1943.64 -5.2157 -1.13139 0
M  V30 20562 O 1943.86 -5.18804 -2.37062 0
M  V30 20563 O 1942.8 -5.98856 -0.604552 0
M  V30 20564 H 1946.62 -2.95325 0.708295 0
M  V30 20565 H 1944.21 -1.43607 0.411999 0
M  V30 20566 H 1946.09 -3.92022 -1.54586 0
M  V30 20567 H 1944.77 -2.73807 -1.7266 0
M  V30 20568 H 1943.67 -3.72254 0.371205 0
M  V30 20569 H 1945.01 -4.89962 0.468797 0
M  V30 20570 N 1946.66 -0.393643 -1.52605 0
M  V30 20571 C 1947.62 0.427358 -2.25181 0
M  V30 20572 C 1948.62 0.986595 -1.26976 0
M  V30 20573 O 1949.81 0.867913 -1.51039 0
M  V30 20574 C 1946.94 1.60001 -3.01019 0
M  V30 20575 H 1948.14 -0.208101 -2.99177 0
M  V30 20576 H 1945.69 -0.145844 -1.55618 0
M  V30 20577 H 1946.42 2.27278 -2.31334 0
M  V30 20578 H 1946.21 1.20567 -3.73103 0
M  V30 20579 H 1947.7 2.18115 -3.56112 0
M  V30 20580 N 1948.14 1.57115 -0.123593 0
M  V30 20581 C 1949.1 2.14386 0.810624 0
M  V30 20582 C 1950.1 1.07985 1.19146 0
M  V30 20583 O 1951.29 1.33739 1.11622 0
M  V30 20584 C 1948.42 2.68785 2.09683 0
M  V30 20585 H 1949.61 2.98264 0.312818 0
M  V30 20586 H 1947.17 1.55794 0.125682 0
M  V30 20587 H 1947.9 1.88509 2.63884 0
M  V30 20588 H 1947.69 3.46607 1.8332 0
M  V30 20589 H 1949.18 3.12989 2.76455 0
M  V30 20590 N 1949.61 -0.150187 1.56883 0
M  V30 20591 C 1950.52 -1.20504 2.01286 0
M  V30 20592 C 1951.54 -1.47204 0.927733 0
M  V30 20593 O 1952.72 -1.58937 1.23697 0
M  V30 20594 C 1949.78 -2.51932 2.38184 0
M  V30 20595 C 1948.84 -2.32906 3.60629 0
M  V30 20596 C 1948.07 -3.58067 3.95757 0
M  V30 20597 O 1948.3 -4.64119 3.31587 0
M  V30 20598 O 1947.23 -3.5092 4.89018 0
M  V30 20599 H 1951.06 -0.858075 2.91326 0
M  V30 20600 H 1948.64 -0.358669 1.45031 0
M  V30 20601 H 1950.52 -3.29423 2.6279 0
M  V30 20602 H 1949.2 -2.86165 1.513 0
M  V30 20603 H 1948.11 -1.53377 3.41213 0
M  V30 20604 H 1949.44 -2.0359 4.4812 0
M  V30 20605 N 1951.09 -1.51916 -0.419434 0
M  V30 20606 C 1952.34 -1.65142 -1.16502 0
M  V30 20607 C 1952.66 -0.378632 -1.91289 0
M  V30 20608 O 1951.93 0.606164 -1.86286 0
M  V30 20609 H 1950.51 -0.608667 -0.433051 0
M  V30 20610 H 1953.17 -1.88919 -0.47914 0
M  V30 20611 H 1952.27 -2.48762 -1.88477 0
M  V30 20612 N 1952.57 0.676023 -1.42365 0
M  V30 20613 C 1953.82 1.43324 -1.42487 0
M  V30 20614 C 1954.14 1.94955 -0.0418589 0
M  V30 20615 O 1953.41 1.72984 0.919418 0
M  V30 20616 H 1951.99 0.531857 -0.524535 0
M  V30 20617 H 1954.65 0.798867 -1.77775 0
M  V30 20618 H 1953.75 2.28686 -2.12389 0
M  V30 20619 N 1954.05 1.28517 0.912209 0
M  V30 20620 C 1955.3 1.15138 1.65609 0
M  V30 20621 C 1955.61 -0.299022 1.93301 0
M  V30 20622 O 1956.82 -0.55395 2.65789 0
M  V30 20623 C 1955.27 2.01287 2.98348 0
M  V30 20624 C 1954.88 3.51076 2.78297 0
M  V30 20625 C 1956.62 1.96599 3.7623 0
M  V30 20626 C 1954.53 4.29371 4.06687 0
M  V30 20627 H 1953.46 0.42731 0.621226 0
M  V30 20628 H 1956.11 1.5306 1.01217 0
M  V30 20629 H 1954.49 1.56222 3.63883 0
M  V30 20630 H 1955.67 4.04109 2.21434 0
M  V30 20631 H 1953.98 3.57306 2.13826 0
M  V30 20632 H 1956.58 2.52362 4.71399 0
M  V30 20633 H 1956.92 0.943087 4.05477 0
M  V30 20634 H 1957.46 2.39641 3.17517 0
M  V30 20635 H 1954.2 5.32248 3.82612 0
M  V30 20636 H 1953.72 3.81112 4.63156 0
M  V30 20637 H 1955.39 4.39372 4.74933 0
M  V30 20638 N 1955.53 -1.12086 1.1079 0
M  V30 20639 C 1956.77 -1.84149 0.863748 0
M  V30 20640 C 1957.13 -1.82668 -0.604166 0
M  V30 20641 O 1956.42 -1.26392 -1.43998 0
M  V30 20642 C 1956.61 -3.3089 1.35079 0
M  V30 20643 C 1956.44 -3.46663 2.86452 0
M  V30 20644 C 1955.21 -3.60083 3.54497 0
M  V30 20645 C 1957.41 -3.41518 3.84538 0
M  V30 20646 N 1955.39 -3.64258 4.94155 0
M  V30 20647 C 1956.76 -3.52233 5.10228 0
M  V30 20648 C 1958.82 -3.25007 3.77193 0
M  V30 20649 C 1957.52 -3.48139 6.29438 0
M  V30 20650 C 1959.55 -3.22227 4.95907 0
M  V30 20651 C 1958.91 -3.33506 6.20446 0
M  V30 20652 H 1955.01 -0.689402 0.369119 0
M  V30 20653 H 1957.59 -1.34163 1.41097 0
M  V30 20654 H 1955.76 -3.79409 0.830844 0
M  V30 20655 H 1957.5 -3.90828 1.05049 0
M  V30 20656 H 1954.25 -3.62357 3.04949 0
M  V30 20657 H 1954.68 -3.70001 5.66946 0
M  V30 20658 H 1959.32 -3.15178 2.8182 0
M  V30 20659 H 1957.04 -3.56737 7.25096 0
M  V30 20660 H 1960.62 -3.10628 4.91937 0
M  V30 20661 H 1959.5 -3.31335 7.10765 0
M  V30 20662 N 1957 -0.897194 -1.29569 0
M  V30 20663 C 1958.25 -0.517823 -1.9494 0
M  V30 20664 C 1958.57 0.940096 -1.71527 0
M  V30 20665 O 1959.77 1.42687 -2.30982 0
M  V30 20666 C 1958.23 -0.875183 -3.49097 0
M  V30 20667 C 1957.84 -2.3517 -3.81312 0
M  V30 20668 C 1959.58 -0.565601 -4.20715 0
M  V30 20669 C 1957.49 -2.65005 -5.28702 0
M  V30 20670 H 1956.42 -0.189928 -0.729687 0
M  V30 20671 H 1959.07 -1.09385 -1.47334 0
M  V30 20672 H 1957.45 -0.228115 -3.95342 0
M  V30 20673 H 1958.62 -3.04411 -3.45934 0
M  V30 20674 H 1956.94 -2.63005 -3.22827 0
M  V30 20675 H 1959.54 -0.765387 -5.29194 0
M  V30 20676 H 1959.88 0.49573 -4.13338 0
M  V30 20677 H 1960.41 -1.1704 -3.80193 0
M  V30 20678 H 1957.15 -3.69927 -5.41142 0
M  V30 20679 H 1956.67 -2.00386 -5.65337 0
M  V30 20680 H 1958.35 -2.51141 -5.96269 0
M  V30 20681 N 1958.48 1.43142 -0.659413 0
M  V30 20682 C 1959.76 1.95318 -0.104973 0
M  V30 20683 C 1960.14 1.60048 1.37651 0
M  V30 20684 O 1959.49 0.888746 2.10508 0
M  V30 20685 C 1959.7 3.47161 -0.357769 0
M  V30 20686 C 1961.05 4.23766 -0.26602 0
M  V30 20687 O 1962.07 3.55012 -0.290667 0
M  V30 20688 O 1960.93 5.46152 -0.195021 0
M  V30 20689 H 1958.02 0.826978 0.0060428 0
M  V30 20690 H 1960.57 1.53049 -0.733079 0
M  V30 20691 H 1959.34 3.65983 -1.38465 0
M  V30 20692 H 1958.96 3.96443 0.303102 0
M  V30 20693 N 1959.96 0.40173 1.52394 0
M  V30 20694 C 1961.21 -0.17611 2.01331 0
M  V30 20695 C 1961.53 -1.46274 1.28953 0
M  V30 20696 O 1960.8 -1.91492 0.413249 0
M  V30 20697 H 1959.38 -0.0680697 0.743892 0
M  V30 20698 H 1962.04 0.536274 1.87377 0
M  V30 20699 H 1961.14 -0.377497 3.09809 0
M  V30 20700 N 1961.44 -1.57047 0.131923 0
M  V30 20701 C 1962.68 -1.95921 -0.5237 0
M  V30 20702 C 1963.02 -1.01606 -1.65499 0
M  V30 20703 O 1962.29 -0.0556233 -1.9442 0
M  V30 20704 C 1962.58 -3.44629 -1.04418 0
M  V30 20705 C 1962.43 -4.4972 0.084583 0
M  V30 20706 C 1963.75 -3.9548 -1.93089 0
M  V30 20707 H 1960.87 -0.712382 -0.188894 0
M  V30 20708 H 1963.51 -1.88835 0.2101 0
M  V30 20709 H 1961.66 -3.50799 -1.6695 0
M  V30 20710 H 1963.33 -4.5564 0.720384 0
M  V30 20711 H 1961.57 -4.27339 0.745906 0
M  V30 20712 H 1962.24 -5.51066 -0.321051 0
M  V30 20713 H 1964.72 -3.91695 -1.40408 0
M  V30 20714 H 1963.6 -5.00025 -2.2642 0
M  V30 20715 H 1963.86 -3.36939 -2.86224 0
M  V30 20716 N 1962.92 0.141865 -1.5696 0
M  V30 20717 C 1964.33 0.701408 -1.73024 0
M  V30 20718 C 1964.68 1.81418 -0.747124 0
M  V30 20719 O 1963.8 2.16233 0.0851134 0
M  V30 20720 C 1964.4 1.2791 -3.13727 0
M  V30 20721 C 1962.96 1.78516 -3.31374 0
M  V30 20722 C 1962.1 0.67567 -2.68942 0
M  V30 20723 H 1965.06 -0.083853 -1.58478 0
M  V30 20724 H 1965.08 2.1489 -3.14011 0
M  V30 20725 H 1964.59 0.468988 -3.85256 0
M  V30 20726 H 1962.69 2.62078 -2.6485 0
M  V30 20727 H 1962.8 1.91034 -4.39366 0
M  V30 20728 H 1961.17 1.10358 -2.2955 0
M  V30 20729 H 1961.95 -0.123088 -3.43079 0
M  V30 20730 N 1964.39 1.52136 0.411372 0
M  V30 20731 C 1965.64 1.65314 1.15561 0
M  V30 20732 C 1965.96 0.38805 1.91712 0
M  V30 20733 O 1967.16 0.399588 2.68543 0
M  V30 20734 C 1965.62 2.92059 2.10308 0
M  V30 20735 C 1965.23 4.25667 1.39684 0
M  V30 20736 C 1966.97 3.14599 2.85005 0
M  V30 20737 C 1964.88 5.43538 2.33067 0
M  V30 20738 H 1963.81 0.615812 0.435077 0
M  V30 20739 H 1966.46 1.78622 0.420271 0
M  V30 20740 H 1964.84 2.72444 2.87385 0
M  V30 20741 H 1966.01 4.55757 0.679869 0
M  V30 20742 H 1964.33 4.09212 0.77038 0
M  V30 20743 H 1966.93 3.99839 3.55011 0
M  V30 20744 H 1967.27 2.28739 3.47828 0
M  V30 20745 H 1967.8 3.34676 2.15028 0
M  V30 20746 H 1964.54 6.31738 1.74894 0
M  V30 20747 H 1964.06 5.1779 3.02744 0
M  V30 20748 H 1965.74 5.76527 2.93641 0
M  V30 20749 N 1965.87 -0.668464 1.42721 0
M  V30 20750 C 1966.84 -1.76365 1.46384 0
M  V30 20751 C 1967.84 -1.56932 0.350554 0
M  V30 20752 O 1969.03 -1.63109 0.611658 0
M  V30 20753 C 1966.16 -3.15071 1.30164 0
M  V30 20754 H 1967.35 -1.74503 2.43903 0
M  V30 20755 H 1964.9 -0.878695 1.29262 0
M  V30 20756 H 1965.64 -3.22555 0.335926 0
M  V30 20757 H 1965.42 -3.3058 2.10853 0
M  V30 20758 H 1966.91 -3.94963 1.35625 0
M  V30 20759 N 1967.35 -1.28999 -0.905381 0
M  V30 20760 C 1968.3 -1.10274 -1.99559 0
M  V30 20761 C 1969.29 -0.0238563 -1.60882 0
M  V30 20762 O 1970.48 -0.244936 -1.75297 0
M  V30 20763 C 1967.61 -0.775383 -3.34429 0
M  V30 20764 C 1966.69 -1.89352 -3.79482 0
M  V30 20765 N 1967.08 -3.1363 -3.96825 0
M  V30 20766 C 1965.38 -1.78527 -4.0871 0
M  V30 20767 C 1966.08 -3.86541 -4.34697 0
M  V30 20768 N 1965.06 -3.14445 -4.43424 0
M  V30 20769 H 1968.86 -2.04558 -2.11029 0
M  V30 20770 H 1966.37 -1.2004 -1.09381 0
M  V30 20771 H 1968.37 -0.622296 -4.12229 0
M  V30 20772 H 1967.03 0.159599 -3.24308 0
M  V30 20773 H 1968.04 -3.49148 -3.82513 0
M  V30 20774 H 1964.72 -0.922625 -4.07178 0
M  V30 20775 H 1966.11 -4.93464 -4.56008 0
M  V30 20776 N 1968.83 1.11497 -1.11383 0
M  V30 20777 C 1970.08 1.83494 -0.863592 0
M  V30 20778 C 1970.41 1.84395 0.609259 0
M  V30 20779 O 1969.68 1.2966 1.44978 0
M  V30 20780 C 1969.97 3.30701 -1.42509 0
M  V30 20781 C 1969.82 3.38197 -2.96552 0
M  V30 20782 C 1971.14 4.26756 -1.07553 0
M  V30 20783 H 1968.26 0.666209 -0.315173 0
M  V30 20784 H 1970.9 1.30745 -1.37861 0
M  V30 20785 H 1969.05 3.75752 -0.987053 0
M  V30 20786 H 1970.72 3.01709 -3.48955 0
M  V30 20787 H 1968.96 2.78436 -3.3265 0
M  V30 20788 H 1969.64 4.41804 -3.30927 0
M  V30 20789 H 1972.11 3.89882 -1.45367 0
M  V30 20790 H 1970.99 5.28143 -1.49519 0
M  V30 20791 H 1971.25 4.42098 0.0137773 0
M  V30 20792 N 1970.31 0.904053 1.29092 0
M  V30 20793 C 1971.56 0.531152 1.94995 0
M  V30 20794 C 1971.88 -0.926415 1.71588 0
M  V30 20795 O 1971.15 -1.65378 1.0501 0
M  V30 20796 H 1969.73 0.193439 0.721519 0
M  V30 20797 H 1972.39 1.1513 1.57262 0
M  V30 20798 H 1971.48 0.717412 3.03743 0
M  V30 20799 N 1971.79 -1.4279 0.666995 0
M  V30 20800 C 1972.72 -2.335 -0.00234362 0
M  V30 20801 C 1973.7 -1.50244 -0.797537 0
M  V30 20802 O 1974.88 -1.7887 -0.756257 0
M  V30 20803 C 1972.01 -3.33774 -0.959795 0
M  V30 20804 C 1970.97 -4.27124 -0.273749 0
M  V30 20805 C 1970.29 -5.17544 -1.3436 0
M  V30 20806 C 1971.59 -5.15462 0.842411 0
M  V30 20807 H 1973.29 -2.89719 0.755212 0
M  V30 20808 H 1970.83 -1.39307 0.364622 0
M  V30 20809 H 1972.78 -3.96139 -1.43707 0
M  V30 20810 H 1971.51 -2.75842 -1.74868 0
M  V30 20811 H 1970.17 -3.66142 0.18321 0
M  V30 20812 H 1969.82 -4.55943 -2.12427 0
M  V30 20813 H 1969.52 -5.80825 -0.889738 0
M  V30 20814 H 1971.04 -5.82784 -1.82196 0
M  V30 20815 H 1972.45 -5.71557 0.4467 0
M  V30 20816 H 1970.85 -5.87535 1.22158 0
M  V30 20817 H 1971.92 -4.54327 1.69454 0
M  V30 20818 N 1973.26 -0.409806 -1.52179 0
M  V30 20819 C 1974.21 0.432719 -2.23856 0
M  V30 20820 C 1975.2 1.01291 -1.25016 0
M  V30 20821 O 1976.39 0.935617 -1.5025 0
M  V30 20822 C 1973.52 1.54847 -3.06394 0
M  V30 20823 C 1972.6 0.979019 -4.12645 0
M  V30 20824 N 1973 0.136283 -5.05616 0
M  V30 20825 C 1971.29 1.24946 -4.28141 0
M  V30 20826 C 1971.99 -0.180604 -5.8142 0
M  V30 20827 N 1970.97 0.428712 -5.41907 0
M  V30 20828 H 1974.77 -0.217442 -2.93095 0
M  V30 20829 H 1972.29 -0.220268 -1.60899 0
M  V30 20830 H 1974.28 2.16466 -3.56298 0
M  V30 20831 H 1972.94 2.20125 -2.38695 0
M  V30 20832 H 1973.95 -0.228075 -5.17398 0
M  V30 20833 H 1970.63 1.90176 -3.71671 0
M  V30 20834 H 1972.02 -0.8647 -6.66313 0
M  V30 20835 N 1974.74 1.56975 -0.14025 0
M  V30 20836 C 1975.97 2.00267 0.519675 0
M  V30 20837 C 1976.38 1.02026 1.58859 0
M  V30 20838 O 1975.74 0.0162519 1.82493 0
M  V30 20839 C 1975.79 3.435 1.12648 0
M  V30 20840 O 1975.51 4.37985 0.100277 0
M  V30 20841 C 1977.01 4.02036 1.86767 0
M  V30 20842 H 1974.23 0.657101 0.135865 0
M  V30 20843 H 1976.78 2.0317 -0.232847 0
M  V30 20844 H 1974.93 3.4147 1.82967 0
M  V30 20845 H 1975.35 5.21672 0.543929 0
M  V30 20846 H 1976.82 5.04274 2.24525 0
M  V30 20847 H 1977.3 3.42367 2.75103 0
M  V30 20848 H 1977.9 4.07676 1.21163 0
M  V30 20849 N 1976.22 -0.133539 1.57033 0
M  V30 20850 C 1977.15 -1.16595 2.02306 0
M  V30 20851 C 1978.13 -1.44031 0.904933 0
M  V30 20852 O 1979.32 -1.54721 1.17367 0
M  V30 20853 C 1976.45 -2.49581 2.41509 0
M  V30 20854 C 1975.4 -2.36639 3.56631 0
M  V30 20855 C 1974.73 -3.74457 3.81688 0
M  V30 20856 C 1976.03 -1.83912 4.88849 0
M  V30 20857 H 1977.72 -0.789456 2.88804 0
M  V30 20858 H 1975.27 -0.378309 1.38942 0
M  V30 20859 H 1977.22 -3.22043 2.71783 0
M  V30 20860 H 1975.94 -2.89093 1.51964 0
M  V30 20861 H 1974.6 -1.66628 3.26544 0
M  V30 20862 H 1974.25 -4.11428 2.89372 0
M  V30 20863 H 1973.95 -3.66655 4.59171 0
M  V30 20864 H 1975.47 -4.48446 4.14401 0
M  V30 20865 H 1976.89 -2.46178 5.17754 0
M  V30 20866 H 1975.28 -1.86967 5.70231 0
M  V30 20867 H 1976.35 -0.795669 4.78327 0
M  V30 20868 N 1977.7 -1.52352 -0.403298 0
M  V30 20869 C 1979.11 -1.41285 -0.742343 0
M  V30 20870 C 1979.31 -0.521946 -1.94623 0
M  V30 20871 O 1978.37 0.0100547 -2.52498 0
M  V30 20872 C 1979.68 -2.83907 -0.990819 0
M  V30 20873 C 1981.23 -2.93289 -1.09318 0
M  V30 20874 C 1981.71 -4.36892 -1.37437 0
M  V30 20875 N 1983.2 -4.40153 -1.4429 0
M  V30 20876 C 1983.93 -5.48333 -1.67686 0
M  V30 20877 N 1983.43 -6.66622 -1.88647 0
M  V30 20878 N 1985.22 -5.35856 -1.69748 0
M  V30 20879 H 1977.37 -2.08806 0.389077 0
M  V30 20880 H 1979.63 -0.941383 0.111813 0
M  V30 20881 H 1979.34 -3.51247 -0.178511 0
M  V30 20882 H 1979.21 -3.25302 -1.9094 0
M  V30 20883 H 1981.6 -2.26127 -1.89607 0
M  V30 20884 H 1981.68 -2.55343 -0.152822 0
M  V30 20885 H 1981.33 -5.04616 -0.576634 0
M  V30 20886 H 1981.26 -4.72379 -2.32734 0
M  V30 20887 H 1983.75 -3.54888 -1.29857 0
M  V30 20888 H 1984.06 -7.44848 -2.05965 0
M  V30 20889 H 1982.41 -6.69676 -1.859 0
M  V30 20890 H 1985.6 -4.42419 -1.52914 0
M  V30 20891 H 1985.77 -6.20237 -1.87642 0
M  V30 20892 N 1979.18 0.660885 -1.43074 0
M  V30 20893 C 1980.4 1.45376 -1.47921 0
M  V30 20894 C 1980.83 1.87855 -0.0960289 0
M  V30 20895 O 1980.18 1.5689 0.908583 0
M  V30 20896 C 1980.23 2.67002 -2.42368 0
M  V30 20897 O 1979.34 3.65783 -1.90465 0
M  V30 20898 H 1978.68 0.436193 -0.500632 0
M  V30 20899 H 1981.21 0.809399 -1.87909 0
M  V30 20900 H 1981.22 3.14909 -2.59416 0
M  V30 20901 H 1979.89 2.35426 -3.42852 0
M  V30 20902 H 1978.47 3.24885 -1.83041 0
M  V30 20903 N 1980.65 1.29477 0.898527 0
M  V30 20904 C 1982.07 1.07514 1.17953 0
M  V30 20905 C 1982.27 -0.172814 2.00758 0
M  V30 20906 O 1981.33 -0.87025 2.37029 0
M  V30 20907 C 1982.64 2.33121 1.89934 0
M  V30 20908 C 1984.19 2.38452 2.02755 0
M  V30 20909 C 1984.66 3.63866 2.78146 0
M  V30 20910 N 1986.15 3.64595 2.857 0
M  V30 20911 C 1986.89 4.58319 3.44574 0
M  V30 20912 N 1986.38 5.62376 4.04605 0
M  V30 20913 N 1988.18 4.45887 3.42259 0
M  V30 20914 H 1980.33 2.09562 0.346076 0
M  V30 20915 H 1982.59 0.923108 0.215814 0
M  V30 20916 H 1982.3 3.2412 1.36526 0
M  V30 20917 H 1982.17 2.40721 2.90402 0
M  V30 20918 H 1984.56 1.47941 2.55338 0
M  V30 20919 H 1984.64 2.34837 1.01416 0
M  V30 20920 H 1984.28 4.54729 2.26239 0
M  V30 20921 H 1984.21 3.6474 3.79832 0
M  V30 20922 H 1986.7 2.89358 2.43064 0
M  V30 20923 H 1987.02 6.30012 4.47555 0
M  V30 20924 H 1985.36 5.66184 4.03064 0
M  V30 20925 H 1988.55 3.63786 2.9458 0
M  V30 20926 H 1988.73 5.19113 3.87848 0
M  V30 20927 N 1982.13 -1.10905 1.11972 0
M  V30 20928 C 1983.38 -1.82127 0.866753 0
M  V30 20929 C 1983.69 -1.85866 -0.609372 0
M  V30 20930 O 1984.9 -2.53243 -0.978781 0
M  V30 20931 C 1983.36 -3.27109 1.50093 0
M  V30 20932 C 1982.96 -3.31682 3.01149 0
M  V30 20933 C 1984.71 -4.03192 1.32803 0
M  V30 20934 C 1982.62 -4.71095 3.57524 0
M  V30 20935 H 1981.55 -0.682444 0.320604 0
M  V30 20936 H 1984.2 -1.24759 1.34564 0
M  V30 20937 H 1982.58 -3.84443 0.949712 0
M  V30 20938 H 1983.75 -2.84199 3.62722 0
M  V30 20939 H 1982.07 -2.69082 3.17779 0
M  V30 20940 H 1984.66 -5.06162 1.72348 0
M  V30 20941 H 1985.01 -4.15416 0.271181 0
M  V30 20942 H 1985.54 -3.52259 1.84819 0
M  V30 20943 H 1982.28 -4.6407 4.62947 0
M  V30 20944 H 1981.8 -5.18965 3.00725 0
M  V30 20945 H 1983.48 -5.40059 3.56294 0
M  V30 20946 N 1983.61 -0.910886 -1.2861 0
M  V30 20947 C 1984.84 -0.557684 -1.99761 0
M  V30 20948 C 1985.26 0.853148 -1.67639 0
M  V30 20949 O 1984.62 1.5697 -0.907192 0
M  V30 20950 C 1984.67 -0.770188 -3.52279 0
M  V30 20951 O 1983.77 0.172155 -4.12041 0
M  V30 20952 H 1983.11 -0.216573 -0.627688 0
M  V30 20953 H 1985.64 -1.22554 -1.63834 0
M  V30 20954 H 1985.65 -0.679176 -4.02307 0
M  V30 20955 H 1984.33 -1.79869 -3.74993 0
M  V30 20956 H 1982.9 0.0326535 -3.72886 0
M  V30 20957 N 1985.09 1.42434 -0.674558 0
M  V30 20958 C 1986.34 2.00765 -0.193936 0
M  V30 20959 C 1986.65 1.53957 1.20651 0
M  V30 20960 O 1987.86 2.04705 1.78348 0
M  V30 20961 C 1986.31 3.58682 -0.295862 0
M  V30 20962 C 1985.92 4.14478 -1.70034 0
M  V30 20963 C 1987.66 4.24313 0.12606 0
M  V30 20964 C 1985.57 5.64758 -1.75505 0
M  V30 20965 H 1984.5 0.75086 -0.0687443 0
M  V30 20966 H 1987.15 1.6316 -0.839705 0
M  V30 20967 H 1985.53 3.9379 0.417795 0
M  V30 20968 H 1986.71 3.90831 -2.44106 0
M  V30 20969 H 1985.02 3.61298 -2.07009 0
M  V30 20970 H 1987.62 5.34596 0.105331 0
M  V30 20971 H 1987.96 3.99775 1.16127 0
M  V30 20972 H 1988.5 3.94164 -0.536581 0
M  V30 20973 H 1985.24 5.94094 -2.77007 0
M  V30 20974 H 1984.76 5.90397 -1.05788 0
M  V30 20975 H 1986.43 6.29172 -1.50838 0
M  V30 20976 N 1986.57 0.417871 1.51959 0
M  V30 20977 C 1987.82 -0.156451 2.01092 0
M  V30 20978 C 1988.13 -1.45475 1.30753 0
M  V30 20979 O 1989.33 -2.11085 1.70749 0
M  V30 20980 C 1987.79 -0.329366 3.5839 0
M  V30 20981 C 1987.4 0.957354 4.37651 0
M  V30 20982 C 1989.14 -0.858507 4.15728 0
M  V30 20983 C 1987.05 0.751148 5.8661 0
M  V30 20984 H 1985.98 -0.0622427 0.751427 0
M  V30 20985 H 1988.63 0.544656 1.75231 0
M  V30 20986 H 1987.01 -1.09301 3.80617 0
M  V30 20987 H 1988.19 1.72783 4.2718 0
M  V30 20988 H 1986.5 1.41356 3.91673 0
M  V30 20989 H 1989.1 -1.02896 5.24706 0
M  V30 20990 H 1989.44 -1.83563 3.73645 0
M  V30 20991 H 1989.97 -0.153688 3.97503 0
M  V30 20992 H 1986.71 1.70008 6.3307 0
M  V30 20993 H 1986.23 0.0201287 5.99797 0
M  V30 20994 H 1987.91 0.396724 6.45783 0
M  V30 20995 N 1988.04 -1.56898 0.148573 0
M  V30 20996 C 1989.46 -1.82957 -0.371991 0
M  V30 20997 C 1989.81 -1.06735 -1.64627 0
M  V30 20998 O 1988.93 -0.313128 -2.14123 0
M  V30 20999 C 1989.53 -3.31871 -0.681682 0
M  V30 21000 C 1988.09 -3.58506 -1.14676 0
M  V30 21001 C 1987.23 -2.76774 -0.170675 0
M  V30 21002 H 1990.18 -1.54248 0.373244 0
M  V30 21003 H 1990.2 -3.48112 -1.53618 0
M  V30 21004 H 1989.72 -3.8732 0.245938 0
M  V30 21005 H 1987.82 -3.08445 -2.09027 0
M  V30 21006 H 1987.93 -4.66961 -1.07165 0
M  V30 21007 H 1986.29 -2.45903 -0.663611 0
M  V30 21008 H 1987.08 -3.34995 0.750563 0
M  V30 21009 N 1989.52 0.125209 -1.57102 0
M  V30 21010 C 1990.45 1.17944 -1.96524 0
M  V30 21011 C 1991.47 1.37997 -0.863757 0
M  V30 21012 O 1992.66 1.37182 -1.14208 0
M  V30 21013 C 1989.76 2.54056 -2.24296 0
M  V30 21014 C 1988.93 2.5469 -3.55601 0
M  V30 21015 C 1987.99 3.72501 -3.71658 0
M  V30 21016 O 1987.01 3.56372 -4.43833 0
M  V30 21017 N 1988.22 4.90822 -3.09958 0
M  V30 21018 H 1990.98 0.844157 -2.87566 0
M  V30 21019 H 1988.54 0.314552 -1.58815 0
M  V30 21020 H 1990.53 3.31418 -2.32259 0
M  V30 21021 H 1989.1 2.79791 -1.39412 0
M  V30 21022 H 1988.32 1.63087 -3.58882 0
M  V30 21023 H 1989.61 2.52164 -4.41917 0
M  V30 21024 H 1989.01 5.0683 -2.51276 0
M  V30 21025 H 1987.57 5.65882 -3.23451 0
M  V30 21026 N 1991 1.52564 0.395213 0
M  V30 21027 C 1992.28 1.5788 1.1547 0
M  V30 21028 C 1992.66 0.36821 2.07864 0
M  V30 21029 O 1992.01 -0.643933 2.19239 0
M  V30 21030 C 1992.22 2.91451 1.91982 0
M  V30 21031 C 1993.56 3.44961 2.47562 0
M  V30 21032 O 1994.59 2.93284 2.02146 0
M  V30 21033 O 1993.45 4.35233 3.30506 0
M  V30 21034 H 1990.54 0.636516 0.527993 0
M  V30 21035 H 1993.09 1.64897 0.400867 0
M  V30 21036 H 1991.86 3.71006 1.2438 0
M  V30 21037 H 1991.48 2.8779 2.7434 0
M  V30 21038 N 1992.48 -0.653289 1.43422 0
M  V30 21039 C 1993.89 -1.23446 1.40064 0
M  V30 21040 C 1994.24 -1.95921 0.104677 0
M  V30 21041 O 1993.37 -2.01233 -0.79588 0
M  V30 21042 C 1993.96 -2.24523 2.53722 0
M  V30 21043 C 1992.52 -2.78117 2.53629 0
M  V30 21044 C 1991.67 -1.52759 2.3143 0
M  V30 21045 H 1994.62 -0.445312 1.52324 0
M  V30 21046 H 1994.64 -3.06696 2.25207 0
M  V30 21047 H 1994.15 -1.71746 3.4803 0
M  V30 21048 H 1992.25 -3.34957 1.632 0
M  V30 21049 H 1992.36 -3.25667 3.51394 0
M  V30 21050 H 1990.73 -1.80104 1.80096 0
M  V30 21051 H 1991.51 -1.01917 3.27823 0
M  V30 21052 N 1993.96 -1.29952 -0.891648 0
M  V30 21053 C 1995.21 -1.17758 -1.63756 0
M  V30 21054 C 1995.52 0.268231 -1.93752 0
M  V30 21055 O 1996.72 0.511595 -2.66636 0
M  V30 21056 C 1995.18 -2.06008 -2.95108 0
M  V30 21057 C 1994.79 -3.55459 -2.72677 0
M  V30 21058 C 1996.53 -2.0256 -3.73055 0
M  V30 21059 C 1994.44 -4.35787 -3.99805 0
M  V30 21060 H 1993.37 -0.437139 -0.61435 0
M  V30 21061 H 1996.02 -1.54651 -0.987694 0
M  V30 21062 H 1994.4 -1.61991 -3.61351 0
M  V30 21063 H 1995.58 -4.0758 -2.14977 0
M  V30 21064 H 1993.89 -3.60662 -2.08115 0
M  V30 21065 H 1996.49 -2.5983 -4.67325 0
M  V30 21066 H 1996.83 -1.00748 -4.03925 0
M  V30 21067 H 1997.36 -2.44662 -3.13664 0
M  V30 21068 H 1994.1 -5.38268 -3.74096 0
M  V30 21069 H 1993.62 -3.88432 -4.57035 0
M  V30 21070 H 1995.3 -4.46872 -4.67883 0
M  V30 21071 N 1995.44 1.1031 -1.12559 0
M  V30 21072 C 1996.37 2.18738 -0.817073 0
M  V30 21073 C 1997.35 1.68675 0.219681 0
M  V30 21074 O 1998.53 1.94033 0.0805889 0
M  V30 21075 C 1995.66 3.46231 -0.272317 0
M  V30 21076 C 1994.62 4.09575 -1.24228 0
M  V30 21077 C 1993.94 5.31784 -0.557693 0
M  V30 21078 C 1995.24 4.53135 -2.59743 0
M  V30 21079 H 1996.94 2.44802 -1.72372 0
M  V30 21080 H 1994.48 1.17658 -0.830221 0
M  V30 21081 H 1996.43 4.21377 -0.0442049 0
M  V30 21082 H 1995.16 3.19661 0.669677 0
M  V30 21083 H 1993.82 3.36437 -1.45622 0
M  V30 21084 H 1993.47 5.0149 0.389484 0
M  V30 21085 H 1993.17 5.75117 -1.20473 0
M  V30 21086 H 1994.69 6.0966 -0.338649 0
M  V30 21087 H 1996.1 5.19548 -2.42369 0
M  V30 21088 H 1994.5 5.07322 -3.20537 0
M  V30 21089 H 1995.57 3.65989 -3.18088 0
M  V30 21090 N 1996.91 0.917694 1.28125 0
M  V30 21091 C 1998.16 0.552896 1.94806 0
M  V30 21092 C 1998.49 -0.904113 1.72209 0
M  V30 21093 O 1997.74 -1.65876 1.03844 0
M  V30 21094 C 1998.04 0.813214 3.48025 0
M  V30 21095 C 1997.71 2.25039 3.90728 0
M  V30 21096 C 1996.37 2.64331 4.02098 0
M  V30 21097 C 1998.72 3.18545 4.12527 0
M  V30 21098 C 1996.05 3.96274 4.32647 0
M  V30 21099 C 1998.4 4.50058 4.44557 0
M  V30 21100 C 1997.07 4.89198 4.54138 0
M  V30 21101 H 1996.34 0.202319 0.712845 0
M  V30 21102 H 1998.98 1.15976 1.52387 0
M  V30 21103 H 1997.29 0.123579 3.91605 0
M  V30 21104 H 1998.99 0.510076 3.97743 0
M  V30 21105 H 1995.58 1.93551 3.82408 0
M  V30 21106 H 1999.76 2.89395 4.03192 0
M  V30 21107 H 1995.02 4.26295 4.38272 0
M  V30 21108 H 1999.19 5.22523 4.60372 0
M  V30 21109 H 1996.82 5.91469 4.77565 0
M  V30 21110 N 1998.39 -1.42074 0.682102 0
M  V30 21111 C 1999.8 -1.8453 0.283805 0
M  V30 21112 C 2000.15 -1.5709 -1.17547 0
M  V30 21113 O 1999.28 -1.03444 -1.90075 0
M  V30 21114 C 1999.87 -3.34965 0.508316 0
M  V30 21115 C 1998.43 -3.76042 0.164069 0
M  V30 21116 C 1997.58 -2.65594 0.797204 0
M  V30 21117 H 2000.53 -1.31817 0.88374 0
M  V30 21118 H 2000.55 -3.7976 -0.237267 0
M  V30 21119 H 2000.06 -3.54905 1.57047 0
M  V30 21120 H 1998.16 -3.61707 -0.894353 0
M  V30 21121 H 1998.28 -4.75205 0.609688 0
M  V30 21122 H 1996.64 -2.53678 0.227913 0
M  V30 21123 H 1997.42 -2.88355 1.86296 0
M  V30 21124 N 1999.87 -0.425924 -1.51735 0
M  V30 21125 C 2001.12 0.144058 -2.01586 0
M  V30 21126 C 2001.44 1.44204 -1.31264 0
M  V30 21127 O 2000.71 1.9081 -0.443661 0
M  V30 21128 H 1999.29 0.0562264 -0.744881 0
M  V30 21129 H 2001.95 -0.566016 -1.865 0
M  V30 21130 H 2001.05 0.328161 -3.1037 0
M  V30 21131 N 2001.35 1.56817 -0.156891 0
M  V30 21132 C 2002.57 2.01242 0.501622 0
M  V30 21133 C 2003 1.03635 1.56976 0
M  V30 21134 O 2002.36 0.0136188 1.81295 0
M  V30 21135 C 2002.4 3.44357 1.07007 0
M  V30 21136 O 2001.51 3.49783 2.18461 0
M  V30 21137 H 2000.85 0.652757 0.121673 0
M  V30 21138 H 2003.38 2.02985 -0.256537 0
M  V30 21139 H 2003.39 3.83364 1.39628 0
M  V30 21140 H 2002.06 4.14902 0.287924 0
M  V30 21141 H 2000.64 3.22626 1.86994 0
M  V30 21142 N 2002.83 -0.116876 1.57166 0
M  V30 21143 C 2003.76 -1.14443 2.03531 0
M  V30 21144 C 2004.74 -1.43063 0.920159 0
M  V30 21145 O 2005.92 -1.53468 1.19001 0
M  V30 21146 C 2003.05 -2.47006 2.44142 0
M  V30 21147 C 2002.01 -2.32843 3.59121 0
M  V30 21148 C 2001.33 -3.70388 3.85639 0
M  V30 21149 C 2002.63 -1.78717 4.90772 0
M  V30 21150 H 2004.33 -0.75878 2.89625 0
M  V30 21151 H 2001.87 -0.363551 1.39335 0
M  V30 21152 H 2003.82 -3.19143 2.75184 0
M  V30 21153 H 2002.55 -2.87465 1.55021 0
M  V30 21154 H 2001.21 -1.63155 3.28293 0
M  V30 21155 H 2000.86 -4.08335 2.9372 0
M  V30 21156 H 2000.56 -3.61764 4.63034 0
M  V30 21157 H 2002.08 -4.44026 4.19134 0
M  V30 21158 H 2003.49 -2.40673 5.20336 0
M  V30 21159 H 2001.89 -1.80909 5.72182 0
M  V30 21160 H 2002.96 -0.744891 4.79144 0
M  V30 21161 N 2004.3 -1.52772 -0.387116 0
M  V30 21162 C 2005.72 -1.42064 -0.727316 0
M  V30 21163 C 2005.92 -0.542559 -1.94058 0
M  V30 21164 O 2004.98 -0.0167267 -2.52494 0
M  V30 21165 C 2006.29 -2.84942 -0.960651 0
M  V30 21166 C 2007.84 -2.94432 -1.06201 0
M  V30 21167 C 2008.31 -4.38326 -1.32796 0
M  V30 21168 N 2009.8 -4.41659 -1.39613 0
M  V30 21169 C 2010.54 -5.50081 -1.6186 0
M  V30 21170 N 2010.03 -6.68585 -1.81566 0
M  V30 21171 N 2011.83 -5.37627 -1.64055 0
M  V30 21172 H 2003.98 -2.08382 0.411202 0
M  V30 21173 H 2006.24 -0.940144 0.121792 0
M  V30 21174 H 2005.95 -3.51416 -0.141246 0
M  V30 21175 H 2005.82 -3.27309 -1.87479 0
M  V30 21176 H 2008.21 -2.28125 -1.87198 0
M  V30 21177 H 2008.29 -2.55491 -0.125731 0
M  V30 21178 H 2007.93 -5.05199 -0.523081 0
M  V30 21179 H 2007.86 -4.74821 -2.27711 0
M  V30 21180 H 2010.35 -3.56245 -1.26086 0
M  V30 21181 H 2010.67 -7.4699 -1.98053 0
M  V30 21182 H 2009.01 -6.7161 -1.78786 0
M  V30 21183 H 2012.2 -4.44016 -1.48213 0
M  V30 21184 H 2012.38 -6.22193 -1.81053 0
M  V30 21185 N 2005.78 0.645673 -1.43767 0
M  V30 21186 C 2006.71 1.77057 -1.43966 0
M  V30 21187 C 2007.69 1.59805 -0.300185 0
M  V30 21188 O 2008.88 1.81886 -0.494937 0
M  V30 21189 C 2006 3.14453 -1.25845 0
M  V30 21190 C 2005.05 3.50389 -2.43166 0
M  V30 21191 S 2005.88 3.4951 -4.05713 0
M  V30 21192 C 2007.04 4.8955 -3.89989 0
M  V30 21193 H 2007.27 1.76619 -2.39151 0
M  V30 21194 H 2004.8 0.818994 -1.30889 0
M  V30 21195 H 2006.76 3.93747 -1.16077 0
M  V30 21196 H 2005.42 3.12446 -0.321954 0
M  V30 21197 H 2004.62 4.50332 -2.26312 0
M  V30 21198 H 2004.22 2.78525 -2.49599 0
M  V30 21199 H 2006.51 5.78405 -3.5278 0
M  V30 21200 H 2007.45 5.11457 -4.89711 0
M  V30 21201 H 2007.86 4.6344 -3.2231 0
M  V30 21202 N 2007.26 1.30423 0.884744 0
M  V30 21203 C 2008.21 1.1673 2.01188 0
M  V30 21204 C 2009.2 0.0791439 1.69215 0
M  V30 21205 O 2010.41 0.24001 1.78393 0
M  V30 21206 H 2006.78 0.361014 0.659676 0
M  V30 21207 H 2008.75 2.12124 2.09871 0
M  V30 21208 C 2007.5 0.876173 3.3648 0
M  V30 21209 H 2006.83 1.70557 3.61594 0
M  V30 21210 H 2008.27 0.820477 4.15986 0
M  V30 21211 C 2006.72 -0.420908 3.3426 0
M  V30 21212 O 2007.25 -1.44235 3.74912 0
M  V30 21213 N 2005.46 -0.432149 2.87369 0
M  V30 21214 H 2005.01 0.399559 2.54482 0
M  V30 21215 H 2004.97 -1.29995 2.86267 0
M  V30 21216 N 2008.74 -1.09711 1.13142 0
M  V30 21217 C 2009.67 -2.18301 0.828662 0
M  V30 21218 C 2010.65 -1.6879 -0.210733 0
M  V30 21219 O 2011.83 -1.94073 -0.0702977 0
M  V30 21220 C 2008.96 -3.46081 0.290674 0
M  V30 21221 C 2007.92 -4.0891 1.26398 0
M  V30 21222 C 2007.24 -5.3148 0.585887 0
M  V30 21223 C 2008.54 -4.51751 2.62142 0
M  V30 21224 H 2010.24 -2.43885 1.73668 0
M  V30 21225 H 2007.78 -1.17216 0.836449 0
M  V30 21226 H 2009.74 -4.21347 0.0665509 0
M  V30 21227 H 2008.46 -3.20011 -0.652716 0
M  V30 21228 H 2007.12 -3.3566 1.47405 0
M  V30 21229 H 2006.77 -5.01689 -0.362883 0
M  V30 21230 H 2006.47 -5.7447 1.23522 0
M  V30 21231 H 2007.99 -6.09472 0.370976 0
M  V30 21232 H 2009.41 -5.18255 2.45121 0
M  V30 21233 H 2007.8 -5.05615 3.23223 0
M  V30 21234 H 2008.87 -3.64297 3.20025 0
M  V30 21235 N 2010.22 -0.924476 -1.27637 0
M  V30 21236 C 2011.49 -0.481742 -1.89575 0
M  V30 21237 C 2011.87 1.04002 -1.83703 0
M  V30 21238 O 2011.22 1.89277 -1.28009 0
M  V30 21239 C 2011.43 -1.02419 -3.33633 0
M  V30 21240 C 2012.78 -1.08274 -4.10563 0
M  V30 21241 O 2013.8 -0.97359 -3.42636 0
M  V30 21242 O 2012.66 -1.25042 -5.32003 0
M  V30 21243 H 2009.76 -0.15444 -0.812451 0
M  V30 21244 H 2012.3 -1.01596 -1.35928 0
M  V30 21245 H 2011.07 -2.06808 -3.32184 0
M  V30 21246 H 2010.7 -0.471435 -3.94795 0
M  V30 21247 N 2011.69 1.41711 -0.689627 0
M  V30 21248 C 2012.62 2.33474 -0.0348045 0
M  V30 21249 C 2013.61 1.51494 0.773533 0
M  V30 21250 O 2014.79 1.8005 0.727705 0
M  V30 21251 C 2011.92 3.35259 0.906573 0
M  V30 21252 C 2010.87 4.27505 0.205762 0
M  V30 21253 C 2010.2 5.19616 1.26109 0
M  V30 21254 C 2011.5 5.14056 -0.92431 0
M  V30 21255 H 2013.19 2.88481 -0.801208 0
M  V30 21256 H 2010.74 1.3871 -0.386738 0
M  V30 21257 H 2012.69 3.98375 1.37386 0
M  V30 21258 H 2011.42 2.78589 1.70457 0
M  V30 21259 H 2010.08 3.65804 -0.241437 0
M  V30 21260 H 2009.72 4.59264 2.05147 0
M  V30 21261 H 2009.42 5.82167 0.797221 0
M  V30 21262 H 2010.95 5.85609 1.72901 0
M  V30 21263 H 2012.36 5.70774 -0.537573 0
M  V30 21264 H 2010.76 5.85517 -1.3149 0
M  V30 21265 H 2011.83 4.51574 -1.7666 0
M  V30 21266 N 2013.17 0.433965 1.51507 0
M  V30 21267 C 2014.1 -0.369789 2.30553 0
M  V30 21268 C 2015.08 -1.02405 1.35821 0
M  V30 21269 O 2016.27 -1.02833 1.64739 0
M  V30 21270 C 2013.4 -1.47312 3.1451 0
M  V30 21271 C 2012.35 -0.942531 4.17493 0
M  V30 21272 C 2011.68 -2.14135 4.89949 0
M  V30 21273 C 2012.98 0.0206958 5.22296 0
M  V30 21274 H 2014.67 0.289851 2.97994 0
M  V30 21275 H 2012.22 0.14084 1.4331 0
M  V30 21276 H 2014.17 -2.04259 3.68587 0
M  V30 21277 H 2012.9 -2.161 2.44884 0
M  V30 21278 H 2011.55 -0.395296 3.64463 0
M  V30 21279 H 2011.2 -2.81535 4.1683 0
M  V30 21280 H 2010.9 -1.79273 5.59584 0
M  V30 21281 H 2012.43 -2.71642 5.46848 0
M  V30 21282 H 2013.84 -0.458366 5.71465 0
M  V30 21283 H 2012.24 0.281718 5.99438 0
M  V30 21284 H 2013.31 0.958416 4.75334 0
M  V30 21285 N 2014.65 -1.56732 0.165206 0
M  V30 21286 C 2015.58 -2.1483 -0.798785 0
M  V30 21287 C 2016.6 -1.10232 -1.19803 0
M  V30 21288 O 2017.78 -1.37442 -1.13894 0
M  V30 21289 C 2014.88 -2.67108 -2.08583 0
M  V30 21290 C 2014.06 -3.96299 -1.8511 0
M  V30 21291 C 2013.12 -4.33702 -2.97975 0
M  V30 21292 O 2012.14 -5.01692 -2.68875 0
M  V30 21293 N 2013.34 -3.94762 -4.25609 0
M  V30 21294 H 2016.11 -2.98173 -0.302127 0
M  V30 21295 H 2013.67 -1.6189 -0.0177783 0
M  V30 21296 H 2015.66 -2.89132 -2.8317 0
M  V30 21297 H 2014.23 -1.88388 -2.49457 0
M  V30 21298 H 2013.45 -3.82715 -0.944608 0
M  V30 21299 H 2014.74 -4.80686 -1.66788 0
M  V30 21300 H 2014.14 -3.40014 -4.52114 0
M  V30 21301 H 2012.7 -4.218 -4.96919 0
M  V30 21302 N 2016.13 0.10854 -1.57226 0
M  V30 21303 C 2017.04 1.15125 -2.0441 0
M  V30 21304 C 2018.05 1.44693 -0.966436 0
M  V30 21305 O 2019.23 1.55601 -1.27868 0
M  V30 21306 C 2016.3 2.45528 -2.44779 0
M  V30 21307 C 2015.36 2.23263 -3.66677 0
M  V30 21308 C 2014.59 3.47448 -4.05112 0
M  V30 21309 O 2014.81 4.55164 -3.43776 0
M  V30 21310 O 2013.75 3.37831 -4.9815 0
M  V30 21311 H 2017.57 0.780533 -2.93498 0
M  V30 21312 H 2015.16 0.320091 -1.45931 0
M  V30 21313 H 2017.04 3.22339 -2.71432 0
M  V30 21314 H 2015.71 2.82052 -1.58834 0
M  V30 21315 H 2014.62 1.44276 -3.4516 0
M  V30 21316 H 2015.95 1.91638 -4.53361 0
M  V30 21317 N 2017.61 1.52975 0.379009 0
M  V30 21318 C 2018.56 1.74843 1.46335 0
M  V30 21319 C 2019.54 0.602675 1.49187 0
M  V30 21320 O 2020.73 0.860871 1.54655 0
M  V30 21321 C 2017.86 1.9297 2.83932 0
M  V30 21322 C 2016.95 3.13508 2.85611 0
M  V30 21323 N 2017.34 4.35673 2.5695 0
M  V30 21324 C 2015.64 3.13957 3.16776 0
M  V30 21325 C 2016.34 5.17337 2.65966 0
M  V30 21326 N 2015.31 4.53245 3.00116 0
M  V30 21327 H 2019.12 2.66916 1.23017 0
M  V30 21328 H 2016.63 1.51418 0.587064 0
M  V30 21329 H 2018.63 2.06761 3.62016 0
M  V30 21330 H 2017.29 1.02117 3.08224 0
M  V30 21331 H 2018.3 4.63635 2.30787 0
M  V30 21332 H 2014.97 2.32949 3.46469 0
M  V30 21333 H 2016.36 6.24747 2.47266 0
M  V30 21334 N 2019.08 -0.63804 1.44107 0
M  V30 21335 C 2020.31 -1.43004 1.50215 0
M  V30 21336 C 2020.73 -1.87678 0.125903 0
M  V30 21337 O 2020.09 -1.58316 -0.883508 0
M  V30 21338 C 2020.14 -2.63112 2.46585 0
M  V30 21339 O 2019.24 -3.62706 1.9626 0
M  V30 21340 H 2018.59 -0.428173 0.507508 0
M  V30 21341 H 2021.12 -0.779402 1.89173 0
M  V30 21342 H 2021.13 -3.10742 2.64393 0
M  V30 21343 H 2019.8 -2.29941 3.46554 0
M  V30 21344 H 2018.38 -3.21932 1.88186 0
M  V30 21345 N 2020.56 -1.3089 -0.877815 0
M  V30 21346 C 2021.84 -1.10773 -1.6121 0
M  V30 21347 C 2022.22 0.340404 -2.08337 0
M  V30 21348 O 2021.57 1.33316 -1.85577 0
M  V30 21349 C 2021.78 -2.11499 -2.77613 0
M  V30 21350 C 2023.13 -2.43601 -3.47769 0
M  V30 21351 O 2024.15 -2.09865 -2.87811 0
M  V30 21352 O 2023.01 -3.0134 -4.55913 0
M  V30 21353 H 2020.1 -0.425928 -0.708882 0
M  V30 21354 H 2022.65 -1.42341 -0.923964 0
M  V30 21355 H 2021.42 -3.08943 -2.40146 0
M  V30 21356 H 2021.04 -1.80791 -3.54119 0
M  V30 21357 N 2022.04 1.0911 -1.13723 0
M  V30 21358 C 2022.95 2.19388 -0.831037 0
M  V30 21359 C 2023.97 1.73007 0.185658 0
M  V30 21360 O 2025.14 2.01394 0.015917 0
M  V30 21361 C 2022.21 3.45355 -0.305036 0
M  V30 21362 C 2021.27 4.064 -1.38338 0
M  V30 21363 C 2020.5 5.26355 -0.882388 0
M  V30 21364 O 2020.72 5.69718 0.278833 0
M  V30 21365 O 2019.66 5.78609 -1.65816 0
M  V30 21366 H 2023.48 2.48037 -1.75246 0
M  V30 21367 H 2021.07 1.18108 -0.91493 0
M  V30 21368 H 2022.95 4.21396 -0.0172636 0
M  V30 21369 H 2021.63 3.18301 0.588762 0
M  V30 21370 H 2020.53 3.31981 -1.72452 0
M  V30 21371 H 2021.87 4.37688 -2.25144 0
M  V30 21372 N 2023.52 0.931232 1.27145 0
M  V30 21373 C 2024.48 0.43771 2.24982 0
M  V30 21374 C 2025.48 -0.445689 1.545 0
M  V30 21375 O 2026.67 -0.24627 1.7245 0
M  V30 21376 C 2023.8 -0.370327 3.38883 0
M  V30 21377 H 2025 1.30217 2.70154 0
M  V30 21378 H 2022.55 0.712252 1.39128 0
M  V30 21379 H 2023.28 -1.25346 2.99097 0
M  V30 21380 H 2023.07 0.263109 3.91216 0
M  V30 21381 H 2024.56 -0.705876 4.11591 0
M  V30 21382 N 2025 -1.41343 0.697132 0
M  V30 21383 C 2026.25 -2.00432 0.225852 0
M  V30 21384 C 2026.56 -1.55857 -1.18186 0
M  V30 21385 O 2027.77 -2.07516 -1.75069 0
M  V30 21386 C 2026.22 -3.58166 0.352888 0
M  V30 21387 C 2025.83 -4.11721 1.76607 0
M  V30 21388 C 2027.57 -4.2446 -0.0585393 0
M  V30 21389 C 2025.48 -5.61895 1.84467 0
M  V30 21390 H 2024.41 -0.749671 0.0806811 0
M  V30 21391 H 2027.06 -1.61804 0.865556 0
M  V30 21392 H 2025.44 -3.94405 -0.355093 0
M  V30 21393 H 2026.62 -3.86898 2.50293 0
M  V30 21394 H 2024.93 -3.57959 2.12731 0
M  V30 21395 H 2027.53 -5.34696 -0.0202684 0
M  V30 21396 H 2027.87 -4.01572 -1.09752 0
M  V30 21397 H 2028.41 -3.93261 0.599221 0
M  V30 21398 H 2025.14 -5.89612 2.86423 0
M  V30 21399 H 2024.66 -5.8864 1.15167 0
M  V30 21400 H 2026.34 -6.26692 1.60828 0
M  V30 21401 N 2026.48 -0.441993 -1.51275 0
M  V30 21402 C 2027.72 0.115336 -2.03073 0
M  V30 21403 C 2028.08 1.39979 -1.31998 0
M  V30 21404 O 2027.37 1.86768 -0.427588 0
M  V30 21405 C 2027.56 0.384298 -3.55328 0
M  V30 21406 C 2027.39 -0.87254 -4.41154 0
M  V30 21407 C 2026.16 -1.40742 -4.85304 0
M  V30 21408 C 2028.36 -1.75998 -4.83249 0
M  V30 21409 N 2026.34 -2.61632 -5.55358 0
M  V30 21410 C 2027.71 -2.81489 -5.52416 0
M  V30 21411 C 2029.77 -1.77383 -4.65231 0
M  V30 21412 C 2028.47 -3.88318 -6.05476 0
M  V30 21413 C 2030.5 -2.83151 -5.1921 0
M  V30 21414 C 2029.86 -3.87362 -5.88328 0
M  V30 21415 H 2025.96 0.00292021 -0.781995 0
M  V30 21416 H 2028.54 -0.603705 -1.85104 0
M  V30 21417 H 2026.71 1.07237 -3.73302 0
M  V30 21418 H 2028.45 0.933396 -3.93789 0
M  V30 21419 H 2025.2 -0.960689 -4.63754 0
M  V30 21420 H 2025.62 -3.22945 -5.95009 0
M  V30 21421 H 2030.27 -0.981441 -4.11251 0
M  V30 21422 H 2027.98 -4.68393 -6.58509 0
M  V30 21423 H 2031.57 -2.85171 -5.07118 0
M  V30 21424 H 2030.45 -4.67859 -6.29347 0
M  V30 21425 N 2027.95 1.56642 -0.173515 0
M  V30 21426 C 2028.92 2.16857 0.742008 0
M  V30 21427 C 2029.92 1.11721 1.1565 0
M  V30 21428 O 2031.11 1.37223 1.0731 0
M  V30 21429 C 2028.24 2.7532 2.01026 0
M  V30 21430 H 2029.43 2.99108 0.217769 0
M  V30 21431 H 2026.98 1.56115 0.0760536 0
M  V30 21432 H 2027.72 1.96808 2.57754 0
M  V30 21433 H 2027.5 3.52264 1.722 0
M  V30 21434 H 2028.99 3.21626 2.66358 0
M  V30 21435 N 2029.43 -0.1002 1.57281 0
M  V30 21436 C 2030.39 -1.10612 2.00743 0
M  V30 21437 C 2031.39 -1.33241 0.900199 0
M  V30 21438 O 2032.58 -1.2944 1.1658 0
M  V30 21439 C 2029.72 -2.45642 2.36375 0
M  V30 21440 H 2030.91 -0.732144 2.90826 0
M  V30 21441 H 2028.46 -0.345091 1.52443 0
M  V30 21442 H 2029.2 -2.87925 1.4923 0
M  V30 21443 H 2028.98 -2.30567 3.17146 0
M  V30 21444 H 2030.47 -3.18002 2.70674 0
M  V30 21445 N 2030.91 -1.53174 -0.370891 0
M  V30 21446 C 2031.84 -1.82213 -1.46017 0
M  V30 21447 C 2032.82 -0.675274 -1.56122 0
M  V30 21448 O 2034.01 -0.924614 -1.70776 0
M  V30 21449 C 2031.14 -2.00727 -2.83419 0
M  V30 21450 C 2030.09 -3.16478 -2.88141 0
M  V30 21451 C 2029.42 -3.20276 -4.28167 0
M  V30 21452 C 2030.72 -4.55179 -2.56143 0
M  V30 21453 H 2032.41 -2.73432 -1.21965 0
M  V30 21454 H 2029.96 -1.31569 -0.585288 0
M  V30 21455 H 2031.91 -2.19625 -3.59643 0
M  V30 21456 H 2030.63 -1.06213 -3.08847 0
M  V30 21457 H 2029.29 -2.97392 -2.14367 0
M  V30 21458 H 2028.94 -2.2341 -4.50663 0
M  V30 21459 H 2028.64 -3.98044 -4.32244 0
M  V30 21460 H 2030.16 -3.41352 -5.06272 0
M  V30 21461 H 2031.58 -4.74274 -3.22082 0
M  V30 21462 H 2029.97 -5.35148 -2.71544 0
M  V30 21463 H 2031.04 -4.60654 -1.51412 0
M  V30 21464 N 2032.39 0.630389 -1.44443 0
M  V30 21465 C 2033.3 1.77101 -1.53859 0
M  V30 21466 C 2034.31 1.68749 -0.424221 0
M  V30 21467 O 2035.49 1.89513 -0.681673 0
M  V30 21468 C 2032.55 3.13487 -1.48077 0
M  V30 21469 C 2031.62 3.33464 -2.7037 0
M  V30 21470 C 2030.85 4.63344 -2.64855 0
M  V30 21471 O 2031.07 5.44196 -1.70899 0
M  V30 21472 O 2030.01 4.85539 -3.55718 0
M  V30 21473 H 2033.83 1.7211 -2.50223 0
M  V30 21474 H 2031.42 0.791704 -1.26698 0
M  V30 21475 H 2033.3 3.94788 -1.47378 0
M  V30 21476 H 2031.97 3.19018 -0.54856 0
M  V30 21477 H 2030.88 2.51839 -2.76637 0
M  V30 21478 H 2032.21 3.32795 -3.6264 0
M  V30 21479 N 2033.87 1.31354 0.870861 0
M  V30 21480 C 2035.09 1.23948 1.65664 0
M  V30 21481 C 2035.51 -0.195353 1.87787 0
M  V30 21482 O 2034.87 -1.12708 1.43538 0
M  V30 21483 C 2034.92 1.97912 3.02511 0
M  V30 21484 O 2034.64 3.35795 2.81377 0
M  V30 21485 C 2036.14 1.97336 3.96955 0
M  V30 21486 H 2033.36 0.428328 0.516504 0
M  V30 21487 H 2035.9 1.73214 1.08706 0
M  V30 21488 H 2034.06 1.52409 3.5616 0
M  V30 21489 H 2034.47 3.73444 3.68293 0
M  V30 21490 H 2035.95 2.53601 4.90297 0
M  V30 21491 H 2036.42 0.955651 4.28677 0
M  V30 21492 H 2037.03 2.42714 3.49242 0
M  V30 21493 N 2035.34 -1.08505 1.143 0
M  V30 21494 C 2036.59 -1.8114 0.911938 0
M  V30 21495 C 2036.92 -1.85946 -0.560156 0
M  V30 21496 O 2036.2 -1.33458 -1.41489 0
M  V30 21497 C 2036.48 -3.26806 1.51227 0
M  V30 21498 C 2036.33 -3.30215 3.05414 0
M  V30 21499 C 2037.65 -4.23754 1.1883 0
M  V30 21500 H 2034.77 -0.657619 0.332725 0
M  V30 21501 H 2037.41 -1.27044 1.41279 0
M  V30 21502 H 2035.56 -3.73003 1.08633 0
M  V30 21503 H 2037.24 -2.92351 3.56832 0
M  V30 21504 H 2035.48 -2.69518 3.39915 0
M  V30 21505 H 2036.15 -4.32875 3.42525 0
M  V30 21506 H 2038.63 -3.8589 1.55653 0
M  V30 21507 H 2037.5 -5.23993 1.63469 0
M  V30 21508 H 2037.76 -4.41979 0.103442 0
M  V30 21509 N 2036.82 -0.937962 -1.26649 0
M  V30 21510 C 2037.75 -0.402342 -2.25641 0
M  V30 21511 C 2038.77 0.472614 -1.55789 0
M  V30 21512 O 2039.96 0.283579 -1.76233 0
M  V30 21513 C 2037.06 0.441157 -3.36016 0
M  V30 21514 C 2036.23 -0.416892 -4.35409 0
M  V30 21515 C 2035.29 0.365644 -5.24928 0
M  V30 21516 O 2034.31 -0.230215 -5.68734 0
M  V30 21517 N 2035.52 1.66298 -5.5617 0
M  V30 21518 H 2038.28 -1.25333 -2.72235 0
M  V30 21519 H 2035.84 -0.806494 -1.40383 0
M  V30 21520 H 2037.83 0.971979 -3.92855 0
M  V30 21521 H 2036.4 1.19293 -2.88943 0
M  V30 21522 H 2035.62 -1.12895 -3.77688 0
M  V30 21523 H 2036.91 -1.00313 -4.98813 0
M  V30 21524 H 2036.31 2.16925 -5.22456 0
M  V30 21525 H 2034.87 2.14011 -6.15664 0
M  V30 21526 N 2038.3 1.40971 -0.704618 0
M  V30 21527 C 2039.23 2.33424 -0.0595656 0
M  V30 21528 C 2040.21 1.52306 0.757422 0
M  V30 21529 O 2041.4 1.80812 0.708567 0
M  V30 21530 C 2038.53 3.36202 0.870964 0
M  V30 21531 C 2037.48 4.27699 0.160408 0
M  V30 21532 C 2036.81 5.20924 1.20591 0
M  V30 21533 C 2038.11 5.13047 -0.97878 0
M  V30 21534 H 2039.8 2.87615 -0.83176 0
M  V30 21535 H 2037.35 1.38292 -0.401428 0
M  V30 21536 H 2039.3 3.9981 1.33153 0
M  V30 21537 H 2038.02 2.80381 1.67493 0
M  V30 21538 H 2036.68 3.65527 -0.280222 0
M  V30 21539 H 2036.33 4.61414 2.00264 0
M  V30 21540 H 2036.03 5.8298 0.73543 0
M  V30 21541 H 2037.55 5.8741 1.6668 0
M  V30 21542 H 2038.97 5.70172 -0.598081 0
M  V30 21543 H 2037.36 5.8409 -1.37693 0
M  V30 21544 H 2038.43 4.49675 -1.8144 0
M  V30 21545 N 2039.78 0.45001 1.51039 0
M  V30 21546 C 2040.73 -0.355012 2.28053 0
M  V30 21547 C 2041.7 -1.00578 1.32186 0
M  V30 21548 O 2042.88 -1.02227 1.61103 0
M  V30 21549 C 2040.02 -1.44311 3.13478 0
M  V30 21550 C 2039.13 -0.809213 4.24353 0
M  V30 21551 C 2038.27 -1.87342 4.97068 0
M  V30 21552 C 2037.31 -1.21864 5.99846 0
M  V30 21553 N 2036.44 -2.22477 6.65919 0
M  V30 21554 H 2041.28 0.308084 2.96403 0
M  V30 21555 H 2038.82 0.163778 1.46185 0
M  V30 21556 H 2040.78 -2.08539 3.61341 0
M  V30 21557 H 2039.41 -2.07566 2.47217 0
M  V30 21558 H 2038.46 -0.0548937 3.8036 0
M  V30 21559 H 2039.77 -0.291288 4.97949 0
M  V30 21560 H 2038.93 -2.59203 5.48542 0
M  V30 21561 H 2037.67 -2.42511 4.23131 0
M  V30 21562 H 2036.67 -0.48556 5.47652 0
M  V30 21563 H 2037.9 -0.674124 6.75746 0
M  V30 21564 H 2035.84 -2.76702 5.94788 0
M  V30 21565 H 2035.76 -1.75611 7.35321 0
M  V30 21566 H 2037.03 -2.93782 7.2202 0
M  V30 21567 N 2041.26 -1.56548 0.18182 0
M  V30 21568 C 2042.22 -2.17247 -0.730497 0
M  V30 21569 C 2043.22 -1.12333 -1.15056 0
M  V30 21570 O 2044.41 -1.3779 -1.06581 0
M  V30 21571 C 2041.54 -2.76383 -1.99563 0
M  V30 21572 H 2042.73 -2.9922 -0.201904 0
M  V30 21573 H 2040.29 -1.56153 -0.0677734 0
M  V30 21574 H 2041.02 -1.98173 -2.56706 0
M  V30 21575 H 2040.81 -3.53172 -1.70329 0
M  V30 21576 H 2042.3 -3.23034 -2.64649 0
M  V30 21577 N 2042.73 0.0918577 -1.57332 0
M  V30 21578 C 2043.66 1.11191 -2.05326 0
M  V30 21579 C 2044.65 1.41581 -0.942802 0
M  V30 21580 O 2045.83 1.51555 -1.21428 0
M  V30 21581 C 2042.96 2.4309 -2.48041 0
M  V30 21582 C 2041.91 2.271 -3.6278 0
M  V30 21583 C 2041.24 3.64205 -3.91482 0
M  V30 21584 C 2042.54 1.70886 -4.93554 0
M  V30 21585 H 2044.23 0.712608 -2.90796 0
M  V30 21586 H 2041.78 0.341338 -1.39896 0
M  V30 21587 H 2043.73 3.14724 -2.80226 0
M  V30 21588 H 2042.46 2.84962 -1.59575 0
M  V30 21589 H 2041.12 1.57911 -3.30847 0
M  V30 21590 H 2040.76 4.03611 -3.00179 0
M  V30 21591 H 2040.46 3.54352 -4.68731 0
M  V30 21592 H 2041.99 4.37302 -4.26145 0
M  V30 21593 H 2043.4 2.32364 -5.24099 0
M  V30 21594 H 2041.8 1.71783 -5.74987 0
M  V30 21595 H 2042.87 0.668569 -4.80269 0
M  V30 21596 N 2044.21 1.53368 0.362763 0
M  V30 21597 C 2045.46 1.69938 1.10674 0
M  V30 21598 C 2045.79 0.451301 1.88883 0
M  V30 21599 O 2045.07 -0.551452 1.86519 0
M  V30 21600 C 2045.35 2.95101 2.06367 0
M  V30 21601 C 2045.2 4.30073 1.31748 0
M  V30 21602 C 2046.52 3.15872 3.06452 0
M  V30 21603 H 2043.64 0.61838 0.400968 0
M  V30 21604 H 2046.28 1.86011 0.387265 0
M  V30 21605 H 2044.43 2.81529 2.6772 0
M  V30 21606 H 2046.1 4.55462 0.731574 0
M  V30 21607 H 2044.35 4.29356 0.619347 0
M  V30 21608 H 2045.02 5.13789 2.01803 0
M  V30 21609 H 2047.49 3.28649 2.55204 0
M  V30 21610 H 2046.37 4.04878 3.70628 0
M  V30 21611 H 2046.63 2.31281 3.76778 0
M  V30 21612 N 2045.69 -0.62272 1.44776 0
M  V30 21613 C 2046.65 -1.71618 1.5192 0
M  V30 21614 C 2047.65 -1.55738 0.400303 0
M  V30 21615 O 2048.84 -1.6108 0.66324 0
M  V30 21616 C 2045.98 -3.10771 1.40122 0
M  V30 21617 H 2047.17 -1.66655 2.49332 0
M  V30 21618 H 2044.72 -0.837126 1.31992 0
M  V30 21619 H 2045.46 -3.21323 0.438374 0
M  V30 21620 H 2045.24 -3.23705 2.21264 0
M  V30 21621 H 2046.73 -3.90448 1.48122 0
M  V30 21622 N 2047.17 -1.31814 -0.863883 0
M  V30 21623 C 2048.39 -1.24961 -1.65528 0
M  V30 21624 C 2048.82 0.18096 -1.87228 0
M  V30 21625 O 2048.18 1.12919 -1.41842 0
M  V30 21626 C 2048.22 -2.00518 -2.99708 0
M  V30 21627 O 2047.33 -1.34668 -3.89793 0
M  V30 21628 H 2046.67 -0.431127 -0.505001 0
M  V30 21629 H 2049.2 -1.73981 -1.07665 0
M  V30 21630 H 2049.21 -2.10344 -3.49599 0
M  V30 21631 H 2047.88 -3.0455 -2.83235 0
M  V30 21632 H 2046.46 -1.33332 -3.48249 0
M  V30 21633 N 2048.65 1.07897 -1.14873 0
M  V30 21634 C 2049.58 2.16955 -0.863287 0
M  V30 21635 C 2050.56 1.69103 0.183853 0
M  V30 21636 O 2051.74 1.9416 0.0394136 0
M  V30 21637 C 2048.87 3.45575 -0.345696 0
M  V30 21638 C 2047.83 4.06847 -1.32888 0
M  V30 21639 C 2047.15 5.30481 -0.670367 0
M  V30 21640 C 2048.45 4.47523 -2.69296 0
M  V30 21641 H 2050.15 2.41091 -1.77526 0
M  V30 21642 H 2047.69 1.1587 -0.854991 0
M  V30 21643 H 2049.65 4.21188 -0.133575 0
M  V30 21644 H 2048.37 3.21009 0.601722 0
M  V30 21645 H 2047.03 3.33272 -1.52726 0
M  V30 21646 H 2046.68 5.02203 0.283023 0
M  V30 21647 H 2046.38 5.72433 -1.32645 0
M  V30 21648 H 2047.9 6.08805 -0.467891 0
M  V30 21649 H 2049.31 5.1429 -2.53335 0
M  V30 21650 H 2047.71 5.00409 -3.31226 0
M  V30 21651 H 2048.78 3.59159 -3.2578 0
M  V30 21652 N 2050.12 0.944665 1.2615 0
M  V30 21653 C 2051.54 0.636259 1.75524 0
M  V30 21654 C 2051.89 -0.848524 1.76903 0
M  V30 21655 O 2051.01 -1.66407 1.38339 0
M  V30 21656 C 2051.61 1.14823 3.18749 0
M  V30 21657 C 2050.17 0.890177 3.65722 0
M  V30 21658 C 2049.31 1.29711 2.45093 0
M  V30 21659 H 2052.26 1.12258 1.12177 0
M  V30 21660 H 2052.28 0.503668 3.77152 0
M  V30 21661 H 2051.8 2.22889 3.17714 0
M  V30 21662 H 2049.9 -0.175952 3.72184 0
M  V30 21663 H 2050.01 1.51963 4.54361 0
M  V30 21664 H 2048.37 0.71552 2.44443 0
M  V30 21665 H 2049.16 2.38677 2.46755 0
M  V30 21666 N 2051.6 -1.40596 0.712085 0
M  V30 21667 C 2052.85 -2.00553 0.249593 0
M  V30 21668 C 2053.17 -1.56736 -1.16012 0
M  V30 21669 O 2052.44 -0.805259 -1.78584 0
M  V30 21670 H 2051.02 -0.741644 0.0892885 0
M  V30 21671 H 2053.68 -1.71984 0.916933 0
M  V30 21672 H 2052.78 -3.10842 0.279939 0
M  V30 21673 N 2053.08 -0.458013 -1.50798 0
M  V30 21674 C 2054.01 0.379016 -2.26044 0
M  V30 21675 C 2055.03 0.96848 -1.3086 0
M  V30 21676 O 2056.21 0.859106 -1.56466 0
M  V30 21677 C 2053.31 1.54427 -3.01671 0
M  V30 21678 C 2052.49 1.06997 -4.24111 0
M  V30 21679 C 2051.55 2.10775 -4.82142 0
M  V30 21680 O 2050.57 1.69367 -5.43418 0
M  V30 21681 N 2051.77 3.43464 -4.67988 0
M  V30 21682 H 2054.54 -0.266 -2.98517 0
M  V30 21683 H 2052.1 -0.288052 -1.59317 0
M  V30 21684 H 2054.09 2.23518 -3.37375 0
M  V30 21685 H 2052.66 2.09423 -2.32079 0
M  V30 21686 H 2051.88 0.205395 -3.93665 0
M  V30 21687 H 2053.17 0.730786 -5.03525 0
M  V30 21688 H 2052.57 3.79824 -4.19226 0
M  V30 21689 H 2051.13 4.0839 -5.07997 0
M  V30 21690 N 2054.56 1.56449 -0.190119 0
M  V30 21691 C 2055.49 2.21861 0.728019 0
M  V30 21692 C 2056.47 1.18012 1.22504 0
M  V30 21693 O 2057.66 1.46503 1.27478 0
M  V30 21694 C 2054.79 2.87407 1.94973 0
M  V30 21695 C 2053.74 3.97457 1.58782 0
M  V30 21696 C 2053.07 4.50144 2.88573 0
M  V30 21697 C 2054.37 5.16113 0.801535 0
M  V30 21698 H 2056.06 2.98842 0.182734 0
M  V30 21699 H 2053.61 1.4374 0.0864508 0
M  V30 21700 H 2055.56 3.31848 2.59721 0
M  V30 21701 H 2054.28 2.07824 2.51946 0
M  V30 21702 H 2052.94 3.537 0.96395 0
M  V30 21703 H 2052.59 3.67328 3.43626 0
M  V30 21704 H 2052.29 5.24398 2.65105 0
M  V30 21705 H 2053.81 4.97283 3.54318 0
M  V30 21706 H 2055.23 5.5713 1.35201 0
M  V30 21707 H 2053.62 5.96402 0.66517 0
M  V30 21708 H 2054.69 4.84494 -0.198407 0
M  V30 21709 N 2056.04 -0.0835127 1.57379 0
M  V30 21710 C 2056.97 -1.12692 1.99582 0
M  V30 21711 C 2057.98 -1.35658 0.900041 0
M  V30 21712 O 2059.17 -1.34105 1.17805 0
M  V30 21713 C 2056.27 -2.4802 2.30953 0
M  V30 21714 C 2055.44 -2.45172 3.62228 0
M  V30 21715 C 2054.5 -3.62516 3.81403 0
M  V30 21716 O 2053.53 -3.44479 4.53126 0
M  V30 21717 N 2054.73 -4.82432 3.22862 0
M  V30 21718 H 2057.5 -0.767618 2.89703 0
M  V30 21719 H 2055.06 -0.272335 1.59593 0
M  V30 21720 H 2057.05 -3.25144 2.40964 0
M  V30 21721 H 2055.62 -2.75996 1.46781 0
M  V30 21722 H 2054.84 -1.53514 3.6308 0
M  V30 21723 H 2056.13 -2.40359 4.48448 0
M  V30 21724 H 2055.53 -4.9999 2.64625 0
M  V30 21725 H 2054.08 -5.57108 3.3834 0
M  V30 21726 N 2057.52 -1.53558 -0.354624 0
M  V30 21727 C 2058.75 -1.73941 -1.11481 0
M  V30 21728 C 2059.15 -0.473288 -1.83185 0
M  V30 21729 O 2058.5 0.564174 -1.74822 0
M  V30 21730 C 2058.56 -2.85765 -2.18125 0
M  V30 21731 C 2058.22 -4.25749 -1.66093 0
M  V30 21732 C 2059.22 -5.07712 -1.11914 0
M  V30 21733 C 2056.9 -4.72198 -1.71274 0
M  V30 21734 C 2058.9 -6.34218 -0.636077 0
M  V30 21735 C 2056.59 -5.9868 -1.2258 0
M  V30 21736 C 2057.58 -6.79522 -0.688378 0
M  V30 21737 O 2057.27 -8.03629 -0.208659 0
M  V30 21738 H 2057 -0.584973 -0.338796 0
M  V30 21739 H 2059.56 -2.01143 -0.416033 0
M  V30 21740 H 2057.79 -2.54063 -2.91528 0
M  V30 21741 H 2059.48 -2.94222 -2.79621 0
M  V30 21742 H 2060.24 -4.72995 -1.07241 0
M  V30 21743 H 2056.12 -4.09338 -2.12045 0
M  V30 21744 H 2059.67 -6.97266 -0.215934 0
M  V30 21745 H 2055.56 -6.32893 -1.26949 0
M  V30 21746 H 2056.33 -8.17847 -0.326976 0
M  V30 21747 N 2058.99 0.615033 -1.45104 0
M  V30 21748 C 2059.94 1.72617 -1.53206 0
M  V30 21749 C 2060.91 1.6173 -0.378499 0
M  V30 21750 O 2062.1 1.81418 -0.590937 0
M  V30 21751 C 2059.24 3.1091 -1.49763 0
M  V30 21752 C 2058.35 3.32657 -2.75615 0
M  V30 21753 C 2057.48 4.61014 -2.63894 0
M  V30 21754 C 2056.52 4.75993 -3.84834 0
M  V30 21755 N 2055.66 5.95642 -3.71692 0
M  V30 21756 H 2060.5 1.65028 -2.48133 0
M  V30 21757 H 2058.04 0.804792 -1.23132 0
M  V30 21758 H 2059.99 3.90911 -1.45755 0
M  V30 21759 H 2058.62 3.17475 -0.583921 0
M  V30 21760 H 2057.68 2.46484 -2.89741 0
M  V30 21761 H 2058.99 3.39601 -3.65339 0
M  V30 21762 H 2058.14 5.49198 -2.5781 0
M  V30 21763 H 2056.88 4.56455 -1.71756 0
M  V30 21764 H 2055.89 3.86234 -3.91284 0
M  V30 21765 H 2057.11 4.82354 -4.78028 0
M  V30 21766 H 2055.06 5.92143 -2.82318 0
M  V30 21767 H 2054.97 6.03713 -4.55046 0
M  V30 21768 H 2056.24 6.86345 -3.69528 0
M  V30 21769 N 2060.47 1.3227 0.85688 0
M  V30 21770 C 2061.71 1.24017 1.62478 0
M  V30 21771 C 2062.08 -0.195596 1.91001 0
M  V30 21772 O 2063.28 -0.401822 2.6578 0
M  V30 21773 C 2061.55 2.07356 2.91098 0
M  V30 21774 S 2063.11 2.16105 3.81895 0
M  V30 21775 H 2059.92 0.441493 0.557319 0
M  V30 21776 H 2062.53 1.67092 1.01492 0
M  V30 21777 H 2061.23 3.10737 2.68087 0
M  V30 21778 H 2060.76 1.65051 3.57102 0
M  V30 21779 H 2062.78 1.30893 4.78625 0
M  V30 21780 N 2061.95 -1.07287 1.15444 0
M  V30 21781 C 2062.91 -2.12679 0.854419 0
M  V30 21782 C 2063.91 -1.60135 -0.146116 0
M  V30 21783 O 2065.1 -1.73999 0.0835953 0
M  V30 21784 C 2062.23 -3.39782 0.275849 0
M  V30 21785 H 2063.43 -2.40726 1.7886 0
M  V30 21786 H 2060.98 -1.23187 0.96201 0
M  V30 21787 H 2061.72 -3.17377 -0.666496 0
M  V30 21788 H 2061.5 -3.79222 0.996665 0
M  V30 21789 H 2062.99 -4.17516 0.0835417 0
M  V30 21790 N 2063.43 -0.951342 -1.25647 0
M  V30 21791 C 2064.7 -0.521845 -1.8851 0
M  V30 21792 C 2065.08 1.00082 -1.85868 0
M  V30 21793 O 2064.43 1.86519 -1.31995 0
M  V30 21794 C 2064.64 -1.09473 -3.31386 0
M  V30 21795 C 2065.99 -1.16958 -4.08174 0
M  V30 21796 O 2067.01 -1.04605 -3.40494 0
M  V30 21797 O 2065.87 -1.36298 -5.29231 0
M  V30 21798 H 2062.97 -0.171638 -0.808993 0
M  V30 21799 H 2065.51 -1.04456 -1.33742 0
M  V30 21800 H 2064.29 -2.13807 -3.27723 0
M  V30 21801 H 2063.91 -0.555071 -3.93706 0
M  V30 21802 N 2064.91 1.40216 -0.719531 0
M  V30 21803 C 2066.32 1.54673 -0.393494 0
M  V30 21804 C 2066.52 1.69001 1.09732 0
M  V30 21805 O 2065.58 1.6818 1.88339 0
M  V30 21806 C 2066.89 2.77299 -1.163 0
M  V30 21807 C 2068.44 2.9112 -1.14969 0
M  V30 21808 C 2068.91 4.16665 -1.90143 0
M  V30 21809 N 2070.4 4.23673 -1.87232 0
M  V30 21810 C 2071.14 5.19729 -2.42219 0
M  V30 21811 N 2070.64 6.21669 -3.05778 0
M  V30 21812 N 2072.43 5.11835 -2.32338 0
M  V30 21813 H 2064.58 1.29162 -1.68614 0
M  V30 21814 H 2066.84 0.624867 -0.712914 0
M  V30 21815 H 2066.55 2.73003 -2.21726 0
M  V30 21816 H 2066.42 3.69521 -0.757213 0
M  V30 21817 H 2068.81 2.94918 -0.103615 0
M  V30 21818 H 2068.89 2.00005 -1.59473 0
M  V30 21819 H 2068.53 4.13629 -2.94744 0
M  V30 21820 H 2068.46 5.06796 -1.43057 0
M  V30 21821 H 2070.96 3.50645 -1.40914 0
M  V30 21822 H 2071.27 6.91396 -3.45241 0
M  V30 21823 H 2069.61 6.22101 -3.09863 0
M  V30 21824 H 2072.8 4.31127 -1.82338 0
M  V30 21825 H 2072.98 5.86522 -2.75492 0
M  V30 21826 N 2066.38 0.466004 1.50553 0
M  V30 21827 C 2067.63 -0.09056 2.01897 0
M  V30 21828 C 2067.95 -1.40673 1.35041 0
M  V30 21829 O 2067.22 -1.89567 0.494095 0
M  V30 21830 H 2065.8 -0.0364574 0.74611 0
M  V30 21831 H 2068.46 0.615265 1.84934 0
M  V30 21832 H 2067.56 -0.245757 3.11131 0
M  V30 21833 N 2067.86 -1.56346 0.198413 0
M  V30 21834 C 2068.77 -2.22855 -0.733001 0
M  V30 21835 C 2069.79 -1.22868 -1.23205 0
M  V30 21836 O 2070.96 -1.55615 -1.27852 0
M  V30 21837 C 2068.03 -2.87746 -1.93399 0
M  V30 21838 C 2067.09 -4.03012 -1.47919 0
M  V30 21839 C 2066.32 -4.64799 -2.62293 0
M  V30 21840 O 2066.55 -4.25516 -3.79859 0
M  V30 21841 O 2065.48 -5.54206 -2.34817 0
M  V30 21842 H 2069.31 -3.03063 -0.196563 0
M  V30 21843 H 2066.89 -1.49368 -0.0310254 0
M  V30 21844 H 2068.77 -3.28788 -2.63584 0
M  V30 21845 H 2067.45 -2.10514 -2.45897 0
M  V30 21846 H 2066.35 -3.66586 -0.746038 0
M  V30 21847 H 2067.69 -4.81917 -1.00084 0
M  V30 21848 N 2069.34 0.0751653 -1.57421 0
M  V30 21849 C 2070.62 0.807768 -1.78142 0
M  V30 21850 C 2071 1.95956 -0.785139 0
M  V30 21851 O 2070.35 2.27771 0.182413 0
M  V30 21852 C 2070.56 1.28385 -3.24528 0
M  V30 21853 C 2071.9 1.71859 -3.88265 0
M  V30 21854 O 2072.93 1.3796 -3.28398 0
M  V30 21855 O 2071.79 2.3461 -4.93579 0
M  V30 21856 H 2068.88 0.386806 -0.730965 0
M  V30 21857 H 2071.43 0.0555021 -1.69609 0
M  V30 21858 H 2070.2 0.459543 -3.88592 0
M  V30 21859 H 2069.82 2.09753 -3.37771 0
M  V30 21860 N 2070.82 1.53744 0.346476 0
M  V30 21861 C 2071.75 1.84512 1.43099 0
M  V30 21862 C 2072.73 0.700026 1.55028 0
M  V30 21863 O 2073.91 0.951666 1.69284 0
M  V30 21864 C 2071.04 2.0521 2.80189 0
M  V30 21865 C 2070 3.21022 2.8307 0
M  V30 21866 C 2069.32 3.27048 4.23018 0
M  V30 21867 C 2070.62 4.59196 2.4887 0
M  V30 21868 H 2072.32 2.75338 1.17599 0
M  V30 21869 H 2069.86 1.32483 0.564283 0
M  V30 21870 H 2071.82 2.25318 3.56103 0
M  V30 21871 H 2070.54 1.11113 3.07118 0
M  V30 21872 H 2069.2 3.00765 2.09609 0
M  V30 21873 H 2068.85 2.30551 4.47052 0
M  V30 21874 H 2068.55 4.0487 4.25857 0
M  V30 21875 H 2070.07 3.49363 5.00777 0
M  V30 21876 H 2071.49 4.79338 3.14496 0
M  V30 21877 H 2069.88 5.39401 2.62996 0
M  V30 21878 H 2070.95 4.63005 1.44064 0
M  V30 21879 N 2072.3 -0.607329 1.45428 0
M  V30 21880 C 2073.52 -1.39786 1.53214 0
M  V30 21881 C 2073.95 -1.87369 0.165684 0
M  V30 21882 O 2073.3 -1.60154 -0.849728 0
M  V30 21883 C 2073.35 -2.57823 2.52111 0
M  V30 21884 O 2072.46 -3.58462 2.03909 0
M  V30 21885 H 2071.8 -0.417312 0.516476 0
M  V30 21886 H 2074.33 -0.739101 1.90784 0
M  V30 21887 H 2074.34 -3.05064 2.70925 0
M  V30 21888 H 2073.01 -2.22539 3.51354 0
M  V30 21889 H 2071.59 -3.17868 1.94973 0
M  V30 21890 N 2073.77 -1.32722 -0.849853 0
M  V30 21891 C 2075.02 -1.23739 -1.60675 0
M  V30 21892 C 2075.35 0.199183 -1.93176 0
M  V30 21893 O 2074.63 1.13761 -1.57761 0
M  V30 21894 C 2074.91 -2.10183 -2.92395 0
M  V30 21895 C 2074.76 -3.62243 -2.66646 0
M  V30 21896 C 2076.08 -1.96664 -3.93715 0
M  V30 21897 H 2073.2 -0.45085 -0.583013 0
M  V30 21898 H 2075.84 -1.62716 -0.980999 0
M  V30 21899 H 2073.99 -1.77072 -3.458 0
M  V30 21900 H 2075.67 -4.05591 -2.19758 0
M  V30 21901 H 2073.91 -3.8467 -2.00529 0
M  V30 21902 H 2074.58 -4.1806 -3.60458 0
M  V30 21903 H 2077.06 -2.25679 -3.49583 0
M  V30 21904 H 2075.93 -2.59417 -4.83729 0
M  V30 21905 H 2076.19 -0.935664 -4.32085 0
M  V30 21906 N 2075.25 1.06673 -1.16011 0
M  V30 21907 C 2076.5 1.79046 -0.937394 0
M  V30 21908 C 2076.82 1.87476 0.536438 0
M  V30 21909 O 2076.09 1.38065 1.38977 0
M  V30 21910 H 2074.67 0.663167 -0.343829 0
M  V30 21911 H 2077.33 1.28878 -1.46207 0
M  V30 21912 H 2076.43 2.81259 -1.35278 0
M  V30 21913 N 2076.73 0.957992 1.25141 0
M  V30 21914 C 2077.66 0.438189 2.24972 0
M  V30 21915 C 2078.68 -0.447769 1.56521 0
M  V30 21916 O 2079.86 -0.255506 1.76662 0
M  V30 21917 C 2076.96 -0.387644 3.36676 0
M  V30 21918 C 2076.14 0.486109 4.3469 0
M  V30 21919 C 2075.2 -0.282086 5.25443 0
M  V30 21920 O 2074.22 0.320666 5.68296 0
M  V30 21921 N 2075.42 -1.57428 5.58746 0
M  V30 21922 H 2078.19 1.29648 2.70206 0
M  V30 21923 H 2075.75 0.828726 1.39082 0
M  V30 21924 H 2077.74 -0.909356 3.94351 0
M  V30 21925 H 2076.31 -1.14681 2.90804 0
M  V30 21926 H 2075.53 1.18889 3.75844 0
M  V30 21927 H 2076.82 1.08236 4.97154 0
M  V30 21928 H 2076.22 -2.08586 5.25841 0
M  V30 21929 H 2074.78 -2.04189 6.18991 0
M  V30 21930 N 2078.21 -1.39832 0.726957 0
M  V30 21931 C 2079.16 -2.30655 0.0817379 0
M  V30 21932 C 2080.13 -1.48792 -0.738257 0
M  V30 21933 O 2081.31 -1.775 -0.699873 0
M  V30 21934 C 2078.45 -3.35079 -0.825599 0
M  V30 21935 C 2077.56 -4.32 0.006145 0
M  V30 21936 C 2076.7 -5.23491 -0.90172 0
M  V30 21937 C 2075.74 -6.12066 -0.064744 0
M  V30 21938 N 2074.87 -6.95939 -0.928103 0
M  V30 21939 H 2079.71 -2.85263 0.861906 0
M  V30 21940 H 2077.25 -1.40468 0.436709 0
M  V30 21941 H 2079.21 -3.94203 -1.36602 0
M  V30 21942 H 2077.84 -2.81946 -1.57183 0
M  V30 21943 H 2076.89 -3.74562 0.66389 0
M  V30 21944 H 2078.2 -4.94499 0.65365 0
M  V30 21945 H 2077.36 -5.87602 -1.51027 0
M  V30 21946 H 2076.1 -4.61294 -1.58302 0
M  V30 21947 H 2075.1 -5.46975 0.556665 0
M  V30 21948 H 2076.33 -6.76326 0.613222 0
M  V30 21949 H 2074.27 -6.36318 -1.59484 0
M  V30 21950 H 2074.19 -7.55249 -0.336895 0
M  V30 21951 H 2075.46 -7.64487 -1.52247 0
M  V30 21952 N 2079.69 -0.473982 -1.50304 0
M  V30 21953 C 2080.62 0.355019 -2.26434 0
M  V30 21954 C 2081.63 0.954546 -1.3188 0
M  V30 21955 O 2082.82 0.842462 -1.57368 0
M  V30 21956 C 2079.92 1.51219 -3.03292 0
M  V30 21957 C 2079.09 1.02492 -4.25222 0
M  V30 21958 C 2078.15 2.05649 -4.8435 0
M  V30 21959 O 2077.18 1.63594 -5.45184 0
M  V30 21960 N 2078.38 3.38481 -4.71605 0
M  V30 21961 H 2081.15 -0.297646 -2.98218 0
M  V30 21962 H 2078.71 -0.304934 -1.59002 0
M  V30 21963 H 2080.7 2.19927 -3.39726 0
M  V30 21964 H 2079.27 2.0695 -2.34287 0
M  V30 21965 H 2078.49 0.16363 -3.9386 0
M  V30 21966 H 2079.78 0.677339 -5.04271 0
M  V30 21967 H 2079.17 3.75356 -4.23231 0
M  V30 21968 H 2077.73 4.02979 -5.123 0
M  V30 21969 N 2081.16 1.56239 -0.206702 0
M  V30 21970 C 2082.09 2.2262 0.704446 0
M  V30 21971 C 2083.08 1.19305 1.21245 0
M  V30 21972 O 2084.26 1.47846 1.25917 0
M  V30 21973 C 2081.39 2.89459 1.91913 0
M  V30 21974 C 2080.34 3.99119 1.54558 0
M  V30 21975 C 2079.67 4.53179 2.83783 0
M  V30 21976 C 2080.97 5.16934 0.746749 0
M  V30 21977 H 2082.66 2.99019 0.151028 0
M  V30 21978 H 2080.21 1.43824 0.0712004 0
M  V30 21979 H 2082.16 3.34584 2.56186 0
M  V30 21980 H 2080.89 2.10484 2.49728 0
M  V30 21981 H 2079.55 3.54702 0.926381 0
M  V30 21982 H 2079.19 3.70952 3.39711 0
M  V30 21983 H 2078.89 5.2718 2.59528 0
M  V30 21984 H 2080.42 5.01013 3.49024 0
M  V30 21985 H 2081.83 5.58532 1.29284 0
M  V30 21986 H 2080.23 5.97074 0.601876 0
M  V30 21987 H 2081.3 4.84256 -0.249783 0
M  V30 21988 N 2082.64 -0.0668159 1.57458 0
M  V30 21989 C 2083.57 -1.0791 2.07069 0
M  V30 21990 C 2084.55 -1.40063 0.965207 0
M  V30 21991 O 2085.74 -1.49604 1.23823 0
M  V30 21992 C 2082.87 -2.39113 2.51877 0
M  V30 21993 C 2081.82 -2.213 3.66347 0
M  V30 21994 C 2081.15 -3.57931 3.97227 0
M  V30 21995 C 2082.45 -1.63013 4.9621 0
M  V30 21996 H 2084.14 -0.666254 2.91893 0
M  V30 21997 H 2081.69 -0.319039 1.40421 0
M  V30 21998 H 2083.64 -3.10226 2.85198 0
M  V30 21999 H 2082.37 -2.82387 1.64088 0
M  V30 22000 H 2081.02 -1.52628 3.33317 0
M  V30 22001 H 2080.67 -3.98784 3.06562 0
M  V30 22002 H 2080.37 -3.4685 4.74309 0
M  V30 22003 H 2081.9 -4.30467 4.33048 0
M  V30 22004 H 2083.31 -2.23997 5.27729 0
M  V30 22005 H 2081.71 -1.62614 5.77648 0
M  V30 22006 H 2082.78 -0.592078 4.81272 0
M  V30 22007 N 2084.12 -1.53926 -0.338317 0
M  V30 22008 C 2085.36 -1.73141 -1.08635 0
M  V30 22009 C 2085.73 -0.486994 -1.85721 0
M  V30 22010 O 2086.93 -0.556249 -2.62982 0
M  V30 22011 C 2085.2 -2.9631 -1.99838 0
M  V30 22012 S 2086.76 -3.3636 -2.81793 0
M  V30 22013 H 2083.57 -0.608969 -0.366984 0
M  V30 22014 H 2086.18 -1.92079 -0.364135 0
M  V30 22015 H 2084.88 -3.85045 -1.42017 0
M  V30 22016 H 2084.41 -2.79853 -2.76489 0
M  V30 22017 H 2086.43 -2.90504 -4.02271 0
M  V30 22018 N 2085.6 0.599608 -1.45748 0
M  V30 22019 C 2086.53 1.72038 -1.57877 0
M  V30 22020 C 2087.51 1.64578 -0.429893 0
M  V30 22021 O 2088.7 1.82855 -0.654037 0
M  V30 22022 C 2085.83 3.10657 -1.55272 0
M  V30 22023 C 2084.78 3.32936 -2.68957 0
M  V30 22024 C 2084.11 4.71909 -2.51408 0
M  V30 22025 C 2085.41 3.22412 -4.10911 0
M  V30 22026 H 2087.1 1.62144 -2.51694 0
M  V30 22027 H 2084.65 0.778641 -1.21133 0
M  V30 22028 H 2086.6 3.8887 -1.62353 0
M  V30 22029 H 2085.32 3.21411 -0.579891 0
M  V30 22030 H 2083.98 2.57117 -2.61317 0
M  V30 22031 H 2083.63 4.79406 -1.52247 0
M  V30 22032 H 2083.33 4.8777 -3.2765 0
M  V30 22033 H 2084.85 5.52311 -2.60355 0
M  V30 22034 H 2086.27 3.90488 -4.19752 0
M  V30 22035 H 2084.66 3.498 -4.87607 0
M  V30 22036 H 2085.73 2.19732 -4.32256 0
M  V30 22037 N 2087.08 1.33171 0.842803 0
M  V30 22038 C 2088.04 1.23019 1.93388 0
M  V30 22039 C 2089.04 0.15022 1.60097 0
M  V30 22040 O 2090.23 0.401472 1.69511 0
M  V30 22041 C 2087.36 0.89468 3.2895 0
M  V30 22042 H 2088.56 2.19997 2.03817 0
M  V30 22043 H 2086.11 1.17173 1.03442 0
M  V30 22044 H 2086.84 -0.0727774 3.24218 0
M  V30 22045 H 2086.63 1.67563 3.54493 0
M  V30 22046 H 2088.12 0.848284 4.08894 0
M  V30 22047 N 2088.56 -1.06056 1.16576 0
M  V30 22048 C 2089.97 -1.31034 0.911171 0
M  V30 22049 C 2090.17 -1.96758 -0.434593 0
M  V30 22050 O 2089.23 -2.2357 -1.17357 0
M  V30 22051 C 2090.54 -2.18865 2.06201 0
M  V30 22052 C 2092.09 -2.32274 2.09804 0
M  V30 22053 C 2092.56 -3.23461 3.24248 0
M  V30 22054 N 2094.05 -3.31045 3.2398 0
M  V30 22055 C 2094.79 -4.01702 4.09174 0
M  V30 22056 N 2094.29 -4.7486 5.0446 0
M  V30 22057 N 2096.08 -3.97777 3.97153 0
M  V30 22058 H 2088.23 -0.617904 2.03213 0
M  V30 22059 H 2090.49 -0.335006 0.886834 0
M  V30 22060 H 2090.2 -1.77852 3.03417 0
M  V30 22061 H 2090.07 -3.19462 2.00559 0
M  V30 22062 H 2092.46 -2.72534 1.13179 0
M  V30 22063 H 2092.54 -1.31337 2.19509 0
M  V30 22064 H 2092.18 -2.83918 4.21133 0
M  V30 22065 H 2092.11 -4.24384 3.11779 0
M  V30 22066 H 2094.61 -2.78911 2.54984 0
M  V30 22067 H 2094.92 -5.26308 5.65879 0
M  V30 22068 H 2093.26 -4.73832 5.08437 0
M  V30 22069 H 2096.45 -3.39743 3.22013 0
M  V30 22070 H 2096.63 -4.52574 4.63768 0
M  V30 22071 N 2090.03 -0.964615 -1.24631 0
M  V30 22072 C 2091 -0.497206 -2.23742 0
M  V30 22073 C 2092 0.404569 -1.55627 0
M  V30 22074 O 2093.19 0.200461 -1.73043 0
M  V30 22075 C 2090.32 0.280348 -3.39745 0
M  V30 22076 H 2091.51 -1.37334 -2.66607 0
M  V30 22077 H 2089.06 -0.748889 -1.37191 0
M  V30 22078 H 2089.8 1.17372 -3.02315 0
M  V30 22079 H 2089.58 -0.366741 -3.90381 0
M  V30 22080 H 2091.07 0.596501 -4.13318 0
M  V30 22081 N 2091.51 1.39445 -0.734362 0
M  V30 22082 C 2092.44 2.33245 -0.109065 0
M  V30 22083 C 2093.42 1.53878 0.724945 0
M  V30 22084 O 2094.61 1.82274 0.670055 0
M  V30 22085 C 2091.74 3.37973 0.799454 0
M  V30 22086 C 2090.69 4.27943 0.0696508 0
M  V30 22087 C 2090.02 5.23365 1.09514 0
M  V30 22088 C 2091.32 5.10855 -1.08738 0
M  V30 22089 H 2093.01 2.85786 -0.892581 0
M  V30 22090 H 2090.56 1.37409 -0.430672 0
M  V30 22091 H 2092.51 4.02545 1.24643 0
M  V30 22092 H 2091.23 2.83871 1.61508 0
M  V30 22093 H 2089.89 3.64851 -0.357693 0
M  V30 22094 H 2089.54 4.65559 1.90432 0
M  V30 22095 H 2089.24 5.84408 0.611606 0
M  V30 22096 H 2090.77 5.90813 1.54183 0
M  V30 22097 H 2092.18 5.68775 -0.718888 0
M  V30 22098 H 2090.58 5.81038 -1.50051 0
M  V30 22099 H 2091.65 4.45725 -1.90937 0
M  V30 22100 N 2092.99 0.481946 1.5005 0
M  V30 22101 C 2093.92 -0.296253 2.31613 0
M  V30 22102 C 2094.9 -0.98032 1.3901 0
M  V30 22103 O 2096.09 -0.975402 1.67927 0
M  V30 22104 C 2093.22 -1.37231 3.19037 0
M  V30 22105 C 2092.17 -0.809232 4.2028 0
M  V30 22106 C 2091.5 -1.98439 4.96514 0
M  V30 22107 C 2092.8 0.18685 5.21966 0
M  V30 22108 H 2094.49 0.384509 2.96921 0
M  V30 22109 H 2092.04 0.186362 1.42789 0
M  V30 22110 H 2093.99 -1.92429 3.74899 0
M  V30 22111 H 2092.71 -2.082 2.51636 0
M  V30 22112 H 2091.37 -0.279145 3.65536 0
M  V30 22113 H 2091.02 -2.68131 4.25576 0
M  V30 22114 H 2090.72 -1.6138 5.65005 0
M  V30 22115 H 2092.24 -2.54107 5.55213 0
M  V30 22116 H 2093.66 -0.276326 5.72634 0
M  V30 22117 H 2092.05 0.472282 5.98239 0
M  V30 22118 H 2093.12 1.10915 4.72044 0
M  V30 22119 N 2094.47 -1.56127 0.214985 0
M  V30 22120 C 2095.88 -1.5898 -0.140524 0
M  V30 22121 C 2096.08 -1.23166 -1.59475 0
M  V30 22122 O 2095.14 -0.963792 -2.33382 0
M  V30 22123 C 2096.45 -3.00162 0.179827 0
M  V30 22124 C 2098 -3.12764 0.121534 0
M  V30 22125 C 2098.48 -4.56112 0.415468 0
M  V30 22126 N 2099.97 -4.61761 0.364801 0
M  V30 22127 C 2100.7 -5.70602 0.565817 0
M  V30 22128 N 2100.2 -6.87831 0.828254 0
M  V30 22129 N 2101.99 -5.59883 0.498704 0
M  V30 22130 H 2094.14 -1.77683 1.16372 0
M  V30 22131 H 2096.4 -0.825579 0.465964 0
M  V30 22132 H 2096.11 -3.30995 1.1889 0
M  V30 22133 H 2095.98 -3.7376 -0.508279 0
M  V30 22134 H 2098.37 -2.81731 -0.878172 0
M  V30 22135 H 2098.45 -2.4151 0.843017 0
M  V30 22136 H 2098.1 -4.87861 1.41258 0
M  V30 22137 H 2098.03 -5.25583 -0.327132 0
M  V30 22138 H 2100.52 -3.7752 0.169387 0
M  V30 22139 H 2100.83 -7.66689 0.969914 0
M  V30 22140 H 2099.18 -6.89591 0.865375 0
M  V30 22141 H 2102.37 -4.67176 0.293953 0
M  V30 22142 H 2102.54 -6.44643 0.658773 0
M  V30 22143 N 2095.95 0.0584645 -1.57492 0
M  V30 22144 C 2096.89 1.06805 -2.04601 0
M  V30 22145 C 2097.86 1.37677 -0.929204 0
M  V30 22146 O 2099.05 1.48518 -1.19779 0
M  V30 22147 C 2096.19 2.37272 -2.50591 0
M  V30 22148 C 2095.3 2.12815 -3.75944 0
M  V30 22149 C 2094.44 3.36941 -4.10663 0
M  V30 22150 C 2093.47 3.07907 -5.29018 0
M  V30 22151 N 2092.61 4.24401 -5.5931 0
M  V30 22152 H 2097.45 0.659352 -2.90614 0
M  V30 22153 H 2094.99 0.313985 -1.4371 0
M  V30 22154 H 2096.95 3.13463 -2.75312 0
M  V30 22155 H 2095.58 2.75919 -1.67536 0
M  V30 22156 H 2094.63 1.27255 -3.58483 0
M  V30 22157 H 2095.94 1.87378 -4.62267 0
M  V30 22158 H 2095.09 4.21519 -4.36356 0
M  V30 22159 H 2093.83 3.65466 -3.22933 0
M  V30 22160 H 2092.84 2.21727 -5.03108 0
M  V30 22161 H 2094.06 2.80691 -6.18377 0
M  V30 22162 H 2092.01 4.52933 -4.7454 0
M  V30 22163 H 2091.93 4.02284 -6.40081 0
M  V30 22164 H 2093.19 5.09938 -5.89562 0
M  V30 22165 N 2097.42 1.54103 0.330149 0
M  V30 22166 C 2098.65 1.75948 1.08857 0
M  V30 22167 C 2099.07 0.504949 1.81922 0
M  V30 22168 O 2098.42 -0.524053 1.74814 0
M  V30 22169 C 2098.47 2.94836 2.09175 0
M  V30 22170 O 2098.2 4.15438 1.39079 0
M  V30 22171 C 2099.7 3.28839 2.97287 0
M  V30 22172 H 2096.92 0.587551 0.324076 0
M  V30 22173 H 2099.46 2.00971 0.378279 0
M  V30 22174 H 2097.62 2.72105 2.75749 0
M  V30 22175 H 2098.03 4.82266 2.06204 0
M  V30 22176 H 2099.5 4.15343 3.63586 0
M  V30 22177 H 2099.98 2.4572 3.64031 0
M  V30 22178 H 2100.59 3.53624 2.36284 0
M  V30 22179 N 2098.9 -0.59187 1.46064 0
M  V30 22180 C 2099.83 -1.71586 1.51957 0
M  V30 22181 C 2100.85 -1.57585 0.408771 0
M  V30 22182 O 2102.04 -1.65177 0.676661 0
M  V30 22183 C 2099.14 -3.09749 1.3751 0
M  V30 22184 C 2098.31 -3.49841 2.62546 0
M  V30 22185 C 2097.37 -4.67027 2.4243 0
M  V30 22186 O 2096.39 -4.7335 3.16115 0
M  V30 22187 N 2097.6 -5.61316 1.48003 0
M  V30 22188 H 2100.36 -1.66989 2.48867 0
M  V30 22189 H 2097.92 -0.7776 1.42003 0
M  V30 22190 H 2099.91 -3.85924 1.21839 0
M  V30 22191 H 2098.48 -3.08765 0.488162 0
M  V30 22192 H 2097.7 -2.63465 2.93223 0
M  V30 22193 H 2098.99 -3.7339 3.45626 0
M  V30 22194 H 2098.39 -5.58935 0.872231 0
M  V30 22195 H 2096.95 -6.36959 1.38298 0
M  V30 22196 N 2100.38 -1.33616 -0.835729 0
M  V30 22197 C 2101.63 -1.24597 -1.58614 0
M  V30 22198 C 2101.94 0.185813 -1.94715 0
M  V30 22199 O 2103.15 0.398045 -2.68566 0
M  V30 22200 C 2101.6 -2.18339 -2.86105 0
M  V30 22201 C 2101.21 -3.66705 -2.57355 0
M  V30 22202 C 2102.96 -2.182 -3.64128 0
M  V30 22203 C 2100.86 -4.52352 -3.80962 0
M  V30 22204 H 2099.79 -0.462802 -0.595256 0
M  V30 22205 H 2102.44 -1.58701 -0.921212 0
M  V30 22206 H 2100.83 -1.77172 -3.54156 0
M  V30 22207 H 2102 -4.16331 -1.97496 0
M  V30 22208 H 2100.32 -3.69164 -1.92631 0
M  V30 22209 H 2102.91 -2.79417 -4.55884 0
M  V30 22210 H 2103.26 -1.17789 -3.99289 0
M  V30 22211 H 2103.79 -2.57745 -3.03005 0
M  V30 22212 H 2100.53 -5.5365 -3.5093 0
M  V30 22213 H 2100.05 -4.07467 -4.40149 0
M  V30 22214 H 2101.73 -4.66315 -4.48508 0
M  V30 22215 N 2101.86 1.05436 -1.17136 0
M  V30 22216 C 2102.79 2.15075 -0.909112 0
M  V30 22217 C 2103.77 1.69455 0.147942 0
M  V30 22218 O 2104.95 1.942 -0.00177952 0
M  V30 22219 C 2102.08 3.44764 -0.41892 0
M  V30 22220 C 2101.04 4.03937 -1.41488 0
M  V30 22221 C 2100.36 5.2894 -0.782739 0
M  V30 22222 C 2101.66 4.4171 -2.78728 0
M  V30 22223 H 2103.36 2.37271 -1.826 0
M  V30 22224 H 2100.9 1.14031 -0.879376 0
M  V30 22225 H 2102.86 4.2081 -0.222885 0
M  V30 22226 H 2101.58 3.22213 0.533496 0
M  V30 22227 H 2100.24 3.29958 -1.59761 0
M  V30 22228 H 2099.89 5.0269 0.176435 0
M  V30 22229 H 2099.59 5.6949 -1.44758 0
M  V30 22230 H 2101.11 6.07675 -0.596922 0
M  V30 22231 H 2102.53 5.08801 -2.64187 0
M  V30 22232 H 2100.92 4.93271 -3.41766 0
M  V30 22233 H 2101.99 3.52168 -3.33325 0
M  V30 22234 N 2103.34 0.971211 1.24118 0
M  V30 22235 C 2104.59 0.630598 1.91589 0
M  V30 22236 C 2104.9 -0.838491 1.76716 0
M  V30 22237 O 2106.1 -1.28978 2.38908 0
M  V30 22238 C 2104.56 1.07723 3.434 0
M  V30 22239 C 2104.17 2.57002 3.66953 0
M  V30 22240 C 2105.91 0.809928 4.16702 0
M  V30 22241 C 2103.82 2.95379 5.12352 0
M  V30 22242 H 2102.75 0.232148 0.717373 0
M  V30 22243 H 2105.4 1.17789 1.40706 0
M  V30 22244 H 2103.78 0.458223 3.9334 0
M  V30 22245 H 2104.96 3.24062 3.27598 0
M  V30 22246 H 2103.27 2.8138 3.06944 0
M  V30 22247 H 2105.87 1.07262 5.23831 0
M  V30 22248 H 2106.21 -0.253899 4.15525 0
M  V30 22249 H 2106.74 1.39007 3.72722 0
M  V30 22250 H 2103.48 4.00847 5.18654 0
M  V30 22251 H 2103 2.33005 5.52692 0
M  V30 22252 H 2104.68 2.85478 5.80613 0
M  V30 22253 N 2104.81 -1.39054 0.741747 0
M  V30 22254 C 2105.74 -2.33184 0.121433 0
M  V30 22255 C 2106.73 -1.54261 -0.716774 0
M  V30 22256 O 2107.91 -1.82627 -0.660379 0
M  V30 22257 C 2105.04 -3.38393 -0.78152 0
M  V30 22258 C 2103.99 -4.27974 -0.046955 0
M  V30 22259 C 2103.32 -5.23938 -1.06737 0
M  V30 22260 C 2104.62 -5.10272 1.11446 0
M  V30 22261 H 2106.31 -2.85308 0.907724 0
M  V30 22262 H 2103.86 -1.37179 0.437953 0
M  V30 22263 H 2105.81 -4.032 -1.22506 0
M  V30 22264 H 2104.54 -2.84724 -1.6 0
M  V30 22265 H 2103.2 -3.64656 0.377036 0
M  V30 22266 H 2102.84 -4.66562 -1.8796 0
M  V30 22267 H 2102.54 -5.84725 -0.580605 0
M  V30 22268 H 2104.07 -5.91622 -1.51048 0
M  V30 22269 H 2105.48 -5.68386 0.749042 0
M  V30 22270 H 2103.88 -5.80234 1.53131 0
M  V30 22271 H 2104.95 -4.44706 1.93299 0
M  V30 22272 N 2106.29 -0.489897 -1.49792 0
M  V30 22273 C 2107.57 0.121028 -1.95225 0
M  V30 22274 C 2107.95 1.55194 -1.43101 0
M  V30 22275 O 2107.3 2.19354 -0.639992 0
M  V30 22276 C 2107.51 0.045071 -3.48971 0
M  V30 22277 C 2108.86 0.224571 -4.24006 0
M  V30 22278 O 2109.88 0.120781 -3.55995 0
M  V30 22279 O 2108.74 0.436269 -5.44756 0
M  V30 22280 H 2105.83 0.101395 -0.820761 0
M  V30 22281 H 2108.38 -0.551643 -1.60484 0
M  V30 22282 H 2107.15 -0.953242 -3.79512 0
M  V30 22283 H 2106.77 0.758377 -3.903 0
M  V30 22284 N 2107.77 1.56011 -0.223262 0
M  V30 22285 C 2108.68 2.23993 0.697454 0
M  V30 22286 C 2109.7 1.24812 1.21235 0
M  V30 22287 O 2110.87 1.57629 1.2536 0
M  V30 22288 C 2107.94 2.90786 1.88797 0
M  V30 22289 C 2107 4.05314 1.41489 0
M  V30 22290 C 2106.23 4.68913 2.54866 0
M  V30 22291 O 2106.45 4.31505 3.73041 0
M  V30 22292 O 2105.39 5.57872 2.2597 0
M  V30 22293 H 2109.21 3.03338 0.148324 0
M  V30 22294 H 2106.8 1.49398 0.00725836 0
M  V30 22295 H 2108.68 3.32939 2.5832 0
M  V30 22296 H 2107.36 2.144 2.42517 0
M  V30 22297 H 2106.26 3.67726 0.687623 0
M  V30 22298 H 2107.6 4.83448 0.924045 0
M  V30 22299 N 2109.25 -0.0501116 1.5752 0
M  V30 22300 C 2110.21 -1.0417 2.0416 0
M  V30 22301 C 2111.21 -1.30309 0.942133 0
M  V30 22302 O 2112.4 -1.25665 1.20639 0
M  V30 22303 C 2109.53 -2.37997 2.4407 0
M  V30 22304 H 2110.73 -0.639249 2.93008 0
M  V30 22305 H 2108.28 -0.296417 1.53464 0
M  V30 22306 H 2109.01 -2.83032 1.58314 0
M  V30 22307 H 2108.8 -2.2036 3.2432 0
M  V30 22308 H 2110.29 -3.09229 2.80654 0
M  V30 22309 N 2110.73 -1.54276 -0.321972 0
M  V30 22310 C 2111.95 -1.76523 -1.07923 0
M  V30 22311 C 2112.37 -0.514589 -1.81652 0
M  V30 22312 O 2111.73 0.514775 -1.75089 0
M  V30 22313 C 2111.78 -2.95941 -2.07609 0
M  V30 22314 O 2111.5 -4.1617 -1.36874 0
M  V30 22315 C 2113 -3.30411 -2.95539 0
M  V30 22316 H 2110.22 -0.589261 -0.320956 0
M  V30 22317 H 2112.76 -2.01169 -0.367616 0
M  V30 22318 H 2110.92 -2.73564 -2.74302 0
M  V30 22319 H 2111.33 -4.83352 -2.03644 0
M  V30 22320 H 2112.81 -4.17265 -3.61378 0
M  V30 22321 H 2113.28 -2.47647 -3.62723 0
M  V30 22322 H 2113.89 -3.54872 -2.34405 0
M  V30 22323 N 2112.2 0.584116 -1.46376 0
M  V30 22324 C 2113.17 1.6753 -1.56417 0
M  V30 22325 C 2114.17 1.54622 -0.441454 0
M  V30 22326 O 2115.36 1.59265 -0.705714 0
M  V30 22327 C 2112.49 3.06947 -1.48313 0
M  V30 22328 H 2113.68 1.59986 -2.53662 0
M  V30 22329 H 2111.24 0.801837 -1.34165 0
M  V30 22330 H 2111.97 3.20048 -0.523413 0
M  V30 22331 H 2111.76 3.17724 -2.29768 0
M  V30 22332 H 2113.25 3.86384 -1.58422 0
M  V30 22333 N 2113.68 1.34058 0.828631 0
M  V30 22334 C 2114.65 1.25063 1.92073 0
M  V30 22335 C 2115.65 0.167192 1.59928 0
M  V30 22336 O 2116.84 0.419428 1.69075 0
M  V30 22337 C 2113.97 0.929519 3.27983 0
M  V30 22338 H 2115.16 2.22146 2.01472 0
M  V30 22339 H 2112.71 1.18263 1.02193 0
M  V30 22340 H 2113.45 -0.0383856 3.24277 0
M  V30 22341 H 2113.23 1.71313 3.52696 0
M  V30 22342 H 2114.72 0.891605 4.07971 0
M  V30 22343 N 2115.16 -1.04814 1.17694 0
M  V30 22344 C 2116.41 -1.78147 0.969105 0
M  V30 22345 C 2116.74 -1.87634 -0.500715 0
M  V30 22346 O 2116.02 -1.37892 -1.37172 0
M  V30 22347 C 2116.3 -3.2183 1.61548 0
M  V30 22348 C 2116.15 -3.20332 3.15765 0
M  V30 22349 C 2117.47 -4.19759 1.32251 0
M  V30 22350 H 2114.59 -0.646701 0.353479 0
M  V30 22351 H 2117.23 -1.22485 1.45249 0
M  V30 22352 H 2115.38 -3.69358 1.20445 0
M  V30 22353 H 2117.05 -2.8085 3.65952 0
M  V30 22354 H 2115.3 -2.58568 3.48318 0
M  V30 22355 H 2115.97 -4.21759 3.56123 0
M  V30 22356 H 2118.44 -3.80743 1.67851 0
M  V30 22357 H 2117.32 -5.18527 1.80057 0
M  V30 22358 H 2117.58 -4.41426 0.244002 0
M  V30 22359 N 2116.64 -0.977779 -1.23601 0
M  V30 22360 C 2117.92 -0.561714 -1.87361 0
M  V30 22361 C 2118.3 0.961166 -1.87949 0
M  V30 22362 O 2117.64 1.83678 -1.35922 0
M  V30 22363 C 2117.85 -1.16478 -3.28989 0
M  V30 22364 C 2119.2 -1.2559 -4.05601 0
M  V30 22365 O 2120.23 -1.11804 -3.38199 0
M  V30 22366 O 2119.09 -1.47493 -5.2622 0
M  V30 22367 H 2116.18 -0.18876 -0.80517 0
M  V30 22368 H 2118.73 -1.07269 -1.31497 0
M  V30 22369 H 2117.5 -2.20711 -3.23114 0
M  V30 22370 H 2117.12 -0.638457 -3.9244 0
M  V30 22371 N 2118.12 1.38658 -0.749111 0
M  V30 22372 C 2119.53 1.82966 -0.371524 0
M  V30 22373 C 2119.88 1.62519 1.09918 0
M  V30 22374 O 2119 1.12394 1.84923 0
M  V30 22375 C 2119.6 3.32158 -0.667553 0
M  V30 22376 C 2118.16 3.74831 -0.343297 0
M  V30 22377 C 2117.31 2.61488 -0.923014 0
M  V30 22378 H 2120.26 1.2745 -0.945625 0
M  V30 22379 H 2120.28 3.80459 0.0558088 0
M  V30 22380 H 2119.79 3.47008 -1.73801 0
M  V30 22381 H 2117.89 3.65562 0.72076 0
M  V30 22382 H 2118 4.71755 -0.83572 0
M  V30 22383 H 2116.37 2.52302 -0.348687 0
M  V30 22384 H 2117.15 2.79138 -1.99841 0
M  V30 22385 N 2119.6 0.497834 1.49531 0
M  V30 22386 C 2120.84 -0.0477142 2.02044 0
M  V30 22387 C 2121.16 -1.37777 1.37994 0
M  V30 22388 O 2120.43 -1.88476 0.534194 0
M  V30 22389 H 2119.01 -0.0206231 0.746715 0
M  V30 22390 H 2121.68 0.654353 1.83587 0
M  V30 22391 H 2120.77 -0.179706 3.11582 0
M  V30 22392 N 2121.07 -1.5589 0.231532 0
M  V30 22393 C 2122.3 -2.02956 -0.40203 0
M  V30 22394 C 2122.72 -1.11115 -1.5264 0
M  V30 22395 O 2122.07 -0.122623 -1.82088 0
M  V30 22396 C 2122.12 -3.49484 -0.924297 0
M  V30 22397 O 2121.85 -4.37825 0.155252 0
M  V30 22398 C 2123.35 -4.12241 -1.6301 0
M  V30 22399 H 2120.57 -0.663905 -0.097323 0
M  V30 22400 H 2123.11 -2.01467 0.350905 0
M  V30 22401 H 2121.27 -3.51557 -1.62747 0
M  V30 22402 H 2121.68 -5.23956 -0.238854 0
M  V30 22403 H 2123.15 -5.16507 -1.94742 0
M  V30 22404 H 2123.63 -3.57824 -2.54674 0
M  V30 22405 H 2124.24 -4.14046 -0.971887 0
M  V30 22406 N 2122.55 0.0417572 -1.57545 0
M  V30 22407 C 2123.46 1.06351 -2.09109 0
M  V30 22408 C 2124.48 1.40464 -1.02694 0
M  V30 22409 O 2125.65 1.50038 -1.34352 0
M  V30 22410 C 2122.72 2.34925 -2.54973 0
M  V30 22411 C 2121.78 2.0751 -3.75816 0
M  V30 22412 C 2121.01 3.29954 -4.19483 0
M  V30 22413 O 2121.24 4.40174 -3.62772 0
M  V30 22414 O 2120.17 3.16399 -5.12031 0
M  V30 22415 H 2124 0.655348 -2.96545 0
M  V30 22416 H 2121.58 0.257909 -1.47157 0
M  V30 22417 H 2123.46 3.10537 -2.84859 0
M  V30 22418 H 2122.14 2.75062 -1.70653 0
M  V30 22419 H 2121.04 1.29507 -3.50968 0
M  V30 22420 H 2122.38 1.72237 -4.61081 0
M  V30 22421 N 2124.03 1.54445 0.313786 0
M  V30 22422 C 2124.96 1.87506 1.39153 0
M  V30 22423 C 2125.94 0.732752 1.53508 0
M  V30 22424 O 2127.13 0.98736 1.67227 0
M  V30 22425 C 2124.26 2.11107 2.75773 0
M  V30 22426 C 2123.21 3.26954 2.76197 0
M  V30 22427 C 2122.54 3.35947 4.15985 0
M  V30 22428 C 2123.84 4.64372 2.39073 0
M  V30 22429 H 2125.53 2.7777 1.11732 0
M  V30 22430 H 2123.08 1.33651 0.536054 0
M  V30 22431 H 2125.03 2.32821 3.51244 0
M  V30 22432 H 2123.75 1.17602 3.04692 0
M  V30 22433 H 2122.41 3.05144 2.03182 0
M  V30 22434 H 2122.06 2.39982 4.42061 0
M  V30 22435 H 2121.76 4.13812 4.17173 0
M  V30 22436 H 2123.28 3.59906 4.93254 0
M  V30 22437 H 2124.7 4.85901 3.04258 0
M  V30 22438 H 2123.09 5.44858 2.51496 0
M  V30 22439 H 2124.16 4.65956 1.34211 0
M  V30 22440 N 2125.51 -0.576345 1.46683 0
M  V30 22441 C 2126.44 -1.69965 1.53768 0
M  V30 22442 C 2127.45 -1.57142 0.425462 0
M  V30 22443 O 2128.64 -1.6445 0.694142 0
M  V30 22444 C 2125.74 -3.08273 1.40788 0
M  V30 22445 C 2124.91 -3.47036 2.66242 0
M  V30 22446 C 2123.97 -4.6443 2.47369 0
M  V30 22447 O 2123 -4.69971 3.21117 0
M  V30 22448 N 2124.2 -5.59714 1.53948 0
M  V30 22449 H 2126.97 -1.6434 2.50624 0
M  V30 22450 H 2124.53 -0.762495 1.4282 0
M  V30 22451 H 2126.52 -3.8461 1.25925 0
M  V30 22452 H 2125.09 -3.0823 0.520883 0
M  V30 22453 H 2124.31 -2.6034 2.96001 0
M  V30 22454 H 2125.6 -3.69703 3.49567 0
M  V30 22455 H 2125 -5.57979 0.931464 0
M  V30 22456 H 2123.55 -6.35456 1.45046 0
M  V30 22457 N 2126.99 -1.34495 -0.82151 0
M  V30 22458 C 2127.92 -1.20533 -1.93771 0
M  V30 22459 C 2128.9 -0.0966356 -1.62313 0
M  V30 22460 O 2130.08 -0.262043 -1.8667 0
M  V30 22461 C 2127.21 -0.852607 -3.27793 0
M  V30 22462 C 2126.25 -1.97125 -3.78211 0
M  V30 22463 S 2127.09 -3.5849 -3.97801 0
M  V30 22464 C 2128.24 -3.25262 -5.34748 0
M  V30 22465 H 2128.48 -2.15016 -2.05318 0
M  V30 22466 H 2126.01 -1.19538 -0.977241 0
M  V30 22467 H 2127.97 -0.655892 -4.05226 0
M  V30 22468 H 2126.63 0.0739118 -3.14013 0
M  V30 22469 H 2125.82 -1.67824 -4.75238 0
M  V30 22470 H 2125.42 -2.12553 -3.07729 0
M  V30 22471 H 2127.71 -2.77165 -6.18212 0
M  V30 22472 H 2128.66 -4.21434 -5.69034 0
M  V30 22473 H 2129.07 -2.61408 -5.00326 0
M  V30 22474 N 2128.46 1.04188 -1.18248 0
M  V30 22475 C 2129.4 2.12204 -0.866138 0
M  V30 22476 C 2130.41 1.62233 0.135743 0
M  V30 22477 O 2131.6 1.78263 -0.0919276 0
M  V30 22478 C 2128.7 3.37802 -0.272597 0
M  V30 22479 C 2127.87 4.17012 -1.31983 0
M  V30 22480 C 2126.93 5.20939 -0.74221 0
M  V30 22481 O 2125.96 5.5129 -1.41662 0
M  V30 22482 N 2127.16 5.78668 0.460879 0
M  V30 22483 H 2129.92 2.39936 -1.79585 0
M  V30 22484 H 2127.48 1.20371 -1.0827 0
M  V30 22485 H 2129.48 4.045 0.127367 0
M  V30 22486 H 2128.05 3.07523 0.561114 0
M  V30 22487 H 2127.27 3.45655 -1.89516 0
M  V30 22488 H 2128.55 4.66728 -2.0259 0
M  V30 22489 H 2127.95 5.56308 1.02655 0
M  V30 22490 H 2126.51 6.46837 0.80278 0
M  V30 22491 N 2129.94 0.98432 1.23081 0
M  V30 22492 C 2130.91 0.532738 2.22923 0
M  V30 22493 C 2131.91 -0.379759 1.56251 0
M  V30 22494 O 2133.1 -0.172906 1.7334 0
M  V30 22495 C 2130.23 -0.226262 3.40148 0
M  V30 22496 H 2131.42 1.41558 2.64388 0
M  V30 22497 H 2128.97 0.77062 1.35982 0
M  V30 22498 H 2129.71 -1.12547 3.04144 0
M  V30 22499 H 2129.49 0.428801 3.89748 0
M  V30 22500 H 2130.98 -0.530671 4.14214 0
M  V30 22501 N 2131.42 -1.38259 0.756453 0
M  V30 22502 C 2132.35 -2.28063 0.0790225 0
M  V30 22503 C 2133.33 -1.45527 -0.725303 0
M  V30 22504 O 2134.52 -1.74887 -0.703322 0
M  V30 22505 C 2131.64 -3.26666 -0.894813 0
M  V30 22506 C 2130.69 -4.26135 -0.176369 0
M  V30 22507 S 2131.52 -5.23552 1.12487 0
M  V30 22508 C 2132.68 -6.2571 0.154178 0
M  V30 22509 H 2132.91 -2.8517 0.840546 0
M  V30 22510 H 2130.44 -1.44304 0.549161 0
M  V30 22511 H 2132.4 -3.83988 -1.45133 0
M  V30 22512 H 2131.06 -2.68536 -1.62933 0
M  V30 22513 H 2130.26 -4.95642 -0.914031 0
M  V30 22514 H 2129.86 -3.72724 0.308705 0
M  V30 22515 H 2132.15 -6.74091 -0.678828 0
M  V30 22516 H 2133.09 -7.03371 0.816992 0
M  V30 22517 H 2133.5 -5.6404 -0.227796 0
M  V30 22518 N 2132.9 -0.505757 -1.49264 0
M  V30 22519 C 2133.83 0.259368 -2.32055 0
M  V30 22520 C 2134.81 0.95808 -1.40552 0
M  V30 22521 O 2135.99 0.948562 -1.69458 0
M  V30 22522 C 2133.12 1.32138 -3.2118 0
M  V30 22523 C 2132.08 0.742267 -4.21514 0
M  V30 22524 C 2131.4 1.90515 -4.99608 0
M  V30 22525 C 2132.7 -0.269866 -5.21602 0
M  V30 22526 H 2134.4 -0.431697 -2.96271 0
M  V30 22527 H 2131.94 -0.209055 -1.42474 0
M  V30 22528 H 2133.9 1.86441 -3.77912 0
M  V30 22529 H 2132.62 2.0417 -2.54916 0
M  V30 22530 H 2131.28 0.220956 -3.65934 0
M  V30 22531 H 2130.93 2.61327 -4.29788 0
M  V30 22532 H 2130.63 1.52371 -5.67501 0
M  V30 22533 H 2132.15 2.45242 -5.59186 0
M  V30 22534 H 2133.57 0.18519 -5.73001 0
M  V30 22535 H 2131.96 -0.567397 -5.97412 0
M  V30 22536 H 2133.03 -1.18411 -4.7022 0
M  V30 22537 N 2134.38 1.55765 -0.239796 0
M  V30 22538 C 2135.62 1.98377 0.386152 0
M  V30 22539 C 2135.95 1.12912 1.58984 0
M  V30 22540 O 2135.22 0.210274 1.94768 0
M  V30 22541 H 2133.8 0.732661 0.145661 0
M  V30 22542 H 2136.46 1.91966 -0.336934 0
M  V30 22543 H 2135.55 3.04146 0.700123 0
M  V30 22544 N 2135.85 -0.0334016 1.57565 0
M  V30 22545 C 2137.08 -0.740692 1.93723 0
M  V30 22546 C 2137.5 -1.6833 0.839447 0
M  V30 22547 O 2136.86 -1.80136 -0.205152 0
M  V30 22548 C 2136.91 -1.47761 3.28936 0
M  V30 22549 O 2136.01 -2.59056 3.2088 0
M  V30 22550 H 2135.36 -0.199518 0.633315 0
M  V30 22551 H 2137.89 0.00982998 2.04598 0
M  V30 22552 H 2137.9 -1.84849 3.63724 0
M  V30 22553 H 2136.57 -0.786263 4.084 0
M  V30 22554 H 2135.15 -2.24543 2.97716 0
M  V30 22555 N 2137.33 -1.54609 -0.305591 0
M  V30 22556 C 2138.58 -1.7486 -1.03901 0
M  V30 22557 C 2138.93 -0.525524 -1.85084 0
M  V30 22558 O 2138.23 0.482084 -1.85436 0
M  V30 22559 C 2138.42 -2.97546 -1.97993 0
M  V30 22560 C 2138.25 -4.31669 -1.26065 0
M  V30 22561 C 2137.02 -4.95513 -0.989704 0
M  V30 22562 C 2139.22 -5.09951 -0.667418 0
M  V30 22563 N 2137.2 -6.1343 -0.240214 0
M  V30 22564 C 2138.57 -6.19979 -0.0504623 0
M  V30 22565 C 2140.63 -4.94603 -0.572012 0
M  V30 22566 C 2139.33 -7.16333 0.652663 0
M  V30 22567 C 2141.35 -5.91283 0.117449 0
M  V30 22568 C 2140.72 -7.00677 0.723275 0
M  V30 22569 H 2136.82 -0.692493 -0.363287 0
M  V30 22570 H 2139.4 -1.92083 -0.318146 0
M  V30 22571 H 2137.57 -2.81757 -2.67335 0
M  V30 22572 H 2139.3 -3.06344 -2.64453 0
M  V30 22573 H 2136.06 -4.55787 -1.28668 0
M  V30 22574 H 2136.48 -6.76892 0.120911 0
M  V30 22575 H 2141.12 -4.1016 -1.0261 0
M  V30 22576 H 2138.84 -8.00321 1.11853 0
M  V30 22577 H 2142.43 -5.81486 0.19115 0
M  V30 22578 H 2141.31 -7.74201 1.2483 0
M  V30 22579 N 2138.81 0.568558 -1.46987 0
M  V30 22580 C 2140.06 1.32622 -1.53028 0
M  V30 22581 C 2140.39 1.93591 -0.187815 0
M  V30 22582 O 2139.64 1.77779 0.818104 0
M  V30 22583 C 2139.94 2.46501 -2.5879 0
M  V30 22584 C 2139.61 2.03435 -4.02399 0
M  V30 22585 C 2138.27 1.91406 -4.41494 0
M  V30 22586 C 2140.62 1.70411 -4.92554 0
M  V30 22587 C 2137.95 1.4463 -5.68594 0
M  V30 22588 C 2140.3 1.2511 -6.20105 0
M  V30 22589 C 2138.96 1.11668 -6.58093 0
M  V30 22590 H 2138.23 0.485299 -0.559969 0
M  V30 22591 H 2140.88 0.638777 -1.80532 0
M  V30 22592 H 2139.19 3.20753 -2.24999 0
M  V30 22593 H 2140.88 3.047 -2.60689 0
M  V30 22594 H 2137.47 2.13737 -3.71503 0
M  V30 22595 H 2141.66 1.78582 -4.63057 0
M  V30 22596 H 2136.91 1.32878 -5.96786 0
M  V30 22597 H 2141.09 0.986139 -6.89383 0
M  V30 22598 H 2138.71 0.751996 -7.56471 0
M  V30 22599 N 2140.29 1.34929 0.814366 0
M  V30 22600 C 2141.25 1.27093 1.90736 0
M  V30 22601 C 2142.25 0.184145 1.59742 0
M  V30 22602 O 2143.44 0.437337 1.68621 0
M  V30 22603 C 2140.57 0.964254 3.26979 0
M  V30 22604 H 2141.77 2.24271 1.99105 0
M  V30 22605 H 2139.32 1.19341 1.00933 0
M  V30 22606 H 2140.05 -0.0039895 3.243 0
M  V30 22607 H 2139.84 1.75045 3.50859 0
M  V30 22608 H 2141.33 0.934826 4.07002 0
M  V30 22609 N 2141.77 -1.0356 1.18799 0
M  V30 22610 C 2142.7 -2.11742 0.877379 0
M  V30 22611 C 2143.71 -1.62303 -0.127137 0
M  V30 22612 O 2144.9 -1.78212 0.10138 0
M  V30 22613 C 2142 -3.37653 0.290508 0
M  V30 22614 C 2141.17 -4.16306 1.34193 0
M  V30 22615 C 2140.23 -5.20538 0.769826 0
M  V30 22616 O 2139.26 -5.50531 1.44584 0
M  V30 22617 N 2140.46 -5.78904 -0.430185 0
M  V30 22618 H 2143.23 -2.3898 1.80855 0
M  V30 22619 H 2140.79 -1.19795 1.08907 0
M  V30 22620 H 2142.78 -4.04561 -0.105914 0
M  V30 22621 H 2141.35 -3.07816 -0.544797 0
M  V30 22622 H 2140.57 -3.44645 1.91347 0
M  V30 22623 H 2141.86 -4.65647 2.05062 0
M  V30 22624 H 2141.25 -5.56844 -0.997037 0
M  V30 22625 H 2139.81 -6.47254 -0.768466 0
M  V30 22626 N 2143.25 -0.990834 -1.22557 0
M  V30 22627 C 2144.49 -0.673707 -1.92978 0
M  V30 22628 C 2144.85 0.779598 -1.7546 0
M  V30 22629 O 2146.05 1.20804 -2.40124 0
M  V30 22630 C 2144.32 -1.06603 -3.41131 0
M  V30 22631 S 2145.88 -0.866954 -4.3015 0
M  V30 22632 H 2142.7 -0.246392 -0.666942 0
M  V30 22633 H 2145.3 -1.27268 -1.48402 0
M  V30 22634 H 2144 -2.12015 -3.51394 0
M  V30 22635 H 2143.54 -0.458769 -3.90716 0
M  V30 22636 H 2145.55 0.243623 -4.95602 0
M  V30 22637 N 2144.72 1.37856 -0.763775 0
M  V30 22638 C 2145.95 2.0416 -0.335631 0
M  V30 22639 C 2146.37 1.57607 1.0395 0
M  V30 22640 O 2145.72 0.753707 1.66209 0
M  V30 22641 C 2145.77 3.59696 -0.360678 0
M  V30 22642 O 2145.5 4.04543 -1.68155 0
M  V30 22643 C 2147 4.43228 0.080061 0
M  V30 22644 H 2144.22 0.655845 -0.141805 0
M  V30 22645 H 2146.76 1.76347 -1.03547 0
M  V30 22646 H 2144.92 3.86309 0.290514 0
M  V30 22647 H 2145.33 4.99027 -1.6147 0
M  V30 22648 H 2146.8 5.51999 0.0113779 0
M  V30 22649 H 2147.28 4.24432 1.12936 0
M  V30 22650 H 2147.89 4.21824 -0.542641 0
M  V30 22651 N 2146.2 0.513665 1.48994 0
M  V30 22652 C 2147.45 -0.0263732 2.02783 0
M  V30 22653 C 2147.78 -1.35469 1.39147 0
M  V30 22654 O 2147.06 -1.87097 0.531511 0
M  V30 22655 C 2147.34 -0.165605 3.59719 0
M  V30 22656 C 2147.19 1.18673 4.33863 0
M  V30 22657 C 2148.51 -0.900228 4.30794 0
M  V30 22658 H 2145.63 -0.00811043 0.736955 0
M  V30 22659 H 2148.27 0.667534 1.77888 0
M  V30 22660 H 2146.42 -0.756613 3.81061 0
M  V30 22661 H 2148.09 1.81759 4.23983 0
M  V30 22662 H 2146.34 1.77281 3.95922 0
M  V30 22663 H 2147.01 1.04247 5.42067 0
M  V30 22664 H 2149.48 -0.398863 4.14184 0
M  V30 22665 H 2148.36 -0.966514 5.40324 0
M  V30 22666 H 2148.62 -1.94685 3.96926 0
M  V30 22667 N 2147.68 -1.55636 0.248053 0
M  V30 22668 C 2148.61 -2.2441 -0.645175 0
M  V30 22669 C 2149.59 -1.22477 -1.18039 0
M  V30 22670 O 2150.78 -1.51133 -1.21953 0
M  V30 22671 C 2147.91 -2.94446 -1.84171 0
M  V30 22672 C 2146.86 -4.03076 -1.43922 0
M  V30 22673 C 2146.19 -4.60544 -2.71668 0
M  V30 22674 C 2147.49 -5.18732 -0.609431 0
M  V30 22675 H 2149.18 -2.99314 -0.0716951 0
M  V30 22676 H 2146.73 -1.43962 -0.033043 0
M  V30 22677 H 2148.68 -3.41259 -2.47225 0
M  V30 22678 H 2147.4 -2.17031 -2.44059 0
M  V30 22679 H 2146.06 -3.57034 -0.832012 0
M  V30 22680 H 2145.71 -3.79829 -3.29756 0
M  V30 22681 H 2145.41 -5.33876 -2.4546 0
M  V30 22682 H 2146.93 -5.10091 -3.35618 0
M  V30 22683 H 2148.35 -5.61764 -1.1443 0
M  V30 22684 H 2146.74 -5.9846 -0.443361 0
M  V30 22685 H 2147.81 -4.83424 0.378087 0
M  V30 22686 N 2149.16 0.0250451 -1.5758 0
M  V30 22687 C 2150.09 1.02382 -2.09857 0
M  V30 22688 C 2151.07 1.37455 -1.002 0
M  V30 22689 O 2152.25 1.46269 -1.27746 0
M  V30 22690 C 2149.38 2.32351 -2.58128 0
M  V30 22691 C 2148.34 2.11509 -3.72086 0
M  V30 22692 C 2147.66 3.47274 -4.06577 0
M  V30 22693 C 2148.96 1.49799 -5.00357 0
M  V30 22694 H 2150.66 0.58863 -2.93557 0
M  V30 22695 H 2148.2 0.281696 -1.41218 0
M  V30 22696 H 2150.16 3.02556 -2.93322 0
M  V30 22697 H 2148.88 2.77938 -1.71518 0
M  V30 22698 H 2147.54 1.43737 -3.37247 0
M  V30 22699 H 2147.19 3.90516 -3.17027 0
M  V30 22700 H 2146.89 3.34153 -4.83338 0
M  V30 22701 H 2148.41 4.18834 -4.44309 0
M  V30 22702 H 2149.83 2.09927 -5.33483 0
M  V30 22703 H 2148.22 1.47241 -5.81756 0
M  V30 22704 H 2149.29 0.464269 -4.82672 0
M  V30 22705 N 2150.64 1.54769 0.297388 0
M  V30 22706 C 2151.88 1.7343 1.0298 0
M  V30 22707 C 2152.2 0.529189 1.88305 0
M  V30 22708 O 2153.4 0.597687 2.64839 0
M  V30 22709 C 2151.86 3.06854 1.88065 0
M  V30 22710 C 2151.47 4.34856 1.07724 0
M  V30 22711 C 2153.21 3.34873 2.60883 0
M  V30 22712 C 2151.12 5.59329 1.92107 0
M  V30 22713 H 2150.05 0.646388 0.388199 0
M  V30 22714 H 2152.7 1.81248 0.286615 0
M  V30 22715 H 2151.08 2.93011 2.66385 0
M  V30 22716 H 2152.26 4.59544 0.339927 0
M  V30 22717 H 2150.57 4.13799 0.464715 0
M  V30 22718 H 2153.17 4.25071 3.24374 0
M  V30 22719 H 2153.51 2.5391 3.29902 0
M  V30 22720 H 2154.04 3.49704 1.8961 0
M  V30 22721 H 2150.78 6.4297 1.27551 0
M  V30 22722 H 2150.3 5.3882 2.63501 0
M  V30 22723 H 2151.98 5.96721 2.50067 0
M  V30 22724 N 2152.11 -0.560755 1.47286 0
M  V30 22725 C 2153.08 -1.6502 1.59063 0
M  V30 22726 C 2154.08 -1.539 0.465997 0
M  V30 22727 O 2155.27 -1.58122 0.730962 0
M  V30 22728 C 2152.4 -3.04548 1.53177 0
M  V30 22729 H 2153.59 -1.5593 2.56176 0
M  V30 22730 H 2151.14 -0.780391 1.35424 0
M  V30 22731 H 2151.88 -3.19175 0.574264 0
M  V30 22732 H 2151.66 -3.14029 2.34794 0
M  V30 22733 H 2153.15 -3.83814 1.64549 0
M  V30 22734 N 2153.59 -1.35359 -0.807199 0
M  V30 22735 C 2154.54 -1.24773 -1.90829 0
M  V30 22736 C 2155.53 -0.143129 -1.60262 0
M  V30 22737 O 2156.72 -0.374292 -1.72997 0
M  V30 22738 C 2153.85 -1.02132 -3.27756 0
M  V30 22739 C 2152.93 -2.16979 -3.64391 0
M  V30 22740 N 2153.32 -3.42201 -3.72468 0
M  V30 22741 C 2151.62 -2.08352 -3.94342 0
M  V30 22742 C 2152.32 -4.17721 -4.04826 0
M  V30 22743 N 2151.3 -3.46471 -4.18878 0
M  V30 22744 H 2155.1 -2.19648 -1.95274 0
M  V30 22745 H 2152.61 -1.27823 -1.00175 0
M  V30 22746 H 2154.61 -0.926363 -4.06478 0
M  V30 22747 H 2153.27 -0.0814038 -3.24598 0
M  V30 22748 H 2154.28 -3.7656 -3.5556 0
M  V30 22749 H 2150.96 -1.22212 -3.99212 0
M  V30 22750 H 2152.35 -5.2593 -4.18147 0
M  V30 22751 N 2155.07 1.02928 -1.19346 0
M  V30 22752 C 2156.49 1.28572 -0.945592 0
M  V30 22753 C 2156.69 1.97841 0.382273 0
M  V30 22754 O 2155.74 2.26603 1.11388 0
M  V30 22755 C 2157.05 2.13321 -2.11931 0
M  V30 22756 C 2158.6 2.2663 -2.15889 0
M  V30 22757 C 2159.08 3.14751 -3.3271 0
M  V30 22758 N 2160.57 3.22339 -3.32644 0
M  V30 22759 C 2161.3 3.90712 -4.19681 0
M  V30 22760 N 2160.8 4.61319 -5.16872 0
M  V30 22761 N 2162.59 3.87107 -4.07559 0
M  V30 22762 H 2154.74 0.563808 -2.0478 0
M  V30 22763 H 2157.01 0.311375 -0.895405 0
M  V30 22764 H 2156.71 1.69745 -3.08025 0
M  V30 22765 H 2156.59 3.14032 -2.08959 0
M  V30 22766 H 2158.97 2.69437 -1.20365 0
M  V30 22767 H 2159.05 1.25471 -2.22914 0
M  V30 22768 H 2158.7 2.72652 -4.28513 0
M  V30 22769 H 2158.63 4.15968 -3.22921 0
M  V30 22770 H 2161.12 2.72052 -2.6229 0
M  V30 22771 H 2161.43 5.1112 -5.79634 0
M  V30 22772 H 2159.78 4.60185 -5.20821 0
M  V30 22773 H 2162.97 3.31086 -3.30908 0
M  V30 22774 H 2163.14 4.40119 -4.75604 0
M  V30 22775 N 2156.55 0.997319 1.2203 0
M  V30 22776 C 2157.48 0.571319 2.26403 0
M  V30 22777 C 2158.46 -0.404025 1.65232 0
M  V30 22778 O 2159.64 -0.293692 1.91966 0
M  V30 22779 C 2156.77 -0.110472 3.47124 0
M  V30 22780 C 2155.73 0.783865 4.20761 0
M  V30 22781 C 2155.05 -0.0310887 5.34691 0
M  V30 22782 C 2156.35 2.08283 4.78974 0
M  V30 22783 H 2158.05 1.44376 2.6229 0
M  V30 22784 H 2155.59 0.695656 1.26082 0
M  V30 22785 H 2157.55 -0.419919 4.19303 0
M  V30 22786 H 2156.27 -1.01749 3.10346 0
M  V30 22787 H 2154.93 1.07702 3.50422 0
M  V30 22788 H 2154.58 -0.939162 4.94155 0
M  V30 22789 H 2154.28 0.564316 5.84884 0
M  V30 22790 H 2155.8 -0.334528 6.09683 0
M  V30 22791 H 2157.22 1.83704 5.43071 0
M  V30 22792 H 2155.61 2.62743 5.39524 0
M  V30 22793 H 2156.68 2.75867 3.9878 0
M  V30 22794 N 2158.03 -1.37449 0.771075 0
M  V30 22795 C 2159.44 -1.53106 0.450629 0
M  V30 22796 C 2159.64 -1.72957 -1.03384 0
M  V30 22797 O 2158.7 -1.75055 -1.81967 0
M  V30 22798 C 2160.01 -2.72792 1.26511 0
M  V30 22799 C 2161.56 -2.86653 1.25695 0
M  V30 22800 C 2162.03 -4.09321 2.05477 0
M  V30 22801 N 2163.53 -4.16432 2.02827 0
M  V30 22802 C 2164.26 -5.10381 2.61341 0
M  V30 22803 N 2163.76 -6.09892 3.2864 0
M  V30 22804 N 2165.55 -5.02859 2.51175 0
M  V30 22805 H 2157.7 -1.22815 1.73292 0
M  V30 22806 H 2159.96 -0.597977 0.735614 0
M  V30 22807 H 2159.67 -2.64586 2.31705 0
M  V30 22808 H 2159.54 -3.66457 0.893837 0
M  V30 22809 H 2161.93 -2.9433 0.213001 0
M  V30 22810 H 2162.01 -1.93949 1.66786 0
M  V30 22811 H 2161.66 -4.02404 3.09892 0
M  V30 22812 H 2161.59 -5.01137 1.61768 0
M  V30 22813 H 2164.08 -3.45173 1.53831 0
M  V30 22814 H 2164.39 -6.78106 3.70664 0
M  V30 22815 H 2162.73 -6.10172 3.32738 0
M  V30 22816 H 2165.93 -4.24063 1.98213 0
M  V30 22817 H 2166.1 -5.75893 2.97071 0
M  V30 22818 N 2159.5 -0.52156 -1.4872 0
M  V30 22819 C 2160.73 0.013899 -2.07395 0
M  V30 22820 C 2161.15 1.28175 -1.37669 0
M  V30 22821 O 2160.51 1.75882 -0.439921 0
M  V30 22822 C 2160.56 0.229553 -3.59869 0
M  V30 22823 O 2159.66 1.30002 -3.91374 0
M  V30 22824 H 2159.01 -0.0353734 -0.663057 0
M  V30 22825 H 2161.54 -0.727065 -1.91246 0
M  V30 22826 H 2161.55 0.454795 -4.05457 0
M  V30 22827 H 2160.22 -0.696653 -4.10024 0
M  V30 22828 H 2158.8 1.0581 -3.57573 0
M  V30 22829 N 2160.98 1.55502 -0.256304 0
M  V30 22830 C 2162.23 1.99463 0.366354 0
M  V30 22831 C 2162.56 1.14436 1.56902 0
M  V30 22832 O 2161.84 0.209944 1.93364 0
M  V30 22833 C 2162.12 3.51836 0.767016 0
M  V30 22834 C 2161.97 4.47626 -0.441687 0
M  V30 22835 C 2163.29 4.09574 1.61051 0
M  V30 22836 H 2160.41 0.72514 0.131688 0
M  V30 22837 H 2163.05 1.86568 -0.359494 0
M  V30 22838 H 2161.2 3.62956 1.38546 0
M  V30 22839 H 2162.87 4.48475 -1.08018 0
M  V30 22840 H 2161.12 4.2006 -1.08313 0
M  V30 22841 H 2161.79 5.51874 -0.117869 0
M  V30 22842 H 2164.26 4.01614 1.08838 0
M  V30 22843 H 2163.14 5.16436 1.85969 0
M  V30 22844 H 2163.4 3.58619 2.58544 0
M  V30 22845 N 2162.46 -0.0166879 1.57591 0
M  V30 22846 C 2163.39 -1.04687 2.02771 0
M  V30 22847 C 2164.37 -1.34455 0.914357 0
M  V30 22848 O 2165.56 -1.46903 1.18118 0
M  V30 22849 C 2162.68 -2.37861 2.41122 0
M  V30 22850 C 2161.73 -2.23867 3.63023 0
M  V30 22851 S 2162.56 -1.58041 5.11648 0
M  V30 22852 C 2163.72 -2.92679 5.53254 0
M  V30 22853 H 2163.95 -0.662104 2.89834 0
M  V30 22854 H 2161.48 -0.227051 1.52721 0
M  V30 22855 H 2163.44 -3.14441 2.63888 0
M  V30 22856 H 2162.1 -2.73481 1.54488 0
M  V30 22857 H 2161.3 -3.22208 3.87554 0
M  V30 22858 H 2160.9 -1.5543 3.40173 0
M  V30 22859 H 2163.19 -3.89 5.54694 0
M  V30 22860 H 2164.13 -2.72868 6.53413 0
M  V30 22861 H 2164.54 -2.95821 4.80781 0
M  V30 22862 N 2163.94 -1.54924 -0.289176 0
M  V30 22863 C 2165.22 -1.65459 -1.04319 0
M  V30 22864 C 2165.6 -0.510528 -2.04834 0
M  V30 22865 O 2164.94 0.491374 -2.23154 0
M  V30 22866 C 2165.15 -3.03984 -1.71449 0
M  V30 22867 C 2166.5 -3.61196 -2.2321 0
M  V30 22868 O 2167.53 -3.06513 -1.81462 0
M  V30 22869 O 2166.38 -4.56967 -2.99739 0
M  V30 22870 H 2163.48 -0.671376 -0.482891 0
M  V30 22871 H 2166.02 -1.67267 -0.286321 0
M  V30 22872 H 2164.8 -3.78693 -0.985267 0
M  V30 22873 H 2164.42 -3.06005 -2.53863 0
M  V30 22874 N 2165.42 0.552936 -1.47582 0
M  V30 22875 C 2166.66 1.32065 -1.56007 0
M  V30 22876 C 2167.02 1.90747 -0.219017 0
M  V30 22877 O 2168.22 2.68209 -0.178138 0
M  V30 22878 C 2166.49 2.39794 -2.65016 0
M  V30 22879 S 2168.05 3.26596 -2.93054 0
M  V30 22880 H 2164.87 0.449542 -0.550847 0
M  V30 22881 H 2167.47 0.632535 -1.84984 0
M  V30 22882 H 2166.18 1.95125 -3.61046 0
M  V30 22883 H 2165.71 3.13341 -2.37867 0
M  V30 22884 H 2167.72 4.39364 -2.30595 0
M  V30 22885 N 2166.89 1.35785 0.800009 0
M  V30 22886 C 2167.86 1.29109 1.89377 0
M  V30 22887 C 2168.86 0.201077 1.59538 0
M  V30 22888 O 2170.05 0.455197 1.68148 0
M  V30 22889 C 2167.18 0.99888 3.25937 0
M  V30 22890 H 2168.37 2.2637 1.96715 0
M  V30 22891 H 2165.93 1.20404 0.996618 0
M  V30 22892 H 2166.66 0.0304071 3.24286 0
M  V30 22893 H 2166.45 1.78756 3.48982 0
M  V30 22894 H 2167.94 0.977941 4.05988 0
M  V30 22895 N 2168.37 -1.02294 1.19891 0
M  V30 22896 C 2169.79 -1.28069 0.952398 0
M  V30 22897 C 2169.99 -1.98041 -0.371776 0
M  V30 22898 O 2169.04 -2.2719 -1.10185 0
M  V30 22899 C 2170.36 -2.12194 2.13059 0
M  V30 22900 C 2171.91 -2.25482 2.17087 0
M  V30 22901 C 2172.38 -3.12982 3.34375 0
M  V30 22902 N 2173.87 -3.2057 3.34348 0
M  V30 22903 C 2174.61 -3.88481 4.21747 0
M  V30 22904 N 2174.1 -4.58571 5.19311 0
M  V30 22905 N 2175.9 -3.8494 4.09606 0
M  V30 22906 H 2168.05 -0.55294 2.05076 0
M  V30 22907 H 2170.31 -0.306622 0.897043 0
M  V30 22908 H 2170.02 -1.68109 3.08921 0
M  V30 22909 H 2169.89 -3.12919 2.10621 0
M  V30 22910 H 2172.28 -2.68795 1.21792 0
M  V30 22911 H 2172.36 -1.24287 2.23576 0
M  V30 22912 H 2172 -2.70376 4.29953 0
M  V30 22913 H 2171.93 -4.1425 3.25123 0
M  V30 22914 H 2174.42 -2.70658 2.63729 0
M  V30 22915 H 2174.74 -5.08039 5.82337 0
M  V30 22916 H 2173.08 -4.57417 5.23254 0
M  V30 22917 H 2176.27 -3.29326 3.32659 0
M  V30 22918 H 2176.44 -4.37591 4.77931 0
M  V30 22919 N 2169.85 -1.00378 -1.21499 0
M  V30 22920 C 2171.1 -0.686796 -1.90817 0
M  V30 22921 C 2171.43 0.780348 -1.77832 0
M  V30 22922 O 2170.7 1.56554 -1.15418 0
M  V30 22923 C 2170.99 -1.10705 -3.42661 0
M  V30 22924 C 2170.84 -2.63355 -3.64642 0
M  V30 22925 C 2172.16 -0.668506 -4.34993 0
M  V30 22926 H 2169.28 -0.250976 -0.69295 0
M  V30 22927 H 2171.92 -1.24924 -1.43157 0
M  V30 22928 H 2170.07 -0.628496 -3.83383 0
M  V30 22929 H 2171.74 -3.18964 -3.33256 0
M  V30 22930 H 2169.99 -3.04925 -3.0855 0
M  V30 22931 H 2170.66 -2.87812 -4.71029 0
M  V30 22932 H 2173.13 -1.07972 -4.01847 0
M  V30 22933 H 2172.01 -0.990733 -5.39885 0
M  V30 22934 H 2172.27 0.430413 -4.4 0
M  V30 22935 N 2171.33 1.37038 -0.778354 0
M  V30 22936 C 2172.26 2.3278 -0.183215 0
M  V30 22937 C 2173.24 1.56107 0.675623 0
M  V30 22938 O 2174.42 1.84314 0.611726 0
M  V30 22939 C 2171.55 3.40346 0.691526 0
M  V30 22940 C 2170.51 4.27948 -0.0665313 0
M  V30 22941 C 2169.83 5.26584 0.928085 0
M  V30 22942 C 2171.13 5.07137 -1.24936 0
M  V30 22943 H 2172.83 2.82801 -0.983049 0
M  V30 22944 H 2170.37 1.35969 -0.474169 0
M  V30 22945 H 2172.33 4.06306 1.11773 0
M  V30 22946 H 2171.05 2.88866 1.52395 0
M  V30 22947 H 2169.71 3.63528 -0.473586 0
M  V30 22948 H 2169.36 4.71381 1.75524 0
M  V30 22949 H 2169.06 5.86058 0.425371 0
M  V30 22950 H 2170.58 5.95419 1.35309 0
M  V30 22951 H 2172 5.662 -0.899476 0
M  V30 22952 H 2170.39 5.7597 -1.68461 0
M  V30 22953 H 2171.46 4.39425 -2.05021 0
M  V30 22954 N 2172.81 0.529439 1.48441 0
M  V30 22955 C 2174.05 -0.00486384 2.02799 0
M  V30 22956 C 2174.39 -1.33985 1.40576 0
M  V30 22957 O 2173.66 -1.86523 0.551326 0
M  V30 22958 C 2173.94 -0.127443 3.59874 0
M  V30 22959 C 2173.8 1.23268 4.3258 0
M  V30 22960 C 2175.12 -0.854486 4.31725 0
M  V30 22961 H 2172.24 -0.00029358 0.737 0
M  V30 22962 H 2174.88 0.686364 1.7717 0
M  V30 22963 H 2173.03 -0.716153 3.81842 0
M  V30 22964 H 2174.7 1.86245 4.22031 0
M  V30 22965 H 2172.94 1.8147 3.94019 0
M  V30 22966 H 2173.61 1.09991 5.40931 0
M  V30 22967 H 2176.09 -0.354911 4.14584 0
M  V30 22968 H 2174.97 -0.909151 5.41318 0
M  V30 22969 H 2175.23 -1.90464 3.98968 0
M  V30 22970 N 2174.29 -1.55364 0.264547 0
M  V30 22971 C 2175.22 -2.18186 -0.66858 0
M  V30 22972 C 2176.2 -1.13943 -1.15999 0
M  V30 22973 O 2177.38 -1.42416 -1.2349 0
M  V30 22974 C 2174.51 -2.79667 -1.9106 0
M  V30 22975 C 2173.55 -3.9712 -1.55557 0
M  V30 22976 S 2174.39 -5.31627 -0.642877 0
M  V30 22977 C 2175.54 -5.96571 -1.89351 0
M  V30 22978 H 2175.78 -2.96994 -0.134756 0
M  V30 22979 H 2173.31 -1.54323 0.0488718 0
M  V30 22980 H 2175.27 -3.15721 -2.62355 0
M  V30 22981 H 2173.93 -2.00772 -2.41556 0
M  V30 22982 H 2173.12 -4.38791 -2.47949 0
M  V30 22983 H 2172.72 -3.62434 -0.922906 0
M  V30 22984 H 2175.01 -6.15161 -2.83871 0
M  V30 22985 H 2175.96 -6.91594 -1.52 0
M  V30 22986 H 2176.37 -5.25819 -2.05364 0
M  V30 22987 N 2175.76 0.00833021 -1.57598 0
M  V30 22988 C 2177.04 0.731485 -1.81407 0
M  V30 22989 C 2177.42 1.9245 -0.867544 0
M  V30 22990 O 2176.77 2.28339 0.0856431 0
M  V30 22991 C 2176.98 1.14505 -3.29681 0
M  V30 22992 C 2178.33 1.55237 -3.95205 0
M  V30 22993 O 2179.35 1.23907 -3.33954 0
M  V30 22994 O 2178.21 2.13464 -5.03086 0
M  V30 22995 H 2175.3 0.355455 -0.746713 0
M  V30 22996 H 2177.85 -0.0164849 -1.69692 0
M  V30 22997 H 2176.62 0.294315 -3.90192 0
M  V30 22998 H 2176.24 1.95238 -3.46364 0
M  V30 22999 N 2177.24 1.55075 0.280956 0
M  V30 23000 C 2178.19 1.87409 1.34709 0
M  V30 23001 C 2179.16 0.72482 1.49451 0
M  V30 23002 O 2180.34 0.975348 1.63987 0
M  V30 23003 C 2177.48 2.14456 2.70375 0
M  V30 23004 C 2176.6 3.42009 2.6392 0
M  V30 23005 C 2175.73 3.58796 3.91713 0
M  V30 23006 C 2174.77 4.8007 3.79736 0
M  V30 23007 N 2173.91 4.93556 4.99346 0
M  V30 23008 H 2178.75 2.78344 1.06435 0
M  V30 23009 H 2176.28 1.37813 0.514379 0
M  V30 23010 H 2178.24 2.28135 3.493 0
M  V30 23011 H 2176.87 1.26764 2.96868 0
M  V30 23012 H 2175.92 3.36844 1.7675 0
M  V30 23013 H 2177.24 4.31065 2.50967 0
M  V30 23014 H 2176.39 3.7225 4.79077 0
M  V30 23015 H 2175.13 2.6791 4.07524 0
M  V30 23016 H 2174.13 4.66628 2.90754 0
M  V30 23017 H 2175.36 5.72383 3.65451 0
M  V30 23018 H 2173.31 4.05599 5.15582 0
M  V30 23019 H 2173.22 5.76645 4.88893 0
M  V30 23020 H 2174.49 5.11387 5.88305 0
M  V30 23021 N 2178.72 -0.545102 1.47873 0
M  V30 23022 C 2179.97 -1.29914 1.54812 0
M  V30 23023 C 2180.29 -1.93786 0.217214 0
M  V30 23024 O 2179.56 -1.80559 -0.759941 0
M  V30 23025 H 2178.14 -0.482471 0.57029 0
M  V30 23026 H 2180.8 -0.635565 1.84246 0
M  V30 23027 H 2179.9 -2.08635 2.32116 0
M  V30 23028 N 2180.2 -1.36208 -0.792797 0
M  V30 23029 C 2181.13 -1.2612 -1.9138 0
M  V30 23030 C 2182.14 -0.181437 -1.61786 0
M  V30 23031 O 2183.33 -0.435871 -1.73097 0
M  V30 23032 C 2180.43 -0.922489 -3.26103 0
M  V30 23033 C 2179.6 -2.10345 -3.83502 0
M  V30 23034 C 2178.66 -1.73833 -4.96657 0
M  V30 23035 O 2177.69 -2.45879 -5.13354 0
M  V30 23036 N 2178.89 -0.670023 -5.7662 0
M  V30 23037 H 2181.66 -2.22705 -2.00556 0
M  V30 23038 H 2179.22 -1.29557 -0.970902 0
M  V30 23039 H 2181.21 -0.659458 -3.99291 0
M  V30 23040 H 2179.78 -0.0458868 -3.12566 0
M  V30 23041 H 2179 -2.52948 -3.02342 0
M  V30 23042 H 2180.29 -2.89252 -4.18582 0
M  V30 23043 H 2179.69 -0.0717267 -5.65655 0
M  V30 23044 H 2178.24 -0.466808 -6.50126 0
M  V30 23045 N 2181.68 1.01656 -1.20431 0
M  V30 23046 C 2182.92 1.75515 -1.016 0
M  V30 23047 C 2183.25 1.88896 0.450791 0
M  V30 23048 O 2182.53 1.4148 1.33468 0
M  V30 23049 C 2182.81 3.17433 -1.70024 0
M  V30 23050 C 2182.67 3.11847 -3.24147 0
M  V30 23051 C 2183.98 4.16105 -1.43334 0
M  V30 23052 H 2181.1 0.637102 -0.370501 0
M  V30 23053 H 2183.75 1.18591 -1.48446 0
M  V30 23054 H 2181.9 3.66035 -1.30195 0
M  V30 23055 H 2183.57 2.71049 -3.7327 0
M  V30 23056 H 2181.81 2.49242 -3.55051 0
M  V30 23057 H 2182.48 4.12169 -3.6718 0
M  V30 23058 H 2184.96 3.76159 -1.77887 0
M  V30 23059 H 2183.83 5.13571 -1.93741 0
M  V30 23060 H 2184.09 4.40624 -0.360952 0
M  V30 23061 N 2183.15 1.01021 1.20965 0
M  V30 23062 C 2184.12 0.579903 2.21743 0
M  V30 23063 C 2185.12 -0.34653 1.57022 0
M  V30 23064 O 2186.31 -0.136099 1.73668 0
M  V30 23065 C 2183.44 -0.154061 3.40552 0
M  V30 23066 H 2184.63 1.47135 2.61326 0
M  V30 23067 H 2182.18 0.79929 1.34317 0
M  V30 23068 H 2182.92 -1.06071 3.06463 0
M  V30 23069 H 2182.7 0.511376 3.88751 0
M  V30 23070 H 2184.19 -0.44269 4.15247 0
M  V30 23071 N 2184.63 -1.36623 0.78561 0
M  V30 23072 C 2185.54 -2.33889 0.182448 0
M  V30 23073 C 2186.56 -1.60858 -0.66338 0
M  V30 23074 O 2187.73 -1.92866 -0.580058 0
M  V30 23075 C 2184.8 -3.40052 -0.675704 0
M  V30 23076 C 2183.86 -4.28887 0.188182 0
M  V30 23077 C 2183.09 -5.29979 -0.629108 0
M  V30 23078 O 2183.32 -5.39037 -1.86534 0
M  V30 23079 O 2182.25 -6.01892 -0.0310062 0
M  V30 23080 H 2186.08 -2.87229 0.986556 0
M  V30 23081 H 2183.66 -1.39026 0.547001 0
M  V30 23082 H 2185.54 -4.04971 -1.16518 0
M  V30 23083 H 2184.22 -2.89017 -1.45777 0
M  V30 23084 H 2183.12 -3.67021 0.724325 0
M  V30 23085 H 2184.46 -4.83263 0.933665 0
M  V30 23086 N 2186.11 -0.537304 -1.48158 0
M  V30 23087 C 2187.33 -0.00809879 -2.07398 0
M  V30 23088 C 2187.76 1.26708 -1.39021 0
M  V30 23089 O 2187.12 1.75405 -0.458551 0
M  V30 23090 C 2187.17 0.191371 -3.60092 0
M  V30 23091 O 2186.27 1.25844 -3.9273 0
M  V30 23092 H 2185.61 -0.042404 -0.662645 0
M  V30 23093 H 2188.14 -0.747308 -1.90464 0
M  V30 23094 H 2188.15 0.411766 -4.05917 0
M  V30 23095 H 2186.83 -0.740103 -4.09262 0
M  V30 23096 H 2185.4 1.02012 -3.58675 0
M  V30 23097 N 2187.59 1.55221 -0.272782 0
M  V30 23098 C 2188.84 1.99151 0.343986 0
M  V30 23099 C 2189.16 1.16259 1.56553 0
M  V30 23100 O 2188.43 0.25154 1.94278 0
M  V30 23101 H 2187.01 0.735586 0.130087 0
M  V30 23102 H 2189.67 1.91208 -0.377577 0
M  V30 23103 H 2188.77 3.05562 0.635452 0
M  V30 23104 N 2189.07 2.77022e-05 1.576 0
M  V30 23105 C 2190.29 -0.699433 1.9525 0
M  V30 23106 C 2190.72 -1.66511 0.874964 0
M  V30 23107 O 2190.07 -1.8053 -0.166897 0
M  V30 23108 C 2190.12 -1.4075 3.31996 0
M  V30 23109 O 2189.23 -2.52192 3.26302 0
M  V30 23110 H 2188.57 -0.18604 0.637405 0
M  V30 23111 H 2191.1 0.053226 2.04531 0
M  V30 23112 H 2191.11 -1.77092 3.67563 0
M  V30 23113 H 2189.78 -0.699458 4.09976 0
M  V30 23114 H 2188.36 -2.18177 3.02412 0
M  V30 23115 N 2190.54 -1.55222 -0.272728 0
M  V30 23116 C 2191.96 -1.66547 -0.843751 0
M  V30 23117 C 2192.31 -0.592674 -1.87034 0
M  V30 23118 O 2191.43 0.26578 -2.14762 0
M  V30 23119 C 2192.03 -3.01921 -1.53718 0
M  V30 23120 C 2190.59 -3.15272 -2.05623 0
M  V30 23121 C 2189.73 -2.62344 -0.898377 0
M  V30 23122 H 2192.68 -1.58624 -0.0490719 0
M  V30 23123 H 2192.7 -2.94925 -2.40415 0
M  V30 23124 H 2192.22 -3.79979 -0.789763 0
M  V30 23125 H 2190.32 -2.41988 -2.83324 0
M  V30 23126 H 2190.43 -4.21837 -2.27135 0
M  V30 23127 H 2188.79 -2.19509 -1.29182 0
M  V30 23128 H 2189.58 -3.42906 -0.164467 0
M  V30 23129 N 2192.02 0.537252 -1.4816 0
M  V30 23130 C 2192.99 1.62469 -1.61668 0
M  V30 23131 C 2193.99 1.53139 -0.490422 0
M  V30 23132 O 2195.18 1.56939 -0.756026 0
M  V30 23133 C 2192.31 3.02073 -1.58003 0
M  V30 23134 H 2193.5 1.51834 -2.58624 0
M  V30 23135 H 2191.05 0.758747 -1.36648 0
M  V30 23136 H 2191.79 3.18221 -0.624969 0
M  V30 23137 H 2191.57 3.10254 -2.3976 0
M  V30 23138 H 2193.06 3.81148 -1.70634 0
M  V30 23139 N 2193.5 1.36626 0.785562 0
M  V30 23140 C 2194.43 1.27134 1.90708 0
M  V30 23141 C 2195.45 0.190014 1.61687 0
M  V30 23142 O 2196.63 0.445045 1.72863 0
M  V30 23143 C 2193.73 0.93977 3.25609 0
M  V30 23144 C 2192.91 2.12376 3.82381 0
M  V30 23145 C 2191.97 1.76464 4.95729 0
M  V30 23146 O 2190.99 2.48598 5.12043 0
M  V30 23147 N 2192.19 0.700594 5.76257 0
M  V30 23148 H 2194.96 2.23765 1.99372 0
M  V30 23149 H 2192.52 1.3007 0.964018 0
M  V30 23150 H 2194.51 0.680624 3.98936 0
M  V30 23151 H 2193.08 0.0624623 3.12538 0
M  V30 23152 H 2192.3 2.54548 3.00997 0
M  V30 23153 H 2193.59 2.91468 4.17042 0
M  V30 23154 H 2192.99 0.101724 5.65609 0
M  V30 23155 H 2191.55 0.501279 6.4987 0
M  V30 23156 N 2194.98 -1.01016 1.20969 0
M  V30 23157 C 2195.91 -2.11553 0.988309 0
M  V30 23158 C 2196.89 -1.69888 -0.084948 0
M  V30 23159 O 2198.07 -1.9406 0.0738543 0
M  V30 23160 C 2195.2 -3.42972 0.546588 0
M  V30 23161 C 2194.16 -3.98408 1.56382 0
M  V30 23162 C 2193.48 -5.2567 0.978512 0
M  V30 23163 C 2194.78 -4.31061 2.9493 0
M  V30 23164 H 2196.48 -2.30331 1.9128 0
M  V30 23165 H 2194.02 -1.10688 0.921092 0
M  V30 23166 H 2195.98 -4.19693 0.378913 0
M  V30 23167 H 2194.7 -3.23971 -0.413541 0
M  V30 23168 H 2193.36 -3.23801 1.71897 0
M  V30 23169 H 2193.01 -5.02999 0.0102572 0
M  V30 23170 H 2192.71 -5.63725 1.65794 0
M  V30 23171 H 2194.23 -6.05041 0.822046 0
M  V30 23172 H 2195.65 -4.98645 2.82889 0
M  V30 23173 H 2194.04 -4.80246 3.59838 0
M  V30 23174 H 2195.11 -3.39555 3.46166 0
M  V30 23175 N 2196.46 -1.01661 -1.20428 0
M  V30 23176 C 2197.39 -0.607265 -2.25465 0
M  V30 23177 C 2198.37 0.377687 -1.65854 0
M  V30 23178 O 2199.55 0.263115 -1.92409 0
M  V30 23179 C 2196.68 0.0552339 -3.47256 0
M  V30 23180 C 2195.64 -0.850705 -4.1946 0
M  V30 23181 C 2194.96 -0.0539799 -5.34673 0
M  V30 23182 C 2196.26 -2.15876 -4.75599 0
M  V30 23183 H 2197.96 -1.48531 -2.5996 0
M  V30 23184 H 2195.5 -0.715627 -1.24959 0
M  V30 23185 H 2197.46 0.353159 -4.19918 0
M  V30 23186 H 2196.18 0.967991 -3.11925 0
M  V30 23187 H 2194.84 -1.13263 -3.48665 0
M  V30 23188 H 2194.49 0.860427 -4.95586 0
M  V30 23189 H 2194.19 -0.657295 -5.83912 0
M  V30 23190 H 2195.71 0.237491 -6.10138 0
M  V30 23191 H 2197.12 -1.9232 -5.40079 0
M  V30 23192 H 2195.52 -2.71293 -5.35276 0
M  V30 23193 H 2196.59 -2.82176 -3.94341 0
M  V30 23194 N 2197.93 1.36205 -0.792844 0
M  V30 23195 C 2198.9 2.2833 -0.199499 0
M  V30 23196 C 2199.9 1.48978 0.605163 0
M  V30 23197 O 2201.09 1.6892 0.425656 0
M  V30 23198 C 2198.22 3.33135 0.723465 0
M  V30 23199 H 2199.41 2.82314 -1.01186 0
M  V30 23200 H 2196.97 1.45827 -0.562511 0
M  V30 23201 H 2197.7 2.84312 1.56003 0
M  V30 23202 H 2197.49 3.91819 0.148367 0
M  V30 23203 H 2198.98 4.01926 1.13337 0
M  V30 23204 N 2199.41 0.545154 1.47871 0
M  V30 23205 C 2200.34 -0.246581 2.2787 0
M  V30 23206 C 2201.36 -0.890537 1.36284 0
M  V30 23207 O 2202.55 -0.76642 1.61209 0
M  V30 23208 C 2199.65 -1.36576 3.10161 0
M  V30 23209 C 2198.82 -0.820879 4.29628 0
M  V30 23210 C 2197.88 -1.82306 4.9361 0
M  V30 23211 O 2196.9 -1.37396 5.52369 0
M  V30 23212 N 2198.11 -3.15595 4.87217 0
M  V30 23213 H 2200.87 0.439591 2.96459 0
M  V30 23214 H 2198.43 0.380449 1.57366 0
M  V30 23215 H 2200.42 -2.03468 3.49833 0
M  V30 23216 H 2198.99 -1.95536 2.43894 0
M  V30 23217 H 2198.21 0.0244725 3.94192 0
M  V30 23218 H 2199.5 -0.435973 5.06929 0
M  V30 23219 H 2198.9 -3.54736 4.40657 0
M  V30 23220 H 2197.46 -3.78078 5.30943 0
M  V30 23221 N 2200.89 -1.55074 0.28101 0
M  V30 23222 C 2201.84 -2.22759 -0.603897 0
M  V30 23223 C 2202.81 -1.20311 -1.14518 0
M  V30 23224 O 2203.99 -1.48871 -1.1934 0
M  V30 23225 C 2201.13 -2.95687 -1.77942 0
M  V30 23226 C 2200.25 -4.12866 -1.27143 0
M  V30 23227 C 2199.38 -4.73424 -2.40921 0
M  V30 23228 C 2198.42 -5.82786 -1.87155 0
M  V30 23229 N 2197.56 -6.37382 -2.9443 0
M  V30 23230 H 2202.4 -2.97993 -0.0200716 0
M  V30 23231 H 2199.93 -1.471 0.00186011 0
M  V30 23232 H 2201.89 -3.36189 -2.47049 0
M  V30 23233 H 2200.52 -2.22866 -2.33518 0
M  V30 23234 H 2199.57 -3.77445 -0.473264 0
M  V30 23235 H 2200.89 -4.91716 -0.837664 0
M  V30 23236 H 2200.04 -5.16676 -3.18012 0
M  V30 23237 H 2198.78 -3.93864 -2.87616 0
M  V30 23238 H 2197.78 -5.38978 -1.08547 0
M  V30 23239 H 2199.01 -6.64218 -1.41389 0
M  V30 23240 H 2196.95 -5.60713 -3.40495 0
M  V30 23241 H 2196.87 -7.11521 -2.55488 0
M  V30 23242 H 2198.14 -6.85292 -3.71477 0
M  V30 23243 N 2202.37 -0.00838561 -1.57598 0
M  V30 23244 C 2203.62 0.673366 -1.90552 0
M  V30 23245 C 2203.94 1.73845 -0.883332 0
M  V30 23246 O 2203.21 1.95744 0.0781097 0
M  V30 23247 H 2201.79 0.251704 -0.703316 0
M  V30 23248 H 2204.45 -0.0512934 -1.94832 0
M  V30 23249 H 2203.55 1.1393 -2.90562 0
M  V30 23250 N 2203.85 1.55365 0.264492 0
M  V30 23251 C 2204.78 1.91838 1.33117 0
M  V30 23252 C 2205.76 0.781219 1.51099 0
M  V30 23253 O 2206.94 1.04006 1.64001 0
M  V30 23254 C 2204.07 2.19774 2.68918 0
M  V30 23255 C 2203.03 3.35576 2.65655 0
M  V30 23256 C 2202.35 3.49011 4.05087 0
M  V30 23257 C 2203.65 4.71743 2.24179 0
M  V30 23258 H 2205.35 2.81184 1.02839 0
M  V30 23259 H 2202.89 1.35288 0.493263 0
M  V30 23260 H 2204.85 2.43878 3.43659 0
M  V30 23261 H 2203.57 1.27236 3.00796 0
M  V30 23262 H 2202.23 3.11453 1.93371 0
M  V30 23263 H 2201.88 2.53924 4.34202 0
M  V30 23264 H 2201.58 4.26875 4.03797 0
M  V30 23265 H 2203.1 3.75417 4.81554 0
M  V30 23266 H 2204.52 4.95335 2.88646 0
M  V30 23267 H 2202.91 5.52583 2.34034 0
M  V30 23268 H 2203.98 4.6999 1.19319 0
M  V30 23269 N 2205.33 -0.529387 1.48443 0
M  V30 23270 C 2206.57 -1.28518 1.56491 0
M  V30 23271 C 2206.9 -1.93025 0.239076 0
M  V30 23272 O 2206.16 -1.79886 -0.770681 0
M  V30 23273 C 2206.45 -2.39553 2.65234 0
M  V30 23274 C 2206.12 -1.92695 4.07651 0
M  V30 23275 C 2204.78 -1.79633 4.46414 0
M  V30 23276 C 2207.13 -1.57291 4.96899 0
M  V30 23277 C 2204.46 -1.29504 5.72229 0
M  V30 23278 C 2206.81 -1.08625 6.23204 0
M  V30 23279 C 2205.48 -0.941803 6.60822 0
M  V30 23280 H 2204.75 -0.470282 0.572639 0
M  V30 23281 H 2207.4 -0.590688 1.82162 0
M  V30 23282 H 2205.7 -3.14675 2.33425 0
M  V30 23283 H 2207.4 -2.97681 2.68676 0
M  V30 23284 H 2203.99 -2.03812 3.77039 0
M  V30 23285 H 2208.17 -1.66242 4.67629 0
M  V30 23286 H 2203.43 -1.17009 6.00099 0
M  V30 23287 H 2207.6 -0.803015 6.91755 0
M  V30 23288 H 2205.23 -0.551167 7.58199 0
M  V30 23289 N 2206.8 -1.37041 -0.778305 0
M  V30 23290 C 2208.03 -1.3487 -1.56504 0
M  V30 23291 C 2208.44 0.069447 -1.89073 0
M  V30 23292 O 2207.78 1.03985 -1.51436 0
M  V30 23293 C 2207.85 -2.1159 -2.90637 0
M  V30 23294 C 2207.51 -3.60603 -2.80739 0
M  V30 23295 C 2208.51 -4.54623 -2.52218 0
M  V30 23296 C 2206.19 -4.03638 -2.98967 0
M  V30 23297 C 2208.19 -5.89656 -2.42043 0
M  V30 23298 C 2205.87 -5.38759 -2.88413 0
M  V30 23299 C 2206.87 -6.3158 -2.59991 0
M  V30 23300 O 2206.56 -7.64218 -2.49451 0
M  V30 23301 H 2206.29 -0.463888 -0.491715 0
M  V30 23302 H 2208.85 -1.80891 -0.973021 0
M  V30 23303 H 2207.08 -1.60249 -3.51933 0
M  V30 23304 H 2208.76 -2.02137 -3.51988 0
M  V30 23305 H 2209.53 -4.22685 -2.37828 0
M  V30 23306 H 2205.41 -3.31755 -3.20093 0
M  V30 23307 H 2208.95 -6.62075 -2.19779 0
M  V30 23308 H 2204.85 -5.703 -3.0237 0
M  V30 23309 H 2205.62 -7.74465 -2.6485 0
M  V30 23310 N 2208.28 1.00373 -1.21503 0
M  V30 23311 C 2209.7 1.26537 -0.972652 0
M  V30 23312 C 2209.9 1.98607 0.340222 0
M  V30 23313 O 2208.95 2.28915 1.06557 0
M  V30 23314 C 2210.27 2.08778 -2.16408 0
M  V30 23315 C 2211.81 2.22 -2.20647 0
M  V30 23316 C 2212.29 3.07623 -3.39312 0
M  V30 23317 N 2213.78 3.15211 -3.39406 0
M  V30 23318 C 2214.52 3.81722 -4.27874 0
M  V30 23319 N 2214.01 4.50251 -5.26541 0
M  V30 23320 N 2215.8 3.78375 -4.15679 0
M  V30 23321 H 2207.96 0.520244 -2.0593 0
M  V30 23322 H 2210.22 0.292312 -0.901808 0
M  V30 23323 H 2209.92 1.63173 -3.11557 0
M  V30 23324 H 2209.8 3.09529 -2.15573 0
M  V30 23325 H 2212.19 2.66823 -1.26053 0
M  V30 23326 H 2212.27 1.20714 -2.25525 0
M  V30 23327 H 2211.91 2.63502 -4.342 0
M  V30 23328 H 2211.84 4.09025 -3.31672 0
M  V30 23329 H 2214.33 2.66428 -2.68001 0
M  V30 23330 H 2214.64 4.9871 -5.90346 0
M  V30 23331 H 2212.99 4.49034 -5.30465 0
M  V30 23332 H 2216.18 3.23992 -3.37856 0
M  V30 23333 H 2216.35 4.29932 -4.84833 0
M  V30 23334 N 2209.76 1.02298 1.19887 0
M  V30 23335 C 2210.69 0.619214 2.2514 0
M  V30 23336 C 2211.67 -0.368886 1.66052 0
M  V30 23337 O 2212.86 -0.252907 1.92546 0
M  V30 23338 C 2209.99 -0.0368173 3.4728 0
M  V30 23339 C 2208.94 0.872939 4.19003 0
M  V30 23340 C 2208.27 0.0823342 5.34637 0
M  V30 23341 C 2209.57 2.18395 4.74448 0
M  V30 23342 H 2211.26 1.49907 2.59168 0
M  V30 23343 H 2208.81 0.722244 1.24578 0
M  V30 23344 H 2210.76 -0.330884 4.20099 0
M  V30 23345 H 2209.48 -0.951435 3.12434 0
M  V30 23346 H 2208.14 1.15111 3.48059 0
M  V30 23347 H 2207.79 -0.834133 4.96036 0
M  V30 23348 H 2207.49 0.688252 5.83555 0
M  V30 23349 H 2209.01 -0.20513 6.10255 0
M  V30 23350 H 2210.43 1.95182 5.39052 0
M  V30 23351 H 2208.82 2.74128 5.33829 0
M  V30 23352 H 2209.89 2.84263 3.92839 0
M  V30 23353 N 2211.24 -1.35782 0.800057 0
M  V30 23354 C 2212.2 -2.28221 0.211605 0
M  V30 23355 C 2213.2 -1.49297 -0.597254 0
M  V30 23356 O 2214.39 -1.69143 -0.416692 0
M  V30 23357 C 2211.52 -3.33514 -0.705787 0
M  V30 23358 H 2212.72 -2.81774 1.02682 0
M  V30 23359 H 2210.27 -1.45527 0.570236 0
M  V30 23360 H 2211 -2.85136 -1.54493 0
M  V30 23361 H 2210.79 -3.91892 -0.127586 0
M  V30 23362 H 2212.28 -4.02521 -1.11204 0
M  V30 23363 N 2212.72 -0.552988 -1.4758 0
M  V30 23364 C 2213.65 0.234493 -2.27997 0
M  V30 23365 C 2214.66 0.883297 -1.36754 0
M  V30 23366 O 2215.85 0.75786 -1.61613 0
M  V30 23367 C 2212.95 1.3493 -3.10881 0
M  V30 23368 C 2212.12 0.798083 -4.30057 0
M  V30 23369 C 2211.18 1.79686 -4.9457 0
M  V30 23370 O 2210.21 1.34465 -5.53089 0
M  V30 23371 N 2211.41 3.13006 -4.88884 0
M  V30 23372 H 2214.17 -0.455307 -2.96221 0
M  V30 23373 H 2211.74 -0.388789 -1.57162 0
M  V30 23374 H 2213.73 2.0161 -3.50907 0
M  V30 23375 H 2212.3 1.9424 -2.44928 0
M  V30 23376 H 2211.52 -0.0453772 -3.94174 0
M  V30 23377 H 2212.81 0.409084 -5.07153 0
M  V30 23378 H 2212.2 3.52394 -4.42532 0
M  V30 23379 H 2210.76 3.75256 -5.32941 0
M  V30 23380 N 2214.19 1.54923 -0.28923 0
M  V30 23381 C 2215.1 2.26749 0.601824 0
M  V30 23382 C 2216.12 1.29842 1.15832 0
M  V30 23383 O 2217.3 1.62804 1.18561 0
M  V30 23384 C 2214.36 2.98532 1.76294 0
M  V30 23385 C 2213.42 4.1095 1.2417 0
M  V30 23386 C 2212.65 4.793 2.34748 0
M  V30 23387 O 2212.88 4.46939 3.54404 0
M  V30 23388 O 2211.81 5.66954 2.02105 0
M  V30 23389 H 2215.64 3.03694 0.0195345 0
M  V30 23390 H 2213.22 1.49295 -0.0561131 0
M  V30 23391 H 2215.1 3.43596 2.43967 0
M  V30 23392 H 2213.78 2.24493 2.33205 0
M  V30 23393 H 2212.69 3.70312 0.531039 0
M  V30 23394 H 2214.02 4.86932 0.718166 0
M  V30 23395 N 2215.67 0.0167433 1.57591 0
M  V30 23396 C 2216.9 -0.678685 1.95981 0
M  V30 23397 C 2217.32 -1.65574 0.892575 0
M  V30 23398 O 2216.68 -1.80697 -0.14774 0
M  V30 23399 C 2216.73 -1.37221 3.33471 0
M  V30 23400 O 2215.83 -2.48717 3.28959 0
M  V30 23401 H 2215.17 -0.179269 0.639342 0
M  V30 23402 H 2217.7 0.0749162 2.04463 0
M  V30 23403 H 2217.71 -1.73184 3.6942 0
M  V30 23404 H 2216.39 -0.655935 4.10695 0
M  V30 23405 H 2214.96 -2.14958 3.04709 0
M  V30 23406 N 2217.15 -1.55503 -0.256249 0
M  V30 23407 C 2218.4 -1.76547 -0.983641 0
M  V30 23408 C 2218.72 -0.579015 -1.86205 0
M  V30 23409 O 2217.99 0.405543 -1.91656 0
M  V30 23410 H 2216.57 -0.651093 -0.36618 0
M  V30 23411 H 2219.23 -1.92929 -0.276445 0
M  V30 23412 H 2218.33 -2.67318 -1.61082 0
M  V30 23413 N 2218.63 0.521507 -1.48721 0
M  V30 23414 C 2219.56 1.63428 -1.66774 0
M  V30 23415 C 2220.54 1.62068 -0.516528 0
M  V30 23416 O 2221.72 1.79131 -0.750045 0
M  V30 23417 C 2218.85 3.0199 -1.71521 0
M  V30 23418 C 2217.81 3.18211 -2.86227 0
M  V30 23419 C 2217.13 4.57919 -2.76069 0
M  V30 23420 C 2218.43 3.00177 -4.27424 0
M  V30 23421 H 2220.13 1.48574 -2.59935 0
M  V30 23422 H 2217.67 0.713336 -1.2509 0
M  V30 23423 H 2219.63 3.79717 -1.82738 0
M  V30 23424 H 2218.35 3.17885 -0.749449 0
M  V30 23425 H 2217.01 2.42903 -2.74579 0
M  V30 23426 H 2216.66 4.70662 -1.77445 0
M  V30 23427 H 2216.36 4.69716 -3.53045 0
M  V30 23428 H 2217.88 5.37734 -2.89266 0
M  V30 23429 H 2219.3 3.67689 -4.39861 0
M  V30 23430 H 2217.69 3.23461 -5.05463 0
M  V30 23431 H 2218.76 1.96511 -4.43296 0
M  V30 23432 N 2220.11 1.37452 0.771027 0
M  V30 23433 C 2221.35 1.32896 1.53187 0
M  V30 23434 C 2221.69 -0.086217 1.94009 0
M  V30 23435 O 2220.96 -1.0437 1.64125 0
M  V30 23436 C 2221.24 2.26873 2.79644 0
M  V30 23437 C 2221.1 3.77173 2.45072 0
M  V30 23438 C 2222.42 2.19284 3.81579 0
M  V30 23439 H 2219.53 0.484074 0.555735 0
M  V30 23440 H 2222.18 1.68158 0.884463 0
M  V30 23441 H 2220.33 1.96932 3.34888 0
M  V30 23442 H 2222 4.17714 1.95737 0
M  V30 23443 H 2220.24 3.95707 1.7776 0
M  V30 23444 H 2220.91 4.38365 3.3547 0
M  V30 23445 H 2223.39 2.45677 3.3583 0
M  V30 23446 H 2222.26 2.87179 4.67782 0
M  V30 23447 H 2222.53 1.18599 4.25895 0
M  V30 23448 O 2221.62 -0.911112 1.33345 0
M  V30 23449 H 2222.31 -1.54507 1.16821 0
M  V30 END ATOM
M  V30 BEGIN BOND
M  V30 END BOND
M  V30 END CTAB
M  END
$$$$
