drugbank_target|O95363 Phenylalanine--tRNA ligase, mitochondrial (DB00120)
 OpenBabel12092119223D

  0  0  0     0  0            999 V3000
M  V30 BEGIN CTAB
M  V30 COUNTS 9849 10490 0 0 0
M  V30 BEGIN ATOM
M  V30 1 H -2.588 8.49073 -0.0679273 0
M  V30 2 O -1.492 9.37262 0.0843559 0
M  V30 3 P 0 8.791 0 0
M  V30 4 O 1.422 9.31096 0.027933 0
M  V30 5 O -0.36 7.77869 -1.04071 0
M  V30 6 O -0.323 8.09533 1.41463 0
M  V30 7 C -0.483 9.0349 2.53943 0
M  V30 8 C 0.057 8.35226 3.79016 0
M  V30 9 O -0.999 7.57992 4.15078 0
M  V30 10 C 1.275 7.45087 3.67298 0
M  V30 11 O 2.013 7.27796 4.85194 0
M  V30 12 C 0.606 6.17323 3.12027 0
M  V30 13 O 1.405 5.04231 3.47188 0
M  V30 14 C -0.731 6.19961 3.81809 0
M  V30 15 H -0.699 5.58218 4.73051 0
M  V30 16 H 0.484 6.21726 2.02589 0
M  V30 17 H 1.968 7.86112 2.9231 0
M  V30 18 H 0.274 9.11627 4.55076 0
M  V30 19 H 0.084 9.9573 2.34194 0
M  V30 20 H -1.546 9.2792 2.67832 0
M  V30 21 H 1.093 4.67702 4.28772 0
M  V30 22 P 2.95057 7.39546 4.75277 0
M  V30 23 O 4.37257 7.81777 5.05738 0
M  V30 24 O 2.59057 7.1065 3.32998 0
M  V30 25 O 2.62757 6.04542 5.56673 0
M  V30 26 C 2.46757 6.22772 7.02095 0
M  V30 27 C 3.00757 4.97725 7.70406 0
M  V30 28 O 1.95157 4.13256 7.58987 0
M  V30 29 C 4.22557 4.28231 7.11815 0
M  V30 30 O 4.96357 3.49945 8.01648 0
M  V30 31 C 3.55657 3.5063 5.96244 0
M  V30 32 O 4.35557 2.36482 5.64681 0
M  V30 33 C 2.21957 3.15122 6.56374 0
M  V30 34 H 2.25157 2.13853 6.99751 0
M  V30 35 H 3.43457 4.13501 5.06559 0
M  V30 36 H 4.91857 5.03285 6.70911 0
M  V30 37 H 3.22457 5.20877 8.75697 0
M  V30 38 H 3.03457 7.11046 7.35349 0
M  V30 39 H 1.40457 6.35815 7.26986 0
M  V30 40 H 4.04357 1.61644 6.13565 0
M  V30 41 P 5.90114 3.65191 7.99657 0
M  V30 42 O 7.32314 3.84333 8.48297 0
M  V30 43 O 5.54114 4.17805 6.64342 0
M  V30 44 O 5.57814 2.07613 7.95143 0
M  V30 45 C 5.41814 1.44328 9.27336 0
M  V30 46 C 5.95814 0.0220012 9.17097 0
M  V30 47 O 4.90314 -0.626867 8.61923 0
M  V30 48 C 7.17614 -0.24586 8.30336 0
M  V30 49 O 7.91414 -1.39011 8.63583 0
M  V30 50 C 6.50814 -0.273849 6.91158 0
M  V30 51 O 7.30614 -1.06331 6.02794 0
M  V30 52 C 5.17014 -0.897649 7.22545 0
M  V30 53 N 4.12714 -0.292839 6.41732 0
M  V30 54 C 4.18914 1.00068 6.10757 0
M  V30 55 N 3.14414 1.36468 5.35794 0
M  V30 56 C 2.41014 0.258894 5.2366 0
M  V30 57 C 1.10414 0.0670682 4.65752 0
M  V30 58 O 0.37114 0.902443 4.10497 0
M  V30 59 N 0.67414 -1.2131 4.75881 0
M  V30 60 C 1.42314 -2.24934 5.37101 0
M  V30 61 N 0.82614 -3.48783 5.33984 0
M  V30 62 N 2.57614 -2.0844 5.95684 0
M  V30 63 C 3.03314 -0.81395 5.87791 0
M  V30 64 H 5.20214 -1.9841 7.04286 0
M  V30 65 H 6.38514 0.739815 6.49601 0
M  V30 66 H 7.87014 0.598315 8.36563 0
M  V30 67 H 6.17514 -0.352479 10.1829 0
M  V30 68 H 5.98514 2.00611 10.0304 0
M  V30 69 H 4.35414 1.41843 9.55327 0
M  V30 70 H -0.22186 -1.44434 4.37895 0
M  V30 71 H 4.98514 1.67697 6.42268 0
M  V30 72 H -0.08486 -3.60543 4.87699 0
M  V30 73 H 1.29114 -4.29232 5.7819 0
M  V30 74 H 6.99514 -1.95704 6.0346 0
M  V30 75 P 8.85171 -1.25109 8.70152 0
M  V30 76 O 10.2737 -1.35274 9.21221 0
M  V30 77 O 8.49171 -0.0769065 7.84762 0
M  V30 78 O 8.52871 -2.55232 7.81161 0
M  V30 79 C 8.36871 -3.79939 8.58154 0
M  V30 80 C 8.90871 -4.94023 7.72785 0
M  V30 81 O 7.85271 -5.18726 6.91205 0
M  V30 82 C 10.1267 -4.69597 6.85231 0
M  V30 83 O 10.8647 -5.83832 6.51337 0
M  V30 84 C 9.45771 -3.96706 5.66633 0
M  V30 85 O 10.2567 -4.15414 4.49689 0
M  V30 86 C 8.12071 -4.66153 5.59313 0
M  V30 87 H 8.15271 -5.47679 4.85214 0
M  V30 88 H 9.33571 -2.89008 5.86566 0
M  V30 89 H 10.8197 -4.0121 7.36511 0
M  V30 90 H 9.12571 -5.80182 8.37584 0
M  V30 91 H 8.93571 -3.73517 9.52265 0
M  V30 92 H 7.30571 -3.97163 8.80359 0
M  V30 93 H 9.94471 -4.90969 4.01921 0
M  V30 94 P 11.8023 -5.75688 6.64379 0
M  V30 95 O 13.2233 -6.11915 7.01921 0
M  V30 96 O 11.4423 -4.30744 6.56026 0
M  V30 97 O 11.4793 -6.37042 5.19165 0
M  V30 98 C 11.3183 -7.83662 5.1657 0
M  V30 99 C 11.8593 -8.33398 3.83019 0
M  V30 100 O 10.8043 -8.0998 3.00999 0
M  V30 101 C 13.0773 -7.65514 3.2257 0
M  V30 102 O 13.8153 -8.4329 2.32297 0
M  V30 103 C 12.4093 -6.40075 2.62207 0
M  V30 104 O 13.2073 -5.92338 1.5428 0
M  V30 105 C 11.0713 -6.9454 2.18503 0
M  V30 106 N 10.0283 -5.95905 2.39948 0
M  V30 107 C 10.1973 -4.98383 3.32108 0
M  V30 108 N 9.17028 -4.16798 3.41761 0
M  V30 109 C 8.28528 -4.65287 2.47461 0
M  V30 110 C 7.01828 -4.18946 2.07461 0
M  V30 111 N 6.41928 -3.09661 2.60717 0
M  V30 112 N 6.45328 -4.95327 1.09101 0
M  V30 113 C 7.05528 -6.04369 0.519812 0
M  V30 114 N 8.23228 -6.50694 0.855982 0
M  V30 115 C 8.80728 -5.75818 1.84322 0
M  V30 116 H 11.1033 -7.22964 1.12076 0
M  V30 117 H 12.2863 -5.60502 3.36589 0
M  V30 118 H 13.7693 -7.35707 4.02681 0
M  V30 119 H 12.0753 -9.41302 3.90009 0
M  V30 120 H 11.8853 -8.29056 5.99158 0
M  V30 121 H 10.2553 -8.10073 5.25882 0
M  V30 122 H 6.51928 -6.55843 -0.270373 0
M  V30 123 H 11.0973 -4.88564 3.92502 0
M  V30 124 H 5.48928 -2.80523 2.27218 0
M  V30 125 H 6.89328 -2.55848 3.34465 0
M  V30 126 H 12.8953 -6.30224 0.72668 0
M  V30 127 P 14.7528 -8.4349 2.47671 0
M  V30 128 O 16.1748 -8.94167 2.5964 0
M  V30 129 O 14.3928 -7.1704 3.19006 0
M  V30 130 O 14.4298 -8.16596 0.923387 0
M  V30 131 C 14.2698 -9.38437 0.108857 0
M  V30 132 C 14.8098 -9.08175 -1.28353 0
M  V30 133 O 13.7538 -8.44229 -1.84713 0
M  V30 134 C 16.0278 -8.18386 -1.42505 0
M  V30 135 O 16.7659 -8.3501 -2.60497 0
M  V30 136 C 15.3588 -6.80225 -1.25468 0
M  V30 137 O 16.1578 -5.81621 -1.91066 0
M  V30 138 C 14.0218 -7.02416 -1.9168 0
M  V30 139 H 14.0538 -6.6888 -2.96621 0
M  V30 140 H 15.2368 -6.53617 -0.192223 0
M  V30 141 H 16.7208 -8.36622 -0.589963 0
M  V30 142 H 15.0268 -10.0291 -1.79807 0
M  V30 143 H 14.8368 -10.2138 0.558219 0
M  V30 144 H 13.2068 -9.6579 0.0444202 0
M  V30 145 H 15.8458 -5.69556 -2.79637 0
M  V30 146 P 17.7034 -8.4349 -2.47671 0
M  V30 147 O 19.1244 -8.92689 -2.65029 0
M  V30 148 O 17.3434 -7.7568 -1.19296 0
M  V30 149 O 17.3804 -7.36886 -3.63805 0
M  V30 150 C 17.2194 -7.95433 -4.98253 0
M  V30 151 C 17.7604 -6.94612 -5.98974 0
M  V30 152 O 16.7054 -6.10277 -6.11744 0
M  V30 153 C 18.9784 -6.11426 -5.62335 0
M  V30 154 O 19.7164 -5.6162 -6.70584 0
M  V30 155 C 18.3104 -5.04409 -4.73308 0
M  V30 156 O 19.1084 -3.86404 -4.74719 0
M  V30 157 C 16.9724 -4.8728 -5.41006 0
M  V30 158 N 15.9294 -4.65812 -4.42377 0
M  V30 159 C 16.0984 -5.09132 -3.15382 0
M  V30 160 N 15.0714 -4.84021 -2.3716 0
M  V30 161 C 14.1864 -4.18386 -3.20441 0
M  V30 162 C 12.9194 -3.6275 -2.94905 0
M  V30 163 N 12.3544 -3.05008 -4.05243 0
M  V30 164 C 12.9564 -2.98348 -5.28159 0
M  V30 165 N 14.1334 -3.48171 -5.56333 0
M  V30 166 C 14.7084 -4.06869 -4.47212 0
M  V30 167 H 18.1874 -5.39013 -3.70026 0
M  V30 168 H 19.6704 -6.71916 -5.01943 0
M  V30 169 H 17.9764 -7.45796 -6.94223 0
M  V30 170 H 17.7864 -8.89416 -5.05237 0
M  V30 171 H 16.1564 -8.14876 -5.18409 0
M  V30 172 H 16.9984 -5.59989 -2.81362 0
M  V30 173 H 18.7964 -3.27906 -5.43085 0
M  V30 174 P 20.654 -5.75688 -6.64379 0
M  V30 175 O 22.075 -6.07692 -7.0558 0
M  V30 176 O 20.294 -5.88047 -5.19722 0
M  V30 177 O 20.331 -4.2322 -7.04443 0
M  V30 178 C 20.17 -3.99785 -8.49201 0
M  V30 179 C 20.711 -2.60516 -8.79425 0
M  V30 180 O 19.656 -1.82663 -8.44573 0
M  V30 181 C 21.929 -2.10343 -8.03628 0
M  V30 182 O 22.667 -1.09919 -8.67766 0
M  V30 183 C 21.261 -1.68446 -6.70876 0
M  V30 184 O 22.059 -0.684109 -6.08265 0
M  V30 185 C 19.923 -1.17436 -7.18567 0
M  V30 186 N 18.88 -1.52699 -6.23988 0
M  V30 187 C 19.049 -2.578 -5.40574 0
M  V30 188 N 18.022 -2.78966 -4.61193 0
M  V30 189 C 17.137 -1.78725 -4.95769 0
M  V30 190 C 15.87 -1.45727 -4.44207 0
M  V30 191 N 15.305 -0.374977 -5.05812 0
M  V30 192 C 15.907 0.345585 -6.05615 0
M  V30 193 N 17.084 0.0787651 -6.56253 0
M  V30 194 C 17.659 -1.00499 -5.96189 0
M  V30 195 H 21.138 -2.53396 -6.02698 0
M  V30 196 H 22.621 -2.93881 -7.85526 0
M  V30 197 H 20.927 -2.52078 -9.87225 0
M  V30 198 H 20.737 -4.75072 -9.05887 0
M  V30 199 H 19.107 -4.05244 -8.76668 0
M  V30 200 H 19.949 -3.18977 -5.3945 0
M  V30 201 H 21.747 0.177619 -6.34151 0
M  V30 202 P 23.6046 -1.25109 -8.70152 0
M  V30 203 O 25.0266 -1.29772 -9.22214 0
M  V30 204 O 23.2446 -2.13714 -7.55141 0
M  V30 205 O 23.2816 0.248149 -8.21425 0
M  V30 206 C 23.1216 1.22779 -9.30434 0
M  V30 207 C 23.6616 2.56265 -8.80568 0
M  V30 208 O 22.6066 3.02979 -8.09349 0
M  V30 209 C 24.8796 2.57523 -7.89775 0
M  V30 210 O 25.6176 3.7668 -7.89438 0
M  V30 211 C 24.2116 2.20997 -6.55446 0
M  V30 212 O 25.0096 2.71851 -5.48419 0
M  V30 213 C 22.8736 2.89693 -6.67988 0
M  V30 214 N 21.8306 2.08895 -6.07487 0
M  V30 215 C 21.8926 0.760559 -6.14209 0
M  V30 216 N 20.8476 0.200108 -5.52538 0
M  V30 217 C 20.1136 1.22692 -5.09742 0
M  V30 218 C 18.8076 1.24782 -4.48775 0
M  V30 219 O 18.0746 0.290617 -4.19294 0
M  V30 220 N 18.3776 2.50468 -4.22428 0
M  V30 221 C 19.1266 3.67142 -4.51974 0
M  V30 222 N 18.5296 4.85096 -4.14091 0
M  V30 223 N 20.2796 3.67821 -5.12831 0
M  V30 224 C 20.7366 2.43698 -5.4105 0
M  V30 225 H 22.9056 3.88793 -6.19859 0
M  V30 226 H 24.0886 1.12029 -6.4413 0
M  V30 227 H 25.5736 1.78279 -8.19533 0
M  V30 228 H 23.8786 3.20706 -9.67112 0
M  V30 229 H 23.6886 0.901032 -10.1892 0
M  V30 230 H 22.0576 1.33049 -9.56592 0
M  V30 231 H 17.4816 2.61953 -3.79465 0
M  V30 232 H 22.6886 0.200439 -6.63497 0
M  V30 233 H 17.6186 4.8334 -3.66367 0
M  V30 234 H 18.9946 5.7474 -4.33841 0
M  V30 235 H 24.6986 3.5779 -5.23879 0
M  V30 236 P 26.5551 3.65191 -7.99657 0
M  V30 237 O 27.9761 3.89374 -8.45885 0
M  V30 238 O 26.1951 2.28472 -7.50807 0
M  V30 239 O 26.2321 4.64972 -6.77611 0
M  V30 240 C 26.0711 6.06383 -7.16428 0
M  V30 241 C 26.6121 6.91731 -6.02299 0
M  V30 242 O 25.5571 6.92369 -5.17005 0
M  V30 243 C 27.8301 6.43627 -5.25174 0
M  V30 244 O 28.5681 7.43686 -4.60469 0
M  V30 245 C 27.1621 5.40275 -4.31916 0
M  V30 246 O 27.9601 5.24878 -3.14911 0
M  V30 247 C 25.8241 6.04847 -4.05327 0
M  V30 248 N 24.7811 5.04166 -3.98114 0
M  V30 249 C 24.9501 3.84629 -4.59066 0
M  V30 250 N 23.9231 3.0363 -4.45343 0
M  V30 251 C 23.0381 3.76722 -3.68523 0
M  V30 252 C 21.7711 3.43528 -3.17088 0
M  V30 253 N 21.1721 2.23665 -3.37397 0
M  V30 254 N 21.2061 4.44526 -2.44231 0
M  V30 255 C 21.8081 5.65243 -2.20146 0
M  V30 256 N 22.9851 6.00221 -2.65453 0
M  V30 257 C 23.5601 5.00564 -3.39083 0
M  V30 258 H 25.8561 6.62104 -3.11218 0
M  V30 259 H 27.0391 4.42969 -4.80867 0
M  V30 260 H 28.5221 5.92458 -5.93643 0
M  V30 261 H 26.8281 7.93295 -6.39407 0
M  V30 262 H 26.6381 6.26671 -8.0846 0
M  V30 263 H 25.0081 6.29101 -7.32804 0
M  V30 264 H 21.2721 6.36894 -1.5883 0
M  V30 265 H 25.8501 3.58193 -5.14248 0
M  V30 266 H 20.2421 2.05145 -2.97047 0
M  V30 267 H 21.6461 1.51255 -3.92998 0
M  V30 268 H 27.6481 5.84223 -2.47279 0
M  V30 269 P 29.5057 7.39546 -4.75277 0
M  V30 270 O 30.9277 7.84798 -5.01039 0
M  V30 271 O 29.1457 5.9812 -5.08098 0
M  V30 272 O 29.1827 7.57503 -3.1866 0
M  V30 273 C 29.0227 8.97357 -2.74833 0
M  V30 274 C 29.5627 9.07548 -1.32709 0
M  V30 275 O 28.5067 8.62072 -0.606159 0
M  V30 276 C 30.7807 8.25383 -0.938334 0
M  V30 277 O 31.5187 8.74577 0.146954 0
M  V30 278 C 30.1117 6.8802 -0.712559 0
M  V30 279 O 30.9107 6.1189 0.194655 0
M  V30 280 C 28.7747 7.27966 -0.139777 0
M  V30 281 H 28.8067 7.25354 0.961601 0
M  V30 282 H 29.9897 6.32557 -1.65702 0
M  V30 283 H 31.4737 8.19355 -1.79097 0
M  V30 284 H 29.7797 10.1294 -1.10029 0
M  V30 285 H 29.5897 9.64276 -3.41316 0
M  V30 286 H 27.9597 9.25417 -2.76357 0
M  V30 287 H 30.5987 6.25267 1.07847 0
M  V30 288 P 32.4563 8.791 -9.96115e-15 0
M  V30 289 O 33.8773 9.31196 0.027936 0
M  V30 290 O 32.0963 7.77869 -1.04071 0
M  V30 291 O 32.1333 8.09533 1.41463 0
M  V30 292 C 31.9723 9.03587 2.5397 0
M  V30 293 C 32.5133 8.35226 3.79016 0
M  V30 294 O 31.4583 7.57904 4.1503 0
M  V30 295 C 33.7313 7.45087 3.67298 0
M  V30 296 O 34.4693 7.27796 4.85194 0
M  V30 297 C 33.0633 6.17323 3.12027 0
M  V30 298 O 33.8613 5.04496 3.46627 0
M  V30 299 C 31.7253 6.19961 3.81809 0
M  V30 300 N 30.6823 5.71575 2.93223 0
M  V30 301 C 30.8513 5.77362 1.59168 0
M  V30 302 N 29.8243 5.3123 0.911893 0
M  V30 303 C 28.9393 4.91717 1.89588 0
M  V30 304 C 27.6723 4.3114 1.8076 0
M  V30 305 N 27.0733 3.99821 0.632928 0
M  V30 306 N 27.1073 4.06823 3.02898 0
M  V30 307 C 27.7093 4.35062 4.22711 0
M  V30 308 N 28.8863 4.90805 4.35707 0
M  V30 309 C 29.4613 5.16382 3.14469 0
M  V30 310 H 31.7573 5.58142 4.72986 0
M  V30 311 H 32.9403 6.21428 2.0318 0
M  V30 312 H 34.4233 7.86112 2.9231 0
M  V30 313 H 32.7293 9.11171 4.55987 0
M  V30 314 H 32.5393 9.9573 2.34194 0
M  V30 315 H 30.9093 9.2792 2.67832 0
M  V30 316 H 27.1733 4.09052 5.13359 0
M  V30 317 H 31.7513 6.16575 1.12198 0
M  V30 318 H 26.1433 3.55423 0.632085 0
M  V30 319 H 27.5473 4.20317 -0.256712 0
M  V30 320 H 33.5493 4.67628 4.28704 0
M  V30 321 P 35.4068 7.39546 4.75277 0
M  V30 322 O 36.8078 7.89013 5.04841 0
M  V30 323 O 35.0288 7.16603 3.32298 0
M  V30 324 O 35.0838 6.04468 5.56605 0
M  V30 325 C 34.9238 6.22772 7.02095 0
M  V30 326 C 35.4638 4.97671 7.70322 0
M  V30 327 O 34.4078 4.13208 7.58899 0
M  V30 328 C 36.6808 4.28231 7.11815 0
M  V30 329 O 37.4198 3.49945 8.01648 0
M  V30 330 C 36.0138 3.5063 5.96244 0
M  V30 331 O 36.8118 2.36443 5.64589 0
M  V30 332 C 34.6758 3.15122 6.56374 0
M  V30 333 N 33.6328 3.22311 5.55692 0
M  V30 334 C 32.5978 2.32244 5.62437 0
M  V30 335 O 32.6368 1.43107 6.50341 0
M  V30 336 N 31.5858 2.40811 4.73368 0
M  V30 337 C 31.6338 3.344 3.77753 0
M  V30 338 C 32.7298 4.24712 3.66679 0
M  V30 339 C 33.6958 4.15625 4.58307 0
M  V30 340 H 34.7078 2.13823 6.99656 0
M  V30 341 H 35.8908 4.12931 5.06895 0
M  V30 342 H 37.3748 5.02674 6.71494 0
M  V30 343 H 35.6808 5.20001 8.76217 0
M  V30 344 H 35.4898 7.11046 7.35349 0
M  V30 345 H 33.8598 6.35749 7.26911 0
M  V30 346 H 32.7778 4.9828 2.86753 0
M  V30 347 H 34.5418 4.84464 4.54228 0
M  V30 348 H 36.5958 1.65592 6.23485 0
M  V30 349 P 38.3574 3.65191 7.99657 0
M  V30 350 O 39.7794 3.8425 8.48115 0
M  V30 351 O 37.9974 4.17805 6.64342 0
M  V30 352 O 38.0344 2.07613 7.95143 0
M  V30 353 C 37.8744 1.44328 9.27336 0
M  V30 354 C 38.4144 0.0220036 9.17197 0
M  V30 355 O 37.3584 -0.626867 8.61923 0
M  V30 356 C 39.6324 -0.24586 8.30336 0
M  V30 357 O 40.3704 -1.39011 8.63583 0
M  V30 358 C 38.9634 -0.273849 6.91158 0
M  V30 359 O 39.7624 -1.06348 6.02892 0
M  V30 360 C 37.6264 -0.897649 7.22545 0
M  V30 361 H 37.6584 -1.9841 7.04286 0
M  V30 362 H 38.8414 0.739928 6.497 0
M  V30 363 H 40.3254 0.60668 8.36503 0
M  V30 364 H 38.6314 -0.352479 10.1829 0
M  V30 365 H 38.4414 2.00611 10.0304 0
M  V30 366 H 36.8114 1.41843 9.55327 0
M  V30 367 H 39.4504 -1.95734 6.03555 0
M  V30 368 P 41.308 -1.25109 8.70152 0
M  V30 369 O 42.709 -1.31452 9.27431 0
M  V30 370 O 40.93 -0.0458113 7.89887 0
M  V30 371 O 40.985 -2.55201 7.81066 0
M  V30 372 C 40.825 -3.79939 8.58154 0
M  V30 373 C 41.365 -4.93969 7.72701 0
M  V30 374 O 40.309 -5.18666 6.91125 0
M  V30 375 C 42.582 -4.69597 6.85231 0
M  V30 376 O 43.321 -5.83832 6.51337 0
M  V30 377 C 41.915 -3.96706 5.66633 0
M  V30 378 O 42.713 -4.15346 4.49615 0
M  V30 379 C 40.577 -4.66153 5.59313 0
M  V30 380 N 39.534 -3.71582 5.24027 0
M  V30 381 C 38.499 -4.15133 4.44901 0
M  V30 382 O 38.538 -5.32122 4.00336 0
M  V30 383 N 37.487 -3.30554 4.15693 0
M  V30 384 C 37.535 -2.04701 4.61105 0
M  V30 385 C 38.631 -1.57111 5.38655 0
M  V30 386 C 39.597 -2.44234 5.68454 0
M  V30 387 H 40.609 -5.47604 4.85148 0
M  V30 388 H 41.792 -2.8955 5.86187 0
M  V30 389 H 43.276 -4.01995 7.36197 0
M  V30 390 H 41.582 -5.81019 8.37003 0
M  V30 391 H 41.391 -3.73517 9.52265 0
M  V30 392 H 39.761 -3.97122 8.80267 0
M  V30 393 H 38.679 -0.538464 5.72373 0
M  V30 394 H 40.443 -2.11927 6.29377 0
M  V30 395 H 42.497 -4.98352 4.09633 0
M  V30 396 P 44.2585 -5.75688 6.64379 0
M  V30 397 O 45.6805 -6.11849 7.01846 0
M  V30 398 O 43.8985 -4.30744 6.56026 0
M  V30 399 O 43.9355 -6.37042 5.19165 0
M  V30 400 C 43.7755 -7.83578 5.16515 0
M  V30 401 C 44.3155 -8.33398 3.83019 0
M  V30 402 O 43.2595 -8.10074 3.01034 0
M  V30 403 C 45.5335 -7.65514 3.2257 0
M  V30 404 O 46.2715 -8.4329 2.32297 0
M  V30 405 C 44.8645 -6.40075 2.62207 0
M  V30 406 O 45.6635 -5.92589 1.53712 0
M  V30 407 C 43.5275 -6.9454 2.18503 0
M  V30 408 H 43.5595 -7.23063 1.12091 0
M  V30 409 H 44.7425 -5.6025 3.37201 0
M  V30 410 H 46.2265 -7.35707 4.02681 0
M  V30 411 H 44.5325 -9.40912 3.9095 0
M  V30 412 H 44.3425 -8.29056 5.99158 0
M  V30 413 H 42.7125 -8.10073 5.25882 0
M  V30 414 H 45.3515 -6.30324 0.726794 0
M  V30 415 P 47.2091 -8.4349 2.47671 0
M  V30 416 O 48.6311 -8.94167 2.5964 0
M  V30 417 O 46.8491 -7.1704 3.19006 0
M  V30 418 O 46.8861 -8.16596 0.923387 0
M  V30 419 C 46.7261 -9.38437 0.108857 0
M  V30 420 C 47.2661 -9.08175 -1.28353 0
M  V30 421 O 46.2101 -8.44229 -1.84713 0
M  V30 422 C 48.4841 -8.18386 -1.42505 0
M  V30 423 O 49.2221 -8.3501 -2.60497 0
M  V30 424 C 47.8151 -6.80225 -1.25468 0
M  V30 425 O 48.6141 -5.81621 -1.91066 0
M  V30 426 C 46.4781 -7.02416 -1.9168 0
M  V30 427 H 46.5101 -6.6888 -2.96621 0
M  V30 428 H 47.6931 -6.53617 -0.192223 0
M  V30 429 H 49.1771 -8.36622 -0.589963 0
M  V30 430 H 47.4831 -10.0291 -1.79807 0
M  V30 431 H 47.2931 -10.2138 0.558219 0
M  V30 432 H 45.6631 -9.6579 0.0444202 0
M  V30 433 H 48.3021 -5.69556 -2.79637 0
M  V30 434 P 50.1597 -8.4349 -2.47671 0
M  V30 435 O 51.5817 -8.92593 -2.65 0
M  V30 436 O 49.7997 -7.7568 -1.19296 0
M  V30 437 O 49.8367 -7.36886 -3.63805 0
M  V30 438 C 49.6767 -7.95349 -4.982 0
M  V30 439 C 50.2167 -6.94612 -5.98974 0
M  V30 440 O 49.1607 -6.10347 -6.11815 0
M  V30 441 C 51.4347 -6.11426 -5.62335 0
M  V30 442 O 52.1727 -5.6162 -6.70584 0
M  V30 443 C 50.7657 -5.04409 -4.73308 0
M  V30 444 O 51.5647 -3.85992 -4.75183 0
M  V30 445 C 49.4287 -4.8728 -5.41006 0
M  V30 446 H 49.4607 -4.02333 -6.11157 0
M  V30 447 H 50.6437 -5.39466 -3.69543 0
M  V30 448 H 52.1277 -6.71916 -5.01943 0
M  V30 449 H 50.4337 -7.4649 -6.93477 0
M  V30 450 H 50.2437 -8.89416 -5.05237 0
M  V30 451 H 48.6137 -8.14876 -5.18409 0
M  V30 452 H 51.2527 -3.27957 -5.4317 0
M  V30 453 P 53.1103 -5.75688 -6.64379 0
M  V30 454 O 54.5323 -6.07627 -7.05504 0
M  V30 455 O 52.7503 -5.88047 -5.19722 0
M  V30 456 O 52.7873 -4.2322 -7.04443 0
M  V30 457 C 52.6273 -3.99743 -8.4911 0
M  V30 458 C 53.1673 -2.60516 -8.79425 0
M  V30 459 O 52.1113 -1.82684 -8.4467 0
M  V30 460 C 54.3853 -2.10343 -8.03628 0
M  V30 461 O 55.1233 -1.09919 -8.67766 0
M  V30 462 C 53.7163 -1.68446 -6.70876 0
M  V30 463 O 54.5153 -0.678137 -6.08433 0
M  V30 464 C 52.3793 -1.17436 -7.18567 0
M  V30 465 H 52.4113 -0.0804732 -7.31656 0
M  V30 466 H 53.5943 -2.54037 -6.02537 0
M  V30 467 H 55.0783 -2.93881 -7.85526 0
M  V30 468 H 53.3843 -2.53065 -9.86973 0
M  V30 469 H 53.1943 -4.75072 -9.05887 0
M  V30 470 H 51.5643 -4.05244 -8.76668 0
M  V30 471 H 54.2033 0.177647 -6.34251 0
M  V30 472 P 56.0608 -1.25109 -8.70152 0
M  V30 473 O 57.4818 -1.29758 -9.22115 0
M  V30 474 O 55.7008 -2.13714 -7.55141 0
M  V30 475 O 55.7378 0.248149 -8.21425 0
M  V30 476 C 55.5768 1.22792 -9.30533 0
M  V30 477 C 56.1178 2.56293 -8.80664 0
M  V30 478 O 55.0628 3.02944 -8.09255 0
M  V30 479 C 57.3358 2.57523 -7.89775 0
M  V30 480 O 58.0738 3.7668 -7.89438 0
M  V30 481 C 56.6678 2.20997 -6.55446 0
M  V30 482 O 57.4658 2.71302 -5.48691 0
M  V30 483 C 55.3298 2.89693 -6.67988 0
M  V30 484 N 54.2868 2.08895 -6.07487 0
M  V30 485 C 54.4558 0.753809 -5.94137 0
M  V30 486 N 53.4288 0.146592 -5.38801 0
M  V30 487 C 52.5438 1.1768 -5.13693 0
M  V30 488 C 51.2768 1.17563 -4.52477 0
M  V30 489 N 50.6778 0.057481 -4.04759 0
M  V30 490 N 50.7118 2.41918 -4.45789 0
M  V30 491 C 51.3138 3.56493 -4.90792 0
M  V30 492 N 52.4908 3.61423 -5.47817 0
M  V30 493 C 53.0658 2.37779 -5.5588 0
M  V30 494 H 55.3618 3.8874 -6.19774 0
M  V30 495 H 56.5448 1.12673 -6.44018 0
M  V30 496 H 58.0278 1.7746 -8.19711 0
M  V30 497 H 56.3338 3.21673 -9.66791 0
M  V30 498 H 56.1438 0.901032 -10.1892 0
M  V30 499 H 54.5138 1.33049 -9.56592 0
M  V30 500 H 50.7778 4.49919 -4.77947 0
M  V30 501 H 55.3558 0.233081 -6.26266 0
M  V30 502 H 49.7478 0.119831 -3.60801 0
M  V30 503 H 51.1518 -0.852272 -4.12385 0
M  V30 504 H 57.1538 3.5779 -5.23879 0
M  V30 505 P 59.0114 3.65191 -7.99657 0
M  V30 506 O 60.4334 3.89332 -8.45794 0
M  V30 507 O 58.6514 2.28472 -7.50807 0
M  V30 508 O 58.6884 4.64972 -6.77611 0
M  V30 509 C 58.5284 6.06319 -7.16352 0
M  V30 510 C 59.0684 6.91731 -6.02299 0
M  V30 511 O 58.0124 6.92449 -5.17064 0
M  V30 512 C 60.2864 6.43627 -5.25174 0
M  V30 513 O 61.0244 7.43686 -4.60469 0
M  V30 514 C 59.6174 5.40275 -4.31916 0
M  V30 515 O 60.4164 5.25279 -3.14438 0
M  V30 516 C 58.2804 6.04847 -4.05327 0
M  V30 517 H 58.3124 6.62195 -3.11261 0
M  V30 518 H 59.4954 4.42556 -4.81383 0
M  V30 519 H 60.9794 5.92458 -5.93643 0
M  V30 520 H 59.2854 7.92655 -6.402 0
M  V30 521 H 59.0954 6.26671 -8.0846 0
M  V30 522 H 57.4654 6.29101 -7.32804 0
M  V30 523 H 60.1044 5.84315 -2.47318 0
M  V30 524 P 61.962 7.39546 -4.75277 0
M  V30 525 O 63.384 7.84798 -5.01039 0
M  V30 526 O 61.602 5.9812 -5.08098 0
M  V30 527 O 61.639 7.57503 -3.1866 0
M  V30 528 C 61.479 8.97357 -2.74833 0
M  V30 529 C 62.019 9.07548 -1.32709 0
M  V30 530 O 60.963 8.62072 -0.606159 0
M  V30 531 C 63.237 8.25383 -0.938334 0
M  V30 532 O 63.975 8.74577 0.146954 0
M  V30 533 C 62.568 6.8802 -0.712559 0
M  V30 534 O 63.367 6.1189 0.194655 0
M  V30 535 C 61.231 7.27966 -0.139777 0
M  V30 536 H 61.263 7.25354 0.961601 0
M  V30 537 H 62.446 6.32557 -1.65702 0
M  V30 538 H 63.93 8.19355 -1.79097 0
M  V30 539 H 62.236 10.1294 -1.10029 0
M  V30 540 H 62.046 9.64276 -3.41316 0
M  V30 541 H 60.416 9.25417 -2.76357 0
M  V30 542 H 63.055 6.25267 1.07847 0
M  V30 543 P 64.9125 8.791 -3.55383e-14 0
M  V30 544 O 66.3345 9.31096 0.027933 0
M  V30 545 O 64.5525 7.77869 -1.04071 0
M  V30 546 O 64.5895 8.09533 1.41463 0
M  V30 547 C 64.4295 9.0349 2.53943 0
M  V30 548 C 64.9695 8.35226 3.79016 0
M  V30 549 O 63.9135 7.57992 4.15078 0
M  V30 550 C 66.1875 7.45087 3.67298 0
M  V30 551 O 66.9255 7.27796 4.85194 0
M  V30 552 C 65.5185 6.17323 3.12027 0
M  V30 553 O 66.3175 5.04231 3.47188 0
M  V30 554 C 64.1815 6.19961 3.81809 0
M  V30 555 H 64.2135 5.58218 4.73051 0
M  V30 556 H 65.3965 6.21726 2.02589 0
M  V30 557 H 66.8805 7.86112 2.9231 0
M  V30 558 H 65.1865 9.11627 4.55076 0
M  V30 559 H 64.9965 9.9573 2.34194 0
M  V30 560 H 63.3665 9.2792 2.67832 0
M  V30 561 H 66.0055 4.67702 4.28772 0
M  V30 562 P 67.8631 7.39546 4.75277 0
M  V30 563 O 69.2851 7.81777 5.05738 0
M  V30 564 O 67.5031 7.1065 3.32998 0
M  V30 565 O 67.5401 6.04542 5.56673 0
M  V30 566 C 67.3801 6.22772 7.02095 0
M  V30 567 C 67.9201 4.97725 7.70406 0
M  V30 568 O 66.8641 4.13256 7.58987 0
M  V30 569 C 69.1381 4.28231 7.11815 0
M  V30 570 O 69.8761 3.49945 8.01648 0
M  V30 571 C 68.4691 3.5063 5.96244 0
M  V30 572 O 69.2681 2.36482 5.64681 0
M  V30 573 C 67.1321 3.15122 6.56374 0
M  V30 574 H 67.1641 2.13853 6.99751 0
M  V30 575 H 68.3471 4.13501 5.06559 0
M  V30 576 H 69.8311 5.03285 6.70911 0
M  V30 577 H 68.1371 5.20877 8.75697 0
M  V30 578 H 67.9471 7.11046 7.35349 0
M  V30 579 H 66.3171 6.35815 7.26986 0
M  V30 580 H 68.9561 1.61644 6.13565 0
M  V30 581 P 70.8137 3.65191 7.99657 0
M  V30 582 O 72.2347 3.84292 8.48206 0
M  V30 583 O 70.4537 4.17805 6.64342 0
M  V30 584 O 70.4907 2.07613 7.95143 0
M  V30 585 C 70.3297 1.44344 9.27435 0
M  V30 586 C 70.8707 0.0220036 9.17197 0
M  V30 587 O 69.8157 -0.626794 8.61824 0
M  V30 588 C 72.0887 -0.24586 8.30336 0
M  V30 589 O 72.8267 -1.39011 8.63583 0
M  V30 590 C 71.4207 -0.273849 6.91158 0
M  V30 591 O 72.2187 -1.05728 6.029 0
M  V30 592 C 70.0827 -0.897649 7.22545 0
M  V30 593 N 69.0397 -0.292839 6.41732 0
M  V30 594 C 69.2087 0.950603 5.91308 0
M  V30 595 N 68.1817 1.37732 5.21105 0
M  V30 596 C 67.2967 0.318109 5.26039 0
M  V30 597 C 66.0297 0.146766 4.6727 0
M  V30 598 N 65.4647 -1.06525 4.95887 0
M  V30 599 C 66.0667 -2.0378 5.71347 0
M  V30 600 N 67.2437 -1.92445 6.27451 0
M  V30 601 C 67.8187 -0.715382 6.00353 0
M  V30 602 H 71.2977 0.733318 6.49674 0
M  V30 603 H 72.7807 0.60668 8.36503 0
M  V30 604 H 71.0867 -0.362662 10.1825 0
M  V30 605 H 70.8967 2.00611 10.0304 0
M  V30 606 H 69.2667 1.41843 9.55327 0
M  V30 607 H 70.1087 1.54076 6.07465 0
M  V30 608 H 71.9067 -1.95704 6.0346 0
M  V30 609 P 73.7642 -1.25109 8.70152 0
M  V30 610 O 75.1862 -1.35303 9.21419 0
M  V30 611 O 73.4042 -0.0769065 7.84762 0
M  V30 612 O 73.4412 -2.55232 7.81161 0
M  V30 613 C 73.2812 -3.79939 8.58154 0
M  V30 614 C 73.8212 -4.93969 7.72701 0
M  V30 615 O 72.7662 -5.18726 6.91205 0
M  V30 616 C 75.0392 -4.69597 6.85231 0
M  V30 617 O 75.7772 -5.83832 6.51337 0
M  V30 618 C 74.3712 -3.96706 5.66633 0
M  V30 619 O 75.1692 -4.15346 4.49615 0
M  V30 620 C 73.0332 -4.66153 5.59313 0
M  V30 621 N 71.9902 -3.71582 5.24027 0
M  V30 622 C 72.0522 -2.46018 5.67902 0
M  V30 623 N 71.0072 -1.74868 5.24518 0
M  V30 624 C 70.2732 -2.61333 4.54528 0
M  V30 625 C 68.9672 -2.46162 3.95441 0
M  V30 626 O 68.2342 -1.46013 3.94122 0
M  V30 627 N 68.5372 -3.59334 3.34752 0
M  V30 628 C 69.2862 -4.79605 3.3023 0
M  V30 629 N 68.6892 -5.82109 2.6065 0
M  V30 630 N 70.4392 -4.97402 3.8843 0
M  V30 631 C 70.8962 -3.86258 4.50476 0
M  V30 632 H 73.0652 -5.47679 4.85214 0
M  V30 633 H 74.2482 -2.88964 5.86476 0
M  V30 634 H 75.7332 -4.01947 7.36109 0
M  V30 635 H 74.0382 -5.80182 8.37584 0
M  V30 636 H 73.8482 -3.73517 9.52265 0
M  V30 637 H 72.2172 -3.97163 8.80359 0
M  V30 638 H 67.6412 -3.5825 2.90294 0
M  V30 639 H 72.8482 -2.06161 6.30974 0
M  V30 640 H 67.7782 -5.66979 2.15354 0
M  V30 641 H 69.1542 -6.73686 2.54344 0
M  V30 642 H 74.8582 -4.90891 4.01857 0
M  V30 643 P 76.7148 -5.75688 6.64379 0
M  V30 644 O 78.1368 -6.11849 7.01846 0
M  V30 645 O 76.3548 -4.30744 6.56026 0
M  V30 646 O 76.3918 -6.37042 5.19165 0
M  V30 647 C 76.2318 -7.83578 5.16515 0
M  V30 648 C 76.7718 -8.33398 3.83019 0
M  V30 649 O 75.7158 -8.10074 3.01034 0
M  V30 650 C 77.9898 -7.65514 3.2257 0
M  V30 651 O 78.7278 -8.4329 2.32297 0
M  V30 652 C 77.3208 -6.40075 2.62207 0
M  V30 653 O 78.1198 -5.92589 1.53712 0
M  V30 654 C 75.9838 -6.9454 2.18503 0
M  V30 655 H 76.0158 -7.23063 1.12091 0
M  V30 656 H 77.1988 -5.6025 3.37201 0
M  V30 657 H 78.6828 -7.35707 4.02681 0
M  V30 658 H 76.9888 -9.40912 3.9095 0
M  V30 659 H 76.7988 -8.29056 5.99158 0
M  V30 660 H 75.1688 -8.10073 5.25882 0
M  V30 661 H 77.8078 -6.30324 0.726794 0
M  V30 662 P 79.6654 -8.4349 2.47671 0
M  V30 663 O 81.0874 -8.94167 2.5964 0
M  V30 664 O 79.3054 -7.1704 3.19006 0
M  V30 665 O 79.3424 -8.16596 0.923387 0
M  V30 666 C 79.1824 -9.38437 0.108857 0
M  V30 667 C 79.7224 -9.08175 -1.28353 0
M  V30 668 O 78.6664 -8.44229 -1.84713 0
M  V30 669 C 80.9404 -8.18386 -1.42505 0
M  V30 670 O 81.6784 -8.3501 -2.60497 0
M  V30 671 C 80.2714 -6.80225 -1.25468 0
M  V30 672 O 81.0704 -5.81621 -1.91066 0
M  V30 673 C 78.9344 -7.02416 -1.9168 0
M  V30 674 H 78.9664 -6.6888 -2.96621 0
M  V30 675 H 80.1494 -6.53617 -0.192223 0
M  V30 676 H 81.6334 -8.36622 -0.589963 0
M  V30 677 H 79.9394 -10.0291 -1.79807 0
M  V30 678 H 79.7494 -10.2138 0.558219 0
M  V30 679 H 78.1194 -9.6579 0.0444202 0
M  V30 680 H 80.7584 -5.69556 -2.79637 0
M  V30 681 P 82.616 -8.4349 -2.47671 0
M  V30 682 O 84.038 -8.92593 -2.65 0
M  V30 683 O 82.256 -7.7568 -1.19296 0
M  V30 684 O 82.293 -7.36886 -3.63805 0
M  V30 685 C 82.133 -7.95349 -4.982 0
M  V30 686 C 82.673 -6.94612 -5.98974 0
M  V30 687 O 81.617 -6.10347 -6.11815 0
M  V30 688 C 83.891 -6.11426 -5.62335 0
M  V30 689 O 84.629 -5.6162 -6.70584 0
M  V30 690 C 83.222 -5.04409 -4.73308 0
M  V30 691 O 84.021 -3.85992 -4.75183 0
M  V30 692 C 81.885 -4.8728 -5.41006 0
M  V30 693 H 81.917 -4.02333 -6.11157 0
M  V30 694 H 83.1 -5.39466 -3.69543 0
M  V30 695 H 84.584 -6.71916 -5.01943 0
M  V30 696 H 82.89 -7.4649 -6.93477 0
M  V30 697 H 82.7 -8.89416 -5.05237 0
M  V30 698 H 81.07 -8.14876 -5.18409 0
M  V30 699 H 83.709 -3.27957 -5.4317 0
M  V30 700 P 85.5665 -5.75688 -6.64379 0
M  V30 701 O 86.9885 -6.07627 -7.05504 0
M  V30 702 O 85.2065 -5.88047 -5.19722 0
M  V30 703 O 85.2435 -4.2322 -7.04443 0
M  V30 704 C 85.0835 -3.99743 -8.4911 0
M  V30 705 C 85.6235 -2.60516 -8.79425 0
M  V30 706 O 84.5675 -1.82684 -8.4467 0
M  V30 707 C 86.8415 -2.10343 -8.03628 0
M  V30 708 O 87.5795 -1.09919 -8.67766 0
M  V30 709 C 86.1725 -1.68446 -6.70876 0
M  V30 710 O 86.9715 -0.678137 -6.08433 0
M  V30 711 C 84.8355 -1.17436 -7.18567 0
M  V30 712 H 84.8675 -0.0804732 -7.31656 0
M  V30 713 H 86.0505 -2.54037 -6.02537 0
M  V30 714 H 87.5345 -2.93881 -7.85526 0
M  V30 715 H 85.8405 -2.53065 -9.86973 0
M  V30 716 H 85.6505 -4.75072 -9.05887 0
M  V30 717 H 84.0205 -4.05244 -8.76668 0
M  V30 718 H 86.6595 0.177647 -6.34251 0
M  V30 719 P 88.5171 -1.25109 -8.70152 0
M  V30 720 O 89.9381 -1.29758 -9.22115 0
M  V30 721 O 88.1571 -2.13714 -7.55141 0
M  V30 722 O 88.1941 0.248149 -8.21425 0
M  V30 723 C 88.0331 1.22792 -9.30533 0
M  V30 724 C 88.5741 2.56293 -8.80664 0
M  V30 725 O 87.5191 3.02944 -8.09255 0
M  V30 726 C 89.7921 2.57523 -7.89775 0
M  V30 727 O 90.5301 3.7668 -7.89438 0
M  V30 728 C 89.1241 2.20997 -6.55446 0
M  V30 729 O 89.9221 2.71302 -5.48691 0
M  V30 730 C 87.7861 2.89693 -6.67988 0
M  V30 731 N 86.7431 2.08895 -6.07487 0
M  V30 732 C 86.9121 0.753809 -5.94137 0
M  V30 733 N 85.8851 0.146592 -5.38801 0
M  V30 734 C 85.0001 1.1768 -5.13693 0
M  V30 735 C 83.7331 1.17563 -4.52477 0
M  V30 736 N 83.1341 0.057481 -4.04759 0
M  V30 737 N 83.1681 2.41918 -4.45789 0
M  V30 738 C 83.7701 3.56493 -4.90792 0
M  V30 739 N 84.9471 3.61423 -5.47817 0
M  V30 740 C 85.5221 2.37779 -5.5588 0
M  V30 741 H 87.8181 3.8874 -6.19774 0
M  V30 742 H 89.0011 1.12673 -6.44018 0
M  V30 743 H 90.4841 1.7746 -8.19711 0
M  V30 744 H 88.7901 3.21673 -9.66791 0
M  V30 745 H 88.6001 0.901032 -10.1892 0
M  V30 746 H 86.9701 1.33049 -9.56592 0
M  V30 747 H 83.2341 4.49919 -4.77947 0
M  V30 748 H 87.8121 0.233081 -6.26266 0
M  V30 749 H 82.2041 0.119831 -3.60801 0
M  V30 750 H 83.6081 -0.852272 -4.12385 0
M  V30 751 H 89.6101 3.5779 -5.23879 0
M  V30 752 P 91.4677 3.65191 -7.99657 0
M  V30 753 O 92.8897 3.89332 -8.45794 0
M  V30 754 O 91.1077 2.28472 -7.50807 0
M  V30 755 O 91.1447 4.64972 -6.77611 0
M  V30 756 C 90.9847 6.06319 -7.16352 0
M  V30 757 C 91.5247 6.91731 -6.02299 0
M  V30 758 O 90.4687 6.92449 -5.17064 0
M  V30 759 C 92.7427 6.43627 -5.25174 0
M  V30 760 O 93.4807 7.43686 -4.60469 0
M  V30 761 C 92.0737 5.40275 -4.31916 0
M  V30 762 O 92.8727 5.25279 -3.14438 0
M  V30 763 C 90.7367 6.04847 -4.05327 0
M  V30 764 H 90.7687 6.62195 -3.11261 0
M  V30 765 H 91.9517 4.42556 -4.81383 0
M  V30 766 H 93.4357 5.92458 -5.93643 0
M  V30 767 H 91.7417 7.92655 -6.402 0
M  V30 768 H 91.5517 6.26671 -8.0846 0
M  V30 769 H 89.9217 6.29101 -7.32804 0
M  V30 770 H 92.5607 5.84315 -2.47318 0
M  V30 771 P 94.4182 7.39546 -4.75277 0
M  V30 772 O 95.8402 7.84966 -5.01146 0
M  V30 773 O 94.0582 5.9812 -5.08098 0
M  V30 774 O 94.0952 7.57503 -3.1866 0
M  V30 775 C 93.9352 8.97357 -2.74833 0
M  V30 776 C 94.4752 9.0745 -1.32694 0
M  V30 777 O 93.4202 8.62072 -0.606159 0
M  V30 778 C 95.6932 8.25383 -0.938334 0
M  V30 779 O 96.4312 8.74577 0.146954 0
M  V30 780 C 95.0252 6.8802 -0.712559 0
M  V30 781 O 95.8232 6.11791 0.194623 0
M  V30 782 C 93.6872 7.27966 -0.139777 0
M  V30 783 N 92.6442 6.39368 -0.623421 0
M  V30 784 C 92.7062 5.90299 -1.85969 0
M  V30 785 N 91.6612 5.10919 -2.1133 0
M  V30 786 C 90.9272 5.14646 -1.0015 0
M  V30 787 C 89.6212 4.60057 -0.729219 0
M  V30 788 O 88.8882 3.93476 -1.47746 0
M  V30 789 N 89.1912 4.88302 0.523505 0
M  V30 790 C 89.9402 5.63646 1.46207 0
M  V30 791 N 89.3432 5.78186 2.69239 0
M  V30 792 N 91.0932 6.19285 1.21544 0
M  V30 793 C 91.5502 5.93392 -0.0308487 0
M  V30 794 H 93.7192 7.25354 0.961601 0
M  V30 795 H 94.9022 6.3246 -1.65676 0
M  V30 796 H 96.3872 8.19533 -1.78278 0
M  V30 797 H 94.6922 10.1294 -1.10029 0
M  V30 798 H 94.5022 9.64276 -3.41316 0
M  V30 799 H 92.8712 9.25417 -2.76357 0
M  V30 800 H 88.2952 4.53993 0.806451 0
M  V30 801 H 93.5022 6.11865 -2.57394 0
M  V30 802 H 88.4322 5.34046 2.87467 0
M  V30 803 H 89.8082 6.33391 3.42578 0
M  V30 804 H 95.5122 6.25169 1.0783 0
M  V30 805 P 97.3688 8.791 -6.89233e-14 0
M  V30 806 O 98.7908 9.31096 0.027933 0
M  V30 807 O 97.0088 7.77869 -1.04071 0
M  V30 808 O 97.0458 8.09533 1.41463 0
M  V30 809 C 96.8858 9.0349 2.53943 0
M  V30 810 C 97.4258 8.35226 3.79016 0
M  V30 811 O 96.3698 7.57992 4.15078 0
M  V30 812 C 98.6438 7.45087 3.67298 0
M  V30 813 O 99.3818 7.27796 4.85194 0
M  V30 814 C 97.9748 6.17323 3.12027 0
M  V30 815 O 98.7738 5.04231 3.47188 0
M  V30 816 C 96.6378 6.19961 3.81809 0
M  V30 817 H 96.6698 5.58218 4.73051 0
M  V30 818 H 97.8528 6.21726 2.02589 0
M  V30 819 H 99.3368 7.86112 2.9231 0
M  V30 820 H 97.6428 9.11627 4.55076 0
M  V30 821 H 97.4528 9.9573 2.34194 0
M  V30 822 H 95.8228 9.2792 2.67832 0
M  V30 823 H 98.4618 4.67702 4.28772 0
M  V30 824 P 100.319 7.39546 4.75277 0
M  V30 825 O 101.74 7.81861 5.05793 0
M  V30 826 O 99.9594 7.1065 3.32998 0
M  V30 827 O 99.9964 6.04542 5.56673 0
M  V30 828 C 99.8354 6.22839 7.02169 0
M  V30 829 C 100.376 4.97725 7.70406 0
M  V30 830 O 99.3214 4.13208 7.58899 0
M  V30 831 C 101.594 4.28231 7.11815 0
M  V30 832 O 102.332 3.49945 8.01648 0
M  V30 833 C 100.926 3.5063 5.96244 0
M  V30 834 O 101.724 2.37008 5.64352 0
M  V30 835 C 99.5884 3.15122 6.56374 0
M  V30 836 N 98.5454 3.22311 5.55692 0
M  V30 837 C 98.7144 3.99655 4.46046 0
M  V30 838 N 97.6874 3.97599 3.63918 0
M  V30 839 C 96.8024 3.11159 4.25334 0
M  V30 840 C 95.5354 2.64972 3.85157 0
M  V30 841 N 94.9704 1.78482 4.74759 0
M  V30 842 C 95.5724 1.37463 5.90819 0
M  V30 843 N 96.7494 1.7733 6.31889 0
M  V30 844 C 97.3244 2.64393 5.43725 0
M  V30 845 H 100.803 4.12931 5.06895 0
M  V30 846 H 102.286 5.03285 6.70911 0
M  V30 847 H 100.592 5.20001 8.76217 0
M  V30 848 H 100.402 7.11046 7.35349 0
M  V30 849 H 98.7724 6.35815 7.26986 0
M  V30 850 H 99.6144 4.58037 4.27732 0
M  V30 851 H 101.412 1.61619 6.13468 0
M  V30 852 P 103.27 3.65191 7.99657 0
M  V30 853 O 104.692 3.8425 8.48115 0
M  V30 854 O 102.91 4.17805 6.64342 0
M  V30 855 O 102.947 2.07613 7.95143 0
M  V30 856 C 102.787 1.44328 9.27336 0
M  V30 857 C 103.327 0.0220036 9.17197 0
M  V30 858 O 102.271 -0.626867 8.61923 0
M  V30 859 C 104.545 -0.24586 8.30336 0
M  V30 860 O 105.283 -1.39011 8.63583 0
M  V30 861 C 103.876 -0.273849 6.91158 0
M  V30 862 O 104.675 -1.06348 6.02892 0
M  V30 863 C 102.539 -0.897649 7.22545 0
M  V30 864 H 102.571 -1.9841 7.04286 0
M  V30 865 H 103.754 0.739928 6.497 0
M  V30 866 H 105.238 0.60668 8.36503 0
M  V30 867 H 103.544 -0.352479 10.1829 0
M  V30 868 H 103.354 2.00611 10.0304 0
M  V30 869 H 101.724 1.41843 9.55327 0
M  V30 870 H 104.363 -1.95734 6.03555 0
M  V30 871 P 106.221 -1.25109 8.70152 0
M  V30 872 O 107.643 -1.35274 9.21221 0
M  V30 873 O 105.861 -0.0769065 7.84762 0
M  V30 874 O 105.898 -2.55232 7.81161 0
M  V30 875 C 105.738 -3.79939 8.58154 0
M  V30 876 C 106.278 -4.94023 7.72785 0
M  V30 877 O 105.222 -5.18726 6.91205 0
M  V30 878 C 107.496 -4.69597 6.85231 0
M  V30 879 O 108.234 -5.83832 6.51337 0
M  V30 880 C 106.827 -3.96706 5.66633 0
M  V30 881 O 107.626 -4.15414 4.49689 0
M  V30 882 C 105.49 -4.66153 5.59313 0
M  V30 883 H 105.522 -5.47679 4.85214 0
M  V30 884 H 106.705 -2.89008 5.86566 0
M  V30 885 H 108.189 -4.0121 7.36511 0
M  V30 886 H 106.495 -5.80182 8.37584 0
M  V30 887 H 106.305 -3.73517 9.52265 0
M  V30 888 H 104.675 -3.97163 8.80359 0
M  V30 889 H 107.314 -4.90969 4.01921 0
M  V30 890 P 109.171 -5.75688 6.64379 0
M  V30 891 O 110.592 -6.11915 7.01921 0
M  V30 892 O 108.811 -4.30744 6.56026 0
M  V30 893 O 108.848 -6.37042 5.19165 0
M  V30 894 C 108.687 -7.83662 5.1657 0
M  V30 895 C 109.228 -8.33398 3.83019 0
M  V30 896 O 108.173 -8.0998 3.00999 0
M  V30 897 C 110.446 -7.65514 3.2257 0
M  V30 898 O 111.184 -8.4329 2.32297 0
M  V30 899 C 109.778 -6.40075 2.62207 0
M  V30 900 O 110.576 -5.92338 1.5428 0
M  V30 901 C 108.44 -6.9454 2.18503 0
M  V30 902 N 107.397 -5.95905 2.39948 0
M  V30 903 C 107.566 -4.98383 3.32108 0
M  V30 904 N 106.539 -4.16798 3.41761 0
M  V30 905 C 105.654 -4.65287 2.47461 0
M  V30 906 C 104.387 -4.18946 2.07461 0
M  V30 907 N 103.788 -3.09661 2.60717 0
M  V30 908 N 103.822 -4.95327 1.09101 0
M  V30 909 C 104.424 -6.04369 0.519812 0
M  V30 910 N 105.601 -6.50694 0.855982 0
M  V30 911 C 106.176 -5.75818 1.84322 0
M  V30 912 H 108.472 -7.22964 1.12076 0
M  V30 913 H 109.655 -5.60502 3.36589 0
M  V30 914 H 111.138 -7.35707 4.02681 0
M  V30 915 H 109.444 -9.41302 3.90009 0
M  V30 916 H 109.254 -8.29056 5.99158 0
M  V30 917 H 107.624 -8.10073 5.25882 0
M  V30 918 H 103.888 -6.55843 -0.270373 0
M  V30 919 H 108.466 -4.88564 3.92502 0
M  V30 920 H 102.858 -2.80523 2.27218 0
M  V30 921 H 104.262 -2.55848 3.34465 0
M  V30 922 H 110.264 -6.30224 0.72668 0
M  V30 923 P 112.122 -8.4349 2.47671 0
M  V30 924 O 113.543 -8.94263 2.59668 0
M  V30 925 O 111.762 -7.1704 3.19006 0
M  V30 926 O 111.799 -8.16596 0.923387 0
M  V30 927 C 111.638 -9.38537 0.108869 0
M  V30 928 C 112.179 -9.08175 -1.28353 0
M  V30 929 O 111.124 -8.44131 -1.84692 0
M  V30 930 C 113.397 -8.18386 -1.42505 0
M  V30 931 O 114.135 -8.3501 -2.60497 0
M  V30 932 C 112.729 -6.80225 -1.25468 0
M  V30 933 O 113.527 -5.81716 -1.90454 0
M  V30 934 C 111.391 -7.02416 -1.9168 0
M  V30 935 N 110.348 -6.31033 -1.20314 0
M  V30 936 C 110.517 -5.98817 0.0994088 0
M  V30 937 N 109.49 -5.35403 0.621694 0
M  V30 938 C 108.605 -5.25212 -0.43376 0
M  V30 939 C 107.338 -4.64602 -0.519722 0
M  V30 940 N 106.739 -4.01457 0.519136 0
M  V30 941 N 106.773 -4.7568 -1.76013 0
M  V30 942 C 107.375 -5.3653 -2.83017 0
M  V30 943 N 108.552 -5.93676 -2.79782 0
M  V30 944 C 109.127 -5.84061 -1.56249 0
M  V30 945 H 111.423 -6.68789 -2.9658 0
M  V30 946 H 112.606 -6.53498 -0.198729 0
M  V30 947 H 114.089 -8.36622 -0.589963 0
M  V30 948 H 112.395 -10.0273 -1.8081 0
M  V30 949 H 112.205 -10.2138 0.558219 0
M  V30 950 H 110.575 -9.6579 0.0444202 0
M  V30 951 H 106.839 -5.37113 -3.77321 0
M  V30 952 H 111.417 -6.23209 0.660562 0
M  V30 953 H 105.809 -3.58834 0.394862 0
M  V30 954 H 107.213 -3.96059 1.43048 0
M  V30 955 H 113.215 -5.69466 -2.79593 0
M  V30 956 P 115.072 -8.4349 -2.47671 0
M  V30 957 O 116.494 -8.92593 -2.65 0
M  V30 958 O 114.712 -7.7568 -1.19296 0
M  V30 959 O 114.749 -7.36886 -3.63805 0
M  V30 960 C 114.589 -7.95349 -4.982 0
M  V30 961 C 115.129 -6.94612 -5.98974 0
M  V30 962 O 114.073 -6.10347 -6.11815 0
M  V30 963 C 116.347 -6.11426 -5.62335 0
M  V30 964 O 117.085 -5.6162 -6.70584 0
M  V30 965 C 115.678 -5.04409 -4.73308 0
M  V30 966 O 116.477 -3.85992 -4.75183 0
M  V30 967 C 114.341 -4.8728 -5.41006 0
M  V30 968 H 114.373 -4.02333 -6.11157 0
M  V30 969 H 115.556 -5.39466 -3.69543 0
M  V30 970 H 117.04 -6.71916 -5.01943 0
M  V30 971 H 115.346 -7.4649 -6.93477 0
M  V30 972 H 115.156 -8.89416 -5.05237 0
M  V30 973 H 113.526 -8.14876 -5.18409 0
M  V30 974 H 116.165 -3.27957 -5.4317 0
M  V30 975 P 118.023 -5.75688 -6.64379 0
M  V30 976 O 119.424 -6.14823 -7.06682 0
M  V30 977 O 117.645 -5.93957 -5.20728 0
M  V30 978 O 117.7 -4.23169 -7.04357 0
M  V30 979 C 117.54 -3.99743 -8.4911 0
M  V30 980 C 118.08 -2.60487 -8.79329 0
M  V30 981 O 117.024 -1.82663 -8.44573 0
M  V30 982 C 119.297 -2.10343 -8.03628 0
M  V30 983 O 120.036 -1.09919 -8.67766 0
M  V30 984 C 118.63 -1.68446 -6.70876 0
M  V30 985 O 119.428 -0.678026 -6.08333 0
M  V30 986 C 117.292 -1.17436 -7.18567 0
M  V30 987 N 116.249 -1.52699 -6.23988 0
M  V30 988 C 115.214 -0.643793 -6.05085 0
M  V30 989 O 115.253 0.459118 -6.64315 0
M  V30 990 N 114.202 -0.976931 -5.22038 0
M  V30 991 C 114.25 -2.14429 -4.56662 0
M  V30 992 N 113.24 -2.4542 -3.76231 0
M  V30 993 C 115.346 -3.04203 -4.71481 0
M  V30 994 C 116.312 -2.69669 -5.56838 0
M  V30 995 H 117.324 -0.0804622 -7.31556 0
M  V30 996 H 118.507 -2.53396 -6.02698 0
M  V30 997 H 119.991 -2.9313 -7.85914 0
M  V30 998 H 118.297 -2.52078 -9.87225 0
M  V30 999 H 118.106 -4.75072 -9.05887 0
M  V30 1000 H 116.476 -4.05202 -8.76577 0
M  V30 1001 H 115.394 -3.97309 -4.15519 0
M  V30 1002 H 117.158 -3.36869 -5.72318 0
M  V30 1003 H 112.45 -1.80133 -3.65413 0
M  V30 1004 H 113.245 -3.34359 -3.24736 0
M  V30 1005 H 119.212 0.167718 -6.44882 0
M  V30 1006 P 120.973 -1.25109 -8.70152 0
M  V30 1007 O 122.394 -1.29758 -9.22115 0
M  V30 1008 O 120.613 -2.13714 -7.55141 0
M  V30 1009 O 120.65 0.248149 -8.21425 0
M  V30 1010 C 120.489 1.22792 -9.30533 0
M  V30 1011 C 121.03 2.56293 -8.80664 0
M  V30 1012 O 119.975 3.02944 -8.09255 0
M  V30 1013 C 122.248 2.57523 -7.89775 0
M  V30 1014 O 122.986 3.7668 -7.89438 0
M  V30 1015 C 121.58 2.20997 -6.55446 0
M  V30 1016 O 122.378 2.71302 -5.48691 0
M  V30 1017 C 120.242 2.89693 -6.67988 0
M  V30 1018 N 119.199 2.08895 -6.07487 0
M  V30 1019 C 119.368 0.753809 -5.94137 0
M  V30 1020 N 118.341 0.146592 -5.38801 0
M  V30 1021 C 117.456 1.1768 -5.13693 0
M  V30 1022 C 116.189 1.17563 -4.52477 0
M  V30 1023 N 115.59 0.057481 -4.04759 0
M  V30 1024 N 115.624 2.41918 -4.45789 0
M  V30 1025 C 116.226 3.56493 -4.90792 0
M  V30 1026 N 117.403 3.61423 -5.47817 0
M  V30 1027 C 117.978 2.37779 -5.5588 0
M  V30 1028 H 120.274 3.8874 -6.19774 0
M  V30 1029 H 121.457 1.12673 -6.44018 0
M  V30 1030 H 122.94 1.7746 -8.19711 0
M  V30 1031 H 121.246 3.21673 -9.66791 0
M  V30 1032 H 121.056 0.901032 -10.1892 0
M  V30 1033 H 119.426 1.33049 -9.56592 0
M  V30 1034 H 115.69 4.49919 -4.77947 0
M  V30 1035 H 120.268 0.233081 -6.26266 0
M  V30 1036 H 114.66 0.119831 -3.60801 0
M  V30 1037 H 116.064 -0.852272 -4.12385 0
M  V30 1038 H 122.066 3.5779 -5.23879 0
M  V30 1039 P 123.924 3.65191 -7.99657 0
M  V30 1040 O 125.346 3.89332 -8.45794 0
M  V30 1041 O 123.564 2.28472 -7.50807 0
M  V30 1042 O 123.601 4.64972 -6.77611 0
M  V30 1043 C 123.441 6.06319 -7.16352 0
M  V30 1044 C 123.981 6.91731 -6.02299 0
M  V30 1045 O 122.925 6.92449 -5.17064 0
M  V30 1046 C 125.199 6.43627 -5.25174 0
M  V30 1047 O 125.937 7.43686 -4.60469 0
M  V30 1048 C 124.53 5.40275 -4.31916 0
M  V30 1049 O 125.329 5.25279 -3.14438 0
M  V30 1050 C 123.193 6.04847 -4.05327 0
M  V30 1051 H 123.225 6.62195 -3.11261 0
M  V30 1052 H 124.408 4.42556 -4.81383 0
M  V30 1053 H 125.892 5.92458 -5.93643 0
M  V30 1054 H 124.198 7.92655 -6.402 0
M  V30 1055 H 124.008 6.26671 -8.0846 0
M  V30 1056 H 122.378 6.29101 -7.32804 0
M  V30 1057 H 125.017 5.84315 -2.47318 0
M  V30 1058 P 126.875 7.39546 -4.75277 0
M  V30 1059 O 128.297 7.84798 -5.01039 0
M  V30 1060 O 126.515 5.9812 -5.08098 0
M  V30 1061 O 126.552 7.57503 -3.1866 0
M  V30 1062 C 126.392 8.97357 -2.74833 0
M  V30 1063 C 126.932 9.07548 -1.32709 0
M  V30 1064 O 125.876 8.62072 -0.606159 0
M  V30 1065 C 128.15 8.25383 -0.938334 0
M  V30 1066 O 128.888 8.74577 0.146954 0
M  V30 1067 C 127.481 6.8802 -0.712559 0
M  V30 1068 O 128.28 6.1189 0.194655 0
M  V30 1069 C 126.144 7.27966 -0.139777 0
M  V30 1070 H 126.176 7.25354 0.961601 0
M  V30 1071 H 127.359 6.32557 -1.65702 0
M  V30 1072 H 128.843 8.19355 -1.79097 0
M  V30 1073 H 127.149 10.1294 -1.10029 0
M  V30 1074 H 126.959 9.64276 -3.41316 0
M  V30 1075 H 125.329 9.25417 -2.76357 0
M  V30 1076 H 127.968 6.25267 1.07847 0
M  V30 1077 P 129.825 8.791 -1.02308e-13 0
M  V30 1078 O 131.246 9.31196 0.027936 0
M  V30 1079 O 129.465 7.77869 -1.04071 0
M  V30 1080 O 129.502 8.09533 1.41463 0
M  V30 1081 C 129.341 9.03587 2.5397 0
M  V30 1082 C 129.882 8.35226 3.79016 0
M  V30 1083 O 128.827 7.57904 4.1503 0
M  V30 1084 C 131.1 7.45087 3.67298 0
M  V30 1085 O 131.838 7.27796 4.85194 0
M  V30 1086 C 130.432 6.17323 3.12027 0
M  V30 1087 O 131.23 5.04496 3.46627 0
M  V30 1088 C 129.094 6.19961 3.81809 0
M  V30 1089 N 128.051 5.71575 2.93223 0
M  V30 1090 C 128.22 5.77362 1.59168 0
M  V30 1091 N 127.193 5.3123 0.911893 0
M  V30 1092 C 126.308 4.91717 1.89588 0
M  V30 1093 C 125.041 4.3114 1.8076 0
M  V30 1094 N 124.476 4.06823 3.02898 0
M  V30 1095 C 125.078 4.35062 4.22711 0
M  V30 1096 N 126.255 4.90805 4.35707 0
M  V30 1097 C 126.83 5.16382 3.14469 0
M  V30 1098 H 130.309 6.21428 2.0318 0
M  V30 1099 H 131.792 7.86112 2.9231 0
M  V30 1100 H 130.098 9.11171 4.55987 0
M  V30 1101 H 129.908 9.9573 2.34194 0
M  V30 1102 H 128.278 9.2792 2.67832 0
M  V30 1103 H 129.12 6.16575 1.12198 0
M  V30 1104 H 130.918 4.67628 4.28704 0
M  V30 1105 P 132.776 7.39546 4.75277 0
M  V30 1106 O 134.197 7.81861 5.05793 0
M  V30 1107 O 132.416 7.1065 3.32998 0
M  V30 1108 O 132.453 6.04542 5.56673 0
M  V30 1109 C 132.292 6.22839 7.02169 0
M  V30 1110 C 132.833 4.97725 7.70406 0
M  V30 1111 O 131.778 4.13208 7.58899 0
M  V30 1112 C 134.051 4.28231 7.11815 0
M  V30 1113 O 134.789 3.49945 8.01648 0
M  V30 1114 C 133.383 3.5063 5.96244 0
M  V30 1115 O 134.181 2.37008 5.64352 0
M  V30 1116 C 132.045 3.15122 6.56374 0
M  V30 1117 N 131.002 3.22311 5.55692 0
M  V30 1118 C 131.171 3.99655 4.46046 0
M  V30 1119 N 130.144 3.97599 3.63918 0
M  V30 1120 C 129.259 3.11159 4.25334 0
M  V30 1121 C 127.992 2.64972 3.85157 0
M  V30 1122 N 127.393 3.02132 2.69405 0
M  V30 1123 N 127.427 1.78482 4.74759 0
M  V30 1124 C 128.029 1.37463 5.90819 0
M  V30 1125 N 129.206 1.7733 6.31889 0
M  V30 1126 C 129.781 2.64393 5.43725 0
M  V30 1127 H 132.077 2.13823 6.99656 0
M  V30 1128 H 133.26 4.12931 5.06895 0
M  V30 1129 H 134.743 5.03285 6.70911 0
M  V30 1130 H 133.049 5.20001 8.76217 0
M  V30 1131 H 132.859 7.11046 7.35349 0
M  V30 1132 H 131.229 6.35815 7.26986 0
M  V30 1133 H 127.493 0.66574 6.53015 0
M  V30 1134 H 132.071 4.58037 4.27732 0
M  V30 1135 H 126.463 2.64828 2.45331 0
M  V30 1136 H 127.867 3.67472 2.05644 0
M  V30 1137 H 133.869 1.61619 6.13468 0
M  V30 1138 P 135.726 3.65191 7.99657 0
M  V30 1139 O 137.148 3.8425 8.48115 0
M  V30 1140 O 135.366 4.17805 6.64342 0
M  V30 1141 O 135.403 2.07613 7.95143 0
M  V30 1142 C 135.243 1.44328 9.27336 0
M  V30 1143 C 135.783 0.0220036 9.17197 0
M  V30 1144 O 134.727 -0.626867 8.61923 0
M  V30 1145 C 137.001 -0.24586 8.30336 0
M  V30 1146 O 137.739 -1.39011 8.63583 0
M  V30 1147 C 136.332 -0.273849 6.91158 0
M  V30 1148 O 137.131 -1.06348 6.02892 0
M  V30 1149 C 134.995 -0.897649 7.22545 0
M  V30 1150 H 135.027 -1.9841 7.04286 0
M  V30 1151 H 136.21 0.739928 6.497 0
M  V30 1152 H 137.694 0.60668 8.36503 0
M  V30 1153 H 136 -0.352479 10.1829 0
M  V30 1154 H 135.81 2.00611 10.0304 0
M  V30 1155 H 134.18 1.41843 9.55327 0
M  V30 1156 H 136.819 -1.95734 6.03555 0
M  V30 1157 P 138.677 -1.25109 8.70152 0
M  V30 1158 O 140.099 -1.35303 9.21419 0
M  V30 1159 O 138.317 -0.0769065 7.84762 0
M  V30 1160 O 138.354 -2.55232 7.81161 0
M  V30 1161 C 138.194 -3.79939 8.58154 0
M  V30 1162 C 138.734 -4.93969 7.72701 0
M  V30 1163 O 137.679 -5.18726 6.91205 0
M  V30 1164 C 139.952 -4.69597 6.85231 0
M  V30 1165 O 140.69 -5.83832 6.51337 0
M  V30 1166 C 139.284 -3.96706 5.66633 0
M  V30 1167 O 140.082 -4.15346 4.49615 0
M  V30 1168 C 137.946 -4.66153 5.59313 0
M  V30 1169 N 136.903 -3.71582 5.24027 0
M  V30 1170 C 136.965 -2.46018 5.67902 0
M  V30 1171 N 135.92 -1.74868 5.24518 0
M  V30 1172 C 135.186 -2.61333 4.54528 0
M  V30 1173 C 133.88 -2.46162 3.95441 0
M  V30 1174 O 133.147 -1.46013 3.94122 0
M  V30 1175 N 133.45 -3.59334 3.34752 0
M  V30 1176 C 134.199 -4.79605 3.3023 0
M  V30 1177 N 133.602 -5.82109 2.6065 0
M  V30 1178 N 135.352 -4.97402 3.8843 0
M  V30 1179 C 135.809 -3.86258 4.50476 0
M  V30 1180 H 137.978 -5.47679 4.85214 0
M  V30 1181 H 139.161 -2.88964 5.86476 0
M  V30 1182 H 140.646 -4.01947 7.36109 0
M  V30 1183 H 138.951 -5.80182 8.37584 0
M  V30 1184 H 138.761 -3.73517 9.52265 0
M  V30 1185 H 137.13 -3.97163 8.80359 0
M  V30 1186 H 132.554 -3.5825 2.90294 0
M  V30 1187 H 137.761 -2.06161 6.30974 0
M  V30 1188 H 132.691 -5.66979 2.15354 0
M  V30 1189 H 134.067 -6.73686 2.54344 0
M  V30 1190 H 139.771 -4.90891 4.01857 0
M  V30 1191 P 141.627 -5.75688 6.64379 0
M  V30 1192 O 143.049 -6.11849 7.01846 0
M  V30 1193 O 141.267 -4.30744 6.56026 0
M  V30 1194 O 141.304 -6.37042 5.19165 0
M  V30 1195 C 141.144 -7.83578 5.16515 0
M  V30 1196 C 141.684 -8.33398 3.83019 0
M  V30 1197 O 140.628 -8.10074 3.01034 0
M  V30 1198 C 142.902 -7.65514 3.2257 0
M  V30 1199 O 143.64 -8.4329 2.32297 0
M  V30 1200 C 142.233 -6.40075 2.62207 0
M  V30 1201 O 143.032 -5.92589 1.53712 0
M  V30 1202 C 140.896 -6.9454 2.18503 0
M  V30 1203 H 140.928 -7.23063 1.12091 0
M  V30 1204 H 142.111 -5.6025 3.37201 0
M  V30 1205 H 143.595 -7.35707 4.02681 0
M  V30 1206 H 141.901 -9.40912 3.9095 0
M  V30 1207 H 141.711 -8.29056 5.99158 0
M  V30 1208 H 140.081 -8.10073 5.25882 0
M  V30 1209 H 142.72 -6.30324 0.726794 0
M  V30 1210 P 144.578 -8.4349 2.47671 0
M  V30 1211 O 146 -8.94167 2.5964 0
M  V30 1212 O 144.218 -7.1704 3.19006 0
M  V30 1213 O 144.255 -8.16596 0.923387 0
M  V30 1214 C 144.095 -9.38437 0.108857 0
M  V30 1215 C 144.635 -9.08175 -1.28353 0
M  V30 1216 O 143.579 -8.44229 -1.84713 0
M  V30 1217 C 145.853 -8.18386 -1.42505 0
M  V30 1218 O 146.591 -8.3501 -2.60497 0
M  V30 1219 C 145.184 -6.80225 -1.25468 0
M  V30 1220 O 145.983 -5.81621 -1.91066 0
M  V30 1221 C 143.847 -7.02416 -1.9168 0
M  V30 1222 H 143.879 -6.6888 -2.96621 0
M  V30 1223 H 145.062 -6.53617 -0.192223 0
M  V30 1224 H 146.546 -8.36622 -0.589963 0
M  V30 1225 H 144.852 -10.0291 -1.79807 0
M  V30 1226 H 144.662 -10.2138 0.558219 0
M  V30 1227 H 143.032 -9.6579 0.0444202 0
M  V30 1228 H 145.671 -5.69556 -2.79637 0
M  V30 1229 P 147.528 -8.4349 -2.47671 0
M  V30 1230 O 148.95 -8.92593 -2.65 0
M  V30 1231 O 147.168 -7.7568 -1.19296 0
M  V30 1232 O 147.205 -7.36886 -3.63805 0
M  V30 1233 C 147.045 -7.95349 -4.982 0
M  V30 1234 C 147.585 -6.94612 -5.98974 0
M  V30 1235 O 146.529 -6.10347 -6.11815 0
M  V30 1236 C 148.803 -6.11426 -5.62335 0
M  V30 1237 O 149.541 -5.6162 -6.70584 0
M  V30 1238 C 148.134 -5.04409 -4.73308 0
M  V30 1239 O 148.933 -3.85992 -4.75183 0
M  V30 1240 C 146.797 -4.8728 -5.41006 0
M  V30 1241 H 146.829 -4.02333 -6.11157 0
M  V30 1242 H 148.012 -5.39466 -3.69543 0
M  V30 1243 H 149.496 -6.71916 -5.01943 0
M  V30 1244 H 147.802 -7.4649 -6.93477 0
M  V30 1245 H 147.612 -8.89416 -5.05237 0
M  V30 1246 H 145.982 -8.14876 -5.18409 0
M  V30 1247 H 148.621 -3.27957 -5.4317 0
M  V30 1248 P 150.479 -5.75688 -6.64379 0
M  V30 1249 O 151.901 -6.07627 -7.05504 0
M  V30 1250 O 150.119 -5.88047 -5.19722 0
M  V30 1251 O 150.156 -4.2322 -7.04443 0
M  V30 1252 C 149.996 -3.99743 -8.4911 0
M  V30 1253 C 150.536 -2.60516 -8.79425 0
M  V30 1254 O 149.48 -1.82684 -8.4467 0
M  V30 1255 C 151.754 -2.10343 -8.03628 0
M  V30 1256 O 152.492 -1.09919 -8.67766 0
M  V30 1257 C 151.085 -1.68446 -6.70876 0
M  V30 1258 O 151.884 -0.678137 -6.08433 0
M  V30 1259 C 149.748 -1.17436 -7.18567 0
M  V30 1260 H 149.78 -0.0804732 -7.31656 0
M  V30 1261 H 150.963 -2.54037 -6.02537 0
M  V30 1262 H 152.447 -2.93881 -7.85526 0
M  V30 1263 H 150.753 -2.53065 -9.86973 0
M  V30 1264 H 150.563 -4.75072 -9.05887 0
M  V30 1265 H 148.933 -4.05244 -8.76668 0
M  V30 1266 H 151.572 0.177647 -6.34251 0
M  V30 1267 P 153.43 -1.25109 -8.70152 0
M  V30 1268 O 154.852 -1.29744 -9.22016 0
M  V30 1269 O 153.07 -2.13714 -7.55141 0
M  V30 1270 O 153.107 0.248149 -8.21425 0
M  V30 1271 C 152.947 1.22779 -9.30434 0
M  V30 1272 C 153.487 2.56293 -8.80664 0
M  V30 1273 O 152.431 3.02979 -8.09349 0
M  V30 1274 C 154.705 2.57523 -7.89775 0
M  V30 1275 O 155.443 3.7668 -7.89438 0
M  V30 1276 C 154.036 2.20997 -6.55446 0
M  V30 1277 O 154.835 2.71895 -5.48509 0
M  V30 1278 C 152.699 2.89693 -6.67988 0
M  V30 1279 H 152.731 3.88793 -6.19859 0
M  V30 1280 H 153.914 1.12046 -6.44229 0
M  V30 1281 H 155.398 1.7746 -8.19711 0
M  V30 1282 H 153.704 3.20706 -9.67112 0
M  V30 1283 H 153.514 0.901032 -10.1892 0
M  V30 1284 H 151.884 1.33049 -9.56592 0
M  V30 1285 H 154.523 3.57847 -5.23962 0
M  V30 1286 P 156.38 3.65191 -7.99657 0
M  V30 1287 O 157.802 3.89332 -8.45794 0
M  V30 1288 O 156.02 2.28472 -7.50807 0
M  V30 1289 O 156.057 4.64972 -6.77611 0
M  V30 1290 C 155.897 6.06319 -7.16352 0
M  V30 1291 C 156.437 6.91731 -6.02299 0
M  V30 1292 O 155.381 6.92449 -5.17064 0
M  V30 1293 C 157.655 6.43627 -5.25174 0
M  V30 1294 O 158.393 7.43686 -4.60469 0
M  V30 1295 C 156.986 5.40275 -4.31916 0
M  V30 1296 O 157.785 5.25279 -3.14438 0
M  V30 1297 C 155.649 6.04847 -4.05327 0
M  V30 1298 H 155.681 6.62195 -3.11261 0
M  V30 1299 H 156.864 4.42556 -4.81383 0
M  V30 1300 H 158.348 5.92458 -5.93643 0
M  V30 1301 H 156.654 7.92655 -6.402 0
M  V30 1302 H 156.464 6.26671 -8.0846 0
M  V30 1303 H 154.834 6.29101 -7.32804 0
M  V30 1304 H 157.473 5.84315 -2.47318 0
M  V30 1305 P 159.331 7.39546 -4.75277 0
M  V30 1306 O 160.753 7.84966 -5.01146 0
M  V30 1307 O 158.971 5.9812 -5.08098 0
M  V30 1308 O 159.008 7.57503 -3.1866 0
M  V30 1309 C 158.848 8.97357 -2.74833 0
M  V30 1310 C 159.388 9.0745 -1.32694 0
M  V30 1311 O 158.333 8.62072 -0.606159 0
M  V30 1312 C 160.606 8.25383 -0.938334 0
M  V30 1313 O 161.344 8.74577 0.146954 0
M  V30 1314 C 159.938 6.8802 -0.712559 0
M  V30 1315 O 160.736 6.11791 0.194623 0
M  V30 1316 C 158.6 7.27966 -0.139777 0
M  V30 1317 N 157.557 6.39368 -0.623421 0
M  V30 1318 C 157.619 5.90299 -1.85969 0
M  V30 1319 N 156.574 5.10919 -2.1133 0
M  V30 1320 C 155.84 5.14646 -1.0015 0
M  V30 1321 C 154.534 4.60057 -0.729219 0
M  V30 1322 O 153.801 3.93476 -1.47746 0
M  V30 1323 N 154.104 4.88302 0.523505 0
M  V30 1324 C 154.853 5.63646 1.46207 0
M  V30 1325 N 154.256 5.78186 2.69239 0
M  V30 1326 N 156.006 6.19285 1.21544 0
M  V30 1327 C 156.463 5.93392 -0.0308487 0
M  V30 1328 H 158.632 7.25354 0.961601 0
M  V30 1329 H 159.815 6.3246 -1.65676 0
M  V30 1330 H 161.3 8.19533 -1.78278 0
M  V30 1331 H 159.605 10.1294 -1.10029 0
M  V30 1332 H 159.415 9.64276 -3.41316 0
M  V30 1333 H 157.784 9.25417 -2.76357 0
M  V30 1334 H 153.208 4.53993 0.806451 0
M  V30 1335 H 158.415 6.11865 -2.57394 0
M  V30 1336 H 153.345 5.34046 2.87467 0
M  V30 1337 H 154.721 6.33391 3.42578 0
M  V30 1338 H 160.425 6.25169 1.0783 0
M  V30 1339 P 162.281 8.791 -1.35693e-13 0
M  V30 1340 O 163.703 9.31096 0.027933 0
M  V30 1341 O 161.921 7.77869 -1.04071 0
M  V30 1342 O 161.958 8.09533 1.41463 0
M  V30 1343 C 161.798 9.0349 2.53943 0
M  V30 1344 C 162.338 8.35226 3.79016 0
M  V30 1345 O 161.282 7.57992 4.15078 0
M  V30 1346 C 163.556 7.45087 3.67298 0
M  V30 1347 O 164.294 7.27796 4.85194 0
M  V30 1348 C 162.887 6.17323 3.12027 0
M  V30 1349 O 163.686 5.04231 3.47188 0
M  V30 1350 C 161.55 6.19961 3.81809 0
M  V30 1351 H 161.582 5.58218 4.73051 0
M  V30 1352 H 162.765 6.21726 2.02589 0
M  V30 1353 H 164.249 7.86112 2.9231 0
M  V30 1354 H 162.555 9.11627 4.55076 0
M  V30 1355 H 162.365 9.9573 2.34194 0
M  V30 1356 H 160.735 9.2792 2.67832 0
M  V30 1357 H 163.374 4.67702 4.28772 0
M  V30 1358 P 165.232 7.39546 4.75277 0
M  V30 1359 O 166.654 7.81777 5.05738 0
M  V30 1360 O 164.872 7.1065 3.32998 0
M  V30 1361 O 164.909 6.04542 5.56673 0
M  V30 1362 C 164.749 6.22772 7.02095 0
M  V30 1363 C 165.289 4.97725 7.70406 0
M  V30 1364 O 164.233 4.13256 7.58987 0
M  V30 1365 C 166.507 4.28231 7.11815 0
M  V30 1366 O 167.245 3.49945 8.01648 0
M  V30 1367 C 165.838 3.5063 5.96244 0
M  V30 1368 O 166.637 2.36482 5.64681 0
M  V30 1369 C 164.501 3.15122 6.56374 0
M  V30 1370 H 164.533 2.13853 6.99751 0
M  V30 1371 H 165.716 4.13501 5.06559 0
M  V30 1372 H 167.2 5.03285 6.70911 0
M  V30 1373 H 165.506 5.20877 8.75697 0
M  V30 1374 H 165.316 7.11046 7.35349 0
M  V30 1375 H 163.686 6.35815 7.26986 0
M  V30 1376 H 166.325 1.61644 6.13565 0
M  V30 1377 P 168.182 3.65191 7.99657 0
M  V30 1378 O 169.583 3.90823 8.51272 0
M  V30 1379 O 167.804 4.23191 6.66972 0
M  V30 1380 O 167.859 2.07587 7.95046 0
M  V30 1381 C 167.699 1.44328 9.27336 0
M  V30 1382 C 168.239 0.0220012 9.17097 0
M  V30 1383 O 167.183 -0.626794 8.61824 0
M  V30 1384 C 169.456 -0.24586 8.30336 0
M  V30 1385 O 170.195 -1.39011 8.63583 0
M  V30 1386 C 168.789 -0.273849 6.91158 0
M  V30 1387 O 169.587 -1.06331 6.02794 0
M  V30 1388 C 167.451 -0.897649 7.22545 0
M  V30 1389 N 166.408 -0.292839 6.41732 0
M  V30 1390 C 165.373 -1.08701 5.98712 0
M  V30 1391 O 165.412 -2.31211 6.24471 0
M  V30 1392 N 164.361 -0.533391 5.28415 0
M  V30 1393 C 164.409 0.770866 4.98576 0
M  V30 1394 C 165.505 1.59049 5.38086 0
M  V30 1395 C 166.471 1.01866 6.10256 0
M  V30 1396 H 167.483 -1.98383 7.04189 0
M  V30 1397 H 168.666 0.733318 6.49674 0
M  V30 1398 H 170.15 0.598386 8.36663 0
M  V30 1399 H 168.456 -0.362662 10.1825 0
M  V30 1400 H 168.265 2.00611 10.0304 0
M  V30 1401 H 166.635 1.41828 9.55228 0
M  V30 1402 H 165.553 2.6415 5.10622 0
M  V30 1403 H 167.317 1.61983 6.44042 0
M  V30 1404 H 169.371 -1.97777 6.14035 0
M  V30 1405 P 171.133 -1.25109 8.70152 0
M  V30 1406 O 172.555 -1.35274 9.21221 0
M  V30 1407 O 170.773 -0.0769065 7.84762 0
M  V30 1408 O 170.81 -2.55232 7.81161 0
M  V30 1409 C 170.65 -3.79939 8.58154 0
M  V30 1410 C 171.19 -4.94023 7.72785 0
M  V30 1411 O 170.134 -5.18726 6.91205 0
M  V30 1412 C 172.408 -4.69597 6.85231 0
M  V30 1413 O 173.146 -5.83832 6.51337 0
M  V30 1414 C 171.739 -3.96706 5.66633 0
M  V30 1415 O 172.538 -4.15414 4.49689 0
M  V30 1416 C 170.402 -4.66153 5.59313 0
M  V30 1417 H 170.434 -5.47679 4.85214 0
M  V30 1418 H 171.617 -2.89008 5.86566 0
M  V30 1419 H 173.101 -4.0121 7.36511 0
M  V30 1420 H 171.407 -5.80182 8.37584 0
M  V30 1421 H 171.217 -3.73517 9.52265 0
M  V30 1422 H 169.587 -3.97163 8.80359 0
M  V30 1423 H 172.226 -4.90969 4.01921 0
M  V30 1424 P 174.084 -5.75688 6.64379 0
M  V30 1425 O 175.506 -6.11849 7.01846 0
M  V30 1426 O 173.724 -4.30744 6.56026 0
M  V30 1427 O 173.761 -6.37042 5.19165 0
M  V30 1428 C 173.601 -7.83578 5.16515 0
M  V30 1429 C 174.141 -8.33398 3.83019 0
M  V30 1430 O 173.085 -8.10074 3.01034 0
M  V30 1431 C 175.359 -7.65514 3.2257 0
M  V30 1432 O 176.097 -8.4329 2.32297 0
M  V30 1433 C 174.69 -6.40075 2.62207 0
M  V30 1434 O 175.489 -5.92589 1.53712 0
M  V30 1435 C 173.353 -6.9454 2.18503 0
M  V30 1436 H 173.385 -7.23063 1.12091 0
M  V30 1437 H 174.568 -5.6025 3.37201 0
M  V30 1438 H 176.052 -7.35707 4.02681 0
M  V30 1439 H 174.358 -9.40912 3.9095 0
M  V30 1440 H 174.168 -8.29056 5.99158 0
M  V30 1441 H 172.538 -8.10073 5.25882 0
M  V30 1442 H 175.177 -6.30324 0.726794 0
M  V30 1443 P 177.034 -8.4349 2.47671 0
M  V30 1444 O 178.456 -8.94167 2.5964 0
M  V30 1445 O 176.674 -7.1704 3.19006 0
M  V30 1446 O 176.711 -8.16596 0.923387 0
M  V30 1447 C 176.551 -9.38437 0.108857 0
M  V30 1448 C 177.091 -9.08175 -1.28353 0
M  V30 1449 O 176.035 -8.44229 -1.84713 0
M  V30 1450 C 178.309 -8.18386 -1.42505 0
M  V30 1451 O 179.047 -8.3501 -2.60497 0
M  V30 1452 C 177.64 -6.80225 -1.25468 0
M  V30 1453 O 178.439 -5.81621 -1.91066 0
M  V30 1454 C 176.303 -7.02416 -1.9168 0
M  V30 1455 H 176.335 -6.6888 -2.96621 0
M  V30 1456 H 177.518 -6.53617 -0.192223 0
M  V30 1457 H 179.002 -8.36622 -0.589963 0
M  V30 1458 H 177.308 -10.0291 -1.79807 0
M  V30 1459 H 177.118 -10.2138 0.558219 0
M  V30 1460 H 175.488 -9.6579 0.0444202 0
M  V30 1461 H 178.127 -5.69556 -2.79637 0
M  V30 1462 P 179.985 -8.4349 -2.47671 0
M  V30 1463 O 181.407 -8.92593 -2.65 0
M  V30 1464 O 179.625 -7.7568 -1.19296 0
M  V30 1465 O 179.662 -7.36886 -3.63805 0
M  V30 1466 C 179.502 -7.95349 -4.982 0
M  V30 1467 C 180.042 -6.94612 -5.98974 0
M  V30 1468 O 178.986 -6.10347 -6.11815 0
M  V30 1469 C 181.26 -6.11426 -5.62335 0
M  V30 1470 O 181.998 -5.6162 -6.70584 0
M  V30 1471 C 180.591 -5.04409 -4.73308 0
M  V30 1472 O 181.39 -3.85992 -4.75183 0
M  V30 1473 C 179.254 -4.8728 -5.41006 0
M  V30 1474 H 179.286 -4.02333 -6.11157 0
M  V30 1475 H 180.469 -5.39466 -3.69543 0
M  V30 1476 H 181.953 -6.71916 -5.01943 0
M  V30 1477 H 180.259 -7.4649 -6.93477 0
M  V30 1478 H 180.069 -8.89416 -5.05237 0
M  V30 1479 H 178.439 -8.14876 -5.18409 0
M  V30 1480 H 181.078 -3.27957 -5.4317 0
M  V30 1481 P 182.935 -5.75688 -6.64379 0
M  V30 1482 O 184.357 -6.07627 -7.05504 0
M  V30 1483 O 182.575 -5.88047 -5.19722 0
M  V30 1484 O 182.612 -4.2322 -7.04443 0
M  V30 1485 C 182.452 -3.99743 -8.4911 0
M  V30 1486 C 182.992 -2.60516 -8.79425 0
M  V30 1487 O 181.936 -1.82684 -8.4467 0
M  V30 1488 C 184.21 -2.10343 -8.03628 0
M  V30 1489 O 184.948 -1.09919 -8.67766 0
M  V30 1490 C 183.541 -1.68446 -6.70876 0
M  V30 1491 O 184.34 -0.678137 -6.08433 0
M  V30 1492 C 182.204 -1.17436 -7.18567 0
M  V30 1493 H 182.236 -0.0804732 -7.31656 0
M  V30 1494 H 183.419 -2.54037 -6.02537 0
M  V30 1495 H 184.903 -2.93881 -7.85526 0
M  V30 1496 H 183.209 -2.53065 -9.86973 0
M  V30 1497 H 183.019 -4.75072 -9.05887 0
M  V30 1498 H 181.389 -4.05244 -8.76668 0
M  V30 1499 H 184.028 0.177647 -6.34251 0
M  V30 1500 P 185.886 -1.25109 -8.70152 0
M  V30 1501 O 187.308 -1.29744 -9.22016 0
M  V30 1502 O 185.526 -2.13714 -7.55141 0
M  V30 1503 O 185.563 0.248149 -8.21425 0
M  V30 1504 C 185.403 1.22779 -9.30434 0
M  V30 1505 C 185.943 2.56293 -8.80664 0
M  V30 1506 O 184.887 3.02979 -8.09349 0
M  V30 1507 C 187.161 2.57523 -7.89775 0
M  V30 1508 O 187.899 3.7668 -7.89438 0
M  V30 1509 C 186.492 2.20997 -6.55446 0
M  V30 1510 O 187.291 2.71895 -5.48509 0
M  V30 1511 C 185.155 2.89693 -6.67988 0
M  V30 1512 H 185.187 3.88793 -6.19859 0
M  V30 1513 H 186.37 1.12046 -6.44229 0
M  V30 1514 H 187.854 1.7746 -8.19711 0
M  V30 1515 H 186.16 3.20706 -9.67112 0
M  V30 1516 H 185.97 0.901032 -10.1892 0
M  V30 1517 H 184.34 1.33049 -9.56592 0
M  V30 1518 H 186.979 3.57847 -5.23962 0
M  V30 1519 P 188.836 3.65191 -7.99657 0
M  V30 1520 O 190.258 3.89332 -8.45794 0
M  V30 1521 O 188.476 2.28472 -7.50807 0
M  V30 1522 O 188.513 4.64972 -6.77611 0
M  V30 1523 C 188.353 6.06319 -7.16352 0
M  V30 1524 C 188.893 6.91731 -6.02299 0
M  V30 1525 O 187.837 6.92449 -5.17064 0
M  V30 1526 C 190.111 6.43627 -5.25174 0
M  V30 1527 O 190.849 7.43686 -4.60469 0
M  V30 1528 C 189.442 5.40275 -4.31916 0
M  V30 1529 O 190.241 5.25279 -3.14438 0
M  V30 1530 C 188.105 6.04847 -4.05327 0
M  V30 1531 H 188.137 6.62195 -3.11261 0
M  V30 1532 H 189.32 4.42556 -4.81383 0
M  V30 1533 H 190.804 5.92458 -5.93643 0
M  V30 1534 H 189.11 7.92655 -6.402 0
M  V30 1535 H 188.92 6.26671 -8.0846 0
M  V30 1536 H 187.29 6.29101 -7.32804 0
M  V30 1537 H 189.929 5.84315 -2.47318 0
M  V30 1538 P 191.787 7.39546 -4.75277 0
M  V30 1539 O 193.209 7.84798 -5.01039 0
M  V30 1540 O 191.427 5.9812 -5.08098 0
M  V30 1541 O 191.464 7.57503 -3.1866 0
M  V30 1542 C 191.304 8.97357 -2.74833 0
M  V30 1543 C 191.844 9.07548 -1.32709 0
M  V30 1544 O 190.788 8.62072 -0.606159 0
M  V30 1545 C 193.062 8.25383 -0.938334 0
M  V30 1546 O 193.8 8.74577 0.146954 0
M  V30 1547 C 192.393 6.8802 -0.712559 0
M  V30 1548 O 193.192 6.1189 0.194655 0
M  V30 1549 C 191.056 7.27966 -0.139777 0
M  V30 1550 H 191.088 7.25354 0.961601 0
M  V30 1551 H 192.271 6.32557 -1.65702 0
M  V30 1552 H 193.755 8.19355 -1.79097 0
M  V30 1553 H 192.061 10.1294 -1.10029 0
M  V30 1554 H 191.871 9.64276 -3.41316 0
M  V30 1555 H 190.241 9.25417 -2.76357 0
M  V30 1556 H 192.88 6.25267 1.07847 0
M  V30 1557 P 194.738 8.791 1.12009e-13 0
M  V30 1558 O 196.16 9.31096 0.027933 0
M  V30 1559 O 194.378 7.77869 -1.04071 0
M  V30 1560 O 194.415 8.09533 1.41463 0
M  V30 1561 C 194.255 9.0349 2.53943 0
M  V30 1562 C 194.795 8.35226 3.79016 0
M  V30 1563 O 193.739 7.57992 4.15078 0
M  V30 1564 C 196.013 7.45087 3.67298 0
M  V30 1565 O 196.751 7.27796 4.85194 0
M  V30 1566 C 195.344 6.17323 3.12027 0
M  V30 1567 O 196.143 5.04231 3.47188 0
M  V30 1568 C 194.007 6.19961 3.81809 0
M  V30 1569 H 194.039 5.58218 4.73051 0
M  V30 1570 H 195.222 6.21726 2.02589 0
M  V30 1571 H 196.706 7.86112 2.9231 0
M  V30 1572 H 195.012 9.11627 4.55076 0
M  V30 1573 H 194.822 9.9573 2.34194 0
M  V30 1574 H 193.192 9.2792 2.67832 0
M  V30 1575 H 195.831 4.67702 4.28772 0
M  V30 1576 P 197.688 7.39546 4.75277 0
M  V30 1577 O 199.109 7.81861 5.05793 0
M  V30 1578 O 197.328 7.1065 3.32998 0
M  V30 1579 O 197.365 6.04542 5.56673 0
M  V30 1580 C 197.204 6.22839 7.02169 0
M  V30 1581 C 197.745 4.97725 7.70406 0
M  V30 1582 O 196.69 4.13208 7.58899 0
M  V30 1583 C 198.963 4.28231 7.11815 0
M  V30 1584 O 199.701 3.49945 8.01648 0
M  V30 1585 C 198.295 3.5063 5.96244 0
M  V30 1586 O 199.093 2.37008 5.64352 0
M  V30 1587 C 196.957 3.15122 6.56374 0
M  V30 1588 N 195.914 3.22311 5.55692 0
M  V30 1589 C 196.083 3.99655 4.46046 0
M  V30 1590 N 195.056 3.97599 3.63918 0
M  V30 1591 C 194.171 3.11159 4.25334 0
M  V30 1592 C 192.904 2.64972 3.85157 0
M  V30 1593 N 192.339 1.78482 4.74759 0
M  V30 1594 C 192.941 1.37463 5.90819 0
M  V30 1595 N 194.118 1.7733 6.31889 0
M  V30 1596 C 194.693 2.64393 5.43725 0
M  V30 1597 H 198.172 4.12931 5.06895 0
M  V30 1598 H 199.655 5.03285 6.70911 0
M  V30 1599 H 197.961 5.20001 8.76217 0
M  V30 1600 H 197.771 7.11046 7.35349 0
M  V30 1601 H 196.141 6.35815 7.26986 0
M  V30 1602 H 196.983 4.58037 4.27732 0
M  V30 1603 H 198.781 1.61619 6.13468 0
M  V30 1604 P 200.639 3.65191 7.99657 0
M  V30 1605 O 202.061 3.8425 8.48115 0
M  V30 1606 O 200.279 4.17805 6.64342 0
M  V30 1607 O 200.316 2.07613 7.95143 0
M  V30 1608 C 200.156 1.44328 9.27336 0
M  V30 1609 C 200.696 0.0220036 9.17197 0
M  V30 1610 O 199.64 -0.626867 8.61923 0
M  V30 1611 C 201.914 -0.24586 8.30336 0
M  V30 1612 O 202.652 -1.39011 8.63583 0
M  V30 1613 C 201.245 -0.273849 6.91158 0
M  V30 1614 O 202.044 -1.06348 6.02892 0
M  V30 1615 C 199.908 -0.897649 7.22545 0
M  V30 1616 H 199.94 -1.9841 7.04286 0
M  V30 1617 H 201.123 0.739928 6.497 0
M  V30 1618 H 202.607 0.60668 8.36503 0
M  V30 1619 H 200.913 -0.352479 10.1829 0
M  V30 1620 H 200.723 2.00611 10.0304 0
M  V30 1621 H 199.093 1.41843 9.55327 0
M  V30 1622 H 201.732 -1.95734 6.03555 0
M  V30 1623 P 203.589 -1.25109 8.70152 0
M  V30 1624 O 205.011 -1.35274 9.21221 0
M  V30 1625 O 203.229 -0.0769065 7.84762 0
M  V30 1626 O 203.266 -2.55232 7.81161 0
M  V30 1627 C 203.106 -3.79939 8.58154 0
M  V30 1628 C 203.646 -4.94023 7.72785 0
M  V30 1629 O 202.59 -5.18726 6.91205 0
M  V30 1630 C 204.864 -4.69597 6.85231 0
M  V30 1631 O 205.602 -5.83832 6.51337 0
M  V30 1632 C 204.195 -3.96706 5.66633 0
M  V30 1633 O 204.994 -4.15414 4.49689 0
M  V30 1634 C 202.858 -4.66153 5.59313 0
M  V30 1635 H 202.89 -5.47679 4.85214 0
M  V30 1636 H 204.073 -2.89008 5.86566 0
M  V30 1637 H 205.557 -4.0121 7.36511 0
M  V30 1638 H 203.863 -5.80182 8.37584 0
M  V30 1639 H 203.673 -3.73517 9.52265 0
M  V30 1640 H 202.043 -3.97163 8.80359 0
M  V30 1641 H 204.682 -4.90969 4.01921 0
M  V30 1642 P 206.54 -5.75688 6.64379 0
M  V30 1643 O 207.962 -6.11849 7.01846 0
M  V30 1644 O 206.18 -4.30744 6.56026 0
M  V30 1645 O 206.217 -6.37042 5.19165 0
M  V30 1646 C 206.057 -7.83578 5.16515 0
M  V30 1647 C 206.597 -8.33398 3.83019 0
M  V30 1648 O 205.541 -8.10074 3.01034 0
M  V30 1649 C 207.815 -7.65514 3.2257 0
M  V30 1650 O 208.553 -8.4329 2.32297 0
M  V30 1651 C 207.146 -6.40075 2.62207 0
M  V30 1652 O 207.945 -5.92589 1.53712 0
M  V30 1653 C 205.809 -6.9454 2.18503 0
M  V30 1654 H 205.841 -7.23063 1.12091 0
M  V30 1655 H 207.024 -5.6025 3.37201 0
M  V30 1656 H 208.508 -7.35707 4.02681 0
M  V30 1657 H 206.814 -9.40912 3.9095 0
M  V30 1658 H 206.624 -8.29056 5.99158 0
M  V30 1659 H 204.994 -8.10073 5.25882 0
M  V30 1660 H 207.633 -6.30324 0.726794 0
M  V30 1661 P 209.49 -8.4349 2.47671 0
M  V30 1662 O 210.912 -8.94167 2.5964 0
M  V30 1663 O 209.13 -7.1704 3.19006 0
M  V30 1664 O 209.167 -8.16596 0.923387 0
M  V30 1665 C 209.007 -9.38437 0.108857 0
M  V30 1666 C 209.547 -9.08175 -1.28353 0
M  V30 1667 O 208.491 -8.44229 -1.84713 0
M  V30 1668 C 210.765 -8.18386 -1.42505 0
M  V30 1669 O 211.503 -8.3501 -2.60497 0
M  V30 1670 C 210.096 -6.80225 -1.25468 0
M  V30 1671 O 210.895 -5.81621 -1.91066 0
M  V30 1672 C 208.759 -7.02416 -1.9168 0
M  V30 1673 H 208.791 -6.6888 -2.96621 0
M  V30 1674 H 209.974 -6.53617 -0.192223 0
M  V30 1675 H 211.458 -8.36622 -0.589963 0
M  V30 1676 H 209.764 -10.0291 -1.79807 0
M  V30 1677 H 209.574 -10.2138 0.558219 0
M  V30 1678 H 207.944 -9.6579 0.0444202 0
M  V30 1679 H 210.583 -5.69556 -2.79637 0
M  V30 1680 P 212.441 -8.4349 -2.47671 0
M  V30 1681 O 213.862 -8.92689 -2.65029 0
M  V30 1682 O 212.081 -7.7568 -1.19296 0
M  V30 1683 O 212.118 -7.36886 -3.63805 0
M  V30 1684 C 211.957 -7.95433 -4.98253 0
M  V30 1685 C 212.498 -6.94612 -5.98974 0
M  V30 1686 O 211.443 -6.10277 -6.11744 0
M  V30 1687 C 213.716 -6.11426 -5.62335 0
M  V30 1688 O 214.454 -5.6162 -6.70584 0
M  V30 1689 C 213.048 -5.04409 -4.73308 0
M  V30 1690 O 213.846 -3.86404 -4.74719 0
M  V30 1691 C 211.71 -4.8728 -5.41006 0
M  V30 1692 N 210.667 -4.65812 -4.42377 0
M  V30 1693 C 210.836 -5.09132 -3.15382 0
M  V30 1694 N 209.809 -4.84021 -2.3716 0
M  V30 1695 C 208.924 -4.18386 -3.20441 0
M  V30 1696 C 207.657 -3.6275 -2.94905 0
M  V30 1697 N 207.092 -3.05008 -4.05243 0
M  V30 1698 C 207.694 -2.98348 -5.28159 0
M  V30 1699 N 208.871 -3.48171 -5.56333 0
M  V30 1700 C 209.446 -4.06869 -4.47212 0
M  V30 1701 H 212.925 -5.39013 -3.70026 0
M  V30 1702 H 214.408 -6.71916 -5.01943 0
M  V30 1703 H 212.714 -7.45796 -6.94223 0
M  V30 1704 H 212.524 -8.89416 -5.05237 0
M  V30 1705 H 210.894 -8.14876 -5.18409 0
M  V30 1706 H 211.736 -5.59989 -2.81362 0
M  V30 1707 H 213.534 -3.27906 -5.43085 0
M  V30 1708 P 215.392 -5.75688 -6.64379 0
M  V30 1709 O 216.814 -6.07627 -7.05504 0
M  V30 1710 O 215.032 -5.88047 -5.19722 0
M  V30 1711 O 215.069 -4.2322 -7.04443 0
M  V30 1712 C 214.909 -3.99743 -8.4911 0
M  V30 1713 C 215.449 -2.60516 -8.79425 0
M  V30 1714 O 214.393 -1.82684 -8.4467 0
M  V30 1715 C 216.667 -2.10343 -8.03628 0
M  V30 1716 O 217.405 -1.09919 -8.67766 0
M  V30 1717 C 215.998 -1.68446 -6.70876 0
M  V30 1718 O 216.797 -0.678137 -6.08433 0
M  V30 1719 C 214.661 -1.17436 -7.18567 0
M  V30 1720 H 214.693 -0.0804732 -7.31656 0
M  V30 1721 H 215.876 -2.54037 -6.02537 0
M  V30 1722 H 217.36 -2.93881 -7.85526 0
M  V30 1723 H 215.666 -2.53065 -9.86973 0
M  V30 1724 H 215.476 -4.75072 -9.05887 0
M  V30 1725 H 213.846 -4.05244 -8.76668 0
M  V30 1726 H 216.485 0.177647 -6.34251 0
M  V30 1727 P 218.342 -1.25109 -8.70152 0
M  V30 1728 O 219.764 -1.29772 -9.22214 0
M  V30 1729 O 217.982 -2.13714 -7.55141 0
M  V30 1730 O 218.019 0.248149 -8.21425 0
M  V30 1731 C 217.859 1.22779 -9.30434 0
M  V30 1732 C 218.399 2.56265 -8.80568 0
M  V30 1733 O 217.344 3.02979 -8.09349 0
M  V30 1734 C 219.617 2.57523 -7.89775 0
M  V30 1735 O 220.355 3.7668 -7.89438 0
M  V30 1736 C 218.949 2.20997 -6.55446 0
M  V30 1737 O 219.747 2.71851 -5.48419 0
M  V30 1738 C 217.611 2.89693 -6.67988 0
M  V30 1739 N 216.568 2.08895 -6.07487 0
M  V30 1740 C 216.63 0.760559 -6.14209 0
M  V30 1741 N 215.585 0.200108 -5.52538 0
M  V30 1742 C 214.851 1.22692 -5.09742 0
M  V30 1743 C 213.545 1.24782 -4.48775 0
M  V30 1744 O 212.812 0.290617 -4.19294 0
M  V30 1745 N 213.115 2.50468 -4.22428 0
M  V30 1746 C 213.864 3.67142 -4.51974 0
M  V30 1747 N 213.267 4.85096 -4.14091 0
M  V30 1748 N 215.017 3.67821 -5.12831 0
M  V30 1749 C 215.474 2.43698 -5.4105 0
M  V30 1750 H 217.643 3.88793 -6.19859 0
M  V30 1751 H 218.826 1.12029 -6.4413 0
M  V30 1752 H 220.311 1.78279 -8.19533 0
M  V30 1753 H 218.616 3.20706 -9.67112 0
M  V30 1754 H 218.426 0.901032 -10.1892 0
M  V30 1755 H 216.795 1.33049 -9.56592 0
M  V30 1756 H 212.219 2.61953 -3.79465 0
M  V30 1757 H 217.426 0.200439 -6.63497 0
M  V30 1758 H 212.356 4.8334 -3.66367 0
M  V30 1759 H 213.732 5.7474 -4.33841 0
M  V30 1760 H 219.436 3.5779 -5.23879 0
M  V30 1761 P 221.293 3.65191 -7.99657 0
M  V30 1762 O 222.714 3.89374 -8.45885 0
M  V30 1763 O 220.933 2.28472 -7.50807 0
M  V30 1764 O 220.97 4.64972 -6.77611 0
M  V30 1765 C 220.809 6.06383 -7.16428 0
M  V30 1766 C 221.35 6.91731 -6.02299 0
M  V30 1767 O 220.295 6.92369 -5.17005 0
M  V30 1768 C 222.568 6.43627 -5.25174 0
M  V30 1769 O 223.306 7.43686 -4.60469 0
M  V30 1770 C 221.9 5.40275 -4.31916 0
M  V30 1771 O 222.698 5.24878 -3.14911 0
M  V30 1772 C 220.562 6.04847 -4.05327 0
M  V30 1773 N 219.519 5.04166 -3.98114 0
M  V30 1774 C 219.688 3.84629 -4.59066 0
M  V30 1775 N 218.661 3.0363 -4.45343 0
M  V30 1776 C 217.776 3.76722 -3.68523 0
M  V30 1777 C 216.509 3.43528 -3.17088 0
M  V30 1778 N 215.944 4.44526 -2.44231 0
M  V30 1779 C 216.546 5.65243 -2.20146 0
M  V30 1780 N 217.723 6.00221 -2.65453 0
M  V30 1781 C 218.298 5.00564 -3.39083 0
M  V30 1782 H 221.777 4.42969 -4.80867 0
M  V30 1783 H 223.26 5.92458 -5.93643 0
M  V30 1784 H 221.566 7.93295 -6.39407 0
M  V30 1785 H 221.376 6.26671 -8.0846 0
M  V30 1786 H 219.746 6.29101 -7.32804 0
M  V30 1787 H 220.588 3.58193 -5.14248 0
M  V30 1788 H 222.386 5.84223 -2.47279 0
M  V30 1789 P 224.243 7.39546 -4.75277 0
M  V30 1790 O 225.665 7.84798 -5.01039 0
M  V30 1791 O 223.883 5.9812 -5.08098 0
M  V30 1792 O 223.92 7.57503 -3.1866 0
M  V30 1793 C 223.76 8.97357 -2.74833 0
M  V30 1794 C 224.3 9.07548 -1.32709 0
M  V30 1795 O 223.244 8.62072 -0.606159 0
M  V30 1796 C 225.518 8.25383 -0.938334 0
M  V30 1797 O 226.256 8.74577 0.146954 0
M  V30 1798 C 224.849 6.8802 -0.712559 0
M  V30 1799 O 225.648 6.1189 0.194655 0
M  V30 1800 C 223.512 7.27966 -0.139777 0
M  V30 1801 H 223.544 7.25354 0.961601 0
M  V30 1802 H 224.727 6.32557 -1.65702 0
M  V30 1803 H 226.211 8.19355 -1.79097 0
M  V30 1804 H 224.517 10.1294 -1.10029 0
M  V30 1805 H 224.327 9.64276 -3.41316 0
M  V30 1806 H 222.697 9.25417 -2.76357 0
M  V30 1807 H 225.336 6.25267 1.07847 0
M  V30 1808 P 227.194 8.791 4.22174e-13 0
M  V30 1809 O 228.616 9.31096 0.027933 0
M  V30 1810 O 226.834 7.77869 -1.04071 0
M  V30 1811 O 226.871 8.09533 1.41463 0
M  V30 1812 C 226.711 9.0349 2.53943 0
M  V30 1813 C 227.251 8.35226 3.79016 0
M  V30 1814 O 226.195 7.57992 4.15078 0
M  V30 1815 C 228.469 7.45087 3.67298 0
M  V30 1816 O 229.207 7.27796 4.85194 0
M  V30 1817 C 227.8 6.17323 3.12027 0
M  V30 1818 O 228.599 5.04231 3.47188 0
M  V30 1819 C 226.463 6.19961 3.81809 0
M  V30 1820 H 226.495 5.58218 4.73051 0
M  V30 1821 H 227.678 6.21726 2.02589 0
M  V30 1822 H 229.162 7.86112 2.9231 0
M  V30 1823 H 227.468 9.11627 4.55076 0
M  V30 1824 H 227.278 9.9573 2.34194 0
M  V30 1825 H 225.648 9.2792 2.67832 0
M  V30 1826 H 228.287 4.67702 4.28772 0
M  V30 1827 P 230.144 7.39546 4.75277 0
M  V30 1828 O 231.566 7.81777 5.05738 0
M  V30 1829 O 229.784 7.1065 3.32998 0
M  V30 1830 O 229.821 6.04542 5.56673 0
M  V30 1831 C 229.661 6.22772 7.02095 0
M  V30 1832 C 230.201 4.97725 7.70406 0
M  V30 1833 O 229.145 4.13256 7.58987 0
M  V30 1834 C 231.419 4.28231 7.11815 0
M  V30 1835 O 232.157 3.49945 8.01648 0
M  V30 1836 C 230.75 3.5063 5.96244 0
M  V30 1837 O 231.549 2.36482 5.64681 0
M  V30 1838 C 229.413 3.15122 6.56374 0
M  V30 1839 H 229.445 2.13853 6.99751 0
M  V30 1840 H 230.628 4.13501 5.06559 0
M  V30 1841 H 232.112 5.03285 6.70911 0
M  V30 1842 H 230.418 5.20877 8.75697 0
M  V30 1843 H 230.228 7.11046 7.35349 0
M  V30 1844 H 228.598 6.35815 7.26986 0
M  V30 1845 H 231.237 1.61644 6.13565 0
M  V30 1846 P 233.095 3.65191 7.99657 0
M  V30 1847 O 234.517 3.8425 8.48115 0
M  V30 1848 O 232.735 4.17805 6.64342 0
M  V30 1849 O 232.772 2.07613 7.95143 0
M  V30 1850 C 232.612 1.44328 9.27336 0
M  V30 1851 C 233.152 0.0220036 9.17197 0
M  V30 1852 O 232.096 -0.626867 8.61923 0
M  V30 1853 C 234.37 -0.24586 8.30336 0
M  V30 1854 O 235.108 -1.39011 8.63583 0
M  V30 1855 C 233.701 -0.273849 6.91158 0
M  V30 1856 O 234.5 -1.06348 6.02892 0
M  V30 1857 C 232.364 -0.897649 7.22545 0
M  V30 1858 H 232.396 -1.9841 7.04286 0
M  V30 1859 H 233.579 0.739928 6.497 0
M  V30 1860 H 235.063 0.60668 8.36503 0
M  V30 1861 H 233.369 -0.352479 10.1829 0
M  V30 1862 H 233.179 2.00611 10.0304 0
M  V30 1863 H 231.549 1.41843 9.55327 0
M  V30 1864 H 234.188 -1.95734 6.03555 0
M  V30 1865 P 236.046 -1.25109 8.70152 0
M  V30 1866 O 237.468 -1.35274 9.21221 0
M  V30 1867 O 235.686 -0.0769065 7.84762 0
M  V30 1868 O 235.723 -2.55232 7.81161 0
M  V30 1869 C 235.563 -3.79939 8.58154 0
M  V30 1870 C 236.103 -4.94023 7.72785 0
M  V30 1871 O 235.047 -5.18726 6.91205 0
M  V30 1872 C 237.321 -4.69597 6.85231 0
M  V30 1873 O 238.059 -5.83832 6.51337 0
M  V30 1874 C 236.652 -3.96706 5.66633 0
M  V30 1875 O 237.451 -4.15414 4.49689 0
M  V30 1876 C 235.315 -4.66153 5.59313 0
M  V30 1877 H 235.347 -5.47679 4.85214 0
M  V30 1878 H 236.53 -2.89008 5.86566 0
M  V30 1879 H 238.014 -4.0121 7.36511 0
M  V30 1880 H 236.32 -5.80182 8.37584 0
M  V30 1881 H 236.13 -3.73517 9.52265 0
M  V30 1882 H 234.5 -3.97163 8.80359 0
M  V30 1883 H 237.139 -4.90969 4.01921 0
M  V30 1884 P 238.996 -5.75688 6.64379 0
M  V30 1885 O 240.418 -6.11849 7.01846 0
M  V30 1886 O 238.636 -4.30744 6.56026 0
M  V30 1887 O 238.673 -6.37042 5.19165 0
M  V30 1888 C 238.513 -7.83578 5.16515 0
M  V30 1889 C 239.053 -8.33398 3.83019 0
M  V30 1890 O 237.997 -8.10074 3.01034 0
M  V30 1891 C 240.271 -7.65514 3.2257 0
M  V30 1892 O 241.009 -8.4329 2.32297 0
M  V30 1893 C 239.602 -6.40075 2.62207 0
M  V30 1894 O 240.401 -5.92589 1.53712 0
M  V30 1895 C 238.265 -6.9454 2.18503 0
M  V30 1896 H 238.297 -7.23063 1.12091 0
M  V30 1897 H 239.48 -5.6025 3.37201 0
M  V30 1898 H 240.964 -7.35707 4.02681 0
M  V30 1899 H 239.27 -9.40912 3.9095 0
M  V30 1900 H 239.08 -8.29056 5.99158 0
M  V30 1901 H 237.45 -8.10073 5.25882 0
M  V30 1902 H 240.089 -6.30324 0.726794 0
M  V30 1903 P 241.947 -8.4349 2.47671 0
M  V30 1904 O 243.369 -8.94167 2.5964 0
M  V30 1905 O 241.587 -7.1704 3.19006 0
M  V30 1906 O 241.624 -8.16596 0.923387 0
M  V30 1907 C 241.464 -9.38437 0.108857 0
M  V30 1908 C 242.004 -9.08175 -1.28353 0
M  V30 1909 O 240.948 -8.44229 -1.84713 0
M  V30 1910 C 243.222 -8.18386 -1.42505 0
M  V30 1911 O 243.96 -8.3501 -2.60497 0
M  V30 1912 C 242.553 -6.80225 -1.25468 0
M  V30 1913 O 243.352 -5.81621 -1.91066 0
M  V30 1914 C 241.216 -7.02416 -1.9168 0
M  V30 1915 H 241.248 -6.6888 -2.96621 0
M  V30 1916 H 242.431 -6.53617 -0.192223 0
M  V30 1917 H 243.915 -8.36622 -0.589963 0
M  V30 1918 H 242.221 -10.0291 -1.79807 0
M  V30 1919 H 242.031 -10.2138 0.558219 0
M  V30 1920 H 240.401 -9.6579 0.0444202 0
M  V30 1921 H 243.04 -5.69556 -2.79637 0
M  V30 1922 P 244.897 -8.4349 -2.47671 0
M  V30 1923 O 246.319 -8.92593 -2.65 0
M  V30 1924 O 244.537 -7.7568 -1.19296 0
M  V30 1925 O 244.574 -7.36886 -3.63805 0
M  V30 1926 C 244.414 -7.95349 -4.982 0
M  V30 1927 C 244.954 -6.94612 -5.98974 0
M  V30 1928 O 243.898 -6.10347 -6.11815 0
M  V30 1929 C 246.172 -6.11426 -5.62335 0
M  V30 1930 O 246.91 -5.6162 -6.70584 0
M  V30 1931 C 245.503 -5.04409 -4.73308 0
M  V30 1932 O 246.302 -3.85992 -4.75183 0
M  V30 1933 C 244.166 -4.8728 -5.41006 0
M  V30 1934 H 244.198 -4.02333 -6.11157 0
M  V30 1935 H 245.381 -5.39466 -3.69543 0
M  V30 1936 H 246.865 -6.71916 -5.01943 0
M  V30 1937 H 245.171 -7.4649 -6.93477 0
M  V30 1938 H 244.981 -8.89416 -5.05237 0
M  V30 1939 H 243.351 -8.14876 -5.18409 0
M  V30 1940 H 245.99 -3.27957 -5.4317 0
M  V30 1941 P 247.848 -5.75688 -6.64379 0
M  V30 1942 O 249.27 -6.07627 -7.05504 0
M  V30 1943 O 247.488 -5.88047 -5.19722 0
M  V30 1944 O 247.525 -4.2322 -7.04443 0
M  V30 1945 C 247.365 -3.99743 -8.4911 0
M  V30 1946 C 247.905 -2.60516 -8.79425 0
M  V30 1947 O 246.849 -1.82684 -8.4467 0
M  V30 1948 C 249.123 -2.10343 -8.03628 0
M  V30 1949 O 249.861 -1.09919 -8.67766 0
M  V30 1950 C 248.454 -1.68446 -6.70876 0
M  V30 1951 O 249.253 -0.678137 -6.08433 0
M  V30 1952 C 247.117 -1.17436 -7.18567 0
M  V30 1953 H 247.149 -0.0804732 -7.31656 0
M  V30 1954 H 248.332 -2.54037 -6.02537 0
M  V30 1955 H 249.816 -2.93881 -7.85526 0
M  V30 1956 H 248.122 -2.53065 -9.86973 0
M  V30 1957 H 247.932 -4.75072 -9.05887 0
M  V30 1958 H 246.302 -4.05244 -8.76668 0
M  V30 1959 H 248.941 0.177647 -6.34251 0
M  V30 1960 P 250.798 -1.25109 -8.70152 0
M  V30 1961 O 252.22 -1.29744 -9.22016 0
M  V30 1962 O 250.438 -2.13714 -7.55141 0
M  V30 1963 O 250.475 0.248149 -8.21425 0
M  V30 1964 C 250.315 1.22779 -9.30434 0
M  V30 1965 C 250.855 2.56293 -8.80664 0
M  V30 1966 O 249.799 3.02979 -8.09349 0
M  V30 1967 C 252.073 2.57523 -7.89775 0
M  V30 1968 O 252.811 3.7668 -7.89438 0
M  V30 1969 C 251.404 2.20997 -6.55446 0
M  V30 1970 O 252.203 2.71895 -5.48509 0
M  V30 1971 C 250.067 2.89693 -6.67988 0
M  V30 1972 H 250.099 3.88793 -6.19859 0
M  V30 1973 H 251.282 1.12046 -6.44229 0
M  V30 1974 H 252.766 1.7746 -8.19711 0
M  V30 1975 H 251.072 3.20706 -9.67112 0
M  V30 1976 H 250.882 0.901032 -10.1892 0
M  V30 1977 H 249.252 1.33049 -9.56592 0
M  V30 1978 H 251.891 3.57847 -5.23962 0
M  V30 1979 P 253.749 3.65191 -7.99657 0
M  V30 1980 O 255.171 3.89332 -8.45794 0
M  V30 1981 O 253.389 2.28472 -7.50807 0
M  V30 1982 O 253.426 4.64972 -6.77611 0
M  V30 1983 C 253.266 6.06319 -7.16352 0
M  V30 1984 C 253.806 6.91731 -6.02299 0
M  V30 1985 O 252.75 6.92449 -5.17064 0
M  V30 1986 C 255.024 6.43627 -5.25174 0
M  V30 1987 O 255.762 7.43686 -4.60469 0
M  V30 1988 C 254.355 5.40275 -4.31916 0
M  V30 1989 O 255.154 5.25279 -3.14438 0
M  V30 1990 C 253.018 6.04847 -4.05327 0
M  V30 1991 H 253.05 6.62195 -3.11261 0
M  V30 1992 H 254.233 4.42556 -4.81383 0
M  V30 1993 H 255.717 5.92458 -5.93643 0
M  V30 1994 H 254.023 7.92655 -6.402 0
M  V30 1995 H 253.833 6.26671 -8.0846 0
M  V30 1996 H 252.203 6.29101 -7.32804 0
M  V30 1997 H 254.842 5.84315 -2.47318 0
M  V30 1998 P 256.7 7.39546 -4.75277 0
M  V30 1999 O 258.122 7.84798 -5.01039 0
M  V30 2000 O 256.34 5.9812 -5.08098 0
M  V30 2001 O 256.377 7.57503 -3.1866 0
M  V30 2002 C 256.217 8.97357 -2.74833 0
M  V30 2003 C 256.757 9.07548 -1.32709 0
M  V30 2004 O 255.701 8.62072 -0.606159 0
M  V30 2005 C 257.975 8.25383 -0.938334 0
M  V30 2006 O 258.713 8.74577 0.146954 0
M  V30 2007 C 257.306 6.8802 -0.712559 0
M  V30 2008 O 258.105 6.1189 0.194655 0
M  V30 2009 C 255.969 7.27966 -0.139777 0
M  V30 2010 H 256.001 7.25354 0.961601 0
M  V30 2011 H 257.184 6.32557 -1.65702 0
M  V30 2012 H 258.668 8.19355 -1.79097 0
M  V30 2013 H 256.974 10.1294 -1.10029 0
M  V30 2014 H 256.784 9.64276 -3.41316 0
M  V30 2015 H 255.154 9.25417 -2.76357 0
M  V30 2016 H 257.793 6.25267 1.07847 0
M  V30 2017 P 259.65 8.791 7.3234e-13 0
M  V30 2018 O 261.072 9.31096 0.027933 0
M  V30 2019 O 259.29 7.77869 -1.04071 0
M  V30 2020 O 259.327 8.09533 1.41463 0
M  V30 2021 C 259.167 9.0349 2.53943 0
M  V30 2022 C 259.707 8.35226 3.79016 0
M  V30 2023 O 258.651 7.57992 4.15078 0
M  V30 2024 C 260.925 7.45087 3.67298 0
M  V30 2025 O 261.663 7.27796 4.85194 0
M  V30 2026 C 260.256 6.17323 3.12027 0
M  V30 2027 O 261.055 5.04231 3.47188 0
M  V30 2028 C 258.919 6.19961 3.81809 0
M  V30 2029 H 258.951 5.58218 4.73051 0
M  V30 2030 H 260.134 6.21726 2.02589 0
M  V30 2031 H 261.618 7.86112 2.9231 0
M  V30 2032 H 259.924 9.11627 4.55076 0
M  V30 2033 H 259.734 9.9573 2.34194 0
M  V30 2034 H 258.104 9.2792 2.67832 0
M  V30 2035 H 260.743 4.67702 4.28772 0
M  V30 2036 P 262.601 7.39546 4.75277 0
M  V30 2037 O 264.023 7.81777 5.05738 0
M  V30 2038 O 262.241 7.1065 3.32998 0
M  V30 2039 O 262.278 6.04542 5.56673 0
M  V30 2040 C 262.118 6.22772 7.02095 0
M  V30 2041 C 262.658 4.97725 7.70406 0
M  V30 2042 O 261.602 4.13256 7.58987 0
M  V30 2043 C 263.876 4.28231 7.11815 0
M  V30 2044 O 264.614 3.49945 8.01648 0
M  V30 2045 C 263.207 3.5063 5.96244 0
M  V30 2046 O 264.006 2.36482 5.64681 0
M  V30 2047 C 261.87 3.15122 6.56374 0
M  V30 2048 H 261.902 2.13853 6.99751 0
M  V30 2049 H 263.085 4.13501 5.06559 0
M  V30 2050 H 264.569 5.03285 6.70911 0
M  V30 2051 H 262.875 5.20877 8.75697 0
M  V30 2052 H 262.685 7.11046 7.35349 0
M  V30 2053 H 261.055 6.35815 7.26986 0
M  V30 2054 H 263.694 1.61644 6.13565 0
M  V30 2055 P 265.551 3.65191 7.99657 0
M  V30 2056 O 266.973 3.8425 8.48115 0
M  V30 2057 O 265.191 4.17805 6.64342 0
M  V30 2058 O 265.228 2.07613 7.95143 0
M  V30 2059 C 265.068 1.44328 9.27336 0
M  V30 2060 C 265.608 0.0220036 9.17197 0
M  V30 2061 O 264.552 -0.626867 8.61923 0
M  V30 2062 C 266.826 -0.24586 8.30336 0
M  V30 2063 O 267.564 -1.39011 8.63583 0
M  V30 2064 C 266.157 -0.273849 6.91158 0
M  V30 2065 O 266.956 -1.06348 6.02892 0
M  V30 2066 C 264.82 -0.897649 7.22545 0
M  V30 2067 H 264.852 -1.9841 7.04286 0
M  V30 2068 H 266.035 0.739928 6.497 0
M  V30 2069 H 267.519 0.60668 8.36503 0
M  V30 2070 H 265.825 -0.352479 10.1829 0
M  V30 2071 H 265.635 2.00611 10.0304 0
M  V30 2072 H 264.005 1.41843 9.55327 0
M  V30 2073 H 266.644 -1.95734 6.03555 0
M  V30 2074 P 268.502 -1.25109 8.70152 0
M  V30 2075 O 269.923 -1.35288 9.2132 0
M  V30 2076 O 268.142 -0.0769065 7.84762 0
M  V30 2077 O 268.179 -2.55232 7.81161 0
M  V30 2078 C 268.018 -3.79979 8.58246 0
M  V30 2079 C 268.559 -4.94023 7.72785 0
M  V30 2080 O 267.504 -5.18666 6.91125 0
M  V30 2081 C 269.777 -4.69597 6.85231 0
M  V30 2082 O 270.515 -5.83832 6.51337 0
M  V30 2083 C 269.109 -3.96706 5.66633 0
M  V30 2084 O 269.907 -4.14896 4.5003 0
M  V30 2085 C 267.771 -4.66153 5.59313 0
M  V30 2086 N 266.728 -3.71582 5.24027 0
M  V30 2087 C 266.897 -2.39715 5.48833 0
M  V30 2088 N 265.87 -1.65863 5.12845 0
M  V30 2089 C 264.985 -2.57637 4.5973 0
M  V30 2090 C 263.718 -2.40278 4.01027 0
M  V30 2091 N 263.153 -3.57711 3.59575 0
M  V30 2092 C 263.755 -4.80324 3.70476 0
M  V30 2093 N 264.932 -5.01121 4.23801 0
M  V30 2094 C 265.507 -3.84757 4.66372 0
M  V30 2095 H 268.986 -2.8955 5.86187 0
M  V30 2096 H 270.469 -4.0121 7.36511 0
M  V30 2097 H 268.775 -5.81019 8.37003 0
M  V30 2098 H 268.585 -3.73517 9.52265 0
M  V30 2099 H 266.955 -3.97163 8.80359 0
M  V30 2100 H 267.797 -1.98804 5.94332 0
M  V30 2101 H 269.595 -4.90891 4.01857 0
M  V30 2102 P 271.452 -5.75688 6.64379 0
M  V30 2103 O 272.874 -6.11849 7.01846 0
M  V30 2104 O 271.092 -4.30744 6.56026 0
M  V30 2105 O 271.129 -6.37042 5.19165 0
M  V30 2106 C 270.969 -7.83578 5.16515 0
M  V30 2107 C 271.509 -8.33398 3.83019 0
M  V30 2108 O 270.453 -8.10074 3.01034 0
M  V30 2109 C 272.727 -7.65514 3.2257 0
M  V30 2110 O 273.465 -8.4329 2.32297 0
M  V30 2111 C 272.058 -6.40075 2.62207 0
M  V30 2112 O 272.857 -5.92589 1.53712 0
M  V30 2113 C 270.721 -6.9454 2.18503 0
M  V30 2114 H 270.753 -7.23063 1.12091 0
M  V30 2115 H 271.936 -5.6025 3.37201 0
M  V30 2116 H 273.42 -7.35707 4.02681 0
M  V30 2117 H 271.726 -9.40912 3.9095 0
M  V30 2118 H 271.536 -8.29056 5.99158 0
M  V30 2119 H 269.906 -8.10073 5.25882 0
M  V30 2120 H 272.545 -6.30324 0.726794 0
M  V30 2121 P 274.403 -8.4349 2.47671 0
M  V30 2122 O 275.825 -8.94167 2.5964 0
M  V30 2123 O 274.043 -7.1704 3.19006 0
M  V30 2124 O 274.08 -8.16596 0.923387 0
M  V30 2125 C 273.92 -9.38437 0.108857 0
M  V30 2126 C 274.46 -9.08175 -1.28353 0
M  V30 2127 O 273.404 -8.44229 -1.84713 0
M  V30 2128 C 275.678 -8.18386 -1.42505 0
M  V30 2129 O 276.416 -8.3501 -2.60497 0
M  V30 2130 C 275.009 -6.80225 -1.25468 0
M  V30 2131 O 275.808 -5.81621 -1.91066 0
M  V30 2132 C 273.672 -7.02416 -1.9168 0
M  V30 2133 H 273.704 -6.6888 -2.96621 0
M  V30 2134 H 274.887 -6.53617 -0.192223 0
M  V30 2135 H 276.371 -8.36622 -0.589963 0
M  V30 2136 H 274.677 -10.0291 -1.79807 0
M  V30 2137 H 274.487 -10.2138 0.558219 0
M  V30 2138 H 272.857 -9.6579 0.0444202 0
M  V30 2139 H 275.496 -5.69556 -2.79637 0
M  V30 2140 P 277.354 -8.4349 -2.47671 0
M  V30 2141 O 278.776 -8.92593 -2.65 0
M  V30 2142 O 276.994 -7.7568 -1.19296 0
M  V30 2143 O 277.031 -7.36886 -3.63805 0
M  V30 2144 C 276.871 -7.95349 -4.982 0
M  V30 2145 C 277.411 -6.94612 -5.98974 0
M  V30 2146 O 276.355 -6.10347 -6.11815 0
M  V30 2147 C 278.629 -6.11426 -5.62335 0
M  V30 2148 O 279.367 -5.6162 -6.70584 0
M  V30 2149 C 277.96 -5.04409 -4.73308 0
M  V30 2150 O 278.759 -3.85992 -4.75183 0
M  V30 2151 C 276.623 -4.8728 -5.41006 0
M  V30 2152 H 276.655 -4.02333 -6.11157 0
M  V30 2153 H 277.838 -5.39466 -3.69543 0
M  V30 2154 H 279.322 -6.71916 -5.01943 0
M  V30 2155 H 277.628 -7.4649 -6.93477 0
M  V30 2156 H 277.438 -8.89416 -5.05237 0
M  V30 2157 H 275.808 -8.14876 -5.18409 0
M  V30 2158 H 278.447 -3.27957 -5.4317 0
M  V30 2159 P 280.304 -5.75688 -6.64379 0
M  V30 2160 O 281.726 -6.07627 -7.05504 0
M  V30 2161 O 279.944 -5.88047 -5.19722 0
M  V30 2162 O 279.981 -4.2322 -7.04443 0
M  V30 2163 C 279.821 -3.99743 -8.4911 0
M  V30 2164 C 280.361 -2.60516 -8.79425 0
M  V30 2165 O 279.305 -1.82684 -8.4467 0
M  V30 2166 C 281.579 -2.10343 -8.03628 0
M  V30 2167 O 282.317 -1.09919 -8.67766 0
M  V30 2168 C 280.91 -1.68446 -6.70876 0
M  V30 2169 O 281.709 -0.678137 -6.08433 0
M  V30 2170 C 279.573 -1.17436 -7.18567 0
M  V30 2171 H 279.605 -0.0804732 -7.31656 0
M  V30 2172 H 280.788 -2.54037 -6.02537 0
M  V30 2173 H 282.272 -2.93881 -7.85526 0
M  V30 2174 H 280.578 -2.53065 -9.86973 0
M  V30 2175 H 280.388 -4.75072 -9.05887 0
M  V30 2176 H 278.758 -4.05244 -8.76668 0
M  V30 2177 H 281.397 0.177647 -6.34251 0
M  V30 2178 P 283.255 -1.25109 -8.70152 0
M  V30 2179 O 284.677 -1.29744 -9.22016 0
M  V30 2180 O 282.895 -2.13714 -7.55141 0
M  V30 2181 O 282.932 0.248149 -8.21425 0
M  V30 2182 C 282.772 1.22779 -9.30434 0
M  V30 2183 C 283.312 2.56293 -8.80664 0
M  V30 2184 O 282.256 3.02979 -8.09349 0
M  V30 2185 C 284.53 2.57523 -7.89775 0
M  V30 2186 O 285.268 3.7668 -7.89438 0
M  V30 2187 C 283.861 2.20997 -6.55446 0
M  V30 2188 O 284.66 2.71895 -5.48509 0
M  V30 2189 C 282.524 2.89693 -6.67988 0
M  V30 2190 H 282.556 3.88793 -6.19859 0
M  V30 2191 H 283.739 1.12046 -6.44229 0
M  V30 2192 H 285.223 1.7746 -8.19711 0
M  V30 2193 H 283.529 3.20706 -9.67112 0
M  V30 2194 H 283.339 0.901032 -10.1892 0
M  V30 2195 H 281.709 1.33049 -9.56592 0
M  V30 2196 H 284.348 3.57847 -5.23962 0
M  V30 2197 P 286.205 3.65191 -7.99657 0
M  V30 2198 O 287.606 3.87414 -8.52829 0
M  V30 2199 O 285.827 2.26932 -7.566 0
M  V30 2200 O 285.882 4.64915 -6.77529 0
M  V30 2201 C 285.722 6.06319 -7.16352 0
M  V30 2202 C 286.262 6.91655 -6.02234 0
M  V30 2203 O 285.206 6.92369 -5.17005 0
M  V30 2204 C 287.479 6.43627 -5.25174 0
M  V30 2205 O 288.218 7.43686 -4.60469 0
M  V30 2206 C 286.812 5.40275 -4.31916 0
M  V30 2207 O 287.61 5.25193 -3.14386 0
M  V30 2208 C 285.474 6.04847 -4.05327 0
M  V30 2209 N 284.431 5.04166 -3.98114 0
M  V30 2210 C 283.396 5.2366 -3.09923 0
M  V30 2211 O 283.435 6.23355 -2.34204 0
M  V30 2212 N 282.384 4.34279 -3.05727 0
M  V30 2213 C 282.432 3.26317 -3.84756 0
M  V30 2214 C 283.528 3.02504 -4.72573 0
M  V30 2215 C 284.494 3.94493 -4.76618 0
M  V30 2216 H 285.506 6.62104 -3.11218 0
M  V30 2217 H 286.689 4.42969 -4.80867 0
M  V30 2218 H 288.173 5.93122 -5.93121 0
M  V30 2219 H 286.479 7.93295 -6.39407 0
M  V30 2220 H 286.288 6.26671 -8.0846 0
M  V30 2221 H 284.658 6.29036 -7.32728 0
M  V30 2222 H 283.576 2.12921 -5.34017 0
M  V30 2223 H 285.34 3.80658 -5.44176 0
M  V30 2224 H 287.394 5.93572 -2.52637 0
M  V30 2225 P 289.156 7.39546 -4.75277 0
M  V30 2226 O 290.578 7.84798 -5.01039 0
M  V30 2227 O 288.796 5.9812 -5.08098 0
M  V30 2228 O 288.833 7.57503 -3.1866 0
M  V30 2229 C 288.673 8.97357 -2.74833 0
M  V30 2230 C 289.213 9.07548 -1.32709 0
M  V30 2231 O 288.157 8.62072 -0.606159 0
M  V30 2232 C 290.431 8.25383 -0.938334 0
M  V30 2233 O 291.169 8.74577 0.146954 0
M  V30 2234 C 289.762 6.8802 -0.712559 0
M  V30 2235 O 290.561 6.1189 0.194655 0
M  V30 2236 C 288.425 7.27966 -0.139777 0
M  V30 2237 H 288.457 7.25354 0.961601 0
M  V30 2238 H 289.64 6.32557 -1.65702 0
M  V30 2239 H 291.124 8.19355 -1.79097 0
M  V30 2240 H 289.43 10.1294 -1.10029 0
M  V30 2241 H 289.24 9.64276 -3.41316 0
M  V30 2242 H 287.61 9.25417 -2.76357 0
M  V30 2243 H 290.249 6.25267 1.07847 0
M  V30 2244 P 292.106 8.791 1.04251e-12 0
M  V30 2245 O 293.528 9.31096 0.027933 0
M  V30 2246 O 291.746 7.77869 -1.04071 0
M  V30 2247 O 291.783 8.09533 1.41463 0
M  V30 2248 C 291.623 9.0349 2.53943 0
M  V30 2249 C 292.163 8.35226 3.79016 0
M  V30 2250 O 291.107 7.57992 4.15078 0
M  V30 2251 C 293.381 7.45087 3.67298 0
M  V30 2252 O 294.119 7.27796 4.85194 0
M  V30 2253 C 292.712 6.17323 3.12027 0
M  V30 2254 O 293.511 5.04231 3.47188 0
M  V30 2255 C 291.375 6.19961 3.81809 0
M  V30 2256 H 291.407 5.58218 4.73051 0
M  V30 2257 H 292.59 6.21726 2.02589 0
M  V30 2258 H 294.074 7.86112 2.9231 0
M  V30 2259 H 292.38 9.11627 4.55076 0
M  V30 2260 H 292.19 9.9573 2.34194 0
M  V30 2261 H 290.56 9.2792 2.67832 0
M  V30 2262 H 293.199 4.67702 4.28772 0
M  V30 2263 P 295.057 7.39546 4.75277 0
M  V30 2264 O 296.458 7.89013 5.04841 0
M  V30 2265 O 294.679 7.16603 3.32298 0
M  V30 2266 O 294.734 6.04468 5.56605 0
M  V30 2267 C 294.574 6.22772 7.02095 0
M  V30 2268 C 295.114 4.97671 7.70322 0
M  V30 2269 O 294.058 4.13208 7.58899 0
M  V30 2270 C 296.331 4.28231 7.11815 0
M  V30 2271 O 297.07 3.49945 8.01648 0
M  V30 2272 C 295.664 3.5063 5.96244 0
M  V30 2273 O 296.462 2.36443 5.64589 0
M  V30 2274 C 294.326 3.15122 6.56374 0
M  V30 2275 N 293.283 3.22311 5.55692 0
M  V30 2276 C 292.248 2.32244 5.62437 0
M  V30 2277 O 292.287 1.43107 6.50341 0
M  V30 2278 N 291.236 2.40811 4.73368 0
M  V30 2279 C 291.284 3.344 3.77753 0
M  V30 2280 C 292.38 4.24712 3.66679 0
M  V30 2281 C 293.346 4.15625 4.58307 0
M  V30 2282 H 294.358 2.13823 6.99656 0
M  V30 2283 H 295.541 4.12931 5.06895 0
M  V30 2284 H 297.025 5.02674 6.71494 0
M  V30 2285 H 295.331 5.20001 8.76217 0
M  V30 2286 H 295.14 7.11046 7.35349 0
M  V30 2287 H 293.51 6.35749 7.26911 0
M  V30 2288 H 292.428 4.9828 2.86753 0
M  V30 2289 H 294.192 4.84464 4.54228 0
M  V30 2290 H 296.246 1.65592 6.23485 0
M  V30 2291 P 298.008 3.65191 7.99657 0
M  V30 2292 O 299.43 3.8425 8.48115 0
M  V30 2293 O 297.648 4.17805 6.64342 0
M  V30 2294 O 297.685 2.07613 7.95143 0
M  V30 2295 C 297.525 1.44328 9.27336 0
M  V30 2296 C 298.065 0.0220036 9.17197 0
M  V30 2297 O 297.009 -0.626867 8.61923 0
M  V30 2298 C 299.283 -0.24586 8.30336 0
M  V30 2299 O 300.021 -1.39011 8.63583 0
M  V30 2300 C 298.614 -0.273849 6.91158 0
M  V30 2301 O 299.413 -1.06348 6.02892 0
M  V30 2302 C 297.277 -0.897649 7.22545 0
M  V30 2303 H 297.309 -1.9841 7.04286 0
M  V30 2304 H 298.492 0.739928 6.497 0
M  V30 2305 H 299.976 0.60668 8.36503 0
M  V30 2306 H 298.282 -0.352479 10.1829 0
M  V30 2307 H 298.092 2.00611 10.0304 0
M  V30 2308 H 296.462 1.41843 9.55327 0
M  V30 2309 H 299.101 -1.95734 6.03555 0
M  V30 2310 P 300.958 -1.25109 8.70152 0
M  V30 2311 O 302.38 -1.35303 9.21419 0
M  V30 2312 O 300.598 -0.0769065 7.84762 0
M  V30 2313 O 300.635 -2.55232 7.81161 0
M  V30 2314 C 300.475 -3.79939 8.58154 0
M  V30 2315 C 301.015 -4.93969 7.72701 0
M  V30 2316 O 299.96 -5.18726 6.91205 0
M  V30 2317 C 302.233 -4.69597 6.85231 0
M  V30 2318 O 302.971 -5.83832 6.51337 0
M  V30 2319 C 301.565 -3.96706 5.66633 0
M  V30 2320 O 302.363 -4.15346 4.49615 0
M  V30 2321 C 300.227 -4.66153 5.59313 0
M  V30 2322 N 299.184 -3.71582 5.24027 0
M  V30 2323 C 299.246 -2.46018 5.67902 0
M  V30 2324 N 298.201 -1.74868 5.24518 0
M  V30 2325 C 297.467 -2.61333 4.54528 0
M  V30 2326 C 296.161 -2.46162 3.95441 0
M  V30 2327 O 295.428 -1.46013 3.94122 0
M  V30 2328 N 295.731 -3.59334 3.34752 0
M  V30 2329 C 296.48 -4.79605 3.3023 0
M  V30 2330 N 295.883 -5.82109 2.6065 0
M  V30 2331 N 297.633 -4.97402 3.8843 0
M  V30 2332 C 298.09 -3.86258 4.50476 0
M  V30 2333 H 300.259 -5.47679 4.85214 0
M  V30 2334 H 301.442 -2.88964 5.86476 0
M  V30 2335 H 302.927 -4.01947 7.36109 0
M  V30 2336 H 301.232 -5.80182 8.37584 0
M  V30 2337 H 301.042 -3.73517 9.52265 0
M  V30 2338 H 299.411 -3.97163 8.80359 0
M  V30 2339 H 294.835 -3.5825 2.90294 0
M  V30 2340 H 300.042 -2.06161 6.30974 0
M  V30 2341 H 294.972 -5.66979 2.15354 0
M  V30 2342 H 296.348 -6.73686 2.54344 0
M  V30 2343 H 302.052 -4.90891 4.01857 0
M  V30 2344 P 303.909 -5.75688 6.64379 0
M  V30 2345 O 305.33 -6.11915 7.01921 0
M  V30 2346 O 303.549 -4.30744 6.56026 0
M  V30 2347 O 303.586 -6.37042 5.19165 0
M  V30 2348 C 303.425 -7.83662 5.1657 0
M  V30 2349 C 303.966 -8.33398 3.83019 0
M  V30 2350 O 302.911 -8.0998 3.00999 0
M  V30 2351 C 305.184 -7.65514 3.2257 0
M  V30 2352 O 305.922 -8.4329 2.32297 0
M  V30 2353 C 304.516 -6.40075 2.62207 0
M  V30 2354 O 305.314 -5.92338 1.5428 0
M  V30 2355 C 303.178 -6.9454 2.18503 0
M  V30 2356 N 302.135 -5.95905 2.39948 0
M  V30 2357 C 302.304 -4.98383 3.32108 0
M  V30 2358 N 301.277 -4.16798 3.41761 0
M  V30 2359 C 300.392 -4.65287 2.47461 0
M  V30 2360 C 299.125 -4.18946 2.07461 0
M  V30 2361 N 298.56 -4.95327 1.09101 0
M  V30 2362 C 299.162 -6.04369 0.519812 0
M  V30 2363 N 300.339 -6.50694 0.855982 0
M  V30 2364 C 300.914 -5.75818 1.84322 0
M  V30 2365 H 304.393 -5.60502 3.36589 0
M  V30 2366 H 305.876 -7.35707 4.02681 0
M  V30 2367 H 304.182 -9.41302 3.90009 0
M  V30 2368 H 303.992 -8.29056 5.99158 0
M  V30 2369 H 302.362 -8.10073 5.25882 0
M  V30 2370 H 303.204 -4.88564 3.92502 0
M  V30 2371 H 305.002 -6.30224 0.72668 0
M  V30 2372 P 306.859 -8.4349 2.47671 0
M  V30 2373 O 308.281 -8.94167 2.5964 0
M  V30 2374 O 306.499 -7.1704 3.19006 0
M  V30 2375 O 306.536 -8.16596 0.923387 0
M  V30 2376 C 306.376 -9.38437 0.108857 0
M  V30 2377 C 306.916 -9.08175 -1.28353 0
M  V30 2378 O 305.86 -8.44229 -1.84713 0
M  V30 2379 C 308.134 -8.18386 -1.42505 0
M  V30 2380 O 308.872 -8.3501 -2.60497 0
M  V30 2381 C 307.465 -6.80225 -1.25468 0
M  V30 2382 O 308.264 -5.81621 -1.91066 0
M  V30 2383 C 306.128 -7.02416 -1.9168 0
M  V30 2384 H 306.16 -6.6888 -2.96621 0
M  V30 2385 H 307.343 -6.53617 -0.192223 0
M  V30 2386 H 308.827 -8.36622 -0.589963 0
M  V30 2387 H 307.133 -10.0291 -1.79807 0
M  V30 2388 H 306.943 -10.2138 0.558219 0
M  V30 2389 H 305.313 -9.6579 0.0444202 0
M  V30 2390 H 307.952 -5.69556 -2.79637 0
M  V30 2391 P 309.81 -8.4349 -2.47671 0
M  V30 2392 O 311.232 -8.92785 -2.65057 0
M  V30 2393 O 309.45 -7.7568 -1.19296 0
M  V30 2394 O 309.487 -7.36886 -3.63805 0
M  V30 2395 C 309.327 -7.95349 -4.982 0
M  V30 2396 C 309.867 -6.94537 -5.98908 0
M  V30 2397 O 308.812 -6.10347 -6.11815 0
M  V30 2398 C 311.085 -6.11426 -5.62335 0
M  V30 2399 O 311.823 -5.6162 -6.70584 0
M  V30 2400 C 310.417 -5.04409 -4.73308 0
M  V30 2401 O 311.215 -3.85929 -4.75106 0
M  V30 2402 C 309.079 -4.8728 -5.41006 0
M  V30 2403 N 308.036 -4.65812 -4.42377 0
M  V30 2404 C 308.098 -5.27109 -3.24335 0
M  V30 2405 N 307.053 -4.94293 -2.47735 0
M  V30 2406 C 306.319 -4.1271 -3.23359 0
M  V30 2407 C 305.013 -3.56384 -2.99934 0
M  V30 2408 O 304.28 -3.69331 -2.00616 0
M  V30 2409 N 304.583 -2.80206 -4.03316 0
M  V30 2410 C 305.332 -2.58614 -5.2172 0
M  V30 2411 N 304.735 -1.75154 -6.13278 0
M  V30 2412 N 306.485 -3.13689 -5.47619 0
M  V30 2413 C 306.942 -3.90921 -4.46436 0
M  V30 2414 H 309.111 -4.02333 -6.11157 0
M  V30 2415 H 310.294 -5.39383 -3.69487 0
M  V30 2416 H 311.779 -6.71414 -5.02615 0
M  V30 2417 H 310.084 -7.4649 -6.93477 0
M  V30 2418 H 309.894 -8.89416 -5.05237 0
M  V30 2419 H 308.263 -8.14876 -5.18409 0
M  V30 2420 H 303.687 -2.36355 -3.95916 0
M  V30 2421 H 308.894 -5.95212 -2.93859 0
M  V30 2422 H 303.824 -1.32473 -5.91856 0
M  V30 2423 H 305.2 -1.5588 -7.03026 0
M  V30 2424 H 310.904 -3.27906 -5.43085 0
M  V30 2425 P 312.76 -5.75688 -6.64379 0
M  V30 2426 O 314.182 -6.07627 -7.05504 0
M  V30 2427 O 312.4 -5.88047 -5.19722 0
M  V30 2428 O 312.437 -4.2322 -7.04443 0
M  V30 2429 C 312.277 -3.99743 -8.4911 0
M  V30 2430 C 312.817 -2.60516 -8.79425 0
M  V30 2431 O 311.761 -1.82684 -8.4467 0
M  V30 2432 C 314.035 -2.10343 -8.03628 0
M  V30 2433 O 314.773 -1.09919 -8.67766 0
M  V30 2434 C 313.366 -1.68446 -6.70876 0
M  V30 2435 O 314.165 -0.678137 -6.08433 0
M  V30 2436 C 312.029 -1.17436 -7.18567 0
M  V30 2437 H 312.061 -0.0804732 -7.31656 0
M  V30 2438 H 313.244 -2.54037 -6.02537 0
M  V30 2439 H 314.728 -2.93881 -7.85526 0
M  V30 2440 H 313.034 -2.53065 -9.86973 0
M  V30 2441 H 312.844 -4.75072 -9.05887 0
M  V30 2442 H 311.214 -4.05244 -8.76668 0
M  V30 2443 H 313.853 0.177647 -6.34251 0
M  V30 2444 P 315.711 -1.25109 -8.70152 0
M  V30 2445 O 317.133 -1.29744 -9.22016 0
M  V30 2446 O 315.351 -2.13714 -7.55141 0
M  V30 2447 O 315.388 0.248149 -8.21425 0
M  V30 2448 C 315.228 1.22779 -9.30434 0
M  V30 2449 C 315.768 2.56293 -8.80664 0
M  V30 2450 O 314.712 3.02979 -8.09349 0
M  V30 2451 C 316.986 2.57523 -7.89775 0
M  V30 2452 O 317.724 3.7668 -7.89438 0
M  V30 2453 C 316.317 2.20997 -6.55446 0
M  V30 2454 O 317.116 2.71895 -5.48509 0
M  V30 2455 C 314.98 2.89693 -6.67988 0
M  V30 2456 H 315.012 3.88793 -6.19859 0
M  V30 2457 H 316.195 1.12046 -6.44229 0
M  V30 2458 H 317.679 1.7746 -8.19711 0
M  V30 2459 H 315.985 3.20706 -9.67112 0
M  V30 2460 H 315.795 0.901032 -10.1892 0
M  V30 2461 H 314.165 1.33049 -9.56592 0
M  V30 2462 H 316.804 3.57847 -5.23962 0
M  V30 2463 P 318.662 3.65191 -7.99657 0
M  V30 2464 O 320.084 3.89332 -8.45794 0
M  V30 2465 O 318.302 2.28472 -7.50807 0
M  V30 2466 O 318.339 4.64972 -6.77611 0
M  V30 2467 C 318.179 6.06319 -7.16352 0
M  V30 2468 C 318.719 6.91731 -6.02299 0
M  V30 2469 O 317.663 6.92449 -5.17064 0
M  V30 2470 C 319.937 6.43627 -5.25174 0
M  V30 2471 O 320.675 7.43686 -4.60469 0
M  V30 2472 C 319.268 5.40275 -4.31916 0
M  V30 2473 O 320.067 5.25279 -3.14438 0
M  V30 2474 C 317.931 6.04847 -4.05327 0
M  V30 2475 H 317.963 6.62195 -3.11261 0
M  V30 2476 H 319.146 4.42556 -4.81383 0
M  V30 2477 H 320.63 5.92458 -5.93643 0
M  V30 2478 H 318.936 7.92655 -6.402 0
M  V30 2479 H 318.746 6.26671 -8.0846 0
M  V30 2480 H 317.116 6.29101 -7.32804 0
M  V30 2481 H 319.755 5.84315 -2.47318 0
M  V30 2482 P 321.612 7.39546 -4.75277 0
M  V30 2483 O 323.034 7.84798 -5.01039 0
M  V30 2484 O 321.252 5.9812 -5.08098 0
M  V30 2485 O 321.289 7.57503 -3.1866 0
M  V30 2486 C 321.129 8.97357 -2.74833 0
M  V30 2487 C 321.669 9.07548 -1.32709 0
M  V30 2488 O 320.613 8.62072 -0.606159 0
M  V30 2489 C 322.887 8.25383 -0.938334 0
M  V30 2490 O 323.625 8.74577 0.146954 0
M  V30 2491 C 322.218 6.8802 -0.712559 0
M  V30 2492 O 323.017 6.1189 0.194655 0
M  V30 2493 C 320.881 7.27966 -0.139777 0
M  V30 2494 H 320.913 7.25354 0.961601 0
M  V30 2495 H 322.096 6.32557 -1.65702 0
M  V30 2496 H 323.58 8.19355 -1.79097 0
M  V30 2497 H 321.886 10.1294 -1.10029 0
M  V30 2498 H 321.696 9.64276 -3.41316 0
M  V30 2499 H 320.066 9.25417 -2.76357 0
M  V30 2500 H 322.705 6.25267 1.07847 0
M  V30 2501 P 324.563 8.791 1.35267e-12 0
M  V30 2502 O 325.985 9.31096 0.027933 0
M  V30 2503 O 324.203 7.77869 -1.04071 0
M  V30 2504 O 324.24 8.09533 1.41463 0
M  V30 2505 C 324.08 9.0349 2.53943 0
M  V30 2506 C 324.62 8.35226 3.79016 0
M  V30 2507 O 323.564 7.57992 4.15078 0
M  V30 2508 C 325.838 7.45087 3.67298 0
M  V30 2509 O 326.576 7.27796 4.85194 0
M  V30 2510 C 325.169 6.17323 3.12027 0
M  V30 2511 O 325.968 5.04231 3.47188 0
M  V30 2512 C 323.832 6.19961 3.81809 0
M  V30 2513 H 323.864 5.58218 4.73051 0
M  V30 2514 H 325.047 6.21726 2.02589 0
M  V30 2515 H 326.531 7.86112 2.9231 0
M  V30 2516 H 324.837 9.11627 4.55076 0
M  V30 2517 H 324.647 9.9573 2.34194 0
M  V30 2518 H 323.017 9.2792 2.67832 0
M  V30 2519 H 325.656 4.67702 4.28772 0
M  V30 2520 P 327.513 7.39546 4.75277 0
M  V30 2521 O 328.935 7.81777 5.05738 0
M  V30 2522 O 327.153 7.1065 3.32998 0
M  V30 2523 O 327.19 6.04542 5.56673 0
M  V30 2524 C 327.03 6.22772 7.02095 0
M  V30 2525 C 327.57 4.97725 7.70406 0
M  V30 2526 O 326.514 4.13256 7.58987 0
M  V30 2527 C 328.788 4.28231 7.11815 0
M  V30 2528 O 329.526 3.49945 8.01648 0
M  V30 2529 C 328.119 3.5063 5.96244 0
M  V30 2530 O 328.918 2.36482 5.64681 0
M  V30 2531 C 326.782 3.15122 6.56374 0
M  V30 2532 H 326.814 2.13853 6.99751 0
M  V30 2533 H 327.997 4.13501 5.06559 0
M  V30 2534 H 329.481 5.03285 6.70911 0
M  V30 2535 H 327.787 5.20877 8.75697 0
M  V30 2536 H 327.597 7.11046 7.35349 0
M  V30 2537 H 325.967 6.35815 7.26986 0
M  V30 2538 H 328.606 1.61644 6.13565 0
M  V30 2539 P 330.464 3.65191 7.99657 0
M  V30 2540 O 331.865 3.90823 8.51272 0
M  V30 2541 O 330.086 4.23191 6.66972 0
M  V30 2542 O 330.141 2.07587 7.95046 0
M  V30 2543 C 329.981 1.44328 9.27336 0
M  V30 2544 C 330.521 0.0220012 9.17097 0
M  V30 2545 O 329.465 -0.626794 8.61824 0
M  V30 2546 C 331.738 -0.24586 8.30336 0
M  V30 2547 O 332.477 -1.39011 8.63583 0
M  V30 2548 C 331.071 -0.273849 6.91158 0
M  V30 2549 O 331.869 -1.06331 6.02794 0
M  V30 2550 C 329.733 -0.897649 7.22545 0
M  V30 2551 N 328.69 -0.292839 6.41732 0
M  V30 2552 C 327.655 -1.08701 5.98712 0
M  V30 2553 O 327.694 -2.31211 6.24471 0
M  V30 2554 N 326.643 -0.533391 5.28415 0
M  V30 2555 C 326.691 0.770866 4.98576 0
M  V30 2556 C 327.787 1.59049 5.38086 0
M  V30 2557 C 328.753 1.01866 6.10256 0
M  V30 2558 H 329.765 -1.98383 7.04189 0
M  V30 2559 H 330.948 0.733318 6.49674 0
M  V30 2560 H 332.432 0.598386 8.36663 0
M  V30 2561 H 330.738 -0.362662 10.1825 0
M  V30 2562 H 330.547 2.00611 10.0304 0
M  V30 2563 H 328.917 1.41828 9.55228 0
M  V30 2564 H 327.835 2.6415 5.10622 0
M  V30 2565 H 329.599 1.61983 6.44042 0
M  V30 2566 H 331.653 -1.97777 6.14035 0
M  V30 2567 P 333.414 -1.25109 8.70152 0
M  V30 2568 O 334.836 -1.35274 9.21221 0
M  V30 2569 O 333.054 -0.0769065 7.84762 0
M  V30 2570 O 333.091 -2.55232 7.81161 0
M  V30 2571 C 332.931 -3.79939 8.58154 0
M  V30 2572 C 333.471 -4.94023 7.72785 0
M  V30 2573 O 332.415 -5.18726 6.91205 0
M  V30 2574 C 334.689 -4.69597 6.85231 0
M  V30 2575 O 335.427 -5.83832 6.51337 0
M  V30 2576 C 334.02 -3.96706 5.66633 0
M  V30 2577 O 334.819 -4.15414 4.49689 0
M  V30 2578 C 332.683 -4.66153 5.59313 0
M  V30 2579 H 332.715 -5.47679 4.85214 0
M  V30 2580 H 333.898 -2.89008 5.86566 0
M  V30 2581 H 335.382 -4.0121 7.36511 0
M  V30 2582 H 333.688 -5.80182 8.37584 0
M  V30 2583 H 333.498 -3.73517 9.52265 0
M  V30 2584 H 331.868 -3.97163 8.80359 0
M  V30 2585 H 334.507 -4.90969 4.01921 0
M  V30 2586 P 336.365 -5.75688 6.64379 0
M  V30 2587 O 337.787 -6.11849 7.01846 0
M  V30 2588 O 336.005 -4.30744 6.56026 0
M  V30 2589 O 336.042 -6.37042 5.19165 0
M  V30 2590 C 335.882 -7.83578 5.16515 0
M  V30 2591 C 336.422 -8.33398 3.83019 0
M  V30 2592 O 335.366 -8.10074 3.01034 0
M  V30 2593 C 337.64 -7.65514 3.2257 0
M  V30 2594 O 338.378 -8.4329 2.32297 0
M  V30 2595 C 336.971 -6.40075 2.62207 0
M  V30 2596 O 337.77 -5.92589 1.53712 0
M  V30 2597 C 335.634 -6.9454 2.18503 0
M  V30 2598 H 335.666 -7.23063 1.12091 0
M  V30 2599 H 336.849 -5.6025 3.37201 0
M  V30 2600 H 338.333 -7.35707 4.02681 0
M  V30 2601 H 336.639 -9.40912 3.9095 0
M  V30 2602 H 336.449 -8.29056 5.99158 0
M  V30 2603 H 334.819 -8.10073 5.25882 0
M  V30 2604 H 337.458 -6.30324 0.726794 0
M  V30 2605 P 339.316 -8.4349 2.47671 0
M  V30 2606 O 340.738 -8.94167 2.5964 0
M  V30 2607 O 338.956 -7.1704 3.19006 0
M  V30 2608 O 338.993 -8.16596 0.923387 0
M  V30 2609 C 338.833 -9.38437 0.108857 0
M  V30 2610 C 339.373 -9.08175 -1.28353 0
M  V30 2611 O 338.317 -8.44229 -1.84713 0
M  V30 2612 C 340.591 -8.18386 -1.42505 0
M  V30 2613 O 341.329 -8.3501 -2.60497 0
M  V30 2614 C 339.922 -6.80225 -1.25468 0
M  V30 2615 O 340.721 -5.81621 -1.91066 0
M  V30 2616 C 338.585 -7.02416 -1.9168 0
M  V30 2617 H 338.617 -6.6888 -2.96621 0
M  V30 2618 H 339.8 -6.53617 -0.192223 0
M  V30 2619 H 341.284 -8.36622 -0.589963 0
M  V30 2620 H 339.59 -10.0291 -1.79807 0
M  V30 2621 H 339.4 -10.2138 0.558219 0
M  V30 2622 H 337.77 -9.6579 0.0444202 0
M  V30 2623 H 340.409 -5.69556 -2.79637 0
M  V30 2624 P 342.266 -8.4349 -2.47671 0
M  V30 2625 O 343.688 -8.92593 -2.65 0
M  V30 2626 O 341.906 -7.7568 -1.19296 0
M  V30 2627 O 341.943 -7.36886 -3.63805 0
M  V30 2628 C 341.783 -7.95349 -4.982 0
M  V30 2629 C 342.323 -6.94612 -5.98974 0
M  V30 2630 O 341.267 -6.10347 -6.11815 0
M  V30 2631 C 343.541 -6.11426 -5.62335 0
M  V30 2632 O 344.279 -5.6162 -6.70584 0
M  V30 2633 C 342.872 -5.04409 -4.73308 0
M  V30 2634 O 343.671 -3.85992 -4.75183 0
M  V30 2635 C 341.535 -4.8728 -5.41006 0
M  V30 2636 H 341.567 -4.02333 -6.11157 0
M  V30 2637 H 342.75 -5.39466 -3.69543 0
M  V30 2638 H 344.234 -6.71916 -5.01943 0
M  V30 2639 H 342.54 -7.4649 -6.93477 0
M  V30 2640 H 342.35 -8.89416 -5.05237 0
M  V30 2641 H 340.72 -8.14876 -5.18409 0
M  V30 2642 H 343.359 -3.27957 -5.4317 0
M  V30 2643 P 345.217 -5.75688 -6.64379 0
M  V30 2644 O 346.639 -6.07627 -7.05504 0
M  V30 2645 O 344.857 -5.88047 -5.19722 0
M  V30 2646 O 344.894 -4.2322 -7.04443 0
M  V30 2647 C 344.734 -3.99743 -8.4911 0
M  V30 2648 C 345.274 -2.60516 -8.79425 0
M  V30 2649 O 344.218 -1.82684 -8.4467 0
M  V30 2650 C 346.492 -2.10343 -8.03628 0
M  V30 2651 O 347.23 -1.09919 -8.67766 0
M  V30 2652 C 345.823 -1.68446 -6.70876 0
M  V30 2653 O 346.622 -0.678137 -6.08433 0
M  V30 2654 C 344.486 -1.17436 -7.18567 0
M  V30 2655 H 344.518 -0.0804732 -7.31656 0
M  V30 2656 H 345.701 -2.54037 -6.02537 0
M  V30 2657 H 347.185 -2.93881 -7.85526 0
M  V30 2658 H 345.491 -2.53065 -9.86973 0
M  V30 2659 H 345.301 -4.75072 -9.05887 0
M  V30 2660 H 343.671 -4.05244 -8.76668 0
M  V30 2661 H 346.31 0.177647 -6.34251 0
M  V30 2662 P 348.167 -1.25109 -8.70152 0
M  V30 2663 O 349.589 -1.29744 -9.22016 0
M  V30 2664 O 347.807 -2.13714 -7.55141 0
M  V30 2665 O 347.844 0.248149 -8.21425 0
M  V30 2666 C 347.684 1.22779 -9.30434 0
M  V30 2667 C 348.224 2.56293 -8.80664 0
M  V30 2668 O 347.168 3.02979 -8.09349 0
M  V30 2669 C 349.442 2.57523 -7.89775 0
M  V30 2670 O 350.18 3.7668 -7.89438 0
M  V30 2671 C 348.773 2.20997 -6.55446 0
M  V30 2672 O 349.572 2.71895 -5.48509 0
M  V30 2673 C 347.436 2.89693 -6.67988 0
M  V30 2674 H 347.468 3.88793 -6.19859 0
M  V30 2675 H 348.651 1.12046 -6.44229 0
M  V30 2676 H 350.135 1.7746 -8.19711 0
M  V30 2677 H 348.441 3.20706 -9.67112 0
M  V30 2678 H 348.251 0.901032 -10.1892 0
M  V30 2679 H 346.621 1.33049 -9.56592 0
M  V30 2680 H 349.26 3.57847 -5.23962 0
M  V30 2681 P 351.118 3.65191 -7.99657 0
M  V30 2682 O 352.54 3.89332 -8.45794 0
M  V30 2683 O 350.758 2.28472 -7.50807 0
M  V30 2684 O 350.795 4.64972 -6.77611 0
M  V30 2685 C 350.635 6.06319 -7.16352 0
M  V30 2686 C 351.175 6.91731 -6.02299 0
M  V30 2687 O 350.119 6.92449 -5.17064 0
M  V30 2688 C 352.393 6.43627 -5.25174 0
M  V30 2689 O 353.131 7.43686 -4.60469 0
M  V30 2690 C 351.724 5.40275 -4.31916 0
M  V30 2691 O 352.523 5.25279 -3.14438 0
M  V30 2692 C 350.387 6.04847 -4.05327 0
M  V30 2693 H 350.419 6.62195 -3.11261 0
M  V30 2694 H 351.602 4.42556 -4.81383 0
M  V30 2695 H 353.086 5.92458 -5.93643 0
M  V30 2696 H 351.392 7.92655 -6.402 0
M  V30 2697 H 351.202 6.26671 -8.0846 0
M  V30 2698 H 349.572 6.29101 -7.32804 0
M  V30 2699 H 352.211 5.84315 -2.47318 0
M  V30 2700 P 354.068 7.39546 -4.75277 0
M  V30 2701 O 355.49 7.84798 -5.01039 0
M  V30 2702 O 353.708 5.9812 -5.08098 0
M  V30 2703 O 353.745 7.57503 -3.1866 0
M  V30 2704 C 353.585 8.97357 -2.74833 0
M  V30 2705 C 354.125 9.07548 -1.32709 0
M  V30 2706 O 353.069 8.62072 -0.606159 0
M  V30 2707 C 355.343 8.25383 -0.938334 0
M  V30 2708 O 356.081 8.74577 0.146954 0
M  V30 2709 C 354.674 6.8802 -0.712559 0
M  V30 2710 O 355.473 6.1189 0.194655 0
M  V30 2711 C 353.337 7.27966 -0.139777 0
M  V30 2712 H 353.369 7.25354 0.961601 0
M  V30 2713 H 354.552 6.32557 -1.65702 0
M  V30 2714 H 356.036 8.19355 -1.79097 0
M  V30 2715 H 354.342 10.1294 -1.10029 0
M  V30 2716 H 354.152 9.64276 -3.41316 0
M  V30 2717 H 352.522 9.25417 -2.76357 0
M  V30 2718 H 355.161 6.25267 1.07847 0
M  V30 2719 P 357.019 8.791 1.66284e-12 0
M  V30 2720 O 358.441 9.31096 0.027933 0
M  V30 2721 O 356.659 7.77869 -1.04071 0
M  V30 2722 O 356.696 8.09533 1.41463 0
M  V30 2723 C 356.536 9.0349 2.53943 0
M  V30 2724 C 357.076 8.35226 3.79016 0
M  V30 2725 O 356.02 7.57992 4.15078 0
M  V30 2726 C 358.294 7.45087 3.67298 0
M  V30 2727 O 359.032 7.27796 4.85194 0
M  V30 2728 C 357.625 6.17323 3.12027 0
M  V30 2729 O 358.424 5.04231 3.47188 0
M  V30 2730 C 356.288 6.19961 3.81809 0
M  V30 2731 H 356.32 5.58218 4.73051 0
M  V30 2732 H 357.503 6.21726 2.02589 0
M  V30 2733 H 358.987 7.86112 2.9231 0
M  V30 2734 H 357.293 9.11627 4.55076 0
M  V30 2735 H 357.103 9.9573 2.34194 0
M  V30 2736 H 355.473 9.2792 2.67832 0
M  V30 2737 H 358.112 4.67702 4.28772 0
M  V30 2738 P 359.97 7.39546 4.75277 0
M  V30 2739 O 361.392 7.81777 5.05738 0
M  V30 2740 O 359.61 7.1065 3.32998 0
M  V30 2741 O 359.647 6.04542 5.56673 0
M  V30 2742 C 359.487 6.22772 7.02095 0
M  V30 2743 C 360.027 4.97725 7.70406 0
M  V30 2744 O 358.971 4.13256 7.58987 0
M  V30 2745 C 361.245 4.28231 7.11815 0
M  V30 2746 O 361.983 3.49945 8.01648 0
M  V30 2747 C 360.576 3.5063 5.96244 0
M  V30 2748 O 361.375 2.36482 5.64681 0
M  V30 2749 C 359.239 3.15122 6.56374 0
M  V30 2750 H 359.271 2.13853 6.99751 0
M  V30 2751 H 360.454 4.13501 5.06559 0
M  V30 2752 H 361.938 5.03285 6.70911 0
M  V30 2753 H 360.244 5.20877 8.75697 0
M  V30 2754 H 360.054 7.11046 7.35349 0
M  V30 2755 H 358.424 6.35815 7.26986 0
M  V30 2756 H 361.063 1.61644 6.13565 0
M  V30 2757 P 362.92 3.65191 7.99657 0
M  V30 2758 O 364.342 3.8425 8.48115 0
M  V30 2759 O 362.56 4.17805 6.64342 0
M  V30 2760 O 362.597 2.07613 7.95143 0
M  V30 2761 C 362.437 1.44328 9.27336 0
M  V30 2762 C 362.977 0.0220036 9.17197 0
M  V30 2763 O 361.921 -0.626867 8.61923 0
M  V30 2764 C 364.195 -0.24586 8.30336 0
M  V30 2765 O 364.933 -1.39011 8.63583 0
M  V30 2766 C 363.526 -0.273849 6.91158 0
M  V30 2767 O 364.325 -1.06348 6.02892 0
M  V30 2768 C 362.189 -0.897649 7.22545 0
M  V30 2769 H 362.221 -1.9841 7.04286 0
M  V30 2770 H 363.404 0.739928 6.497 0
M  V30 2771 H 364.888 0.60668 8.36503 0
M  V30 2772 H 363.194 -0.352479 10.1829 0
M  V30 2773 H 363.004 2.00611 10.0304 0
M  V30 2774 H 361.374 1.41843 9.55327 0
M  V30 2775 H 364.013 -1.95734 6.03555 0
M  V30 2776 P 365.871 -1.25109 8.70152 0
M  V30 2777 O 367.293 -1.35274 9.21221 0
M  V30 2778 O 365.511 -0.0769065 7.84762 0
M  V30 2779 O 365.548 -2.55232 7.81161 0
M  V30 2780 C 365.388 -3.79939 8.58154 0
M  V30 2781 C 365.928 -4.94023 7.72785 0
M  V30 2782 O 364.872 -5.18726 6.91205 0
M  V30 2783 C 367.146 -4.69597 6.85231 0
M  V30 2784 O 367.884 -5.83832 6.51337 0
M  V30 2785 C 366.477 -3.96706 5.66633 0
M  V30 2786 O 367.276 -4.15414 4.49689 0
M  V30 2787 C 365.14 -4.66153 5.59313 0
M  V30 2788 H 365.172 -5.47679 4.85214 0
M  V30 2789 H 366.355 -2.89008 5.86566 0
M  V30 2790 H 367.839 -4.0121 7.36511 0
M  V30 2791 H 366.145 -5.80182 8.37584 0
M  V30 2792 H 365.955 -3.73517 9.52265 0
M  V30 2793 H 364.325 -3.97163 8.80359 0
M  V30 2794 H 366.964 -4.90969 4.01921 0
M  V30 2795 P 368.821 -5.75688 6.64379 0
M  V30 2796 O 370.243 -6.11849 7.01846 0
M  V30 2797 O 368.461 -4.30744 6.56026 0
M  V30 2798 O 368.498 -6.37042 5.19165 0
M  V30 2799 C 368.338 -7.83578 5.16515 0
M  V30 2800 C 368.878 -8.33398 3.83019 0
M  V30 2801 O 367.822 -8.10074 3.01034 0
M  V30 2802 C 370.096 -7.65514 3.2257 0
M  V30 2803 O 370.834 -8.4329 2.32297 0
M  V30 2804 C 369.427 -6.40075 2.62207 0
M  V30 2805 O 370.226 -5.92589 1.53712 0
M  V30 2806 C 368.09 -6.9454 2.18503 0
M  V30 2807 H 368.122 -7.23063 1.12091 0
M  V30 2808 H 369.305 -5.6025 3.37201 0
M  V30 2809 H 370.789 -7.35707 4.02681 0
M  V30 2810 H 369.095 -9.40912 3.9095 0
M  V30 2811 H 368.905 -8.29056 5.99158 0
M  V30 2812 H 367.275 -8.10073 5.25882 0
M  V30 2813 H 369.914 -6.30324 0.726794 0
M  V30 2814 P 371.772 -8.4349 2.47671 0
M  V30 2815 O 373.194 -8.94167 2.5964 0
M  V30 2816 O 371.412 -7.1704 3.19006 0
M  V30 2817 O 371.449 -8.16596 0.923387 0
M  V30 2818 C 371.289 -9.38437 0.108857 0
M  V30 2819 C 371.829 -9.08175 -1.28353 0
M  V30 2820 O 370.773 -8.44229 -1.84713 0
M  V30 2821 C 373.047 -8.18386 -1.42505 0
M  V30 2822 O 373.785 -8.3501 -2.60497 0
M  V30 2823 C 372.378 -6.80225 -1.25468 0
M  V30 2824 O 373.177 -5.81621 -1.91066 0
M  V30 2825 C 371.041 -7.02416 -1.9168 0
M  V30 2826 H 371.073 -6.6888 -2.96621 0
M  V30 2827 H 372.256 -6.53617 -0.192223 0
M  V30 2828 H 373.74 -8.36622 -0.589963 0
M  V30 2829 H 372.046 -10.0291 -1.79807 0
M  V30 2830 H 371.856 -10.2138 0.558219 0
M  V30 2831 H 370.226 -9.6579 0.0444202 0
M  V30 2832 H 372.865 -5.69556 -2.79637 0
M  V30 2833 P 374.722 -8.4349 -2.47671 0
M  V30 2834 O 376.144 -8.92593 -2.65 0
M  V30 2835 O 374.362 -7.7568 -1.19296 0
M  V30 2836 O 374.399 -7.36886 -3.63805 0
M  V30 2837 C 374.239 -7.95349 -4.982 0
M  V30 2838 C 374.779 -6.94612 -5.98974 0
M  V30 2839 O 373.723 -6.10347 -6.11815 0
M  V30 2840 C 375.997 -6.11426 -5.62335 0
M  V30 2841 O 376.735 -5.6162 -6.70584 0
M  V30 2842 C 375.328 -5.04409 -4.73308 0
M  V30 2843 O 376.127 -3.85992 -4.75183 0
M  V30 2844 C 373.991 -4.8728 -5.41006 0
M  V30 2845 H 374.023 -4.02333 -6.11157 0
M  V30 2846 H 375.206 -5.39466 -3.69543 0
M  V30 2847 H 376.69 -6.71916 -5.01943 0
M  V30 2848 H 374.996 -7.4649 -6.93477 0
M  V30 2849 H 374.806 -8.89416 -5.05237 0
M  V30 2850 H 373.176 -8.14876 -5.18409 0
M  V30 2851 H 375.815 -3.27957 -5.4317 0
M  V30 2852 P 377.673 -5.75688 -6.64379 0
M  V30 2853 O 379.095 -6.07627 -7.05504 0
M  V30 2854 O 377.313 -5.88047 -5.19722 0
M  V30 2855 O 377.35 -4.2322 -7.04443 0
M  V30 2856 C 377.19 -3.99743 -8.4911 0
M  V30 2857 C 377.73 -2.60516 -8.79425 0
M  V30 2858 O 376.674 -1.82684 -8.4467 0
M  V30 2859 C 378.948 -2.10343 -8.03628 0
M  V30 2860 O 379.686 -1.09919 -8.67766 0
M  V30 2861 C 378.279 -1.68446 -6.70876 0
M  V30 2862 O 379.078 -0.678137 -6.08433 0
M  V30 2863 C 376.942 -1.17436 -7.18567 0
M  V30 2864 H 376.974 -0.0804732 -7.31656 0
M  V30 2865 H 378.157 -2.54037 -6.02537 0
M  V30 2866 H 379.641 -2.93881 -7.85526 0
M  V30 2867 H 377.947 -2.53065 -9.86973 0
M  V30 2868 H 377.757 -4.75072 -9.05887 0
M  V30 2869 H 376.127 -4.05244 -8.76668 0
M  V30 2870 H 378.766 0.177647 -6.34251 0
M  V30 2871 P 380.624 -1.25109 -8.70152 0
M  V30 2872 O 382.046 -1.29744 -9.22016 0
M  V30 2873 O 380.264 -2.13714 -7.55141 0
M  V30 2874 O 380.301 0.248149 -8.21425 0
M  V30 2875 C 380.141 1.22779 -9.30434 0
M  V30 2876 C 380.681 2.56293 -8.80664 0
M  V30 2877 O 379.625 3.02979 -8.09349 0
M  V30 2878 C 381.899 2.57523 -7.89775 0
M  V30 2879 O 382.637 3.7668 -7.89438 0
M  V30 2880 C 381.23 2.20997 -6.55446 0
M  V30 2881 O 382.029 2.71895 -5.48509 0
M  V30 2882 C 379.893 2.89693 -6.67988 0
M  V30 2883 H 379.925 3.88793 -6.19859 0
M  V30 2884 H 381.108 1.12046 -6.44229 0
M  V30 2885 H 382.592 1.7746 -8.19711 0
M  V30 2886 H 380.898 3.20706 -9.67112 0
M  V30 2887 H 380.708 0.901032 -10.1892 0
M  V30 2888 H 379.078 1.33049 -9.56592 0
M  V30 2889 H 381.717 3.57847 -5.23962 0
M  V30 2890 P 383.574 3.65191 -7.99657 0
M  V30 2891 O 384.996 3.89332 -8.45794 0
M  V30 2892 O 383.214 2.28472 -7.50807 0
M  V30 2893 O 383.251 4.64972 -6.77611 0
M  V30 2894 C 383.091 6.06319 -7.16352 0
M  V30 2895 C 383.631 6.91731 -6.02299 0
M  V30 2896 O 382.575 6.92449 -5.17064 0
M  V30 2897 C 384.849 6.43627 -5.25174 0
M  V30 2898 O 385.587 7.43686 -4.60469 0
M  V30 2899 C 384.18 5.40275 -4.31916 0
M  V30 2900 O 384.979 5.25279 -3.14438 0
M  V30 2901 C 382.843 6.04847 -4.05327 0
M  V30 2902 H 382.875 6.62195 -3.11261 0
M  V30 2903 H 384.058 4.42556 -4.81383 0
M  V30 2904 H 385.542 5.92458 -5.93643 0
M  V30 2905 H 383.848 7.92655 -6.402 0
M  V30 2906 H 383.658 6.26671 -8.0846 0
M  V30 2907 H 382.028 6.29101 -7.32804 0
M  V30 2908 H 384.667 5.84315 -2.47318 0
M  V30 2909 P 386.525 7.39546 -4.75277 0
M  V30 2910 O 387.947 7.84798 -5.01039 0
M  V30 2911 O 386.165 5.9812 -5.08098 0
M  V30 2912 O 386.202 7.57503 -3.1866 0
M  V30 2913 C 386.042 8.97357 -2.74833 0
M  V30 2914 C 386.582 9.07548 -1.32709 0
M  V30 2915 O 385.526 8.62072 -0.606159 0
M  V30 2916 C 387.8 8.25383 -0.938334 0
M  V30 2917 O 388.538 8.74577 0.146954 0
M  V30 2918 C 387.131 6.8802 -0.712559 0
M  V30 2919 O 387.93 6.1189 0.194655 0
M  V30 2920 C 385.794 7.27966 -0.139777 0
M  V30 2921 H 385.826 7.25354 0.961601 0
M  V30 2922 H 387.009 6.32557 -1.65702 0
M  V30 2923 H 388.493 8.19355 -1.79097 0
M  V30 2924 H 386.799 10.1294 -1.10029 0
M  V30 2925 H 386.609 9.64276 -3.41316 0
M  V30 2926 H 384.979 9.25417 -2.76357 0
M  V30 2927 H 387.618 6.25267 1.07847 0
M  V30 2928 P 389.475 8.791 1.973e-12 0
M  V30 2929 O 390.896 9.31196 0.027936 0
M  V30 2930 O 389.115 7.77869 -1.04071 0
M  V30 2931 O 389.152 8.09533 1.41463 0
M  V30 2932 C 388.991 9.03587 2.5397 0
M  V30 2933 C 389.532 8.35226 3.79016 0
M  V30 2934 O 388.477 7.57904 4.1503 0
M  V30 2935 C 390.75 7.45087 3.67298 0
M  V30 2936 O 391.488 7.27796 4.85194 0
M  V30 2937 C 390.082 6.17323 3.12027 0
M  V30 2938 O 390.88 5.04496 3.46627 0
M  V30 2939 C 388.744 6.19961 3.81809 0
M  V30 2940 N 387.701 5.71575 2.93223 0
M  V30 2941 C 387.87 5.77362 1.59168 0
M  V30 2942 N 386.843 5.3123 0.911893 0
M  V30 2943 C 385.958 4.91717 1.89588 0
M  V30 2944 C 384.691 4.3114 1.8076 0
M  V30 2945 N 384.092 3.99821 0.632928 0
M  V30 2946 N 384.126 4.06823 3.02898 0
M  V30 2947 C 384.728 4.35062 4.22711 0
M  V30 2948 N 385.905 4.90805 4.35707 0
M  V30 2949 C 386.48 5.16382 3.14469 0
M  V30 2950 H 388.776 5.58142 4.72986 0
M  V30 2951 H 389.959 6.21428 2.0318 0
M  V30 2952 H 391.442 7.86112 2.9231 0
M  V30 2953 H 389.748 9.11171 4.55987 0
M  V30 2954 H 389.558 9.9573 2.34194 0
M  V30 2955 H 387.928 9.2792 2.67832 0
M  V30 2956 H 384.192 4.09052 5.13359 0
M  V30 2957 H 388.77 6.16575 1.12198 0
M  V30 2958 H 383.162 3.55423 0.632085 0
M  V30 2959 H 384.566 4.20317 -0.256712 0
M  V30 2960 H 390.568 4.67628 4.28704 0
M  V30 2961 P 392.426 7.39546 4.75277 0
M  V30 2962 O 393.848 7.81777 5.05738 0
M  V30 2963 O 392.066 7.1065 3.32998 0
M  V30 2964 O 392.103 6.04542 5.56673 0
M  V30 2965 C 391.943 6.22772 7.02095 0
M  V30 2966 C 392.483 4.97725 7.70406 0
M  V30 2967 O 391.427 4.13256 7.58987 0
M  V30 2968 C 393.701 4.28231 7.11815 0
M  V30 2969 O 394.439 3.49945 8.01648 0
M  V30 2970 C 393.032 3.5063 5.96244 0
M  V30 2971 O 393.831 2.36482 5.64681 0
M  V30 2972 C 391.695 3.15122 6.56374 0
M  V30 2973 H 391.727 2.13853 6.99751 0
M  V30 2974 H 392.91 4.13501 5.06559 0
M  V30 2975 H 394.394 5.03285 6.70911 0
M  V30 2976 H 392.7 5.20877 8.75697 0
M  V30 2977 H 392.51 7.11046 7.35349 0
M  V30 2978 H 390.88 6.35815 7.26986 0
M  V30 2979 H 393.519 1.61644 6.13565 0
M  V30 2980 P 395.376 3.65191 7.99657 0
M  V30 2981 O 396.798 3.8425 8.48115 0
M  V30 2982 O 395.016 4.17805 6.64342 0
M  V30 2983 O 395.053 2.07613 7.95143 0
M  V30 2984 C 394.893 1.44328 9.27336 0
M  V30 2985 C 395.433 0.0220036 9.17197 0
M  V30 2986 O 394.377 -0.626867 8.61923 0
M  V30 2987 C 396.651 -0.24586 8.30336 0
M  V30 2988 O 397.389 -1.39011 8.63583 0
M  V30 2989 C 395.982 -0.273849 6.91158 0
M  V30 2990 O 396.781 -1.06348 6.02892 0
M  V30 2991 C 394.645 -0.897649 7.22545 0
M  V30 2992 H 394.677 -1.9841 7.04286 0
M  V30 2993 H 395.86 0.739928 6.497 0
M  V30 2994 H 397.344 0.60668 8.36503 0
M  V30 2995 H 395.65 -0.352479 10.1829 0
M  V30 2996 H 395.46 2.00611 10.0304 0
M  V30 2997 H 393.83 1.41843 9.55327 0
M  V30 2998 H 396.469 -1.95734 6.03555 0
M  V30 2999 P 398.327 -1.25109 8.70152 0
M  V30 3000 O 399.749 -1.35274 9.21221 0
M  V30 3001 O 397.967 -0.0769065 7.84762 0
M  V30 3002 O 398.004 -2.55232 7.81161 0
M  V30 3003 C 397.844 -3.79939 8.58154 0
M  V30 3004 C 398.384 -4.94023 7.72785 0
M  V30 3005 O 397.328 -5.18726 6.91205 0
M  V30 3006 C 399.602 -4.69597 6.85231 0
M  V30 3007 O 400.34 -5.83832 6.51337 0
M  V30 3008 C 398.933 -3.96706 5.66633 0
M  V30 3009 O 399.732 -4.15414 4.49689 0
M  V30 3010 C 397.596 -4.66153 5.59313 0
M  V30 3011 H 397.628 -5.47679 4.85214 0
M  V30 3012 H 398.811 -2.89008 5.86566 0
M  V30 3013 H 400.295 -4.0121 7.36511 0
M  V30 3014 H 398.601 -5.80182 8.37584 0
M  V30 3015 H 398.411 -3.73517 9.52265 0
M  V30 3016 H 396.781 -3.97163 8.80359 0
M  V30 3017 H 399.42 -4.90969 4.01921 0
M  V30 3018 P 401.278 -5.75688 6.64379 0
M  V30 3019 O 402.7 -6.11849 7.01846 0
M  V30 3020 O 400.918 -4.30744 6.56026 0
M  V30 3021 O 400.955 -6.37042 5.19165 0
M  V30 3022 C 400.795 -7.83578 5.16515 0
M  V30 3023 C 401.335 -8.33398 3.83019 0
M  V30 3024 O 400.279 -8.10074 3.01034 0
M  V30 3025 C 402.553 -7.65514 3.2257 0
M  V30 3026 O 403.291 -8.4329 2.32297 0
M  V30 3027 C 401.884 -6.40075 2.62207 0
M  V30 3028 O 402.683 -5.92589 1.53712 0
M  V30 3029 C 400.547 -6.9454 2.18503 0
M  V30 3030 H 400.579 -7.23063 1.12091 0
M  V30 3031 H 401.762 -5.6025 3.37201 0
M  V30 3032 H 403.246 -7.35707 4.02681 0
M  V30 3033 H 401.552 -9.40912 3.9095 0
M  V30 3034 H 401.362 -8.29056 5.99158 0
M  V30 3035 H 399.732 -8.10073 5.25882 0
M  V30 3036 H 402.371 -6.30324 0.726794 0
M  V30 3037 P 404.228 -8.4349 2.47671 0
M  V30 3038 O 405.649 -8.94263 2.59668 0
M  V30 3039 O 403.868 -7.1704 3.19006 0
M  V30 3040 O 403.905 -8.16596 0.923387 0
M  V30 3041 C 403.744 -9.38537 0.108869 0
M  V30 3042 C 404.285 -9.08175 -1.28353 0
M  V30 3043 O 403.23 -8.44131 -1.84692 0
M  V30 3044 C 405.503 -8.18386 -1.42505 0
M  V30 3045 O 406.241 -8.3501 -2.60497 0
M  V30 3046 C 404.835 -6.80225 -1.25468 0
M  V30 3047 O 405.633 -5.81716 -1.90454 0
M  V30 3048 C 403.497 -7.02416 -1.9168 0
M  V30 3049 N 402.454 -6.31033 -1.20314 0
M  V30 3050 C 402.623 -5.98817 0.0994088 0
M  V30 3051 N 401.596 -5.35403 0.621694 0
M  V30 3052 C 400.711 -5.25212 -0.43376 0
M  V30 3053 C 399.444 -4.64602 -0.519722 0
M  V30 3054 N 398.879 -4.7568 -1.76013 0
M  V30 3055 C 399.481 -5.3653 -2.83017 0
M  V30 3056 N 400.658 -5.93676 -2.79782 0
M  V30 3057 C 401.233 -5.84061 -1.56249 0
M  V30 3058 H 404.712 -6.53498 -0.198729 0
M  V30 3059 H 406.195 -8.36622 -0.589963 0
M  V30 3060 H 404.501 -10.0273 -1.8081 0
M  V30 3061 H 404.311 -10.2138 0.558219 0
M  V30 3062 H 402.681 -9.6579 0.0444202 0
M  V30 3063 H 403.523 -6.23209 0.660562 0
M  V30 3064 H 405.321 -5.69466 -2.79593 0
M  V30 3065 P 407.179 -8.4349 -2.47671 0
M  V30 3066 O 408.601 -8.92593 -2.65 0
M  V30 3067 O 406.819 -7.7568 -1.19296 0
M  V30 3068 O 406.856 -7.36886 -3.63805 0
M  V30 3069 C 406.696 -7.95349 -4.982 0
M  V30 3070 C 407.236 -6.94612 -5.98974 0
M  V30 3071 O 406.18 -6.10347 -6.11815 0
M  V30 3072 C 408.454 -6.11426 -5.62335 0
M  V30 3073 O 409.192 -5.6162 -6.70584 0
M  V30 3074 C 407.785 -5.04409 -4.73308 0
M  V30 3075 O 408.584 -3.85992 -4.75183 0
M  V30 3076 C 406.448 -4.8728 -5.41006 0
M  V30 3077 H 406.48 -4.02333 -6.11157 0
M  V30 3078 H 407.663 -5.39466 -3.69543 0
M  V30 3079 H 409.147 -6.71916 -5.01943 0
M  V30 3080 H 407.453 -7.4649 -6.93477 0
M  V30 3081 H 407.263 -8.89416 -5.05237 0
M  V30 3082 H 405.633 -8.14876 -5.18409 0
M  V30 3083 H 408.272 -3.27957 -5.4317 0
M  V30 3084 P 410.129 -5.75688 -6.64379 0
M  V30 3085 O 411.551 -6.07627 -7.05504 0
M  V30 3086 O 409.769 -5.88047 -5.19722 0
M  V30 3087 O 409.806 -4.2322 -7.04443 0
M  V30 3088 C 409.646 -3.99743 -8.4911 0
M  V30 3089 C 410.186 -2.60516 -8.79425 0
M  V30 3090 O 409.13 -1.82684 -8.4467 0
M  V30 3091 C 411.404 -2.10343 -8.03628 0
M  V30 3092 O 412.142 -1.09919 -8.67766 0
M  V30 3093 C 410.735 -1.68446 -6.70876 0
M  V30 3094 O 411.534 -0.678137 -6.08433 0
M  V30 3095 C 409.398 -1.17436 -7.18567 0
M  V30 3096 H 409.43 -0.0804732 -7.31656 0
M  V30 3097 H 410.613 -2.54037 -6.02537 0
M  V30 3098 H 412.097 -2.93881 -7.85526 0
M  V30 3099 H 410.403 -2.53065 -9.86973 0
M  V30 3100 H 410.213 -4.75072 -9.05887 0
M  V30 3101 H 408.583 -4.05244 -8.76668 0
M  V30 3102 H 411.222 0.177647 -6.34251 0
M  V30 3103 P 413.08 -1.25109 -8.70152 0
M  V30 3104 O 414.502 -1.29772 -9.22214 0
M  V30 3105 O 412.72 -2.13714 -7.55141 0
M  V30 3106 O 412.757 0.248149 -8.21425 0
M  V30 3107 C 412.597 1.22779 -9.30434 0
M  V30 3108 C 413.137 2.56265 -8.80568 0
M  V30 3109 O 412.082 3.02979 -8.09349 0
M  V30 3110 C 414.355 2.57523 -7.89775 0
M  V30 3111 O 415.093 3.7668 -7.89438 0
M  V30 3112 C 413.687 2.20997 -6.55446 0
M  V30 3113 O 414.485 2.71851 -5.48419 0
M  V30 3114 C 412.349 2.89693 -6.67988 0
M  V30 3115 N 411.306 2.08895 -6.07487 0
M  V30 3116 C 411.368 0.760559 -6.14209 0
M  V30 3117 N 410.323 0.200108 -5.52538 0
M  V30 3118 C 409.589 1.22692 -5.09742 0
M  V30 3119 C 408.283 1.24782 -4.48775 0
M  V30 3120 O 407.55 0.290617 -4.19294 0
M  V30 3121 N 407.853 2.50468 -4.22428 0
M  V30 3122 C 408.602 3.67142 -4.51974 0
M  V30 3123 N 408.005 4.85096 -4.14091 0
M  V30 3124 N 409.755 3.67821 -5.12831 0
M  V30 3125 C 410.212 2.43698 -5.4105 0
M  V30 3126 H 412.381 3.88793 -6.19859 0
M  V30 3127 H 413.564 1.12029 -6.4413 0
M  V30 3128 H 415.049 1.78279 -8.19533 0
M  V30 3129 H 413.354 3.20706 -9.67112 0
M  V30 3130 H 413.164 0.901032 -10.1892 0
M  V30 3131 H 411.533 1.33049 -9.56592 0
M  V30 3132 H 406.957 2.61953 -3.79465 0
M  V30 3133 H 412.164 0.200439 -6.63497 0
M  V30 3134 H 407.094 4.8334 -3.66367 0
M  V30 3135 H 408.47 5.7474 -4.33841 0
M  V30 3136 H 414.174 3.5779 -5.23879 0
M  V30 3137 P 416.03 3.65191 -7.99657 0
M  V30 3138 O 417.452 3.89332 -8.45794 0
M  V30 3139 O 415.67 2.28472 -7.50807 0
M  V30 3140 O 415.707 4.64972 -6.77611 0
M  V30 3141 C 415.547 6.06319 -7.16352 0
M  V30 3142 C 416.087 6.91731 -6.02299 0
M  V30 3143 O 415.031 6.92449 -5.17064 0
M  V30 3144 C 417.305 6.43627 -5.25174 0
M  V30 3145 O 418.043 7.43686 -4.60469 0
M  V30 3146 C 416.636 5.40275 -4.31916 0
M  V30 3147 O 417.435 5.25279 -3.14438 0
M  V30 3148 C 415.299 6.04847 -4.05327 0
M  V30 3149 H 415.331 6.62195 -3.11261 0
M  V30 3150 H 416.514 4.42556 -4.81383 0
M  V30 3151 H 417.998 5.92458 -5.93643 0
M  V30 3152 H 416.304 7.92655 -6.402 0
M  V30 3153 H 416.114 6.26671 -8.0846 0
M  V30 3154 H 414.484 6.29101 -7.32804 0
M  V30 3155 H 417.123 5.84315 -2.47318 0
M  V30 3156 P 418.981 7.39546 -4.75277 0
M  V30 3157 O 420.403 7.84798 -5.01039 0
M  V30 3158 O 418.621 5.9812 -5.08098 0
M  V30 3159 O 418.658 7.57503 -3.1866 0
M  V30 3160 C 418.498 8.97357 -2.74833 0
M  V30 3161 C 419.038 9.07548 -1.32709 0
M  V30 3162 O 417.982 8.62072 -0.606159 0
M  V30 3163 C 420.256 8.25383 -0.938334 0
M  V30 3164 O 420.994 8.74577 0.146954 0
M  V30 3165 C 419.587 6.8802 -0.712559 0
M  V30 3166 O 420.386 6.1189 0.194655 0
M  V30 3167 C 418.25 7.27966 -0.139777 0
M  V30 3168 H 418.282 7.25354 0.961601 0
M  V30 3169 H 419.465 6.32557 -1.65702 0
M  V30 3170 H 420.949 8.19355 -1.79097 0
M  V30 3171 H 419.255 10.1294 -1.10029 0
M  V30 3172 H 419.065 9.64276 -3.41316 0
M  V30 3173 H 417.435 9.25417 -2.76357 0
M  V30 3174 H 420.074 6.25267 1.07847 0
M  V30 3175 P 421.932 8.791 2.28317e-12 0
M  V30 3176 O 423.333 9.36698 -0.018734 0
M  V30 3177 O 421.554 7.82499 -1.07878 0
M  V30 3178 O 421.609 8.09434 1.41446 0
M  V30 3179 C 421.449 9.0349 2.53943 0
M  V30 3180 C 421.989 8.35135 3.78975 0
M  V30 3181 O 420.933 7.57904 4.1503 0
M  V30 3182 C 423.206 7.45087 3.67298 0
M  V30 3183 O 423.945 7.27796 4.85194 0
M  V30 3184 C 422.539 6.17323 3.12027 0
M  V30 3185 O 423.337 5.04149 3.47132 0
M  V30 3186 C 421.201 6.19961 3.81809 0
M  V30 3187 N 420.158 5.71575 2.93223 0
M  V30 3188 C 419.123 4.99452 3.47592 0
M  V30 3189 O 419.162 4.7199 4.69732 0
M  V30 3190 N 418.111 4.58505 2.6803 0
M  V30 3191 C 418.159 4.85544 1.36995 0
M  V30 3192 C 419.255 5.55532 0.788532 0
M  V30 3193 C 420.221 5.97426 1.60849 0
M  V30 3194 H 421.233 5.58142 4.72986 0
M  V30 3195 H 422.416 6.21428 2.0318 0
M  V30 3196 H 423.9 7.85913 2.93131 0
M  V30 3197 H 422.206 9.11171 4.55987 0
M  V30 3198 H 422.015 9.9573 2.34194 0
M  V30 3199 H 420.385 9.27824 2.67805 0
M  V30 3200 H 419.303 5.7421 -0.281588 0
M  V30 3201 H 421.067 6.53132 1.202 0
M  V30 3202 H 423.121 4.76386 4.34983 0
M  V30 3203 P 424.882 7.39546 4.75277 0
M  V30 3204 O 426.283 7.89013 5.04841 0
M  V30 3205 O 424.504 7.16603 3.32298 0
M  V30 3206 O 424.559 6.04468 5.56605 0
M  V30 3207 C 424.399 6.22772 7.02095 0
M  V30 3208 C 424.939 4.97671 7.70322 0
M  V30 3209 O 423.883 4.13208 7.58899 0
M  V30 3210 C 426.156 4.28231 7.11815 0
M  V30 3211 O 426.895 3.49945 8.01648 0
M  V30 3212 C 425.489 3.5063 5.96244 0
M  V30 3213 O 426.287 2.36443 5.64589 0
M  V30 3214 C 424.151 3.15122 6.56374 0
M  V30 3215 N 423.108 3.22311 5.55692 0
M  V30 3216 C 422.073 2.32244 5.62437 0
M  V30 3217 O 422.112 1.43107 6.50341 0
M  V30 3218 N 421.061 2.40811 4.73368 0
M  V30 3219 C 421.109 3.344 3.77753 0
M  V30 3220 C 422.205 4.24712 3.66679 0
M  V30 3221 C 423.171 4.15625 4.58307 0
M  V30 3222 H 424.183 2.13823 6.99656 0
M  V30 3223 H 425.366 4.12931 5.06895 0
M  V30 3224 H 426.85 5.02674 6.71494 0
M  V30 3225 H 425.156 5.20001 8.76217 0
M  V30 3226 H 424.965 7.11046 7.35349 0
M  V30 3227 H 423.335 6.35749 7.26911 0
M  V30 3228 H 422.253 4.9828 2.86753 0
M  V30 3229 H 424.017 4.84464 4.54228 0
M  V30 3230 H 426.071 1.65592 6.23485 0
M  V30 3231 P 427.833 3.65191 7.99657 0
M  V30 3232 O 429.255 3.8425 8.48115 0
M  V30 3233 O 427.473 4.17805 6.64342 0
M  V30 3234 O 427.51 2.07613 7.95143 0
M  V30 3235 C 427.35 1.44328 9.27336 0
M  V30 3236 C 427.89 0.0220036 9.17197 0
M  V30 3237 O 426.834 -0.626867 8.61923 0
M  V30 3238 C 429.108 -0.24586 8.30336 0
M  V30 3239 O 429.846 -1.39011 8.63583 0
M  V30 3240 C 428.439 -0.273849 6.91158 0
M  V30 3241 O 429.238 -1.06348 6.02892 0
M  V30 3242 C 427.102 -0.897649 7.22545 0
M  V30 3243 H 427.134 -1.9841 7.04286 0
M  V30 3244 H 428.317 0.739928 6.497 0
M  V30 3245 H 429.801 0.60668 8.36503 0
M  V30 3246 H 428.107 -0.352479 10.1829 0
M  V30 3247 H 427.917 2.00611 10.0304 0
M  V30 3248 H 426.287 1.41843 9.55327 0
M  V30 3249 H 428.926 -1.95734 6.03555 0
M  V30 3250 P 430.783 -1.25109 8.70152 0
M  V30 3251 O 432.205 -1.35274 9.21221 0
M  V30 3252 O 430.423 -0.0769065 7.84762 0
M  V30 3253 O 430.46 -2.55232 7.81161 0
M  V30 3254 C 430.3 -3.79939 8.58154 0
M  V30 3255 C 430.84 -4.94023 7.72785 0
M  V30 3256 O 429.784 -5.18726 6.91205 0
M  V30 3257 C 432.058 -4.69597 6.85231 0
M  V30 3258 O 432.796 -5.83832 6.51337 0
M  V30 3259 C 431.389 -3.96706 5.66633 0
M  V30 3260 O 432.188 -4.15414 4.49689 0
M  V30 3261 C 430.052 -4.66153 5.59313 0
M  V30 3262 H 430.084 -5.47679 4.85214 0
M  V30 3263 H 431.267 -2.89008 5.86566 0
M  V30 3264 H 432.751 -4.0121 7.36511 0
M  V30 3265 H 431.057 -5.80182 8.37584 0
M  V30 3266 H 430.867 -3.73517 9.52265 0
M  V30 3267 H 429.237 -3.97163 8.80359 0
M  V30 3268 H 431.876 -4.90969 4.01921 0
M  V30 3269 P 433.734 -5.75688 6.64379 0
M  V30 3270 O 435.155 -6.11915 7.01921 0
M  V30 3271 O 433.374 -4.30744 6.56026 0
M  V30 3272 O 433.411 -6.37042 5.19165 0
M  V30 3273 C 433.25 -7.83662 5.1657 0
M  V30 3274 C 433.791 -8.33398 3.83019 0
M  V30 3275 O 432.736 -8.0998 3.00999 0
M  V30 3276 C 435.009 -7.65514 3.2257 0
M  V30 3277 O 435.747 -8.4329 2.32297 0
M  V30 3278 C 434.341 -6.40075 2.62207 0
M  V30 3279 O 435.139 -5.92338 1.5428 0
M  V30 3280 C 433.003 -6.9454 2.18503 0
M  V30 3281 N 431.96 -5.95905 2.39948 0
M  V30 3282 C 432.129 -4.98383 3.32108 0
M  V30 3283 N 431.102 -4.16798 3.41761 0
M  V30 3284 C 430.217 -4.65287 2.47461 0
M  V30 3285 C 428.95 -4.18946 2.07461 0
M  V30 3286 N 428.385 -4.95327 1.09101 0
M  V30 3287 C 428.987 -6.04369 0.519812 0
M  V30 3288 N 430.164 -6.50694 0.855982 0
M  V30 3289 C 430.739 -5.75818 1.84322 0
M  V30 3290 H 434.218 -5.60502 3.36589 0
M  V30 3291 H 435.701 -7.35707 4.02681 0
M  V30 3292 H 434.007 -9.41302 3.90009 0
M  V30 3293 H 433.817 -8.29056 5.99158 0
M  V30 3294 H 432.187 -8.10073 5.25882 0
M  V30 3295 H 433.029 -4.88564 3.92502 0
M  V30 3296 H 434.827 -6.30224 0.72668 0
M  V30 3297 P 436.684 -8.4349 2.47671 0
M  V30 3298 O 438.106 -8.94167 2.5964 0
M  V30 3299 O 436.324 -7.1704 3.19006 0
M  V30 3300 O 436.361 -8.16596 0.923387 0
M  V30 3301 C 436.201 -9.38437 0.108857 0
M  V30 3302 C 436.741 -9.08175 -1.28353 0
M  V30 3303 O 435.685 -8.44229 -1.84713 0
M  V30 3304 C 437.959 -8.18386 -1.42505 0
M  V30 3305 O 438.697 -8.3501 -2.60497 0
M  V30 3306 C 437.29 -6.80225 -1.25468 0
M  V30 3307 O 438.089 -5.81621 -1.91066 0
M  V30 3308 C 435.953 -7.02416 -1.9168 0
M  V30 3309 H 435.985 -6.6888 -2.96621 0
M  V30 3310 H 437.168 -6.53617 -0.192223 0
M  V30 3311 H 438.652 -8.36622 -0.589963 0
M  V30 3312 H 436.958 -10.0291 -1.79807 0
M  V30 3313 H 436.768 -10.2138 0.558219 0
M  V30 3314 H 435.138 -9.6579 0.0444202 0
M  V30 3315 H 437.777 -5.69556 -2.79637 0
M  V30 3316 P 439.635 -8.4349 -2.47671 0
M  V30 3317 O 441.057 -8.92593 -2.65 0
M  V30 3318 O 439.275 -7.7568 -1.19296 0
M  V30 3319 O 439.312 -7.36886 -3.63805 0
M  V30 3320 C 439.152 -7.95349 -4.982 0
M  V30 3321 C 439.692 -6.94612 -5.98974 0
M  V30 3322 O 438.636 -6.10347 -6.11815 0
M  V30 3323 C 440.91 -6.11426 -5.62335 0
M  V30 3324 O 441.648 -5.6162 -6.70584 0
M  V30 3325 C 440.241 -5.04409 -4.73308 0
M  V30 3326 O 441.04 -3.85992 -4.75183 0
M  V30 3327 C 438.904 -4.8728 -5.41006 0
M  V30 3328 H 438.936 -4.02333 -6.11157 0
M  V30 3329 H 440.119 -5.39466 -3.69543 0
M  V30 3330 H 441.603 -6.71916 -5.01943 0
M  V30 3331 H 439.909 -7.4649 -6.93477 0
M  V30 3332 H 439.719 -8.89416 -5.05237 0
M  V30 3333 H 438.089 -8.14876 -5.18409 0
M  V30 3334 H 440.728 -3.27957 -5.4317 0
M  V30 3335 P 442.586 -5.75688 -6.64379 0
M  V30 3336 O 444.008 -6.07627 -7.05504 0
M  V30 3337 O 442.226 -5.88047 -5.19722 0
M  V30 3338 O 442.263 -4.2322 -7.04443 0
M  V30 3339 C 442.103 -3.99743 -8.4911 0
M  V30 3340 C 442.643 -2.60516 -8.79425 0
M  V30 3341 O 441.587 -1.82684 -8.4467 0
M  V30 3342 C 443.861 -2.10343 -8.03628 0
M  V30 3343 O 444.599 -1.09919 -8.67766 0
M  V30 3344 C 443.192 -1.68446 -6.70876 0
M  V30 3345 O 443.991 -0.678137 -6.08433 0
M  V30 3346 C 441.855 -1.17436 -7.18567 0
M  V30 3347 H 441.887 -0.0804732 -7.31656 0
M  V30 3348 H 443.07 -2.54037 -6.02537 0
M  V30 3349 H 444.554 -2.93881 -7.85526 0
M  V30 3350 H 442.86 -2.53065 -9.86973 0
M  V30 3351 H 442.67 -4.75072 -9.05887 0
M  V30 3352 H 441.04 -4.05244 -8.76668 0
M  V30 3353 H 443.679 0.177647 -6.34251 0
M  V30 3354 P 445.536 -1.25109 -8.70152 0
M  V30 3355 O 446.958 -1.29744 -9.22016 0
M  V30 3356 O 445.176 -2.13714 -7.55141 0
M  V30 3357 O 445.213 0.248149 -8.21425 0
M  V30 3358 C 445.053 1.22779 -9.30434 0
M  V30 3359 C 445.593 2.56293 -8.80664 0
M  V30 3360 O 444.537 3.02979 -8.09349 0
M  V30 3361 C 446.811 2.57523 -7.89775 0
M  V30 3362 O 447.549 3.7668 -7.89438 0
M  V30 3363 C 446.142 2.20997 -6.55446 0
M  V30 3364 O 446.941 2.71895 -5.48509 0
M  V30 3365 C 444.805 2.89693 -6.67988 0
M  V30 3366 H 444.837 3.88793 -6.19859 0
M  V30 3367 H 446.02 1.12046 -6.44229 0
M  V30 3368 H 447.504 1.7746 -8.19711 0
M  V30 3369 H 445.81 3.20706 -9.67112 0
M  V30 3370 H 445.62 0.901032 -10.1892 0
M  V30 3371 H 443.99 1.33049 -9.56592 0
M  V30 3372 H 446.629 3.57847 -5.23962 0
M  V30 3373 P 448.487 3.65191 -7.99657 0
M  V30 3374 O 449.908 3.89374 -8.45885 0
M  V30 3375 O 448.127 2.28472 -7.50807 0
M  V30 3376 O 448.164 4.64972 -6.77611 0
M  V30 3377 C 448.003 6.06383 -7.16428 0
M  V30 3378 C 448.544 6.91731 -6.02299 0
M  V30 3379 O 447.489 6.92369 -5.17005 0
M  V30 3380 C 449.762 6.43627 -5.25174 0
M  V30 3381 O 450.5 7.43686 -4.60469 0
M  V30 3382 C 449.094 5.40275 -4.31916 0
M  V30 3383 O 449.892 5.24878 -3.14911 0
M  V30 3384 C 447.756 6.04847 -4.05327 0
M  V30 3385 N 446.713 5.04166 -3.98114 0
M  V30 3386 C 446.882 3.84629 -4.59066 0
M  V30 3387 N 445.855 3.0363 -4.45343 0
M  V30 3388 C 444.97 3.76722 -3.68523 0
M  V30 3389 C 443.703 3.43528 -3.17088 0
M  V30 3390 N 443.138 4.44526 -2.44231 0
M  V30 3391 C 443.74 5.65243 -2.20146 0
M  V30 3392 N 444.917 6.00221 -2.65453 0
M  V30 3393 C 445.492 5.00564 -3.39083 0
M  V30 3394 H 448.971 4.42969 -4.80867 0
M  V30 3395 H 450.454 5.92458 -5.93643 0
M  V30 3396 H 448.76 7.93295 -6.39407 0
M  V30 3397 H 448.57 6.26671 -8.0846 0
M  V30 3398 H 446.94 6.29101 -7.32804 0
M  V30 3399 H 447.782 3.58193 -5.14248 0
M  V30 3400 H 449.58 5.84223 -2.47279 0
M  V30 3401 P 451.437 7.39546 -4.75277 0
M  V30 3402 O 452.858 7.84882 -5.01092 0
M  V30 3403 O 451.077 5.9812 -5.08098 0
M  V30 3404 O 451.114 7.57503 -3.1866 0
M  V30 3405 C 450.953 8.97452 -2.74862 0
M  V30 3406 C 451.494 9.07548 -1.32709 0
M  V30 3407 O 450.439 8.61972 -0.606089 0
M  V30 3408 C 452.712 8.25383 -0.938334 0
M  V30 3409 O 453.45 8.74577 0.146954 0
M  V30 3410 C 452.044 6.8802 -0.712559 0
M  V30 3411 O 452.842 6.1181 0.188505 0
M  V30 3412 C 450.706 7.27966 -0.139777 0
M  V30 3413 N 449.663 6.39368 -0.623421 0
M  V30 3414 C 449.832 5.71761 -1.78245 0
M  V30 3415 N 448.805 4.962 -2.10491 0
M  V30 3416 C 447.92 5.16158 -1.0635 0
M  V30 3417 C 446.653 4.60425 -0.810266 0
M  V30 3418 N 446.054 3.7057 -1.62914 0
M  V30 3419 N 446.088 5.06 0.348685 0
M  V30 3420 C 446.69 5.94532 1.20395 0
M  V30 3421 N 447.867 6.48452 1.01191 0
M  V30 3422 C 448.442 6.04423 -0.146291 0
M  V30 3423 H 450.738 7.25255 0.961469 0
M  V30 3424 H 451.921 6.32625 -1.65044 0
M  V30 3425 H 453.404 8.19355 -1.79097 0
M  V30 3426 H 451.71 10.1305 -1.09016 0
M  V30 3427 H 451.52 9.64276 -3.41316 0
M  V30 3428 H 449.89 9.25417 -2.76357 0
M  V30 3429 H 446.154 6.21659 2.10714 0
M  V30 3430 H 450.732 5.79354 -2.38959 0
M  V30 3431 H 445.124 3.33174 -1.38982 0
M  V30 3432 H 446.528 3.39714 -2.48836 0
M  V30 3433 H 452.53 6.25169 1.0783 0
M  V30 3434 P 454.388 8.791 2.59334e-12 0
M  V30 3435 O 455.81 9.31096 0.027933 0
M  V30 3436 O 454.028 7.77869 -1.04071 0
M  V30 3437 O 454.065 8.09533 1.41463 0
M  V30 3438 C 453.905 9.0349 2.53943 0
M  V30 3439 C 454.445 8.35226 3.79016 0
M  V30 3440 O 453.389 7.57992 4.15078 0
M  V30 3441 C 455.663 7.45087 3.67298 0
M  V30 3442 O 456.401 7.27796 4.85194 0
M  V30 3443 C 454.994 6.17323 3.12027 0
M  V30 3444 O 455.793 5.04231 3.47188 0
M  V30 3445 C 453.657 6.19961 3.81809 0
M  V30 3446 H 453.689 5.58218 4.73051 0
M  V30 3447 H 454.872 6.21726 2.02589 0
M  V30 3448 H 456.356 7.86112 2.9231 0
M  V30 3449 H 454.662 9.11627 4.55076 0
M  V30 3450 H 454.472 9.9573 2.34194 0
M  V30 3451 H 452.842 9.2792 2.67832 0
M  V30 3452 H 455.481 4.67702 4.28772 0
M  V30 3453 P 457.338 7.39546 4.75277 0
M  V30 3454 O 458.76 7.81777 5.05738 0
M  V30 3455 O 456.978 7.1065 3.32998 0
M  V30 3456 O 457.015 6.04542 5.56673 0
M  V30 3457 C 456.855 6.22772 7.02095 0
M  V30 3458 C 457.395 4.97725 7.70406 0
M  V30 3459 O 456.339 4.13256 7.58987 0
M  V30 3460 C 458.613 4.28231 7.11815 0
M  V30 3461 O 459.351 3.49945 8.01648 0
M  V30 3462 C 457.944 3.5063 5.96244 0
M  V30 3463 O 458.743 2.36482 5.64681 0
M  V30 3464 C 456.607 3.15122 6.56374 0
M  V30 3465 H 456.639 2.13853 6.99751 0
M  V30 3466 H 457.822 4.13501 5.06559 0
M  V30 3467 H 459.306 5.03285 6.70911 0
M  V30 3468 H 457.612 5.20877 8.75697 0
M  V30 3469 H 457.422 7.11046 7.35349 0
M  V30 3470 H 455.792 6.35815 7.26986 0
M  V30 3471 H 458.431 1.61644 6.13565 0
M  V30 3472 P 460.289 3.65191 7.99657 0
M  V30 3473 O 461.711 3.8425 8.48115 0
M  V30 3474 O 459.929 4.17805 6.64342 0
M  V30 3475 O 459.966 2.07613 7.95143 0
M  V30 3476 C 459.806 1.44328 9.27336 0
M  V30 3477 C 460.346 0.0220036 9.17197 0
M  V30 3478 O 459.29 -0.626867 8.61923 0
M  V30 3479 C 461.564 -0.24586 8.30336 0
M  V30 3480 O 462.302 -1.39011 8.63583 0
M  V30 3481 C 460.895 -0.273849 6.91158 0
M  V30 3482 O 461.694 -1.06348 6.02892 0
M  V30 3483 C 459.558 -0.897649 7.22545 0
M  V30 3484 H 459.59 -1.9841 7.04286 0
M  V30 3485 H 460.773 0.739928 6.497 0
M  V30 3486 H 462.257 0.60668 8.36503 0
M  V30 3487 H 460.563 -0.352479 10.1829 0
M  V30 3488 H 460.373 2.00611 10.0304 0
M  V30 3489 H 458.743 1.41843 9.55327 0
M  V30 3490 H 461.382 -1.95734 6.03555 0
M  V30 3491 P 463.239 -1.25109 8.70152 0
M  V30 3492 O 464.66 -1.35288 9.2132 0
M  V30 3493 O 462.879 -0.0769065 7.84762 0
M  V30 3494 O 462.916 -2.55232 7.81161 0
M  V30 3495 C 462.755 -3.79979 8.58246 0
M  V30 3496 C 463.296 -4.94023 7.72785 0
M  V30 3497 O 462.241 -5.18666 6.91125 0
M  V30 3498 C 464.514 -4.69597 6.85231 0
M  V30 3499 O 465.252 -5.83832 6.51337 0
M  V30 3500 C 463.846 -3.96706 5.66633 0
M  V30 3501 O 464.644 -4.14896 4.5003 0
M  V30 3502 C 462.508 -4.66153 5.59313 0
M  V30 3503 N 461.465 -3.71582 5.24027 0
M  V30 3504 C 461.634 -2.39715 5.48833 0
M  V30 3505 N 460.607 -1.65863 5.12845 0
M  V30 3506 C 459.722 -2.57637 4.5973 0
M  V30 3507 C 458.455 -2.40278 4.01027 0
M  V30 3508 N 457.856 -1.19549 3.86744 0
M  V30 3509 N 457.89 -3.57711 3.59575 0
M  V30 3510 C 458.492 -4.80324 3.70476 0
M  V30 3511 N 459.669 -5.01121 4.23801 0
M  V30 3512 C 460.244 -3.84757 4.66372 0
M  V30 3513 H 462.54 -5.47604 4.85148 0
M  V30 3514 H 463.723 -2.8955 5.86187 0
M  V30 3515 H 465.206 -4.0121 7.36511 0
M  V30 3516 H 463.512 -5.81019 8.37003 0
M  V30 3517 H 463.322 -3.73517 9.52265 0
M  V30 3518 H 461.692 -3.97163 8.80359 0
M  V30 3519 H 457.956 -5.66348 3.3183 0
M  V30 3520 H 462.534 -1.98804 5.94332 0
M  V30 3521 H 456.926 -1.13147 3.4281 0
M  V30 3522 H 458.33 -0.344074 4.19692 0
M  V30 3523 H 464.332 -4.90891 4.01857 0
M  V30 3524 P 466.19 -5.75688 6.64379 0
M  V30 3525 O 467.612 -6.11849 7.01846 0
M  V30 3526 O 465.83 -4.30744 6.56026 0
M  V30 3527 O 465.867 -6.37042 5.19165 0
M  V30 3528 C 465.707 -7.83578 5.16515 0
M  V30 3529 C 466.247 -8.33398 3.83019 0
M  V30 3530 O 465.191 -8.10074 3.01034 0
M  V30 3531 C 467.465 -7.65514 3.2257 0
M  V30 3532 O 468.203 -8.4329 2.32297 0
M  V30 3533 C 466.796 -6.40075 2.62207 0
M  V30 3534 O 467.595 -5.92589 1.53712 0
M  V30 3535 C 465.459 -6.9454 2.18503 0
M  V30 3536 H 465.491 -7.23063 1.12091 0
M  V30 3537 H 466.674 -5.6025 3.37201 0
M  V30 3538 H 468.158 -7.35707 4.02681 0
M  V30 3539 H 466.464 -9.40912 3.9095 0
M  V30 3540 H 466.274 -8.29056 5.99158 0
M  V30 3541 H 464.644 -8.10073 5.25882 0
M  V30 3542 H 467.283 -6.30324 0.726794 0
M  V30 3543 P 469.141 -8.4349 2.47671 0
M  V30 3544 O 470.563 -8.94167 2.5964 0
M  V30 3545 O 468.781 -7.1704 3.19006 0
M  V30 3546 O 468.818 -8.16596 0.923387 0
M  V30 3547 C 468.658 -9.38437 0.108857 0
M  V30 3548 C 469.198 -9.08175 -1.28353 0
M  V30 3549 O 468.142 -8.44229 -1.84713 0
M  V30 3550 C 470.416 -8.18386 -1.42505 0
M  V30 3551 O 471.154 -8.3501 -2.60497 0
M  V30 3552 C 469.747 -6.80225 -1.25468 0
M  V30 3553 O 470.546 -5.81621 -1.91066 0
M  V30 3554 C 468.41 -7.02416 -1.9168 0
M  V30 3555 H 468.442 -6.6888 -2.96621 0
M  V30 3556 H 469.625 -6.53617 -0.192223 0
M  V30 3557 H 471.109 -8.36622 -0.589963 0
M  V30 3558 H 469.415 -10.0291 -1.79807 0
M  V30 3559 H 469.225 -10.2138 0.558219 0
M  V30 3560 H 467.595 -9.6579 0.0444202 0
M  V30 3561 H 470.234 -5.69556 -2.79637 0
M  V30 3562 P 472.091 -8.4349 -2.47671 0
M  V30 3563 O 473.513 -8.92593 -2.65 0
M  V30 3564 O 471.731 -7.7568 -1.19296 0
M  V30 3565 O 471.768 -7.36886 -3.63805 0
M  V30 3566 C 471.608 -7.95349 -4.982 0
M  V30 3567 C 472.148 -6.94612 -5.98974 0
M  V30 3568 O 471.092 -6.10347 -6.11815 0
M  V30 3569 C 473.366 -6.11426 -5.62335 0
M  V30 3570 O 474.104 -5.6162 -6.70584 0
M  V30 3571 C 472.697 -5.04409 -4.73308 0
M  V30 3572 O 473.496 -3.85992 -4.75183 0
M  V30 3573 C 471.36 -4.8728 -5.41006 0
M  V30 3574 H 471.392 -4.02333 -6.11157 0
M  V30 3575 H 472.575 -5.39466 -3.69543 0
M  V30 3576 H 474.059 -6.71916 -5.01943 0
M  V30 3577 H 472.365 -7.4649 -6.93477 0
M  V30 3578 H 472.175 -8.89416 -5.05237 0
M  V30 3579 H 470.545 -8.14876 -5.18409 0
M  V30 3580 H 473.184 -3.27957 -5.4317 0
M  V30 3581 P 475.042 -5.75688 -6.64379 0
M  V30 3582 O 476.464 -6.07627 -7.05504 0
M  V30 3583 O 474.682 -5.88047 -5.19722 0
M  V30 3584 O 474.719 -4.2322 -7.04443 0
M  V30 3585 C 474.559 -3.99743 -8.4911 0
M  V30 3586 C 475.099 -2.60516 -8.79425 0
M  V30 3587 O 474.043 -1.82684 -8.4467 0
M  V30 3588 C 476.317 -2.10343 -8.03628 0
M  V30 3589 O 477.055 -1.09919 -8.67766 0
M  V30 3590 C 475.648 -1.68446 -6.70876 0
M  V30 3591 O 476.447 -0.678137 -6.08433 0
M  V30 3592 C 474.311 -1.17436 -7.18567 0
M  V30 3593 H 474.343 -0.0804732 -7.31656 0
M  V30 3594 H 475.526 -2.54037 -6.02537 0
M  V30 3595 H 477.01 -2.93881 -7.85526 0
M  V30 3596 H 475.316 -2.53065 -9.86973 0
M  V30 3597 H 475.126 -4.75072 -9.05887 0
M  V30 3598 H 473.496 -4.05244 -8.76668 0
M  V30 3599 H 476.135 0.177647 -6.34251 0
M  V30 3600 P 477.992 -1.25109 -8.70152 0
M  V30 3601 O 479.414 -1.29744 -9.22016 0
M  V30 3602 O 477.632 -2.13714 -7.55141 0
M  V30 3603 O 477.669 0.248149 -8.21425 0
M  V30 3604 C 477.509 1.22779 -9.30434 0
M  V30 3605 C 478.049 2.56293 -8.80664 0
M  V30 3606 O 476.993 3.02979 -8.09349 0
M  V30 3607 C 479.267 2.57523 -7.89775 0
M  V30 3608 O 480.005 3.7668 -7.89438 0
M  V30 3609 C 478.598 2.20997 -6.55446 0
M  V30 3610 O 479.397 2.71895 -5.48509 0
M  V30 3611 C 477.261 2.89693 -6.67988 0
M  V30 3612 H 477.293 3.88793 -6.19859 0
M  V30 3613 H 478.476 1.12046 -6.44229 0
M  V30 3614 H 479.96 1.7746 -8.19711 0
M  V30 3615 H 478.266 3.20706 -9.67112 0
M  V30 3616 H 478.076 0.901032 -10.1892 0
M  V30 3617 H 476.446 1.33049 -9.56592 0
M  V30 3618 H 479.085 3.57847 -5.23962 0
M  V30 3619 P 480.943 3.65191 -7.99657 0
M  V30 3620 O 482.365 3.89332 -8.45794 0
M  V30 3621 O 480.583 2.28472 -7.50807 0
M  V30 3622 O 480.62 4.64972 -6.77611 0
M  V30 3623 C 480.46 6.06319 -7.16352 0
M  V30 3624 C 481 6.91731 -6.02299 0
M  V30 3625 O 479.944 6.92449 -5.17064 0
M  V30 3626 C 482.218 6.43627 -5.25174 0
M  V30 3627 O 482.956 7.43686 -4.60469 0
M  V30 3628 C 481.549 5.40275 -4.31916 0
M  V30 3629 O 482.348 5.25279 -3.14438 0
M  V30 3630 C 480.212 6.04847 -4.05327 0
M  V30 3631 H 480.244 6.62195 -3.11261 0
M  V30 3632 H 481.427 4.42556 -4.81383 0
M  V30 3633 H 482.911 5.92458 -5.93643 0
M  V30 3634 H 481.217 7.92655 -6.402 0
M  V30 3635 H 481.027 6.26671 -8.0846 0
M  V30 3636 H 479.397 6.29101 -7.32804 0
M  V30 3637 H 482.036 5.84315 -2.47318 0
M  V30 3638 P 483.893 7.39546 -4.75277 0
M  V30 3639 O 485.315 7.84798 -5.01039 0
M  V30 3640 O 483.533 5.9812 -5.08098 0
M  V30 3641 O 483.57 7.57503 -3.1866 0
M  V30 3642 C 483.41 8.97357 -2.74833 0
M  V30 3643 C 483.95 9.07548 -1.32709 0
M  V30 3644 O 482.894 8.62072 -0.606159 0
M  V30 3645 C 485.168 8.25383 -0.938334 0
M  V30 3646 O 485.906 8.74577 0.146954 0
M  V30 3647 C 484.499 6.8802 -0.712559 0
M  V30 3648 O 485.298 6.1189 0.194655 0
M  V30 3649 C 483.162 7.27966 -0.139777 0
M  V30 3650 H 483.194 7.25354 0.961601 0
M  V30 3651 H 484.377 6.32557 -1.65702 0
M  V30 3652 H 485.861 8.19355 -1.79097 0
M  V30 3653 H 484.167 10.1294 -1.10029 0
M  V30 3654 H 483.977 9.64276 -3.41316 0
M  V30 3655 H 482.347 9.25417 -2.76357 0
M  V30 3656 H 484.986 6.25267 1.07847 0
M  V30 3657 P 486.844 8.791 2.9035e-12 0
M  V30 3658 O 488.265 9.31196 0.027936 0
M  V30 3659 O 486.484 7.77869 -1.04071 0
M  V30 3660 O 486.521 8.09533 1.41463 0
M  V30 3661 C 486.36 9.03587 2.5397 0
M  V30 3662 C 486.901 8.35226 3.79016 0
M  V30 3663 O 485.846 7.57904 4.1503 0
M  V30 3664 C 488.119 7.45087 3.67298 0
M  V30 3665 O 488.857 7.27796 4.85194 0
M  V30 3666 C 487.451 6.17323 3.12027 0
M  V30 3667 O 488.249 5.04496 3.46627 0
M  V30 3668 C 486.113 6.19961 3.81809 0
M  V30 3669 N 485.07 5.71575 2.93223 0
M  V30 3670 C 485.239 5.77362 1.59168 0
M  V30 3671 N 484.212 5.3123 0.911893 0
M  V30 3672 C 483.327 4.91717 1.89588 0
M  V30 3673 C 482.06 4.3114 1.8076 0
M  V30 3674 N 481.461 3.99821 0.632928 0
M  V30 3675 N 481.495 4.06823 3.02898 0
M  V30 3676 C 482.097 4.35062 4.22711 0
M  V30 3677 N 483.274 4.90805 4.35707 0
M  V30 3678 C 483.849 5.16382 3.14469 0
M  V30 3679 H 486.145 5.58142 4.72986 0
M  V30 3680 H 487.328 6.21428 2.0318 0
M  V30 3681 H 488.811 7.86112 2.9231 0
M  V30 3682 H 487.117 9.11171 4.55987 0
M  V30 3683 H 486.927 9.9573 2.34194 0
M  V30 3684 H 485.297 9.2792 2.67832 0
M  V30 3685 H 481.561 4.09052 5.13359 0
M  V30 3686 H 486.139 6.16575 1.12198 0
M  V30 3687 H 480.531 3.55423 0.632085 0
M  V30 3688 H 481.935 4.20317 -0.256712 0
M  V30 3689 H 487.937 4.67628 4.28704 0
M  V30 3690 P 489.795 7.39546 4.75277 0
M  V30 3691 O 491.217 7.81945 5.05847 0
M  V30 3692 O 489.435 7.1065 3.32998 0
M  V30 3693 O 489.472 6.04542 5.56673 0
M  V30 3694 C 489.312 6.22772 7.02095 0
M  V30 3695 C 489.852 4.97671 7.70322 0
M  V30 3696 O 488.797 4.13256 7.58987 0
M  V30 3697 C 491.07 4.28231 7.11815 0
M  V30 3698 O 491.808 3.49945 8.01648 0
M  V30 3699 C 490.402 3.5063 5.96244 0
M  V30 3700 O 491.2 2.36443 5.64589 0
M  V30 3701 C 489.064 3.15122 6.56374 0
M  V30 3702 N 488.021 3.22311 5.55692 0
M  V30 3703 C 488.083 4.14382 4.59701 0
M  V30 3704 N 487.038 4.04476 3.76958 0
M  V30 3705 C 486.304 3.04892 4.26534 0
M  V30 3706 C 484.998 2.57447 3.88189 0
M  V30 3707 O 484.265 2.9785 2.96543 0
M  V30 3708 N 484.568 1.55228 4.65922 0
M  V30 3709 C 485.317 1.01152 5.73447 0
M  V30 3710 N 484.72 -0.0472117 6.37783 0
M  V30 3711 N 486.47 1.467 6.13813 0
M  V30 3712 C 486.927 2.4931 5.38487 0
M  V30 3713 H 489.096 2.13853 6.99751 0
M  V30 3714 H 490.279 4.13438 5.06482 0
M  V30 3715 H 491.764 5.02614 6.71414 0
M  V30 3716 H 490.069 5.20877 8.75697 0
M  V30 3717 H 489.879 7.11046 7.35349 0
M  V30 3718 H 488.248 6.35815 7.26986 0
M  V30 3719 H 483.672 1.15238 4.46468 0
M  V30 3720 H 488.879 4.88312 4.49647 0
M  V30 3721 H 483.809 -0.396382 6.05203 0
M  V30 3722 H 485.185 -0.484997 7.18465 0
M  V30 3723 H 490.889 1.61619 6.13468 0
M  V30 3724 P 492.745 3.65191 7.99657 0
M  V30 3725 O 494.167 3.8425 8.48115 0
M  V30 3726 O 492.385 4.17805 6.64342 0
M  V30 3727 O 492.422 2.07613 7.95143 0
M  V30 3728 C 492.262 1.44328 9.27336 0
M  V30 3729 C 492.802 0.0220036 9.17197 0
M  V30 3730 O 491.746 -0.626867 8.61923 0
M  V30 3731 C 494.02 -0.24586 8.30336 0
M  V30 3732 O 494.758 -1.39011 8.63583 0
M  V30 3733 C 493.351 -0.273849 6.91158 0
M  V30 3734 O 494.15 -1.06348 6.02892 0
M  V30 3735 C 492.014 -0.897649 7.22545 0
M  V30 3736 H 492.046 -1.9841 7.04286 0
M  V30 3737 H 493.229 0.739928 6.497 0
M  V30 3738 H 494.713 0.60668 8.36503 0
M  V30 3739 H 493.019 -0.352479 10.1829 0
M  V30 3740 H 492.829 2.00611 10.0304 0
M  V30 3741 H 491.199 1.41843 9.55327 0
M  V30 3742 H 493.838 -1.95734 6.03555 0
M  V30 3743 P 495.696 -1.25109 8.70152 0
M  V30 3744 O 497.118 -1.35274 9.21221 0
M  V30 3745 O 495.336 -0.0769065 7.84762 0
M  V30 3746 O 495.373 -2.55232 7.81161 0
M  V30 3747 C 495.213 -3.79939 8.58154 0
M  V30 3748 C 495.753 -4.94023 7.72785 0
M  V30 3749 O 494.697 -5.18726 6.91205 0
M  V30 3750 C 496.971 -4.69597 6.85231 0
M  V30 3751 O 497.709 -5.83832 6.51337 0
M  V30 3752 C 496.302 -3.96706 5.66633 0
M  V30 3753 O 497.101 -4.15414 4.49689 0
M  V30 3754 C 494.965 -4.66153 5.59313 0
M  V30 3755 H 494.997 -5.47679 4.85214 0
M  V30 3756 H 496.18 -2.89008 5.86566 0
M  V30 3757 H 497.664 -4.0121 7.36511 0
M  V30 3758 H 495.97 -5.80182 8.37584 0
M  V30 3759 H 495.78 -3.73517 9.52265 0
M  V30 3760 H 494.15 -3.97163 8.80359 0
M  V30 3761 H 496.789 -4.90969 4.01921 0
M  V30 3762 P 498.646 -5.75688 6.64379 0
M  V30 3763 O 500.067 -6.11915 7.01921 0
M  V30 3764 O 498.286 -4.30744 6.56026 0
M  V30 3765 O 498.323 -6.37042 5.19165 0
M  V30 3766 C 498.162 -7.83662 5.1657 0
M  V30 3767 C 498.703 -8.33398 3.83019 0
M  V30 3768 O 497.648 -8.0998 3.00999 0
M  V30 3769 C 499.921 -7.65514 3.2257 0
M  V30 3770 O 500.659 -8.4329 2.32297 0
M  V30 3771 C 499.253 -6.40075 2.62207 0
M  V30 3772 O 500.051 -5.92338 1.5428 0
M  V30 3773 C 497.915 -6.9454 2.18503 0
M  V30 3774 N 496.872 -5.95905 2.39948 0
M  V30 3775 C 497.041 -4.98383 3.32108 0
M  V30 3776 N 496.014 -4.16798 3.41761 0
M  V30 3777 C 495.129 -4.65287 2.47461 0
M  V30 3778 C 493.862 -4.18946 2.07461 0
M  V30 3779 N 493.263 -3.09661 2.60717 0
M  V30 3780 N 493.297 -4.95327 1.09101 0
M  V30 3781 C 493.899 -6.04369 0.519812 0
M  V30 3782 N 495.076 -6.50694 0.855982 0
M  V30 3783 C 495.651 -5.75818 1.84322 0
M  V30 3784 H 497.947 -7.22964 1.12076 0
M  V30 3785 H 499.13 -5.60502 3.36589 0
M  V30 3786 H 500.613 -7.35707 4.02681 0
M  V30 3787 H 498.919 -9.41302 3.90009 0
M  V30 3788 H 498.729 -8.29056 5.99158 0
M  V30 3789 H 497.099 -8.10073 5.25882 0
M  V30 3790 H 493.363 -6.55843 -0.270373 0
M  V30 3791 H 497.941 -4.88564 3.92502 0
M  V30 3792 H 492.333 -2.80523 2.27218 0
M  V30 3793 H 493.737 -2.55848 3.34465 0
M  V30 3794 H 499.739 -6.30224 0.72668 0
M  V30 3795 P 501.597 -8.4349 2.47671 0
M  V30 3796 O 503.019 -8.94167 2.5964 0
M  V30 3797 O 501.237 -7.1704 3.19006 0
M  V30 3798 O 501.274 -8.16596 0.923387 0
M  V30 3799 C 501.114 -9.38437 0.108857 0
M  V30 3800 C 501.654 -9.08175 -1.28353 0
M  V30 3801 O 500.598 -8.44229 -1.84713 0
M  V30 3802 C 502.872 -8.18386 -1.42505 0
M  V30 3803 O 503.61 -8.3501 -2.60497 0
M  V30 3804 C 502.203 -6.80225 -1.25468 0
M  V30 3805 O 503.002 -5.81621 -1.91066 0
M  V30 3806 C 500.866 -7.02416 -1.9168 0
M  V30 3807 H 500.898 -6.6888 -2.96621 0
M  V30 3808 H 502.081 -6.53617 -0.192223 0
M  V30 3809 H 503.565 -8.36622 -0.589963 0
M  V30 3810 H 501.871 -10.0291 -1.79807 0
M  V30 3811 H 501.681 -10.2138 0.558219 0
M  V30 3812 H 500.051 -9.6579 0.0444202 0
M  V30 3813 H 502.69 -5.69556 -2.79637 0
M  V30 3814 P 504.547 -8.4349 -2.47671 0
M  V30 3815 O 505.969 -8.92593 -2.65 0
M  V30 3816 O 504.187 -7.7568 -1.19296 0
M  V30 3817 O 504.224 -7.36886 -3.63805 0
M  V30 3818 C 504.064 -7.95349 -4.982 0
M  V30 3819 C 504.604 -6.94612 -5.98974 0
M  V30 3820 O 503.548 -6.10347 -6.11815 0
M  V30 3821 C 505.822 -6.11426 -5.62335 0
M  V30 3822 O 506.56 -5.6162 -6.70584 0
M  V30 3823 C 505.153 -5.04409 -4.73308 0
M  V30 3824 O 505.952 -3.85992 -4.75183 0
M  V30 3825 C 503.816 -4.8728 -5.41006 0
M  V30 3826 H 503.848 -4.02333 -6.11157 0
M  V30 3827 H 505.031 -5.39466 -3.69543 0
M  V30 3828 H 506.515 -6.71916 -5.01943 0
M  V30 3829 H 504.821 -7.4649 -6.93477 0
M  V30 3830 H 504.631 -8.89416 -5.05237 0
M  V30 3831 H 503.001 -8.14876 -5.18409 0
M  V30 3832 H 505.64 -3.27957 -5.4317 0
M  V30 3833 P 507.498 -5.75688 -6.64379 0
M  V30 3834 O 508.92 -6.07627 -7.05504 0
M  V30 3835 O 507.138 -5.88047 -5.19722 0
M  V30 3836 O 507.175 -4.2322 -7.04443 0
M  V30 3837 C 507.015 -3.99743 -8.4911 0
M  V30 3838 C 507.555 -2.60516 -8.79425 0
M  V30 3839 O 506.499 -1.82684 -8.4467 0
M  V30 3840 C 508.773 -2.10343 -8.03628 0
M  V30 3841 O 509.511 -1.09919 -8.67766 0
M  V30 3842 C 508.104 -1.68446 -6.70876 0
M  V30 3843 O 508.903 -0.678137 -6.08433 0
M  V30 3844 C 506.767 -1.17436 -7.18567 0
M  V30 3845 H 506.799 -0.0804732 -7.31656 0
M  V30 3846 H 507.982 -2.54037 -6.02537 0
M  V30 3847 H 509.466 -2.93881 -7.85526 0
M  V30 3848 H 507.772 -2.53065 -9.86973 0
M  V30 3849 H 507.582 -4.75072 -9.05887 0
M  V30 3850 H 505.952 -4.05244 -8.76668 0
M  V30 3851 H 508.591 0.177647 -6.34251 0
M  V30 3852 P 510.449 -1.25109 -8.70152 0
M  V30 3853 O 511.871 -1.29744 -9.22016 0
M  V30 3854 O 510.089 -2.13714 -7.55141 0
M  V30 3855 O 510.126 0.248149 -8.21425 0
M  V30 3856 C 509.966 1.22779 -9.30434 0
M  V30 3857 C 510.506 2.56293 -8.80664 0
M  V30 3858 O 509.45 3.02979 -8.09349 0
M  V30 3859 C 511.724 2.57523 -7.89775 0
M  V30 3860 O 512.462 3.7668 -7.89438 0
M  V30 3861 C 511.055 2.20997 -6.55446 0
M  V30 3862 O 511.854 2.71895 -5.48509 0
M  V30 3863 C 509.718 2.89693 -6.67988 0
M  V30 3864 H 509.75 3.88793 -6.19859 0
M  V30 3865 H 510.933 1.12046 -6.44229 0
M  V30 3866 H 512.417 1.7746 -8.19711 0
M  V30 3867 H 510.723 3.20706 -9.67112 0
M  V30 3868 H 510.533 0.901032 -10.1892 0
M  V30 3869 H 508.903 1.33049 -9.56592 0
M  V30 3870 H 511.542 3.57847 -5.23962 0
M  V30 3871 P 513.399 3.65191 -7.99657 0
M  V30 3872 O 514.821 3.89416 -8.45976 0
M  V30 3873 O 513.039 2.28472 -7.50807 0
M  V30 3874 O 513.076 4.64972 -6.77611 0
M  V30 3875 C 512.916 6.06319 -7.16352 0
M  V30 3876 C 513.456 6.91655 -6.02234 0
M  V30 3877 O 512.401 6.92449 -5.17064 0
M  V30 3878 C 514.674 6.43627 -5.25174 0
M  V30 3879 O 515.412 7.43686 -4.60469 0
M  V30 3880 C 514.006 5.40275 -4.31916 0
M  V30 3881 O 514.804 5.25193 -3.14386 0
M  V30 3882 C 512.668 6.04847 -4.05327 0
M  V30 3883 N 511.625 5.04166 -3.98114 0
M  V30 3884 C 511.687 3.96049 -4.75587 0
M  V30 3885 N 510.642 3.15559 -4.54006 0
M  V30 3886 C 509.908 3.78802 -3.62491 0
M  V30 3887 C 508.602 3.476 -3.10071 0
M  V30 3888 O 507.869 2.51136 -3.37021 0
M  V30 3889 N 508.172 4.39088 -2.19956 0
M  V30 3890 C 508.921 5.53215 -1.81733 0
M  V30 3891 N 508.324 6.31963 -0.860928 0
M  V30 3892 N 510.074 5.86688 -2.32562 0
M  V30 3893 C 510.531 4.97525 -3.23407 0
M  V30 3894 H 512.7 6.62195 -3.11261 0
M  V30 3895 H 513.883 4.42488 -4.8131 0
M  V30 3896 H 515.368 5.93051 -5.9305 0
M  V30 3897 H 513.673 7.92655 -6.402 0
M  V30 3898 H 513.483 6.26671 -8.0846 0
M  V30 3899 H 511.852 6.29101 -7.32804 0
M  V30 3900 H 507.276 4.25523 -1.77604 0
M  V30 3901 H 512.483 3.75576 -5.47333 0
M  V30 3902 H 507.413 6.04684 -0.468946 0
M  V30 3903 H 508.789 7.18054 -0.542422 0
M  V30 3904 H 514.493 5.84223 -2.47279 0
M  V30 3905 P 516.35 7.39546 -4.75277 0
M  V30 3906 O 517.772 7.84798 -5.01039 0
M  V30 3907 O 515.99 5.9812 -5.08098 0
M  V30 3908 O 516.027 7.57503 -3.1866 0
M  V30 3909 C 515.867 8.97357 -2.74833 0
M  V30 3910 C 516.407 9.07548 -1.32709 0
M  V30 3911 O 515.351 8.62072 -0.606159 0
M  V30 3912 C 517.625 8.25383 -0.938334 0
M  V30 3913 O 518.363 8.74577 0.146954 0
M  V30 3914 C 516.956 6.8802 -0.712559 0
M  V30 3915 O 517.755 6.1189 0.194655 0
M  V30 3916 C 515.619 7.27966 -0.139777 0
M  V30 3917 H 515.651 7.25354 0.961601 0
M  V30 3918 H 516.834 6.32557 -1.65702 0
M  V30 3919 H 518.318 8.19355 -1.79097 0
M  V30 3920 H 516.624 10.1294 -1.10029 0
M  V30 3921 H 516.434 9.64276 -3.41316 0
M  V30 3922 H 514.804 9.25417 -2.76357 0
M  V30 3923 H 517.443 6.25267 1.07847 0
M  V30 3924 P 519.3 8.791 3.21367e-12 0
M  V30 3925 O 520.722 9.31096 0.027933 0
M  V30 3926 O 518.94 7.77869 -1.04071 0
M  V30 3927 O 518.977 8.09533 1.41463 0
M  V30 3928 C 518.817 9.0349 2.53943 0
M  V30 3929 C 519.357 8.35226 3.79016 0
M  V30 3930 O 518.301 7.57992 4.15078 0
M  V30 3931 C 520.575 7.45087 3.67298 0
M  V30 3932 O 521.313 7.27796 4.85194 0
M  V30 3933 C 519.906 6.17323 3.12027 0
M  V30 3934 O 520.705 5.04231 3.47188 0
M  V30 3935 C 518.569 6.19961 3.81809 0
M  V30 3936 H 518.601 5.58218 4.73051 0
M  V30 3937 H 519.784 6.21726 2.02589 0
M  V30 3938 H 521.268 7.86112 2.9231 0
M  V30 3939 H 519.574 9.11627 4.55076 0
M  V30 3940 H 519.384 9.9573 2.34194 0
M  V30 3941 H 517.754 9.2792 2.67832 0
M  V30 3942 H 520.393 4.67702 4.28772 0
M  V30 3943 P 522.251 7.39546 4.75277 0
M  V30 3944 O 523.652 7.89013 5.04841 0
M  V30 3945 O 521.873 7.16603 3.32298 0
M  V30 3946 O 521.928 6.04468 5.56605 0
M  V30 3947 C 521.768 6.22772 7.02095 0
M  V30 3948 C 522.308 4.97671 7.70322 0
M  V30 3949 O 521.252 4.13208 7.58899 0
M  V30 3950 C 523.525 4.28231 7.11815 0
M  V30 3951 O 524.264 3.49945 8.01648 0
M  V30 3952 C 522.858 3.5063 5.96244 0
M  V30 3953 O 523.656 2.36443 5.64589 0
M  V30 3954 C 521.52 3.15122 6.56374 0
M  V30 3955 N 520.477 3.22311 5.55692 0
M  V30 3956 C 519.442 2.32244 5.62437 0
M  V30 3957 O 519.481 1.43107 6.50341 0
M  V30 3958 N 518.43 2.40811 4.73368 0
M  V30 3959 C 518.478 3.344 3.77753 0
M  V30 3960 C 519.574 4.24712 3.66679 0
M  V30 3961 C 520.54 4.15625 4.58307 0
M  V30 3962 H 521.552 2.13823 6.99656 0
M  V30 3963 H 522.735 4.12931 5.06895 0
M  V30 3964 H 524.219 5.02674 6.71494 0
M  V30 3965 H 522.525 5.20001 8.76217 0
M  V30 3966 H 522.334 7.11046 7.35349 0
M  V30 3967 H 520.704 6.35749 7.26911 0
M  V30 3968 H 519.622 4.9828 2.86753 0
M  V30 3969 H 521.386 4.84464 4.54228 0
M  V30 3970 H 523.44 1.65592 6.23485 0
M  V30 3971 P 525.201 3.65191 7.99657 0
M  V30 3972 O 526.622 3.84292 8.48206 0
M  V30 3973 O 524.841 4.17805 6.64342 0
M  V30 3974 O 524.878 2.07613 7.95143 0
M  V30 3975 C 524.717 1.44344 9.27435 0
M  V30 3976 C 525.258 0.0220036 9.17197 0
M  V30 3977 O 524.203 -0.626794 8.61824 0
M  V30 3978 C 526.476 -0.24586 8.30336 0
M  V30 3979 O 527.214 -1.39011 8.63583 0
M  V30 3980 C 525.808 -0.273849 6.91158 0
M  V30 3981 O 526.606 -1.05728 6.029 0
M  V30 3982 C 524.47 -0.897649 7.22545 0
M  V30 3983 N 523.427 -0.292839 6.41732 0
M  V30 3984 C 523.596 0.950603 5.91308 0
M  V30 3985 N 522.569 1.37732 5.21105 0
M  V30 3986 C 521.684 0.318109 5.26039 0
M  V30 3987 C 520.417 0.146766 4.6727 0
M  V30 3988 N 519.852 -1.06525 4.95887 0
M  V30 3989 C 520.454 -2.0378 5.71347 0
M  V30 3990 N 521.631 -1.92445 6.27451 0
M  V30 3991 C 522.206 -0.715382 6.00353 0
M  V30 3992 H 525.685 0.733318 6.49674 0
M  V30 3993 H 527.168 0.60668 8.36503 0
M  V30 3994 H 525.474 -0.362662 10.1825 0
M  V30 3995 H 525.284 2.00611 10.0304 0
M  V30 3996 H 523.654 1.41843 9.55327 0
M  V30 3997 H 524.496 1.54076 6.07465 0
M  V30 3998 H 526.294 -1.95704 6.0346 0
M  V30 3999 P 528.152 -1.25109 8.70152 0
M  V30 4000 O 529.573 -1.35288 9.2132 0
M  V30 4001 O 527.792 -0.0769065 7.84762 0
M  V30 4002 O 527.829 -2.55232 7.81161 0
M  V30 4003 C 527.668 -3.79979 8.58246 0
M  V30 4004 C 528.209 -4.94023 7.72785 0
M  V30 4005 O 527.154 -5.18666 6.91125 0
M  V30 4006 C 529.427 -4.69597 6.85231 0
M  V30 4007 O 530.165 -5.83832 6.51337 0
M  V30 4008 C 528.759 -3.96706 5.66633 0
M  V30 4009 O 529.557 -4.14896 4.5003 0
M  V30 4010 C 527.421 -4.66153 5.59313 0
M  V30 4011 N 526.378 -3.71582 5.24027 0
M  V30 4012 C 526.547 -2.39715 5.48833 0
M  V30 4013 N 525.52 -1.65863 5.12845 0
M  V30 4014 C 524.635 -2.57637 4.5973 0
M  V30 4015 C 523.368 -2.40278 4.01027 0
M  V30 4016 N 522.803 -3.57711 3.59575 0
M  V30 4017 C 523.405 -4.80324 3.70476 0
M  V30 4018 N 524.582 -5.01121 4.23801 0
M  V30 4019 C 525.157 -3.84757 4.66372 0
M  V30 4020 H 528.636 -2.8955 5.86187 0
M  V30 4021 H 530.119 -4.0121 7.36511 0
M  V30 4022 H 528.425 -5.81019 8.37003 0
M  V30 4023 H 528.235 -3.73517 9.52265 0
M  V30 4024 H 526.605 -3.97163 8.80359 0
M  V30 4025 H 527.447 -1.98804 5.94332 0
M  V30 4026 H 529.245 -4.90891 4.01857 0
M  V30 4027 P 531.103 -5.75688 6.64379 0
M  V30 4028 O 532.525 -6.11849 7.01846 0
M  V30 4029 O 530.743 -4.30744 6.56026 0
M  V30 4030 O 530.78 -6.37042 5.19165 0
M  V30 4031 C 530.62 -7.83578 5.16515 0
M  V30 4032 C 531.16 -8.33398 3.83019 0
M  V30 4033 O 530.104 -8.10074 3.01034 0
M  V30 4034 C 532.378 -7.65514 3.2257 0
M  V30 4035 O 533.116 -8.4329 2.32297 0
M  V30 4036 C 531.709 -6.40075 2.62207 0
M  V30 4037 O 532.508 -5.92589 1.53712 0
M  V30 4038 C 530.372 -6.9454 2.18503 0
M  V30 4039 H 530.404 -7.23063 1.12091 0
M  V30 4040 H 531.587 -5.6025 3.37201 0
M  V30 4041 H 533.071 -7.35707 4.02681 0
M  V30 4042 H 531.377 -9.40912 3.9095 0
M  V30 4043 H 531.187 -8.29056 5.99158 0
M  V30 4044 H 529.557 -8.10073 5.25882 0
M  V30 4045 H 532.196 -6.30324 0.726794 0
M  V30 4046 P 534.053 -8.4349 2.47671 0
M  V30 4047 O 535.475 -8.94167 2.5964 0
M  V30 4048 O 533.693 -7.1704 3.19006 0
M  V30 4049 O 533.73 -8.16596 0.923387 0
M  V30 4050 C 533.57 -9.38437 0.108857 0
M  V30 4051 C 534.11 -9.08175 -1.28353 0
M  V30 4052 O 533.054 -8.44229 -1.84713 0
M  V30 4053 C 535.328 -8.18386 -1.42505 0
M  V30 4054 O 536.066 -8.3501 -2.60497 0
M  V30 4055 C 534.659 -6.80225 -1.25468 0
M  V30 4056 O 535.458 -5.81621 -1.91066 0
M  V30 4057 C 533.322 -7.02416 -1.9168 0
M  V30 4058 H 533.354 -6.6888 -2.96621 0
M  V30 4059 H 534.537 -6.53617 -0.192223 0
M  V30 4060 H 536.021 -8.36622 -0.589963 0
M  V30 4061 H 534.327 -10.0291 -1.79807 0
M  V30 4062 H 534.137 -10.2138 0.558219 0
M  V30 4063 H 532.507 -9.6579 0.0444202 0
M  V30 4064 H 535.146 -5.69556 -2.79637 0
M  V30 4065 P 537.004 -8.4349 -2.47671 0
M  V30 4066 O 538.426 -8.92593 -2.65 0
M  V30 4067 O 536.644 -7.7568 -1.19296 0
M  V30 4068 O 536.681 -7.36886 -3.63805 0
M  V30 4069 C 536.521 -7.95349 -4.982 0
M  V30 4070 C 537.061 -6.94612 -5.98974 0
M  V30 4071 O 536.005 -6.10347 -6.11815 0
M  V30 4072 C 538.279 -6.11426 -5.62335 0
M  V30 4073 O 539.017 -5.6162 -6.70584 0
M  V30 4074 C 537.61 -5.04409 -4.73308 0
M  V30 4075 O 538.409 -3.85992 -4.75183 0
M  V30 4076 C 536.273 -4.8728 -5.41006 0
M  V30 4077 H 536.305 -4.02333 -6.11157 0
M  V30 4078 H 537.488 -5.39466 -3.69543 0
M  V30 4079 H 538.972 -6.71916 -5.01943 0
M  V30 4080 H 537.278 -7.4649 -6.93477 0
M  V30 4081 H 537.088 -8.89416 -5.05237 0
M  V30 4082 H 535.458 -8.14876 -5.18409 0
M  V30 4083 H 538.097 -3.27957 -5.4317 0
M  V30 4084 P 539.954 -5.75688 -6.64379 0
M  V30 4085 O 541.376 -6.07627 -7.05504 0
M  V30 4086 O 539.594 -5.88047 -5.19722 0
M  V30 4087 O 539.631 -4.2322 -7.04443 0
M  V30 4088 C 539.471 -3.99743 -8.4911 0
M  V30 4089 C 540.011 -2.60516 -8.79425 0
M  V30 4090 O 538.955 -1.82684 -8.4467 0
M  V30 4091 C 541.229 -2.10343 -8.03628 0
M  V30 4092 O 541.967 -1.09919 -8.67766 0
M  V30 4093 C 540.56 -1.68446 -6.70876 0
M  V30 4094 O 541.359 -0.678137 -6.08433 0
M  V30 4095 C 539.223 -1.17436 -7.18567 0
M  V30 4096 H 539.255 -0.0804732 -7.31656 0
M  V30 4097 H 540.438 -2.54037 -6.02537 0
M  V30 4098 H 541.922 -2.93881 -7.85526 0
M  V30 4099 H 540.228 -2.53065 -9.86973 0
M  V30 4100 H 540.038 -4.75072 -9.05887 0
M  V30 4101 H 538.408 -4.05244 -8.76668 0
M  V30 4102 H 541.047 0.177647 -6.34251 0
M  V30 4103 P 542.905 -1.25109 -8.70152 0
M  V30 4104 O 544.327 -1.29744 -9.22016 0
M  V30 4105 O 542.545 -2.13714 -7.55141 0
M  V30 4106 O 542.582 0.248149 -8.21425 0
M  V30 4107 C 542.422 1.22779 -9.30434 0
M  V30 4108 C 542.962 2.56293 -8.80664 0
M  V30 4109 O 541.906 3.02979 -8.09349 0
M  V30 4110 C 544.18 2.57523 -7.89775 0
M  V30 4111 O 544.918 3.7668 -7.89438 0
M  V30 4112 C 543.511 2.20997 -6.55446 0
M  V30 4113 O 544.31 2.71895 -5.48509 0
M  V30 4114 C 542.174 2.89693 -6.67988 0
M  V30 4115 H 542.206 3.88793 -6.19859 0
M  V30 4116 H 543.389 1.12046 -6.44229 0
M  V30 4117 H 544.873 1.7746 -8.19711 0
M  V30 4118 H 543.179 3.20706 -9.67112 0
M  V30 4119 H 542.989 0.901032 -10.1892 0
M  V30 4120 H 541.359 1.33049 -9.56592 0
M  V30 4121 H 543.998 3.57847 -5.23962 0
M  V30 4122 P 545.855 3.65191 -7.99657 0
M  V30 4123 O 547.277 3.89332 -8.45794 0
M  V30 4124 O 545.495 2.28472 -7.50807 0
M  V30 4125 O 545.532 4.64972 -6.77611 0
M  V30 4126 C 545.372 6.06319 -7.16352 0
M  V30 4127 C 545.912 6.91731 -6.02299 0
M  V30 4128 O 544.856 6.92449 -5.17064 0
M  V30 4129 C 547.13 6.43627 -5.25174 0
M  V30 4130 O 547.868 7.43686 -4.60469 0
M  V30 4131 C 546.461 5.40275 -4.31916 0
M  V30 4132 O 547.26 5.25279 -3.14438 0
M  V30 4133 C 545.124 6.04847 -4.05327 0
M  V30 4134 H 545.156 6.62195 -3.11261 0
M  V30 4135 H 546.339 4.42556 -4.81383 0
M  V30 4136 H 547.823 5.92458 -5.93643 0
M  V30 4137 H 546.129 7.92655 -6.402 0
M  V30 4138 H 545.939 6.26671 -8.0846 0
M  V30 4139 H 544.309 6.29101 -7.32804 0
M  V30 4140 H 546.948 5.84315 -2.47318 0
M  V30 4141 P 548.806 7.39546 -4.75277 0
M  V30 4142 O 550.228 7.84798 -5.01039 0
M  V30 4143 O 548.446 5.9812 -5.08098 0
M  V30 4144 O 548.483 7.57503 -3.1866 0
M  V30 4145 C 548.323 8.97357 -2.74833 0
M  V30 4146 C 548.863 9.07548 -1.32709 0
M  V30 4147 O 547.807 8.62072 -0.606159 0
M  V30 4148 C 550.081 8.25383 -0.938334 0
M  V30 4149 O 550.819 8.74577 0.146954 0
M  V30 4150 C 549.412 6.8802 -0.712559 0
M  V30 4151 O 550.211 6.1189 0.194655 0
M  V30 4152 C 548.075 7.27966 -0.139777 0
M  V30 4153 H 548.107 7.25354 0.961601 0
M  V30 4154 H 549.29 6.32557 -1.65702 0
M  V30 4155 H 550.774 8.19355 -1.79097 0
M  V30 4156 H 549.08 10.1294 -1.10029 0
M  V30 4157 H 548.89 9.64276 -3.41316 0
M  V30 4158 H 547.26 9.25417 -2.76357 0
M  V30 4159 H 549.899 6.25267 1.07847 0
M  V30 4160 P 551.757 8.791 3.52383e-12 0
M  V30 4161 O 553.158 9.36698 -0.018734 0
M  V30 4162 O 551.379 7.82499 -1.07878 0
M  V30 4163 O 551.434 8.09434 1.41446 0
M  V30 4164 C 551.274 9.0349 2.53943 0
M  V30 4165 C 551.814 8.35135 3.78975 0
M  V30 4166 O 550.758 7.57904 4.1503 0
M  V30 4167 C 553.031 7.45087 3.67298 0
M  V30 4168 O 553.77 7.27796 4.85194 0
M  V30 4169 C 552.364 6.17323 3.12027 0
M  V30 4170 O 553.162 5.04149 3.47132 0
M  V30 4171 C 551.026 6.19961 3.81809 0
M  V30 4172 N 549.983 5.71575 2.93223 0
M  V30 4173 C 548.948 4.99452 3.47592 0
M  V30 4174 O 548.987 4.7199 4.69732 0
M  V30 4175 N 547.936 4.58505 2.6803 0
M  V30 4176 C 547.984 4.85544 1.36995 0
M  V30 4177 C 549.08 5.55532 0.788532 0
M  V30 4178 C 550.046 5.97426 1.60849 0
M  V30 4179 H 551.058 5.58142 4.72986 0
M  V30 4180 H 552.241 6.21428 2.0318 0
M  V30 4181 H 553.725 7.85913 2.93131 0
M  V30 4182 H 552.031 9.11171 4.55987 0
M  V30 4183 H 551.84 9.9573 2.34194 0
M  V30 4184 H 550.21 9.27824 2.67805 0
M  V30 4185 H 549.128 5.7421 -0.281588 0
M  V30 4186 H 550.892 6.53132 1.202 0
M  V30 4187 H 552.946 4.76386 4.34983 0
M  V30 4188 P 554.707 7.39546 4.75277 0
M  V30 4189 O 556.129 7.81777 5.05738 0
M  V30 4190 O 554.347 7.1065 3.32998 0
M  V30 4191 O 554.384 6.04542 5.56673 0
M  V30 4192 C 554.224 6.22772 7.02095 0
M  V30 4193 C 554.764 4.97725 7.70406 0
M  V30 4194 O 553.708 4.13256 7.58987 0
M  V30 4195 C 555.982 4.28231 7.11815 0
M  V30 4196 O 556.72 3.49945 8.01648 0
M  V30 4197 C 555.313 3.5063 5.96244 0
M  V30 4198 O 556.112 2.36482 5.64681 0
M  V30 4199 C 553.976 3.15122 6.56374 0
M  V30 4200 H 554.008 2.13853 6.99751 0
M  V30 4201 H 555.191 4.13501 5.06559 0
M  V30 4202 H 556.675 5.03285 6.70911 0
M  V30 4203 H 554.981 5.20877 8.75697 0
M  V30 4204 H 554.791 7.11046 7.35349 0
M  V30 4205 H 553.161 6.35815 7.26986 0
M  V30 4206 H 555.8 1.61644 6.13565 0
M  V30 4207 P 557.658 3.65191 7.99657 0
M  V30 4208 O 559.08 3.8425 8.48115 0
M  V30 4209 O 557.298 4.17805 6.64342 0
M  V30 4210 O 557.335 2.07613 7.95143 0
M  V30 4211 C 557.175 1.44328 9.27336 0
M  V30 4212 C 557.715 0.0220036 9.17197 0
M  V30 4213 O 556.659 -0.626867 8.61923 0
M  V30 4214 C 558.933 -0.24586 8.30336 0
M  V30 4215 O 559.671 -1.39011 8.63583 0
M  V30 4216 C 558.264 -0.273849 6.91158 0
M  V30 4217 O 559.063 -1.06348 6.02892 0
M  V30 4218 C 556.927 -0.897649 7.22545 0
M  V30 4219 H 556.959 -1.9841 7.04286 0
M  V30 4220 H 558.142 0.739928 6.497 0
M  V30 4221 H 559.626 0.60668 8.36503 0
M  V30 4222 H 557.932 -0.352479 10.1829 0
M  V30 4223 H 557.742 2.00611 10.0304 0
M  V30 4224 H 556.112 1.41843 9.55327 0
M  V30 4225 H 558.751 -1.95734 6.03555 0
M  V30 4226 P 560.608 -1.25109 8.70152 0
M  V30 4227 O 562.03 -1.35274 9.21221 0
M  V30 4228 O 560.248 -0.0769065 7.84762 0
M  V30 4229 O 560.285 -2.55232 7.81161 0
M  V30 4230 C 560.125 -3.79939 8.58154 0
M  V30 4231 C 560.665 -4.94023 7.72785 0
M  V30 4232 O 559.609 -5.18726 6.91205 0
M  V30 4233 C 561.883 -4.69597 6.85231 0
M  V30 4234 O 562.621 -5.83832 6.51337 0
M  V30 4235 C 561.214 -3.96706 5.66633 0
M  V30 4236 O 562.013 -4.15414 4.49689 0
M  V30 4237 C 559.877 -4.66153 5.59313 0
M  V30 4238 H 559.909 -5.47679 4.85214 0
M  V30 4239 H 561.092 -2.89008 5.86566 0
M  V30 4240 H 562.576 -4.0121 7.36511 0
M  V30 4241 H 560.882 -5.80182 8.37584 0
M  V30 4242 H 560.692 -3.73517 9.52265 0
M  V30 4243 H 559.062 -3.97163 8.80359 0
M  V30 4244 H 561.701 -4.90969 4.01921 0
M  V30 4245 P 563.559 -5.75688 6.64379 0
M  V30 4246 O 564.981 -6.11849 7.01846 0
M  V30 4247 O 563.199 -4.30744 6.56026 0
M  V30 4248 O 563.236 -6.37042 5.19165 0
M  V30 4249 C 563.076 -7.83578 5.16515 0
M  V30 4250 C 563.616 -8.33398 3.83019 0
M  V30 4251 O 562.56 -8.10074 3.01034 0
M  V30 4252 C 564.834 -7.65514 3.2257 0
M  V30 4253 O 565.572 -8.4329 2.32297 0
M  V30 4254 C 564.165 -6.40075 2.62207 0
M  V30 4255 O 564.964 -5.92589 1.53712 0
M  V30 4256 C 562.828 -6.9454 2.18503 0
M  V30 4257 H 562.86 -7.23063 1.12091 0
M  V30 4258 H 564.043 -5.6025 3.37201 0
M  V30 4259 H 565.527 -7.35707 4.02681 0
M  V30 4260 H 563.833 -9.40912 3.9095 0
M  V30 4261 H 563.643 -8.29056 5.99158 0
M  V30 4262 H 562.013 -8.10073 5.25882 0
M  V30 4263 H 564.652 -6.30324 0.726794 0
M  V30 4264 P 566.509 -8.4349 2.47671 0
M  V30 4265 O 567.931 -8.94167 2.5964 0
M  V30 4266 O 566.149 -7.1704 3.19006 0
M  V30 4267 O 566.186 -8.16596 0.923387 0
M  V30 4268 C 566.026 -9.38437 0.108857 0
M  V30 4269 C 566.566 -9.08175 -1.28353 0
M  V30 4270 O 565.51 -8.44229 -1.84713 0
M  V30 4271 C 567.784 -8.18386 -1.42505 0
M  V30 4272 O 568.522 -8.3501 -2.60497 0
M  V30 4273 C 567.115 -6.80225 -1.25468 0
M  V30 4274 O 567.914 -5.81621 -1.91066 0
M  V30 4275 C 565.778 -7.02416 -1.9168 0
M  V30 4276 H 565.81 -6.6888 -2.96621 0
M  V30 4277 H 566.993 -6.53617 -0.192223 0
M  V30 4278 H 568.477 -8.36622 -0.589963 0
M  V30 4279 H 566.783 -10.0291 -1.79807 0
M  V30 4280 H 566.593 -10.2138 0.558219 0
M  V30 4281 H 564.963 -9.6579 0.0444202 0
M  V30 4282 H 567.602 -5.69556 -2.79637 0
M  V30 4283 P 569.46 -8.4349 -2.47671 0
M  V30 4284 O 570.882 -8.92593 -2.65 0
M  V30 4285 O 569.1 -7.7568 -1.19296 0
M  V30 4286 O 569.137 -7.36886 -3.63805 0
M  V30 4287 C 568.977 -7.95349 -4.982 0
M  V30 4288 C 569.517 -6.94612 -5.98974 0
M  V30 4289 O 568.461 -6.10347 -6.11815 0
M  V30 4290 C 570.735 -6.11426 -5.62335 0
M  V30 4291 O 571.473 -5.6162 -6.70584 0
M  V30 4292 C 570.066 -5.04409 -4.73308 0
M  V30 4293 O 570.865 -3.85992 -4.75183 0
M  V30 4294 C 568.729 -4.8728 -5.41006 0
M  V30 4295 H 568.761 -4.02333 -6.11157 0
M  V30 4296 H 569.944 -5.39466 -3.69543 0
M  V30 4297 H 571.428 -6.71916 -5.01943 0
M  V30 4298 H 569.734 -7.4649 -6.93477 0
M  V30 4299 H 569.544 -8.89416 -5.05237 0
M  V30 4300 H 567.914 -8.14876 -5.18409 0
M  V30 4301 H 570.553 -3.27957 -5.4317 0
M  V30 4302 P 572.411 -5.75688 -6.64379 0
M  V30 4303 O 573.833 -6.07627 -7.05504 0
M  V30 4304 O 572.051 -5.88047 -5.19722 0
M  V30 4305 O 572.088 -4.2322 -7.04443 0
M  V30 4306 C 571.928 -3.99743 -8.4911 0
M  V30 4307 C 572.468 -2.60516 -8.79425 0
M  V30 4308 O 571.412 -1.82684 -8.4467 0
M  V30 4309 C 573.686 -2.10343 -8.03628 0
M  V30 4310 O 574.424 -1.09919 -8.67766 0
M  V30 4311 C 573.017 -1.68446 -6.70876 0
M  V30 4312 O 573.816 -0.678137 -6.08433 0
M  V30 4313 C 571.68 -1.17436 -7.18567 0
M  V30 4314 H 571.712 -0.0804732 -7.31656 0
M  V30 4315 H 572.895 -2.54037 -6.02537 0
M  V30 4316 H 574.379 -2.93881 -7.85526 0
M  V30 4317 H 572.685 -2.53065 -9.86973 0
M  V30 4318 H 572.495 -4.75072 -9.05887 0
M  V30 4319 H 570.865 -4.05244 -8.76668 0
M  V30 4320 H 573.504 0.177647 -6.34251 0
M  V30 4321 P 575.361 -1.25109 -8.70152 0
M  V30 4322 O 576.782 -1.29758 -9.22115 0
M  V30 4323 O 575.001 -2.13714 -7.55141 0
M  V30 4324 O 575.038 0.248149 -8.21425 0
M  V30 4325 C 574.877 1.22792 -9.30533 0
M  V30 4326 C 575.418 2.56293 -8.80664 0
M  V30 4327 O 574.363 3.02944 -8.09255 0
M  V30 4328 C 576.636 2.57523 -7.89775 0
M  V30 4329 O 577.374 3.7668 -7.89438 0
M  V30 4330 C 575.968 2.20997 -6.55446 0
M  V30 4331 O 576.766 2.71302 -5.48691 0
M  V30 4332 C 574.63 2.89693 -6.67988 0
M  V30 4333 N 573.587 2.08895 -6.07487 0
M  V30 4334 C 573.756 0.753809 -5.94137 0
M  V30 4335 N 572.729 0.146592 -5.38801 0
M  V30 4336 C 571.844 1.1768 -5.13693 0
M  V30 4337 C 570.577 1.17563 -4.52477 0
M  V30 4338 N 569.978 0.057481 -4.04759 0
M  V30 4339 N 570.012 2.41918 -4.45789 0
M  V30 4340 C 570.614 3.56493 -4.90792 0
M  V30 4341 N 571.791 3.61423 -5.47817 0
M  V30 4342 C 572.366 2.37779 -5.5588 0
M  V30 4343 H 574.662 3.8874 -6.19774 0
M  V30 4344 H 575.845 1.12673 -6.44018 0
M  V30 4345 H 577.328 1.7746 -8.19711 0
M  V30 4346 H 575.634 3.21673 -9.66791 0
M  V30 4347 H 575.444 0.901032 -10.1892 0
M  V30 4348 H 573.814 1.33049 -9.56592 0
M  V30 4349 H 570.078 4.49919 -4.77947 0
M  V30 4350 H 574.656 0.233081 -6.26266 0
M  V30 4351 H 569.048 0.119831 -3.60801 0
M  V30 4352 H 570.452 -0.852272 -4.12385 0
M  V30 4353 H 576.454 3.5779 -5.23879 0
M  V30 4354 P 578.312 3.65191 -7.99657 0
M  V30 4355 O 579.734 3.89332 -8.45794 0
M  V30 4356 O 577.952 2.28472 -7.50807 0
M  V30 4357 O 577.989 4.64972 -6.77611 0
M  V30 4358 C 577.829 6.06319 -7.16352 0
M  V30 4359 C 578.369 6.91731 -6.02299 0
M  V30 4360 O 577.313 6.92449 -5.17064 0
M  V30 4361 C 579.587 6.43627 -5.25174 0
M  V30 4362 O 580.325 7.43686 -4.60469 0
M  V30 4363 C 578.918 5.40275 -4.31916 0
M  V30 4364 O 579.717 5.25279 -3.14438 0
M  V30 4365 C 577.581 6.04847 -4.05327 0
M  V30 4366 H 577.613 6.62195 -3.11261 0
M  V30 4367 H 578.796 4.42556 -4.81383 0
M  V30 4368 H 580.28 5.92458 -5.93643 0
M  V30 4369 H 578.586 7.92655 -6.402 0
M  V30 4370 H 578.396 6.26671 -8.0846 0
M  V30 4371 H 576.766 6.29101 -7.32804 0
M  V30 4372 H 579.405 5.84315 -2.47318 0
M  V30 4373 P 581.262 7.39546 -4.75277 0
M  V30 4374 O 582.683 7.84882 -5.01092 0
M  V30 4375 O 580.902 5.9812 -5.08098 0
M  V30 4376 O 580.939 7.57503 -3.1866 0
M  V30 4377 C 580.778 8.97452 -2.74862 0
M  V30 4378 C 581.319 9.07548 -1.32709 0
M  V30 4379 O 580.264 8.61972 -0.606089 0
M  V30 4380 C 582.537 8.25383 -0.938334 0
M  V30 4381 O 583.275 8.74577 0.146954 0
M  V30 4382 C 581.869 6.8802 -0.712559 0
M  V30 4383 O 582.667 6.1181 0.188505 0
M  V30 4384 C 580.531 7.27966 -0.139777 0
M  V30 4385 N 579.488 6.39368 -0.623421 0
M  V30 4386 C 579.657 5.71761 -1.78245 0
M  V30 4387 N 578.63 4.962 -2.10491 0
M  V30 4388 C 577.745 5.16158 -1.0635 0
M  V30 4389 C 576.478 4.60425 -0.810266 0
M  V30 4390 N 575.913 5.06 0.348685 0
M  V30 4391 C 576.515 5.94532 1.20395 0
M  V30 4392 N 577.692 6.48452 1.01191 0
M  V30 4393 C 578.267 6.04423 -0.146291 0
M  V30 4394 H 581.746 6.32625 -1.65044 0
M  V30 4395 H 583.229 8.19355 -1.79097 0
M  V30 4396 H 581.535 10.1305 -1.09016 0
M  V30 4397 H 581.345 9.64276 -3.41316 0
M  V30 4398 H 579.715 9.25417 -2.76357 0
M  V30 4399 H 580.557 5.79354 -2.38959 0
M  V30 4400 H 582.355 6.25169 1.0783 0
M  V30 4401 P 584.213 8.791 3.834e-12 0
M  V30 4402 O 585.635 9.31096 0.027933 0
M  V30 4403 O 583.853 7.77869 -1.04071 0
M  V30 4404 O 583.89 8.09533 1.41463 0
M  V30 4405 C 583.73 9.0349 2.53943 0
M  V30 4406 C 584.27 8.35226 3.79016 0
M  V30 4407 O 583.214 7.57992 4.15078 0
M  V30 4408 C 585.488 7.45087 3.67298 0
M  V30 4409 O 586.226 7.27796 4.85194 0
M  V30 4410 C 584.819 6.17323 3.12027 0
M  V30 4411 O 585.618 5.04231 3.47188 0
M  V30 4412 C 583.482 6.19961 3.81809 0
M  V30 4413 H 583.514 5.58218 4.73051 0
M  V30 4414 H 584.697 6.21726 2.02589 0
M  V30 4415 H 586.181 7.86112 2.9231 0
M  V30 4416 H 584.487 9.11627 4.55076 0
M  V30 4417 H 584.297 9.9573 2.34194 0
M  V30 4418 H 582.667 9.2792 2.67832 0
M  V30 4419 H 585.306 4.67702 4.28772 0
M  V30 4420 P 587.163 7.39546 4.75277 0
M  V30 4421 O 588.585 7.81777 5.05738 0
M  V30 4422 O 586.803 7.1065 3.32998 0
M  V30 4423 O 586.84 6.04542 5.56673 0
M  V30 4424 C 586.68 6.22772 7.02095 0
M  V30 4425 C 587.22 4.97725 7.70406 0
M  V30 4426 O 586.164 4.13256 7.58987 0
M  V30 4427 C 588.438 4.28231 7.11815 0
M  V30 4428 O 589.176 3.49945 8.01648 0
M  V30 4429 C 587.769 3.5063 5.96244 0
M  V30 4430 O 588.568 2.36482 5.64681 0
M  V30 4431 C 586.432 3.15122 6.56374 0
M  V30 4432 H 586.464 2.13853 6.99751 0
M  V30 4433 H 587.647 4.13501 5.06559 0
M  V30 4434 H 589.131 5.03285 6.70911 0
M  V30 4435 H 587.437 5.20877 8.75697 0
M  V30 4436 H 587.247 7.11046 7.35349 0
M  V30 4437 H 585.617 6.35815 7.26986 0
M  V30 4438 H 588.256 1.61644 6.13565 0
M  V30 4439 P 590.114 3.65191 7.99657 0
M  V30 4440 O 591.536 3.8425 8.48115 0
M  V30 4441 O 589.754 4.17805 6.64342 0
M  V30 4442 O 589.791 2.07613 7.95143 0
M  V30 4443 C 589.631 1.44328 9.27336 0
M  V30 4444 C 590.171 0.0220036 9.17197 0
M  V30 4445 O 589.115 -0.626867 8.61923 0
M  V30 4446 C 591.389 -0.24586 8.30336 0
M  V30 4447 O 592.127 -1.39011 8.63583 0
M  V30 4448 C 590.72 -0.273849 6.91158 0
M  V30 4449 O 591.519 -1.06348 6.02892 0
M  V30 4450 C 589.383 -0.897649 7.22545 0
M  V30 4451 H 589.415 -1.9841 7.04286 0
M  V30 4452 H 590.598 0.739928 6.497 0
M  V30 4453 H 592.082 0.60668 8.36503 0
M  V30 4454 H 590.388 -0.352479 10.1829 0
M  V30 4455 H 590.198 2.00611 10.0304 0
M  V30 4456 H 588.568 1.41843 9.55327 0
M  V30 4457 H 591.207 -1.95734 6.03555 0
M  V30 4458 P 593.065 -1.25109 8.70152 0
M  V30 4459 O 594.487 -1.35274 9.21221 0
M  V30 4460 O 592.705 -0.0769065 7.84762 0
M  V30 4461 O 592.742 -2.55232 7.81161 0
M  V30 4462 C 592.582 -3.79939 8.58154 0
M  V30 4463 C 593.122 -4.94023 7.72785 0
M  V30 4464 O 592.066 -5.18726 6.91205 0
M  V30 4465 C 594.34 -4.69597 6.85231 0
M  V30 4466 O 595.078 -5.83832 6.51337 0
M  V30 4467 C 593.671 -3.96706 5.66633 0
M  V30 4468 O 594.47 -4.15414 4.49689 0
M  V30 4469 C 592.334 -4.66153 5.59313 0
M  V30 4470 H 592.366 -5.47679 4.85214 0
M  V30 4471 H 593.549 -2.89008 5.86566 0
M  V30 4472 H 595.033 -4.0121 7.36511 0
M  V30 4473 H 593.339 -5.80182 8.37584 0
M  V30 4474 H 593.149 -3.73517 9.52265 0
M  V30 4475 H 591.519 -3.97163 8.80359 0
M  V30 4476 H 594.158 -4.90969 4.01921 0
M  V30 4477 P 596.015 -5.75688 6.64379 0
M  V30 4478 O 597.437 -6.11849 7.01846 0
M  V30 4479 O 595.655 -4.30744 6.56026 0
M  V30 4480 O 595.692 -6.37042 5.19165 0
M  V30 4481 C 595.532 -7.83578 5.16515 0
M  V30 4482 C 596.072 -8.33398 3.83019 0
M  V30 4483 O 595.016 -8.10074 3.01034 0
M  V30 4484 C 597.29 -7.65514 3.2257 0
M  V30 4485 O 598.028 -8.4329 2.32297 0
M  V30 4486 C 596.621 -6.40075 2.62207 0
M  V30 4487 O 597.42 -5.92589 1.53712 0
M  V30 4488 C 595.284 -6.9454 2.18503 0
M  V30 4489 H 595.316 -7.23063 1.12091 0
M  V30 4490 H 596.499 -5.6025 3.37201 0
M  V30 4491 H 597.983 -7.35707 4.02681 0
M  V30 4492 H 596.289 -9.40912 3.9095 0
M  V30 4493 H 596.099 -8.29056 5.99158 0
M  V30 4494 H 594.469 -8.10073 5.25882 0
M  V30 4495 H 597.108 -6.30324 0.726794 0
M  V30 4496 P 598.966 -8.4349 2.47671 0
M  V30 4497 O 600.388 -8.94167 2.5964 0
M  V30 4498 O 598.606 -7.1704 3.19006 0
M  V30 4499 O 598.643 -8.16596 0.923387 0
M  V30 4500 C 598.483 -9.38437 0.108857 0
M  V30 4501 C 599.023 -9.08175 -1.28353 0
M  V30 4502 O 597.967 -8.44229 -1.84713 0
M  V30 4503 C 600.241 -8.18386 -1.42505 0
M  V30 4504 O 600.979 -8.3501 -2.60497 0
M  V30 4505 C 599.572 -6.80225 -1.25468 0
M  V30 4506 O 600.371 -5.81621 -1.91066 0
M  V30 4507 C 598.235 -7.02416 -1.9168 0
M  V30 4508 H 598.267 -6.6888 -2.96621 0
M  V30 4509 H 599.45 -6.53617 -0.192223 0
M  V30 4510 H 600.934 -8.36622 -0.589963 0
M  V30 4511 H 599.24 -10.0291 -1.79807 0
M  V30 4512 H 599.05 -10.2138 0.558219 0
M  V30 4513 H 597.42 -9.6579 0.0444202 0
M  V30 4514 H 600.059 -5.69556 -2.79637 0
M  V30 4515 P 601.916 -8.4349 -2.47671 0
M  V30 4516 O 603.338 -8.92593 -2.65 0
M  V30 4517 O 601.556 -7.7568 -1.19296 0
M  V30 4518 O 601.593 -7.36886 -3.63805 0
M  V30 4519 C 601.433 -7.95349 -4.982 0
M  V30 4520 C 601.973 -6.94612 -5.98974 0
M  V30 4521 O 600.917 -6.10347 -6.11815 0
M  V30 4522 C 603.191 -6.11426 -5.62335 0
M  V30 4523 O 603.929 -5.6162 -6.70584 0
M  V30 4524 C 602.522 -5.04409 -4.73308 0
M  V30 4525 O 603.321 -3.85992 -4.75183 0
M  V30 4526 C 601.185 -4.8728 -5.41006 0
M  V30 4527 H 601.217 -4.02333 -6.11157 0
M  V30 4528 H 602.4 -5.39466 -3.69543 0
M  V30 4529 H 603.884 -6.71916 -5.01943 0
M  V30 4530 H 602.19 -7.4649 -6.93477 0
M  V30 4531 H 602 -8.89416 -5.05237 0
M  V30 4532 H 600.37 -8.14876 -5.18409 0
M  V30 4533 H 603.009 -3.27957 -5.4317 0
M  V30 4534 P 604.867 -5.75688 -6.64379 0
M  V30 4535 O 606.289 -6.07627 -7.05504 0
M  V30 4536 O 604.507 -5.88047 -5.19722 0
M  V30 4537 O 604.544 -4.2322 -7.04443 0
M  V30 4538 C 604.384 -3.99743 -8.4911 0
M  V30 4539 C 604.924 -2.60516 -8.79425 0
M  V30 4540 O 603.868 -1.82684 -8.4467 0
M  V30 4541 C 606.142 -2.10343 -8.03628 0
M  V30 4542 O 606.88 -1.09919 -8.67766 0
M  V30 4543 C 605.473 -1.68446 -6.70876 0
M  V30 4544 O 606.272 -0.678137 -6.08433 0
M  V30 4545 C 604.136 -1.17436 -7.18567 0
M  V30 4546 H 604.168 -0.0804732 -7.31656 0
M  V30 4547 H 605.351 -2.54037 -6.02537 0
M  V30 4548 H 606.835 -2.93881 -7.85526 0
M  V30 4549 H 605.141 -2.53065 -9.86973 0
M  V30 4550 H 604.951 -4.75072 -9.05887 0
M  V30 4551 H 603.321 -4.05244 -8.76668 0
M  V30 4552 H 605.96 0.177647 -6.34251 0
M  V30 4553 P 607.817 -1.25109 -8.70152 0
M  V30 4554 O 609.238 -1.29758 -9.22115 0
M  V30 4555 O 607.457 -2.13714 -7.55141 0
M  V30 4556 O 607.494 0.248149 -8.21425 0
M  V30 4557 C 607.333 1.22792 -9.30533 0
M  V30 4558 C 607.874 2.56293 -8.80664 0
M  V30 4559 O 606.819 3.02944 -8.09255 0
M  V30 4560 C 609.092 2.57523 -7.89775 0
M  V30 4561 O 609.83 3.7668 -7.89438 0
M  V30 4562 C 608.424 2.20997 -6.55446 0
M  V30 4563 O 609.222 2.71302 -5.48691 0
M  V30 4564 C 607.086 2.89693 -6.67988 0
M  V30 4565 N 606.043 2.08895 -6.07487 0
M  V30 4566 C 606.212 0.753809 -5.94137 0
M  V30 4567 N 605.185 0.146592 -5.38801 0
M  V30 4568 C 604.3 1.1768 -5.13693 0
M  V30 4569 C 603.033 1.17563 -4.52477 0
M  V30 4570 N 602.434 0.057481 -4.04759 0
M  V30 4571 N 602.468 2.41918 -4.45789 0
M  V30 4572 C 603.07 3.56493 -4.90792 0
M  V30 4573 N 604.247 3.61423 -5.47817 0
M  V30 4574 C 604.822 2.37779 -5.5588 0
M  V30 4575 H 607.118 3.8874 -6.19774 0
M  V30 4576 H 608.301 1.12673 -6.44018 0
M  V30 4577 H 609.784 1.7746 -8.19711 0
M  V30 4578 H 608.09 3.21673 -9.66791 0
M  V30 4579 H 607.9 0.901032 -10.1892 0
M  V30 4580 H 606.27 1.33049 -9.56592 0
M  V30 4581 H 602.534 4.49919 -4.77947 0
M  V30 4582 H 607.112 0.233081 -6.26266 0
M  V30 4583 H 601.504 0.119831 -3.60801 0
M  V30 4584 H 602.908 -0.852272 -4.12385 0
M  V30 4585 H 608.91 3.5779 -5.23879 0
M  V30 4586 P 610.768 3.65191 -7.99657 0
M  V30 4587 O 612.19 3.89416 -8.45976 0
M  V30 4588 O 610.408 2.28472 -7.50807 0
M  V30 4589 O 610.445 4.64972 -6.77611 0
M  V30 4590 C 610.285 6.06319 -7.16352 0
M  V30 4591 C 610.825 6.91655 -6.02234 0
M  V30 4592 O 609.77 6.92449 -5.17064 0
M  V30 4593 C 612.043 6.43627 -5.25174 0
M  V30 4594 O 612.781 7.43686 -4.60469 0
M  V30 4595 C 611.375 5.40275 -4.31916 0
M  V30 4596 O 612.173 5.25193 -3.14386 0
M  V30 4597 C 610.037 6.04847 -4.05327 0
M  V30 4598 N 608.994 5.04166 -3.98114 0
M  V30 4599 C 609.056 3.96049 -4.75587 0
M  V30 4600 N 608.011 3.15559 -4.54006 0
M  V30 4601 C 607.277 3.78802 -3.62491 0
M  V30 4602 C 605.971 3.476 -3.10071 0
M  V30 4603 O 605.238 2.51136 -3.37021 0
M  V30 4604 N 605.541 4.39088 -2.19956 0
M  V30 4605 C 606.29 5.53215 -1.81733 0
M  V30 4606 N 605.693 6.31963 -0.860928 0
M  V30 4607 N 607.443 5.86688 -2.32562 0
M  V30 4608 C 607.9 4.97525 -3.23407 0
M  V30 4609 H 610.069 6.62195 -3.11261 0
M  V30 4610 H 611.252 4.42488 -4.8131 0
M  V30 4611 H 612.737 5.93051 -5.9305 0
M  V30 4612 H 611.042 7.92655 -6.402 0
M  V30 4613 H 610.852 6.26671 -8.0846 0
M  V30 4614 H 609.221 6.29101 -7.32804 0
M  V30 4615 H 604.645 4.25523 -1.77604 0
M  V30 4616 H 609.852 3.75576 -5.47333 0
M  V30 4617 H 604.782 6.04684 -0.468946 0
M  V30 4618 H 606.158 7.18054 -0.542422 0
M  V30 4619 H 611.862 5.84223 -2.47279 0
M  V30 4620 P 613.719 7.39546 -4.75277 0
M  V30 4621 O 615.141 7.84798 -5.01039 0
M  V30 4622 O 613.359 5.9812 -5.08098 0
M  V30 4623 O 613.396 7.57503 -3.1866 0
M  V30 4624 C 613.236 8.97357 -2.74833 0
M  V30 4625 C 613.776 9.07548 -1.32709 0
M  V30 4626 O 612.72 8.62072 -0.606159 0
M  V30 4627 C 614.994 8.25383 -0.938334 0
M  V30 4628 O 615.732 8.74577 0.146954 0
M  V30 4629 C 614.325 6.8802 -0.712559 0
M  V30 4630 O 615.124 6.1189 0.194655 0
M  V30 4631 C 612.988 7.27966 -0.139777 0
M  V30 4632 H 613.02 7.25354 0.961601 0
M  V30 4633 H 614.203 6.32557 -1.65702 0
M  V30 4634 H 615.687 8.19355 -1.79097 0
M  V30 4635 H 613.993 10.1294 -1.10029 0
M  V30 4636 H 613.803 9.64276 -3.41316 0
M  V30 4637 H 612.173 9.25417 -2.76357 0
M  V30 4638 H 614.812 6.25267 1.07847 0
M  V30 4639 P 616.669 8.791 4.14417e-12 0
M  V30 4640 O 618.091 9.31096 0.027933 0
M  V30 4641 O 616.309 7.77869 -1.04071 0
M  V30 4642 O 616.346 8.09533 1.41463 0
M  V30 4643 C 616.186 9.0349 2.53943 0
M  V30 4644 C 616.726 8.35226 3.79016 0
M  V30 4645 O 615.67 7.57992 4.15078 0
M  V30 4646 C 617.944 7.45087 3.67298 0
M  V30 4647 O 618.682 7.27796 4.85194 0
M  V30 4648 C 617.275 6.17323 3.12027 0
M  V30 4649 O 618.074 5.04231 3.47188 0
M  V30 4650 C 615.938 6.19961 3.81809 0
M  V30 4651 H 615.97 5.58218 4.73051 0
M  V30 4652 H 617.153 6.21726 2.02589 0
M  V30 4653 H 618.637 7.86112 2.9231 0
M  V30 4654 H 616.943 9.11627 4.55076 0
M  V30 4655 H 616.753 9.9573 2.34194 0
M  V30 4656 H 615.123 9.2792 2.67832 0
M  V30 4657 H 617.762 4.67702 4.28772 0
M  V30 4658 P 619.62 7.39546 4.75277 0
M  V30 4659 O 621.042 7.81777 5.05738 0
M  V30 4660 O 619.26 7.1065 3.32998 0
M  V30 4661 O 619.297 6.04542 5.56673 0
M  V30 4662 C 619.137 6.22772 7.02095 0
M  V30 4663 C 619.677 4.97725 7.70406 0
M  V30 4664 O 618.621 4.13256 7.58987 0
M  V30 4665 C 620.895 4.28231 7.11815 0
M  V30 4666 O 621.633 3.49945 8.01648 0
M  V30 4667 C 620.226 3.5063 5.96244 0
M  V30 4668 O 621.025 2.36482 5.64681 0
M  V30 4669 C 618.889 3.15122 6.56374 0
M  V30 4670 H 618.921 2.13853 6.99751 0
M  V30 4671 H 620.104 4.13501 5.06559 0
M  V30 4672 H 621.588 5.03285 6.70911 0
M  V30 4673 H 619.894 5.20877 8.75697 0
M  V30 4674 H 619.704 7.11046 7.35349 0
M  V30 4675 H 618.074 6.35815 7.26986 0
M  V30 4676 H 620.713 1.61644 6.13565 0
M  V30 4677 P 622.57 3.65191 7.99657 0
M  V30 4678 O 623.992 3.84333 8.48297 0
M  V30 4679 O 622.21 4.17805 6.64342 0
M  V30 4680 O 622.247 2.07613 7.95143 0
M  V30 4681 C 622.087 1.44328 9.27336 0
M  V30 4682 C 622.627 0.0220012 9.17097 0
M  V30 4683 O 621.572 -0.626867 8.61923 0
M  V30 4684 C 623.845 -0.24586 8.30336 0
M  V30 4685 O 624.583 -1.39011 8.63583 0
M  V30 4686 C 623.177 -0.273849 6.91158 0
M  V30 4687 O 623.975 -1.06331 6.02794 0
M  V30 4688 C 621.839 -0.897649 7.22545 0
M  V30 4689 N 620.796 -0.292839 6.41732 0
M  V30 4690 C 620.858 1.00068 6.10757 0
M  V30 4691 N 619.813 1.36468 5.35794 0
M  V30 4692 C 619.079 0.258894 5.2366 0
M  V30 4693 C 617.773 0.0670682 4.65752 0
M  V30 4694 O 617.04 0.902443 4.10497 0
M  V30 4695 N 617.343 -1.2131 4.75881 0
M  V30 4696 C 618.092 -2.24934 5.37101 0
M  V30 4697 N 617.495 -3.48783 5.33984 0
M  V30 4698 N 619.245 -2.0844 5.95684 0
M  V30 4699 C 619.702 -0.81395 5.87791 0
M  V30 4700 H 621.871 -1.9841 7.04286 0
M  V30 4701 H 623.054 0.739815 6.49601 0
M  V30 4702 H 624.539 0.598315 8.36563 0
M  V30 4703 H 622.844 -0.352479 10.1829 0
M  V30 4704 H 622.654 2.00611 10.0304 0
M  V30 4705 H 621.023 1.41843 9.55327 0
M  V30 4706 H 616.447 -1.44434 4.37895 0
M  V30 4707 H 621.654 1.67697 6.42268 0
M  V30 4708 H 616.584 -3.60543 4.87699 0
M  V30 4709 H 617.96 -4.29232 5.7819 0
M  V30 4710 H 623.664 -1.95704 6.0346 0
M  V30 4711 P 625.521 -1.25109 8.70152 0
M  V30 4712 O 626.943 -1.35274 9.21221 0
M  V30 4713 O 625.161 -0.0769065 7.84762 0
M  V30 4714 O 625.198 -2.55232 7.81161 0
M  V30 4715 C 625.038 -3.79939 8.58154 0
M  V30 4716 C 625.578 -4.94023 7.72785 0
M  V30 4717 O 624.522 -5.18726 6.91205 0
M  V30 4718 C 626.796 -4.69597 6.85231 0
M  V30 4719 O 627.534 -5.83832 6.51337 0
M  V30 4720 C 626.127 -3.96706 5.66633 0
M  V30 4721 O 626.926 -4.15414 4.49689 0
M  V30 4722 C 624.79 -4.66153 5.59313 0
M  V30 4723 H 624.822 -5.47679 4.85214 0
M  V30 4724 H 626.005 -2.89008 5.86566 0
M  V30 4725 H 627.489 -4.0121 7.36511 0
M  V30 4726 H 625.795 -5.80182 8.37584 0
M  V30 4727 H 625.605 -3.73517 9.52265 0
M  V30 4728 H 623.975 -3.97163 8.80359 0
M  V30 4729 H 626.614 -4.90969 4.01921 0
M  V30 4730 P 628.471 -5.75688 6.64379 0
M  V30 4731 O 629.893 -6.11849 7.01846 0
M  V30 4732 O 628.111 -4.30744 6.56026 0
M  V30 4733 O 628.148 -6.37042 5.19165 0
M  V30 4734 C 627.988 -7.83578 5.16515 0
M  V30 4735 C 628.528 -8.33398 3.83019 0
M  V30 4736 O 627.472 -8.10074 3.01034 0
M  V30 4737 C 629.746 -7.65514 3.2257 0
M  V30 4738 O 630.484 -8.4329 2.32297 0
M  V30 4739 C 629.077 -6.40075 2.62207 0
M  V30 4740 O 629.876 -5.92589 1.53712 0
M  V30 4741 C 627.74 -6.9454 2.18503 0
M  V30 4742 H 627.772 -7.23063 1.12091 0
M  V30 4743 H 628.955 -5.6025 3.37201 0
M  V30 4744 H 630.439 -7.35707 4.02681 0
M  V30 4745 H 628.745 -9.40912 3.9095 0
M  V30 4746 H 628.555 -8.29056 5.99158 0
M  V30 4747 H 626.925 -8.10073 5.25882 0
M  V30 4748 H 629.564 -6.30324 0.726794 0
M  V30 4749 P 631.422 -8.4349 2.47671 0
M  V30 4750 O 632.844 -8.94167 2.5964 0
M  V30 4751 O 631.062 -7.1704 3.19006 0
M  V30 4752 O 631.099 -8.16596 0.923387 0
M  V30 4753 C 630.939 -9.38437 0.108857 0
M  V30 4754 C 631.479 -9.08175 -1.28353 0
M  V30 4755 O 630.423 -8.44229 -1.84713 0
M  V30 4756 C 632.697 -8.18386 -1.42505 0
M  V30 4757 O 633.435 -8.3501 -2.60497 0
M  V30 4758 C 632.028 -6.80225 -1.25468 0
M  V30 4759 O 632.827 -5.81621 -1.91066 0
M  V30 4760 C 630.691 -7.02416 -1.9168 0
M  V30 4761 H 630.723 -6.6888 -2.96621 0
M  V30 4762 H 631.906 -6.53617 -0.192223 0
M  V30 4763 H 633.39 -8.36622 -0.589963 0
M  V30 4764 H 631.696 -10.0291 -1.79807 0
M  V30 4765 H 631.506 -10.2138 0.558219 0
M  V30 4766 H 629.876 -9.6579 0.0444202 0
M  V30 4767 H 632.515 -5.69556 -2.79637 0
M  V30 4768 P 634.373 -8.4349 -2.47671 0
M  V30 4769 O 635.795 -8.92593 -2.65 0
M  V30 4770 O 634.013 -7.7568 -1.19296 0
M  V30 4771 O 634.05 -7.36886 -3.63805 0
M  V30 4772 C 633.89 -7.95349 -4.982 0
M  V30 4773 C 634.43 -6.94612 -5.98974 0
M  V30 4774 O 633.374 -6.10347 -6.11815 0
M  V30 4775 C 635.648 -6.11426 -5.62335 0
M  V30 4776 O 636.386 -5.6162 -6.70584 0
M  V30 4777 C 634.979 -5.04409 -4.73308 0
M  V30 4778 O 635.778 -3.85992 -4.75183 0
M  V30 4779 C 633.642 -4.8728 -5.41006 0
M  V30 4780 H 633.674 -4.02333 -6.11157 0
M  V30 4781 H 634.857 -5.39466 -3.69543 0
M  V30 4782 H 636.341 -6.71916 -5.01943 0
M  V30 4783 H 634.647 -7.4649 -6.93477 0
M  V30 4784 H 634.457 -8.89416 -5.05237 0
M  V30 4785 H 632.827 -8.14876 -5.18409 0
M  V30 4786 H 635.466 -3.27957 -5.4317 0
M  V30 4787 P 637.323 -5.75688 -6.64379 0
M  V30 4788 O 638.745 -6.07627 -7.05504 0
M  V30 4789 O 636.963 -5.88047 -5.19722 0
M  V30 4790 O 637 -4.2322 -7.04443 0
M  V30 4791 C 636.84 -3.99743 -8.4911 0
M  V30 4792 C 637.38 -2.60516 -8.79425 0
M  V30 4793 O 636.324 -1.82684 -8.4467 0
M  V30 4794 C 638.598 -2.10343 -8.03628 0
M  V30 4795 O 639.336 -1.09919 -8.67766 0
M  V30 4796 C 637.929 -1.68446 -6.70876 0
M  V30 4797 O 638.728 -0.678137 -6.08433 0
M  V30 4798 C 636.592 -1.17436 -7.18567 0
M  V30 4799 H 636.624 -0.0804732 -7.31656 0
M  V30 4800 H 637.807 -2.54037 -6.02537 0
M  V30 4801 H 639.291 -2.93881 -7.85526 0
M  V30 4802 H 637.597 -2.53065 -9.86973 0
M  V30 4803 H 637.407 -4.75072 -9.05887 0
M  V30 4804 H 635.777 -4.05244 -8.76668 0
M  V30 4805 H 638.416 0.177647 -6.34251 0
M  V30 4806 P 640.274 -1.25109 -8.70152 0
M  V30 4807 O 641.696 -1.29744 -9.22016 0
M  V30 4808 O 639.914 -2.13714 -7.55141 0
M  V30 4809 O 639.951 0.248149 -8.21425 0
M  V30 4810 C 639.791 1.22779 -9.30434 0
M  V30 4811 C 640.331 2.56293 -8.80664 0
M  V30 4812 O 639.275 3.02979 -8.09349 0
M  V30 4813 C 641.549 2.57523 -7.89775 0
M  V30 4814 O 642.287 3.7668 -7.89438 0
M  V30 4815 C 640.88 2.20997 -6.55446 0
M  V30 4816 O 641.679 2.71895 -5.48509 0
M  V30 4817 C 639.543 2.89693 -6.67988 0
M  V30 4818 H 639.575 3.88793 -6.19859 0
M  V30 4819 H 640.758 1.12046 -6.44229 0
M  V30 4820 H 642.242 1.7746 -8.19711 0
M  V30 4821 H 640.548 3.20706 -9.67112 0
M  V30 4822 H 640.358 0.901032 -10.1892 0
M  V30 4823 H 638.728 1.33049 -9.56592 0
M  V30 4824 H 641.367 3.57847 -5.23962 0
M  V30 4825 P 643.224 3.65191 -7.99657 0
M  V30 4826 O 644.646 3.89332 -8.45794 0
M  V30 4827 O 642.864 2.28472 -7.50807 0
M  V30 4828 O 642.901 4.64972 -6.77611 0
M  V30 4829 C 642.741 6.06319 -7.16352 0
M  V30 4830 C 643.281 6.91731 -6.02299 0
M  V30 4831 O 642.225 6.92449 -5.17064 0
M  V30 4832 C 644.499 6.43627 -5.25174 0
M  V30 4833 O 645.237 7.43686 -4.60469 0
M  V30 4834 C 643.83 5.40275 -4.31916 0
M  V30 4835 O 644.629 5.25279 -3.14438 0
M  V30 4836 C 642.493 6.04847 -4.05327 0
M  V30 4837 H 642.525 6.62195 -3.11261 0
M  V30 4838 H 643.708 4.42556 -4.81383 0
M  V30 4839 H 645.192 5.92458 -5.93643 0
M  V30 4840 H 643.498 7.92655 -6.402 0
M  V30 4841 H 643.308 6.26671 -8.0846 0
M  V30 4842 H 641.678 6.29101 -7.32804 0
M  V30 4843 H 644.317 5.84315 -2.47318 0
M  V30 4844 P 646.175 7.39546 -4.75277 0
M  V30 4845 O 647.597 7.84798 -5.01039 0
M  V30 4846 O 645.815 5.9812 -5.08098 0
M  V30 4847 O 645.852 7.57503 -3.1866 0
M  V30 4848 C 645.692 8.97357 -2.74833 0
M  V30 4849 C 646.232 9.07548 -1.32709 0
M  V30 4850 O 645.176 8.62072 -0.606159 0
M  V30 4851 C 647.45 8.25383 -0.938334 0
M  V30 4852 O 648.188 8.74577 0.146954 0
M  V30 4853 C 646.781 6.8802 -0.712559 0
M  V30 4854 O 647.58 6.1189 0.194655 0
M  V30 4855 C 645.444 7.27966 -0.139777 0
M  V30 4856 H 645.476 7.25354 0.961601 0
M  V30 4857 H 646.659 6.32557 -1.65702 0
M  V30 4858 H 648.143 8.19355 -1.79097 0
M  V30 4859 H 646.449 10.1294 -1.10029 0
M  V30 4860 H 646.259 9.64276 -3.41316 0
M  V30 4861 H 644.629 9.25417 -2.76357 0
M  V30 4862 H 647.268 6.25267 1.07847 0
M  V30 4863 P 649.125 8.791 4.45433e-12 0
M  V30 4864 O 650.547 9.31096 0.027933 0
M  V30 4865 O 648.765 7.77869 -1.04071 0
M  V30 4866 O 648.802 8.09533 1.41463 0
M  V30 4867 C 648.642 9.0349 2.53943 0
M  V30 4868 C 649.182 8.35226 3.79016 0
M  V30 4869 O 648.126 7.57992 4.15078 0
M  V30 4870 C 650.4 7.45087 3.67298 0
M  V30 4871 O 651.138 7.27796 4.85194 0
M  V30 4872 C 649.731 6.17323 3.12027 0
M  V30 4873 O 650.53 5.04231 3.47188 0
M  V30 4874 C 648.394 6.19961 3.81809 0
M  V30 4875 H 648.426 5.58218 4.73051 0
M  V30 4876 H 649.609 6.21726 2.02589 0
M  V30 4877 H 651.093 7.86112 2.9231 0
M  V30 4878 H 649.399 9.11627 4.55076 0
M  V30 4879 H 649.209 9.9573 2.34194 0
M  V30 4880 H 647.579 9.2792 2.67832 0
M  V30 4881 H 650.218 4.67702 4.28772 0
M  V30 4882 P 652.076 7.39546 4.75277 0
M  V30 4883 O 653.498 7.81777 5.05738 0
M  V30 4884 O 651.716 7.1065 3.32998 0
M  V30 4885 O 651.753 6.04542 5.56673 0
M  V30 4886 C 651.593 6.22772 7.02095 0
M  V30 4887 C 652.133 4.97725 7.70406 0
M  V30 4888 O 651.077 4.13256 7.58987 0
M  V30 4889 C 653.351 4.28231 7.11815 0
M  V30 4890 O 654.089 3.49945 8.01648 0
M  V30 4891 C 652.682 3.5063 5.96244 0
M  V30 4892 O 653.481 2.36482 5.64681 0
M  V30 4893 C 651.345 3.15122 6.56374 0
M  V30 4894 H 651.377 2.13853 6.99751 0
M  V30 4895 H 652.56 4.13501 5.06559 0
M  V30 4896 H 654.044 5.03285 6.70911 0
M  V30 4897 H 652.35 5.20877 8.75697 0
M  V30 4898 H 652.16 7.11046 7.35349 0
M  V30 4899 H 650.53 6.35815 7.26986 0
M  V30 4900 H 653.169 1.61644 6.13565 0
M  V30 4901 P 655.027 3.65191 7.99657 0
M  V30 4902 O 656.448 3.84292 8.48206 0
M  V30 4903 O 654.667 4.17805 6.64342 0
M  V30 4904 O 654.704 2.07613 7.95143 0
M  V30 4905 C 654.543 1.44344 9.27435 0
M  V30 4906 C 655.084 0.0220036 9.17197 0
M  V30 4907 O 654.029 -0.626794 8.61824 0
M  V30 4908 C 656.302 -0.24586 8.30336 0
M  V30 4909 O 657.04 -1.39011 8.63583 0
M  V30 4910 C 655.634 -0.273849 6.91158 0
M  V30 4911 O 656.432 -1.05728 6.029 0
M  V30 4912 C 654.296 -0.897649 7.22545 0
M  V30 4913 N 653.253 -0.292839 6.41732 0
M  V30 4914 C 653.422 0.950603 5.91308 0
M  V30 4915 N 652.395 1.37732 5.21105 0
M  V30 4916 C 651.51 0.318109 5.26039 0
M  V30 4917 C 650.243 0.146766 4.6727 0
M  V30 4918 N 649.678 -1.06525 4.95887 0
M  V30 4919 C 650.28 -2.0378 5.71347 0
M  V30 4920 N 651.457 -1.92445 6.27451 0
M  V30 4921 C 652.032 -0.715382 6.00353 0
M  V30 4922 H 655.511 0.733318 6.49674 0
M  V30 4923 H 656.994 0.60668 8.36503 0
M  V30 4924 H 655.3 -0.362662 10.1825 0
M  V30 4925 H 655.11 2.00611 10.0304 0
M  V30 4926 H 653.48 1.41843 9.55327 0
M  V30 4927 H 654.322 1.54076 6.07465 0
M  V30 4928 H 656.12 -1.95704 6.0346 0
M  V30 4929 P 657.977 -1.25109 8.70152 0
M  V30 4930 O 659.399 -1.35274 9.21221 0
M  V30 4931 O 657.617 -0.0769065 7.84762 0
M  V30 4932 O 657.654 -2.55232 7.81161 0
M  V30 4933 C 657.494 -3.79939 8.58154 0
M  V30 4934 C 658.034 -4.94023 7.72785 0
M  V30 4935 O 656.978 -5.18726 6.91205 0
M  V30 4936 C 659.252 -4.69597 6.85231 0
M  V30 4937 O 659.99 -5.83832 6.51337 0
M  V30 4938 C 658.583 -3.96706 5.66633 0
M  V30 4939 O 659.382 -4.15414 4.49689 0
M  V30 4940 C 657.246 -4.66153 5.59313 0
M  V30 4941 H 657.278 -5.47679 4.85214 0
M  V30 4942 H 658.461 -2.89008 5.86566 0
M  V30 4943 H 659.945 -4.0121 7.36511 0
M  V30 4944 H 658.251 -5.80182 8.37584 0
M  V30 4945 H 658.061 -3.73517 9.52265 0
M  V30 4946 H 656.431 -3.97163 8.80359 0
M  V30 4947 H 659.07 -4.90969 4.01921 0
M  V30 4948 P 660.928 -5.75688 6.64379 0
M  V30 4949 O 662.349 -6.11915 7.01921 0
M  V30 4950 O 660.568 -4.30744 6.56026 0
M  V30 4951 O 660.605 -6.37042 5.19165 0
M  V30 4952 C 660.444 -7.83662 5.1657 0
M  V30 4953 C 660.985 -8.33398 3.83019 0
M  V30 4954 O 659.93 -8.0998 3.00999 0
M  V30 4955 C 662.203 -7.65514 3.2257 0
M  V30 4956 O 662.941 -8.4329 2.32297 0
M  V30 4957 C 661.535 -6.40075 2.62207 0
M  V30 4958 O 662.333 -5.92338 1.5428 0
M  V30 4959 C 660.197 -6.9454 2.18503 0
M  V30 4960 N 659.154 -5.95905 2.39948 0
M  V30 4961 C 659.323 -4.98383 3.32108 0
M  V30 4962 N 658.296 -4.16798 3.41761 0
M  V30 4963 C 657.411 -4.65287 2.47461 0
M  V30 4964 C 656.144 -4.18946 2.07461 0
M  V30 4965 N 655.545 -3.09661 2.60717 0
M  V30 4966 N 655.579 -4.95327 1.09101 0
M  V30 4967 C 656.181 -6.04369 0.519812 0
M  V30 4968 N 657.358 -6.50694 0.855982 0
M  V30 4969 C 657.933 -5.75818 1.84322 0
M  V30 4970 H 660.229 -7.22964 1.12076 0
M  V30 4971 H 661.412 -5.60502 3.36589 0
M  V30 4972 H 662.895 -7.35707 4.02681 0
M  V30 4973 H 661.201 -9.41302 3.90009 0
M  V30 4974 H 661.011 -8.29056 5.99158 0
M  V30 4975 H 659.381 -8.10073 5.25882 0
M  V30 4976 H 655.645 -6.55843 -0.270373 0
M  V30 4977 H 660.223 -4.88564 3.92502 0
M  V30 4978 H 654.615 -2.80523 2.27218 0
M  V30 4979 H 656.019 -2.55848 3.34465 0
M  V30 4980 H 662.021 -6.30224 0.72668 0
M  V30 4981 P 663.878 -8.4349 2.47671 0
M  V30 4982 O 665.3 -8.94167 2.5964 0
M  V30 4983 O 663.518 -7.1704 3.19006 0
M  V30 4984 O 663.555 -8.16596 0.923387 0
M  V30 4985 C 663.395 -9.38437 0.108857 0
M  V30 4986 C 663.935 -9.08175 -1.28353 0
M  V30 4987 O 662.879 -8.44229 -1.84713 0
M  V30 4988 C 665.153 -8.18386 -1.42505 0
M  V30 4989 O 665.891 -8.3501 -2.60497 0
M  V30 4990 C 664.484 -6.80225 -1.25468 0
M  V30 4991 O 665.283 -5.81621 -1.91066 0
M  V30 4992 C 663.147 -7.02416 -1.9168 0
M  V30 4993 H 663.179 -6.6888 -2.96621 0
M  V30 4994 H 664.362 -6.53617 -0.192223 0
M  V30 4995 H 665.846 -8.36622 -0.589963 0
M  V30 4996 H 664.152 -10.0291 -1.79807 0
M  V30 4997 H 663.962 -10.2138 0.558219 0
M  V30 4998 H 662.332 -9.6579 0.0444202 0
M  V30 4999 H 664.971 -5.69556 -2.79637 0
M  V30 5000 P 666.829 -8.4349 -2.47671 0
M  V30 5001 O 668.251 -8.92593 -2.65 0
M  V30 5002 O 666.469 -7.7568 -1.19296 0
M  V30 5003 O 666.506 -7.36886 -3.63805 0
M  V30 5004 C 666.346 -7.95349 -4.982 0
M  V30 5005 C 666.886 -6.94612 -5.98974 0
M  V30 5006 O 665.83 -6.10347 -6.11815 0
M  V30 5007 C 668.104 -6.11426 -5.62335 0
M  V30 5008 O 668.842 -5.6162 -6.70584 0
M  V30 5009 C 667.435 -5.04409 -4.73308 0
M  V30 5010 O 668.234 -3.85992 -4.75183 0
M  V30 5011 C 666.098 -4.8728 -5.41006 0
M  V30 5012 H 666.13 -4.02333 -6.11157 0
M  V30 5013 H 667.313 -5.39466 -3.69543 0
M  V30 5014 H 668.797 -6.71916 -5.01943 0
M  V30 5015 H 667.103 -7.4649 -6.93477 0
M  V30 5016 H 666.913 -8.89416 -5.05237 0
M  V30 5017 H 665.283 -8.14876 -5.18409 0
M  V30 5018 H 667.922 -3.27957 -5.4317 0
M  V30 5019 P 669.779 -5.75688 -6.64379 0
M  V30 5020 O 671.201 -6.07627 -7.05504 0
M  V30 5021 O 669.419 -5.88047 -5.19722 0
M  V30 5022 O 669.456 -4.2322 -7.04443 0
M  V30 5023 C 669.296 -3.99743 -8.4911 0
M  V30 5024 C 669.836 -2.60516 -8.79425 0
M  V30 5025 O 668.78 -1.82684 -8.4467 0
M  V30 5026 C 671.054 -2.10343 -8.03628 0
M  V30 5027 O 671.792 -1.09919 -8.67766 0
M  V30 5028 C 670.385 -1.68446 -6.70876 0
M  V30 5029 O 671.184 -0.678137 -6.08433 0
M  V30 5030 C 669.048 -1.17436 -7.18567 0
M  V30 5031 H 669.08 -0.0804732 -7.31656 0
M  V30 5032 H 670.263 -2.54037 -6.02537 0
M  V30 5033 H 671.747 -2.93881 -7.85526 0
M  V30 5034 H 670.053 -2.53065 -9.86973 0
M  V30 5035 H 669.863 -4.75072 -9.05887 0
M  V30 5036 H 668.233 -4.05244 -8.76668 0
M  V30 5037 H 670.872 0.177647 -6.34251 0
M  V30 5038 P 672.73 -1.25109 -8.70152 0
M  V30 5039 O 674.152 -1.29744 -9.22016 0
M  V30 5040 O 672.37 -2.13714 -7.55141 0
M  V30 5041 O 672.407 0.248149 -8.21425 0
M  V30 5042 C 672.247 1.22779 -9.30434 0
M  V30 5043 C 672.787 2.56293 -8.80664 0
M  V30 5044 O 671.731 3.02979 -8.09349 0
M  V30 5045 C 674.005 2.57523 -7.89775 0
M  V30 5046 O 674.743 3.7668 -7.89438 0
M  V30 5047 C 673.336 2.20997 -6.55446 0
M  V30 5048 O 674.135 2.71895 -5.48509 0
M  V30 5049 C 671.999 2.89693 -6.67988 0
M  V30 5050 H 672.031 3.88793 -6.19859 0
M  V30 5051 H 673.214 1.12046 -6.44229 0
M  V30 5052 H 674.698 1.7746 -8.19711 0
M  V30 5053 H 673.004 3.20706 -9.67112 0
M  V30 5054 H 672.814 0.901032 -10.1892 0
M  V30 5055 H 671.184 1.33049 -9.56592 0
M  V30 5056 H 673.823 3.57847 -5.23962 0
M  V30 5057 P 675.681 3.65191 -7.99657 0
M  V30 5058 O 677.103 3.89332 -8.45794 0
M  V30 5059 O 675.321 2.28472 -7.50807 0
M  V30 5060 O 675.358 4.64972 -6.77611 0
M  V30 5061 C 675.198 6.06319 -7.16352 0
M  V30 5062 C 675.738 6.91731 -6.02299 0
M  V30 5063 O 674.682 6.92449 -5.17064 0
M  V30 5064 C 676.956 6.43627 -5.25174 0
M  V30 5065 O 677.694 7.43686 -4.60469 0
M  V30 5066 C 676.287 5.40275 -4.31916 0
M  V30 5067 O 677.086 5.25279 -3.14438 0
M  V30 5068 C 674.95 6.04847 -4.05327 0
M  V30 5069 H 674.982 6.62195 -3.11261 0
M  V30 5070 H 676.165 4.42556 -4.81383 0
M  V30 5071 H 677.649 5.92458 -5.93643 0
M  V30 5072 H 675.955 7.92655 -6.402 0
M  V30 5073 H 675.765 6.26671 -8.0846 0
M  V30 5074 H 674.135 6.29101 -7.32804 0
M  V30 5075 H 676.774 5.84315 -2.47318 0
M  V30 5076 P 678.631 7.39546 -4.75277 0
M  V30 5077 O 680.053 7.84798 -5.01039 0
M  V30 5078 O 678.271 5.9812 -5.08098 0
M  V30 5079 O 678.308 7.57503 -3.1866 0
M  V30 5080 C 678.148 8.97357 -2.74833 0
M  V30 5081 C 678.688 9.07548 -1.32709 0
M  V30 5082 O 677.632 8.62072 -0.606159 0
M  V30 5083 C 679.906 8.25383 -0.938334 0
M  V30 5084 O 680.644 8.74577 0.146954 0
M  V30 5085 C 679.237 6.8802 -0.712559 0
M  V30 5086 O 680.036 6.1189 0.194655 0
M  V30 5087 C 677.9 7.27966 -0.139777 0
M  V30 5088 H 677.932 7.25354 0.961601 0
M  V30 5089 H 679.115 6.32557 -1.65702 0
M  V30 5090 H 680.599 8.19355 -1.79097 0
M  V30 5091 H 678.905 10.1294 -1.10029 0
M  V30 5092 H 678.715 9.64276 -3.41316 0
M  V30 5093 H 677.085 9.25417 -2.76357 0
M  V30 5094 H 679.724 6.25267 1.07847 0
M  V30 5095 P 681.582 8.791 4.7645e-12 0
M  V30 5096 O 683.004 9.31096 0.027933 0
M  V30 5097 O 681.222 7.77869 -1.04071 0
M  V30 5098 O 681.259 8.09533 1.41463 0
M  V30 5099 C 681.099 9.0349 2.53943 0
M  V30 5100 C 681.639 8.35226 3.79016 0
M  V30 5101 O 680.583 7.57992 4.15078 0
M  V30 5102 C 682.857 7.45087 3.67298 0
M  V30 5103 O 683.595 7.27796 4.85194 0
M  V30 5104 C 682.188 6.17323 3.12027 0
M  V30 5105 O 682.987 5.04231 3.47188 0
M  V30 5106 C 680.851 6.19961 3.81809 0
M  V30 5107 H 680.883 5.58218 4.73051 0
M  V30 5108 H 682.066 6.21726 2.02589 0
M  V30 5109 H 683.55 7.86112 2.9231 0
M  V30 5110 H 681.856 9.11627 4.55076 0
M  V30 5111 H 681.666 9.9573 2.34194 0
M  V30 5112 H 680.036 9.2792 2.67832 0
M  V30 5113 H 682.675 4.67702 4.28772 0
M  V30 5114 P 684.532 7.39546 4.75277 0
M  V30 5115 O 685.954 7.81777 5.05738 0
M  V30 5116 O 684.172 7.1065 3.32998 0
M  V30 5117 O 684.209 6.04542 5.56673 0
M  V30 5118 C 684.049 6.22772 7.02095 0
M  V30 5119 C 684.589 4.97725 7.70406 0
M  V30 5120 O 683.533 4.13256 7.58987 0
M  V30 5121 C 685.807 4.28231 7.11815 0
M  V30 5122 O 686.545 3.49945 8.01648 0
M  V30 5123 C 685.138 3.5063 5.96244 0
M  V30 5124 O 685.937 2.36482 5.64681 0
M  V30 5125 C 683.801 3.15122 6.56374 0
M  V30 5126 H 683.833 2.13853 6.99751 0
M  V30 5127 H 685.016 4.13501 5.06559 0
M  V30 5128 H 686.5 5.03285 6.70911 0
M  V30 5129 H 684.806 5.20877 8.75697 0
M  V30 5130 H 684.616 7.11046 7.35349 0
M  V30 5131 H 682.986 6.35815 7.26986 0
M  V30 5132 H 685.625 1.61644 6.13565 0
M  V30 5133 P 687.483 3.65191 7.99657 0
M  V30 5134 O 688.905 3.8425 8.48115 0
M  V30 5135 O 687.123 4.17805 6.64342 0
M  V30 5136 O 687.16 2.07613 7.95143 0
M  V30 5137 C 687 1.44328 9.27336 0
M  V30 5138 C 687.54 0.0220036 9.17197 0
M  V30 5139 O 686.484 -0.626867 8.61923 0
M  V30 5140 C 688.758 -0.24586 8.30336 0
M  V30 5141 O 689.496 -1.39011 8.63583 0
M  V30 5142 C 688.089 -0.273849 6.91158 0
M  V30 5143 O 688.888 -1.06348 6.02892 0
M  V30 5144 C 686.752 -0.897649 7.22545 0
M  V30 5145 H 686.784 -1.9841 7.04286 0
M  V30 5146 H 687.967 0.739928 6.497 0
M  V30 5147 H 689.451 0.60668 8.36503 0
M  V30 5148 H 687.757 -0.352479 10.1829 0
M  V30 5149 H 687.567 2.00611 10.0304 0
M  V30 5150 H 685.937 1.41843 9.55327 0
M  V30 5151 H 688.576 -1.95734 6.03555 0
M  V30 5152 P 690.433 -1.25109 8.70152 0
M  V30 5153 O 691.854 -1.35288 9.2132 0
M  V30 5154 O 690.073 -0.0769065 7.84762 0
M  V30 5155 O 690.11 -2.55232 7.81161 0
M  V30 5156 C 689.949 -3.79979 8.58246 0
M  V30 5157 C 690.49 -4.94023 7.72785 0
M  V30 5158 O 689.435 -5.18666 6.91125 0
M  V30 5159 C 691.708 -4.69597 6.85231 0
M  V30 5160 O 692.446 -5.83832 6.51337 0
M  V30 5161 C 691.04 -3.96706 5.66633 0
M  V30 5162 O 691.838 -4.14896 4.5003 0
M  V30 5163 C 689.702 -4.66153 5.59313 0
M  V30 5164 N 688.659 -3.71582 5.24027 0
M  V30 5165 C 688.828 -2.39715 5.48833 0
M  V30 5166 N 687.801 -1.65863 5.12845 0
M  V30 5167 C 686.916 -2.57637 4.5973 0
M  V30 5168 C 685.649 -2.40278 4.01027 0
M  V30 5169 N 685.05 -1.19549 3.86744 0
M  V30 5170 N 685.084 -3.57711 3.59575 0
M  V30 5171 C 685.686 -4.80324 3.70476 0
M  V30 5172 N 686.863 -5.01121 4.23801 0
M  V30 5173 C 687.438 -3.84757 4.66372 0
M  V30 5174 H 689.734 -5.47604 4.85148 0
M  V30 5175 H 690.917 -2.8955 5.86187 0
M  V30 5176 H 692.4 -4.0121 7.36511 0
M  V30 5177 H 690.706 -5.81019 8.37003 0
M  V30 5178 H 690.516 -3.73517 9.52265 0
M  V30 5179 H 688.886 -3.97163 8.80359 0
M  V30 5180 H 685.15 -5.66348 3.3183 0
M  V30 5181 H 689.728 -1.98804 5.94332 0
M  V30 5182 H 684.12 -1.13147 3.4281 0
M  V30 5183 H 685.524 -0.344074 4.19692 0
M  V30 5184 H 691.526 -4.90891 4.01857 0
M  V30 5185 P 693.384 -5.75688 6.64379 0
M  V30 5186 O 694.806 -6.11849 7.01846 0
M  V30 5187 O 693.024 -4.30744 6.56026 0
M  V30 5188 O 693.061 -6.37042 5.19165 0
M  V30 5189 C 692.901 -7.83578 5.16515 0
M  V30 5190 C 693.441 -8.33398 3.83019 0
M  V30 5191 O 692.385 -8.10074 3.01034 0
M  V30 5192 C 694.659 -7.65514 3.2257 0
M  V30 5193 O 695.397 -8.4329 2.32297 0
M  V30 5194 C 693.99 -6.40075 2.62207 0
M  V30 5195 O 694.789 -5.92589 1.53712 0
M  V30 5196 C 692.653 -6.9454 2.18503 0
M  V30 5197 H 692.685 -7.23063 1.12091 0
M  V30 5198 H 693.868 -5.6025 3.37201 0
M  V30 5199 H 695.352 -7.35707 4.02681 0
M  V30 5200 H 693.658 -9.40912 3.9095 0
M  V30 5201 H 693.468 -8.29056 5.99158 0
M  V30 5202 H 691.838 -8.10073 5.25882 0
M  V30 5203 H 694.477 -6.30324 0.726794 0
M  V30 5204 P 696.335 -8.4349 2.47671 0
M  V30 5205 O 697.757 -8.94167 2.5964 0
M  V30 5206 O 695.975 -7.1704 3.19006 0
M  V30 5207 O 696.012 -8.16596 0.923387 0
M  V30 5208 C 695.852 -9.38437 0.108857 0
M  V30 5209 C 696.392 -9.08175 -1.28353 0
M  V30 5210 O 695.336 -8.44229 -1.84713 0
M  V30 5211 C 697.61 -8.18386 -1.42505 0
M  V30 5212 O 698.348 -8.3501 -2.60497 0
M  V30 5213 C 696.941 -6.80225 -1.25468 0
M  V30 5214 O 697.74 -5.81621 -1.91066 0
M  V30 5215 C 695.604 -7.02416 -1.9168 0
M  V30 5216 H 695.636 -6.6888 -2.96621 0
M  V30 5217 H 696.819 -6.53617 -0.192223 0
M  V30 5218 H 698.303 -8.36622 -0.589963 0
M  V30 5219 H 696.609 -10.0291 -1.79807 0
M  V30 5220 H 696.419 -10.2138 0.558219 0
M  V30 5221 H 694.789 -9.6579 0.0444202 0
M  V30 5222 H 697.428 -5.69556 -2.79637 0
M  V30 5223 P 699.285 -8.4349 -2.47671 0
M  V30 5224 O 700.707 -8.92593 -2.65 0
M  V30 5225 O 698.925 -7.7568 -1.19296 0
M  V30 5226 O 698.962 -7.36886 -3.63805 0
M  V30 5227 C 698.802 -7.95349 -4.982 0
M  V30 5228 C 699.342 -6.94612 -5.98974 0
M  V30 5229 O 698.286 -6.10347 -6.11815 0
M  V30 5230 C 700.56 -6.11426 -5.62335 0
M  V30 5231 O 701.298 -5.6162 -6.70584 0
M  V30 5232 C 699.891 -5.04409 -4.73308 0
M  V30 5233 O 700.69 -3.85992 -4.75183 0
M  V30 5234 C 698.554 -4.8728 -5.41006 0
M  V30 5235 H 698.586 -4.02333 -6.11157 0
M  V30 5236 H 699.769 -5.39466 -3.69543 0
M  V30 5237 H 701.253 -6.71916 -5.01943 0
M  V30 5238 H 699.559 -7.4649 -6.93477 0
M  V30 5239 H 699.369 -8.89416 -5.05237 0
M  V30 5240 H 697.739 -8.14876 -5.18409 0
M  V30 5241 H 700.378 -3.27957 -5.4317 0
M  V30 5242 P 702.236 -5.75688 -6.64379 0
M  V30 5243 O 703.658 -6.07627 -7.05504 0
M  V30 5244 O 701.876 -5.88047 -5.19722 0
M  V30 5245 O 701.913 -4.2322 -7.04443 0
M  V30 5246 C 701.753 -3.99743 -8.4911 0
M  V30 5247 C 702.293 -2.60516 -8.79425 0
M  V30 5248 O 701.237 -1.82684 -8.4467 0
M  V30 5249 C 703.511 -2.10343 -8.03628 0
M  V30 5250 O 704.249 -1.09919 -8.67766 0
M  V30 5251 C 702.842 -1.68446 -6.70876 0
M  V30 5252 O 703.641 -0.678137 -6.08433 0
M  V30 5253 C 701.505 -1.17436 -7.18567 0
M  V30 5254 H 701.537 -0.0804732 -7.31656 0
M  V30 5255 H 702.72 -2.54037 -6.02537 0
M  V30 5256 H 704.204 -2.93881 -7.85526 0
M  V30 5257 H 702.51 -2.53065 -9.86973 0
M  V30 5258 H 702.32 -4.75072 -9.05887 0
M  V30 5259 H 700.69 -4.05244 -8.76668 0
M  V30 5260 H 703.329 0.177647 -6.34251 0
M  V30 5261 P 705.186 -1.25109 -8.70152 0
M  V30 5262 O 706.608 -1.29744 -9.22016 0
M  V30 5263 O 704.826 -2.13714 -7.55141 0
M  V30 5264 O 704.863 0.248149 -8.21425 0
M  V30 5265 C 704.703 1.22779 -9.30434 0
M  V30 5266 C 705.243 2.56293 -8.80664 0
M  V30 5267 O 704.187 3.02979 -8.09349 0
M  V30 5268 C 706.461 2.57523 -7.89775 0
M  V30 5269 O 707.199 3.7668 -7.89438 0
M  V30 5270 C 705.792 2.20997 -6.55446 0
M  V30 5271 O 706.591 2.71895 -5.48509 0
M  V30 5272 C 704.455 2.89693 -6.67988 0
M  V30 5273 H 704.487 3.88793 -6.19859 0
M  V30 5274 H 705.67 1.12046 -6.44229 0
M  V30 5275 H 707.154 1.7746 -8.19711 0
M  V30 5276 H 705.46 3.20706 -9.67112 0
M  V30 5277 H 705.27 0.901032 -10.1892 0
M  V30 5278 H 703.64 1.33049 -9.56592 0
M  V30 5279 H 706.279 3.57847 -5.23962 0
M  V30 5280 P 708.137 3.65191 -7.99657 0
M  V30 5281 O 709.559 3.89332 -8.45794 0
M  V30 5282 O 707.777 2.28472 -7.50807 0
M  V30 5283 O 707.814 4.64972 -6.77611 0
M  V30 5284 C 707.654 6.06319 -7.16352 0
M  V30 5285 C 708.194 6.91731 -6.02299 0
M  V30 5286 O 707.138 6.92449 -5.17064 0
M  V30 5287 C 709.412 6.43627 -5.25174 0
M  V30 5288 O 710.15 7.43686 -4.60469 0
M  V30 5289 C 708.743 5.40275 -4.31916 0
M  V30 5290 O 709.542 5.25279 -3.14438 0
M  V30 5291 C 707.406 6.04847 -4.05327 0
M  V30 5292 H 707.438 6.62195 -3.11261 0
M  V30 5293 H 708.621 4.42556 -4.81383 0
M  V30 5294 H 710.105 5.92458 -5.93643 0
M  V30 5295 H 708.411 7.92655 -6.402 0
M  V30 5296 H 708.221 6.26671 -8.0846 0
M  V30 5297 H 706.591 6.29101 -7.32804 0
M  V30 5298 H 709.23 5.84315 -2.47318 0
M  V30 5299 P 711.087 7.39546 -4.75277 0
M  V30 5300 O 712.509 7.84798 -5.01039 0
M  V30 5301 O 710.727 5.9812 -5.08098 0
M  V30 5302 O 710.764 7.57503 -3.1866 0
M  V30 5303 C 710.604 8.97357 -2.74833 0
M  V30 5304 C 711.144 9.07548 -1.32709 0
M  V30 5305 O 710.088 8.62072 -0.606159 0
M  V30 5306 C 712.362 8.25383 -0.938334 0
M  V30 5307 O 713.1 8.74577 0.146954 0
M  V30 5308 C 711.693 6.8802 -0.712559 0
M  V30 5309 O 712.492 6.1189 0.194655 0
M  V30 5310 C 710.356 7.27966 -0.139777 0
M  V30 5311 H 710.388 7.25354 0.961601 0
M  V30 5312 H 711.571 6.32557 -1.65702 0
M  V30 5313 H 713.055 8.19355 -1.79097 0
M  V30 5314 H 711.361 10.1294 -1.10029 0
M  V30 5315 H 711.171 9.64276 -3.41316 0
M  V30 5316 H 709.541 9.25417 -2.76357 0
M  V30 5317 H 712.18 6.25267 1.07847 0
M  V30 5318 P 714.038 8.791 5.07466e-12 0
M  V30 5319 O 715.46 9.31096 0.027933 0
M  V30 5320 O 713.678 7.77869 -1.04071 0
M  V30 5321 O 713.715 8.09533 1.41463 0
M  V30 5322 C 713.555 9.0349 2.53943 0
M  V30 5323 C 714.095 8.35226 3.79016 0
M  V30 5324 O 713.039 7.57992 4.15078 0
M  V30 5325 C 715.313 7.45087 3.67298 0
M  V30 5326 O 716.051 7.27796 4.85194 0
M  V30 5327 C 714.644 6.17323 3.12027 0
M  V30 5328 O 715.443 5.04231 3.47188 0
M  V30 5329 C 713.307 6.19961 3.81809 0
M  V30 5330 H 713.339 5.58218 4.73051 0
M  V30 5331 H 714.522 6.21726 2.02589 0
M  V30 5332 H 716.006 7.86112 2.9231 0
M  V30 5333 H 714.312 9.11627 4.55076 0
M  V30 5334 H 714.122 9.9573 2.34194 0
M  V30 5335 H 712.492 9.2792 2.67832 0
M  V30 5336 H 715.131 4.67702 4.28772 0
M  V30 5337 P 716.989 7.39546 4.75277 0
M  V30 5338 O 718.411 7.81777 5.05738 0
M  V30 5339 O 716.629 7.1065 3.32998 0
M  V30 5340 O 716.666 6.04542 5.56673 0
M  V30 5341 C 716.506 6.22772 7.02095 0
M  V30 5342 C 717.046 4.97725 7.70406 0
M  V30 5343 O 715.99 4.13256 7.58987 0
M  V30 5344 C 718.264 4.28231 7.11815 0
M  V30 5345 O 719.002 3.49945 8.01648 0
M  V30 5346 C 717.595 3.5063 5.96244 0
M  V30 5347 O 718.394 2.36482 5.64681 0
M  V30 5348 C 716.258 3.15122 6.56374 0
M  V30 5349 H 716.29 2.13853 6.99751 0
M  V30 5350 H 717.473 4.13501 5.06559 0
M  V30 5351 H 718.957 5.03285 6.70911 0
M  V30 5352 H 717.263 5.20877 8.75697 0
M  V30 5353 H 717.073 7.11046 7.35349 0
M  V30 5354 H 715.443 6.35815 7.26986 0
M  V30 5355 H 718.082 1.61644 6.13565 0
M  V30 5356 P 719.939 3.65191 7.99657 0
M  V30 5357 O 721.361 3.8425 8.48115 0
M  V30 5358 O 719.579 4.17805 6.64342 0
M  V30 5359 O 719.616 2.07613 7.95143 0
M  V30 5360 C 719.456 1.44328 9.27336 0
M  V30 5361 C 719.996 0.0220036 9.17197 0
M  V30 5362 O 718.94 -0.626867 8.61923 0
M  V30 5363 C 721.214 -0.24586 8.30336 0
M  V30 5364 O 721.952 -1.39011 8.63583 0
M  V30 5365 C 720.545 -0.273849 6.91158 0
M  V30 5366 O 721.344 -1.06348 6.02892 0
M  V30 5367 C 719.208 -0.897649 7.22545 0
M  V30 5368 H 719.24 -1.9841 7.04286 0
M  V30 5369 H 720.423 0.739928 6.497 0
M  V30 5370 H 721.907 0.60668 8.36503 0
M  V30 5371 H 720.213 -0.352479 10.1829 0
M  V30 5372 H 720.023 2.00611 10.0304 0
M  V30 5373 H 718.393 1.41843 9.55327 0
M  V30 5374 H 721.032 -1.95734 6.03555 0
M  V30 5375 P 722.89 -1.25109 8.70152 0
M  V30 5376 O 724.312 -1.35274 9.21221 0
M  V30 5377 O 722.53 -0.0769065 7.84762 0
M  V30 5378 O 722.567 -2.55232 7.81161 0
M  V30 5379 C 722.407 -3.79939 8.58154 0
M  V30 5380 C 722.947 -4.94023 7.72785 0
M  V30 5381 O 721.891 -5.18726 6.91205 0
M  V30 5382 C 724.165 -4.69597 6.85231 0
M  V30 5383 O 724.903 -5.83832 6.51337 0
M  V30 5384 C 723.496 -3.96706 5.66633 0
M  V30 5385 O 724.295 -4.15414 4.49689 0
M  V30 5386 C 722.159 -4.66153 5.59313 0
M  V30 5387 H 722.191 -5.47679 4.85214 0
M  V30 5388 H 723.374 -2.89008 5.86566 0
M  V30 5389 H 724.858 -4.0121 7.36511 0
M  V30 5390 H 723.164 -5.80182 8.37584 0
M  V30 5391 H 722.974 -3.73517 9.52265 0
M  V30 5392 H 721.344 -3.97163 8.80359 0
M  V30 5393 H 723.983 -4.90969 4.01921 0
M  V30 5394 P 725.84 -5.75688 6.64379 0
M  V30 5395 O 727.262 -6.11849 7.01846 0
M  V30 5396 O 725.48 -4.30744 6.56026 0
M  V30 5397 O 725.517 -6.37042 5.19165 0
M  V30 5398 C 725.357 -7.83578 5.16515 0
M  V30 5399 C 725.897 -8.33398 3.83019 0
M  V30 5400 O 724.841 -8.10074 3.01034 0
M  V30 5401 C 727.115 -7.65514 3.2257 0
M  V30 5402 O 727.853 -8.4329 2.32297 0
M  V30 5403 C 726.446 -6.40075 2.62207 0
M  V30 5404 O 727.245 -5.92589 1.53712 0
M  V30 5405 C 725.109 -6.9454 2.18503 0
M  V30 5406 H 725.141 -7.23063 1.12091 0
M  V30 5407 H 726.324 -5.6025 3.37201 0
M  V30 5408 H 727.808 -7.35707 4.02681 0
M  V30 5409 H 726.114 -9.40912 3.9095 0
M  V30 5410 H 725.924 -8.29056 5.99158 0
M  V30 5411 H 724.294 -8.10073 5.25882 0
M  V30 5412 H 726.933 -6.30324 0.726794 0
M  V30 5413 P 728.791 -8.4349 2.47671 0
M  V30 5414 O 730.213 -8.94167 2.5964 0
M  V30 5415 O 728.431 -7.1704 3.19006 0
M  V30 5416 O 728.468 -8.16596 0.923387 0
M  V30 5417 C 728.308 -9.38437 0.108857 0
M  V30 5418 C 728.848 -9.08175 -1.28353 0
M  V30 5419 O 727.792 -8.44229 -1.84713 0
M  V30 5420 C 730.066 -8.18386 -1.42505 0
M  V30 5421 O 730.804 -8.3501 -2.60497 0
M  V30 5422 C 729.397 -6.80225 -1.25468 0
M  V30 5423 O 730.196 -5.81621 -1.91066 0
M  V30 5424 C 728.06 -7.02416 -1.9168 0
M  V30 5425 H 728.092 -6.6888 -2.96621 0
M  V30 5426 H 729.275 -6.53617 -0.192223 0
M  V30 5427 H 730.759 -8.36622 -0.589963 0
M  V30 5428 H 729.065 -10.0291 -1.79807 0
M  V30 5429 H 728.875 -10.2138 0.558219 0
M  V30 5430 H 727.245 -9.6579 0.0444202 0
M  V30 5431 H 729.884 -5.69556 -2.79637 0
M  V30 5432 P 731.741 -8.4349 -2.47671 0
M  V30 5433 O 733.162 -8.92689 -2.65029 0
M  V30 5434 O 731.381 -7.7568 -1.19296 0
M  V30 5435 O 731.418 -7.36886 -3.63805 0
M  V30 5436 C 731.257 -7.95433 -4.98253 0
M  V30 5437 C 731.798 -6.94612 -5.98974 0
M  V30 5438 O 730.743 -6.10277 -6.11744 0
M  V30 5439 C 733.016 -6.11426 -5.62335 0
M  V30 5440 O 733.754 -5.6162 -6.70584 0
M  V30 5441 C 732.348 -5.04409 -4.73308 0
M  V30 5442 O 733.146 -3.86404 -4.74719 0
M  V30 5443 C 731.01 -4.8728 -5.41006 0
M  V30 5444 N 729.967 -4.65812 -4.42377 0
M  V30 5445 C 730.136 -5.09132 -3.15382 0
M  V30 5446 N 729.109 -4.84021 -2.3716 0
M  V30 5447 C 728.224 -4.18386 -3.20441 0
M  V30 5448 C 726.957 -3.6275 -2.94905 0
M  V30 5449 N 726.392 -3.05008 -4.05243 0
M  V30 5450 C 726.994 -2.98348 -5.28159 0
M  V30 5451 N 728.171 -3.48171 -5.56333 0
M  V30 5452 C 728.746 -4.06869 -4.47212 0
M  V30 5453 H 732.225 -5.39013 -3.70026 0
M  V30 5454 H 733.708 -6.71916 -5.01943 0
M  V30 5455 H 732.014 -7.45796 -6.94223 0
M  V30 5456 H 731.824 -8.89416 -5.05237 0
M  V30 5457 H 730.194 -8.14876 -5.18409 0
M  V30 5458 H 731.036 -5.59989 -2.81362 0
M  V30 5459 H 732.834 -3.27906 -5.43085 0
M  V30 5460 P 734.692 -5.75688 -6.64379 0
M  V30 5461 O 736.114 -6.07627 -7.05504 0
M  V30 5462 O 734.332 -5.88047 -5.19722 0
M  V30 5463 O 734.369 -4.2322 -7.04443 0
M  V30 5464 C 734.209 -3.99743 -8.4911 0
M  V30 5465 C 734.749 -2.60516 -8.79425 0
M  V30 5466 O 733.693 -1.82684 -8.4467 0
M  V30 5467 C 735.967 -2.10343 -8.03628 0
M  V30 5468 O 736.705 -1.09919 -8.67766 0
M  V30 5469 C 735.298 -1.68446 -6.70876 0
M  V30 5470 O 736.097 -0.678137 -6.08433 0
M  V30 5471 C 733.961 -1.17436 -7.18567 0
M  V30 5472 H 733.993 -0.0804732 -7.31656 0
M  V30 5473 H 735.176 -2.54037 -6.02537 0
M  V30 5474 H 736.66 -2.93881 -7.85526 0
M  V30 5475 H 734.966 -2.53065 -9.86973 0
M  V30 5476 H 734.776 -4.75072 -9.05887 0
M  V30 5477 H 733.146 -4.05244 -8.76668 0
M  V30 5478 H 735.785 0.177647 -6.34251 0
M  V30 5479 P 737.643 -1.25109 -8.70152 0
M  V30 5480 O 739.065 -1.29744 -9.22016 0
M  V30 5481 O 737.283 -2.13714 -7.55141 0
M  V30 5482 O 737.32 0.248149 -8.21425 0
M  V30 5483 C 737.16 1.22779 -9.30434 0
M  V30 5484 C 737.7 2.56293 -8.80664 0
M  V30 5485 O 736.644 3.02979 -8.09349 0
M  V30 5486 C 738.918 2.57523 -7.89775 0
M  V30 5487 O 739.656 3.7668 -7.89438 0
M  V30 5488 C 738.249 2.20997 -6.55446 0
M  V30 5489 O 739.048 2.71895 -5.48509 0
M  V30 5490 C 736.912 2.89693 -6.67988 0
M  V30 5491 H 736.944 3.88793 -6.19859 0
M  V30 5492 H 738.127 1.12046 -6.44229 0
M  V30 5493 H 739.611 1.7746 -8.19711 0
M  V30 5494 H 737.917 3.20706 -9.67112 0
M  V30 5495 H 737.726 0.901032 -10.1892 0
M  V30 5496 H 736.096 1.33049 -9.56592 0
M  V30 5497 H 738.736 3.57847 -5.23962 0
M  V30 5498 P 740.593 3.65191 -7.99657 0
M  V30 5499 O 742.014 3.89374 -8.45885 0
M  V30 5500 O 740.233 2.28472 -7.50807 0
M  V30 5501 O 740.27 4.64972 -6.77611 0
M  V30 5502 C 740.109 6.06383 -7.16428 0
M  V30 5503 C 740.65 6.91731 -6.02299 0
M  V30 5504 O 739.595 6.92369 -5.17005 0
M  V30 5505 C 741.868 6.43627 -5.25174 0
M  V30 5506 O 742.606 7.43686 -4.60469 0
M  V30 5507 C 741.2 5.40275 -4.31916 0
M  V30 5508 O 741.998 5.24878 -3.14911 0
M  V30 5509 C 739.862 6.04847 -4.05327 0
M  V30 5510 N 738.819 5.04166 -3.98114 0
M  V30 5511 C 738.988 3.84629 -4.59066 0
M  V30 5512 N 737.961 3.0363 -4.45343 0
M  V30 5513 C 737.076 3.76722 -3.68523 0
M  V30 5514 C 735.809 3.43528 -3.17088 0
M  V30 5515 N 735.21 2.23665 -3.37397 0
M  V30 5516 N 735.244 4.44526 -2.44231 0
M  V30 5517 C 735.846 5.65243 -2.20146 0
M  V30 5518 N 737.023 6.00221 -2.65453 0
M  V30 5519 C 737.598 5.00564 -3.39083 0
M  V30 5520 H 739.894 6.62104 -3.11218 0
M  V30 5521 H 741.077 4.42969 -4.80867 0
M  V30 5522 H 742.56 5.92458 -5.93643 0
M  V30 5523 H 740.866 7.93295 -6.39407 0
M  V30 5524 H 740.676 6.26671 -8.0846 0
M  V30 5525 H 739.046 6.29101 -7.32804 0
M  V30 5526 H 735.31 6.36894 -1.5883 0
M  V30 5527 H 739.888 3.58193 -5.14248 0
M  V30 5528 H 734.28 2.05145 -2.97047 0
M  V30 5529 H 735.684 1.51255 -3.92998 0
M  V30 5530 H 741.686 5.84223 -2.47279 0
M  V30 5531 P 743.544 7.39546 -4.75277 0
M  V30 5532 O 744.966 7.84798 -5.01039 0
M  V30 5533 O 743.184 5.9812 -5.08098 0
M  V30 5534 O 743.221 7.57503 -3.1866 0
M  V30 5535 C 743.061 8.97357 -2.74833 0
M  V30 5536 C 743.601 9.07548 -1.32709 0
M  V30 5537 O 742.545 8.62072 -0.606159 0
M  V30 5538 C 744.819 8.25383 -0.938334 0
M  V30 5539 O 745.557 8.74577 0.146954 0
M  V30 5540 C 744.15 6.8802 -0.712559 0
M  V30 5541 O 744.949 6.1189 0.194655 0
M  V30 5542 C 742.813 7.27966 -0.139777 0
M  V30 5543 H 742.845 7.25354 0.961601 0
M  V30 5544 H 744.028 6.32557 -1.65702 0
M  V30 5545 H 745.512 8.19355 -1.79097 0
M  V30 5546 H 743.818 10.1294 -1.10029 0
M  V30 5547 H 743.628 9.64276 -3.41316 0
M  V30 5548 H 741.998 9.25417 -2.76357 0
M  V30 5549 H 744.637 6.25267 1.07847 0
M  V30 5550 P 746.494 8.791 5.38483e-12 0
M  V30 5551 O 747.916 9.31096 0.027933 0
M  V30 5552 O 746.134 7.77869 -1.04071 0
M  V30 5553 O 746.171 8.09533 1.41463 0
M  V30 5554 C 746.011 9.0349 2.53943 0
M  V30 5555 C 746.551 8.35226 3.79016 0
M  V30 5556 O 745.495 7.57992 4.15078 0
M  V30 5557 C 747.769 7.45087 3.67298 0
M  V30 5558 O 748.507 7.27796 4.85194 0
M  V30 5559 C 747.1 6.17323 3.12027 0
M  V30 5560 O 747.899 5.04231 3.47188 0
M  V30 5561 C 745.763 6.19961 3.81809 0
M  V30 5562 H 745.795 5.58218 4.73051 0
M  V30 5563 H 746.978 6.21726 2.02589 0
M  V30 5564 H 748.462 7.86112 2.9231 0
M  V30 5565 H 746.768 9.11627 4.55076 0
M  V30 5566 H 746.578 9.9573 2.34194 0
M  V30 5567 H 744.948 9.2792 2.67832 0
M  V30 5568 H 747.587 4.67702 4.28772 0
M  V30 5569 P 749.445 7.39546 4.75277 0
M  V30 5570 O 750.867 7.81777 5.05738 0
M  V30 5571 O 749.085 7.1065 3.32998 0
M  V30 5572 O 749.122 6.04542 5.56673 0
M  V30 5573 C 748.962 6.22772 7.02095 0
M  V30 5574 C 749.502 4.97725 7.70406 0
M  V30 5575 O 748.446 4.13256 7.58987 0
M  V30 5576 C 750.72 4.28231 7.11815 0
M  V30 5577 O 751.458 3.49945 8.01648 0
M  V30 5578 C 750.051 3.5063 5.96244 0
M  V30 5579 O 750.85 2.36482 5.64681 0
M  V30 5580 C 748.714 3.15122 6.56374 0
M  V30 5581 H 748.746 2.13853 6.99751 0
M  V30 5582 H 749.929 4.13501 5.06559 0
M  V30 5583 H 751.413 5.03285 6.70911 0
M  V30 5584 H 749.719 5.20877 8.75697 0
M  V30 5585 H 749.529 7.11046 7.35349 0
M  V30 5586 H 747.899 6.35815 7.26986 0
M  V30 5587 H 750.538 1.61644 6.13565 0
M  V30 5588 P 752.395 3.65191 7.99657 0
M  V30 5589 O 753.817 3.84333 8.48297 0
M  V30 5590 O 752.035 4.17805 6.64342 0
M  V30 5591 O 752.072 2.07613 7.95143 0
M  V30 5592 C 751.912 1.44328 9.27336 0
M  V30 5593 C 752.452 0.0220012 9.17097 0
M  V30 5594 O 751.397 -0.626867 8.61923 0
M  V30 5595 C 753.67 -0.24586 8.30336 0
M  V30 5596 O 754.408 -1.39011 8.63583 0
M  V30 5597 C 753.002 -0.273849 6.91158 0
M  V30 5598 O 753.8 -1.06331 6.02794 0
M  V30 5599 C 751.664 -0.897649 7.22545 0
M  V30 5600 N 750.621 -0.292839 6.41732 0
M  V30 5601 C 750.683 1.00068 6.10757 0
M  V30 5602 N 749.638 1.36468 5.35794 0
M  V30 5603 C 748.904 0.258894 5.2366 0
M  V30 5604 C 747.598 0.0670682 4.65752 0
M  V30 5605 O 746.865 0.902443 4.10497 0
M  V30 5606 N 747.168 -1.2131 4.75881 0
M  V30 5607 C 747.917 -2.24934 5.37101 0
M  V30 5608 N 747.32 -3.48783 5.33984 0
M  V30 5609 N 749.07 -2.0844 5.95684 0
M  V30 5610 C 749.527 -0.81395 5.87791 0
M  V30 5611 H 751.696 -1.9841 7.04286 0
M  V30 5612 H 752.879 0.739815 6.49601 0
M  V30 5613 H 754.364 0.598315 8.36563 0
M  V30 5614 H 752.669 -0.352479 10.1829 0
M  V30 5615 H 752.479 2.00611 10.0304 0
M  V30 5616 H 750.848 1.41843 9.55327 0
M  V30 5617 H 746.272 -1.44434 4.37895 0
M  V30 5618 H 751.479 1.67697 6.42268 0
M  V30 5619 H 746.409 -3.60543 4.87699 0
M  V30 5620 H 747.785 -4.29232 5.7819 0
M  V30 5621 H 753.489 -1.95704 6.0346 0
M  V30 5622 P 755.346 -1.25109 8.70152 0
M  V30 5623 O 756.768 -1.35274 9.21221 0
M  V30 5624 O 754.986 -0.0769065 7.84762 0
M  V30 5625 O 755.023 -2.55232 7.81161 0
M  V30 5626 C 754.863 -3.79939 8.58154 0
M  V30 5627 C 755.403 -4.94023 7.72785 0
M  V30 5628 O 754.347 -5.18726 6.91205 0
M  V30 5629 C 756.621 -4.69597 6.85231 0
M  V30 5630 O 757.359 -5.83832 6.51337 0
M  V30 5631 C 755.952 -3.96706 5.66633 0
M  V30 5632 O 756.751 -4.15414 4.49689 0
M  V30 5633 C 754.615 -4.66153 5.59313 0
M  V30 5634 H 754.647 -5.47679 4.85214 0
M  V30 5635 H 755.83 -2.89008 5.86566 0
M  V30 5636 H 757.314 -4.0121 7.36511 0
M  V30 5637 H 755.62 -5.80182 8.37584 0
M  V30 5638 H 755.43 -3.73517 9.52265 0
M  V30 5639 H 753.8 -3.97163 8.80359 0
M  V30 5640 H 756.439 -4.90969 4.01921 0
M  V30 5641 P 758.296 -5.75688 6.64379 0
M  V30 5642 O 759.718 -6.11849 7.01846 0
M  V30 5643 O 757.936 -4.30744 6.56026 0
M  V30 5644 O 757.973 -6.37042 5.19165 0
M  V30 5645 C 757.813 -7.83578 5.16515 0
M  V30 5646 C 758.353 -8.33398 3.83019 0
M  V30 5647 O 757.297 -8.10074 3.01034 0
M  V30 5648 C 759.571 -7.65514 3.2257 0
M  V30 5649 O 760.309 -8.4329 2.32297 0
M  V30 5650 C 758.902 -6.40075 2.62207 0
M  V30 5651 O 759.701 -5.92589 1.53712 0
M  V30 5652 C 757.565 -6.9454 2.18503 0
M  V30 5653 H 757.597 -7.23063 1.12091 0
M  V30 5654 H 758.78 -5.6025 3.37201 0
M  V30 5655 H 760.264 -7.35707 4.02681 0
M  V30 5656 H 758.57 -9.40912 3.9095 0
M  V30 5657 H 758.38 -8.29056 5.99158 0
M  V30 5658 H 756.75 -8.10073 5.25882 0
M  V30 5659 H 759.389 -6.30324 0.726794 0
M  V30 5660 P 761.247 -8.4349 2.47671 0
M  V30 5661 O 762.669 -8.94167 2.5964 0
M  V30 5662 O 760.887 -7.1704 3.19006 0
M  V30 5663 O 760.924 -8.16596 0.923387 0
M  V30 5664 C 760.764 -9.38437 0.108857 0
M  V30 5665 C 761.304 -9.08175 -1.28353 0
M  V30 5666 O 760.248 -8.44229 -1.84713 0
M  V30 5667 C 762.522 -8.18386 -1.42505 0
M  V30 5668 O 763.26 -8.3501 -2.60497 0
M  V30 5669 C 761.853 -6.80225 -1.25468 0
M  V30 5670 O 762.652 -5.81621 -1.91066 0
M  V30 5671 C 760.516 -7.02416 -1.9168 0
M  V30 5672 H 760.548 -6.6888 -2.96621 0
M  V30 5673 H 761.731 -6.53617 -0.192223 0
M  V30 5674 H 763.215 -8.36622 -0.589963 0
M  V30 5675 H 761.521 -10.0291 -1.79807 0
M  V30 5676 H 761.331 -10.2138 0.558219 0
M  V30 5677 H 759.701 -9.6579 0.0444202 0
M  V30 5678 H 762.34 -5.69556 -2.79637 0
M  V30 5679 P 764.198 -8.4349 -2.47671 0
M  V30 5680 O 765.62 -8.92593 -2.65 0
M  V30 5681 O 763.838 -7.7568 -1.19296 0
M  V30 5682 O 763.875 -7.36886 -3.63805 0
M  V30 5683 C 763.715 -7.95349 -4.982 0
M  V30 5684 C 764.255 -6.94612 -5.98974 0
M  V30 5685 O 763.199 -6.10347 -6.11815 0
M  V30 5686 C 765.473 -6.11426 -5.62335 0
M  V30 5687 O 766.211 -5.6162 -6.70584 0
M  V30 5688 C 764.804 -5.04409 -4.73308 0
M  V30 5689 O 765.603 -3.85992 -4.75183 0
M  V30 5690 C 763.467 -4.8728 -5.41006 0
M  V30 5691 H 763.499 -4.02333 -6.11157 0
M  V30 5692 H 764.682 -5.39466 -3.69543 0
M  V30 5693 H 766.166 -6.71916 -5.01943 0
M  V30 5694 H 764.472 -7.4649 -6.93477 0
M  V30 5695 H 764.282 -8.89416 -5.05237 0
M  V30 5696 H 762.652 -8.14876 -5.18409 0
M  V30 5697 H 765.291 -3.27957 -5.4317 0
M  V30 5698 P 767.148 -5.75688 -6.64379 0
M  V30 5699 O 768.57 -6.07627 -7.05504 0
M  V30 5700 O 766.788 -5.88047 -5.19722 0
M  V30 5701 O 766.825 -4.2322 -7.04443 0
M  V30 5702 C 766.665 -3.99743 -8.4911 0
M  V30 5703 C 767.205 -2.60516 -8.79425 0
M  V30 5704 O 766.149 -1.82684 -8.4467 0
M  V30 5705 C 768.423 -2.10343 -8.03628 0
M  V30 5706 O 769.161 -1.09919 -8.67766 0
M  V30 5707 C 767.754 -1.68446 -6.70876 0
M  V30 5708 O 768.553 -0.678137 -6.08433 0
M  V30 5709 C 766.417 -1.17436 -7.18567 0
M  V30 5710 H 766.449 -0.0804732 -7.31656 0
M  V30 5711 H 767.632 -2.54037 -6.02537 0
M  V30 5712 H 769.116 -2.93881 -7.85526 0
M  V30 5713 H 767.422 -2.53065 -9.86973 0
M  V30 5714 H 767.232 -4.75072 -9.05887 0
M  V30 5715 H 765.602 -4.05244 -8.76668 0
M  V30 5716 H 768.241 0.177647 -6.34251 0
M  V30 5717 P 770.099 -1.25109 -8.70152 0
M  V30 5718 O 771.52 -1.29758 -9.22115 0
M  V30 5719 O 769.739 -2.13714 -7.55141 0
M  V30 5720 O 769.776 0.248149 -8.21425 0
M  V30 5721 C 769.615 1.22792 -9.30533 0
M  V30 5722 C 770.156 2.56293 -8.80664 0
M  V30 5723 O 769.101 3.02944 -8.09255 0
M  V30 5724 C 771.374 2.57523 -7.89775 0
M  V30 5725 O 772.112 3.7668 -7.89438 0
M  V30 5726 C 770.706 2.20997 -6.55446 0
M  V30 5727 O 771.504 2.71302 -5.48691 0
M  V30 5728 C 769.368 2.89693 -6.67988 0
M  V30 5729 N 768.325 2.08895 -6.07487 0
M  V30 5730 C 768.494 0.753809 -5.94137 0
M  V30 5731 N 767.467 0.146592 -5.38801 0
M  V30 5732 C 766.582 1.1768 -5.13693 0
M  V30 5733 C 765.315 1.17563 -4.52477 0
M  V30 5734 N 764.75 2.41918 -4.45789 0
M  V30 5735 C 765.352 3.56493 -4.90792 0
M  V30 5736 N 766.529 3.61423 -5.47817 0
M  V30 5737 C 767.104 2.37779 -5.5588 0
M  V30 5738 H 770.583 1.12673 -6.44018 0
M  V30 5739 H 772.066 1.7746 -8.19711 0
M  V30 5740 H 770.372 3.21673 -9.66791 0
M  V30 5741 H 770.182 0.901032 -10.1892 0
M  V30 5742 H 768.552 1.33049 -9.56592 0
M  V30 5743 H 769.394 0.233081 -6.26266 0
M  V30 5744 H 771.192 3.5779 -5.23879 0
M  V30 5745 P 773.049 3.65191 -7.99657 0
M  V30 5746 O 774.471 3.89332 -8.45794 0
M  V30 5747 O 772.689 2.28472 -7.50807 0
M  V30 5748 O 772.726 4.64972 -6.77611 0
M  V30 5749 C 772.566 6.06319 -7.16352 0
M  V30 5750 C 773.106 6.91731 -6.02299 0
M  V30 5751 O 772.05 6.92449 -5.17064 0
M  V30 5752 C 774.324 6.43627 -5.25174 0
M  V30 5753 O 775.062 7.43686 -4.60469 0
M  V30 5754 C 773.655 5.40275 -4.31916 0
M  V30 5755 O 774.454 5.25279 -3.14438 0
M  V30 5756 C 772.318 6.04847 -4.05327 0
M  V30 5757 H 772.35 6.62195 -3.11261 0
M  V30 5758 H 773.533 4.42556 -4.81383 0
M  V30 5759 H 775.017 5.92458 -5.93643 0
M  V30 5760 H 773.323 7.92655 -6.402 0
M  V30 5761 H 773.133 6.26671 -8.0846 0
M  V30 5762 H 771.503 6.29101 -7.32804 0
M  V30 5763 H 774.142 5.84315 -2.47318 0
M  V30 5764 P 776 7.39546 -4.75277 0
M  V30 5765 O 777.422 7.84798 -5.01039 0
M  V30 5766 O 775.64 5.9812 -5.08098 0
M  V30 5767 O 775.677 7.57503 -3.1866 0
M  V30 5768 C 775.517 8.97357 -2.74833 0
M  V30 5769 C 776.057 9.07548 -1.32709 0
M  V30 5770 O 775.001 8.62072 -0.606159 0
M  V30 5771 C 777.275 8.25383 -0.938334 0
M  V30 5772 O 778.013 8.74577 0.146954 0
M  V30 5773 C 776.606 6.8802 -0.712559 0
M  V30 5774 O 777.405 6.1189 0.194655 0
M  V30 5775 C 775.269 7.27966 -0.139777 0
M  V30 5776 H 775.301 7.25354 0.961601 0
M  V30 5777 H 776.484 6.32557 -1.65702 0
M  V30 5778 H 777.968 8.19355 -1.79097 0
M  V30 5779 H 776.274 10.1294 -1.10029 0
M  V30 5780 H 776.084 9.64276 -3.41316 0
M  V30 5781 H 774.454 9.25417 -2.76357 0
M  V30 5782 H 777.093 6.25267 1.07847 0
M  V30 5783 P 778.95 8.791 5.69499e-12 0
M  V30 5784 O 780.372 9.31096 0.027933 0
M  V30 5785 O 778.59 7.77869 -1.04071 0
M  V30 5786 O 778.627 8.09533 1.41463 0
M  V30 5787 C 778.467 9.0349 2.53943 0
M  V30 5788 C 779.007 8.35226 3.79016 0
M  V30 5789 O 777.951 7.57992 4.15078 0
M  V30 5790 C 780.225 7.45087 3.67298 0
M  V30 5791 O 780.963 7.27796 4.85194 0
M  V30 5792 C 779.556 6.17323 3.12027 0
M  V30 5793 O 780.355 5.04231 3.47188 0
M  V30 5794 C 778.219 6.19961 3.81809 0
M  V30 5795 H 778.251 5.58218 4.73051 0
M  V30 5796 H 779.434 6.21726 2.02589 0
M  V30 5797 H 780.918 7.86112 2.9231 0
M  V30 5798 H 779.224 9.11627 4.55076 0
M  V30 5799 H 779.034 9.9573 2.34194 0
M  V30 5800 H 777.404 9.2792 2.67832 0
M  V30 5801 H 780.043 4.67702 4.28772 0
M  V30 5802 P 781.901 7.39546 4.75277 0
M  V30 5803 O 783.302 7.89013 5.04841 0
M  V30 5804 O 781.523 7.16603 3.32298 0
M  V30 5805 O 781.578 6.04468 5.56605 0
M  V30 5806 C 781.418 6.22772 7.02095 0
M  V30 5807 C 781.958 4.97671 7.70322 0
M  V30 5808 O 780.902 4.13208 7.58899 0
M  V30 5809 C 783.175 4.28231 7.11815 0
M  V30 5810 O 783.914 3.49945 8.01648 0
M  V30 5811 C 782.508 3.5063 5.96244 0
M  V30 5812 O 783.306 2.36443 5.64589 0
M  V30 5813 C 781.17 3.15122 6.56374 0
M  V30 5814 N 780.127 3.22311 5.55692 0
M  V30 5815 C 779.092 2.32244 5.62437 0
M  V30 5816 O 779.131 1.43107 6.50341 0
M  V30 5817 N 778.08 2.40811 4.73368 0
M  V30 5818 C 778.128 3.344 3.77753 0
M  V30 5819 N 777.118 3.41475 2.91848 0
M  V30 5820 C 779.224 4.24712 3.66679 0
M  V30 5821 C 780.19 4.15625 4.58307 0
M  V30 5822 H 781.202 2.13823 6.99656 0
M  V30 5823 H 782.385 4.12931 5.06895 0
M  V30 5824 H 783.869 5.02674 6.71494 0
M  V30 5825 H 782.175 5.20001 8.76217 0
M  V30 5826 H 781.984 7.11046 7.35349 0
M  V30 5827 H 780.354 6.35749 7.26911 0
M  V30 5828 H 779.272 4.9828 2.86753 0
M  V30 5829 H 781.036 4.84464 4.54228 0
M  V30 5830 H 776.328 2.75785 2.99862 0
M  V30 5831 H 777.123 4.12304 2.17382 0
M  V30 5832 H 783.09 1.65592 6.23485 0
M  V30 5833 P 784.852 3.65191 7.99657 0
M  V30 5834 O 786.253 3.90823 8.51272 0
M  V30 5835 O 784.474 4.23191 6.66972 0
M  V30 5836 O 784.529 2.07587 7.95046 0
M  V30 5837 C 784.369 1.44328 9.27336 0
M  V30 5838 C 784.909 0.0220012 9.17097 0
M  V30 5839 O 783.853 -0.626794 8.61824 0
M  V30 5840 C 786.126 -0.24586 8.30336 0
M  V30 5841 O 786.865 -1.39011 8.63583 0
M  V30 5842 C 785.459 -0.273849 6.91158 0
M  V30 5843 O 786.257 -1.06331 6.02794 0
M  V30 5844 C 784.121 -0.897649 7.22545 0
M  V30 5845 N 783.078 -0.292839 6.41732 0
M  V30 5846 C 782.043 -1.08701 5.98712 0
M  V30 5847 O 782.082 -2.31211 6.24471 0
M  V30 5848 N 781.031 -0.533391 5.28415 0
M  V30 5849 C 781.079 0.770866 4.98576 0
M  V30 5850 C 782.175 1.59049 5.38086 0
M  V30 5851 C 783.141 1.01866 6.10256 0
M  V30 5852 H 784.153 -1.98383 7.04189 0
M  V30 5853 H 785.336 0.733318 6.49674 0
M  V30 5854 H 786.82 0.598386 8.36663 0
M  V30 5855 H 785.126 -0.362662 10.1825 0
M  V30 5856 H 784.935 2.00611 10.0304 0
M  V30 5857 H 783.305 1.41828 9.55228 0
M  V30 5858 H 782.223 2.6415 5.10622 0
M  V30 5859 H 783.987 1.61983 6.44042 0
M  V30 5860 H 786.041 -1.97777 6.14035 0
M  V30 5861 P 787.802 -1.25109 8.70152 0
M  V30 5862 O 789.224 -1.35274 9.21221 0
M  V30 5863 O 787.442 -0.0769065 7.84762 0
M  V30 5864 O 787.479 -2.55232 7.81161 0
M  V30 5865 C 787.319 -3.79939 8.58154 0
M  V30 5866 C 787.859 -4.94023 7.72785 0
M  V30 5867 O 786.803 -5.18726 6.91205 0
M  V30 5868 C 789.077 -4.69597 6.85231 0
M  V30 5869 O 789.815 -5.83832 6.51337 0
M  V30 5870 C 788.408 -3.96706 5.66633 0
M  V30 5871 O 789.207 -4.15414 4.49689 0
M  V30 5872 C 787.071 -4.66153 5.59313 0
M  V30 5873 H 787.103 -5.47679 4.85214 0
M  V30 5874 H 788.286 -2.89008 5.86566 0
M  V30 5875 H 789.77 -4.0121 7.36511 0
M  V30 5876 H 788.076 -5.80182 8.37584 0
M  V30 5877 H 787.886 -3.73517 9.52265 0
M  V30 5878 H 786.256 -3.97163 8.80359 0
M  V30 5879 H 788.895 -4.90969 4.01921 0
M  V30 5880 P 790.753 -5.75688 6.64379 0
M  V30 5881 O 792.175 -6.11849 7.01846 0
M  V30 5882 O 790.393 -4.30744 6.56026 0
M  V30 5883 O 790.43 -6.37042 5.19165 0
M  V30 5884 C 790.27 -7.83578 5.16515 0
M  V30 5885 C 790.81 -8.33398 3.83019 0
M  V30 5886 O 789.754 -8.10074 3.01034 0
M  V30 5887 C 792.028 -7.65514 3.2257 0
M  V30 5888 O 792.766 -8.4329 2.32297 0
M  V30 5889 C 791.359 -6.40075 2.62207 0
M  V30 5890 O 792.158 -5.92589 1.53712 0
M  V30 5891 C 790.022 -6.9454 2.18503 0
M  V30 5892 H 790.054 -7.23063 1.12091 0
M  V30 5893 H 791.237 -5.6025 3.37201 0
M  V30 5894 H 792.721 -7.35707 4.02681 0
M  V30 5895 H 791.027 -9.40912 3.9095 0
M  V30 5896 H 790.837 -8.29056 5.99158 0
M  V30 5897 H 789.207 -8.10073 5.25882 0
M  V30 5898 H 791.846 -6.30324 0.726794 0
M  V30 5899 P 793.703 -8.4349 2.47671 0
M  V30 5900 O 795.125 -8.94167 2.5964 0
M  V30 5901 O 793.343 -7.1704 3.19006 0
M  V30 5902 O 793.38 -8.16596 0.923387 0
M  V30 5903 C 793.22 -9.38437 0.108857 0
M  V30 5904 C 793.76 -9.08175 -1.28353 0
M  V30 5905 O 792.704 -8.44229 -1.84713 0
M  V30 5906 C 794.978 -8.18386 -1.42505 0
M  V30 5907 O 795.716 -8.3501 -2.60497 0
M  V30 5908 C 794.309 -6.80225 -1.25468 0
M  V30 5909 O 795.108 -5.81621 -1.91066 0
M  V30 5910 C 792.972 -7.02416 -1.9168 0
M  V30 5911 H 793.004 -6.6888 -2.96621 0
M  V30 5912 H 794.187 -6.53617 -0.192223 0
M  V30 5913 H 795.671 -8.36622 -0.589963 0
M  V30 5914 H 793.977 -10.0291 -1.79807 0
M  V30 5915 H 793.787 -10.2138 0.558219 0
M  V30 5916 H 792.157 -9.6579 0.0444202 0
M  V30 5917 H 794.796 -5.69556 -2.79637 0
M  V30 5918 P 796.654 -8.4349 -2.47671 0
M  V30 5919 O 798.076 -8.92593 -2.65 0
M  V30 5920 O 796.294 -7.7568 -1.19296 0
M  V30 5921 O 796.331 -7.36886 -3.63805 0
M  V30 5922 C 796.171 -7.95349 -4.982 0
M  V30 5923 C 796.711 -6.94612 -5.98974 0
M  V30 5924 O 795.655 -6.10347 -6.11815 0
M  V30 5925 C 797.929 -6.11426 -5.62335 0
M  V30 5926 O 798.667 -5.6162 -6.70584 0
M  V30 5927 C 797.26 -5.04409 -4.73308 0
M  V30 5928 O 798.059 -3.85992 -4.75183 0
M  V30 5929 C 795.923 -4.8728 -5.41006 0
M  V30 5930 H 795.955 -4.02333 -6.11157 0
M  V30 5931 H 797.138 -5.39466 -3.69543 0
M  V30 5932 H 798.622 -6.71916 -5.01943 0
M  V30 5933 H 796.928 -7.4649 -6.93477 0
M  V30 5934 H 796.738 -8.89416 -5.05237 0
M  V30 5935 H 795.108 -8.14876 -5.18409 0
M  V30 5936 H 797.747 -3.27957 -5.4317 0
M  V30 5937 P 799.604 -5.75688 -6.64379 0
M  V30 5938 O 801.026 -6.07627 -7.05504 0
M  V30 5939 O 799.244 -5.88047 -5.19722 0
M  V30 5940 O 799.281 -4.2322 -7.04443 0
M  V30 5941 C 799.121 -3.99743 -8.4911 0
M  V30 5942 C 799.661 -2.60516 -8.79425 0
M  V30 5943 O 798.605 -1.82684 -8.4467 0
M  V30 5944 C 800.879 -2.10343 -8.03628 0
M  V30 5945 O 801.617 -1.09919 -8.67766 0
M  V30 5946 C 800.21 -1.68446 -6.70876 0
M  V30 5947 O 801.009 -0.678137 -6.08433 0
M  V30 5948 C 798.873 -1.17436 -7.18567 0
M  V30 5949 H 798.905 -0.0804732 -7.31656 0
M  V30 5950 H 800.088 -2.54037 -6.02537 0
M  V30 5951 H 801.572 -2.93881 -7.85526 0
M  V30 5952 H 799.878 -2.53065 -9.86973 0
M  V30 5953 H 799.688 -4.75072 -9.05887 0
M  V30 5954 H 798.058 -4.05244 -8.76668 0
M  V30 5955 H 800.697 0.177647 -6.34251 0
M  V30 5956 P 802.555 -1.25109 -8.70152 0
M  V30 5957 O 803.977 -1.29744 -9.22016 0
M  V30 5958 O 802.195 -2.13714 -7.55141 0
M  V30 5959 O 802.232 0.248149 -8.21425 0
M  V30 5960 C 802.072 1.22779 -9.30434 0
M  V30 5961 C 802.612 2.56293 -8.80664 0
M  V30 5962 O 801.556 3.02979 -8.09349 0
M  V30 5963 C 803.83 2.57523 -7.89775 0
M  V30 5964 O 804.568 3.7668 -7.89438 0
M  V30 5965 C 803.161 2.20997 -6.55446 0
M  V30 5966 O 803.96 2.71895 -5.48509 0
M  V30 5967 C 801.824 2.89693 -6.67988 0
M  V30 5968 H 801.856 3.88793 -6.19859 0
M  V30 5969 H 803.039 1.12046 -6.44229 0
M  V30 5970 H 804.523 1.7746 -8.19711 0
M  V30 5971 H 802.829 3.20706 -9.67112 0
M  V30 5972 H 802.639 0.901032 -10.1892 0
M  V30 5973 H 801.009 1.33049 -9.56592 0
M  V30 5974 H 803.648 3.57847 -5.23962 0
M  V30 5975 P 805.506 3.65191 -7.99657 0
M  V30 5976 O 806.928 3.89332 -8.45794 0
M  V30 5977 O 805.146 2.28472 -7.50807 0
M  V30 5978 O 805.183 4.64972 -6.77611 0
M  V30 5979 C 805.023 6.06319 -7.16352 0
M  V30 5980 C 805.563 6.91731 -6.02299 0
M  V30 5981 O 804.507 6.92449 -5.17064 0
M  V30 5982 C 806.781 6.43627 -5.25174 0
M  V30 5983 O 807.519 7.43686 -4.60469 0
M  V30 5984 C 806.112 5.40275 -4.31916 0
M  V30 5985 O 806.911 5.25279 -3.14438 0
M  V30 5986 C 804.775 6.04847 -4.05327 0
M  V30 5987 H 804.807 6.62195 -3.11261 0
M  V30 5988 H 805.99 4.42556 -4.81383 0
M  V30 5989 H 807.474 5.92458 -5.93643 0
M  V30 5990 H 805.78 7.92655 -6.402 0
M  V30 5991 H 805.59 6.26671 -8.0846 0
M  V30 5992 H 803.96 6.29101 -7.32804 0
M  V30 5993 H 806.599 5.84315 -2.47318 0
M  V30 5994 P 808.456 7.39546 -4.75277 0
M  V30 5995 O 809.878 7.84798 -5.01039 0
M  V30 5996 O 808.096 5.9812 -5.08098 0
M  V30 5997 O 808.133 7.57503 -3.1866 0
M  V30 5998 C 807.973 8.97357 -2.74833 0
M  V30 5999 C 808.513 9.07548 -1.32709 0
M  V30 6000 O 807.457 8.62072 -0.606159 0
M  V30 6001 C 809.731 8.25383 -0.938334 0
M  V30 6002 O 810.469 8.74577 0.146954 0
M  V30 6003 C 809.062 6.8802 -0.712559 0
M  V30 6004 O 809.861 6.1189 0.194655 0
M  V30 6005 C 807.725 7.27966 -0.139777 0
M  V30 6006 H 807.757 7.25354 0.961601 0
M  V30 6007 H 808.94 6.32557 -1.65702 0
M  V30 6008 H 810.424 8.19355 -1.79097 0
M  V30 6009 H 808.73 10.1294 -1.10029 0
M  V30 6010 H 808.54 9.64276 -3.41316 0
M  V30 6011 H 806.91 9.25417 -2.76357 0
M  V30 6012 H 809.549 6.25267 1.07847 0
M  V30 6013 P 811.407 8.791 6.00516e-12 0
M  V30 6014 O 812.829 9.31096 0.027933 0
M  V30 6015 O 811.047 7.77869 -1.04071 0
M  V30 6016 O 811.084 8.09533 1.41463 0
M  V30 6017 C 810.924 9.0349 2.53943 0
M  V30 6018 C 811.464 8.35226 3.79016 0
M  V30 6019 O 810.408 7.57992 4.15078 0
M  V30 6020 C 812.682 7.45087 3.67298 0
M  V30 6021 O 813.42 7.27796 4.85194 0
M  V30 6022 C 812.013 6.17323 3.12027 0
M  V30 6023 O 812.812 5.04231 3.47188 0
M  V30 6024 C 810.676 6.19961 3.81809 0
M  V30 6025 H 810.708 5.58218 4.73051 0
M  V30 6026 H 811.891 6.21726 2.02589 0
M  V30 6027 H 813.375 7.86112 2.9231 0
M  V30 6028 H 811.681 9.11627 4.55076 0
M  V30 6029 H 811.491 9.9573 2.34194 0
M  V30 6030 H 809.861 9.2792 2.67832 0
M  V30 6031 H 812.5 4.67702 4.28772 0
M  V30 6032 P 814.357 7.39546 4.75277 0
M  V30 6033 O 815.779 7.81777 5.05738 0
M  V30 6034 O 813.997 7.1065 3.32998 0
M  V30 6035 O 814.034 6.04542 5.56673 0
M  V30 6036 C 813.874 6.22772 7.02095 0
M  V30 6037 C 814.414 4.97725 7.70406 0
M  V30 6038 O 813.358 4.13256 7.58987 0
M  V30 6039 C 815.632 4.28231 7.11815 0
M  V30 6040 O 816.37 3.49945 8.01648 0
M  V30 6041 C 814.963 3.5063 5.96244 0
M  V30 6042 O 815.762 2.36482 5.64681 0
M  V30 6043 C 813.626 3.15122 6.56374 0
M  V30 6044 H 813.658 2.13853 6.99751 0
M  V30 6045 H 814.841 4.13501 5.06559 0
M  V30 6046 H 816.325 5.03285 6.70911 0
M  V30 6047 H 814.631 5.20877 8.75697 0
M  V30 6048 H 814.441 7.11046 7.35349 0
M  V30 6049 H 812.811 6.35815 7.26986 0
M  V30 6050 H 815.45 1.61644 6.13565 0
M  V30 6051 P 817.308 3.65191 7.99657 0
M  V30 6052 O 818.73 3.8425 8.48115 0
M  V30 6053 O 816.948 4.17805 6.64342 0
M  V30 6054 O 816.985 2.07613 7.95143 0
M  V30 6055 C 816.825 1.44328 9.27336 0
M  V30 6056 C 817.365 0.0220036 9.17197 0
M  V30 6057 O 816.309 -0.626867 8.61923 0
M  V30 6058 C 818.583 -0.24586 8.30336 0
M  V30 6059 O 819.321 -1.39011 8.63583 0
M  V30 6060 C 817.914 -0.273849 6.91158 0
M  V30 6061 O 818.713 -1.06348 6.02892 0
M  V30 6062 C 816.577 -0.897649 7.22545 0
M  V30 6063 H 816.609 -1.9841 7.04286 0
M  V30 6064 H 817.792 0.739928 6.497 0
M  V30 6065 H 819.276 0.60668 8.36503 0
M  V30 6066 H 817.582 -0.352479 10.1829 0
M  V30 6067 H 817.392 2.00611 10.0304 0
M  V30 6068 H 815.762 1.41843 9.55327 0
M  V30 6069 H 818.401 -1.95734 6.03555 0
M  V30 6070 P 820.258 -1.25109 8.70152 0
M  V30 6071 O 821.68 -1.35274 9.21221 0
M  V30 6072 O 819.898 -0.0769065 7.84762 0
M  V30 6073 O 819.935 -2.55232 7.81161 0
M  V30 6074 C 819.775 -3.79939 8.58154 0
M  V30 6075 C 820.315 -4.94023 7.72785 0
M  V30 6076 O 819.259 -5.18726 6.91205 0
M  V30 6077 C 821.533 -4.69597 6.85231 0
M  V30 6078 O 822.271 -5.83832 6.51337 0
M  V30 6079 C 820.864 -3.96706 5.66633 0
M  V30 6080 O 821.663 -4.15414 4.49689 0
M  V30 6081 C 819.527 -4.66153 5.59313 0
M  V30 6082 H 819.559 -5.47679 4.85214 0
M  V30 6083 H 820.742 -2.89008 5.86566 0
M  V30 6084 H 822.226 -4.0121 7.36511 0
M  V30 6085 H 820.532 -5.80182 8.37584 0
M  V30 6086 H 820.342 -3.73517 9.52265 0
M  V30 6087 H 818.712 -3.97163 8.80359 0
M  V30 6088 H 821.351 -4.90969 4.01921 0
M  V30 6089 P 823.209 -5.75688 6.64379 0
M  V30 6090 O 824.631 -6.11849 7.01846 0
M  V30 6091 O 822.849 -4.30744 6.56026 0
M  V30 6092 O 822.886 -6.37042 5.19165 0
M  V30 6093 C 822.726 -7.83578 5.16515 0
M  V30 6094 C 823.266 -8.33398 3.83019 0
M  V30 6095 O 822.21 -8.10074 3.01034 0
M  V30 6096 C 824.484 -7.65514 3.2257 0
M  V30 6097 O 825.222 -8.4329 2.32297 0
M  V30 6098 C 823.815 -6.40075 2.62207 0
M  V30 6099 O 824.614 -5.92589 1.53712 0
M  V30 6100 C 822.478 -6.9454 2.18503 0
M  V30 6101 H 822.51 -7.23063 1.12091 0
M  V30 6102 H 823.693 -5.6025 3.37201 0
M  V30 6103 H 825.177 -7.35707 4.02681 0
M  V30 6104 H 823.483 -9.40912 3.9095 0
M  V30 6105 H 823.293 -8.29056 5.99158 0
M  V30 6106 H 821.663 -8.10073 5.25882 0
M  V30 6107 H 824.302 -6.30324 0.726794 0
M  V30 6108 P 826.16 -8.4349 2.47671 0
M  V30 6109 O 827.582 -8.94167 2.5964 0
M  V30 6110 O 825.8 -7.1704 3.19006 0
M  V30 6111 O 825.837 -8.16596 0.923387 0
M  V30 6112 C 825.677 -9.38437 0.108857 0
M  V30 6113 C 826.217 -9.08175 -1.28353 0
M  V30 6114 O 825.161 -8.44229 -1.84713 0
M  V30 6115 C 827.435 -8.18386 -1.42505 0
M  V30 6116 O 828.173 -8.3501 -2.60497 0
M  V30 6117 C 826.766 -6.80225 -1.25468 0
M  V30 6118 O 827.565 -5.81621 -1.91066 0
M  V30 6119 C 825.429 -7.02416 -1.9168 0
M  V30 6120 H 825.461 -6.6888 -2.96621 0
M  V30 6121 H 826.644 -6.53617 -0.192223 0
M  V30 6122 H 828.128 -8.36622 -0.589963 0
M  V30 6123 H 826.434 -10.0291 -1.79807 0
M  V30 6124 H 826.244 -10.2138 0.558219 0
M  V30 6125 H 824.614 -9.6579 0.0444202 0
M  V30 6126 H 827.253 -5.69556 -2.79637 0
M  V30 6127 P 829.11 -8.4349 -2.47671 0
M  V30 6128 O 830.532 -8.92593 -2.65 0
M  V30 6129 O 828.75 -7.7568 -1.19296 0
M  V30 6130 O 828.787 -7.36886 -3.63805 0
M  V30 6131 C 828.627 -7.95349 -4.982 0
M  V30 6132 C 829.167 -6.94612 -5.98974 0
M  V30 6133 O 828.111 -6.10347 -6.11815 0
M  V30 6134 C 830.385 -6.11426 -5.62335 0
M  V30 6135 O 831.123 -5.6162 -6.70584 0
M  V30 6136 C 829.716 -5.04409 -4.73308 0
M  V30 6137 O 830.515 -3.85992 -4.75183 0
M  V30 6138 C 828.379 -4.8728 -5.41006 0
M  V30 6139 H 828.411 -4.02333 -6.11157 0
M  V30 6140 H 829.594 -5.39466 -3.69543 0
M  V30 6141 H 831.078 -6.71916 -5.01943 0
M  V30 6142 H 829.384 -7.4649 -6.93477 0
M  V30 6143 H 829.194 -8.89416 -5.05237 0
M  V30 6144 H 827.564 -8.14876 -5.18409 0
M  V30 6145 H 830.203 -3.27957 -5.4317 0
M  V30 6146 P 832.061 -5.75688 -6.64379 0
M  V30 6147 O 833.483 -6.07758 -7.05656 0
M  V30 6148 O 831.701 -5.88047 -5.19722 0
M  V30 6149 O 831.738 -4.2322 -7.04443 0
M  V30 6150 C 831.578 -3.99743 -8.4911 0
M  V30 6151 C 832.118 -2.60487 -8.79329 0
M  V30 6152 O 831.063 -1.82684 -8.4467 0
M  V30 6153 C 833.336 -2.10343 -8.03628 0
M  V30 6154 O 834.074 -1.09919 -8.67766 0
M  V30 6155 C 832.668 -1.68446 -6.70876 0
M  V30 6156 O 833.466 -0.678026 -6.08333 0
M  V30 6157 C 831.33 -1.17436 -7.18567 0
M  V30 6158 N 830.287 -1.52699 -6.23988 0
M  V30 6159 C 830.349 -2.68084 -5.57824 0
M  V30 6160 N 829.304 -2.8189 -4.75643 0
M  V30 6161 C 828.57 -1.72373 -4.95155 0
M  V30 6162 C 827.264 -1.37653 -4.44996 0
M  V30 6163 O 826.531 -2.02239 -3.68445 0
M  V30 6164 N 826.834 -0.17675 -4.90782 0
M  V30 6165 C 827.583 0.645036 -5.78716 0
M  V30 6166 N 826.986 1.84214 -6.10618 0
M  V30 6167 N 828.736 0.321732 -6.30279 0
M  V30 6168 C 829.193 -0.87502 -5.86913 0
M  V30 6169 H 831.362 -0.0804732 -7.31656 0
M  V30 6170 H 832.545 -2.53998 -6.02444 0
M  V30 6171 H 834.03 -2.93095 -7.8582 0
M  V30 6172 H 832.335 -2.53065 -9.86973 0
M  V30 6173 H 832.145 -4.75072 -9.05887 0
M  V30 6174 H 830.514 -4.05244 -8.76668 0
M  V30 6175 H 825.938 0.152143 -4.60849 0
M  V30 6176 H 831.145 -3.41852 -5.69006 0
M  V30 6177 H 826.075 2.08538 -5.69521 0
M  V30 6178 H 827.451 2.4895 -6.75698 0
M  V30 6179 H 833.155 0.177619 -6.34151 0
M  V30 6180 P 835.011 -1.25109 -8.70152 0
M  V30 6181 O 836.433 -1.29744 -9.22016 0
M  V30 6182 O 834.651 -2.13714 -7.55141 0
M  V30 6183 O 834.688 0.248149 -8.21425 0
M  V30 6184 C 834.528 1.22779 -9.30434 0
M  V30 6185 C 835.068 2.56293 -8.80664 0
M  V30 6186 O 834.012 3.02979 -8.09349 0
M  V30 6187 C 836.286 2.57523 -7.89775 0
M  V30 6188 O 837.024 3.7668 -7.89438 0
M  V30 6189 C 835.617 2.20997 -6.55446 0
M  V30 6190 O 836.416 2.71895 -5.48509 0
M  V30 6191 C 834.28 2.89693 -6.67988 0
M  V30 6192 H 834.312 3.88793 -6.19859 0
M  V30 6193 H 835.495 1.12046 -6.44229 0
M  V30 6194 H 836.979 1.7746 -8.19711 0
M  V30 6195 H 835.285 3.20706 -9.67112 0
M  V30 6196 H 835.095 0.901032 -10.1892 0
M  V30 6197 H 833.465 1.33049 -9.56592 0
M  V30 6198 H 836.104 3.57847 -5.23962 0
M  V30 6199 P 837.962 3.65191 -7.99657 0
M  V30 6200 O 839.384 3.89332 -8.45794 0
M  V30 6201 O 837.602 2.28472 -7.50807 0
M  V30 6202 O 837.639 4.64972 -6.77611 0
M  V30 6203 C 837.479 6.06319 -7.16352 0
M  V30 6204 C 838.019 6.91731 -6.02299 0
M  V30 6205 O 836.963 6.92449 -5.17064 0
M  V30 6206 C 839.237 6.43627 -5.25174 0
M  V30 6207 O 839.975 7.43686 -4.60469 0
M  V30 6208 C 838.568 5.40275 -4.31916 0
M  V30 6209 O 839.367 5.25279 -3.14438 0
M  V30 6210 C 837.231 6.04847 -4.05327 0
M  V30 6211 H 837.263 6.62195 -3.11261 0
M  V30 6212 H 838.446 4.42556 -4.81383 0
M  V30 6213 H 839.93 5.92458 -5.93643 0
M  V30 6214 H 838.236 7.92655 -6.402 0
M  V30 6215 H 838.046 6.26671 -8.0846 0
M  V30 6216 H 836.416 6.29101 -7.32804 0
M  V30 6217 H 839.055 5.84315 -2.47318 0
M  V30 6218 P 840.912 7.39546 -4.75277 0
M  V30 6219 O 842.334 7.84798 -5.01039 0
M  V30 6220 O 840.552 5.9812 -5.08098 0
M  V30 6221 O 840.589 7.57503 -3.1866 0
M  V30 6222 C 840.429 8.97357 -2.74833 0
M  V30 6223 C 840.969 9.07548 -1.32709 0
M  V30 6224 O 839.913 8.62072 -0.606159 0
M  V30 6225 C 842.187 8.25383 -0.938334 0
M  V30 6226 O 842.925 8.74577 0.146954 0
M  V30 6227 C 841.518 6.8802 -0.712559 0
M  V30 6228 O 842.317 6.1189 0.194655 0
M  V30 6229 C 840.181 7.27966 -0.139777 0
M  V30 6230 H 840.213 7.25354 0.961601 0
M  V30 6231 H 841.396 6.32557 -1.65702 0
M  V30 6232 H 842.88 8.19355 -1.79097 0
M  V30 6233 H 841.186 10.1294 -1.10029 0
M  V30 6234 H 840.996 9.64276 -3.41316 0
M  V30 6235 H 839.366 9.25417 -2.76357 0
M  V30 6236 H 842.005 6.25267 1.07847 0
M  V30 6237 P 843.863 8.791 6.31533e-12 0
M  V30 6238 O 845.285 9.31096 0.027933 0
M  V30 6239 O 843.503 7.77869 -1.04071 0
M  V30 6240 O 843.54 8.09533 1.41463 0
M  V30 6241 C 843.38 9.0349 2.53943 0
M  V30 6242 C 843.92 8.35226 3.79016 0
M  V30 6243 O 842.864 7.57992 4.15078 0
M  V30 6244 C 845.138 7.45087 3.67298 0
M  V30 6245 O 845.876 7.27796 4.85194 0
M  V30 6246 C 844.469 6.17323 3.12027 0
M  V30 6247 O 845.268 5.04231 3.47188 0
M  V30 6248 C 843.132 6.19961 3.81809 0
M  V30 6249 H 843.164 5.58218 4.73051 0
M  V30 6250 H 844.347 6.21726 2.02589 0
M  V30 6251 H 845.831 7.86112 2.9231 0
M  V30 6252 H 844.137 9.11627 4.55076 0
M  V30 6253 H 843.947 9.9573 2.34194 0
M  V30 6254 H 842.317 9.2792 2.67832 0
M  V30 6255 H 844.956 4.67702 4.28772 0
M  V30 6256 P 846.814 7.39546 4.75277 0
M  V30 6257 O 848.236 7.81777 5.05738 0
M  V30 6258 O 846.454 7.1065 3.32998 0
M  V30 6259 O 846.491 6.04542 5.56673 0
M  V30 6260 C 846.331 6.22772 7.02095 0
M  V30 6261 C 846.871 4.97725 7.70406 0
M  V30 6262 O 845.815 4.13256 7.58987 0
M  V30 6263 C 848.089 4.28231 7.11815 0
M  V30 6264 O 848.827 3.49945 8.01648 0
M  V30 6265 C 847.42 3.5063 5.96244 0
M  V30 6266 O 848.219 2.36482 5.64681 0
M  V30 6267 C 846.083 3.15122 6.56374 0
M  V30 6268 H 846.115 2.13853 6.99751 0
M  V30 6269 H 847.298 4.13501 5.06559 0
M  V30 6270 H 848.782 5.03285 6.70911 0
M  V30 6271 H 847.088 5.20877 8.75697 0
M  V30 6272 H 846.898 7.11046 7.35349 0
M  V30 6273 H 845.268 6.35815 7.26986 0
M  V30 6274 H 847.907 1.61644 6.13565 0
M  V30 6275 P 849.764 3.65191 7.99657 0
M  V30 6276 O 851.186 3.8425 8.48115 0
M  V30 6277 O 849.404 4.17805 6.64342 0
M  V30 6278 O 849.441 2.07613 7.95143 0
M  V30 6279 C 849.281 1.44328 9.27336 0
M  V30 6280 C 849.821 0.0220036 9.17197 0
M  V30 6281 O 848.765 -0.626867 8.61923 0
M  V30 6282 C 851.039 -0.24586 8.30336 0
M  V30 6283 O 851.777 -1.39011 8.63583 0
M  V30 6284 C 850.37 -0.273849 6.91158 0
M  V30 6285 O 851.169 -1.06348 6.02892 0
M  V30 6286 C 849.033 -0.897649 7.22545 0
M  V30 6287 H 849.065 -1.9841 7.04286 0
M  V30 6288 H 850.248 0.739928 6.497 0
M  V30 6289 H 851.732 0.60668 8.36503 0
M  V30 6290 H 850.038 -0.352479 10.1829 0
M  V30 6291 H 849.848 2.00611 10.0304 0
M  V30 6292 H 848.218 1.41843 9.55327 0
M  V30 6293 H 850.857 -1.95734 6.03555 0
M  V30 6294 P 852.715 -1.25109 8.70152 0
M  V30 6295 O 854.137 -1.35303 9.21419 0
M  V30 6296 O 852.355 -0.0769065 7.84762 0
M  V30 6297 O 852.392 -2.55232 7.81161 0
M  V30 6298 C 852.232 -3.79939 8.58154 0
M  V30 6299 C 852.772 -4.93969 7.72701 0
M  V30 6300 O 851.717 -5.18726 6.91205 0
M  V30 6301 C 853.99 -4.69597 6.85231 0
M  V30 6302 O 854.728 -5.83832 6.51337 0
M  V30 6303 C 853.322 -3.96706 5.66633 0
M  V30 6304 O 854.12 -4.15346 4.49615 0
M  V30 6305 C 851.984 -4.66153 5.59313 0
M  V30 6306 N 850.941 -3.71582 5.24027 0
M  V30 6307 C 851.003 -2.46018 5.67902 0
M  V30 6308 N 849.958 -1.74868 5.24518 0
M  V30 6309 C 849.224 -2.61333 4.54528 0
M  V30 6310 C 847.918 -2.46162 3.95441 0
M  V30 6311 O 847.185 -1.46013 3.94122 0
M  V30 6312 N 847.488 -3.59334 3.34752 0
M  V30 6313 C 848.237 -4.79605 3.3023 0
M  V30 6314 N 847.64 -5.82109 2.6065 0
M  V30 6315 N 849.39 -4.97402 3.8843 0
M  V30 6316 C 849.847 -3.86258 4.50476 0
M  V30 6317 H 852.016 -5.47679 4.85214 0
M  V30 6318 H 853.199 -2.88964 5.86476 0
M  V30 6319 H 854.684 -4.01947 7.36109 0
M  V30 6320 H 852.989 -5.80182 8.37584 0
M  V30 6321 H 852.799 -3.73517 9.52265 0
M  V30 6322 H 851.168 -3.97163 8.80359 0
M  V30 6323 H 846.592 -3.5825 2.90294 0
M  V30 6324 H 851.799 -2.06161 6.30974 0
M  V30 6325 H 846.729 -5.66979 2.15354 0
M  V30 6326 H 848.105 -6.73686 2.54344 0
M  V30 6327 H 853.809 -4.90891 4.01857 0
M  V30 6328 P 855.665 -5.75688 6.64379 0
M  V30 6329 O 857.066 -6.11991 7.09136 0
M  V30 6330 O 855.287 -4.30899 6.62018 0
M  V30 6331 O 855.342 -6.36965 5.19102 0
M  V30 6332 C 855.182 -7.83578 5.16515 0
M  V30 6333 C 855.722 -8.33307 3.82977 0
M  V30 6334 O 854.666 -8.0998 3.00999 0
M  V30 6335 C 856.939 -7.65514 3.2257 0
M  V30 6336 O 857.678 -8.4329 2.32297 0
M  V30 6337 C 856.272 -6.40075 2.62207 0
M  V30 6338 O 857.07 -5.92492 1.53687 0
M  V30 6339 C 854.934 -6.9454 2.18503 0
M  V30 6340 N 853.891 -5.95905 2.39948 0
M  V30 6341 C 852.856 -5.89764 1.49837 0
M  V30 6342 O 852.895 -6.64088 0.490975 0
M  V30 6343 N 851.844 -5.02821 1.70992 0
M  V30 6344 C 851.892 -4.21498 2.77236 0
M  V30 6345 N 850.882 -3.37475 2.96465 0
M  V30 6346 C 852.988 -4.23389 3.68205 0
M  V30 6347 C 853.954 -5.12792 3.46171 0
M  V30 6348 H 854.966 -7.22964 1.12076 0
M  V30 6349 H 856.149 -5.60502 3.36589 0
M  V30 6350 H 857.633 -7.36197 4.01993 0
M  V30 6351 H 855.939 -9.41302 3.90009 0
M  V30 6352 H 855.748 -8.29056 5.99158 0
M  V30 6353 H 854.118 -8.09989 5.25828 0
M  V30 6354 H 853.036 -3.54747 4.52399 0
M  V30 6355 H 854.8 -5.18551 4.1489 0
M  V30 6356 H 850.092 -3.36058 2.30304 0
M  V30 6357 H 850.887 -2.73846 3.77171 0
M  V30 6358 H 856.854 -6.40705 0.751752 0
M  V30 6359 P 858.616 -8.4349 2.47671 0
M  V30 6360 O 860.038 -8.94359 2.59696 0
M  V30 6361 O 858.256 -7.1704 3.19006 0
M  V30 6362 O 858.293 -8.16596 0.923387 0
M  V30 6363 C 858.133 -9.38437 0.108857 0
M  V30 6364 C 858.673 -9.08076 -1.28339 0
M  V30 6365 O 857.618 -8.44229 -1.84713 0
M  V30 6366 C 859.891 -8.18386 -1.42505 0
M  V30 6367 O 860.629 -8.3501 -2.60497 0
M  V30 6368 C 859.223 -6.80225 -1.25468 0
M  V30 6369 O 860.021 -5.81526 -1.91035 0
M  V30 6370 C 857.885 -7.02416 -1.9168 0
M  V30 6371 N 856.842 -6.31033 -1.20314 0
M  V30 6372 C 856.904 -6.18781 0.121293 0
M  V30 6373 N 855.859 -5.49762 0.588272 0
M  V30 6374 C 855.125 -5.22015 -0.488988 0
M  V30 6375 C 853.819 -4.61966 -0.596448 0
M  V30 6376 O 853.086 -4.19162 0.309059 0
M  V30 6377 N 853.389 -4.53773 -1.878 0
M  V30 6378 C 854.138 -4.99623 -2.99082 0
M  V30 6379 N 853.541 -4.78912 -4.21227 0
M  V30 6380 N 855.291 -5.59957 -2.91093 0
M  V30 6381 C 855.748 -5.70225 -1.64218 0
M  V30 6382 H 857.917 -6.6888 -2.96621 0
M  V30 6383 H 859.1 -6.53517 -0.192194 0
M  V30 6384 H 860.585 -8.36563 -0.598329 0
M  V30 6385 H 858.89 -10.0291 -1.79807 0
M  V30 6386 H 858.7 -10.2138 0.558219 0
M  V30 6387 H 857.069 -9.6579 0.0444202 0
M  V30 6388 H 852.493 -4.12883 -2.05283 0
M  V30 6389 H 857.7 -6.59596 0.745856 0
M  V30 6390 H 852.63 -4.31425 -4.2628 0
M  V30 6391 H 854.006 -5.11219 -5.07148 0
M  V30 6392 H 859.71 -5.69466 -2.79593 0
M  V30 6393 P 861.566 -8.4349 -2.47671 0
M  V30 6394 O 862.988 -8.92593 -2.65 0
M  V30 6395 O 861.206 -7.7568 -1.19296 0
M  V30 6396 O 861.243 -7.36886 -3.63805 0
M  V30 6397 C 861.083 -7.95349 -4.982 0
M  V30 6398 C 861.623 -6.94612 -5.98974 0
M  V30 6399 O 860.567 -6.10347 -6.11815 0
M  V30 6400 C 862.841 -6.11426 -5.62335 0
M  V30 6401 O 863.579 -5.6162 -6.70584 0
M  V30 6402 C 862.172 -5.04409 -4.73308 0
M  V30 6403 O 862.971 -3.85992 -4.75183 0
M  V30 6404 C 860.835 -4.8728 -5.41006 0
M  V30 6405 H 860.867 -4.02333 -6.11157 0
M  V30 6406 H 862.05 -5.39466 -3.69543 0
M  V30 6407 H 863.534 -6.71916 -5.01943 0
M  V30 6408 H 861.84 -7.4649 -6.93477 0
M  V30 6409 H 861.65 -8.89416 -5.05237 0
M  V30 6410 H 860.02 -8.14876 -5.18409 0
M  V30 6411 H 862.659 -3.27957 -5.4317 0
M  V30 6412 P 864.517 -5.75688 -6.64379 0
M  V30 6413 O 865.939 -6.07627 -7.05504 0
M  V30 6414 O 864.157 -5.88047 -5.19722 0
M  V30 6415 O 864.194 -4.2322 -7.04443 0
M  V30 6416 C 864.034 -3.99743 -8.4911 0
M  V30 6417 C 864.574 -2.60516 -8.79425 0
M  V30 6418 O 863.518 -1.82684 -8.4467 0
M  V30 6419 C 865.792 -2.10343 -8.03628 0
M  V30 6420 O 866.53 -1.09919 -8.67766 0
M  V30 6421 C 865.123 -1.68446 -6.70876 0
M  V30 6422 O 865.922 -0.678137 -6.08433 0
M  V30 6423 C 863.786 -1.17436 -7.18567 0
M  V30 6424 H 863.818 -0.0804732 -7.31656 0
M  V30 6425 H 865.001 -2.54037 -6.02537 0
M  V30 6426 H 866.485 -2.93881 -7.85526 0
M  V30 6427 H 864.791 -2.53065 -9.86973 0
M  V30 6428 H 864.601 -4.75072 -9.05887 0
M  V30 6429 H 862.971 -4.05244 -8.76668 0
M  V30 6430 H 865.61 0.177647 -6.34251 0
M  V30 6431 P 867.468 -1.25109 -8.70152 0
M  V30 6432 O 868.89 -1.29744 -9.22016 0
M  V30 6433 O 867.108 -2.13714 -7.55141 0
M  V30 6434 O 867.145 0.248149 -8.21425 0
M  V30 6435 C 866.985 1.22779 -9.30434 0
M  V30 6436 C 867.525 2.56293 -8.80664 0
M  V30 6437 O 866.469 3.02979 -8.09349 0
M  V30 6438 C 868.743 2.57523 -7.89775 0
M  V30 6439 O 869.481 3.7668 -7.89438 0
M  V30 6440 C 868.074 2.20997 -6.55446 0
M  V30 6441 O 868.873 2.71895 -5.48509 0
M  V30 6442 C 866.737 2.89693 -6.67988 0
M  V30 6443 H 866.769 3.88793 -6.19859 0
M  V30 6444 H 867.952 1.12046 -6.44229 0
M  V30 6445 H 869.436 1.7746 -8.19711 0
M  V30 6446 H 867.742 3.20706 -9.67112 0
M  V30 6447 H 867.552 0.901032 -10.1892 0
M  V30 6448 H 865.922 1.33049 -9.56592 0
M  V30 6449 H 868.561 3.57847 -5.23962 0
M  V30 6450 P 870.418 3.65191 -7.99657 0
M  V30 6451 O 871.84 3.89332 -8.45794 0
M  V30 6452 O 870.058 2.28472 -7.50807 0
M  V30 6453 O 870.095 4.64972 -6.77611 0
M  V30 6454 C 869.935 6.06319 -7.16352 0
M  V30 6455 C 870.475 6.91731 -6.02299 0
M  V30 6456 O 869.419 6.92449 -5.17064 0
M  V30 6457 C 871.693 6.43627 -5.25174 0
M  V30 6458 O 872.431 7.43686 -4.60469 0
M  V30 6459 C 871.024 5.40275 -4.31916 0
M  V30 6460 O 871.823 5.25279 -3.14438 0
M  V30 6461 C 869.687 6.04847 -4.05327 0
M  V30 6462 H 869.719 6.62195 -3.11261 0
M  V30 6463 H 870.902 4.42556 -4.81383 0
M  V30 6464 H 872.386 5.92458 -5.93643 0
M  V30 6465 H 870.692 7.92655 -6.402 0
M  V30 6466 H 870.502 6.26671 -8.0846 0
M  V30 6467 H 868.872 6.29101 -7.32804 0
M  V30 6468 H 871.511 5.84315 -2.47318 0
M  V30 6469 P 873.369 7.39546 -4.75277 0
M  V30 6470 O 874.791 7.84798 -5.01039 0
M  V30 6471 O 873.009 5.9812 -5.08098 0
M  V30 6472 O 873.046 7.57503 -3.1866 0
M  V30 6473 C 872.886 8.97357 -2.74833 0
M  V30 6474 C 873.426 9.07548 -1.32709 0
M  V30 6475 O 872.37 8.62072 -0.606159 0
M  V30 6476 C 874.644 8.25383 -0.938334 0
M  V30 6477 O 875.382 8.74577 0.146954 0
M  V30 6478 C 873.975 6.8802 -0.712559 0
M  V30 6479 O 874.774 6.1189 0.194655 0
M  V30 6480 C 872.638 7.27966 -0.139777 0
M  V30 6481 H 872.67 7.25354 0.961601 0
M  V30 6482 H 873.853 6.32557 -1.65702 0
M  V30 6483 H 875.337 8.19355 -1.79097 0
M  V30 6484 H 873.643 10.1294 -1.10029 0
M  V30 6485 H 873.453 9.64276 -3.41316 0
M  V30 6486 H 871.823 9.25417 -2.76357 0
M  V30 6487 H 874.462 6.25267 1.07847 0
M  V30 6488 P 876.319 8.791 6.62549e-12 0
M  V30 6489 O 877.741 9.31096 0.027933 0
M  V30 6490 O 875.959 7.77869 -1.04071 0
M  V30 6491 O 875.996 8.09533 1.41463 0
M  V30 6492 C 875.836 9.0349 2.53943 0
M  V30 6493 C 876.376 8.35226 3.79016 0
M  V30 6494 O 875.32 7.57992 4.15078 0
M  V30 6495 C 877.594 7.45087 3.67298 0
M  V30 6496 O 878.332 7.27796 4.85194 0
M  V30 6497 C 876.925 6.17323 3.12027 0
M  V30 6498 O 877.724 5.04231 3.47188 0
M  V30 6499 C 875.588 6.19961 3.81809 0
M  V30 6500 H 875.62 5.58218 4.73051 0
M  V30 6501 H 876.803 6.21726 2.02589 0
M  V30 6502 H 878.287 7.86112 2.9231 0
M  V30 6503 H 876.593 9.11627 4.55076 0
M  V30 6504 H 876.403 9.9573 2.34194 0
M  V30 6505 H 874.773 9.2792 2.67832 0
M  V30 6506 H 877.412 4.67702 4.28772 0
M  V30 6507 P 879.27 7.39546 4.75277 0
M  V30 6508 O 880.692 7.81777 5.05738 0
M  V30 6509 O 878.91 7.1065 3.32998 0
M  V30 6510 O 878.947 6.04542 5.56673 0
M  V30 6511 C 878.787 6.22772 7.02095 0
M  V30 6512 C 879.327 4.97725 7.70406 0
M  V30 6513 O 878.271 4.13256 7.58987 0
M  V30 6514 C 880.545 4.28231 7.11815 0
M  V30 6515 O 881.283 3.49945 8.01648 0
M  V30 6516 C 879.876 3.5063 5.96244 0
M  V30 6517 O 880.675 2.36482 5.64681 0
M  V30 6518 C 878.539 3.15122 6.56374 0
M  V30 6519 H 878.571 2.13853 6.99751 0
M  V30 6520 H 879.754 4.13501 5.06559 0
M  V30 6521 H 881.238 5.03285 6.70911 0
M  V30 6522 H 879.544 5.20877 8.75697 0
M  V30 6523 H 879.354 7.11046 7.35349 0
M  V30 6524 H 877.724 6.35815 7.26986 0
M  V30 6525 H 880.363 1.61644 6.13565 0
M  V30 6526 P 882.22 3.65191 7.99657 0
M  V30 6527 O 883.642 3.8425 8.48115 0
M  V30 6528 O 881.86 4.17805 6.64342 0
M  V30 6529 O 881.897 2.07613 7.95143 0
M  V30 6530 C 881.737 1.44328 9.27336 0
M  V30 6531 C 882.277 0.0220036 9.17197 0
M  V30 6532 O 881.221 -0.626867 8.61923 0
M  V30 6533 C 883.495 -0.24586 8.30336 0
M  V30 6534 O 884.233 -1.39011 8.63583 0
M  V30 6535 C 882.826 -0.273849 6.91158 0
M  V30 6536 O 883.625 -1.06348 6.02892 0
M  V30 6537 C 881.489 -0.897649 7.22545 0
M  V30 6538 H 881.521 -1.9841 7.04286 0
M  V30 6539 H 882.704 0.739928 6.497 0
M  V30 6540 H 884.188 0.60668 8.36503 0
M  V30 6541 H 882.494 -0.352479 10.1829 0
M  V30 6542 H 882.304 2.00611 10.0304 0
M  V30 6543 H 880.674 1.41843 9.55327 0
M  V30 6544 H 883.313 -1.95734 6.03555 0
M  V30 6545 P 885.171 -1.25109 8.70152 0
M  V30 6546 O 886.593 -1.35274 9.21221 0
M  V30 6547 O 884.811 -0.0769065 7.84762 0
M  V30 6548 O 884.848 -2.55232 7.81161 0
M  V30 6549 C 884.688 -3.79939 8.58154 0
M  V30 6550 C 885.228 -4.94023 7.72785 0
M  V30 6551 O 884.172 -5.18726 6.91205 0
M  V30 6552 C 886.446 -4.69597 6.85231 0
M  V30 6553 O 887.184 -5.83832 6.51337 0
M  V30 6554 C 885.777 -3.96706 5.66633 0
M  V30 6555 O 886.576 -4.15414 4.49689 0
M  V30 6556 C 884.44 -4.66153 5.59313 0
M  V30 6557 H 884.472 -5.47679 4.85214 0
M  V30 6558 H 885.655 -2.89008 5.86566 0
M  V30 6559 H 887.139 -4.0121 7.36511 0
M  V30 6560 H 885.445 -5.80182 8.37584 0
M  V30 6561 H 885.255 -3.73517 9.52265 0
M  V30 6562 H 883.625 -3.97163 8.80359 0
M  V30 6563 H 886.264 -4.90969 4.01921 0
M  V30 6564 P 888.122 -5.75688 6.64379 0
M  V30 6565 O 889.543 -6.11915 7.01921 0
M  V30 6566 O 887.762 -4.30744 6.56026 0
M  V30 6567 O 887.799 -6.37042 5.19165 0
M  V30 6568 C 887.638 -7.83662 5.1657 0
M  V30 6569 C 888.179 -8.33398 3.83019 0
M  V30 6570 O 887.124 -8.0998 3.00999 0
M  V30 6571 C 889.397 -7.65514 3.2257 0
M  V30 6572 O 890.135 -8.4329 2.32297 0
M  V30 6573 C 888.729 -6.40075 2.62207 0
M  V30 6574 O 889.527 -5.92338 1.5428 0
M  V30 6575 C 887.391 -6.9454 2.18503 0
M  V30 6576 N 886.348 -5.95905 2.39948 0
M  V30 6577 C 886.517 -4.98383 3.32108 0
M  V30 6578 N 885.49 -4.16798 3.41761 0
M  V30 6579 C 884.605 -4.65287 2.47461 0
M  V30 6580 C 883.338 -4.18946 2.07461 0
M  V30 6581 N 882.739 -3.09661 2.60717 0
M  V30 6582 N 882.773 -4.95327 1.09101 0
M  V30 6583 C 883.375 -6.04369 0.519812 0
M  V30 6584 N 884.552 -6.50694 0.855982 0
M  V30 6585 C 885.127 -5.75818 1.84322 0
M  V30 6586 H 887.423 -7.22964 1.12076 0
M  V30 6587 H 888.606 -5.60502 3.36589 0
M  V30 6588 H 890.089 -7.35707 4.02681 0
M  V30 6589 H 888.395 -9.41302 3.90009 0
M  V30 6590 H 888.205 -8.29056 5.99158 0
M  V30 6591 H 886.575 -8.10073 5.25882 0
M  V30 6592 H 882.839 -6.55843 -0.270373 0
M  V30 6593 H 887.417 -4.88564 3.92502 0
M  V30 6594 H 881.809 -2.80523 2.27218 0
M  V30 6595 H 883.213 -2.55848 3.34465 0
M  V30 6596 H 889.215 -6.30224 0.72668 0
M  V30 6597 P 891.072 -8.4349 2.47671 0
M  V30 6598 O 892.494 -8.94359 2.59696 0
M  V30 6599 O 890.712 -7.1704 3.19006 0
M  V30 6600 O 890.749 -8.16596 0.923387 0
M  V30 6601 C 890.589 -9.38437 0.108857 0
M  V30 6602 C 891.129 -9.08076 -1.28339 0
M  V30 6603 O 890.074 -8.44229 -1.84713 0
M  V30 6604 C 892.347 -8.18386 -1.42505 0
M  V30 6605 O 893.085 -8.3501 -2.60497 0
M  V30 6606 C 891.679 -6.80225 -1.25468 0
M  V30 6607 O 892.477 -5.81526 -1.91035 0
M  V30 6608 C 890.341 -7.02416 -1.9168 0
M  V30 6609 N 889.298 -6.31033 -1.20314 0
M  V30 6610 C 889.36 -6.18781 0.121293 0
M  V30 6611 N 888.315 -5.49762 0.588272 0
M  V30 6612 C 887.581 -5.22015 -0.488988 0
M  V30 6613 C 886.275 -4.61966 -0.596448 0
M  V30 6614 O 885.542 -4.19162 0.309059 0
M  V30 6615 N 885.845 -4.53773 -1.878 0
M  V30 6616 C 886.594 -4.99623 -2.99082 0
M  V30 6617 N 885.997 -4.78912 -4.21227 0
M  V30 6618 N 887.747 -5.59957 -2.91093 0
M  V30 6619 C 888.204 -5.70225 -1.64218 0
M  V30 6620 H 890.373 -6.6888 -2.96621 0
M  V30 6621 H 891.556 -6.53517 -0.192194 0
M  V30 6622 H 893.041 -8.36563 -0.598329 0
M  V30 6623 H 891.346 -10.0291 -1.79807 0
M  V30 6624 H 891.156 -10.2138 0.558219 0
M  V30 6625 H 889.525 -9.6579 0.0444202 0
M  V30 6626 H 884.949 -4.12883 -2.05283 0
M  V30 6627 H 890.156 -6.59596 0.745856 0
M  V30 6628 H 885.086 -4.31425 -4.2628 0
M  V30 6629 H 886.462 -5.11219 -5.07148 0
M  V30 6630 H 892.166 -5.69466 -2.79593 0
M  V30 6631 P 894.023 -8.4349 -2.47671 0
M  V30 6632 O 895.444 -8.92689 -2.65029 0
M  V30 6633 O 893.663 -7.7568 -1.19296 0
M  V30 6634 O 893.7 -7.36886 -3.63805 0
M  V30 6635 C 893.539 -7.95433 -4.98253 0
M  V30 6636 C 894.08 -6.94612 -5.98974 0
M  V30 6637 O 893.025 -6.10277 -6.11744 0
M  V30 6638 C 895.298 -6.11426 -5.62335 0
M  V30 6639 O 896.036 -5.6162 -6.70584 0
M  V30 6640 C 894.63 -5.04409 -4.73308 0
M  V30 6641 O 895.428 -3.86404 -4.74719 0
M  V30 6642 C 893.292 -4.8728 -5.41006 0
M  V30 6643 N 892.249 -4.65812 -4.42377 0
M  V30 6644 C 892.418 -5.09132 -3.15382 0
M  V30 6645 N 891.391 -4.84021 -2.3716 0
M  V30 6646 C 890.506 -4.18386 -3.20441 0
M  V30 6647 C 889.239 -3.6275 -2.94905 0
M  V30 6648 N 888.64 -3.65794 -1.73372 0
M  V30 6649 N 888.674 -3.05008 -4.05243 0
M  V30 6650 C 889.276 -2.98348 -5.28159 0
M  V30 6651 N 890.453 -3.48171 -5.56333 0
M  V30 6652 C 891.028 -4.06869 -4.47212 0
M  V30 6653 H 893.324 -4.02278 -6.11074 0
M  V30 6654 H 894.507 -5.39013 -3.70026 0
M  V30 6655 H 895.99 -6.71916 -5.01943 0
M  V30 6656 H 894.296 -7.45796 -6.94223 0
M  V30 6657 H 894.106 -8.89416 -5.05237 0
M  V30 6658 H 892.476 -8.14876 -5.18409 0
M  V30 6659 H 888.74 -2.47853 -6.07807 0
M  V30 6660 H 893.318 -5.59989 -2.81362 0
M  V30 6661 H 887.71 -3.23218 -1.60782 0
M  V30 6662 H 889.114 -4.10523 -0.937856 0
M  V30 6663 H 895.116 -3.27906 -5.43085 0
M  V30 6664 P 896.973 -5.75688 -6.64379 0
M  V30 6665 O 898.395 -6.07627 -7.05504 0
M  V30 6666 O 896.613 -5.88047 -5.19722 0
M  V30 6667 O 896.65 -4.2322 -7.04443 0
M  V30 6668 C 896.49 -3.99743 -8.4911 0
M  V30 6669 C 897.03 -2.60516 -8.79425 0
M  V30 6670 O 895.974 -1.82684 -8.4467 0
M  V30 6671 C 898.248 -2.10343 -8.03628 0
M  V30 6672 O 898.986 -1.09919 -8.67766 0
M  V30 6673 C 897.579 -1.68446 -6.70876 0
M  V30 6674 O 898.378 -0.678137 -6.08433 0
M  V30 6675 C 896.242 -1.17436 -7.18567 0
M  V30 6676 H 896.274 -0.0804732 -7.31656 0
M  V30 6677 H 897.457 -2.54037 -6.02537 0
M  V30 6678 H 898.941 -2.93881 -7.85526 0
M  V30 6679 H 897.247 -2.53065 -9.86973 0
M  V30 6680 H 897.057 -4.75072 -9.05887 0
M  V30 6681 H 895.427 -4.05244 -8.76668 0
M  V30 6682 H 898.066 0.177647 -6.34251 0
M  V30 6683 P 899.924 -1.25109 -8.70152 0
M  V30 6684 O 901.346 -1.29744 -9.22016 0
M  V30 6685 O 899.564 -2.13714 -7.55141 0
M  V30 6686 O 899.601 0.248149 -8.21425 0
M  V30 6687 C 899.441 1.22779 -9.30434 0
M  V30 6688 C 899.981 2.56293 -8.80664 0
M  V30 6689 O 898.925 3.02979 -8.09349 0
M  V30 6690 C 901.199 2.57523 -7.89775 0
M  V30 6691 O 901.937 3.7668 -7.89438 0
M  V30 6692 C 900.53 2.20997 -6.55446 0
M  V30 6693 O 901.329 2.71895 -5.48509 0
M  V30 6694 C 899.193 2.89693 -6.67988 0
M  V30 6695 H 899.225 3.88793 -6.19859 0
M  V30 6696 H 900.408 1.12046 -6.44229 0
M  V30 6697 H 901.892 1.7746 -8.19711 0
M  V30 6698 H 900.198 3.20706 -9.67112 0
M  V30 6699 H 900.008 0.901032 -10.1892 0
M  V30 6700 H 898.378 1.33049 -9.56592 0
M  V30 6701 H 901.017 3.57847 -5.23962 0
M  V30 6702 P 902.874 3.65191 -7.99657 0
M  V30 6703 O 904.295 3.89374 -8.45885 0
M  V30 6704 O 902.514 2.28472 -7.50807 0
M  V30 6705 O 902.551 4.64972 -6.77611 0
M  V30 6706 C 902.39 6.06383 -7.16428 0
M  V30 6707 C 902.931 6.91731 -6.02299 0
M  V30 6708 O 901.876 6.92369 -5.17005 0
M  V30 6709 C 904.149 6.43627 -5.25174 0
M  V30 6710 O 904.887 7.43686 -4.60469 0
M  V30 6711 C 903.481 5.40275 -4.31916 0
M  V30 6712 O 904.279 5.24878 -3.14911 0
M  V30 6713 C 902.143 6.04847 -4.05327 0
M  V30 6714 N 901.1 5.04166 -3.98114 0
M  V30 6715 C 901.269 3.84629 -4.59066 0
M  V30 6716 N 900.242 3.0363 -4.45343 0
M  V30 6717 C 899.357 3.76722 -3.68523 0
M  V30 6718 C 898.09 3.43528 -3.17088 0
M  V30 6719 N 897.525 4.44526 -2.44231 0
M  V30 6720 C 898.127 5.65243 -2.20146 0
M  V30 6721 N 899.304 6.00221 -2.65453 0
M  V30 6722 C 899.879 5.00564 -3.39083 0
M  V30 6723 H 903.358 4.42969 -4.80867 0
M  V30 6724 H 904.841 5.92458 -5.93643 0
M  V30 6725 H 903.147 7.93295 -6.39407 0
M  V30 6726 H 902.957 6.26671 -8.0846 0
M  V30 6727 H 901.327 6.29101 -7.32804 0
M  V30 6728 H 902.169 3.58193 -5.14248 0
M  V30 6729 H 903.967 5.84223 -2.47279 0
M  V30 6730 P 905.825 7.39546 -4.75277 0
M  V30 6731 O 907.247 7.84798 -5.01039 0
M  V30 6732 O 905.465 5.9812 -5.08098 0
M  V30 6733 O 905.502 7.57503 -3.1866 0
M  V30 6734 C 905.342 8.97357 -2.74833 0
M  V30 6735 C 905.882 9.07548 -1.32709 0
M  V30 6736 O 904.826 8.62072 -0.606159 0
M  V30 6737 C 907.1 8.25383 -0.938334 0
M  V30 6738 O 907.838 8.74577 0.146954 0
M  V30 6739 C 906.431 6.8802 -0.712559 0
M  V30 6740 O 907.23 6.1189 0.194655 0
M  V30 6741 C 905.094 7.27966 -0.139777 0
M  V30 6742 H 905.126 7.25354 0.961601 0
M  V30 6743 H 906.309 6.32557 -1.65702 0
M  V30 6744 H 907.793 8.19355 -1.79097 0
M  V30 6745 H 906.099 10.1294 -1.10029 0
M  V30 6746 H 905.909 9.64276 -3.41316 0
M  V30 6747 H 904.279 9.25417 -2.76357 0
M  V30 6748 H 906.918 6.25267 1.07847 0
M  V30 6749 P 908.776 8.791 6.93566e-12 0
M  V30 6750 O 910.198 9.31296 0.027939 0
M  V30 6751 O 908.416 7.77869 -1.04071 0
M  V30 6752 O 908.453 8.09533 1.41463 0
M  V30 6753 C 908.293 9.0349 2.53943 0
M  V30 6754 C 908.833 8.35135 3.78975 0
M  V30 6755 O 907.778 7.57992 4.15078 0
M  V30 6756 C 910.051 7.45087 3.67298 0
M  V30 6757 O 910.789 7.27796 4.85194 0
M  V30 6758 C 909.383 6.17323 3.12027 0
M  V30 6759 O 910.181 5.04149 3.47132 0
M  V30 6760 C 908.045 6.19961 3.81809 0
M  V30 6761 N 907.002 5.71575 2.93223 0
M  V30 6762 C 907.064 5.97133 1.62693 0
M  V30 6763 N 906.019 5.44066 0.984414 0
M  V30 6764 C 905.285 4.87093 1.93987 0
M  V30 6765 C 903.979 4.26449 1.8738 0
M  V30 6766 O 903.246 4.1089 0.884377 0
M  V30 6767 N 903.549 3.82483 3.08036 0
M  V30 6768 C 904.298 3.95124 4.27727 0
M  V30 6769 N 903.701 3.4084 5.39089 0
M  V30 6770 N 905.451 4.55264 4.3706 0
M  V30 6771 C 905.908 5.00861 3.18217 0
M  V30 6772 H 908.077 5.58218 4.73051 0
M  V30 6773 H 909.26 6.21631 2.02558 0
M  V30 6774 H 910.745 7.85819 2.93096 0
M  V30 6775 H 909.05 9.11627 4.55076 0
M  V30 6776 H 908.86 9.9573 2.34194 0
M  V30 6777 H 907.229 9.2792 2.67832 0
M  V30 6778 H 902.653 3.38323 3.1329 0
M  V30 6779 H 907.86 6.53891 1.14265 0
M  V30 6780 H 902.79 2.93852 5.30559 0
M  V30 6781 H 904.166 3.47631 6.30632 0
M  V30 6782 H 909.87 4.67628 4.28704 0
M  V30 6783 P 911.726 7.39546 4.75277 0
M  V30 6784 O 913.148 7.81777 5.05738 0
M  V30 6785 O 911.366 7.1065 3.32998 0
M  V30 6786 O 911.403 6.04542 5.56673 0
M  V30 6787 C 911.243 6.22772 7.02095 0
M  V30 6788 C 911.783 4.97725 7.70406 0
M  V30 6789 O 910.727 4.13256 7.58987 0
M  V30 6790 C 913.001 4.28231 7.11815 0
M  V30 6791 O 913.739 3.49945 8.01648 0
M  V30 6792 C 912.332 3.5063 5.96244 0
M  V30 6793 O 913.131 2.36482 5.64681 0
M  V30 6794 C 910.995 3.15122 6.56374 0
M  V30 6795 H 911.027 2.13853 6.99751 0
M  V30 6796 H 912.21 4.13501 5.06559 0
M  V30 6797 H 913.694 5.03285 6.70911 0
M  V30 6798 H 912 5.20877 8.75697 0
M  V30 6799 H 911.81 7.11046 7.35349 0
M  V30 6800 H 910.18 6.35815 7.26986 0
M  V30 6801 H 912.819 1.61644 6.13565 0
M  V30 6802 P 914.677 3.65191 7.99657 0
M  V30 6803 O 916.098 3.84292 8.48206 0
M  V30 6804 O 914.317 4.17805 6.64342 0
M  V30 6805 O 914.354 2.07613 7.95143 0
M  V30 6806 C 914.193 1.44344 9.27435 0
M  V30 6807 C 914.734 0.0220036 9.17197 0
M  V30 6808 O 913.679 -0.626794 8.61824 0
M  V30 6809 C 915.952 -0.24586 8.30336 0
M  V30 6810 O 916.69 -1.39011 8.63583 0
M  V30 6811 C 915.284 -0.273849 6.91158 0
M  V30 6812 O 916.082 -1.05728 6.029 0
M  V30 6813 C 913.946 -0.897649 7.22545 0
M  V30 6814 N 912.903 -0.292839 6.41732 0
M  V30 6815 C 913.072 0.950603 5.91308 0
M  V30 6816 N 912.045 1.37732 5.21105 0
M  V30 6817 C 911.16 0.318109 5.26039 0
M  V30 6818 C 909.893 0.146766 4.6727 0
M  V30 6819 N 909.294 1.08519 3.89983 0
M  V30 6820 N 909.328 -1.06525 4.95887 0
M  V30 6821 C 909.93 -2.0378 5.71347 0
M  V30 6822 N 911.107 -1.92445 6.27451 0
M  V30 6823 C 911.682 -0.715382 6.00353 0
M  V30 6824 H 913.978 -1.98383 7.04189 0
M  V30 6825 H 915.161 0.733318 6.49674 0
M  V30 6826 H 916.644 0.60668 8.36503 0
M  V30 6827 H 914.95 -0.362662 10.1825 0
M  V30 6828 H 914.76 2.00611 10.0304 0
M  V30 6829 H 913.13 1.41843 9.55327 0
M  V30 6830 H 909.394 -2.97041 5.85344 0
M  V30 6831 H 913.972 1.54076 6.07465 0
M  V30 6832 H 908.364 0.901517 3.49562 0
M  V30 6833 H 909.768 1.97957 3.71669 0
M  V30 6834 H 915.77 -1.95704 6.0346 0
M  V30 6835 P 917.627 -1.25109 8.70152 0
M  V30 6836 O 919.049 -1.35274 9.21221 0
M  V30 6837 O 917.267 -0.0769065 7.84762 0
M  V30 6838 O 917.304 -2.55232 7.81161 0
M  V30 6839 C 917.144 -3.79939 8.58154 0
M  V30 6840 C 917.684 -4.94023 7.72785 0
M  V30 6841 O 916.628 -5.18726 6.91205 0
M  V30 6842 C 918.902 -4.69597 6.85231 0
M  V30 6843 O 919.64 -5.83832 6.51337 0
M  V30 6844 C 918.233 -3.96706 5.66633 0
M  V30 6845 O 919.032 -4.15414 4.49689 0
M  V30 6846 C 916.896 -4.66153 5.59313 0
M  V30 6847 H 916.928 -5.47679 4.85214 0
M  V30 6848 H 918.111 -2.89008 5.86566 0
M  V30 6849 H 919.595 -4.0121 7.36511 0
M  V30 6850 H 917.901 -5.80182 8.37584 0
M  V30 6851 H 917.711 -3.73517 9.52265 0
M  V30 6852 H 916.081 -3.97163 8.80359 0
M  V30 6853 H 918.72 -4.90969 4.01921 0
M  V30 6854 P 920.578 -5.75688 6.64379 0
M  V30 6855 O 922 -6.11981 7.01997 0
M  V30 6856 O 920.218 -4.30744 6.56026 0
M  V30 6857 O 920.255 -6.37042 5.19165 0
M  V30 6858 C 920.095 -7.83578 5.16515 0
M  V30 6859 C 920.635 -8.33307 3.82977 0
M  V30 6860 O 919.58 -8.10074 3.01034 0
M  V30 6861 C 921.853 -7.65514 3.2257 0
M  V30 6862 O 922.591 -8.4329 2.32297 0
M  V30 6863 C 921.185 -6.40075 2.62207 0
M  V30 6864 O 921.983 -5.92492 1.53687 0
M  V30 6865 C 919.847 -6.9454 2.18503 0
M  V30 6866 N 918.804 -5.95905 2.39948 0
M  V30 6867 C 918.866 -5.13994 3.44742 0
M  V30 6868 N 917.821 -4.30684 3.46712 0
M  V30 6869 C 917.087 -4.65583 2.41086 0
M  V30 6870 C 915.781 -4.20877 1.99581 0
M  V30 6871 O 915.048 -3.35913 2.52616 0
M  V30 6872 N 915.351 -4.83271 0.873406 0
M  V30 6873 C 916.1 -5.82006 0.185129 0
M  V30 6874 N 915.503 -6.30619 -0.95439 0
M  V30 6875 N 917.253 -6.28443 0.578524 0
M  V30 6876 C 917.71 -5.68486 1.70138 0
M  V30 6877 H 919.879 -7.23063 1.12091 0
M  V30 6878 H 921.062 -5.60165 3.3715 0
M  V30 6879 H 922.547 -7.3611 4.01946 0
M  V30 6880 H 920.852 -9.40912 3.9095 0
M  V30 6881 H 920.662 -8.29056 5.99158 0
M  V30 6882 H 919.031 -8.10073 5.25882 0
M  V30 6883 H 914.455 -4.58323 0.505262 0
M  V30 6884 H 919.662 -5.14564 4.1935 0
M  V30 6885 H 914.592 -5.93402 -1.25364 0
M  V30 6886 H 915.968 -7.0425 -1.50254 0
M  V30 6887 H 921.672 -6.30224 0.72668 0
M  V30 6888 P 923.528 -8.4349 2.47671 0
M  V30 6889 O 924.95 -8.94167 2.5964 0
M  V30 6890 O 923.168 -7.1704 3.19006 0
M  V30 6891 O 923.205 -8.16596 0.923387 0
M  V30 6892 C 923.045 -9.38437 0.108857 0
M  V30 6893 C 923.585 -9.08175 -1.28353 0
M  V30 6894 O 922.529 -8.44229 -1.84713 0
M  V30 6895 C 924.803 -8.18386 -1.42505 0
M  V30 6896 O 925.541 -8.3501 -2.60497 0
M  V30 6897 C 924.134 -6.80225 -1.25468 0
M  V30 6898 O 924.933 -5.81621 -1.91066 0
M  V30 6899 C 922.797 -7.02416 -1.9168 0
M  V30 6900 H 922.829 -6.6888 -2.96621 0
M  V30 6901 H 924.012 -6.53617 -0.192223 0
M  V30 6902 H 925.496 -8.36622 -0.589963 0
M  V30 6903 H 923.802 -10.0291 -1.79807 0
M  V30 6904 H 923.612 -10.2138 0.558219 0
M  V30 6905 H 921.982 -9.6579 0.0444202 0
M  V30 6906 H 924.621 -5.69556 -2.79637 0
M  V30 6907 P 926.479 -8.4349 -2.47671 0
M  V30 6908 O 927.901 -8.92785 -2.65057 0
M  V30 6909 O 926.119 -7.7568 -1.19296 0
M  V30 6910 O 926.156 -7.36886 -3.63805 0
M  V30 6911 C 925.996 -7.95349 -4.982 0
M  V30 6912 C 926.536 -6.94537 -5.98908 0
M  V30 6913 O 925.481 -6.10347 -6.11815 0
M  V30 6914 C 927.754 -6.11426 -5.62335 0
M  V30 6915 O 928.492 -5.6162 -6.70584 0
M  V30 6916 C 927.086 -5.04409 -4.73308 0
M  V30 6917 O 927.884 -3.85929 -4.75106 0
M  V30 6918 C 925.748 -4.8728 -5.41006 0
M  V30 6919 N 924.705 -4.65812 -4.42377 0
M  V30 6920 C 924.767 -5.27109 -3.24335 0
M  V30 6921 N 923.722 -4.94293 -2.47735 0
M  V30 6922 C 922.988 -4.1271 -3.23359 0
M  V30 6923 C 921.682 -3.56384 -2.99934 0
M  V30 6924 O 920.949 -3.69331 -2.00616 0
M  V30 6925 N 921.252 -2.80206 -4.03316 0
M  V30 6926 C 922.001 -2.58614 -5.2172 0
M  V30 6927 N 921.404 -1.75154 -6.13278 0
M  V30 6928 N 923.154 -3.13689 -5.47619 0
M  V30 6929 C 923.611 -3.90921 -4.46436 0
M  V30 6930 H 925.78 -4.02333 -6.11157 0
M  V30 6931 H 926.963 -5.39383 -3.69487 0
M  V30 6932 H 928.448 -6.71414 -5.02615 0
M  V30 6933 H 926.753 -7.4649 -6.93477 0
M  V30 6934 H 926.563 -8.89416 -5.05237 0
M  V30 6935 H 924.932 -8.14876 -5.18409 0
M  V30 6936 H 920.356 -2.36355 -3.95916 0
M  V30 6937 H 925.563 -5.95212 -2.93859 0
M  V30 6938 H 920.493 -1.32473 -5.91856 0
M  V30 6939 H 921.869 -1.5588 -7.03026 0
M  V30 6940 H 927.573 -3.27906 -5.43085 0
M  V30 6941 P 929.43 -5.75688 -6.64379 0
M  V30 6942 O 930.852 -6.07627 -7.05504 0
M  V30 6943 O 929.07 -5.88047 -5.19722 0
M  V30 6944 O 929.107 -4.2322 -7.04443 0
M  V30 6945 C 928.947 -3.99743 -8.4911 0
M  V30 6946 C 929.487 -2.60516 -8.79425 0
M  V30 6947 O 928.431 -1.82684 -8.4467 0
M  V30 6948 C 930.705 -2.10343 -8.03628 0
M  V30 6949 O 931.443 -1.09919 -8.67766 0
M  V30 6950 C 930.036 -1.68446 -6.70876 0
M  V30 6951 O 930.835 -0.678137 -6.08433 0
M  V30 6952 C 928.699 -1.17436 -7.18567 0
M  V30 6953 H 928.731 -0.0804732 -7.31656 0
M  V30 6954 H 929.914 -2.54037 -6.02537 0
M  V30 6955 H 931.398 -2.93881 -7.85526 0
M  V30 6956 H 929.704 -2.53065 -9.86973 0
M  V30 6957 H 929.514 -4.75072 -9.05887 0
M  V30 6958 H 927.884 -4.05244 -8.76668 0
M  V30 6959 H 930.523 0.177647 -6.34251 0
M  V30 6960 P 932.38 -1.25109 -8.70152 0
M  V30 6961 O 933.802 -1.29744 -9.22016 0
M  V30 6962 O 932.02 -2.13714 -7.55141 0
M  V30 6963 O 932.057 0.248149 -8.21425 0
M  V30 6964 C 931.897 1.22779 -9.30434 0
M  V30 6965 C 932.437 2.56293 -8.80664 0
M  V30 6966 O 931.381 3.02979 -8.09349 0
M  V30 6967 C 933.655 2.57523 -7.89775 0
M  V30 6968 O 934.393 3.7668 -7.89438 0
M  V30 6969 C 932.986 2.20997 -6.55446 0
M  V30 6970 O 933.785 2.71895 -5.48509 0
M  V30 6971 C 931.649 2.89693 -6.67988 0
M  V30 6972 H 931.681 3.88793 -6.19859 0
M  V30 6973 H 932.864 1.12046 -6.44229 0
M  V30 6974 H 934.348 1.7746 -8.19711 0
M  V30 6975 H 932.654 3.20706 -9.67112 0
M  V30 6976 H 932.464 0.901032 -10.1892 0
M  V30 6977 H 930.834 1.33049 -9.56592 0
M  V30 6978 H 933.473 3.57847 -5.23962 0
M  V30 6979 P 935.331 3.65191 -7.99657 0
M  V30 6980 O 936.752 3.89374 -8.45885 0
M  V30 6981 O 934.971 2.28472 -7.50807 0
M  V30 6982 O 935.008 4.64972 -6.77611 0
M  V30 6983 C 934.847 6.06383 -7.16428 0
M  V30 6984 C 935.388 6.91731 -6.02299 0
M  V30 6985 O 934.333 6.92369 -5.17005 0
M  V30 6986 C 936.606 6.43627 -5.25174 0
M  V30 6987 O 937.344 7.43686 -4.60469 0
M  V30 6988 C 935.938 5.40275 -4.31916 0
M  V30 6989 O 936.736 5.24878 -3.14911 0
M  V30 6990 C 934.6 6.04847 -4.05327 0
M  V30 6991 N 933.557 5.04166 -3.98114 0
M  V30 6992 C 933.726 3.84629 -4.59066 0
M  V30 6993 N 932.699 3.0363 -4.45343 0
M  V30 6994 C 931.814 3.76722 -3.68523 0
M  V30 6995 C 930.547 3.43528 -3.17088 0
M  V30 6996 N 929.982 4.44526 -2.44231 0
M  V30 6997 C 930.584 5.65243 -2.20146 0
M  V30 6998 N 931.761 6.00221 -2.65453 0
M  V30 6999 C 932.336 5.00564 -3.39083 0
M  V30 7000 H 935.815 4.42969 -4.80867 0
M  V30 7001 H 937.298 5.92458 -5.93643 0
M  V30 7002 H 935.604 7.93295 -6.39407 0
M  V30 7003 H 935.414 6.26671 -8.0846 0
M  V30 7004 H 933.784 6.29101 -7.32804 0
M  V30 7005 H 934.626 3.58193 -5.14248 0
M  V30 7006 H 936.424 5.84223 -2.47279 0
M  V30 7007 P 938.281 7.39546 -4.75277 0
M  V30 7008 O 939.703 7.84798 -5.01039 0
M  V30 7009 O 937.921 5.9812 -5.08098 0
M  V30 7010 O 937.958 7.57503 -3.1866 0
M  V30 7011 C 937.798 8.97357 -2.74833 0
M  V30 7012 C 938.338 9.07548 -1.32709 0
M  V30 7013 O 937.282 8.62072 -0.606159 0
M  V30 7014 C 939.556 8.25383 -0.938334 0
M  V30 7015 O 940.294 8.74577 0.146954 0
M  V30 7016 C 938.887 6.8802 -0.712559 0
M  V30 7017 O 939.686 6.1189 0.194655 0
M  V30 7018 C 937.55 7.27966 -0.139777 0
M  V30 7019 H 937.582 7.25354 0.961601 0
M  V30 7020 H 938.765 6.32557 -1.65702 0
M  V30 7021 H 940.249 8.19355 -1.79097 0
M  V30 7022 H 938.555 10.1294 -1.10029 0
M  V30 7023 H 938.365 9.64276 -3.41316 0
M  V30 7024 H 936.735 9.25417 -2.76357 0
M  V30 7025 H 939.374 6.25267 1.07847 0
M  V30 7026 P 941.232 8.791 7.24582e-12 0
M  V30 7027 O 942.653 9.31196 0.027936 0
M  V30 7028 O 940.872 7.77869 -1.04071 0
M  V30 7029 O 940.909 8.09533 1.41463 0
M  V30 7030 C 940.748 9.03587 2.5397 0
M  V30 7031 C 941.289 8.35226 3.79016 0
M  V30 7032 O 940.234 7.57904 4.1503 0
M  V30 7033 C 942.507 7.45087 3.67298 0
M  V30 7034 O 943.245 7.27796 4.85194 0
M  V30 7035 C 941.839 6.17323 3.12027 0
M  V30 7036 O 942.637 5.04496 3.46627 0
M  V30 7037 C 940.501 6.19961 3.81809 0
M  V30 7038 N 939.458 5.71575 2.93223 0
M  V30 7039 C 939.627 5.77362 1.59168 0
M  V30 7040 N 938.6 5.3123 0.911893 0
M  V30 7041 C 937.715 4.91717 1.89588 0
M  V30 7042 C 936.448 4.3114 1.8076 0
M  V30 7043 N 935.849 3.99821 0.632928 0
M  V30 7044 N 935.883 4.06823 3.02898 0
M  V30 7045 C 936.485 4.35062 4.22711 0
M  V30 7046 N 937.662 4.90805 4.35707 0
M  V30 7047 C 938.237 5.16382 3.14469 0
M  V30 7048 H 940.533 5.58142 4.72986 0
M  V30 7049 H 941.716 6.21428 2.0318 0
M  V30 7050 H 943.199 7.86112 2.9231 0
M  V30 7051 H 941.505 9.11171 4.55987 0
M  V30 7052 H 941.315 9.9573 2.34194 0
M  V30 7053 H 939.685 9.2792 2.67832 0
M  V30 7054 H 935.949 4.09052 5.13359 0
M  V30 7055 H 940.527 6.16575 1.12198 0
M  V30 7056 H 934.919 3.55423 0.632085 0
M  V30 7057 H 936.323 4.20317 -0.256712 0
M  V30 7058 H 942.325 4.67628 4.28704 0
M  V30 7059 P 944.182 7.39546 4.75277 0
M  V30 7060 O 945.604 7.81777 5.05738 0
M  V30 7061 O 943.822 7.1065 3.32998 0
M  V30 7062 O 943.859 6.04542 5.56673 0
M  V30 7063 C 943.699 6.22772 7.02095 0
M  V30 7064 C 944.239 4.97725 7.70406 0
M  V30 7065 O 943.183 4.13256 7.58987 0
M  V30 7066 C 945.457 4.28231 7.11815 0
M  V30 7067 O 946.195 3.49945 8.01648 0
M  V30 7068 C 944.788 3.5063 5.96244 0
M  V30 7069 O 945.587 2.36482 5.64681 0
M  V30 7070 C 943.451 3.15122 6.56374 0
M  V30 7071 H 943.483 2.13853 6.99751 0
M  V30 7072 H 944.666 4.13501 5.06559 0
M  V30 7073 H 946.15 5.03285 6.70911 0
M  V30 7074 H 944.456 5.20877 8.75697 0
M  V30 7075 H 944.266 7.11046 7.35349 0
M  V30 7076 H 942.636 6.35815 7.26986 0
M  V30 7077 H 945.275 1.61644 6.13565 0
M  V30 7078 P 947.133 3.65191 7.99657 0
M  V30 7079 O 948.555 3.8425 8.48115 0
M  V30 7080 O 946.773 4.17805 6.64342 0
M  V30 7081 O 946.81 2.07613 7.95143 0
M  V30 7082 C 946.65 1.44328 9.27336 0
M  V30 7083 C 947.19 0.0220036 9.17197 0
M  V30 7084 O 946.134 -0.626867 8.61923 0
M  V30 7085 C 948.408 -0.24586 8.30336 0
M  V30 7086 O 949.146 -1.39011 8.63583 0
M  V30 7087 C 947.739 -0.273849 6.91158 0
M  V30 7088 O 948.538 -1.06348 6.02892 0
M  V30 7089 C 946.402 -0.897649 7.22545 0
M  V30 7090 H 946.434 -1.9841 7.04286 0
M  V30 7091 H 947.617 0.739928 6.497 0
M  V30 7092 H 949.101 0.60668 8.36503 0
M  V30 7093 H 947.407 -0.352479 10.1829 0
M  V30 7094 H 947.217 2.00611 10.0304 0
M  V30 7095 H 945.587 1.41843 9.55327 0
M  V30 7096 H 948.226 -1.95734 6.03555 0
M  V30 7097 P 950.084 -1.25109 8.70152 0
M  V30 7098 O 951.506 -1.35274 9.21221 0
M  V30 7099 O 949.724 -0.0769065 7.84762 0
M  V30 7100 O 949.761 -2.55232 7.81161 0
M  V30 7101 C 949.601 -3.79939 8.58154 0
M  V30 7102 C 950.141 -4.94023 7.72785 0
M  V30 7103 O 949.085 -5.18726 6.91205 0
M  V30 7104 C 951.359 -4.69597 6.85231 0
M  V30 7105 O 952.097 -5.83832 6.51337 0
M  V30 7106 C 950.69 -3.96706 5.66633 0
M  V30 7107 O 951.489 -4.15414 4.49689 0
M  V30 7108 C 949.353 -4.66153 5.59313 0
M  V30 7109 H 949.385 -5.47679 4.85214 0
M  V30 7110 H 950.568 -2.89008 5.86566 0
M  V30 7111 H 952.052 -4.0121 7.36511 0
M  V30 7112 H 950.358 -5.80182 8.37584 0
M  V30 7113 H 950.168 -3.73517 9.52265 0
M  V30 7114 H 948.538 -3.97163 8.80359 0
M  V30 7115 H 951.177 -4.90969 4.01921 0
M  V30 7116 P 953.034 -5.75688 6.64379 0
M  V30 7117 O 954.435 -6.11991 7.09136 0
M  V30 7118 O 952.656 -4.30899 6.62018 0
M  V30 7119 O 952.711 -6.36965 5.19102 0
M  V30 7120 C 952.551 -7.83578 5.16515 0
M  V30 7121 C 953.091 -8.33307 3.82977 0
M  V30 7122 O 952.035 -8.0998 3.00999 0
M  V30 7123 C 954.308 -7.65514 3.2257 0
M  V30 7124 O 955.047 -8.4329 2.32297 0
M  V30 7125 C 953.641 -6.40075 2.62207 0
M  V30 7126 O 954.439 -5.92492 1.53687 0
M  V30 7127 C 952.303 -6.9454 2.18503 0
M  V30 7128 N 951.26 -5.95905 2.39948 0
M  V30 7129 C 950.225 -5.89764 1.49837 0
M  V30 7130 O 950.264 -6.64088 0.490975 0
M  V30 7131 N 949.213 -5.02821 1.70992 0
M  V30 7132 C 949.261 -4.21498 2.77236 0
M  V30 7133 C 950.357 -4.23389 3.68205 0
M  V30 7134 C 951.323 -5.12792 3.46171 0
M  V30 7135 H 952.335 -7.22964 1.12076 0
M  V30 7136 H 953.518 -5.60502 3.36589 0
M  V30 7137 H 955.002 -7.36197 4.01993 0
M  V30 7138 H 953.308 -9.41302 3.90009 0
M  V30 7139 H 953.117 -8.29056 5.99158 0
M  V30 7140 H 951.487 -8.09989 5.25828 0
M  V30 7141 H 950.405 -3.54747 4.52399 0
M  V30 7142 H 952.169 -5.18551 4.1489 0
M  V30 7143 H 954.223 -6.40705 0.751752 0
M  V30 7144 P 955.985 -8.4349 2.47671 0
M  V30 7145 O 957.407 -8.94167 2.5964 0
M  V30 7146 O 955.625 -7.1704 3.19006 0
M  V30 7147 O 955.662 -8.16596 0.923387 0
M  V30 7148 C 955.502 -9.38437 0.108857 0
M  V30 7149 C 956.042 -9.08175 -1.28353 0
M  V30 7150 O 954.986 -8.44229 -1.84713 0
M  V30 7151 C 957.26 -8.18386 -1.42505 0
M  V30 7152 O 957.998 -8.3501 -2.60497 0
M  V30 7153 C 956.591 -6.80225 -1.25468 0
M  V30 7154 O 957.39 -5.81621 -1.91066 0
M  V30 7155 C 955.254 -7.02416 -1.9168 0
M  V30 7156 H 955.286 -6.6888 -2.96621 0
M  V30 7157 H 956.469 -6.53617 -0.192223 0
M  V30 7158 H 957.953 -8.36622 -0.589963 0
M  V30 7159 H 956.259 -10.0291 -1.79807 0
M  V30 7160 H 956.069 -10.2138 0.558219 0
M  V30 7161 H 954.439 -9.6579 0.0444202 0
M  V30 7162 H 957.078 -5.69556 -2.79637 0
M  V30 7163 P 958.935 -8.4349 -2.47671 0
M  V30 7164 O 960.357 -8.92593 -2.65 0
M  V30 7165 O 958.575 -7.7568 -1.19296 0
M  V30 7166 O 958.612 -7.36886 -3.63805 0
M  V30 7167 C 958.452 -7.95349 -4.982 0
M  V30 7168 C 958.992 -6.94612 -5.98974 0
M  V30 7169 O 957.936 -6.10347 -6.11815 0
M  V30 7170 C 960.21 -6.11426 -5.62335 0
M  V30 7171 O 960.948 -5.6162 -6.70584 0
M  V30 7172 C 959.541 -5.04409 -4.73308 0
M  V30 7173 O 960.34 -3.85992 -4.75183 0
M  V30 7174 C 958.204 -4.8728 -5.41006 0
M  V30 7175 H 958.236 -4.02333 -6.11157 0
M  V30 7176 H 959.419 -5.39466 -3.69543 0
M  V30 7177 H 960.903 -6.71916 -5.01943 0
M  V30 7178 H 959.209 -7.4649 -6.93477 0
M  V30 7179 H 959.019 -8.89416 -5.05237 0
M  V30 7180 H 957.389 -8.14876 -5.18409 0
M  V30 7181 H 960.028 -3.27957 -5.4317 0
M  V30 7182 P 961.886 -5.75688 -6.64379 0
M  V30 7183 O 963.308 -6.07627 -7.05504 0
M  V30 7184 O 961.526 -5.88047 -5.19722 0
M  V30 7185 O 961.563 -4.2322 -7.04443 0
M  V30 7186 C 961.403 -3.99743 -8.4911 0
M  V30 7187 C 961.943 -2.60516 -8.79425 0
M  V30 7188 O 960.887 -1.82684 -8.4467 0
M  V30 7189 C 963.161 -2.10343 -8.03628 0
M  V30 7190 O 963.899 -1.09919 -8.67766 0
M  V30 7191 C 962.492 -1.68446 -6.70876 0
M  V30 7192 O 963.291 -0.678137 -6.08433 0
M  V30 7193 C 961.155 -1.17436 -7.18567 0
M  V30 7194 H 961.187 -0.0804732 -7.31656 0
M  V30 7195 H 962.37 -2.54037 -6.02537 0
M  V30 7196 H 963.854 -2.93881 -7.85526 0
M  V30 7197 H 962.16 -2.53065 -9.86973 0
M  V30 7198 H 961.97 -4.75072 -9.05887 0
M  V30 7199 H 960.34 -4.05244 -8.76668 0
M  V30 7200 H 962.979 0.177647 -6.34251 0
M  V30 7201 P 964.836 -1.25109 -8.70152 0
M  V30 7202 O 966.258 -1.29744 -9.22016 0
M  V30 7203 O 964.476 -2.13714 -7.55141 0
M  V30 7204 O 964.513 0.248149 -8.21425 0
M  V30 7205 C 964.353 1.22779 -9.30434 0
M  V30 7206 C 964.893 2.56293 -8.80664 0
M  V30 7207 O 963.837 3.02979 -8.09349 0
M  V30 7208 C 966.111 2.57523 -7.89775 0
M  V30 7209 O 966.849 3.7668 -7.89438 0
M  V30 7210 C 965.442 2.20997 -6.55446 0
M  V30 7211 O 966.241 2.71895 -5.48509 0
M  V30 7212 C 964.105 2.89693 -6.67988 0
M  V30 7213 H 964.137 3.88793 -6.19859 0
M  V30 7214 H 965.32 1.12046 -6.44229 0
M  V30 7215 H 966.804 1.7746 -8.19711 0
M  V30 7216 H 965.11 3.20706 -9.67112 0
M  V30 7217 H 964.92 0.901032 -10.1892 0
M  V30 7218 H 963.29 1.33049 -9.56592 0
M  V30 7219 H 965.929 3.57847 -5.23962 0
M  V30 7220 P 967.787 3.65191 -7.99657 0
M  V30 7221 O 969.209 3.89332 -8.45794 0
M  V30 7222 O 967.427 2.28472 -7.50807 0
M  V30 7223 O 967.464 4.64972 -6.77611 0
M  V30 7224 C 967.304 6.06319 -7.16352 0
M  V30 7225 C 967.844 6.91731 -6.02299 0
M  V30 7226 O 966.788 6.92449 -5.17064 0
M  V30 7227 C 969.062 6.43627 -5.25174 0
M  V30 7228 O 969.8 7.43686 -4.60469 0
M  V30 7229 C 968.393 5.40275 -4.31916 0
M  V30 7230 O 969.192 5.25279 -3.14438 0
M  V30 7231 C 967.056 6.04847 -4.05327 0
M  V30 7232 H 967.088 6.62195 -3.11261 0
M  V30 7233 H 968.271 4.42556 -4.81383 0
M  V30 7234 H 969.755 5.92458 -5.93643 0
M  V30 7235 H 968.061 7.92655 -6.402 0
M  V30 7236 H 967.871 6.26671 -8.0846 0
M  V30 7237 H 966.241 6.29101 -7.32804 0
M  V30 7238 H 968.88 5.84315 -2.47318 0
M  V30 7239 P 970.738 7.39546 -4.75277 0
M  V30 7240 O 972.159 7.84882 -5.01092 0
M  V30 7241 O 970.378 5.9812 -5.08098 0
M  V30 7242 O 970.415 7.57503 -3.1866 0
M  V30 7243 C 970.254 8.97452 -2.74862 0
M  V30 7244 C 970.795 9.07548 -1.32709 0
M  V30 7245 O 969.74 8.61972 -0.606089 0
M  V30 7246 C 972.013 8.25383 -0.938334 0
M  V30 7247 O 972.751 8.74577 0.146954 0
M  V30 7248 C 971.345 6.8802 -0.712559 0
M  V30 7249 O 972.143 6.1181 0.188505 0
M  V30 7250 C 970.007 7.27966 -0.139777 0
M  V30 7251 N 968.964 6.39368 -0.623421 0
M  V30 7252 C 969.133 5.71761 -1.78245 0
M  V30 7253 N 968.106 4.962 -2.10491 0
M  V30 7254 C 967.221 5.16158 -1.0635 0
M  V30 7255 C 965.954 4.60425 -0.810266 0
M  V30 7256 N 965.389 5.06 0.348685 0
M  V30 7257 C 965.991 5.94532 1.20395 0
M  V30 7258 N 967.168 6.48452 1.01191 0
M  V30 7259 C 967.743 6.04423 -0.146291 0
M  V30 7260 H 971.222 6.32625 -1.65044 0
M  V30 7261 H 972.705 8.19355 -1.79097 0
M  V30 7262 H 971.011 10.1305 -1.09016 0
M  V30 7263 H 970.821 9.64276 -3.41316 0
M  V30 7264 H 969.191 9.25417 -2.76357 0
M  V30 7265 H 970.033 5.79354 -2.38959 0
M  V30 7266 H 971.831 6.25169 1.0783 0
M  V30 7267 P 973.688 8.791 7.55599e-12 0
M  V30 7268 O 975.11 9.31096 0.027933 0
M  V30 7269 O 973.328 7.77869 -1.04071 0
M  V30 7270 O 973.365 8.09533 1.41463 0
M  V30 7271 C 973.205 9.0349 2.53943 0
M  V30 7272 C 973.745 8.35226 3.79016 0
M  V30 7273 O 972.689 7.57992 4.15078 0
M  V30 7274 C 974.963 7.45087 3.67298 0
M  V30 7275 O 975.701 7.27796 4.85194 0
M  V30 7276 C 974.294 6.17323 3.12027 0
M  V30 7277 O 975.093 5.04231 3.47188 0
M  V30 7278 C 972.957 6.19961 3.81809 0
M  V30 7279 H 972.989 5.58218 4.73051 0
M  V30 7280 H 974.172 6.21726 2.02589 0
M  V30 7281 H 975.656 7.86112 2.9231 0
M  V30 7282 H 973.962 9.11627 4.55076 0
M  V30 7283 H 973.772 9.9573 2.34194 0
M  V30 7284 H 972.142 9.2792 2.67832 0
M  V30 7285 H 974.781 4.67702 4.28772 0
M  V30 7286 P 976.639 7.39546 4.75277 0
M  V30 7287 O 978.061 7.81777 5.05738 0
M  V30 7288 O 976.279 7.1065 3.32998 0
M  V30 7289 O 976.316 6.04542 5.56673 0
M  V30 7290 C 976.156 6.22772 7.02095 0
M  V30 7291 C 976.696 4.97725 7.70406 0
M  V30 7292 O 975.64 4.13256 7.58987 0
M  V30 7293 C 977.914 4.28231 7.11815 0
M  V30 7294 O 978.652 3.49945 8.01648 0
M  V30 7295 C 977.245 3.5063 5.96244 0
M  V30 7296 O 978.044 2.36482 5.64681 0
M  V30 7297 C 975.908 3.15122 6.56374 0
M  V30 7298 H 975.94 2.13853 6.99751 0
M  V30 7299 H 977.123 4.13501 5.06559 0
M  V30 7300 H 978.607 5.03285 6.70911 0
M  V30 7301 H 976.913 5.20877 8.75697 0
M  V30 7302 H 976.723 7.11046 7.35349 0
M  V30 7303 H 975.093 6.35815 7.26986 0
M  V30 7304 H 977.732 1.61644 6.13565 0
M  V30 7305 P 979.589 3.65191 7.99657 0
M  V30 7306 O 981.011 3.8425 8.48115 0
M  V30 7307 O 979.229 4.17805 6.64342 0
M  V30 7308 O 979.266 2.07613 7.95143 0
M  V30 7309 C 979.106 1.44328 9.27336 0
M  V30 7310 C 979.646 0.0220036 9.17197 0
M  V30 7311 O 978.59 -0.626867 8.61923 0
M  V30 7312 C 980.864 -0.24586 8.30336 0
M  V30 7313 O 981.602 -1.39011 8.63583 0
M  V30 7314 C 980.195 -0.273849 6.91158 0
M  V30 7315 O 980.994 -1.06348 6.02892 0
M  V30 7316 C 978.858 -0.897649 7.22545 0
M  V30 7317 H 978.89 -1.9841 7.04286 0
M  V30 7318 H 980.073 0.739928 6.497 0
M  V30 7319 H 981.557 0.60668 8.36503 0
M  V30 7320 H 979.863 -0.352479 10.1829 0
M  V30 7321 H 979.673 2.00611 10.0304 0
M  V30 7322 H 978.043 1.41843 9.55327 0
M  V30 7323 H 980.682 -1.95734 6.03555 0
M  V30 7324 P 982.54 -1.25109 8.70152 0
M  V30 7325 O 983.941 -1.31452 9.27431 0
M  V30 7326 O 982.162 -0.0458113 7.89887 0
M  V30 7327 O 982.217 -2.55201 7.81066 0
M  V30 7328 C 982.057 -3.79939 8.58154 0
M  V30 7329 C 982.597 -4.93969 7.72701 0
M  V30 7330 O 981.541 -5.18666 6.91125 0
M  V30 7331 C 983.814 -4.69597 6.85231 0
M  V30 7332 O 984.553 -5.83832 6.51337 0
M  V30 7333 C 983.147 -3.96706 5.66633 0
M  V30 7334 O 983.945 -4.15346 4.49615 0
M  V30 7335 C 981.809 -4.66153 5.59313 0
M  V30 7336 N 980.766 -3.71582 5.24027 0
M  V30 7337 C 979.731 -4.15133 4.44901 0
M  V30 7338 O 979.77 -5.32122 4.00336 0
M  V30 7339 N 978.719 -3.30554 4.15693 0
M  V30 7340 C 978.767 -2.04701 4.61105 0
M  V30 7341 N 977.757 -1.23621 4.31855 0
M  V30 7342 C 979.863 -1.57111 5.38655 0
M  V30 7343 C 980.829 -2.44234 5.68454 0
M  V30 7344 H 981.841 -5.47604 4.85148 0
M  V30 7345 H 983.024 -2.8955 5.86187 0
M  V30 7346 H 984.508 -4.01995 7.36197 0
M  V30 7347 H 982.814 -5.81019 8.37003 0
M  V30 7348 H 982.623 -3.73517 9.52265 0
M  V30 7349 H 980.993 -3.97122 8.80267 0
M  V30 7350 H 979.911 -0.538464 5.72373 0
M  V30 7351 H 981.675 -2.11927 6.29377 0
M  V30 7352 H 976.967 -1.58199 3.7543 0
M  V30 7353 H 977.762 -0.264601 4.65348 0
M  V30 7354 H 983.729 -4.98352 4.09633 0
M  V30 7355 P 985.49 -5.75688 6.64379 0
M  V30 7356 O 986.912 -6.11849 7.01846 0
M  V30 7357 O 985.13 -4.30744 6.56026 0
M  V30 7358 O 985.167 -6.37042 5.19165 0
M  V30 7359 C 985.007 -7.83578 5.16515 0
M  V30 7360 C 985.547 -8.33398 3.83019 0
M  V30 7361 O 984.491 -8.10074 3.01034 0
M  V30 7362 C 986.765 -7.65514 3.2257 0
M  V30 7363 O 987.503 -8.4329 2.32297 0
M  V30 7364 C 986.096 -6.40075 2.62207 0
M  V30 7365 O 986.895 -5.92589 1.53712 0
M  V30 7366 C 984.759 -6.9454 2.18503 0
M  V30 7367 H 984.791 -7.23063 1.12091 0
M  V30 7368 H 985.974 -5.6025 3.37201 0
M  V30 7369 H 987.458 -7.35707 4.02681 0
M  V30 7370 H 985.764 -9.40912 3.9095 0
M  V30 7371 H 985.574 -8.29056 5.99158 0
M  V30 7372 H 983.944 -8.10073 5.25882 0
M  V30 7373 H 986.583 -6.30324 0.726794 0
M  V30 7374 P 988.441 -8.4349 2.47671 0
M  V30 7375 O 989.863 -8.94167 2.5964 0
M  V30 7376 O 988.081 -7.1704 3.19006 0
M  V30 7377 O 988.118 -8.16596 0.923387 0
M  V30 7378 C 987.958 -9.38437 0.108857 0
M  V30 7379 C 988.498 -9.08175 -1.28353 0
M  V30 7380 O 987.442 -8.44229 -1.84713 0
M  V30 7381 C 989.716 -8.18386 -1.42505 0
M  V30 7382 O 990.454 -8.3501 -2.60497 0
M  V30 7383 C 989.047 -6.80225 -1.25468 0
M  V30 7384 O 989.846 -5.81621 -1.91066 0
M  V30 7385 C 987.71 -7.02416 -1.9168 0
M  V30 7386 H 987.742 -6.6888 -2.96621 0
M  V30 7387 H 988.925 -6.53617 -0.192223 0
M  V30 7388 H 990.409 -8.36622 -0.589963 0
M  V30 7389 H 988.715 -10.0291 -1.79807 0
M  V30 7390 H 988.525 -10.2138 0.558219 0
M  V30 7391 H 986.895 -9.6579 0.0444202 0
M  V30 7392 H 989.534 -5.69556 -2.79637 0
M  V30 7393 P 991.392 -8.4349 -2.47671 0
M  V30 7394 O 992.814 -8.92593 -2.65 0
M  V30 7395 O 991.032 -7.7568 -1.19296 0
M  V30 7396 O 991.069 -7.36886 -3.63805 0
M  V30 7397 C 990.909 -7.95349 -4.982 0
M  V30 7398 C 991.449 -6.94612 -5.98974 0
M  V30 7399 O 990.393 -6.10347 -6.11815 0
M  V30 7400 C 992.667 -6.11426 -5.62335 0
M  V30 7401 O 993.405 -5.6162 -6.70584 0
M  V30 7402 C 991.998 -5.04409 -4.73308 0
M  V30 7403 O 992.797 -3.85992 -4.75183 0
M  V30 7404 C 990.661 -4.8728 -5.41006 0
M  V30 7405 H 990.693 -4.02333 -6.11157 0
M  V30 7406 H 991.876 -5.39466 -3.69543 0
M  V30 7407 H 993.36 -6.71916 -5.01943 0
M  V30 7408 H 991.666 -7.4649 -6.93477 0
M  V30 7409 H 991.476 -8.89416 -5.05237 0
M  V30 7410 H 989.846 -8.14876 -5.18409 0
M  V30 7411 H 992.485 -3.27957 -5.4317 0
M  V30 7412 P 994.342 -5.75688 -6.64379 0
M  V30 7413 O 995.763 -6.07692 -7.0558 0
M  V30 7414 O 993.982 -5.88047 -5.19722 0
M  V30 7415 O 994.019 -4.2322 -7.04443 0
M  V30 7416 C 993.858 -3.99785 -8.49201 0
M  V30 7417 C 994.399 -2.60516 -8.79425 0
M  V30 7418 O 993.344 -1.82663 -8.44573 0
M  V30 7419 C 995.617 -2.10343 -8.03628 0
M  V30 7420 O 996.355 -1.09919 -8.67766 0
M  V30 7421 C 994.949 -1.68446 -6.70876 0
M  V30 7422 O 995.747 -0.684109 -6.08265 0
M  V30 7423 C 993.611 -1.17436 -7.18567 0
M  V30 7424 N 992.568 -1.52699 -6.23988 0
M  V30 7425 C 992.737 -2.578 -5.40574 0
M  V30 7426 N 991.71 -2.78966 -4.61193 0
M  V30 7427 C 990.825 -1.78725 -4.95769 0
M  V30 7428 C 989.558 -1.45727 -4.44207 0
M  V30 7429 N 988.993 -0.374977 -5.05812 0
M  V30 7430 C 989.595 0.345585 -6.05615 0
M  V30 7431 N 990.772 0.0787651 -6.56253 0
M  V30 7432 C 991.347 -1.00499 -5.96189 0
M  V30 7433 H 994.826 -2.53396 -6.02698 0
M  V30 7434 H 996.309 -2.93881 -7.85526 0
M  V30 7435 H 994.615 -2.52078 -9.87225 0
M  V30 7436 H 994.425 -4.75072 -9.05887 0
M  V30 7437 H 992.795 -4.05244 -8.76668 0
M  V30 7438 H 993.637 -3.18977 -5.3945 0
M  V30 7439 H 995.435 0.177619 -6.34151 0
M  V30 7440 P 997.293 -1.25109 -8.70152 0
M  V30 7441 O 998.715 -1.29744 -9.22016 0
M  V30 7442 O 996.933 -2.13714 -7.55141 0
M  V30 7443 O 996.97 0.248149 -8.21425 0
M  V30 7444 C 996.81 1.22779 -9.30434 0
M  V30 7445 C 997.35 2.56293 -8.80664 0
M  V30 7446 O 996.294 3.02979 -8.09349 0
M  V30 7447 C 998.568 2.57523 -7.89775 0
M  V30 7448 O 999.306 3.7668 -7.89438 0
M  V30 7449 C 997.899 2.20997 -6.55446 0
M  V30 7450 O 998.698 2.71895 -5.48509 0
M  V30 7451 C 996.562 2.89693 -6.67988 0
M  V30 7452 H 996.594 3.88793 -6.19859 0
M  V30 7453 H 997.777 1.12046 -6.44229 0
M  V30 7454 H 999.261 1.7746 -8.19711 0
M  V30 7455 H 997.567 3.20706 -9.67112 0
M  V30 7456 H 997.377 0.901032 -10.1892 0
M  V30 7457 H 995.747 1.33049 -9.56592 0
M  V30 7458 H 998.386 3.57847 -5.23962 0
M  V30 7459 P 1000.24 3.65191 -7.99657 0
M  V30 7460 O 1001.67 3.89332 -8.45794 0
M  V30 7461 O 999.883 2.28472 -7.50807 0
M  V30 7462 O 999.92 4.64972 -6.77611 0
M  V30 7463 C 999.76 6.06319 -7.16352 0
M  V30 7464 C 1000.3 6.91731 -6.02299 0
M  V30 7465 O 999.244 6.92449 -5.17064 0
M  V30 7466 C 1001.52 6.43627 -5.25174 0
M  V30 7467 O 1002.26 7.43686 -4.60469 0
M  V30 7468 C 1000.85 5.40275 -4.31916 0
M  V30 7469 O 1001.65 5.25279 -3.14438 0
M  V30 7470 C 999.512 6.04847 -4.05327 0
M  V30 7471 H 999.544 6.62195 -3.11261 0
M  V30 7472 H 1000.73 4.42556 -4.81383 0
M  V30 7473 H 1002.21 5.92458 -5.93643 0
M  V30 7474 H 1000.52 7.92655 -6.402 0
M  V30 7475 H 1000.33 6.26671 -8.0846 0
M  V30 7476 H 998.697 6.29101 -7.32804 0
M  V30 7477 H 1001.34 5.84315 -2.47318 0
M  V30 7478 P 1003.19 7.39546 -4.75277 0
M  V30 7479 O 1004.62 7.84798 -5.01039 0
M  V30 7480 O 1002.83 5.9812 -5.08098 0
M  V30 7481 O 1002.87 7.57503 -3.1866 0
M  V30 7482 C 1002.71 8.97357 -2.74833 0
M  V30 7483 C 1003.25 9.07548 -1.32709 0
M  V30 7484 O 1002.19 8.62072 -0.606159 0
M  V30 7485 C 1004.47 8.25383 -0.938334 0
M  V30 7486 O 1005.21 8.74577 0.146954 0
M  V30 7487 C 1003.8 6.8802 -0.712559 0
M  V30 7488 O 1004.6 6.1189 0.194655 0
M  V30 7489 C 1002.46 7.27966 -0.139777 0
M  V30 7490 H 1002.49 7.25354 0.961601 0
M  V30 7491 H 1003.68 6.32557 -1.65702 0
M  V30 7492 H 1005.16 8.19355 -1.79097 0
M  V30 7493 H 1003.47 10.1294 -1.10029 0
M  V30 7494 H 1003.28 9.64276 -3.41316 0
M  V30 7495 H 1001.65 9.25417 -2.76357 0
M  V30 7496 H 1004.29 6.25267 1.07847 0
M  V30 7497 P 1006.14 8.791 7.86616e-12 0
M  V30 7498 O 1007.57 9.31096 0.027933 0
M  V30 7499 O 1005.78 7.77869 -1.04071 0
M  V30 7500 O 1005.82 8.09533 1.41463 0
M  V30 7501 C 1005.66 9.0349 2.53943 0
M  V30 7502 C 1006.2 8.35226 3.79016 0
M  V30 7503 O 1005.15 7.57992 4.15078 0
M  V30 7504 C 1007.42 7.45087 3.67298 0
M  V30 7505 O 1008.16 7.27796 4.85194 0
M  V30 7506 C 1006.75 6.17323 3.12027 0
M  V30 7507 O 1007.55 5.04231 3.47188 0
M  V30 7508 C 1005.41 6.19961 3.81809 0
M  V30 7509 H 1005.45 5.58218 4.73051 0
M  V30 7510 H 1006.63 6.21726 2.02589 0
M  V30 7511 H 1008.11 7.86112 2.9231 0
M  V30 7512 H 1006.42 9.11627 4.55076 0
M  V30 7513 H 1006.23 9.9573 2.34194 0
M  V30 7514 H 1004.6 9.2792 2.67832 0
M  V30 7515 H 1007.24 4.67702 4.28772 0
M  V30 7516 P 1009.09 7.39546 4.75277 0
M  V30 7517 O 1010.52 7.81777 5.05738 0
M  V30 7518 O 1008.73 7.1065 3.32998 0
M  V30 7519 O 1008.77 6.04542 5.56673 0
M  V30 7520 C 1008.61 6.22772 7.02095 0
M  V30 7521 C 1009.15 4.97725 7.70406 0
M  V30 7522 O 1008.1 4.13256 7.58987 0
M  V30 7523 C 1010.37 4.28231 7.11815 0
M  V30 7524 O 1011.11 3.49945 8.01648 0
M  V30 7525 C 1009.7 3.5063 5.96244 0
M  V30 7526 O 1010.5 2.36482 5.64681 0
M  V30 7527 C 1008.36 3.15122 6.56374 0
M  V30 7528 H 1008.4 2.13853 6.99751 0
M  V30 7529 H 1009.58 4.13501 5.06559 0
M  V30 7530 H 1011.06 5.03285 6.70911 0
M  V30 7531 H 1009.37 5.20877 8.75697 0
M  V30 7532 H 1009.18 7.11046 7.35349 0
M  V30 7533 H 1007.55 6.35815 7.26986 0
M  V30 7534 H 1010.19 1.61644 6.13565 0
M  V30 7535 P 1012.05 3.65191 7.99657 0
M  V30 7536 O 1013.45 3.90823 8.51272 0
M  V30 7537 O 1011.67 4.23191 6.66972 0
M  V30 7538 O 1011.72 2.07587 7.95046 0
M  V30 7539 C 1011.56 1.44328 9.27336 0
M  V30 7540 C 1012.1 0.0220012 9.17097 0
M  V30 7541 O 1011.05 -0.626794 8.61824 0
M  V30 7542 C 1013.32 -0.24586 8.30336 0
M  V30 7543 O 1014.06 -1.39011 8.63583 0
M  V30 7544 C 1012.65 -0.273849 6.91158 0
M  V30 7545 O 1013.45 -1.06331 6.02794 0
M  V30 7546 C 1011.31 -0.897649 7.22545 0
M  V30 7547 N 1010.27 -0.292839 6.41732 0
M  V30 7548 C 1009.24 -1.08701 5.98712 0
M  V30 7549 O 1009.28 -2.31211 6.24471 0
M  V30 7550 N 1008.22 -0.533391 5.28415 0
M  V30 7551 C 1008.27 0.770866 4.98576 0
M  V30 7552 N 1007.26 1.29482 4.30134 0
M  V30 7553 C 1009.37 1.59049 5.38086 0
M  V30 7554 C 1010.33 1.01866 6.10256 0
M  V30 7555 H 1011.35 -1.98383 7.04189 0
M  V30 7556 H 1012.53 0.733318 6.49674 0
M  V30 7557 H 1014.01 0.598386 8.36663 0
M  V30 7558 H 1012.32 -0.362662 10.1825 0
M  V30 7559 H 1012.13 2.00611 10.0304 0
M  V30 7560 H 1010.5 1.41828 9.55228 0
M  V30 7561 H 1009.42 2.6415 5.10622 0
M  V30 7562 H 1011.18 1.61983 6.44042 0
M  V30 7563 H 1006.47 0.69888 4.01361 0
M  V30 7564 H 1007.27 2.29327 4.05781 0
M  V30 7565 H 1013.23 -1.97777 6.14035 0
M  V30 7566 P 1015 -1.25109 8.70152 0
M  V30 7567 O 1016.42 -1.35274 9.21221 0
M  V30 7568 O 1014.64 -0.0769065 7.84762 0
M  V30 7569 O 1014.67 -2.55232 7.81161 0
M  V30 7570 C 1014.51 -3.79939 8.58154 0
M  V30 7571 C 1015.05 -4.94023 7.72785 0
M  V30 7572 O 1014 -5.18726 6.91205 0
M  V30 7573 C 1016.27 -4.69597 6.85231 0
M  V30 7574 O 1017.01 -5.83832 6.51337 0
M  V30 7575 C 1015.6 -3.96706 5.66633 0
M  V30 7576 O 1016.4 -4.15414 4.49689 0
M  V30 7577 C 1014.27 -4.66153 5.59313 0
M  V30 7578 H 1014.3 -5.47679 4.85214 0
M  V30 7579 H 1015.48 -2.89008 5.86566 0
M  V30 7580 H 1016.96 -4.0121 7.36511 0
M  V30 7581 H 1015.27 -5.80182 8.37584 0
M  V30 7582 H 1015.08 -3.73517 9.52265 0
M  V30 7583 H 1013.45 -3.97163 8.80359 0
M  V30 7584 H 1016.09 -4.90969 4.01921 0
M  V30 7585 P 1017.95 -5.75688 6.64379 0
M  V30 7586 O 1019.37 -6.11849 7.01846 0
M  V30 7587 O 1017.59 -4.30744 6.56026 0
M  V30 7588 O 1017.62 -6.37042 5.19165 0
M  V30 7589 C 1017.46 -7.83578 5.16515 0
M  V30 7590 C 1018 -8.33398 3.83019 0
M  V30 7591 O 1016.95 -8.10074 3.01034 0
M  V30 7592 C 1019.22 -7.65514 3.2257 0
M  V30 7593 O 1019.96 -8.4329 2.32297 0
M  V30 7594 C 1018.55 -6.40075 2.62207 0
M  V30 7595 O 1019.35 -5.92589 1.53712 0
M  V30 7596 C 1017.22 -6.9454 2.18503 0
M  V30 7597 H 1017.25 -7.23063 1.12091 0
M  V30 7598 H 1018.43 -5.6025 3.37201 0
M  V30 7599 H 1019.91 -7.35707 4.02681 0
M  V30 7600 H 1018.22 -9.40912 3.9095 0
M  V30 7601 H 1018.03 -8.29056 5.99158 0
M  V30 7602 H 1016.4 -8.10073 5.25882 0
M  V30 7603 H 1019.04 -6.30324 0.726794 0
M  V30 7604 P 1020.9 -8.4349 2.47671 0
M  V30 7605 O 1022.32 -8.94167 2.5964 0
M  V30 7606 O 1020.54 -7.1704 3.19006 0
M  V30 7607 O 1020.57 -8.16596 0.923387 0
M  V30 7608 C 1020.41 -9.38437 0.108857 0
M  V30 7609 C 1020.95 -9.08175 -1.28353 0
M  V30 7610 O 1019.9 -8.44229 -1.84713 0
M  V30 7611 C 1022.17 -8.18386 -1.42505 0
M  V30 7612 O 1022.91 -8.3501 -2.60497 0
M  V30 7613 C 1021.5 -6.80225 -1.25468 0
M  V30 7614 O 1022.3 -5.81621 -1.91066 0
M  V30 7615 C 1020.17 -7.02416 -1.9168 0
M  V30 7616 H 1020.2 -6.6888 -2.96621 0
M  V30 7617 H 1021.38 -6.53617 -0.192223 0
M  V30 7618 H 1022.87 -8.36622 -0.589963 0
M  V30 7619 H 1021.17 -10.0291 -1.79807 0
M  V30 7620 H 1020.98 -10.2138 0.558219 0
M  V30 7621 H 1019.35 -9.6579 0.0444202 0
M  V30 7622 H 1021.99 -5.69556 -2.79637 0
M  V30 7623 P 1023.85 -8.4349 -2.47671 0
M  V30 7624 O 1025.27 -8.92593 -2.65 0
M  V30 7625 O 1023.49 -7.7568 -1.19296 0
M  V30 7626 O 1023.52 -7.36886 -3.63805 0
M  V30 7627 C 1023.36 -7.95349 -4.982 0
M  V30 7628 C 1023.9 -6.94612 -5.98974 0
M  V30 7629 O 1022.85 -6.10347 -6.11815 0
M  V30 7630 C 1025.12 -6.11426 -5.62335 0
M  V30 7631 O 1025.86 -5.6162 -6.70584 0
M  V30 7632 C 1024.45 -5.04409 -4.73308 0
M  V30 7633 O 1025.25 -3.85992 -4.75183 0
M  V30 7634 C 1023.12 -4.8728 -5.41006 0
M  V30 7635 H 1023.15 -4.02333 -6.11157 0
M  V30 7636 H 1024.33 -5.39466 -3.69543 0
M  V30 7637 H 1025.82 -6.71916 -5.01943 0
M  V30 7638 H 1024.12 -7.4649 -6.93477 0
M  V30 7639 H 1023.93 -8.89416 -5.05237 0
M  V30 7640 H 1022.3 -8.14876 -5.18409 0
M  V30 7641 H 1024.94 -3.27957 -5.4317 0
M  V30 7642 P 1026.8 -5.75688 -6.64379 0
M  V30 7643 O 1028.22 -6.07627 -7.05504 0
M  V30 7644 O 1026.44 -5.88047 -5.19722 0
M  V30 7645 O 1026.48 -4.2322 -7.04443 0
M  V30 7646 C 1026.32 -3.99743 -8.4911 0
M  V30 7647 C 1026.86 -2.60516 -8.79425 0
M  V30 7648 O 1025.8 -1.82684 -8.4467 0
M  V30 7649 C 1028.07 -2.10343 -8.03628 0
M  V30 7650 O 1028.81 -1.09919 -8.67766 0
M  V30 7651 C 1027.4 -1.68446 -6.70876 0
M  V30 7652 O 1028.2 -0.678137 -6.08433 0
M  V30 7653 C 1026.07 -1.17436 -7.18567 0
M  V30 7654 H 1026.1 -0.0804732 -7.31656 0
M  V30 7655 H 1027.28 -2.54037 -6.02537 0
M  V30 7656 H 1028.77 -2.93881 -7.85526 0
M  V30 7657 H 1027.07 -2.53065 -9.86973 0
M  V30 7658 H 1026.88 -4.75072 -9.05887 0
M  V30 7659 H 1025.25 -4.05244 -8.76668 0
M  V30 7660 H 1027.89 0.177647 -6.34251 0
M  V30 7661 P 1029.75 -1.25109 -8.70152 0
M  V30 7662 O 1031.17 -1.29744 -9.22016 0
M  V30 7663 O 1029.39 -2.13714 -7.55141 0
M  V30 7664 O 1029.43 0.248149 -8.21425 0
M  V30 7665 C 1029.27 1.22779 -9.30434 0
M  V30 7666 C 1029.81 2.56293 -8.80664 0
M  V30 7667 O 1028.75 3.02979 -8.09349 0
M  V30 7668 C 1031.02 2.57523 -7.89775 0
M  V30 7669 O 1031.76 3.7668 -7.89438 0
M  V30 7670 C 1030.35 2.20997 -6.55446 0
M  V30 7671 O 1031.15 2.71895 -5.48509 0
M  V30 7672 C 1029.02 2.89693 -6.67988 0
M  V30 7673 H 1029.05 3.88793 -6.19859 0
M  V30 7674 H 1030.23 1.12046 -6.44229 0
M  V30 7675 H 1031.72 1.7746 -8.19711 0
M  V30 7676 H 1030.02 3.20706 -9.67112 0
M  V30 7677 H 1029.83 0.901032 -10.1892 0
M  V30 7678 H 1028.2 1.33049 -9.56592 0
M  V30 7679 H 1030.84 3.57847 -5.23962 0
M  V30 7680 P 1032.7 3.65191 -7.99657 0
M  V30 7681 O 1034.12 3.89332 -8.45794 0
M  V30 7682 O 1032.34 2.28472 -7.50807 0
M  V30 7683 O 1032.38 4.64972 -6.77611 0
M  V30 7684 C 1032.22 6.06319 -7.16352 0
M  V30 7685 C 1032.76 6.91731 -6.02299 0
M  V30 7686 O 1031.7 6.92449 -5.17064 0
M  V30 7687 C 1033.97 6.43627 -5.25174 0
M  V30 7688 O 1034.71 7.43686 -4.60469 0
M  V30 7689 C 1033.31 5.40275 -4.31916 0
M  V30 7690 O 1034.1 5.25279 -3.14438 0
M  V30 7691 C 1031.97 6.04847 -4.05327 0
M  V30 7692 H 1032 6.62195 -3.11261 0
M  V30 7693 H 1033.18 4.42556 -4.81383 0
M  V30 7694 H 1034.67 5.92458 -5.93643 0
M  V30 7695 H 1032.97 7.92655 -6.402 0
M  V30 7696 H 1032.78 6.26671 -8.0846 0
M  V30 7697 H 1031.15 6.29101 -7.32804 0
M  V30 7698 H 1033.79 5.84315 -2.47318 0
M  V30 7699 P 1035.65 7.39546 -4.75277 0
M  V30 7700 O 1037.07 7.84798 -5.01039 0
M  V30 7701 O 1035.29 5.9812 -5.08098 0
M  V30 7702 O 1035.33 7.57503 -3.1866 0
M  V30 7703 C 1035.17 8.97357 -2.74833 0
M  V30 7704 C 1035.71 9.07548 -1.32709 0
M  V30 7705 O 1034.65 8.62072 -0.606159 0
M  V30 7706 C 1036.93 8.25383 -0.938334 0
M  V30 7707 O 1037.66 8.74577 0.146954 0
M  V30 7708 C 1036.26 6.8802 -0.712559 0
M  V30 7709 O 1037.06 6.1189 0.194655 0
M  V30 7710 C 1034.92 7.27966 -0.139777 0
M  V30 7711 H 1034.95 7.25354 0.961601 0
M  V30 7712 H 1036.13 6.32557 -1.65702 0
M  V30 7713 H 1037.62 8.19355 -1.79097 0
M  V30 7714 H 1035.92 10.1294 -1.10029 0
M  V30 7715 H 1035.73 9.64276 -3.41316 0
M  V30 7716 H 1034.1 9.25417 -2.76357 0
M  V30 7717 H 1036.74 6.25267 1.07847 0
M  V30 7718 P 1038.6 8.791 8.17632e-12 0
M  V30 7719 O 1040.02 9.31096 0.027933 0
M  V30 7720 O 1038.24 7.77869 -1.04071 0
M  V30 7721 O 1038.28 8.09533 1.41463 0
M  V30 7722 C 1038.12 9.0349 2.53943 0
M  V30 7723 C 1038.66 8.35226 3.79016 0
M  V30 7724 O 1037.6 7.57992 4.15078 0
M  V30 7725 C 1039.88 7.45087 3.67298 0
M  V30 7726 O 1040.61 7.27796 4.85194 0
M  V30 7727 C 1039.21 6.17323 3.12027 0
M  V30 7728 O 1040.01 5.04231 3.47188 0
M  V30 7729 C 1037.87 6.19961 3.81809 0
M  V30 7730 H 1037.9 5.58218 4.73051 0
M  V30 7731 H 1039.08 6.21726 2.02589 0
M  V30 7732 H 1040.57 7.86112 2.9231 0
M  V30 7733 H 1038.87 9.11627 4.55076 0
M  V30 7734 H 1038.68 9.9573 2.34194 0
M  V30 7735 H 1037.05 9.2792 2.67832 0
M  V30 7736 H 1039.69 4.67702 4.28772 0
M  V30 7737 P 1041.55 7.39546 4.75277 0
M  V30 7738 O 1042.97 7.81777 5.05738 0
M  V30 7739 O 1041.19 7.1065 3.32998 0
M  V30 7740 O 1041.23 6.04542 5.56673 0
M  V30 7741 C 1041.07 6.22772 7.02095 0
M  V30 7742 C 1041.61 4.97725 7.70406 0
M  V30 7743 O 1040.55 4.13256 7.58987 0
M  V30 7744 C 1042.83 4.28231 7.11815 0
M  V30 7745 O 1043.56 3.49945 8.01648 0
M  V30 7746 C 1042.16 3.5063 5.96244 0
M  V30 7747 O 1042.96 2.36482 5.64681 0
M  V30 7748 C 1040.82 3.15122 6.56374 0
M  V30 7749 H 1040.85 2.13853 6.99751 0
M  V30 7750 H 1042.04 4.13501 5.06559 0
M  V30 7751 H 1043.52 5.03285 6.70911 0
M  V30 7752 H 1041.83 5.20877 8.75697 0
M  V30 7753 H 1041.64 7.11046 7.35349 0
M  V30 7754 H 1040.01 6.35815 7.26986 0
M  V30 7755 H 1042.64 1.61644 6.13565 0
M  V30 7756 P 1044.5 3.65191 7.99657 0
M  V30 7757 O 1045.92 3.8425 8.48115 0
M  V30 7758 O 1044.14 4.17805 6.64342 0
M  V30 7759 O 1044.18 2.07613 7.95143 0
M  V30 7760 C 1044.02 1.44328 9.27336 0
M  V30 7761 C 1044.56 0.0220036 9.17197 0
M  V30 7762 O 1043.5 -0.626867 8.61923 0
M  V30 7763 C 1045.78 -0.24586 8.30336 0
M  V30 7764 O 1046.51 -1.39011 8.63583 0
M  V30 7765 C 1045.11 -0.273849 6.91158 0
M  V30 7766 O 1045.91 -1.06348 6.02892 0
M  V30 7767 C 1043.77 -0.897649 7.22545 0
M  V30 7768 H 1043.8 -1.9841 7.04286 0
M  V30 7769 H 1044.99 0.739928 6.497 0
M  V30 7770 H 1046.47 0.60668 8.36503 0
M  V30 7771 H 1044.78 -0.352479 10.1829 0
M  V30 7772 H 1044.59 2.00611 10.0304 0
M  V30 7773 H 1042.96 1.41843 9.55327 0
M  V30 7774 H 1045.59 -1.95734 6.03555 0
M  V30 7775 P 1047.45 -1.25109 8.70152 0
M  V30 7776 O 1048.87 -1.35274 9.21221 0
M  V30 7777 O 1047.09 -0.0769065 7.84762 0
M  V30 7778 O 1047.13 -2.55232 7.81161 0
M  V30 7779 C 1046.97 -3.79939 8.58154 0
M  V30 7780 C 1047.51 -4.94023 7.72785 0
M  V30 7781 O 1046.45 -5.18726 6.91205 0
M  V30 7782 C 1048.73 -4.69597 6.85231 0
M  V30 7783 O 1049.47 -5.83832 6.51337 0
M  V30 7784 C 1048.06 -3.96706 5.66633 0
M  V30 7785 O 1048.86 -4.15414 4.49689 0
M  V30 7786 C 1046.72 -4.66153 5.59313 0
M  V30 7787 H 1046.75 -5.47679 4.85214 0
M  V30 7788 H 1047.94 -2.89008 5.86566 0
M  V30 7789 H 1049.42 -4.0121 7.36511 0
M  V30 7790 H 1047.73 -5.80182 8.37584 0
M  V30 7791 H 1047.54 -3.73517 9.52265 0
M  V30 7792 H 1045.91 -3.97163 8.80359 0
M  V30 7793 H 1048.55 -4.90969 4.01921 0
M  V30 7794 P 1050.4 -5.75688 6.64379 0
M  V30 7795 O 1051.82 -6.11849 7.01846 0
M  V30 7796 O 1050.04 -4.30744 6.56026 0
M  V30 7797 O 1050.08 -6.37042 5.19165 0
M  V30 7798 C 1049.92 -7.83578 5.16515 0
M  V30 7799 C 1050.46 -8.33398 3.83019 0
M  V30 7800 O 1049.4 -8.10074 3.01034 0
M  V30 7801 C 1051.68 -7.65514 3.2257 0
M  V30 7802 O 1052.42 -8.4329 2.32297 0
M  V30 7803 C 1051.01 -6.40075 2.62207 0
M  V30 7804 O 1051.81 -5.92589 1.53712 0
M  V30 7805 C 1049.67 -6.9454 2.18503 0
M  V30 7806 H 1049.7 -7.23063 1.12091 0
M  V30 7807 H 1050.89 -5.6025 3.37201 0
M  V30 7808 H 1052.37 -7.35707 4.02681 0
M  V30 7809 H 1050.68 -9.40912 3.9095 0
M  V30 7810 H 1050.49 -8.29056 5.99158 0
M  V30 7811 H 1048.86 -8.10073 5.25882 0
M  V30 7812 H 1051.5 -6.30324 0.726794 0
M  V30 7813 P 1053.35 -8.4349 2.47671 0
M  V30 7814 O 1054.78 -8.94167 2.5964 0
M  V30 7815 O 1052.99 -7.1704 3.19006 0
M  V30 7816 O 1053.03 -8.16596 0.923387 0
M  V30 7817 C 1052.87 -9.38437 0.108857 0
M  V30 7818 C 1053.41 -9.08175 -1.28353 0
M  V30 7819 O 1052.35 -8.44229 -1.84713 0
M  V30 7820 C 1054.63 -8.18386 -1.42505 0
M  V30 7821 O 1055.37 -8.3501 -2.60497 0
M  V30 7822 C 1053.96 -6.80225 -1.25468 0
M  V30 7823 O 1054.76 -5.81621 -1.91066 0
M  V30 7824 C 1052.62 -7.02416 -1.9168 0
M  V30 7825 H 1052.65 -6.6888 -2.96621 0
M  V30 7826 H 1053.84 -6.53617 -0.192223 0
M  V30 7827 H 1055.32 -8.36622 -0.589963 0
M  V30 7828 H 1053.63 -10.0291 -1.79807 0
M  V30 7829 H 1053.44 -10.2138 0.558219 0
M  V30 7830 H 1051.81 -9.6579 0.0444202 0
M  V30 7831 H 1054.45 -5.69556 -2.79637 0
M  V30 7832 P 1056.3 -8.4349 -2.47671 0
M  V30 7833 O 1057.73 -8.92593 -2.65 0
M  V30 7834 O 1055.94 -7.7568 -1.19296 0
M  V30 7835 O 1055.98 -7.36886 -3.63805 0
M  V30 7836 C 1055.82 -7.95349 -4.982 0
M  V30 7837 C 1056.36 -6.94612 -5.98974 0
M  V30 7838 O 1055.31 -6.10347 -6.11815 0
M  V30 7839 C 1057.58 -6.11426 -5.62335 0
M  V30 7840 O 1058.32 -5.6162 -6.70584 0
M  V30 7841 C 1056.91 -5.04409 -4.73308 0
M  V30 7842 O 1057.71 -3.85992 -4.75183 0
M  V30 7843 C 1055.57 -4.8728 -5.41006 0
M  V30 7844 H 1055.61 -4.02333 -6.11157 0
M  V30 7845 H 1056.79 -5.39466 -3.69543 0
M  V30 7846 H 1058.27 -6.71916 -5.01943 0
M  V30 7847 H 1056.58 -7.4649 -6.93477 0
M  V30 7848 H 1056.39 -8.89416 -5.05237 0
M  V30 7849 H 1054.76 -8.14876 -5.18409 0
M  V30 7850 H 1057.4 -3.27957 -5.4317 0
M  V30 7851 P 1059.25 -5.75688 -6.64379 0
M  V30 7852 O 1060.66 -6.14823 -7.06682 0
M  V30 7853 O 1058.88 -5.93957 -5.20728 0
M  V30 7854 O 1058.93 -4.23169 -7.04357 0
M  V30 7855 C 1058.77 -3.99743 -8.4911 0
M  V30 7856 C 1059.31 -2.60487 -8.79329 0
M  V30 7857 O 1058.26 -1.82663 -8.44573 0
M  V30 7858 C 1060.53 -2.10343 -8.03628 0
M  V30 7859 O 1061.27 -1.09919 -8.67766 0
M  V30 7860 C 1059.86 -1.68446 -6.70876 0
M  V30 7861 O 1060.66 -0.678026 -6.08333 0
M  V30 7862 C 1058.52 -1.17436 -7.18567 0
M  V30 7863 N 1057.48 -1.52699 -6.23988 0
M  V30 7864 C 1056.45 -0.643793 -6.05085 0
M  V30 7865 O 1056.48 0.459118 -6.64315 0
M  V30 7866 N 1055.43 -0.976931 -5.22038 0
M  V30 7867 C 1055.48 -2.14429 -4.56662 0
M  V30 7868 C 1056.58 -3.04203 -4.71481 0
M  V30 7869 C 1057.54 -2.69669 -5.56838 0
M  V30 7870 H 1058.56 -0.0804622 -7.31556 0
M  V30 7871 H 1059.74 -2.53396 -6.02698 0
M  V30 7872 H 1061.22 -2.9313 -7.85914 0
M  V30 7873 H 1059.53 -2.52078 -9.87225 0
M  V30 7874 H 1059.34 -4.75072 -9.05887 0
M  V30 7875 H 1057.71 -4.05202 -8.76577 0
M  V30 7876 H 1056.63 -3.97309 -4.15519 0
M  V30 7877 H 1058.39 -3.36869 -5.72318 0
M  V30 7878 H 1060.44 0.167718 -6.44882 0
M  V30 7879 P 1062.21 -1.25109 -8.70152 0
M  V30 7880 O 1063.63 -1.29744 -9.22016 0
M  V30 7881 O 1061.85 -2.13714 -7.55141 0
M  V30 7882 O 1061.88 0.248149 -8.21425 0
M  V30 7883 C 1061.72 1.22779 -9.30434 0
M  V30 7884 C 1062.26 2.56293 -8.80664 0
M  V30 7885 O 1061.21 3.02979 -8.09349 0
M  V30 7886 C 1063.48 2.57523 -7.89775 0
M  V30 7887 O 1064.22 3.7668 -7.89438 0
M  V30 7888 C 1062.81 2.20997 -6.55446 0
M  V30 7889 O 1063.61 2.71895 -5.48509 0
M  V30 7890 C 1061.47 2.89693 -6.67988 0
M  V30 7891 H 1061.51 3.88793 -6.19859 0
M  V30 7892 H 1062.69 1.12046 -6.44229 0
M  V30 7893 H 1064.17 1.7746 -8.19711 0
M  V30 7894 H 1062.48 3.20706 -9.67112 0
M  V30 7895 H 1062.29 0.901032 -10.1892 0
M  V30 7896 H 1060.66 1.33049 -9.56592 0
M  V30 7897 H 1063.3 3.57847 -5.23962 0
M  V30 7898 P 1065.16 3.65191 -7.99657 0
M  V30 7899 O 1066.58 3.89374 -8.45885 0
M  V30 7900 O 1064.8 2.28472 -7.50807 0
M  V30 7901 O 1064.83 4.64972 -6.77611 0
M  V30 7902 C 1064.67 6.06383 -7.16428 0
M  V30 7903 C 1065.21 6.91731 -6.02299 0
M  V30 7904 O 1064.16 6.92369 -5.17005 0
M  V30 7905 C 1066.43 6.43627 -5.25174 0
M  V30 7906 O 1067.17 7.43686 -4.60469 0
M  V30 7907 C 1065.76 5.40275 -4.31916 0
M  V30 7908 O 1066.56 5.24878 -3.14911 0
M  V30 7909 C 1064.42 6.04847 -4.05327 0
M  V30 7910 N 1063.38 5.04166 -3.98114 0
M  V30 7911 C 1063.55 3.84629 -4.59066 0
M  V30 7912 N 1062.52 3.0363 -4.45343 0
M  V30 7913 C 1061.64 3.76722 -3.68523 0
M  V30 7914 C 1060.37 3.43528 -3.17088 0
M  V30 7915 N 1059.77 2.23665 -3.37397 0
M  V30 7916 N 1059.81 4.44526 -2.44231 0
M  V30 7917 C 1060.41 5.65243 -2.20146 0
M  V30 7918 N 1061.59 6.00221 -2.65453 0
M  V30 7919 C 1062.16 5.00564 -3.39083 0
M  V30 7920 H 1064.46 6.62104 -3.11218 0
M  V30 7921 H 1065.64 4.42969 -4.80867 0
M  V30 7922 H 1067.12 5.92458 -5.93643 0
M  V30 7923 H 1065.43 7.93295 -6.39407 0
M  V30 7924 H 1065.24 6.26671 -8.0846 0
M  V30 7925 H 1063.61 6.29101 -7.32804 0
M  V30 7926 H 1059.87 6.36894 -1.5883 0
M  V30 7927 H 1064.45 3.58193 -5.14248 0
M  V30 7928 H 1058.84 2.05145 -2.97047 0
M  V30 7929 H 1060.25 1.51255 -3.92998 0
M  V30 7930 H 1066.25 5.84223 -2.47279 0
M  V30 7931 P 1068.11 7.39546 -4.75277 0
M  V30 7932 O 1069.53 7.84798 -5.01039 0
M  V30 7933 O 1067.75 5.9812 -5.08098 0
M  V30 7934 O 1067.78 7.57503 -3.1866 0
M  V30 7935 C 1067.62 8.97357 -2.74833 0
M  V30 7936 C 1068.16 9.07548 -1.32709 0
M  V30 7937 O 1067.11 8.62072 -0.606159 0
M  V30 7938 C 1069.38 8.25383 -0.938334 0
M  V30 7939 O 1070.12 8.74577 0.146954 0
M  V30 7940 C 1068.71 6.8802 -0.712559 0
M  V30 7941 O 1069.51 6.1189 0.194655 0
M  V30 7942 C 1067.38 7.27966 -0.139777 0
M  V30 7943 H 1067.41 7.25354 0.961601 0
M  V30 7944 H 1068.59 6.32557 -1.65702 0
M  V30 7945 H 1070.07 8.19355 -1.79097 0
M  V30 7946 H 1068.38 10.1294 -1.10029 0
M  V30 7947 H 1068.19 9.64276 -3.41316 0
M  V30 7948 H 1066.56 9.25417 -2.76357 0
M  V30 7949 H 1069.2 6.25267 1.07847 0
M  V30 7950 P 1071.06 8.791 8.48649e-12 0
M  V30 7951 O 1072.48 9.31096 0.027933 0
M  V30 7952 O 1070.7 7.77869 -1.04071 0
M  V30 7953 O 1070.73 8.09533 1.41463 0
M  V30 7954 C 1070.57 9.0349 2.53943 0
M  V30 7955 C 1071.11 8.35226 3.79016 0
M  V30 7956 O 1070.06 7.57992 4.15078 0
M  V30 7957 C 1072.33 7.45087 3.67298 0
M  V30 7958 O 1073.07 7.27796 4.85194 0
M  V30 7959 C 1071.66 6.17323 3.12027 0
M  V30 7960 O 1072.46 5.04231 3.47188 0
M  V30 7961 C 1070.33 6.19961 3.81809 0
M  V30 7962 H 1070.36 5.58218 4.73051 0
M  V30 7963 H 1071.54 6.21726 2.02589 0
M  V30 7964 H 1073.02 7.86112 2.9231 0
M  V30 7965 H 1071.33 9.11627 4.55076 0
M  V30 7966 H 1071.14 9.9573 2.34194 0
M  V30 7967 H 1069.51 9.2792 2.67832 0
M  V30 7968 H 1072.15 4.67702 4.28772 0
M  V30 7969 P 1074.01 7.39546 4.75277 0
M  V30 7970 O 1075.43 7.81777 5.05738 0
M  V30 7971 O 1073.65 7.1065 3.32998 0
M  V30 7972 O 1073.68 6.04542 5.56673 0
M  V30 7973 C 1073.52 6.22772 7.02095 0
M  V30 7974 C 1074.06 4.97725 7.70406 0
M  V30 7975 O 1073.01 4.13256 7.58987 0
M  V30 7976 C 1075.28 4.28231 7.11815 0
M  V30 7977 O 1076.02 3.49945 8.01648 0
M  V30 7978 C 1074.61 3.5063 5.96244 0
M  V30 7979 O 1075.41 2.36482 5.64681 0
M  V30 7980 C 1073.28 3.15122 6.56374 0
M  V30 7981 H 1073.31 2.13853 6.99751 0
M  V30 7982 H 1074.49 4.13501 5.06559 0
M  V30 7983 H 1075.98 5.03285 6.70911 0
M  V30 7984 H 1074.28 5.20877 8.75697 0
M  V30 7985 H 1074.09 7.11046 7.35349 0
M  V30 7986 H 1072.46 6.35815 7.26986 0
M  V30 7987 H 1075.1 1.61644 6.13565 0
M  V30 7988 P 1076.96 3.65191 7.99657 0
M  V30 7989 O 1078.38 3.8425 8.48115 0
M  V30 7990 O 1076.6 4.17805 6.64342 0
M  V30 7991 O 1076.64 2.07613 7.95143 0
M  V30 7992 C 1076.48 1.44328 9.27336 0
M  V30 7993 C 1077.02 0.0220036 9.17197 0
M  V30 7994 O 1075.96 -0.626867 8.61923 0
M  V30 7995 C 1078.23 -0.24586 8.30336 0
M  V30 7996 O 1078.97 -1.39011 8.63583 0
M  V30 7997 C 1077.56 -0.273849 6.91158 0
M  V30 7998 O 1078.36 -1.06348 6.02892 0
M  V30 7999 C 1076.23 -0.897649 7.22545 0
M  V30 8000 H 1076.26 -1.9841 7.04286 0
M  V30 8001 H 1077.44 0.739928 6.497 0
M  V30 8002 H 1078.93 0.60668 8.36503 0
M  V30 8003 H 1077.23 -0.352479 10.1829 0
M  V30 8004 H 1077.04 2.00611 10.0304 0
M  V30 8005 H 1075.41 1.41843 9.55327 0
M  V30 8006 H 1078.05 -1.95734 6.03555 0
M  V30 8007 P 1079.91 -1.25109 8.70152 0
M  V30 8008 O 1081.33 -1.35274 9.21221 0
M  V30 8009 O 1079.55 -0.0769065 7.84762 0
M  V30 8010 O 1079.59 -2.55232 7.81161 0
M  V30 8011 C 1079.43 -3.79939 8.58154 0
M  V30 8012 C 1079.97 -4.94023 7.72785 0
M  V30 8013 O 1078.91 -5.18726 6.91205 0
M  V30 8014 C 1081.18 -4.69597 6.85231 0
M  V30 8015 O 1081.92 -5.83832 6.51337 0
M  V30 8016 C 1080.51 -3.96706 5.66633 0
M  V30 8017 O 1081.31 -4.15414 4.49689 0
M  V30 8018 C 1079.18 -4.66153 5.59313 0
M  V30 8019 H 1079.21 -5.47679 4.85214 0
M  V30 8020 H 1080.39 -2.89008 5.86566 0
M  V30 8021 H 1081.88 -4.0121 7.36511 0
M  V30 8022 H 1080.18 -5.80182 8.37584 0
M  V30 8023 H 1079.99 -3.73517 9.52265 0
M  V30 8024 H 1078.36 -3.97163 8.80359 0
M  V30 8025 H 1081 -4.90969 4.01921 0
M  V30 8026 P 1082.86 -5.75688 6.64379 0
M  V30 8027 O 1084.28 -6.11849 7.01846 0
M  V30 8028 O 1082.5 -4.30744 6.56026 0
M  V30 8029 O 1082.54 -6.37042 5.19165 0
M  V30 8030 C 1082.38 -7.83578 5.16515 0
M  V30 8031 C 1082.92 -8.33398 3.83019 0
M  V30 8032 O 1081.86 -8.10074 3.01034 0
M  V30 8033 C 1084.13 -7.65514 3.2257 0
M  V30 8034 O 1084.87 -8.4329 2.32297 0
M  V30 8035 C 1083.47 -6.40075 2.62207 0
M  V30 8036 O 1084.26 -5.92589 1.53712 0
M  V30 8037 C 1082.13 -6.9454 2.18503 0
M  V30 8038 H 1082.16 -7.23063 1.12091 0
M  V30 8039 H 1083.34 -5.6025 3.37201 0
M  V30 8040 H 1084.83 -7.35707 4.02681 0
M  V30 8041 H 1083.13 -9.40912 3.9095 0
M  V30 8042 H 1082.94 -8.29056 5.99158 0
M  V30 8043 H 1081.31 -8.10073 5.25882 0
M  V30 8044 H 1083.95 -6.30324 0.726794 0
M  V30 8045 P 1085.81 -8.4349 2.47671 0
M  V30 8046 O 1087.23 -8.94167 2.5964 0
M  V30 8047 O 1085.45 -7.1704 3.19006 0
M  V30 8048 O 1085.49 -8.16596 0.923387 0
M  V30 8049 C 1085.33 -9.38437 0.108857 0
M  V30 8050 C 1085.87 -9.08175 -1.28353 0
M  V30 8051 O 1084.81 -8.44229 -1.84713 0
M  V30 8052 C 1087.08 -8.18386 -1.42505 0
M  V30 8053 O 1087.82 -8.3501 -2.60497 0
M  V30 8054 C 1086.42 -6.80225 -1.25468 0
M  V30 8055 O 1087.21 -5.81621 -1.91066 0
M  V30 8056 C 1085.08 -7.02416 -1.9168 0
M  V30 8057 H 1085.11 -6.6888 -2.96621 0
M  V30 8058 H 1086.29 -6.53617 -0.192223 0
M  V30 8059 H 1087.78 -8.36622 -0.589963 0
M  V30 8060 H 1086.08 -10.0291 -1.79807 0
M  V30 8061 H 1085.89 -10.2138 0.558219 0
M  V30 8062 H 1084.26 -9.6579 0.0444202 0
M  V30 8063 H 1086.9 -5.69556 -2.79637 0
M  V30 8064 P 1088.76 -8.4349 -2.47671 0
M  V30 8065 O 1090.18 -8.92593 -2.65 0
M  V30 8066 O 1088.4 -7.7568 -1.19296 0
M  V30 8067 O 1088.44 -7.36886 -3.63805 0
M  V30 8068 C 1088.28 -7.95349 -4.982 0
M  V30 8069 C 1088.82 -6.94612 -5.98974 0
M  V30 8070 O 1087.76 -6.10347 -6.11815 0
M  V30 8071 C 1090.04 -6.11426 -5.62335 0
M  V30 8072 O 1090.77 -5.6162 -6.70584 0
M  V30 8073 C 1089.37 -5.04409 -4.73308 0
M  V30 8074 O 1090.17 -3.85992 -4.75183 0
M  V30 8075 C 1088.03 -4.8728 -5.41006 0
M  V30 8076 H 1088.06 -4.02333 -6.11157 0
M  V30 8077 H 1089.24 -5.39466 -3.69543 0
M  V30 8078 H 1090.73 -6.71916 -5.01943 0
M  V30 8079 H 1089.03 -7.4649 -6.93477 0
M  V30 8080 H 1088.84 -8.89416 -5.05237 0
M  V30 8081 H 1087.21 -8.14876 -5.18409 0
M  V30 8082 H 1089.85 -3.27957 -5.4317 0
M  V30 8083 P 1091.71 -5.75688 -6.64379 0
M  V30 8084 O 1093.13 -6.07627 -7.05504 0
M  V30 8085 O 1091.35 -5.88047 -5.19722 0
M  V30 8086 O 1091.39 -4.2322 -7.04443 0
M  V30 8087 C 1091.23 -3.99743 -8.4911 0
M  V30 8088 C 1091.77 -2.60516 -8.79425 0
M  V30 8089 O 1090.71 -1.82684 -8.4467 0
M  V30 8090 C 1092.99 -2.10343 -8.03628 0
M  V30 8091 O 1093.72 -1.09919 -8.67766 0
M  V30 8092 C 1092.32 -1.68446 -6.70876 0
M  V30 8093 O 1093.12 -0.678137 -6.08433 0
M  V30 8094 C 1090.98 -1.17436 -7.18567 0
M  V30 8095 H 1091.01 -0.0804732 -7.31656 0
M  V30 8096 H 1092.19 -2.54037 -6.02537 0
M  V30 8097 H 1093.68 -2.93881 -7.85526 0
M  V30 8098 H 1091.98 -2.53065 -9.86973 0
M  V30 8099 H 1091.79 -4.75072 -9.05887 0
M  V30 8100 H 1090.16 -4.05244 -8.76668 0
M  V30 8101 H 1092.8 0.177647 -6.34251 0
M  V30 8102 P 1094.66 -1.25109 -8.70152 0
M  V30 8103 O 1096.08 -1.29744 -9.22016 0
M  V30 8104 O 1094.3 -2.13714 -7.55141 0
M  V30 8105 O 1094.34 0.248149 -8.21425 0
M  V30 8106 C 1094.18 1.22779 -9.30434 0
M  V30 8107 C 1094.72 2.56293 -8.80664 0
M  V30 8108 O 1093.66 3.02979 -8.09349 0
M  V30 8109 C 1095.94 2.57523 -7.89775 0
M  V30 8110 O 1096.67 3.7668 -7.89438 0
M  V30 8111 C 1095.27 2.20997 -6.55446 0
M  V30 8112 O 1096.07 2.71895 -5.48509 0
M  V30 8113 C 1093.93 2.89693 -6.67988 0
M  V30 8114 H 1093.96 3.88793 -6.19859 0
M  V30 8115 H 1095.15 1.12046 -6.44229 0
M  V30 8116 H 1096.63 1.7746 -8.19711 0
M  V30 8117 H 1094.94 3.20706 -9.67112 0
M  V30 8118 H 1094.75 0.901032 -10.1892 0
M  V30 8119 H 1093.12 1.33049 -9.56592 0
M  V30 8120 H 1095.75 3.57847 -5.23962 0
M  V30 8121 P 1097.61 3.65191 -7.99657 0
M  V30 8122 O 1099.03 3.89332 -8.45794 0
M  V30 8123 O 1097.25 2.28472 -7.50807 0
M  V30 8124 O 1097.29 4.64972 -6.77611 0
M  V30 8125 C 1097.13 6.06319 -7.16352 0
M  V30 8126 C 1097.67 6.91731 -6.02299 0
M  V30 8127 O 1096.61 6.92449 -5.17064 0
M  V30 8128 C 1098.89 6.43627 -5.25174 0
M  V30 8129 O 1099.63 7.43686 -4.60469 0
M  V30 8130 C 1098.22 5.40275 -4.31916 0
M  V30 8131 O 1099.02 5.25279 -3.14438 0
M  V30 8132 C 1096.88 6.04847 -4.05327 0
M  V30 8133 H 1096.91 6.62195 -3.11261 0
M  V30 8134 H 1098.1 4.42556 -4.81383 0
M  V30 8135 H 1099.58 5.92458 -5.93643 0
M  V30 8136 H 1097.89 7.92655 -6.402 0
M  V30 8137 H 1097.7 6.26671 -8.0846 0
M  V30 8138 H 1096.07 6.29101 -7.32804 0
M  V30 8139 H 1098.71 5.84315 -2.47318 0
M  V30 8140 P 1100.56 7.39546 -4.75277 0
M  V30 8141 O 1101.98 7.84798 -5.01039 0
M  V30 8142 O 1100.2 5.9812 -5.08098 0
M  V30 8143 O 1100.24 7.57503 -3.1866 0
M  V30 8144 C 1100.08 8.97357 -2.74833 0
M  V30 8145 C 1100.62 9.07548 -1.32709 0
M  V30 8146 O 1099.56 8.62072 -0.606159 0
M  V30 8147 C 1101.84 8.25383 -0.938334 0
M  V30 8148 O 1102.58 8.74577 0.146954 0
M  V30 8149 C 1101.17 6.8802 -0.712559 0
M  V30 8150 O 1101.97 6.1189 0.194655 0
M  V30 8151 C 1099.83 7.27966 -0.139777 0
M  V30 8152 H 1099.86 7.25354 0.961601 0
M  V30 8153 H 1101.05 6.32557 -1.65702 0
M  V30 8154 H 1102.53 8.19355 -1.79097 0
M  V30 8155 H 1100.84 10.1294 -1.10029 0
M  V30 8156 H 1100.65 9.64276 -3.41316 0
M  V30 8157 H 1099.02 9.25417 -2.76357 0
M  V30 8158 H 1101.66 6.25267 1.07847 0
M  V30 8159 P 1103.51 8.791 8.79665e-12 0
M  V30 8160 O 1104.94 9.31096 0.027933 0
M  V30 8161 O 1103.15 7.77869 -1.04071 0
M  V30 8162 O 1103.19 8.09533 1.41463 0
M  V30 8163 C 1103.03 9.0349 2.53943 0
M  V30 8164 C 1103.57 8.35226 3.79016 0
M  V30 8165 O 1102.51 7.57992 4.15078 0
M  V30 8166 C 1104.79 7.45087 3.67298 0
M  V30 8167 O 1105.53 7.27796 4.85194 0
M  V30 8168 C 1104.12 6.17323 3.12027 0
M  V30 8169 O 1104.92 5.04231 3.47188 0
M  V30 8170 C 1102.78 6.19961 3.81809 0
M  V30 8171 H 1102.81 5.58218 4.73051 0
M  V30 8172 H 1104 6.21726 2.02589 0
M  V30 8173 H 1105.48 7.86112 2.9231 0
M  V30 8174 H 1103.79 9.11627 4.55076 0
M  V30 8175 H 1103.6 9.9573 2.34194 0
M  V30 8176 H 1101.97 9.2792 2.67832 0
M  V30 8177 H 1104.61 4.67702 4.28772 0
M  V30 8178 P 1106.46 7.39546 4.75277 0
M  V30 8179 O 1107.86 7.89013 5.04841 0
M  V30 8180 O 1106.09 7.16603 3.32298 0
M  V30 8181 O 1106.14 6.04468 5.56605 0
M  V30 8182 C 1105.98 6.22772 7.02095 0
M  V30 8183 C 1106.52 4.97671 7.70322 0
M  V30 8184 O 1105.46 4.13208 7.58899 0
M  V30 8185 C 1107.74 4.28231 7.11815 0
M  V30 8186 O 1108.48 3.49945 8.01648 0
M  V30 8187 C 1107.07 3.5063 5.96244 0
M  V30 8188 O 1107.87 2.36443 5.64589 0
M  V30 8189 C 1105.73 3.15122 6.56374 0
M  V30 8190 N 1104.69 3.22311 5.55692 0
M  V30 8191 C 1103.65 2.32244 5.62437 0
M  V30 8192 O 1103.69 1.43107 6.50341 0
M  V30 8193 N 1102.64 2.40811 4.73368 0
M  V30 8194 C 1102.69 3.344 3.77753 0
M  V30 8195 C 1103.79 4.24712 3.66679 0
M  V30 8196 C 1104.75 4.15625 4.58307 0
M  V30 8197 H 1105.76 2.13823 6.99656 0
M  V30 8198 H 1106.95 4.12931 5.06895 0
M  V30 8199 H 1108.43 5.02674 6.71494 0
M  V30 8200 H 1106.74 5.20001 8.76217 0
M  V30 8201 H 1106.55 7.11046 7.35349 0
M  V30 8202 H 1104.92 6.35749 7.26911 0
M  V30 8203 H 1103.83 4.9828 2.86753 0
M  V30 8204 H 1105.6 4.84464 4.54228 0
M  V30 8205 H 1107.65 1.65592 6.23485 0
M  V30 8206 P 1109.41 3.65191 7.99657 0
M  V30 8207 O 1110.84 3.84292 8.48206 0
M  V30 8208 O 1109.05 4.17805 6.64342 0
M  V30 8209 O 1109.09 2.07613 7.95143 0
M  V30 8210 C 1108.93 1.44344 9.27435 0
M  V30 8211 C 1109.47 0.0220036 9.17197 0
M  V30 8212 O 1108.42 -0.626794 8.61824 0
M  V30 8213 C 1110.69 -0.24586 8.30336 0
M  V30 8214 O 1111.43 -1.39011 8.63583 0
M  V30 8215 C 1110.02 -0.273849 6.91158 0
M  V30 8216 O 1110.82 -1.05728 6.029 0
M  V30 8217 C 1108.68 -0.897649 7.22545 0
M  V30 8218 N 1107.64 -0.292839 6.41732 0
M  V30 8219 C 1107.81 0.950603 5.91308 0
M  V30 8220 N 1106.78 1.37732 5.21105 0
M  V30 8221 C 1105.9 0.318109 5.26039 0
M  V30 8222 C 1104.63 0.146766 4.6727 0
M  V30 8223 N 1104.03 1.08519 3.89983 0
M  V30 8224 N 1104.07 -1.06525 4.95887 0
M  V30 8225 C 1104.67 -2.0378 5.71347 0
M  V30 8226 N 1105.84 -1.92445 6.27451 0
M  V30 8227 C 1106.42 -0.715382 6.00353 0
M  V30 8228 H 1108.72 -1.98383 7.04189 0
M  V30 8229 H 1109.9 0.733318 6.49674 0
M  V30 8230 H 1111.38 0.60668 8.36503 0
M  V30 8231 H 1109.69 -0.362662 10.1825 0
M  V30 8232 H 1109.5 2.00611 10.0304 0
M  V30 8233 H 1107.87 1.41843 9.55327 0
M  V30 8234 H 1104.13 -2.97041 5.85344 0
M  V30 8235 H 1108.71 1.54076 6.07465 0
M  V30 8236 H 1103.1 0.901517 3.49562 0
M  V30 8237 H 1104.51 1.97957 3.71669 0
M  V30 8238 H 1110.51 -1.95704 6.0346 0
M  V30 8239 P 1112.36 -1.25109 8.70152 0
M  V30 8240 O 1113.79 -1.35274 9.21221 0
M  V30 8241 O 1112 -0.0769065 7.84762 0
M  V30 8242 O 1112.04 -2.55232 7.81161 0
M  V30 8243 C 1111.88 -3.79939 8.58154 0
M  V30 8244 C 1112.42 -4.94023 7.72785 0
M  V30 8245 O 1111.37 -5.18726 6.91205 0
M  V30 8246 C 1113.64 -4.69597 6.85231 0
M  V30 8247 O 1114.38 -5.83832 6.51337 0
M  V30 8248 C 1112.97 -3.96706 5.66633 0
M  V30 8249 O 1113.77 -4.15414 4.49689 0
M  V30 8250 C 1111.63 -4.66153 5.59313 0
M  V30 8251 H 1111.67 -5.47679 4.85214 0
M  V30 8252 H 1112.85 -2.89008 5.86566 0
M  V30 8253 H 1114.33 -4.0121 7.36511 0
M  V30 8254 H 1112.64 -5.80182 8.37584 0
M  V30 8255 H 1112.45 -3.73517 9.52265 0
M  V30 8256 H 1110.82 -3.97163 8.80359 0
M  V30 8257 H 1113.46 -4.90969 4.01921 0
M  V30 8258 P 1115.32 -5.75688 6.64379 0
M  V30 8259 O 1116.74 -6.11849 7.01846 0
M  V30 8260 O 1114.96 -4.30744 6.56026 0
M  V30 8261 O 1114.99 -6.37042 5.19165 0
M  V30 8262 C 1114.83 -7.83578 5.16515 0
M  V30 8263 C 1115.37 -8.33398 3.83019 0
M  V30 8264 O 1114.32 -8.10074 3.01034 0
M  V30 8265 C 1116.59 -7.65514 3.2257 0
M  V30 8266 O 1117.33 -8.4329 2.32297 0
M  V30 8267 C 1115.92 -6.40075 2.62207 0
M  V30 8268 O 1116.72 -5.92589 1.53712 0
M  V30 8269 C 1114.58 -6.9454 2.18503 0
M  V30 8270 H 1114.62 -7.23063 1.12091 0
M  V30 8271 H 1115.8 -5.6025 3.37201 0
M  V30 8272 H 1117.28 -7.35707 4.02681 0
M  V30 8273 H 1115.59 -9.40912 3.9095 0
M  V30 8274 H 1115.4 -8.29056 5.99158 0
M  V30 8275 H 1113.77 -8.10073 5.25882 0
M  V30 8276 H 1116.41 -6.30324 0.726794 0
M  V30 8277 P 1118.27 -8.4349 2.47671 0
M  V30 8278 O 1119.69 -8.94167 2.5964 0
M  V30 8279 O 1117.91 -7.1704 3.19006 0
M  V30 8280 O 1117.94 -8.16596 0.923387 0
M  V30 8281 C 1117.78 -9.38437 0.108857 0
M  V30 8282 C 1118.32 -9.08175 -1.28353 0
M  V30 8283 O 1117.27 -8.44229 -1.84713 0
M  V30 8284 C 1119.54 -8.18386 -1.42505 0
M  V30 8285 O 1120.28 -8.3501 -2.60497 0
M  V30 8286 C 1118.87 -6.80225 -1.25468 0
M  V30 8287 O 1119.67 -5.81621 -1.91066 0
M  V30 8288 C 1117.54 -7.02416 -1.9168 0
M  V30 8289 H 1117.57 -6.6888 -2.96621 0
M  V30 8290 H 1118.75 -6.53617 -0.192223 0
M  V30 8291 H 1120.23 -8.36622 -0.589963 0
M  V30 8292 H 1118.54 -10.0291 -1.79807 0
M  V30 8293 H 1118.35 -10.2138 0.558219 0
M  V30 8294 H 1116.72 -9.6579 0.0444202 0
M  V30 8295 H 1119.36 -5.69556 -2.79637 0
M  V30 8296 P 1121.22 -8.4349 -2.47671 0
M  V30 8297 O 1122.64 -8.92593 -2.65 0
M  V30 8298 O 1120.86 -7.7568 -1.19296 0
M  V30 8299 O 1120.89 -7.36886 -3.63805 0
M  V30 8300 C 1120.73 -7.95349 -4.982 0
M  V30 8301 C 1121.27 -6.94612 -5.98974 0
M  V30 8302 O 1120.22 -6.10347 -6.11815 0
M  V30 8303 C 1122.49 -6.11426 -5.62335 0
M  V30 8304 O 1123.23 -5.6162 -6.70584 0
M  V30 8305 C 1121.82 -5.04409 -4.73308 0
M  V30 8306 O 1122.62 -3.85992 -4.75183 0
M  V30 8307 C 1120.49 -4.8728 -5.41006 0
M  V30 8308 H 1120.52 -4.02333 -6.11157 0
M  V30 8309 H 1121.7 -5.39466 -3.69543 0
M  V30 8310 H 1123.18 -6.71916 -5.01943 0
M  V30 8311 H 1121.49 -7.4649 -6.93477 0
M  V30 8312 H 1121.3 -8.89416 -5.05237 0
M  V30 8313 H 1119.67 -8.14876 -5.18409 0
M  V30 8314 H 1122.31 -3.27957 -5.4317 0
M  V30 8315 P 1124.17 -5.75688 -6.64379 0
M  V30 8316 O 1125.57 -6.14823 -7.06682 0
M  V30 8317 O 1123.79 -5.93957 -5.20728 0
M  V30 8318 O 1123.84 -4.23169 -7.04357 0
M  V30 8319 C 1123.68 -3.99743 -8.4911 0
M  V30 8320 C 1124.22 -2.60487 -8.79329 0
M  V30 8321 O 1123.17 -1.82663 -8.44573 0
M  V30 8322 C 1125.44 -2.10343 -8.03628 0
M  V30 8323 O 1126.18 -1.09919 -8.67766 0
M  V30 8324 C 1124.77 -1.68446 -6.70876 0
M  V30 8325 O 1125.57 -0.678026 -6.08333 0
M  V30 8326 C 1123.44 -1.17436 -7.18567 0
M  V30 8327 N 1122.39 -1.52699 -6.23988 0
M  V30 8328 C 1121.36 -0.643793 -6.05085 0
M  V30 8329 O 1121.4 0.459118 -6.64315 0
M  V30 8330 N 1120.35 -0.976931 -5.22038 0
M  V30 8331 C 1120.39 -2.14429 -4.56662 0
M  V30 8332 C 1121.49 -3.04203 -4.71481 0
M  V30 8333 C 1122.46 -2.69669 -5.56838 0
M  V30 8334 H 1123.47 -0.0804622 -7.31556 0
M  V30 8335 H 1124.65 -2.53396 -6.02698 0
M  V30 8336 H 1126.14 -2.9313 -7.85914 0
M  V30 8337 H 1124.44 -2.52078 -9.87225 0
M  V30 8338 H 1124.25 -4.75072 -9.05887 0
M  V30 8339 H 1122.62 -4.05202 -8.76577 0
M  V30 8340 H 1121.54 -3.97309 -4.15519 0
M  V30 8341 H 1123.3 -3.36869 -5.72318 0
M  V30 8342 H 1125.36 0.167718 -6.44882 0
M  V30 8343 P 1127.12 -1.25109 -8.70152 0
M  V30 8344 O 1128.54 -1.29744 -9.22016 0
M  V30 8345 O 1126.76 -2.13714 -7.55141 0
M  V30 8346 O 1126.79 0.248149 -8.21425 0
M  V30 8347 C 1126.63 1.22779 -9.30434 0
M  V30 8348 C 1127.17 2.56293 -8.80664 0
M  V30 8349 O 1126.12 3.02979 -8.09349 0
M  V30 8350 C 1128.39 2.57523 -7.89775 0
M  V30 8351 O 1129.13 3.7668 -7.89438 0
M  V30 8352 C 1127.72 2.20997 -6.55446 0
M  V30 8353 O 1128.52 2.71895 -5.48509 0
M  V30 8354 C 1126.39 2.89693 -6.67988 0
M  V30 8355 H 1126.42 3.88793 -6.19859 0
M  V30 8356 H 1127.6 1.12046 -6.44229 0
M  V30 8357 H 1129.09 1.7746 -8.19711 0
M  V30 8358 H 1127.39 3.20706 -9.67112 0
M  V30 8359 H 1127.2 0.901032 -10.1892 0
M  V30 8360 H 1125.57 1.33049 -9.56592 0
M  V30 8361 H 1128.21 3.57847 -5.23962 0
M  V30 8362 P 1130.07 3.65191 -7.99657 0
M  V30 8363 O 1131.49 3.89332 -8.45794 0
M  V30 8364 O 1129.71 2.28472 -7.50807 0
M  V30 8365 O 1129.75 4.64972 -6.77611 0
M  V30 8366 C 1129.59 6.06319 -7.16352 0
M  V30 8367 C 1130.13 6.91731 -6.02299 0
M  V30 8368 O 1129.07 6.92449 -5.17064 0
M  V30 8369 C 1131.34 6.43627 -5.25174 0
M  V30 8370 O 1132.08 7.43686 -4.60469 0
M  V30 8371 C 1130.67 5.40275 -4.31916 0
M  V30 8372 O 1131.47 5.25279 -3.14438 0
M  V30 8373 C 1129.34 6.04847 -4.05327 0
M  V30 8374 H 1129.37 6.62195 -3.11261 0
M  V30 8375 H 1130.55 4.42556 -4.81383 0
M  V30 8376 H 1132.04 5.92458 -5.93643 0
M  V30 8377 H 1130.34 7.92655 -6.402 0
M  V30 8378 H 1130.15 6.26671 -8.0846 0
M  V30 8379 H 1128.52 6.29101 -7.32804 0
M  V30 8380 H 1131.16 5.84315 -2.47318 0
M  V30 8381 P 1133.02 7.39546 -4.75277 0
M  V30 8382 O 1134.44 7.84798 -5.01039 0
M  V30 8383 O 1132.66 5.9812 -5.08098 0
M  V30 8384 O 1132.7 7.57503 -3.1866 0
M  V30 8385 C 1132.54 8.97357 -2.74833 0
M  V30 8386 C 1133.08 9.07548 -1.32709 0
M  V30 8387 O 1132.02 8.62072 -0.606159 0
M  V30 8388 C 1134.29 8.25383 -0.938334 0
M  V30 8389 O 1135.03 8.74577 0.146954 0
M  V30 8390 C 1133.62 6.8802 -0.712559 0
M  V30 8391 O 1134.42 6.1189 0.194655 0
M  V30 8392 C 1132.29 7.27966 -0.139777 0
M  V30 8393 H 1132.32 7.25354 0.961601 0
M  V30 8394 H 1133.5 6.32557 -1.65702 0
M  V30 8395 H 1134.99 8.19355 -1.79097 0
M  V30 8396 H 1133.29 10.1294 -1.10029 0
M  V30 8397 H 1133.1 9.64276 -3.41316 0
M  V30 8398 H 1131.47 9.25417 -2.76357 0
M  V30 8399 H 1134.11 6.25267 1.07847 0
M  V30 8400 P 1135.97 8.791 9.10682e-12 0
M  V30 8401 O 1137.39 9.31196 0.027936 0
M  V30 8402 O 1135.61 7.77869 -1.04071 0
M  V30 8403 O 1135.65 8.09533 1.41463 0
M  V30 8404 C 1135.49 9.03587 2.5397 0
M  V30 8405 C 1136.03 8.35226 3.79016 0
M  V30 8406 O 1134.97 7.57904 4.1503 0
M  V30 8407 C 1137.24 7.45087 3.67298 0
M  V30 8408 O 1137.98 7.27796 4.85194 0
M  V30 8409 C 1136.58 6.17323 3.12027 0
M  V30 8410 O 1137.37 5.04496 3.46627 0
M  V30 8411 C 1135.24 6.19961 3.81809 0
M  V30 8412 N 1134.2 5.71575 2.93223 0
M  V30 8413 C 1134.36 5.77362 1.59168 0
M  V30 8414 N 1133.34 5.3123 0.911893 0
M  V30 8415 C 1132.45 4.91717 1.89588 0
M  V30 8416 C 1131.19 4.3114 1.8076 0
M  V30 8417 N 1130.62 4.06823 3.02898 0
M  V30 8418 C 1131.22 4.35062 4.22711 0
M  V30 8419 N 1132.4 4.90805 4.35707 0
M  V30 8420 C 1132.97 5.16382 3.14469 0
M  V30 8421 H 1136.45 6.21428 2.0318 0
M  V30 8422 H 1137.94 7.86112 2.9231 0
M  V30 8423 H 1136.24 9.11171 4.55987 0
M  V30 8424 H 1136.05 9.9573 2.34194 0
M  V30 8425 H 1134.42 9.2792 2.67832 0
M  V30 8426 H 1135.26 6.16575 1.12198 0
M  V30 8427 H 1137.06 4.67628 4.28704 0
M  V30 8428 P 1138.92 7.39546 4.75277 0
M  V30 8429 O 1140.34 7.81777 5.05738 0
M  V30 8430 O 1138.56 7.1065 3.32998 0
M  V30 8431 O 1138.6 6.04542 5.56673 0
M  V30 8432 C 1138.44 6.22772 7.02095 0
M  V30 8433 C 1138.98 4.97725 7.70406 0
M  V30 8434 O 1137.92 4.13256 7.58987 0
M  V30 8435 C 1140.2 4.28231 7.11815 0
M  V30 8436 O 1140.93 3.49945 8.01648 0
M  V30 8437 C 1139.53 3.5063 5.96244 0
M  V30 8438 O 1140.33 2.36482 5.64681 0
M  V30 8439 C 1138.19 3.15122 6.56374 0
M  V30 8440 H 1138.22 2.13853 6.99751 0
M  V30 8441 H 1139.4 4.13501 5.06559 0
M  V30 8442 H 1140.89 5.03285 6.70911 0
M  V30 8443 H 1139.19 5.20877 8.75697 0
M  V30 8444 H 1139 7.11046 7.35349 0
M  V30 8445 H 1137.37 6.35815 7.26986 0
M  V30 8446 H 1140.01 1.61644 6.13565 0
M  V30 8447 P 1141.87 3.65191 7.99657 0
M  V30 8448 O 1143.29 3.8425 8.48115 0
M  V30 8449 O 1141.51 4.17805 6.64342 0
M  V30 8450 O 1141.55 2.07613 7.95143 0
M  V30 8451 C 1141.39 1.44328 9.27336 0
M  V30 8452 C 1141.93 0.0220036 9.17197 0
M  V30 8453 O 1140.87 -0.626867 8.61923 0
M  V30 8454 C 1143.15 -0.24586 8.30336 0
M  V30 8455 O 1143.88 -1.39011 8.63583 0
M  V30 8456 C 1142.48 -0.273849 6.91158 0
M  V30 8457 O 1143.28 -1.06348 6.02892 0
M  V30 8458 C 1141.14 -0.897649 7.22545 0
M  V30 8459 H 1141.17 -1.9841 7.04286 0
M  V30 8460 H 1142.35 0.739928 6.497 0
M  V30 8461 H 1143.84 0.60668 8.36503 0
M  V30 8462 H 1142.14 -0.352479 10.1829 0
M  V30 8463 H 1141.95 2.00611 10.0304 0
M  V30 8464 H 1140.32 1.41843 9.55327 0
M  V30 8465 H 1142.96 -1.95734 6.03555 0
M  V30 8466 P 1144.82 -1.25109 8.70152 0
M  V30 8467 O 1146.24 -1.35303 9.21419 0
M  V30 8468 O 1144.46 -0.0769065 7.84762 0
M  V30 8469 O 1144.5 -2.55232 7.81161 0
M  V30 8470 C 1144.34 -3.79939 8.58154 0
M  V30 8471 C 1144.88 -4.93969 7.72701 0
M  V30 8472 O 1143.82 -5.18726 6.91205 0
M  V30 8473 C 1146.1 -4.69597 6.85231 0
M  V30 8474 O 1146.83 -5.83832 6.51337 0
M  V30 8475 C 1145.43 -3.96706 5.66633 0
M  V30 8476 O 1146.23 -4.15346 4.49615 0
M  V30 8477 C 1144.09 -4.66153 5.59313 0
M  V30 8478 N 1143.05 -3.71582 5.24027 0
M  V30 8479 C 1143.11 -2.46018 5.67902 0
M  V30 8480 N 1142.06 -1.74868 5.24518 0
M  V30 8481 C 1141.33 -2.61333 4.54528 0
M  V30 8482 C 1140.02 -2.46162 3.95441 0
M  V30 8483 O 1139.29 -1.46013 3.94122 0
M  V30 8484 N 1139.59 -3.59334 3.34752 0
M  V30 8485 C 1140.34 -4.79605 3.3023 0
M  V30 8486 N 1139.75 -5.82109 2.6065 0
M  V30 8487 N 1141.5 -4.97402 3.8843 0
M  V30 8488 C 1141.95 -3.86258 4.50476 0
M  V30 8489 H 1144.12 -5.47679 4.85214 0
M  V30 8490 H 1145.31 -2.88964 5.86476 0
M  V30 8491 H 1146.79 -4.01947 7.36109 0
M  V30 8492 H 1145.1 -5.80182 8.37584 0
M  V30 8493 H 1144.91 -3.73517 9.52265 0
M  V30 8494 H 1143.27 -3.97163 8.80359 0
M  V30 8495 H 1138.7 -3.5825 2.90294 0
M  V30 8496 H 1143.91 -2.06161 6.30974 0
M  V30 8497 H 1138.84 -5.66979 2.15354 0
M  V30 8498 H 1140.21 -6.73686 2.54344 0
M  V30 8499 H 1145.92 -4.90891 4.01857 0
M  V30 8500 P 1147.77 -5.75688 6.64379 0
M  V30 8501 O 1149.19 -6.11981 7.01997 0
M  V30 8502 O 1147.41 -4.30744 6.56026 0
M  V30 8503 O 1147.45 -6.37042 5.19165 0
M  V30 8504 C 1147.29 -7.83578 5.16515 0
M  V30 8505 C 1147.83 -8.33307 3.82977 0
M  V30 8506 O 1146.77 -8.10074 3.01034 0
M  V30 8507 C 1149.05 -7.65514 3.2257 0
M  V30 8508 O 1149.78 -8.4329 2.32297 0
M  V30 8509 C 1148.38 -6.40075 2.62207 0
M  V30 8510 O 1149.18 -5.92492 1.53687 0
M  V30 8511 C 1147.04 -6.9454 2.18503 0
M  V30 8512 N 1146 -5.95905 2.39948 0
M  V30 8513 C 1146.06 -5.13994 3.44742 0
M  V30 8514 N 1145.01 -4.30684 3.46712 0
M  V30 8515 C 1144.28 -4.65583 2.41086 0
M  V30 8516 C 1142.97 -4.20877 1.99581 0
M  V30 8517 O 1142.24 -3.35913 2.52616 0
M  V30 8518 N 1142.54 -4.83271 0.873406 0
M  V30 8519 C 1143.29 -5.82006 0.185129 0
M  V30 8520 N 1142.7 -6.30619 -0.95439 0
M  V30 8521 N 1144.45 -6.28443 0.578524 0
M  V30 8522 C 1144.9 -5.68486 1.70138 0
M  V30 8523 H 1147.07 -7.23063 1.12091 0
M  V30 8524 H 1148.26 -5.60165 3.3715 0
M  V30 8525 H 1149.74 -7.3611 4.01946 0
M  V30 8526 H 1148.05 -9.40912 3.9095 0
M  V30 8527 H 1147.86 -8.29056 5.99158 0
M  V30 8528 H 1146.22 -8.10073 5.25882 0
M  V30 8529 H 1141.65 -4.58323 0.505262 0
M  V30 8530 H 1146.86 -5.14564 4.1935 0
M  V30 8531 H 1141.79 -5.93402 -1.25364 0
M  V30 8532 H 1143.16 -7.0425 -1.50254 0
M  V30 8533 H 1148.87 -6.30224 0.72668 0
M  V30 8534 P 1150.72 -8.4349 2.47671 0
M  V30 8535 O 1152.14 -8.94167 2.5964 0
M  V30 8536 O 1150.36 -7.1704 3.19006 0
M  V30 8537 O 1150.4 -8.16596 0.923387 0
M  V30 8538 C 1150.24 -9.38437 0.108857 0
M  V30 8539 C 1150.78 -9.08175 -1.28353 0
M  V30 8540 O 1149.72 -8.44229 -1.84713 0
M  V30 8541 C 1152 -8.18386 -1.42505 0
M  V30 8542 O 1152.74 -8.3501 -2.60497 0
M  V30 8543 C 1151.33 -6.80225 -1.25468 0
M  V30 8544 O 1152.13 -5.81621 -1.91066 0
M  V30 8545 C 1149.99 -7.02416 -1.9168 0
M  V30 8546 H 1150.02 -6.6888 -2.96621 0
M  V30 8547 H 1151.21 -6.53617 -0.192223 0
M  V30 8548 H 1152.69 -8.36622 -0.589963 0
M  V30 8549 H 1151 -10.0291 -1.79807 0
M  V30 8550 H 1150.81 -10.2138 0.558219 0
M  V30 8551 H 1149.18 -9.6579 0.0444202 0
M  V30 8552 H 1151.82 -5.69556 -2.79637 0
M  V30 8553 P 1153.67 -8.4349 -2.47671 0
M  V30 8554 O 1155.09 -8.92593 -2.65 0
M  V30 8555 O 1153.31 -7.7568 -1.19296 0
M  V30 8556 O 1153.35 -7.36886 -3.63805 0
M  V30 8557 C 1153.19 -7.95349 -4.982 0
M  V30 8558 C 1153.73 -6.94612 -5.98974 0
M  V30 8559 O 1152.67 -6.10347 -6.11815 0
M  V30 8560 C 1154.95 -6.11426 -5.62335 0
M  V30 8561 O 1155.69 -5.6162 -6.70584 0
M  V30 8562 C 1154.28 -5.04409 -4.73308 0
M  V30 8563 O 1155.08 -3.85992 -4.75183 0
M  V30 8564 C 1152.94 -4.8728 -5.41006 0
M  V30 8565 H 1152.97 -4.02333 -6.11157 0
M  V30 8566 H 1154.16 -5.39466 -3.69543 0
M  V30 8567 H 1155.64 -6.71916 -5.01943 0
M  V30 8568 H 1153.95 -7.4649 -6.93477 0
M  V30 8569 H 1153.76 -8.89416 -5.05237 0
M  V30 8570 H 1152.13 -8.14876 -5.18409 0
M  V30 8571 H 1154.77 -3.27957 -5.4317 0
M  V30 8572 P 1156.62 -5.75688 -6.64379 0
M  V30 8573 O 1158.05 -6.07627 -7.05504 0
M  V30 8574 O 1156.26 -5.88047 -5.19722 0
M  V30 8575 O 1156.3 -4.2322 -7.04443 0
M  V30 8576 C 1156.14 -3.99743 -8.4911 0
M  V30 8577 C 1156.68 -2.60516 -8.79425 0
M  V30 8578 O 1155.62 -1.82684 -8.4467 0
M  V30 8579 C 1157.9 -2.10343 -8.03628 0
M  V30 8580 O 1158.64 -1.09919 -8.67766 0
M  V30 8581 C 1157.23 -1.68446 -6.70876 0
M  V30 8582 O 1158.03 -0.678137 -6.08433 0
M  V30 8583 C 1155.89 -1.17436 -7.18567 0
M  V30 8584 H 1155.92 -0.0804732 -7.31656 0
M  V30 8585 H 1157.11 -2.54037 -6.02537 0
M  V30 8586 H 1158.59 -2.93881 -7.85526 0
M  V30 8587 H 1156.9 -2.53065 -9.86973 0
M  V30 8588 H 1156.71 -4.75072 -9.05887 0
M  V30 8589 H 1155.08 -4.05244 -8.76668 0
M  V30 8590 H 1157.72 0.177647 -6.34251 0
M  V30 8591 P 1159.57 -1.25109 -8.70152 0
M  V30 8592 O 1161 -1.29744 -9.22016 0
M  V30 8593 O 1159.21 -2.13714 -7.55141 0
M  V30 8594 O 1159.25 0.248149 -8.21425 0
M  V30 8595 C 1159.09 1.22779 -9.30434 0
M  V30 8596 C 1159.63 2.56293 -8.80664 0
M  V30 8597 O 1158.58 3.02979 -8.09349 0
M  V30 8598 C 1160.85 2.57523 -7.89775 0
M  V30 8599 O 1161.59 3.7668 -7.89438 0
M  V30 8600 C 1160.18 2.20997 -6.55446 0
M  V30 8601 O 1160.98 2.71895 -5.48509 0
M  V30 8602 C 1158.84 2.89693 -6.67988 0
M  V30 8603 H 1158.88 3.88793 -6.19859 0
M  V30 8604 H 1160.06 1.12046 -6.44229 0
M  V30 8605 H 1161.54 1.7746 -8.19711 0
M  V30 8606 H 1159.85 3.20706 -9.67112 0
M  V30 8607 H 1159.66 0.901032 -10.1892 0
M  V30 8608 H 1158.03 1.33049 -9.56592 0
M  V30 8609 H 1160.67 3.57847 -5.23962 0
M  V30 8610 P 1162.52 3.65191 -7.99657 0
M  V30 8611 O 1163.95 3.89332 -8.45794 0
M  V30 8612 O 1162.16 2.28472 -7.50807 0
M  V30 8613 O 1162.2 4.64972 -6.77611 0
M  V30 8614 C 1162.04 6.06319 -7.16352 0
M  V30 8615 C 1162.58 6.91731 -6.02299 0
M  V30 8616 O 1161.53 6.92449 -5.17064 0
M  V30 8617 C 1163.8 6.43627 -5.25174 0
M  V30 8618 O 1164.54 7.43686 -4.60469 0
M  V30 8619 C 1163.13 5.40275 -4.31916 0
M  V30 8620 O 1163.93 5.25279 -3.14438 0
M  V30 8621 C 1161.79 6.04847 -4.05327 0
M  V30 8622 H 1161.83 6.62195 -3.11261 0
M  V30 8623 H 1163.01 4.42556 -4.81383 0
M  V30 8624 H 1164.49 5.92458 -5.93643 0
M  V30 8625 H 1162.8 7.92655 -6.402 0
M  V30 8626 H 1162.61 6.26671 -8.0846 0
M  V30 8627 H 1160.98 6.29101 -7.32804 0
M  V30 8628 H 1163.62 5.84315 -2.47318 0
M  V30 8629 P 1165.48 7.39546 -4.75277 0
M  V30 8630 O 1166.9 7.84798 -5.01039 0
M  V30 8631 O 1165.12 5.9812 -5.08098 0
M  V30 8632 O 1165.15 7.57503 -3.1866 0
M  V30 8633 C 1164.99 8.97357 -2.74833 0
M  V30 8634 C 1165.53 9.07548 -1.32709 0
M  V30 8635 O 1164.48 8.62072 -0.606159 0
M  V30 8636 C 1166.75 8.25383 -0.938334 0
M  V30 8637 O 1167.49 8.74577 0.146954 0
M  V30 8638 C 1166.08 6.8802 -0.712559 0
M  V30 8639 O 1166.88 6.1189 0.194655 0
M  V30 8640 C 1164.74 7.27966 -0.139777 0
M  V30 8641 H 1164.78 7.25354 0.961601 0
M  V30 8642 H 1165.96 6.32557 -1.65702 0
M  V30 8643 H 1167.44 8.19355 -1.79097 0
M  V30 8644 H 1165.75 10.1294 -1.10029 0
M  V30 8645 H 1165.56 9.64276 -3.41316 0
M  V30 8646 H 1163.93 9.25417 -2.76357 0
M  V30 8647 H 1166.57 6.25267 1.07847 0
M  V30 8648 P 1168.43 8.791 9.41699e-12 0
M  V30 8649 O 1169.85 9.31096 0.027933 0
M  V30 8650 O 1168.07 7.77869 -1.04071 0
M  V30 8651 O 1168.1 8.09533 1.41463 0
M  V30 8652 C 1167.94 9.0349 2.53943 0
M  V30 8653 C 1168.48 8.35226 3.79016 0
M  V30 8654 O 1167.43 7.57992 4.15078 0
M  V30 8655 C 1169.7 7.45087 3.67298 0
M  V30 8656 O 1170.44 7.27796 4.85194 0
M  V30 8657 C 1169.03 6.17323 3.12027 0
M  V30 8658 O 1169.83 5.04231 3.47188 0
M  V30 8659 C 1167.69 6.19961 3.81809 0
M  V30 8660 H 1167.73 5.58218 4.73051 0
M  V30 8661 H 1168.91 6.21726 2.02589 0
M  V30 8662 H 1170.39 7.86112 2.9231 0
M  V30 8663 H 1168.7 9.11627 4.55076 0
M  V30 8664 H 1168.51 9.9573 2.34194 0
M  V30 8665 H 1166.88 9.2792 2.67832 0
M  V30 8666 H 1169.52 4.67702 4.28772 0
M  V30 8667 P 1171.38 7.39546 4.75277 0
M  V30 8668 O 1172.8 7.81777 5.05738 0
M  V30 8669 O 1171.02 7.1065 3.32998 0
M  V30 8670 O 1171.05 6.04542 5.56673 0
M  V30 8671 C 1170.89 6.22772 7.02095 0
M  V30 8672 C 1171.43 4.97725 7.70406 0
M  V30 8673 O 1170.38 4.13256 7.58987 0
M  V30 8674 C 1172.65 4.28231 7.11815 0
M  V30 8675 O 1173.39 3.49945 8.01648 0
M  V30 8676 C 1171.98 3.5063 5.96244 0
M  V30 8677 O 1172.78 2.36482 5.64681 0
M  V30 8678 C 1170.65 3.15122 6.56374 0
M  V30 8679 H 1170.68 2.13853 6.99751 0
M  V30 8680 H 1171.86 4.13501 5.06559 0
M  V30 8681 H 1173.34 5.03285 6.70911 0
M  V30 8682 H 1171.65 5.20877 8.75697 0
M  V30 8683 H 1171.46 7.11046 7.35349 0
M  V30 8684 H 1169.83 6.35815 7.26986 0
M  V30 8685 H 1172.47 1.61644 6.13565 0
M  V30 8686 P 1174.33 3.65191 7.99657 0
M  V30 8687 O 1175.75 3.8425 8.48115 0
M  V30 8688 O 1173.97 4.17805 6.64342 0
M  V30 8689 O 1174 2.07613 7.95143 0
M  V30 8690 C 1173.84 1.44328 9.27336 0
M  V30 8691 C 1174.38 0.0220036 9.17197 0
M  V30 8692 O 1173.33 -0.626867 8.61923 0
M  V30 8693 C 1175.6 -0.24586 8.30336 0
M  V30 8694 O 1176.34 -1.39011 8.63583 0
M  V30 8695 C 1174.93 -0.273849 6.91158 0
M  V30 8696 O 1175.73 -1.06348 6.02892 0
M  V30 8697 C 1173.6 -0.897649 7.22545 0
M  V30 8698 H 1173.63 -1.9841 7.04286 0
M  V30 8699 H 1174.81 0.739928 6.497 0
M  V30 8700 H 1176.29 0.60668 8.36503 0
M  V30 8701 H 1174.6 -0.352479 10.1829 0
M  V30 8702 H 1174.41 2.00611 10.0304 0
M  V30 8703 H 1172.78 1.41843 9.55327 0
M  V30 8704 H 1175.42 -1.95734 6.03555 0
M  V30 8705 P 1177.28 -1.25109 8.70152 0
M  V30 8706 O 1178.7 -1.35274 9.21221 0
M  V30 8707 O 1176.92 -0.0769065 7.84762 0
M  V30 8708 O 1176.95 -2.55232 7.81161 0
M  V30 8709 C 1176.79 -3.79939 8.58154 0
M  V30 8710 C 1177.33 -4.94023 7.72785 0
M  V30 8711 O 1176.28 -5.18726 6.91205 0
M  V30 8712 C 1178.55 -4.69597 6.85231 0
M  V30 8713 O 1179.29 -5.83832 6.51337 0
M  V30 8714 C 1177.88 -3.96706 5.66633 0
M  V30 8715 O 1178.68 -4.15414 4.49689 0
M  V30 8716 C 1176.55 -4.66153 5.59313 0
M  V30 8717 H 1176.58 -5.47679 4.85214 0
M  V30 8718 H 1177.76 -2.89008 5.86566 0
M  V30 8719 H 1179.25 -4.0121 7.36511 0
M  V30 8720 H 1177.55 -5.80182 8.37584 0
M  V30 8721 H 1177.36 -3.73517 9.52265 0
M  V30 8722 H 1175.73 -3.97163 8.80359 0
M  V30 8723 H 1178.37 -4.90969 4.01921 0
M  V30 8724 P 1180.23 -5.75688 6.64379 0
M  V30 8725 O 1181.65 -6.11849 7.01846 0
M  V30 8726 O 1179.87 -4.30744 6.56026 0
M  V30 8727 O 1179.9 -6.37042 5.19165 0
M  V30 8728 C 1179.74 -7.83578 5.16515 0
M  V30 8729 C 1180.28 -8.33398 3.83019 0
M  V30 8730 O 1179.23 -8.10074 3.01034 0
M  V30 8731 C 1181.5 -7.65514 3.2257 0
M  V30 8732 O 1182.24 -8.4329 2.32297 0
M  V30 8733 C 1180.83 -6.40075 2.62207 0
M  V30 8734 O 1181.63 -5.92589 1.53712 0
M  V30 8735 C 1179.5 -6.9454 2.18503 0
M  V30 8736 H 1179.53 -7.23063 1.12091 0
M  V30 8737 H 1180.71 -5.6025 3.37201 0
M  V30 8738 H 1182.2 -7.35707 4.02681 0
M  V30 8739 H 1180.5 -9.40912 3.9095 0
M  V30 8740 H 1180.31 -8.29056 5.99158 0
M  V30 8741 H 1178.68 -8.10073 5.25882 0
M  V30 8742 H 1181.32 -6.30324 0.726794 0
M  V30 8743 P 1183.18 -8.4349 2.47671 0
M  V30 8744 O 1184.6 -8.94167 2.5964 0
M  V30 8745 O 1182.82 -7.1704 3.19006 0
M  V30 8746 O 1182.86 -8.16596 0.923387 0
M  V30 8747 C 1182.7 -9.38437 0.108857 0
M  V30 8748 C 1183.24 -9.08175 -1.28353 0
M  V30 8749 O 1182.18 -8.44229 -1.84713 0
M  V30 8750 C 1184.45 -8.18386 -1.42505 0
M  V30 8751 O 1185.19 -8.3501 -2.60497 0
M  V30 8752 C 1183.78 -6.80225 -1.25468 0
M  V30 8753 O 1184.58 -5.81621 -1.91066 0
M  V30 8754 C 1182.45 -7.02416 -1.9168 0
M  V30 8755 H 1182.48 -6.6888 -2.96621 0
M  V30 8756 H 1183.66 -6.53617 -0.192223 0
M  V30 8757 H 1185.15 -8.36622 -0.589963 0
M  V30 8758 H 1183.45 -10.0291 -1.79807 0
M  V30 8759 H 1183.26 -10.2138 0.558219 0
M  V30 8760 H 1181.63 -9.6579 0.0444202 0
M  V30 8761 H 1184.27 -5.69556 -2.79637 0
M  V30 8762 P 1186.13 -8.4349 -2.47671 0
M  V30 8763 O 1187.55 -8.92593 -2.65 0
M  V30 8764 O 1185.77 -7.7568 -1.19296 0
M  V30 8765 O 1185.81 -7.36886 -3.63805 0
M  V30 8766 C 1185.65 -7.95349 -4.982 0
M  V30 8767 C 1186.19 -6.94612 -5.98974 0
M  V30 8768 O 1185.13 -6.10347 -6.11815 0
M  V30 8769 C 1187.4 -6.11426 -5.62335 0
M  V30 8770 O 1188.14 -5.6162 -6.70584 0
M  V30 8771 C 1186.74 -5.04409 -4.73308 0
M  V30 8772 O 1187.53 -3.85992 -4.75183 0
M  V30 8773 C 1185.4 -4.8728 -5.41006 0
M  V30 8774 H 1185.43 -4.02333 -6.11157 0
M  V30 8775 H 1186.61 -5.39466 -3.69543 0
M  V30 8776 H 1188.1 -6.71916 -5.01943 0
M  V30 8777 H 1186.4 -7.4649 -6.93477 0
M  V30 8778 H 1186.21 -8.89416 -5.05237 0
M  V30 8779 H 1184.58 -8.14876 -5.18409 0
M  V30 8780 H 1187.22 -3.27957 -5.4317 0
M  V30 8781 P 1189.08 -5.75688 -6.64379 0
M  V30 8782 O 1190.5 -6.07627 -7.05504 0
M  V30 8783 O 1188.72 -5.88047 -5.19722 0
M  V30 8784 O 1188.76 -4.2322 -7.04443 0
M  V30 8785 C 1188.6 -3.99743 -8.4911 0
M  V30 8786 C 1189.14 -2.60516 -8.79425 0
M  V30 8787 O 1188.08 -1.82684 -8.4467 0
M  V30 8788 C 1190.35 -2.10343 -8.03628 0
M  V30 8789 O 1191.09 -1.09919 -8.67766 0
M  V30 8790 C 1189.69 -1.68446 -6.70876 0
M  V30 8791 O 1190.48 -0.678137 -6.08433 0
M  V30 8792 C 1188.35 -1.17436 -7.18567 0
M  V30 8793 H 1188.38 -0.0804732 -7.31656 0
M  V30 8794 H 1189.56 -2.54037 -6.02537 0
M  V30 8795 H 1191.05 -2.93881 -7.85526 0
M  V30 8796 H 1189.35 -2.53065 -9.86973 0
M  V30 8797 H 1189.16 -4.75072 -9.05887 0
M  V30 8798 H 1187.53 -4.05244 -8.76668 0
M  V30 8799 H 1190.17 0.177647 -6.34251 0
M  V30 8800 P 1192.03 -1.25109 -8.70152 0
M  V30 8801 O 1193.45 -1.29744 -9.22016 0
M  V30 8802 O 1191.67 -2.13714 -7.55141 0
M  V30 8803 O 1191.71 0.248149 -8.21425 0
M  V30 8804 C 1191.55 1.22779 -9.30434 0
M  V30 8805 C 1192.09 2.56293 -8.80664 0
M  V30 8806 O 1191.03 3.02979 -8.09349 0
M  V30 8807 C 1193.31 2.57523 -7.89775 0
M  V30 8808 O 1194.04 3.7668 -7.89438 0
M  V30 8809 C 1192.64 2.20997 -6.55446 0
M  V30 8810 O 1193.44 2.71895 -5.48509 0
M  V30 8811 C 1191.3 2.89693 -6.67988 0
M  V30 8812 H 1191.33 3.88793 -6.19859 0
M  V30 8813 H 1192.51 1.12046 -6.44229 0
M  V30 8814 H 1194 1.7746 -8.19711 0
M  V30 8815 H 1192.3 3.20706 -9.67112 0
M  V30 8816 H 1192.11 0.901032 -10.1892 0
M  V30 8817 H 1190.48 1.33049 -9.56592 0
M  V30 8818 H 1193.12 3.57847 -5.23962 0
M  V30 8819 P 1194.98 3.65191 -7.99657 0
M  V30 8820 O 1196.4 3.89332 -8.45794 0
M  V30 8821 O 1194.62 2.28472 -7.50807 0
M  V30 8822 O 1194.66 4.64972 -6.77611 0
M  V30 8823 C 1194.5 6.06319 -7.16352 0
M  V30 8824 C 1195.04 6.91731 -6.02299 0
M  V30 8825 O 1193.98 6.92449 -5.17064 0
M  V30 8826 C 1196.26 6.43627 -5.25174 0
M  V30 8827 O 1196.99 7.43686 -4.60469 0
M  V30 8828 C 1195.59 5.40275 -4.31916 0
M  V30 8829 O 1196.39 5.25279 -3.14438 0
M  V30 8830 C 1194.25 6.04847 -4.05327 0
M  V30 8831 H 1194.28 6.62195 -3.11261 0
M  V30 8832 H 1195.46 4.42556 -4.81383 0
M  V30 8833 H 1196.95 5.92458 -5.93643 0
M  V30 8834 H 1195.25 7.92655 -6.402 0
M  V30 8835 H 1195.06 6.26671 -8.0846 0
M  V30 8836 H 1193.43 6.29101 -7.32804 0
M  V30 8837 H 1196.07 5.84315 -2.47318 0
M  V30 8838 P 1197.93 7.39546 -4.75277 0
M  V30 8839 O 1199.35 7.84798 -5.01039 0
M  V30 8840 O 1197.57 5.9812 -5.08098 0
M  V30 8841 O 1197.61 7.57503 -3.1866 0
M  V30 8842 C 1197.45 8.97357 -2.74833 0
M  V30 8843 C 1197.99 9.07548 -1.32709 0
M  V30 8844 O 1196.93 8.62072 -0.606159 0
M  V30 8845 C 1199.21 8.25383 -0.938334 0
M  V30 8846 O 1199.94 8.74577 0.146954 0
M  V30 8847 C 1198.54 6.8802 -0.712559 0
M  V30 8848 O 1199.34 6.1189 0.194655 0
M  V30 8849 C 1197.2 7.27966 -0.139777 0
M  V30 8850 H 1197.23 7.25354 0.961601 0
M  V30 8851 H 1198.42 6.32557 -1.65702 0
M  V30 8852 H 1199.9 8.19355 -1.79097 0
M  V30 8853 H 1198.21 10.1294 -1.10029 0
M  V30 8854 H 1198.02 9.64276 -3.41316 0
M  V30 8855 H 1196.39 9.25417 -2.76357 0
M  V30 8856 H 1199.02 6.25267 1.07847 0
M  V30 8857 P 1200.88 8.791 9.72715e-12 0
M  V30 8858 O 1202.3 9.31096 0.027933 0
M  V30 8859 O 1200.52 7.77869 -1.04071 0
M  V30 8860 O 1200.56 8.09533 1.41463 0
M  V30 8861 C 1200.4 9.0349 2.53943 0
M  V30 8862 C 1200.94 8.35226 3.79016 0
M  V30 8863 O 1199.88 7.57992 4.15078 0
M  V30 8864 C 1202.16 7.45087 3.67298 0
M  V30 8865 O 1202.89 7.27796 4.85194 0
M  V30 8866 C 1201.49 6.17323 3.12027 0
M  V30 8867 O 1202.29 5.04231 3.47188 0
M  V30 8868 C 1200.15 6.19961 3.81809 0
M  V30 8869 H 1200.18 5.58218 4.73051 0
M  V30 8870 H 1201.37 6.21726 2.02589 0
M  V30 8871 H 1202.85 7.86112 2.9231 0
M  V30 8872 H 1201.16 9.11627 4.55076 0
M  V30 8873 H 1200.97 9.9573 2.34194 0
M  V30 8874 H 1199.34 9.2792 2.67832 0
M  V30 8875 H 1201.97 4.67702 4.28772 0
M  V30 8876 P 1203.83 7.39546 4.75277 0
M  V30 8877 O 1205.25 7.81777 5.05738 0
M  V30 8878 O 1203.47 7.1065 3.32998 0
M  V30 8879 O 1203.51 6.04542 5.56673 0
M  V30 8880 C 1203.35 6.22772 7.02095 0
M  V30 8881 C 1203.89 4.97725 7.70406 0
M  V30 8882 O 1202.83 4.13256 7.58987 0
M  V30 8883 C 1205.11 4.28231 7.11815 0
M  V30 8884 O 1205.85 3.49945 8.01648 0
M  V30 8885 C 1204.44 3.5063 5.96244 0
M  V30 8886 O 1205.24 2.36482 5.64681 0
M  V30 8887 C 1203.1 3.15122 6.56374 0
M  V30 8888 H 1203.13 2.13853 6.99751 0
M  V30 8889 H 1204.32 4.13501 5.06559 0
M  V30 8890 H 1205.8 5.03285 6.70911 0
M  V30 8891 H 1204.11 5.20877 8.75697 0
M  V30 8892 H 1203.92 7.11046 7.35349 0
M  V30 8893 H 1202.29 6.35815 7.26986 0
M  V30 8894 H 1204.93 1.61644 6.13565 0
M  V30 8895 P 1206.78 3.65191 7.99657 0
M  V30 8896 O 1208.21 3.8425 8.48115 0
M  V30 8897 O 1206.42 4.17805 6.64342 0
M  V30 8898 O 1206.46 2.07613 7.95143 0
M  V30 8899 C 1206.3 1.44328 9.27336 0
M  V30 8900 C 1206.84 0.0220036 9.17197 0
M  V30 8901 O 1205.78 -0.626867 8.61923 0
M  V30 8902 C 1208.06 -0.24586 8.30336 0
M  V30 8903 O 1208.8 -1.39011 8.63583 0
M  V30 8904 C 1207.39 -0.273849 6.91158 0
M  V30 8905 O 1208.19 -1.06348 6.02892 0
M  V30 8906 C 1206.05 -0.897649 7.22545 0
M  V30 8907 H 1206.08 -1.9841 7.04286 0
M  V30 8908 H 1207.27 0.739928 6.497 0
M  V30 8909 H 1208.75 0.60668 8.36503 0
M  V30 8910 H 1207.06 -0.352479 10.1829 0
M  V30 8911 H 1206.87 2.00611 10.0304 0
M  V30 8912 H 1205.24 1.41843 9.55327 0
M  V30 8913 H 1207.88 -1.95734 6.03555 0
M  V30 8914 P 1209.73 -1.25109 8.70152 0
M  V30 8915 O 1211.16 -1.35274 9.21221 0
M  V30 8916 O 1209.37 -0.0769065 7.84762 0
M  V30 8917 O 1209.41 -2.55232 7.81161 0
M  V30 8918 C 1209.25 -3.79939 8.58154 0
M  V30 8919 C 1209.79 -4.94023 7.72785 0
M  V30 8920 O 1208.73 -5.18726 6.91205 0
M  V30 8921 C 1211.01 -4.69597 6.85231 0
M  V30 8922 O 1211.75 -5.83832 6.51337 0
M  V30 8923 C 1210.34 -3.96706 5.66633 0
M  V30 8924 O 1211.14 -4.15414 4.49689 0
M  V30 8925 C 1209 -4.66153 5.59313 0
M  V30 8926 H 1209.03 -5.47679 4.85214 0
M  V30 8927 H 1210.22 -2.89008 5.86566 0
M  V30 8928 H 1211.7 -4.0121 7.36511 0
M  V30 8929 H 1210.01 -5.80182 8.37584 0
M  V30 8930 H 1209.82 -3.73517 9.52265 0
M  V30 8931 H 1208.19 -3.97163 8.80359 0
M  V30 8932 H 1210.83 -4.90969 4.01921 0
M  V30 8933 P 1212.68 -5.75688 6.64379 0
M  V30 8934 O 1214.11 -6.11849 7.01846 0
M  V30 8935 O 1212.32 -4.30744 6.56026 0
M  V30 8936 O 1212.36 -6.37042 5.19165 0
M  V30 8937 C 1212.2 -7.83578 5.16515 0
M  V30 8938 C 1212.74 -8.33398 3.83019 0
M  V30 8939 O 1211.69 -8.10074 3.01034 0
M  V30 8940 C 1213.96 -7.65514 3.2257 0
M  V30 8941 O 1214.7 -8.4329 2.32297 0
M  V30 8942 C 1213.29 -6.40075 2.62207 0
M  V30 8943 O 1214.09 -5.92589 1.53712 0
M  V30 8944 C 1211.95 -6.9454 2.18503 0
M  V30 8945 H 1211.99 -7.23063 1.12091 0
M  V30 8946 H 1213.17 -5.6025 3.37201 0
M  V30 8947 H 1214.65 -7.35707 4.02681 0
M  V30 8948 H 1212.96 -9.40912 3.9095 0
M  V30 8949 H 1212.77 -8.29056 5.99158 0
M  V30 8950 H 1211.14 -8.10073 5.25882 0
M  V30 8951 H 1213.78 -6.30324 0.726794 0
M  V30 8952 P 1215.63 -8.4349 2.47671 0
M  V30 8953 O 1217.04 -8.98227 2.65696 0
M  V30 8954 O 1215.26 -7.20409 3.23964 0
M  V30 8955 O 1215.31 -8.16496 0.923275 0
M  V30 8956 C 1215.15 -9.38437 0.108857 0
M  V30 8957 C 1215.69 -9.08076 -1.28339 0
M  V30 8958 O 1214.64 -8.44131 -1.84692 0
M  V30 8959 C 1216.91 -8.18386 -1.42505 0
M  V30 8960 O 1217.65 -8.3501 -2.60497 0
M  V30 8961 C 1216.24 -6.80225 -1.25468 0
M  V30 8962 O 1217.04 -5.81526 -1.91035 0
M  V30 8963 C 1214.9 -7.02416 -1.9168 0
M  V30 8964 N 1213.86 -6.31033 -1.20314 0
M  V30 8965 C 1212.83 -5.77149 -1.928 0
M  V30 8966 O 1212.86 -5.8521 -3.17729 0
M  V30 8967 N 1211.81 -5.15445 -1.27997 0
M  V30 8968 C 1211.86 -5.04472 0.0534726 0
M  V30 8969 N 1210.85 -4.44183 0.669496 0
M  V30 8970 C 1212.96 -5.55244 0.808522 0
M  V30 8971 C 1213.92 -6.18542 0.13981 0
M  V30 8972 H 1214.94 -6.68789 -2.9658 0
M  V30 8973 H 1216.12 -6.53498 -0.198729 0
M  V30 8974 H 1217.6 -8.36663 -0.5984 0
M  V30 8975 H 1215.91 -10.0273 -1.8081 0
M  V30 8976 H 1215.72 -10.2138 0.558219 0
M  V30 8977 H 1214.09 -9.6569 0.0444156 0
M  V30 8978 H 1213.01 -5.43017 1.88792 0
M  V30 8979 H 1214.77 -6.60539 0.686773 0
M  V30 8980 H 1210.06 -4.07222 0.12057 0
M  V30 8981 H 1210.86 -4.34288 1.69244 0
M  V30 8982 H 1216.82 -5.79638 -2.8315 0
M  V30 8983 P 1218.59 -8.4349 -2.47671 0
M  V30 8984 O 1219.99 -8.99283 -2.62101 0
M  V30 8985 O 1218.21 -7.81195 -1.16947 0
M  V30 8986 O 1218.26 -7.36797 -3.63761 0
M  V30 8987 C 1218.1 -7.95349 -4.982 0
M  V30 8988 C 1218.64 -6.94537 -5.98908 0
M  V30 8989 O 1217.59 -6.10277 -6.11744 0
M  V30 8990 C 1219.86 -6.11426 -5.62335 0
M  V30 8991 O 1220.6 -5.6162 -6.70584 0
M  V30 8992 C 1219.19 -5.04409 -4.73308 0
M  V30 8993 O 1219.99 -3.85929 -4.75106 0
M  V30 8994 C 1217.85 -4.8728 -5.41006 0
M  V30 8995 N 1216.81 -4.65812 -4.42377 0
M  V30 8996 C 1215.78 -3.81293 -4.74224 0
M  V30 8997 O 1215.82 -3.20533 -5.83679 0
M  V30 8998 N 1214.76 -3.6442 -3.86349 0
M  V30 8999 C 1214.81 -4.2728 -2.6824 0
M  V30 9000 C 1215.91 -5.10813 -2.3217 0
M  V30 9001 C 1216.87 -5.27909 -3.22647 0
M  V30 9002 H 1217.89 -4.02278 -6.11074 0
M  V30 9003 H 1219.07 -5.39013 -3.70026 0
M  V30 9004 H 1220.55 -6.71494 -5.02675 0
M  V30 9005 H 1218.86 -7.45796 -6.94223 0
M  V30 9006 H 1218.67 -8.89416 -5.05237 0
M  V30 9007 H 1217.04 -8.14791 -5.18355 0
M  V30 9008 H 1215.96 -5.58884 -1.34755 0
M  V30 9009 H 1217.72 -5.92811 -2.9934 0
M  V30 9010 H 1219.77 -3.3454 -5.51577 0
M  V30 9011 P 1221.54 -5.75688 -6.64379 0
M  V30 9012 O 1222.96 -6.07692 -7.0558 0
M  V30 9013 O 1221.18 -5.88047 -5.19722 0
M  V30 9014 O 1221.21 -4.2322 -7.04443 0
M  V30 9015 C 1221.05 -3.99785 -8.49201 0
M  V30 9016 C 1221.59 -2.60516 -8.79425 0
M  V30 9017 O 1220.54 -1.82663 -8.44573 0
M  V30 9018 C 1222.81 -2.10343 -8.03628 0
M  V30 9019 O 1223.55 -1.09919 -8.67766 0
M  V30 9020 C 1222.14 -1.68446 -6.70876 0
M  V30 9021 O 1222.94 -0.684109 -6.08265 0
M  V30 9022 C 1220.8 -1.17436 -7.18567 0
M  V30 9023 N 1219.76 -1.52699 -6.23988 0
M  V30 9024 C 1219.93 -2.578 -5.40574 0
M  V30 9025 N 1218.9 -2.78966 -4.61193 0
M  V30 9026 C 1218.02 -1.78725 -4.95769 0
M  V30 9027 C 1216.75 -1.45727 -4.44207 0
M  V30 9028 N 1216.19 -0.374977 -5.05812 0
M  V30 9029 C 1216.79 0.345585 -6.05615 0
M  V30 9030 N 1217.97 0.0787651 -6.56253 0
M  V30 9031 C 1218.54 -1.00499 -5.96189 0
M  V30 9032 H 1222.02 -2.53396 -6.02698 0
M  V30 9033 H 1223.5 -2.93881 -7.85526 0
M  V30 9034 H 1221.81 -2.52078 -9.87225 0
M  V30 9035 H 1221.62 -4.75072 -9.05887 0
M  V30 9036 H 1219.99 -4.05244 -8.76668 0
M  V30 9037 H 1220.83 -3.18977 -5.3945 0
M  V30 9038 H 1222.63 0.177619 -6.34151 0
M  V30 9039 P 1224.49 -1.25109 -8.70152 0
M  V30 9040 O 1225.91 -1.29744 -9.22016 0
M  V30 9041 O 1224.13 -2.13714 -7.55141 0
M  V30 9042 O 1224.16 0.248149 -8.21425 0
M  V30 9043 C 1224 1.22779 -9.30434 0
M  V30 9044 C 1224.54 2.56293 -8.80664 0
M  V30 9045 O 1223.49 3.02979 -8.09349 0
M  V30 9046 C 1225.76 2.57523 -7.89775 0
M  V30 9047 O 1226.5 3.7668 -7.89438 0
M  V30 9048 C 1225.09 2.20997 -6.55446 0
M  V30 9049 O 1225.89 2.71895 -5.48509 0
M  V30 9050 C 1223.76 2.89693 -6.67988 0
M  V30 9051 H 1223.79 3.88793 -6.19859 0
M  V30 9052 H 1224.97 1.12046 -6.44229 0
M  V30 9053 H 1226.45 1.7746 -8.19711 0
M  V30 9054 H 1224.76 3.20706 -9.67112 0
M  V30 9055 H 1224.57 0.901032 -10.1892 0
M  V30 9056 H 1222.94 1.33049 -9.56592 0
M  V30 9057 H 1225.58 3.57847 -5.23962 0
M  V30 9058 P 1227.44 3.65191 -7.99657 0
M  V30 9059 O 1228.86 3.89332 -8.45794 0
M  V30 9060 O 1227.08 2.28472 -7.50807 0
M  V30 9061 O 1227.11 4.64972 -6.77611 0
M  V30 9062 C 1226.95 6.06319 -7.16352 0
M  V30 9063 C 1227.49 6.91731 -6.02299 0
M  V30 9064 O 1226.44 6.92449 -5.17064 0
M  V30 9065 C 1228.71 6.43627 -5.25174 0
M  V30 9066 O 1229.45 7.43686 -4.60469 0
M  V30 9067 C 1228.04 5.40275 -4.31916 0
M  V30 9068 O 1228.84 5.25279 -3.14438 0
M  V30 9069 C 1226.71 6.04847 -4.05327 0
M  V30 9070 H 1226.74 6.62195 -3.11261 0
M  V30 9071 H 1227.92 4.42556 -4.81383 0
M  V30 9072 H 1229.41 5.92458 -5.93643 0
M  V30 9073 H 1227.71 7.92655 -6.402 0
M  V30 9074 H 1227.52 6.26671 -8.0846 0
M  V30 9075 H 1225.89 6.29101 -7.32804 0
M  V30 9076 H 1228.53 5.84315 -2.47318 0
M  V30 9077 P 1230.39 7.39546 -4.75277 0
M  V30 9078 O 1231.79 7.86988 -5.07993 0
M  V30 9079 O 1230.01 5.99957 -5.13804 0
M  V30 9080 O 1230.06 7.57411 -3.18621 0
M  V30 9081 C 1229.9 8.97357 -2.74833 0
M  V30 9082 C 1230.44 9.0745 -1.32694 0
M  V30 9083 O 1229.39 8.61972 -0.606089 0
M  V30 9084 C 1231.66 8.25383 -0.938334 0
M  V30 9085 O 1232.4 8.74577 0.146954 0
M  V30 9086 C 1230.99 6.8802 -0.712559 0
M  V30 9087 O 1231.79 6.11791 0.194623 0
M  V30 9088 C 1229.66 7.27966 -0.139777 0
M  V30 9089 N 1228.61 6.39368 -0.623421 0
M  V30 9090 C 1227.58 6.08088 0.223886 0
M  V30 9091 O 1227.62 6.5102 1.39986 0
M  V30 9092 N 1226.57 5.30627 -0.224051 0
M  V30 9093 C 1226.61 4.82531 -1.47257 0
M  V30 9094 C 1227.71 5.09974 -2.34008 0
M  V30 9095 C 1228.68 5.89548 -1.87678 0
M  V30 9096 H 1229.69 7.25255 0.961469 0
M  V30 9097 H 1230.87 6.32625 -1.65044 0
M  V30 9098 H 1232.36 8.19631 -1.78299 0
M  V30 9099 H 1230.66 10.1305 -1.09016 0
M  V30 9100 H 1230.47 9.64276 -3.41316 0
M  V30 9101 H 1228.84 9.25321 -2.76328 0
M  V30 9102 H 1227.76 4.67832 -3.3413 0
M  V30 9103 H 1229.52 6.14434 -2.51991 0
M  V30 9104 H 1231.58 6.35931 1.08377 0
M  V30 9105 P 1233.34 8.791 1.00373e-11 0
M  V30 9106 O 1234.76 9.31196 0.027936 0
M  V30 9107 O 1232.98 7.77869 -1.04071 0
M  V30 9108 O 1233.02 8.09533 1.41463 0
M  V30 9109 C 1232.85 9.03587 2.5397 0
M  V30 9110 C 1233.4 8.35226 3.79016 0
M  V30 9111 O 1232.34 7.57904 4.1503 0
M  V30 9112 C 1234.61 7.45087 3.67298 0
M  V30 9113 O 1235.35 7.27796 4.85194 0
M  V30 9114 C 1233.95 6.17323 3.12027 0
M  V30 9115 O 1234.74 5.04496 3.46627 0
M  V30 9116 C 1232.61 6.19961 3.81809 0
M  V30 9117 N 1231.56 5.71575 2.93223 0
M  V30 9118 C 1231.73 5.77362 1.59168 0
M  V30 9119 N 1230.71 5.3123 0.911893 0
M  V30 9120 C 1229.82 4.91717 1.89588 0
M  V30 9121 C 1228.55 4.3114 1.8076 0
M  V30 9122 N 1227.99 4.06823 3.02898 0
M  V30 9123 C 1228.59 4.35062 4.22711 0
M  V30 9124 N 1229.77 4.90805 4.35707 0
M  V30 9125 C 1230.34 5.16382 3.14469 0
M  V30 9126 H 1233.82 6.21428 2.0318 0
M  V30 9127 H 1235.31 7.86112 2.9231 0
M  V30 9128 H 1233.61 9.11171 4.55987 0
M  V30 9129 H 1233.42 9.9573 2.34194 0
M  V30 9130 H 1231.79 9.2792 2.67832 0
M  V30 9131 H 1232.63 6.16575 1.12198 0
M  V30 9132 H 1234.43 4.67628 4.28704 0
M  V30 9133 P 1236.29 7.39546 4.75277 0
M  V30 9134 O 1237.71 7.81777 5.05738 0
M  V30 9135 O 1235.93 7.1065 3.32998 0
M  V30 9136 O 1235.97 6.04542 5.56673 0
M  V30 9137 C 1235.81 6.22772 7.02095 0
M  V30 9138 C 1236.35 4.97725 7.70406 0
M  V30 9139 O 1235.29 4.13256 7.58987 0
M  V30 9140 C 1237.56 4.28231 7.11815 0
M  V30 9141 O 1238.3 3.49945 8.01648 0
M  V30 9142 C 1236.89 3.5063 5.96244 0
M  V30 9143 O 1237.69 2.36482 5.64681 0
M  V30 9144 C 1235.56 3.15122 6.56374 0
M  V30 9145 H 1235.59 2.13853 6.99751 0
M  V30 9146 H 1236.77 4.13501 5.06559 0
M  V30 9147 H 1238.26 5.03285 6.70911 0
M  V30 9148 H 1236.56 5.20877 8.75697 0
M  V30 9149 H 1236.37 7.11046 7.35349 0
M  V30 9150 H 1234.74 6.35815 7.26986 0
M  V30 9151 H 1237.38 1.61644 6.13565 0
M  V30 9152 P 1239.24 3.65191 7.99657 0
M  V30 9153 O 1240.66 3.8425 8.48115 0
M  V30 9154 O 1238.88 4.17805 6.64342 0
M  V30 9155 O 1238.92 2.07613 7.95143 0
M  V30 9156 C 1238.76 1.44328 9.27336 0
M  V30 9157 C 1239.3 0.0220036 9.17197 0
M  V30 9158 O 1238.24 -0.626867 8.61923 0
M  V30 9159 C 1240.51 -0.24586 8.30336 0
M  V30 9160 O 1241.25 -1.39011 8.63583 0
M  V30 9161 C 1239.85 -0.273849 6.91158 0
M  V30 9162 O 1240.64 -1.06348 6.02892 0
M  V30 9163 C 1238.51 -0.897649 7.22545 0
M  V30 9164 H 1238.54 -1.9841 7.04286 0
M  V30 9165 H 1239.72 0.739928 6.497 0
M  V30 9166 H 1241.21 0.60668 8.36503 0
M  V30 9167 H 1239.51 -0.352479 10.1829 0
M  V30 9168 H 1239.32 2.00611 10.0304 0
M  V30 9169 H 1237.69 1.41843 9.55327 0
M  V30 9170 H 1240.33 -1.95734 6.03555 0
M  V30 9171 P 1242.19 -1.25109 8.70152 0
M  V30 9172 O 1243.61 -1.35274 9.21221 0
M  V30 9173 O 1241.83 -0.0769065 7.84762 0
M  V30 9174 O 1241.87 -2.55232 7.81161 0
M  V30 9175 C 1241.71 -3.79939 8.58154 0
M  V30 9176 C 1242.25 -4.94023 7.72785 0
M  V30 9177 O 1241.19 -5.18726 6.91205 0
M  V30 9178 C 1243.46 -4.69597 6.85231 0
M  V30 9179 O 1244.2 -5.83832 6.51337 0
M  V30 9180 C 1242.8 -3.96706 5.66633 0
M  V30 9181 O 1243.59 -4.15414 4.49689 0
M  V30 9182 C 1241.46 -4.66153 5.59313 0
M  V30 9183 H 1241.49 -5.47679 4.85214 0
M  V30 9184 H 1242.67 -2.89008 5.86566 0
M  V30 9185 H 1244.16 -4.0121 7.36511 0
M  V30 9186 H 1242.46 -5.80182 8.37584 0
M  V30 9187 H 1242.27 -3.73517 9.52265 0
M  V30 9188 H 1240.64 -3.97163 8.80359 0
M  V30 9189 H 1243.28 -4.90969 4.01921 0
M  V30 9190 P 1245.14 -5.75688 6.64379 0
M  V30 9191 O 1246.56 -6.11915 7.01921 0
M  V30 9192 O 1244.78 -4.30744 6.56026 0
M  V30 9193 O 1244.82 -6.37042 5.19165 0
M  V30 9194 C 1244.66 -7.83662 5.1657 0
M  V30 9195 C 1245.2 -8.33398 3.83019 0
M  V30 9196 O 1244.14 -8.0998 3.00999 0
M  V30 9197 C 1246.42 -7.65514 3.2257 0
M  V30 9198 O 1247.15 -8.4329 2.32297 0
M  V30 9199 C 1245.75 -6.40075 2.62207 0
M  V30 9200 O 1246.55 -5.92338 1.5428 0
M  V30 9201 C 1244.41 -6.9454 2.18503 0
M  V30 9202 N 1243.37 -5.95905 2.39948 0
M  V30 9203 C 1243.54 -4.98383 3.32108 0
M  V30 9204 N 1242.51 -4.16798 3.41761 0
M  V30 9205 C 1241.62 -4.65287 2.47461 0
M  V30 9206 C 1240.36 -4.18946 2.07461 0
M  V30 9207 N 1239.79 -4.95327 1.09101 0
M  V30 9208 C 1240.39 -6.04369 0.519812 0
M  V30 9209 N 1241.57 -6.50694 0.855982 0
M  V30 9210 C 1242.15 -5.75818 1.84322 0
M  V30 9211 H 1245.62 -5.60502 3.36589 0
M  V30 9212 H 1247.11 -7.35707 4.02681 0
M  V30 9213 H 1245.41 -9.41302 3.90009 0
M  V30 9214 H 1245.22 -8.29056 5.99158 0
M  V30 9215 H 1243.59 -8.10073 5.25882 0
M  V30 9216 H 1244.44 -4.88564 3.92502 0
M  V30 9217 H 1246.23 -6.30224 0.72668 0
M  V30 9218 P 1248.09 -8.4349 2.47671 0
M  V30 9219 O 1249.51 -8.94167 2.5964 0
M  V30 9220 O 1247.73 -7.1704 3.19006 0
M  V30 9221 O 1247.77 -8.16596 0.923387 0
M  V30 9222 C 1247.61 -9.38437 0.108857 0
M  V30 9223 C 1248.15 -9.08175 -1.28353 0
M  V30 9224 O 1247.09 -8.44229 -1.84713 0
M  V30 9225 C 1249.37 -8.18386 -1.42505 0
M  V30 9226 O 1250.1 -8.3501 -2.60497 0
M  V30 9227 C 1248.7 -6.80225 -1.25468 0
M  V30 9228 O 1249.5 -5.81621 -1.91066 0
M  V30 9229 C 1247.36 -7.02416 -1.9168 0
M  V30 9230 H 1247.39 -6.6888 -2.96621 0
M  V30 9231 H 1248.58 -6.53617 -0.192223 0
M  V30 9232 H 1250.06 -8.36622 -0.589963 0
M  V30 9233 H 1248.37 -10.0291 -1.79807 0
M  V30 9234 H 1248.18 -10.2138 0.558219 0
M  V30 9235 H 1246.55 -9.6579 0.0444202 0
M  V30 9236 H 1249.18 -5.69556 -2.79637 0
M  V30 9237 P 1251.04 -8.4349 -2.47671 0
M  V30 9238 O 1252.46 -8.92593 -2.65 0
M  V30 9239 O 1250.68 -7.7568 -1.19296 0
M  V30 9240 O 1250.72 -7.36886 -3.63805 0
M  V30 9241 C 1250.56 -7.95349 -4.982 0
M  V30 9242 C 1251.1 -6.94612 -5.98974 0
M  V30 9243 O 1250.04 -6.10347 -6.11815 0
M  V30 9244 C 1252.32 -6.11426 -5.62335 0
M  V30 9245 O 1253.05 -5.6162 -6.70584 0
M  V30 9246 C 1251.65 -5.04409 -4.73308 0
M  V30 9247 O 1252.45 -3.85992 -4.75183 0
M  V30 9248 C 1250.31 -4.8728 -5.41006 0
M  V30 9249 H 1250.34 -4.02333 -6.11157 0
M  V30 9250 H 1251.53 -5.39466 -3.69543 0
M  V30 9251 H 1253.01 -6.71916 -5.01943 0
M  V30 9252 H 1251.32 -7.4649 -6.93477 0
M  V30 9253 H 1251.13 -8.89416 -5.05237 0
M  V30 9254 H 1249.5 -8.14876 -5.18409 0
M  V30 9255 H 1252.13 -3.27957 -5.4317 0
M  V30 9256 P 1253.99 -5.75688 -6.64379 0
M  V30 9257 O 1255.41 -6.07627 -7.05504 0
M  V30 9258 O 1253.63 -5.88047 -5.19722 0
M  V30 9259 O 1253.67 -4.2322 -7.04443 0
M  V30 9260 C 1253.51 -3.99743 -8.4911 0
M  V30 9261 C 1254.05 -2.60516 -8.79425 0
M  V30 9262 O 1252.99 -1.82684 -8.4467 0
M  V30 9263 C 1255.27 -2.10343 -8.03628 0
M  V30 9264 O 1256.01 -1.09919 -8.67766 0
M  V30 9265 C 1254.6 -1.68446 -6.70876 0
M  V30 9266 O 1255.4 -0.678137 -6.08433 0
M  V30 9267 C 1253.26 -1.17436 -7.18567 0
M  V30 9268 H 1253.29 -0.0804732 -7.31656 0
M  V30 9269 H 1254.48 -2.54037 -6.02537 0
M  V30 9270 H 1255.96 -2.93881 -7.85526 0
M  V30 9271 H 1254.27 -2.53065 -9.86973 0
M  V30 9272 H 1254.08 -4.75072 -9.05887 0
M  V30 9273 H 1252.45 -4.05244 -8.76668 0
M  V30 9274 H 1255.09 0.177647 -6.34251 0
M  V30 9275 P 1256.94 -1.25109 -8.70152 0
M  V30 9276 O 1258.36 -1.29744 -9.22016 0
M  V30 9277 O 1256.58 -2.13714 -7.55141 0
M  V30 9278 O 1256.62 0.248149 -8.21425 0
M  V30 9279 C 1256.46 1.22779 -9.30434 0
M  V30 9280 C 1257 2.56293 -8.80664 0
M  V30 9281 O 1255.94 3.02979 -8.09349 0
M  V30 9282 C 1258.22 2.57523 -7.89775 0
M  V30 9283 O 1258.96 3.7668 -7.89438 0
M  V30 9284 C 1257.55 2.20997 -6.55446 0
M  V30 9285 O 1258.35 2.71895 -5.48509 0
M  V30 9286 C 1256.21 2.89693 -6.67988 0
M  V30 9287 H 1256.24 3.88793 -6.19859 0
M  V30 9288 H 1257.43 1.12046 -6.44229 0
M  V30 9289 H 1258.91 1.7746 -8.19711 0
M  V30 9290 H 1257.22 3.20706 -9.67112 0
M  V30 9291 H 1257.03 0.901032 -10.1892 0
M  V30 9292 H 1255.4 1.33049 -9.56592 0
M  V30 9293 H 1258.04 3.57847 -5.23962 0
M  V30 9294 P 1259.89 3.65191 -7.99657 0
M  V30 9295 O 1261.31 3.89374 -8.45885 0
M  V30 9296 O 1259.53 2.28472 -7.50807 0
M  V30 9297 O 1259.57 4.64972 -6.77611 0
M  V30 9298 C 1259.41 6.06383 -7.16428 0
M  V30 9299 C 1259.95 6.91731 -6.02299 0
M  V30 9300 O 1258.9 6.92369 -5.17005 0
M  V30 9301 C 1261.17 6.43627 -5.25174 0
M  V30 9302 O 1261.91 7.43686 -4.60469 0
M  V30 9303 C 1260.5 5.40275 -4.31916 0
M  V30 9304 O 1261.3 5.24878 -3.14911 0
M  V30 9305 C 1259.16 6.04847 -4.05327 0
M  V30 9306 N 1258.12 5.04166 -3.98114 0
M  V30 9307 C 1258.29 3.84629 -4.59066 0
M  V30 9308 N 1257.26 3.0363 -4.45343 0
M  V30 9309 C 1256.38 3.76722 -3.68523 0
M  V30 9310 C 1255.11 3.43528 -3.17088 0
M  V30 9311 N 1254.54 4.44526 -2.44231 0
M  V30 9312 C 1255.15 5.65243 -2.20146 0
M  V30 9313 N 1256.32 6.00221 -2.65453 0
M  V30 9314 C 1256.9 5.00564 -3.39083 0
M  V30 9315 H 1260.38 4.42969 -4.80867 0
M  V30 9316 H 1261.86 5.92458 -5.93643 0
M  V30 9317 H 1260.17 7.93295 -6.39407 0
M  V30 9318 H 1259.98 6.26671 -8.0846 0
M  V30 9319 H 1258.35 6.29101 -7.32804 0
M  V30 9320 H 1259.19 3.58193 -5.14248 0
M  V30 9321 H 1260.99 5.84223 -2.47279 0
M  V30 9322 P 1262.84 7.39546 -4.75277 0
M  V30 9323 O 1264.27 7.84798 -5.01039 0
M  V30 9324 O 1262.48 5.9812 -5.08098 0
M  V30 9325 O 1262.52 7.57503 -3.1866 0
M  V30 9326 C 1262.36 8.97357 -2.74833 0
M  V30 9327 C 1262.9 9.07548 -1.32709 0
M  V30 9328 O 1261.84 8.62072 -0.606159 0
M  V30 9329 C 1264.12 8.25383 -0.938334 0
M  V30 9330 O 1264.86 8.74577 0.146954 0
M  V30 9331 C 1263.45 6.8802 -0.712559 0
M  V30 9332 O 1264.25 6.1189 0.194655 0
M  V30 9333 C 1262.11 7.27966 -0.139777 0
M  V30 9334 H 1262.14 7.25354 0.961601 0
M  V30 9335 H 1263.33 6.32557 -1.65702 0
M  V30 9336 H 1264.81 8.19355 -1.79097 0
M  V30 9337 H 1263.12 10.1294 -1.10029 0
M  V30 9338 H 1262.93 9.64276 -3.41316 0
M  V30 9339 H 1261.3 9.25417 -2.76357 0
M  V30 9340 H 1263.94 6.25267 1.07847 0
M  V30 9341 P 1265.79 8.791 1.03475e-11 0
M  V30 9342 O 1267.22 9.31096 0.027933 0
M  V30 9343 O 1265.43 7.77869 -1.04071 0
M  V30 9344 O 1265.47 8.09533 1.41463 0
M  V30 9345 C 1265.31 9.0349 2.53943 0
M  V30 9346 C 1265.85 8.35226 3.79016 0
M  V30 9347 O 1264.8 7.57992 4.15078 0
M  V30 9348 C 1267.07 7.45087 3.67298 0
M  V30 9349 O 1267.81 7.27796 4.85194 0
M  V30 9350 C 1266.4 6.17323 3.12027 0
M  V30 9351 O 1267.2 5.04231 3.47188 0
M  V30 9352 C 1265.06 6.19961 3.81809 0
M  V30 9353 H 1265.1 5.58218 4.73051 0
M  V30 9354 H 1266.28 6.21726 2.02589 0
M  V30 9355 H 1267.76 7.86112 2.9231 0
M  V30 9356 H 1266.07 9.11627 4.55076 0
M  V30 9357 H 1265.88 9.9573 2.34194 0
M  V30 9358 H 1264.25 9.2792 2.67832 0
M  V30 9359 H 1266.89 4.67702 4.28772 0
M  V30 9360 P 1268.75 7.39546 4.75277 0
M  V30 9361 O 1270.17 7.81861 5.05793 0
M  V30 9362 O 1268.39 7.1065 3.32998 0
M  V30 9363 O 1268.42 6.04542 5.56673 0
M  V30 9364 C 1268.26 6.22839 7.02169 0
M  V30 9365 C 1268.8 4.97725 7.70406 0
M  V30 9366 O 1267.75 4.13208 7.58899 0
M  V30 9367 C 1270.02 4.28231 7.11815 0
M  V30 9368 O 1270.76 3.49945 8.01648 0
M  V30 9369 C 1269.35 3.5063 5.96244 0
M  V30 9370 O 1270.15 2.37008 5.64352 0
M  V30 9371 C 1268.01 3.15122 6.56374 0
M  V30 9372 N 1266.97 3.22311 5.55692 0
M  V30 9373 C 1267.14 3.99655 4.46046 0
M  V30 9374 N 1266.11 3.97599 3.63918 0
M  V30 9375 C 1265.23 3.11159 4.25334 0
M  V30 9376 C 1263.96 2.64972 3.85157 0
M  V30 9377 N 1263.4 1.78482 4.74759 0
M  V30 9378 C 1264 1.37463 5.90819 0
M  V30 9379 N 1265.18 1.7733 6.31889 0
M  V30 9380 C 1265.75 2.64393 5.43725 0
M  V30 9381 H 1269.23 4.12931 5.06895 0
M  V30 9382 H 1270.71 5.03285 6.70911 0
M  V30 9383 H 1269.02 5.20001 8.76217 0
M  V30 9384 H 1268.83 7.11046 7.35349 0
M  V30 9385 H 1267.2 6.35815 7.26986 0
M  V30 9386 H 1268.04 4.58037 4.27732 0
M  V30 9387 H 1269.84 1.61619 6.13468 0
M  V30 9388 P 1271.7 3.65191 7.99657 0
M  V30 9389 O 1273.12 3.8425 8.48115 0
M  V30 9390 O 1271.34 4.17805 6.64342 0
M  V30 9391 O 1271.37 2.07613 7.95143 0
M  V30 9392 C 1271.21 1.44328 9.27336 0
M  V30 9393 C 1271.75 0.0220036 9.17197 0
M  V30 9394 O 1270.7 -0.626867 8.61923 0
M  V30 9395 C 1272.97 -0.24586 8.30336 0
M  V30 9396 O 1273.71 -1.39011 8.63583 0
M  V30 9397 C 1272.3 -0.273849 6.91158 0
M  V30 9398 O 1273.1 -1.06348 6.02892 0
M  V30 9399 C 1270.96 -0.897649 7.22545 0
M  V30 9400 H 1271 -1.9841 7.04286 0
M  V30 9401 H 1272.18 0.739928 6.497 0
M  V30 9402 H 1273.66 0.60668 8.36503 0
M  V30 9403 H 1271.97 -0.352479 10.1829 0
M  V30 9404 H 1271.78 2.00611 10.0304 0
M  V30 9405 H 1270.15 1.41843 9.55327 0
M  V30 9406 H 1272.79 -1.95734 6.03555 0
M  V30 9407 P 1274.65 -1.25109 8.70152 0
M  V30 9408 O 1276.07 -1.35274 9.21221 0
M  V30 9409 O 1274.29 -0.0769065 7.84762 0
M  V30 9410 O 1274.32 -2.55232 7.81161 0
M  V30 9411 C 1274.16 -3.79939 8.58154 0
M  V30 9412 C 1274.7 -4.94023 7.72785 0
M  V30 9413 O 1273.65 -5.18726 6.91205 0
M  V30 9414 C 1275.92 -4.69597 6.85231 0
M  V30 9415 O 1276.66 -5.83832 6.51337 0
M  V30 9416 C 1275.25 -3.96706 5.66633 0
M  V30 9417 O 1276.05 -4.15414 4.49689 0
M  V30 9418 C 1273.92 -4.66153 5.59313 0
M  V30 9419 H 1273.95 -5.47679 4.85214 0
M  V30 9420 H 1275.13 -2.89008 5.86566 0
M  V30 9421 H 1276.61 -4.0121 7.36511 0
M  V30 9422 H 1274.92 -5.80182 8.37584 0
M  V30 9423 H 1274.73 -3.73517 9.52265 0
M  V30 9424 H 1273.1 -3.97163 8.80359 0
M  V30 9425 H 1275.74 -4.90969 4.01921 0
M  V30 9426 P 1277.6 -5.75688 6.64379 0
M  V30 9427 O 1279.02 -6.11849 7.01846 0
M  V30 9428 O 1277.24 -4.30744 6.56026 0
M  V30 9429 O 1277.27 -6.37042 5.19165 0
M  V30 9430 C 1277.11 -7.83578 5.16515 0
M  V30 9431 C 1277.65 -8.33398 3.83019 0
M  V30 9432 O 1276.6 -8.10074 3.01034 0
M  V30 9433 C 1278.87 -7.65514 3.2257 0
M  V30 9434 O 1279.61 -8.4329 2.32297 0
M  V30 9435 C 1278.2 -6.40075 2.62207 0
M  V30 9436 O 1279 -5.92589 1.53712 0
M  V30 9437 C 1276.87 -6.9454 2.18503 0
M  V30 9438 H 1276.9 -7.23063 1.12091 0
M  V30 9439 H 1278.08 -5.6025 3.37201 0
M  V30 9440 H 1279.56 -7.35707 4.02681 0
M  V30 9441 H 1277.87 -9.40912 3.9095 0
M  V30 9442 H 1277.68 -8.29056 5.99158 0
M  V30 9443 H 1276.05 -8.10073 5.25882 0
M  V30 9444 H 1278.69 -6.30324 0.726794 0
M  V30 9445 P 1280.55 -8.4349 2.47671 0
M  V30 9446 O 1281.97 -8.94167 2.5964 0
M  V30 9447 O 1280.19 -7.1704 3.19006 0
M  V30 9448 O 1280.22 -8.16596 0.923387 0
M  V30 9449 C 1280.06 -9.38437 0.108857 0
M  V30 9450 C 1280.6 -9.08175 -1.28353 0
M  V30 9451 O 1279.55 -8.44229 -1.84713 0
M  V30 9452 C 1281.82 -8.18386 -1.42505 0
M  V30 9453 O 1282.56 -8.3501 -2.60497 0
M  V30 9454 C 1281.15 -6.80225 -1.25468 0
M  V30 9455 O 1281.95 -5.81621 -1.91066 0
M  V30 9456 C 1279.82 -7.02416 -1.9168 0
M  V30 9457 H 1279.85 -6.6888 -2.96621 0
M  V30 9458 H 1281.03 -6.53617 -0.192223 0
M  V30 9459 H 1282.52 -8.36622 -0.589963 0
M  V30 9460 H 1280.82 -10.0291 -1.79807 0
M  V30 9461 H 1280.63 -10.2138 0.558219 0
M  V30 9462 H 1279 -9.6579 0.0444202 0
M  V30 9463 H 1281.64 -5.69556 -2.79637 0
M  V30 9464 P 1283.5 -8.4349 -2.47671 0
M  V30 9465 O 1284.92 -8.92689 -2.65029 0
M  V30 9466 O 1283.14 -7.7568 -1.19296 0
M  V30 9467 O 1283.17 -7.36886 -3.63805 0
M  V30 9468 C 1283.01 -7.95433 -4.98253 0
M  V30 9469 C 1283.55 -6.94612 -5.98974 0
M  V30 9470 O 1282.5 -6.10277 -6.11744 0
M  V30 9471 C 1284.77 -6.11426 -5.62335 0
M  V30 9472 O 1285.51 -5.6162 -6.70584 0
M  V30 9473 C 1284.1 -5.04409 -4.73308 0
M  V30 9474 O 1284.9 -3.86404 -4.74719 0
M  V30 9475 C 1282.77 -4.8728 -5.41006 0
M  V30 9476 N 1281.72 -4.65812 -4.42377 0
M  V30 9477 C 1281.89 -5.09132 -3.15382 0
M  V30 9478 N 1280.87 -4.84021 -2.3716 0
M  V30 9479 C 1279.98 -4.18386 -3.20441 0
M  V30 9480 C 1278.71 -3.6275 -2.94905 0
M  V30 9481 N 1278.11 -3.65794 -1.73372 0
M  V30 9482 N 1278.15 -3.05008 -4.05243 0
M  V30 9483 C 1278.75 -2.98348 -5.28159 0
M  V30 9484 N 1279.93 -3.48171 -5.56333 0
M  V30 9485 C 1280.5 -4.06869 -4.47212 0
M  V30 9486 H 1282.8 -4.02278 -6.11074 0
M  V30 9487 H 1283.98 -5.39013 -3.70026 0
M  V30 9488 H 1285.46 -6.71916 -5.01943 0
M  V30 9489 H 1283.77 -7.45796 -6.94223 0
M  V30 9490 H 1283.58 -8.89416 -5.05237 0
M  V30 9491 H 1281.95 -8.14876 -5.18409 0
M  V30 9492 H 1278.21 -2.47853 -6.07807 0
M  V30 9493 H 1282.79 -5.59989 -2.81362 0
M  V30 9494 H 1277.18 -3.23218 -1.60782 0
M  V30 9495 H 1278.59 -4.10523 -0.937856 0
M  V30 9496 H 1284.59 -3.27906 -5.43085 0
M  V30 9497 P 1286.45 -5.75688 -6.64379 0
M  V30 9498 O 1287.87 -6.07627 -7.05504 0
M  V30 9499 O 1286.09 -5.88047 -5.19722 0
M  V30 9500 O 1286.13 -4.2322 -7.04443 0
M  V30 9501 C 1285.97 -3.99743 -8.4911 0
M  V30 9502 C 1286.51 -2.60516 -8.79425 0
M  V30 9503 O 1285.45 -1.82684 -8.4467 0
M  V30 9504 C 1287.72 -2.10343 -8.03628 0
M  V30 9505 O 1288.46 -1.09919 -8.67766 0
M  V30 9506 C 1287.05 -1.68446 -6.70876 0
M  V30 9507 O 1287.85 -0.678137 -6.08433 0
M  V30 9508 C 1285.72 -1.17436 -7.18567 0
M  V30 9509 H 1285.75 -0.0804732 -7.31656 0
M  V30 9510 H 1286.93 -2.54037 -6.02537 0
M  V30 9511 H 1288.42 -2.93881 -7.85526 0
M  V30 9512 H 1286.72 -2.53065 -9.86973 0
M  V30 9513 H 1286.53 -4.75072 -9.05887 0
M  V30 9514 H 1284.9 -4.05244 -8.76668 0
M  V30 9515 H 1287.54 0.177647 -6.34251 0
M  V30 9516 P 1289.4 -1.25109 -8.70152 0
M  V30 9517 O 1290.82 -1.29744 -9.22016 0
M  V30 9518 O 1289.04 -2.13714 -7.55141 0
M  V30 9519 O 1289.08 0.248149 -8.21425 0
M  V30 9520 C 1288.92 1.22779 -9.30434 0
M  V30 9521 C 1289.46 2.56293 -8.80664 0
M  V30 9522 O 1288.4 3.02979 -8.09349 0
M  V30 9523 C 1290.67 2.57523 -7.89775 0
M  V30 9524 O 1291.41 3.7668 -7.89438 0
M  V30 9525 C 1290.01 2.20997 -6.55446 0
M  V30 9526 O 1290.8 2.71895 -5.48509 0
M  V30 9527 C 1288.67 2.89693 -6.67988 0
M  V30 9528 H 1288.7 3.88793 -6.19859 0
M  V30 9529 H 1289.88 1.12046 -6.44229 0
M  V30 9530 H 1291.37 1.7746 -8.19711 0
M  V30 9531 H 1289.67 3.20706 -9.67112 0
M  V30 9532 H 1289.48 0.901032 -10.1892 0
M  V30 9533 H 1287.85 1.33049 -9.56592 0
M  V30 9534 H 1290.49 3.57847 -5.23962 0
M  V30 9535 P 1292.35 3.65191 -7.99657 0
M  V30 9536 O 1293.77 3.89332 -8.45794 0
M  V30 9537 O 1291.99 2.28472 -7.50807 0
M  V30 9538 O 1292.03 4.64972 -6.77611 0
M  V30 9539 C 1291.87 6.06319 -7.16352 0
M  V30 9540 C 1292.41 6.91731 -6.02299 0
M  V30 9541 O 1291.35 6.92449 -5.17064 0
M  V30 9542 C 1293.62 6.43627 -5.25174 0
M  V30 9543 O 1294.36 7.43686 -4.60469 0
M  V30 9544 C 1292.96 5.40275 -4.31916 0
M  V30 9545 O 1293.75 5.25279 -3.14438 0
M  V30 9546 C 1291.62 6.04847 -4.05327 0
M  V30 9547 H 1291.65 6.62195 -3.11261 0
M  V30 9548 H 1292.83 4.42556 -4.81383 0
M  V30 9549 H 1294.32 5.92458 -5.93643 0
M  V30 9550 H 1292.62 7.92655 -6.402 0
M  V30 9551 H 1292.43 6.26671 -8.0846 0
M  V30 9552 H 1290.8 6.29101 -7.32804 0
M  V30 9553 H 1293.44 5.84315 -2.47318 0
M  V30 9554 P 1295.3 7.39546 -4.75277 0
M  V30 9555 O 1296.72 7.84882 -5.01092 0
M  V30 9556 O 1294.94 5.9812 -5.08098 0
M  V30 9557 O 1294.98 7.57503 -3.1866 0
M  V30 9558 C 1294.82 8.97452 -2.74862 0
M  V30 9559 C 1295.36 9.07548 -1.32709 0
M  V30 9560 O 1294.3 8.61972 -0.606089 0
M  V30 9561 C 1296.58 8.25383 -0.938334 0
M  V30 9562 O 1297.31 8.74577 0.146954 0
M  V30 9563 C 1295.91 6.8802 -0.712559 0
M  V30 9564 O 1296.71 6.1181 0.188505 0
M  V30 9565 C 1294.57 7.27966 -0.139777 0
M  V30 9566 N 1293.53 6.39368 -0.623421 0
M  V30 9567 C 1293.7 5.71761 -1.78245 0
M  V30 9568 N 1292.67 4.962 -2.10491 0
M  V30 9569 C 1291.78 5.16158 -1.0635 0
M  V30 9570 C 1290.52 4.60425 -0.810266 0
M  V30 9571 N 1289.92 3.7057 -1.62914 0
M  V30 9572 N 1289.95 5.06 0.348685 0
M  V30 9573 C 1290.55 5.94532 1.20395 0
M  V30 9574 N 1291.73 6.48452 1.01191 0
M  V30 9575 C 1292.31 6.04423 -0.146291 0
M  V30 9576 H 1294.6 7.25255 0.961469 0
M  V30 9577 H 1295.78 6.32625 -1.65044 0
M  V30 9578 H 1297.27 8.19355 -1.79097 0
M  V30 9579 H 1295.57 10.1305 -1.09016 0
M  V30 9580 H 1295.38 9.64276 -3.41316 0
M  V30 9581 H 1293.75 9.25417 -2.76357 0
M  V30 9582 H 1290.02 6.21659 2.10714 0
M  V30 9583 H 1294.6 5.79354 -2.38959 0
M  V30 9584 H 1288.99 3.33174 -1.38982 0
M  V30 9585 H 1290.39 3.39714 -2.48836 0
M  V30 9586 H 1296.39 6.25169 1.0783 0
M  V30 9587 P 1298.25 8.791 1.06576e-11 0
M  V30 9588 O 1299.67 9.31196 0.027936 0
M  V30 9589 O 1297.89 7.77869 -1.04071 0
M  V30 9590 O 1297.93 8.09533 1.41463 0
M  V30 9591 C 1297.77 9.03587 2.5397 0
M  V30 9592 C 1298.31 8.35226 3.79016 0
M  V30 9593 O 1297.25 7.57904 4.1503 0
M  V30 9594 C 1299.53 7.45087 3.67298 0
M  V30 9595 O 1300.26 7.27796 4.85194 0
M  V30 9596 C 1298.86 6.17323 3.12027 0
M  V30 9597 O 1299.66 5.04496 3.46627 0
M  V30 9598 C 1297.52 6.19961 3.81809 0
M  V30 9599 N 1296.48 5.71575 2.93223 0
M  V30 9600 C 1296.65 5.77362 1.59168 0
M  V30 9601 N 1295.62 5.3123 0.911893 0
M  V30 9602 C 1294.73 4.91717 1.89588 0
M  V30 9603 C 1293.47 4.3114 1.8076 0
M  V30 9604 N 1292.87 3.99821 0.632928 0
M  V30 9605 N 1292.9 4.06823 3.02898 0
M  V30 9606 C 1293.5 4.35062 4.22711 0
M  V30 9607 N 1294.68 4.90805 4.35707 0
M  V30 9608 C 1295.26 5.16382 3.14469 0
M  V30 9609 H 1297.55 5.58142 4.72986 0
M  V30 9610 H 1298.73 6.21428 2.0318 0
M  V30 9611 H 1300.22 7.86112 2.9231 0
M  V30 9612 H 1298.52 9.11171 4.55987 0
M  V30 9613 H 1298.33 9.9573 2.34194 0
M  V30 9614 H 1296.7 9.2792 2.67832 0
M  V30 9615 H 1292.97 4.09052 5.13359 0
M  V30 9616 H 1297.55 6.16575 1.12198 0
M  V30 9617 H 1291.94 3.55423 0.632085 0
M  V30 9618 H 1293.34 4.20317 -0.256712 0
M  V30 9619 H 1299.34 4.67628 4.28704 0
M  V30 9620 P 1301.2 7.39546 4.75277 0
M  V30 9621 O 1302.62 7.81777 5.05738 0
M  V30 9622 O 1300.84 7.1065 3.32998 0
M  V30 9623 O 1300.88 6.04542 5.56673 0
M  V30 9624 C 1300.72 6.22772 7.02095 0
M  V30 9625 C 1301.26 4.97725 7.70406 0
M  V30 9626 O 1300.2 4.13256 7.58987 0
M  V30 9627 C 1302.48 4.28231 7.11815 0
M  V30 9628 O 1303.21 3.49945 8.01648 0
M  V30 9629 C 1301.81 3.5063 5.96244 0
M  V30 9630 O 1302.61 2.36482 5.64681 0
M  V30 9631 C 1300.47 3.15122 6.56374 0
M  V30 9632 H 1300.5 2.13853 6.99751 0
M  V30 9633 H 1301.69 4.13501 5.06559 0
M  V30 9634 H 1303.17 5.03285 6.70911 0
M  V30 9635 H 1301.48 5.20877 8.75697 0
M  V30 9636 H 1301.29 7.11046 7.35349 0
M  V30 9637 H 1299.66 6.35815 7.26986 0
M  V30 9638 H 1302.29 1.61644 6.13565 0
M  V30 9639 P 1304.15 3.65191 7.99657 0
M  V30 9640 O 1305.57 3.8425 8.48115 0
M  V30 9641 O 1303.79 4.17805 6.64342 0
M  V30 9642 O 1303.83 2.07613 7.95143 0
M  V30 9643 C 1303.67 1.44328 9.27336 0
M  V30 9644 C 1304.21 0.0220036 9.17197 0
M  V30 9645 O 1303.15 -0.626867 8.61923 0
M  V30 9646 C 1305.43 -0.24586 8.30336 0
M  V30 9647 O 1306.16 -1.39011 8.63583 0
M  V30 9648 C 1304.76 -0.273849 6.91158 0
M  V30 9649 O 1305.56 -1.06348 6.02892 0
M  V30 9650 C 1303.42 -0.897649 7.22545 0
M  V30 9651 H 1303.45 -1.9841 7.04286 0
M  V30 9652 H 1304.64 0.739928 6.497 0
M  V30 9653 H 1306.12 0.60668 8.36503 0
M  V30 9654 H 1304.43 -0.352479 10.1829 0
M  V30 9655 H 1304.24 2.00611 10.0304 0
M  V30 9656 H 1302.61 1.41843 9.55327 0
M  V30 9657 H 1305.24 -1.95734 6.03555 0
M  V30 9658 P 1307.1 -1.25109 8.70152 0
M  V30 9659 O 1308.52 -1.35274 9.21221 0
M  V30 9660 O 1306.74 -0.0769065 7.84762 0
M  V30 9661 O 1306.78 -2.55232 7.81161 0
M  V30 9662 C 1306.62 -3.79939 8.58154 0
M  V30 9663 C 1307.16 -4.94023 7.72785 0
M  V30 9664 O 1306.1 -5.18726 6.91205 0
M  V30 9665 C 1308.38 -4.69597 6.85231 0
M  V30 9666 O 1309.12 -5.83832 6.51337 0
M  V30 9667 C 1307.71 -3.96706 5.66633 0
M  V30 9668 O 1308.51 -4.15414 4.49689 0
M  V30 9669 C 1306.37 -4.66153 5.59313 0
M  V30 9670 H 1306.4 -5.47679 4.85214 0
M  V30 9671 H 1307.59 -2.89008 5.86566 0
M  V30 9672 H 1309.07 -4.0121 7.36511 0
M  V30 9673 H 1307.38 -5.80182 8.37584 0
M  V30 9674 H 1307.19 -3.73517 9.52265 0
M  V30 9675 H 1305.56 -3.97163 8.80359 0
M  V30 9676 H 1308.2 -4.90969 4.01921 0
M  V30 9677 P 1310.05 -5.75688 6.64379 0
M  V30 9678 O 1311.48 -6.11849 7.01846 0
M  V30 9679 O 1309.69 -4.30744 6.56026 0
M  V30 9680 O 1309.73 -6.37042 5.19165 0
M  V30 9681 C 1309.57 -7.83578 5.16515 0
M  V30 9682 C 1310.11 -8.33398 3.83019 0
M  V30 9683 O 1309.05 -8.10074 3.01034 0
M  V30 9684 C 1311.33 -7.65514 3.2257 0
M  V30 9685 O 1312.07 -8.4329 2.32297 0
M  V30 9686 C 1310.66 -6.40075 2.62207 0
M  V30 9687 O 1311.46 -5.92589 1.53712 0
M  V30 9688 C 1309.32 -6.9454 2.18503 0
M  V30 9689 H 1309.35 -7.23063 1.12091 0
M  V30 9690 H 1310.54 -5.6025 3.37201 0
M  V30 9691 H 1312.02 -7.35707 4.02681 0
M  V30 9692 H 1310.33 -9.40912 3.9095 0
M  V30 9693 H 1310.14 -8.29056 5.99158 0
M  V30 9694 H 1308.51 -8.10073 5.25882 0
M  V30 9695 H 1311.15 -6.30324 0.726794 0
M  V30 9696 P 1313 -8.4349 2.47671 0
M  V30 9697 O 1314.43 -8.94359 2.59696 0
M  V30 9698 O 1312.64 -7.1704 3.19006 0
M  V30 9699 O 1312.68 -8.16596 0.923387 0
M  V30 9700 C 1312.52 -9.38437 0.108857 0
M  V30 9701 C 1313.06 -9.08076 -1.28339 0
M  V30 9702 O 1312.01 -8.44229 -1.84713 0
M  V30 9703 C 1314.28 -8.18386 -1.42505 0
M  V30 9704 O 1315.02 -8.3501 -2.60497 0
M  V30 9705 C 1313.61 -6.80225 -1.25468 0
M  V30 9706 O 1314.41 -5.81526 -1.91035 0
M  V30 9707 C 1312.27 -7.02416 -1.9168 0
M  V30 9708 N 1311.23 -6.31033 -1.20314 0
M  V30 9709 C 1311.29 -6.18781 0.121293 0
M  V30 9710 N 1310.25 -5.49762 0.588272 0
M  V30 9711 C 1309.51 -5.22015 -0.488988 0
M  V30 9712 C 1308.21 -4.61966 -0.596448 0
M  V30 9713 O 1307.47 -4.19162 0.309059 0
M  V30 9714 N 1307.78 -4.53773 -1.878 0
M  V30 9715 C 1308.53 -4.99623 -2.99082 0
M  V30 9716 N 1307.93 -4.78912 -4.21227 0
M  V30 9717 N 1309.68 -5.59957 -2.91093 0
M  V30 9718 C 1310.14 -5.70225 -1.64218 0
M  V30 9719 H 1312.3 -6.6888 -2.96621 0
M  V30 9720 H 1313.49 -6.53517 -0.192194 0
M  V30 9721 H 1314.97 -8.36563 -0.598329 0
M  V30 9722 H 1313.28 -10.0291 -1.79807 0
M  V30 9723 H 1313.09 -10.2138 0.558219 0
M  V30 9724 H 1311.46 -9.6579 0.0444202 0
M  V30 9725 H 1306.88 -4.12883 -2.05283 0
M  V30 9726 H 1312.09 -6.59596 0.745856 0
M  V30 9727 H 1307.02 -4.31425 -4.2628 0
M  V30 9728 H 1308.39 -5.11219 -5.07148 0
M  V30 9729 H 1314.1 -5.69466 -2.79593 0
M  V30 9730 P 1315.95 -8.4349 -2.47671 0
M  V30 9731 O 1317.38 -8.92593 -2.65 0
M  V30 9732 O 1315.59 -7.7568 -1.19296 0
M  V30 9733 O 1315.63 -7.36886 -3.63805 0
M  V30 9734 C 1315.47 -7.95349 -4.982 0
M  V30 9735 C 1316.01 -6.94612 -5.98974 0
M  V30 9736 O 1314.96 -6.10347 -6.11815 0
M  V30 9737 C 1317.23 -6.11426 -5.62335 0
M  V30 9738 O 1317.97 -5.6162 -6.70584 0
M  V30 9739 C 1316.56 -5.04409 -4.73308 0
M  V30 9740 O 1317.36 -3.85992 -4.75183 0
M  V30 9741 C 1315.22 -4.8728 -5.41006 0
M  V30 9742 H 1315.26 -4.02333 -6.11157 0
M  V30 9743 H 1316.44 -5.39466 -3.69543 0
M  V30 9744 H 1317.92 -6.71916 -5.01943 0
M  V30 9745 H 1316.23 -7.4649 -6.93477 0
M  V30 9746 H 1316.04 -8.89416 -5.05237 0
M  V30 9747 H 1314.41 -8.14876 -5.18409 0
M  V30 9748 H 1317.05 -3.27957 -5.4317 0
M  V30 9749 P 1318.9 -5.75688 -6.64379 0
M  V30 9750 O 1320.33 -6.07627 -7.05504 0
M  V30 9751 O 1318.54 -5.88047 -5.19722 0
M  V30 9752 O 1318.58 -4.2322 -7.04443 0
M  V30 9753 C 1318.42 -3.99743 -8.4911 0
M  V30 9754 C 1318.96 -2.60516 -8.79425 0
M  V30 9755 O 1317.91 -1.82684 -8.4467 0
M  V30 9756 C 1320.18 -2.10343 -8.03628 0
M  V30 9757 O 1320.92 -1.09919 -8.67766 0
M  V30 9758 C 1319.51 -1.68446 -6.70876 0
M  V30 9759 O 1320.31 -0.678137 -6.08433 0
M  V30 9760 C 1318.17 -1.17436 -7.18567 0
M  V30 9761 H 1318.21 -0.0804732 -7.31656 0
M  V30 9762 H 1319.39 -2.54037 -6.02537 0
M  V30 9763 H 1320.87 -2.93881 -7.85526 0
M  V30 9764 H 1319.18 -2.53065 -9.86973 0
M  V30 9765 H 1318.99 -4.75072 -9.05887 0
M  V30 9766 H 1317.36 -4.05244 -8.76668 0
M  V30 9767 H 1320 0.177647 -6.34251 0
M  V30 9768 P 1321.86 -1.25109 -8.70152 0
M  V30 9769 O 1323.28 -1.29772 -9.22214 0
M  V30 9770 O 1321.5 -2.13714 -7.55141 0
M  V30 9771 O 1321.53 0.248149 -8.21425 0
M  V30 9772 C 1321.37 1.22779 -9.30434 0
M  V30 9773 C 1321.91 2.56265 -8.80568 0
M  V30 9774 O 1320.86 3.02979 -8.09349 0
M  V30 9775 C 1323.13 2.57523 -7.89775 0
M  V30 9776 O 1323.87 3.7668 -7.89438 0
M  V30 9777 C 1322.46 2.20997 -6.55446 0
M  V30 9778 O 1323.26 2.71851 -5.48419 0
M  V30 9779 C 1321.12 2.89693 -6.67988 0
M  V30 9780 N 1320.08 2.08895 -6.07487 0
M  V30 9781 C 1320.14 0.760559 -6.14209 0
M  V30 9782 N 1319.1 0.200108 -5.52538 0
M  V30 9783 C 1318.36 1.22692 -5.09742 0
M  V30 9784 C 1317.06 1.24782 -4.48775 0
M  V30 9785 O 1316.33 0.290617 -4.19294 0
M  V30 9786 N 1316.63 2.50468 -4.22428 0
M  V30 9787 C 1317.38 3.67142 -4.51974 0
M  V30 9788 N 1316.78 4.85096 -4.14091 0
M  V30 9789 N 1318.53 3.67821 -5.12831 0
M  V30 9790 C 1318.99 2.43698 -5.4105 0
M  V30 9791 H 1321.16 3.88793 -6.19859 0
M  V30 9792 H 1322.34 1.12029 -6.4413 0
M  V30 9793 H 1323.82 1.78279 -8.19533 0
M  V30 9794 H 1322.13 3.20706 -9.67112 0
M  V30 9795 H 1321.94 0.901032 -10.1892 0
M  V30 9796 H 1320.31 1.33049 -9.56592 0
M  V30 9797 H 1315.73 2.61953 -3.79465 0
M  V30 9798 H 1320.94 0.200439 -6.63497 0
M  V30 9799 H 1315.87 4.8334 -3.66367 0
M  V30 9800 H 1317.25 5.7474 -4.33841 0
M  V30 9801 H 1322.95 3.5779 -5.23879 0
M  V30 9802 P 1324.81 3.65191 -7.99657 0
M  V30 9803 O 1326.23 3.89374 -8.45885 0
M  V30 9804 O 1324.45 2.28472 -7.50807 0
M  V30 9805 O 1324.48 4.64972 -6.77611 0
M  V30 9806 C 1324.32 6.06383 -7.16428 0
M  V30 9807 C 1324.86 6.91731 -6.02299 0
M  V30 9808 O 1323.81 6.92369 -5.17005 0
M  V30 9809 C 1326.08 6.43627 -5.25174 0
M  V30 9810 O 1326.82 7.43686 -4.60469 0
M  V30 9811 C 1325.41 5.40275 -4.31916 0
M  V30 9812 O 1326.21 5.24878 -3.14911 0
M  V30 9813 C 1324.07 6.04847 -4.05327 0
M  V30 9814 N 1323.03 5.04166 -3.98114 0
M  V30 9815 C 1323.2 3.84629 -4.59066 0
M  V30 9816 N 1322.17 3.0363 -4.45343 0
M  V30 9817 C 1321.29 3.76722 -3.68523 0
M  V30 9818 C 1320.02 3.43528 -3.17088 0
M  V30 9819 N 1319.46 4.44526 -2.44231 0
M  V30 9820 C 1320.06 5.65243 -2.20146 0
M  V30 9821 N 1321.24 6.00221 -2.65453 0
M  V30 9822 C 1321.81 5.00564 -3.39083 0
M  V30 9823 H 1325.29 4.42969 -4.80867 0
M  V30 9824 H 1326.77 5.92458 -5.93643 0
M  V30 9825 H 1325.08 7.93295 -6.39407 0
M  V30 9826 H 1324.89 6.26671 -8.0846 0
M  V30 9827 H 1323.26 6.29101 -7.32804 0
M  V30 9828 H 1324.1 3.58193 -5.14248 0
M  V30 9829 H 1325.9 5.84223 -2.47279 0
M  V30 9830 P 1327.76 7.39546 -4.75277 0
M  V30 9831 O 1329.18 7.84798 -5.01039 0
M  V30 9832 O 1327.4 5.9812 -5.08098 0
M  V30 9833 O 1327.43 7.57503 -3.1866 0
M  V30 9834 C 1327.27 8.97357 -2.74833 0
M  V30 9835 C 1327.81 9.07548 -1.32709 0
M  V30 9836 O 1326.76 8.62072 -0.606159 0
M  V30 9837 C 1329.03 8.25383 -0.938334 0
M  V30 9838 O 1329.77 8.74577 0.146954 0
M  V30 9839 C 1328.36 6.8802 -0.712559 0
M  V30 9840 O 1329.16 6.1189 0.194655 0
M  V30 9841 C 1327.03 7.27966 -0.139777 0
M  V30 9842 H 1327.06 7.25354 0.961601 0
M  V30 9843 H 1328.24 6.32557 -1.65702 0
M  V30 9844 H 1329.72 8.19355 -1.79097 0
M  V30 9845 H 1328.03 10.1294 -1.10029 0
M  V30 9846 H 1327.84 9.64276 -3.41316 0
M  V30 9847 H 1326.21 9.25417 -2.76357 0
M  V30 9848 H 1328.85 6.25267 1.07847 0
M  V30 9849 H 1331.4 8.24193 -0.0346053 0
M  V30 END ATOM
M  V30 BEGIN BOND
M  V30 END BOND
M  V30 END CTAB
M  END
$$$$
