drugbank_target|O95470 Sphingosine-1-phosphate lyase 1 (DB00114)
 OpenBabel12092119403D

  0  0  0     0  0            999 V3000
M  V30 BEGIN CTAB
M  V30 COUNTS 8994 9105 0 0 0
M  V30 BEGIN ATOM
M  V30 1 H -0.908 1.98254 -0.117106 0
M  V30 2 N 0 1.576 0 0
M  V30 3 C 0.933 2.03868 1.02534 0
M  V30 4 C 1.911 0.928543 1.3348 0
M  V30 5 O 3.095 1.19667 1.45644 0
M  V30 6 C 0.222 2.43627 2.35294 0
M  V30 7 C -0.732 3.65373 2.2001 0
M  V30 8 S 0.101 5.13292 1.52614 0
M  V30 9 C 1.257 5.56322 2.86805 0
M  V30 10 H 1.49 2.90518 0.631377 0
M  V30 11 H -0.977 1.52953 0.210867 0
M  V30 12 H 0.981 2.67203 3.11629 0
M  V30 13 H -0.358 1.57376 2.7183 0
M  V30 14 H -1.165 3.90944 3.18086 0
M  V30 15 H -1.563 3.418 1.51819 0
M  V30 16 H 0.729 5.58782 3.83104 0
M  V30 17 H 1.672 6.56266 2.65933 0
M  V30 18 H 2.08 4.83886 2.90714 0
M  V30 19 N 1.4781 -0.272755 1.55222 0
M  V30 20 C 2.8891 -0.84378 1.66545 0
M  V30 21 C 3.2401 -1.87035 0.592641 0
M  V30 22 O 2.3651 -2.14761 -0.265818 0
M  V30 23 C 2.9601 -1.53723 3.01918 0
M  V30 24 C 1.5191 -2.05628 3.15268 0
M  V30 25 C 0.6661 -0.898424 2.62343 0
M  V30 26 H 3.6171 -0.0490998 1.58624 0
M  V30 27 H 3.6381 -2.40421 2.94921 0
M  V30 28 H 3.1501 -0.78983 3.79978 0
M  V30 29 H 1.2511 -2.83329 2.41983 0
M  V30 30 H 1.3641 -2.27142 4.21833 0
M  V30 31 H -0.2719 -1.29186 2.19506 0
M  V30 32 H 0.5111 -0.164528 3.42906 0
M  V30 33 N 2.9562 -1.48159 -0.537278 0
M  V30 34 C 4.1812 -1.59707 -1.32319 0
M  V30 35 C 4.6062 -0.254859 -1.86365 0
M  V30 36 O 3.9642 0.772378 -1.64024 0
M  V30 37 C 4.0122 -2.6412 -2.45505 0
M  V30 38 O 3.1162 -2.20774 -3.48328 0
M  V30 39 H 2.4572 -0.535791 -0.392204 0
M  V30 40 H 4.9872 -1.94092 -0.647268 0
M  V30 41 H 4.9972 -2.85166 -2.91795 0
M  V30 42 H 3.6722 -3.61567 -2.05528 0
M  V30 43 H 2.2492 -2.09911 -3.08207 0
M  V30 44 N 4.4343 0.785586 -1.36625 0
M  V30 45 C 5.6623 1.57448 -1.3423 0
M  V30 46 C 6.0773 1.88649 0.0755653 0
M  V30 47 O 5.4343 1.50414 1.03354 0
M  V30 48 C 5.4853 2.89316 -2.16745 0
M  V30 49 O 5.2063 2.59459 -3.53005 0
M  V30 50 C 6.7073 3.83606 -2.22174 0
M  V30 51 H 3.9273 0.488226 -0.4603 0
M  V30 52 H 6.4713 0.974733 -1.79775 0
M  V30 53 H 4.6263 3.4575 -1.74745 0
M  V30 54 H 5.0403 3.43804 -3.96105 0
M  V30 55 H 6.5143 4.73181 -2.8426 0
M  V30 56 H 6.9913 4.21734 -1.22627 0
M  V30 57 H 7.5973 3.33104 -2.64427 0
M  V30 58 N 5.9124 1.20967 1.01018 0
M  V30 59 C 7.1894 0.93264 1.71934 0
M  V30 60 C 7.5694 -0.55692 2.03621 0
M  V30 61 O 6.9174 -1.52035 1.7058 0
M  V30 62 C 7.1274 1.81233 2.98254 0
M  V30 63 C 8.4754 2.05804 3.71389 0
M  V30 64 O 9.4994 1.78539 3.08225 0
M  V30 65 O 8.3584 2.51888 4.84989 0
M  V30 66 H 5.4524 0.349272 0.749625 0
M  V30 67 H 7.9984 1.31871 1.06808 0
M  V30 68 H 6.7704 2.82067 2.71208 0
M  V30 69 H 6.3934 1.42674 3.7112 0
M  V30 70 N 7.3905 -1.2043 1.01659 0
M  V30 71 C 8.3205 -2.25466 0.607226 0
M  V30 72 C 9.3015 -1.65853 -0.377716 0
M  V30 73 O 10.4865 -1.92409 -0.263149 0
M  V30 74 C 7.6165 -3.47256 -0.0552949 0
M  V30 75 C 6.5705 -4.19462 0.850632 0
M  V30 76 C 5.8965 -5.34673 0.0538859 0
M  V30 77 C 7.1965 -4.75603 2.15868 0
M  V30 78 H 8.8905 -2.59962 1.48526 0
M  V30 79 H 6.4365 -1.2496 0.715605 0
M  V30 80 H 8.3895 -4.19917 -0.353233 0
M  V30 81 H 7.1135 -3.11924 -0.968045 0
M  V30 82 H 5.7725 -3.48667 1.13257 0
M  V30 83 H 5.4205 -4.95585 -0.860514 0
M  V30 84 H 5.1205 -5.83913 0.657192 0
M  V30 85 H 6.6445 -6.10138 -0.237598 0
M  V30 86 H 8.0585 -5.40083 1.92311 0
M  V30 87 H 6.4555 -5.3528 2.71284 0
M  V30 88 H 7.5255 -3.94346 2.82169 0
M  V30 89 N 8.8686 -0.792821 -1.36206 0
M  V30 90 C 9.7986 -0.207853 -2.32573 0
M  V30 91 C 10.7796 0.659055 -1.56813 0
M  V30 92 O 11.9646 0.592176 -1.84951 0
M  V30 93 C 9.0946 0.655449 -3.41059 0
M  V30 94 C 8.0486 -0.111842 -4.27854 0
M  V30 95 C 7.3746 0.872274 -5.27537 0
M  V30 96 C 8.6746 -1.30299 -5.05786 0
M  V30 97 H 10.3686 -1.01294 -2.81744 0
M  V30 98 H 7.9146 -0.48854 -1.3546 0
M  V30 99 H 9.8676 1.07464 -4.07467 0
M  V30 100 H 8.5916 1.49328 -2.90463 0
M  V30 101 H 7.2506 -0.512053 -3.63006 0
M  V30 102 H 6.8986 1.70523 -4.73214 0
M  V30 103 H 6.5986 0.363291 -5.86476 0
M  V30 104 H 8.1226 1.28996 -5.96818 0
M  V30 105 H 9.5366 -0.959379 -5.65216 0
M  V30 106 H 7.9336 -1.7455 -5.74154 0
M  V30 107 H 9.0036 -2.09663 -4.37229 0
M  V30 108 N 10.3467 1.47872 -0.545128 0
M  V30 109 C 11.2797 2.2675 0.256885 0
M  V30 110 C 12.2577 1.33293 0.931228 0
M  V30 111 O 13.4417 1.62657 0.95262 0
M  V30 112 C 10.5687 3.09976 1.36501 0
M  V30 113 C 9.6147 4.1892 0.800496 0
M  V30 114 S 10.4477 5.34397 -0.343505 0
M  V30 115 C 11.6037 6.21186 0.766733 0
M  V30 116 H 11.8367 2.94425 -0.412479 0
M  V30 117 H 9.3697 1.50806 -0.331204 0
M  V30 118 H 11.3277 3.585 1.9997 0
M  V30 119 H 9.9887 2.41686 2.00616 0
M  V30 120 H 9.1817 4.76836 1.63227 0
M  V30 121 H 8.7837 3.73215 0.242217 0
M  V30 122 H 11.0757 6.56804 1.66178 0
M  V30 123 H 12.0187 7.07742 0.225204 0
M  V30 124 H 12.4267 5.54574 1.05396 0
M  V30 125 N 11.8248 0.280983 1.55075 0
M  V30 126 C 12.7548 -0.597469 2.25727 0
M  V30 127 C 13.7358 -1.15417 1.24952 0
M  V30 128 O 14.9208 -1.18722 1.53684 0
M  V30 129 C 12.0508 -1.7789 2.98283 0
M  V30 130 C 11.0048 -1.35347 4.06036 0
M  V30 131 C 10.3308 -2.61846 4.66198 0
M  V30 132 C 11.6308 -0.499354 5.19907 0
M  V30 133 H 13.3248 -0.00824265 2.99399 0
M  V30 134 H 10.8708 -0.0025244 1.44 0
M  V30 135 H 12.8238 -2.39937 3.46422 0
M  V30 136 H 11.5478 -2.39405 2.22155 0
M  V30 137 H 10.2068 -0.756156 3.58717 0
M  V30 138 H 9.8548 -3.21632 3.86732 0
M  V30 139 H 9.5548 -2.3409 5.38958 0
M  V30 140 H 11.0788 -3.24732 5.1709 0
M  V30 141 H 12.4928 -1.02498 5.64063 0
M  V30 142 H 10.8898 -0.316424 5.99265 0
M  V30 143 H 11.9598 0.480459 4.82514 0
M  V30 144 N 13.3029 -1.57598 0.00835791 0
M  V30 145 C 14.2499 -2.08945 -0.980346 0
M  V30 146 C 15.2199 -0.986738 -1.33614 0
M  V30 147 O 16.4049 -1.25968 -1.43306 0
M  V30 148 C 13.5449 -2.60425 -2.26435 0
M  V30 149 C 12.6579 -3.84628 -1.96685 0
M  V30 150 C 11.7929 -4.24579 -3.19228 0
M  V30 151 C 10.8319 -5.41596 -2.85202 0
M  V30 152 N 9.9689 -5.768 -4.00307 0
M  V30 153 H 14.8089 -2.93148 -0.535551 0
M  V30 154 H 12.3459 -1.44912 -0.252776 0
M  V30 155 H 14.3039 -2.88354 -3.01509 0
M  V30 156 H 12.9339 -1.79083 -2.68568 0
M  V30 157 H 11.9859 -3.63556 -1.11942 0
M  V30 158 H 13.2979 -4.69796 -1.67611 0
M  V30 159 H 12.4519 -4.53834 -4.02641 0
M  V30 160 H 11.1909 -3.38137 -3.51447 0
M  V30 161 H 10.1959 -5.12056 -2.00198 0
M  V30 162 H 11.4209 -6.29721 -2.54222 0
M  V30 163 H 9.3669 -4.93316 -4.32407 0
M  V30 164 H 9.2839 -6.5656 -3.74786 0
M  V30 165 H 10.5519 -6.10652 -4.84484 0
M  V30 166 N 14.781 0.264519 -1.55364 0
M  V30 167 C 15.744 1.31046 -1.88042 0
M  V30 168 C 16.744 1.41943 -0.755569 0
M  V30 169 O 17.934 1.40947 -1.02369 0
M  V30 170 C 15.066 2.69067 -2.09323 0
M  V30 171 H 16.259 1.03297 -2.81549 0
M  V30 172 H 13.812 0.502989 -1.47986 0
M  V30 173 H 14.547 3.01982 -1.18226 0
M  V30 174 H 14.332 2.62542 -2.91229 0
M  V30 175 H 15.822 3.44623 -2.35848 0
M  V30 176 N 16.2591 1.48442 0.529413 0
M  V30 177 C 17.5061 1.56488 1.28521 0
M  V30 178 C 17.8341 0.239042 1.93025 0
M  V30 179 O 17.0891 -0.770713 1.79885 0
M  V30 180 C 17.3881 2.6523 2.39558 0
M  V30 181 C 17.0541 4.07648 1.92702 0
M  V30 182 C 15.7161 4.46411 1.79641 0
M  V30 183 C 18.0681 4.96896 1.573 0
M  V30 184 C 15.3961 5.72226 1.29514 0
M  V30 185 C 17.7481 6.23202 1.08636 0
M  V30 186 C 16.4121 6.60821 0.941919 0
M  V30 187 H 15.6821 0.572631 0.470292 0
M  V30 188 H 18.3291 1.82161 0.59072 0
M  V30 189 H 16.6341 2.33419 3.14679 0
M  V30 190 H 18.3311 2.68671 2.97686 0
M  V30 191 H 14.9211 3.77036 2.03819 0
M  V30 192 H 19.1051 4.67626 1.66251 0
M  V30 193 H 14.3611 6.00097 1.17019 0
M  V30 194 H 18.5351 6.91753 0.803136 0
M  V30 195 H 16.1621 7.58198 0.5513 0
M  V30 196 N 17.7372 -0.778329 1.37039 0
M  V30 197 C 18.6472 -1.92253 1.34446 0
M  V30 198 C 19.6632 -1.72267 0.244991 0
M  V30 199 O 20.8392 -1.95615 0.479258 0
M  V30 200 C 17.9042 -3.27282 1.144 0
M  V30 201 C 16.9652 -3.59969 2.33925 0
M  V30 202 C 16.1982 -4.88555 2.14825 0
M  V30 203 O 16.4212 -5.59113 1.12912 0
M  V30 204 O 15.3552 -5.20153 3.02861 0
M  V30 205 H 19.1812 -1.97392 2.30803 0
M  V30 206 H 16.7662 -0.920154 1.17701 0
M  V30 207 H 18.6482 -4.08062 1.05182 0
M  V30 208 H 17.3232 -3.23011 0.211124 0
M  V30 209 H 16.2302 -2.7945 2.48714 0
M  V30 210 H 17.5632 -3.68976 3.25757 0
M  V30 211 N 19.2153 -1.21501 -1.00376 0
M  V30 212 C 20.6263 -1.03146 -1.55621 0
M  V30 213 C 20.9773 0.408375 -1.91903 0
M  V30 214 O 20.1023 1.29177 -1.73616 0
M  V30 215 C 20.6973 -1.86612 -2.82775 0
M  V30 216 C 19.2563 -1.72586 -3.34501 0
M  V30 217 C 18.4033 -1.83747 -2.07683 0
M  V30 218 H 21.3543 -1.35505 -0.826081 0
M  V30 219 H 21.3753 -1.3771 -3.54706 0
M  V30 220 H 20.8873 -2.91399 -2.56336 0
M  V30 221 H 18.9883 -0.704877 -3.65872 0
M  V30 222 H 19.1013 -2.54623 -4.05837 0
M  V30 223 H 17.4653 -1.27069 -2.20739 0
M  V30 224 H 18.2483 -2.90044 -1.83655 0
M  V30 225 N 20.6934 1.19889 -1.02296 0
M  V30 226 C 21.9234 1.93109 -0.734332 0
M  V30 227 C 22.3314 1.75377 0.709889 0
M  V30 228 O 21.6744 1.06912 1.49384 0
M  V30 229 C 21.7364 3.45362 -0.99827 0
M  V30 230 C 21.4004 3.8686 -2.43287 0
M  V30 231 C 22.3974 3.92102 -3.41397 0
M  V30 232 C 20.0824 4.18668 -2.77529 0
M  V30 233 C 22.0764 4.28573 -4.71809 0
M  V30 234 C 19.7634 4.54813 -4.08153 0
M  V30 235 C 20.7614 4.59739 -5.05103 0
M  V30 236 O 20.4494 4.95051 -6.33388 0
M  V30 237 H 20.1814 0.620409 -0.268456 0
M  V30 238 H 22.7354 1.53144 -1.3688 0
M  V30 239 H 20.9654 3.85482 -0.306645 0
M  V30 240 H 22.6544 3.99814 -0.700234 0
M  V30 241 H 23.4204 3.67685 -3.1628 0
M  V30 242 H 19.2994 4.14021 -2.0275 0
M  V30 243 H 22.8434 4.32333 -5.4748 0
M  V30 244 H 18.7404 4.78687 -4.33047 0
M  V30 245 H 19.5084 5.1302 -6.37772 0
M  V30 246 N 22.1715 0.800033 1.35784 0
M  V30 247 C 23.1015 0.220184 2.3246 0
M  V30 248 C 24.0825 -0.65073 1.57161 0
M  V30 249 O 25.2675 -0.582359 1.85263 0
M  V30 250 C 22.3975 -0.637353 3.41402 0
M  V30 251 C 21.3515 0.134531 4.27789 0
M  V30 252 C 20.6775 -0.844285 5.27992 0
M  V30 253 C 21.9775 1.32979 5.05088 0
M  V30 254 H 23.6715 1.02787 2.81203 0
M  V30 255 H 21.2175 0.495717 1.35199 0
M  V30 256 H 23.1705 -1.05302 4.08031 0
M  V30 257 H 21.8945 -1.47785 2.91251 0
M  V30 258 H 20.5535 0.531296 3.6273 0
M  V30 259 H 20.2015 -1.68011 4.74111 0
M  V30 260 H 19.9015 -0.332184 5.8666 0
M  V30 261 H 21.4255 -1.2583 5.97494 0
M  V30 262 H 22.8395 0.98934 5.64699 0
M  V30 263 H 21.2365 1.77593 5.7322 0
M  V30 264 H 22.3065 2.11978 4.36111 0
M  V30 265 N 23.6496 -1.47581 0.552962 0
M  V30 266 C 24.5596 -2.33743 -0.200353 0
M  V30 267 C 25.5756 -1.47928 -0.916151 0
M  V30 268 O 26.7516 -1.80865 -0.885993 0
M  V30 269 C 23.8166 -3.24536 -1.21973 0
M  V30 270 C 22.8776 -4.26238 -0.511819 0
M  V30 271 C 22.1106 -5.12693 -1.48263 0
M  V30 272 O 22.3336 -5.01525 -2.71714 0
M  V30 273 O 21.2676 -5.93375 -1.00945 0
M  V30 274 H 25.0936 -2.9945 0.506304 0
M  V30 275 H 22.6786 -1.46071 0.313622 0
M  V30 276 H 24.5606 -3.80631 -1.80827 0
M  V30 277 H 23.2356 -2.61462 -1.90839 0
M  V30 278 H 22.1426 -3.73914 0.117799 0
M  V30 279 H 23.4756 -4.92014 0.135308 0
M  V30 280 N 25.1277 -0.289203 -1.54924 0
M  V30 281 C 26.3767 0.324231 -1.99077 0
M  V30 282 C 26.6897 1.5591 -1.18117 0
M  V30 283 O 27.8957 2.24637 -1.52481 0
M  V30 284 C 26.3517 0.628209 -3.54375 0
M  V30 285 C 25.9597 -0.587647 -4.44129 0
M  V30 286 C 27.7037 1.20349 -4.07083 0
M  V30 287 C 25.6107 -0.257475 -5.90839 0
M  V30 288 H 24.5407 0.124924 -0.743579 0
M  V30 289 H 27.1917 -0.396063 -1.79175 0
M  V30 290 H 25.5737 1.40778 -3.70132 0
M  V30 291 H 26.7477 -1.36418 -4.40144 0
M  V30 292 H 25.0627 -1.08074 -4.0213 0
M  V30 293 H 27.6597 1.46456 -5.14252 0
M  V30 294 H 28.0027 2.14195 -3.56968 0
M  V30 295 H 28.5357 0.485889 -3.94821 0
M  V30 296 H 25.2747 -1.16419 -6.45079 0
M  V30 297 H 24.7947 0.482018 -5.9786 0
M  V30 298 H 26.4737 0.145238 -6.46837 0
M  V30 299 N 26.6058 1.57591 -0.0167156 0
M  V30 300 C 27.5358 2.12496 0.967858 0
M  V30 301 C 28.5168 1.03807 1.34752 0
M  V30 302 O 29.7018 1.31577 1.42833 0
M  V30 303 C 26.8318 2.64194 2.25431 0
M  V30 304 C 25.7858 3.77559 2.01576 0
M  V30 305 C 25.1118 4.15636 3.36379 0
M  V30 306 C 26.4118 5.04151 1.36489 0
M  V30 307 H 28.1058 2.95013 0.510643 0
M  V30 308 H 25.6518 1.41915 0.244181 0
M  V30 309 H 27.6048 3.01236 2.94678 0
M  V30 310 H 26.3288 1.78821 2.73296 0
M  V30 311 H 24.9878 3.40937 1.34751 0
M  V30 312 H 24.6358 3.27263 3.81979 0
M  V30 313 H 24.3358 4.92022 3.21229 0
M  V30 314 H 25.8598 4.5525 4.06915 0
M  V30 315 H 27.2738 5.38857 1.95718 0
M  V30 316 H 25.6708 5.85453 1.31776 0
M  V30 317 H 26.7408 4.83733 0.336219 0
M  V30 318 N 28.0839 -0.256276 1.55502 0
M  V30 319 C 28.9939 -1.33882 1.92647 0
M  V30 320 C 30.0099 -1.53159 0.825727 0
M  V30 321 O 31.1859 -1.66963 1.12629 0
M  V30 322 C 28.2509 -2.6751 2.20543 0
M  V30 323 C 27.3119 -2.56836 3.43997 0
M  V30 324 C 26.5449 -3.84092 3.70553 0
M  V30 325 O 26.7679 -4.85545 2.99336 0
M  V30 326 O 25.7019 -3.83288 4.64084 0
M  V30 327 H 29.5279 -1.05374 2.84833 0
M  V30 328 H 27.1129 -0.456237 1.42263 0
M  V30 329 H 28.9949 -3.46492 2.39835 0
M  V30 330 H 27.6699 -2.9577 1.31536 0
M  V30 331 H 26.5769 -1.76172 3.30021 0
M  V30 332 H 27.9099 -2.33523 4.33275 0
M  V30 333 N 29.562 -1.4872 -0.521534 0
M  V30 334 C 30.808 -1.574 -1.27879 0
M  V30 335 C 31.141 -0.250817 -1.92573 0
M  V30 336 O 30.416 0.743934 -1.79711 0
M  V30 337 C 30.699 -2.71843 -2.36164 0
M  V30 338 C 30.552 -4.13893 -1.76105 0
M  V30 339 C 31.871 -2.82008 -3.37875 0
M  V30 340 H 28.99 -0.572941 -0.463581 0
M  V30 341 H 31.632 -1.80927 -0.580119 0
M  V30 342 H 29.782 -2.51914 -2.95756 0
M  V30 343 H 31.454 -4.45284 -1.20499 0
M  V30 344 H 29.697 -4.20498 -1.06601 0
M  V30 345 H 30.368 -4.89804 -2.5455 0
M  V30 346 H 32.844 -3.00086 -2.88249 0
M  V30 347 H 31.72 -3.63796 -4.11028 0
M  V30 348 H 31.981 -1.90511 -3.98946 0
M  V30 349 N 31.0401 0.771051 -1.3745 0
M  V30 350 C 32.2701 1.55789 -1.35696 0
M  V30 351 C 32.6781 1.89107 0.0594523 0
M  V30 352 O 32.0211 1.51984 1.03183 0
M  V30 353 C 32.0831 2.89515 -2.13123 0
M  V30 354 C 31.7471 2.78829 -3.62082 0
M  V30 355 C 32.7441 2.49812 -4.5595 0
M  V30 356 C 30.4291 2.9683 -4.05213 0
M  V30 357 C 32.4231 2.38923 -5.90927 0
M  V30 358 C 30.1101 2.85562 -5.40276 0
M  V30 359 C 31.1081 2.56649 -6.32946 0
M  V30 360 O 30.7961 2.45408 -7.65526 0
M  V30 361 H 30.5281 0.489257 -0.466481 0
M  V30 362 H 33.0821 0.963446 -1.81403 0
M  V30 363 H 31.3121 3.51081 -1.62107 0
M  V30 364 H 33.0011 3.50915 -2.03994 0
M  V30 365 H 33.7671 2.3559 -4.23937 0
M  V30 366 H 29.6461 3.18335 -3.33442 0
M  V30 367 H 33.1901 2.16277 -6.63227 0
M  V30 368 H 29.0871 2.99351 -5.71891 0
M  V30 369 H 29.8551 2.60753 -7.75855 0
M  V30 370 N 32.5182 1.22032 0.997298 0
M  V30 371 C 33.7432 1.06921 1.77715 0
M  V30 372 C 34.1682 -0.376226 1.84299 0
M  V30 373 O 33.5262 -1.27165 1.29223 0
M  V30 374 C 33.5742 1.67996 3.19076 0
M  V30 375 O 32.6782 0.930653 4.01762 0
M  V30 376 H 32.0192 0.375814 0.547412 0
M  V30 377 H 34.5492 1.61737 1.25309 0
M  V30 378 H 34.5592 1.72538 3.69723 0
M  V30 379 H 33.2342 2.73182 3.13599 0
M  V30 380 H 31.8112 0.960917 3.60307 0
M  V30 381 N 33.9963 -1.19345 1.0293 0
M  V30 382 C 35.2243 -1.92997 0.745644 0
M  V30 383 C 35.6393 -1.75519 -0.695589 0
M  V30 384 O 34.9963 -1.07737 -1.47306 0
M  V30 385 C 35.0473 -3.44741 1.08792 0
M  V30 386 O 34.7683 -3.61658 2.47256 0
M  V30 387 C 36.2693 -4.35515 0.827129 0
M  V30 388 H 33.4893 -0.613042 0.272801 0
M  V30 389 H 36.0333 -1.51473 1.3739 0
M  V30 390 H 34.1883 -3.84097 0.504832 0
M  V30 391 H 34.6023 -4.55514 2.60015 0
M  V30 392 H 36.0763 -5.40589 1.11658 0
M  V30 393 H 36.5533 -4.38552 -0.238436 0
M  V30 394 H 37.1593 -4.01841 1.39297 0
M  V30 395 N 35.4744 -0.807222 -1.35358 0
M  V30 396 C 36.4214 -0.216037 -2.29787 0
M  V30 397 C 37.3914 0.650278 -1.52842 0
M  V30 398 O 38.5764 0.595227 -1.81278 0
M  V30 399 C 35.7164 0.628893 -3.39321 0
M  V30 400 C 34.8294 -0.257927 -4.31229 0
M  V30 401 C 33.9644 0.595069 -5.27856 0
M  V30 402 C 33.0034 -0.292111 -6.11403 0
M  V30 403 N 32.1404 0.520895 -7.00165 0
M  V30 404 H 36.9804 -1.02671 -2.79755 0
M  V30 405 H 34.5174 -0.517839 -1.37684 0
M  V30 406 H 36.4754 1.13393 -4.01494 0
M  V30 407 H 35.1054 1.40482 -2.90628 0
M  V30 408 H 34.1574 -0.881076 -3.70056 0
M  V30 409 H 35.4694 -0.940759 -4.89848 0
M  V30 410 H 34.6234 1.16522 -5.95405 0
M  V30 411 H 33.3624 1.31146 -4.69736 0
M  V30 412 H 32.3674 -0.874525 -5.428 0
M  V30 413 H 33.5924 -1.00638 -6.71602 0
M  V30 414 H 31.5384 1.22125 -6.44532 0
M  V30 415 H 31.4554 -0.103877 -7.55929 0
M  V30 416 H 32.7234 1.0743 -7.72062 0
M  V30 417 N 36.9525 1.47285 -0.560781 0
M  V30 418 C 37.9155 2.28535 0.174488 0
M  V30 419 C 38.9155 1.37153 0.839388 0
M  V30 420 O 40.1055 1.59748 0.694702 0
M  V30 421 C 37.2375 3.16934 1.25561 0
M  V30 422 H 38.4305 2.95012 -0.539262 0
M  V30 423 H 35.9835 1.53034 -0.317865 0
M  V30 424 H 36.7185 2.55157 2.00164 0
M  V30 425 H 36.5035 3.8419 0.783604 0
M  V30 426 H 37.9935 3.78143 1.77193 0
M  V30 427 N 38.4306 0.297415 1.54768 0
M  V30 428 C 39.3776 -0.580276 2.23386 0
M  V30 429 C 40.3476 -1.13238 1.21517 0
M  V30 430 O 41.5326 -1.17757 1.50126 0
M  V30 431 C 38.6726 -1.74801 2.97555 0
M  V30 432 C 37.7856 -1.22764 4.1419 0
M  V30 433 C 36.9206 -2.35895 4.75949 0
M  V30 434 C 35.9596 -1.80974 5.84735 0
M  V30 435 N 35.0966 -2.87664 6.40464 0
M  V30 436 H 39.9366 0.0114833 2.97998 0
M  V30 437 H 37.4736 0.0174361 1.4709 0
M  V30 438 H 39.4316 -2.43475 3.38786 0
M  V30 439 H 38.0616 -2.31145 2.25326 0
M  V30 440 H 37.1136 -0.433271 3.77924 0
M  V30 441 H 38.4256 -0.785551 4.92575 0
M  V30 442 H 37.5796 -3.12523 5.20014 0
M  V30 443 H 36.3186 -2.83429 3.96887 0
M  V30 444 H 35.3236 -1.02834 5.40097 0
M  V30 445 H 36.5486 -1.34348 6.65678 0
M  V30 446 H 34.4946 -3.34538 5.64287 0
M  V30 447 H 34.4116 -2.4794 7.14186 0
M  V30 448 H 35.6796 -3.642 6.89187 0
M  V30 449 N 39.9087 -1.5758 0.0250728 0
M  V30 450 C 40.8567 -2.11125 -0.97617 0
M  V30 451 C 41.8507 -1.03689 -1.33959 0
M  V30 452 O 43.0567 -1.22128 -1.3223 0
M  V30 453 H 39.4317 -0.674468 -0.332561 0
M  V30 454 H 41.4027 -2.94194 -0.499223 0
M  V30 455 C 40.1517 -2.65017 -2.2508 0
M  V30 456 H 39.4747 -3.47333 -1.9799 0
M  V30 457 H 40.9147 -3.06133 -2.93357 0
M  V30 458 C 39.3737 -1.57574 -2.97779 0
M  V30 459 O 39.9037 -0.973203 -3.89733 0
M  V30 460 N 38.1097 -1.29716 -2.60043 0
M  V30 461 H 37.6567 -1.789 -1.85345 0
M  V30 462 H 37.6147 -0.58051 -3.08994 0
M  V30 463 N 41.3868 0.248026 -1.55636 0
M  V30 464 C 42.6168 0.992367 -1.81206 0
M  V30 465 C 43.0248 1.7949 -0.598324 0
M  V30 466 O 42.3678 1.78292 0.442434 0
M  V30 467 C 42.4298 1.97926 -3.00109 0
M  V30 468 C 42.0938 1.36377 -4.36177 0
M  V30 469 C 43.0908 0.76682 -5.14214 0
M  V30 470 C 40.7758 1.38347 -4.82872 0
M  V30 471 C 42.7698 0.197778 -6.37093 0
M  V30 472 C 40.4568 0.810574 -6.057 0
M  V30 473 C 41.4548 0.218754 -6.8265 0
M  V30 474 O 41.1428 -0.345298 -8.03158 0
M  V30 475 H 40.8748 0.297704 -0.606917 0
M  V30 476 H 43.4288 0.276517 -2.0353 0
M  V30 477 H 41.6588 2.73339 -2.73538 0
M  V30 478 H 43.3478 2.58694 -3.12781 0
M  V30 479 H 44.1138 0.744114 -4.79258 0
M  V30 480 H 39.9928 1.8335 -4.2297 0
M  V30 481 H 43.5368 -0.264788 -6.97097 0
M  V30 482 H 39.4338 0.830604 -6.40134 0
M  V30 483 H 40.2018 -0.237055 -8.18157 0
M  V30 484 N 42.8649 1.48995 0.513639 0
M  V30 485 C 44.1109 1.58076 1.27042 0
M  V30 486 C 44.4439 0.261026 1.92438 0
M  V30 487 O 43.7189 -0.734393 1.80103 0
M  V30 488 C 44.0019 2.73091 2.34719 0
M  V30 489 C 43.8549 4.14821 1.73907 0
M  V30 490 C 45.1739 2.83796 3.36375 0
M  V30 491 H 42.2929 0.575391 0.460536 0
M  V30 492 H 44.9349 1.81232 0.570516 0
M  V30 493 H 43.0849 2.53479 2.94416 0
M  V30 494 H 44.7569 4.45917 1.18135 0
M  V30 495 H 42.9999 4.21058 1.0437 0
M  V30 496 H 43.6709 4.91147 2.51949 0
M  V30 497 H 46.1469 3.01611 2.86653 0
M  V30 498 H 45.0229 3.65971 4.09093 0
M  V30 499 H 45.2839 1.92624 3.9793 0
M  V30 500 N 44.343 -0.763751 1.37857 0
M  V30 501 C 45.291 -1.89864 1.34367 0
M  V30 502 C 46.285 -1.67816 0.231143 0
M  V30 503 O 47.491 -1.75508 0.399617 0
M  V30 504 H 43.866 -0.624501 0.41893 0
M  V30 505 H 45.837 -1.89925 2.30155 0
M  V30 506 C 44.586 -3.27227 1.1755 0
M  V30 507 H 43.909 -3.44773 2.02414 0
M  V30 508 H 45.349 -4.06911 1.1916 0
M  V30 509 C 43.808 -3.36692 -0.118311 0
M  V30 510 O 44.338 -3.86374 -1.09902 0
M  V30 511 N 42.544 -2.90092 -0.171717 0
M  V30 512 H 42.091 -2.49853 0.627012 0
M  V30 513 H 42.049 -2.96806 -1.03699 0
M  V30 514 N 45.8211 -1.22559 -0.990812 0
M  V30 515 C 47.0691 -1.04933 -1.72724 0
M  V30 516 C 47.3901 0.416158 -1.90508 0
M  V30 517 O 46.6601 1.29918 -1.46622 0
M  V30 518 H 45.2401 -0.385296 -0.639965 0
M  V30 519 H 47.9021 -1.54105 -1.19322 0
M  V30 520 H 46.9981 -1.52886 -2.72089 0
M  V30 521 N 47.2992 1.18797 -1.03562 0
M  V30 522 C 48.2492 2.20161 -0.592724 0
M  V30 523 C 49.2332 1.56772 0.362133 0
M  V30 524 O 50.4252 1.76062 0.182009 0
M  V30 525 C 47.5542 3.43266 0.0481024 0
M  V30 526 C 46.6402 4.13786 -0.9296 0
M  V30 527 N 47.0312 4.60388 -2.09467 0
M  V30 528 C 45.3292 4.39572 -0.754499 0
M  V30 529 C 46.0302 5.14619 -2.71187 0
M  V30 530 N 45.0062 5.05826 -1.991 0
M  V30 531 H 48.8082 2.53877 -1.48066 0
M  V30 532 H 46.3222 1.34946 -0.903514 0
M  V30 533 H 48.3192 4.15136 0.383058 0
M  V30 534 H 46.9792 3.11048 0.931636 0
M  V30 535 H 47.9902 4.54999 -2.47379 0
M  V30 536 H 44.6672 4.17425 0.0793713 0
M  V30 537 H 46.0572 5.60917 -3.69895 0
M  V30 538 N 48.7773 0.814389 1.34928 0
M  V30 539 C 50.0173 0.404165 2.00364 0
M  V30 540 C 50.3813 -1.01166 1.63185 0
M  V30 541 O 51.5823 -1.52431 2.21401 0
M  V30 542 C 49.8533 0.590718 3.52484 0
M  V30 543 S 51.4123 0.272075 4.37956 0
M  V30 544 H 48.2303 0.15311 0.694319 0
M  V30 545 H 50.8323 1.05834 1.64376 0
M  V30 546 H 49.5363 1.62099 3.77031 0
M  V30 547 H 49.0673 -0.0785013 3.93322 0
M  V30 548 H 51.0823 -0.917405 4.87645 0
M  V30 549 N 50.2554 -1.46986 0.568584 0
M  V30 550 C 51.4834 -2.0683 0.0539956 0
M  V30 551 C 51.8984 -1.41953 -1.24478 0
M  V30 552 O 51.2554 -0.519933 -1.74937 0
M  V30 553 C 51.3064 -3.61254 -0.133362 0
M  V30 554 O 51.0274 -4.237 1.11399 0
M  V30 555 C 52.5284 -4.37992 -0.683927 0
M  V30 556 H 49.7484 -0.669058 0.0510141 0
M  V30 557 H 52.2924 -1.88824 0.785234 0
M  V30 558 H 50.4474 -3.78735 -0.81477 0
M  V30 559 H 50.8614 -5.16388 0.91888 0
M  V30 560 H 52.3354 -5.46684 -0.764263 0
M  V30 561 H 52.8124 -4.05058 -1.69778 0
M  V30 562 H 53.4184 -4.25283 -0.0378494 0
M  V30 563 N 51.7335 -0.305618 -1.54608 0
M  V30 564 C 52.6805 0.568421 -2.23691 0
M  V30 565 C 53.6505 1.12592 -1.22116 0
M  V30 566 O 54.8355 1.16959 -1.50749 0
M  V30 567 C 51.9755 1.7322 -2.98477 0
M  V30 568 C 51.0885 1.20566 -4.14835 0
M  V30 569 C 50.2235 2.33368 -4.77193 0
M  V30 570 C 49.2625 1.7787 -5.85686 0
M  V30 571 N 48.3995 2.84263 -6.4198 0
M  V30 572 H 53.2395 -0.0272867 -2.97988 0
M  V30 573 H 50.7765 -0.0252363 -1.47078 0
M  V30 574 H 52.7345 2.41675 -3.40072 0
M  V30 575 H 51.3645 2.29947 -2.26548 0
M  V30 576 H 50.4165 0.413223 -3.78149 0
M  V30 577 H 51.7285 0.759417 -4.92985 0
M  V30 578 H 50.8825 3.09761 -5.21664 0
M  V30 579 H 49.6215 2.8132 -3.98385 0
M  V30 580 H 48.6265 0.99968 -5.40635 0
M  V30 581 H 49.8515 1.30816 -6.66381 0
M  V30 582 H 47.7975 3.31541 -5.66053 0
M  V30 583 H 47.7145 2.44149 -7.15491 0
M  V30 584 H 48.9825 3.6054 -6.91109 0
M  V30 585 N 53.2116 1.57565 -0.0334293 0
M  V30 586 C 54.4416 1.95996 0.653398 0
M  V30 587 C 54.8496 0.908749 1.65947 0
M  V30 588 O 54.1926 -0.117471 1.83324 0
M  V30 589 C 54.2546 3.30589 1.41249 0
M  V30 590 C 53.9186 4.53503 0.564263 0
M  V30 591 C 54.9156 5.19647 -0.16225 0
M  V30 592 C 52.6006 4.99801 0.500398 0
M  V30 593 C 54.5946 6.30412 -0.941255 0
M  V30 594 C 52.2816 6.10448 -0.282308 0
M  V30 595 C 53.2796 6.75612 -1.00184 0
M  V30 596 O 52.9676 7.84134 -1.77171 0
M  V30 597 H 52.6996 0.65027 0.184728 0
M  V30 598 H 55.2536 2.05199 -0.0907841 0
M  V30 599 H 53.4836 3.17888 2.20191 0
M  V30 600 H 55.1726 3.53892 1.98784 0
M  V30 601 H 55.9386 4.84846 -0.12227 0
M  V30 602 H 51.8176 4.48883 1.05002 0
M  V30 603 H 55.3616 6.81208 -1.50339 0
M  V30 604 H 51.2586 6.44686 -0.323989 0
M  V30 605 H 52.0266 8.00822 -1.69194 0
M  V30 606 N 54.6897 -0.239769 1.55765 0
M  V30 607 C 55.5997 -1.31831 1.94056 0
M  V30 608 C 56.6157 -1.52275 0.841925 0
M  V30 609 O 57.7917 -1.65759 1.14394 0
M  V30 610 C 54.8567 -2.65156 2.23368 0
M  V30 611 C 53.9177 -2.53173 3.46701 0
M  V30 612 C 53.1507 -3.8014 3.74606 0
M  V30 613 O 53.3737 -4.82343 3.04469 0
M  V30 614 O 52.3077 -3.78344 4.68123 0
M  V30 615 H 56.1337 -1.02347 2.85935 0
M  V30 616 H 53.7187 -0.441123 1.42739 0
M  V30 617 H 55.6007 -3.43929 2.43497 0
M  V30 618 H 54.2757 -2.94358 1.34666 0
M  V30 619 H 53.1827 -1.72662 3.31871 0
M  V30 620 H 54.5157 -2.28915 4.35728 0
M  V30 621 N 56.1678 -1.49265 -0.50573 0
M  V30 622 C 57.5788 -1.51769 -1.08734 0
M  V30 623 C 57.9298 -0.301192 -1.93874 0
M  V30 624 O 57.0548 0.589456 -2.08217 0
M  V30 625 C 57.6498 -2.75017 -1.97867 0
M  V30 626 C 56.2088 -2.80314 -2.51199 0
M  V30 627 C 55.3558 -2.4562 -1.28709 0
M  V30 628 H 58.3068 -1.56031 -0.289855 0
M  V30 629 H 58.3278 -2.5491 -2.82491 0
M  V30 630 H 57.8398 -3.63539 -1.35873 0
M  V30 631 H 55.9408 -1.96061 -3.16845 0
M  V30 632 H 56.0538 -3.82366 -2.88675 0
M  V30 633 H 54.4178 -1.97297 -1.61078 0
M  V30 634 H 55.2008 -3.36411 -0.6843 0
M  V30 635 N 57.6459 0.756429 -1.3826 0
M  V30 636 C 58.8919 1.5168 -1.35517 0
M  V30 637 C 59.2469 1.9232 0.0554451 0
M  V30 638 O 58.5399 1.62352 1.01746 0
M  V30 639 C 58.7339 2.78313 -2.24224 0
M  V30 640 C 58.5629 2.50053 -3.7377 0
M  V30 641 C 57.3329 2.43414 -4.42807 0
M  V30 642 C 59.5309 2.1702 -4.66269 0
M  V30 643 N 57.5129 2.07398 -5.77805 0
M  V30 644 C 58.8839 1.91271 -5.89759 0
M  V30 645 C 60.9389 2.03305 -4.54501 0
M  V30 646 C 59.6419 1.53192 -7.02798 0
M  V30 647 C 61.6679 1.66627 -5.67441 0
M  V30 648 C 61.0299 1.4175 -6.8999 0
M  V30 649 H 57.1289 0.554735 -0.551174 0
M  V30 650 H 59.7129 0.881106 -1.73622 0
M  V30 651 H 57.8839 3.39696 -1.88311 0
M  V30 652 H 59.6159 3.44343 -2.12627 0
M  V30 653 H 56.3709 2.59789 -3.95988 0
M  V30 654 H 56.7949 1.92044 -6.4919 0
M  V30 655 H 61.4369 2.21215 -3.60311 0
M  V30 656 H 59.1549 1.34022 -7.96909 0
M  V30 657 H 62.7409 1.56652 -5.60314 0
M  V30 658 H 61.6209 1.1379 -7.759 0
M  V30 659 N 59.124 1.23083 0.984299 0
M  V30 660 C 60.056 0.96636 2.07832 0
M  V30 661 C 61.069 -0.0582135 1.62696 0
M  V30 662 O 62.258 0.176843 1.77622 0
M  V30 663 C 59.358 0.433397 3.36117 0
M  V30 664 C 58.531 1.51722 4.10243 0
M  V30 665 C 57.59 0.989821 5.16807 0
M  V30 666 O 56.616 1.67794 5.43906 0
M  V30 667 N 57.818 -0.184367 5.80207 0
M  V30 668 H 60.583 1.90824 2.31098 0
M  V30 669 H 58.144 1.13888 1.1507 0
M  V30 670 H 60.136 0.065699 4.04647 0
M  V30 671 H 58.706 -0.413806 3.09849 0
M  V30 672 H 57.926 2.05786 3.36223 0
M  V30 673 H 59.214 2.24619 4.56534 0
M  V30 674 H 58.612 -0.760062 5.60571 0
M  V30 675 H 57.169 -0.493366 6.4993 0
M  V30 676 N 60.6021 -1.18246 1.0419 0
M  V30 677 C 61.5321 -2.24127 0.654914 0
M  V30 678 C 62.5131 -1.66617 -0.342451 0
M  V30 679 O 63.6981 -1.92924 -0.222277 0
M  V30 680 C 60.8281 -3.47295 0.0183757 0
M  V30 681 C 59.7821 -4.17563 0.939414 0
M  V30 682 C 59.1081 -5.34438 0.167286 0
M  V30 683 C 60.4081 -4.70917 2.25908 0
M  V30 684 H 62.1021 -2.56753 1.54007 0
M  V30 685 H 59.6481 -1.23414 0.74195 0
M  V30 686 H 61.6011 -4.20572 -0.264082 0
M  V30 687 H 60.3251 -3.13907 -0.901664 0
M  V30 688 H 58.9841 -3.46186 1.20628 0
M  V30 689 H 58.6321 -4.97298 -0.7552 0
M  V30 690 H 58.3321 -5.82388 0.780901 0
M  V30 691 H 59.8561 -6.10504 -0.108125 0
M  V30 692 H 61.2701 -5.35882 2.03724 0
M  V30 693 H 59.6671 -5.29406 2.82577 0
M  V30 694 H 60.7371 -3.88272 2.9047 0
M  V30 695 N 62.0802 -0.821533 -1.34494 0
M  V30 696 C 63.3292 -0.405355 -1.97585 0
M  V30 697 C 63.6422 1.03677 -1.65863 0
M  V30 698 O 64.8482 1.55679 -2.22433 0
M  V30 699 C 63.3042 -0.673861 -3.53535 0
M  V30 700 C 62.9122 -2.12951 -3.94152 0
M  V30 701 C 64.6562 -0.32378 -4.23263 0
M  V30 702 C 62.5632 -2.34298 -5.43009 0
M  V30 703 H 61.4932 -0.147836 -0.739365 0
M  V30 704 H 64.1442 -1.00769 -1.53355 0
M  V30 705 H 62.5262 -0.00137554 -3.96 0
M  V30 706 H 63.7002 -2.84104 -3.62797 0
M  V30 707 H 62.0152 -2.44089 -3.37356 0
M  V30 708 H 64.6122 -0.461126 -5.32708 0
M  V30 709 H 64.9552 0.731586 -4.09821 0
M  V30 710 H 65.4882 -0.950786 -3.8627 0
M  V30 711 H 62.2272 -3.38335 -5.61435 0
M  V30 712 H 61.7472 -1.67687 -5.75883 0
M  V30 713 H 63.4262 -2.16588 -6.09671 0
M  V30 714 N 63.5583 1.46682 -0.576371 0
M  V30 715 C 64.5213 2.28707 0.150239 0
M  V30 716 C 65.5213 1.38035 0.824794 0
M  V30 717 O 66.7113 1.60476 0.677719 0
M  V30 718 C 63.8433 3.18248 1.22192 0
M  V30 719 H 65.0363 2.94423 -0.570521 0
M  V30 720 H 62.5893 1.52688 -0.334078 0
M  V30 721 H 63.3243 2.57265 1.97447 0
M  V30 722 H 63.1093 3.85 0.742812 0
M  V30 723 H 64.5993 3.80001 1.73172 0
M  V30 724 N 65.0364 0.313813 1.54444 0
M  V30 725 C 66.2824 -0.284918 2.01395 0
M  V30 726 C 66.6374 -1.50537 1.19818 0
M  V30 727 O 65.9304 -1.89692 0.269748 0
M  V30 728 C 66.1244 -0.680386 3.50864 0
M  V30 729 C 65.9534 0.500198 4.4691 0
M  V30 730 C 64.7234 0.996248 4.95382 0
M  V30 731 C 66.9214 1.34928 4.96285 0
M  V30 732 N 64.9034 2.14226 5.75309 0
M  V30 733 C 66.2744 2.3426 5.7404 0
M  V30 734 C 68.3294 1.37818 4.78446 0
M  V30 735 C 67.0324 3.36272 6.35856 0
M  V30 736 C 69.0584 2.38695 5.4109 0
M  V30 737 C 68.4204 3.36755 6.18688 0
M  V30 738 H 64.5194 -0.0683689 0.779006 0
M  V30 739 H 67.1034 0.44664 1.89508 0
M  V30 740 H 65.2744 -1.38109 3.63016 0
M  V30 741 H 67.0064 -1.25975 3.84594 0
M  V30 742 H 63.7614 0.56912 4.70168 0
M  V30 743 H 64.1854 2.72005 6.19953 0
M  V30 744 H 68.8274 0.633747 4.18023 0
M  V30 745 H 66.5454 4.11627 6.95405 0
M  V30 746 H 70.1314 2.41721 5.29209 0
M  V30 747 H 69.0114 4.13535 6.66302 0
M  V30 748 N 66.5145 -1.57545 0.0417849 0
M  V30 749 C 67.7395 -1.97035 -0.647455 0
M  V30 750 C 68.1645 -0.918775 -1.64135 0
M  V30 751 O 67.5225 0.119006 -1.80909 0
M  V30 752 C 67.5705 -3.35609 -1.31905 0
M  V30 753 O 66.6745 -3.3287 -2.43457 0
M  V30 754 H 66.0155 -0.64211 -0.169086 0
M  V30 755 H 68.5455 -2.04318 0.107399 0
M  V30 756 H 68.5555 -3.72126 -1.67291 0
M  V30 757 H 67.2305 -4.11685 -0.590586 0
M  V30 758 H 65.8075 -3.08087 -2.10088 0
M  V30 759 N 67.9926 0.231505 -1.5589 0
M  V30 760 C 69.2386 0.95877 -1.78705 0
M  V30 761 C 69.5716 1.8438 -0.609725 0
M  V30 762 O 68.8466 1.90521 0.391426 0
M  V30 763 C 69.1296 1.8062 -3.11526 0
M  V30 764 C 68.9826 0.948328 -4.39689 0
M  V30 765 C 70.3016 2.78585 -3.40703 0
M  V30 766 H 67.4206 0.347129 -0.650131 0
M  V30 767 H 70.0626 0.228259 -1.88624 0
M  V30 768 H 68.2126 2.42902 -3.03201 0
M  V30 769 H 69.8846 0.343016 -4.60023 0
M  V30 770 H 68.1276 0.253314 -4.3306 0
M  V30 771 H 68.7986 1.57543 -5.29041 0
M  V30 772 H 71.2746 2.26439 -3.49091 0
M  V30 773 H 70.1506 3.34988 -4.34826 0
M  V30 774 H 70.4116 3.55825 -2.62375 0
M  V30 775 N 69.4707 1.49531 0.497807 0
M  V30 776 C 70.7167 1.59415 1.25358 0
M  V30 777 C 71.0497 0.281422 1.9215 0
M  V30 778 O 70.3247 -0.715249 1.80871 0
M  V30 779 C 70.6077 2.75566 2.3181 0
M  V30 780 C 70.4607 4.16642 1.69498 0
M  V30 781 C 71.7797 2.87347 3.33346 0
M  V30 782 H 68.8987 0.580244 0.454408 0
M  V30 783 H 71.5407 1.81827 0.551262 0
M  V30 784 H 69.6907 2.56587 2.91711 0
M  V30 785 H 71.3627 4.47145 1.13399 0
M  V30 786 H 69.6057 4.22141 0.998978 0
M  V30 787 H 70.2767 4.93792 2.46725 0
M  V30 788 H 72.7527 3.04634 2.83438 0
M  V30 789 H 71.6287 3.70289 4.05188 0
M  V30 790 H 71.8897 1.96834 3.95865 0
M  V30 791 N 70.9488 -0.749086 1.3866 0
M  V30 792 C 72.1948 -1.50959 1.36319 0
M  V30 793 C 72.5498 -1.92347 -0.0452451 0
M  V30 794 O 71.8428 -1.6289 -1.00884 0
M  V30 795 C 72.0368 -2.7712 2.25697 0
M  V30 796 C 71.8658 -2.48067 3.7509 0
M  V30 797 C 70.6358 -2.41062 4.44091 0
M  V30 798 C 72.8338 -2.14544 4.67414 0
M  V30 799 N 70.8158 -2.04331 5.78897 0
M  V30 800 C 72.1868 -1.88141 5.90765 0
M  V30 801 C 74.2418 -2.00892 4.55573 0
M  V30 802 C 72.9448 -1.49463 7.036 0
M  V30 803 C 74.9708 -1.63616 5.68317 0
M  V30 804 C 74.3328 -1.38088 6.90732 0
M  V30 805 H 70.4318 -0.551804 0.554108 0
M  V30 806 H 73.0158 -0.871886 1.74087 0
M  V30 807 H 71.1868 -3.38693 1.9011 0
M  V30 808 H 72.9188 -3.4321 2.1445 0
M  V30 809 H 69.6738 -2.57685 3.9736 0
M  V30 810 H 70.0978 -1.88598 6.502 0
M  V30 811 H 74.7398 -2.19301 3.61479 0
M  V30 812 H 72.4578 -1.29794 7.97608 0
M  V30 813 H 76.0438 -1.53678 5.61137 0
M  V30 814 H 74.9238 -1.09674 7.76493 0
M  V30 815 N 72.4269 -1.23603 -0.977757 0
M  V30 816 C 73.6549 -1.09646 -1.75458 0
M  V30 817 C 74.0699 0.351859 -1.85492 0
M  V30 818 O 73.4269 1.24327 -1.336 0
M  V30 819 C 73.4779 -1.71895 -3.18016 0
M  V30 820 O 73.1989 -3.11063 -3.08498 0
M  V30 821 C 74.6999 -1.63415 -4.12081 0
M  V30 822 H 71.9199 -0.38359 -0.550545 0
M  V30 823 H 74.4639 -1.63507 -1.22824 0
M  V30 824 H 72.6189 -1.22061 -3.67668 0
M  V30 825 H 73.0329 -3.41305 -3.9826 0
M  V30 826 H 74.5069 -2.11669 -5.09804 0
M  V30 827 H 74.9839 -0.593462 -4.35172 0
M  V30 828 H 75.5899 -2.12628 -3.68334 0
M  V30 829 N 73.905 1.17692 -1.04816 0
M  V30 830 C 74.835 2.23777 -0.666791 0
M  V30 831 C 75.816 1.66796 0.33361 0
M  V30 832 O 77.001 1.93039 0.212042 0
M  V30 833 C 74.131 3.47281 -0.0367933 0
M  V30 834 C 73.085 4.17059 -0.961546 0
M  V30 835 C 72.411 5.34342 -0.195626 0
M  V30 836 C 73.711 4.69713 -2.28402 0
M  V30 837 H 75.405 2.55933 -1.55367 0
M  V30 838 H 72.951 1.23019 -0.748484 0
M  V30 839 H 74.904 4.20706 0.241775 0
M  V30 840 H 73.628 3.14381 0.885004 0
M  V30 841 H 72.287 3.45541 -1.22462 0
M  V30 842 H 71.935 4.97692 0.728816 0
M  V30 843 H 71.635 5.81966 -0.811775 0
M  V30 844 H 73.159 6.10553 0.0757473 0
M  V30 845 H 74.573 5.34794 -2.06563 0
M  V30 846 H 72.97 5.279 -2.8538 0
M  V30 847 H 74.04 3.86726 -2.92525 0
M  V30 848 N 75.3831 0.828654 1.34056 0
M  V30 849 C 76.3131 0.269443 2.3194 0
M  V30 850 C 77.2941 -0.617247 1.58506 0
M  V30 851 O 78.4791 -0.542931 1.86456 0
M  V30 852 C 75.6091 -0.564793 3.42677 0
M  V30 853 C 74.5631 0.225241 4.27407 0
M  V30 854 C 73.8891 -0.7321 5.29664 0
M  V30 855 C 75.1891 1.43663 5.02154 0
M  V30 856 H 76.8831 1.08728 2.7896 0
M  V30 857 H 74.4291 0.524283 1.34117 0
M  V30 858 H 76.3821 -0.966233 4.10173 0
M  V30 859 H 75.1061 -1.41574 2.9432 0
M  V30 860 H 73.7651 0.608117 3.61521 0
M  V30 861 H 73.4131 -1.57916 4.77568 0
M  V30 862 H 73.1131 -0.20767 5.87233 0
M  V30 863 H 74.6371 -1.13128 6.00029 0
M  V30 864 H 76.0511 1.1089 5.62473 0
M  V30 865 H 74.4481 1.89711 5.69324 0
M  V30 866 H 75.5181 2.21181 4.31517 0
M  V30 867 N 76.8612 -1.46375 0.584142 0
M  V30 868 C 78.1102 -2.01585 0.0679741 0
M  V30 869 C 78.4232 -1.46109 -1.30045 0
M  V30 870 O 79.6292 -1.93148 -1.90804 0
M  V30 871 C 78.0852 -3.5983 0.0709207 0
M  V30 872 C 77.6932 -4.24303 1.43775 0
M  V30 873 C 79.4372 -4.22693 -0.391228 0
M  V30 874 C 77.3442 -5.74631 1.39834 0
M  V30 875 H 76.2742 -0.753689 0.0216421 0
M  V30 876 H 78.9252 -1.68093 0.736001 0
M  V30 877 H 77.3072 -3.90405 -0.663299 0
M  V30 878 H 78.4812 -4.05335 2.19181 0
M  V30 879 H 76.7962 -3.73539 1.84004 0
M  V30 880 H 79.3932 -5.3289 -0.439524 0
M  V30 881 H 79.7362 -3.91728 -1.40906 0
M  V30 882 H 80.2692 -3.96749 0.288974 0
M  V30 883 H 77.0082 -6.10258 2.39303 0
M  V30 884 H 76.5282 -5.95858 0.686505 0
M  V30 885 H 78.2072 -6.37375 1.11187 0
M  V30 886 N 78.3393 -0.321999 -1.54275 0
M  V30 887 C 79.5853 0.281461 -2.00837 0
M  V30 888 C 79.9183 1.51909 -1.20985 0
M  V30 889 O 79.1933 1.923 -0.291733 0
M  V30 890 C 79.4763 0.617162 -3.54772 0
M  V30 891 C 79.3293 -0.631064 -4.45351 0
M  V30 892 C 80.6483 1.43542 -4.16033 0
M  V30 893 H 77.7673 0.100826 -0.730071 0
M  V30 894 H 80.4093 -0.438268 -1.84876 0
M  V30 895 H 78.5593 1.23034 -3.68504 0
M  V30 896 H 80.2313 -1.26934 -4.43492 0
M  V30 897 H 78.4743 -1.26025 -4.15091 0
M  V30 898 H 79.1453 -0.351735 -5.50878 0
M  V30 899 H 81.6213 0.917134 -4.05867 0
M  V30 900 H 80.4973 1.63907 -5.23856 0
M  V30 901 H 80.7583 2.43108 -3.69257 0
M  V30 902 N 79.8174 1.5752 -0.0501392 0
M  V30 903 C 81.0634 1.93755 0.618901 0
M  V30 904 C 81.4184 0.928514 1.68512 0
M  V30 905 O 80.7114 -0.0524613 1.91528 0
M  V30 906 C 80.9054 3.34467 1.25963 0
M  V30 907 C 80.7344 4.48965 0.257 0
M  V30 908 C 79.5044 5.05075 -0.150656 0
M  V30 909 C 81.7024 5.11891 -0.497166 0
M  V30 910 N 79.6844 6.03104 -1.14626 0
M  V30 911 C 81.0554 6.05216 -1.34588 0
M  V30 912 C 83.1104 4.9479 -0.55559 0
M  V30 913 C 81.8134 6.83277 -2.24778 0
M  V30 914 C 83.8394 5.73477 -1.44492 0
M  V30 915 C 83.2014 6.66433 -2.28136 0
M  V30 916 H 79.3004 0.756479 0.198149 0
M  V30 917 H 81.8844 1.94316 -0.122229 0
M  V30 918 H 80.0554 3.34685 1.97079 0
M  V30 919 H 81.7874 3.57994 1.88739 0
M  V30 920 H 78.5424 4.7305 0.228094 0
M  V30 921 H 78.9664 6.56813 -1.64092 0
M  V30 922 H 83.6084 4.2273 0.0768625 0
M  V30 923 H 81.3264 7.54629 -2.89069 0
M  V30 924 H 84.9124 5.62273 -1.49468 0
M  V30 925 H 83.7924 7.26258 -2.95835 0
M  V30 926 N 81.2955 -0.223234 1.56011 0
M  V30 927 C 82.5435 -0.946003 1.78592 0
M  V30 928 C 82.8645 -1.84936 0.618349 0
M  V30 929 O 82.1345 -1.92473 -0.364833 0
M  V30 930 H 80.7145 -0.352298 0.658707 0
M  V30 931 H 83.3765 -0.235494 1.93472 0
M  V30 932 H 82.4725 -1.55381 2.70672 0
M  V30 933 N 82.7736 -1.49793 -0.48987 0
M  V30 934 C 84.0036 -1.6333 -1.26518 0
M  V30 935 C 84.4116 -0.308392 -1.8667 0
M  V30 936 O 83.7546 0.717512 -1.69108 0
M  V30 937 C 83.8166 -2.6522 -2.4269 0
M  V30 938 C 83.4806 -4.09279 -2.03321 0
M  V30 939 C 84.4776 -4.95738 -1.56652 0
M  V30 940 C 82.1626 -4.55082 -2.12616 0
M  V30 941 C 84.1566 -6.26041 -1.19795 0
M  V30 942 C 81.8436 -5.85396 -1.75371 0
M  V30 943 C 82.8416 -6.707 -1.29036 0
M  V30 944 O 82.5296 -7.98584 -0.92299 0
M  V30 945 H 82.2616 -0.552502 -0.389509 0
M  V30 946 H 84.8156 -1.96642 -0.593381 0
M  V30 947 H 83.0456 -2.27112 -3.12981 0
M  V30 948 H 84.7346 -2.68171 -3.04695 0
M  V30 949 H 85.5006 -4.61575 -1.48908 0
M  V30 950 H 81.3796 -3.88844 -2.47631 0
M  V30 951 H 84.9236 -6.92578 -0.835582 0
M  V30 952 H 80.8206 -6.19085 -1.82768 0
M  V30 953 H 81.5886 -8.11692 -1.05349 0
M  V30 954 N 84.2517 0.741722 -1.39055 0
M  V30 955 C 85.1617 1.88621 -1.39496 0
M  V30 956 C 86.1777 1.71557 -0.290578 0
M  V30 957 O 87.3537 1.94275 -0.530954 0
M  V30 958 C 84.4187 3.24134 -1.23037 0
M  V30 959 C 83.4797 3.5364 -2.43387 0
M  V30 960 C 82.7127 4.82687 -2.27703 0
M  V30 961 O 82.9357 5.55922 -1.27696 0
M  V30 962 O 81.8697 5.1194 -3.16545 0
M  V30 963 H 85.6957 1.91203 -2.35956 0
M  V30 964 H 83.2807 0.888625 -1.20099 0
M  V30 965 H 85.1627 4.0513 -1.15964 0
M  V30 966 H 83.8377 3.22337 -0.296691 0
M  V30 967 H 82.7447 2.72758 -2.56035 0
M  V30 968 H 84.0777 3.60209 -3.35425 0
M  V30 969 N 85.7298 1.2412 0.971189 0
M  V30 970 C 86.9768 1.07881 1.71371 0
M  V30 971 C 87.3048 -0.382901 1.90694 0
M  V30 972 O 86.5598 -1.29945 1.46331 0
M  V30 973 C 86.8588 1.75983 3.11071 0
M  V30 974 C 86.5248 3.25909 3.11599 0
M  V30 975 C 85.1868 3.66813 3.11451 0
M  V30 976 C 87.5388 4.21771 3.062 0
M  V30 977 C 84.8668 5.02021 3.03631 0
M  V30 978 C 87.2188 5.56982 2.99923 0
M  V30 979 C 85.8828 5.97237 2.98102 0
M  V30 980 H 85.1528 0.394764 0.62709 0
M  V30 981 H 87.7998 1.54176 1.13587 0
M  V30 982 H 86.1048 1.22072 3.72298 0
M  V30 983 H 87.8018 1.60887 3.6731 0
M  V30 984 H 84.3918 2.93353 3.12477 0
M  V30 985 H 88.5758 3.91172 3.05447 0
M  V30 986 H 83.8318 5.32411 3.0058 0
M  V30 987 H 88.0058 6.30969 2.94704 0
M  V30 988 H 85.6328 7.01967 2.91798 0
M  V30 989 N 87.2079 -1.17134 1.05439 0
M  V30 990 C 88.4539 -1.87733 0.767077 0
M  V30 991 C 88.7869 -1.8098 -0.704253 0
M  V30 992 O 88.0619 -1.21951 -1.5152 0
M  V30 993 C 88.3449 -3.37659 1.25133 0
M  V30 994 C 88.1979 -3.53149 2.78578 0
M  V30 995 C 89.5169 -4.31768 0.852324 0
M  V30 996 H 86.6359 -0.681687 0.280129 0
M  V30 997 H 89.2779 -1.37732 1.30881 0
M  V30 998 H 87.4279 -3.80373 0.790469 0
M  V30 999 H 89.0999 -3.19434 3.32806 0
M  V30 1000 H 87.3429 -2.95345 3.17732 0
M  V30 1001 H 88.0139 -4.58403 3.07523 0
M  V30 1002 H 90.4899 -3.96909 1.24911 0
M  V30 1003 H 89.3659 -5.35199 1.21873 0
M  V30 1004 H 89.6269 -4.41429 -0.243485 0
M  V30 1005 N 88.686 -0.835752 -1.33615 0
M  V30 1006 C 89.933 -0.429959 -1.97883 0
M  V30 1007 C 90.261 1.01006 -1.66217 0
M  V30 1008 O 89.516 1.72047 -0.93265 0
M  V30 1009 C 89.815 -0.593925 -3.52431 0
M  V30 1010 C 89.481 -2.00158 -4.04039 0
M  V30 1011 C 88.143 -2.38662 -4.17844 0
M  V30 1012 C 90.495 -2.92117 -4.31644 0
M  V30 1013 C 87.823 -3.68435 -4.56588 0
M  V30 1014 C 90.175 -4.21368 -4.71838 0
M  V30 1015 C 88.839 -4.59833 -4.83849 0
M  V30 1016 H 88.109 -0.157333 -0.724104 0
M  V30 1017 H 90.756 -1.06217 -1.59343 0
M  V30 1018 H 89.061 0.121619 -3.91611 0
M  V30 1019 H 90.758 -0.260282 -4.00154 0
M  V30 1020 H 87.348 -1.69252 -3.93766 0
M  V30 1021 H 91.532 -2.63608 -4.20505 0
M  V30 1022 H 86.788 -3.98046 -4.64079 0
M  V30 1023 H 90.962 -4.92703 -4.92155 0
M  V30 1024 H 88.589 -5.60438 -5.13627 0
M  V30 1025 N 90.1641 1.46063 -0.591896 0
M  V30 1026 C 91.0961 2.28539 0.174001 0
M  V30 1027 C 92.1091 1.39047 0.846753 0
M  V30 1028 O 93.2981 1.63564 0.714774 0
M  V30 1029 C 90.3981 3.14347 1.26645 0
M  V30 1030 C 89.5711 4.32021 0.683856 0
M  V30 1031 C 88.6301 4.99157 1.66518 0
M  V30 1032 O 87.6561 5.56458 1.19763 0
M  V30 1033 N 88.8581 4.97005 2.99943 0
M  V30 1034 H 91.6231 2.94911 -0.533633 0
M  V30 1035 H 89.1841 1.56077 -0.430294 0
M  V30 1036 H 91.1761 3.56125 1.92242 0
M  V30 1037 H 89.7461 2.49988 1.87682 0
M  V30 1038 H 88.9661 3.93915 -0.1498 0
M  V30 1039 H 90.2541 5.08059 0.274567 0
M  V30 1040 H 89.6521 4.51714 3.40545 0
M  V30 1041 H 88.2091 5.42696 3.61004 0
M  V30 1042 N 91.6422 0.330177 1.54103 0
M  V30 1043 C 93.0532 -0.15652 1.86043 0
M  V30 1044 C 93.4042 -1.51086 1.2517 0
M  V30 1045 O 92.5292 -2.09023 0.560217 0
M  V30 1046 C 93.1242 -0.290784 3.3755 0
M  V30 1047 C 91.6832 -0.721705 3.69416 0
M  V30 1048 C 90.8302 0.152622 2.7688 0
M  V30 1049 H 93.7812 0.550237 1.48856 0
M  V30 1050 H 93.8022 -1.12058 3.63625 0
M  V30 1051 H 93.3142 0.695068 3.81825 0
M  V30 1052 H 91.4152 -1.71706 3.30678 0
M  V30 1053 H 91.5282 -0.520869 4.7626 0
M  V30 1054 H 89.8922 -0.372894 2.51956 0
M  V30 1055 H 90.6752 1.13536 3.23982 0
M  V30 1056 N 93.1203 -1.57491 0.0584922 0
M  V30 1057 C 94.0303 -2.15448 -0.928414 0
M  V30 1058 C 95.0463 -1.11416 -1.3365 0
M  V30 1059 O 96.2223 -1.4362 -1.41193 0
M  V30 1060 C 93.2873 -2.69393 -2.18239 0
M  V30 1061 C 92.3483 -3.88249 -1.83196 0
M  V30 1062 C 91.5813 -4.39613 -3.02616 0
M  V30 1063 O 91.8043 -3.90023 -4.16219 0
M  V30 1064 O 90.7383 -5.31111 -2.83204 0
M  V30 1065 H 94.5643 -3.00112 -0.465483 0
M  V30 1066 H 92.1493 -1.48499 -0.163826 0
M  V30 1067 H 94.0313 -3.04026 -2.91798 0
M  V30 1068 H 92.7063 -1.87796 -2.63656 0
M  V30 1069 H 91.6133 -3.58492 -1.06931 0
M  V30 1070 H 92.9463 -4.71098 -1.42573 0
M  V30 1071 N 94.5984 0.214957 -1.56127 0
M  V30 1072 C 95.8234 0.95924 -1.83884 0
M  V30 1073 C 96.2484 1.7689 -0.639644 0
M  V30 1074 O 95.6064 1.76566 0.411601 0
M  V30 1075 C 95.6544 1.84723 -3.09693 0
M  V30 1076 O 94.7584 2.94346 -2.8885 0
M  V30 1077 H 94.0994 0.27125 -0.606069 0
M  V30 1078 H 96.6294 0.226276 -2.03345 0
M  V30 1079 H 96.6394 2.25576 -3.39969 0
M  V30 1080 H 95.3144 1.25218 -3.96602 0
M  V30 1081 H 93.8914 2.57391 -2.69823 0
M  V30 1082 N 96.0765 1.50051 0.48192 0
M  V30 1083 C 97.0065 1.71046 1.58951 0
M  V30 1084 C 97.9875 0.559288 1.60642 0
M  V30 1085 O 99.1725 0.797243 1.77081 0
M  V30 1086 C 96.3025 1.79462 2.97339 0
M  V30 1087 C 95.2565 2.94558 3.10515 0
M  V30 1088 C 94.5825 2.88105 4.50444 0
M  V30 1089 C 95.8825 4.35227 2.88747 0
M  V30 1090 H 97.5765 2.6378 1.41635 0
M  V30 1091 H 95.1225 1.26936 0.679942 0
M  V30 1092 H 97.0755 1.92734 3.74742 0
M  V30 1093 H 95.7995 0.833412 3.15788 0
M  V30 1094 H 94.4585 2.80918 2.35543 0
M  V30 1095 H 94.1065 1.89853 4.65795 0
M  V30 1096 H 93.8065 3.65366 4.60197 0
M  V30 1097 H 95.3305 3.03412 5.29881 0
M  V30 1098 H 96.7445 4.49449 3.55905 0
M  V30 1099 H 95.1415 5.13856 3.09955 0
M  V30 1100 H 96.2115 4.48347 1.84696 0
M  V30 1101 N 97.5546 -0.734337 1.39446 0
M  V30 1102 C 98.8006 -1.49505 1.37913 0
M  V30 1103 C 99.1556 -1.92384 -0.0248416 0
M  V30 1104 O 98.4486 -1.6395 -0.991506 0
M  V30 1105 C 98.6426 -2.74711 2.28623 0
M  V30 1106 C 98.4716 -2.44075 3.777 0
M  V30 1107 C 97.2416 -2.36338 4.46623 0
M  V30 1108 C 99.4396 -2.09574 4.69663 0
M  V30 1109 N 97.4216 -1.9818 5.81032 0
M  V30 1110 C 98.7926 -1.81865 5.92727 0
M  V30 1111 C 100.848 -1.96048 4.57678 0
M  V30 1112 C 99.5506 -1.41992 7.05146 0
M  V30 1113 C 101.577 -1.57579 5.7002 0
M  V30 1114 C 100.939 -1.30754 6.92158 0
M  V30 1115 H 97.0376 -0.545896 0.55993 0
M  V30 1116 H 99.6216 -0.853373 1.75002 0
M  V30 1117 H 97.7926 -3.36657 1.93692 0
M  V30 1118 H 99.5246 -3.40916 2.18078 0
M  V30 1119 H 96.2796 -2.53456 4.00071 0
M  V30 1120 H 96.7036 -1.81691 6.52163 0
M  V30 1121 H 101.346 -2.15455 3.63784 0
M  V30 1122 H 99.0636 -1.21327 7.9894 0
M  V30 1123 H 102.65 -1.47718 5.62735 0
M  V30 1124 H 101.53 -1.01432 7.77612 0
M  V30 1125 N 99.0327 -1.24633 -0.964593 0
M  V30 1126 C 100.258 -1.11596 -1.74818 0
M  V30 1127 C 100.683 0.32723 -1.85232 0
M  V30 1128 O 100.041 1.23695 -1.32549 0
M  V30 1129 C 100.089 -1.76397 -3.1451 0
M  V30 1130 O 99.1927 -1.03685 -3.99153 0
M  V30 1131 H 98.5337 -0.390196 -0.537255 0
M  V30 1132 H 101.064 -1.65002 -1.20977 0
M  V30 1133 H 101.074 -1.8228 -3.65018 0
M  V30 1134 H 99.7487 -2.81401 -3.06246 0
M  V30 1135 H 98.3257 -1.05611 -3.57632 0
M  V30 1136 N 100.511 1.16574 -1.06058 0
M  V30 1137 C 101.927 1.3904 -0.783585 0
M  V30 1138 C 102.127 1.91784 0.618145 0
M  V30 1139 O 101.183 2.11511 1.37911 0
M  V30 1140 C 102.496 2.37329 -1.84649 0
M  V30 1141 C 104.044 2.51018 -1.86973 0
M  V30 1142 C 104.519 3.52588 -2.92311 0
M  V30 1143 N 106.01 3.60113 -2.91329 0
M  V30 1144 C 106.745 4.38486 -3.69482 0
M  V30 1145 N 106.241 5.20302 -4.57447 0
M  V30 1146 N 108.034 4.33446 -3.57885 0
M  V30 1147 H 100.185 0.806725 -1.96483 0
M  V30 1148 H 102.448 0.417117 -0.851303 0
M  V30 1149 H 102.154 2.05663 -2.85299 0
M  V30 1150 H 102.028 3.36946 -1.6955 0
M  V30 1151 H 104.415 2.81989 -0.869827 0
M  V30 1152 H 104.496 1.51445 -2.0615 0
M  V30 1153 H 104.14 3.22354 -3.92492 0
M  V30 1154 H 104.07 4.51886 -2.70383 0
M  V30 1155 H 106.561 3.01707 -2.27555 0
M  V30 1156 H 106.874 5.77311 -5.13743 0
M  V30 1157 H 105.219 5.19653 -4.61503 0
M  V30 1158 H 108.41 3.68586 -2.88551 0
M  V30 1159 H 108.583 4.94279 -4.19037 0
M  V30 1160 N 101.989 0.842826 1.3317 0
M  V30 1161 C 103.236 0.440447 1.97652 0
M  V30 1162 C 103.564 -1.00123 1.6675 0
M  V30 1163 O 102.819 -1.7155 0.941761 0
M  V30 1164 C 103.118 0.612607 3.52111 0
M  V30 1165 C 102.784 2.02297 4.02972 0
M  V30 1166 C 101.446 2.40874 4.16573 0
M  V30 1167 C 103.798 2.94402 4.30089 0
M  V30 1168 C 101.126 3.70852 4.54627 0
M  V30 1169 C 103.478 4.23865 4.69597 0
M  V30 1170 C 102.142 4.62392 4.81404 0
M  V30 1171 H 101.412 0.161171 0.72326 0
M  V30 1172 H 104.059 1.07061 1.58777 0
M  V30 1173 H 102.364 -0.100849 3.9167 0
M  V30 1174 H 104.061 0.2815 4.00011 0
M  V30 1175 H 100.651 1.71338 3.92863 0
M  V30 1176 H 104.835 2.65835 4.19101 0
M  V30 1177 H 100.091 4.00501 4.61962 0
M  V30 1178 H 104.265 4.95306 4.89536 0
M  V30 1179 H 101.892 5.63154 5.10648 0
M  V30 1180 N 103.467 -1.45747 0.599634 0
M  V30 1181 C 104.414 -2.30467 -0.123849 0
M  V30 1182 C 105.384 -1.41632 -0.86774 0
M  V30 1183 O 106.569 -1.70568 -0.855056 0
M  V30 1184 C 103.709 -3.26402 -1.12051 0
M  V30 1185 C 102.822 -4.3034 -0.37832 0
M  V30 1186 C 101.957 -5.13389 -1.364 0
M  V30 1187 C 100.996 -6.09061 -0.609171 0
M  V30 1188 N 100.133 -6.84918 -1.54374 0
M  V30 1189 H 104.973 -2.91802 0.604627 0
M  V30 1190 H 102.51 -1.43797 0.309972 0
M  V30 1191 H 104.468 -3.80482 -1.7114 0
M  V30 1192 H 103.098 -2.66839 -1.8165 0
M  V30 1193 H 102.15 -3.78984 0.327929 0
M  V30 1194 H 103.462 -4.98354 0.210997 0
M  V30 1195 H 102.616 -5.7183 -2.02719 0
M  V30 1196 H 101.355 -4.45376 -1.98725 0
M  V30 1197 H 100.36 -5.49758 0.0676979 0
M  V30 1198 H 101.585 -6.79099 0.00891991 0
M  V30 1199 H 99.531 -6.19601 -2.15478 0
M  V30 1200 H 99.448 -7.49254 -1.00766 0
M  V30 1201 H 100.716 -7.47906 -2.19676 0
M  V30 1202 N 104.945 -0.338344 -1.53925 0
M  V30 1203 C 105.892 0.520845 -2.24846 0
M  V30 1204 C 106.862 1.09976 -1.24477 0
M  V30 1205 O 108.047 1.13735 -1.53196 0
M  V30 1206 C 105.187 1.6685 -3.02084 0
M  V30 1207 C 104.3 1.11739 -4.17299 0
M  V30 1208 C 103.435 2.23193 -4.82036 0
M  V30 1209 C 102.474 1.65407 -5.89328 0
M  V30 1210 N 101.611 2.70582 -6.47866 0
M  V30 1211 H 106.451 -0.0904881 -2.97863 0
M  V30 1212 H 103.988 -0.0564282 -1.46992 0
M  V30 1213 H 105.946 2.34407 -3.45122 0
M  V30 1214 H 104.576 2.2509 -2.31375 0
M  V30 1215 H 103.628 0.332919 -3.7894 0
M  V30 1216 H 104.94 0.654677 -4.94485 0
M  V30 1217 H 104.094 2.98626 -5.28117 0
M  V30 1218 H 102.833 2.72807 -4.04262 0
M  V30 1219 H 101.838 0.884779 -5.42634 0
M  V30 1220 H 103.063 1.16652 -6.69006 0
M  V30 1221 H 101.009 3.1946 -5.72959 0
M  V30 1222 H 100.926 2.28917 -7.20509 0
M  V30 1223 H 102.194 3.45799 -6.98601 0
M  V30 1224 N 106.423 1.57458 -0.0668435 0
M  V30 1225 C 107.37 2.12439 0.902122 0
M  V30 1226 C 108.34 1.03565 1.2986 0
M  V30 1227 O 109.525 1.312 1.38532 0
M  V30 1228 C 106.665 2.6865 2.16614 0
M  V30 1229 C 105.778 3.91663 1.82274 0
M  V30 1230 C 104.913 4.36134 3.0325 0
M  V30 1231 C 103.952 5.51808 2.64904 0
M  V30 1232 N 103.089 5.9126 3.78624 0
M  V30 1233 H 107.929 2.94934 0.426382 0
M  V30 1234 H 105.466 1.4575 0.198819 0
M  V30 1235 H 107.424 2.99346 2.90599 0
M  V30 1236 H 106.054 1.88928 2.61737 0
M  V30 1237 H 105.106 3.6746 0.983719 0
M  V30 1238 H 106.418 4.75693 1.50059 0
M  V30 1239 H 105.572 4.68465 3.85519 0
M  V30 1240 H 104.311 3.50948 3.38655 0
M  V30 1241 H 103.316 5.19133 1.81055 0
M  V30 1242 H 104.541 6.38722 2.30675 0
M  V30 1243 H 102.487 5.09024 4.138 0
M  V30 1244 H 102.404 6.70018 3.5016 0
M  V30 1245 H 103.672 6.28212 4.61486 0
M  V30 1246 N 107.901 -0.206675 1.56239 0
M  V30 1247 C 109.141 -0.93574 1.81723 0
M  V30 1248 C 109.505 -1.80927 0.642609 0
M  V30 1249 O 110.706 -2.57323 0.777081 0
M  V30 1250 C 108.977 -1.74012 3.12177 0
M  V30 1251 S 110.536 -2.52279 3.59028 0
M  V30 1252 H 107.354 -0.314065 0.637875 0
M  V30 1253 H 109.956 -0.200071 1.94474 0
M  V30 1254 H 108.66 -1.0888 3.95693 0
M  V30 1255 H 108.191 -2.51782 3.02274 0
M  V30 1256 H 110.206 -3.76209 3.23545 0
M  V30 1257 N 109.379 -1.50304 -0.473955 0
M  V30 1258 C 110.626 -1.6115 -1.22625 0
M  V30 1259 C 110.954 -0.310517 -1.92005 0
M  V30 1260 O 110.209 0.703419 -1.82621 0
M  V30 1261 C 110.508 -2.73938 -2.29549 0
M  V30 1262 C 110.174 -4.14519 -1.7744 0
M  V30 1263 C 108.836 -4.5277 -1.62949 0
M  V30 1264 C 111.188 -5.02392 -1.3875 0
M  V30 1265 C 108.516 -5.76639 -1.08187 0
M  V30 1266 C 110.868 -6.26805 -0.854309 0
M  V30 1267 C 109.532 -6.63861 -0.696011 0
M  V30 1268 H 108.802 -0.589691 -0.448715 0
M  V30 1269 H 111.449 -1.84228 -0.522705 0
M  V30 1270 H 109.754 -2.44937 -3.05799 0
M  V30 1271 H 111.451 -2.79534 -2.87509 0
M  V30 1272 H 108.041 -3.8434 -1.89685 0
M  V30 1273 H 112.225 -4.73474 -1.4878 0
M  V30 1274 H 107.481 -6.04027 -0.946666 0
M  V30 1275 H 111.655 -6.94258 -0.545843 0
M  V30 1276 H 109.282 -7.59722 -0.26952 0
M  V30 1277 N 110.857 0.726932 -1.39834 0
M  V30 1278 C 111.804 1.841 -1.39197 0
M  V30 1279 C 112.774 1.642 -0.250502 0
M  V30 1280 O 113.959 1.85494 -0.446846 0
M  V30 1281 C 111.099 3.21697 -1.24919 0
M  V30 1282 C 110.212 3.53247 -2.48678 0
M  V30 1283 C 109.347 4.80289 -2.26928 0
M  V30 1284 C 108.386 5.04707 -3.4632 0
M  V30 1285 N 107.523 6.22956 -3.23836 0
M  V30 1286 H 112.363 1.83979 -2.34427 0
M  V30 1287 H 109.9 0.898876 -1.16442 0
M  V30 1288 H 111.858 4.01137 -1.1465 0
M  V30 1289 H 110.488 3.21076 -0.333153 0
M  V30 1290 H 109.54 2.68447 -2.69519 0
M  V30 1291 H 110.852 3.67205 -3.37582 0
M  V30 1292 H 110.006 5.67725 -2.13947 0
M  V30 1293 H 108.745 4.68519 -1.35431 0
M  V30 1294 H 107.75 4.1573 -3.5979 0
M  V30 1295 H 108.975 5.18357 -4.38729 0
M  V30 1296 H 106.921 6.12459 -2.35011 0
M  V30 1297 H 106.838 6.37539 -4.063 0
M  V30 1298 H 108.106 7.1321 -3.14566 0
M  V30 1299 N 112.336 1.25143 0.95797 0
M  V30 1300 C 113.266 1.07711 2.07173 0
M  V30 1301 C 114.247 -0.0128462 1.70095 0
M  V30 1302 O 115.432 0.156061 1.93572 0
M  V30 1303 C 112.562 0.691503 3.40346 0
M  V30 1304 C 111.516 1.73132 3.9142 0
M  V30 1305 C 110.842 1.20049 5.21049 0
M  V30 1306 C 112.142 3.1294 4.1817 0
M  V30 1307 H 113.836 2.00873 2.22014 0
M  V30 1308 H 111.382 0.967191 1.06684 0
M  V30 1309 H 113.335 0.556505 4.17709 0
M  V30 1310 H 112.059 -0.275819 3.25433 0
M  V30 1311 H 110.718 1.8547 3.16222 0
M  V30 1312 H 110.366 0.223499 5.02503 0
M  V30 1313 H 110.066 1.89545 5.56189 0
M  V30 1314 H 111.59 1.07782 6.01012 0
M  V30 1315 H 113.004 3.03775 4.86203 0
M  V30 1316 H 111.401 3.79875 4.64559 0
M  V30 1317 H 112.471 3.6025 3.24573 0
M  V30 1318 N 113.814 -1.1601 1.06675 0
M  V30 1319 C 115.042 -1.90527 0.806667 0
M  V30 1320 C 115.457 -1.77643 -0.639396 0
M  V30 1321 O 114.814 -1.12369 -1.43803 0
M  V30 1322 C 114.865 -3.41106 1.19705 0
M  V30 1323 O 114.586 -3.53608 2.58636 0
M  V30 1324 C 116.087 -4.32663 0.965266 0
M  V30 1325 H 113.307 -0.604053 0.292166 0
M  V30 1326 H 115.851 -1.47026 1.4214 0
M  V30 1327 H 114.006 -3.82296 0.626774 0
M  V30 1328 H 114.42 -4.47011 2.74375 0
M  V30 1329 H 115.894 -5.36763 1.288 0
M  V30 1330 H 116.371 -4.39089 -0.0987936 0
M  V30 1331 H 116.977 -3.97206 1.52011 0
M  V30 1332 N 115.292 -0.849877 -1.32721 0
M  V30 1333 C 116.708 -0.539102 -1.50219 0
M  V30 1334 C 116.908 0.931271 -1.78689 0
M  V30 1335 O 115.964 1.71455 -1.85363 0
M  V30 1336 C 117.277 -1.42196 -2.64954 0
M  V30 1337 C 118.825 -1.42189 -2.78839 0
M  V30 1338 C 119.3 -2.28985 -3.96648 0
M  V30 1339 N 120.791 -2.26754 -4.03902 0
M  V30 1340 C 121.526 -2.90644 -4.94281 0
M  V30 1341 N 121.022 -3.63629 -5.897 0
M  V30 1342 N 122.815 -2.80057 -4.87365 0
M  V30 1343 H 114.966 -1.80156 -1.12506 0
M  V30 1344 H 117.229 -0.769217 -0.554085 0
M  V30 1345 H 116.935 -2.46733 -2.50631 0
M  V30 1346 H 116.809 -1.10591 -3.60624 0
M  V30 1347 H 119.196 -0.38419 -2.92588 0
M  V30 1348 H 119.277 -1.77807 -1.83898 0
M  V30 1349 H 118.921 -3.32819 -3.83658 0
M  V30 1350 H 118.851 -1.90702 -4.90857 0
M  V30 1351 H 121.342 -1.73688 -3.3562 0
M  V30 1352 H 121.655 -4.09558 -6.55349 0
M  V30 1353 H 120 -3.67737 -5.89741 0
M  V30 1354 H 123.191 -2.22593 -4.11789 0
M  V30 1355 H 123.364 -3.30132 -5.57599 0
M  V30 1356 N 116.77 1.45427 -0.607355 0
M  V30 1357 C 117.717 2.3053 0.111625 0
M  V30 1358 C 118.687 1.4209 0.860216 0
M  V30 1359 O 119.872 1.71019 0.845998 0
M  V30 1360 C 117.012 3.26992 1.10319 0
M  V30 1361 C 116.125 4.30535 0.355493 0
M  V30 1362 C 115.26 5.14105 1.33676 0
M  V30 1363 C 114.299 6.09376 0.576862 0
M  V30 1364 N 113.436 6.85727 1.5074 0
M  V30 1365 H 118.276 2.91477 -0.620093 0
M  V30 1366 H 115.813 1.43631 -0.317594 0
M  V30 1367 H 117.771 3.81385 1.6912 0
M  V30 1368 H 116.401 2.67799 1.80232 0
M  V30 1369 H 115.453 3.78805 -0.348023 0
M  V30 1370 H 116.765 4.98235 -0.237423 0
M  V30 1371 H 115.919 5.72897 1.99684 0
M  V30 1372 H 114.658 4.46423 1.9636 0
M  V30 1373 H 113.663 5.49715 -0.0968519 0
M  V30 1374 H 114.888 6.79085 -0.0449341 0
M  V30 1375 H 112.834 6.20735 2.12189 0
M  V30 1376 H 112.751 7.49778 0.967913 0
M  V30 1377 H 114.019 7.4906 2.15706 0
M  V30 1378 N 118.248 0.346503 1.53744 0
M  V30 1379 C 119.181 -0.552023 2.21423 0
M  V30 1380 C 120.159 -1.09798 1.19929 0
M  V30 1381 O 121.343 -1.1577 1.4876 0
M  V30 1382 C 118.47 -1.75972 2.89398 0
M  V30 1383 C 117.516 -1.34295 4.04805 0
M  V30 1384 S 118.349 -0.360263 5.34287 0
M  V30 1385 C 119.505 -1.57473 6.05767 0
M  V30 1386 H 119.738 0.0228119 2.97291 0
M  V30 1387 H 117.271 0.130579 1.53847 0
M  V30 1388 H 119.229 -2.45256 3.2918 0
M  V30 1389 H 117.89 -2.30578 2.1329 0
M  V30 1390 H 117.083 -2.24349 4.51313 0
M  V30 1391 H 116.685 -0.729555 3.66815 0
M  V30 1392 H 118.977 -2.50875 6.29339 0
M  V30 1393 H 119.92 -1.15138 6.98676 0
M  V30 1394 H 120.328 -1.77212 5.35963 0
M  V30 1395 N 119.726 -1.57421 0.075193 0
M  V30 1396 C 121.137 -1.81021 -0.456964 0
M  V30 1397 C 121.488 -0.98936 -1.69429 0
M  V30 1398 O 120.613 -0.212865 -2.15351 0
M  V30 1399 C 121.208 -3.28329 -0.83581 0
M  V30 1400 C 119.767 -3.52764 -1.31281 0
M  V30 1401 C 118.914 -2.75676 -0.299648 0
M  V30 1402 H 121.865 -1.55822 0.300856 0
M  V30 1403 H 121.886 -3.40564 -1.69696 0
M  V30 1404 H 121.398 -3.88046 0.0649238 0
M  V30 1405 H 119.499 -2.98355 -2.23193 0
M  V30 1406 H 119.612 -4.61451 -1.28839 0
M  V30 1407 H 117.976 -2.42538 -0.777641 0
M  V30 1408 H 118.759 -3.38132 0.593417 0
M  V30 1409 N 121.204 0.198386 -1.56346 0
M  V30 1410 C 122.453 0.917451 -1.79627 0
M  V30 1411 C 122.766 1.8456 -0.64784 0
M  V30 1412 O 123.972 2.60504 -0.764859 0
M  V30 1413 C 122.428 1.68175 -3.18191 0
M  V30 1414 C 122.036 0.798589 -4.40825 0
M  V30 1415 C 123.78 2.39065 -3.50782 0
M  V30 1416 C 121.687 1.56157 -5.70411 0
M  V30 1417 H 120.617 0.346317 -0.669762 0
M  V30 1418 H 123.268 0.170801 -1.82703 0
M  V30 1419 H 121.65 2.47216 -3.09354 0
M  V30 1420 H 122.824 0.0470665 -4.60776 0
M  V30 1421 H 121.139 0.200686 -4.15916 0
M  V30 1422 H 123.736 2.96692 -4.44835 0
M  V30 1423 H 124.079 3.13091 -2.74371 0
M  V30 1424 H 124.612 1.66993 -3.61052 0
M  V30 1425 H 121.351 0.864142 -6.49779 0
M  V30 1426 H 120.871 2.2871 -5.54483 0
M  V30 1427 H 122.55 2.11622 -6.11412 0
M  V30 1428 N 122.682 1.50554 0.465978 0
M  V30 1429 C 123.931 1.61038 1.21448 0
M  V30 1430 C 124.244 0.31865 1.92987 0
M  V30 1431 O 125.45 0.302469 2.6981 0
M  V30 1432 C 123.906 2.84283 2.20706 0
M  V30 1433 C 123.514 4.20352 1.54946 0
M  V30 1434 C 125.258 3.04115 2.96166 0
M  V30 1435 C 123.165 5.34778 2.5252 0
M  V30 1436 H 122.095 0.599718 0.457005 0
M  V30 1437 H 124.746 1.7699 0.484424 0
M  V30 1438 H 123.128 2.61901 2.97025 0
M  V30 1439 H 124.302 4.53008 0.843811 0
M  V30 1440 H 122.617 4.06167 0.917475 0
M  V30 1441 H 125.214 3.86774 3.69202 0
M  V30 1442 H 125.557 2.16045 3.55852 0
M  V30 1443 H 126.09 3.26702 2.26959 0
M  V30 1444 H 122.829 6.25018 1.97566 0
M  V30 1445 H 122.349 5.06534 3.21222 0
M  V30 1446 H 124.028 5.65561 3.14245 0
M  V30 1447 N 124.16 -0.719506 1.40217 0
M  V30 1448 C 125.408 -1.47641 1.3801 0
M  V30 1449 C 125.729 -1.94992 -0.018145 0
M  V30 1450 O 124.999 -1.70073 -0.972207 0
M  V30 1451 H 123.579 -0.547744 0.507923 0
M  V30 1452 H 126.241 -0.853187 1.75233 0
M  V30 1453 H 125.337 -2.35112 2.05253 0
M  V30 1454 N 125.638 -1.25649 -0.95132 0
M  V30 1455 C 127.054 -1.02542 -1.223 0
M  V30 1456 C 127.254 0.255715 -1.99871 0
M  V30 1457 O 126.31 0.967558 -2.33226 0
M  V30 1458 C 127.623 -2.25065 -1.99415 0
M  V30 1459 C 129.171 -2.29861 -2.12446 0
M  V30 1460 C 129.646 -3.52048 -2.92961 0
M  V30 1461 N 131.137 -3.52465 -3.00538 0
M  V30 1462 C 131.872 -4.43672 -3.63239 0
M  V30 1463 N 131.368 -5.45157 -4.27523 0
M  V30 1464 N 133.161 -4.31346 -3.60412 0
M  V30 1465 H 125.312 -2.07951 -0.432471 0
M  V30 1466 H 127.575 -0.91339 -0.253816 0
M  V30 1467 H 127.281 -3.18194 -1.49817 0
M  V30 1468 H 127.155 -2.28502 -3.00111 0
M  V30 1469 H 129.542 -1.37252 -2.61239 0
M  V30 1470 H 129.623 -2.3044 -1.11044 0
M  V30 1471 H 129.267 -4.44981 -2.44856 0
M  V30 1472 H 129.197 -3.48715 -3.94596 0
M  V30 1473 H 131.688 -2.79056 -2.54826 0
M  V30 1474 H 132.001 -6.10958 -4.73234 0
M  V30 1475 H 130.346 -5.49025 -4.26141 0
M  V30 1476 H 133.537 -3.51288 -3.09377 0
M  V30 1477 H 133.71 -5.02624 -4.0899 0
M  V30 1478 N 127.117 1.15442 -1.07289 0
M  V30 1479 C 128.064 2.20161 -0.692653 0
M  V30 1480 C 129.034 1.63073 0.31564 0
M  V30 1481 O 130.219 1.89725 0.202235 0
M  V30 1482 C 127.359 3.44967 -0.0959509 0
M  V30 1483 C 126.472 4.16256 -1.15564 0
M  V30 1484 C 125.607 5.28609 -0.524011 0
M  V30 1485 C 124.646 5.91715 -1.56653 0
M  V30 1486 N 123.783 6.9554 -0.957531 0
M  V30 1487 H 128.623 2.52037 -1.59002 0
M  V30 1488 H 126.16 1.2378 -0.794798 0
M  V30 1489 H 128.118 4.16341 0.267628 0
M  V30 1490 H 126.748 3.1361 0.764772 0
M  V30 1491 H 125.8 3.43385 -1.6368 0
M  V30 1492 H 127.112 4.59268 -1.94613 0
M  V30 1493 H 126.266 6.06604 -0.108032 0
M  V30 1494 H 125.005 4.86787 0.29825 0
M  V30 1495 H 124.01 5.12433 -1.9923 0
M  V30 1496 H 125.235 6.35614 -2.39107 0
M  V30 1497 H 123.181 6.55814 -0.156162 0
M  V30 1498 H 123.098 7.36977 -1.68526 0
M  V30 1499 H 124.366 7.77435 -0.567032 0
M  V30 1500 N 128.595 0.856903 1.32268 0
M  V30 1501 C 129.844 0.457599 1.96441 0
M  V30 1502 C 130.157 -0.992426 1.68553 0
M  V30 1503 O 131.363 -1.49727 2.26482 0
M  V30 1504 C 129.819 0.767358 3.51624 0
M  V30 1505 C 129.427 2.23326 3.88367 0
M  V30 1506 C 131.171 0.435887 4.22256 0
M  V30 1507 C 129.078 2.48613 5.36606 0
M  V30 1508 H 128.008 0.167387 0.735185 0
M  V30 1509 H 130.659 1.048 1.5063 0
M  V30 1510 H 129.041 0.106367 3.95857 0
M  V30 1511 H 130.215 2.93623 3.55137 0
M  V30 1512 H 128.53 2.52948 3.30766 0
M  V30 1513 H 131.127 0.602202 5.31298 0
M  V30 1514 H 131.47 -0.622672 4.11617 0
M  V30 1515 H 132.003 1.05286 3.83614 0
M  V30 1516 H 128.742 3.53101 5.52268 0
M  V30 1517 H 128.262 1.82896 5.71235 0
M  V30 1518 H 129.941 2.32676 6.03714 0
M  V30 1519 N 130.073 -1.45103 0.615059 0
M  V30 1520 C 131.005 -2.28786 -0.13762 0
M  V30 1521 C 132.018 -1.40376 -0.824525 0
M  V30 1522 O 133.207 -1.64681 -0.688662 0
M  V30 1523 C 130.307 -3.16322 -1.21628 0
M  V30 1524 C 129.48 -4.33054 -0.615039 0
M  V30 1525 C 128.539 -5.01743 -1.58556 0
M  V30 1526 O 127.565 -5.58293 -1.10895 0
M  V30 1527 N 128.767 -5.01714 -2.91998 0
M  V30 1528 H 131.532 -2.94025 0.580483 0
M  V30 1529 H 129.093 -1.55373 0.45507 0
M  V30 1530 H 131.085 -3.59139 -1.86552 0
M  V30 1531 H 129.655 -2.52943 -1.83681 0
M  V30 1532 H 128.875 -3.93627 0.21245 0
M  V30 1533 H 130.163 -5.08431 -0.193704 0
M  V30 1534 H 129.561 -4.57075 -3.33316 0
M  V30 1535 H 128.118 -5.48371 -3.52325 0
M  V30 1536 N 131.551 -0.354651 -1.53558 0
M  V30 1537 C 132.828 0.294281 -1.93374 0
M  V30 1538 C 133.208 1.67313 -1.28723 0
M  V30 1539 O 132.556 2.24179 -0.442247 0
M  V30 1540 C 132.766 0.355445 -3.47185 0
M  V30 1541 C 134.114 0.601007 -4.20325 0
M  V30 1542 O 135.138 0.437106 -3.53508 0
M  V30 1543 O 133.997 0.919322 -5.38712 0
M  V30 1544 H 131.091 0.174033 -0.808481 0
M  V30 1545 H 133.637 -0.406638 -1.64756 0
M  V30 1546 H 132.409 -0.611729 -3.86489 0
M  V30 1547 H 132.032 1.1027 -3.82003 0
M  V30 1548 N 133.029 1.57378 -0.0835403 0
M  V30 1549 C 133.976 2.13384 0.879539 0
M  V30 1550 C 134.946 1.04936 1.28754 0
M  V30 1551 O 136.131 1.32662 1.37133 0
M  V30 1552 C 133.271 2.70932 2.13752 0
M  V30 1553 C 132.384 3.93575 1.7811 0
M  V30 1554 C 131.519 4.39326 2.98607 0
M  V30 1555 C 130.558 5.54587 2.59037 0
M  V30 1556 N 129.695 5.95243 3.72331 0
M  V30 1557 H 134.535 2.9537 0.395076 0
M  V30 1558 H 132.072 1.45953 0.183349 0
M  V30 1559 H 134.03 3.02411 2.87408 0
M  V30 1560 H 132.66 1.91693 2.59718 0
M  V30 1561 H 131.712 3.68483 0.94469 0
M  V30 1562 H 133.024 4.77258 1.45005 0
M  V30 1563 H 132.178 4.72528 3.80529 0
M  V30 1564 H 130.917 3.5452 3.34913 0
M  V30 1565 H 129.922 5.21024 1.75539 0
M  V30 1566 H 131.147 6.41133 2.23887 0
M  V30 1567 H 129.093 5.13385 4.08378 0
M  V30 1568 H 129.01 6.73694 3.43034 0
M  V30 1569 H 130.278 6.33072 4.54797 0
M  V30 1570 N 134.507 -0.190092 1.56449 0
M  V30 1571 C 135.437 -1.23816 1.97969 0
M  V30 1572 C 136.418 -1.47201 0.852395 0
M  V30 1573 O 137.603 -1.58854 1.1171 0
M  V30 1574 C 134.733 -2.5813 2.3235 0
M  V30 1575 C 133.687 -2.49348 3.47864 0
M  V30 1576 C 133.013 -3.8798 3.67934 0
M  V30 1577 C 134.313 -2.01424 4.81898 0
M  V30 1578 H 136.007 -0.89311 2.85769 0
M  V30 1579 H 133.553 -0.428177 1.37487 0
M  V30 1580 H 135.506 -3.31637 2.59991 0
M  V30 1581 H 134.23 -2.94386 1.41438 0
M  V30 1582 H 132.889 -1.78297 3.20321 0
M  V30 1583 H 132.537 -4.21597 2.74344 0
M  V30 1584 H 132.237 -3.82978 4.45648 0
M  V30 1585 H 133.761 -4.63101 3.97957 0
M  V30 1586 H 135.175 -2.64693 5.08538 0
M  V30 1587 H 133.572 -2.07413 5.63116 0
M  V30 1588 H 134.642 -0.967677 4.75146 0
M  V30 1589 N 135.985 -1.50799 -0.457987 0
M  V30 1590 C 136.933 -1.71162 -1.575 0
M  V30 1591 C 137.927 -0.577592 -1.59249 0
M  V30 1592 O 139.133 -0.758443 -1.63241 0
M  V30 1593 H 135.508 -0.540468 -0.522875 0
M  V30 1594 H 137.479 -2.64837 -1.37492 0
M  V30 1595 C 136.228 -1.83496 -2.95338 0
M  V30 1596 H 135.551 -2.70153 -2.94716 0
M  V30 1597 H 136.991 -2.01765 -3.72917 0
M  V30 1598 C 135.45 -0.589694 -3.31699 0
M  V30 1599 O 135.98 0.265163 -4.00824 0
M  V30 1600 N 134.186 -0.439845 -2.87252 0
M  V30 1601 H 133.733 -1.13655 -2.31172 0
M  V30 1602 H 133.691 0.392159 -3.11945 0
M  V30 1603 N 137.463 0.71206 -1.40597 0
M  V30 1604 C 138.41 1.82613 -1.41142 0
M  V30 1605 C 139.38 1.63925 -0.267903 0
M  V30 1606 O 140.565 1.85009 -0.466495 0
M  V30 1607 C 137.705 3.20354 -1.28324 0
M  V30 1608 C 136.818 3.50589 -2.52411 0
M  V30 1609 C 135.953 4.77855 -2.32009 0
M  V30 1610 C 134.992 5.01005 -3.51654 0
M  V30 1611 N 134.129 6.19487 -3.30425 0
M  V30 1612 H 138.969 1.81482 -2.36365 0
M  V30 1613 H 136.506 0.886475 -1.17388 0
M  V30 1614 H 138.464 3.99899 -1.18899 0
M  V30 1615 H 137.094 3.20705 -0.367189 0
M  V30 1616 H 136.146 2.65573 -2.72351 0
M  V30 1617 H 137.458 3.63604 -3.41458 0
M  V30 1618 H 136.612 5.65424 -2.19956 0
M  V30 1619 H 135.351 4.67056 -1.40392 0
M  V30 1620 H 134.356 4.1189 -3.64179 0
M  V30 1621 H 135.581 5.13674 -4.44202 0
M  V30 1622 H 133.527 6.09932 -2.41494 0
M  V30 1623 H 133.444 6.33194 -4.13039 0
M  V30 1624 H 134.712 7.09834 -3.22113 0
M  V30 1625 N 138.941 1.26152 0.944643 0
M  V30 1626 C 140.169 1.14259 1.72489 0
M  V30 1627 C 140.584 -0.302555 1.8636 0
M  V30 1628 O 139.941 -1.20741 1.36849 0
M  V30 1629 C 139.992 1.80266 3.13347 0
M  V30 1630 O 139.713 3.19133 3.00143 0
M  V30 1631 C 141.214 1.74283 4.07603 0
M  V30 1632 H 138.434 0.398051 0.540181 0
M  V30 1633 H 140.978 1.66706 1.18446 0
M  V30 1634 H 139.133 1.31766 3.64303 0
M  V30 1635 H 139.547 3.51744 3.89071 0
M  V30 1636 H 141.021 2.25111 5.04013 0
M  V30 1637 H 141.498 0.708631 4.33446 0
M  V30 1638 H 142.104 2.22319 3.62567 0
M  V30 1639 N 140.419 -1.14872 1.07899 0
M  V30 1640 C 141.366 -2.19791 0.704319 0
M  V30 1641 C 142.336 -1.63238 -0.306987 0
M  V30 1642 O 143.521 -1.8983 -0.192171 0
M  V30 1643 C 140.661 -3.44911 0.114244 0
M  V30 1644 C 139.774 -4.15637 1.1777 0
M  V30 1645 C 138.909 -5.28324 0.552037 0
M  V30 1646 C 137.948 -5.90875 1.59789 0
M  V30 1647 N 137.085 -6.95022 0.994404 0
M  V30 1648 H 141.925 -2.5119 1.60336 0
M  V30 1649 H 139.462 -1.23356 0.801352 0
M  V30 1650 H 141.42 -4.16477 -0.245544 0
M  V30 1651 H 140.05 -3.14011 -0.74813 0
M  V30 1652 H 139.102 -3.42512 1.65499 0
M  V30 1653 H 140.414 -4.5823 1.97046 0
M  V30 1654 H 139.568 -6.06538 0.1402 0
M  V30 1655 H 138.307 -4.86939 -0.272431 0
M  V30 1656 H 137.312 -5.11369 2.01945 0
M  V30 1657 H 138.537 -6.34337 2.42474 0
M  V30 1658 H 136.483 -6.55722 0.190939 0
M  V30 1659 H 136.4 -7.36073 1.72432 0
M  V30 1660 H 137.668 -7.77123 0.608253 0
M  V30 1661 N 141.898 -0.863906 -1.31812 0
M  V30 1662 C 143.175 -0.39275 -1.91616 0
M  V30 1663 C 143.555 1.12461 -1.7865 0
M  V30 1664 O 142.903 1.95045 -1.19037 0
M  V30 1665 C 143.113 -0.867385 -3.38049 0
M  V30 1666 C 144.461 -0.889966 -4.15168 0
M  V30 1667 O 145.485 -0.812635 -3.46806 0
M  V30 1668 O 144.344 -1.00079 -5.37258 0
M  V30 1669 H 141.438 -0.116358 -0.818773 0
M  V30 1670 H 143.984 -0.951418 -1.40521 0
M  V30 1671 H 142.756 -1.91081 -3.41473 0
M  V30 1672 H 142.379 -0.286687 -3.96565 0
M  V30 1673 N 143.376 1.44774 -0.622745 0
M  V30 1674 C 144.653 1.95522 -0.0551974 0
M  V30 1675 C 145.033 1.5649 1.41683 0
M  V30 1676 O 144.381 0.834848 2.12703 0
M  V30 1677 C 144.591 3.4796 -0.269242 0
M  V30 1678 C 145.939 4.24306 -0.158014 0
M  V30 1679 O 146.963 3.55637 -0.200162 0
M  V30 1680 O 145.822 5.46471 -0.0558693 0
M  V30 1681 H 142.916 0.826556 0.0271015 0
M  V30 1682 H 145.462 1.54866 -0.693864 0
M  V30 1683 H 144.234 3.6939 -1.29099 0
M  V30 1684 H 143.857 3.95543 0.403966 0
M  V30 1685 N 144.854 0.36279 1.53368 0
M  V30 1686 C 146.103 -0.22888 2.00397 0
M  V30 1687 C 146.416 -1.50096 1.25421 0
M  V30 1688 O 147.622 -2.17106 1.63025 0
M  V30 1689 C 146.078 -0.458417 3.56969 0
M  V30 1690 C 145.686 0.798877 4.4082 0
M  V30 1691 C 147.43 -1.00789 4.12361 0
M  V30 1692 C 145.337 0.539078 5.88938 0
M  V30 1693 H 144.267 -0.089305 0.748693 0
M  V30 1694 H 146.918 0.481099 1.77081 0
M  V30 1695 H 145.3 -1.22959 3.76427 0
M  V30 1696 H 146.474 1.57262 4.33134 0
M  V30 1697 H 144.789 1.27137 3.96516 0
M  V30 1698 H 147.386 -1.21754 5.20653 0
M  V30 1699 H 147.729 -1.9692 3.66781 0
M  V30 1700 H 148.262 -0.296961 3.9669 0
M  V30 1701 H 145.001 1.47064 6.3879 0
M  V30 1702 H 144.521 -0.196222 5.99479 0
M  V30 1703 H 146.2 0.163542 6.46793 0
M  V30 1704 N 146.332 -1.57332 0.0918853 0
M  V30 1705 C 147.557 -1.98995 -0.584442 0
M  V30 1706 C 147.982 -0.970528 -1.61128 0
M  V30 1707 O 147.34 0.0613904 -1.81196 0
M  V30 1708 C 147.388 -3.39636 -1.21161 0
M  V30 1709 O 146.492 -3.40447 -2.32744 0
M  V30 1710 H 145.833 -0.647165 -0.148572 0
M  V30 1711 H 148.363 -2.03873 0.172347 0
M  V30 1712 H 148.373 -3.7726 -1.55367 0
M  V30 1713 H 147.048 -4.13356 -0.459313 0
M  V30 1714 H 145.625 -3.14614 -2.0018 0
M  V30 1715 N 147.81 0.181792 -1.56548 0
M  V30 1716 C 148.757 1.22521 -1.95595 0
M  V30 1717 C 149.727 1.4454 -0.818373 0
M  V30 1718 O 150.912 1.57454 -1.07763 0
M  V30 1719 C 148.052 2.56193 -2.31212 0
M  V30 1720 C 147.165 2.41641 -3.58097 0
M  V30 1721 C 146.3 3.68108 -3.82975 0
M  V30 1722 C 145.339 3.48445 -5.03242 0
M  V30 1723 N 144.476 4.66956 -5.24306 0
M  V30 1724 H 149.316 0.885226 -2.84548 0
M  V30 1725 H 146.853 0.425718 -1.40805 0
M  V30 1726 H 148.811 3.34088 -2.49882 0
M  V30 1727 H 147.441 2.88208 -1.45382 0
M  V30 1728 H 146.493 1.54976 -3.474 0
M  V30 1729 H 147.805 2.23052 -4.46149 0
M  V30 1730 H 146.959 4.54441 -4.01956 0
M  V30 1731 H 145.698 3.89666 -2.93278 0
M  V30 1732 H 144.703 2.60499 -4.8417 0
M  V30 1733 H 145.928 3.2832 -5.9446 0
M  V30 1734 H 143.874 4.88752 -4.37559 0
M  V30 1735 H 143.791 4.51242 -6.06561 0
M  V30 1736 H 145.059 5.54602 -5.47756 0
M  V30 1737 N 149.288 1.51039 0.449983 0
M  V30 1738 C 150.236 1.71995 1.5659 0
M  V30 1739 C 151.23 0.586029 1.5894 0
M  V30 1740 O 152.436 0.76709 1.62837 0
M  V30 1741 H 148.811 0.543233 0.520001 0
M  V30 1742 H 150.782 2.65562 1.36085 0
M  V30 1743 C 149.531 1.8506 2.9436 0
M  V30 1744 H 148.854 2.71712 2.93279 0
M  V30 1745 H 150.294 2.0374 3.71842 0
M  V30 1746 C 148.753 0.607277 3.31382 0
M  V30 1747 O 149.283 -0.243903 4.00959 0
M  V30 1748 N 147.489 0.455073 2.87015 0
M  V30 1749 H 147.036 1.14879 2.30566 0
M  V30 1750 H 146.994 -0.375611 3.12148 0
M  V30 1751 N 150.766 -0.704594 1.40972 0
M  V30 1752 C 151.699 -1.82861 1.36518 0
M  V30 1753 C 152.677 -1.6091 0.23382 0
M  V30 1754 O 153.861 -1.83778 0.419271 0
M  V30 1755 C 150.988 -3.1939 1.12729 0
M  V30 1756 C 150.034 -3.60148 2.28463 0
M  V30 1757 S 150.867 -3.65994 3.90907 0
M  V30 1758 C 152.023 -5.05264 3.69403 0
M  V30 1759 H 152.256 -1.86361 2.3164 0
M  V30 1760 H 149.789 -0.872439 1.27389 0
M  V30 1761 H 151.747 -3.98211 0.996893 0
M  V30 1762 H 150.408 -3.1351 0.192427 0
M  V30 1763 H 149.601 -4.59309 2.07489 0
M  V30 1764 H 149.203 -2.88612 2.37863 0
M  V30 1765 H 151.495 -5.92504 3.28551 0
M  V30 1766 H 152.438 -5.31278 4.68134 0
M  V30 1767 H 152.846 -4.76377 3.02862 0
M  V30 1768 N 152.244 -1.26651 -0.937939 0
M  V30 1769 C 153.469 -1.15279 -1.72411 0
M  V30 1770 C 153.894 0.287866 -1.85884 0
M  V30 1771 O 153.252 1.20855 -1.35143 0
M  V30 1772 C 153.3 -1.83028 -3.10698 0
M  V30 1773 O 152.404 -1.12128 -3.96864 0
M  V30 1774 H 151.745 -0.401504 -0.528858 0
M  V30 1775 H 154.275 -1.67531 -1.1745 0
M  V30 1776 H 154.285 -1.89981 -3.6107 0
M  V30 1777 H 152.96 -2.87833 -3.00208 0
M  V30 1778 H 151.537 -1.13173 -3.55312 0
M  V30 1779 N 153.722 1.14298 -1.08507 0
M  V30 1780 C 154.969 1.85359 -0.815373 0
M  V30 1781 C 155.297 1.83001 0.658865 0
M  V30 1782 O 154.552 1.25655 1.50031 0
M  V30 1783 C 154.851 3.33547 -1.28379 0
M  V30 1784 C 154.517 3.56093 -2.76602 0
M  V30 1785 C 153.179 3.61955 -3.17084 0
M  V30 1786 C 155.531 3.64834 -3.72217 0
M  V30 1787 C 152.859 3.74082 -4.51973 0
M  V30 1788 C 155.211 3.78487 -5.06883 0
M  V30 1789 C 153.875 3.82598 -5.46969 0
M  V30 1790 H 153.145 0.678276 -0.298366 0
M  V30 1791 H 155.792 1.35002 -1.35819 0
M  V30 1792 H 154.097 3.86191 -0.660593 0
M  V30 1793 H 155.794 3.86959 -1.05186 0
M  V30 1794 H 152.384 3.52179 -2.4427 0
M  V30 1795 H 156.568 3.59595 -3.42061 0
M  V30 1796 H 151.824 3.75527 -4.82483 0
M  V30 1797 H 155.998 3.84193 -5.80834 0
M  V30 1798 H 153.625 3.91747 -6.51489 0
M  V30 1799 N 155.201 0.870884 1.31352 0
M  V30 1800 C 156.131 0.343096 2.30966 0
M  V30 1801 C 157.112 -0.566507 1.60389 0
M  V30 1802 O 158.297 -0.483336 1.88089 0
M  V30 1803 C 155.427 -0.455487 3.443 0
M  V30 1804 C 154.381 0.361103 4.26474 0
M  V30 1805 C 153.707 -0.563221 5.31725 0
M  V30 1806 C 155.007 1.59566 4.97329 0
M  V30 1807 H 156.701 1.17548 2.75359 0
M  V30 1808 H 154.247 0.566686 1.32381 0
M  V30 1809 H 156.2 -0.83525 4.13039 0
M  V30 1810 H 154.924 -1.32139 2.98675 0
M  V30 1811 H 153.583 0.722825 3.59403 0
M  V30 1812 H 153.231 -1.42643 4.82351 0
M  V30 1813 H 152.931 -0.0207409 5.87596 0
M  V30 1814 H 154.455 -0.939808 6.03324 0
M  V30 1815 H 155.869 1.28728 5.58661 0
M  V30 1816 H 154.266 2.07728 5.63 0
M  V30 1817 H 155.336 2.34798 4.24262 0
M  V30 1818 N 156.679 -1.44442 0.630414 0
M  V30 1819 C 157.626 -2.30678 -0.0749355 0
M  V30 1820 C 158.596 -1.4344 -0.837502 0
M  V30 1821 O 159.781 -1.72343 -0.818684 0
M  V30 1822 C 156.921 -3.28706 -1.05103 0
M  V30 1823 C 156.034 -4.31046 -0.286954 0
M  V30 1824 C 155.169 -5.16167 -1.2548 0
M  V30 1825 C 154.208 -6.10216 -0.479843 0
M  V30 1826 N 153.345 -6.88039 -1.39811 0
M  V30 1827 H 158.185 -2.90454 0.666386 0
M  V30 1828 H 155.722 -1.43107 0.340404 0
M  V30 1829 H 157.68 -3.84027 -1.63031 0
M  V30 1830 H 156.31 -2.70632 -1.75949 0
M  V30 1831 H 155.362 -3.78203 0.408243 0
M  V30 1832 H 156.674 -4.97794 0.316657 0
M  V30 1833 H 155.828 -5.76002 -1.90544 0
M  V30 1834 H 154.567 -4.49491 -1.89233 0
M  V30 1835 H 153.572 -5.49491 0.184295 0
M  V30 1836 H 154.797 -6.78928 0.152965 0
M  V30 1837 H 152.743 -6.24032 -2.02287 0
M  V30 1838 H 152.66 -7.51223 -0.848508 0
M  V30 1839 H 153.928 -7.52397 -2.03762 0
M  V30 1840 N 158.157 -0.370918 -1.53173 0
M  V30 1841 C 159.403 0.217423 -2.01631 0
M  V30 1842 C 159.736 1.47983 -1.25756 0
M  V30 1843 O 159.011 1.91274 -0.352764 0
M  V30 1844 C 159.294 0.503982 -3.56556 0
M  V30 1845 C 159.147 -0.77243 -4.43118 0
M  V30 1846 C 160.466 1.30234 -4.20389 0
M  V30 1847 H 157.585 0.0775486 -0.732909 0
M  V30 1848 H 160.227 -0.496863 -1.83388 0
M  V30 1849 H 158.377 1.11248 -3.72231 0
M  V30 1850 H 160.049 -1.4098 -4.39229 0
M  V30 1851 H 158.292 -1.39167 -4.10871 0
M  V30 1852 H 158.963 -0.526815 -5.4948 0
M  V30 1853 H 161.439 0.787546 -4.08579 0
M  V30 1854 H 160.315 1.47158 -5.28806 0
M  V30 1855 H 160.576 2.31237 -3.76805 0
M  V30 1856 N 159.635 1.57281 -0.100228 0
M  V30 1857 C 160.912 1.86014 0.604812 0
M  V30 1858 C 161.292 0.998025 1.86018 0
M  V30 1859 O 160.64 0.0718184 2.28387 0
M  V30 1860 C 160.85 3.36784 0.915278 0
M  V30 1861 C 162.198 4.04957 1.27651 0
M  V30 1862 O 163.222 3.41695 1.00613 0
M  V30 1863 O 162.081 5.16593 1.7831 0
M  V30 1864 H 159.175 0.76942 0.303185 0
M  V30 1865 H 161.721 1.69176 -0.133313 0
M  V30 1866 H 160.493 3.91292 0.0248896 0
M  V30 1867 H 160.116 3.58987 1.70921 0
M  V30 1868 N 161.113 -0.173488 1.56642 0
M  V30 1869 C 162.06 -1.21482 1.96242 0
M  V30 1870 C 163.03 -1.44104 0.826027 0
M  V30 1871 O 164.215 -1.5688 1.08597 0
M  V30 1872 C 161.355 -2.54964 2.32567 0
M  V30 1873 C 160.468 -2.39739 3.59373 0
M  V30 1874 C 159.603 -3.66072 3.84921 0
M  V30 1875 C 158.642 -3.45771 5.05083 0
M  V30 1876 N 157.779 -4.64169 5.26775 0
M  V30 1877 H 162.619 -0.870123 2.85014 0
M  V30 1878 H 160.156 -0.418245 1.41029 0
M  V30 1879 H 162.114 -3.32758 2.5165 0
M  V30 1880 H 160.744 -2.87433 1.46908 0
M  V30 1881 H 159.796 -1.53131 3.48217 0
M  V30 1882 H 161.108 -2.20683 4.47326 0
M  V30 1883 H 160.262 -4.52303 4.0436 0
M  V30 1884 H 159.001 -3.88105 2.9534 0
M  V30 1885 H 158.006 -2.57927 4.85545 0
M  V30 1886 H 159.231 -3.25163 5.96193 0
M  V30 1887 H 157.177 -4.86425 4.40144 0
M  V30 1888 H 157.094 -4.48019 6.08946 0
M  V30 1889 H 158.362 -5.51689 5.5069 0
M  V30 1890 N 162.591 -1.51276 -0.441967 0
M  V30 1891 C 163.501 -1.75092 -1.56141 0
M  V30 1892 C 164.517 -0.634963 -1.62001 0
M  V30 1893 O 165.693 -0.916686 -1.79329 0
M  V30 1894 C 162.758 -1.86666 -2.92158 0
M  V30 1895 C 161.819 -3.10506 -2.96453 0
M  V30 1896 C 161.052 -3.21519 -4.25982 0
M  V30 1897 O 161.275 -2.38586 -5.18105 0
M  V30 1898 O 160.209 -4.14465 -4.36466 0
M  V30 1899 H 164.035 -2.70044 -1.38961 0
M  V30 1900 H 161.62 -1.35722 -0.624499 0
M  V30 1901 H 163.502 -1.96292 -3.72891 0
M  V30 1902 H 162.177 -0.949014 -3.09476 0
M  V30 1903 H 161.084 -3.06363 -2.14692 0
M  V30 1904 H 162.417 -4.01945 -2.84079 0
M  V30 1905 N 164.069 0.697108 -1.41344 0
M  V30 1906 C 165.299 1.48377 -1.43763 0
M  V30 1907 C 165.707 1.89156 -0.0408726 0
M  V30 1908 O 165.05 1.57239 0.949812 0
M  V30 1909 C 165.112 2.7781 -2.2817 0
M  V30 1910 C 164.776 2.59244 -3.76353 0
M  V30 1911 C 165.773 2.25292 -4.68551 0
M  V30 1912 C 163.458 2.74933 -4.20378 0
M  V30 1913 C 165.452 2.07264 -6.02761 0
M  V30 1914 C 163.139 2.56521 -5.54653 0
M  V30 1915 C 164.137 2.22737 -6.4566 0
M  V30 1916 O 163.825 2.04485 -7.77458 0
M  V30 1917 H 163.557 0.463842 -0.491759 0
M  V30 1918 H 166.111 0.865934 -1.86255 0
M  V30 1919 H 164.341 3.41995 -1.8049 0
M  V30 1920 H 166.03 3.39608 -2.22309 0
M  V30 1921 H 166.796 2.12787 -4.35829 0
M  V30 1922 H 162.675 3.00213 -3.49848 0
M  V30 1923 H 166.219 1.80817 -6.73759 0
M  V30 1924 H 162.116 2.68616 -5.86955 0
M  V30 1925 H 162.884 2.1926 -7.88586 0
M  V30 1926 N 165.547 1.27147 0.931209 0
M  V30 1927 C 166.793 1.13446 1.68101 0
M  V30 1928 C 167.126 -0.319628 1.91552 0
M  V30 1929 O 166.401 -1.23407 1.50336 0
M  V30 1930 C 166.684 1.91482 3.0497 0
M  V30 1931 C 166.537 3.44855 2.88782 0
M  V30 1932 C 167.856 1.71651 4.05246 0
M  V30 1933 H 164.975 0.413498 0.610072 0
M  V30 1934 H 167.617 1.56261 1.08086 0
M  V30 1935 H 165.767 1.55095 3.56199 0
M  V30 1936 H 167.439 3.9105 2.44698 0
M  V30 1937 H 165.682 3.71373 2.24198 0
M  V30 1938 H 166.353 3.94694 3.85902 0
M  V30 1939 H 168.829 2.0337 3.63015 0
M  V30 1940 H 167.705 2.28651 4.99009 0
M  V30 1941 H 167.966 0.663555 4.37092 0
M  V30 1942 N 167.025 -1.13721 1.09112 0
M  V30 1943 C 167.972 -2.19031 0.727591 0
M  V30 1944 C 168.942 -1.63555 -0.289656 0
M  V30 1945 O 170.127 -1.90023 -0.172026 0
M  V30 1946 C 167.267 -3.4477 0.15082 0
M  V30 1947 C 166.38 -4.14365 1.22172 0
M  V30 1948 C 165.515 -5.27709 0.608042 0
M  V30 1949 C 164.554 -5.89147 1.66047 0
M  V30 1950 N 163.691 -6.93929 1.06806 0
M  V30 1951 H 168.531 -2.49475 1.62991 0
M  V30 1952 H 166.068 -1.22499 0.81439 0
M  V30 1953 H 168.026 -4.16714 -0.201358 0
M  V30 1954 H 166.656 -3.14787 -0.714783 0
M  V30 1955 H 165.708 -3.40737 1.69122 0
M  V30 1956 H 167.02 -4.56114 2.01895 0
M  V30 1957 H 166.174 -6.06355 0.204523 0
M  V30 1958 H 164.913 -4.872 -0.220769 0
M  V30 1959 H 163.918 -5.09198 2.07357 0
M  V30 1960 H 165.143 -6.31729 2.49189 0
M  V30 1961 H 163.089 -6.55483 0.260476 0
M  V30 1962 H 163.006 -7.34202 1.8023 0
M  V30 1963 H 164.274 -7.76434 0.690644 0
M  V30 1964 N 168.503 -0.877838 -1.30888 0
M  V30 1965 C 169.466 -0.344265 -2.266 0
M  V30 1966 C 170.466 0.50922 -1.52524 0
M  V30 1967 O 171.656 0.317398 -1.71284 0
M  V30 1968 C 168.788 0.510198 -3.37061 0
M  V30 1969 H 169.981 -1.1893 -2.7531 0
M  V30 1970 H 167.534 -0.654088 -1.41956 0
M  V30 1971 H 168.269 1.37612 -2.93655 0
M  V30 1972 H 168.054 -0.101047 -3.9197 0
M  V30 1973 H 169.544 0.875537 -4.08319 0
M  V30 1974 N 169.982 1.44106 -0.638065 0
M  V30 1975 C 170.912 2.33448 0.0494287 0
M  V30 1976 C 171.893 1.48606 0.827672 0
M  V30 1977 O 173.078 1.77308 0.792173 0
M  V30 1978 C 170.208 3.31771 1.02691 0
M  V30 1979 C 169.162 4.26485 0.359823 0
M  V30 1980 C 168.488 5.14729 1.44769 0
M  V30 1981 C 169.788 5.17056 -0.738296 0
M  V30 1982 H 171.482 2.91183 -0.696636 0
M  V30 1983 H 169.028 1.40014 -0.336456 0
M  V30 1984 H 170.981 3.93161 1.51666 0
M  V30 1985 H 169.705 2.7226 1.80395 0
M  V30 1986 H 168.364 3.66437 -0.10934 0
M  V30 1987 H 168.012 4.51566 2.21578 0
M  V30 1988 H 167.712 5.78913 1.00668 0
M  V30 1989 H 169.236 5.78991 1.93911 0
M  V30 1990 H 170.65 5.72342 -0.331354 0
M  V30 1991 H 169.047 5.89879 -1.10286 0
M  V30 1992 H 170.117 4.57652 -1.60258 0
M  V30 1993 N 171.46 0.379036 1.52974 0
M  V30 1994 C 172.871 -0.0972525 1.86447 0
M  V30 1995 C 173.222 -1.47027 1.29914 0
M  V30 1996 O 172.347 -2.07135 0.626433 0
M  V30 1997 C 172.942 -0.183248 3.38304 0
M  V30 1998 C 171.501 -0.603812 3.71525 0
M  V30 1999 C 170.648 0.240632 2.76254 0
M  V30 2000 H 173.599 0.597316 1.4703 0
M  V30 2001 H 173.62 -1.00432 3.67006 0
M  V30 2002 H 173.132 0.816191 3.79421 0
M  V30 2003 H 171.233 -1.61099 3.35973 0
M  V30 2004 H 171.346 -0.369086 4.77676 0
M  V30 2005 H 169.71 -0.292548 2.53014 0
M  V30 2006 H 170.493 1.23786 3.20206 0
M  V30 2007 N 172.938 -1.57226 0.108567 0
M  V30 2008 C 174.163 -1.99604 -0.563303 0
M  V30 2009 C 174.588 -0.987563 -1.6009 0
M  V30 2010 O 173.946 0.0421687 -1.81251 0
M  V30 2011 C 173.994 -3.40902 -1.17552 0
M  V30 2012 O 173.098 -3.42896 -2.2912 0
M  V30 2013 H 172.439 -0.648704 -0.1417 0
M  V30 2014 H 174.969 -2.03679 0.193961 0
M  V30 2015 H 174.979 -3.78886 -1.51357 0
M  V30 2016 H 173.654 -4.1382 -0.415445 0
M  V30 2017 H 172.231 -3.1672 -1.96832 0
M  V30 2018 N 174.416 0.165178 -1.56732 0
M  V30 2019 C 175.348 1.22911 -1.93457 0
M  V30 2020 C 176.361 1.40152 -0.828333 0
M  V30 2021 O 177.55 1.40046 -1.10677 0
M  V30 2022 C 174.65 2.59686 -2.17753 0
M  V30 2023 C 173.823 2.63663 -3.48999 0
M  V30 2024 C 172.882 3.81845 -3.62051 0
M  V30 2025 O 171.908 3.67559 -4.34613 0
M  V30 2026 N 173.11 4.98557 -2.97357 0
M  V30 2027 H 175.875 0.917118 -2.85323 0
M  V30 2028 H 173.436 0.354895 -1.57962 0
M  V30 2029 H 175.428 3.37225 -2.23743 0
M  V30 2030 H 173.998 2.83251 -1.32242 0
M  V30 2031 H 173.218 1.72173 -3.54612 0
M  V30 2032 H 174.506 2.63336 -4.35352 0
M  V30 2033 H 173.904 5.13065 -2.38287 0
M  V30 2034 H 172.461 5.73936 -3.08934 0
M  V30 2035 N 175.894 1.51508 0.433938 0
M  V30 2036 C 177.142 1.6402 1.18075 0
M  V30 2037 C 177.463 0.360328 1.91642 0
M  V30 2038 O 176.733 -0.623945 1.85698 0
M  V30 2039 H 175.313 0.6045 0.43885 0
M  V30 2040 H 177.975 1.88452 0.497178 0
M  V30 2041 H 177.071 2.46949 1.90847 0
M  V30 2042 N 177.372 -0.689602 1.41712 0
M  V30 2043 C 178.302 -1.81577 1.46806 0
M  V30 2044 C 179.283 -1.66945 0.326105 0
M  V30 2045 O 180.468 -1.86588 0.538377 0
M  V30 2046 C 177.598 -3.19762 1.35535 0
M  V30 2047 C 176.552 -3.49107 2.47605 0
M  V30 2048 C 175.878 -4.86711 2.21397 0
M  V30 2049 C 177.178 -3.47483 3.89939 0
M  V30 2050 H 178.872 -1.7757 2.41058 0
M  V30 2051 H 176.418 -0.852887 1.16025 0
M  V30 2052 H 178.371 -3.98263 1.3771 0
M  V30 2053 H 177.095 -3.24409 0.377708 0
M  V30 2054 H 175.754 -2.72959 2.44722 0
M  V30 2055 H 175.402 -4.8799 1.21961 0
M  V30 2056 H 175.102 -5.0731 2.96497 0
M  V30 2057 H 176.626 -5.67515 2.25297 0
M  V30 2058 H 178.04 -4.1598 3.94505 0
M  V30 2059 H 176.437 -3.79615 4.64771 0
M  V30 2060 H 177.507 -2.46341 4.17665 0
M  V30 2061 N 178.85 -1.27639 -0.924453 0
M  V30 2062 C 180.075 -1.17101 -1.71179 0
M  V30 2063 C 180.5 0.268134 -1.86179 0
M  V30 2064 O 179.858 1.19415 -1.36418 0
M  V30 2065 C 179.906 -1.86313 -3.08739 0
M  V30 2066 O 179.01 -1.16331 -3.95652 0
M  V30 2067 H 178.351 -0.407091 -0.524569 0
M  V30 2068 H 180.881 -1.68767 -1.15666 0
M  V30 2069 H 180.891 -1.938 -3.59034 0
M  V30 2070 H 179.566 -2.91001 -2.97138 0
M  V30 2071 H 178.143 -1.16935 -3.54091 0
M  V30 2072 N 180.328 1.1314 -1.09713 0
M  V30 2073 C 181.553 1.88862 -0.857081 0
M  V30 2074 C 181.978 1.78729 0.586304 0
M  V30 2075 O 181.336 1.13692 1.41222 0
M  V30 2076 C 181.384 3.36325 -1.30069 0
M  V30 2077 O 180.488 4.09815 -0.461007 0
M  V30 2078 H 179.829 0.587108 -0.310162 0
M  V30 2079 H 182.359 1.43129 -1.46203 0
M  V30 2080 H 182.369 3.87157 -1.28738 0
M  V30 2081 H 181.044 3.43017 -2.35185 0
M  V30 2082 H 179.621 3.68986 -0.538888 0
M  V30 2083 N 181.806 0.884767 1.30421 0
M  V30 2084 C 183.031 0.517288 2.00845 0
M  V30 2085 C 183.456 -0.886779 1.65885 0
M  V30 2086 O 182.814 -1.58768 0.875354 0
M  V30 2087 C 182.862 0.698994 3.5376 0
M  V30 2088 O 181.966 -0.255208 4.1161 0
M  V30 2089 H 181.307 0.203872 0.631927 0
M  V30 2090 H 183.837 1.19225 1.66272 0
M  V30 2091 H 183.847 0.597912 4.03595 0
M  V30 2092 H 182.522 1.72271 3.78544 0
M  V30 2093 H 181.099 -0.10784 3.72744 0
M  V30 2094 N 183.284 -1.43765 0.645699 0
M  V30 2095 C 184.247 -2.29163 -0.0409488 0
M  V30 2096 C 185.247 -1.41813 -0.757996 0
M  V30 2097 O 186.437 -1.63527 -0.600382 0
M  V30 2098 C 183.569 -3.23716 -1.06869 0
M  V30 2099 H 184.762 -2.91366 0.710345 0
M  V30 2100 H 182.315 -1.5092 0.406547 0
M  V30 2101 H 183.05 -2.66393 -1.84947 0
M  V30 2102 H 182.835 -3.88105 -0.558277 0
M  V30 2103 H 184.325 -3.87831 -1.54845 0
M  V30 2104 N 184.763 -0.387143 -1.52771 0
M  V30 2105 C 186.009 0.196025 -2.0185 0
M  V30 2106 C 186.342 1.46641 -1.27319 0
M  V30 2107 O 185.617 1.90889 -0.373032 0
M  V30 2108 C 185.9 0.466136 -3.5707 0
M  V30 2109 C 185.753 -0.819385 -4.42274 0
M  V30 2110 C 187.072 1.25768 -4.21747 0
M  V30 2111 H 184.191 0.0697708 -0.73369 0
M  V30 2112 H 186.833 -0.516286 -1.82851 0
M  V30 2113 H 184.983 1.07293 -3.7339 0
M  V30 2114 H 186.655 -1.4563 -4.37709 0
M  V30 2115 H 184.898 -1.43517 -4.09372 0
M  V30 2116 H 185.569 -0.585065 -5.48891 0
M  V30 2117 H 188.045 0.744167 -4.09391 0
M  V30 2118 H 186.921 1.41541 -5.30337 0
M  V30 2119 H 187.182 2.27228 -3.79236 0
M  V30 2120 N 186.241 1.57166 -0.116904 0
M  V30 2121 C 187.171 2.18222 0.830759 0
M  V30 2122 C 188.152 1.12167 1.27877 0
M  V30 2123 O 189.337 1.40394 1.34176 0
M  V30 2124 C 186.467 2.77996 2.08172 0
M  V30 2125 C 185.421 3.89614 1.77157 0
M  V30 2126 C 184.747 4.36187 3.09265 0
M  V30 2127 C 186.047 5.1181 1.04151 0
M  V30 2128 H 187.741 2.97664 0.321992 0
M  V30 2129 H 185.287 1.4318 0.153434 0
M  V30 2130 H 187.24 3.19366 2.74924 0
M  V30 2131 H 185.964 1.9584 2.6137 0
M  V30 2132 H 184.623 3.48816 1.12796 0
M  V30 2133 H 184.271 3.50893 3.60393 0
M  V30 2134 H 183.971 5.11455 2.89288 0
M  V30 2135 H 185.495 4.80207 3.77139 0
M  V30 2136 H 186.909 5.50214 1.61052 0
M  V30 2137 H 185.306 5.92648 0.942762 0
M  V30 2138 H 186.376 4.84892 0.0279022 0
M  V30 2139 N 187.719 -0.156864 1.56817 0
M  V30 2140 C 188.629 -1.2136 2.00771 0
M  V30 2141 C 189.645 -1.47598 0.921459 0
M  V30 2142 O 190.821 -1.59462 1.2302 0
M  V30 2143 C 187.886 -2.52943 2.37109 0
M  V30 2144 C 186.947 -2.34439 3.59634 0
M  V30 2145 C 186.18 -3.59748 3.94229 0
M  V30 2146 O 186.403 -4.65526 3.29609 0
M  V30 2147 O 185.337 -3.52998 4.8752 0
M  V30 2148 H 189.163 -0.870468 2.90958 0
M  V30 2149 H 186.748 -0.36484 1.44877 0
M  V30 2150 H 188.63 -3.30538 2.61386 0
M  V30 2151 H 187.305 -2.86806 1.5008 0
M  V30 2152 H 186.212 -1.54828 3.40557 0
M  V30 2153 H 187.545 -2.05496 4.4725 0
M  V30 2154 N 189.197 -1.51736 -0.425897 0
M  V30 2155 C 190.144 -1.73875 -1.51776 0
M  V30 2156 C 191.114 -0.580702 -1.55618 0
M  V30 2157 O 192.299 -0.81641 -1.72451 0
M  V30 2158 C 189.439 -1.88012 -2.89388 0
M  V30 2159 C 188.552 -3.15606 -2.94986 0
M  V30 2160 C 187.687 -3.20271 -4.23793 0
M  V30 2161 C 186.726 -4.42134 -4.23302 0
M  V30 2162 N 185.863 -4.44284 -5.43651 0
M  V30 2163 H 190.703 -2.67071 -1.32201 0
M  V30 2164 H 188.24 -1.32351 -0.642008 0
M  V30 2165 H 190.198 -1.9419 -3.69251 0
M  V30 2166 H 188.828 -0.98213 -3.07496 0
M  V30 2167 H 187.88 -3.18681 -2.07717 0
M  V30 2168 H 189.192 -4.05486 -2.90486 0
M  V30 2169 H 188.346 -3.25428 -5.12036 0
M  V30 2170 H 187.085 -2.28299 -4.30965 0
M  V30 2171 H 186.09 -4.3714 -3.3345 0
M  V30 2172 H 187.315 -5.35382 -4.17783 0
M  V30 2173 H 185.261 -3.55188 -5.51523 0
M  V30 2174 H 185.178 -5.27988 -5.41078 0
M  V30 2175 H 186.446 -4.53649 -6.33895 0
M  V30 2176 N 190.675 0.682077 -1.42076 0
M  V30 2177 C 191.605 1.80796 -1.47767 0
M  V30 2178 C 192.586 1.6677 -0.334954 0
M  V30 2179 O 193.771 1.863 -0.548264 0
M  V30 2180 C 190.901 3.19038 -1.37229 0
M  V30 2181 C 189.855 3.47789 -2.49453 0
M  V30 2182 C 189.181 4.8553 -2.23975 0
M  V30 2183 C 190.481 3.45411 -3.91776 0
M  V30 2184 H 192.175 1.7629 -2.41997 0
M  V30 2185 H 189.721 0.846721 -1.16476 0
M  V30 2186 H 191.674 3.97528 -1.39821 0
M  V30 2187 H 190.398 3.24204 -0.394907 0
M  V30 2188 H 189.057 2.71657 -2.46166 0
M  V30 2189 H 188.705 4.87337 -1.24547 0
M  V30 2190 H 188.405 5.0573 -2.99184 0
M  V30 2191 H 189.929 5.66312 -2.28304 0
M  V30 2192 H 191.343 4.13882 -3.96705 0
M  V30 2193 H 189.74 3.77145 -4.66778 0
M  V30 2194 H 190.81 2.44122 -4.18966 0
M  V30 2195 N 192.153 1.28127 0.917671 0
M  V30 2196 C 193.1 1.11717 2.0196 0
M  V30 2197 C 194.07 0.0153929 1.66093 0
M  V30 2198 O 195.255 0.179596 1.89953 0
M  V30 2199 C 192.395 0.780927 3.36148 0
M  V30 2200 C 191.508 1.96135 3.84909 0
M  V30 2201 C 190.643 1.56609 5.0759 0
M  V30 2202 C 189.682 2.71339 5.48673 0
M  V30 2203 N 188.819 2.32332 6.62545 0
M  V30 2204 H 193.659 2.06003 2.15329 0
M  V30 2205 H 191.196 1.02535 1.05475 0
M  V30 2206 H 193.154 0.56675 4.13333 0
M  V30 2207 H 191.784 -0.124998 3.22558 0
M  V30 2208 H 190.836 2.28777 3.03916 0
M  V30 2209 H 192.148 2.82165 4.1132 0
M  V30 2210 H 191.302 1.31374 5.92305 0
M  V30 2211 H 190.041 0.677014 4.82978 0
M  V30 2212 H 189.046 2.97276 4.62501 0
M  V30 2213 H 190.271 3.60882 5.75274 0
M  V30 2214 H 188.217 1.45889 6.39572 0
M  V30 2215 H 188.134 3.11899 6.88662 0
M  V30 2216 H 189.402 2.10371 7.50576 0
M  V30 2217 N 193.631 -1.12557 1.10312 0
M  V30 2218 C 194.541 -2.21841 0.763142 0
M  V30 2219 C 195.557 -1.72354 -0.238801 0
M  V30 2220 O 196.733 -2.01249 -0.0778746 0
M  V30 2221 C 193.798 -3.46131 0.198632 0
M  V30 2222 C 192.859 -4.10464 1.25769 0
M  V30 2223 C 192.092 -5.28821 0.72002 0
M  V30 2224 O 192.315 -5.6859 -0.453993 0
M  V30 2225 O 191.249 -5.83437 1.47935 0
M  V30 2226 H 195.075 -2.53312 1.67532 0
M  V30 2227 H 192.66 -1.20867 0.878157 0
M  V30 2228 H 194.542 -4.2125 -0.112401 0
M  V30 2229 H 193.217 -3.16338 -0.686419 0
M  V30 2230 H 192.124 -3.3713 1.62156 0
M  V30 2231 H 193.457 -4.44408 2.11571 0
M  V30 2232 N 195.109 -0.891671 -1.2995 0
M  V30 2233 C 196.339 -0.527893 -1.99742 0
M  V30 2234 C 196.747 0.88979 -1.66971 0
M  V30 2235 O 196.09 1.59766 -0.906667 0
M  V30 2236 C 196.152 -0.630804 -3.53922 0
M  V30 2237 C 195.816 -2.01401 -4.10228 0
M  V30 2238 C 196.813 -2.98422 -4.25724 0
M  V30 2239 C 194.498 -2.32121 -4.45449 0
M  V30 2240 C 196.492 -4.24293 -4.75662 0
M  V30 2241 C 194.179 -3.58237 -4.95086 0
M  V30 2242 C 195.177 -4.54137 -5.10146 0
M  V30 2243 O 194.865 -5.78014 -5.58708 0
M  V30 2244 H 194.597 -0.201953 -0.645129 0
M  V30 2245 H 197.151 -1.20076 -1.66646 0
M  V30 2246 H 195.381 0.0990616 -3.86573 0
M  V30 2247 H 197.07 -0.277338 -4.04951 0
M  V30 2248 H 197.836 -2.76001 -3.98809 0
M  V30 2249 H 193.715 -1.5824 -4.32991 0
M  V30 2250 H 197.259 -4.99153 -4.87332 0
M  V30 2251 H 193.156 -3.80491 -5.21437 0
M  V30 2252 H 193.924 -5.8049 -5.77039 0
M  V30 2253 N 196.587 1.43421 -0.653314 0
M  V30 2254 C 197.812 2.06678 -0.172846 0
M  V30 2255 C 198.237 1.48648 1.15262 0
M  V30 2256 O 197.595 0.596457 1.71208 0
M  V30 2257 C 197.643 3.60474 -0.0953184 0
M  V30 2258 O 196.747 4.01487 0.942442 0
M  V30 2259 H 196.088 0.657181 -0.0949155 0
M  V30 2260 H 198.618 1.83925 -0.896265 0
M  V30 2261 H 198.628 4.07905 0.0879728 0
M  V30 2262 H 197.303 4.02088 -1.06291 0
M  V30 2263 H 195.88 3.65646 0.731932 0
M  V30 2264 N 198.065 0.39524 1.52563 0
M  V30 2265 C 199.29 -0.187456 2.06551 0
M  V30 2266 C 199.715 -1.39249 1.26457 0
M  V30 2267 O 199.073 -1.78947 0.291151 0
M  V30 2268 C 199.121 -0.529985 3.56684 0
M  V30 2269 O 198.225 -1.62307 3.79118 0
M  V30 2270 H 197.566 -0.0202537 0.663691 0
M  V30 2271 H 200.096 0.564426 1.96661 0
M  V30 2272 H 200.106 -0.792598 4.00227 0
M  V30 2273 H 198.781 0.350987 4.14416 0
M  V30 2274 H 197.358 -1.3537 3.47461 0
M  V30 2275 N 199.544 -1.57102 0.125237 0
M  V30 2276 C 200.477 -2.11371 -0.860094 0
M  V30 2277 C 201.455 -1.03168 -1.25679 0
M  V30 2278 O 202.639 -1.30862 -1.35674 0
M  V30 2279 C 199.766 -2.61555 -2.1519 0
M  V30 2280 C 198.812 -3.81701 -1.9028 0
M  V30 2281 S 199.645 -5.23797 -1.11343 0
M  V30 2282 C 200.801 -5.77353 -2.41689 0
M  V30 2283 H 201.034 -2.94617 -0.39852 0
M  V30 2284 H 198.567 -1.54145 -0.0886555 0
M  V30 2285 H 200.525 -2.91122 -2.89411 0
M  V30 2286 H 199.186 -1.78479 -2.58465 0
M  V30 2287 H 198.379 -4.14985 -2.86014 0
M  V30 2288 H 197.981 -3.52783 -1.24178 0
M  V30 2289 H 200.273 -5.87458 -3.37489 0
M  V30 2290 H 201.216 -6.75323 -2.12942 0
M  V30 2291 H 201.624 -5.05457 -2.51342 0
M  V30 2292 N 201.022 0.148545 -1.56898 0
M  V30 2293 C 202.299 0.890019 -1.74178 0
M  V30 2294 C 202.679 1.99407 -0.692839 0
M  V30 2295 O 202.027 2.26671 0.288505 0
M  V30 2296 C 202.237 1.43389 -3.18183 0
M  V30 2297 C 203.585 1.89791 -3.79822 0
M  V30 2298 O 204.609 1.53134 -3.21603 0
M  V30 2299 O 203.468 2.57387 -4.82093 0
M  V30 2300 H 200.562 0.420496 -0.712118 0
M  V30 2301 H 203.108 0.134591 -1.69165 0
M  V30 2302 H 201.88 0.640383 -3.86024 0
M  V30 2303 H 201.503 2.25287 -3.27615 0
M  V30 2304 N 202.5 1.5196 0.417844 0
M  V30 2305 C 203.463 1.74065 1.49111 0
M  V30 2306 C 204.463 0.610537 1.48758 0
M  V30 2307 O 205.653 0.87832 1.50437 0
M  V30 2308 C 202.785 1.81502 2.88565 0
M  V30 2309 H 203.978 2.69869 1.30807 0
M  V30 2310 H 201.531 1.42244 0.647785 0
M  V30 2311 H 202.266 0.875813 3.1225 0
M  V30 2312 H 202.051 2.63651 2.90225 0
M  V30 2313 H 203.541 2.00376 3.66387 0
M  V30 2314 N 203.978 -0.674533 1.42435 0
M  V30 2315 C 205.225 -1.43459 1.42919 0
M  V30 2316 C 205.553 -1.94446 0.0457312 0
M  V30 2317 O 204.808 -1.7132 -0.94593 0
M  V30 2318 C 205.107 -2.64767 2.40069 0
M  V30 2319 C 204.773 -2.3232 3.86443 0
M  V30 2320 C 203.435 -2.23182 4.26314 0
M  V30 2321 C 205.787 -2.05977 4.78773 0
M  V30 2322 C 203.115 -1.85827 5.56494 0
M  V30 2323 C 205.467 -1.70125 6.09295 0
M  V30 2324 C 204.131 -1.59498 6.48164 0
M  V30 2325 H 203.401 -0.524952 0.522978 0
M  V30 2326 H 206.048 -0.769097 1.75377 0
M  V30 2327 H 204.353 -3.36349 2.00939 0
M  V30 2328 H 206.05 -3.22949 2.37707 0
M  V30 2329 H 202.64 -2.40334 3.54877 0
M  V30 2330 H 206.824 -2.11969 4.48757 0
M  V30 2331 H 202.08 -1.76168 5.8547 0
M  V30 2332 H 206.254 -1.48767 6.80324 0
M  V30 2333 H 203.881 -1.30322 7.48946 0
M  V30 2334 N 205.456 -1.28612 -0.910864 0
M  V30 2335 C 206.702 -1.17116 -1.66299 0
M  V30 2336 C 207.057 0.276917 -1.90397 0
M  V30 2337 O 206.35 1.19795 -1.49532 0
M  V30 2338 C 206.544 -1.90624 -3.0232 0
M  V30 2339 C 206.373 -3.42431 -2.91498 0
M  V30 2340 C 205.143 -4.11773 -2.92867 0
M  V30 2341 C 207.341 -4.38124 -2.69355 0
M  V30 2342 N 205.323 -5.50025 -2.72664 0
M  V30 2343 C 206.694 -5.63759 -2.58023 0
M  V30 2344 C 208.749 -4.28016 -2.54375 0
M  V30 2345 C 207.452 -6.80436 -2.33238 0
M  V30 2346 C 209.478 -5.44433 -2.30969 0
M  V30 2347 C 208.84 -6.69034 -2.20394 0
M  V30 2348 H 204.939 -0.483506 -0.61461 0
M  V30 2349 H 207.523 -1.62299 -1.0755 0
M  V30 2350 H 205.694 -1.4787 -3.5915 0
M  V30 2351 H 207.426 -1.71488 -3.66571 0
M  V30 2352 H 204.181 -3.63378 -3.03732 0
M  V30 2353 H 204.605 -6.22705 -2.65646 0
M  V30 2354 H 209.247 -3.32388 -2.613 0
M  V30 2355 H 206.965 -7.7613 -2.25051 0
M  V30 2356 H 210.551 -5.38504 -2.20238 0
M  V30 2357 H 209.431 -7.57595 -2.02531 0
M  V30 2358 N 206.934 1.1197 -1.10907 0
M  V30 2359 C 207.866 2.17592 -0.720175 0
M  V30 2360 C 208.879 1.60938 0.245495 0
M  V30 2361 O 210.068 1.78476 0.0292245 0
M  V30 2362 C 207.168 3.38873 -0.0427917 0
M  V30 2363 C 206.341 4.25006 -1.03388 0
M  V30 2364 C 205.4 5.24774 -0.387075 0
M  V30 2365 O 204.426 5.59631 -1.03934 0
M  V30 2366 N 205.628 5.74208 0.852407 0
M  V30 2367 H 208.393 2.51567 -1.62893 0
M  V30 2368 H 205.954 1.27439 -0.998543 0
M  V30 2369 H 207.946 4.02703 0.401501 0
M  V30 2370 H 206.516 3.03007 0.768456 0
M  V30 2371 H 205.736 3.57716 -1.65629 0
M  V30 2372 H 207.024 4.79397 -1.70458 0
M  V30 2373 H 206.422 5.48062 1.40161 0
M  V30 2374 H 204.979 6.39901 1.23977 0
M  V30 2375 N 208.412 0.89855 1.29475 0
M  V30 2376 C 209.322 0.379974 2.31502 0
M  V30 2377 C 210.338 -0.524695 1.659 0
M  V30 2378 O 211.514 -0.414551 1.97087 0
M  V30 2379 C 208.579 -0.385138 3.44554 0
M  V30 2380 C 207.64 0.550914 4.2575 0
M  V30 2381 C 206.873 -0.177778 5.33404 0
M  V30 2382 O 207.096 -1.40189 5.52904 0
M  V30 2383 O 206.03 0.479106 5.9999 0
M  V30 2384 H 209.856 1.22639 2.77837 0
M  V30 2385 H 207.441 0.662834 1.33891 0
M  V30 2386 H 209.323 -0.817841 4.13388 0
M  V30 2387 H 207.998 -1.20763 3.0033 0
M  V30 2388 H 206.905 1.03271 3.59564 0
M  V30 2389 H 208.238 1.33979 4.73614 0
M  V30 2390 N 209.89 -1.43072 0.660911 0
M  V30 2391 C 211.138 -2.01323 0.177094 0
M  V30 2392 C 211.459 -1.5245 -1.2159 0
M  V30 2393 O 210.729 -0.740322 -1.81373 0
M  V30 2394 H 209.309 -0.744382 0.0624804 0
M  V30 2395 H 211.971 -1.75179 0.854305 0
M  V30 2396 H 211.067 -3.11649 0.167641 0
M  V30 2397 N 211.368 -0.403325 -1.52352 0
M  V30 2398 C 212.784 -0.0539281 -1.59509 0
M  V30 2399 C 212.984 1.43307 -1.41652 0
M  V30 2400 O 212.04 2.19924 -1.24056 0
M  V30 2401 C 213.353 -0.543654 -2.95745 0
M  V30 2402 C 214.901 -0.501125 -3.08962 0
M  V30 2403 C 215.376 -0.967267 -4.47669 0
M  V30 2404 N 216.867 -0.923849 -4.53893 0
M  V30 2405 C 217.602 -1.25578 -5.5948 0
M  V30 2406 N 217.098 -1.65889 -6.72646 0
M  V30 2407 N 218.891 -1.17613 -5.49658 0
M  V30 2408 H 211.042 -1.37123 -1.62206 0
M  V30 2409 H 213.305 -0.56294 -0.76276 0
M  V30 2410 H 213.011 -1.58275 -3.14073 0
M  V30 2411 H 212.885 0.0498042 -3.77167 0
M  V30 2412 H 215.272 0.528909 -2.90321 0
M  V30 2413 H 215.353 -1.13056 -2.2946 0
M  V30 2414 H 214.997 -1.9956 -4.67053 0
M  V30 2415 H 214.927 -0.314698 -5.25659 0
M  V30 2416 H 217.418 -0.627403 -3.72655 0
M  V30 2417 H 217.731 -1.89543 -7.49195 0
M  V30 2418 H 216.076 -1.69787 -6.73942 0
M  V30 2419 H 219.267 -0.860115 -4.6013 0
M  V30 2420 H 219.44 -1.43812 -6.3184 0
M  V30 2421 N 212.846 1.57033 -0.133567 0
M  V30 2422 C 213.809 2.14897 0.796995 0
M  V30 2423 C 214.809 1.0874 1.18458 0
M  V30 2424 O 215.999 1.34446 1.1077 0
M  V30 2425 C 213.131 2.70112 2.07973 0
M  V30 2426 H 214.324 2.98457 0.293873 0
M  V30 2427 H 211.877 1.55871 0.115787 0
M  V30 2428 H 212.612 1.9018 2.62682 0
M  V30 2429 H 212.397 3.47764 1.81115 0
M  V30 2430 H 213.887 3.14738 2.74462 0
M  V30 2431 N 214.325 -0.140222 1.56975 0
M  V30 2432 C 215.55 -0.870414 1.88251 0
M  V30 2433 C 215.975 -1.73637 0.723312 0
M  V30 2434 O 215.333 -1.78329 -0.32689 0
M  V30 2435 C 215.381 -1.69737 3.18154 0
M  V30 2436 O 214.485 -2.80229 3.02565 0
M  V30 2437 H 213.826 -0.242025 0.61832 0
M  V30 2438 H 216.356 -0.128999 2.04193 0
M  V30 2439 H 216.366 -2.09099 3.50345 0
M  V30 2440 H 215.041 -1.06152 4.02125 0
M  V30 2441 H 213.618 -2.44224 2.81796 0
M  V30 2442 N 215.803 -1.52179 -0.40978 0
M  V30 2443 C 217.051 -1.65878 -1.15451 0
M  V30 2444 C 217.372 -0.390771 -1.91044 0
M  V30 2445 O 216.642 0.594323 -1.86667 0
M  V30 2446 H 215.222 -0.611405 -0.429177 0
M  V30 2447 H 217.884 -1.89219 -0.467134 0
M  V30 2448 H 216.98 -2.49954 -1.86894 0
M  V30 2449 N 217.281 0.66697 -1.42791 0
M  V30 2450 C 218.509 1.45505 -1.47091 0
M  V30 2451 C 218.924 1.8861 -0.0845873 0
M  V30 2452 O 218.281 1.58632 0.90234 0
M  V30 2453 C 218.332 2.69906 -2.40485 0
M  V30 2454 O 218.053 2.28608 -3.73725 0
M  V30 2455 C 219.554 3.63396 -2.53886 0
M  V30 2456 H 216.774 0.447459 -0.500022 0
M  V30 2457 H 219.318 0.818866 -1.8739 0
M  V30 2458 H 217.473 3.29696 -2.03419 0
M  V30 2459 H 217.887 3.08997 -4.23817 0
M  V30 2460 H 219.361 4.47387 -3.2334 0
M  V30 2461 H 219.838 4.09824 -1.57927 0
M  V30 2462 H 220.444 3.09495 -2.91706 0
M  V30 2463 N 218.759 1.29093 0.90403 0
M  V30 2464 C 220.005 1.16986 1.65656 0
M  V30 2465 C 220.338 -0.278925 1.92186 0
M  V30 2466 O 219.613 -1.2019 1.5292 0
M  V30 2467 C 219.896 1.97908 3.0084 0
M  V30 2468 C 219.749 3.50903 2.81403 0
M  V30 2469 C 221.068 1.80208 4.01513 0
M  V30 2470 H 218.187 0.426346 0.601164 0
M  V30 2471 H 220.829 1.58518 1.04747 0
M  V30 2472 H 218.979 1.62616 3.52829 0
M  V30 2473 H 220.651 3.96153 2.36348 0
M  V30 2474 H 218.894 3.76045 2.1627 0
M  V30 2475 H 219.565 4.02791 3.77443 0
M  V30 2476 H 222.041 2.11025 3.58619 0
M  V30 2477 H 220.917 2.39184 4.94047 0
M  V30 2478 H 221.178 0.756119 4.35586 0
M  V30 2479 N 220.237 -1.11381 1.11499 0
M  V30 2480 C 221.467 -1.86663 0.885464 0
M  V30 2481 C 221.875 -1.80464 -0.568281 0
M  V30 2482 O 221.218 -1.18445 -1.40415 0
M  V30 2483 C 221.28 -3.36337 1.26956 0
M  V30 2484 C 220.944 -3.66304 2.73259 0
M  V30 2485 C 221.941 -3.63733 3.71476 0
M  V30 2486 C 219.626 -3.9529 3.09921 0
M  V30 2487 C 221.62 -3.89725 5.04374 0
M  V30 2488 C 219.307 -4.20941 4.43004 0
M  V30 2489 C 220.305 -4.18147 5.40039 0
M  V30 2490 O 219.993 -4.43153 6.70724 0
M  V30 2491 H 219.725 -0.597114 0.316908 0
M  V30 2492 H 222.279 -1.41782 1.48617 0
M  V30 2493 H 220.509 -3.81826 0.611999 0
M  V30 2494 H 222.198 -3.92986 1.01573 0
M  V30 2495 H 222.964 -3.41389 3.44498 0
M  V30 2496 H 218.843 -3.966 2.35009 0
M  V30 2497 H 222.387 -3.8746 5.80104 0
M  V30 2498 H 218.284 -4.42761 4.69716 0
M  V30 2499 H 219.052 -4.60717 6.76522 0
M  V30 2500 N 221.715 -0.905404 -1.28997 0
M  V30 2501 C 222.94 -0.549175 -1.99997 0
M  V30 2502 C 223.365 0.860276 -1.67275 0
M  V30 2503 O 222.723 1.57355 -0.900502 0
M  V30 2504 C 222.771 -0.755185 -3.52604 0
M  V30 2505 O 221.875 0.189692 -4.11964 0
M  V30 2506 H 221.216 -0.213899 -0.628604 0
M  V30 2507 H 223.746 -1.21856 -1.64354 0
M  V30 2508 H 223.756 -0.662045 -4.02593 0
M  V30 2509 H 222.431 -1.78271 -3.75755 0
M  V30 2510 H 221.008 0.0485257 -3.72868 0
M  V30 2511 N 223.193 1.4272 -0.668489 0
M  V30 2512 C 224.441 2.01226 -0.187769 0
M  V30 2513 C 224.762 1.53092 1.2078 0
M  V30 2514 O 224.032 0.74993 1.80977 0
M  V30 2515 H 222.612 0.744041 -0.0664272 0
M  V30 2516 H 225.274 1.74723 -0.863583 0
M  V30 2517 H 224.37 3.11556 -0.184166 0
M  V30 2518 N 224.671 0.411399 1.52136 0
M  V30 2519 C 225.581 -0.419774 2.30814 0
M  V30 2520 C 226.597 -1.0515 1.38634 0
M  V30 2521 O 227.773 -1.05252 1.71709 0
M  V30 2522 C 224.838 -1.52019 3.11594 0
M  V30 2523 C 223.899 -0.91129 4.19516 0
M  V30 2524 C 223.132 -1.95927 4.96436 0
M  V30 2525 O 223.355 -3.17775 4.73683 0
M  V30 2526 O 222.289 -1.56423 5.81219 0
M  V30 2527 H 226.115 0.221805 3.02889 0
M  V30 2528 H 223.7 0.174547 1.48377 0
M  V30 2529 H 225.582 -2.15898 3.61892 0
M  V30 2530 H 224.257 -2.14633 2.42311 0
M  V30 2531 H 223.164 -0.235157 3.7336 0
M  V30 2532 H 224.497 -0.32904 4.91099 0
M  V30 2533 N 226.149 -1.5696 0.141893 0
M  V30 2534 C 227.059 -2.20066 -0.812905 0
M  V30 2535 C 228.075 -1.18344 -1.27557 0
M  V30 2536 O 229.251 -1.50902 -1.33381 0
M  V30 2537 C 226.316 -2.80583 -2.03652 0
M  V30 2538 C 225.377 -3.97414 -1.62359 0
M  V30 2539 C 224.61 -4.55036 -2.78887 0
M  V30 2540 O 224.833 -4.11538 -3.94959 0
M  V30 2541 O 223.767 -5.45376 -2.54653 0
M  V30 2542 H 227.593 -3.02157 -0.305746 0
M  V30 2543 H 225.178 -1.49159 -0.0848799 0
M  V30 2544 H 227.06 -3.19067 -2.75272 0
M  V30 2545 H 225.735 -2.01508 -2.5333 0
M  V30 2546 H 224.642 -3.63656 -0.877775 0
M  V30 2547 H 225.975 -4.77994 -1.17401 0
M  V30 2548 N 227.627 0.131896 -1.57047 0
M  V30 2549 C 228.574 1.16236 -1.99393 0
M  V30 2550 C 229.544 1.41863 -0.863943 0
M  V30 2551 O 230.729 1.53946 -1.12718 0
M  V30 2552 C 227.869 2.48708 -2.39245 0
M  V30 2553 C 226.982 2.30127 -3.65603 0
M  V30 2554 C 226.117 3.55738 -3.94492 0
M  V30 2555 C 225.156 3.32259 -5.14073 0
M  V30 2556 N 224.293 4.50039 -5.38896 0
M  V30 2557 H 229.133 0.794251 -2.87221 0
M  V30 2558 H 226.67 0.380707 -1.42088 0
M  V30 2559 H 228.628 3.25969 -2.60384 0
M  V30 2560 H 227.258 2.83437 -1.54478 0
M  V30 2561 H 226.31 1.43845 -3.52154 0
M  V30 2562 H 227.622 2.08746 -4.5302 0
M  V30 2563 H 226.776 4.41423 -4.1621 0
M  V30 2564 H 225.515 3.80138 -3.05526 0
M  V30 2565 H 224.52 2.44963 -4.92212 0
M  V30 2566 H 225.745 3.09242 -6.04604 0
M  V30 2567 H 223.691 4.74584 -4.52886 0
M  V30 2568 H 223.608 4.31716 -6.2061 0
M  V30 2569 H 224.876 5.36895 -5.65123 0
M  V30 2570 N 229.106 1.52395 0.401703 0
M  V30 2571 C 230.036 1.79231 1.49661 0
M  V30 2572 C 231.017 0.643654 1.57452 0
M  V30 2573 O 232.202 0.889989 1.72606 0
M  V30 2574 C 229.332 1.94971 2.87409 0
M  V30 2575 C 228.286 3.10604 2.94465 0
M  V30 2576 C 227.612 3.11577 4.34538 0
M  V30 2577 C 228.912 4.49921 2.6527 0
M  V30 2578 H 230.606 2.70917 1.27454 0
M  V30 2579 H 228.152 1.30362 0.6117 0
M  V30 2580 H 230.105 2.12328 3.63999 0
M  V30 2581 H 228.829 0.999632 3.10926 0
M  V30 2582 H 227.488 2.93009 2.20321 0
M  V30 2583 H 227.136 2.14277 4.55076 0
M  V30 2584 H 226.836 3.89247 4.40183 0
M  V30 2585 H 228.36 3.31073 5.13053 0
M  V30 2586 H 229.774 4.67683 3.31581 0
M  V30 2587 H 228.171 5.29564 2.82281 0
M  V30 2588 H 229.241 4.57507 1.60671 0
M  V30 2589 N 230.584 -0.659388 1.43143 0
M  V30 2590 C 231.812 -1.44723 1.47861 0
M  V30 2591 C 232.227 -1.88563 0.0945886 0
M  V30 2592 O 231.584 -1.59108 -0.893915 0
M  V30 2593 C 231.635 -2.68627 2.41913 0
M  V30 2594 O 231.356 -2.26623 3.74932 0
M  V30 2595 C 232.857 -3.62045 2.55809 0
M  V30 2596 H 230.077 -0.444801 0.502387 0
M  V30 2597 H 232.621 -0.808916 1.87821 0
M  V30 2598 H 230.776 -3.28613 2.05164 0
M  V30 2599 H 231.19 -3.06745 4.2545 0
M  V30 2600 H 232.664 -4.45666 3.25708 0
M  V30 2601 H 233.141 -4.08981 1.60099 0
M  V30 2602 H 233.747 -3.07944 2.93344 0
M  V30 2603 N 232.062 -1.29571 -0.897171 0
M  V30 2604 C 232.972 -1.16808 -2.03453 0
M  V30 2605 C 233.988 -0.0907471 -1.73763 0
M  V30 2606 O 235.164 -0.303312 -1.99103 0
M  V30 2607 C 232.229 -0.848264 -3.36163 0
M  V30 2608 C 231.29 -2.0097 -3.79354 0
M  V30 2609 C 230.523 -1.70505 -5.05731 0
M  V30 2610 O 230.746 -0.62718 -5.66941 0
M  V30 2611 O 229.68 -2.5538 -5.45036 0
M  V30 2612 H 233.506 -2.12325 -2.17144 0
M  V30 2613 H 231.091 -1.09047 -1.02123 0
M  V30 2614 H 232.973 -0.684581 -4.15802 0
M  V30 2615 H 231.648 0.0771071 -3.23608 0
M  V30 2616 H 230.555 -2.22863 -3.00471 0
M  V30 2617 H 231.888 -2.91636 -3.96496 0
M  V30 2618 N 233.54 1.10788 -1.12088 0
M  V30 2619 C 234.47 2.19083 -0.807755 0
M  V30 2620 C 235.451 1.6858 0.226859 0
M  V30 2621 O 236.636 1.93997 0.0888475 0
M  V30 2622 C 233.766 3.46344 -0.257576 0
M  V30 2623 C 232.72 4.101 -1.22483 0
M  V30 2624 C 232.046 5.32016 -0.535052 0
M  V30 2625 C 233.346 4.54236 -2.57811 0
M  V30 2626 H 235.04 2.45534 -1.71328 0
M  V30 2627 H 232.586 1.1801 -0.825205 0
M  V30 2628 H 234.539 4.21392 -0.0262679 0
M  V30 2629 H 233.263 3.19373 0.683278 0
M  V30 2630 H 231.922 3.37054 -1.44189 0
M  V30 2631 H 231.57 5.01319 0.410827 0
M  V30 2632 H 231.27 5.75625 -1.18024 0
M  V30 2633 H 232.794 6.09799 -0.312695 0
M  V30 2634 H 234.208 5.20575 -2.40155 0
M  V30 2635 H 232.605 5.08682 -3.18375 0
M  V30 2636 H 233.675 3.6734 -3.16528 0
M  V30 2637 N 235.018 0.912232 1.28515 0
M  V30 2638 C 235.948 0.416403 2.29757 0
M  V30 2639 C 236.929 -0.515194 1.6211 0
M  V30 2640 O 238.114 -0.423253 1.89532 0
M  V30 2641 C 235.244 -0.34572 3.45575 0
M  V30 2642 C 234.198 0.496599 4.25109 0
M  V30 2643 C 233.524 -0.393771 5.33248 0
M  V30 2644 C 234.824 1.75307 4.92001 0
M  V30 2645 H 236.518 1.26249 2.7148 0
M  V30 2646 H 234.064 0.608515 1.30511 0
M  V30 2647 H 236.017 -0.703422 4.15488 0
M  V30 2648 H 234.741 -1.2257 3.02728 0
M  V30 2649 H 233.4 0.8368 3.56922 0
M  V30 2650 H 233.048 -1.27225 4.86644 0
M  V30 2651 H 232.748 0.166209 5.87365 0
M  V30 2652 H 234.272 -0.747389 6.06009 0
M  V30 2653 H 235.686 1.46437 5.54283 0
M  V30 2654 H 234.083 2.25534 5.56106 0
M  V30 2655 H 235.153 2.48176 4.16577 0
M  V30 2656 N 236.496 -1.42363 0.676048 0
M  V30 2657 C 237.742 -2.0182 0.199125 0
M  V30 2658 C 238.075 -1.53339 -1.19168 0
M  V30 2659 O 237.35 -0.736124 -1.80032 0
M  V30 2660 C 237.633 -3.59331 0.235144 0
M  V30 2661 C 237.486 -4.17989 1.66149 0
M  V30 2662 C 238.805 -4.3813 -0.41595 0
M  V30 2663 H 235.924 -0.733293 0.0738311 0
M  V30 2664 H 238.566 -1.69368 0.86107 0
M  V30 2665 H 236.716 -3.87109 -0.328487 0
M  V30 2666 H 238.388 -4.0116 2.27747 0
M  V30 2667 H 236.631 -3.7377 2.20178 0
M  V30 2668 H 237.302 -5.27126 1.63837 0
M  V30 2669 H 239.778 -4.16051 0.0638529 0
M  V30 2670 H 238.654 -5.47717 -0.360115 0
M  V30 2671 H 238.915 -4.16101 -1.49373 0
M  V30 2672 N 237.974 -0.419461 -1.51915 0
M  V30 2673 C 238.921 0.400927 -2.27291 0
M  V30 2674 C 239.891 1.03224 -1.30131 0
M  V30 2675 O 241.076 1.05455 -1.59009 0
M  V30 2676 C 238.216 1.50603 -3.10504 0
M  V30 2677 C 237.329 0.89462 -4.22635 0
M  V30 2678 C 236.464 1.97328 -4.93189 0
M  V30 2679 C 235.503 1.33935 -5.97267 0
M  V30 2680 N 234.64 2.3586 -6.61298 0
M  V30 2681 H 239.48 -0.248251 -2.96964 0
M  V30 2682 H 237.017 -0.134266 -1.46486 0
M  V30 2683 H 238.975 2.15783 -3.57062 0
M  V30 2684 H 237.605 2.12509 -2.42981 0
M  V30 2685 H 236.657 0.131583 -3.80172 0
M  V30 2686 H 237.969 0.391641 -4.9726 0
M  V30 2687 H 237.123 2.70211 -5.43204 0
M  V30 2688 H 235.862 2.50994 -4.18155 0
M  V30 2689 H 234.867 0.595896 -5.46561 0
M  V30 2690 H 236.092 0.810252 -6.74249 0
M  V30 2691 H 234.038 2.88639 -5.89087 0
M  V30 2692 H 233.955 1.90403 -7.3163 0
M  V30 2693 H 235.223 3.08282 -7.15949 0
M  V30 2694 N 239.452 1.56882 -0.150215 0
M  V30 2695 C 240.415 2.1573 0.774157 0
M  V30 2696 C 241.415 1.0999 1.17298 0
M  V30 2697 O 242.605 1.35613 1.09338 0
M  V30 2698 C 239.737 2.72302 2.05096 0
M  V30 2699 H 240.93 2.98752 0.262201 0
M  V30 2700 H 238.483 1.55985 0.099248 0
M  V30 2701 H 239.218 1.92956 2.6065 0
M  V30 2702 H 239.003 3.49665 1.77416 0
M  V30 2703 H 240.493 3.17632 2.71109 0
M  V30 2704 N 240.93 -0.123565 1.57115 0
M  V30 2705 C 242.16 -0.845233 1.88519 0
M  V30 2706 C 242.568 -1.74168 0.739064 0
M  V30 2707 O 241.911 -1.81244 -0.299355 0
M  V30 2708 C 241.973 -1.73452 3.14888 0
M  V30 2709 C 241.637 -1.01285 4.45635 0
M  V30 2710 C 242.634 -0.355774 5.18681 0
M  V30 2711 C 240.319 -0.99538 4.92339 0
M  V30 2712 C 242.313 0.309114 6.3665 0
M  V30 2713 C 240 -0.32669 6.10226 0
M  V30 2714 C 240.998 0.324406 6.82229 0
M  V30 2715 O 240.686 0.982437 7.97874 0
M  V30 2716 H 240.418 -0.248534 0.628655 0
M  V30 2717 H 242.972 -0.113907 2.05084 0
M  V30 2718 H 241.202 -2.50737 2.94394 0
M  V30 2719 H 242.891 -2.33021 3.32349 0
M  V30 2720 H 243.657 -0.360918 4.83655 0
M  V30 2721 H 239.536 -1.49159 4.36202 0
M  V30 2722 H 243.08 0.8179 6.92789 0
M  V30 2723 H 238.977 -0.319294 6.4471 0
M  V30 2724 H 239.745 0.886454 8.13686 0
M  V30 2725 N 242.408 -1.52605 -0.393616 0
M  V30 2726 C 243.656 -1.67093 -1.13685 0
M  V30 2727 C 243.977 -0.411011 -1.90619 0
M  V30 2728 O 243.247 0.574491 -1.87287 0
M  V30 2729 H 241.827 -0.615923 -0.422668 0
M  V30 2730 H 244.489 -1.89704 -0.447039 0
M  V30 2731 H 243.585 -2.51922 -1.84232 0
M  V30 2732 N 243.887 0.651787 -1.4349 0
M  V30 2733 C 245.164 1.40909 -1.35661 0
M  V30 2734 C 245.544 2.11099 -0.00511733 0
M  V30 2735 O 244.892 2.04892 1.0115 0
M  V30 2736 C 245.102 2.3926 -2.54078 0
M  V30 2737 C 246.45 3.03217 -2.97228 0
M  V30 2738 O 247.474 2.49588 -2.54135 0
M  V30 2739 O 246.333 4.00455 -3.71885 0
M  V30 2740 H 243.427 0.629625 -0.536191 0
M  V30 2741 H 245.973 0.678575 -1.55542 0
M  V30 2742 H 244.745 1.86352 -3.44076 0
M  V30 2743 H 244.368 3.1976 -2.36303 0
M  V30 2744 N 245.365 1.30045 0.890287 0
M  V30 2745 C 246.612 1.18561 1.64163 0
M  V30 2746 C 246.94 -0.260852 1.92743 0
M  V30 2747 O 246.195 -1.20376 1.54299 0
M  V30 2748 C 246.494 1.95409 2.99249 0
M  V30 2749 C 246.16 3.45066 2.90242 0
M  V30 2750 C 244.822 3.85878 2.87492 0
M  V30 2751 C 247.174 4.4039 2.78758 0
M  V30 2752 C 244.502 5.20314 2.7109 0
M  V30 2753 C 246.854 5.74928 2.63894 0
M  V30 2754 C 245.518 6.14986 2.59516 0
M  V30 2755 H 244.788 0.433846 0.600715 0
M  V30 2756 H 247.435 1.61088 1.03552 0
M  V30 2757 H 245.74 1.45501 3.63781 0
M  V30 2758 H 247.437 1.8392 3.56334 0
M  V30 2759 H 244.027 3.12631 2.93189 0
M  V30 2760 H 248.211 4.09806 2.79952 0
M  V30 2761 H 243.467 5.50449 2.66112 0
M  V30 2762 H 247.641 6.48434 2.53981 0
M  V30 2763 H 245.268 7.19104 2.46565 0
M  V30 2764 N 246.843 -1.10192 1.12674 0
M  V30 2765 C 247.806 -2.14786 0.799979 0
M  V30 2766 C 248.806 -1.59711 -0.18685 0
M  V30 2767 O 249.996 -1.74156 0.0392558 0
M  V30 2768 C 247.128 -3.40374 0.189228 0
M  V30 2769 H 248.321 -2.45203 1.72671 0
M  V30 2770 H 245.874 -1.25597 0.930326 0
M  V30 2771 H 246.609 -3.15577 -0.747107 0
M  V30 2772 H 246.394 -3.81637 0.899766 0
M  V30 2773 H 247.884 -4.17594 -0.0228143 0
M  V30 2774 N 248.321 -0.919034 -1.28029 0
M  V30 2775 C 249.567 -0.565221 -1.95389 0
M  V30 2776 C 249.922 0.882325 -1.70976 0
M  V30 2777 O 249.215 1.61988 -1.02325 0
M  V30 2778 C 249.409 -0.816855 -3.4794 0
M  V30 2779 C 249.238 -2.28731 -3.87185 0
M  V30 2780 C 248.008 -2.93841 -4.11079 0
M  V30 2781 C 250.206 -3.26415 -3.97439 0
M  V30 2782 N 248.188 -4.31129 -4.37037 0
M  V30 2783 C 249.559 -4.48884 -4.27672 0
M  V30 2784 C 251.614 -3.21742 -3.79982 0
M  V30 2785 C 250.317 -5.67268 -4.42266 0
M  V30 2786 C 252.343 -4.39431 -3.95796 0
M  V30 2787 C 251.705 -5.60675 -4.26407 0
M  V30 2788 H 247.804 -0.256797 -0.738633 0
M  V30 2789 H 250.388 -1.18386 -1.54573 0
M  V30 2790 H 248.559 -0.227445 -3.87733 0
M  V30 2791 H 250.291 -0.426542 -4.02446 0
M  V30 2792 H 247.046 -2.44547 -4.05578 0
M  V30 2793 H 247.47 -5.02127 -4.5409 0
M  V30 2794 H 252.112 -2.29079 -3.55363 0
M  V30 2795 H 249.83 -6.60406 -4.65714 0
M  V30 2796 H 253.416 -4.37323 -3.83719 0
M  V30 2797 H 252.296 -6.50223 -4.38383 0
M  V30 2798 N 249.799 1.42003 -0.683588 0
M  V30 2799 C 251.024 2.06265 -0.216647 0
M  V30 2800 C 251.449 1.51059 1.12083 0
M  V30 2801 O 250.807 0.632638 1.69904 0
M  V30 2802 C 250.855 3.60191 -0.171759 0
M  V30 2803 O 249.959 4.03396 0.857069 0
M  V30 2804 H 249.3 0.65502 -0.108834 0
M  V30 2805 H 251.83 1.81982 -0.935077 0
M  V30 2806 H 251.84 4.08 0.0014303 0
M  V30 2807 H 250.515 3.99743 -1.14796 0
M  V30 2808 H 249.092 3.67117 0.654208 0
M  V30 2809 N 251.277 0.427512 1.51691 0
M  V30 2810 C 252.225 -0.403359 2.29076 0
M  V30 2811 C 253.219 -1.02962 1.34518 0
M  V30 2812 O 254.425 -0.965715 1.51901 0
M  V30 2813 H 250.8 -0.148879 0.737115 0
M  V30 2814 H 252.771 0.270295 2.97173 0
M  V30 2815 C 251.52 -1.49763 3.13794 0
M  V30 2816 H 250.843 -1.02508 3.86435 0
M  V30 2817 H 252.283 -2.05244 3.71014 0
M  V30 2818 C 250.742 -2.47536 2.28533 0
M  V30 2819 O 251.272 -3.51848 1.93819 0
M  V30 2820 N 249.478 -2.18187 1.91945 0
M  V30 2821 H 249.025 -1.33389 2.20375 0
M  V30 2822 H 248.983 -2.83848 1.35195 0
M  V30 2823 N 252.755 -1.56801 0.158532 0
M  V30 2824 C 254.166 -1.83189 -0.360366 0
M  V30 2825 C 254.517 -1.07778 -1.63946 0
M  V30 2826 O 253.642 -0.326718 -2.13919 0
M  V30 2827 C 254.237 -3.32297 -0.660595 0
M  V30 2828 C 252.796 -3.59227 -1.12398 0
M  V30 2829 C 251.943 -2.76877 -0.153097 0
M  V30 2830 H 254.894 -1.54008 0.383031 0
M  V30 2831 H 254.915 -3.4908 -1.51405 0
M  V30 2832 H 254.427 -3.87156 0.270527 0
M  V30 2833 H 252.528 -3.09766 -2.07064 0
M  V30 2834 H 252.641 -4.67632 -1.04197 0
M  V30 2835 H 251.005 -2.46319 -0.647983 0
M  V30 2836 H 251.788 -3.34511 0.77182 0
M  V30 2837 N 254.233 0.115231 -1.57178 0
M  V30 2838 C 255.163 1.1423 -2.03651 0
M  V30 2839 C 256.144 1.42967 -0.921655 0
M  V30 2840 O 257.329 1.53343 -1.19162 0
M  V30 2841 C 254.459 2.4675 -2.44401 0
M  V30 2842 C 253.413 2.32467 -3.59365 0
M  V30 2843 C 252.739 3.69984 -3.86026 0
M  V30 2844 C 254.039 1.78203 -4.90959 0
M  V30 2845 H 255.733 0.755749 -2.89705 0
M  V30 2846 H 253.279 0.362093 -1.39373 0
M  V30 2847 H 255.232 3.18854 -2.75517 0
M  V30 2848 H 253.956 2.87302 -1.55322 0
M  V30 2849 H 252.615 1.62811 -3.28463 0
M  V30 2850 H 252.263 4.08028 -2.94147 0
M  V30 2851 H 251.963 3.61279 -4.63412 0
M  V30 2852 H 253.487 4.43587 -4.19599 0
M  V30 2853 H 254.901 2.40128 -5.20587 0
M  V30 2854 H 253.298 1.8031 -5.72371 0
M  V30 2855 H 254.368 0.739876 -4.79222 0
M  V30 2856 N 255.711 1.52812 0.385517 0
M  V30 2857 C 256.661 1.74219 1.47078 0
M  V30 2858 C 257.645 0.59632 1.49442 0
M  V30 2859 O 258.837 0.85428 1.5502 0
M  V30 2860 C 255.966 1.9176 2.84751 0
M  V30 2861 C 255.052 3.12289 2.86943 0
M  V30 2862 N 255.443 4.34575 2.58802 0
M  V30 2863 C 253.741 3.12605 3.1811 0
M  V30 2864 C 254.442 5.162 2.68166 0
M  V30 2865 N 253.418 4.51964 3.02043 0
M  V30 2866 H 257.22 2.6639 1.24152 0
M  V30 2867 H 254.734 1.51166 0.593504 0
M  V30 2868 H 256.731 2.05218 3.62893 0
M  V30 2869 H 255.391 1.00805 3.08656 0
M  V30 2870 H 256.402 4.62649 2.32759 0
M  V30 2871 H 253.079 2.31472 3.47458 0
M  V30 2872 H 254.469 6.23689 2.49923 0
M  V30 2873 N 257.189 -0.644168 1.43834 0
M  V30 2874 C 258.6 -1.22554 1.40845 0
M  V30 2875 C 258.951 -1.9585 0.117115 0
M  V30 2876 O 258.076 -2.01734 -0.783086 0
M  V30 2877 C 258.671 -2.22907 2.55143 0
M  V30 2878 C 257.23 -2.76501 2.5539 0
M  V30 2879 C 256.377 -1.51287 2.32396 0
M  V30 2880 H 259.328 -0.43563 1.52604 0
M  V30 2881 H 259.349 -3.05259 2.2715 0
M  V30 2882 H 258.861 -1.69533 3.49114 0
M  V30 2883 H 256.962 -3.33914 1.65324 0
M  V30 2884 H 257.075 -3.23429 3.53455 0
M  V30 2885 H 255.439 -1.78957 1.81236 0
M  V30 2886 H 256.222 -0.998336 3.28463 0
M  V30 2887 N 258.668 -1.30515 -0.883378 0
M  V30 2888 C 259.945 -1.10086 -1.6168 0
M  V30 2889 C 260.325 0.349269 -2.08191 0
M  V30 2890 O 259.673 1.34105 -1.85008 0
M  V30 2891 C 259.883 -2.10315 -2.78511 0
M  V30 2892 C 261.231 -2.42119 -3.48803 0
M  V30 2893 O 262.255 -2.08638 -2.88702 0
M  V30 2894 O 261.114 -2.99396 -4.57192 0
M  V30 2895 H 258.208 -0.422907 -0.710689 0
M  V30 2896 H 260.754 -1.41947 -0.930015 0
M  V30 2897 H 259.526 -3.07917 -2.41459 0
M  V30 2898 H 259.149 -1.79282 -3.54886 0
M  V30 2899 N 260.146 1.09593 -1.13257 0
M  V30 2900 C 261.395 1.81105 -0.887917 0
M  V30 2901 C 261.708 1.86563 0.587672 0
M  V30 2902 O 262.914 2.54367 0.949204 0
M  V30 2903 C 261.37 3.25338 -1.53895 0
M  V30 2904 C 260.978 3.28151 -3.04994 0
M  V30 2905 C 262.722 4.01617 -1.37492 0
M  V30 2906 C 260.629 4.66897 -3.6299 0
M  V30 2907 H 259.559 0.678661 -0.328534 0
M  V30 2908 H 262.21 1.23183 -1.36008 0
M  V30 2909 H 260.592 3.8331 -0.994446 0
M  V30 2910 H 261.766 2.79953 -3.66009 0
M  V30 2911 H 260.081 2.65361 -3.20893 0
M  V30 2912 H 262.678 5.04119 -1.78235 0
M  V30 2913 H 263.021 4.15072 -0.31957 0
M  V30 2914 H 263.554 3.50082 -1.88912 0
M  V30 2915 H 260.293 4.58643 -4.68323 0
M  V30 2916 H 259.813 5.15426 -3.06752 0
M  V30 2917 H 261.492 5.3587 -3.62563 0
M  V30 2918 N 261.624 0.925811 1.2754 0
M  V30 2919 C 262.871 0.565255 1.94451 0
M  V30 2920 C 263.199 -0.89316 1.7278 0
M  V30 2921 O 262.454 -1.65213 1.04895 0
M  V30 2922 C 262.753 0.835296 3.47502 0
M  V30 2923 C 262.419 2.27515 3.89291 0
M  V30 2924 C 261.081 2.66879 4.00411 0
M  V30 2925 C 263.433 3.21158 4.10496 0
M  V30 2926 C 260.761 3.99014 4.30122 0
M  V30 2927 C 263.113 4.52871 4.4169 0
M  V30 2928 C 261.777 4.92072 4.51023 0
M  V30 2929 H 261.047 0.206841 0.711546 0
M  V30 2930 H 263.694 1.16942 1.51647 0
M  V30 2931 H 261.999 0.148442 3.91519 0
M  V30 2932 H 263.696 0.535322 3.97411 0
M  V30 2933 H 260.286 1.95976 3.81171 0
M  V30 2934 H 264.47 2.9195 4.01346 0
M  V30 2935 H 259.726 4.2907 4.35556 0
M  V30 2936 H 263.9 5.25436 4.57045 0
M  V30 2937 H 261.527 5.9449 4.738 0
M  V30 2938 N 263.102 -1.41638 0.69111 0
M  V30 2939 C 264.513 -1.84346 0.295517 0
M  V30 2940 C 264.864 -1.57833 -1.16547 0
M  V30 2941 O 263.989 -1.04648 -1.89414 0
M  V30 2942 C 264.584 -3.34636 0.529575 0
M  V30 2943 C 263.143 -3.7593 0.187944 0
M  V30 2944 C 262.29 -2.65082 0.814052 0
M  V30 2945 H 265.241 -1.31253 0.892092 0
M  V30 2946 H 265.262 -3.79903 -0.213148 0
M  V30 2947 H 264.774 -3.53901 1.59297 0
M  V30 2948 H 262.875 -3.62268 -0.871367 0
M  V30 2949 H 262.988 -4.74808 0.63985 0
M  V30 2950 H 261.352 -2.53528 0.244017 0
M  V30 2951 H 262.135 -2.87167 1.88123 0
M  V30 2952 N 264.58 -0.43555 -1.51462 0
M  V30 2953 C 265.828 0.131254 -2.01673 0
M  V30 2954 C 266.149 1.43368 -1.32177 0
M  V30 2955 O 265.419 1.90524 -0.455769 0
M  V30 2956 H 263.999 0.0514954 -0.745223 0
M  V30 2957 H 266.661 -0.577847 -1.86137 0
M  V30 2958 H 265.757 0.308446 -3.10572 0
M  V30 2959 N 266.058 1.56714 -0.166846 0
M  V30 2960 C 266.988 2.20754 0.760913 0
M  V30 2961 C 267.969 1.16178 1.24244 0
M  V30 2962 O 269.154 1.44592 1.29641 0
M  V30 2963 C 266.284 2.84478 1.99223 0
M  V30 2964 C 265.238 3.95053 1.64672 0
M  V30 2965 C 264.564 4.45805 2.95232 0
M  V30 2966 C 265.864 5.14865 0.878155 0
M  V30 2967 H 267.558 2.98537 0.22713 0
M  V30 2968 H 265.104 1.43596 0.107805 0
M  V30 2969 H 267.057 3.27951 2.64624 0
M  V30 2970 H 265.781 2.04056 2.55007 0
M  V30 2971 H 264.44 3.52228 1.01641 0
M  V30 2972 H 264.088 3.62181 3.49047 0
M  V30 2973 H 263.788 5.204 2.7287 0
M  V30 2974 H 265.312 4.91962 3.6167 0
M  V30 2975 H 266.726 5.55059 1.43466 0
M  V30 2976 H 265.123 5.95348 0.753738 0
M  V30 2977 H 266.193 4.84735 -0.126377 0
M  V30 2978 N 267.536 -0.106894 1.57237 0
M  V30 2979 C 268.952 -0.46078 1.52804 0
M  V30 2980 C 269.152 -1.81184 0.881746 0
M  V30 2981 O 268.208 -2.48102 0.469224 0
M  V30 2982 C 269.521 -0.434127 2.9755 0
M  V30 2983 C 271.069 -0.516821 3.08704 0
M  V30 2984 C 271.544 -0.520436 4.55033 0
M  V30 2985 N 273.035 -0.58153 4.59535 0
M  V30 2986 C 273.77 -0.605973 5.70189 0
M  V30 2987 N 273.266 -0.587331 6.90306 0
M  V30 2988 N 275.059 -0.649895 5.5833 0
M  V30 2989 H 267.21 0.778203 1.9763 0
M  V30 2990 H 269.473 0.288403 0.903066 0
M  V30 2991 H 269.179 0.491197 3.48253 0
M  V30 2992 H 269.053 -1.25748 3.55622 0
M  V30 2993 H 271.44 -1.43256 2.57995 0
M  V30 2994 H 271.521 0.334449 2.53604 0
M  V30 2995 H 271.165 0.391313 5.0639 0
M  V30 2996 H 271.095 -1.38876 5.07958 0
M  V30 2997 H 273.586 -0.60161 3.73081 0
M  V30 2998 H 273.899 -0.60894 7.70397 0
M  V30 2999 H 272.244 -0.554564 6.92784 0
M  V30 3000 H 275.435 -0.661907 4.63397 0
M  V30 3001 H 275.608 -0.665476 6.44574 0
M  V30 3002 N 269.014 -1.53014 -0.377408 0
M  V30 3003 C 269.961 -1.78616 -1.46168 0
M  V30 3004 C 270.931 -0.629917 -1.53692 0
M  V30 3005 O 272.116 -0.870861 -1.69766 0
M  V30 3006 C 269.256 -1.97123 -2.8326 0
M  V30 3007 C 268.369 -3.24831 -2.84796 0
M  V30 3008 C 267.504 -3.33591 -4.13389 0
M  V30 3009 C 266.543 -4.55377 -4.09021 0
M  V30 3010 N 265.68 -4.61355 -5.29241 0
M  V30 3011 H 270.52 -2.71142 -1.23637 0
M  V30 3012 H 268.057 -1.34326 -0.599577 0
M  V30 3013 H 270.015 -2.05839 -3.62886 0
M  V30 3014 H 268.645 -1.07946 -3.04216 0
M  V30 3015 H 267.697 -3.25128 -1.97474 0
M  V30 3016 H 269.009 -4.14523 -2.77439 0
M  V30 3017 H 268.163 -3.41554 -5.01424 0
M  V30 3018 H 266.902 -2.41894 -4.23484 0
M  V30 3019 H 265.907 -4.47527 -3.19373 0
M  V30 3020 H 267.132 -5.48402 -4.00539 0
M  V30 3021 H 265.078 -3.72554 -5.39944 0
M  V30 3022 H 264.995 -5.44935 -5.24006 0
M  V30 3023 H 266.263 -4.73586 -6.19141 0
M  V30 3024 N 270.492 0.636531 -1.44174 0
M  V30 3025 C 271.741 1.39213 -1.45954 0
M  V30 3026 C 272.054 1.95374 -0.0939119 0
M  V30 3027 O 273.26 2.71498 0.0107767 0
M  V30 3028 C 271.716 2.52025 -2.56927 0
M  V30 3029 C 271.324 2.024 -3.99673 0
M  V30 3030 C 273.068 3.29269 -2.67922 0
M  V30 3031 C 270.975 3.12521 -5.0208 0
M  V30 3032 H 269.905 0.523132 -0.542999 0
M  V30 3033 H 272.556 0.685349 -1.70221 0
M  V30 3034 H 270.938 3.25253 -2.25891 0
M  V30 3035 H 272.112 1.36073 -4.40251 0
M  V30 3036 H 270.427 1.37987 -3.92872 0
M  V30 3037 H 273.024 4.11352 -3.41605 0
M  V30 3038 H 273.367 3.78397 -1.73555 0
M  V30 3039 H 273.9 2.63129 -2.98342 0
M  V30 3040 H 270.639 2.68343 -5.98057 0
M  V30 3041 H 270.159 3.77507 -4.66099 0
M  V30 3042 H 271.838 3.77385 -5.25538 0
M  V30 3043 N 271.97 1.30982 0.876444 0
M  V30 3044 C 272.88 1.2003 2.01569 0
M  V30 3045 C 273.896 0.11838 1.73597 0
M  V30 3046 O 275.072 0.33495 1.98595 0
M  V30 3047 C 272.137 0.901637 3.34771 0
M  V30 3048 C 271.198 2.06979 3.76109 0
M  V30 3049 C 270.431 1.78529 5.02954 0
M  V30 3050 O 270.654 0.717296 5.65872 0
M  V30 3051 O 269.588 2.64019 5.40905 0
M  V30 3052 H 273.414 2.15753 2.13739 0
M  V30 3053 H 270.999 1.10658 1.00375 0
M  V30 3054 H 272.881 0.750645 4.1466 0
M  V30 3055 H 271.556 -0.0256141 3.2369 0
M  V30 3056 H 270.463 2.27616 2.96887 0
M  V30 3057 H 271.796 2.97907 3.91807 0
M  V30 3058 N 273.449 -1.08991 1.13837 0
M  V30 3059 C 274.412 -2.13925 0.822715 0
M  V30 3060 C 275.412 -1.599 -0.1699 0
M  V30 3061 O 276.602 -1.74104 0.0577251 0
M  V30 3062 C 273.734 -3.40155 0.225318 0
M  V30 3063 H 274.927 -2.43358 1.75262 0
M  V30 3064 H 272.48 -1.24603 0.943594 0
M  V30 3065 H 273.215 -3.16352 -0.713594 0
M  V30 3066 H 273 -3.80661 0.940193 0
M  V30 3067 H 274.49 -4.17594 0.0214784 0
M  V30 3068 N 274.927 -0.932562 -1.27047 0
M  V30 3069 C 275.837 -0.441219 -2.30414 0
M  V30 3070 C 276.853 0.480525 -1.67233 0
M  V30 3071 O 278.029 0.362151 -1.98117 0
M  V30 3072 C 275.094 0.293651 -3.45454 0
M  V30 3073 C 274.155 -0.663601 -4.2414 0
M  V30 3074 C 273.388 0.0362932 -5.33688 0
M  V30 3075 O 273.611 1.2548 -5.56427 0
M  V30 3076 O 272.545 -0.638015 -5.98509 0
M  V30 3077 H 276.371 -1.29962 -2.74488 0
M  V30 3078 H 273.956 -0.6981 -1.32087 0
M  V30 3079 H 275.838 0.707951 -4.15411 0
M  V30 3080 H 274.513 1.12758 -3.03426 0
M  V30 3081 H 273.42 -1.12768 -3.56699 0
M  V30 3082 H 274.753 -1.46489 -4.69896 0
M  V30 3083 N 276.405 1.4127 -0.698611 0
M  V30 3084 C 277.654 2.00408 -0.227949 0
M  V30 3085 C 277.967 1.55981 1.18023 0
M  V30 3086 O 279.173 2.07699 1.74852 0
M  V30 3087 C 277.629 3.58129 -0.356636 0
M  V30 3088 C 277.237 4.11536 -1.77037 0
M  V30 3089 C 278.981 4.24466 0.0540969 0
M  V30 3090 C 276.888 5.61701 -1.85055 0
M  V30 3091 H 275.818 0.749586 -0.0814657 0
M  V30 3092 H 278.469 1.61713 -0.867249 0
M  V30 3093 H 276.851 3.94442 0.350965 0
M  V30 3094 H 278.025 3.86636 -2.50698 0
M  V30 3095 H 276.34 3.57736 -2.13105 0
M  V30 3096 H 278.937 5.34698 0.0146723 0
M  V30 3097 H 279.28 4.01687 1.09332 0
M  V30 3098 H 279.813 3.93198 -0.603337 0
M  V30 3099 H 276.552 5.89312 -2.8704 0
M  V30 3100 H 276.072 5.88519 -1.15783 0
M  V30 3101 H 277.751 6.26524 -1.61484 0
M  V30 3102 N 277.883 0.443576 1.51229 0
M  V30 3103 C 279.129 -0.120975 2.02439 0
M  V30 3104 C 279.462 -1.41815 1.32674 0
M  V30 3105 O 278.737 -1.89373 0.443622 0
M  V30 3106 C 279.02 -0.333291 3.58554 0
M  V30 3107 C 278.873 0.982968 4.38928 0
M  V30 3108 C 280.192 -1.10028 4.26124 0
M  V30 3109 H 277.311 -0.0424923 0.735774 0
M  V30 3110 H 279.953 0.583794 1.80809 0
M  V30 3111 H 278.103 -0.933614 3.77115 0
M  V30 3112 H 279.775 1.61775 4.32003 0
M  V30 3113 H 278.018 1.58611 4.03763 0
M  V30 3114 H 278.689 0.788379 5.46341 0
M  V30 3115 H 281.165 -0.591711 4.11871 0
M  V30 3116 H 280.041 -1.21761 5.35225 0
M  V30 3117 H 280.302 -2.12996 3.87408 0
M  V30 3118 N 279.361 -1.56624 0.175154 0
M  V30 3119 C 280.777 -1.58571 -0.180966 0
M  V30 3120 C 280.977 -1.19065 -1.6256 0
M  V30 3121 O 280.033 -0.904044 -2.35761 0
M  V30 3122 C 281.346 -3.00522 0.103326 0
M  V30 3123 C 282.894 -3.12972 0.0418426 0
M  V30 3124 C 283.369 -4.57022 0.299175 0
M  V30 3125 N 284.86 -4.62541 0.247086 0
M  V30 3126 C 285.595 -5.71857 0.420318 0
M  V30 3127 N 285.091 -6.89717 0.652816 0
M  V30 3128 N 286.884 -5.60972 0.355957 0
M  V30 3129 H 279.035 -1.80589 1.11809 0
M  V30 3130 H 281.298 -0.837178 0.444788 0
M  V30 3131 H 281.004 -3.33916 1.10422 0
M  V30 3132 H 280.878 -3.72344 -0.603299 0
M  V30 3133 H 283.265 -2.79403 -0.949636 0
M  V30 3134 H 283.346 -2.43578 0.781238 0
M  V30 3135 H 282.99 -4.913 1.28788 0
M  V30 3136 H 282.92 -5.24579 -0.460876 0
M  V30 3137 H 285.411 -3.77829 0.0731895 0
M  V30 3138 H 285.724 -7.68911 0.774347 0
M  V30 3139 H 284.069 -6.91572 0.689476 0
M  V30 3140 H 287.26 -4.67773 0.174882 0
M  V30 3141 H 287.433 -6.46111 0.494388 0
M  V30 3142 N 280.839 0.0985539 -1.57292 0
M  V30 3143 C 282.088 0.801358 -1.85098 0
M  V30 3144 C 282.401 1.80066 -0.763902 0
M  V30 3145 O 283.607 2.55112 -0.928981 0
M  V30 3146 C 282.063 1.47599 -3.28242 0
M  V30 3147 C 281.671 0.516624 -4.45011 0
M  V30 3148 C 283.415 2.16272 -3.65276 0
M  V30 3149 C 281.322 1.19564 -5.79188 0
M  V30 3150 H 280.252 0.303022 -0.69043 0
M  V30 3151 H 282.903 0.0542623 -1.8342 0
M  V30 3152 H 281.285 2.27042 -3.2445 0
M  V30 3153 H 282.459 -0.246065 -4.60143 0
M  V30 3154 H 280.774 -0.064227 -4.1635 0
M  V30 3155 H 283.371 2.67802 -4.62803 0
M  V30 3156 H 283.714 2.95009 -2.93727 0
M  V30 3157 H 284.247 1.43693 -3.70941 0
M  V30 3158 H 280.986 0.449157 -6.53959 0
M  V30 3159 H 280.506 1.92984 -5.67906 0
M  V30 3160 H 282.185 1.7231 -6.23633 0
M  V30 3161 N 282.317 1.53212 0.369288 0
M  V30 3162 C 283.28 1.7872 1.43498 0
M  V30 3163 C 284.28 0.657554 1.46741 0
M  V30 3164 O 285.47 0.925736 1.47566 0
M  V30 3165 C 282.602 1.90591 2.82645 0
M  V30 3166 H 283.795 2.73894 1.22156 0
M  V30 3167 H 281.348 1.44233 0.602203 0
M  V30 3168 H 282.083 0.974709 3.09306 0
M  V30 3169 H 281.868 2.72751 2.8169 0
M  V30 3170 H 283.358 2.11931 3.59826 0
M  V30 3171 N 283.795 -0.628877 1.44509 0
M  V30 3172 C 285.035 -1.39993 1.48934 0
M  V30 3173 C 285.399 -1.91627 0.119604 0
M  V30 3174 O 286.6 -2.68772 0.0385283 0
M  V30 3175 C 284.871 -2.53241 2.52198 0
M  V30 3176 S 286.43 -3.41383 2.75687 0
M  V30 3177 H 283.248 -0.477558 0.526744 0
M  V30 3178 H 285.85 -0.727804 1.81448 0
M  V30 3179 H 284.554 -2.13622 3.50419 0
M  V30 3180 H 284.085 -3.25278 2.21264 0
M  V30 3181 H 286.1 -4.50752 2.07453 0
M  V30 3182 N 285.273 -1.31445 -0.869486 0
M  V30 3183 C 286.498 -1.24256 -1.66058 0
M  V30 3184 C 286.923 0.188928 -1.87149 0
M  V30 3185 O 286.281 1.13522 -1.4136 0
M  V30 3186 C 286.329 -1.9924 -3.00559 0
M  V30 3187 O 285.433 -1.33007 -3.90362 0
M  V30 3188 H 284.774 -0.428973 -0.506831 0
M  V30 3189 H 287.304 -1.73521 -1.08404 0
M  V30 3190 H 287.314 -2.08854 -3.50491 0
M  V30 3191 H 285.989 -3.03342 -2.84528 0
M  V30 3192 H 284.566 -1.31848 -3.48813 0
M  V30 3193 N 286.751 1.08385 -1.14413 0
M  V30 3194 C 287.681 2.17321 -0.854044 0
M  V30 3195 C 288.662 1.69024 0.191049 0
M  V30 3196 O 289.847 1.94141 0.0476779 0
M  V30 3197 C 286.977 3.45719 -0.330983 0
M  V30 3198 C 285.931 4.07409 -1.31155 0
M  V30 3199 C 285.257 5.30762 -0.64778 0
M  V30 3200 C 286.557 4.48665 -2.67388 0
M  V30 3201 H 288.251 2.41845 -1.76498 0
M  V30 3202 H 285.797 1.16233 -0.850051 0
M  V30 3203 H 287.75 4.21241 -0.115645 0
M  V30 3204 H 286.474 3.2075 0.615381 0
M  V30 3205 H 285.133 3.33919 -1.51306 0
M  V30 3206 H 284.781 5.02078 0.304398 0
M  V30 3207 H 284.481 5.72992 -1.30207 0
M  V30 3208 H 286.005 6.08998 -0.441972 0
M  V30 3209 H 287.419 5.15364 -2.51143 0
M  V30 3210 H 285.816 5.01814 -3.29093 0
M  V30 3211 H 286.886 3.60543 -3.24248 0
M  V30 3212 N 288.23 0.939286 1.26551 0
M  V30 3213 C 289.477 0.585847 1.9384 0
M  V30 3214 C 289.805 -0.874784 1.73718 0
M  V30 3215 O 289.06 -1.64092 1.06642 0
M  V30 3216 C 289.359 0.872106 3.46596 0
M  V30 3217 C 289.025 2.31632 3.86856 0
M  V30 3218 C 287.687 2.71111 3.97558 0
M  V30 3219 C 290.039 3.25494 4.07066 0
M  V30 3220 C 287.367 4.03553 4.25866 0
M  V30 3221 C 289.719 4.57531 4.36862 0
M  V30 3222 C 288.383 4.96828 4.45778 0
M  V30 3223 H 287.653 0.214377 0.709312 0
M  V30 3224 H 290.3 1.18544 1.50398 0
M  V30 3225 H 288.605 0.18996 3.91339 0
M  V30 3226 H 290.302 0.577442 3.96821 0
M  V30 3227 H 286.892 2.00008 3.79071 0
M  V30 3228 H 291.076 2.9619 3.98227 0
M  V30 3229 H 286.332 4.33665 4.30981 0
M  V30 3230 H 290.506 5.30254 4.51446 0
M  V30 3231 H 288.133 5.99482 4.67468 0
M  V30 3232 N 289.708 -1.40897 0.706093 0
M  V30 3233 C 290.656 -2.32572 0.0361893 0
M  V30 3234 C 291.65 -1.51532 -0.757266 0
M  V30 3235 O 292.856 -1.67396 -0.661703 0
M  V30 3236 H 289.231 -0.751966 -0.00709935 0
M  V30 3237 H 291.202 -2.86733 0.826249 0
M  V30 3238 C 289.951 -3.36418 -0.87854 0
M  V30 3239 H 289.274 -3.98836 -0.277401 0
M  V30 3240 H 290.714 -4.0308 -1.3154 0
M  V30 3241 C 289.173 -2.71141 -1.99961 0
M  V30 3242 O 289.703 -2.56735 -3.0895 0
M  V30 3243 N 287.909 -2.29671 -1.78043 0
M  V30 3244 H 287.456 -2.41588 -0.894042 0
M  V30 3245 H 287.414 -1.86332 -2.53235 0
M  V30 3246 N 291.186 -0.45159 -1.50991 0
M  V30 3247 C 292.434 0.109857 -2.01801 0
M  V30 3248 C 292.755 1.41958 -1.3369 0
M  V30 3249 O 292.025 1.9003 -0.475951 0
M  V30 3250 H 290.605 0.0435884 -0.745727 0
M  V30 3251 H 293.267 -0.597557 -1.85514 0
M  V30 3252 H 292.363 0.275489 -3.10882 0
M  V30 3253 N 292.664 1.56529 -0.183458 0
M  V30 3254 C 293.912 1.96855 0.457452 0
M  V30 3255 C 294.233 1.07104 1.62953 0
M  V30 3256 O 293.503 0.139887 1.954 0
M  V30 3257 H 292.083 0.72693 0.171992 0
M  V30 3258 H 294.745 1.93056 -0.267476 0
M  V30 3259 H 293.841 3.01423 0.809368 0
M  V30 3260 N 294.142 -0.090211 1.57342 0
M  V30 3261 C 295.553 -0.644173 1.75235 0
M  V30 3262 C 295.904 -1.78865 0.806335 0
M  V30 3263 O 295.029 -2.16395 -0.0140128 0
M  V30 3264 C 295.624 -1.17532 3.1776 0
M  V30 3265 C 294.183 -1.67531 3.37061 0
M  V30 3266 C 293.33 -0.58693 2.71017 0
M  V30 3267 H 296.281 0.135884 1.58117 0
M  V30 3268 H 296.302 -2.04455 3.20902 0
M  V30 3269 H 295.814 -0.342138 3.86589 0
M  V30 3270 H 293.915 -2.53234 2.73319 0
M  V30 3271 H 294.028 -1.76493 4.45406 0
M  V30 3272 H 292.392 -1.02756 2.33052 0
M  V30 3273 H 293.175 0.235758 3.4249 0
M  V30 3274 N 295.62 -1.53406 -0.361157 0
M  V30 3275 C 296.897 -1.60411 -1.11927 0
M  V30 3276 C 297.277 -0.414385 -2.06993 0
M  V30 3277 O 296.625 0.594976 -2.20618 0
M  V30 3278 C 296.835 -2.95652 -1.85448 0
M  V30 3279 C 298.183 -3.50386 -2.39823 0
M  V30 3280 O 299.207 -2.97711 -1.95568 0
M  V30 3281 O 298.066 -4.42482 -3.20737 0
M  V30 3282 H 295.16 -0.64811 -0.513695 0
M  V30 3283 H 297.706 -1.65749 -0.364065 0
M  V30 3284 H 296.478 -3.73682 -1.16091 0
M  V30 3285 H 296.101 -2.93825 -2.67866 0
M  V30 3286 N 297.098 0.621204 -1.44841 0
M  V30 3287 C 298.323 1.41244 -1.51871 0
M  V30 3288 C 298.748 1.87519 -0.147764 0
M  V30 3289 O 298.106 1.59334 0.865 0
M  V30 3290 C 298.154 2.60221 -2.49634 0
M  V30 3291 O 297.258 3.60395 -2.00473 0
M  V30 3292 H 296.599 0.42223 -0.512463 0
M  V30 3293 H 299.129 0.757305 -1.90069 0
M  V30 3294 H 299.139 3.0764 -2.67996 0
M  V30 3295 H 297.814 2.25887 -3.4921 0
M  V30 3296 H 296.391 3.19717 -1.91925 0
M  V30 3297 N 298.576 1.31904 0.862503 0
M  V30 3298 C 299.816 1.23324 1.63004 0
M  V30 3299 C 300.18 -0.203724 1.90916 0
M  V30 3300 O 301.381 -0.413132 2.65606 0
M  V30 3301 C 299.652 2.06116 2.91978 0
M  V30 3302 S 301.211 2.14478 3.82812 0
M  V30 3303 H 298.029 0.439117 0.559193 0
M  V30 3304 H 300.631 1.66658 1.02202 0
M  V30 3305 H 299.335 3.09593 2.69407 0
M  V30 3306 H 298.866 1.6353 3.57801 0
M  V30 3307 H 300.881 1.28855 4.79177 0
M  V30 3308 N 300.054 -1.07777 1.14986 0
M  V30 3309 C 301.302 -1.79934 0.920235 0
M  V30 3310 C 301.623 -1.86955 -0.554336 0
M  V30 3311 O 300.893 -1.36731 -1.40291 0
M  V30 3312 H 299.473 -0.666424 0.337473 0
M  V30 3313 H 302.135 -1.3027 1.44968 0
M  V30 3314 H 301.231 -2.82539 1.32583 0
M  V30 3315 N 301.532 -0.945985 -1.26051 0
M  V30 3316 C 302.772 -0.603665 -1.95282 0
M  V30 3317 C 303.136 0.842377 -1.72534 0
M  V30 3318 O 304.337 1.29387 -2.35611 0
M  V30 3319 C 302.608 -0.942292 -3.44754 0
M  V30 3320 S 304.167 -0.711242 -4.32997 0
M  V30 3321 H 300.985 -0.222176 -0.675395 0
M  V30 3322 H 303.587 -1.21832 -1.52896 0
M  V30 3323 H 302.291 -1.99203 -3.58812 0
M  V30 3324 H 301.822 -0.317546 -3.92116 0
M  V30 3325 H 303.837 0.422221 -4.944 0
M  V30 3326 N 303.011 1.40521 -0.713556 0
M  V30 3327 C 304.257 2.01221 -0.252564 0
M  V30 3328 C 304.59 1.56444 1.1506 0
M  V30 3329 O 303.865 0.783597 1.78017 0
M  V30 3330 C 304.148 3.58582 -0.330332 0
M  V30 3331 C 304.001 4.13437 -1.77173 0
M  V30 3332 C 305.32 4.39079 0.299641 0
M  V30 3333 H 302.439 0.731077 -0.0932471 0
M  V30 3334 H 305.081 1.67026 -0.905673 0
M  V30 3335 H 303.231 3.87844 0.225737 0
M  V30 3336 H 304.903 3.9498 -2.38303 0
M  V30 3337 H 303.146 3.67801 -2.3001 0
M  V30 3338 H 303.817 5.22597 -1.77755 0
M  V30 3339 H 306.293 4.15735 -0.174139 0
M  V30 3340 H 305.169 5.4848 0.214771 0
M  V30 3341 H 305.43 4.19915 1.38288 0
M  V30 3342 N 304.489 0.459591 1.5075 0
M  V30 3343 C 305.717 -0.0973749 2.06671 0
M  V30 3344 C 306.132 -1.34524 1.32472 0
M  V30 3345 O 305.489 -1.7827 0.390634 0
M  V30 3346 C 305.54 -0.39714 3.59312 0
M  V30 3347 O 305.261 0.801214 4.30711 0
M  V30 3348 C 306.762 -1.00234 4.31819 0
M  V30 3349 H 303.982 0.00195854 0.670997 0
M  V30 3350 H 306.526 0.645072 1.94059 0
M  V30 3351 H 304.681 -1.08951 3.71764 0
M  V30 3352 H 305.095 0.538857 5.21725 0
M  V30 3353 H 306.569 -1.16193 5.39632 0
M  V30 3354 H 307.046 -1.98939 3.91561 0
M  V30 3355 H 307.652 -0.348699 4.23868 0
M  V30 3356 N 305.967 -1.56429 0.191757 0
M  V30 3357 C 307.192 -2.02309 -0.456706 0
M  V30 3358 C 307.617 -1.07103 -1.5463 0
M  V30 3359 O 306.975 -0.0539677 -1.8122 0
M  V30 3360 C 307.023 -3.46654 -0.993159 0
M  V30 3361 O 306.127 -3.54559 -2.10622 0
M  V30 3362 H 305.468 -0.655303 -0.107114 0
M  V30 3363 H 307.998 -2.02364 0.301653 0
M  V30 3364 H 308.008 -3.86377 -1.31061 0
M  V30 3365 H 306.683 -4.1544 -0.195504 0
M  V30 3366 H 305.26 -3.26708 -1.79767 0
M  V30 3367 N 307.445 0.0818655 -1.57387 0
M  V30 3368 C 308.693 0.781368 -1.86384 0
M  V30 3369 C 309.014 1.78618 -0.782342 0
M  V30 3370 O 308.284 1.94976 0.190061 0
M  V30 3371 H 306.864 0.291562 -0.687751 0
M  V30 3372 H 309.526 0.060348 -1.94807 0
M  V30 3373 H 308.622 1.3038 -2.83562 0
M  V30 3374 N 308.923 1.53595 0.353017 0
M  V30 3375 C 310.171 1.70049 1.09215 0
M  V30 3376 C 310.492 0.461406 1.89463 0
M  V30 3377 O 309.762 -0.524633 1.88744 0
M  V30 3378 H 308.342 0.626912 0.40619 0
M  V30 3379 H 311.004 1.90822 0.396585 0
M  V30 3380 H 310.1 2.56718 1.77488 0
M  V30 3381 N 310.401 -0.613514 1.45168 0
M  V30 3382 C 311.629 -1.39946 1.5239 0
M  V30 3383 C 312.044 -1.88167 0.154531 0
M  V30 3384 O 311.401 -1.61872 -0.842843 0
M  V30 3385 C 311.452 -2.60795 2.50337 0
M  V30 3386 O 311.173 -2.1458 3.81952 0
M  V30 3387 C 312.674 -3.53723 2.67198 0
M  V30 3388 H 309.894 -0.428593 0.516284 0
M  V30 3389 H 312.438 -0.748753 1.903 0
M  V30 3390 H 310.593 -3.21919 2.15515 0
M  V30 3391 H 311.007 -2.93055 4.34993 0
M  V30 3392 H 312.481 -4.35079 3.39721 0
M  V30 3393 H 312.958 -4.0368 1.73029 0
M  V30 3394 H 313.564 -2.98456 3.02992 0
M  V30 3395 N 311.879 -1.3236 -0.855495 0
M  V30 3396 C 312.789 -1.23221 -1.99634 0
M  V30 3397 C 313.805 -0.145983 -1.73387 0
M  V30 3398 O 314.981 -0.366502 -1.98037 0
M  V30 3399 C 312.046 -0.954782 -3.33294 0
M  V30 3400 C 311.107 -2.12937 -3.72769 0
M  V30 3401 C 310.34 -1.86508 -5.00051 0
M  V30 3402 O 310.563 -0.807231 -5.64659 0
M  V30 3403 O 309.497 -2.72591 -5.36636 0
M  V30 3404 H 313.323 -2.19126 -2.1028 0
M  V30 3405 H 310.908 -1.12241 -0.986018 0
M  V30 3406 H 312.79 -0.816519 -4.13414 0
M  V30 3407 H 311.465 -0.0258854 -3.2369 0
M  V30 3408 H 310.372 -2.3231 -2.93228 0
M  V30 3409 H 311.705 -3.04102 -3.87018 0
M  V30 3410 N 313.357 1.07166 -1.15556 0
M  V30 3411 C 314.582 1.84053 -0.955988 0
M  V30 3412 C 315.007 1.81586 0.490739 0
M  V30 3413 O 314.365 1.21018 1.34997 0
M  V30 3414 C 314.413 3.28957 -1.47714 0
M  V30 3415 O 313.517 4.06795 -0.677593 0
M  V30 3416 H 312.858 0.569842 -0.340847 0
M  V30 3417 H 315.388 1.35178 -1.53584 0
M  V30 3418 H 315.398 3.79788 -1.4908 0
M  V30 3419 H 314.073 3.30068 -2.53037 0
M  V30 3420 H 312.65 3.6561 -0.733721 0
M  V30 3421 N 314.835 0.952656 1.25548 0
M  V30 3422 C 316.084 0.602053 1.92505 0
M  V30 3423 C 316.397 -0.864663 1.75451 0
M  V30 3424 O 317.603 -1.32514 2.36965 0
M  V30 3425 C 316.059 1.02607 3.44963 0
M  V30 3426 C 315.667 2.51519 3.70732 0
M  V30 3427 C 317.411 0.747905 4.1786 0
M  V30 3428 C 315.318 2.87732 5.16686 0
M  V30 3429 H 314.248 0.22146 0.720744 0
M  V30 3430 H 316.899 1.15684 1.42441 0
M  V30 3431 H 315.281 0.399712 3.93978 0
M  V30 3432 H 316.455 3.19157 3.32378 0
M  V30 3433 H 314.77 2.76786 3.11092 0
M  V30 3434 H 317.367 0.994647 5.25367 0
M  V30 3435 H 317.71 -0.315629 4.15102 0
M  V30 3436 H 318.243 1.33452 3.74747 0
M  V30 3437 H 314.982 3.93095 5.24554 0
M  V30 3438 H 314.502 2.24765 5.56094 0
M  V30 3439 H 316.181 2.76817 5.84792 0
M  V30 3440 N 316.313 -1.40141 0.720998 0
M  V30 3441 C 317.243 -2.33339 0.0867621 0
M  V30 3442 C 318.224 -1.53178 -0.739622 0
M  V30 3443 O 319.409 -1.81625 -0.687449 0
M  V30 3444 C 316.539 -3.37194 -0.831728 0
M  V30 3445 C 315.493 -4.27857 -0.110558 0
M  V30 3446 C 314.819 -5.22294 -1.14513 0
M  V30 3447 C 316.119 -5.11872 1.0385 0
M  V30 3448 H 317.813 -2.86626 0.865219 0
M  V30 3449 H 315.359 -1.37814 0.417516 0
M  V30 3450 H 317.312 -4.01335 -1.28485 0
M  V30 3451 H 316.036 -2.82314 -1.64214 0
M  V30 3452 H 314.695 -3.65176 0.322797 0
M  V30 3453 H 314.343 -4.63717 -1.94874 0
M  V30 3454 H 314.043 -5.83797 -0.667446 0
M  V30 3455 H 315.567 -5.89312 -1.59824 0
M  V30 3456 H 316.981 -5.69436 0.664482 0
M  V30 3457 H 315.378 -5.82445 1.4449 0
M  V30 3458 H 316.448 -4.4753 1.86668 0
M  V30 3459 N 317.792 -0.46758 -1.50504 0
M  V30 3460 C 318.725 0.374324 -2.25109 0
M  V30 3461 C 319.703 0.99921 -1.28275 0
M  V30 3462 O 320.887 1.03583 -1.57489 0
M  V30 3463 C 318.014 1.52419 -3.02467 0
M  V30 3464 C 317.06 1.01702 -4.14197 0
M  V30 3465 S 317.893 -0.0654477 -5.3546 0
M  V30 3466 C 319.049 1.08837 -6.16365 0
M  V30 3467 H 319.282 -0.258983 -2.9617 0
M  V30 3468 H 316.815 -0.252421 -1.52323 0
M  V30 3469 H 318.773 2.18322 -3.47628 0
M  V30 3470 H 317.434 2.129 -2.30938 0
M  V30 3471 H 316.627 1.87776 -4.67714 0
M  V30 3472 H 316.229 0.435757 -3.71453 0
M  V30 3473 H 318.521 2.00071 -6.47285 0
M  V30 3474 H 319.464 0.592538 -7.05616 0
M  V30 3475 H 319.872 1.34061 -5.4835 0
M  V30 3476 N 319.27 1.56325 -0.20005 0
M  V30 3477 C 320.233 2.18084 0.705132 0
M  V30 3478 C 321.233 1.13666 1.1374 0
M  V30 3479 O 322.423 1.39023 1.04968 0
M  V30 3480 C 319.555 2.78689 1.96329 0
M  V30 3481 H 320.748 2.99435 0.167023 0
M  V30 3482 H 318.301 1.56221 0.0495725 0
M  V30 3483 H 319.036 2.0115 2.5438 0
M  V30 3484 H 318.821 3.55133 1.66202 0
M  V30 3485 H 320.311 3.26096 2.60866 0
M  V30 3486 N 320.748 -0.0735177 1.57428 0
M  V30 3487 C 321.988 -0.778363 1.89 0
M  V30 3488 C 322.352 -1.7483 0.793634 0
M  V30 3489 O 323.553 -2.49811 0.992367 0
M  V30 3490 C 321.824 -1.46929 3.25802 0
M  V30 3491 S 323.383 -2.20943 3.79117 0
M  V30 3492 H 320.201 -0.258874 0.662197 0
M  V30 3493 H 322.803 -0.0345338 1.95469 0
M  V30 3494 H 321.507 -0.749532 4.03497 0
M  V30 3495 H 321.038 -2.25258 3.22525 0
M  V30 3496 H 323.053 -3.47435 3.54265 0
M  V30 3497 N 322.226 -1.5378 -0.344866 0
M  V30 3498 C 323.173 -1.81676 -1.42346 0
M  V30 3499 C 324.143 -0.662376 -1.52321 0
M  V30 3500 O 325.328 -0.906675 -1.67881 0
M  V30 3501 C 322.468 -2.03087 -2.79015 0
M  V30 3502 C 321.581 -3.30799 -2.77842 0
M  V30 3503 C 320.716 -3.42285 -4.0622 0
M  V30 3504 C 319.755 -4.6395 -3.9927 0
M  V30 3505 N 318.892 -4.72477 -5.19336 0
M  V30 3506 H 323.732 -2.73703 -1.17858 0
M  V30 3507 H 321.269 -1.35568 -0.570949 0
M  V30 3508 H 323.227 -2.1349 -3.58438 0
M  V30 3509 H 321.857 -1.14375 -3.01858 0
M  V30 3510 H 320.909 -3.29244 -1.90533 0
M  V30 3511 H 322.221 -4.20314 -2.68584 0
M  V30 3512 H 321.375 -3.52113 -4.94066 0
M  V30 3513 H 320.114 -2.50823 -4.18258 0
M  V30 3514 H 319.119 -4.54201 -3.09809 0
M  V30 3515 H 320.344 -5.56775 -3.88817 0
M  V30 3516 H 318.29 -3.83924 -5.3192 0
M  V30 3517 H 318.207 -5.55927 -5.12329 0
M  V30 3518 H 319.475 -4.86613 -6.08957 0
M  V30 3519 N 323.704 0.605807 -1.45491 0
M  V30 3520 C 324.667 1.69836 -1.5391 0
M  V30 3521 C 325.667 1.55261 -0.418424 0
M  V30 3522 O 326.857 1.60296 -0.681965 0
M  V30 3523 C 323.989 3.09117 -1.43734 0
M  V30 3524 H 325.182 1.63738 -2.51257 0
M  V30 3525 H 322.735 0.821689 -1.32959 0
M  V30 3526 H 323.47 3.20791 -0.475788 0
M  V30 3527 H 323.255 3.21104 -2.25021 0
M  V30 3528 H 324.745 3.88696 -1.52661 0
M  V30 3529 N 325.182 1.32811 0.848464 0
M  V30 3530 C 326.412 1.26556 1.63301 0
M  V30 3531 C 326.82 -0.1676 1.88456 0
M  V30 3532 O 326.163 -1.11713 1.45828 0
M  V30 3533 C 326.225 1.96202 3.01239 0
M  V30 3534 C 325.889 3.45528 2.99098 0
M  V30 3535 C 326.886 4.40903 2.75501 0
M  V30 3536 C 324.571 3.87558 3.19537 0
M  V30 3537 C 326.565 5.76282 2.72356 0
M  V30 3538 C 324.252 5.23044 3.16019 0
M  V30 3539 C 325.25 6.17217 2.92458 0
M  V30 3540 O 324.938 7.50223 2.88825 0
M  V30 3541 H 324.67 0.43771 0.515156 0
M  V30 3542 H 327.224 1.7559 1.0657 0
M  V30 3543 H 325.454 1.41746 3.59785 0
M  V30 3544 H 327.143 1.83573 3.62016 0
M  V30 3545 H 327.909 4.09756 2.5947 0
M  V30 3546 H 323.788 3.14674 3.369 0
M  V30 3547 H 327.332 6.4976 2.53886 0
M  V30 3548 H 323.229 5.53818 3.31596 0
M  V30 3549 H 323.997 7.59657 3.04735 0
M  V30 3550 N 326.66 -1.06551 1.16123 0
M  V30 3551 C 328.076 -1.3142 0.905585 0
M  V30 3552 C 328.276 -1.96571 -0.442964 0
M  V30 3553 O 327.332 -2.23068 -1.18308 0
M  V30 3554 C 328.645 -2.19741 2.05267 0
M  V30 3555 C 330.193 -2.33165 2.08813 0
M  V30 3556 C 330.668 -3.24838 3.22868 0
M  V30 3557 N 332.159 -3.32421 3.22568 0
M  V30 3558 C 332.894 -4.0344 4.0746 0
M  V30 3559 N 332.39 -4.77003 5.02434 0
M  V30 3560 N 334.183 -3.99464 3.95456 0
M  V30 3561 H 326.334 -0.626548 2.02949 0
M  V30 3562 H 328.597 -0.338777 0.8854 0
M  V30 3563 H 328.303 -1.79142 3.02657 0
M  V30 3564 H 328.177 -3.20313 1.99198 0
M  V30 3565 H 330.564 -2.73013 1.12018 0
M  V30 3566 H 330.645 -1.3227 2.18948 0
M  V30 3567 H 330.289 -2.85708 4.19921 0
M  V30 3568 H 330.219 -4.25707 3.0997 0
M  V30 3569 H 332.71 -2.79994 2.53795 0
M  V30 3570 H 333.023 -5.28712 5.63634 0
M  V30 3571 H 331.368 -4.75992 5.06415 0
M  V30 3572 H 334.559 -3.4111 3.20564 0
M  V30 3573 H 334.732 -4.54544 4.61837 0
M  V30 3574 N 328.138 -0.959301 -1.25041 0
M  V30 3575 C 329.415 -0.533805 -1.88175 0
M  V30 3576 C 329.795 0.988994 -1.865 0
M  V30 3577 O 329.143 1.85677 -1.33177 0
M  V30 3578 C 329.353 -1.11575 -3.30684 0
M  V30 3579 C 330.701 -1.19548 -4.07423 0
M  V30 3580 O 331.725 -1.06765 -3.39823 0
M  V30 3581 O 330.584 -1.39656 -5.28354 0
M  V30 3582 H 327.678 -0.176772 -0.807887 0
M  V30 3583 H 330.224 -1.05303 -1.33076 0
M  V30 3584 H 328.996 -2.15884 -3.26358 0
M  V30 3585 H 328.619 -0.580059 -3.93346 0
M  V30 3586 N 329.616 1.39756 -0.72842 0
M  V30 3587 C 330.546 2.33289 -0.0991354 0
M  V30 3588 C 331.527 1.53568 0.731489 0
M  V30 3589 O 332.712 1.81987 0.677807 0
M  V30 3590 C 329.842 3.3763 0.813834 0
M  V30 3591 C 328.796 4.2791 0.0878663 0
M  V30 3592 C 328.122 5.22894 1.11741 0
M  V30 3593 C 329.422 5.11314 -1.06563 0
M  V30 3594 H 331.116 2.86163 -0.880408 0
M  V30 3595 H 328.662 1.37591 -0.424819 0
M  V30 3596 H 330.615 4.0201 1.26355 0
M  V30 3597 H 329.339 2.83181 1.62715 0
M  V30 3598 H 327.998 3.65 -0.342159 0
M  V30 3599 H 327.646 4.64744 1.92412 0
M  V30 3600 H 327.346 5.84143 0.636477 0
M  V30 3601 H 328.87 5.90151 1.56697 0
M  V30 3602 H 330.284 5.69076 -0.694671 0
M  V30 3603 H 328.681 5.81671 -1.47577 0
M  V30 3604 H 329.751 4.46534 -1.89038 0
M  V30 3605 N 331.094 0.475555 1.50254 0
M  V30 3606 C 332.057 -0.305016 2.27161 0
M  V30 3607 C 333.057 -0.916519 1.32123 0
M  V30 3608 O 334.247 -0.785003 1.5551 0
M  V30 3609 C 331.379 -1.43496 3.09227 0
M  V30 3610 H 332.572 0.369511 2.97615 0
M  V30 3611 H 330.125 0.229747 1.54602 0
M  V30 3612 H 330.86 -2.14441 2.43281 0
M  V30 3613 H 330.645 -1.00223 3.79075 0
M  V30 3614 H 332.135 -1.98548 3.67381 0
M  V30 3615 N 332.573 -1.56217 0.208337 0
M  V30 3616 C 333.82 -1.97949 -0.42692 0
M  V30 3617 C 334.148 -1.09562 -1.60706 0
M  V30 3618 O 333.403 -0.137616 -1.95216 0
M  V30 3619 C 333.702 -3.45441 -0.916797 0
M  V30 3620 C 333.368 -4.50646 0.151391 0
M  V30 3621 C 332.03 -4.79139 0.444867 0
M  V30 3622 C 334.382 -5.13811 0.874492 0
M  V30 3623 C 331.71 -5.68084 1.46619 0
M  V30 3624 C 334.062 -6.03861 1.88506 0
M  V30 3625 C 332.726 -6.30704 2.18559 0
M  V30 3626 H 331.996 -0.724345 -0.156221 0
M  V30 3627 H 334.643 -1.89006 0.308084 0
M  V30 3628 H 332.948 -3.51521 -1.73032 0
M  V30 3629 H 334.645 -3.75094 -1.41794 0
M  V30 3630 H 331.235 -4.28511 -0.0875068 0
M  V30 3631 H 335.419 -4.91879 0.660996 0
M  V30 3632 H 330.675 -5.87151 1.7048 0
M  V30 3633 H 334.849 -6.51861 2.45051 0
M  V30 3634 H 332.476 -6.99424 2.97843 0
M  V30 3635 N 334.051 0.0651679 -1.57465 0
M  V30 3636 C 334.961 1.09448 -2.07505 0
M  V30 3637 C 335.977 1.41974 -1.00595 0
M  V30 3638 O 337.153 1.52018 -1.32107 0
M  V30 3639 C 334.218 2.38689 -2.51453 0
M  V30 3640 C 333.279 2.13073 -3.72691 0
M  V30 3641 C 332.512 3.36152 -4.14533 0
M  V30 3642 O 332.735 4.45517 -3.56189 0
M  V30 3643 O 331.669 3.23974 -5.07272 0
M  V30 3644 H 335.495 0.69935 -2.95538 0
M  V30 3645 H 333.08 0.279752 -1.46757 0
M  V30 3646 H 334.962 3.14736 -2.80212 0
M  V30 3647 H 333.637 2.77568 -1.66546 0
M  V30 3648 H 332.544 1.34709 -3.49005 0
M  V30 3649 H 333.877 1.79071 -4.5847 0
M  V30 3650 N 335.529 1.53961 0.336706 0
M  V30 3651 C 336.476 1.82428 1.41381 0
M  V30 3652 C 337.446 0.670444 1.51968 0
M  V30 3653 O 338.631 0.915565 1.67398 0
M  V30 3654 C 335.771 2.04564 2.77934 0
M  V30 3655 C 334.884 3.32267 2.76084 0
M  V30 3656 C 334.019 3.44434 4.04399 0
M  V30 3657 C 333.058 4.66061 3.96804 0
M  V30 3658 N 332.195 4.75224 5.16823 0
M  V30 3659 H 337.035 2.74324 1.16405 0
M  V30 3660 H 334.572 1.35869 0.563752 0
M  V30 3661 H 336.53 2.15388 3.57301 0
M  V30 3662 H 335.16 1.15974 3.01247 0
M  V30 3663 H 334.212 3.3025 1.88784 0
M  V30 3664 H 335.524 4.21733 2.66351 0
M  V30 3665 H 334.678 3.54728 4.92192 0
M  V30 3666 H 333.417 2.53037 4.16921 0
M  V30 3667 H 332.422 4.55838 3.07396 0
M  V30 3668 H 333.647 5.58829 3.85858 0
M  V30 3669 H 331.593 3.86739 5.29876 0
M  V30 3670 H 331.51 5.58636 5.09374 0
M  V30 3671 H 332.778 4.89835 6.06367 0
M  V30 3672 N 337.007 -0.598083 1.45811 0
M  V30 3673 C 338.255 -1.35413 1.50026 0
M  V30 3674 C 338.576 -1.94444 0.147177 0
M  V30 3675 O 337.846 -1.77701 -0.824571 0
M  V30 3676 H 336.426 -0.502727 0.552517 0
M  V30 3677 H 339.088 -0.701606 1.81834 0
M  V30 3678 H 338.184 -2.16871 2.2444 0
M  V30 3679 N 338.485 -1.33259 -0.841409 0
M  V30 3680 C 339.734 -1.23921 -1.59143 0
M  V30 3681 C 340.047 0.1941 -1.94635 0
M  V30 3682 O 341.253 0.409474 -2.68394 0
M  V30 3683 C 339.709 -2.17119 -2.87032 0
M  V30 3684 C 339.317 -3.65606 -2.58914 0
M  V30 3685 C 341.061 -2.16648 -3.65053 0
M  V30 3686 C 338.968 -4.50726 -3.82884 0
M  V30 3687 H 337.898 -0.460264 -0.597221 0
M  V30 3688 H 340.549 -1.58307 -0.927959 0
M  V30 3689 H 338.931 -1.75663 -3.54906 0
M  V30 3690 H 340.105 -4.15487 -1.99267 0
M  V30 3691 H 338.42 -3.68341 -1.942 0
M  V30 3692 H 341.017 -2.77474 -4.57069 0
M  V30 3693 H 341.36 -1.16088 -3.99787 0
M  V30 3694 H 341.893 -2.56453 -3.041 0
M  V30 3695 H 338.632 -5.52151 -3.53283 0
M  V30 3696 H 338.152 -4.0559 -4.41879 0
M  V30 3697 H 339.831 -4.64401 -4.50489 0
M  V30 3698 N 339.963 1.05934 -1.16686 0
M  V30 3699 C 340.91 2.13499 -0.876748 0
M  V30 3700 C 341.88 1.65162 0.176299 0
M  V30 3701 O 343.065 1.90757 0.0407143 0
M  V30 3702 C 340.205 3.42912 -0.387967 0
M  V30 3703 C 339.318 4.04964 -1.50426 0
M  V30 3704 C 338.453 5.22266 -0.970125 0
M  V30 3705 C 337.492 5.76309 -2.06238 0
M  V30 3706 N 336.629 6.84922 -1.54356 0
M  V30 3707 H 341.469 2.37654 -1.7979 0
M  V30 3708 H 339.006 1.16598 -0.896843 0
M  V30 3709 H 340.964 4.17111 -0.086186 0
M  V30 3710 H 339.594 3.18963 0.496235 0
M  V30 3711 H 338.646 3.28277 -1.92193 0
M  V30 3712 H 339.958 4.41122 -2.32836 0
M  V30 3713 H 339.112 6.03506 -0.621743 0
M  V30 3714 H 337.851 4.87564 -0.115377 0
M  V30 3715 H 336.856 4.93704 -2.41942 0
M  V30 3716 H 338.081 6.13062 -2.92115 0
M  V30 3717 H 336.027 6.52131 -0.711406 0
M  V30 3718 H 335.944 7.20043 -2.30379 0
M  V30 3719 H 337.212 7.69832 -1.22387 0
M  V30 3720 N 341.441 0.965919 1.2453 0
M  V30 3721 C 342.669 0.644385 1.96609 0
M  V30 3722 C 343.084 -0.785823 1.71669 0
M  V30 3723 O 342.441 -1.52703 0.999399 0
M  V30 3724 C 342.492 0.907375 3.49927 0
M  V30 3725 O 342.213 2.28136 3.74013 0
M  V30 3726 C 343.714 0.599784 4.39224 0
M  V30 3727 H 340.934 0.240588 0.626385 0
M  V30 3728 H 343.478 1.29337 1.58405 0
M  V30 3729 H 341.633 0.304631 3.862 0
M  V30 3730 H 342.047 2.36002 4.68405 0
M  V30 3731 H 343.521 0.834263 5.45659 0
M  V30 3732 H 343.998 -0.465921 4.36722 0
M  V30 3733 H 344.604 1.18235 4.08535 0
M  V30 3734 N 342.919 -1.39368 0.735821 0
M  V30 3735 C 344.33 -1.83313 0.354015 0
M  V30 3736 C 344.681 -1.61461 -1.11466 0
M  V30 3737 O 343.806 -1.10621 -1.85989 0
M  V30 3738 C 344.401 -3.32781 0.635769 0
M  V30 3739 C 342.96 -3.75142 0.307448 0
M  V30 3740 C 342.107 -2.62358 0.897974 0
M  V30 3741 H 345.058 -1.28349 0.933398 0
M  V30 3742 H 345.079 -3.80388 -0.0921773 0
M  V30 3743 H 344.591 -3.48654 1.70476 0
M  V30 3744 H 342.692 -3.64857 -0.755674 0
M  V30 3745 H 342.805 -4.72532 0.790583 0
M  V30 3746 H 341.169 -2.52624 0.324551 0
M  V30 3747 H 341.952 -2.81036 1.97164 0
M  V30 3748 N 344.397 -0.483516 -1.5 0
M  V30 3749 C 345.307 0.309172 -2.32554 0
M  V30 3750 C 346.323 0.984159 -1.43493 0
M  V30 3751 O 347.499 0.969399 -1.76535 0
M  V30 3752 C 344.564 1.36979 -3.18493 0
M  V30 3753 C 343.625 0.710095 -4.23387 0
M  V30 3754 C 342.858 1.72018 -5.05218 0
M  V30 3755 O 343.081 2.94813 -4.88305 0
M  V30 3756 O 342.015 1.28515 -5.8802 0
M  V30 3757 H 345.841 -0.366064 -3.01486 0
M  V30 3758 H 343.426 -0.24514 -1.47375 0
M  V30 3759 H 345.308 1.98385 -3.71781 0
M  V30 3760 H 343.983 2.02828 -2.52275 0
M  V30 3761 H 342.89 0.0567539 -3.74057 0
M  V30 3762 H 344.223 0.0943557 -4.9211 0
M  V30 3763 N 345.875 1.56104 -0.216619 0
M  V30 3764 C 347.124 1.97348 0.416744 0
M  V30 3765 C 347.437 1.10715 1.6125 0
M  V30 3766 O 348.643 1.41836 2.31506 0
M  V30 3767 C 347.099 3.51059 0.792835 0
M  V30 3768 C 346.707 4.46387 -0.379828 0
M  V30 3769 C 348.451 4.01026 1.39208 0
M  V30 3770 C 346.358 5.91397 0.0184223 0
M  V30 3771 H 345.288 0.736942 0.159475 0
M  V30 3772 H 347.939 1.80827 -0.31205 0
M  V30 3773 H 346.321 3.63162 1.57891 0
M  V30 3774 H 347.495 4.46029 -1.15737 0
M  V30 3775 H 345.81 4.06734 -0.891979 0
M  V30 3776 H 348.407 5.0686 1.70286 0
M  V30 3777 H 348.75 3.46587 2.30614 0
M  V30 3778 H 349.283 3.92125 0.669537 0
M  V30 3779 H 346.022 6.49807 -0.862002 0
M  V30 3780 H 345.542 5.94961 0.760384 0
M  V30 3781 H 347.221 6.45455 0.446818 0
M  V30 3782 N 347.353 -0.0568162 1.57498 0
M  V30 3783 C 348.599 -0.75422 1.88253 0
M  V30 3784 C 348.932 -1.76461 0.810865 0
M  V30 3785 O 348.207 -1.93691 -0.177259 0
M  V30 3786 C 348.49 -1.44878 3.2967 0
M  V30 3787 C 348.343 -0.453789 4.47505 0
M  V30 3788 C 349.662 -2.38994 3.69554 0
M  V30 3789 H 346.781 -0.272724 0.684683 0
M  V30 3790 H 349.423 -0.0172113 1.89992 0
M  V30 3791 H 347.573 -2.077 3.28318 0
M  V30 3792 H 349.245 0.170371 4.60985 0
M  V30 3793 H 347.488 0.229552 4.33192 0
M  V30 3794 H 348.159 -0.977699 5.43273 0
M  V30 3795 H 350.635 -1.86239 3.72095 0
M  V30 3796 H 349.511 -2.84587 4.69363 0
M  V30 3797 H 349.772 -3.24461 3.00296 0
M  V30 3798 N 348.832 -1.54138 -0.328536 0
M  V30 3799 C 349.795 -1.82462 -1.38709 0
M  V30 3800 C 350.795 -0.696229 -1.44946 0
M  V30 3801 O 351.985 -0.964535 -1.4506 0
M  V30 3802 C 349.117 -1.98018 -2.77492 0
M  V30 3803 H 350.31 -2.77037 -1.14851 0
M  V30 3804 H 347.863 -1.45779 -0.563751 0
M  V30 3805 H 348.598 -1.05637 -3.06613 0
M  V30 3806 H 348.383 -2.80124 -2.74359 0
M  V30 3807 H 349.873 -2.21396 -3.54081 0
M  V30 3808 N 350.31 0.590341 -1.46126 0
M  V30 3809 C 351.721 1.17243 -1.45296 0
M  V30 3810 C 352.072 1.95281 -0.189723 0
M  V30 3811 O 351.197 2.04502 0.707674 0
M  V30 3812 C 351.792 2.13284 -2.6324 0
M  V30 3813 C 350.351 2.66832 -2.65476 0
M  V30 3814 C 349.498 1.42557 -2.3785 0
M  V30 3815 H 352.449 0.378692 -1.54116 0
M  V30 3816 H 352.47 2.96619 -2.38323 0
M  V30 3817 H 351.982 1.56459 -3.55165 0
M  V30 3818 H 350.083 3.27548 -1.77603 0
M  V30 3819 H 350.196 3.10088 -3.65215 0
M  V30 3820 H 348.56 1.72107 -1.87753 0
M  V30 3821 H 349.343 0.875741 -3.31942 0
M  V30 3822 N 351.788 1.33704 0.83433 0
M  V30 3823 C 352.72 1.20172 1.9517 0
M  V30 3824 C 353.733 0.131572 1.62267 0
M  V30 3825 O 354.922 0.382406 1.74356 0
M  V30 3826 C 352.022 0.821716 3.28787 0
M  V30 3827 C 351.195 1.98446 3.89792 0
M  V30 3828 C 350.254 1.58469 5.01771 0
M  V30 3829 O 349.28 2.29968 5.20676 0
M  V30 3830 N 350.482 0.492291 5.78409 0
M  V30 3831 H 353.247 2.16429 2.07313 0
M  V30 3832 H 350.808 1.26509 1.0103 0
M  V30 3833 H 352.8 0.536291 4.01131 0
M  V30 3834 H 351.37 -0.0503058 3.1256 0
M  V30 3835 H 350.59 2.43526 3.09982 0
M  V30 3836 H 351.878 2.76236 4.27283 0
M  V30 3837 H 351.276 -0.102349 5.65607 0
M  V30 3838 H 349.833 0.266555 6.51255 0
M  V30 3839 N 353.266 -1.05314 1.17247 0
M  V30 3840 C 354.491 -1.82509 0.985148 0
M  V30 3841 C 354.916 -1.82343 -0.461788 0
M  V30 3842 O 354.274 -1.23151 -1.33055 0
M  V30 3843 C 354.322 -3.26566 1.52929 0
M  V30 3844 O 353.426 -4.05666 0.742225 0
M  V30 3845 H 352.767 -0.564347 0.349869 0
M  V30 3846 H 355.297 -1.32718 1.55715 0
M  V30 3847 H 355.307 -3.77369 1.55103 0
M  V30 3848 H 353.982 -3.26001 2.58256 0
M  V30 3849 H 352.559 -3.64397 0.791794 0
M  V30 3850 N 354.744 -0.972509 -1.24016 0
M  V30 3851 C 355.707 -0.511403 -2.23422 0
M  V30 3852 C 356.707 0.394679 -1.55881 0
M  V30 3853 O 357.897 0.189469 -1.73167 0
M  V30 3854 C 355.029 0.258769 -3.39916 0
M  V30 3855 H 356.222 -1.39024 -2.6573 0
M  V30 3856 H 353.775 -0.757585 -1.36713 0
M  V30 3857 H 354.51 1.1545 -3.03054 0
M  V30 3858 H 354.295 -0.391522 -3.9014 0
M  V30 3859 H 355.785 0.570244 -4.13688 0
M  V30 3860 N 356.222 1.38976 -0.743202 0
M  V30 3861 C 357.172 2.27843 -0.084513 0
M  V30 3862 C 358.156 1.44677 0.704094 0
M  V30 3863 O 359.348 1.67511 0.571755 0
M  V30 3864 C 356.477 3.33466 0.815781 0
M  V30 3865 C 355.563 4.24095 0.0208844 0
M  V30 3866 N 355.954 4.95609 -1.0102 0
M  V30 3867 C 354.252 4.45303 0.249293 0
M  V30 3868 C 354.953 5.62287 -1.49024 0
M  V30 3869 N 353.929 5.37571 -0.807377 0
M  V30 3870 H 357.731 2.80593 -0.87436 0
M  V30 3871 H 355.245 1.51755 -0.578283 0
M  V30 3872 H 357.242 3.96008 1.30321 0
M  V30 3873 H 355.902 2.82276 1.6047 0
M  V30 3874 H 356.913 4.98849 -1.39176 0
M  V30 3875 H 353.59 4.0504 1.01237 0
M  V30 3876 H 354.98 6.29519 -2.34853 0
M  V30 3877 N 357.7 0.491464 1.49741 0
M  V30 3878 C 358.663 -0.280906 2.27472 0
M  V30 3879 C 359.663 -0.902454 1.33088 0
M  V30 3880 O 360.853 -0.768465 1.56334 0
M  V30 3881 C 357.985 -1.40209 3.10732 0
M  V30 3882 H 359.178 0.401056 2.97206 0
M  V30 3883 H 356.731 0.246131 1.5435 0
M  V30 3884 H 357.466 -2.11849 2.45541 0
M  V30 3885 H 357.251 -0.961969 3.80117 0
M  V30 3886 H 358.741 -1.9464 3.69466 0
M  V30 3887 N 359.178 -1.55987 0.224894 0
M  V30 3888 C 360.141 -2.19178 -0.670348 0
M  V30 3889 C 361.141 -1.15461 -1.11917 0
M  V30 3890 O 362.331 -1.40675 -1.02743 0
M  V30 3891 C 359.463 -2.81777 -1.9187 0
M  V30 3892 H 360.656 -2.99662 -0.119364 0
M  V30 3893 H 358.209 -1.5628 -0.0247128 0
M  V30 3894 H 358.944 -2.05172 -2.51147 0
M  V30 3895 H 358.729 -3.57732 -1.60531 0
M  V30 3896 H 360.219 -3.30205 -2.55645 0
M  V30 3897 N 360.656 0.0484629 -1.57525 0
M  V30 3898 C 361.903 0.743125 -1.88372 0
M  V30 3899 C 362.231 1.76383 -0.819715 0
M  V30 3900 O 361.486 1.94855 0.181659 0
M  V30 3901 C 361.785 1.46632 -3.25935 0
M  V30 3902 C 361.451 0.583427 -4.4711 0
M  V30 3903 C 360.113 0.340191 -4.79996 0
M  V30 3904 C 362.465 -0.0273345 -5.21193 0
M  V30 3905 C 359.793 -0.522903 -5.84365 0
M  V30 3906 C 362.145 -0.878017 -6.26477 0
M  V30 3907 C 360.809 -1.1309 -6.5785 0
M  V30 3908 H 360.079 0.271929 -0.689301 0
M  V30 3909 H 362.726 0.00336166 -1.915 0
M  V30 3910 H 361.031 2.2789 -3.18706 0
M  V30 3911 H 362.728 2.00902 -3.47044 0
M  V30 3912 H 359.318 0.783151 -4.21384 0
M  V30 3913 H 363.502 0.147654 -4.9608 0
M  V30 3914 H 358.758 -0.727335 -6.07058 0
M  V30 3915 H 362.932 -1.35789 -6.83033 0
M  V30 3916 H 360.559 -1.80144 -7.38547 0
M  V30 3917 N 362.134 1.5431 0.320358 0
M  V30 3918 C 363.082 1.84647 1.4145 0
M  V30 3919 C 364.076 0.718624 1.53402 0
M  V30 3920 O 365.282 0.902335 1.5575 0
M  V30 3921 H 361.657 0.585349 0.472091 0
M  V30 3922 H 363.628 2.7614 1.13089 0
M  V30 3923 C 362.377 2.09341 2.77617 0
M  V30 3924 H 361.7 2.9559 2.69196 0
M  V30 3925 H 363.14 2.3452 3.53237 0
M  V30 3926 C 361.599 0.885939 3.25043 0
M  V30 3927 O 362.129 0.0967891 4.01583 0
M  V30 3928 N 360.335 0.696682 2.82125 0
M  V30 3929 H 359.882 1.34006 2.2 0
M  V30 3930 H 359.84 -0.109712 3.14209 0
M  V30 3931 N 363.613 -0.582584 1.46437 0
M  V30 3932 C 364.56 -1.69164 1.5701 0
M  V30 3933 C 365.53 -1.60847 0.414403 0
M  V30 3934 O 366.715 -1.80058 0.631171 0
M  V30 3935 C 363.855 -3.075 1.56646 0
M  V30 3936 C 362.968 -3.2644 2.82951 0
M  V30 3937 C 362.103 -4.55026 2.7409 0
M  V30 3938 C 361.142 -4.6731 3.95333 0
M  V30 3939 N 360.279 -5.87221 3.84858 0
M  V30 3940 H 365.119 -1.59464 2.51744 0
M  V30 3941 H 362.656 -0.777186 1.24893 0
M  V30 3942 H 364.614 -3.8757 1.5442 0
M  V30 3943 H 363.244 -3.16096 0.654439 0
M  V30 3944 H 362.296 -2.39974 2.95155 0
M  V30 3945 H 363.608 -3.31385 3.72808 0
M  V30 3946 H 362.762 -5.43324 2.6997 0
M  V30 3947 H 361.501 -4.52519 1.81873 0
M  V30 3948 H 360.506 -3.77429 3.99784 0
M  V30 3949 H 361.731 -4.71595 4.88646 0
M  V30 3950 H 359.677 -5.85712 2.95427 0
M  V30 3951 H 359.594 -5.93435 4.6837 0
M  V30 3952 H 360.862 -6.7795 3.84713 0
M  V30 3953 N 365.091 -1.34144 -0.827227 0
M  V30 3954 C 366.054 -1.25264 -1.91942 0
M  V30 3955 C 367.054 -0.168866 -1.59911 0
M  V30 3956 O 368.244 -0.421198 -1.69031 0
M  V30 3957 C 365.376 -0.932952 -3.27885 0
M  V30 3958 H 366.569 -2.22357 -2.0124 0
M  V30 3959 H 364.122 -1.1837 -1.0207 0
M  V30 3960 H 364.857 0.0349917 -3.24281 0
M  V30 3961 H 364.642 -1.71682 -3.52516 0
M  V30 3962 H 366.132 -0.895874 -4.07877 0
M  V30 3963 N 366.569 1.04691 -1.17803 0
M  V30 3964 C 367.532 2.10724 -0.901545 0
M  V30 3965 C 368.532 1.6042 0.110437 0
M  V30 3966 O 369.722 1.7377 -0.122303 0
M  V30 3967 C 366.854 3.39084 -0.351409 0
M  V30 3968 H 368.047 2.36686 -1.84174 0
M  V30 3969 H 365.6 1.21015 -0.98919 0
M  V30 3970 H 366.335 3.18782 0.59569 0
M  V30 3971 H 366.12 3.76909 -1.08083 0
M  V30 3972 H 367.61 4.17227 -0.176451 0
M  V30 3973 N 368.047 0.979072 1.23499 0
M  V30 3974 C 369.272 0.664845 1.96455 0
M  V30 3975 C 369.697 -0.761287 1.72006 0
M  V30 3976 O 369.055 -1.51837 0.990713 0
M  V30 3977 C 369.103 0.959479 3.47601 0
M  V30 3978 O 368.207 0.0508168 4.12369 0
M  V30 3979 H 367.548 0.250185 0.615064 0
M  V30 3980 H 370.078 1.31231 1.5697 0
M  V30 3981 H 370.088 0.895642 3.98048 0
M  V30 3982 H 368.763 1.99876 3.64723 0
M  V30 3983 H 367.34 0.16895 3.72517 0
M  V30 3984 N 369.525 -1.3858 0.750561 0
M  V30 3985 C 370.755 -2.04175 0.31564 0
M  V30 3986 C 371.163 -1.56726 -1.05989 0
M  V30 3987 O 370.506 -0.734225 -1.68389 0
M  V30 3988 C 370.568 -3.58585 0.256389 0
M  V30 3989 C 370.232 -4.29077 1.57296 0
M  V30 3990 C 371.229 -4.54656 2.52159 0
M  V30 3991 C 368.914 -4.67324 1.84156 0
M  V30 3992 C 370.908 -5.17512 3.72103 0
M  V30 3993 C 368.595 -5.29905 3.04374 0
M  V30 3994 C 369.593 -5.54933 3.98168 0
M  V30 3995 O 369.281 -6.16212 5.16273 0
M  V30 3996 H 369.013 -0.662742 0.133226 0
M  V30 3997 H 371.567 -1.78313 1.01948 0
M  V30 3998 H 369.797 -3.83406 -0.503677 0
M  V30 3999 H 371.486 -4.05628 -0.148612 0
M  V30 4000 H 372.252 -4.25539 2.32683 0
M  V30 4001 H 368.131 -4.47191 1.11988 0
M  V30 4002 H 371.675 -5.36963 4.45327 0
M  V30 4003 H 367.572 -5.58444 3.23745 0
M  V30 4004 H 368.34 -6.34701 5.16815 0
M  V30 4005 N 371.003 -0.499398 -1.49478 0
M  V30 4006 C 372.25 0.0456899 -2.02448 0
M  V30 4007 C 372.578 1.37142 -1.37921 0
M  V30 4008 O 371.833 1.89111 -0.503544 0
M  V30 4009 C 372.132 0.248424 -3.56536 0
M  V30 4010 C 371.798 -0.999107 -4.39692 0
M  V30 4011 C 370.46 -1.34108 -4.62135 0
M  V30 4012 C 372.812 -1.82842 -4.88076 0
M  V30 4013 C 370.14 -2.51191 -5.30208 0
M  V30 4014 C 372.492 -2.99076 -5.57437 0
M  V30 4015 C 371.156 -3.33655 -5.78127 0
M  V30 4016 H 370.426 0.0167191 -0.740811 0
M  V30 4017 H 373.073 -0.65923 -1.79795 0
M  V30 4018 H 371.378 1.03586 -3.77859 0
M  V30 4019 H 373.075 0.684605 -3.95113 0
M  V30 4020 H 369.665 -0.722729 -4.22463 0
M  V30 4021 H 373.849 -1.57737 -4.70566 0
M  V30 4022 H 369.105 -2.78221 -5.44429 0
M  V30 4023 H 373.279 -3.63664 -5.93904 0
M  V30 4024 H 370.906 -4.24483 -6.30649 0
M  V30 4025 N 372.481 1.55866 -0.233164 0
M  V30 4026 C 373.729 1.9821 0.394593 0
M  V30 4027 C 374.05 1.12234 1.59463 0
M  V30 4028 O 373.32 0.201981 1.94856 0
M  V30 4029 H 371.9 0.732034 0.148778 0
M  V30 4030 H 374.562 1.92107 -0.32876 0
M  V30 4031 H 373.658 3.03845 0.713063 0
M  V30 4032 N 373.959 -0.0401083 1.57549 0
M  V30 4033 C 374.892 -1.07689 2.01192 0
M  V30 4034 C 375.87 -1.358 0.894273 0
M  V30 4035 O 377.054 -1.48642 1.15921 0
M  V30 4036 C 374.181 -2.41418 2.3756 0
M  V30 4037 C 373.227 -2.29237 3.59656 0
M  V30 4038 S 374.06 -1.65628 5.09242 0
M  V30 4039 C 375.216 -3.0087 5.48843 0
M  V30 4040 H 375.449 -0.705108 2.88817 0
M  V30 4041 H 372.982 -0.249724 1.52367 0
M  V30 4042 H 374.94 -3.18329 2.59186 0
M  V30 4043 H 373.601 -2.75747 1.50407 0
M  V30 4044 H 372.794 -3.27932 3.82722 0
M  V30 4045 H 372.396 -1.60469 3.37825 0
M  V30 4046 H 374.688 -3.97201 5.48851 0
M  V30 4047 H 375.631 -2.82549 6.49286 0
M  V30 4048 H 376.039 -3.02934 4.76331 0
M  V30 4049 N 375.437 -1.54477 -0.31217 0
M  V30 4050 C 376.384 -1.84655 -1.38461 0
M  V30 4051 C 377.354 -0.694536 -1.50882 0
M  V30 4052 O 378.539 -0.942081 -1.6592 0
M  V30 4053 C 375.679 -2.0896 -2.74645 0
M  V30 4054 C 374.792 -3.36618 -2.70763 0
M  V30 4055 C 373.927 -3.50824 -3.98868 0
M  V30 4056 C 372.966 -4.72315 -3.89339 0
M  V30 4057 N 372.103 -4.83387 -5.09197 0
M  V30 4058 H 376.943 -2.76142 -1.12026 0
M  V30 4059 H 374.48 -1.36748 -0.542065 0
M  V30 4060 H 376.438 -2.21045 -3.53829 0
M  V30 4061 H 375.068 -1.20752 -2.99364 0
M  V30 4062 H 374.12 -3.33211 -1.83506 0
M  V30 4063 H 375.432 -4.25917 -2.59608 0
M  V30 4064 H 374.586 -3.62513 -4.86486 0
M  V30 4065 H 373.325 -2.59638 -4.12843 0
M  V30 4066 H 372.33 -4.6067 -3.00105 0
M  V30 4067 H 373.555 -5.64897 -3.76919 0
M  V30 4068 H 371.501 -3.9512 -5.23657 0
M  V30 4069 H 371.418 -5.66669 -5.00422 0
M  V30 4070 H 372.686 -4.9942 -5.98498 0
M  V30 4071 N 376.915 0.57481 -1.46744 0
M  V30 4072 C 378.164 1.32898 -1.51727 0
M  V30 4073 C 378.477 1.948 -0.176692 0
M  V30 4074 O 379.683 2.71299 -0.104385 0
M  V30 4075 C 378.139 2.40901 -2.67385 0
M  V30 4076 C 377.747 1.85266 -4.07898 0
M  V30 4077 C 379.491 3.17609 -2.81646 0
M  V30 4078 C 377.398 2.90945 -5.14883 0
M  V30 4079 H 376.328 0.499631 -0.564699 0
M  V30 4080 H 378.979 0.612536 -1.72975 0
M  V30 4081 H 377.361 3.15379 -2.39483 0
M  V30 4082 H 378.535 1.17278 -4.45626 0
M  V30 4083 H 376.85 1.21199 -3.98371 0
M  V30 4084 H 379.447 3.96493 -3.58744 0
M  V30 4085 H 379.79 3.70696 -1.89448 0
M  V30 4086 H 380.323 2.50239 -3.09233 0
M  V30 4087 H 377.062 2.42736 -6.089 0
M  V30 4088 H 376.582 3.57398 -4.81691 0
M  V30 4089 H 378.261 3.54755 -5.41071 0
M  V30 4090 N 378.394 1.34581 0.820102 0
M  V30 4091 C 379.64 1.27285 1.57881 0
M  V30 4092 C 379.973 -0.156137 1.93571 0
M  V30 4093 O 379.248 -1.10222 1.60254 0
M  V30 4094 C 379.531 2.16639 2.87645 0
M  V30 4095 C 379.384 3.68088 2.58517 0
M  V30 4096 C 380.703 2.05378 3.8924 0
M  V30 4097 H 377.822 0.463714 0.572833 0
M  V30 4098 H 380.464 1.64859 0.944539 0
M  V30 4099 H 378.614 1.84725 3.41773 0
M  V30 4100 H 380.286 4.10382 2.10676 0
M  V30 4101 H 378.529 3.89038 1.91917 0
M  V30 4102 H 379.2 4.2598 3.51063 0
M  V30 4103 H 381.676 2.33404 3.44473 0
M  V30 4104 H 380.552 2.7012 4.77835 0
M  V30 4105 H 380.813 1.0316 4.29896 0
M  V30 4106 N 379.872 -1.04064 1.18357 0
M  V30 4107 C 381.288 -1.2947 0.933258 0
M  V30 4108 C 381.488 -1.97466 -0.401169 0
M  V30 4109 O 380.544 -2.25528 -1.13549 0
M  V30 4110 C 381.857 -2.15337 2.09882 0
M  V30 4111 C 383.405 -2.28683 2.13712 0
M  V30 4112 C 383.88 -3.17917 3.29686 0
M  V30 4113 N 385.371 -3.25504 3.29547 0
M  V30 4114 C 386.106 -3.94706 4.15926 0
M  V30 4115 N 385.602 -4.66239 5.12439 0
M  V30 4116 N 387.395 -3.90986 4.0384 0
M  V30 4117 H 379.546 -0.583359 2.04232 0
M  V30 4118 H 381.809 -0.319921 0.892387 0
M  V30 4119 H 381.515 -1.72682 3.06389 0
M  V30 4120 H 381.389 -3.16015 2.05947 0
M  V30 4121 H 383.776 -2.70575 1.17784 0
M  V30 4122 H 383.857 -1.27596 2.21705 0
M  V30 4123 H 383.501 -2.76736 4.25887 0
M  V30 4124 H 383.431 -4.19036 3.1893 0
M  V30 4125 H 385.922 -2.74547 2.59677 0
M  V30 4126 H 386.235 -5.16638 5.74722 0
M  V30 4127 H 384.58 -4.65143 5.16398 0
M  V30 4128 H 387.771 -3.34234 3.27727 0
M  V30 4129 H 387.944 -4.44646 4.71375 0
M  V30 4130 N 381.35 -0.985608 -1.22978 0
M  V30 4131 C 382.596 -0.65836 -1.91816 0
M  V30 4132 C 382.929 0.806692 -1.76653 0
M  V30 4133 O 382.204 1.58252 -1.13078 0
M  V30 4134 C 382.487 -1.056 -3.44268 0
M  V30 4135 C 382.34 -2.57906 -3.68516 0
M  V30 4136 C 383.659 -0.603781 -4.35939 0
M  V30 4137 H 380.778 -0.24065 -0.696604 0
M  V30 4138 H 383.42 -1.22783 -1.44998 0
M  V30 4139 H 381.57 -0.571445 -3.84274 0
M  V30 4140 H 383.242 -3.13976 -3.3796 0
M  V30 4141 H 381.485 -3.00305 -3.13048 0
M  V30 4142 H 382.156 -2.80779 -4.75255 0
M  V30 4143 H 384.632 -1.01987 -4.03408 0
M  V30 4144 H 383.508 -0.910383 -5.41298 0
M  V30 4145 H 383.769 0.495761 -4.39312 0
M  V30 4146 N 382.828 1.3818 -0.7579 0
M  V30 4147 C 384.239 1.82726 -0.383134 0
M  V30 4148 C 384.59 1.63214 1.08884 0
M  V30 4149 O 383.715 1.13566 1.84205 0
M  V30 4150 C 384.31 3.31728 -0.688631 0
M  V30 4151 C 382.869 3.74606 -0.367091 0
M  V30 4152 C 382.016 2.60896 -0.939599 0
M  V30 4153 H 384.967 1.26847 -0.953699 0
M  V30 4154 H 384.988 3.80487 0.0316492 0
M  V30 4155 H 384.5 3.45898 -1.76001 0
M  V30 4156 H 382.601 3.66013 0.697532 0
M  V30 4157 H 382.714 4.71215 -0.865658 0
M  V30 4158 H 381.078 2.52075 -0.3647 0
M  V30 4159 H 381.861 2.77864 -2.0161 0
M  V30 4160 N 384.306 0.507319 1.49211 0
M  V30 4161 C 385.236 -0.256939 2.32082 0
M  V30 4162 C 386.217 -0.956609 1.40652 0
M  V30 4163 O 387.402 -0.946788 1.69557 0
M  V30 4164 C 384.532 -1.31802 3.21318 0
M  V30 4165 C 383.486 -0.737855 4.21592 0
M  V30 4166 C 382.812 -1.89992 4.99807 0
M  V30 4167 C 384.112 0.275325 5.21574 0
M  V30 4168 H 385.806 0.434798 2.96226 0
M  V30 4169 H 383.352 0.210546 1.42452 0
M  V30 4170 H 385.305 -1.86045 3.78107 0
M  V30 4171 H 384.029 -2.03903 2.5513 0
M  V30 4172 H 382.688 -0.217126 3.65956 0
M  V30 4173 H 382.336 -2.60877 4.30061 0
M  V30 4174 H 382.036 -1.51777 5.6766 0
M  V30 4175 H 383.56 -2.44657 5.59442 0
M  V30 4176 H 384.974 -0.179193 5.7302 0
M  V30 4177 H 383.371 0.573649 5.97352 0
M  V30 4178 H 384.441 1.18903 4.70096 0
M  V30 4179 N 385.784 -1.5574 0.241426 0
M  V30 4180 C 387.012 -2.03208 -0.389134 0
M  V30 4181 C 387.427 -1.12082 -1.51931 0
M  V30 4182 O 386.784 -0.134183 -1.82006 0
M  V30 4183 C 386.835 -3.50064 -0.902087 0
M  V30 4184 O 386.556 -4.37717 0.18305 0
M  V30 4185 C 388.057 -4.13268 -1.60389 0
M  V30 4186 H 385.277 -0.664509 -0.0931053 0
M  V30 4187 H 387.821 -2.0124 0.36369 0
M  V30 4188 H 385.976 -3.52583 -1.60511 0
M  V30 4189 H 386.39 -5.24097 -0.205579 0
M  V30 4190 H 387.864 -5.17733 -1.91458 0
M  V30 4191 H 388.341 -3.59434 -2.52397 0
M  V30 4192 H 388.947 -4.14655 -0.945576 0
M  V30 4193 N 387.262 0.0317525 -1.57568 0
M  V30 4194 C 388.209 1.0332 -2.06382 0
M  V30 4195 C 389.179 1.36082 -0.952414 0
M  V30 4196 O 390.364 1.46466 -1.2228 0
M  V30 4197 C 387.504 2.32989 -2.54578 0
M  V30 4198 C 386.617 2.0641 -3.79498 0
M  V30 4199 C 385.752 3.2993 -4.16317 0
M  V30 4200 C 384.791 2.98893 -5.34162 0
M  V30 4201 N 383.928 4.14857 -5.66426 0
M  V30 4202 H 388.768 0.609982 -2.9169 0
M  V30 4203 H 386.305 0.289573 -1.44222 0
M  V30 4204 H 388.263 3.0875 -2.80587 0
M  V30 4205 H 386.893 2.73039 -1.7219 0
M  V30 4206 H 385.945 1.21158 -3.6059 0
M  V30 4207 H 387.257 1.79513 -4.65378 0
M  V30 4208 H 386.411 4.1406 -4.4344 0
M  V30 4209 H 385.15 3.59938 -3.29083 0
M  V30 4210 H 384.155 2.13164 -5.06795 0
M  V30 4211 H 385.38 2.70165 -6.23047 0
M  V30 4212 H 383.326 4.44821 -4.82151 0
M  V30 4213 H 383.243 3.91374 -6.4681 0
M  V30 4214 H 384.511 4.99868 -5.98124 0
M  V30 4215 N 388.74 1.54641 0.303973 0
M  V30 4216 C 389.673 1.80263 1.3993 0
M  V30 4217 C 390.651 0.653657 1.48883 0
M  V30 4218 O 391.835 0.893284 1.6599 0
M  V30 4219 C 388.962 1.9367 2.77866 0
M  V30 4220 C 388.008 3.16078 2.86351 0
M  V30 4221 S 388.841 4.74219 2.4875 0
M  V30 4222 C 389.997 4.90558 3.88721 0
M  V30 4223 H 390.23 2.72886 1.17986 0
M  V30 4224 H 387.763 1.46014 0.501918 0
M  V30 4225 H 389.721 2.0208 3.57315 0
M  V30 4226 H 388.382 1.01991 2.9708 0
M  V30 4227 H 387.575 3.22252 3.87517 0
M  V30 4228 H 387.177 3.06099 2.14893 0
M  V30 4229 H 389.469 4.74398 4.83687 0
M  V30 4230 H 390.412 5.92651 3.87518 0
M  V30 4231 H 390.82 4.18728 3.78585 0
M  V30 4232 N 390.218 -0.567019 1.47046 0
M  V30 4233 C 391.151 -1.69016 1.53326 0
M  V30 4234 C 392.129 -1.57949 0.386126 0
M  V30 4235 O 393.313 -1.78945 0.592529 0
M  V30 4236 C 390.44 -3.07191 1.42658 0
M  V30 4237 C 389.486 -3.36733 2.6175 0
M  V30 4238 S 390.319 -3.27069 4.24012 0
M  V30 4239 C 391.475 -4.67755 4.1588 0
M  V30 4240 H 391.708 -1.63434 2.48348 0
M  V30 4241 H 389.241 -0.747048 1.35124 0
M  V30 4242 H 391.199 -3.86897 1.37191 0
M  V30 4243 H 389.86 -3.10249 0.490369 0
M  V30 4244 H 389.053 -4.37441 2.50323 0
M  V30 4245 H 388.655 -2.64627 2.64289 0
M  V30 4246 H 390.947 -5.58491 3.83529 0
M  V30 4247 H 391.89 -4.84239 5.16641 0
M  V30 4248 H 392.298 -4.45341 3.46889 0
M  V30 4249 N 391.696 -1.35014 -0.812953 0
M  V30 4250 C 392.606 -1.2951 -1.95613 0
M  V30 4251 C 393.622 -0.20107 -1.72834 0
M  V30 4252 O 394.798 -0.42932 -1.96771 0
M  V30 4253 C 391.863 -1.06033 -3.30088 0
M  V30 4254 C 390.924 -2.24688 -3.65805 0
M  V30 4255 C 390.157 -2.02322 -4.93864 0
M  V30 4256 O 390.38 -0.986464 -5.61805 0
M  V30 4257 O 389.314 -2.89525 -5.27692 0
M  V30 4258 H 393.14 -2.25705 -2.03202 0
M  V30 4259 H 390.725 -1.15321 -0.949811 0
M  V30 4260 H 392.607 -0.94763 -4.10607 0
M  V30 4261 H 391.282 -0.128852 -3.23443 0
M  V30 4262 H 390.189 -2.41521 -2.85689 0
M  V30 4263 H 391.522 -3.16261 -3.77147 0
M  V30 4264 N 393.175 1.03435 -1.18907 0
M  V30 4265 C 394.421 1.77005 -0.989798 0
M  V30 4266 C 394.754 1.88205 0.478816 0
M  V30 4267 O 394.029 1.39481 1.35556 0
M  V30 4268 C 394.312 3.19925 -1.65287 0
M  V30 4269 C 394.165 3.1663 -3.19477 0
M  V30 4270 C 395.484 4.18189 -1.37134 0
M  V30 4271 H 392.603 0.642538 -0.360991 0
M  V30 4272 H 395.245 1.20784 -1.46667 0
M  V30 4273 H 393.395 3.67929 -1.24741 0
M  V30 4274 H 395.067 2.76567 -3.692 0
M  V30 4275 H 393.31 2.54491 -3.51307 0
M  V30 4276 H 393.981 4.1758 -3.61013 0
M  V30 4277 H 396.457 3.78761 -1.72276 0
M  V30 4278 H 395.333 5.16394 -1.86087 0
M  V30 4279 H 395.594 4.41112 -0.295424 0
M  V30 4280 N 394.653 0.992116 1.22453 0
M  V30 4281 C 395.93 0.583508 1.86694 0
M  V30 4282 C 396.31 -0.9392 1.89056 0
M  V30 4283 O 395.658 -1.82081 1.38053 0
M  V30 4284 C 395.868 1.20304 3.2761 0
M  V30 4285 C 397.216 1.30308 4.0411 0
M  V30 4286 O 398.24 1.15737 3.36873 0
M  V30 4287 O 397.099 1.53615 5.24466 0
M  V30 4288 H 394.193 0.198129 0.802916 0
M  V30 4289 H 396.739 1.08794 1.30238 0
M  V30 4290 H 395.511 2.24461 3.2052 0
M  V30 4291 H 395.134 0.684144 3.9167 0
M  V30 4292 N 396.131 -1.37776 0.765217 0
M  V30 4293 C 397.377 -2.00145 0.327072 0
M  V30 4294 C 397.71 -1.60607 -1.09175 0
M  V30 4295 O 396.985 -0.849127 -1.74986 0
M  V30 4296 C 397.268 -3.57109 0.46319 0
M  V30 4297 C 397.121 -4.06576 1.92395 0
M  V30 4298 C 398.44 -4.39888 -0.136473 0
M  V30 4299 H 395.559 -0.727113 0.120316 0
M  V30 4300 H 398.201 -1.63549 0.967039 0
M  V30 4301 H 396.351 -3.88414 -0.0816358 0
M  V30 4302 H 398.023 -3.85864 2.52798 0
M  V30 4303 H 396.266 -3.59011 2.43503 0
M  V30 4304 H 396.937 -5.15639 1.97028 0
M  V30 4305 H 399.413 -4.14803 0.328317 0
M  V30 4306 H 398.289 -5.48899 -0.0110582 0
M  V30 4307 H 398.55 -4.24758 -1.22608 0
M  V30 4308 N 397.609 -0.515225 -1.4894 0
M  V30 4309 C 399.025 -0.172099 -1.58669 0
M  V30 4310 C 399.225 1.32405 -1.51892 0
M  V30 4311 O 398.281 2.10116 -1.40027 0
M  V30 4312 C 399.594 -0.761533 -2.90897 0
M  V30 4313 C 401.142 -0.728926 -3.04394 0
M  V30 4314 C 401.617 -1.29667 -4.39261 0
M  V30 4315 N 403.108 -1.25799 -4.4579 0
M  V30 4316 C 403.843 -1.66733 -5.48623 0
M  V30 4317 N 403.339 -2.15327 -6.58488 0
M  V30 4318 N 405.132 -1.58061 -5.39419 0
M  V30 4319 H 397.283 -1.48778 -1.51588 0
M  V30 4320 H 399.546 -0.617968 -0.718901 0
M  V30 4321 H 399.252 -1.81136 -3.01468 0
M  V30 4322 H 399.126 -0.230106 -3.76497 0
M  V30 4323 H 401.513 0.312098 -2.93445 0
M  V30 4324 H 401.594 -1.29766 -2.20442 0
M  V30 4325 H 401.238 -2.33655 -4.50963 0
M  V30 4326 H 401.168 -0.703752 -5.21876 0
M  V30 4327 H 403.659 -0.902102 -3.66975 0
M  V30 4328 H 403.972 -2.44594 -7.33071 0
M  V30 4329 H 402.317 -2.19311 -6.59491 0
M  V30 4330 H 405.508 -1.19906 -4.52482 0
M  V30 4331 H 405.681 -1.90284 -6.19432 0
M  V30 4332 N 399.087 1.5561 -0.249682 0
M  V30 4333 C 400.05 2.20217 0.635394 0
M  V30 4334 C 401.05 1.17227 1.10066 0
M  V30 4335 O 402.24 1.42292 1.00492 0
M  V30 4336 C 399.372 2.84794 1.87363 0
M  V30 4337 H 400.565 2.99814 0.0716752 0
M  V30 4338 H 398.118 1.563 -0.000153234 0
M  V30 4339 H 398.853 2.09142 2.47851 0
M  V30 4340 H 398.638 3.60241 1.5482 0
M  V30 4341 H 400.128 3.3423 2.5036 0
M  V30 4342 N 400.565 -0.0233959 1.57583 0
M  V30 4343 C 401.498 -1.05549 2.02323 0
M  V30 4344 C 402.476 -1.34843 0.908626 0
M  V30 4345 O 403.66 -1.47404 1.17491 0
M  V30 4346 C 400.787 -2.38885 2.40108 0
M  V30 4347 C 399.833 -2.2541 3.62067 0
M  V30 4348 S 400.666 -1.60217 5.1097 0
M  V30 4349 C 401.822 -2.95032 5.52003 0
M  V30 4350 H 402.055 -0.674435 2.89549 0
M  V30 4351 H 399.588 -0.23355 1.52623 0
M  V30 4352 H 401.546 -3.15562 2.62547 0
M  V30 4353 H 400.207 -2.74137 1.53323 0
M  V30 4354 H 399.4 -3.23854 3.86179 0
M  V30 4355 H 399.002 -1.56876 3.39508 0
M  V30 4356 H 401.294 -3.91357 5.53033 0
M  V30 4357 H 402.237 -2.75646 6.52246 0
M  V30 4358 H 402.645 -2.97865 4.79517 0
M  V30 4359 N 402.043 -1.548 -0.295768 0
M  V30 4360 C 403.459 -1.4613 -0.641722 0
M  V30 4361 C 403.659 -0.656771 -1.90496 0
M  V30 4362 O 402.715 -0.166547 -2.5195 0
M  V30 4363 C 404.028 -2.90141 -0.789852 0
M  V30 4364 C 405.576 -3.00216 -0.885396 0
M  V30 4365 C 406.051 -4.45434 -1.06548 0
M  V30 4366 N 407.542 -4.49166 -1.13156 0
M  V30 4367 C 408.277 -5.58717 -1.28929 0
M  V30 4368 N 407.773 -6.78182 -1.41567 0
M  V30 4369 N 409.566 -5.46415 -1.31859 0
M  V30 4370 H 401.717 -2.05574 0.534147 0
M  V30 4371 H 403.98 -0.931259 0.177372 0
M  V30 4372 H 403.686 -3.51635 0.0675598 0
M  V30 4373 H 403.56 -3.37859 -1.67724 0
M  V30 4374 H 405.947 -2.38833 -1.73329 0
M  V30 4375 H 406.028 -2.55787 0.0261185 0
M  V30 4376 H 405.672 -5.07413 -0.222335 0
M  V30 4377 H 405.602 -4.87499 -1.9913 0
M  V30 4378 H 408.093 -3.631 -1.04721 0
M  V30 4379 H 408.406 -7.57428 -1.53372 0
M  V30 4380 H 406.751 -6.81037 -1.38613 0
M  V30 4381 H 409.942 -4.5203 -1.21601 0
M  V30 4382 H 410.115 -6.31841 -1.43808 0
M  V30 4383 N 403.521 0.559213 -1.47345 0
M  V30 4384 C 404.937 0.884943 -1.32819 0
M  V30 4385 C 405.137 1.98988 -0.317173 0
M  V30 4386 O 404.193 2.51031 0.272011 0
M  V30 4387 C 405.506 1.28007 -2.72093 0
M  V30 4388 C 407.054 1.39161 -2.80363 0
M  V30 4389 C 407.529 1.82031 -4.20272 0
M  V30 4390 N 409.02 1.89185 -4.22804 0
M  V30 4391 C 409.755 2.2368 -5.27973 0
M  V30 4392 N 409.251 2.56802 -6.43447 0
M  V30 4393 N 411.044 2.24436 -5.15349 0
M  V30 4394 H 403.195 -0.170304 -2.11716 0
M  V30 4395 H 405.458 -0.0135247 -0.947904 0
M  V30 4396 H 405.164 0.542027 -3.47498 0
M  V30 4397 H 405.038 2.23665 -3.03733 0
M  V30 4398 H 407.425 2.12048 -2.05231 0
M  V30 4399 H 407.506 0.41696 -2.52379 0
M  V30 4400 H 407.15 1.09715 -4.95908 0
M  V30 4401 H 407.08 2.80495 -4.45679 0
M  V30 4402 H 409.571 1.65982 -3.39497 0
M  V30 4403 H 409.884 2.82144 -7.19454 0
M  V30 4404 H 408.229 2.54387 -6.46771 0
M  V30 4405 H 411.42 1.97998 -4.24163 0
M  V30 4406 H 411.593 2.50989 -5.97418 0
M  V30 4407 N 404.999 1.35443 0.805782 0
M  V30 4408 C 405.962 1.28301 1.89925 0
M  V30 4409 C 406.962 0.194285 1.59622 0
M  V30 4410 O 408.152 0.448036 1.6834 0
M  V30 4411 C 405.284 0.984997 3.2636 0
M  V30 4412 H 406.477 2.2553 1.97677 0
M  V30 4413 H 404.03 1.19979 1.00173 0
M  V30 4414 H 404.765 0.016603 3.24296 0
M  V30 4415 H 404.55 1.77269 3.4974 0
M  V30 4416 H 406.04 0.960651 4.064 0
M  V30 4417 N 406.477 -1.02803 1.19454 0
M  V30 4418 C 407.726 -1.7562 0.991996 0
M  V30 4419 C 408.039 -1.89672 -0.477901 0
M  V30 4420 O 409.245 -2.59468 -0.799287 0
M  V30 4421 C 407.701 -3.15812 1.72601 0
M  V30 4422 C 407.309 -3.0981 3.23607 0
M  V30 4423 C 409.053 -3.92918 1.60674 0
M  V30 4424 C 406.96 -4.44939 3.89594 0
M  V30 4425 H 405.89 -0.658352 0.367543 0
M  V30 4426 H 408.541 -1.15044 1.42959 0
M  V30 4427 H 406.923 -3.7686 1.21624 0
M  V30 4428 H 408.097 -2.58138 3.81709 0
M  V30 4429 H 406.412 -2.46201 3.35819 0
M  V30 4430 H 409.009 -4.9287 2.07323 0
M  V30 4431 H 409.352 -4.12502 0.561025 0
M  V30 4432 H 409.885 -3.38472 2.09001 0
M  V30 4433 H 406.624 -4.30559 4.94267 0
M  V30 4434 H 406.144 -4.96664 3.36281 0
M  V30 4435 H 407.823 -5.1382 3.93189 0
M  V30 4436 N 407.956 -0.998596 -1.21925 0
M  V30 4437 C 409.181 -0.696015 -1.95372 0
M  V30 4438 C 409.606 0.733826 -1.73195 0
M  V30 4439 O 408.964 1.50242 -1.01474 0
M  V30 4440 C 409.012 -1.01466 -3.4603 0
M  V30 4441 O 408.116 -0.116415 -4.12236 0
M  V30 4442 H 407.457 -0.259938 -0.611006 0
M  V30 4443 H 409.987 -1.33711 -1.54863 0
M  V30 4444 H 409.997 -0.958855 -3.96573 0
M  V30 4445 H 408.672 -2.05653 -3.61497 0
M  V30 4446 H 407.249 -0.228193 -3.72201 0
M  V30 4447 N 409.434 1.37368 -0.772513 0
M  V30 4448 C 410.85 1.53059 -0.452231 0
M  V30 4449 C 411.05 1.73065 1.03203 0
M  V30 4450 O 410.106 1.75245 1.81784 0
M  V30 4451 C 411.419 2.72659 -1.26797 0
M  V30 4452 C 412.967 2.86521 -1.25995 0
M  V30 4453 C 413.442 4.09105 -2.05905 0
M  V30 4454 N 414.933 4.16219 -2.03263 0
M  V30 4455 C 415.668 5.10107 -2.61875 0
M  V30 4456 N 415.164 6.09547 -3.29278 0
M  V30 4457 N 416.957 5.02596 -2.51701 0
M  V30 4458 H 409.108 1.22634 -1.7342 0
M  V30 4459 H 411.371 0.597206 -0.736239 0
M  V30 4460 H 411.077 2.64343 -2.31982 0
M  V30 4461 H 410.951 3.66363 -0.897672 0
M  V30 4462 H 413.338 2.94308 -0.216081 0
M  V30 4463 H 413.419 1.93774 -1.66989 0
M  V30 4464 H 413.063 4.0208 -3.10313 0
M  V30 4465 H 412.993 5.00968 -1.62292 0
M  V30 4466 H 415.484 3.45012 -1.54192 0
M  V30 4467 H 415.797 6.77718 -3.71374 0
M  V30 4468 H 414.142 6.09824 -3.33377 0
M  V30 4469 H 417.333 4.23855 -1.98657 0
M  V30 4470 H 417.506 5.75582 -2.97673 0
M  V30 4471 N 410.912 0.523116 1.48665 0
M  V30 4472 C 411.86 -0.256859 2.31177 0
M  V30 4473 C 412.854 -0.94199 1.40794 0
M  V30 4474 O 414.06 -0.867157 1.57735 0
M  V30 4475 H 410.435 -0.1017 0.745091 0
M  V30 4476 H 412.406 0.458739 2.94853 0
M  V30 4477 C 411.155 -1.29503 3.22683 0
M  V30 4478 H 410.478 -0.777248 3.92172 0
M  V30 4479 H 411.918 -1.81233 3.83315 0
M  V30 4480 C 410.377 -2.32501 2.43813 0
M  V30 4481 O 410.907 -3.3881 2.15803 0
M  V30 4482 N 409.113 -2.05538 2.05432 0
M  V30 4483 H 408.66 -1.19104 2.28412 0
M  V30 4484 H 408.618 -2.74676 1.52973 0
M  V30 4485 N 412.39 -1.55475 0.257931 0
M  V30 4486 C 413.618 -2.03609 -0.367559 0
M  V30 4487 C 414.033 -1.13687 -1.50734 0
M  V30 4488 O 413.39 -0.153479 -1.81853 0
M  V30 4489 C 413.441 -3.51001 -0.864908 0
M  V30 4490 O 413.162 -4.37499 0.229465 0
M  V30 4491 C 414.663 -4.14946 -1.55997 0
M  V30 4492 H 411.883 -0.665459 -0.0860521 0
M  V30 4493 H 414.427 -2.00843 0.385014 0
M  V30 4494 H 412.582 -3.54266 -1.56762 0
M  V30 4495 H 412.996 -5.24286 -0.14998 0
M  V30 4496 H 414.47 -5.19735 -1.85956 0
M  V30 4497 H 414.947 -3.6209 -2.4857 0
M  V30 4498 H 415.553 -4.15635 -0.901543 0
M  V30 4499 N 413.868 0.0150385 -1.57593 0
M  V30 4500 C 414.831 0.995996 -2.06428 0
M  V30 4501 C 415.831 1.2818 -0.970903 0
M  V30 4502 O 417.021 1.22949 -1.23406 0
M  V30 4503 C 414.153 2.32506 -2.49307 0
M  V30 4504 H 415.346 0.573873 -2.94358 0
M  V30 4505 H 412.899 0.262186 -1.54085 0
M  V30 4506 H 413.634 2.79438 -1.64575 0
M  V30 4507 H 413.419 2.13087 -3.29145 0
M  V30 4508 H 414.909 3.02906 -2.87468 0
M  V30 4509 N 415.346 1.54954 0.287554 0
M  V30 4510 C 416.279 1.81737 1.3801 0
M  V30 4511 C 417.257 0.669412 1.48181 0
M  V30 4512 O 418.441 0.910839 1.65033 0
M  V30 4513 C 415.568 1.96606 2.75796 0
M  V30 4514 C 414.614 3.19098 2.82982 0
M  V30 4515 S 415.447 4.7683 2.43707 0
M  V30 4516 C 416.603 4.94653 3.83496 0
M  V30 4517 H 416.836 2.74122 1.15085 0
M  V30 4518 H 414.369 1.46538 0.486403 0
M  V30 4519 H 416.327 2.05858 3.55152 0
M  V30 4520 H 414.988 1.05136 2.95982 0
M  V30 4521 H 414.181 3.26344 3.84077 0
M  V30 4522 H 413.783 3.08361 2.11635 0
M  V30 4523 H 416.075 4.79502 4.78628 0
M  V30 4524 H 417.018 5.96728 3.8121 0
M  V30 4525 H 417.426 4.2272 3.74123 0
M  V30 4526 N 416.824 -0.551391 1.4764 0
M  V30 4527 C 417.754 -1.66757 1.63445 0
M  V30 4528 C 418.735 -1.63077 0.483742 0
M  V30 4529 O 419.92 -1.80607 0.71377 0
M  V30 4530 C 417.05 -3.05387 1.65396 0
M  V30 4531 C 416.004 -3.23918 2.79752 0
M  V30 4532 C 415.33 -4.63393 2.66779 0
M  V30 4533 C 416.63 -3.08735 4.21284 0
M  V30 4534 H 418.324 -1.53786 2.56886 0
M  V30 4535 H 415.87 -0.738415 1.23626 0
M  V30 4536 H 417.823 -3.83325 1.75043 0
M  V30 4537 H 416.547 -3.19332 0.685195 0
M  V30 4538 H 415.206 -2.48391 2.69625 0
M  V30 4539 H 414.854 -4.74144 1.67918 0
M  V30 4540 H 414.554 -4.7674 3.43501 0
M  V30 4541 H 416.078 -5.43458 2.78364 0
M  V30 4542 H 417.492 -3.76484 4.32357 0
M  V30 4543 H 415.889 -3.33588 4.98838 0
M  V30 4544 H 416.959 -2.0541 4.39243 0
M  V30 4545 N 418.302 -1.35869 -0.798587 0
M  V30 4546 C 419.548 -1.2978 -1.55836 0
M  V30 4547 C 419.881 0.125322 -1.93795 0
M  V30 4548 O 419.156 1.07658 -1.61987 0
M  V30 4549 C 419.439 -2.21188 -2.84162 0
M  V30 4550 C 419.292 -3.72155 -2.52628 0
M  V30 4551 C 420.611 -2.11545 -3.85923 0
M  V30 4552 H 417.73 -0.472769 -0.565383 0
M  V30 4553 H 420.372 -1.66341 -0.918192 0
M  V30 4554 H 418.522 -1.90139 -3.38791 0
M  V30 4555 H 420.194 -4.13682 -2.04121 0
M  V30 4556 H 418.437 -3.92042 -1.85704 0
M  V30 4557 H 419.108 -4.31511 -3.44242 0
M  V30 4558 H 421.584 -2.38855 -3.40716 0
M  V30 4559 H 420.46 -2.77688 -4.73477 0
M  V30 4560 H 420.721 -1.09987 -4.282 0
M  V30 4561 N 419.78 1.02168 -1.19998 0
M  V30 4562 C 421.02 1.77232 -1.01825 0
M  V30 4563 C 421.384 1.86833 0.442428 0
M  V30 4564 O 422.585 2.58293 0.744189 0
M  V30 4565 C 420.856 3.15601 -1.67722 0
M  V30 4566 S 422.415 4.06765 -1.64584 0
M  V30 4567 H 419.233 0.610021 -0.365233 0
M  V30 4568 H 421.835 1.22368 -1.52467 0
M  V30 4569 H 420.539 3.06235 -2.73218 0
M  V30 4570 H 420.07 3.7554 -1.17189 0
M  V30 4571 H 422.085 4.91586 -0.67511 0
M  V30 4572 N 421.258 1.00505 1.21394 0
M  V30 4573 C 422.483 0.706367 1.95001 0
M  V30 4574 C 422.908 -0.72463 1.73582 0
M  V30 4575 O 422.266 -1.49702 1.0227 0
M  V30 4576 C 422.314 1.03299 3.45487 0
M  V30 4577 O 421.418 0.138275 4.12168 0
M  V30 4578 H 420.759 0.263175 0.609619 0
M  V30 4579 H 423.289 1.34531 1.54151 0
M  V30 4580 H 423.299 0.979872 3.96059 0
M  V30 4581 H 421.974 2.07567 3.60401 0
M  V30 4582 H 420.551 0.247928 3.72075 0
M  V30 4583 N 422.737 -1.36956 0.779787 0
M  V30 4584 C 423.965 -2.03755 0.359398 0
M  V30 4585 C 424.38 -1.58807 -1.02106 0
M  V30 4586 O 423.737 -0.773024 -1.6532 0
M  V30 4587 C 423.788 -3.59251 0.402568 0
M  V30 4588 O 423.509 -4.02557 1.72858 0
M  V30 4589 C 425.01 -4.43291 -0.0284068 0
M  V30 4590 H 422.23 -0.654148 0.149437 0
M  V30 4591 H 424.774 -1.75128 1.05595 0
M  V30 4592 H 422.929 -3.86621 -0.245478 0
M  V30 4593 H 423.343 -4.97111 1.67275 0
M  V30 4594 H 424.817 -5.51975 0.0529466 0
M  V30 4595 H 425.294 -4.25719 -1.07982 0
M  V30 4596 H 425.9 -4.21163 0.591758 0
M  V30 4597 N 424.215 -0.530993 -1.48385 0
M  V30 4598 C 425.626 -0.0907905 -1.86479 0
M  V30 4599 C 425.977 1.33213 -1.44044 0
M  V30 4600 O 425.102 1.99783 -0.831615 0
M  V30 4601 C 425.697 -0.157987 -3.38431 0
M  V30 4602 C 424.256 0.227026 -3.75715 0
M  V30 4603 C 423.403 -0.5173 -2.72432 0
M  V30 4604 H 426.354 -0.742186 -1.40276 0
M  V30 4605 H 426.375 0.630053 -3.75247 0
M  V30 4606 H 425.887 -1.19372 -3.69286 0
M  V30 4607 H 423.988 1.26486 -3.50474 0
M  V30 4608 H 424.101 -0.113288 -4.78966 0
M  V30 4609 H 422.465 0.0365527 -2.54674 0
M  V30 4610 H 423.248 -1.55368 -3.0613 0
M  V30 4611 N 425.693 1.55336 -0.266172 0
M  V30 4612 C 426.625 2.19544 0.658247 0
M  V30 4613 C 427.638 1.17746 1.12427 0
M  V30 4614 O 428.827 1.44517 1.04772 0
M  V30 4615 C 425.927 2.80032 1.9088 0
M  V30 4616 C 425.1 4.07436 1.59106 0
M  V30 4617 C 424.159 4.52056 2.69317 0
M  V30 4618 O 423.185 5.18023 2.35883 0
M  V30 4619 N 424.387 4.21448 3.99201 0
M  V30 4620 H 427.152 2.99503 0.108754 0
M  V30 4621 H 424.713 1.61667 -0.0869059 0
M  V30 4622 H 426.705 3.06831 2.63888 0
M  V30 4623 H 425.275 2.04119 2.36758 0
M  V30 4624 H 424.495 3.88021 0.695243 0
M  V30 4625 H 425.783 4.90462 1.35367 0
M  V30 4626 H 425.181 3.68528 4.29189 0
M  V30 4627 H 423.738 4.53039 4.68614 0
M  V30 4628 N 427.171 -0.0066808 1.57599 0
M  V30 4629 C 428.418 -0.69292 1.90276 0
M  V30 4630 C 428.746 -1.74148 0.866192 0
M  V30 4631 O 428.001 -1.95268 -0.129933 0
M  V30 4632 C 428.3 -1.37939 3.29708 0
M  V30 4633 C 427.966 -0.464679 4.48499 0
M  V30 4634 C 426.628 -0.212809 4.80729 0
M  V30 4635 C 428.98 0.16551 5.20937 0
M  V30 4636 C 426.308 0.677653 5.82773 0
M  V30 4637 C 428.66 1.04381 6.23929 0
M  V30 4638 C 427.324 1.30492 6.54621 0
M  V30 4639 H 426.594 -0.253558 0.696268 0
M  V30 4640 H 429.241 0.0474123 1.91441 0
M  V30 4641 H 427.546 -2.1936 3.24636 0
M  V30 4642 H 429.243 -1.9163 3.52249 0
M  V30 4643 H 425.833 -0.671153 4.23313 0
M  V30 4644 H 430.017 -0.0160756 4.96297 0
M  V30 4645 H 425.273 0.88803 6.04917 0
M  V30 4646 H 429.447 1.53851 6.79193 0
M  V30 4647 H 427.074 1.99662 7.33512 0
M  V30 4648 N 428.649 -1.55105 -0.279332 0
M  V30 4649 C 430.06 -1.66186 -0.850832 0
M  V30 4650 C 430.411 -0.584707 -1.87285 0
M  V30 4651 O 429.536 0.274919 -2.14647 0
M  V30 4652 C 430.131 -3.01264 -1.55001 0
M  V30 4653 C 428.69 -3.14394 -2.06963 0
M  V30 4654 C 427.837 -2.61959 -0.909536 0
M  V30 4655 H 430.788 -1.58602 -0.0558235 0
M  V30 4656 H 430.809 -2.93899 -2.41669 0
M  V30 4657 H 430.321 -3.7964 -0.805931 0
M  V30 4658 H 428.422 -2.4078 -2.84352 0
M  V30 4659 H 428.535 -4.20867 -2.28928 0
M  V30 4660 H 426.899 -2.18957 -1.30116 0
M  V30 4661 H 427.682 -3.42833 -0.179062 0
M  V30 4662 N 430.127 0.543554 -1.4793 0
M  V30 4663 C 431.077 1.64527 -1.57844 0
M  V30 4664 C 432.061 1.54869 -0.436408 0
M  V30 4665 O 433.253 1.63119 -0.687101 0
M  V30 4666 C 430.382 3.03281 -1.6086 0
M  V30 4667 C 429.468 3.18093 -2.80495 0
M  V30 4668 N 429.859 3.02923 -4.05057 0
M  V30 4669 C 428.157 3.49121 -2.77543 0
M  V30 4670 C 428.858 3.20791 -4.85251 0
M  V30 4671 N 427.834 3.47749 -4.17818 0
M  V30 4672 H 431.636 1.51388 -2.5191 0
M  V30 4673 H 429.15 0.748671 -1.44113 0
M  V30 4674 H 431.147 3.82403 -1.66054 0
M  V30 4675 H 429.807 3.17521 -0.678996 0
M  V30 4676 H 430.818 2.79966 -4.35705 0
M  V30 4677 H 427.495 3.69804 -1.93781 0
M  V30 4678 H 428.885 3.13915 -5.9406 0
M  V30 4679 N 431.605 1.3629 0.791371 0
M  V30 4680 C 432.853 1.30154 1.5461 0
M  V30 4681 C 433.174 -0.119409 1.94634 0
M  V30 4682 O 432.444 -1.05924 1.64794 0
M  V30 4683 H 431.024 0.478784 0.573389 0
M  V30 4684 H 433.686 1.70565 0.94306 0
M  V30 4685 H 432.782 1.92762 2.45457 0
M  V30 4686 N 433.083 -1.0153 1.20538 0
M  V30 4687 C 434.329 -1.75408 1.01783 0
M  V30 4688 C 434.662 -1.88943 -0.448814 0
M  V30 4689 O 433.937 -1.4162 -1.33319 0
M  V30 4690 C 434.22 -3.17255 1.70356 0
M  V30 4691 C 434.073 -3.11508 3.24473 0
M  V30 4692 C 435.392 -4.15955 1.43769 0
M  V30 4693 H 432.511 -0.636713 0.371167 0
M  V30 4694 H 435.153 -1.18436 1.4857 0
M  V30 4695 H 433.303 -3.65898 1.30578 0
M  V30 4696 H 434.975 -2.70658 3.73553 0
M  V30 4697 H 433.218 -2.4887 3.55311 0
M  V30 4698 H 433.889 -4.11784 3.67611 0
M  V30 4699 H 436.365 -3.75973 1.7828 0
M  V30 4700 H 435.241 -5.13368 1.94279 0
M  V30 4701 H 435.502 -4.40586 0.365564 0
M  V30 4702 N 434.561 -1.01147 -1.20859 0
M  V30 4703 C 435.81 -0.693214 -1.89413 0
M  V30 4704 C 436.123 0.779969 -1.79376 0
M  V30 4705 O 437.329 1.21057 -2.43017 0
M  V30 4706 C 435.785 -1.18949 -3.39675 0
M  V30 4707 C 435.393 -2.68921 -3.58309 0
M  V30 4708 C 437.137 -0.94642 -4.13815 0
M  V30 4709 C 435.044 -3.12056 -5.0237 0
M  V30 4710 H 433.974 -0.255595 -0.709357 0
M  V30 4711 H 436.625 -1.22349 -1.36759 0
M  V30 4712 H 435.007 -0.587228 -3.91622 0
M  V30 4713 H 436.181 -3.34652 -3.16772 0
M  V30 4714 H 434.496 -2.91314 -2.97532 0
M  V30 4715 H 437.093 -1.24417 -5.20023 0
M  V30 4716 H 437.436 0.117219 -4.16135 0
M  V30 4717 H 437.969 -1.5118 -3.67953 0
M  V30 4718 H 434.708 -4.17674 -5.05202 0
M  V30 4719 H 434.228 -2.51041 -5.44737 0
M  V30 4720 H 435.907 -3.04403 -5.70918 0
M  V30 4721 N 436.039 1.36541 -0.78704 0
M  V30 4722 C 437.316 1.9355 -0.282424 0
M  V30 4723 C 437.696 1.71919 1.22503 0
M  V30 4724 O 437.044 1.07677 2.01539 0
M  V30 4725 C 437.254 3.4246 -0.672462 0
M  V30 4726 C 438.602 4.19582 -0.650863 0
M  V30 4727 O 439.626 3.50889 -0.612789 0
M  V30 4728 O 438.485 5.42106 -0.691623 0
M  V30 4729 H 435.579 0.824091 -0.0693 0
M  V30 4730 H 438.125 1.45736 -0.869423 0
M  V30 4731 H 436.897 3.51851 -1.71221 0
M  V30 4732 H 436.52 3.97556 -0.0592211 0
M  V30 4733 N 437.518 0.538854 1.48102 0
M  V30 4734 C 438.929 0.100679 1.86428 0
M  V30 4735 C 439.28 -1.32447 1.44749 0
M  V30 4736 O 438.405 -1.99339 0.842199 0
M  V30 4737 C 439 0.175933 3.38343 0
M  V30 4738 C 437.559 -0.207098 3.7583 0
M  V30 4739 C 436.706 0.531741 2.72154 0
M  V30 4740 H 439.657 0.749614 1.3988 0
M  V30 4741 H 439.678 -0.610144 3.75576 0
M  V30 4742 H 439.19 1.21328 3.68648 0
M  V30 4743 H 437.291 -1.24626 3.5114 0
M  V30 4744 H 437.404 0.138687 4.78899 0
M  V30 4745 H 435.768 -0.0230462 2.5469 0
M  V30 4746 H 436.551 1.56989 3.05302 0
M  V30 4747 N 438.996 -1.55193 0.274407 0
M  V30 4748 C 440.242 -1.99877 -0.343086 0
M  V30 4749 C 440.575 -1.16256 -1.55558 0
M  V30 4750 O 439.85 -0.232462 -1.93106 0
M  V30 4751 C 440.133 -3.52706 -0.725965 0
M  V30 4752 C 439.986 -4.47081 0.493818 0
M  V30 4753 C 441.305 -4.11422 -1.56268 0
M  V30 4754 H 438.424 -0.726625 -0.123229 0
M  V30 4755 H 441.066 -1.86136 0.38121 0
M  V30 4756 H 439.216 -3.64546 -1.34307 0
M  V30 4757 H 440.888 -4.47186 1.13237 0
M  V30 4758 H 439.131 -4.1877 1.13201 0
M  V30 4759 H 439.802 -5.51699 0.18217 0
M  V30 4760 H 442.278 -4.02855 -1.04151 0
M  V30 4761 H 441.154 -5.18568 -1.79939 0
M  V30 4762 H 441.415 -3.61607 -2.54348 0
M  V30 4763 N 440.474 -0.00167713 -1.576 0
M  V30 4764 C 441.885 0.54091 -1.78693 0
M  V30 4765 C 442.236 1.7386 -0.909247 0
M  V30 4766 O 441.361 2.16109 -0.112176 0
M  V30 4767 C 441.956 0.98806 -3.24072 0
M  V30 4768 C 440.515 1.47594 -3.46256 0
M  V30 4769 C 439.662 0.42792 -2.73978 0
M  V30 4770 H 442.613 -0.22784 -1.57056 0
M  V30 4771 H 442.634 1.85398 -3.32277 0
M  V30 4772 H 442.146 0.116164 -3.87926 0
M  V30 4773 H 440.247 2.36868 -2.87618 0
M  V30 4774 H 440.36 1.50225 -4.54939 0
M  V30 4775 H 438.724 0.889934 -2.38647 0
M  V30 4776 H 439.507 -0.435038 -3.40532 0
M  V30 4777 N 441.952 1.55251 0.271103 0
M  V30 4778 C 442.862 1.9136 1.35714 0
M  V30 4779 C 443.878 0.811075 1.5394 0
M  V30 4780 O 445.054 1.11031 1.6803 0
M  V30 4781 C 442.119 2.1798 2.69603 0
M  V30 4782 C 441.18 3.4153 2.60107 0
M  V30 4783 C 440.413 3.66871 3.8761 0
M  V30 4784 O 440.636 2.94689 4.8838 0
M  V30 4785 O 439.57 4.60405 3.87699 0
M  V30 4786 H 443.396 2.83815 1.08088 0
M  V30 4787 H 440.981 1.41821 0.469792 0
M  V30 4788 H 442.863 2.36518 3.48765 0
M  V30 4789 H 441.538 1.28708 2.97012 0
M  V30 4790 H 440.445 3.28325 1.79314 0
M  V30 4791 H 441.778 4.31027 2.37647 0
M  V30 4792 N 443.43 -0.535701 1.48216 0
M  V30 4793 C 444.676 -1.29375 1.56173 0
M  V30 4794 C 445.009 -1.92804 0.232429 0
M  V30 4795 O 444.284 -1.78992 -0.761048 0
M  V30 4796 C 444.567 -2.38747 2.69577 0
M  V30 4797 C 444.42 -1.80046 4.12193 0
M  V30 4798 C 445.739 -3.40551 2.78771 0
M  V30 4799 H 442.858 -0.469027 0.568491 0
M  V30 4800 H 445.5 -0.597358 1.80365 0
M  V30 4801 H 443.65 -2.98147 2.4908 0
M  V30 4802 H 445.322 -1.24742 4.44114 0
M  V30 4803 H 443.565 -1.10609 4.19462 0
M  V30 4804 H 444.236 -2.59212 4.87353 0
M  V30 4805 H 446.712 -2.91099 2.97322 0
M  V30 4806 H 445.588 -4.1448 3.59857 0
M  V30 4807 H 445.849 -4.00746 1.86696 0
M  V30 4808 N 444.908 -1.36708 -0.784132 0
M  V30 4809 C 445.871 -1.31307 -1.87859 0
M  V30 4810 C 446.871 -0.219654 -1.59293 0
M  V30 4811 O 448.061 -0.47476 -1.67606 0
M  V30 4812 C 445.193 -1.03679 -3.24751 0
M  V30 4813 H 446.386 -2.28647 -1.94064 0
M  V30 4814 H 443.939 -1.21558 -0.98252 0
M  V30 4815 H 444.674 -0.0681936 -3.24228 0
M  V30 4816 H 444.459 -1.82811 -3.46876 0
M  V30 4817 H 445.949 -1.02518 -4.04821 0
M  V30 4818 N 446.386 1.0089 -1.21074 0
M  V30 4819 C 447.333 2.09588 -0.966512 0
M  V30 4820 C 448.303 1.65761 0.106089 0
M  V30 4821 O 449.488 1.90758 -0.0402287 0
M  V30 4822 C 446.628 3.40958 -0.533058 0
M  V30 4823 C 445.741 3.9822 -1.67467 0
M  V30 4824 C 444.876 5.17682 -1.19076 0
M  V30 4825 C 443.915 5.67043 -2.30496 0
M  V30 4826 N 443.052 6.77759 -1.83267 0
M  V30 4827 H 447.892 2.29815 -1.89708 0
M  V30 4828 H 445.429 1.12689 -0.945489 0
M  V30 4829 H 447.387 4.1637 -0.263019 0
M  V30 4830 H 446.017 3.20781 0.360505 0
M  V30 4831 H 445.069 3.1983 -2.05944 0
M  V30 4832 H 446.381 4.3085 -2.51336 0
M  V30 4833 H 445.535 6.00326 -0.877151 0
M  V30 4834 H 444.274 4.86635 -0.322066 0
M  V30 4835 H 443.279 4.82999 -2.62664 0
M  V30 4836 H 444.504 6.00121 -3.17855 0
M  V30 4837 H 442.45 6.48527 -0.987356 0
M  V30 4838 H 442.367 7.09624 -2.60711 0
M  V30 4839 H 443.635 7.63949 -1.54928 0
M  V30 4840 N 447.864 1.01787 1.20321 0
M  V30 4841 C 448.794 0.609625 2.25401 0
M  V30 4842 C 449.775 -0.375951 1.65893 0
M  V30 4843 O 450.96 -0.261101 1.92437 0
M  V30 4844 C 448.09 -0.0515995 3.47262 0
M  V30 4845 C 447.044 0.855095 4.19371 0
M  V30 4846 C 446.37 0.0595757 5.34667 0
M  V30 4847 C 447.67 2.16374 4.75373 0
M  V30 4848 H 449.364 1.48803 2.59804 0
M  V30 4849 H 446.91 0.716934 1.24884 0
M  V30 4850 H 448.863 -0.348764 4.19954 0
M  V30 4851 H 447.587 -0.964726 3.12027 0
M  V30 4852 H 446.246 1.13628 3.48546 0
M  V30 4853 H 445.894 -0.85524 4.95676 0
M  V30 4854 H 445.594 0.663406 5.83843 0
M  V30 4855 H 447.118 -0.231105 6.10162 0
M  V30 4856 H 448.532 1.92885 5.39878 0
M  V30 4857 H 446.929 2.71853 5.34991 0
M  V30 4858 H 447.999 2.82589 3.94045 0
M  V30 4859 N 449.342 -1.36122 0.79427 0
M  V30 4860 C 450.305 -2.28309 0.201889 0
M  V30 4861 C 451.305 -1.49041 -0.603603 0
M  V30 4862 O 452.495 -1.68964 -0.423888 0
M  V30 4863 C 449.627 -3.3321 -0.719978 0
M  V30 4864 H 450.82 -2.82208 1.01481 0
M  V30 4865 H 448.373 -1.45768 0.564037 0
M  V30 4866 H 449.108 -2.84475 -1.55706 0
M  V30 4867 H 448.893 -3.91835 -0.144266 0
M  V30 4868 H 450.383 -4.02044 -1.12916 0
M  V30 4869 N 450.82 -0.546701 -1.47814 0
M  V30 4870 C 452.066 -0.0187684 -2.02791 0
M  V30 4871 C 452.399 1.32338 -1.42128 0
M  V30 4872 O 451.674 1.85867 -0.573023 0
M  V30 4873 C 451.957 0.0854985 -3.59998 0
M  V30 4874 C 451.81 -1.283 -4.31114 0
M  V30 4875 C 453.129 0.80412 -4.32691 0
M  V30 4876 H 450.248 -0.0082946 -0.736953 0
M  V30 4877 H 452.89 -0.706962 -1.76358 0
M  V30 4878 H 451.04 0.671609 -3.82651 0
M  V30 4879 H 452.712 -1.91151 -4.19832 0
M  V30 4880 H 450.955 -1.86049 -3.91878 0
M  V30 4881 H 451.626 -1.16287 -5.39612 0
M  V30 4882 H 454.102 0.306576 -4.14969 0
M  V30 4883 H 452.978 0.846011 -5.42341 0
M  V30 4884 H 453.239 1.85802 -4.01161 0
M  V30 4885 N 452.299 1.55045 -0.282633 0
M  V30 4886 C 453.246 2.22822 0.601566 0
M  V30 4887 C 454.216 1.20431 1.14392 0
M  V30 4888 O 455.401 1.48996 1.19184 0
M  V30 4889 C 452.541 2.95873 1.77632 0
M  V30 4890 C 451.654 4.12999 1.26711 0
M  V30 4891 C 450.789 4.73676 2.40426 0
M  V30 4892 C 449.828 5.82981 1.86545 0
M  V30 4893 N 448.965 6.3769 2.93762 0
M  V30 4894 H 453.805 2.97995 0.0169528 0
M  V30 4895 H 451.342 1.471 -0.00339964 0
M  V30 4896 H 453.3 3.36447 2.46697 0
M  V30 4897 H 451.93 2.2311 2.33285 0
M  V30 4898 H 450.982 3.77494 0.469314 0
M  V30 4899 H 452.294 4.91803 0.832518 0
M  V30 4900 H 451.448 5.17008 3.17471 0
M  V30 4901 H 450.187 3.94164 2.87203 0
M  V30 4902 H 449.192 5.39092 1.07983 0
M  V30 4903 H 450.417 6.64366 1.40694 0
M  V30 4904 H 448.363 5.61069 3.39908 0
M  V30 4905 H 448.28 7.11788 2.54744 0
M  V30 4906 H 449.548 6.8568 3.7076 0
M  V30 4907 N 453.777 0.010035 1.57597 0
M  V30 4908 C 455.007 -0.682422 1.95004 0
M  V30 4909 C 455.415 -1.67278 0.884014 0
M  V30 4910 O 454.758 -1.83129 -0.144672 0
M  V30 4911 C 454.82 -1.46141 3.28456 0
M  V30 4912 C 454.484 -0.631523 4.52615 0
M  V30 4913 C 455.481 0.0850905 5.1983 0
M  V30 4914 C 453.166 -0.574539 4.99003 0
M  V30 4915 C 455.16 0.847566 6.3174 0
M  V30 4916 C 452.847 0.191655 6.10799 0
M  V30 4917 C 453.845 0.901432 6.77025 0
M  V30 4918 O 453.533 1.65511 7.86677 0
M  V30 4919 H 453.265 -0.194361 0.647456 0
M  V30 4920 H 455.819 0.060312 2.05311 0
M  V30 4921 H 454.049 -2.24885 3.14585 0
M  V30 4922 H 455.738 -2.04016 3.50902 0
M  V30 4923 H 456.504 0.0502812 4.84974 0
M  V30 4924 H 452.383 -1.11654 4.47274 0
M  V30 4925 H 455.927 1.4021 6.83364 0
M  V30 4926 H 451.824 0.228249 6.45096 0
M  V30 4927 H 452.592 1.57287 8.03245 0
M  V30 4928 N 455.255 -1.55392 -0.262866 0
M  V30 4929 C 456.202 -1.88966 -1.32516 0
M  V30 4930 C 457.172 -0.742187 -1.48596 0
M  V30 4931 O 458.357 -0.99439 -1.62839 0
M  V30 4932 C 455.497 -2.17592 -2.67858 0
M  V30 4933 C 454.61 -3.45061 -2.59917 0
M  V30 4934 C 453.745 -3.63336 -3.87505 0
M  V30 4935 C 452.784 -4.84462 -3.74116 0
M  V30 4936 N 451.921 -4.99342 -4.93561 0
M  V30 4937 H 456.761 -2.79566 -1.03184 0
M  V30 4938 H 454.298 -1.38404 -0.498285 0
M  V30 4939 H 456.256 -2.3219 -3.46617 0
M  V30 4940 H 454.886 -1.30215 -2.95371 0
M  V30 4941 H 453.938 -3.38881 -1.72812 0
M  V30 4942 H 455.25 -4.3396 -2.45926 0
M  V30 4943 H 454.404 -3.77807 -4.74707 0
M  V30 4944 H 453.143 -2.72641 -4.04374 0
M  V30 4945 H 452.148 -4.69985 -2.85297 0
M  V30 4946 H 453.373 -5.76603 -3.58757 0
M  V30 4947 H 451.319 -4.1158 -5.10821 0
M  V30 4948 H 451.236 -5.82303 -4.82141 0
M  V30 4949 H 452.504 -5.18208 -5.82306 0
M  V30 4950 N 456.733 0.527833 -1.48498 0
M  V30 4951 C 457.982 1.28003 -1.55878 0
M  V30 4952 C 458.295 1.9414 -0.238577 0
M  V30 4953 O 459.501 2.7083 -0.190643 0
M  V30 4954 C 457.957 2.32272 -2.74914 0
M  V30 4955 C 457.565 1.72196 -4.13585 0
M  V30 4956 C 459.309 3.08488 -2.91608 0
M  V30 4957 C 457.216 2.74417 -5.23879 0
M  V30 4958 H 456.146 0.481413 -0.580308 0
M  V30 4959 H 458.797 0.557195 -1.74836 0
M  V30 4960 H 457.179 3.07601 -2.49395 0
M  V30 4961 H 458.353 1.03041 -4.49132 0
M  V30 4962 H 456.668 1.08464 -4.02025 0
M  V30 4963 H 459.265 3.84879 -3.71177 0
M  V30 4964 H 459.608 3.64481 -2.01145 0
M  V30 4965 H 460.141 2.40274 -3.17038 0
M  V30 4966 H 456.88 2.23242 -6.16314 0
M  V30 4967 H 456.4 3.41893 -4.92818 0
M  V30 4968 H 458.079 3.37362 -5.52083 0
M  V30 4969 N 458.211 1.37122 0.776871 0
M  V30 4970 C 459.622 1.28667 1.35284 0
M  V30 4971 C 459.973 -0.0680035 1.96082 0
M  V30 4972 O 459.098 -0.969743 1.93455 0
M  V30 4973 C 459.693 2.32997 2.45963 0
M  V30 4974 C 458.252 2.28191 2.99342 0
M  V30 4975 C 457.399 2.17101 1.72517 0
M  V30 4976 H 460.35 1.47819 0.577527 0
M  V30 4977 H 460.371 1.97366 3.2531 0
M  V30 4978 H 459.883 3.3158 2.01684 0
M  V30 4979 H 457.984 1.33115 3.4801 0
M  V30 4980 H 458.097 3.21397 3.55304 0
M  V30 4981 H 456.461 1.63562 1.95242 0
M  V30 4982 H 457.244 3.17591 1.30348 0
M  V30 4983 N 459.689 -1.00246 1.21608 0
M  V30 4984 C 460.619 -2.10921 1.00172 0
M  V30 4985 C 461.6 -1.69938 -0.0741587 0
M  V30 4986 O 462.785 -1.94009 0.0861753 0
M  V30 4987 C 459.915 -3.42618 0.568355 0
M  V30 4988 C 458.869 -3.97407 1.58909 0
M  V30 4989 C 458.195 -5.25038 1.01187 0
M  V30 4990 C 459.495 -4.2918 2.97661 0
M  V30 4991 H 461.189 -2.29112 1.92739 0
M  V30 4992 H 458.735 -1.10101 0.928102 0
M  V30 4993 H 460.688 -4.19444 0.405555 0
M  V30 4994 H 459.412 -3.24227 -0.392961 0
M  V30 4995 H 458.071 -3.22703 1.73949 0
M  V30 4996 H 457.719 -5.02982 0.0421965 0
M  V30 4997 H 457.419 -5.62661 1.6937 0
M  V30 4998 H 458.943 -6.04507 0.860448 0
M  V30 4999 H 460.357 -4.96839 2.86049 0
M  V30 5000 H 458.754 -4.77952 3.6288 0
M  V30 5001 H 459.824 -3.3735 3.48315 0
M  V30 5002 N 461.167 -1.02423 -1.1978 0
M  V30 5003 C 462.117 -0.571689 -2.20716 0
M  V30 5004 C 463.101 0.377077 -1.56419 0
M  V30 5005 O 464.293 0.198801 -1.7588 0
M  V30 5006 C 461.422 0.0808555 -3.43205 0
M  V30 5007 C 460.508 -0.890073 -4.14655 0
M  V30 5008 N 460.899 -2.05065 -4.62366 0
M  V30 5009 C 459.197 -0.71252 -4.40272 0
M  V30 5010 C 459.898 -2.66264 -5.17183 0
M  V30 5011 N 458.874 -1.94264 -5.07703 0
M  V30 5012 H 462.676 -1.45636 -2.55279 0
M  V30 5013 H 460.19 -0.890596 -1.35802 0
M  V30 5014 H 462.187 0.422654 -4.14752 0
M  V30 5015 H 460.847 0.961274 -3.10144 0
M  V30 5016 H 461.858 -2.43026 -4.57339 0
M  V30 5017 H 458.535 0.119199 -4.1733 0
M  V30 5018 H 459.925 -3.64526 -5.64421 0
M  V30 5019 N 462.645 1.35699 -0.801477 0
M  V30 5020 C 463.891 1.99208 -0.380022 0
M  V30 5021 C 464.224 1.63445 1.04878 0
M  V30 5022 O 463.499 0.895223 1.72673 0
M  V30 5023 C 463.782 3.55755 -0.557708 0
M  V30 5024 C 463.635 4.01332 -2.03107 0
M  V30 5025 C 464.954 4.40096 0.0197968 0
M  V30 5026 H 462.073 0.723667 -0.139552 0
M  V30 5027 H 464.715 1.60928 -1.01006 0
M  V30 5028 H 462.865 3.88494 -0.0213741 0
M  V30 5029 H 464.537 3.79026 -2.62939 0
M  V30 5030 H 462.78 3.52429 -2.52936 0
M  V30 5031 H 463.451 5.10234 -2.1063 0
M  V30 5032 H 465.927 4.13786 -0.438179 0
M  V30 5033 H 464.803 5.48735 -0.134477 0
M  V30 5034 H 465.064 4.2786 1.11303 0
M  V30 5035 N 464.123 0.554532 1.47522 0
M  V30 5036 C 465.4 -0.0360704 1.95567 0
M  V30 5037 C 465.78 -1.48828 1.49711 0
M  V30 5038 O 465.128 -2.16366 0.734717 0
M  V30 5039 C 465.338 0.106631 3.48837 0
M  V30 5040 C 466.686 -0.0400899 4.24581 0
M  V30 5041 O 467.71 0.0340453 3.56184 0
M  V30 5042 O 466.569 -0.199111 5.46137 0
M  V30 5043 H 463.663 -0.0656294 0.824392 0
M  V30 5044 H 466.209 0.620867 1.57935 0
M  V30 5045 H 464.981 1.11727 3.7501 0
M  V30 5046 H 464.604 -0.58804 3.93227 0
M  V30 5047 N 465.601 -1.54893 0.290851 0
M  V30 5048 C 466.564 -2.21824 -0.576784 0
M  V30 5049 C 467.564 -1.20104 -1.06919 0
M  V30 5050 O 468.754 -1.44906 -0.966843 0
M  V30 5051 C 465.886 -2.89662 -1.79747 0
M  V30 5052 H 467.079 -2.99899 0.00784051 0
M  V30 5053 H 464.632 -1.56245 0.0415934 0
M  V30 5054 H 465.367 -2.15639 -2.42219 0
M  V30 5055 H 465.152 -3.64219 -1.45214 0
M  V30 5056 H 466.642 -3.4075 -2.4141 0
M  V30 5057 N 467.08 -0.0183926 -1.57589 0
M  V30 5058 C 468.32 0.666846 -1.93216 0
M  V30 5059 C 468.684 1.69905 -0.894215 0
M  V30 5060 O 469.885 2.436 -1.13633 0
M  V30 5061 C 468.156 1.27684 -3.33814 0
M  V30 5062 S 469.715 1.98464 -3.91353 0
M  V30 5063 H 466.533 0.219826 -0.676164 0
M  V30 5064 H 469.135 -0.0794893 -1.95338 0
M  V30 5065 H 467.839 0.513006 -4.07181 0
M  V30 5066 H 467.37 2.06071 -3.3511 0
M  V30 5067 H 469.385 3.26189 -3.73918 0
M  V30 5068 N 468.558 1.5553 0.254621 0
M  V30 5069 C 469.488 1.9268 1.31897 0
M  V30 5070 C 470.469 0.790797 1.506 0
M  V30 5071 O 471.654 1.05045 1.63337 0
M  V30 5072 C 468.784 2.21477 2.67517 0
M  V30 5073 C 467.738 3.37256 2.63519 0
M  V30 5074 C 467.064 3.51576 4.02862 0
M  V30 5075 C 468.364 4.73157 2.21179 0
M  V30 5076 H 470.058 2.81832 1.01051 0
M  V30 5077 H 467.604 1.35599 0.484662 0
M  V30 5078 H 469.557 2.46055 3.42104 0
M  V30 5079 H 468.281 1.29144 2.99982 0
M  V30 5080 H 466.94 3.12675 1.9139 0
M  V30 5081 H 466.588 2.56676 4.32581 0
M  V30 5082 H 466.288 4.2943 4.01078 0
M  V30 5083 H 467.812 3.78467 4.79161 0
M  V30 5084 H 469.226 4.97158 2.85494 0
M  V30 5085 H 467.623 5.54058 2.30521 0
M  V30 5086 H 468.693 4.70739 1.16332 0
M  V30 5087 N 470.036 -0.519951 1.48776 0
M  V30 5088 C 471.284 -1.2727 1.56993 0
M  V30 5089 C 471.605 -1.9339 0.25004 0
M  V30 5090 O 470.875 -1.81822 -0.729216 0
M  V30 5091 H 469.455 -0.472732 0.578389 0
M  V30 5092 H 472.117 -0.604234 1.85297 0
M  V30 5093 H 471.213 -2.04669 2.3562 0
M  V30 5094 N 471.514 -1.37532 -0.769588 0
M  V30 5095 C 472.762 -1.32597 -1.5252 0
M  V30 5096 C 473.083 0.0884294 -1.94799 0
M  V30 5097 O 472.353 1.03289 -1.66458 0
M  V30 5098 H 470.933 -0.487846 -0.565699 0
M  V30 5099 H 473.595 -1.72044 -0.915806 0
M  V30 5100 H 472.691 -1.96643 -2.42359 0
M  V30 5101 N 472.992 0.995999 -1.22138 0
M  V30 5102 C 474.239 1.7351 -1.04406 0
M  V30 5103 C 474.567 1.89884 0.421244 0
M  V30 5104 O 473.822 1.43683 1.32867 0
M  V30 5105 C 474.121 3.14553 -1.6968 0
M  V30 5106 C 473.787 3.18102 -3.19565 0
M  V30 5107 C 472.449 3.18778 -3.60464 0
M  V30 5108 C 474.801 3.14636 -4.15516 0
M  V30 5109 C 472.129 3.13684 -4.95801 0
M  V30 5110 C 474.481 3.11084 -5.50826 0
M  V30 5111 C 473.145 3.10074 -5.91109 0
M  V30 5112 H 472.415 0.634916 -0.38205 0
M  V30 5113 H 475.062 1.1667 -1.51857 0
M  V30 5114 H 473.367 3.74682 -1.14546 0
M  V30 5115 H 475.064 3.70477 -1.53454 0
M  V30 5116 H 471.654 3.18324 -2.86998 0
M  V30 5117 H 475.838 3.13266 -3.84939 0
M  V30 5118 H 471.094 3.11245 -5.26247 0
M  V30 5119 H 475.268 3.07357 -6.24904 0
M  V30 5120 H 472.895 3.05882 -6.95946 0
M  V30 5121 N 474.47 1.03057 1.19235 0
M  V30 5122 C 475.4 0.633497 2.24742 0
M  V30 5123 C 476.381 -0.358335 1.66283 0
M  V30 5124 O 477.566 -0.240676 1.92703 0
M  V30 5125 C 474.696 -0.0147648 3.47297 0
M  V30 5126 C 473.65 0.899527 4.18441 0
M  V30 5127 C 472.976 0.116281 5.34574 0
M  V30 5128 C 474.276 2.21404 4.73051 0
M  V30 5129 H 475.97 1.5155 2.58211 0
M  V30 5130 H 473.516 0.73014 1.24117 0
M  V30 5131 H 475.469 -0.304202 4.20301 0
M  V30 5132 H 474.193 -0.931577 3.13032 0
M  V30 5133 H 472.852 1.17319 3.47321 0
M  V30 5134 H 472.5 -0.802619 4.96555 0
M  V30 5135 H 472.2 0.725293 5.83107 0
M  V30 5136 H 473.724 -0.166376 6.10373 0
M  V30 5137 H 475.138 1.98601 5.37802 0
M  V30 5138 H 473.535 2.77512 5.32078 0
M  V30 5139 H 474.605 2.86752 3.91026 0
M  V30 5140 N 475.948 -1.35272 0.808662 0
M  V30 5141 C 477.197 -1.97963 0.386483 0
M  V30 5142 C 477.51 -1.64866 -1.05255 0
M  V30 5143 O 478.716 -2.20937 -1.57794 0
M  V30 5144 C 477.172 -3.54162 0.640096 0
M  V30 5145 C 476.78 -3.96166 2.0918 0
M  V30 5146 C 478.524 -4.23553 0.283376 0
M  V30 5147 C 476.431 -5.4522 2.29106 0
M  V30 5148 H 475.361 -0.740742 0.140774 0
M  V30 5149 H 478.012 -1.5431 0.993012 0
M  V30 5150 H 476.394 -3.95983 -0.0364117 0
M  V30 5151 H 477.568 -3.65491 2.80629 0
M  V30 5152 H 475.883 -3.3967 2.40859 0
M  V30 5153 H 478.48 -5.33124 0.410273 0
M  V30 5154 H 478.823 -4.09105 -0.770659 0
M  V30 5155 H 479.356 -3.8716 0.913884 0
M  V30 5156 H 476.095 -5.64638 3.32962 0
M  V30 5157 H 475.615 -5.77457 1.62184 0
M  V30 5158 H 477.294 -6.1171 2.1076 0
M  V30 5159 N 477.426 -0.562348 -1.47226 0
M  V30 5160 C 478.672 -0.0402761 -2.0276 0
M  V30 5161 C 479.005 1.30823 -1.43523 0
M  V30 5162 O 478.28 1.85249 -0.592705 0
M  V30 5163 C 478.563 0.047311 -3.60069 0
M  V30 5164 C 478.416 -1.32865 -4.29729 0
M  V30 5165 C 479.735 0.758182 -4.3352 0
M  V30 5166 H 476.854 -0.0161105 -0.736824 0
M  V30 5167 H 479.496 -0.725628 -1.75598 0
M  V30 5168 H 477.646 0.630986 -3.83342 0
M  V30 5169 H 479.318 -1.95593 -4.17781 0
M  V30 5170 H 477.561 -1.90195 -3.89882 0
M  V30 5171 H 478.232 -1.22004 -5.38349 0
M  V30 5172 H 480.708 0.262546 -4.15271 0
M  V30 5173 H 479.584 0.78844 -5.43208 0
M  V30 5174 H 479.845 1.81537 -4.03109 0
M  V30 5175 N 478.904 1.54736 -0.299062 0
M  V30 5176 C 480.151 2.00101 0.310784 0
M  V30 5177 C 480.479 1.18746 1.54045 0
M  V30 5178 O 479.734 0.251198 1.94081 0
M  V30 5179 C 480.033 3.50199 0.713835 0
M  V30 5180 C 479.699 4.48997 -0.413873 0
M  V30 5181 C 478.361 4.7573 -0.723462 0
M  V30 5182 C 480.713 5.07839 -1.17257 0
M  V30 5183 C 478.041 5.5857 -1.79491 0
M  V30 5184 C 480.393 5.91844 -2.23392 0
M  V30 5185 C 479.057 6.16889 -2.54959 0
M  V30 5186 H 478.327 0.732221 0.113724 0
M  V30 5187 H 480.974 1.86888 -0.417756 0
M  V30 5188 H 479.279 3.61012 1.52243 0
M  V30 5189 H 480.976 3.82723 1.19684 0
M  V30 5190 H 477.566 4.28292 -0.162476 0
M  V30 5191 H 481.75 4.87188 -0.946651 0
M  V30 5192 H 477.006 5.76213 -2.04423 0
M  V30 5193 H 481.18 6.36465 -2.8264 0
M  V30 5194 H 478.807 6.80869 -3.38114 0
M  V30 5195 N 480.382 0.0267497 1.57577 0
M  V30 5196 C 481.315 -0.99059 2.05579 0
M  V30 5197 C 482.293 -1.31884 0.951065 0
M  V30 5198 O 483.477 -1.43592 1.22121 0
M  V30 5199 C 480.604 -2.31125 2.47586 0
M  V30 5200 C 479.65 -2.13777 3.69055 0
M  V30 5201 S 480.483 -1.4388 5.15809 0
M  V30 5202 C 481.639 -2.77321 5.6111 0
M  V30 5203 H 481.872 -0.581976 2.91548 0
M  V30 5204 H 479.405 -0.184876 1.53289 0
M  V30 5205 H 481.363 -3.07049 2.72454 0
M  V30 5206 H 480.024 -2.6912 1.61967 0
M  V30 5207 H 479.217 -3.11405 3.96287 0
M  V30 5208 H 478.819 -1.45996 3.44327 0
M  V30 5209 H 481.111 -3.73565 5.65204 0
M  V30 5210 H 482.054 -2.54756 6.60685 0
M  V30 5211 H 482.462 -2.82459 4.88751 0
M  V30 5212 N 481.861 -1.55662 -0.24637 0
M  V30 5213 C 482.771 -1.93495 -1.32653 0
M  V30 5214 C 483.787 -0.835462 -1.5263 0
M  V30 5215 O 484.963 -1.1369 -1.66242 0
M  V30 5216 C 482.028 -2.22242 -2.66101 0
M  V30 5217 C 481.089 -3.45625 -2.54641 0
M  V30 5218 C 480.322 -3.72991 -3.81724 0
M  V30 5219 O 480.545 -3.02421 -4.8363 0
M  V30 5220 O 479.479 -4.66515 -3.80325 0
M  V30 5221 H 483.305 -2.85498 -1.03559 0
M  V30 5222 H 480.89 -1.42551 -0.44717 0
M  V30 5223 H 482.772 -2.42037 -3.44958 0
M  V30 5224 H 481.447 -1.33417 -2.94926 0
M  V30 5225 H 480.354 -3.31136 -1.74067 0
M  V30 5226 H 481.687 -4.34754 -2.3076 0
M  V30 5227 N 483.339 0.512053 -1.4905 0
M  V30 5228 C 484.286 1.6148 -1.64902 0
M  V30 5229 C 485.256 1.58687 -0.490673 0
M  V30 5230 O 486.441 1.76842 -0.71636 0
M  V30 5231 C 483.581 2.99676 -1.71139 0
M  V30 5232 C 482.694 3.12568 -2.98203 0
M  V30 5233 C 481.829 4.4143 -2.95487 0
M  V30 5234 C 480.868 4.47916 -4.17179 0
M  V30 5235 N 480.005 5.68191 -4.12437 0
M  V30 5236 H 484.845 1.47271 -2.59066 0
M  V30 5237 H 482.382 0.716713 -1.28459 0
M  V30 5238 H 484.34 3.79761 -1.72736 0
M  V30 5239 H 482.97 3.12614 -0.804508 0
M  V30 5240 H 482.022 2.25618 -3.06269 0
M  V30 5241 H 483.334 3.1322 -3.88194 0
M  V30 5242 H 482.488 5.29825 -2.95585 0
M  V30 5243 H 481.227 4.43326 -2.03256 0
M  V30 5244 H 480.232 3.57925 -4.17337 0
M  V30 5245 H 481.457 4.47744 -5.1059 0
M  V30 5246 H 479.403 5.7095 -3.23036 0
M  V30 5247 H 479.32 5.70413 -4.96151 0
M  V30 5248 H 480.588 6.58823 -4.16621 0
M  V30 5249 N 484.817 1.37938 0.762283 0
M  V30 5250 C 485.78 1.34279 1.85747 0
M  V30 5251 C 486.78 0.244969 1.58923 0
M  V30 5252 O 487.97 0.501365 1.66829 0
M  V30 5253 C 485.102 1.08833 3.23061 0
M  V30 5254 H 486.295 2.31705 1.90401 0
M  V30 5255 H 483.848 1.23105 0.963057 0
M  V30 5256 H 484.583 0.119767 3.24079 0
M  V30 5257 H 484.368 1.88306 3.43923 0
M  V30 5258 H 485.858 1.08946 4.03138 0
M  V30 5259 N 486.295 -0.989507 1.22664 0
M  V30 5260 C 487.543 -1.72612 1.05117 0
M  V30 5261 C 487.864 -1.90552 -0.414131 0
M  V30 5262 O 487.134 -1.4676 -1.29762 0
M  V30 5263 H 485.714 -0.639555 0.385977 0
M  V30 5264 H 488.376 -1.19158 1.54232 0
M  V30 5265 H 487.472 -2.71926 1.53175 0
M  V30 5266 N 487.773 -1.03688 -1.18687 0
M  V30 5267 C 489.003 -0.756819 -1.92239 0
M  V30 5268 C 489.411 0.689374 -1.76194 0
M  V30 5269 O 488.754 1.48126 -1.08648 0
M  V30 5270 C 488.816 -1.03851 -3.44173 0
M  V30 5271 C 488.48 -2.47785 -3.83994 0
M  V30 5272 C 489.477 -3.4595 -3.88091 0
M  V30 5273 C 487.162 -2.82397 -4.154 0
M  V30 5274 C 489.156 -4.76779 -4.23038 0
M  V30 5275 C 486.843 -4.13433 -4.50018 0
M  V30 5276 C 487.841 -5.10434 -4.53813 0
M  V30 5277 O 487.529 -6.39122 -4.87625 0
M  V30 5278 H 487.261 -0.275678 -0.617234 0
M  V30 5279 H 489.815 -1.38658 -1.51536 0
M  V30 5280 H 488.045 -0.351612 -3.85098 0
M  V30 5281 H 489.734 -0.746846 -3.9897 0
M  V30 5282 H 490.5 -3.20549 -3.63969 0
M  V30 5283 H 486.379 -2.07568 -4.11627 0
M  V30 5284 H 489.923 -5.52488 -4.25914 0
M  V30 5285 H 485.82 -4.38604 -4.736 0
M  V30 5286 H 486.588 -6.43715 -5.05542 0
M  V30 5287 N 489.251 1.34841 -0.815825 0
M  V30 5288 C 490.662 1.80937 -0.46029 0
M  V30 5289 C 491.013 1.67685 1.01863 0
M  V30 5290 O 490.138 1.21277 1.79223 0
M  V30 5291 C 490.733 3.28509 -0.828708 0
M  V30 5292 C 489.292 3.72712 -0.525644 0
M  V30 5293 C 488.439 2.56676 -1.04941 0
M  V30 5294 H 491.39 1.22688 -1.00664 0
M  V30 5295 H 491.411 3.80279 -0.129757 0
M  V30 5296 H 490.923 3.38122 -1.90513 0
M  V30 5297 H 489.024 3.68642 0.541666 0
M  V30 5298 H 489.137 4.67119 -1.06474 0
M  V30 5299 H 487.501 2.50302 -0.471286 0
M  V30 5300 H 488.284 2.69063 -2.13214 0
M  V30 5301 N 490.729 0.570148 1.46925 0
M  V30 5302 C 491.659 -0.158274 2.32963 0
M  V30 5303 C 492.64 -0.896093 1.44583 0
M  V30 5304 O 493.825 -0.874022 1.7342 0
M  V30 5305 C 490.955 -1.18055 3.26619 0
M  V30 5306 C 489.909 -0.558379 4.24342 0
M  V30 5307 C 489.235 -1.68623 5.07415 0
M  V30 5308 C 490.535 0.496295 5.19937 0
M  V30 5309 H 492.229 0.560046 2.94115 0
M  V30 5310 H 489.775 0.270775 1.41431 0
M  V30 5311 H 491.728 -1.69841 3.85658 0
M  V30 5312 H 490.452 -1.92899 2.63548 0
M  V30 5313 H 489.111 -0.0617157 3.66548 0
M  V30 5314 H 488.759 -2.42402 4.40738 0
M  V30 5315 H 488.459 -1.27564 5.73586 0
M  V30 5316 H 489.983 -2.20709 5.69315 0
M  V30 5317 H 491.397 0.0640052 5.73264 0
M  V30 5318 H 489.794 0.82649 5.94381 0
M  V30 5319 H 490.864 1.38735 4.6463 0
M  V30 5320 N 492.207 -1.54576 0.307264 0
M  V30 5321 C 493.117 -2.27435 -0.57536 0
M  V30 5322 C 494.133 -1.31183 -1.14311 0
M  V30 5323 O 495.309 -1.64175 -1.16656 0
M  V30 5324 C 492.374 -3.00566 -1.72803 0
M  V30 5325 C 491.435 -4.12369 -1.19373 0
M  V30 5326 C 490.668 -4.82003 -2.29147 0
M  V30 5327 O 490.891 -4.51038 -3.49171 0
M  V30 5328 O 489.825 -5.69271 -1.95485 0
M  V30 5329 H 493.651 -3.03696 0.0158558 0
M  V30 5330 H 491.236 -1.49219 0.0735064 0
M  V30 5331 H 493.118 -3.46416 -2.39946 0
M  V30 5332 H 491.793 -2.27195 -2.30574 0
M  V30 5333 H 490.7 -3.70905 -0.487851 0
M  V30 5334 H 492.033 -4.87736 -0.661376 0
M  V30 5335 N 493.685 -0.035106 -1.57561 0
M  V30 5336 C 494.635 0.954034 -2.0708 0
M  V30 5337 C 495.619 1.2818 -0.972558 0
M  V30 5338 O 496.811 1.26691 -1.23606 0
M  V30 5339 C 493.94 2.23442 -2.60631 0
M  V30 5340 C 493.026 1.93475 -3.77396 0
M  V30 5341 N 493.417 1.33802 -4.87781 0
M  V30 5342 C 491.715 2.23434 -3.85996 0
M  V30 5343 C 492.416 1.21103 -5.68954 0
M  V30 5344 N 491.392 1.70855 -5.16052 0
M  V30 5345 H 495.194 0.487731 -2.89825 0
M  V30 5346 H 492.708 0.169759 -1.6151 0
M  V30 5347 H 494.705 2.95183 -2.94402 0
M  V30 5348 H 493.365 2.70693 -1.79319 0
M  V30 5349 H 494.376 1.01227 -5.07911 0
M  V30 5350 H 491.053 2.73317 -3.15601 0
M  V30 5351 H 492.443 0.749105 -6.67711 0
M  V30 5352 N 495.163 1.55791 0.238111 0
M  V30 5353 C 496.574 1.68383 0.806472 0
M  V30 5354 C 496.925 0.634157 1.85669 0
M  V30 5355 O 496.05 -0.217913 2.153 0
M  V30 5356 C 496.645 3.05268 1.46959 0
M  V30 5357 C 495.204 3.1977 1.98555 0
M  V30 5358 C 494.351 2.64279 0.839763 0
M  V30 5359 H 497.302 1.58694 0.0137535 0
M  V30 5360 H 497.323 3.00203 2.33792 0
M  V30 5361 H 496.835 3.81643 0.704993 0
M  V30 5362 H 494.936 2.48234 2.77868 0
M  V30 5363 H 495.049 4.26788 2.17689 0
M  V30 5364 H 493.413 2.22329 1.24265 0
M  V30 5365 H 494.196 3.43187 0.0881032 0
M  V30 5366 N 496.642 -0.504142 1.49319 0
M  V30 5367 C 497.889 -1.25846 1.58647 0
M  V30 5368 C 498.217 -1.92592 0.27177 0
M  V30 5369 O 497.472 -1.81167 -0.74007 0
M  V30 5370 C 497.771 -2.35021 2.69258 0
M  V30 5371 C 497.437 -1.85755 4.1086 0
M  V30 5372 C 496.099 -1.72038 4.49395 0
M  V30 5373 C 498.451 -1.48844 4.99495 0
M  V30 5374 C 495.779 -1.19783 5.74342 0
M  V30 5375 C 498.131 -0.980422 6.24956 0
M  V30 5376 C 496.795 -0.829622 6.62324 0
M  V30 5377 H 496.065 -0.460505 0.580531 0
M  V30 5378 H 498.712 -0.559716 1.83138 0
M  V30 5379 H 497.017 -3.10672 2.38726 0
M  V30 5380 H 498.714 -2.93083 2.73685 0
M  V30 5381 H 495.304 -1.9739 3.80441 0
M  V30 5382 H 499.488 -1.5829 4.70381 0
M  V30 5383 H 494.744 -1.06817 6.01997 0
M  V30 5384 H 498.918 -0.685608 6.93017 0
M  V30 5385 H 496.545 -0.42253 7.59025 0
M  V30 5386 N 498.12 -1.38341 -0.754957 0
M  V30 5387 C 499.397 -1.24995 -1.50451 0
M  V30 5388 C 499.777 0.149244 -2.10572 0
M  V30 5389 O 499.125 1.15861 -1.96948 0
M  V30 5390 C 499.335 -2.35904 -2.57197 0
M  V30 5391 C 500.683 -2.74262 -3.24138 0
M  V30 5392 O 501.707 -2.35205 -2.67501 0
M  V30 5393 O 500.566 -3.4161 -4.26574 0
M  V30 5394 H 497.66 -0.48872 -0.667144 0
M  V30 5395 H 500.206 -1.50165 -0.790486 0
M  V30 5396 H 498.978 -3.2953 -2.11011 0
M  V30 5397 H 498.601 -2.12291 -3.36182 0
M  V30 5398 N 499.598 0.982988 -1.23187 0
M  V30 5399 C 500.845 1.72392 -1.06241 0
M  V30 5400 C 501.173 1.9032 0.40108 0
M  V30 5401 O 500.428 1.45084 1.31336 0
M  V30 5402 C 500.727 3.12736 -1.73006 0
M  V30 5403 C 500.393 3.14695 -3.22921 0
M  V30 5404 C 499.055 3.14937 -3.63824 0
M  V30 5405 C 501.407 3.10211 -4.1883 0
M  V30 5406 C 498.735 3.08408 -4.99101 0
M  V30 5407 C 501.087 3.05224 -5.54095 0
M  V30 5408 C 499.751 3.03787 -5.94365 0
M  V30 5409 H 499.021 0.630829 -0.388762 0
M  V30 5410 H 501.668 1.15053 -1.53085 0
M  V30 5411 H 499.973 3.73446 -1.18514 0
M  V30 5412 H 501.67 3.68828 -1.57374 0
M  V30 5413 H 498.26 3.15262 -2.90358 0
M  V30 5414 H 502.444 3.09166 -3.8824 0
M  V30 5415 H 497.7 3.05646 -5.29519 0
M  V30 5416 H 501.874 3.00712 -6.28128 0
M  V30 5417 H 499.501 2.98483 -6.99151 0
M  V30 5418 N 501.076 1.04316 1.18135 0
M  V30 5419 C 502.492 0.762858 1.40188 0
M  V30 5420 C 502.692 -0.646547 1.90846 0
M  V30 5421 O 501.748 -1.41036 2.0944 0
M  V30 5422 C 503.061 1.81106 2.40044 0
M  V30 5423 C 504.609 1.83226 2.53766 0
M  V30 5424 C 505.084 2.87044 3.56889 0
M  V30 5425 N 506.575 2.85951 3.64398 0
M  V30 5426 C 507.31 3.62932 4.43923 0
M  V30 5427 N 506.806 4.49672 5.27036 0
M  V30 5428 N 508.599 3.51411 4.38711 0
M  V30 5429 H 500.75 1.95264 0.835805 0
M  V30 5430 H 503.013 0.845017 0.429709 0
M  V30 5431 H 502.719 2.82214 2.09876 0
M  V30 5432 H 502.593 1.64529 3.39426 0
M  V30 5433 H 504.98 0.827869 2.8325 0
M  V30 5434 H 505.061 2.03879 1.54489 0
M  V30 5435 H 504.705 3.87663 3.28145 0
M  V30 5436 H 504.635 2.63645 4.5585 0
M  V30 5437 H 507.126 2.23051 3.05052 0
M  V30 5438 H 507.439 5.05116 5.84874 0
M  V30 5439 H 505.784 4.53738 5.26447 0
M  V30 5440 H 508.975 2.83047 3.72829 0
M  V30 5441 H 509.148 4.11654 5.00445 0
M  V30 5442 N 502.554 -1.34406 0.822964 0
M  V30 5443 C 503.8 -1.98578 0.411666 0
M  V30 5444 C 504.133 -1.65093 -1.02264 0
M  V30 5445 O 503.408 -0.92258 -1.71227 0
M  V30 5446 C 503.691 -3.54823 0.614235 0
M  V30 5447 C 503.544 -3.9805 2.09466 0
M  V30 5448 C 504.863 -4.40071 0.050221 0
M  V30 5449 H 501.982 -0.721355 0.151047 0
M  V30 5450 H 504.624 -1.59301 1.03554 0
M  V30 5451 H 502.774 -3.88411 0.0831774 0
M  V30 5452 H 504.446 -3.74795 2.68936 0
M  V30 5453 H 502.689 -3.4836 2.5851 0
M  V30 5454 H 503.36 -5.06819 2.18721 0
M  V30 5455 H 505.836 -4.13037 0.503953 0
M  V30 5456 H 504.712 -5.48452 0.221759 0
M  V30 5457 H 504.973 -4.29576 -1.04482 0
M  V30 5458 N 504.032 -0.577932 -1.46621 0
M  V30 5459 C 504.979 0.158048 -2.30258 0
M  V30 5460 C 505.949 0.888669 -1.40328 0
M  V30 5461 O 507.134 0.880283 -1.6928 0
M  V30 5462 C 504.274 1.16884 -3.24703 0
M  V30 5463 C 503.387 0.442163 -4.29731 0
M  V30 5464 C 502.522 1.44007 -5.11308 0
M  V30 5465 C 501.561 0.69952 -6.0809 0
M  V30 5466 N 500.698 1.64525 -6.82551 0
M  V30 5467 H 505.538 -0.561242 -2.92667 0
M  V30 5468 H 503.075 -0.288591 -1.44241 0
M  V30 5469 H 505.033 1.7677 -3.779 0
M  V30 5470 H 503.663 1.85591 -2.64113 0
M  V30 5471 H 502.715 -0.271632 -3.79429 0
M  V30 5472 H 504.027 -0.136992 -4.98612 0
M  V30 5473 H 503.181 2.11186 -5.68758 0
M  V30 5474 H 501.92 2.05315 -4.42377 0
M  V30 5475 H 500.925 0.0139217 -5.49798 0
M  V30 5476 H 502.15 0.091894 -6.79038 0
M  V30 5477 H 500.096 2.24653 -6.16334 0
M  V30 5478 H 500.013 1.11878 -7.47676 0
M  V30 5479 H 501.281 2.30754 -7.44562 0
M  V30 5480 N 505.51 1.54411 -0.315457 0
M  V30 5481 C 506.758 2.00023 0.288971 0
M  V30 5482 C 507.079 1.20529 1.5329 0
M  V30 5483 O 506.349 0.304986 1.93511 0
M  V30 5484 H 504.929 0.738891 0.109766 0
M  V30 5485 H 507.591 1.90094 -0.430129 0
M  V30 5486 H 506.687 3.07198 0.550999 0
M  V30 5487 N 506.988 0.0434614 1.5754 0
M  V30 5488 C 508.234 -0.632971 1.92669 0
M  V30 5489 C 508.567 -1.70947 0.921446 0
M  V30 5490 O 507.842 -1.94426 -0.0537202 0
M  V30 5491 C 508.125 -1.23619 3.38216 0
M  V30 5492 C 507.978 -0.168274 4.49485 0
M  V30 5493 C 509.297 -2.15008 3.84005 0
M  V30 5494 H 506.416 -0.228629 0.700641 0
M  V30 5495 H 509.058 0.103651 1.89717 0
M  V30 5496 H 507.208 -1.864 3.40863 0
M  V30 5497 H 508.88 0.463196 4.58969 0
M  V30 5498 H 507.123 0.504581 4.30855 0
M  V30 5499 H 507.794 -0.630218 5.48391 0
M  V30 5500 H 510.27 -1.62198 3.83185 0
M  V30 5501 H 509.146 -2.54161 4.86511 0
M  V30 5502 H 509.407 -3.04707 3.20322 0
M  V30 5503 N 508.466 -1.55915 -0.229846 0
M  V30 5504 C 509.694 -1.82617 -0.972562 0
M  V30 5505 C 510.109 -0.621488 -1.78278 0
M  V30 5506 O 509.466 0.409956 -1.77836 0
M  V30 5507 C 509.517 -3.0774 -1.89679 0
M  V30 5508 O 509.238 -4.23559 -1.11934 0
M  V30 5509 C 510.739 -3.47368 -2.75409 0
M  V30 5510 H 507.959 -0.60727 -0.285419 0
M  V30 5511 H 510.503 -2.02996 -0.247579 0
M  V30 5512 H 508.658 -2.89361 -2.57583 0
M  V30 5513 H 509.072 -4.94586 -1.74599 0
M  V30 5514 H 510.546 -4.37977 -3.35977 0
M  V30 5515 H 511.023 -2.68737 -3.47386 0
M  V30 5516 H 511.629 -3.68158 -2.12931 0
M  V30 5517 N 509.944 0.496216 -1.49584 0
M  V30 5518 C 511.169 1.27865 -1.63295 0
M  V30 5519 C 511.594 1.85592 -0.306156 0
M  V30 5520 O 510.952 1.66092 0.726851 0
M  V30 5521 C 511 2.38128 -2.7079 0
M  V30 5522 O 510.104 3.42108 -2.30296 0
M  V30 5523 H 509.445 0.377279 -0.546403 0
M  V30 5524 H 511.975 0.593497 -1.95803 0
M  V30 5525 H 511.985 2.8382 -2.93104 0
M  V30 5526 H 510.66 1.95479 -3.67098 0
M  V30 5527 H 509.237 3.02301 -2.18331 0
M  V30 5528 N 511.423 1.38739 0.74761 0
M  V30 5529 C 512.672 1.3459 1.50228 0
M  V30 5530 C 512.985 -0.0595592 1.95509 0
M  V30 5531 O 514.191 -0.22361 2.70578 0
M  V30 5532 C 512.647 2.36377 2.71393 0
M  V30 5533 C 512.255 3.82573 2.33113 0
M  V30 5534 C 513.999 2.41281 3.49262 0
M  V30 5535 C 511.906 4.76032 3.50924 0
M  V30 5536 H 510.836 0.500312 0.564096 0
M  V30 5537 H 513.487 1.64324 0.8167 0
M  V30 5538 H 511.869 1.99694 3.41962 0
M  V30 5539 H 513.043 4.28227 1.70171 0
M  V30 5540 H 511.358 3.80844 1.68365 0
M  V30 5541 H 513.955 3.08301 4.36869 0
M  V30 5542 H 514.298 1.43353 3.9084 0
M  V30 5543 H 514.831 2.76793 2.85711 0
M  V30 5544 H 511.57 5.75177 3.14408 0
M  V30 5545 H 511.09 4.35066 4.12889 0
M  V30 5546 H 512.769 4.94331 4.17427 0
M  V30 5547 N 512.901 -0.976442 1.23707 0
M  V30 5548 C 514.126 -1.75875 1.09922 0
M  V30 5549 C 514.551 -1.84911 -0.34489 0
M  V30 5550 O 513.909 -1.31363 -1.24954 0
M  V30 5551 C 513.957 -3.16179 1.73388 0
M  V30 5552 O 513.061 -4.00124 0.99871 0
M  V30 5553 H 512.402 -0.540954 0.385052 0
M  V30 5554 H 514.932 -1.22546 1.6384 0
M  V30 5555 H 514.942 -3.66741 1.78788 0
M  V30 5556 H 513.617 -3.08917 2.78466 0
M  V30 5557 H 512.194 -3.58624 1.02193 0
M  V30 5558 N 514.379 -1.04941 -1.1758 0
M  V30 5559 C 515.342 -0.652456 -2.19717 0
M  V30 5560 C 516.342 0.294745 -1.58076 0
M  V30 5561 O 517.532 0.0789579 -1.74021 0
M  V30 5562 C 514.664 0.0420712 -3.40874 0
M  V30 5563 H 515.857 -1.55642 -2.5635 0
M  V30 5564 H 513.41 -0.842995 -1.31618 0
M  V30 5565 H 514.145 0.95943 -3.09783 0
M  V30 5566 H 513.93 -0.638844 -3.86861 0
M  V30 5567 H 515.42 0.306 -4.16477 0
M  V30 5568 N 515.857 1.33968 -0.830081 0
M  V30 5569 C 517.134 1.92554 -0.343858 0
M  V30 5570 C 517.514 1.7573 1.16971 0
M  V30 5571 O 516.862 1.14035 1.98011 0
M  V30 5572 C 517.072 3.40147 -0.781073 0
M  V30 5573 C 518.42 4.17299 -0.78402 0
M  V30 5574 O 519.444 3.48762 -0.724112 0
M  V30 5575 O 518.303 5.39631 -0.863739 0
M  V30 5576 H 515.397 0.821469 -0.0954827 0
M  V30 5577 H 517.943 1.42897 -0.915348 0
M  V30 5578 H 516.715 3.46225 -1.82329 0
M  V30 5579 H 516.338 3.97166 -0.18567 0
M  V30 5580 N 517.335 0.585699 1.46312 0
M  V30 5581 C 518.563 0.0781299 2.06752 0
M  V30 5582 C 518.978 -1.22812 1.43396 0
M  V30 5583 O 518.335 -1.74318 0.540314 0
M  V30 5584 C 518.386 -0.0911927 3.61385 0
M  V30 5585 O 518.107 1.16336 4.22371 0
M  V30 5586 C 519.608 -0.632765 4.38761 0
M  V30 5587 H 516.828 0.0588188 0.668417 0
M  V30 5588 H 519.372 0.807218 1.87894 0
M  V30 5589 H 517.527 -0.770514 3.7966 0
M  V30 5590 H 517.941 0.979082 5.15281 0
M  V30 5591 H 519.415 -0.70041 5.47538 0
M  V30 5592 H 519.892 -1.65039 4.07012 0
M  V30 5593 H 520.498 0.0117856 4.25298 0
M  V30 5594 N 518.813 -1.54241 0.323641 0
M  V30 5595 C 519.763 -2.21071 -0.557833 0
M  V30 5596 C 520.747 -1.19126 -1.08157 0
M  V30 5597 O 521.939 -1.44755 -1.01857 0
M  V30 5598 C 519.068 -2.97208 -1.71821 0
M  V30 5599 C 518.154 -4.06491 -1.20936 0
M  V30 5600 N 518.545 -5.04052 -0.420202 0
M  V30 5601 C 516.843 -4.20443 -1.48808 0
M  V30 5602 C 517.544 -5.81516 -0.146413 0
M  V30 5603 N 516.52 -5.38641 -0.732562 0
M  V30 5604 H 520.322 -2.93853 0.0523921 0
M  V30 5605 H 517.836 -1.61883 0.129502 0
M  V30 5606 H 519.833 -3.4357 -2.36146 0
M  V30 5607 H 518.493 -2.25947 -2.33191 0
M  V30 5608 H 519.504 -5.17862 -0.0630401 0
M  V30 5609 H 516.181 -3.60396 -2.10762 0
M  V30 5610 H 517.571 -6.70119 0.488895 0
M  V30 5611 N 520.291 -0.0518155 -1.57515 0
M  V30 5612 C 521.238 0.922352 -2.11569 0
M  V30 5613 C 522.208 1.30842 -1.02321 0
M  V30 5614 O 523.393 1.39778 -1.29872 0
M  V30 5615 C 520.533 2.19167 -2.6657 0
M  V30 5616 C 519.646 1.86003 -3.89906 0
M  V30 5617 C 518.781 3.07398 -4.33221 0
M  V30 5618 C 517.82 2.70158 -5.49255 0
M  V30 5619 N 516.957 3.84248 -5.8762 0
M  V30 5620 H 521.797 0.454506 -2.94514 0
M  V30 5621 H 519.334 0.212718 -1.45554 0
M  V30 5622 H 521.292 2.93443 -2.96559 0
M  V30 5623 H 519.922 2.63528 -1.86421 0
M  V30 5624 H 518.974 1.01874 -3.66505 0
M  V30 5625 H 520.286 1.54592 -4.74239 0
M  V30 5626 H 519.44 3.89972 -4.64765 0
M  V30 5627 H 518.179 3.41988 -3.477 0
M  V30 5628 H 517.184 1.86001 -5.17382 0
M  V30 5629 H 518.409 2.36759 -6.36492 0
M  V30 5630 H 516.355 4.18638 -5.05053 0
M  V30 5631 H 516.272 3.56538 -6.66646 0
M  V30 5632 H 517.54 4.6746 -6.2378 0
M  V30 5633 N 521.769 1.56035 0.221574 0
M  V30 5634 C 522.999 1.82864 0.961468 0
M  V30 5635 C 523.407 0.628703 1.78449 0
M  V30 5636 O 522.75 -0.412109 1.79018 0
M  V30 5637 C 522.812 3.03425 1.92804 0
M  V30 5638 C 522.476 4.38429 1.28954 0
M  V30 5639 C 523.473 5.15441 0.679431 0
M  V30 5640 C 521.158 4.85151 1.30131 0
M  V30 5641 C 523.152 6.37337 0.0896148 0
M  V30 5642 C 520.839 6.06989 0.707651 0
M  V30 5643 C 521.837 6.82923 0.102855 0
M  V30 5644 O 521.525 8.02456 -0.48157 0
M  V30 5645 H 521.257 0.611883 0.28736 0
M  V30 5646 H 523.811 2.0397 0.241932 0
M  V30 5647 H 522.041 2.78138 2.68656 0
M  V30 5648 H 523.73 3.17127 2.53348 0
M  V30 5649 H 524.496 4.80452 0.662661 0
M  V30 5650 H 520.375 4.26021 1.76145 0
M  V30 5651 H 523.919 6.96547 -0.383069 0
M  V30 5652 H 519.816 6.41451 0.721834 0
M  V30 5653 H 520.584 8.17636 -0.375887 0
M  V30 5654 N 523.247 -0.488276 1.49845 0
M  V30 5655 C 524.495 -1.23911 1.59657 0
M  V30 5656 C 524.816 -1.92816 0.291005 0
M  V30 5657 O 524.086 -1.83328 -0.690485 0
M  V30 5658 H 522.666 -0.460357 0.588286 0
M  V30 5659 H 525.328 -0.564794 1.86537 0
M  V30 5660 H 524.424 -1.99625 2.39909 0
M  V30 5661 N 524.725 -1.39134 -0.740242 0
M  V30 5662 C 525.955 -1.39132 -1.52728 0
M  V30 5663 C 526.363 0.0173133 -1.89192 0
M  V30 5664 O 525.706 0.997715 -1.54244 0
M  V30 5665 C 525.768 -2.1952 -2.84695 0
M  V30 5666 C 525.432 -3.68203 -2.70695 0
M  V30 5667 C 526.429 -4.61401 -2.39593 0
M  V30 5668 C 524.114 -4.11724 -2.8773 0
M  V30 5669 C 526.108 -5.96102 -2.25701 0
M  V30 5670 C 523.795 -5.46503 -2.73456 0
M  V30 5671 C 524.793 -6.38506 -2.42486 0
M  V30 5672 O 524.481 -7.70803 -2.28295 0
M  V30 5673 H 524.213 -0.477263 -0.478744 0
M  V30 5674 H 526.767 -1.83504 -0.922799 0
M  V30 5675 H 524.997 -1.69888 -3.47383 0
M  V30 5676 H 526.686 -2.1176 -3.46284 0
M  V30 5677 H 527.452 -4.29079 -2.26088 0
M  V30 5678 H 523.331 -3.4045 -3.10829 0
M  V30 5679 H 526.875 -6.6788 -2.0145 0
M  V30 5680 H 522.772 -5.78417 -2.86538 0
M  V30 5681 H 523.54 -7.8147 -2.43405 0
M  V30 5682 N 526.204 0.969867 -1.24223 0
M  V30 5683 C 527.167 2.04564 -1.03373 0
M  V30 5684 C 528.167 1.60798 0.00819206 0
M  V30 5685 O 529.357 1.72641 -0.232567 0
M  V30 5686 C 526.489 3.36163 -0.566343 0
M  V30 5687 H 527.682 2.24494 -1.98853 0
M  V30 5688 H 525.235 1.1448 -1.06415 0
M  V30 5689 H 525.97 3.21925 0.391751 0
M  V30 5690 H 525.755 3.69273 -1.31834 0
M  V30 5691 H 527.245 4.1526 -0.441435 0
M  V30 5692 N 527.682 1.05563 1.17022 0
M  V30 5693 C 529.093 0.793475 1.69 0
M  V30 5694 C 529.444 -0.683882 1.83895 0
M  V30 5695 O 528.569 -1.53116 1.5292 0
M  V30 5696 C 529.164 1.43376 3.06967 0
M  V30 5697 C 527.723 1.21956 3.56095 0
M  V30 5698 C 526.87 1.51494 2.3226 0
M  V30 5699 H 529.821 1.22008 1.01487 0
M  V30 5700 H 529.842 0.845068 3.70997 0
M  V30 5701 H 529.354 2.50899 2.96093 0
M  V30 5702 H 527.455 0.163749 3.7224 0
M  V30 5703 H 527.568 1.92713 4.38633 0
M  V30 5704 H 525.932 0.935175 2.3691 0
M  V30 5705 H 526.715 2.60159 2.23992 0
M  V30 5706 N 529.16 -1.33526 0.837174 0
M  V30 5707 C 530.107 -2.29248 0.267169 0
M  V30 5708 C 531.077 -1.54252 -0.616071 0
M  V30 5709 O 532.262 -1.82559 -0.554699 0
M  V30 5710 C 529.402 -3.40638 -0.553152 0
M  V30 5711 C 528.515 -4.30548 0.353921 0
M  V30 5712 C 527.65 -5.29051 -0.477339 0
M  V30 5713 C 526.689 -6.106 0.42823 0
M  V30 5714 N 525.826 -7.01152 -0.364801 0
M  V30 5715 H 530.666 -2.77398 1.08877 0
M  V30 5716 H 528.203 -1.36496 0.54838 0
M  V30 5717 H 530.161 -4.03921 -1.04422 0
M  V30 5718 H 528.791 -2.93685 -1.33973 0
M  V30 5719 H 527.843 -3.68001 0.963289 0
M  V30 5720 H 529.155 -4.87631 1.04964 0
M  V30 5721 H 528.309 -5.97853 -1.0323 0
M  V30 5722 H 527.048 -4.72541 -1.2065 0
M  V30 5723 H 526.053 -5.40718 0.995219 0
M  V30 5724 H 527.278 -6.69193 1.15573 0
M  V30 5725 H 525.224 -6.47092 -1.07738 0
M  V30 5726 H 525.141 -7.5551 0.272238 0
M  V30 5727 H 526.409 -7.74263 -0.902054 0
M  V30 5728 N 530.638 -0.59345 -1.46 0
M  V30 5729 C 531.886 -0.082988 -2.0193 0
M  V30 5730 C 532.207 1.28569 -1.46612 0
M  V30 5731 O 531.477 1.84629 -0.654909 0
M  V30 5732 H 530.057 -0.0276882 -0.746487 0
M  V30 5733 H 532.719 -0.771657 -1.78973 0
M  V30 5734 H 531.815 -0.022079 -3.12092 0
M  V30 5735 N 532.116 1.54067 -0.331816 0
M  V30 5736 C 533.341 2.05599 0.272705 0
M  V30 5737 C 533.766 1.2059 1.44359 0
M  V30 5738 O 533.124 0.216907 1.79998 0
M  V30 5739 C 533.172 3.54188 0.677021 0
M  V30 5740 O 532.276 3.72082 1.77844 0
M  V30 5741 H 531.617 0.662286 0.0476801 0
M  V30 5742 H 534.147 1.98826 -0.482624 0
M  V30 5743 H 534.157 3.96608 0.957415 0
M  V30 5744 H 532.832 4.15513 -0.179325 0
M  V30 5745 H 531.409 3.41566 1.49622 0
M  V30 5746 N 533.594 0.0601682 1.57485 0
M  V30 5747 C 534.819 -0.624416 1.97777 0
M  V30 5748 C 535.244 -1.63051 0.937867 0
M  V30 5749 O 534.602 -1.81036 -0.0978845 0
M  V30 5750 C 534.65 -1.27979 3.37126 0
M  V30 5751 O 533.754 -2.39556 3.35688 0
M  V30 5752 H 533.095 -0.161581 0.64404 0
M  V30 5753 H 535.625 0.131237 2.04179 0
M  V30 5754 H 535.635 -1.62937 3.74053 0
M  V30 5755 H 534.31 -0.542501 4.12347 0
M  V30 5756 H 532.887 -2.06478 3.10517 0
M  V30 5757 N 535.072 -1.5615 -0.213296 0
M  V30 5758 C 536.002 -1.96109 -1.26742 0
M  V30 5759 C 536.983 -0.830448 -1.48451 0
M  V30 5760 O 538.168 -1.09339 -1.60495 0
M  V30 5761 C 535.298 -2.28492 -2.61551 0
M  V30 5762 C 534.252 -3.44124 -2.54485 0
M  V30 5763 C 533.578 -3.62134 -3.93399 0
M  V30 5764 C 534.878 -4.78855 -2.08556 0
M  V30 5765 H 536.572 -2.84412 -0.935434 0
M  V30 5766 H 534.118 -1.36836 -0.44854 0
M  V30 5767 H 536.071 -2.55039 -3.3546 0
M  V30 5768 H 534.795 -1.37052 -2.96453 0
M  V30 5769 H 533.454 -3.17639 -1.83033 0
M  V30 5770 H 533.102 -2.68055 -4.25623 0
M  V30 5771 H 532.802 -4.39913 -3.89551 0
M  V30 5772 H 534.326 -3.91038 -4.68958 0
M  V30 5773 H 535.74 -5.04552 -2.72213 0
M  V30 5774 H 534.137 -5.59975 -2.1575 0
M  V30 5775 H 535.207 -4.73657 -1.03811 0
M  V30 5776 N 536.55 0.480323 -1.50102 0
M  V30 5777 C 537.796 1.23489 -1.60867 0
M  V30 5778 C 538.129 1.91809 -0.303827 0
M  V30 5779 O 537.404 1.81694 0.694092 0
M  V30 5780 C 537.687 2.28578 -2.78252 0
M  V30 5781 C 537.54 1.64624 -4.18592 0
M  V30 5782 C 538.859 3.2997 -2.91218 0
M  V30 5783 H 535.978 0.447605 -0.585507 0
M  V30 5784 H 538.62 0.530005 -1.82458 0
M  V30 5785 H 536.77 2.88697 -2.59974 0
M  V30 5786 H 538.442 1.08173 -4.48438 0
M  V30 5787 H 536.685 0.949645 -4.23278 0
M  V30 5788 H 537.356 2.40946 -4.96638 0
M  V30 5789 H 539.832 2.79864 -3.07921 0
M  V30 5790 H 538.708 4.00839 -3.74993 0
M  V30 5791 H 538.969 3.93541 -2.0144 0
M  V30 5792 N 538.028 1.39524 0.732853 0
M  V30 5793 C 538.958 1.41153 1.86005 0
M  V30 5794 C 539.939 0.274614 1.67869 0
M  V30 5795 O 541.124 0.480745 1.88155 0
M  V30 5796 C 538.254 1.25638 3.23778 0
M  V30 5797 C 537.208 2.36752 3.56556 0
M  V30 5798 C 536.534 2.06326 4.93289 0
M  V30 5799 C 537.834 3.79069 3.5931 0
M  V30 5800 H 539.528 2.35484 1.84899 0
M  V30 5801 H 537.074 1.13348 0.888162 0
M  V30 5802 H 539.027 1.25398 4.0231 0
M  V30 5803 H 537.751 0.277772 3.25417 0
M  V30 5804 H 536.41 2.36213 2.80355 0
M  V30 5805 H 536.058 1.06897 4.9151 0
M  V30 5806 H 535.758 2.80757 5.16187 0
M  V30 5807 H 537.282 2.07739 5.74175 0
M  V30 5808 H 538.696 3.81526 4.27914 0
M  V30 5809 H 537.093 4.52878 3.93728 0
M  V30 5810 H 538.163 4.09893 2.59068 0
M  V30 5811 N 539.506 -0.963266 1.24736 0
M  V30 5812 C 540.736 -1.73913 1.11524 0
M  V30 5813 C 541.144 -1.86218 -0.334612 0
M  V30 5814 O 540.487 -1.3531 -1.24245 0
M  V30 5815 C 540.549 -3.17501 1.68622 0
M  V30 5816 C 540.213 -3.28655 3.17546 0
M  V30 5817 C 541.21 -3.13637 4.14642 0
M  V30 5818 C 538.895 -3.52753 3.5759 0
M  V30 5819 C 540.889 -3.2255 5.49764 0
M  V30 5820 C 538.576 -3.61303 4.92852 0
M  V30 5821 C 539.574 -3.46214 5.88748 0
M  V30 5822 O 539.262 -3.5443 7.2155 0
M  V30 5823 H 538.994 -0.552057 0.390139 0
M  V30 5824 H 541.548 -1.2177 1.65412 0
M  V30 5825 H 539.778 -3.70969 1.09172 0
M  V30 5826 H 541.467 -3.76914 1.50635 0
M  V30 5827 H 542.233 -2.94899 3.85045 0
M  V30 5828 H 538.112 -3.63561 2.83451 0
M  V30 5829 H 541.656 -3.1069 6.24594 0
M  V30 5830 H 537.553 -3.79556 5.22118 0
M  V30 5831 H 538.321 -3.71116 7.29531 0
M  V30 5832 N 540.985 -1.06182 -1.16461 0
M  V30 5833 C 542.21 -0.798599 -1.91408 0
M  V30 5834 C 542.635 0.640987 -1.76842 0
M  V30 5835 O 541.993 1.44652 -1.09296 0
M  V30 5836 C 542.041 -1.19665 -3.40165 0
M  V30 5837 O 541.145 -0.334768 -4.11039 0
M  V30 5838 H 540.486 -0.291961 -0.596368 0
M  V30 5839 H 543.016 -1.41732 -1.47557 0
M  V30 5840 H 543.026 -1.16772 -3.90933 0
M  V30 5841 H 541.701 -2.24526 -3.50087 0
M  V30 5842 H 540.278 -0.425168 -3.70468 0
M  V30 5843 N 542.463 1.3308 -0.844243 0
M  V30 5844 C 543.74 1.92178 -0.364261 0
M  V30 5845 C 544.12 1.76961 1.15101 0
M  V30 5846 O 543.468 1.16128 1.9679 0
M  V30 5847 C 543.678 3.393 -0.817106 0
M  V30 5848 C 545.026 4.16444 -0.828236 0
M  V30 5849 O 546.05 3.47975 -0.761062 0
M  V30 5850 O 544.909 5.38685 -0.920926 0
M  V30 5851 H 542.003 0.820411 -0.10419 0
M  V30 5852 H 544.549 1.41918 -0.930453 0
M  V30 5853 H 543.321 3.44272 -1.85991 0
M  V30 5854 H 542.944 3.96947 -0.227785 0
M  V30 5855 N 543.941 0.601185 1.45683 0
M  V30 5856 C 544.888 -0.121396 2.30481 0
M  V30 5857 C 545.858 -0.866232 1.41724 0
M  V30 5858 O 547.043 -0.85324 1.70659 0
M  V30 5859 C 544.183 -1.11704 3.26521 0
M  V30 5860 C 543.296 -0.373741 4.3038 0
M  V30 5861 C 542.431 -1.35854 5.13534 0
M  V30 5862 C 541.47 -0.602689 6.09126 0
M  V30 5863 N 540.607 -1.53645 6.85082 0
M  V30 5864 H 545.447 0.607732 2.91737 0
M  V30 5865 H 542.984 0.311502 1.43764 0
M  V30 5866 H 544.942 -1.70735 3.80664 0
M  V30 5867 H 543.572 -1.81366 2.67032 0
M  V30 5868 H 542.624 0.331962 3.78949 0
M  V30 5869 H 543.936 0.2163 4.98331 0
M  V30 5870 H 543.09 -2.02111 5.72046 0
M  V30 5871 H 541.829 -1.98251 4.45587 0
M  V30 5872 H 540.834 0.0735482 5.49751 0
M  V30 5873 H 542.059 0.0161467 6.79098 0
M  V30 5874 H 540.005 -2.14819 6.1983 0
M  V30 5875 H 539.922 -0.999688 7.49361 0
M  V30 5876 H 541.19 -2.1888 7.48139 0
M  V30 5877 N 545.419 -1.53889 0.339982 0
M  V30 5878 C 546.366 -2.24902 -0.518452 0
M  V30 5879 C 547.336 -1.24593 -1.09844 0
M  V30 5880 O 548.521 -1.53317 -1.13572 0
M  V30 5881 C 545.661 -3.02262 -1.66529 0
M  V30 5882 C 544.774 -4.17418 -1.11295 0
M  V30 5883 C 543.909 -4.82273 -2.2268 0
M  V30 5884 C 542.948 -5.89503 -1.6478 0
M  V30 5885 N 542.085 -6.48153 -2.69893 0
M  V30 5886 H 546.925 -2.97853 0.0936579 0
M  V30 5887 H 544.462 -1.46986 0.0579924 0
M  V30 5888 H 546.42 -3.45371 -2.3404 0
M  V30 5889 H 545.05 -2.31614 -2.24844 0
M  V30 5890 H 544.102 -3.78976 -0.328886 0
M  V30 5891 H 545.414 -4.94554 -0.649414 0
M  V30 5892 H 544.568 -5.28435 -2.98063 0
M  V30 5893 H 543.307 -4.04552 -2.72376 0
M  V30 5894 H 542.312 -5.42728 -0.879004 0
M  V30 5895 H 543.537 -6.6913 -1.1594 0
M  V30 5896 H 541.483 -5.73298 -3.1885 0
M  V30 5897 H 541.4 -7.20752 -2.28151 0
M  V30 5898 H 542.668 -6.98968 -3.45056 0
M  V30 5899 N 546.897 -0.0685191 -1.57451 0
M  V30 5900 C 548.127 0.609577 -1.97402 0
M  V30 5901 C 548.535 1.63882 -0.945489 0
M  V30 5902 O 547.878 1.8354 0.0766052 0
M  V30 5903 C 547.94 1.3385 -3.33653 0
M  V30 5904 C 547.604 0.463103 -4.54648 0
M  V30 5905 C 548.601 -0.277964 -5.19156 0
M  V30 5906 C 546.286 0.388941 -5.00792 0
M  V30 5907 C 548.28 -1.08145 -6.28159 0
M  V30 5908 C 545.967 -0.418217 -6.09667 0
M  V30 5909 C 546.965 -1.15208 -6.73213 0
M  V30 5910 O 546.653 -1.94594 -7.79993 0
M  V30 5911 H 546.385 0.170197 -0.654224 0
M  V30 5912 H 548.939 -0.13647 -2.04946 0
M  V30 5913 H 547.169 2.13055 -3.22714 0
M  V30 5914 H 548.858 1.90851 -3.58233 0
M  V30 5915 H 549.624 -0.230241 -4.84453 0
M  V30 5916 H 545.503 0.949769 -4.5111 0
M  V30 5917 H 549.047 -1.65476 -6.7769 0
M  V30 5918 H 544.944 -0.467515 -6.43805 0
M  V30 5919 H 545.712 -1.8699 -7.96854 0
M  V30 5920 N 548.375 1.56261 0.205012 0
M  V30 5921 C 549.791 1.49623 0.555433 0
M  V30 5922 C 549.991 0.766719 1.86343 0
M  V30 5923 O 549.047 0.313158 2.50551 0
M  V30 5924 C 550.36 2.94253 0.619347 0
M  V30 5925 C 551.908 3.04868 0.708855 0
M  V30 5926 C 552.383 4.50888 0.803969 0
M  V30 5927 N 553.874 4.54999 0.867758 0
M  V30 5928 C 554.609 5.65284 0.96135 0
M  V30 5929 N 554.105 6.85282 1.01786 0
M  V30 5930 N 555.898 5.53174 0.997771 0
M  V30 5931 H 548.049 2.0211 -0.653094 0
M  V30 5932 H 550.312 0.919333 -0.231366 0
M  V30 5933 H 550.018 3.50643 -0.272458 0
M  V30 5934 H 549.892 3.47063 1.47741 0
M  V30 5935 H 552.279 2.48532 1.5911 0
M  V30 5936 H 552.36 2.55199 -0.175205 0
M  V30 5937 H 552.004 5.07846 -0.0738798 0
M  V30 5938 H 551.934 4.98279 1.70369 0
M  V30 5939 H 554.425 3.68588 0.833735 0
M  V30 5940 H 554.738 7.65081 1.08951 0
M  V30 5941 H 553.083 6.8796 0.986706 0
M  V30 5942 H 556.274 4.5835 0.950392 0
M  V30 5943 H 556.447 6.39151 1.06725 0
M  V30 5944 N 549.853 -0.472356 1.50355 0
M  V30 5945 C 550.801 -1.59126 1.69651 0
M  V30 5946 C 551.795 -1.59793 0.56237 0
M  V30 5947 O 553.001 -1.63957 0.742832 0
M  V30 5948 H 549.376 -0.528008 0.535454 0
M  V30 5949 H 551.347 -1.40013 2.63513 0
M  V30 5950 C 550.096 -2.97075 1.8067 0
M  V30 5951 H 549.419 -2.9728 2.67329 0
M  V30 5952 H 550.859 -3.74825 1.98197 0
M  V30 5953 C 549.318 -3.32247 0.558016 0
M  V30 5954 O 549.848 -4.00553 -0.303399 0
M  V30 5955 N 548.054 -2.87659 0.412415 0
M  V30 5956 H 547.601 -2.32246 1.11443 0
M  V30 5957 H 547.559 -3.11556 -0.421908 0
M  V30 5958 N 551.331 -1.39911 -0.725443 0
M  V30 5959 C 552.561 -1.40744 -1.51244 0
M  V30 5960 C 552.969 -0.00275403 -1.892 0
M  V30 5961 O 552.312 0.981299 -1.55294 0
M  V30 5962 C 552.374 -2.22527 -2.82351 0
M  V30 5963 C 552.038 -3.71053 -2.66774 0
M  V30 5964 C 553.035 -4.63916 -2.34686 0
M  V30 5965 C 550.72 -4.14753 -2.83347 0
M  V30 5966 C 552.714 -5.98463 -2.19366 0
M  V30 5967 C 550.401 -5.49372 -2.67644 0
M  V30 5968 C 551.399 -6.41042 -2.357 0
M  V30 5969 O 551.087 -7.73181 -2.20107 0
M  V30 5970 H 550.819 -0.482314 -0.473655 0
M  V30 5971 H 553.373 -1.84472 -0.903284 0
M  V30 5972 H 551.603 -1.73563 -3.45562 0
M  V30 5973 H 553.292 -2.15421 -3.44018 0
M  V30 5974 H 554.058 -4.31453 -2.21525 0
M  V30 5975 H 549.937 -3.43728 -3.072 0
M  V30 5976 H 553.481 -6.69979 -1.94354 0
M  V30 5977 H 549.378 -5.81424 -2.80387 0
M  V30 5978 H 550.146 -7.84008 -2.35103 0
M  V30 5979 N 552.809 0.956637 -1.25245 0
M  V30 5980 C 553.741 2.05628 -1.01242 0
M  V30 5981 C 554.754 1.62785 0.0219579 0
M  V30 5982 O 555.943 1.77184 -0.216365 0
M  V30 5983 C 553.043 3.35069 -0.508161 0
M  V30 5984 C 552.216 4.06761 -1.60823 0
M  V30 5985 C 551.275 5.14473 -1.1047 0
M  V30 5986 O 550.301 5.40033 -1.79868 0
M  V30 5987 N 551.503 5.80474 0.0550773 0
M  V30 5988 H 554.268 2.2679 -1.95925 0
M  V30 5989 H 551.829 1.12505 -1.16423 0
M  V30 5990 H 553.821 4.044 -0.155819 0
M  V30 5991 H 552.391 3.10694 0.344683 0
M  V30 5992 H 551.611 3.31555 -2.13224 0
M  V30 5993 H 552.899 4.51418 -2.34733 0
M  V30 5994 H 552.297 5.62125 0.635004 0
M  V30 5995 H 550.854 6.50868 0.348469 0
M  V30 5996 N 554.287 1.06798 1.15896 0
M  V30 5997 C 555.534 0.787767 1.86549 0
M  V30 5998 C 555.862 -0.685959 1.82002 0
M  V30 5999 O 555.117 -1.5188 1.23414 0
M  V30 6000 C 555.416 1.23414 3.35416 0
M  V30 6001 C 555.082 2.71285 3.6016 0
M  V30 6002 C 553.744 3.11676 3.66622 0
M  V30 6003 C 556.096 3.6676 3.7032 0
M  V30 6004 C 553.424 4.4637 3.8075 0
M  V30 6005 C 555.776 5.01209 3.8597 0
M  V30 6006 C 554.44 5.41229 3.90676 0
M  V30 6007 H 553.71 0.288264 0.682631 0
M  V30 6008 H 556.357 1.338 1.37003 0
M  V30 6009 H 554.662 0.60319 3.87129 0
M  V30 6010 H 556.359 0.994298 3.88477 0
M  V30 6011 H 552.949 2.39015 3.55767 0
M  V30 6012 H 557.133 3.36685 3.64633 0
M  V30 6013 H 552.389 4.76855 3.82648 0
M  V30 6014 H 556.563 5.75067 3.92773 0
M  V30 6015 H 554.19 6.45602 4.01375 0
M  V30 6016 N 555.766 -1.3263 0.851289 0
M  V30 6017 C 557.013 -1.97368 0.453023 0
M  V30 6018 C 557.341 -1.67384 -0.990596 0
M  V30 6019 O 556.596 -0.952665 -1.70947 0
M  V30 6020 C 556.895 -3.51713 0.635015 0
M  V30 6021 C 556.561 -4.01676 2.04859 0
M  V30 6022 C 555.223 -4.15031 2.43522 0
M  V30 6023 C 557.575 -4.28206 2.97135 0
M  V30 6024 C 554.903 -4.52257 3.73739 0
M  V30 6025 C 557.255 -4.66889 4.26846 0
M  V30 6026 C 555.919 -4.7845 4.65448 0
M  V30 6027 H 555.189 -0.722219 0.165773 0
M  V30 6028 H 557.836 -1.58092 1.0807 0
M  V30 6029 H 556.141 -3.91726 -0.0759081 0
M  V30 6030 H 557.838 -3.99823 0.306964 0
M  V30 6031 H 554.428 -3.91764 1.73836 0
M  V30 6032 H 558.612 -4.174 2.68498 0
M  V30 6033 H 553.868 -4.59402 4.03435 0
M  V30 6034 H 558.042 -4.86372 4.98413 0
M  V30 6035 H 555.669 -5.07052 5.66395 0
M  V30 6036 N 557.244 -0.608902 -1.45362 0
M  V30 6037 C 558.49 -0.104762 -2.02529 0
M  V30 6038 C 558.823 1.26191 -1.47613 0
M  V30 6039 O 558.098 1.8327 -0.65134 0
M  V30 6040 C 558.381 -0.0672661 -3.60037 0
M  V30 6041 C 558.234 -1.4647 -4.25284 0
M  V30 6042 C 559.553 0.619877 -4.35713 0
M  V30 6043 H 556.672 -0.0395438 -0.735938 0
M  V30 6044 H 559.314 -0.781126 -1.73201 0
M  V30 6045 H 557.464 0.50871 -3.85155 0
M  V30 6046 H 559.136 -2.08785 -4.11347 0
M  V30 6047 H 557.379 -2.02502 -3.83634 0
M  V30 6048 H 558.05 -1.39069 -5.34195 0
M  V30 6049 H 560.526 0.130297 -4.15896 0
M  V30 6050 H 559.402 0.615224 -5.45441 0
M  V30 6051 H 559.663 1.68621 -4.0868 0
M  V30 6052 N 558.722 1.53707 -0.348139 0
M  V30 6053 C 559.999 1.93247 0.302475 0
M  V30 6054 C 560.379 1.28012 1.67857 0
M  V30 6055 O 559.727 0.43274 2.24365 0
M  V30 6056 C 559.937 3.47031 0.370159 0
M  V30 6057 C 561.285 4.20066 0.61882 0
M  V30 6058 O 562.309 3.53319 0.452087 0
M  V30 6059 O 561.168 5.38318 0.94215 0
M  V30 6060 H 558.262 0.807736 0.177458 0
M  V30 6061 H 560.808 1.64927 -0.399651 0
M  V30 6062 H 559.58 3.86745 -0.59534 0
M  V30 6063 H 559.203 3.81532 1.11888 0
M  V30 6064 N 560.2 0.0768682 1.57412 0
M  V30 6065 C 561.428 -0.59997 1.9801 0
M  V30 6066 C 561.843 -1.62842 0.955408 0
M  V30 6067 O 561.2 -1.8241 -0.057314 0
M  V30 6068 C 561.251 -1.26401 3.38681 0
M  V30 6069 O 560.972 -0.276723 4.37225 0
M  V30 6070 C 562.473 -2.0282 3.94182 0
M  V30 6071 H 559.693 -0.162239 0.651091 0
M  V30 6072 H 562.237 0.150771 2.03943 0
M  V30 6073 H 560.392 -1.96581 3.33819 0
M  V30 6074 H 560.806 -0.753744 5.19056 0
M  V30 6075 H 562.28 -2.44667 4.94815 0
M  V30 6076 H 562.757 -2.88678 3.31001 0
M  V30 6077 H 563.363 -1.37496 4.02461 0
M  V30 6078 N 561.678 -1.56367 -0.196722 0
M  V30 6079 C 562.955 -1.71359 -0.943159 0
M  V30 6080 C 563.335 -0.631192 -2.01443 0
M  V30 6081 O 562.683 0.358071 -2.25677 0
M  V30 6082 C 562.893 -3.13623 -1.53106 0
M  V30 6083 C 564.241 -3.73806 -2.01381 0
M  V30 6084 O 565.265 -3.16742 -1.62951 0
M  V30 6085 O 564.124 -4.73951 -2.7209 0
M  V30 6086 H 561.218 -0.698851 -0.442195 0
M  V30 6087 H 563.764 -1.68672 -0.186547 0
M  V30 6088 H 562.536 -3.83873 -0.758785 0
M  V30 6089 H 562.159 -3.20532 -2.35255 0
M  V30 6090 N 563.156 0.464375 -1.50603 0
M  V30 6091 C 564.402 1.21485 -1.63135 0
M  V30 6092 C 564.757 1.89538 -0.33063 0
M  V30 6093 O 564.05 1.79432 0.671903 0
M  V30 6094 C 564.244 2.278 -2.75394 0
M  V30 6095 C 564.073 1.70178 -4.16257 0
M  V30 6096 C 562.843 1.49854 -4.82568 0
M  V30 6097 C 565.041 1.19298 -5.00272 0
M  V30 6098 N 563.023 0.875458 -6.07626 0
M  V30 6099 C 564.394 0.693527 -6.16109 0
M  V30 6100 C 566.449 1.08216 -4.85998 0
M  V30 6101 C 565.152 0.0941808 -7.19238 0
M  V30 6102 C 567.178 0.496745 -5.8931 0
M  V30 6103 C 566.54 0.00770448 -7.044 0
M  V30 6104 H 562.639 0.433184 -0.651057 0
M  V30 6105 H 565.223 0.515748 -1.87745 0
M  V30 6106 H 563.394 2.95129 -2.52495 0
M  V30 6107 H 565.126 2.94814 -2.77249 0
M  V30 6108 H 561.881 1.75269 -4.39975 0
M  V30 6109 H 562.305 0.582135 -6.74493 0
M  V30 6110 H 566.947 1.44617 -3.97298 0
M  V30 6111 H 564.665 -0.28202 -8.07608 0
M  V30 6112 H 568.251 0.413275 -5.8033 0
M  V30 6113 H 567.131 -0.438188 -7.82975 0
M  V30 6114 N 564.634 1.40294 0.718013 0
M  V30 6115 C 565.566 1.36281 1.84283 0
M  V30 6116 C 566.579 0.268621 1.60569 0
M  V30 6117 O 567.768 0.528798 1.70487 0
M  V30 6118 C 564.868 1.09741 3.2064 0
M  V30 6119 C 564.041 2.30767 3.71571 0
M  V30 6120 C 563.1 2.00424 4.86535 0
M  V30 6121 O 562.126 2.73268 4.99313 0
M  V30 6122 N 563.328 0.980724 5.72156 0
M  V30 6123 H 566.093 2.3322 1.88225 0
M  V30 6124 H 563.654 1.34616 0.899453 0
M  V30 6125 H 565.646 0.874322 3.95143 0
M  V30 6126 H 564.216 0.214771 3.11861 0
M  V30 6127 H 563.436 2.68921 2.88228 0
M  V30 6128 H 564.724 3.11455 4.02335 0
M  V30 6129 H 564.122 0.377375 5.6444 0
M  V30 6130 H 562.679 0.817538 6.46653 0
M  V30 6131 N 566.112 -0.949982 1.2575 0
M  V30 6132 C 567.36 -1.6918 1.10555 0
M  V30 6133 C 567.681 -1.91773 -0.353298 0
M  V30 6134 O 566.951 -1.50814 -1.25027 0
M  V30 6135 H 565.531 -0.626952 0.406129 0
M  V30 6136 H 568.193 -1.1419 1.57945 0
M  V30 6137 H 567.289 -2.66915 1.61749 0
M  V30 6138 N 567.59 -1.07411 -1.15328 0
M  V30 6139 C 568.838 -0.796073 -1.85761 0
M  V30 6140 C 569.159 0.679864 -1.82764 0
M  V30 6141 O 568.429 1.49242 -1.269 0
M  V30 6142 H 567.009 -0.291495 -0.687779 0
M  V30 6143 H 569.671 -1.35799 -1.39802 0
M  V30 6144 H 568.767 -1.13114 -2.90881 0
M  V30 6145 N 569.068 1.32177 -0.85831 0
M  V30 6146 C 570.317 1.96392 -0.459689 0
M  V30 6147 C 570.63 1.68659 0.990632 0
M  V30 6148 O 571.836 2.26641 1.49485 0
M  V30 6149 C 570.292 3.51542 -0.7711 0
M  V30 6150 C 569.9 3.8813 -2.2374 0
M  V30 6151 C 571.644 4.2221 -0.44038 0
M  V30 6152 C 569.551 5.36341 -2.49183 0
M  V30 6153 H 568.481 0.735007 -0.168169 0
M  V30 6154 H 571.132 1.50518 -1.0496 0
M  V30 6155 H 569.514 3.95846 -0.11058 0
M  V30 6156 H 570.688 3.54824 -2.94001 0
M  V30 6157 H 569.003 3.30497 -2.533 0
M  V30 6158 H 571.6 5.31234 -0.607855 0
M  V30 6159 H 571.943 4.11683 0.618291 0
M  V30 6160 H 572.476 3.83502 -1.05695 0
M  V30 6161 H 569.215 5.51892 -3.53689 0
M  V30 6162 H 568.735 5.7104 -1.83504 0
M  V30 6163 H 570.414 6.03466 -2.33318 0
M  V30 6164 N 570.547 0.616602 1.45037 0
M  V30 6165 C 571.777 0.121791 2.06241 0
M  V30 6166 C 572.185 -1.20289 1.46038 0
M  V30 6167 O 571.528 -1.7456 0.572242 0
M  V30 6168 C 571.59 -0.0827345 3.59405 0
M  V30 6169 C 571.254 1.16153 4.41993 0
M  V30 6170 C 572.251 2.08183 4.76399 0
M  V30 6171 C 569.936 1.39288 4.82601 0
M  V30 6172 C 571.93 3.21668 5.5028 0
M  V30 6173 C 569.617 2.53073 5.56235 0
M  V30 6174 C 570.615 3.44091 5.89992 0
M  V30 6175 O 570.303 4.55894 6.6213 0
M  V30 6176 H 570.035 0.0701667 0.672349 0
M  V30 6177 H 572.589 0.846877 1.87129 0
M  V30 6178 H 570.819 -0.862812 3.76952 0
M  V30 6179 H 572.508 -0.530273 4.02421 0
M  V30 6180 H 573.274 1.91538 4.45576 0
M  V30 6181 H 569.153 0.693396 4.55755 0
M  V30 6182 H 572.697 3.92733 5.76547 0
M  V30 6183 H 568.594 2.69667 5.86472 0
M  V30 6184 H 569.362 4.5469 6.80587 0
M  V30 6185 N 572.025 -1.5352 0.356285 0
M  V30 6186 C 572.988 -2.24071 -0.482182 0
M  V30 6187 C 573.988 -1.24531 -1.01729 0
M  V30 6188 O 575.178 -1.48876 -0.904513 0
M  V30 6189 C 572.31 -2.97025 -1.67299 0
M  V30 6190 H 573.503 -2.99596 0.135031 0
M  V30 6191 H 571.056 -1.55928 0.107825 0
M  V30 6192 H 571.791 -2.25719 -2.32855 0
M  V30 6193 H 571.576 -3.7005 -1.29636 0
M  V30 6194 H 573.066 -3.50683 -2.26741 0
M  V30 6195 N 573.503 -0.0852151 -1.57369 0
M  V30 6196 C 574.728 0.592872 -1.98746 0
M  V30 6197 C 575.153 1.61538 -0.963689 0
M  V30 6198 O 574.511 1.81168 0.069071 0
M  V30 6199 C 574.559 1.22599 -3.39119 0
M  V30 6200 O 573.663 2.34185 -3.39457 0
M  V30 6201 H 573.004 0.151314 -0.646529 0
M  V30 6202 H 575.534 -0.163703 -2.03944 0
M  V30 6203 H 575.544 1.56965 -3.76598 0
M  V30 6204 H 574.219 0.476831 -4.13158 0
M  V30 6205 H 572.796 2.01512 -3.13763 0
M  V30 6206 N 574.981 1.5647 0.188427 0
M  V30 6207 C 576.392 1.70864 0.752494 0
M  V30 6208 C 576.743 0.692905 1.83557 0
M  V30 6209 O 575.868 -0.149307 2.15884 0
M  V30 6210 C 576.463 3.09789 1.37173 0
M  V30 6211 C 575.022 3.25925 1.88281 0
M  V30 6212 C 574.169 2.66817 0.755259 0
M  V30 6213 H 577.12 1.58657 -0.0367408 0
M  V30 6214 H 577.141 3.07489 2.24122 0
M  V30 6215 H 576.653 3.83693 0.583219 0
M  V30 6216 H 574.754 2.56948 2.6983 0
M  V30 6217 H 574.867 4.33498 2.04001 0
M  V30 6218 H 573.231 2.2617 1.17128 0
M  V30 6219 H 574.014 3.43294 -0.0211237 0
M  V30 6220 N 576.459 -0.456382 1.50847 0
M  V30 6221 C 577.687 -1.23026 1.66349 0
M  V30 6222 C 578.102 -1.85473 0.352868 0
M  V30 6223 O 577.459 -1.69885 -0.666739 0
M  V30 6224 C 577.51 -2.32827 2.76539 0
M  V30 6225 O 577.231 -1.72938 4.02522 0
M  V30 6226 C 578.732 -3.23448 3.03144 0
M  V30 6227 H 575.952 -0.371527 0.558756 0
M  V30 6228 H 578.496 -0.543082 1.97157 0
M  V30 6229 H 576.651 -2.97294 2.48384 0
M  V30 6230 H 577.065 -2.45357 4.63573 0
M  V30 6231 H 578.539 -3.96669 3.83872 0
M  V30 6232 H 579.016 -3.83094 2.14793 0
M  V30 6233 H 579.622 -2.64702 3.32886 0
M  V30 6234 N 577.937 -1.40673 -0.710563 0
M  V30 6235 C 579.186 -1.38525 -1.46607 0
M  V30 6236 C 579.499 0.0077024 -1.95598 0
M  V30 6237 O 580.705 0.151792 -2.71075 0
M  V30 6238 C 579.161 -2.43489 -2.6503 0
M  V30 6239 C 578.769 -3.88619 -2.22888 0
M  V30 6240 C 580.513 -2.50456 -3.42742 0
M  V30 6241 C 578.42 -4.85168 -3.3818 0
M  V30 6242 H 577.35 -0.515092 -0.550632 0
M  V30 6243 H 580.001 -1.66431 -0.772846 0
M  V30 6244 H 578.383 -2.0869 -3.36548 0
M  V30 6245 H 579.557 -4.32588 -1.58758 0
M  V30 6246 H 577.872 -3.85174 -1.58208 0
M  V30 6247 H 580.469 -3.19776 -4.28541 0
M  V30 6248 H 580.812 -1.53665 -3.86902 0
M  V30 6249 H 581.345 -2.84271 -2.78271 0
M  V30 6250 H 578.084 -5.8331 -2.99047 0
M  V30 6251 H 577.604 -4.4586 -4.01209 0
M  V30 6252 H 579.283 -5.05225 -4.04174 0
M  V30 6253 N 579.415 0.9433 -1.26252 0
M  V30 6254 C 580.378 2.02326 -1.07689 0
M  V30 6255 C 581.378 1.60779 -0.0259174 0
M  V30 6256 O 582.568 1.72108 -0.269134 0
M  V30 6257 C 579.7 3.34886 -0.63752 0
M  V30 6258 H 580.893 2.20225 -2.0357 0
M  V30 6259 H 578.446 1.12197 -1.08819 0
M  V30 6260 H 579.181 3.22684 0.323377 0
M  V30 6261 H 578.966 3.66393 -1.39637 0
M  V30 6262 H 580.456 4.14231 -0.529418 0
M  V30 6263 N 580.893 1.08022 1.14757 0
M  V30 6264 C 582.141 0.805913 1.85336 0
M  V30 6265 C 582.462 -0.670162 1.83122 0
M  V30 6266 O 581.732 -1.48567 1.2769 0
M  V30 6267 H 580.312 0.295138 0.686223 0
M  V30 6268 H 582.974 1.36538 1.3908 0
M  V30 6269 H 582.07 1.14655 2.90277 0
M  V30 6270 N 582.371 -1.3172 0.865308 0
M  V30 6271 C 583.596 -2.01591 0.487415 0
M  V30 6272 C 584.021 -1.6455 -0.911307 0
M  V30 6273 O 583.379 -0.851689 -1.6005 0
M  V30 6274 C 583.427 -3.54759 0.646401 0
M  V30 6275 O 582.531 -4.11185 -0.316284 0
M  V30 6276 H 581.872 -0.634884 0.194468 0
M  V30 6277 H 584.402 -1.68024 1.16744 0
M  V30 6278 H 584.412 -4.04438 0.537932 0
M  V30 6279 H 583.087 -3.8106 1.66632 0
M  V30 6280 H 581.664 -3.72543 -0.163162 0
M  V30 6281 N 583.85 -0.624285 -1.44708 0
M  V30 6282 C 585.266 -0.289322 -1.56956 0
M  V30 6283 C 585.466 1.20773 -1.61295 0
M  V30 6284 O 584.522 1.9915 -1.55227 0
M  V30 6285 C 585.835 -0.975215 -2.84447 0
M  V30 6286 C 587.383 -0.952709 -2.98148 0
M  V30 6287 C 587.858 -1.61893 -4.28433 0
M  V30 6288 N 589.349 -1.5852 -4.35231 0
M  V30 6289 C 590.084 -2.06969 -5.34744 0
M  V30 6290 N 589.58 -2.63579 -6.40701 0
M  V30 6291 N 591.373 -1.97638 -5.26209 0
M  V30 6292 H 583.524 -1.59612 -1.40135 0
M  V30 6293 H 585.787 -0.669592 -0.671081 0
M  V30 6294 H 585.493 -2.02999 -2.87201 0
M  V30 6295 H 585.367 -0.508749 -3.73753 0
M  V30 6296 H 587.754 0.093568 -2.94952 0
M  V30 6297 H 587.835 -1.4576 -2.10209 0
M  V30 6298 H 587.479 -2.66463 -4.32389 0
M  V30 6299 H 587.409 -1.08893 -5.15218 0
M  V30 6300 H 589.899 -1.17183 -3.59272 0
M  V30 6301 H 590.213 -2.98298 -7.12908 0
M  V30 6302 H 588.558 -2.67626 -6.41406 0
M  V30 6303 H 591.749 -1.5314 -4.42341 0
M  V30 6304 H 591.922 -2.35708 -6.03611 0
M  V30 6305 N 585.328 1.53329 -0.364422 0
M  V30 6306 C 586.739 1.86345 0.115039 0
M  V30 6307 C 587.09 1.28505 1.4826 0
M  V30 6308 O 586.215 0.606639 2.07723 0
M  V30 6309 C 586.81 3.38114 0.215522 0
M  V30 6310 C 585.369 3.70932 0.639237 0
M  V30 6311 C 584.516 2.76471 -0.214261 0
M  V30 6312 H 587.467 1.47593 -0.583258 0
M  V30 6313 H 587.488 3.66031 1.0393 0
M  V30 6314 H 587 3.80182 -0.779948 0
M  V30 6315 H 585.101 3.3442 1.64298 0
M  V30 6316 H 585.214 4.77302 0.41465 0
M  V30 6317 H 583.578 2.52724 0.316678 0
M  V30 6318 H 584.361 3.21373 -1.20725 0
M  V30 6319 N 586.806 0.0935595 1.57322 0
M  V30 6320 C 588.054 -0.569383 1.93913 0
M  V30 6321 C 588.375 -1.68817 0.976009 0
M  V30 6322 O 587.645 -1.9588 0.0278099 0
M  V30 6323 H 586.225 -0.21332 0.715894 0
M  V30 6324 H 588.887 0.156531 1.9427 0
M  V30 6325 H 587.983 -0.980577 2.96296 0
M  V30 6326 N 588.284 -1.56567 -0.180126 0
M  V30 6327 C 589.532 -1.81133 -0.896392 0
M  V30 6328 C 589.853 -0.669114 -1.83161 0
M  V30 6329 O 589.123 0.311616 -1.93406 0
M  V30 6330 H 587.703 -0.668172 -0.333999 0
M  V30 6331 H 590.365 -1.94048 -0.182051 0
M  V30 6332 H 589.461 -2.74854 -1.47857 0
M  V30 6333 N 589.762 0.448376 -1.51087 0
M  V30 6334 C 591.011 1.19561 -1.62444 0
M  V30 6335 C 591.324 1.92602 -0.341151 0
M  V30 6336 O 592.53 2.69439 -0.333936 0
M  V30 6337 C 590.986 2.17373 -2.8684 0
M  V30 6338 C 590.594 1.5003 -4.22131 0
M  V30 6339 C 592.338 2.92597 -3.0755 0
M  V30 6340 C 590.245 2.46262 -5.37689 0
M  V30 6341 H 589.175 0.449975 -0.605011 0
M  V30 6342 H 591.826 0.463735 -1.77544 0
M  V30 6343 H 590.208 2.93948 -2.65349 0
M  V30 6344 H 591.382 0.790886 -4.53962 0
M  V30 6345 H 589.697 0.870011 -4.0721 0
M  V30 6346 H 592.294 3.64663 -3.91056 0
M  V30 6347 H 592.637 3.53306 -2.20183 0
M  V30 6348 H 593.17 2.23131 -3.29329 0
M  V30 6349 H 589.909 1.90258 -6.27281 0
M  V30 6350 H 589.429 3.15289 -5.10248 0
M  V30 6351 H 591.108 3.07623 -5.6919 0
M  V30 6352 N 591.24 1.41047 0.703093 0
M  V30 6353 C 592.465 1.43537 1.49706 0
M  V30 6354 C 592.89 0.0401853 1.88057 0
M  V30 6355 O 592.248 -0.954785 1.54122 0
M  V30 6356 C 592.296 2.3433 2.74084 0
M  V30 6357 O 591.4 1.79515 3.71279 0
M  V30 6358 H 590.741 0.487454 0.450871 0
M  V30 6359 H 593.271 1.85422 0.86486 0
M  V30 6360 H 593.281 2.49947 3.22476 0
M  V30 6361 H 591.956 3.35708 2.45506 0
M  V30 6362 H 590.533 1.7331 3.30179 0
M  V30 6363 N 592.718 -0.936591 1.26751 0
M  V30 6364 C 593.681 -2.01752 1.08761 0
M  V30 6365 C 594.681 -1.60763 0.0344435 0
M  V30 6366 O 595.871 -1.71963 0.278258 0
M  V30 6367 C 593.003 -3.34543 0.655271 0
M  V30 6368 H 594.196 -2.19143 2.04735 0
M  V30 6369 H 591.749 -1.11618 1.09413 0
M  V30 6370 H 592.484 -3.22851 -0.30626 0
M  V30 6371 H 592.269 -3.65647 1.41578 0
M  V30 6372 H 593.759 -4.13944 0.551378 0
M  V30 6373 N 594.196 -1.08629 -1.14182 0
M  V30 6374 C 595.159 -0.722027 -2.1753 0
M  V30 6375 C 596.159 0.244305 -1.58933 0
M  V30 6376 O 597.349 0.0235545 -1.74184 0
M  V30 6377 C 594.481 -0.0663966 -3.40835 0
M  V30 6378 H 595.674 -1.63719 -2.51269 0
M  V30 6379 H 593.227 -0.884442 -1.28869 0
M  V30 6380 H 593.962 0.860389 -3.12678 0
M  V30 6381 H 593.747 -0.761598 -3.84632 0
M  V30 6382 H 595.237 0.173346 -4.1724 0
M  V30 6383 N 595.674 1.31259 -0.872281 0
M  V30 6384 C 596.914 1.98418 -0.490894 0
M  V30 6385 C 597.278 1.67429 0.939755 0
M  V30 6386 O 598.479 2.27818 1.42661 0
M  V30 6387 C 596.75 3.49583 -0.743408 0
M  V30 6388 S 598.309 4.36359 -0.462226 0
M  V30 6389 H 595.127 0.687005 -0.183151 0
M  V30 6390 H 597.729 1.59619 -1.12881 0
M  V30 6391 H 596.433 3.69627 -1.78338 0
M  V30 6392 H 595.964 3.93291 -0.0925758 0
M  V30 6393 H 597.979 4.91173 0.704525 0
M  V30 6394 N 597.152 0.631951 1.44375 0
M  V30 6395 C 598.398 0.145491 2.02879 0
M  V30 6396 C 598.753 -1.21936 1.48827 0
M  V30 6397 O 598.046 -1.7976 0.663085 0
M  V30 6398 C 598.24 0.0735861 3.57324 0
M  V30 6399 C 598.069 1.42992 4.2636 0
M  V30 6400 C 596.839 2.01691 4.63302 0
M  V30 6401 C 599.037 2.36393 4.56752 0
M  V30 6402 N 597.019 3.30551 5.17309 0
M  V30 6403 C 598.39 3.49869 5.11851 0
M  V30 6404 C 600.445 2.35462 4.38705 0
M  V30 6405 C 599.148 4.6261 5.50803 0
M  V30 6406 C 601.174 3.47268 4.78706 0
M  V30 6407 C 600.536 4.59467 5.33919 0
M  V30 6408 H 596.635 0.0971781 0.775938 0
M  V30 6409 H 599.219 0.835624 1.75856 0
M  V30 6410 H 597.39 -0.585829 3.83957 0
M  V30 6411 H 599.122 -0.421777 4.02496 0
M  V30 6412 H 595.877 1.54627 4.47647 0
M  V30 6413 H 596.301 3.96435 5.48788 0
M  V30 6414 H 600.943 1.49966 3.9531 0
M  V30 6415 H 598.661 5.48813 5.93152 0
M  V30 6416 H 602.247 3.47724 4.66454 0
M  V30 6417 H 601.127 5.44551 5.64299 0
M  V30 6418 N 598.631 -1.53133 0.372548 0
M  V30 6419 C 599.594 -2.24569 -0.458389 0
M  V30 6420 C 600.594 -1.25603 -1.00402 0
M  V30 6421 O 601.784 -1.49827 -0.888672 0
M  V30 6422 C 598.916 -2.98783 -1.6414 0
M  V30 6423 H 600.109 -2.99436 0.166799 0
M  V30 6424 H 597.662 -1.55805 0.124357 0
M  V30 6425 H 598.397 -2.28176 -2.30448 0
M  V30 6426 H 598.182 -3.71404 -1.25704 0
M  V30 6427 H 599.672 -3.53068 -2.23008 0
M  V30 6428 N 600.109 -0.101901 -1.5727 0
M  V30 6429 C 601.072 0.840129 -2.13247 0
M  V30 6430 C 602.072 1.20625 -1.06331 0
M  V30 6431 O 603.262 1.13456 -1.32186 0
M  V30 6432 C 600.394 2.13372 -2.65867 0
M  V30 6433 H 601.587 0.353945 -2.97804 0
M  V30 6434 H 599.14 0.147167 -1.55606 0
M  V30 6435 H 599.875 2.66461 -1.84849 0
M  V30 6436 H 599.66 1.88085 -3.44044 0
M  V30 6437 H 601.15 2.80748 -3.09145 0
M  V30 6438 N 601.587 1.56661 0.17182 0
M  V30 6439 C 602.517 1.99401 1.21498 0
M  V30 6440 C 603.498 0.869516 1.46197 0
M  V30 6441 O 604.683 1.13556 1.57539 0
M  V30 6442 C 601.813 2.35346 2.55401 0
M  V30 6443 C 600.767 3.5075 2.45272 0
M  V30 6444 C 600.093 3.72437 3.8366 0
M  V30 6445 C 601.393 4.84216 1.95787 0
M  V30 6446 H 603.087 2.86792 0.859699 0
M  V30 6447 H 600.633 1.37977 0.412103 0
M  V30 6448 H 602.586 2.63843 3.2858 0
M  V30 6449 H 601.31 1.44864 2.92715 0
M  V30 6450 H 599.969 3.2238 1.74547 0
M  V30 6451 H 599.617 2.79246 4.18367 0
M  V30 6452 H 599.317 4.50087 3.77751 0
M  V30 6453 H 600.841 4.03334 4.58426 0
M  V30 6454 H 602.255 5.11592 2.5874 0
M  V30 6455 H 600.652 5.65498 2.00827 0
M  V30 6456 H 601.722 4.76243 0.912159 0
M  V30 6457 N 603.065 -0.440357 1.51323 0
M  V30 6458 C 603.998 -1.55414 1.67098 0
M  V30 6459 C 604.976 -1.54108 0.518599 0
M  V30 6460 O 606.16 -1.7328 0.742054 0
M  V30 6461 C 603.287 -2.93996 1.68179 0
M  V30 6462 C 602.333 -3.13338 2.89347 0
M  V30 6463 S 603.166 -2.89957 4.50206 0
M  V30 6464 C 604.322 -4.30826 4.54027 0
M  V30 6465 H 604.555 -1.41798 2.61306 0
M  V30 6466 H 602.088 -0.629841 1.40969 0
M  V30 6467 H 604.046 -3.73878 1.69487 0
M  V30 6468 H 602.707 -3.04976 0.751542 0
M  V30 6469 H 601.9 -4.14652 2.86495 0
M  V30 6470 H 601.502 -2.41276 2.85766 0
M  V30 6471 H 603.794 -5.23977 4.29481 0
M  V30 6472 H 604.737 -4.38712 5.55822 0
M  V30 6473 H 605.145 -4.1434 3.83384 0
M  V30 6474 N 604.543 -1.41418 -0.695603 0
M  V30 6475 C 605.493 -1.39731 -1.80165 0
M  V30 6476 C 606.477 -0.271689 -1.5859 0
M  V30 6477 O 607.669 -0.512354 -1.69422 0
M  V30 6478 C 604.798 -1.28187 -3.1847 0
M  V30 6479 C 603.884 -2.45612 -3.45739 0
M  V30 6480 N 604.275 -3.71077 -3.43708 0
M  V30 6481 C 602.573 -2.39424 -3.76288 0
M  V30 6482 C 603.274 -4.48957 -3.69882 0
M  V30 6483 N 602.25 -3.7907 -3.89624 0
M  V30 6484 H 606.052 -2.34656 -1.76957 0
M  V30 6485 H 603.566 -1.35473 -0.89559 0
M  V30 6486 H 605.563 -1.2506 -3.977 0
M  V30 6487 H 604.223 -0.342468 -3.22889 0
M  V30 6488 H 605.234 -4.03963 -3.2409 0
M  V30 6489 H 601.911 -1.53955 -3.88077 0
M  V30 6490 H 603.301 -5.57887 -3.74448 0
M  V30 6491 N 606.021 0.929856 -1.27246 0
M  V30 6492 C 607.268 1.67731 -1.13457 0
M  V30 6493 C 607.596 1.9185 0.319998 0
M  V30 6494 O 606.851 1.50524 1.25064 0
M  V30 6495 C 607.15 3.05116 -1.86115 0
M  V30 6496 C 606.816 3.00715 -3.35978 0
M  V30 6497 C 605.478 2.99222 -3.76855 0
M  V30 6498 C 607.83 2.92168 -4.3161 0
M  V30 6499 C 605.158 2.86962 -5.11732 0
M  V30 6500 C 607.51 2.81449 -5.66542 0
M  V30 6501 C 606.174 2.78305 -6.06715 0
M  V30 6502 H 605.444 0.613772 -0.415168 0
M  V30 6503 H 608.091 1.08456 -1.57827 0
M  V30 6504 H 606.396 3.68083 -1.34246 0
M  V30 6505 H 608.093 3.61822 -1.72876 0
M  V30 6506 H 604.683 3.02664 -3.03468 0
M  V30 6507 H 608.867 2.92421 -4.01003 0
M  V30 6508 H 604.123 2.82913 -5.42006 0
M  V30 6509 H 608.297 2.738 -6.40317 0
M  V30 6510 H 605.924 2.68561 -7.11181 0
M  V30 6511 N 607.499 1.09233 1.13605 0
M  V30 6512 C 608.747 0.825525 1.84471 0
M  V30 6513 C 609.068 -0.650702 1.83823 0
M  V30 6514 O 608.338 -1.47204 1.29259 0
M  V30 6515 H 606.918 0.3024 0.683054 0
M  V30 6516 H 609.58 1.38006 1.37624 0
M  V30 6517 H 608.676 1.17727 2.89045 0
M  V30 6518 N 608.977 -1.30795 0.87923 0
M  V30 6519 C 609.887 -2.32041 0.345565 0
M  V30 6520 C 610.903 -1.65103 -0.549265 0
M  V30 6521 O 612.079 -1.9645 -0.443763 0
M  V30 6522 C 609.144 -3.43944 -0.436245 0
M  V30 6523 C 608.205 -4.26521 0.48765 0
M  V30 6524 C 607.438 -5.33081 -0.256943 0
M  V30 6525 O 607.661 -5.50762 -1.48381 0
M  V30 6526 O 606.595 -6.00635 0.389985 0
M  V30 6527 H 610.421 -2.79627 1.18501 0
M  V30 6528 H 608.006 -1.3486 0.642885 0
M  V30 6529 H 609.888 -4.12128 -0.879119 0
M  V30 6530 H 608.563 -2.98504 -1.25208 0
M  V30 6531 H 607.47 -3.61057 0.979216 0
M  V30 6532 H 608.803 -4.75551 1.26933 0
M  V30 6533 N 610.455 -0.639598 -1.44038 0
M  V30 6534 C 611.403 0.0723409 -2.32487 0
M  V30 6535 C 612.397 0.827129 -1.47834 0
M  V30 6536 O 613.603 0.73907 -1.64127 0
M  V30 6537 H 609.978 0.0421696 -0.750817 0
M  V30 6538 H 611.949 -0.691593 -2.90275 0
M  V30 6539 C 610.698 1.03452 -3.31953 0
M  V30 6540 H 610.021 0.46315 -3.97108 0
M  V30 6541 H 611.461 1.502 -3.96505 0
M  V30 6542 C 609.92 2.12392 -2.61518 0
M  V30 6543 O 610.45 3.2059 -2.42044 0
M  V30 6544 N 608.656 1.88563 -2.21116 0
M  V30 6545 H 608.203 1.00577 -2.37154 0
M  V30 6546 H 608.161 2.61651 -1.74316 0
M  V30 6547 N 611.933 1.52934 -0.380664 0
M  V30 6548 C 613.181 2.01069 0.203874 0
M  V30 6549 C 613.502 1.26922 1.4804 0
M  V30 6550 O 612.772 0.386787 1.92044 0
M  V30 6551 H 611.352 0.742882 0.0783279 0
M  V30 6552 H 614.014 1.88099 -0.510368 0
M  V30 6553 H 613.11 3.09258 0.42021 0
M  V30 6554 N 613.412 0.11024 1.57214 0
M  V30 6555 C 614.642 -0.557025 1.98949 0
M  V30 6556 C 615.05 -1.61317 0.988606 0
M  V30 6557 O 614.393 -1.83679 -0.0279159 0
M  V30 6558 C 614.455 -1.24956 3.37085 0
M  V30 6559 C 614.119 -0.342398 4.55716 0
M  V30 6560 C 615.116 0.415511 5.18237 0
M  V30 6561 C 612.801 -0.256029 5.01647 0
M  V30 6562 C 614.795 1.24761 6.25071 0
M  V30 6563 C 612.482 0.579713 6.08344 0
M  V30 6564 C 613.48 1.33017 6.69922 0
M  V30 6565 O 613.168 2.15205 7.74559 0
M  V30 6566 H 612.9 -0.152792 0.658506 0
M  V30 6567 H 615.454 0.19076 2.04512 0
M  V30 6568 H 613.684 -2.04424 3.2825 0
M  V30 6569 H 615.373 -1.81286 3.63167 0
M  V30 6570 H 616.139 0.358605 4.83672 0
M  V30 6571 H 612.018 -0.829831 4.5347 0
M  V30 6572 H 615.562 1.83386 6.73064 0
M  V30 6573 H 611.459 0.638044 6.42339 0
M  V30 6574 H 612.227 2.08052 7.91617 0
M  V30 6575 N 614.89 -1.56749 -0.16351 0
M  V30 6576 C 616.136 -1.82704 -0.880168 0
M  V30 6577 C 616.469 -0.689311 -1.81555 0
M  V30 6578 O 615.744 0.308224 -1.92042 0
M  V30 6579 C 616.027 -3.19084 -1.66905 0
M  V30 6580 C 615.88 -4.43397 -0.756269 0
M  V30 6581 C 617.199 -3.52493 -2.63509 0
M  V30 6582 H 614.318 -0.664608 -0.318535 0
M  V30 6583 H 616.96 -1.89438 -0.146036 0
M  V30 6584 H 615.11 -3.13475 -2.2949 0
M  V30 6585 H 616.782 -4.61079 -0.14269 0
M  V30 6586 H 615.025 -4.33752 -0.0647944 0
M  V30 6587 H 615.696 -5.3539 -1.34393 0
M  V30 6588 H 618.172 -3.58606 -2.11047 0
M  V30 6589 H 617.048 -4.48979 -3.15767 0
M  V30 6590 H 617.309 -2.77597 -3.44082 0
M  V30 6591 N 616.368 0.432326 -1.51554 0
M  V30 6592 C 617.278 1.55023 -1.76082 0
M  V30 6593 C 618.294 1.61593 -0.645265 0
M  V30 6594 O 619.47 1.78742 -0.928086 0
M  V30 6595 C 616.535 2.90964 -1.88523 0
M  V30 6596 C 615.596 2.9447 -3.12388 0
M  V30 6597 C 614.829 4.23926 -3.24225 0
M  V30 6598 O 615.052 5.16576 -2.4188 0
M  V30 6599 O 613.986 4.33818 -4.17235 0
M  V30 6600 H 617.812 1.37238 -2.70923 0
M  V30 6601 H 615.397 0.615845 -1.36117 0
M  V30 6602 H 617.279 3.71633 -1.98662 0
M  V30 6603 H 615.954 3.08865 -0.9687 0
M  V30 6604 H 614.861 2.12737 -3.07723 0
M  V30 6605 H 616.194 2.81514 -4.03746 0
M  V30 6606 N 617.846 1.41785 0.688094 0
M  V30 6607 C 618.809 1.43936 1.78368 0
M  V30 6608 C 619.809 0.328866 1.57401 0
M  V30 6609 O 620.999 0.589093 1.63937 0
M  V30 6610 C 618.131 1.25804 3.16838 0
M  V30 6611 H 619.324 2.41472 1.77852 0
M  V30 6612 H 616.877 1.28037 0.896448 0
M  V30 6613 H 617.612 0.291386 3.22988 0
M  V30 6614 H 617.397 2.06272 3.33458 0
M  V30 6615 H 618.887 1.30162 3.96797 0
M  V30 6616 N 619.324 -0.923095 1.27737 0
M  V30 6617 C 620.552 -1.70525 1.17171 0
M  V30 6618 C 620.967 -1.86847 -0.270881 0
M  V30 6619 O 620.324 -1.38879 -1.18401 0
M  V30 6620 C 620.375 -3.10242 1.85559 0
M  V30 6621 O 620.096 -2.94683 3.24182 0
M  V30 6622 C 621.597 -4.04586 1.81176 0
M  V30 6623 H 618.817 -0.533347 0.407163 0
M  V30 6624 H 621.361 -1.15599 1.68692 0
M  V30 6625 H 619.516 -3.62014 1.3793 0
M  V30 6626 H 619.93 -3.83045 3.58297 0
M  V30 6627 H 621.404 -5.00119 2.33633 0
M  V30 6628 H 621.881 -4.3218 0.782099 0
M  V30 6629 H 622.487 -3.58741 2.2844 0
M  V30 6630 N 620.802 -1.09834 -1.13024 0
M  V30 6631 C 621.749 -0.741522 -2.18564 0
M  V30 6632 C 622.719 0.279236 -1.63736 0
M  V30 6633 O 623.904 0.159923 -1.90129 0
M  V30 6634 C 621.044 -0.17277 -3.44667 0
M  V30 6635 C 620.157 -1.24808 -4.13578 0
M  V30 6636 C 619.292 -0.641631 -5.27311 0
M  V30 6637 C 618.331 -1.69795 -5.88078 0
M  V30 6638 N 617.468 -1.11223 -6.93234 0
M  V30 6639 H 622.308 -1.64576 -2.48432 0
M  V30 6640 H 619.845 -0.822174 -1.21978 0
M  V30 6641 H 621.803 0.17482 -4.16834 0
M  V30 6642 H 620.433 0.694725 -3.15235 0
M  V30 6643 H 619.485 -1.71288 -3.39653 0
M  V30 6644 H 620.797 -2.04795 -4.54819 0
M  V30 6645 H 619.951 -0.243128 -6.06213 0
M  V30 6646 H 618.69 0.189742 -4.87331 0
M  V30 6647 H 617.695 -2.10595 -5.07868 0
M  V30 6648 H 618.92 -2.53206 -6.3013 0
M  V30 6649 H 616.866 -0.302208 -6.55304 0
M  V30 6650 H 616.783 -1.84901 -7.3304 0
M  V30 6651 H 618.051 -0.740068 -7.75979 0
M  V30 6652 N 622.28 1.30327 -0.886154 0
M  V30 6653 C 623.212 2.27079 -0.311072 0
M  V30 6654 C 624.225 1.53758 0.53502 0
M  V30 6655 O 625.414 1.74947 0.354378 0
M  V30 6656 C 622.514 3.33965 0.576228 0
M  V30 6657 C 621.687 4.36735 -0.241064 0
M  V30 6658 C 620.746 5.23028 0.576916 0
M  V30 6659 O 619.772 5.692 -0.000802231 0
M  V30 6660 N 620.974 5.49016 1.88579 0
M  V30 6661 H 623.739 2.77065 -1.14259 0
M  V30 6662 H 621.3 1.43519 -0.749258 0
M  V30 6663 H 623.292 3.88618 1.12953 0
M  V30 6664 H 621.862 2.839 1.30842 0
M  V30 6665 H 621.082 3.81932 -0.975805 0
M  V30 6666 H 622.37 5.02451 -0.801272 0
M  V30 6667 H 621.768 5.13288 2.37806 0
M  V30 6668 H 620.325 6.06539 2.38651 0
M  V30 6669 N 623.758 0.647228 1.43697 0
M  V30 6670 C 625.007 0.155552 2.01099 0
M  V30 6671 C 625.32 -1.23569 1.51624 0
M  V30 6672 O 626.526 -1.82226 2.01261 0
M  V30 6673 C 624.982 0.227296 3.59182 0
M  V30 6674 C 624.59 1.62086 4.17651 0
M  V30 6675 C 626.334 -0.207085 4.23995 0
M  V30 6676 C 624.241 1.64685 5.68008 0
M  V30 6677 H 623.171 0.0543895 0.752036 0
M  V30 6678 H 625.822 0.808386 1.64734 0
M  V30 6679 H 624.204 -0.492937 3.9292 0
M  V30 6680 H 625.378 2.36597 3.95422 0
M  V30 6681 H 623.693 2.0007 3.65186 0
M  V30 6682 H 626.29 -0.207426 5.34298 0
M  V30 6683 H 626.633 -1.23742 3.97484 0
M  V30 6684 H 627.166 0.461193 3.95118 0
M  V30 6685 H 623.905 2.65608 5.99277 0
M  V30 6686 H 623.425 0.944914 5.9231 0
M  V30 6687 H 625.104 1.38792 6.31938 0
M  V30 6688 N 625.236 -1.5273 0.388769 0
M  V30 6689 C 626.485 -2.00757 -0.194833 0
M  V30 6690 C 626.798 -1.27951 -1.47946 0
M  V30 6691 O 628.004 -1.66686 -2.14308 0
M  V30 6692 C 626.46 -3.57695 -0.397762 0
M  V30 6693 C 626.068 -4.394 0.873583 0
M  V30 6694 C 627.812 -4.14012 -0.937759 0
M  V30 6695 C 625.719 -5.87938 0.638962 0
M  V30 6696 H 624.649 -0.750101 -0.0765845 0
M  V30 6697 H 627.3 -1.76239 0.511086 0
M  V30 6698 H 625.682 -3.7846 -1.16552 0
M  V30 6699 H 626.856 -4.30403 1.64591 0
M  V30 6700 H 625.171 -3.94301 1.33849 0
M  V30 6701 H 627.768 -5.22645 -1.12899 0
M  V30 6702 H 628.111 -3.7007 -1.90666 0
M  V30 6703 H 628.644 -3.97137 -0.229588 0
M  V30 6704 H 625.383 -6.36202 1.57885 0
M  V30 6705 H 624.903 -5.99726 -0.094443 0
M  V30 6706 H 626.582 -6.46423 0.273299 0
M  V30 6707 N 626.714 -0.118576 -1.57153 0
M  V30 6708 C 627.661 0.831789 -2.1529 0
M  V30 6709 C 628.631 1.26385 -1.07778 0
M  V30 6710 O 629.816 1.34144 -1.35684 0
M  V30 6711 C 626.956 2.07664 -2.75626 0
M  V30 6712 C 626.069 1.69298 -3.97444 0
M  V30 6713 C 625.204 2.88747 -4.45868 0
M  V30 6714 C 624.243 2.46619 -5.60219 0
M  V30 6715 N 623.38 3.5898 -6.03389 0
M  V30 6716 H 628.22 0.329183 -2.96176 0
M  V30 6717 H 625.757 0.150792 -1.46325 0
M  V30 6718 H 627.715 2.80601 -3.08738 0
M  V30 6719 H 626.345 2.55384 -1.97431 0
M  V30 6720 H 625.397 0.862374 -3.70496 0
M  V30 6721 H 626.709 1.34338 -4.80369 0
M  V30 6722 H 625.863 3.69909 -4.80887 0
M  V30 6723 H 624.602 3.26933 -3.61892 0
M  V30 6724 H 623.607 1.63889 -5.24805 0
M  V30 6725 H 624.832 2.0955 -6.45961 0
M  V30 6726 H 622.778 3.9684 -5.22354 0
M  V30 6727 H 622.695 3.27942 -6.81168 0
M  V30 6728 H 623.963 4.40583 -6.43045 0
M  V30 6729 N 628.193 1.56834 0.155195 0
M  V30 6730 C 629.421 1.87049 0.884326 0
M  V30 6731 C 629.836 0.705839 1.7511 0
M  V30 6732 O 629.193 -0.324641 1.79589 0
M  V30 6733 C 629.244 3.1644 1.74781 0
M  V30 6734 O 628.965 4.28417 0.915978 0
M  V30 6735 C 630.466 3.60113 2.58522 0
M  V30 6736 H 627.686 0.620196 0.25612 0
M  V30 6737 H 630.23 2.03946 0.150445 0
M  V30 6738 H 628.385 3.01321 2.43484 0
M  V30 6739 H 628.799 5.02353 1.50803 0
M  V30 6740 H 630.273 4.53508 3.14698 0
M  V30 6741 H 630.75 2.85005 3.34169 0
M  V30 6742 H 631.356 3.77898 1.95124 0
M  V30 6743 N 629.671 -0.424282 1.51781 0
M  V30 6744 C 630.634 -1.49848 1.73431 0
M  V30 6745 C 631.634 -1.49016 0.604225 0
M  V30 6746 O 632.824 -1.50808 0.871935 0
M  V30 6747 C 629.956 -2.89332 1.80277 0
M  V30 6748 H 631.149 -1.3195 2.69312 0
M  V30 6749 H 628.702 -0.653809 1.41968 0
M  V30 6750 H 629.437 -3.12618 0.862568 0
M  V30 6751 H 629.222 -2.9134 2.62419 0
M  V30 6752 H 630.712 -3.67233 1.98821 0
M  V30 6753 N 631.149 -1.42148 -0.680565 0
M  V30 6754 C 632.565 -1.24947 -0.992995 0
M  V30 6755 C 632.765 -0.149527 -2.00944 0
M  V30 6756 O 631.821 0.481145 -2.47873 0
M  V30 6757 C 633.134 -2.60426 -1.5033 0
M  V30 6758 C 634.682 -2.67733 -1.62137 0
M  V30 6759 C 635.157 -4.03564 -2.16565 0
M  V30 6760 N 636.648 -4.05488 -2.23905 0
M  V30 6761 C 637.383 -5.07401 -2.67081 0
M  V30 6762 N 636.879 -6.19698 -3.09751 0
M  V30 6763 N 638.672 -4.94758 -2.66778 0
M  V30 6764 H 630.823 -2.12399 -0.0074788 0
M  V30 6765 H 633.086 -0.94571 -0.0658529 0
M  V30 6766 H 632.792 -3.41743 -0.830947 0
M  V30 6767 H 632.666 -2.83949 -2.483 0
M  V30 6768 H 635.053 -1.86765 -2.2848 0
M  V30 6769 H 635.134 -2.48004 -0.626713 0
M  V30 6770 H 634.778 -4.84987 -1.50833 0
M  V30 6771 H 634.708 -4.20641 -3.1681 0
M  V30 6772 H 637.199 -3.24415 -1.93812 0
M  V30 6773 H 637.512 -6.93318 -3.41365 0
M  V30 6774 H 635.857 -6.23212 -3.07623 0
M  V30 6775 H 639.048 -4.06105 -2.32801 0
M  V30 6776 H 639.221 -5.74317 -3.00107 0
M  V30 6777 N 632.627 0.916307 -1.28225 0
M  V30 6778 C 633.874 1.66518 -1.1523 0
M  V30 6779 C 634.202 1.92178 0.299632 0
M  V30 6780 O 633.457 1.51842 1.2346 0
M  V30 6781 C 633.756 3.03125 -1.8934 0
M  V30 6782 C 633.422 2.97135 -3.39148 0
M  V30 6783 C 632.084 2.95208 -3.80007 0
M  V30 6784 C 634.436 2.87574 -4.34685 0
M  V30 6785 C 631.764 2.81518 -5.14747 0
M  V30 6786 C 634.116 2.75424 -5.69495 0
M  V30 6787 C 632.78 2.71854 -6.09632 0
M  V30 6788 H 632.05 0.609334 -0.421655 0
M  V30 6789 H 634.697 1.06776 -1.58969 0
M  V30 6790 H 633.002 3.66639 -1.38143 0
M  V30 6791 H 634.699 3.59968 -1.76704 0
M  V30 6792 H 631.289 2.99428 -3.06661 0
M  V30 6793 H 635.473 2.88152 -4.04082 0
M  V30 6794 H 630.729 2.77148 -5.44976 0
M  V30 6795 H 634.903 2.66993 -6.43185 0
M  V30 6796 H 632.53 2.61003 -7.1399 0
M  V30 6797 N 634.105 1.10431 1.1244 0
M  V30 6798 C 635.035 0.775143 2.20258 0
M  V30 6799 C 636.016 -0.25186 1.68225 0
M  V30 6800 O 637.201 -0.117637 1.93843 0
M  V30 6801 C 634.331 0.206133 3.46688 0
M  V30 6802 C 633.285 1.16382 4.11873 0
M  V30 6803 C 632.611 0.456014 5.32752 0
M  V30 6804 C 633.911 2.5104 4.58013 0
M  V30 6805 H 635.605 1.67665 2.4805 0
M  V30 6806 H 633.151 0.807595 1.19222 0
M  V30 6807 H 635.104 -0.036291 4.21384 0
M  V30 6808 H 633.828 -0.730614 3.18323 0
M  V30 6809 H 632.487 1.39169 3.39157 0
M  V30 6810 H 632.135 -0.485203 5.00654 0
M  V30 6811 H 631.835 1.09466 5.77314 0
M  V30 6812 H 633.359 0.222135 6.10196 0
M  V30 6813 H 634.773 2.32401 5.24083 0
M  V30 6814 H 633.17 3.10789 5.13352 0
M  V30 6815 H 634.24 3.11039 3.71998 0
M  V30 6816 N 635.583 -1.29855 0.893053 0
M  V30 6817 C 636.53 -2.27909 0.364161 0
M  V30 6818 C 637.5 -1.56726 -0.550093 0
M  V30 6819 O 638.685 -1.84747 -0.47677 0
M  V30 6820 C 635.825 -3.42678 -0.408178 0
M  V30 6821 C 634.938 -4.28659 0.536212 0
M  V30 6822 C 634.073 -5.30599 -0.252521 0
M  V30 6823 C 633.112 -6.08234 0.686822 0
M  V30 6824 N 632.249 -7.02068 -0.0670902 0
M  V30 6825 H 637.089 -2.72531 1.20544 0
M  V30 6826 H 634.626 -1.34047 0.605779 0
M  V30 6827 H 636.584 -4.07986 -0.871962 0
M  V30 6828 H 635.214 -2.99103 -1.21397 0
M  V30 6829 H 634.266 -3.63584 1.1185 0
M  V30 6830 H 635.578 -4.8274 1.25552 0
M  V30 6831 H 634.732 -6.01694 -0.777801 0
M  V30 6832 H 633.471 -4.77233 -1.005 0
M  V30 6833 H 632.476 -5.3601 1.22366 0
M  V30 6834 H 633.701 -6.63689 1.43852 0
M  V30 6835 H 631.647 -6.5108 -0.801955 0
M  V30 6836 H 631.564 -7.53675 0.59243 0
M  V30 6837 H 632.832 -7.77392 -0.572851 0
M  V30 6838 N 637.061 -0.65484 -1.43351 0
M  V30 6839 C 638.286 -0.175046 -2.0666 0
M  V30 6840 C 638.711 1.15104 -1.4877 0
M  V30 6841 O 638.069 1.71144 -0.598279 0
M  V30 6842 C 638.117 -0.0991544 -3.60464 0
M  V30 6843 O 637.221 0.938169 -4.01587 0
M  V30 6844 H 636.562 -0.0956148 -0.65708 0
M  V30 6845 H 639.092 -0.898222 -1.83829 0
M  V30 6846 H 639.102 0.083632 -4.07914 0
M  V30 6847 H 637.777 -1.06719 -4.01975 0
M  V30 6848 H 636.354 0.72804 -3.65724 0
M  V30 6849 N 638.539 1.52521 -0.396863 0
M  V30 6850 C 639.449 2.30403 0.44178 0
M  V30 6851 C 640.465 1.37625 1.06468 0
M  V30 6852 O 641.641 1.70697 1.06886 0
M  V30 6853 C 638.706 3.1013 1.54986 0
M  V30 6854 C 637.767 4.18628 0.951279 0
M  V30 6855 C 637 4.94543 2.00655 0
M  V30 6856 O 637.223 4.70629 3.22281 0
M  V30 6857 O 636.157 5.797 1.61962 0
M  V30 6858 H 639.983 3.03087 -0.192892 0
M  V30 6859 H 637.568 1.48537 -0.16038 0
M  V30 6860 H 639.45 3.59816 2.19341 0
M  V30 6861 H 638.125 2.40251 2.16935 0
M  V30 6862 H 637.032 3.73119 0.270773 0
M  V30 6863 H 638.365 4.90763 0.375887 0
M  V30 6864 N 640.017 0.126909 1.57088 0
M  V30 6865 C 640.947 -0.816847 2.18746 0
M  V30 6866 C 641.928 -1.27161 1.12979 0
M  V30 6867 O 643.113 -1.33279 1.41246 0
M  V30 6868 C 640.243 -2.06398 2.79315 0
M  V30 6869 C 639.197 -1.74673 3.90735 0
M  V30 6870 C 638.523 -3.06482 4.38147 0
M  V30 6871 C 639.823 -1.0089 5.12463 0
M  V30 6872 H 641.517 -0.303032 2.97863 0
M  V30 6873 H 639.063 -0.144314 1.43275 0
M  V30 6874 H 641.016 -2.72885 3.2111 0
M  V30 6875 H 639.74 -2.60118 1.975 0
M  V30 6876 H 638.399 -1.10572 3.49527 0
M  V30 6877 H 638.047 -3.58152 3.5318 0
M  V30 6878 H 637.747 -2.86025 5.13287 0
M  V30 6879 H 639.271 -3.74073 4.82599 0
M  V30 6880 H 640.685 -1.57546 5.51228 0
M  V30 6881 H 639.082 -0.905006 5.93237 0
M  V30 6882 H 640.152 0.00297335 4.849 0
M  V30 6883 N 641.495 -1.56914 -0.146875 0
M  V30 6884 C 642.405 -2.0154 -1.20079 0
M  V30 6885 C 643.421 -0.930838 -1.47008 0
M  V30 6886 O 644.597 -1.24032 -1.58676 0
M  V30 6887 C 641.662 -2.38715 -2.51428 0
M  V30 6888 C 640.723 -3.6112 -2.32145 0
M  V30 6889 C 639.956 -3.96512 -3.57231 0
M  V30 6890 O 640.179 -3.32566 -4.63418 0
M  V30 6891 O 639.113 -4.89758 -3.49887 0
M  V30 6892 H 642.939 -2.91506 -0.851924 0
M  V30 6893 H 640.524 -1.45106 -0.355607 0
M  V30 6894 H 642.406 -2.63485 -3.28867 0
M  V30 6895 H 641.081 -1.51903 -2.85845 0
M  V30 6896 H 639.988 -3.41536 -1.52656 0
M  V30 6897 H 641.321 -4.48549 -2.02644 0
M  V30 6898 N 642.974 0.416227 -1.52004 0
M  V30 6899 C 643.922 1.5272 -1.7544 0
M  V30 6900 C 644.916 1.57596 -0.621289 0
M  V30 6901 O 646.122 1.61087 -0.803172 0
M  V30 6902 H 642.497 0.507772 -0.554682 0
M  V30 6903 H 644.468 1.30136 -2.68528 0
M  V30 6904 C 643.217 2.90165 -1.91571 0
M  V30 6905 H 642.54 2.87154 -2.78178 0
M  V30 6906 H 643.98 3.67211 -2.11972 0
M  V30 6907 C 642.439 3.29947 -0.680942 0
M  V30 6908 O 642.969 4.01403 0.154527 0
M  V30 6909 N 641.175 2.8593 -0.518894 0
M  V30 6910 H 640.722 2.2795 -1.19986 0
M  V30 6911 H 640.68 3.12907 0.305985 0
M  V30 6912 N 644.452 1.42507 0.673017 0
M  V30 6913 C 645.701 1.42364 1.42883 0
M  V30 6914 C 646.014 0.0441598 1.9555 0
M  V30 6915 O 647.22 -0.0798679 2.71382 0
M  V30 6916 C 645.676 2.5043 2.58482 0
M  V30 6917 C 645.284 3.94392 2.12506 0
M  V30 6918 C 647.028 2.59455 3.35981 0
M  V30 6919 C 644.935 4.93964 3.25198 0
M  V30 6920 H 643.865 0.52951 0.536782 0
M  V30 6921 H 646.516 1.68422 0.728448 0
M  V30 6922 H 644.898 2.1754 3.30896 0
M  V30 6923 H 646.072 4.36645 1.47233 0
M  V30 6924 H 644.387 3.89233 1.4794 0
M  V30 6925 H 646.984 3.31025 4.19912 0
M  V30 6926 H 647.327 1.63869 3.82691 0
M  V30 6927 H 647.86 2.91549 2.70637 0
M  V30 6928 H 644.599 5.91034 2.83477 0
M  V30 6929 H 644.119 4.56341 3.89247 0
M  V30 6930 H 645.798 5.15763 3.90637 0
M  V30 6931 N 645.93 -0.909495 1.28709 0
M  V30 6932 C 646.877 -2.01245 1.13 0
M  V30 6933 C 647.847 -1.6608 0.0259684 0
M  V30 6934 O 649.032 -1.89835 0.191687 0
M  V30 6935 C 646.172 -3.35644 0.802315 0
M  V30 6936 C 645.285 -3.83653 1.98582 0
M  V30 6937 C 644.42 -5.06582 1.59837 0
M  V30 6938 C 643.459 -5.46934 2.74827 0
M  V30 6939 N 642.596 -6.61053 2.36546 0
M  V30 6940 H 647.436 -2.14013 2.0737 0
M  V30 6941 H 644.973 -1.0482 1.03205 0
M  V30 6942 H 646.931 -4.12963 0.593057 0
M  V30 6943 H 645.561 -3.22631 -0.104457 0
M  V30 6944 H 644.613 -3.02454 2.30708 0
M  V30 6945 H 645.925 -4.09515 2.84779 0
M  V30 6946 H 645.079 -5.91457 1.35143 0
M  V30 6947 H 643.818 -4.82537 0.707753 0
M  V30 6948 H 642.823 -4.60599 3.00215 0
M  V30 6949 H 644.048 -5.72965 3.64538 0
M  V30 6950 H 641.994 -6.3863 1.49959 0
M  V30 6951 H 641.911 -6.86662 3.16277 0
M  V30 6952 H 643.179 -7.49221 2.15146 0
M  V30 6953 N 647.408 -1.11026 -1.11852 0
M  V30 6954 C 648.656 -0.854769 -1.83134 0
M  V30 6955 C 648.977 0.621375 -1.84835 0
M  V30 6956 O 648.247 1.45129 -1.31584 0
M  V30 6957 H 646.827 -0.313229 -0.678157 0
M  V30 6958 H 649.489 -1.40178 -1.35411 0
M  V30 6959 H 648.585 -1.22311 -2.87135 0
M  V30 6960 N 648.886 1.2938 -0.899927 0
M  V30 6961 C 650.135 1.9483 -0.521937 0
M  V30 6962 C 650.448 1.71725 0.936473 0
M  V30 6963 O 651.654 2.31282 1.42199 0
M  V30 6964 C 650.11 3.48911 -0.88255 0
M  V30 6965 C 649.718 3.80815 -2.35974 0
M  V30 6966 C 651.462 4.20595 -0.57448 0
M  V30 6967 C 649.369 5.28142 -2.66121 0
M  V30 6968 H 648.299 0.729285 -0.191468 0
M  V30 6969 H 650.95 1.47103 -1.09695 0
M  V30 6970 H 649.332 3.95293 -0.236459 0
M  V30 6971 H 650.506 3.45291 -3.05141 0
M  V30 6972 H 648.821 3.22271 -2.63686 0
M  V30 6973 H 651.418 5.29031 -0.776556 0
M  V30 6974 H 651.761 4.13442 0.487005 0
M  V30 6975 H 652.294 3.79945 -1.17842 0
M  V30 6976 H 649.033 5.4036 -3.71068 0
M  V30 6977 H 648.553 5.64913 -2.01578 0
M  V30 6978 H 650.232 5.95738 -2.52399 0
M  V30 6979 N 650.364 0.662433 1.43002 0
M  V30 6980 C 651.611 0.179591 2.01702 0
M  V30 6981 C 651.939 -1.20964 1.52309 0
M  V30 6982 O 651.194 -1.82343 0.7106 0
M  V30 6983 C 651.493 0.149363 3.57088 0
M  V30 6984 C 651.159 1.48158 4.25864 0
M  V30 6985 C 649.821 1.84638 4.44367 0
M  V30 6986 C 652.173 2.35953 4.64732 0
M  V30 6987 C 649.501 3.08561 4.99006 0
M  V30 6988 C 651.853 3.59176 5.20745 0
M  V30 6989 C 650.517 3.95841 5.37463 0
M  V30 6990 H 649.787 0.0657172 0.73808 0
M  V30 6991 H 652.434 0.854968 1.71355 0
M  V30 6992 H 650.739 -0.609491 3.8703 0
M  V30 6993 H 652.436 -0.241241 4.00274 0
M  V30 6994 H 649.026 1.18777 4.11813 0
M  V30 6995 H 653.21 2.09058 4.50121 0
M  V30 6996 H 648.466 3.37005 5.10135 0
M  V30 6997 H 652.64 4.27417 5.49807 0
M  V30 6998 H 650.267 4.91942 5.79566 0
M  V30 6999 N 651.842 -1.52309 0.404946 0
M  V30 7000 C 653.088 -2.02065 -0.172455 0
M  V30 7001 C 653.421 -1.29022 -1.45145 0
M  V30 7002 O 652.696 -0.395284 -1.90441 0
M  V30 7003 C 652.979 -3.5759 -0.424433 0
M  V30 7004 C 652.832 -4.41287 0.870945 0
M  V30 7005 C 654.151 -4.23186 -1.20837 0
M  V30 7006 H 651.27 -0.734454 -0.0612035 0
M  V30 7007 H 653.912 -1.82236 0.53759 0
M  V30 7008 H 652.062 -3.74617 -1.02929 0
M  V30 7009 H 653.734 -4.3598 1.50729 0
M  V30 7010 H 651.977 -4.07669 1.48284 0
M  V30 7011 H 652.648 -5.48171 0.649083 0
M  V30 7012 H 655.124 -4.10232 -0.696338 0
M  V30 7013 H 654 -5.31953 -1.35343 0
M  V30 7014 H 654.261 -3.81862 -2.22786 0
M  V30 7015 N 653.32 -0.135238 -1.57019 0
M  V30 7016 C 654.567 0.518794 -1.95742 0
M  V30 7017 C 654.895 1.65642 -1.01947 0
M  V30 7018 O 654.15 1.95645 -0.0464016 0
M  V30 7019 C 654.449 1.07694 -3.40788 0
M  V30 7020 C 654.115 0.058992 -4.50861 0
M  V30 7021 C 652.777 -0.220872 -4.80693 0
M  V30 7022 C 655.129 -0.633856 -5.17331 0
M  V30 7023 C 652.457 -1.19959 -5.74305 0
M  V30 7024 C 654.809 -1.60131 -6.11997 0
M  V30 7025 C 653.473 -1.889 -6.40213 0
M  V30 7026 H 652.743 0.18984 -0.716269 0
M  V30 7027 H 655.39 -0.219581 -1.90237 0
M  V30 7028 H 653.695 1.89241 -3.43067 0
M  V30 7029 H 655.392 1.59137 -3.68071 0
M  V30 7030 H 651.982 0.287304 -4.27636 0
M  V30 7031 H 656.166 -0.430823 -4.94427 0
M  V30 7032 H 651.422 -1.42905 -5.94465 0
M  V30 7033 H 655.596 -2.14376 -6.62583 0
M  V30 7034 H 653.223 -2.64891 -7.12556 0
M  V30 7035 N 654.798 1.5699 0.138552 0
M  V30 7036 C 656.046 1.83446 0.848053 0
M  V30 7037 C 656.367 0.71744 1.81322 0
M  V30 7038 O 655.637 -0.260228 1.94164 0
M  V30 7039 H 654.217 0.676792 0.316166 0
M  V30 7040 H 656.879 1.94462 0.130538 0
M  V30 7041 H 655.975 2.78677 1.40518 0
M  V30 7042 N 656.276 -0.40816 1.52223 0
M  V30 7043 C 657.224 -1.51788 1.76248 0
M  V30 7044 C 658.218 -1.57264 0.629638 0
M  V30 7045 O 659.424 -1.60659 0.811704 0
M  V30 7046 H 655.799 -0.504823 0.557367 0
M  V30 7047 H 657.77 -1.2871 2.69214 0
M  V30 7048 C 656.519 -2.89145 1.93107 0
M  V30 7049 H 655.842 -2.85674 2.79697 0
M  V30 7050 H 657.282 -3.66082 2.13916 0
M  V30 7051 C 655.741 -3.29581 0.698431 0
M  V30 7052 O 656.271 -4.01479 -0.133238 0
M  V30 7053 N 654.477 -2.85651 0.53405 0
M  V30 7054 H 654.024 -2.2731 1.21194 0
M  V30 7055 H 653.982 -3.13065 -0.289387 0
M  V30 7056 N 657.755 -1.42862 -0.66545 0
M  V30 7057 C 659.166 -1.3901 -1.24632 0
M  V30 7058 C 659.517 -0.0880285 -1.96002 0
M  V30 7059 O 658.642 0.812947 -2.0055 0
M  V30 7060 C 659.237 -2.51806 -2.2667 0
M  V30 7061 C 657.796 -2.51257 -2.80262 0
M  V30 7062 C 656.943 -2.30124 -1.5472 0
M  V30 7063 H 659.894 -1.5194 -0.458237 0
M  V30 7064 H 659.915 -2.22593 -3.08598 0
M  V30 7065 H 659.427 -3.46558 -1.74697 0
M  V30 7066 H 657.528 -1.60349 -3.36332 0
M  V30 7067 H 657.641 -3.48614 -3.28641 0
M  V30 7068 H 656.005 -1.7856 -1.81627 0
M  V30 7069 H 656.788 -3.26945 -1.04699 0
M  V30 7070 N 659.233 0.902656 -1.29189 0
M  V30 7071 C 660.165 2.01149 -1.09872 0
M  V30 7072 C 661.178 1.62732 -0.0471046 0
M  V30 7073 O 662.367 1.76107 -0.29132 0
M  V30 7074 C 659.467 3.32612 -0.649818 0
M  V30 7075 C 658.64 3.99574 -1.7793 0
M  V30 7076 C 657.699 5.09325 -1.32191 0
M  V30 7077 O 656.725 5.31919 -2.02611 0
M  V30 7078 N 657.927 5.80185 -0.191171 0
M  V30 7079 H 660.692 2.18276 -2.05368 0
M  V30 7080 H 658.253 1.07466 -1.2109 0
M  V30 7081 H 660.245 4.03375 -0.327199 0
M  V30 7082 H 658.815 3.11876 0.212597 0
M  V30 7083 H 658.035 3.22213 -2.27095 0
M  V30 7084 H 659.323 4.41056 -2.53668 0
M  V30 7085 H 658.721 5.64312 0.396016 0
M  V30 7086 H 657.278 6.5176 0.0721001 0
M  V30 7087 N 660.711 1.11618 1.11262 0
M  V30 7088 C 661.641 0.79846 2.19424 0
M  V30 7089 C 662.622 -0.234003 1.68483 0
M  V30 7090 O 663.807 -0.0970704 1.93957 0
M  V30 7091 C 660.937 0.242892 3.4645 0
M  V30 7092 C 659.891 1.20744 4.10615 0
M  V30 7093 C 659.217 0.512494 5.32238 0
M  V30 7094 C 660.517 2.55884 4.55325 0
M  V30 7095 H 662.211 1.70286 2.46258 0
M  V30 7096 H 659.757 0.820195 1.18359 0
M  V30 7097 H 661.71 0.00840447 4.21399 0
M  V30 7098 H 660.434 -0.696811 3.1908 0
M  V30 7099 H 659.093 1.42759 3.37662 0
M  V30 7100 H 658.741 -0.432075 5.01141 0
M  V30 7101 H 658.441 1.15583 5.7612 0
M  V30 7102 H 659.965 0.286842 6.09926 0
M  V30 7103 H 661.379 2.37946 5.21588 0
M  V30 7104 H 659.776 3.16216 5.10027 0
M  V30 7105 H 660.846 3.14968 3.68678 0
M  V30 7106 N 662.189 -1.289 0.906776 0
M  V30 7107 C 663.414 -1.99939 0.551303 0
M  V30 7108 C 663.839 -1.67366 -0.858496 0
M  V30 7109 O 663.197 -0.902176 -1.57259 0
M  V30 7110 C 663.245 -3.52523 0.758937 0
M  V30 7111 O 662.349 -4.11983 -0.185308 0
M  V30 7112 H 661.69 -0.628376 0.214568 0
M  V30 7113 H 664.22 -1.64225 1.2203 0
M  V30 7114 H 664.23 -4.02522 0.666329 0
M  V30 7115 H 662.905 -3.75566 1.78671 0
M  V30 7116 H 661.482 -3.72873 -0.0445577 0
M  V30 7117 N 663.667 -0.670007 -1.42649 0
M  V30 7118 C 664.913 -0.190568 -2.01903 0
M  V30 7119 C 665.246 1.19817 -1.52832 0
M  V30 7120 O 664.521 1.80342 -0.728485 0
M  V30 7121 C 664.804 -0.21991 -3.59428 0
M  V30 7122 C 664.657 -1.64376 -4.18689 0
M  V30 7123 C 665.976 0.434519 -4.3795 0
M  V30 7124 H 663.095 -0.0707219 -0.733599 0
M  V30 7125 H 665.737 -0.853883 -1.69732 0
M  V30 7126 H 663.887 0.344894 -3.86966 0
M  V30 7127 H 665.559 -2.26044 -4.02122 0
M  V30 7128 H 663.802 -2.18591 -3.747 0
M  V30 7129 H 664.473 -1.61601 -5.27815 0
M  V30 7130 H 666.949 -0.0462156 -4.16074 0
M  V30 7131 H 665.825 0.38333 -5.4756 0
M  V30 7132 H 666.086 1.51135 -4.15464 0
M  V30 7133 N 665.145 1.52092 -0.413018 0
M  V30 7134 C 666.394 2.01041 0.16287 0
M  V30 7135 C 666.707 1.30288 1.45892 0
M  V30 7136 O 667.913 1.70075 2.11629 0
M  V30 7137 C 666.369 3.58283 0.340806 0
M  V30 7138 C 665.977 4.37955 -0.943377 0
M  V30 7139 C 667.721 4.15452 0.871774 0
M  V30 7140 C 665.628 5.86847 -0.732417 0
M  V30 7141 H 664.558 0.751224 0.0646414 0
M  V30 7142 H 667.209 1.75404 -0.539059 0
M  V30 7143 H 665.591 3.80266 1.10516 0
M  V30 7144 H 666.765 4.2773 -1.71418 0
M  V30 7145 H 665.08 3.92122 -1.40105 0
M  V30 7146 H 667.677 5.24375 1.0457 0
M  V30 7147 H 668.02 3.73057 1.84755 0
M  V30 7148 H 668.553 3.97452 0.166377 0
M  V30 7149 H 665.292 6.33609 -1.67986 0
M  V30 7150 H 664.812 5.998 -0.000980058 0
M  V30 7151 H 666.491 6.45906 -0.376105 0
M  V30 7152 N 666.623 0.143563 1.56945 0
M  V30 7153 C 667.586 -0.783295 2.154 0
M  V30 7154 C 668.586 -1.17763 1.09492 0
M  V30 7155 O 669.776 -1.09912 1.35148 0
M  V30 7156 C 666.908 -2.06248 2.7143 0
M  V30 7157 H 668.101 -0.274863 2.98638 0
M  V30 7158 H 665.654 -0.105859 1.55941 0
M  V30 7159 H 666.389 -2.61466 1.91849 0
M  V30 7160 H 666.174 -1.78897 3.4891 0
M  V30 7161 H 667.664 -2.72453 3.16479 0
M  V30 7162 N 668.101 -1.57061 -0.130224 0
M  V30 7163 C 669.031 -2.02552 -1.16168 0
M  V30 7164 C 670.012 -0.907971 -1.4384 0
M  V30 7165 O 671.197 -1.17693 -1.54473 0
M  V30 7166 C 668.327 -2.42035 -2.49071 0
M  V30 7167 C 667.281 -3.5713 -2.35886 0
M  V30 7168 C 666.607 -3.82478 -3.7365 0
M  V30 7169 C 667.907 -4.89236 -1.8288 0
M  V30 7170 H 669.601 -2.8897 -0.783359 0
M  V30 7171 H 667.147 -1.39021 -0.375376 0
M  V30 7172 H 669.1 -2.72462 -3.21469 0
M  V30 7173 H 667.824 -1.52573 -2.88771 0
M  V30 7174 H 666.483 -3.26895 -1.65938 0
M  V30 7175 H 666.131 -2.9024 -4.10816 0
M  V30 7176 H 665.831 -4.59944 -3.65685 0
M  V30 7177 H 667.355 -4.15347 -4.47571 0
M  V30 7178 H 668.769 -5.18272 -2.45085 0
M  V30 7179 H 667.166 -5.70624 -1.85763 0
M  V30 7180 H 668.236 -4.78494 -0.785571 0
M  V30 7181 N 669.579 0.400081 -1.52437 0
M  V30 7182 C 670.827 1.14392 -1.6661 0
M  V30 7183 C 671.148 1.90792 -0.402927 0
M  V30 7184 O 670.418 1.87042 0.582425 0
M  V30 7185 H 668.998 0.425275 -0.614125 0
M  V30 7186 H 671.66 0.455076 -1.89513 0
M  V30 7187 H 670.756 1.85298 -2.51139 0
M  V30 7188 N 671.057 1.43213 0.657864 0
M  V30 7189 C 672.282 1.48227 1.45064 0
M  V30 7190 C 672.707 0.0999939 1.87834 0
M  V30 7191 O 672.065 -0.905269 1.57081 0
M  V30 7192 C 672.113 2.42931 2.6649 0
M  V30 7193 O 671.217 1.91237 3.6538 0
M  V30 7194 H 670.558 0.501551 0.435135 0
M  V30 7195 H 673.088 1.8808 0.805431 0
M  V30 7196 H 673.098 2.6008 3.1436 0
M  V30 7197 H 671.773 3.43348 2.34701 0
M  V30 7198 H 670.35 1.83726 3.24498 0
M  V30 7199 N 672.536 -0.895792 1.29666 0
M  V30 7200 C 673.952 -1.17726 1.07763 0
M  V30 7201 C 674.152 -2.00794 -0.168576 0
M  V30 7202 O 673.208 -2.37213 -0.865244 0
M  V30 7203 C 674.521 -1.89441 2.33522 0
M  V30 7204 C 676.069 -2.02251 2.3888 0
M  V30 7205 C 676.544 -2.77378 3.64452 0
M  V30 7206 N 678.035 -2.8493 3.65198 0
M  V30 7207 C 678.77 -3.43606 4.59045 0
M  V30 7208 N 678.266 -4.03417 5.63228 0
M  V30 7209 N 680.059 -3.41317 4.46608 0
M  V30 7210 H 672.21 -0.341652 2.09634 0
M  V30 7211 H 674.473 -0.213865 0.923561 0
M  V30 7212 H 674.179 -1.35842 3.24407 0
M  V30 7213 H 674.053 -2.89893 2.41334 0
M  V30 7214 H 676.44 -2.55025 1.4848 0
M  V30 7215 H 676.521 -1.0092 2.3505 0
M  V30 7216 H 676.165 -2.25279 4.55205 0
M  V30 7217 H 676.095 -3.79062 3.65541 0
M  V30 7218 H 678.586 -2.42453 2.89871 0
M  V30 7219 H 678.899 -4.46224 6.30955 0
M  V30 7220 H 677.244 -4.01868 5.67033 0
M  V30 7221 H 680.435 -2.93812 3.64407 0
M  V30 7222 H 680.608 -3.86751 5.1993 0
M  V30 7223 N 674.014 -1.12206 -1.10668 0
M  V30 7224 C 675.291 -0.787382 -1.79052 0
M  V30 7225 C 675.671 0.723267 -1.98323 0
M  V30 7226 O 675.019 1.6561 -1.57434 0
M  V30 7227 C 675.229 -1.55968 -3.1221 0
M  V30 7228 C 676.577 -1.74413 -3.87125 0
M  V30 7229 O 677.601 -1.5246 -3.21923 0
M  V30 7230 O 676.46 -2.10952 -5.04144 0
M  V30 7231 H 673.554 -0.286137 -0.775922 0
M  V30 7232 H 676.1 -1.22595 -1.1734 0
M  V30 7233 H 674.872 -2.58692 -2.93588 0
M  V30 7234 H 674.495 -1.1152 -3.8164 0
M  V30 7235 N 675.492 1.28418 -0.913599 0
M  V30 7236 C 676.739 1.94981 -0.546674 0
M  V30 7237 C 677.067 1.7192 0.909606 0
M  V30 7238 O 676.322 1.03314 1.66207 0
M  V30 7239 C 676.621 3.48283 -0.802099 0
M  V30 7240 C 676.287 3.91444 -2.2379 0
M  V30 7241 C 674.949 4.02939 -2.63046 0
M  V30 7242 C 677.301 4.13542 -3.17227 0
M  V30 7243 C 674.629 4.3391 -3.94891 0
M  V30 7244 C 676.981 4.45992 -4.48636 0
M  V30 7245 C 675.645 4.55698 -4.87746 0
M  V30 7246 H 674.915 0.713487 -0.200042 0
M  V30 7247 H 677.562 1.52756 -1.15489 0
M  V30 7248 H 675.867 3.91643 -0.111076 0
M  V30 7249 H 677.564 3.97903 -0.497375 0
M  V30 7250 H 674.154 3.83024 -1.9233 0
M  V30 7251 H 678.338 4.04114 -2.88107 0
M  V30 7252 H 673.594 4.39631 -4.24894 0
M  V30 7253 H 677.768 4.62038 -5.21051 0
M  V30 7254 H 675.395 4.79451 -5.89942 0
M  V30 7255 N 676.97 0.677563 1.42291 0
M  V30 7256 C 678.247 0.129803 1.95169 0
M  V30 7257 C 678.627 -1.35605 1.61786 0
M  V30 7258 O 677.975 -2.09361 0.915444 0
M  V30 7259 C 678.185 0.401889 3.46678 0
M  V30 7260 C 679.533 0.319889 4.23393 0
M  V30 7261 O 680.557 0.33579 3.54614 0
M  V30 7262 O 679.416 0.264459 5.4586 0
M  V30 7263 H 676.51 0.00447433 0.826988 0
M  V30 7264 H 679.056 0.752483 1.52105 0
M  V30 7265 H 677.828 1.43108 3.64192 0
M  V30 7266 H 677.451 -0.252662 3.96796 0
M  V30 7267 N 678.448 -1.51871 0.421078 0
M  V30 7268 C 679.697 -2.01125 -0.152206 0
M  V30 7269 C 680.01 -1.3106 -1.45199 0
M  V30 7270 O 681.216 -1.71195 -2.10724 0
M  V30 7271 C 679.672 -3.58458 -0.3218 0
M  V30 7272 C 679.28 -4.37448 0.96659 0
M  V30 7273 C 681.024 -4.15908 -0.84973 0
M  V30 7274 C 678.931 -5.86451 0.763529 0
M  V30 7275 H 677.861 -0.751556 -0.0606565 0
M  V30 7276 H 680.512 -1.75115 0.548354 0
M  V30 7277 H 678.894 -3.80847 -1.08498 0
M  V30 7278 H 680.068 -4.26814 1.73684 0
M  V30 7279 H 678.383 -3.91373 1.42183 0
M  V30 7280 H 680.98 -5.24922 -1.01788 0
M  V30 7281 H 681.323 -3.74031 -1.82774 0
M  V30 7282 H 681.856 -3.97535 -0.145297 0
M  V30 7283 H 678.595 -6.3271 1.71344 0
M  V30 7284 H 678.115 -5.99791 0.0327889 0
M  V30 7285 H 679.794 -6.45697 0.410354 0
M  V30 7286 N 679.926 -0.151884 -1.56866 0
M  V30 7287 C 681.156 0.504081 -2.00356 0
M  V30 7288 C 681.564 1.58639 -1.03103 0
M  V30 7289 O 680.907 1.83688 -0.0207931 0
M  V30 7290 C 680.969 1.15975 -3.40279 0
M  V30 7291 C 680.633 0.221453 -4.56463 0
M  V30 7292 C 681.63 -0.552766 -5.16953 0
M  V30 7293 C 679.315 0.122936 -5.0215 0
M  V30 7294 C 681.309 -1.4129 -6.21543 0
M  V30 7295 C 678.996 -0.740801 -6.06593 0
M  V30 7296 C 679.994 -1.50732 -6.6616 0
M  V30 7297 O 679.682 -2.35666 -7.68581 0
M  V30 7298 H 679.414 0.135279 -0.662326 0
M  V30 7299 H 681.968 -0.244916 -2.03935 0
M  V30 7300 H 680.198 1.95649 -3.33554 0
M  V30 7301 H 681.887 1.71594 -3.67846 0
M  V30 7302 H 682.653 -0.486716 -4.82552 0
M  V30 7303 H 678.532 0.70931 -4.5551 0
M  V30 7304 H 682.076 -2.01166 -6.67966 0
M  V30 7305 H 677.973 -0.808125 -6.40421 0
M  V30 7306 H 678.741 -2.28967 -7.85822 0
M  V30 7307 N 681.404 1.57128 0.121893 0
M  V30 7308 C 682.82 1.52357 0.47534 0
M  V30 7309 C 683.02 0.864417 1.82017 0
M  V30 7310 O 682.076 0.445529 2.48538 0
M  V30 7311 C 683.389 2.97122 0.4625 0
M  V30 7312 C 684.937 3.08196 0.546255 0
M  V30 7313 C 685.412 4.54516 0.563833 0
M  V30 7314 N 686.903 4.58959 0.625353 0
M  V30 7315 C 687.638 5.69585 0.660354 0
M  V30 7316 N 687.134 6.89714 0.653175 0
M  V30 7317 N 688.927 5.57685 0.703143 0
M  V30 7318 H 681.078 1.98364 -0.75931 0
M  V30 7319 H 683.341 0.905777 -0.279772 0
M  V30 7320 H 683.047 3.48706 -0.457943 0
M  V30 7321 H 682.921 3.54406 1.29136 0
M  V30 7322 H 685.308 2.56617 1.45712 0
M  V30 7323 H 685.389 2.53912 -0.310234 0
M  V30 7324 H 685.033 5.06741 -0.342974 0
M  V30 7325 H 684.963 5.06609 1.43716 0
M  V30 7326 H 687.454 3.72489 0.637182 0
M  V30 7327 H 687.767 7.69781 0.682425 0
M  V30 7328 H 686.112 6.92223 0.620646 0
M  V30 7329 H 689.303 4.62744 0.706095 0
M  V30 7330 H 689.476 6.43909 0.726952 0
M  V30 7331 N 682.882 -0.391992 1.52647 0
M  V30 7332 C 683.812 -1.48517 1.8018 0
M  V30 7333 C 684.793 -1.57039 0.653667 0
M  V30 7334 O 685.978 -1.72036 0.900962 0
M  V30 7335 C 683.108 -2.86161 1.96797 0
M  V30 7336 C 682.062 -2.92481 3.12472 0
M  V30 7337 C 681.388 -4.32546 3.14338 0
M  V30 7338 C 682.688 -2.624 4.51601 0
M  V30 7339 H 684.382 -1.25726 2.71723 0
M  V30 7340 H 681.928 -0.603387 1.30749 0
M  V30 7341 H 683.881 -3.62639 2.14641 0
M  V30 7342 H 682.605 -3.10283 1.01941 0
M  V30 7343 H 681.264 -2.18451 2.94406 0
M  V30 7344 H 680.912 -4.53703 2.1717 0
M  V30 7345 H 680.612 -4.37695 3.92042 0
M  V30 7346 H 682.136 -5.10934 3.34333 0
M  V30 7347 H 683.55 -3.28596 4.69785 0
M  V30 7348 H 681.947 -2.78903 5.3135 0
M  V30 7349 H 683.017 -1.57754 4.58521 0
M  V30 7350 N 684.36 -1.4356 -0.65026 0
M  V30 7351 C 685.585 -1.48995 -1.44275 0
M  V30 7352 C 686.01 -0.109954 -1.87778 0
M  V30 7353 O 685.368 0.896926 -1.57559 0
M  V30 7354 C 685.416 -2.44341 -2.65198 0
M  V30 7355 O 684.52 -1.93172 -3.6436 0
M  V30 7356 H 683.861 -0.503852 -0.432469 0
M  V30 7357 H 686.391 -1.88504 -0.795446 0
M  V30 7358 H 686.401 -2.61743 -3.12977 0
M  V30 7359 H 685.076 -3.44588 -2.32877 0
M  V30 7360 H 683.653 -1.85445 -3.23519 0
M  V30 7361 N 685.838 0.888903 -1.30139 0
M  V30 7362 C 686.786 2.0156 -1.16088 0
M  V30 7363 C 687.78 1.69239 -0.0737413 0
M  V30 7364 O 688.986 1.78468 -0.234313 0
M  V30 7365 H 685.361 0.660825 -0.358907 0
M  V30 7366 H 687.332 2.10547 -2.11453 0
M  V30 7367 C 686.081 3.36758 -0.865426 0
M  V30 7368 H 685.404 3.62137 -1.69402 0
M  V30 7369 H 686.844 4.16246 -0.807192 0
M  V30 7370 C 685.303 3.34124 0.431577 0
M  V30 7371 O 685.833 3.7445 1.45431 0
M  V30 7372 N 684.039 2.87229 0.441321 0
M  V30 7373 H 683.586 2.54609 -0.391433 0
M  V30 7374 H 683.544 2.8585 1.30909 0
M  V30 7375 N 687.317 1.12792 1.10072 0
M  V30 7376 C 688.247 0.821688 2.18565 0
M  V30 7377 C 689.228 -0.21612 1.68721 0
M  V30 7378 O 690.413 -0.0764932 1.94049 0
M  V30 7379 C 687.543 0.279624 3.46172 0
M  V30 7380 C 686.497 1.25092 4.09312 0
M  V30 7381 C 685.823 0.568916 5.31665 0
M  V30 7382 C 687.123 2.60699 4.52585 0
M  V30 7383 H 688.817 1.72888 2.44438 0
M  V30 7384 H 686.363 0.832702 1.17482 0
M  V30 7385 H 688.316 0.053099 4.21367 0
M  V30 7386 H 687.04 -0.662929 3.19801 0
M  V30 7387 H 685.699 1.46332 3.36129 0
M  V30 7388 H 685.347 -0.378898 5.01571 0
M  V30 7389 H 685.047 1.21687 5.74862 0
M  V30 7390 H 686.571 0.351517 6.09587 0
M  V30 7391 H 687.985 2.43465 5.19035 0
M  V30 7392 H 686.382 3.21608 5.06644 0
M  V30 7393 H 687.452 3.1886 3.65317 0
M  V30 7394 N 688.795 -1.27931 0.920396 0
M  V30 7395 C 689.728 -2.2537 0.358285 0
M  V30 7396 C 690.706 -1.53328 -0.541242 0
M  V30 7397 O 691.89 -1.82196 -0.483399 0
M  V30 7398 C 689.017 -3.35178 -0.487193 0
M  V30 7399 C 688.063 -4.25079 0.347881 0
M  V30 7400 S 688.896 -5.05792 1.75883 0
M  V30 7401 C 690.052 -6.19089 0.920832 0
M  V30 7402 H 690.285 -2.72701 1.18413 0
M  V30 7403 H 687.818 -1.36474 0.722088 0
M  V30 7404 H 689.776 -3.98895 -0.96916 0
M  V30 7405 H 688.437 -2.865 -1.28749 0
M  V30 7406 H 687.63 -5.03113 -0.298912 0
M  V30 7407 H 687.232 -3.66119 0.763748 0
M  V30 7408 H 689.524 -6.77326 0.15349 0
M  V30 7409 H 690.467 -6.8803 1.67394 0
M  V30 7410 H 690.875 -5.62573 0.466069 0
M  V30 7411 N 690.273 -0.685099 -1.4193 0
M  V30 7412 C 691.501 -0.220372 -2.05723 0
M  V30 7413 C 691.916 1.12642 -1.51516 0
M  V30 7414 O 691.273 1.70182 -0.659114 0
M  V30 7415 C 691.324 -0.157974 -3.61155 0
M  V30 7416 O 691.045 -1.45156 -4.13354 0
M  V30 7417 C 692.546 0.329009 -4.42077 0
M  V30 7418 H 689.766 -0.104725 -0.662777 0
M  V30 7419 H 692.31 -0.934736 -1.81887 0
M  V30 7420 H 690.465 0.507144 -3.84066 0
M  V30 7421 H 690.879 -1.33172 -5.07312 0
M  V30 7422 H 692.353 0.321559 -5.51063 0
M  V30 7423 H 692.83 1.36608 -4.17414 0
M  V30 7424 H 693.436 -0.304737 -4.24207 0
M  V30 7425 N 691.751 1.51645 -0.429126 0
M  V30 7426 C 692.714 2.26116 0.374726 0
M  V30 7427 C 693.714 1.29242 0.956714 0
M  V30 7428 O 694.904 1.53022 0.832452 0
M  V30 7429 C 692.036 3.04669 1.52937 0
M  V30 7430 H 693.229 2.9861 -0.277818 0
M  V30 7431 H 690.782 1.55236 -0.182097 0
M  V30 7432 H 691.517 2.36571 2.21821 0
M  V30 7433 H 691.302 3.75814 1.11833 0
M  V30 7434 H 692.792 3.61102 2.09751 0
M  V30 7435 N 693.229 0.160201 1.56784 0
M  V30 7436 C 694.176 -0.774416 2.1742 0
M  V30 7437 C 695.146 -1.23483 1.11091 0
M  V30 7438 O 696.331 -1.30499 1.39193 0
M  V30 7439 C 693.471 -2.00283 2.81035 0
M  V30 7440 C 692.584 -1.58701 4.01793 0
M  V30 7441 C 691.719 -2.76824 4.53367 0
M  V30 7442 C 690.758 -2.31679 5.66561 0
M  V30 7443 N 689.895 -3.42856 6.12694 0
M  V30 7444 H 694.735 -0.250542 2.96945 0
M  V30 7445 H 692.272 -0.111943 1.46673 0
M  V30 7446 H 694.23 -2.72316 3.16069 0
M  V30 7447 H 692.86 -2.5006 2.04132 0
M  V30 7448 H 691.912 -0.76384 3.72652 0
M  V30 7449 H 693.224 -1.21555 4.83762 0
M  V30 7450 H 692.378 -3.57029 4.90525 0
M  V30 7451 H 691.117 -3.17223 3.70433 0
M  V30 7452 H 690.122 -1.49917 5.28966 0
M  V30 7453 H 691.347 -1.9235 6.5129 0
M  V30 7454 H 689.293 -3.82852 5.32692 0
M  V30 7455 H 689.21 -3.09767 6.89624 0
M  V30 7456 H 690.478 -4.23379 6.545 0
M  V30 7457 N 694.707 -1.5719 -0.113559 0
M  V30 7458 C 695.955 -1.84772 -0.818761 0
M  V30 7459 C 696.276 -0.746196 -1.80158 0
M  V30 7460 O 695.546 0.229305 -1.94553 0
M  V30 7461 H 694.126 -0.681737 -0.305359 0
M  V30 7462 H 696.788 -1.94645 -0.0995845 0
M  V30 7463 H 695.884 -2.80878 -1.36067 0
M  V30 7464 N 696.185 0.383891 -1.52853 0
M  V30 7465 C 697.431 1.12667 -1.69345 0
M  V30 7466 C 697.786 1.87519 -0.430635 0
M  V30 7467 O 697.079 1.82742 0.575846 0
M  V30 7468 C 697.273 2.12881 -2.87082 0
M  V30 7469 C 697.102 1.47873 -4.24692 0
M  V30 7470 C 695.872 1.24064 -4.89833 0
M  V30 7471 C 698.07 0.926118 -5.05893 0
M  V30 7472 N 696.052 0.552138 -6.11412 0
M  V30 7473 C 697.423 0.365966 -6.18919 0
M  V30 7474 C 699.478 0.823023 -4.91051 0
M  V30 7475 C 698.181 -0.287204 -7.18726 0
M  V30 7476 C 700.207 0.183666 -5.91115 0
M  V30 7477 C 699.569 -0.365693 -7.0345 0
M  V30 7478 H 695.668 0.398064 -0.673104 0
M  V30 7479 H 698.252 0.415504 -1.90215 0
M  V30 7480 H 696.423 2.81329 -2.67784 0
M  V30 7481 H 698.155 2.79703 -2.92486 0
M  V30 7482 H 694.91 1.51701 -4.48647 0
M  V30 7483 H 695.334 0.223783 -6.7663 0
M  V30 7484 H 699.976 1.23354 -4.04405 0
M  V30 7485 H 697.694 -0.709719 -8.04977 0
M  V30 7486 H 701.28 0.105074 -5.81705 0
M  V30 7487 H 700.16 -0.85261 -7.79551 0
M  V30 7488 N 697.663 1.43903 0.642637 0
M  V30 7489 C 698.611 1.50164 1.77634 0
M  V30 7490 C 699.605 0.374294 1.65213 0
M  V30 7491 O 700.811 0.548748 1.71431 0
M  V30 7492 H 697.186 0.470974 0.586249 0
M  V30 7493 H 699.157 2.45603 1.69474 0
M  V30 7494 C 697.906 1.45196 3.15933 0
M  V30 7495 H 697.229 2.31253 3.26132 0
M  V30 7496 H 698.669 1.53638 3.95185 0
M  V30 7497 C 697.128 0.171043 3.36466 0
M  V30 7498 O 697.658 -0.763413 3.94379 0
M  V30 7499 N 695.864 0.077847 2.90496 0
M  V30 7500 H 695.411 0.8391 2.43551 0
M  V30 7501 H 695.369 -0.778473 3.0461 0
M  V30 7502 N 699.141 -0.881989 1.30609 0
M  V30 7503 C 700.071 -2.00413 1.1982 0
M  V30 7504 C 701.052 -1.69871 0.0881538 0
M  V30 7505 O 702.237 -1.92304 0.2707 0
M  V30 7506 C 699.367 -3.35641 0.89233 0
M  V30 7507 C 698.321 -3.80451 1.96064 0
M  V30 7508 C 697.647 -5.13003 1.5077 0
M  V30 7509 C 698.947 -3.98855 3.37213 0
M  V30 7510 H 700.641 -2.09698 2.13699 0
M  V30 7511 H 698.187 -1.00754 1.02882 0
M  V30 7512 H 700.14 -4.13669 0.803497 0
M  V30 7513 H 698.864 -3.26497 -0.0821381 0
M  V30 7514 H 697.523 -3.04654 2.03916 0
M  V30 7515 H 697.171 -5.0029 0.521417 0
M  V30 7516 H 696.871 -5.43956 2.22229 0
M  V30 7517 H 698.395 -5.93554 1.43271 0
M  V30 7518 H 699.809 -4.67312 3.32103 0
M  V30 7519 H 698.206 -4.41188 4.06784 0
M  V30 7520 H 699.276 -3.02614 3.78883 0
M  V30 7521 N 700.619 -1.13374 -1.09472 0
M  V30 7522 C 701.567 -0.806105 -2.18185 0
M  V30 7523 C 702.561 0.21136 -1.68076 0
M  V30 7524 O 703.767 0.0685558 -1.79869 0
M  V30 7525 H 700.142 -0.242901 -0.71169 0
M  V30 7526 H 702.113 -1.73115 -2.43051 0
M  V30 7527 C 700.862 -0.287928 -3.46506 0
M  V30 7528 H 700.185 -1.06217 -3.85432 0
M  V30 7529 H 701.625 -0.0971054 -4.23889 0
M  V30 7530 C 700.084 0.986256 -3.22141 0
M  V30 7531 O 700.614 2.06217 -3.44728 0
M  V30 7532 N 698.82 0.917153 -2.75747 0
M  V30 7533 H 698.367 0.0414609 -2.57567 0
M  V30 7534 H 698.325 1.77029 -2.59823 0
M  V30 7535 N 702.098 1.27442 -0.927168 0
M  V30 7536 C 703.03 2.25975 -0.383158 0
M  V30 7537 C 704.043 1.55382 0.485832 0
M  V30 7538 O 705.232 1.75986 0.298541 0
M  V30 7539 C 702.332 3.35629 0.469688 0
M  V30 7540 C 701.505 4.35747 -0.379886 0
M  V30 7541 C 700.564 5.24598 0.410227 0
M  V30 7542 O 699.59 5.68909 -0.181888 0
M  V30 7543 N 700.792 5.54737 1.71017 0
M  V30 7544 H 703.557 2.7329 -1.23015 0
M  V30 7545 H 701.118 1.41063 -0.794539 0
M  V30 7546 H 703.11 3.92015 1.00532 0
M  V30 7547 H 701.68 2.87919 1.21744 0
M  V30 7548 H 700.9 3.78634 -1.09682 0
M  V30 7549 H 702.188 4.99648 -0.960717 0
M  V30 7550 H 701.586 5.20594 2.21356 0
M  V30 7551 H 700.143 6.13824 2.19234 0
M  V30 7552 N 703.576 0.692616 1.41565 0
M  V30 7553 C 704.506 0.0397325 2.33466 0
M  V30 7554 C 705.487 -0.770334 1.51657 0
M  V30 7555 O 706.672 -0.723903 1.80203 0
M  V30 7556 C 703.802 -0.899495 3.3545 0
M  V30 7557 C 702.756 -0.196738 4.27548 0
M  V30 7558 C 702.082 -1.25012 5.19881 0
M  V30 7559 C 703.382 0.935158 5.1386 0
M  V30 7560 H 705.076 0.807296 2.88311 0
M  V30 7561 H 702.622 0.389665 1.38628 0
M  V30 7562 H 704.575 -1.36545 3.98665 0
M  V30 7563 H 703.299 -1.69869 2.78948 0
M  V30 7564 H 701.958 0.249158 3.65752 0
M  V30 7565 H 701.606 -2.04177 4.59696 0
M  V30 7566 H 701.306 -0.784931 5.82334 0
M  V30 7567 H 702.83 -1.71665 5.85972 0
M  V30 7568 H 704.244 0.549619 5.70659 0
M  V30 7569 H 702.641 1.32726 5.85238 0
M  V30 7570 H 703.711 1.77613 4.512 0
M  V30 7571 N 705.054 -1.51416 0.437162 0
M  V30 7572 C 705.986 -2.255 -0.410171 0
M  V30 7573 C 706.999 -1.29511 -0.986444 0
M  V30 7574 O 708.188 -1.55266 -0.880614 0
M  V30 7575 C 705.288 -2.99511 -1.58575 0
M  V30 7576 C 704.461 -4.22595 -1.12839 0
M  V30 7577 C 703.52 -4.79187 -2.17407 0
M  V30 7578 O 702.546 -5.4103 -1.76849 0
M  V30 7579 N 703.748 -4.63204 -3.49889 0
M  V30 7580 H 706.513 -2.98856 0.224783 0
M  V30 7581 H 704.074 -1.59699 0.266041 0
M  V30 7582 H 706.066 -3.34258 -2.28152 0
M  V30 7583 H 704.636 -2.29167 -2.12606 0
M  V30 7584 H 703.856 -3.93344 -0.259695 0
M  V30 7585 H 705.144 -5.02468 -0.800196 0
M  V30 7586 H 704.542 -4.13945 -3.85573 0
M  V30 7587 H 703.099 -5.02313 -4.15361 0
M  V30 7588 N 706.532 -0.168513 -1.56696 0
M  V30 7589 C 707.779 0.477158 -1.96798 0
M  V30 7590 C 708.107 1.63442 -1.05437 0
M  V30 7591 O 707.362 1.95503 -0.0878903 0
M  V30 7592 C 707.661 1.00441 -3.42996 0
M  V30 7593 C 707.327 -0.0366556 -4.50885 0
M  V30 7594 C 705.989 -0.322785 -4.80116 0
M  V30 7595 C 708.341 -0.743447 -5.1587 0
M  V30 7596 C 705.669 -1.32114 -5.71632 0
M  V30 7597 C 708.021 -1.73077 -6.08463 0
M  V30 7598 C 706.685 -2.02437 -6.36062 0
M  V30 7599 H 705.955 0.174604 -0.720135 0
M  V30 7600 H 708.602 -0.259884 -1.89728 0
M  V30 7601 H 706.907 1.81922 -3.47004 0
M  V30 7602 H 708.604 1.51294 -3.71364 0
M  V30 7603 H 705.194 0.196532 -4.28149 0
M  V30 7604 H 709.378 -0.535602 -4.93401 0
M  V30 7605 H 704.634 -1.55482 -5.913 0
M  V30 7606 H 708.808 -2.28382 -6.57886 0
M  V30 7607 H 706.435 -2.79946 -7.06777 0
M  V30 7608 N 708.01 1.57248 0.105221 0
M  V30 7609 C 709.421 1.74612 0.660865 0
M  V30 7610 C 709.772 0.789231 1.79626 0
M  V30 7611 O 708.897 -0.0346611 2.16372 0
M  V30 7612 C 709.492 3.16624 1.20559 0
M  V30 7613 C 708.051 3.35447 1.7074 0
M  V30 7614 C 707.198 2.70445 0.612764 0
M  V30 7615 H 710.149 1.5824 -0.12079 0
M  V30 7616 H 710.17 3.18937 2.07508 0
M  V30 7617 H 709.682 3.86245 0.379012 0
M  V30 7618 H 707.783 2.7089 2.5583 0
M  V30 7619 H 707.896 4.43702 1.80736 0
M  V30 7620 H 706.26 2.32061 1.04975 0
M  V30 7621 H 707.043 3.42699 -0.203066 0
M  V30 7622 N 709.488 -0.375779 1.53054 0
M  V30 7623 C 710.899 -0.95309 1.6054 0
M  V30 7624 C 711.25 -1.90575 0.466446 0
M  V30 7625 O 710.375 -2.12507 -0.408609 0
M  V30 7626 C 710.97 -1.73537 2.90982 0
M  V30 7627 C 709.529 -2.26218 3.00836 0
M  V30 7628 C 708.676 -1.07157 2.55759 0
M  V30 7629 H 711.627 -0.154895 1.57942 0
M  V30 7630 H 711.648 -2.59574 2.78211 0
M  V30 7631 H 711.16 -1.04176 3.73857 0
M  V30 7632 H 709.261 -2.98852 2.22527 0
M  V30 7633 H 709.374 -2.54799 4.05727 0
M  V30 7634 H 707.738 -1.43553 2.10391 0
M  V30 7635 H 708.521 -0.393099 3.41042 0
M  V30 7636 N 710.966 -1.44241 -0.634997 0
M  V30 7637 C 712.191 -1.50516 -1.42687 0
M  V30 7638 C 712.616 -0.129864 -1.87651 0
M  V30 7639 O 711.974 0.880164 -1.58502 0
M  V30 7640 C 712.022 -2.4714 -2.62591 0
M  V30 7641 O 711.126 -1.97025 -3.62291 0
M  V30 7642 H 710.467 -0.50841 -0.427101 0
M  V30 7643 H 712.997 -1.89337 -0.775408 0
M  V30 7644 H 713.007 -2.65048 -3.10183 0
M  V30 7645 H 711.682 -3.47039 -2.29209 0
M  V30 7646 H 710.259 -1.88866 -3.21534 0
M  V30 7647 N 712.444 0.87505 -1.31075 0
M  V30 7648 C 713.693 1.62245 -1.19831 0
M  V30 7649 C 714.006 1.94078 0.24357 0
M  V30 7650 O 715.212 2.67265 0.477646 0
M  V30 7651 C 713.668 2.92464 -2.09744 0
M  V30 7652 C 713.276 2.68134 -3.58898 0
M  V30 7653 C 715.02 3.70449 -2.07287 0
M  V30 7654 C 712.927 3.9423 -4.40836 0
M  V30 7655 H 711.857 0.608741 -0.444916 0
M  V30 7656 H 714.508 0.967947 -1.55894 0
M  V30 7657 H 712.89 3.59262 -1.66574 0
M  V30 7658 H 714.064 2.09776 -4.10281 0
M  V30 7659 H 712.379 2.03511 -3.6328 0
M  V30 7660 H 714.976 4.63983 -2.65752 0
M  V30 7661 H 715.319 4.02611 -1.05876 0
M  V30 7662 H 715.852 3.10528 -2.48631 0
M  V30 7663 H 712.591 3.67221 -5.42982 0
M  V30 7664 H 712.111 4.52058 -3.94213 0
M  V30 7665 H 713.79 4.62162 -4.52786 0
M  V30 7666 N 713.922 1.13953 1.08869 0
M  V30 7667 C 714.872 0.790812 2.13846 0
M  V30 7668 C 715.856 -0.217819 1.59419 0
M  V30 7669 O 717.048 -0.0208723 1.76988 0
M  V30 7670 C 714.177 0.26479 3.42277 0
M  V30 7671 C 713.263 1.30267 4.03598 0
M  V30 7672 N 713.654 2.50535 4.39393 0
M  V30 7673 C 711.952 1.15178 4.30871 0
M  V30 7674 C 712.653 3.16938 4.87776 0
M  V30 7675 N 711.629 2.44349 4.85587 0
M  V30 7676 H 715.431 1.70577 2.39334 0
M  V30 7677 H 712.945 1.02268 1.26154 0
M  V30 7678 H 714.942 -0.00330398 4.169 0
M  V30 7679 H 713.602 -0.644419 3.18241 0
M  V30 7680 H 714.613 2.87798 4.30572 0
M  V30 7681 H 711.29 0.301204 4.16412 0
M  V30 7682 H 712.68 4.19453 5.2489 0
M  V30 7683 N 715.4 -1.26948 0.933913 0
M  V30 7684 C 716.647 -1.94087 0.577625 0
M  V30 7685 C 716.975 -1.73345 -0.88214 0
M  V30 7686 O 716.23 -1.05945 -1.64542 0
M  V30 7687 C 716.529 -3.46963 0.857406 0
M  V30 7688 C 716.195 -3.87834 2.2999 0
M  V30 7689 C 714.857 -3.98704 2.69423 0
M  V30 7690 C 717.209 -4.08442 3.23766 0
M  V30 7691 C 714.537 -4.27573 4.01744 0
M  V30 7692 C 716.889 -4.38798 4.55675 0
M  V30 7693 C 715.553 -4.47881 4.94934 0
M  V30 7694 H 714.823 -0.710215 0.211368 0
M  V30 7695 H 717.47 -1.50899 1.17905 0
M  V30 7696 H 715.775 -3.91416 0.173369 0
M  V30 7697 H 717.472 -3.97062 0.560615 0
M  V30 7698 H 714.062 -3.79916 1.98399 0
M  V30 7699 H 718.246 -3.99479 2.94499 0
M  V30 7700 H 713.502 -4.32815 4.31834 0
M  V30 7701 H 717.676 -4.5369 5.28335 0
M  V30 7702 H 715.303 -4.70005 5.97495 0
M  V30 7703 N 716.879 -0.700114 -1.41195 0
M  V30 7704 C 718.119 -0.237223 -2.03019 0
M  V30 7705 C 718.483 1.14304 -1.54268 0
M  V30 7706 O 719.684 1.70204 -2.08048 0
M  V30 7707 C 717.955 -0.297442 -3.5616 0
M  V30 7708 S 719.514 0.0907367 -4.38706 0
M  V30 7709 H 716.332 -0.0952147 -0.704596 0
M  V30 7710 H 718.934 -0.918901 -1.72559 0
M  V30 7711 H 717.638 -1.30391 -3.89135 0
M  V30 7712 H 717.169 0.403233 -3.91328 0
M  V30 7713 H 719.184 1.31721 -4.78397 0
M  V30 7714 N 718.357 1.51182 -0.445186 0
M  V30 7715 C 719.606 2.01342 0.120189 0
M  V30 7716 C 719.919 1.33353 1.43095 0
M  V30 7717 O 721.125 1.74525 2.07974 0
M  V30 7718 C 719.581 3.58925 0.264732 0
M  V30 7719 C 719.189 4.35855 -1.03606 0
M  V30 7720 C 720.933 4.17208 0.783455 0
M  V30 7721 C 718.84 5.85162 -0.856731 0
M  V30 7722 H 717.77 0.752426 0.0486922 0
M  V30 7723 H 720.421 1.74221 -0.576143 0
M  V30 7724 H 718.803 3.82525 1.02425 0
M  V30 7725 H 719.977 4.23997 -1.80452 0
M  V30 7726 H 718.292 3.89062 -1.48391 0
M  V30 7727 H 720.889 5.26475 0.934239 0
M  V30 7728 H 721.232 3.76892 1.768 0
M  V30 7729 H 721.765 3.97715 0.0820346 0
M  V30 7730 H 718.504 6.29904 -1.81388 0
M  V30 7731 H 718.024 5.99663 -0.128206 0
M  V30 7732 H 719.703 6.44963 -0.513027 0
M  V30 7733 N 719.835 0.176821 1.56605 0
M  V30 7734 C 721.063 -0.472828 2.01425 0
M  V30 7735 C 721.478 -1.56436 1.05703 0
M  V30 7736 O 720.835 -1.82405 0.058808 0
M  V30 7737 C 720.886 -1.04607 3.46034 0
M  V30 7738 O 720.607 0.00189608 4.381 0
M  V30 7739 C 722.108 -1.7734 4.06282 0
M  V30 7740 H 719.328 -0.120503 0.660091 0
M  V30 7741 H 721.872 0.280166 2.02572 0
M  V30 7742 H 720.027 -1.74953 3.45645 0
M  V30 7743 H 720.441 -0.422118 5.22799 0
M  V30 7744 H 721.915 -2.12703 5.09374 0
M  V30 7745 H 722.392 -2.67043 3.4869 0
M  V30 7746 H 722.998 -1.11623 4.10391 0
M  V30 7747 N 721.313 -1.57302 -0.09688 0
M  V30 7748 C 722.243 -2.0497 -1.11846 0
M  V30 7749 C 723.224 -0.938278 -1.41882 0
M  V30 7750 O 724.409 -1.20943 -1.51942 0
M  V30 7751 C 721.539 -2.47264 -2.43881 0
M  V30 7752 C 720.493 -3.62053 -2.28257 0
M  V30 7753 C 719.819 -3.90318 -3.65453 0
M  V30 7754 C 721.119 -4.93005 -1.72461 0
M  V30 7755 H 722.813 -2.90567 -0.721888 0
M  V30 7756 H 720.359 -1.39786 -0.345803 0
M  V30 7757 H 722.312 -2.7922 -3.15617 0
M  V30 7758 H 721.036 -1.58664 -2.8547 0
M  V30 7759 H 719.695 -3.30341 -1.58967 0
M  V30 7760 H 719.343 -2.98889 -4.04567 0
M  V30 7761 H 719.043 -4.67597 -3.55846 0
M  V30 7762 H 720.567 -4.24747 -4.3866 0
M  V30 7763 H 721.981 -5.23354 -2.34036 0
M  V30 7764 H 720.378 -5.74436 -1.73618 0
M  V30 7765 H 721.448 -4.80053 -0.683898 0
M  V30 7766 N 722.791 0.367657 -1.53252 0
M  V30 7767 C 723.721 1.45632 -1.8252 0
M  V30 7768 C 724.702 1.55979 -0.678568 0
M  V30 7769 O 725.887 1.70581 -0.928217 0
M  V30 7770 C 723.017 2.82994 -2.01325 0
M  V30 7771 C 721.971 2.87473 -3.17086 0
M  V30 7772 C 721.297 4.2749 -3.21179 0
M  V30 7773 C 722.597 2.55182 -4.55719 0
M  V30 7774 H 724.291 1.21387 -2.73689 0
M  V30 7775 H 721.837 0.58251 -1.31692 0
M  V30 7776 H 723.79 3.59179 -2.20383 0
M  V30 7777 H 722.514 3.08622 -1.06864 0
M  V30 7778 H 721.173 2.13739 -2.97844 0
M  V30 7779 H 720.821 4.5019 -2.24361 0
M  V30 7780 H 720.521 4.31403 -3.98955 0
M  V30 7781 H 722.045 5.0555 -3.42419 0
M  V30 7782 H 723.459 3.21081 -4.74953 0
M  V30 7783 H 721.856 2.70414 -5.3572 0
M  V30 7784 H 722.926 1.5044 -4.60973 0
M  V30 7785 N 724.269 1.44576 0.627338 0
M  V30 7786 C 725.219 1.48168 1.73293 0
M  V30 7787 C 726.203 0.347045 1.57113 0
M  V30 7788 O 727.395 0.592605 1.66785 0
M  V30 7789 C 724.524 1.43236 3.11991 0
M  V30 7790 C 723.61 2.61828 3.33627 0
M  V30 7791 N 724.001 3.87053 3.25612 0
M  V30 7792 C 722.299 2.57104 3.64436 0
M  V30 7793 C 723 4.66093 3.48041 0
M  V30 7794 N 721.976 3.97228 3.71095 0
M  V30 7795 H 725.778 2.42832 1.6556 0
M  V30 7796 H 723.292 1.39592 0.829934 0
M  V30 7797 H 725.289 1.43893 3.91281 0
M  V30 7798 H 723.949 0.496133 3.20887 0
M  V30 7799 H 724.96 4.18966 3.04447 0
M  V30 7800 H 721.637 1.72295 3.8029 0
M  V30 7801 H 723.027 5.75117 3.47404 0
M  V30 7802 N 725.747 -0.868086 1.31537 0
M  V30 7803 C 726.71 -1.95703 1.19302 0
M  V30 7804 C 727.71 -1.60355 0.119612 0
M  V30 7805 O 728.9 -1.70247 0.36902 0
M  V30 7806 C 726.032 -3.30599 0.831684 0
M  V30 7807 H 727.225 -2.07982 2.16064 0
M  V30 7808 H 724.778 -1.05661 1.15176 0
M  V30 7809 H 725.513 -3.2402 -0.134694 0
M  V30 7810 H 725.298 -3.57629 1.60761 0
M  V30 7811 H 726.788 -4.10439 0.770026 0
M  V30 7812 N 727.225 -1.14528 -1.08264 0
M  V30 7813 C 728.641 -0.885976 -1.3275 0
M  V30 7814 C 728.841 0.472096 -1.95892 0
M  V30 7815 O 727.897 1.21606 -2.21288 0
M  V30 7816 C 729.21 -2.01982 -2.22764 0
M  V30 7817 C 730.758 -2.05329 -2.36239 0
M  V30 7818 C 731.233 -3.1801 -3.29596 0
M  V30 7819 N 732.724 -3.17598 -3.37173 0
M  V30 7820 C 733.459 -4.01426 -4.09444 0
M  V30 7821 N 732.955 -4.95297 -4.8441 0
M  V30 7822 N 734.748 -3.89482 -4.0529 0
M  V30 7823 H 726.899 -2.01996 -0.656607 0
M  V30 7824 H 729.162 -0.880274 -0.351884 0
M  V30 7825 H 728.868 -2.99964 -1.83615 0
M  V30 7826 H 728.742 -1.94421 -3.23234 0
M  V30 7827 H 731.129 -1.07953 -2.74646 0
M  V30 7828 H 731.21 -2.1696 -1.35506 0
M  V30 7829 H 730.854 -4.15633 -2.9191 0
M  V30 7830 H 730.784 -3.03616 -4.30261 0
M  V30 7831 H 733.275 -2.4961 -2.83731 0
M  V30 7832 H 733.588 -5.55723 -5.37021 0
M  V30 7833 H 731.933 -4.99293 -4.83457 0
M  V30 7834 H 735.124 -3.15465 -3.45832 0
M  V30 7835 H 735.297 -4.55039 -4.6135 0
M  V30 7836 N 728.703 1.26451 -0.940633 0
M  V30 7837 C 729.65 2.264 -0.448497 0
M  V30 7838 C 730.62 1.5866 0.491546 0
M  V30 7839 O 731.805 1.86389 0.407874 0
M  V30 7840 C 728.945 3.43956 0.280715 0
M  V30 7841 C 728.058 4.26374 -0.694937 0
M  V30 7842 C 727.193 5.31171 0.0554186 0
M  V30 7843 C 726.232 6.05266 -0.912091 0
M  V30 7844 N 725.369 7.01833 -0.193524 0
M  V30 7845 H 730.209 2.67869 -1.30576 0
M  V30 7846 H 727.746 1.31707 -0.655112 0
M  V30 7847 H 729.704 4.10941 0.71994 0
M  V30 7848 H 728.334 3.03403 1.10212 0
M  V30 7849 H 727.386 3.59183 -1.25267 0
M  V30 7850 H 728.698 4.77748 -1.43382 0
M  V30 7851 H 727.852 6.04166 0.553951 0
M  V30 7852 H 726.591 4.80634 0.827183 0
M  V30 7853 H 725.596 5.31099 -1.42175 0
M  V30 7854 H 726.821 6.57893 -1.68385 0
M  V30 7855 H 724.767 6.53607 0.559758 0
M  V30 7856 H 724.684 7.50957 -0.871744 0
M  V30 7857 H 725.952 7.78983 0.283932 0
M  V30 7858 N 730.181 0.707592 1.40822 0
M  V30 7859 C 731.597 0.38034 1.55002 0
M  V30 7860 C 731.797 -1.11163 1.68062 0
M  V30 7861 O 730.853 -1.89761 1.66574 0
M  V30 7862 C 732.166 1.1394 2.78277 0
M  V30 7863 C 733.714 1.12492 2.92087 0
M  V30 7864 C 734.189 1.86597 4.18265 0
M  V30 7865 N 735.68 1.83626 4.25248 0
M  V30 7866 C 736.415 2.37794 5.21768 0
M  V30 7867 N 735.911 3.00485 6.24244 0
M  V30 7868 N 737.704 2.27982 5.13791 0
M  V30 7869 H 729.855 1.67511 1.3059 0
M  V30 7870 H 732.118 0.707579 0.630901 0
M  V30 7871 H 731.824 2.19398 2.74877 0
M  V30 7872 H 731.698 0.725793 3.70151 0
M  V30 7873 H 734.085 0.0785564 2.94995 0
M  V30 7874 H 734.166 1.57768 2.01353 0
M  V30 7875 H 733.81 2.91219 4.16118 0
M  V30 7876 H 733.74 1.38746 5.07993 0
M  V30 7877 H 736.231 1.3793 3.51829 0
M  V30 7878 H 736.544 3.39355 6.94304 0
M  V30 7879 H 734.889 3.04567 6.24711 0
M  V30 7880 H 738.08 1.78669 4.3266 0
M  V30 7881 H 738.253 2.70499 5.88841 0
M  V30 7882 N 731.66 -1.50943 0.453197 0
M  V30 7883 C 732.906 -2.02512 -0.108082 0
M  V30 7884 C 733.239 -1.33574 -1.40967 0
M  V30 7885 O 732.514 -0.455671 -1.89087 0
M  V30 7886 C 732.797 -3.58759 -0.310453 0
M  V30 7887 C 732.65 -4.38293 1.0109 0
M  V30 7888 C 733.969 -4.26816 -1.07313 0
M  V30 7889 H 731.088 -0.73603 -0.0378064 0
M  V30 7890 H 733.73 -1.80433 0.595295 0
M  V30 7891 H 731.88 -3.77702 -0.909582 0
M  V30 7892 H 733.552 -4.30964 1.64523 0
M  V30 7893 H 731.795 -4.02745 1.61179 0
M  V30 7894 H 732.466 -5.45828 0.82315 0
M  V30 7895 H 734.942 -4.1224 -0.565473 0
M  V30 7896 H 733.818 -5.35989 -1.1835 0
M  V30 7897 H 734.079 -3.88757 -2.10525 0
M  V30 7898 N 733.138 -0.185124 -1.56509 0
M  V30 7899 C 734.101 0.72591 -2.17401 0
M  V30 7900 C 735.101 1.14819 -1.12575 0
M  V30 7901 O 736.291 1.0629 -1.38015 0
M  V30 7902 C 733.423 1.98979 -2.76803 0
M  V30 7903 H 734.616 0.195588 -2.99262 0
M  V30 7904 H 732.169 0.0644772 -1.56167 0
M  V30 7905 H 732.904 2.56287 -1.98714 0
M  V30 7906 H 732.689 1.69583 -3.53531 0
M  V30 7907 H 734.179 2.63966 -3.23592 0
M  V30 7908 N 734.616 1.57351 0.0885366 0
M  V30 7909 C 735.865 1.85604 0.789556 0
M  V30 7910 C 736.178 0.775352 1.79576 0
M  V30 7911 O 737.384 0.945206 2.54515 0
M  V30 7912 C 735.84 3.29175 1.45506 0
M  V30 7913 C 735.448 4.45331 0.488278 0
M  V30 7914 C 737.192 3.66646 2.13942 0
M  V30 7915 C 735.099 5.79937 1.15874 0
M  V30 7916 H 734.029 0.692346 0.298619 0
M  V30 7917 H 736.68 1.83451 0.0425821 0
M  V30 7918 H 735.062 3.25889 2.24972 0
M  V30 7919 H 736.236 4.59977 -0.275359 0
M  V30 7920 H 734.551 4.16301 -0.0907363 0
M  V30 7921 H 737.148 4.64498 2.6485 0
M  V30 7922 H 737.491 2.956 2.93132 0
M  V30 7923 H 738.024 3.71848 1.41328 0
M  V30 7924 H 734.763 6.54232 0.407508 0
M  V30 7925 H 734.283 5.69123 1.89364 0
M  V30 7926 H 735.962 6.24718 1.68336 0
M  V30 7927 N 736.094 -0.359525 1.53444 0
M  V30 7928 C 737.026 -1.46098 1.76602 0
M  V30 7929 C 738.039 -1.49395 0.646912 0
M  V30 7930 O 739.228 -1.52765 0.923307 0
M  V30 7931 C 736.328 -2.84836 1.83635 0
M  V30 7932 C 735.501 -3.05164 3.13358 0
M  V30 7933 C 734.56 -4.24051 3.11556 0
M  V30 7934 O 733.586 -4.18935 3.85334 0
M  V30 7935 N 734.788 -5.31775 2.328 0
M  V30 7936 H 737.553 -1.2661 2.71643 0
M  V30 7937 H 735.114 -0.549294 1.52297 0
M  V30 7938 H 737.106 -3.62516 1.799 0
M  V30 7939 H 735.676 -2.97542 0.958509 0
M  V30 7940 H 734.896 -2.15091 3.30348 0
M  V30 7941 H 736.184 -3.15619 3.99076 0
M  V30 7942 H 735.582 -5.38796 1.7238 0
M  V30 7943 H 734.139 -6.0801 2.34877 0
M  V30 7944 N 737.572 -1.44907 -0.619662 0
M  V30 7945 C 738.819 -1.48292 -1.37898 0
M  V30 7946 C 739.147 -0.119933 -1.9413 0
M  V30 7947 O 738.402 0.879834 -1.74807 0
M  V30 7948 C 738.701 -2.50002 -2.55409 0
M  V30 7949 C 738.367 -3.95031 -2.17397 0
M  V30 7950 C 737.029 -4.34524 -2.06743 0
M  V30 7951 C 739.381 -4.86287 -1.87548 0
M  V30 7952 C 736.709 -5.63183 -1.64445 0
M  V30 7953 C 739.061 -6.15346 -1.4674 0
M  V30 7954 C 737.725 -6.53781 -1.34636 0
M  V30 7955 H 736.995 -0.542638 -0.504603 0
M  V30 7956 H 739.642 -1.78186 -0.701581 0
M  V30 7957 H 737.947 -2.13634 -3.28433 0
M  V30 7958 H 739.644 -2.49864 -3.13639 0
M  V30 7959 H 736.234 -3.63793 -2.26611 0
M  V30 7960 H 740.418 -4.56522 -1.94682 0
M  V30 7961 H 735.674 -5.91769 -1.53687 0
M  V30 7962 H 739.848 -6.85508 -1.22685 0
M  V30 7963 H 737.475 -7.53375 -1.01634 0
M  V30 7964 N 739.05 0.861098 -1.31996 0
M  V30 7965 C 739.98 1.98482 -1.22993 0
M  V30 7966 C 740.961 1.6971 -0.115168 0
M  V30 7967 O 742.146 1.91849 -0.30126 0
M  V30 7968 C 739.276 3.34179 -0.945615 0
M  V30 7969 C 738.23 3.77284 -2.02091 0
M  V30 7970 C 737.556 5.1054 -1.58912 0
M  V30 7971 C 738.856 3.93439 -3.43515 0
M  V30 7972 H 740.55 2.06271 -2.17008 0
M  V30 7973 H 738.096 0.991043 -1.04472 0
M  V30 7974 H 740.049 4.12338 -0.869206 0
M  V30 7975 H 738.773 3.26586 0.0301849 0
M  V30 7976 H 737.432 3.01371 -2.08737 0
M  V30 7977 H 737.08 4.99397 -0.600942 0
M  V30 7978 H 736.78 5.40352 -2.30854 0
M  V30 7979 H 738.304 5.91199 -1.52696 0
M  V30 7980 H 739.718 4.6197 -3.39495 0
M  V30 7981 H 738.115 4.34661 -4.13751 0
M  V30 7982 H 739.185 2.96548 -3.8365 0
M  V30 7983 N 740.528 1.15101 1.07655 0
M  V30 7984 C 741.475 0.844958 2.14777 0
M  V30 7985 C 742.445 -0.200798 1.64882 0
M  V30 7986 O 743.63 -0.0690278 1.90675 0
M  V30 7987 C 740.77 0.337018 3.4345 0
M  V30 7988 C 739.883 1.44398 4.07153 0
M  V30 7989 C 739.018 0.892487 5.23649 0
M  V30 7990 C 738.057 1.9766 5.79307 0
M  V30 7991 N 737.194 1.44171 6.87138 0
M  V30 7992 H 742.034 1.76242 2.40297 0
M  V30 7993 H 739.571 0.879435 1.17917 0
M  V30 7994 H 741.529 0.024256 4.17193 0
M  V30 7995 H 740.159 -0.543531 3.18191 0
M  V30 7996 H 739.211 1.87299 3.31094 0
M  V30 7997 H 740.523 2.26262 4.4453 0
M  V30 7998 H 739.677 0.532083 6.04362 0
M  V30 7999 H 738.416 0.0429854 4.87681 0
M  V30 8000 H 737.421 2.34586 4.97242 0
M  V30 8001 H 738.646 2.82982 6.17331 0
M  V30 8002 H 736.592 0.614518 6.53115 0
M  V30 8003 H 736.509 2.19665 7.23383 0
M  V30 8004 H 737.777 1.10945 7.71564 0
M  V30 8005 N 742.006 -1.2595 0.947325 0
M  V30 8006 C 743.283 -1.88676 0.515824 0
M  V30 8007 C 743.663 -1.85547 -1.00675 0
M  V30 8008 O 743.011 -1.31399 -1.8694 0
M  V30 8009 C 743.221 -3.31734 1.08415 0
M  V30 8010 C 744.569 -4.08545 1.15654 0
M  V30 8011 O 745.593 -3.40826 1.03517 0
M  V30 8012 O 744.452 -5.29663 1.34608 0
M  V30 8013 H 741.546 -0.809537 0.169055 0
M  V30 8014 H 744.092 -1.34075 1.04029 0
M  V30 8015 H 742.864 -3.28404 2.1276 0
M  V30 8016 H 742.487 -3.93882 0.542499 0
M  V30 8017 N 743.484 -0.715051 -1.40445 0
M  V30 8018 C 744.733 -0.251322 -2.00128 0
M  V30 8019 C 745.046 1.16194 -1.57347 0
M  V30 8020 O 746.252 1.72416 -2.09726 0
M  V30 8021 C 744.708 -0.398407 -3.57688 0
M  V30 8022 C 744.316 -1.81828 -4.09442 0
M  V30 8023 C 746.06 0.00455625 -4.245 0
M  V30 8024 C 743.967 -1.91598 -5.59503 0
M  V30 8025 H 742.897 -0.0902081 -0.748584 0
M  V30 8026 H 745.548 -0.886062 -1.6069 0
M  V30 8027 H 743.93 0.304908 -3.94824 0
M  V30 8028 H 745.104 -2.55193 -3.83684 0
M  V30 8029 H 743.419 -2.17266 -3.55225 0
M  V30 8030 H 746.016 -0.0477303 -5.34679 0
M  V30 8031 H 746.359 1.04636 -4.02935 0
M  V30 8032 H 746.892 -0.649184 -3.92467 0
M  V30 8033 H 743.631 -2.93898 -5.85922 0
M  V30 8034 H 743.151 -1.22644 -5.87127 0
M  V30 8035 H 744.83 -1.68785 -6.24596 0
M  V30 8036 N 744.962 1.50701 -0.461195 0
M  V30 8037 C 746.378 1.59187 -0.114786 0
M  V30 8038 C 746.578 1.4702 1.37794 0
M  V30 8039 O 745.634 1.32361 2.15027 0
M  V30 8040 C 746.947 2.93453 -0.656167 0
M  V30 8041 C 748.495 3.06824 -0.618715 0
M  V30 8042 C 748.97 4.4365 -1.13747 0
M  V30 8043 N 750.461 4.50035 -1.09646 0
M  V30 8044 C 751.196 5.54278 -1.46846 0
M  V30 8045 N 750.692 6.65822 -1.91448 0
M  V30 8046 N 752.485 5.44767 -1.38512 0
M  V30 8047 H 744.636 1.56853 -1.43216 0
M  V30 8048 H 746.899 0.740712 -0.59165 0
M  V30 8049 H 746.605 3.07802 -1.7015 0
M  V30 8050 H 746.479 3.77082 -0.0942261 0
M  V30 8051 H 748.866 2.92129 0.417685 0
M  V30 8052 H 748.947 2.24976 -1.21734 0
M  V30 8053 H 748.591 4.59093 -2.17245 0
M  V30 8054 H 748.521 5.24074 -0.515153 0
M  V30 8055 H 751.012 3.69988 -0.769217 0
M  V30 8056 H 751.325 7.41413 -2.18007 0
M  V30 8057 H 749.67 6.66968 -1.95393 0
M  V30 8058 H 752.861 4.56511 -1.03516 0
M  V30 8059 H 753.034 6.25889 -1.6783 0
M  V30 8060 N 746.441 0.193421 1.56409 0
M  V30 8061 C 747.351 -0.740112 2.2262 0
M  V30 8062 C 748.367 -1.23597 1.22474 0
M  V30 8063 O 749.543 -1.28348 1.55206 0
M  V30 8064 C 746.608 -1.94317 2.87127 0
M  V30 8065 C 745.669 -1.49205 4.02538 0
M  V30 8066 C 744.902 -2.63776 4.63959 0
M  V30 8067 O 745.125 -3.81215 4.24301 0
M  V30 8068 O 744.059 -2.36585 5.53454 0
M  V30 8069 H 747.885 -0.206238 3.02999 0
M  V30 8070 H 745.47 -0.0357938 1.49357 0
M  V30 8071 H 747.352 -2.64633 3.27944 0
M  V30 8072 H 746.027 -2.46568 2.09728 0
M  V30 8073 H 744.934 -0.757738 3.66346 0
M  V30 8074 H 746.267 -1.01622 4.81595 0
M  V30 8075 N 747.919 -1.57396 -0.0801906 0
M  V30 8076 C 749.144 -1.91437 -0.797909 0
M  V30 8077 C 749.569 -0.789075 -1.70749 0
M  V30 8078 O 748.927 0.25857 -1.79447 0
M  V30 8079 C 748.975 -3.24402 -1.57467 0
M  V30 8080 O 748.079 -3.13043 -2.68473 0
M  V30 8081 H 747.42 -0.627109 -0.218243 0
M  V30 8082 H 749.95 -2.04537 -0.050949 0
M  V30 8083 H 749.96 -3.58072 -1.95571 0
M  V30 8084 H 748.635 -4.05884 -0.907229 0
M  V30 8085 H 747.212 -2.90915 -2.33287 0
M  V30 8086 N 749.397 0.351382 -1.53633 0
M  V30 8087 C 750.643 1.09411 -1.70754 0
M  V30 8088 C 750.976 1.88544 -0.465293 0
M  V30 8089 O 750.251 1.86923 0.537608 0
M  V30 8090 C 750.534 2.04173 -2.96623 0
M  V30 8091 C 750.387 1.28556 -4.31038 0
M  V30 8092 C 751.706 3.04102 -3.18136 0
M  V30 8093 H 748.825 0.396373 -0.621335 0
M  V30 8094 H 751.467 0.373464 -1.86293 0
M  V30 8095 H 749.617 2.65625 -2.83506 0
M  V30 8096 H 751.289 0.697786 -4.55992 0
M  V30 8097 H 749.532 0.587498 -4.29803 0
M  V30 8098 H 750.203 1.97989 -5.15271 0
M  V30 8099 H 752.679 2.5276 -3.30532 0
M  V30 8100 H 751.555 3.67616 -4.07615 0
M  V30 8101 H 751.816 3.75053 -2.34068 0
M  V30 8102 N 750.875 1.45233 0.611969 0
M  V30 8103 C 752.103 1.52539 1.39784 0
M  V30 8104 C 752.518 0.156533 1.8815 0
M  V30 8105 O 751.875 -0.84112 1.61961 0
M  V30 8106 C 751.926 2.50614 2.60528 0
M  V30 8107 O 751.647 3.8218 2.14173 0
M  V30 8108 C 753.148 2.67574 3.53439 0
M  V30 8109 H 750.368 0.51674 0.428043 0
M  V30 8110 H 752.912 1.90379 0.746727 0
M  V30 8111 H 751.067 2.15858 3.2169 0
M  V30 8112 H 751.481 4.35305 2.92592 0
M  V30 8113 H 752.955 3.40184 4.34717 0
M  V30 8114 H 753.432 1.73458 4.03496 0
M  V30 8115 H 754.038 3.0331 2.98133 0
M  V30 8116 N 752.353 -0.854086 1.3245 0
M  V30 8117 C 753.285 -1.96932 1.17262 0
M  V30 8118 C 754.298 -1.62445 0.107469 0
M  V30 8119 O 755.487 -1.74904 0.356481 0
M  V30 8120 C 752.587 -3.29971 0.772817 0
M  V30 8121 C 751.76 -3.92695 1.92638 0
M  V30 8122 C 750.819 -5.04068 1.51003 0
M  V30 8123 O 749.845 -5.24032 2.22213 0
M  V30 8124 N 751.047 -5.79076 0.406371 0
M  V30 8125 H 753.812 -2.10503 2.13327 0
M  V30 8126 H 751.373 -1.02897 1.24995 0
M  V30 8127 H 753.365 -4.01883 0.476684 0
M  V30 8128 H 751.935 -3.1245 -0.0967 0
M  V30 8129 H 751.155 -3.13563 2.38897 0
M  V30 8130 H 752.443 -4.31337 2.69863 0
M  V30 8131 H 751.841 -5.65393 -0.186302 0
M  V30 8132 H 750.398 -6.51579 0.169846 0
M  V30 8133 N 753.831 -1.1567 -1.07043 0
M  V30 8134 C 755.08 -0.928039 -1.79082 0
M  V30 8135 C 755.393 0.545968 -1.87826 0
M  V30 8136 O 756.599 0.892308 -2.56418 0
M  V30 8137 C 755.055 -1.61103 -3.21829 0
M  V30 8138 C 754.663 -3.12228 -3.21275 0
M  V30 8139 C 756.407 -1.46404 -3.98455 0
M  V30 8140 C 754.314 -3.733 -4.58695 0
M  V30 8141 H 753.244 -0.34357 -0.671175 0
M  V30 8142 H 755.895 -1.38718 -1.20123 0
M  V30 8143 H 754.277 -1.07958 -3.81 0
M  V30 8144 H 755.451 -3.72155 -2.71731 0
M  V30 8145 H 753.766 -3.26725 -2.58147 0
M  V30 8146 H 756.363 -1.8942 -5.00024 0
M  V30 8147 H 756.706 -0.41195 -4.14257 0
M  V30 8148 H 757.239 -1.96663 -3.45787 0
M  V30 8149 H 753.978 -4.78423 -4.48098 0
M  V30 8150 H 753.498 -3.18157 -5.08465 0
M  V30 8151 H 755.177 -3.7441 -5.27661 0
M  V30 8152 N 755.309 1.25446 -0.953992 0
M  V30 8153 C 756.242 2.24341 -0.417912 0
M  V30 8154 C 757.22 1.54709 0.5004 0
M  V30 8155 O 758.404 1.83414 0.434923 0
M  V30 8156 C 755.531 3.36352 0.398155 0
M  V30 8157 C 754.577 4.24007 -0.460461 0
M  V30 8158 S 755.41 5.00951 -1.89231 0
M  V30 8159 C 756.566 6.1643 -1.08465 0
M  V30 8160 H 756.799 2.69465 -1.25602 0
M  V30 8161 H 754.332 1.34512 -0.758018 0
M  V30 8162 H 756.29 4.01325 0.863059 0
M  V30 8163 H 754.951 2.89813 1.21108 0
M  V30 8164 H 754.144 5.03728 0.165415 0
M  V30 8165 H 753.746 3.63965 -0.860549 0
M  V30 8166 H 756.038 6.76681 -0.333017 0
M  V30 8167 H 756.981 6.8335 -1.85577 0
M  V30 8168 H 757.389 5.61139 -0.615062 0
M  V30 8169 N 756.787 0.722489 1.40064 0
M  V30 8170 C 757.734 0.0743738 2.3068 0
M  V30 8171 C 758.704 -0.743004 1.48555 0
M  V30 8172 O 759.889 -0.705536 1.77276 0
M  V30 8173 C 757.029 -0.836292 3.34814 0
M  V30 8174 C 756.142 -0.00764663 4.31999 0
M  V30 8175 C 755.277 -0.918428 5.232 0
M  V30 8176 C 754.316 -0.0842838 6.12042 0
M  V30 8177 N 753.453 -0.950316 6.95639 0
M  V30 8178 H 758.293 0.852794 2.85537 0
M  V30 8179 H 755.83 0.432222 1.40607 0
M  V30 8180 H 757.788 -1.3786 3.93765 0
M  V30 8181 H 756.418 -1.58082 2.81443 0
M  V30 8182 H 755.47 0.651928 3.74772 0
M  V30 8183 H 756.782 0.63786 4.94705 0
M  V30 8184 H 755.936 -1.52902 5.87116 0
M  V30 8185 H 754.675 -1.59774 4.60786 0
M  V30 8186 H 753.68 0.5392 5.4715 0
M  V30 8187 H 754.905 0.591628 6.76518 0
M  V30 8188 H 752.851 -1.61515 6.35806 0
M  V30 8189 H 752.768 -0.361004 7.55138 0
M  V30 8190 H 754.036 -1.54687 7.63997 0
M  V30 8191 N 758.265 -1.50454 0.469181 0
M  V30 8192 C 759.213 -2.30101 -0.340033 0
M  V30 8193 C 760.207 -1.37306 -0.992135 0
M  V30 8194 O 761.413 -1.54506 -0.923458 0
M  V30 8195 H 757.788 -0.740941 -0.128495 0
M  V30 8196 H 759.759 -2.96315 0.352144 0
M  V30 8197 C 758.508 -3.17804 -1.41052 0
M  V30 8198 H 757.831 -3.89115 -0.918124 0
M  V30 8199 H 759.271 -3.76533 -1.94934 0
M  V30 8200 C 757.73 -2.35272 -2.4114 0
M  V30 8201 O 758.26 -2.03448 -3.4637 0
M  V30 8202 N 756.466 -1.97889 -2.1281 0
M  V30 8203 H 756.013 -2.2397 -1.27261 0
M  V30 8204 H 755.971 -1.42971 -2.80012 0
M  V30 8205 N 759.743 -0.201713 -1.56304 0
M  V30 8206 C 761.154 0.309711 -1.84113 0
M  V30 8207 C 761.505 1.60912 -1.12258 0
M  V30 8208 O 760.63 2.12937 -0.385587 0
M  V30 8209 C 761.225 0.568706 -3.33993 0
M  V30 8210 C 759.784 1.02448 -3.6219 0
M  V30 8211 C 758.931 0.0766842 -2.77194 0
M  V30 8212 H 761.882 -0.425356 -1.52893 0
M  V30 8213 H 761.903 1.41721 -3.53122 0
M  V30 8214 H 761.415 -0.37719 -3.86263 0
M  V30 8215 H 759.516 1.98443 -3.15359 0
M  V30 8216 H 759.629 0.912619 -4.70328 0
M  V30 8217 H 757.993 0.579809 -2.48013 0
M  V30 8218 H 758.776 -0.863774 -3.32256 0
M  V30 8219 N 761.222 1.57436 0.0718424 0
M  V30 8220 C 762.169 2.03686 1.08539 0
M  V30 8221 C 763.139 0.917474 1.38462 0
M  V30 8222 O 764.324 1.18513 1.4953 0
M  V30 8223 C 761.464 2.48566 2.39393 0
M  V30 8224 C 760.577 3.74122 2.16001 0
M  V30 8225 C 759.712 4.07786 3.40418 0
M  V30 8226 C 758.751 5.26383 3.1239 0
M  V30 8227 N 757.888 5.55685 4.29138 0
M  V30 8228 H 762.728 2.90043 0.684018 0
M  V30 8229 H 760.265 1.43438 0.326183 0
M  V30 8230 H 762.223 2.72639 3.15791 0
M  V30 8231 H 760.853 1.65186 2.77333 0
M  V30 8232 H 759.905 3.57389 1.30296 0
M  V30 8233 H 761.217 4.60659 1.91298 0
M  V30 8234 H 760.371 4.32759 4.25211 0
M  V30 8235 H 759.11 3.19817 3.68197 0
M  V30 8236 H 758.115 5.01206 2.25993 0
M  V30 8237 H 759.34 6.1597 2.85934 0
M  V30 8238 H 757.286 4.70675 4.56948 0
M  V30 8239 H 757.203 6.3664 4.07708 0
M  V30 8240 H 758.471 5.85209 5.14928 0
M  V30 8241 N 762.7 -0.34323 1.53817 0
M  V30 8242 C 763.663 -1.40444 1.8113 0
M  V30 8243 C 764.663 -1.45604 0.682366 0
M  V30 8244 O 765.853 -1.45974 0.950649 0
M  V30 8245 C 762.985 -2.79369 1.95361 0
M  V30 8246 H 764.178 -1.17489 2.75928 0
M  V30 8247 H 761.731 -0.577636 1.45234 0
M  V30 8248 H 762.466 -3.07607 1.02707 0
M  V30 8249 H 762.251 -2.7702 2.77493 0
M  V30 8250 H 763.741 -3.56178 2.18008 0
M  V30 8251 N 764.178 -1.45556 -0.604258 0
M  V30 8252 C 765.125 -1.54482 -1.71476 0
M  V30 8253 C 766.095 -0.390479 -1.61445 0
M  V30 8254 O 767.28 -0.604371 -1.80975 0
M  V30 8255 C 764.42 -1.52064 -3.09791 0
M  V30 8256 C 763.533 -2.78073 -3.30604 0
M  V30 8257 C 762.668 -2.67304 -4.59044 0
M  V30 8258 C 761.707 -3.88352 -4.73127 0
M  V30 8259 N 760.844 -3.76098 -5.9287 0
M  V30 8260 H 765.684 -2.49349 -1.63184 0
M  V30 8261 H 763.221 -1.23725 -0.795641 0
M  V30 8262 H 765.179 -1.48649 -3.89819 0
M  V30 8263 H 763.809 -0.607442 -3.17033 0
M  V30 8264 H 762.861 -2.91561 -2.44329 0
M  V30 8265 H 764.173 -3.67847 -3.36883 0
M  V30 8266 H 763.327 -2.61875 -5.47272 0
M  V30 8267 H 762.066 -1.75135 -4.55169 0
M  V30 8268 H 761.071 -3.94137 -3.83322 0
M  V30 8269 H 762.296 -4.81591 -4.78797 0
M  V30 8270 H 760.242 -2.867 -5.90033 0
M  V30 8271 H 760.159 -4.59509 -6.00323 0
M  V30 8272 H 761.427 -3.74607 -6.83586 0
M  V30 8273 N 765.656 0.84705 -1.32902 0
M  V30 8274 C 766.884 1.63403 -1.26913 0
M  V30 8275 C 767.299 1.88108 0.161483 0
M  V30 8276 O 766.656 1.45546 1.10103 0
M  V30 8277 C 766.707 2.98896 -2.03331 0
M  V30 8278 O 766.428 2.75281 -3.40811 0
M  V30 8279 C 767.929 3.93335 -2.04457 0
M  V30 8280 H 765.149 0.508701 -0.437566 0
M  V30 8281 H 767.693 1.05567 -1.75145 0
M  V30 8282 H 765.848 3.53356 -1.58802 0
M  V30 8283 H 766.262 3.61504 -3.8002 0
M  V30 8284 H 767.736 4.85647 -2.62394 0
M  V30 8285 H 768.213 4.26885 -1.03274 0
M  V30 8286 H 768.819 3.44812 -2.48967 0
M  V30 8287 N 767.134 1.16236 1.06428 0
M  V30 8288 C 768.362 0.967184 1.82902 0
M  V30 8289 C 768.777 -0.484601 1.82475 0
M  V30 8290 O 768.134 -1.33631 1.24294 0
M  V30 8291 C 768.185 1.48534 3.29576 0
M  V30 8292 O 767.906 2.88026 3.3011 0
M  V30 8293 C 769.407 1.33298 4.22784 0
M  V30 8294 H 766.627 0.342923 0.576754 0
M  V30 8295 H 769.171 1.54232 1.34286 0
M  V30 8296 H 767.326 0.952513 3.75508 0
M  V30 8297 H 767.74 3.11721 4.21818 0
M  V30 8298 H 769.214 1.74385 5.23731 0
M  V30 8299 H 769.691 0.278356 4.38317 0
M  V30 8300 H 770.297 1.85535 3.82697 0
M  V30 8301 N 768.612 -1.24939 0.960631 0
M  V30 8302 C 769.86 -1.92437 0.617441 0
M  V30 8303 C 770.181 -1.75543 -0.849101 0
M  V30 8304 O 769.451 -1.12269 -1.60538 0
M  V30 8305 H 768.031 -0.712192 0.225371 0
M  V30 8306 H 770.693 -1.5198 1.22017 0
M  V30 8307 H 769.789 -3.00247 0.851933 0
M  V30 8308 N 770.09 -0.729906 -1.39679 0
M  V30 8309 C 771.023 -0.0354454 -2.28172 0
M  V30 8310 C 772.001 0.752968 -1.44115 0
M  V30 8311 O 773.185 0.736599 -1.73512 0
M  V30 8312 C 770.312 0.957047 -3.24897 0
M  V30 8313 C 769.358 0.257734 -4.25721 0
M  V30 8314 S 770.191 -1.02466 -5.25605 0
M  V30 8315 C 771.347 -0.0346322 -6.2589 0
M  V30 8316 H 771.58 -0.785922 -2.86724 0
M  V30 8317 H 769.113 -0.521497 -1.45326 0
M  V30 8318 H 771.071 1.52441 -3.81146 0
M  V30 8319 H 769.732 1.68033 -2.65375 0
M  V30 8320 H 768.925 1.00854 -4.93806 0
M  V30 8321 H 768.527 -0.237454 -3.73245 0
M  V30 8322 H 770.819 0.807464 -6.72671 0
M  V30 8323 H 771.762 -0.682491 -7.04803 0
M  V30 8324 H 772.17 0.335492 -5.63502 0
M  V30 8325 N 771.568 1.50203 -0.477153 0
M  V30 8326 C 772.816 2.01959 0.0755889 0
M  V30 8327 C 773.137 1.3608 1.39668 0
M  V30 8328 O 772.407 0.508136 1.89195 0
M  V30 8329 H 770.987 0.74636 0.0309248 0
M  V30 8330 H 773.649 1.84473 -0.628959 0
M  V30 8331 H 772.745 3.11305 0.222683 0
M  V30 8332 N 773.046 0.209999 1.56195 0
M  V30 8333 C 774.009 -0.691232 2.18528 0
M  V30 8334 C 775.009 -1.13013 1.14388 0
M  V30 8335 O 776.199 -1.04081 1.39688 0
M  V30 8336 C 773.331 -1.94551 2.79934 0
M  V30 8337 H 774.524 -0.147953 2.99535 0
M  V30 8338 H 772.077 -0.0396243 1.5625 0
M  V30 8339 H 772.812 -2.53094 2.02766 0
M  V30 8340 H 772.597 -1.63938 3.56184 0
M  V30 8341 H 774.087 -2.58785 3.2775 0
M  V30 8342 N 774.524 -1.57472 -0.0634922 0
M  V30 8343 C 775.773 -1.86837 -0.759928 0
M  V30 8344 C 776.086 -0.803823 -1.7832 0
M  V30 8345 O 777.292 -0.985578 -2.52979 0
M  V30 8346 C 775.748 -3.31448 -1.4025 0
M  V30 8347 C 775.356 -4.46052 -0.417368 0
M  V30 8348 C 777.1 -3.70003 -2.08082 0
M  V30 8349 C 775.007 -5.81707 -1.06633 0
M  V30 8350 H 773.937 -0.697009 -0.287567 0
M  V30 8351 H 776.588 -1.83495 -0.0133914 0
M  V30 8352 H 774.97 -3.29427 -2.19759 0
M  V30 8353 H 776.144 -4.5948 0.348503 0
M  V30 8354 H 774.459 -4.16104 0.156955 0
M  V30 8355 H 777.056 -4.68653 -2.57426 0
M  V30 8356 H 777.399 -3.00226 -2.88393 0
M  V30 8357 H 777.932 -3.7405 -1.35394 0
M  V30 8358 H 774.671 -6.54798 -0.303374 0
M  V30 8359 H 774.191 -5.72064 -1.80286 0
M  V30 8360 H 775.87 -6.27317 -1.58376 0
M  V30 8361 N 776.003 0.335068 -1.53997 0
M  V30 8362 C 777.233 1.0926 -1.75345 0
M  V30 8363 C 777.641 1.82568 -0.496545 0
M  V30 8364 O 776.984 1.75525 0.541897 0
M  V30 8365 C 777.046 2.14473 -2.88516 0
M  V30 8366 C 776.71 1.60665 -4.27827 0
M  V30 8367 C 777.707 1.05448 -5.09094 0
M  V30 8368 C 775.392 1.65255 -4.74337 0
M  V30 8369 C 777.386 0.555372 -6.34976 0
M  V30 8370 C 775.073 1.14956 -6.0019 0
M  V30 8371 C 776.071 0.601907 -6.80343 0
M  V30 8372 O 775.759 0.106445 -8.0383 0
M  V30 8373 H 775.491 0.331329 -0.589234 0
M  V30 8374 H 778.045 0.39042 -2.01655 0
M  V30 8375 H 776.275 2.88274 -2.5775 0
M  V30 8376 H 777.964 2.75857 -2.97755 0
M  V30 8377 H 778.73 1.01218 -4.74321 0
M  V30 8378 H 774.609 2.06822 -4.12002 0
M  V30 8379 H 778.153 0.127245 -6.97484 0
M  V30 8380 H 774.05 1.18891 -6.34457 0
M  V30 8381 H 774.818 0.222944 -8.18196 0
M  V30 8382 N 777.481 1.45874 0.596531 0
M  V30 8383 C 778.729 1.5017 1.35253 0
M  V30 8384 C 779.05 0.149246 1.94428 0
M  V30 8385 O 778.32 -0.82268 1.77789 0
M  V30 8386 H 776.9 0.553052 0.502138 0
M  V30 8387 H 779.562 1.81908 0.699671 0
M  V30 8388 H 778.658 2.24671 2.16632 0
M  V30 8389 N 778.959 -0.83999 1.33349 0
M  V30 8390 C 779.892 -1.95415 1.17848 0
M  V30 8391 C 780.87 -1.6243 0.0742296 0
M  V30 8392 O 782.054 -1.87014 0.23626 0
M  V30 8393 C 779.181 -3.28938 0.807295 0
M  V30 8394 C 778.227 -3.80895 1.91888 0
M  V30 8395 S 779.06 -4.02709 3.52967 0
M  V30 8396 C 780.216 -5.39185 3.17853 0
M  V30 8397 H 780.449 -2.08265 2.12162 0
M  V30 8398 H 777.982 -0.993643 1.18178 0
M  V30 8399 H 779.94 -4.06093 0.599914 0
M  V30 8400 H 778.601 -3.13881 -0.117234 0
M  V30 8401 H 777.794 -4.77508 1.6125 0
M  V30 8402 H 777.396 -3.10633 2.08286 0
M  V30 8403 H 779.688 -6.21978 2.68608 0
M  V30 8404 H 780.631 -5.74795 4.13542 0
M  V30 8405 H 781.039 -5.03885 2.5448 0
M  V30 8406 N 780.437 -1.16799 -1.0581 0
M  V30 8407 C 781.4 -0.881396 -2.11575 0
M  V30 8408 C 782.4 0.12574 -1.60308 0
M  V30 8409 O 783.59 -0.105716 -1.73879 0
M  V30 8410 C 780.722 -0.319037 -3.39404 0
M  V30 8411 H 781.915 -1.81907 -2.38432 0
M  V30 8412 H 779.468 -0.977597 -1.21954 0
M  V30 8413 H 780.203 0.626082 -3.18199 0
M  V30 8414 H 779.988 -1.04481 -3.77923 0
M  V30 8415 H 781.478 -0.13663 -4.17376 0
M  V30 8416 N 781.915 1.24427 -0.967243 0
M  V30 8417 C 782.847 2.24641 -0.454856 0
M  V30 8418 C 783.86 1.56849 0.436152 0
M  V30 8419 O 785.049 1.76846 0.242401 0
M  V30 8420 C 782.149 3.36954 0.362672 0
M  V30 8421 C 781.322 4.34318 -0.518324 0
M  V30 8422 C 780.381 5.25638 0.243122 0
M  V30 8423 O 779.407 5.68043 -0.362791 0
M  V30 8424 N 780.609 5.59897 1.53282 0
M  V30 8425 H 783.374 2.69238 -1.31648 0
M  V30 8426 H 780.935 1.38464 -0.839015 0
M  V30 8427 H 782.927 3.95014 0.880094 0
M  V30 8428 H 781.497 2.91646 1.12522 0
M  V30 8429 H 780.717 3.74953 -1.21672 0
M  V30 8430 H 782.005 4.96338 -1.11919 0
M  V30 8431 H 781.403 5.27373 2.04682 0
M  V30 8432 H 779.96 6.20488 1.99594 0
M  V30 8433 N 783.393 0.737304 1.3929 0
M  V30 8434 C 784.621 0.296573 2.04763 0
M  V30 8435 C 785.036 -1.06941 1.55592 0
M  V30 8436 O 784.393 -1.67619 0.721822 0
M  V30 8437 C 784.444 0.291906 3.6032 0
M  V30 8438 O 784.165 1.60397 4.07682 0
M  V30 8439 C 785.666 -0.164708 4.42994 0
M  V30 8440 H 782.886 0.129251 0.658434 0
M  V30 8441 H 785.43 1.0016 1.78293 0
M  V30 8442 H 783.585 -0.364251 3.85684 0
M  V30 8443 H 783.999 1.51909 5.0202 0
M  V30 8444 H 785.473 -0.116814 5.51876 0
M  V30 8445 H 785.95 -1.21022 4.22197 0
M  V30 8446 H 786.556 0.461968 4.22784 0
M  V30 8447 N 784.871 -1.49948 0.485112 0
M  V30 8448 C 786.099 -2.06806 -0.0622824 0
M  V30 8449 C 786.514 -1.34736 -1.32256 0
M  V30 8450 O 785.871 -0.420836 -1.77582 0
M  V30 8451 C 785.922 -3.59934 -0.336096 0
M  V30 8452 O 785.643 -4.29289 0.874203 0
M  V30 8453 C 787.144 -4.33459 -0.928903 0
M  V30 8454 H 784.364 -0.670867 0.0133472 0
M  V30 8455 H 786.908 -1.92937 0.677917 0
M  V30 8456 H 785.063 -3.7356 -1.02625 0
M  V30 8457 H 785.477 -5.20735 0.627332 0
M  V30 8458 H 786.951 -5.41527 -1.07017 0
M  V30 8459 H 787.428 -3.94881 -1.92265 0
M  V30 8460 H 788.034 -4.24399 -0.276705 0
M  V30 8461 N 786.349 -0.21828 -1.56081 0
M  V30 8462 C 787.595 0.414921 -1.9851 0
M  V30 8463 C 787.928 1.59648 -1.10573 0
M  V30 8464 O 787.203 1.93818 -0.162695 0
M  V30 8465 C 787.486 0.852647 -3.4986 0
M  V30 8466 C 787.339 -0.33232 -4.48571 0
M  V30 8467 C 788.658 1.70998 -4.05521 0
M  V30 8468 H 785.777 0.149344 -0.72171 0
M  V30 8469 H 788.419 -0.313858 -1.8739 0
M  V30 8470 H 786.569 1.47362 -3.59467 0
M  V30 8471 H 788.241 -0.970418 -4.50977 0
M  V30 8472 H 786.484 -0.980302 -4.22578 0
M  V30 8473 H 787.155 0.0168407 -5.51997 0
M  V30 8474 H 789.631 1.18606 -3.98838 0
M  V30 8475 H 788.507 1.98517 -5.11744 0
M  V30 8476 H 788.768 2.67219 -3.52202 0
M  V30 8477 N 787.827 1.57504 0.0551401 0
M  V30 8478 C 789.104 1.79155 0.785048 0
M  V30 8479 C 789.484 0.809995 1.94942 0
M  V30 8480 O 788.832 -0.153432 2.27984 0
M  V30 8481 C 789.042 3.26134 1.24247 0
M  V30 8482 C 790.39 3.90419 1.66908 0
M  V30 8483 O 791.414 3.30126 1.33772 0
M  V30 8484 O 790.273 4.96523 2.28314 0
M  V30 8485 H 787.367 0.735825 0.377479 0
M  V30 8486 H 789.913 1.69666 0.0339285 0
M  V30 8487 H 788.685 3.89145 0.410089 0
M  V30 8488 H 788.308 3.40411 2.05441 0
M  V30 8489 N 789.305 -0.326896 1.54172 0
M  V30 8490 C 790.721 -0.671034 1.44808 0
M  V30 8491 C 790.921 -1.91781 0.618258 0
M  V30 8492 O 789.977 -2.52235 0.115751 0
M  V30 8493 C 791.29 -0.848147 2.88491 0
M  V30 8494 C 792.838 -0.945702 2.98371 0
M  V30 8495 C 793.313 -1.15501 4.43197 0
M  V30 8496 N 794.804 -1.22183 4.46795 0
M  V30 8497 C 795.539 -1.4016 5.56006 0
M  V30 8498 N 795.035 -1.55202 6.75192 0
M  V30 8499 N 796.828 -1.42841 5.43648 0
M  V30 8500 H 788.979 0.49262 2.06608 0
M  V30 8501 H 791.242 0.158574 0.934643 0
M  V30 8502 H 790.948 -0.00329969 3.517 0
M  V30 8503 H 790.822 -1.74497 3.34411 0
M  V30 8504 H 793.209 -1.78106 2.35292 0
M  V30 8505 H 793.29 -0.0254215 2.55787 0
M  V30 8506 H 792.934 -0.324521 5.06862 0
M  V30 8507 H 792.864 -2.08911 4.83388 0
M  V30 8508 H 795.355 -1.12016 3.60917 0
M  V30 8509 H 795.668 -1.68601 7.54184 0
M  V30 8510 H 794.013 -1.52306 6.78106 0
M  V30 8511 H 797.204 -1.30683 4.49488 0
M  V30 8512 H 797.377 -1.56509 6.28816 0
M  V30 8513 N 790.784 -1.46188 -0.588786 0
M  V30 8514 C 791.732 -1.56653 -1.71938 0
M  V30 8515 C 792.726 -0.435354 -1.6371 0
M  V30 8516 O 793.932 -0.611996 -1.69277 0
M  V30 8517 H 790.307 -0.492408 -0.568365 0
M  V30 8518 H 792.278 -2.51724 -1.60242 0
M  V30 8519 C 791.027 -1.56822 -3.10326 0
M  V30 8520 H 790.35 -2.43198 -3.17325 0
M  V30 8521 H 791.79 -1.68199 -3.89211 0
M  V30 8522 C 790.249 -0.295802 -3.35599 0
M  V30 8523 O 790.779 0.616515 -3.96941 0
M  V30 8524 N 788.985 -0.185609 -2.90007 0
M  V30 8525 H 788.532 -0.928914 -2.40269 0
M  V30 8526 H 788.49 0.664883 -3.07289 0
M  V30 8527 N 792.262 0.832906 -1.33792 0
M  V30 8528 C 793.195 1.94788 -1.18882 0
M  V30 8529 C 794.173 1.62389 -0.0828426 0
M  V30 8530 O 795.357 1.86886 -0.246175 0
M  V30 8531 C 792.484 3.28506 -0.824728 0
M  V30 8532 C 791.53 3.79872 -1.93905 0
M  V30 8533 S 792.363 4.00832 -3.55097 0
M  V30 8534 C 793.519 5.37492 -3.20708 0
M  V30 8535 H 793.752 2.07137 -2.13264 0
M  V30 8536 H 791.285 0.987362 -1.18704 0
M  V30 8537 H 793.243 4.05769 -0.621442 0
M  V30 8538 H 791.904 3.13939 0.100587 0
M  V30 8539 H 791.097 4.76647 -1.6378 0
M  V30 8540 H 790.699 3.09524 -2.09931 0
M  V30 8541 H 792.991 6.20544 -2.71903 0
M  V30 8542 H 793.934 5.72593 -4.16584 0
M  V30 8543 H 794.342 5.02529 -2.57148 0
M  V30 8544 N 793.74 1.17359 1.05189 0
M  V30 8545 C 794.986 0.963413 1.78455 0
M  V30 8546 C 795.319 -0.506703 1.87473 0
M  V30 8547 O 794.594 -1.37611 1.37453 0
M  V30 8548 C 794.877 1.60519 3.22344 0
M  V30 8549 C 794.73 3.14741 3.21338 0
M  V30 8550 C 796.049 1.3091 4.20179 0
M  V30 8551 H 793.168 0.351412 0.647826 0
M  V30 8552 H 795.81 1.44858 1.22948 0
M  V30 8553 H 793.96 1.19265 3.69741 0
M  V30 8554 H 795.632 3.65053 2.82017 0
M  V30 8555 H 793.875 3.4749 2.59679 0
M  V30 8556 H 794.546 3.54775 4.22894 0
M  V30 8557 H 797.022 1.66635 3.81277 0
M  V30 8558 H 795.898 1.784 5.191 0
M  V30 8559 H 796.159 0.229908 4.41502 0
M  V30 8560 N 795.218 -1.23913 0.973828 0
M  V30 8561 C 796.181 -2.23367 0.51378 0
M  V30 8562 C 797.181 -1.55923 -0.39302 0
M  V30 8563 O 798.371 -1.73187 -0.187626 0
M  V30 8564 C 795.503 -3.39944 -0.255152 0
M  V30 8565 H 796.696 -2.65581 1.39307 0
M  V30 8566 H 794.249 -1.36632 0.759039 0
M  V30 8567 H 794.984 -3.03177 -1.15127 0
M  V30 8568 H 794.769 -3.90098 0.395673 0
M  V30 8569 H 796.259 -4.13749 -0.565842 0
M  V30 8570 N 796.696 -0.74468 -1.38897 0
M  V30 8571 C 797.606 -0.112892 -2.34328 0
M  V30 8572 C 798.622 0.71087 -1.58816 0
M  V30 8573 O 799.798 0.637092 -1.91058 0
M  V30 8574 C 796.863 0.776417 -3.37894 0
M  V30 8575 C 795.924 -0.0606999 -4.29257 0
M  V30 8576 C 795.157 0.786258 -5.27877 0
M  V30 8577 O 795.38 2.02463 -5.33259 0
M  V30 8578 O 794.314 0.209781 -6.01534 0
M  V30 8579 H 798.14 -0.900801 -2.90033 0
M  V30 8580 H 795.725 -0.505462 -1.4059 0
M  V30 8581 H 797.607 1.28496 -4.01331 0
M  V30 8582 H 796.282 1.54297 -2.84559 0
M  V30 8583 H 795.189 -0.614984 -3.69011 0
M  V30 8584 H 796.522 -0.789702 -4.85824 0
M  V30 8585 N 798.174 1.49689 -0.493057 0
M  V30 8586 C 799.104 2.31826 0.279073 0
M  V30 8587 C 800.085 1.39733 0.969987 0
M  V30 8588 O 801.27 1.68646 0.962925 0
M  V30 8589 C 798.4 3.20046 1.34862 0
M  V30 8590 C 797.354 4.20869 0.77805 0
M  V30 8591 C 796.68 4.97971 1.94753 0
M  V30 8592 C 797.98 5.21813 -0.225543 0
M  V30 8593 H 799.674 2.96627 -0.406512 0
M  V30 8594 H 797.22 1.42647 -0.196943 0
M  V30 8595 H 799.173 3.76315 1.89645 0
M  V30 8596 H 797.897 2.53172 2.06328 0
M  V30 8597 H 796.556 3.65733 0.252036 0
M  V30 8598 H 796.204 4.27552 2.64969 0
M  V30 8599 H 795.904 5.66186 1.57187 0
M  V30 8600 H 797.428 5.57082 2.49984 0
M  V30 8601 H 798.842 5.72823 0.233864 0
M  V30 8602 H 797.239 5.97872 -0.516622 0
M  V30 8603 H 798.309 4.71209 -1.14412 0
M  V30 8604 N 799.652 0.226554 1.55963 0
M  V30 8605 C 800.877 -0.411527 2.03276 0
M  V30 8606 C 801.302 -1.52206 1.10521 0
M  V30 8607 O 800.66 -1.81054 0.0943217 0
M  V30 8608 C 800.708 -0.915694 3.4878 0
M  V30 8609 O 799.812 -2.02672 3.59163 0
M  V30 8610 H 799.153 -0.0924907 0.657527 0
M  V30 8611 H 801.683 0.346656 2.01642 0
M  V30 8612 H 801.693 -1.22421 3.892 0
M  V30 8613 H 800.368 -0.102915 4.15773 0
M  V30 8614 H 798.945 -1.72445 3.30632 0
M  V30 8615 N 801.13 -1.57531 -0.0467866 0
M  V30 8616 C 802.355 -1.93087 -0.757123 0
M  V30 8617 C 802.78 -0.825116 -1.69037 0
M  V30 8618 O 802.138 0.220449 -1.79955 0
M  V30 8619 C 802.186 -3.27669 -1.5055 0
M  V30 8620 O 801.29 -3.18667 -2.61773 0
M  V30 8621 H 800.631 -0.631597 -0.204892 0
M  V30 8622 H 803.161 -2.04599 -0.00755232 0
M  V30 8623 H 803.171 -3.6214 -1.87932 0
M  V30 8624 H 801.846 -4.07717 -0.820931 0
M  V30 8625 H 800.423 -2.95798 -2.27064 0
M  V30 8626 N 802.608 0.318715 -1.54344 0
M  V30 8627 C 803.854 1.05765 -1.73037 0
M  V30 8628 C 804.187 1.87514 -0.505181 0
M  V30 8629 O 803.462 1.88021 0.497838 0
M  V30 8630 C 803.745 1.97836 -3.00887 0
M  V30 8631 C 803.598 1.19384 -4.33668 0
M  V30 8632 C 804.917 2.97285 -3.24514 0
M  V30 8633 H 802.036 0.383104 -0.629603 0
M  V30 8634 H 804.678 0.333864 -1.87044 0
M  V30 8635 H 802.828 2.59552 -2.89076 0
M  V30 8636 H 804.5 0.600906 -4.57369 0
M  V30 8637 H 802.743 0.496198 -4.30953 0
M  V30 8638 H 803.414 1.87014 -5.19355 0
M  V30 8639 H 805.89 2.45693 -3.35819 0
M  V30 8640 H 804.766 3.58887 -4.15321 0
M  V30 8641 H 805.027 3.70003 -2.41971 0
M  V30 8642 N 804.086 1.46499 0.581025 0
M  V30 8643 C 805.333 1.51896 1.33918 0
M  V30 8644 C 805.661 0.171361 1.93744 0
M  V30 8645 O 804.916 -0.833178 1.77078 0
M  V30 8646 C 805.215 2.56686 2.48691 0
M  V30 8647 C 804.881 4.00656 2.06847 0
M  V30 8648 C 803.543 4.39852 1.9515 0
M  V30 8649 C 805.895 4.91089 1.74589 0
M  V30 8650 C 803.223 5.67345 1.49456 0
M  V30 8651 C 805.575 6.1902 1.30373 0
M  V30 8652 C 804.239 6.57121 1.17255 0
M  V30 8653 H 803.509 0.555826 0.490039 0
M  V30 8654 H 806.156 1.79983 0.654092 0
M  V30 8655 H 804.461 2.22266 3.22653 0
M  V30 8656 H 806.158 2.58091 3.06904 0
M  V30 8657 H 802.748 3.69674 2.16886 0
M  V30 8658 H 806.932 4.61523 1.8251 0
M  V30 8659 H 802.188 5.95635 1.37944 0
M  V30 8660 H 806.362 6.8852 1.04467 0
M  V30 8661 H 803.989 7.55805 0.816236 0
M  V30 8662 N 805.565 -0.825799 1.34232 0
M  V30 8663 C 806.495 -1.95151 1.28212 0
M  V30 8664 C 807.476 -1.69345 0.160123 0
M  V30 8665 O 808.661 -1.90983 0.352019 0
M  V30 8666 C 805.791 -3.31554 1.03388 0
M  V30 8667 C 804.745 -3.71793 2.12023 0
M  V30 8668 C 804.071 -5.06147 1.72392 0
M  V30 8669 C 805.371 -3.84193 3.53826 0
M  V30 8670 H 807.065 -2.00445 2.22401 0
M  V30 8671 H 804.611 -0.962996 1.07063 0
M  V30 8672 H 806.564 -4.09889 0.978225 0
M  V30 8673 H 805.288 -3.26551 0.0564142 0
M  V30 8674 H 803.947 -2.95731 2.16654 0
M  V30 8675 H 803.595 -4.97628 0.733137 0
M  V30 8676 H 803.295 -5.34041 2.451 0
M  V30 8677 H 804.819 -5.86943 1.68317 0
M  V30 8678 H 806.233 -4.52806 3.51624 0
M  V30 8679 H 804.63 -4.23538 4.2513 0
M  V30 8680 H 805.7 -2.86272 3.91377 0
M  V30 8681 N 807.043 -1.17915 -1.04565 0
M  V30 8682 C 808.32 -0.881187 -1.74627 0
M  V30 8683 C 808.7 0.617123 -2.01878 0
M  V30 8684 O 808.048 1.57032 -1.65991 0
M  V30 8685 C 808.258 -1.72299 -3.03503 0
M  V30 8686 C 809.606 -1.94688 -3.77335 0
M  V30 8687 O 810.63 -1.6931 -3.13389 0
M  V30 8688 O 809.489 -2.37379 -4.92253 0
M  V30 8689 H 806.583 -0.326864 -0.759664 0
M  V30 8690 H 809.129 -1.28642 -1.10676 0
M  V30 8691 H 807.901 -2.73891 -2.79462 0
M  V30 8692 H 807.524 -1.31593 -3.75192 0
M  V30 8693 N 808.521 1.23394 -0.980386 0
M  V30 8694 C 809.746 1.96384 -0.666935 0
M  V30 8695 C 810.171 1.72087 0.759456 0
M  V30 8696 O 809.529 0.992328 1.51732 0
M  V30 8697 C 809.577 3.47499 -0.963177 0
M  V30 8698 O 808.681 4.12363 -0.0552051 0
M  V30 8699 H 808.022 0.614797 -0.250839 0
M  V30 8700 H 810.552 1.56831 -1.31398 0
M  V30 8701 H 810.562 3.97953 -0.899877 0
M  V30 8702 H 809.237 3.6451 -2.00264 0
M  V30 8703 H 807.814 3.72499 -0.172914 0
M  V30 8704 N 809.999 0.752036 1.385 0
M  V30 8705 C 810.929 0.138718 2.33088 0
M  V30 8706 C 811.91 -0.705318 1.54788 0
M  V30 8707 O 813.095 -0.646821 1.83112 0
M  V30 8708 C 810.225 -0.75641 3.38963 0
M  V30 8709 C 809.179 -0.0152239 4.27997 0
M  V30 8710 C 808.505 -1.0285 5.24715 0
M  V30 8711 C 809.805 1.15226 5.09431 0
M  V30 8712 H 811.499 0.928852 2.84627 0
M  V30 8713 H 809.045 0.448111 1.3685 0
M  V30 8714 H 810.998 -1.19513 4.04097 0
M  V30 8715 H 809.722 -1.57885 2.85902 0
M  V30 8716 H 808.381 0.404061 3.64366 0
M  V30 8717 H 808.029 -1.84496 4.67943 0
M  V30 8718 H 807.729 -0.537238 5.85139 0
M  V30 8719 H 809.253 -1.46657 5.92726 0
M  V30 8720 H 810.667 0.791161 5.67815 0
M  V30 8721 H 809.064 1.57428 5.79082 0
M  V30 8722 H 810.134 1.9659 4.43261 0
M  V30 8723 N 811.477 -1.49425 0.500989 0
M  V30 8724 C 812.707 -2.06561 -0.0402858 0
M  V30 8725 C 813.115 -1.36157 -1.31369 0
M  V30 8726 O 812.458 -0.433618 -1.78509 0
M  V30 8727 C 812.52 -3.5765 -0.364269 0
M  V30 8728 C 812.184 -4.49739 0.811417 0
M  V30 8729 C 813.181 -4.91255 1.7019 0
M  V30 8730 C 810.866 -4.92036 1.01022 0
M  V30 8731 C 812.86 -5.73806 2.77534 0
M  V30 8732 C 810.547 -5.74364 2.08683 0
M  V30 8733 C 811.545 -6.15154 2.96774 0
M  V30 8734 O 811.233 -6.95836 4.02577 0
M  V30 8735 H 810.965 -0.67578 0.0172357 0
M  V30 8736 H 813.519 -1.93193 0.697553 0
M  V30 8737 H 811.749 -3.69026 -1.1557 0
M  V30 8738 H 813.438 -3.97025 -0.844156 0
M  V30 8739 H 814.204 -4.59222 1.56013 0
M  V30 8740 H 810.083 -4.59789 0.333929 0
M  V30 8741 H 813.627 -6.05564 3.4632 0
M  V30 8742 H 809.524 -6.0581 2.22855 0
M  V30 8743 H 810.292 -7.14142 3.9993 0
M  V30 8744 N 812.955 -0.234822 -1.55841 0
M  V30 8745 C 814.18 0.400741 -2.03492 0
M  V30 8746 C 814.605 1.51618 -1.11327 0
M  V30 8747 O 813.963 1.81002 -0.103922 0
M  V30 8748 C 814.011 0.897184 -3.49261 0
M  V30 8749 O 813.115 2.00764 -3.60233 0
M  V30 8750 H 812.456 0.0890023 -0.658008 0
M  V30 8751 H 814.986 -0.357345 -2.01455 0
M  V30 8752 H 814.996 1.20356 -3.89844 0
M  V30 8753 H 813.671 0.0808639 -4.15821 0
M  V30 8754 H 812.248 1.70689 -3.31541 0
M  V30 8755 N 814.433 1.57553 0.0384317 0
M  V30 8756 C 815.661 1.93093 0.743141 0
M  V30 8757 C 816.076 0.833787 1.69391 0
M  V30 8758 O 815.433 -0.190532 1.81503 0
M  V30 8759 C 815.484 3.28533 1.50826 0
M  V30 8760 O 815.205 4.34032 0.595665 0
M  V30 8761 C 816.706 3.78297 2.31098 0
M  V30 8762 H 813.926 0.637486 0.20941 0
M  V30 8763 H 816.47 2.045 -0.00125154 0
M  V30 8764 H 814.625 3.18552 2.20462 0
M  V30 8765 H 815.039 5.12155 1.13124 0
M  V30 8766 H 816.513 4.75602 2.80191 0
M  V30 8767 H 816.99 3.09008 3.12107 0
M  V30 8768 H 817.596 3.91331 1.66555 0
M  V30 8769 N 815.911 -0.310526 1.54511 0
M  V30 8770 C 817.188 -1.06593 1.64004 0
M  V30 8771 C 817.568 -2.05519 0.482216 0
M  V30 8772 O 816.916 -2.22455 -0.52212 0
M  V30 8773 C 817.126 -1.75627 3.01589 0
M  V30 8774 C 818.474 -2.28173 3.58081 0
M  V30 8775 O 819.498 -1.85674 3.03979 0
M  V30 8776 O 818.357 -3.06015 4.52788 0
M  V30 8777 H 815.451 -0.492109 0.664649 0
M  V30 8778 H 817.997 -0.309374 1.66856 0
M  V30 8779 H 816.769 -1.03743 3.77297 0
M  V30 8780 H 816.392 -2.58061 3.02473 0
M  V30 8781 N 817.389 -1.46805 -0.573248 0
M  V30 8782 C 818.617 -1.56191 -1.3569 0
M  V30 8783 C 819.032 -0.206362 -1.87669 0
M  V30 8784 O 818.389 0.797883 -1.64134 0
M  V30 8785 C 818.44 -2.57433 -2.53792 0
M  V30 8786 O 818.161 -3.87724 -2.03965 0
M  V30 8787 C 819.662 -2.76851 -3.4622 0
M  V30 8788 H 816.882 -0.527907 -0.414192 0
M  V30 8789 H 819.426 -1.92292 -0.695989 0
M  V30 8790 H 817.581 -2.24311 -3.15854 0
M  V30 8791 H 817.995 -4.42909 -2.80948 0
M  V30 8792 H 819.469 -3.5159 -4.25545 0
M  V30 8793 H 819.946 -1.84095 -3.98755 0
M  V30 8794 H 820.552 -3.11107 -2.89987 0
M  V30 8795 N 818.867 0.818669 -1.34668 0
M  V30 8796 C 820.113 1.57746 -1.27453 0
M  V30 8797 C 820.446 1.93588 0.154077 0
M  V30 8798 O 819.721 1.60371 1.10051 0
M  V30 8799 C 820.004 2.87414 -2.16945 0
M  V30 8800 C 819.857 2.58125 -3.68363 0
M  V30 8801 C 821.176 3.89021 -2.05792 0
M  V30 8802 H 818.295 0.572339 -0.464324 0
M  V30 8803 H 820.937 0.942784 -1.64959 0
M  V30 8804 H 819.087 3.41576 -1.85089 0
M  V30 8805 H 820.759 2.10239 -4.10606 0
M  V30 8806 H 819.002 1.91503 -3.89242 0
M  V30 8807 H 819.673 3.5061 -4.26353 0
M  V30 8808 H 822.149 3.44224 -2.33771 0
M  V30 8809 H 821.025 4.77548 -2.70628 0
M  V30 8810 H 821.286 4.29786 -1.03618 0
M  V30 8811 N 820.346 1.18468 1.03938 0
M  V30 8812 C 821.574 1.00576 1.80809 0
M  V30 8813 C 821.989 -0.445786 1.83462 0
M  V30 8814 O 821.346 -1.30964 1.27101 0
M  V30 8815 C 821.397 1.55491 3.26351 0
M  V30 8816 O 821.118 2.94963 3.23926 0
M  V30 8817 C 822.619 1.42236 4.19862 0
M  V30 8818 H 819.839 0.35508 0.56935 0
M  V30 8819 H 822.383 1.57046 1.30984 0
M  V30 8820 H 820.538 1.03195 3.73403 0
M  V30 8821 H 820.952 3.20598 4.15111 0
M  V30 8822 H 822.426 1.85455 5.19914 0
M  V30 8823 H 822.903 0.371267 4.37628 0
M  V30 8824 H 823.509 1.9361 3.78675 0
M  V30 8825 N 821.824 -1.22873 0.986916 0
M  V30 8826 C 822.756 -2.23889 0.490537 0
M  V30 8827 C 823.769 -1.57523 -0.411144 0
M  V30 8828 O 824.958 -1.7721 -0.214236 0
M  V30 8829 C 822.058 -3.37488 -0.30902 0
M  V30 8830 C 821.231 -4.33438 0.587354 0
M  V30 8831 C 820.29 -5.25958 -0.159467 0
M  V30 8832 O 819.316 -5.67394 0.453115 0
M  V30 8833 N 820.518 -5.62265 -1.44355 0
M  V30 8834 H 823.283 -2.67109 1.35914 0
M  V30 8835 H 820.844 -1.37111 0.860937 0
M  V30 8836 H 822.836 -3.96365 -0.817139 0
M  V30 8837 H 821.406 -2.934 -1.07868 0
M  V30 8838 H 820.626 -3.72969 1.27622 0
M  V30 8839 H 821.914 -4.94495 1.19801 0
M  V30 8840 H 821.312 -5.30562 -1.96266 0
M  V30 8841 H 819.869 -6.23585 -1.89698 0
M  V30 8842 N 823.302 -0.75937 -1.38099 0
M  V30 8843 C 824.55 -0.317485 -1.99591 0
M  V30 8844 C 824.871 1.10628 -1.60581 0
M  V30 8845 O 824.141 1.7575 -0.865378 0
M  V30 8846 H 822.721 -0.114397 -0.738189 0
M  V30 8847 H 825.383 -0.974749 -1.68774 0
M  V30 8848 H 824.479 -0.385227 -3.09713 0
M  V30 8849 N 824.78 1.49157 -0.508906 0
M  V30 8850 C 826.005 2.07376 0.0315182 0
M  V30 8851 C 826.43 1.36575 1.2934 0
M  V30 8852 O 825.788 0.424963 1.76249 0
M  V30 8853 C 825.836 3.59661 0.260118 0
M  V30 8854 O 824.94 3.90255 1.33322 0
M  V30 8855 H 824.281 0.663334 -0.029739 0
M  V30 8856 H 826.811 1.91857 -0.710791 0
M  V30 8857 H 826.821 4.05056 0.489225 0
M  V30 8858 H 825.496 4.10601 -0.661794 0
M  V30 8859 H 824.073 3.56661 1.08844 0
M  V30 8860 N 826.258 0.243083 1.55714 0
M  V30 8861 C 827.19 -0.690766 2.18543 0
M  V30 8862 C 828.203 -1.14163 1.16064 0
M  V30 8863 O 829.392 -1.06906 1.42946 0
M  V30 8864 C 826.492 -1.95016 2.77168 0
M  V30 8865 C 825.665 -1.65137 4.05029 0
M  V30 8866 C 824.724 -2.75998 4.48009 0
M  V30 8867 O 823.75 -2.43547 5.14464 0
M  V30 8868 N 824.952 -4.05414 4.15476 0
M  V30 8869 H 827.717 -0.153203 2.99308 0
M  V30 8870 H 825.278 0.0628968 1.61778 0
M  V30 8871 H 827.27 -2.68414 3.0288 0
M  V30 8872 H 825.84 -2.39762 2.00582 0
M  V30 8873 H 825.06 -0.752768 3.86946 0
M  V30 8874 H 826.348 -1.42633 4.88399 0
M  V30 8875 H 825.746 -4.34613 3.62116 0
M  V30 8876 H 824.303 -4.75288 4.46032 0
M  V30 8877 N 827.736 -1.57571 -0.0300757 0
M  V30 8878 C 828.669 -2.01874 -1.06406 0
M  V30 8879 C 829.647 -0.902901 -1.35227 0
M  V30 8880 O 830.831 -1.16865 -1.47901 0
M  V30 8881 C 827.958 -2.39093 -2.39901 0
M  V30 8882 C 827.004 -3.61108 -2.26943 0
M  V30 8883 S 827.837 -5.10287 -1.62382 0
M  V30 8884 C 828.993 -5.50747 -2.97369 0
M  V30 8885 H 829.226 -2.89261 -0.686703 0
M  V30 8886 H 826.759 -1.52523 -0.240017 0
M  V30 8887 H 828.717 -2.61207 -3.16672 0
M  V30 8888 H 827.378 -1.52159 -2.74784 0
M  V30 8889 H 826.571 -3.84803 -3.25489 0
M  V30 8890 H 826.173 -3.3884 -1.58314 0
M  V30 8891 H 828.465 -5.51369 -3.93698 0
M  V30 8892 H 829.408 -6.51071 -2.78409 0
M  V30 8893 H 829.816 -4.7825 -2.99895 0
M  V30 8894 N 829.214 0.302327 -1.54673 0
M  V30 8895 C 830.162 1.39286 -1.86285 0
M  V30 8896 C 831.156 1.52553 -0.736478 0
M  V30 8897 O 832.362 1.54686 -0.92045 0
M  V30 8898 H 828.737 0.465228 -0.590819 0
M  V30 8899 H 830.708 1.09859 -2.77441 0
M  V30 8900 C 829.457 2.75155 -2.12567 0
M  V30 8901 H 828.78 2.65728 -2.98712 0
M  V30 8902 H 830.22 3.50476 -2.38627 0
M  V30 8903 C 828.679 3.23987 -0.923813 0
M  V30 8904 O 829.209 4.01443 -0.143649 0
M  V30 8905 N 827.415 2.81293 -0.72956 0
M  V30 8906 H 826.962 2.18421 -1.36565 0
M  V30 8907 H 826.92 3.14315 0.0730351 0
M  V30 8908 N 830.692 1.47107 0.565454 0
M  V30 8909 C 831.94 1.53005 1.32038 0
M  V30 8910 C 832.261 0.190453 1.94068 0
M  V30 8911 O 831.531 -0.784783 1.79494 0
M  V30 8912 H 830.111 0.563578 0.490294 0
M  V30 8913 H 832.773 1.83351 0.660928 0
M  V30 8914 H 831.869 2.29215 2.11818 0
M  V30 8915 N 832.17 -0.811516 1.35101 0
M  V30 8916 C 833.395 -1.60499 1.31358 0
M  V30 8917 C 833.82 -1.87793 -0.107383 0
M  V30 8918 O 833.178 -1.46161 -1.07268 0
M  V30 8919 C 833.226 -2.91612 2.12119 0
M  V30 8920 O 832.33 -3.84211 1.49853 0
M  V30 8921 H 831.671 -0.487702 0.450603 0
M  V30 8922 H 834.201 -1.00758 1.7807 0
M  V30 8923 H 834.211 -3.4108 2.23894 0
M  V30 8924 H 832.886 -2.71071 3.15426 0
M  V30 8925 H 831.463 -3.42751 1.46889 0
M  V30 8926 N 833.648 -1.19017 -1.03309 0
M  V30 8927 C 835.059 -0.993206 -1.5809 0
M  V30 8928 C 835.41 0.45505 -1.9085 0
M  V30 8929 O 834.535 1.33372 -1.70414 0
M  V30 8930 C 835.13 -1.79661 -2.87241 0
M  V30 8931 C 833.689 -1.64377 -3.38611 0
M  V30 8932 C 832.836 -1.78628 -2.12102 0
M  V30 8933 H 835.787 -1.3345 -0.858879 0
M  V30 8934 H 835.808 -1.29019 -3.57958 0
M  V30 8935 H 835.32 -2.85061 -2.63366 0
M  V30 8936 H 833.421 -0.615447 -3.67482 0
M  V30 8937 H 833.534 -2.44651 -4.11926 0
M  V30 8938 H 831.898 -1.21648 -2.23772 0
M  V30 8939 H 832.681 -2.8548 -1.90673 0
M  V30 8940 N 835.127 1.22348 -0.993418 0
M  V30 8941 C 836.074 2.24294 -0.544118 0
M  V30 8942 C 837.044 1.60602 0.42381 0
M  V30 8943 O 838.229 1.87952 0.328453 0
M  V30 8944 C 835.369 3.44837 0.134578 0
M  V30 8945 C 834.482 4.23043 -0.875151 0
M  V30 8946 C 833.617 5.30928 -0.169919 0
M  V30 8947 C 832.656 6.00853 -1.16798 0
M  V30 8948 N 831.793 7.00381 -0.491021 0
M  V30 8949 H 836.633 2.6209 -1.4182 0
M  V30 8950 H 834.17 1.2881 -0.710384 0
M  V30 8951 H 836.128 4.13625 0.544998 0
M  V30 8952 H 834.758 3.07804 0.972446 0
M  V30 8953 H 833.81 3.53546 -1.40389 0
M  V30 8954 H 835.122 4.71237 -1.63516 0
M  V30 8955 H 834.276 6.05972 0.297205 0
M  V30 8956 H 833.015 4.8371 0.622586 0
M  V30 8957 H 832.02 5.24591 -1.64573 0
M  V30 8958 H 833.245 6.50159 -1.96137 0
M  V30 8959 H 831.191 6.55393 0.282037 0
M  V30 8960 H 831.108 7.46584 -1.18947 0
M  V30 8961 H 832.376 7.79486 -0.0467169 0
M  V30 8962 N 836.605 0.766683 1.37694 0
M  V30 8963 C 838.016 0.394761 1.82479 0
M  V30 8964 C 838.367 -1.07842 1.63904 0
M  V30 8965 O 837.492 -1.83479 1.14737 0
M  V30 8966 C 838.087 0.70974 3.31283 0
M  V30 8967 C 836.646 0.390936 3.74364 0
M  V30 8968 C 835.793 0.956192 2.60293 0
M  V30 8969 H 838.744 0.961756 1.26238 0
M  V30 8970 H 838.765 -0.00742144 3.80499 0
M  V30 8971 H 838.277 1.782 3.4477 0
M  V30 8972 H 836.378 -0.674213 3.66449 0
M  V30 8973 H 836.491 0.895645 4.70654 0
M  V30 8974 H 834.855 0.380744 2.51838 0
M  V30 8975 H 835.638 2.03375 2.76575 0
M  V30 8976 N 838.083 -1.48885 0.516809 0
M  V30 8977 C 839.033 -2.26363 -0.272704 0
M  V30 8978 C 840.017 -1.31891 -0.921604 0
M  V30 8979 O 841.209 -1.56514 -0.826589 0
M  V30 8980 C 838.338 -3.16614 -1.32705 0
M  V30 8981 C 837.424 -4.18554 -0.683598 0
M  V30 8982 N 837.815 -5.05308 0.223015 0
M  V30 8983 C 836.113 -4.35931 -0.942351 0
M  V30 8984 C 836.814 -5.7867 0.592918 0
M  V30 8985 N 835.79 -5.43583 -0.042912 0
M  V30 8986 H 839.592 -2.90811 0.424971 0
M  V30 8987 H 837.106 -1.5893 0.333941 0
M  V30 8988 H 839.103 -3.70766 -1.90625 0
M  V30 8989 H 837.763 -2.5372 -2.02624 0
M  V30 8990 H 838.774 -5.14473 0.594818 0
M  V30 8991 H 835.451 -3.84234 -1.6331 0
M  V30 8992 H 836.841 -6.58493 1.33556 0
M  V30 8993 O 839.6 -0.393142 -1.56642 0
M  V30 8994 H 840.291 0.151122 -1.9311 0
M  V30 END ATOM
M  V30 BEGIN BOND
M  V30 END BOND
M  V30 END CTAB
M  END
$$$$
