drugbank_target|O95479 GDH/6PGL endoplasmic bifunctional protein (DB00157)
 OpenBabel12092119303D

  0  0  0     0  0            999 V3000
M  V30 BEGIN CTAB
M  V30 COUNTS 12466 12636 0 0 0
M  V30 BEGIN ATOM
M  V30 1 H -0.908 1.98254 -0.117106 0
M  V30 2 N 0 1.576 0 0
M  V30 3 C 0.933 2.03868 1.02534 0
M  V30 4 C 1.911 0.928543 1.3348 0
M  V30 5 O 3.095 1.19667 1.45644 0
M  V30 6 C 0.222 2.43627 2.35294 0
M  V30 7 C -0.732 3.65373 2.2001 0
M  V30 8 S 0.101 5.13292 1.52614 0
M  V30 9 C 1.257 5.56322 2.86805 0
M  V30 10 H 1.49 2.90518 0.631377 0
M  V30 11 H -0.977 1.52953 0.210867 0
M  V30 12 H 0.981 2.67203 3.11629 0
M  V30 13 H -0.358 1.57376 2.7183 0
M  V30 14 H -1.165 3.90944 3.18086 0
M  V30 15 H -1.563 3.418 1.51819 0
M  V30 16 H 0.729 5.58782 3.83104 0
M  V30 17 H 1.672 6.56266 2.65933 0
M  V30 18 H 2.08 4.83886 2.90714 0
M  V30 19 N 1.4781 -0.272755 1.55222 0
M  V30 20 C 2.7241 -1.00172 1.77023 0
M  V30 21 C 3.0791 -1.83928 0.564633 0
M  V30 22 O 2.3721 -1.86416 -0.442674 0
M  V30 23 C 2.5661 -1.91642 3.01675 0
M  V30 24 C 2.3951 -1.16888 4.34243 0
M  V30 25 C 1.1651 -0.884464 4.97499 0
M  V30 26 C 3.3631 -0.55919 5.11251 0
M  V30 27 N 1.3451 -0.11015 6.13801 0
M  V30 28 C 2.7161 0.0809469 6.19947 0
M  V30 29 C 4.7711 -0.467058 4.95705 0
M  V30 30 C 3.4741 0.804335 7.14789 0
M  V30 31 C 5.5001 0.242739 5.90902 0
M  V30 32 C 4.8621 0.871613 6.98987 0
M  V30 33 H 0.9611 -0.348529 0.700037 0
M  V30 34 H 3.5451 -0.277365 1.92714 0
M  V30 35 H 1.7161 -2.61303 2.87359 0
M  V30 36 H 3.4481 -2.57901 3.1188 0
M  V30 37 H 0.2031 -1.18979 4.58411 0
M  V30 38 H 0.6271 0.264344 6.76484 0
M  V30 39 H 5.2691 -0.93894 4.12242 0
M  V30 40 H 2.9871 1.2879 7.97771 0
M  V30 41 H 6.5731 0.314347 5.8095 0
M  V30 42 H 5.4531 1.4121 7.71381 0
M  V30 43 N 2.9562 -1.48159 -0.537278 0
M  V30 44 C 3.9042 -1.62573 -1.66352 0
M  V30 45 C 4.8982 -0.492366 -1.62087 0
M  V30 46 O 6.1042 -0.670847 -1.67032 0
M  V30 47 H 2.4792 -0.511992 -0.550789 0
M  V30 48 H 4.4502 -2.57176 -1.51337 0
M  V30 49 C 3.1992 -1.67583 -3.04649 0
M  V30 50 H 2.5222 -2.54151 -3.08622 0
M  V30 51 H 3.9622 -1.81713 -3.83088 0
M  V30 52 C 2.4212 -0.413039 -3.34358 0
M  V30 53 O 2.9512 0.477259 -3.98855 0
M  V30 54 N 1.1572 -0.286961 -2.8918 0
M  V30 55 H 0.7042 -1.01241 -2.36871 0
M  V30 56 H 0.6622 0.556963 -3.09427 0
M  V30 57 N 4.4343 0.785586 -1.36625 0
M  V30 58 C 5.3673 1.90509 -1.25625 0
M  V30 59 C 6.3453 1.62 -0.139607 0
M  V30 60 O 7.5293 1.8591 -0.31141 0
M  V30 61 C 4.6563 3.25419 -0.939158 0
M  V30 62 C 3.7023 3.72856 -2.07077 0
M  V30 63 S 4.5353 3.88162 -3.68904 0
M  V30 64 C 5.6913 5.25942 -3.39317 0
M  V30 65 H 5.9243 1.99549 -2.20381 0
M  V30 66 H 3.4573 0.945226 -1.22085 0
M  V30 67 H 5.4153 4.03346 -0.763029 0
M  V30 68 H 4.0763 3.14099 -0.00931402 0
M  V30 69 H 3.2693 4.70624 -1.80357 0
M  V30 70 H 2.8713 3.01989 -2.20632 0
M  V30 71 H 5.1633 6.10651 -2.93447 0
M  V30 72 H 6.1063 5.57668 -4.36363 0
M  V30 73 H 6.5143 4.93224 -2.74573 0
M  V30 74 N 5.9124 1.20967 1.01018 0
M  V30 75 C 6.8424 0.988272 2.11555 0
M  V30 76 C 7.8234 -0.0849778 1.69888 0
M  V30 77 O 9.0084 0.0738202 1.9406 0
M  V30 78 C 6.1384 0.546528 3.42973 0
M  V30 79 C 5.0924 1.56375 3.9841 0
M  V30 80 C 4.4184 0.97842 5.25672 0
M  V30 81 C 5.7184 2.94922 4.31066 0
M  V30 82 H 7.4124 1.91276 2.30334 0
M  V30 83 H 4.9584 0.921073 1.1069 0
M  V30 84 H 6.9114 0.378839 4.19694 0
M  V30 85 H 5.6354 -0.413598 3.23971 0
M  V30 86 H 4.2944 1.71891 3.23804 0
M  V30 87 H 3.9424 0.0101688 5.02999 0
M  V30 88 H 3.6424 1.65784 5.63728 0
M  V30 89 H 5.1664 0.821939 6.05043 0
M  V30 90 H 6.5804 2.8288 4.9865 0
M  V30 91 H 4.9774 3.5983 4.80253 0
M  V30 92 H 6.0474 3.4616 3.39561 0
M  V30 93 N 7.3905 -1.2043 1.01659 0
M  V30 94 C 8.6395 -1.89118 0.701237 0
M  V30 95 C 8.9525 -1.79705 -0.772358 0
M  V30 96 O 10.1585 -2.43528 -1.20026 0
M  V30 97 C 8.6145 -3.39168 1.20388 0
M  V30 98 C 8.2225 -3.57166 2.70438 0
M  V30 99 C 9.9665 -4.1341 0.963953 0
M  V30 100 C 7.8735 -5.01042 3.14183 0
M  V30 101 H 6.8035 -0.708267 0.2586 0
M  V30 102 H 9.4545 -1.36239 1.22927 0
M  V30 103 H 7.8365 -3.91369 0.603824 0
M  V30 104 H 9.0105 -3.15351 3.35992 0
M  V30 105 H 7.3255 -2.96294 2.92572 0
M  V30 106 H 9.9225 -5.19491 1.26621 0
M  V30 107 H 10.2655 -4.16181 -0.099578 0
M  V30 108 H 10.7985 -3.67309 1.52738 0
M  V30 109 H 7.5375 -5.03426 4.19812 0
M  V30 110 H 7.0575 -5.43668 2.53348 0
M  V30 111 H 8.7365 -5.69623 3.0682 0
M  V30 112 N 8.8686 -0.792821 -1.36206 0
M  V30 113 C 10.1146 -0.36733 -1.99446 0
M  V30 114 C 10.4476 1.05917 -1.62774 0
M  V30 115 O 9.7226 1.7324 -0.88421 0
M  V30 116 C 10.0056 -0.535044 -3.56103 0
M  V30 117 C 9.8586 -2.00548 -4.02617 0
M  V30 118 C 11.1776 0.0478191 -4.40074 0
M  V30 119 H 8.2966 -0.134941 -0.724541 0
M  V30 120 H 10.9386 -0.999794 -1.61568 0
M  V30 121 H 9.0886 0.00336329 -3.885 0
M  V30 122 H 10.7606 -2.60521 -3.80692 0
M  V30 123 H 9.0036 -2.50686 -3.54032 0
M  V30 124 H 9.6746 -2.07377 -5.11565 0
M  V30 125 H 12.1506 -0.411822 -4.14057 0
M  V30 126 H 11.0266 -0.0995336 -5.4881 0
M  V30 127 H 11.2876 1.14025 -4.27142 0
M  V30 128 N 10.3467 1.47872 -0.545128 0
M  V30 129 C 11.3097 2.28337 0.198717 0
M  V30 130 C 12.3097 1.36255 0.853888 0
M  V30 131 O 13.4997 1.59003 0.711606 0
M  V30 132 C 10.6317 3.15585 1.28915 0
M  V30 133 H 11.8247 2.95567 -0.507941 0
M  V30 134 H 9.3777 1.53362 -0.301616 0
M  V30 135 H 10.1127 2.53019 2.02859 0
M  V30 136 H 9.8977 3.83337 0.824309 0
M  V30 137 H 11.3877 3.76243 1.81194 0
M  V30 138 N 11.8248 0.280983 1.55075 0
M  V30 139 C 12.7578 -0.645439 2.18882 0
M  V30 140 C 13.7358 -1.14786 1.15165 0
M  V30 141 O 14.9198 -1.21975 1.43716 0
M  V30 142 C 12.0468 -1.88088 2.81674 0
M  V30 143 C 11.0928 -1.51343 3.98745 0
M  V30 144 S 11.9258 -0.586548 5.32278 0
M  V30 145 C 13.0818 -1.83024 5.98543 0
M  V30 146 H 13.3148 -0.1033 2.9712 0
M  V30 147 H 10.8478 0.0652099 1.54262 0
M  V30 148 H 12.8058 -2.58997 3.18482 0
M  V30 149 H 11.4668 -2.39417 2.03318 0
M  V30 150 H 10.6598 -2.43289 4.41392 0
M  V30 151 H 10.2618 -0.884477 3.63391 0
M  V30 152 H 12.5538 -2.77342 6.18133 0
M  V30 153 H 13.4968 -1.44668 6.93164 0
M  V30 154 H 13.9048 -1.99785 5.27964 0
M  V30 155 N 13.3029 -1.57598 0.00835791 0
M  V30 156 C 14.5429 -1.92788 -0.679136 0
M  V30 157 C 14.9069 -0.883378 -1.70471 0
M  V30 158 O 16.1079 -1.12079 -2.44319 0
M  V30 159 C 14.3789 -3.32994 -1.29807 0
M  V30 160 S 15.9379 -3.90082 -2.00952 0
M  V30 161 H 12.7559 -0.67475 -0.224127 0
M  V30 162 H 15.3579 -1.95385 0.0670497 0
M  V30 163 H 14.0619 -4.06846 -0.538922 0
M  V30 164 H 13.5929 -3.33791 -2.082 0
M  V30 165 H 15.6079 -3.71834 -3.28563 0
M  V30 166 N 14.781 0.264519 -1.55364 0
M  V30 167 C 15.711 1.33121 -1.91836 0
M  V30 168 C 16.692 1.51101 -0.781192 0
M  V30 169 O 17.877 1.64003 -1.04003 0
M  V30 170 C 15.007 2.68921 -2.19769 0
M  V30 171 C 13.961 2.65661 -3.35571 0
M  V30 172 C 13.287 4.05093 -3.49004 0
M  V30 173 C 14.587 2.24187 -4.71739 0
M  V30 174 H 16.281 1.02844 -2.81182 0
M  V30 175 H 13.827 0.493286 -1.35287 0
M  V30 176 H 15.78 3.43663 -2.43872 0
M  V30 177 H 14.504 3.00799 -1.27231 0
M  V30 178 H 13.163 1.93377 -3.1145 0
M  V30 179 H 12.811 4.34206 -2.53917 0
M  V30 180 H 12.511 4.03804 -4.26868 0
M  V30 181 H 14.035 4.81561 -3.75408 0
M  V30 182 H 15.449 2.88654 -4.9533 0
M  V30 183 H 13.846 2.34044 -5.52579 0
M  V30 184 H 14.916 1.19327 -4.69988 0
M  V30 185 N 16.2591 1.48442 0.529413 0
M  V30 186 C 17.2221 1.62524 1.61612 0
M  V30 187 C 18.2221 0.498509 1.52877 0
M  V30 188 O 19.4121 0.76431 1.56537 0
M  V30 189 C 16.5441 1.59597 3.01233 0
M  V30 190 H 17.7371 2.59423 1.50465 0
M  V30 191 H 15.2901 1.37047 0.751514 0
M  V30 192 H 16.0251 0.641781 3.17886 0
M  V30 193 H 15.8101 2.41397 3.08982 0
M  V30 194 H 17.3001 1.72646 3.80241 0
M  V30 195 N 17.7372 -0.778329 1.37039 0
M  V30 196 C 18.6672 -1.90546 1.34962 0
M  V30 197 C 19.6482 -1.68681 0.219274 0
M  V30 198 O 20.8332 -1.89634 0.418624 0
M  V30 199 C 17.9632 -3.27734 1.14925 0
M  V30 200 C 16.9172 -3.64147 2.24902 0
M  V30 201 C 16.2432 -4.99806 1.89996 0
M  V30 202 C 17.5432 -3.71579 3.67051 0
M  V30 203 H 19.2372 -1.92541 2.29277 0
M  V30 204 H 16.7832 -0.924948 1.10366 0
M  V30 205 H 18.7362 -4.06215 1.12104 0
M  V30 206 H 17.4602 -3.26154 0.170631 0
M  V30 207 H 16.1192 -2.8797 2.26868 0
M  V30 208 H 15.7672 -4.94759 0.906796 0
M  V30 209 H 15.4672 -5.25139 2.63634 0
M  V30 210 H 16.9912 -5.80694 1.88749 0
M  V30 211 H 18.4052 -4.40227 3.67251 0
M  V30 212 H 16.8022 -4.08405 4.39688 0
M  V30 213 H 17.8722 -2.72404 4.01154 0
M  V30 214 N 19.2153 -1.21501 -1.00376 0
M  V30 215 C 20.1453 -0.999478 -2.11028 0
M  V30 216 C 21.1263 0.0759671 -1.6993 0
M  V30 217 O 22.3113 -0.0841106 -1.94018 0
M  V30 218 C 19.4413 -0.564709 -3.42678 0
M  V30 219 C 18.3953 -1.58486 -3.97576 0
M  V30 220 C 17.7213 -1.00628 -5.25146 0
M  V30 221 C 19.0213 -2.97204 -4.29496 0
M  V30 222 H 20.7153 -1.92495 -2.29317 0
M  V30 223 H 18.2613 -0.92693 -1.102 0
M  V30 224 H 20.2143 -0.401091 -4.19487 0
M  V30 225 H 18.9383 0.396411 -3.24185 0
M  V30 226 H 17.5973 -1.73606 -3.22888 0
M  V30 227 H 17.2453 -0.0368439 -5.02987 0
M  V30 228 H 16.9453 -1.68771 -5.62841 0
M  V30 229 H 18.4693 -0.854015 -6.04598 0
M  V30 230 H 19.8833 -2.8552 -4.97143 0
M  V30 231 H 18.2803 -3.62372 -4.78338 0
M  V30 232 H 19.3503 -3.47956 -3.3772 0
M  V30 233 N 20.6934 1.19889 -1.02296 0
M  V30 234 C 21.9414 1.89046 -0.714558 0
M  V30 235 C 22.2624 1.79636 0.758681 0
M  V30 236 O 21.5324 1.20292 1.54618 0
M  V30 237 H 20.1124 0.699802 -0.261317 0
M  V30 238 H 22.7744 1.45574 -1.29592 0
M  V30 239 H 21.8704 2.95524 -1.0036 0
M  V30 240 N 22.1715 0.800033 1.35784 0
M  V30 241 C 23.4115 0.382891 2.00782 0
M  V30 242 C 23.7755 -1.02891 1.62103 0
M  V30 243 O 24.9765 -1.54771 2.19771 0
M  V30 244 C 23.2475 0.553299 3.53091 0
M  V30 245 S 24.8065 0.225608 4.3822 0
M  V30 246 H 21.6245 0.145737 0.695904 0
M  V30 247 H 24.2265 1.04085 1.65489 0
M  V30 248 H 22.9305 1.58091 3.78729 0
M  V30 249 H 22.4615 -0.120214 3.93216 0
M  V30 250 H 24.4765 -0.969074 4.86645 0
M  V30 251 N 23.6496 -1.47581 0.552962 0
M  V30 252 C 24.5796 -2.32762 -0.185451 0
M  V30 253 C 25.5606 -1.43527 -0.912905 0
M  V30 254 O 26.7456 -1.72388 -0.894201 0
M  V30 255 C 23.8756 -3.25219 -1.21859 0
M  V30 256 C 22.8296 -4.23661 -0.607864 0
M  V30 257 C 22.1556 -5.05413 -1.74533 0
M  V30 258 C 23.4556 -5.20481 0.435582 0
M  V30 259 H 25.1496 -2.94749 0.525684 0
M  V30 260 H 22.6956 -1.41738 0.254251 0
M  V30 261 H 24.6486 -3.8365 -1.7433 0
M  V30 262 H 23.3726 -2.61279 -1.95961 0
M  V30 263 H 22.0316 -3.66451 -0.104489 0
M  V30 264 H 21.6796 -4.3788 -2.47529 0
M  V30 265 H 21.3796 -5.72059 -1.34249 0
M  V30 266 H 22.9036 -5.66701 -2.27338 0
M  V30 267 H 24.3176 -5.733 -0.00290157 0
M  V30 268 H 22.7146 -5.95305 0.757067 0
M  V30 269 H 23.7846 -4.66217 1.33303 0
M  V30 270 N 25.1277 -0.289203 -1.54924 0
M  V30 271 C 26.0597 0.625583 -2.20497 0
M  V30 272 C 27.0727 1.10667 -1.19402 0
M  V30 273 O 28.2617 1.02615 -1.46056 0
M  V30 274 C 25.3617 1.86702 -2.82835 0
M  V30 275 C 24.5347 1.5304 -4.09753 0
M  V30 276 C 23.5937 2.62576 -4.56005 0
M  V30 277 O 22.6197 2.28167 -5.21468 0
M  V30 278 N 23.8217 3.92901 -4.27328 0
M  V30 279 H 26.5867 0.0642801 -2.99631 0
M  V30 280 H 24.1477 -0.110896 -1.6152 0
M  V30 281 H 26.1397 2.59304 -3.10715 0
M  V30 282 H 24.7097 2.33702 -2.07611 0
M  V30 283 H 23.9297 0.637564 -3.8901 0
M  V30 284 H 25.2177 1.28072 -4.92418 0
M  V30 285 H 24.6157 4.23671 -3.74859 0
M  V30 286 H 23.1727 4.61837 -4.59946 0
M  V30 287 N 26.6058 1.57591 -0.0167156 0
M  V30 288 C 27.5688 2.08393 0.954204 0
M  V30 289 C 28.5688 0.996531 1.26198 0
M  V30 290 O 29.7588 1.25858 1.20438 0
M  V30 291 C 26.8908 2.5394 2.27436 0
M  V30 292 H 28.0838 2.95455 0.514451 0
M  V30 293 H 25.6368 1.54582 0.231089 0
M  V30 294 H 26.3718 1.70171 2.76066 0
M  V30 295 H 26.1568 3.33371 2.06412 0
M  V30 296 H 27.6468 2.93512 2.97053 0
M  V30 297 N 28.0839 -0.256276 1.55502 0
M  V30 298 C 29.0159 -1.33981 1.85962 0
M  V30 299 C 30.0289 -1.44743 0.745212 0
M  V30 300 O 31.2179 -1.4626 1.02324 0
M  V30 301 C 28.3179 -2.7194 2.02242 0
M  V30 302 C 27.4909 -2.83562 3.33033 0
M  V30 303 C 26.5499 -4.02304 3.39172 0
M  V30 304 O 25.5759 -3.92273 4.12444 0
M  V30 305 N 26.7779 -5.15045 2.67784 0
M  V30 306 H 29.5429 -1.08191 2.7949 0
M  V30 307 H 27.1039 -0.446388 1.55624 0
M  V30 308 H 29.0959 -3.49697 2.03701 0
M  V30 309 H 27.6659 -2.90479 1.15502 0
M  V30 310 H 26.8859 -1.92555 3.43971 0
M  V30 311 H 28.1739 -2.88271 4.19258 0
M  V30 312 H 27.5719 -5.26085 2.07968 0
M  V30 313 H 26.1289 -5.90972 2.74947 0
M  V30 314 N 29.562 -1.4872 -0.521534 0
M  V30 315 C 30.472 -1.66569 -1.65203 0
M  V30 316 C 31.488 -0.548197 -1.65139 0
M  V30 317 O 32.664 -0.820339 -1.83936 0
M  V30 318 C 29.729 -1.70917 -3.01642 0
M  V30 319 C 28.79 -2.94356 -3.12495 0
M  V30 320 C 28.023 -2.98487 -4.42426 0
M  V30 321 O 28.246 -2.10786 -5.30024 0
M  V30 322 O 27.18 -3.90746 -4.57822 0
M  V30 323 H 31.006 -2.62298 -1.5308 0
M  V30 324 H 28.591 -1.3222 -0.695565 0
M  V30 325 H 30.473 -1.7625 -3.82771 0
M  V30 326 H 29.148 -0.783633 -3.14071 0
M  V30 327 H 28.055 -2.94552 -2.3063 0
M  V30 328 H 29.388 -3.86322 -3.04986 0
M  V30 329 N 31.0401 0.771051 -1.3745 0
M  V30 330 C 31.9701 1.89827 -1.3597 0
M  V30 331 C 32.9511 1.68562 -0.228216 0
M  V30 332 O 34.1361 1.8941 -0.428675 0
M  V30 333 C 31.2661 3.2712 -1.16662 0
M  V30 334 C 30.2201 3.6295 -2.2683 0
M  V30 335 C 29.5461 4.98791 -1.92644 0
M  V30 336 C 30.8461 3.69627 -3.69017 0
M  V30 337 H 32.5401 1.91323 -2.30295 0
M  V30 338 H 30.0861 0.919082 -1.10855 0
M  V30 339 H 32.0391 4.05615 -1.14256 0
M  V30 340 H 30.7631 3.26059 -0.187926 0
M  V30 341 H 29.4221 2.86763 -2.28392 0
M  V30 342 H 29.0701 4.94271 -0.933021 0
M  V30 343 H 28.7701 5.23733 -2.66416 0
M  V30 344 H 30.2941 5.79685 -1.91826 0
M  V30 345 H 31.7081 4.38273 -3.69581 0
M  V30 346 H 30.1051 4.06067 -4.41848 0
M  V30 347 H 31.1751 2.70273 -4.02592 0
M  V30 348 N 32.5182 1.22032 0.997298 0
M  V30 349 C 33.4502 0.944263 2.08845 0
M  V30 350 C 34.4632 -0.0754663 1.62625 0
M  V30 351 O 35.6522 0.157994 1.77799 0
M  V30 352 C 32.7522 0.397723 3.36558 0
M  V30 353 C 31.9252 1.47362 4.11829 0
M  V30 354 C 30.9842 0.934951 5.17827 0
M  V30 355 O 30.0102 1.62016 5.45655 0
M  V30 356 N 31.2122 -0.245895 5.79979 0
M  V30 357 H 33.9772 1.88363 2.33109 0
M  V30 358 H 31.5382 1.12661 1.16272 0
M  V30 359 H 33.5302 0.0227771 4.04694 0
M  V30 360 H 32.1002 -0.446646 3.09393 0
M  V30 361 H 31.3202 2.02208 3.38386 0
M  V30 362 H 32.6082 2.19764 4.58891 0
M  V30 363 H 32.0062 -0.819475 5.59733 0
M  V30 364 H 30.5632 -0.562272 6.4937 0
M  V30 365 N 33.9963 -1.19345 1.0293 0
M  V30 366 C 35.2443 -1.88665 0.724574 0
M  V30 367 C 35.5653 -1.80036 -0.749144 0
M  V30 368 O 34.8353 -1.2111 -1.53978 0
M  V30 369 H 33.4153 -0.698406 0.265025 0
M  V30 370 H 36.0773 -1.44885 1.30362 0
M  V30 371 H 35.1733 -2.94987 1.01926 0
M  V30 372 N 35.4744 -0.807222 -1.35358 0
M  V30 373 C 36.4244 -0.190706 -2.27201 0
M  V30 374 C 37.4084 0.635838 -1.47804 0
M  V30 375 O 38.6004 0.492991 -1.69996 0
M  V30 376 C 35.7294 0.659337 -3.36909 0
M  V30 377 C 34.8154 -0.176971 -4.23731 0
M  V30 378 N 35.2064 -1.24029 -4.90357 0
M  V30 379 C 33.5044 0.0412953 -4.45981 0
M  V30 380 C 34.2054 -1.75092 -5.54723 0
M  V30 381 N 33.1814 -1.05727 -5.33219 0
M  V30 382 H 36.9834 -1.0043 -2.76208 0
M  V30 383 H 34.4974 -0.648445 -1.48892 0
M  V30 384 H 36.4944 1.11706 -4.01656 0
M  V30 385 H 35.1544 1.47127 -2.89454 0
M  V30 386 H 36.1654 -1.62295 -4.91814 0
M  V30 387 H 32.8424 0.82232 -4.09322 0
M  V30 388 H 34.2324 -2.63963 -6.17878 0
M  V30 389 N 36.9525 1.47285 -0.560781 0
M  V30 390 C 38.1985 2.02764 -0.0381184 0
M  V30 391 C 38.5315 1.43384 1.30976 0
M  V30 392 O 37.8065 0.590733 1.85312 0
M  V30 393 C 38.0895 3.60064 0.0511427 0
M  V30 394 C 37.9425 4.2987 -1.32408 0
M  V30 395 C 39.2615 4.33439 0.762795 0
M  V30 396 H 36.3805 0.736841 -0.0153264 0
M  V30 397 H 39.0225 1.75675 -0.723759 0
M  V30 398 H 37.1725 3.83274 0.635065 0
M  V30 399 H 38.8445 4.17989 -1.95148 0
M  V30 400 H 37.0875 3.90085 -1.8978 0
M  V30 401 H 37.7585 5.38478 -1.21431 0
M  V30 402 H 40.2345 4.15243 0.266965 0
M  V30 403 H 39.1105 5.43124 0.794221 0
M  V30 404 H 39.3715 4.02915 1.81966 0
M  V30 405 N 38.4306 0.297415 1.54768 0
M  V30 406 C 39.6556 -0.318435 2.04941 0
M  V30 407 C 40.0806 -1.4701 1.17345 0
M  V30 408 O 39.4386 -1.80436 0.176758 0
M  V30 409 C 39.4866 -0.755749 3.52592 0
M  V30 410 O 38.5906 -1.86088 3.68028 0
M  V30 411 H 37.9316 -0.062421 0.661059 0
M  V30 412 H 40.4616 0.438215 1.99852 0
M  V30 413 H 40.4716 -1.04552 3.94376 0
M  V30 414 H 39.1466 0.0867233 4.1581 0
M  V30 415 H 37.7236 -1.57193 3.38149 0
M  V30 416 N 39.9087 -1.5758 0.0250728 0
M  V30 417 C 41.1577 -1.90811 -0.653767 0
M  V30 418 C 41.4707 -0.90273 -1.73523 0
M  V30 419 O 42.6767 -1.12614 -2.47043 0
M  V30 420 C 41.1327 -3.38804 -1.21409 0
M  V30 421 C 40.7407 -4.47692 -0.166126 0
M  V30 422 C 42.4847 -3.81108 -1.86967 0
M  V30 423 C 40.3917 -5.86779 -0.737856 0
M  V30 424 H 39.3217 -0.712063 -0.247956 0
M  V30 425 H 41.9727 -1.83281 0.0897137 0
M  V30 426 H 40.3547 -3.41252 -2.00905 0
M  V30 427 H 41.5287 -4.56797 0.606079 0
M  V30 428 H 39.8437 -4.14565 0.390466 0
M  V30 429 H 42.4407 -4.82375 -2.30692 0
M  V30 430 H 42.7837 -3.15953 -2.71071 0
M  V30 431 H 43.3167 -3.81065 -1.14167 0
M  V30 432 H 40.0557 -6.55468 0.0649577 0
M  V30 433 H 39.5757 -5.81288 -1.47864 0
M  V30 434 H 41.2547 -6.35223 -1.22884 0
M  V30 435 N 41.3868 0.248026 -1.55636 0
M  V30 436 C 42.6358 0.974134 -1.76617 0
M  V30 437 C 42.9488 1.86528 -0.588796 0
M  V30 438 O 44.1548 2.62805 -0.681594 0
M  V30 439 C 42.6108 1.78213 -3.12679 0
M  V30 440 C 42.2188 0.93843 -4.38061 0
M  V30 441 C 43.9628 2.50104 -3.42999 0
M  V30 442 C 41.8698 1.74225 -5.65155 0
M  V30 443 H 40.7998 0.36745 -0.658405 0
M  V30 444 H 43.4508 0.22884 -1.82067 0
M  V30 445 H 41.8328 2.56933 -3.01333 0
M  V30 446 H 43.0068 0.193635 -4.60393 0
M  V30 447 H 41.3218 0.332905 -4.15067 0
M  V30 448 H 43.9188 3.10694 -4.3517 0
M  V30 449 H 44.2618 3.21662 -2.64271 0
M  V30 450 H 44.7948 1.78395 -3.55556 0
M  V30 451 H 41.5338 1.07043 -6.46701 0
M  V30 452 H 41.0538 2.46235 -5.46926 0
M  V30 453 H 42.7328 2.30967 -6.0437 0
M  V30 454 N 42.8649 1.48995 0.513639 0
M  V30 455 C 43.7949 1.67636 1.62544 0
M  V30 456 C 44.7759 0.525087 1.61793 0
M  V30 457 O 45.9609 0.759502 1.78732 0
M  V30 458 C 43.0909 1.73114 3.01079 0
M  V30 459 C 42.0449 2.87905 3.16693 0
M  V30 460 C 41.3709 2.78486 4.56453 0
M  V30 461 C 42.6709 4.29005 2.97913 0
M  V30 462 H 44.3649 2.60716 1.47198 0
M  V30 463 H 41.9109 1.25465 0.706714 0
M  V30 464 H 43.8639 1.84742 3.78746 0
M  V30 465 H 42.5879 0.766241 3.17484 0
M  V30 466 H 41.2469 2.75859 2.41448 0
M  V30 467 H 40.8949 1.7993 4.69717 0
M  V30 468 H 40.5949 3.55523 4.67843 0
M  V30 469 H 42.1189 2.92104 5.36197 0
M  V30 470 H 43.5329 4.41798 3.65359 0
M  V30 471 H 41.9299 5.07166 3.20785 0
M  V30 472 H 42.9999 4.44329 1.94165 0
M  V30 473 N 44.343 -0.763751 1.37857 0
M  V30 474 C 45.273 -1.89103 1.36975 0
M  V30 475 C 46.254 -1.68439 0.237152 0
M  V30 476 O 47.439 -1.8918 0.438713 0
M  V30 477 C 44.569 -3.26496 1.18395 0
M  V30 478 C 43.523 -3.61741 2.28751 0
M  V30 479 C 42.849 -4.97762 1.95286 0
M  V30 480 C 44.149 -3.67665 3.70972 0
M  V30 481 H 45.843 -1.90099 2.31307 0
M  V30 482 H 43.389 -0.91319 1.11341 0
M  V30 483 H 45.342 -4.05003 1.16406 0
M  V30 484 H 44.066 -3.25955 0.205215 0
M  V30 485 H 42.725 -2.85547 2.29909 0
M  V30 486 H 42.373 -4.93769 0.959221 0
M  V30 487 H 42.073 -5.22313 2.69189 0
M  V30 488 H 43.597 -5.7866 1.94898 0
M  V30 489 H 45.011 -4.36307 3.719 0
M  V30 490 H 43.408 -4.03718 4.43995 0
M  V30 491 H 44.478 -2.68134 4.0402 0
M  V30 492 N 45.8211 -1.22559 -0.990812 0
M  V30 493 C 47.0691 -1.04933 -1.72724 0
M  V30 494 C 47.3901 0.416158 -1.90508 0
M  V30 495 O 46.6601 1.29918 -1.46622 0
M  V30 496 H 45.2401 -0.385296 -0.639965 0
M  V30 497 H 47.9021 -1.54105 -1.19322 0
M  V30 498 H 46.9981 -1.52886 -2.72089 0
M  V30 499 N 47.2992 1.18797 -1.03562 0
M  V30 500 C 48.2622 2.20464 -0.626769 0
M  V30 501 C 49.2622 1.57721 0.313173 0
M  V30 502 O 50.4522 1.73917 0.0992615 0
M  V30 503 C 47.5842 3.40802 0.0818498 0
M  V30 504 H 48.7772 2.58149 -1.5264 0
M  V30 505 H 46.3302 1.32593 -0.827578 0
M  V30 506 H 47.0652 3.08642 0.995518 0
M  V30 507 H 46.8502 3.8758 -0.593652 0
M  V30 508 H 48.3402 4.16092 0.354584 0
M  V30 509 N 48.7773 0.814389 1.34928 0
M  V30 510 C 50.0053 0.411136 2.02774 0
M  V30 511 C 50.4203 -0.980316 1.61354 0
M  V30 512 O 49.7773 -1.63299 0.814847 0
M  V30 513 C 49.8283 0.493865 3.58111 0
M  V30 514 O 49.5493 1.83047 3.98027 0
M  V30 515 C 51.0503 0.0844174 4.4322 0
M  V30 516 H 48.2703 0.166037 0.650133 0
M  V30 517 H 50.8143 1.10018 1.72384 0
M  V30 518 H 48.9693 -0.147006 3.87121 0
M  V30 519 H 49.3833 1.79872 4.92693 0
M  V30 520 H 50.8573 0.193404 5.51661 0
M  V30 521 H 51.3343 -0.97113 4.28329 0
M  V30 522 H 51.9403 0.69875 4.19521 0
M  V30 523 N 50.2554 -1.46986 0.568584 0
M  V30 524 C 51.5034 -2.02041 0.0487022 0
M  V30 525 C 51.8244 -1.44408 -1.31039 0
M  V30 526 O 51.0944 -0.623477 -1.85714 0
M  V30 527 H 49.6744 -0.746849 0.015014 0
M  V30 528 H 52.3364 -1.80257 0.741168 0
M  V30 529 H 51.4324 -3.12085 -0.0308961 0
M  V30 530 N 51.7335 -0.305618 -1.54608 0
M  V30 531 C 53.0105 0.355652 -1.92339 0
M  V30 532 C 53.3905 1.71324 -1.23335 0
M  V30 533 O 52.7385 2.25473 -0.370702 0
M  V30 534 C 52.9485 0.46572 -3.45879 0
M  V30 535 C 54.2965 0.734426 -4.182 0
M  V30 536 O 55.3205 0.54935 -3.51938 0
M  V30 537 O 54.1795 1.09024 -5.35515 0
M  V30 538 H 51.2735 0.199666 -0.802535 0
M  V30 539 H 53.8195 -0.354017 -1.65966 0
M  V30 540 H 52.5915 -0.488461 -3.88239 0
M  V30 541 H 52.2145 1.22367 -3.78301 0
M  V30 542 N 53.2116 1.57565 -0.0334293 0
M  V30 543 C 54.1416 2.13511 0.945265 0
M  V30 544 C 55.1226 1.05231 1.33643 0
M  V30 545 O 56.3076 1.33084 1.41429 0
M  V30 546 C 53.4376 2.6657 2.22616 0
M  V30 547 C 52.3916 3.79676 1.97561 0
M  V30 548 C 51.7176 4.1918 3.31952 0
M  V30 549 C 53.0176 5.0557 1.31135 0
M  V30 550 H 54.7116 2.95538 0.479325 0
M  V30 551 H 52.2576 1.42166 0.229115 0
M  V30 552 H 54.2106 3.04344 2.91466 0
M  V30 553 H 52.9346 1.8171 2.71384 0
M  V30 554 H 51.5936 3.42347 1.31127 0
M  V30 555 H 51.2416 3.31296 3.78487 0
M  V30 556 H 50.9416 4.95402 3.15992 0
M  V30 557 H 52.4656 4.59541 4.02063 0
M  V30 558 H 53.8796 5.40903 1.89992 0
M  V30 559 H 52.2766 5.86818 1.25559 0
M  V30 560 H 53.3466 4.84062 0.284894 0
M  V30 561 N 54.6897 -0.239769 1.55765 0
M  V30 562 C 55.6527 -1.28038 1.90103 0
M  V30 563 C 56.6527 -1.40723 0.778055 0
M  V30 564 O 57.8427 -1.39301 1.04599 0
M  V30 565 C 54.9747 -2.65702 2.13577 0
M  V30 566 H 56.1677 -0.988048 2.83157 0
M  V30 567 H 53.7207 -0.479382 1.48767 0
M  V30 568 H 54.4557 -3.00063 1.23015 0
M  V30 569 H 54.2407 -2.57875 2.95369 0
M  V30 570 H 55.7307 -3.40828 2.41301 0
M  V30 571 N 56.1678 -1.49265 -0.50573 0
M  V30 572 C 57.1148 -1.65585 -1.6078 0
M  V30 573 C 58.0848 -0.497396 -1.58478 0
M  V30 574 O 59.2698 -0.72385 -1.76536 0
M  V30 575 C 56.4098 -1.72408 -2.98948 0
M  V30 576 C 55.5228 -2.99525 -3.11301 0
M  V30 577 C 54.6578 -2.97356 -4.40174 0
M  V30 578 C 53.6968 -4.19074 -4.46143 0
M  V30 579 N 52.8338 -4.14841 -5.66437 0
M  V30 580 H 57.6738 -2.59688 -1.46172 0
M  V30 581 H 55.2108 -1.28761 -0.711261 0
M  V30 582 H 57.1688 -1.74344 -3.79025 0
M  V30 583 H 55.7988 -0.817753 -3.1227 0
M  V30 584 H 54.8508 -3.07222 -2.24318 0
M  V30 585 H 56.1628 -3.89518 -3.11572 0
M  V30 586 H 55.3168 -2.97829 -5.28567 0
M  V30 587 H 54.0558 -2.05133 -4.42461 0
M  V30 588 H 53.0608 -4.1885 -3.56153 0
M  V30 589 H 54.2858 -5.12483 -4.45575 0
M  V30 590 H 52.2318 -3.25453 -5.69575 0
M  V30 591 H 52.1488 -4.98564 -5.68304 0
M  V30 592 H 53.4168 -4.1941 -6.57051 0
M  V30 593 N 57.6459 0.756429 -1.3826 0
M  V30 594 C 58.5929 1.87011 -1.35261 0
M  V30 595 C 59.5629 1.64695 -0.215616 0
M  V30 596 O 60.7479 1.864 -0.407399 0
M  V30 597 C 57.8879 3.24275 -1.18068 0
M  V30 598 C 57.0009 3.58442 -2.41129 0
M  V30 599 C 56.1359 4.84994 -2.16689 0
M  V30 600 C 55.1749 5.11939 -3.35537 0
M  V30 601 N 54.3119 6.29685 -3.10549 0
M  V30 602 H 59.1519 1.8891 -2.30472 0
M  V30 603 H 56.6889 0.923373 -1.14509 0
M  V30 604 H 58.6469 4.03479 -1.06116 0
M  V30 605 H 57.2769 3.21711 -0.264973 0
M  V30 606 H 56.3289 2.74103 -2.63764 0
M  V30 607 H 57.6409 3.74283 -3.29717 0
M  V30 608 H 56.7949 5.72135 -2.01857 0
M  V30 609 H 55.5339 4.71286 -1.25462 0
M  V30 610 H 54.5389 4.23268 -3.50891 0
M  V30 611 H 55.7639 5.27546 -4.27635 0
M  V30 612 H 53.7099 6.17306 -2.21967 0
M  V30 613 H 53.6269 6.46014 -3.92686 0
M  V30 614 H 54.8949 7.19722 -2.99367 0
M  V30 615 N 59.124 1.23083 0.984299 0
M  V30 616 C 60.354 1.08556 1.75781 0
M  V30 617 C 60.762 -0.366171 1.85623 0
M  V30 618 O 60.105 -1.26524 1.33182 0
M  V30 619 C 60.167 1.63208 3.20318 0
M  V30 620 C 59.831 3.11922 3.33997 0
M  V30 621 C 60.828 4.09259 3.2063 0
M  V30 622 C 58.513 3.51552 3.58771 0
M  V30 623 C 60.507 5.4421 3.31835 0
M  V30 624 C 58.194 4.86649 3.69616 0
M  V30 625 C 59.192 5.82787 3.56157 0
M  V30 626 O 58.88 7.15431 3.66626 0
M  V30 627 H 58.612 0.380713 0.5586 0
M  V30 628 H 61.166 1.63321 1.2456 0
M  V30 629 H 59.396 1.0286 3.72769 0
M  V30 630 H 61.085 1.44216 3.79416 0
M  V30 631 H 61.851 3.79984 3.01392 0
M  V30 632 H 57.73 2.77239 3.6832 0
M  V30 633 H 61.274 6.1923 3.21247 0
M  V30 634 H 57.171 5.15601 3.88363 0
M  V30 635 H 57.939 7.23127 3.83445 0
M  V30 636 N 60.6021 -1.18246 1.0419 0
M  V30 637 C 61.5321 -2.24127 0.654914 0
M  V30 638 C 62.5131 -1.66617 -0.342451 0
M  V30 639 O 63.6981 -1.92924 -0.222277 0
M  V30 640 C 60.8281 -3.47295 0.0183757 0
M  V30 641 C 59.7821 -4.17563 0.939414 0
M  V30 642 C 59.1081 -5.34438 0.167286 0
M  V30 643 C 60.4081 -4.70917 2.25908 0
M  V30 644 H 62.1021 -2.56753 1.54007 0
M  V30 645 H 59.6481 -1.23414 0.74195 0
M  V30 646 H 61.6011 -4.20572 -0.264082 0
M  V30 647 H 60.3251 -3.13907 -0.901664 0
M  V30 648 H 58.9841 -3.46186 1.20628 0
M  V30 649 H 58.6321 -4.97298 -0.7552 0
M  V30 650 H 58.3321 -5.82388 0.780901 0
M  V30 651 H 59.8561 -6.10504 -0.108125 0
M  V30 652 H 61.2701 -5.35882 2.03724 0
M  V30 653 H 59.6671 -5.29406 2.82577 0
M  V30 654 H 60.7371 -3.88272 2.9047 0
M  V30 655 N 62.0802 -0.821533 -1.34494 0
M  V30 656 C 63.3262 -0.418729 -1.99043 0
M  V30 657 C 63.6812 1.00672 -1.6396 0
M  V30 658 O 62.9742 1.69132 -0.900271 0
M  V30 659 C 63.1682 -0.556512 -3.53041 0
M  V30 660 C 62.9972 -1.9938 -4.03085 0
M  V30 661 C 61.7672 -2.62539 -4.31742 0
M  V30 662 C 63.9652 -2.96035 -4.20556 0
M  V30 663 N 61.9472 -3.97523 -4.67813 0
M  V30 664 C 63.3182 -4.15924 -4.59791 0
M  V30 665 C 65.3732 -2.9267 -4.02801 0
M  V30 666 C 64.0762 -5.32899 -4.83126 0
M  V30 667 C 66.1022 -4.08861 -4.27302 0
M  V30 668 C 65.4642 -5.275 -4.66822 0
M  V30 669 H 61.5632 -0.201299 -0.755647 0
M  V30 670 H 64.1472 -1.06594 -1.62929 0
M  V30 671 H 62.3182 0.0607924 -3.88352 0
M  V30 672 H 64.0502 -0.126842 -4.04501 0
M  V30 673 H 60.8052 -2.13789 -4.22601 0
M  V30 674 H 61.2292 -4.67061 -4.90085 0
M  V30 675 H 65.8712 -2.02088 -3.71376 0
M  V30 676 H 63.5892 -6.24041 -5.13418 0
M  V30 677 H 67.1752 -4.07654 -4.15101 0
M  V30 678 H 66.0552 -6.15913 -4.85408 0
M  V30 679 N 63.5583 1.46682 -0.576371 0
M  V30 680 C 64.4903 2.28341 0.198231 0
M  V30 681 C 65.5033 1.38141 0.861453 0
M  V30 682 O 66.6923 1.62797 0.732082 0
M  V30 683 C 63.7923 3.12986 1.29972 0
M  V30 684 C 62.9653 4.31271 0.729639 0
M  V30 685 C 62.0243 4.97363 1.71803 0
M  V30 686 O 61.0503 5.55156 1.25658 0
M  V30 687 N 62.2523 4.93796 3.05198 0
M  V30 688 H 65.0173 2.9546 -0.502324 0
M  V30 689 H 62.5783 1.56525 -0.413715 0
M  V30 690 H 64.5703 3.54066 1.96008 0
M  V30 691 H 63.1403 2.47984 1.90323 0
M  V30 692 H 62.3603 3.94052 -0.108012 0
M  V30 693 H 63.6483 5.07739 0.328438 0
M  V30 694 H 63.0463 4.48077 3.45317 0
M  V30 695 H 61.6033 5.38837 3.6674 0
M  V30 696 N 65.0364 0.313813 1.54444 0
M  V30 697 C 66.2844 -0.291099 1.99993 0
M  V30 698 C 66.6054 -1.53418 1.20366 0
M  V30 699 O 65.8754 -1.93544 0.302927 0
M  V30 700 H 64.4554 -0.110552 0.738774 0
M  V30 701 H 67.1174 0.428106 1.9014 0
M  V30 702 H 66.2134 -0.554268 3.07139 0
M  V30 703 N 66.5145 -1.57545 0.0417849 0
M  V30 704 C 67.4445 -2.14009 -0.933929 0
M  V30 705 C 68.4255 -1.05938 -1.33083 0
M  V30 706 O 69.6105 -1.33833 -1.40721 0
M  V30 707 C 66.7405 -2.67747 -2.21199 0
M  V30 708 C 65.6945 -3.80718 -1.95544 0
M  V30 709 C 65.0205 -4.20935 -3.29724 0
M  V30 710 C 66.3205 -5.06258 -1.28452 0
M  V30 711 H 68.0145 -2.95788 -0.463645 0
M  V30 712 H 65.5605 -1.42285 -0.221573 0
M  V30 713 H 67.5135 -3.05886 -2.89848 0
M  V30 714 H 66.2375 -1.83147 -2.70416 0
M  V30 715 H 64.8965 -3.43037 -1.2931 0
M  V30 716 H 64.5445 -3.33298 -3.76724 0
M  V30 717 H 64.2445 -4.9707 -3.13361 0
M  V30 718 H 65.7685 -4.61666 -3.9962 0
M  V30 719 H 67.1825 -5.41903 -1.8712 0
M  V30 720 H 65.5795 -5.87475 -1.22445 0
M  V30 721 H 66.6495 -4.84207 -0.259219 0
M  V30 722 N 67.9926 0.231505 -1.5589 0
M  V30 723 C 69.2396 0.957352 -1.78441 0
M  V30 724 C 69.5676 1.84726 -0.60882 0
M  V30 725 O 68.8226 1.91416 0.40725 0
M  V30 726 C 69.1216 1.83577 -3.0665 0
M  V30 727 C 68.7876 1.09993 -4.37278 0
M  V30 728 C 67.4496 0.896629 -4.72773 0
M  V30 729 C 69.8016 0.579558 -5.17968 0
M  V30 730 C 67.1296 0.160896 -5.86479 0
M  V30 731 C 69.4816 -0.142783 -6.32439 0
M  V30 732 C 68.1456 -0.357427 -6.66542 0
M  V30 733 H 67.4156 0.35032 -0.65296 0
M  V30 734 H 70.0626 0.226259 -1.90159 0
M  V30 735 H 68.3676 2.63441 -2.90011 0
M  V30 736 H 70.0646 2.39934 -3.21298 0
M  V30 737 H 66.6546 1.26835 -4.09403 0
M  V30 738 H 70.8386 0.724125 -4.90989 0
M  V30 739 H 66.0946 -0.0157293 -6.11398 0
M  V30 740 H 70.2686 -0.553559 -6.94196 0
M  V30 741 H 67.8956 -0.929466 -7.54497 0
M  V30 742 N 69.4707 1.49531 0.497807 0
M  V30 743 C 70.4027 1.62559 1.61578 0
M  V30 744 C 71.4157 0.508134 1.54667 0
M  V30 745 O 72.6047 0.780309 1.60541 0
M  V30 746 C 69.7047 1.56925 3.00379 0
M  V30 747 C 68.8777 2.84257 3.3244 0
M  V30 748 C 67.9367 2.71632 4.50669 0
M  V30 749 O 66.9627 3.4557 4.52294 0
M  V30 750 N 68.1647 1.83391 5.5077 0
M  V30 751 H 70.9297 2.58981 1.50828 0
M  V30 752 H 68.4907 1.4666 0.685743 0
M  V30 753 H 70.4827 1.46129 3.77397 0
M  V30 754 H 69.0527 0.683483 3.05037 0
M  V30 755 H 68.2727 3.09381 2.44289 0
M  V30 756 H 69.5607 3.68666 3.5066 0
M  V30 757 H 68.9587 1.22583 5.52259 0
M  V30 758 H 67.5157 1.78515 6.26878 0
M  V30 759 N 70.9488 -0.749086 1.3866 0
M  V30 760 C 71.8788 -1.8764 1.38973 0
M  V30 761 C 72.8598 -1.68178 0.255004 0
M  V30 762 O 74.0448 -1.88704 0.458754 0
M  V30 763 C 71.1748 -3.25222 1.21851 0
M  V30 764 C 70.1288 -3.59295 2.32575 0
M  V30 765 C 69.4548 -4.95663 2.00555 0
M  V30 766 C 70.7548 -3.63709 3.7485 0
M  V30 767 H 72.4488 -1.87635 2.3331 0
M  V30 768 H 69.9948 -0.901329 1.12303 0
M  V30 769 H 71.9478 -4.03746 1.20695 0
M  V30 770 H 70.6718 -3.25719 0.239775 0
M  V30 771 H 69.3308 -2.83093 2.32925 0
M  V30 772 H 68.9788 -4.92724 1.01154 0
M  V30 773 H 68.6788 -5.19429 2.74714 0
M  V30 774 H 70.2028 -5.7656 2.01024 0
M  V30 775 H 71.6168 -4.32338 3.76506 0
M  V30 776 H 70.0138 -3.98986 4.48252 0
M  V30 777 H 71.0838 -2.63834 4.06841 0
M  V30 778 N 72.4269 -1.23603 -0.977757 0
M  V30 779 C 73.6569 -1.09487 -1.75203 0
M  V30 780 C 74.0649 0.356321 -1.85814 0
M  V30 781 O 73.4079 1.25816 -1.33851 0
M  V30 782 C 73.4699 -1.64905 -3.19447 0
M  V30 783 C 73.1339 -3.13688 -3.32338 0
M  V30 784 C 74.1309 -4.10953 -3.18455 0
M  V30 785 C 71.8159 -3.53449 -3.56902 0
M  V30 786 C 73.8099 -5.45962 -3.28944 0
M  V30 787 C 71.4969 -4.88602 -3.6703 0
M  V30 788 C 72.4949 -5.84668 -3.53062 0
M  V30 789 O 72.1829 -7.17365 -3.62826 0
M  V30 790 H 71.9149 -0.38367 -0.556573 0
M  V30 791 H 74.4689 -1.6398 -1.23693 0
M  V30 792 H 72.6989 -1.04835 -3.72218 0
M  V30 793 H 74.3879 -1.46226 -3.78646 0
M  V30 794 H 75.1539 -3.81577 -2.99372 0
M  V30 795 H 71.0329 -2.79188 -3.66844 0
M  V30 796 H 74.5769 -6.20925 -3.17958 0
M  V30 797 H 70.4739 -5.17653 -3.85623 0
M  V30 798 H 71.2419 -7.2515 -3.79605 0
M  V30 799 N 73.905 1.17692 -1.04816 0
M  V30 800 C 74.835 2.23777 -0.666791 0
M  V30 801 C 75.816 1.66796 0.33361 0
M  V30 802 O 77.001 1.93039 0.212042 0
M  V30 803 C 74.131 3.47281 -0.0367933 0
M  V30 804 C 73.085 4.17059 -0.961546 0
M  V30 805 C 72.411 5.34342 -0.195626 0
M  V30 806 C 73.711 4.69713 -2.28402 0
M  V30 807 H 75.405 2.55933 -1.55367 0
M  V30 808 H 72.951 1.23019 -0.748484 0
M  V30 809 H 74.904 4.20706 0.241775 0
M  V30 810 H 73.628 3.14381 0.885004 0
M  V30 811 H 72.287 3.45541 -1.22462 0
M  V30 812 H 71.935 4.97692 0.728816 0
M  V30 813 H 71.635 5.81966 -0.811775 0
M  V30 814 H 73.159 6.10553 0.0757473 0
M  V30 815 H 74.573 5.34794 -2.06563 0
M  V30 816 H 72.97 5.279 -2.8538 0
M  V30 817 H 74.04 3.86726 -2.92525 0
M  V30 818 N 75.3831 0.828654 1.34056 0
M  V30 819 C 76.6601 0.341809 1.9259 0
M  V30 820 C 77.0401 -1.17158 1.75605 0
M  V30 821 O 76.3881 -1.98132 1.13824 0
M  V30 822 C 76.5981 0.777453 3.4023 0
M  V30 823 C 77.9461 0.779579 4.17382 0
M  V30 824 O 78.9701 0.7204 3.48839 0
M  V30 825 O 77.8291 0.857996 5.39723 0
M  V30 826 H 74.9231 0.0946085 0.821571 0
M  V30 827 H 77.4691 0.913827 1.42994 0
M  V30 828 H 76.2411 1.8196 3.46419 0
M  V30 829 H 75.8641 0.181444 3.97186 0
M  V30 830 N 76.8612 -1.46375 0.584142 0
M  V30 831 C 77.7712 -2.34115 -0.150728 0
M  V30 832 C 78.7872 -1.49838 -0.884567 0
M  V30 833 O 79.9632 -1.82704 -0.847429 0
M  V30 834 C 77.0282 -3.2705 -1.15062 0
M  V30 835 C 76.0892 -4.27228 -0.421293 0
M  V30 836 C 75.3222 -5.15722 -1.37355 0
M  V30 837 O 75.5452 -5.07176 -2.61014 0
M  V30 838 O 74.4792 -5.95383 -0.883355 0
M  V30 839 H 78.3052 -2.98309 0.569708 0
M  V30 840 H 75.8902 -1.45373 0.344535 0
M  V30 841 H 77.7722 -3.84381 -1.72712 0
M  V30 842 H 76.4472 -2.65451 -1.8525 0
M  V30 843 H 75.3542 -3.7358 0.197085 0
M  V30 844 H 76.6872 -4.91616 0.239641 0
M  V30 845 N 78.3393 -0.321999 -1.54275 0
M  V30 846 C 79.3023 0.531975 -2.22941 0
M  V30 847 C 80.3023 1.04478 -1.22234 0
M  V30 848 O 81.4923 0.937452 -1.46825 0
M  V30 849 C 78.6243 1.73874 -2.93224 0
M  V30 850 H 79.8173 -0.0682612 -2.99822 0
M  V30 851 H 77.3703 -0.0730644 -1.56129 0
M  V30 852 H 78.1053 2.37825 -2.20476 0
M  V30 853 H 77.8903 1.37847 -3.6707 0
M  V30 854 H 79.3803 2.34496 -3.45545 0
M  V30 855 N 79.8174 1.5752 -0.0501392 0
M  V30 856 C 81.0654 1.9227 0.622642 0
M  V30 857 C 81.3864 0.929083 1.71444 0
M  V30 858 O 80.6564 -0.0262186 1.95882 0
M  V30 859 H 79.2364 0.709739 0.232981 0
M  V30 860 H 81.8984 1.94628 -0.102898 0
M  V30 861 H 80.9944 2.93479 1.06191 0
M  V30 862 N 81.2955 -0.223234 1.56011 0
M  V30 863 C 82.7115 -0.572856 1.48965 0
M  V30 864 C 82.9115 -1.87225 0.74492 0
M  V30 865 O 81.9675 -2.50899 0.283896 0
M  V30 866 C 83.2805 -0.653646 2.9351 0
M  V30 867 C 84.8285 -0.744386 3.0402 0
M  V30 868 C 85.3035 -0.856535 4.49919 0
M  V30 869 N 86.7945 -0.9208 4.53955 0
M  V30 870 C 87.5295 -1.02726 5.64123 0
M  V30 871 N 87.0255 -1.09777 6.84047 0
M  V30 872 N 88.8185 -1.06226 5.51971 0
M  V30 873 H 80.9695 0.629462 2.02858 0
M  V30 874 H 83.2325 0.220621 0.921971 0
M  V30 875 H 82.9385 0.231518 3.50937 0
M  V30 876 H 82.8125 -1.51781 3.45315 0
M  V30 877 H 85.1995 -1.61999 2.46658 0
M  V30 878 H 85.2805 0.14541 2.55386 0
M  V30 879 H 84.9245 0.0146069 5.07898 0
M  V30 880 H 84.8545 -1.76172 4.96257 0
M  V30 881 H 87.3455 -0.876694 3.6759 0
M  V30 882 H 87.6585 -1.17872 7.63758 0
M  V30 883 H 86.0035 -1.06693 6.86762 0
M  V30 884 H 89.1945 -1.00382 4.5721 0
M  V30 885 H 89.3675 -1.14177 6.37862 0
M  V30 886 N 82.7736 -1.49793 -0.48987 0
M  V30 887 C 84.0216 -1.59525 -1.24081 0
M  V30 888 C 84.3426 -0.288953 -1.92847 0
M  V30 889 O 83.6126 0.692436 -1.83254 0
M  V30 890 H 82.1926 -0.587796 -0.460983 0
M  V30 891 H 84.8546 -1.86477 -0.566778 0
M  V30 892 H 83.9506 -2.39696 -1.99881 0
M  V30 893 N 84.2517 0.741722 -1.39055 0
M  V30 894 C 85.2017 1.84661 -1.33732 0
M  V30 895 C 86.1857 1.59397 -0.219401 0
M  V30 896 O 87.3777 1.71015 -0.456375 0
M  V30 897 C 84.5067 3.22512 -1.17647 0
M  V30 898 C 83.5927 3.53628 -2.34112 0
M  V30 899 N 83.9837 3.55723 -3.59576 0
M  V30 900 C 82.2817 3.83956 -2.26923 0
M  V30 901 C 82.9827 3.84443 -4.36553 0
M  V30 902 N 81.9587 4.01877 -3.66055 0
M  V30 903 H 85.7607 1.84576 -2.28711 0
M  V30 904 H 83.2747 0.939647 -1.32455 0
M  V30 905 H 85.2717 4.01597 -1.11917 0
M  V30 906 H 83.9317 3.2384 -0.236124 0
M  V30 907 H 84.9427 3.37196 -3.93089 0
M  V30 908 H 81.6197 3.92929 -1.41113 0
M  V30 909 H 83.0097 3.92588 -5.45274 0
M  V30 910 N 85.7298 1.2412 0.971189 0
M  V30 911 C 86.9548 1.10667 1.75407 0
M  V30 912 C 87.3798 -0.337048 1.85056 0
M  V30 913 O 86.7378 -1.24396 1.31892 0
M  V30 914 C 86.7858 1.74726 3.15441 0
M  V30 915 O 85.8898 1.01566 3.99697 0
M  V30 916 H 85.2308 0.387341 0.539317 0
M  V30 917 H 87.7608 1.64358 1.2185 0
M  V30 918 H 87.7708 1.80341 3.6598 0
M  V30 919 H 86.4458 2.79773 3.07734 0
M  V30 920 H 85.0228 1.03713 3.58187 0
M  V30 921 N 87.2079 -1.17134 1.05439 0
M  V30 922 C 88.4549 -1.87456 0.765942 0
M  V30 923 C 88.7829 -1.81189 -0.707153 0
M  V30 924 O 88.0379 -1.21633 -1.5331 0
M  V30 925 C 88.3369 -3.36833 1.19491 0
M  V30 926 C 88.0029 -3.63301 2.67063 0
M  V30 927 C 86.6649 -3.70234 3.07376 0
M  V30 928 C 89.0169 -3.74575 3.62413 0
M  V30 929 C 86.3449 -3.85933 4.41896 0
M  V30 930 C 88.6969 -3.91793 4.9667 0
M  V30 931 C 87.3609 -3.96966 5.36633 0
M  V30 932 H 86.6309 -0.685948 0.280278 0
M  V30 933 H 89.2779 -1.38556 1.32192 0
M  V30 934 H 87.5829 -3.87807 0.557969 0
M  V30 935 H 89.2799 -3.89611 0.948893 0
M  V30 936 H 85.8699 -3.58532 2.34846 0
M  V30 937 H 90.0539 -3.68537 3.32406 0
M  V30 938 H 85.3099 -3.88187 4.72357 0
M  V30 939 H 89.4839 -3.99458 5.70444 0
M  V30 940 H 87.1109 -4.08883 6.40874 0
M  V30 941 N 88.686 -0.835752 -1.33615 0
M  V30 942 C 89.911 -0.442389 -2.02627 0
M  V30 943 C 90.336 0.947735 -1.62479 0
M  V30 944 O 89.694 1.61907 -0.815826 0
M  V30 945 C 89.742 -0.567216 -3.56111 0
M  V30 946 O 88.846 0.407799 -4.10379 0
M  V30 947 H 88.187 -0.180278 -0.639059 0
M  V30 948 H 90.717 -1.12972 -1.70583 0
M  V30 949 H 90.727 -0.447708 -4.05536 0
M  V30 950 H 89.402 -1.58103 -3.84677 0
M  V30 951 H 87.979 0.246107 -3.72087 0
M  V30 952 N 90.1641 1.46063 -0.591896 0
M  V30 953 C 91.4111 2.02338 -0.0809991 0
M  V30 954 C 91.7391 1.46228 1.28249 0
M  V30 955 O 90.9941 0.620818 1.85592 0
M  V30 956 C 91.2931 3.57391 0.0249813 0
M  V30 957 C 90.9591 4.32583 -1.27211 0
M  V30 958 C 89.6211 4.52844 -1.62745 0
M  V30 959 C 91.9731 4.75687 -2.13005 0
M  V30 960 C 89.3011 5.13462 -2.83855 0
M  V30 961 C 91.6531 5.37644 -3.3335 0
M  V30 962 C 90.3171 5.5613 -3.69155 0
M  V30 963 H 89.5871 0.740407 -0.0296397 0
M  V30 964 H 92.2341 1.75321 -0.770374 0
M  V30 965 H 90.5391 3.83597 0.797537 0
M  V30 966 H 92.2361 3.98621 0.436184 0
M  V30 967 H 88.8261 4.17116 -0.985499 0
M  V30 968 H 93.0101 4.59782 -1.86855 0
M  V30 969 H 88.2661 5.25965 -3.11722 0
M  V30 970 H 92.4401 5.7 -4.00092 0
M  V30 971 H 90.0671 6.0287 -4.63089 0
M  V30 972 N 91.6422 0.330177 1.54103 0
M  V30 973 C 92.5922 -0.548456 2.21305 0
M  V30 974 C 93.5762 -1.07651 1.19583 0
M  V30 975 O 94.7682 -1.01243 1.45186 0
M  V30 976 C 91.8972 -1.70559 2.97934 0
M  V30 977 C 90.9832 -1.19212 4.07 0
M  V30 978 N 91.3742 -0.398831 5.04225 0
M  V30 979 C 89.6722 -1.47024 4.2107 0
M  V30 980 C 90.3732 -0.121761 5.81573 0
M  V30 981 N 89.3492 -0.709722 5.38947 0
M  V30 982 H 93.1512 0.0648483 2.93828 0
M  V30 983 H 90.6652 0.136363 1.61826 0
M  V30 984 H 92.6622 -2.34688 3.44568 0
M  V30 985 H 91.3222 -2.32231 2.26934 0
M  V30 986 H 92.3332 -0.0410869 5.17884 0
M  V30 987 H 89.0102 -2.09232 3.61287 0
M  V30 988 H 90.4002 0.517298 6.69906 0
M  V30 989 N 93.1203 -1.57491 0.0584922 0
M  V30 990 C 94.3683 -1.92597 -0.612436 0
M  V30 991 C 94.6893 -0.938162 -1.70949 0
M  V30 992 O 93.9593 0.0158301 -1.95894 0
M  V30 993 H 92.5393 -0.710964 -0.229214 0
M  V30 994 H 95.2013 -1.94571 0.113218 0
M  V30 995 H 94.2973 -2.94038 -1.04633 0
M  V30 996 N 94.5984 0.214957 -1.56127 0
M  V30 997 C 95.5614 1.24997 -1.92116 0
M  V30 998 C 96.5614 1.39467 -0.800344 0
M  V30 999 O 97.7514 1.37619 -1.06802 0
M  V30 1000 C 94.8834 2.62271 -2.17777 0
M  V30 1001 H 96.0764 0.942875 -2.84693 0
M  V30 1002 H 93.6294 0.455654 -1.49511 0
M  V30 1003 H 94.3644 2.98068 -1.27773 0
M  V30 1004 H 94.1494 2.53143 -2.99434 0
M  V30 1005 H 95.6394 3.36946 -2.46693 0
M  V30 1006 N 96.0765 1.50051 0.48192 0
M  V30 1007 C 97.0395 1.67584 1.5636 0
M  V30 1008 C 98.0395 0.546894 1.51214 0
M  V30 1009 O 99.2295 0.813725 1.54026 0
M  V30 1010 C 96.3615 1.691 2.96003 0
M  V30 1011 H 97.5545 2.64078 1.42136 0
M  V30 1012 H 95.1075 1.39369 0.707533 0
M  V30 1013 H 95.8425 0.742589 3.15684 0
M  V30 1014 H 95.6275 2.51105 3.01146 0
M  V30 1015 H 97.1175 1.84656 3.74556 0
M  V30 1016 N 97.5546 -0.734337 1.39446 0
M  V30 1017 C 98.4846 -1.86155 1.40955 0
M  V30 1018 C 99.4656 -1.67898 0.272827 0
M  V30 1019 O 100.651 -1.88207 0.478743 0
M  V30 1020 C 97.7806 -3.23912 1.25294 0
M  V30 1021 C 96.7346 -3.56808 2.36373 0
M  V30 1022 C 96.0606 -4.93508 2.058 0
M  V30 1023 C 97.3606 -3.59713 3.78687 0
M  V30 1024 H 99.0546 -1.8515 2.35287 0
M  V30 1025 H 96.6006 -0.889367 1.13253 0
M  V30 1026 H 98.5536 -4.02443 1.2497 0
M  V30 1027 H 97.2776 -3.25446 0.274308 0
M  V30 1028 H 95.9366 -2.80606 2.35914 0
M  V30 1029 H 95.5846 -4.91623 1.06374 0
M  V30 1030 H 95.2846 -5.16486 2.80208 0
M  V30 1031 H 96.8086 -5.74396 2.07128 0
M  V30 1032 H 98.2226 -4.2832 3.81071 0
M  V30 1033 H 96.6196 -3.94209 4.52459 0
M  V30 1034 H 97.6896 -2.59504 4.09617 0
M  V30 1035 N 99.0327 -1.24633 -0.964593 0
M  V30 1036 C 100.261 -1.11501 -1.74285 0
M  V30 1037 C 100.676 0.332165 -1.85855 0
M  V30 1038 O 100.033 1.22903 -1.34911 0
M  V30 1039 C 100.084 -1.75258 -3.16175 0
M  V30 1040 O 99.8047 -3.14318 -3.05182 0
M  V30 1041 C 101.306 -1.67776 -4.10324 0
M  V30 1042 H 98.5257 -0.389407 -0.546446 0
M  V30 1043 H 101.07 -1.64801 -1.21083 0
M  V30 1044 H 99.2247 -1.25954 -3.66353 0
M  V30 1045 H 99.6387 -3.4551 -3.94618 0
M  V30 1046 H 101.113 -2.17064 -5.0753 0
M  V30 1047 H 101.59 -0.639584 -4.34518 0
M  V30 1048 H 102.196 -2.16522 -3.66058 0
M  V30 1049 N 100.511 1.16574 -1.06058 0
M  V30 1050 C 101.474 2.19085 -0.673392 0
M  V30 1051 C 102.474 1.5835 0.279648 0
M  V30 1052 O 103.664 1.74088 0.0623488 0
M  V30 1053 C 100.796 3.40899 0.00954234 0
M  V30 1054 H 101.989 2.54853 -1.58081 0
M  V30 1055 H 99.5418 1.30808 -0.855516 0
M  V30 1056 H 100.277 3.10684 0.929826 0
M  V30 1057 H 100.062 3.86233 -0.67573 0
M  V30 1058 H 101.552 4.1675 0.266245 0
M  V30 1059 N 101.989 0.842826 1.3317 0
M  V30 1060 C 103.4 0.496651 1.79973 0
M  V30 1061 C 103.751 -0.984641 1.69703 0
M  V30 1062 O 102.876 -1.76743 1.24863 0
M  V30 1063 C 103.471 0.894727 3.26772 0
M  V30 1064 C 102.03 0.600629 3.71577 0
M  V30 1065 C 101.177 1.10091 2.5451 0
M  V30 1066 H 104.128 1.03116 1.20635 0
M  V30 1067 H 104.149 0.206347 3.7994 0
M  V30 1068 H 103.661 1.97287 3.34215 0
M  V30 1069 H 101.762 -0.467284 3.69658 0
M  V30 1070 H 101.875 1.15863 4.64879 0
M  V30 1071 H 100.239 0.52162 2.49301 0
M  V30 1072 H 101.022 2.18591 2.64713 0
M  V30 1073 N 103.467 -1.45747 0.599634 0
M  V30 1074 C 104.414 -2.30467 -0.123849 0
M  V30 1075 C 105.384 -1.41632 -0.86774 0
M  V30 1076 O 106.569 -1.70568 -0.855056 0
M  V30 1077 C 103.709 -3.26402 -1.12051 0
M  V30 1078 C 102.822 -4.3034 -0.37832 0
M  V30 1079 C 101.957 -5.13389 -1.364 0
M  V30 1080 C 100.996 -6.09061 -0.609171 0
M  V30 1081 N 100.133 -6.84918 -1.54374 0
M  V30 1082 H 104.973 -2.91802 0.604627 0
M  V30 1083 H 102.51 -1.43797 0.309972 0
M  V30 1084 H 104.468 -3.80482 -1.7114 0
M  V30 1085 H 103.098 -2.66839 -1.8165 0
M  V30 1086 H 102.15 -3.78984 0.327929 0
M  V30 1087 H 103.462 -4.98354 0.210997 0
M  V30 1088 H 102.616 -5.7183 -2.02719 0
M  V30 1089 H 101.355 -4.45376 -1.98725 0
M  V30 1090 H 100.36 -5.49758 0.0676979 0
M  V30 1091 H 101.585 -6.79099 0.00891991 0
M  V30 1092 H 99.531 -6.19601 -2.15478 0
M  V30 1093 H 99.448 -7.49254 -1.00766 0
M  V30 1094 H 100.716 -7.47906 -2.19676 0
M  V30 1095 N 104.945 -0.338344 -1.53925 0
M  V30 1096 C 105.877 0.555117 -2.22376 0
M  V30 1097 C 106.89 1.06812 -1.22862 0
M  V30 1098 O 108.079 0.979163 -1.49247 0
M  V30 1099 C 105.179 1.77609 -2.88631 0
M  V30 1100 C 104.352 1.39927 -4.14414 0
M  V30 1101 C 103.411 2.47936 -4.64127 0
M  V30 1102 O 102.437 2.11461 -5.28463 0
M  V30 1103 N 103.639 3.79107 -4.39612 0
M  V30 1104 H 106.404 -0.0310778 -2.99684 0
M  V30 1105 H 103.965 -0.162226 -1.61085 0
M  V30 1106 H 105.957 2.49287 -3.18807 0
M  V30 1107 H 104.527 2.26978 -2.14941 0
M  V30 1108 H 103.747 0.513481 -3.90841 0
M  V30 1109 H 105.035 1.12341 -4.96243 0
M  V30 1110 H 104.433 4.11531 -3.88148 0
M  V30 1111 H 102.99 4.4697 -4.74406 0
M  V30 1112 N 106.423 1.57458 -0.0668435 0
M  V30 1113 C 107.671 1.92919 0.602214 0
M  V30 1114 C 107.992 0.947215 1.70449 0
M  V30 1115 O 107.262 -0.00544117 1.95899 0
M  V30 1116 H 105.842 0.71217 0.22544 0
M  V30 1117 H 108.504 1.94508 -0.123535 0
M  V30 1118 H 107.6 2.94589 1.03073 0
M  V30 1119 N 107.901 -0.206675 1.56239 0
M  V30 1120 C 108.833 -1.27997 1.9013 0
M  V30 1121 C 109.846 -1.42299 0.790883 0
M  V30 1122 O 111.035 -1.42931 1.06925 0
M  V30 1123 C 108.135 -2.65368 2.10792 0
M  V30 1124 C 107.308 -2.72824 3.41886 0
M  V30 1125 C 106.367 -3.9131 3.51799 0
M  V30 1126 O 105.393 -3.78953 4.24716 0
M  V30 1127 N 106.595 -5.06265 2.84035 0
M  V30 1128 H 109.36 -0.992444 2.82791 0
M  V30 1129 H 106.921 -0.396652 1.56966 0
M  V30 1130 H 108.913 -3.43039 2.14724 0
M  V30 1131 H 107.483 -2.86657 1.24685 0
M  V30 1132 H 106.703 -1.81515 3.49923 0
M  V30 1133 H 107.991 -2.74786 4.28217 0
M  V30 1134 H 107.389 -5.19203 2.246 0
M  V30 1135 H 105.946 -5.81925 2.93609 0
M  V30 1136 N 109.379 -1.50304 -0.473955 0
M  V30 1137 C 110.289 -1.7174 -1.5982 0
M  V30 1138 C 111.305 -0.600457 -1.63311 0
M  V30 1139 O 112.481 -0.878441 -1.81233 0
M  V30 1140 C 109.546 -1.80427 -2.96052 0
M  V30 1141 C 108.607 -3.04148 -3.02972 0
M  V30 1142 C 107.84 -3.12411 -4.32706 0
M  V30 1143 O 108.063 -2.27542 -5.23049 0
M  V30 1144 O 106.997 -4.05113 -4.45159 0
M  V30 1145 H 110.823 -2.67035 -1.44657 0
M  V30 1146 H 108.408 -1.34366 -0.653148 0
M  V30 1147 H 110.29 -1.88338 -3.7697 0
M  V30 1148 H 108.965 -0.883156 -3.11419 0
M  V30 1149 H 107.872 -3.0174 -2.21142 0
M  V30 1150 H 109.205 -3.95829 -2.92541 0
M  V30 1151 N 110.857 0.726932 -1.39834 0
M  V30 1152 C 111.787 1.85405 -1.41941 0
M  V30 1153 C 112.768 1.67751 -0.281728 0
M  V30 1154 O 113.953 1.8795 -0.488717 0
M  V30 1155 C 111.083 3.23243 -1.2701 0
M  V30 1156 C 110.037 3.55549 -2.38262 0
M  V30 1157 C 109.363 4.9241 -2.08415 0
M  V30 1158 C 110.663 3.577 -3.80589 0
M  V30 1159 H 112.357 1.83899 -2.36266 0
M  V30 1160 H 109.903 0.883349 -1.13723 0
M  V30 1161 H 111.856 4.01775 -1.27103 0
M  V30 1162 H 110.58 3.25296 -0.291564 0
M  V30 1163 H 109.239 2.79351 -2.37399 0
M  V30 1164 H 108.887 4.91052 -1.0898 0
M  V30 1165 H 108.587 5.14992 -2.82943 0
M  V30 1166 H 110.111 5.73289 -2.10171 0
M  V30 1167 H 111.525 4.26293 -3.83337 0
M  V30 1168 H 109.922 3.91804 -4.54543 0
M  V30 1169 H 110.992 2.57328 -4.10987 0
M  V30 1170 N 112.336 1.25143 0.95797 0
M  V30 1171 C 113.269 0.995565 2.05338 0
M  V30 1172 C 114.247 -0.0740423 1.62431 0
M  V30 1173 O 115.431 0.0649212 1.88388 0
M  V30 1174 C 112.558 0.504298 3.34925 0
M  V30 1175 C 111.604 1.56393 3.96792 0
M  V30 1176 S 112.437 3.14815 4.33188 0
M  V30 1177 C 113.593 2.67415 5.65898 0
M  V30 1178 H 113.826 1.92309 2.26726 0
M  V30 1179 H 111.359 1.08635 1.09716 0
M  V30 1180 H 113.317 0.227497 4.09869 0
M  V30 1181 H 111.978 -0.402671 3.11508 0
M  V30 1182 H 111.171 1.17082 4.90212 0
M  V30 1183 H 110.773 1.79124 3.28315 0
M  V30 1184 H 113.065 2.10833 6.4386 0
M  V30 1185 H 114.008 3.59463 6.10076 0
M  V30 1186 H 114.416 2.07521 5.24972 0
M  V30 1187 N 113.814 -1.1601 1.06675 0
M  V30 1188 C 114.777 -2.18724 0.685001 0
M  V30 1189 C 115.777 -1.58496 -0.271246 0
M  V30 1190 O 116.967 -1.74119 -0.0531156 0
M  V30 1191 C 114.099 -3.40899 0.00853648 0
M  V30 1192 H 115.292 -2.54011 1.59431 0
M  V30 1193 H 112.845 -1.30352 0.862441 0
M  V30 1194 H 113.58 -3.11173 -0.913337 0
M  V30 1195 H 113.365 -3.8587 0.696204 0
M  V30 1196 H 114.855 -4.16886 -0.24414 0
M  V30 1197 N 115.292 -0.849877 -1.32721 0
M  V30 1198 C 116.239 -0.289033 -2.28983 0
M  V30 1199 C 117.209 0.601324 -1.54833 0
M  V30 1200 O 118.394 0.537253 -1.8308 0
M  V30 1201 C 115.534 0.520623 -3.4115 0
M  V30 1202 C 114.647 -0.394989 -4.3019 0
M  V30 1203 C 113.782 0.426834 -5.29482 0
M  V30 1204 C 112.821 -0.486476 -6.10164 0
M  V30 1205 N 111.958 0.297879 -7.01468 0
M  V30 1206 H 116.798 -1.11519 -2.76347 0
M  V30 1207 H 114.335 -0.56138 -1.35967 0
M  V30 1208 H 116.293 1.00563 -4.04899 0
M  V30 1209 H 114.923 1.31165 -2.9495 0
M  V30 1210 H 113.975 -0.99836 -3.67065 0
M  V30 1211 H 115.287 -1.09612 -4.86607 0
M  V30 1212 H 114.441 0.975205 -5.98811 0
M  V30 1213 H 113.18 1.16136 -4.73671 0
M  V30 1214 H 112.185 -1.04677 -5.39743 0
M  V30 1215 H 113.41 -1.21953 -6.6806 0
M  V30 1216 H 111.356 1.01558 -6.48091 0
M  V30 1217 H 111.273 -0.344318 -7.55216 0
M  V30 1218 H 112.541 0.828131 -7.75089 0
M  V30 1219 N 116.77 1.45427 -0.607355 0
M  V30 1220 C 117.733 2.28974 0.101693 0
M  V30 1221 C 118.733 1.39754 0.795329 0
M  V30 1222 O 119.923 1.61878 0.643527 0
M  V30 1223 C 117.055 3.20768 1.15414 0
M  V30 1224 H 118.248 2.93147 -0.632844 0
M  V30 1225 H 115.801 1.51945 -0.366391 0
M  V30 1226 H 116.536 2.61395 1.91945 0
M  V30 1227 H 116.321 3.86489 0.66098 0
M  V30 1228 H 117.811 3.83589 1.65073 0
M  V30 1229 N 118.248 0.346503 1.53744 0
M  V30 1230 C 119.178 -0.501193 2.28058 0
M  V30 1231 C 120.159 -1.10014 1.29734 0
M  V30 1232 O 121.344 -1.12097 1.58581 0
M  V30 1233 C 118.474 -1.65078 3.05559 0
M  V30 1234 C 117.428 -1.18003 4.11411 0
M  V30 1235 C 116.754 -2.41837 4.76884 0
M  V30 1236 C 118.054 -0.278394 5.21558 0
M  V30 1237 H 119.748 0.11875 2.99164 0
M  V30 1238 H 117.294 0.0585531 1.43881 0
M  V30 1239 H 119.247 -2.25028 3.56287 0
M  V30 1240 H 117.971 -2.29767 2.32109 0
M  V30 1241 H 116.63 -0.603331 3.61601 0
M  V30 1242 H 116.278 -3.0494 4.00026 0
M  V30 1243 H 115.978 -2.1102 5.48402 0
M  V30 1244 H 117.502 -3.02508 5.30397 0
M  V30 1245 H 118.916 -0.784823 5.67903 0
M  V30 1246 H 117.313 -0.0619707 6.00068 0
M  V30 1247 H 118.383 0.684677 4.80042 0
M  V30 1248 N 119.726 -1.57421 0.075193 0
M  V30 1249 C 120.636 -2.1642 -0.905511 0
M  V30 1250 C 121.652 -1.12828 -1.32461 0
M  V30 1251 O 122.828 -1.45109 -1.39661 0
M  V30 1252 C 119.893 -2.71693 -2.15369 0
M  V30 1253 C 118.954 -3.90171 -1.79068 0
M  V30 1254 C 118.187 -4.42798 -2.97936 0
M  V30 1255 O 118.41 -3.94416 -4.12058 0
M  V30 1256 O 117.344 -5.34085 -2.77555 0
M  V30 1257 H 121.17 -3.00588 -0.433626 0
M  V30 1258 H 118.755 -1.48664 -0.148067 0
M  V30 1259 H 120.637 -3.07104 -2.88557 0
M  V30 1260 H 119.312 -1.90582 -2.61649 0
M  V30 1261 H 118.219 -3.59606 -1.03122 0
M  V30 1262 H 119.552 -4.72584 -1.37569 0
M  V30 1263 N 121.204 0.198386 -1.56346 0
M  V30 1264 C 122.429 0.939682 -1.84891 0
M  V30 1265 C 122.854 1.76202 -0.658369 0
M  V30 1266 O 122.212 1.76993 0.392851 0
M  V30 1267 C 122.26 1.81428 -3.11635 0
M  V30 1268 O 121.364 2.91265 -2.91956 0
M  V30 1269 H 120.705 0.264807 -0.608912 0
M  V30 1270 H 123.235 0.204695 -2.03573 0
M  V30 1271 H 123.245 2.21958 -3.42343 0
M  V30 1272 H 121.92 1.21004 -3.97908 0
M  V30 1273 H 120.497 2.54514 -2.72538 0
M  V30 1274 N 122.682 1.50554 0.465978 0
M  V30 1275 C 123.612 1.72722 1.57128 0
M  V30 1276 C 124.593 0.576294 1.6004 0
M  V30 1277 O 125.778 0.81598 1.76225 0
M  V30 1278 C 122.908 1.82605 2.95419 0
M  V30 1279 C 121.862 2.97835 3.07373 0
M  V30 1280 C 121.188 2.92867 4.47363 0
M  V30 1281 C 122.488 4.38265 2.84114 0
M  V30 1282 H 124.182 2.65267 1.38829 0
M  V30 1283 H 121.728 1.2765 0.666441 0
M  V30 1284 H 123.681 1.96698 3.72677 0
M  V30 1285 H 122.405 0.866858 3.14886 0
M  V30 1286 H 121.064 2.83401 2.3255 0
M  V30 1287 H 120.712 1.94783 4.63755 0
M  V30 1288 H 120.412 3.70227 4.56296 0
M  V30 1289 H 121.936 3.09015 5.26633 0
M  V30 1290 H 123.35 4.53198 3.51118 0
M  V30 1291 H 121.747 5.17115 3.04487 0
M  V30 1292 H 122.817 4.50281 1.7993 0
M  V30 1293 N 124.16 -0.719506 1.40217 0
M  V30 1294 C 125.385 -1.51371 1.4178 0
M  V30 1295 C 125.81 -1.88091 0.0182355 0
M  V30 1296 O 125.168 -1.52997 -0.972707 0
M  V30 1297 C 125.216 -2.768 2.31115 0
M  V30 1298 O 124.32 -3.73349 1.7517 0
M  V30 1299 H 123.661 -0.456529 0.482159 0
M  V30 1300 H 126.191 -0.88644 1.844 0
M  V30 1301 H 126.201 -3.25371 2.46167 0
M  V30 1302 H 124.876 -2.49407 3.3282 0
M  V30 1303 H 123.453 -3.32179 1.69444 0
M  V30 1304 N 125.638 -1.25649 -0.95132 0
M  V30 1305 C 126.878 -1.11802 -1.71113 0
M  V30 1306 C 127.242 0.334758 -1.89059 0
M  V30 1307 O 128.443 0.595121 -2.62129 0
M  V30 1308 C 126.714 -1.85512 -3.05483 0
M  V30 1309 S 128.273 -1.87597 -3.96677 0
M  V30 1310 H 125.091 -0.399552 -0.588115 0
M  V30 1311 H 127.693 -1.59222 -1.1344 0
M  V30 1312 H 126.397 -2.90299 -2.90094 0
M  V30 1313 H 125.928 -1.38493 -3.68216 0
M  V30 1314 H 127.943 -0.955389 -4.86916 0
M  V30 1315 N 127.117 1.15442 -1.07289 0
M  V30 1316 C 128.528 1.67803 -0.818475 0
M  V30 1317 C 128.879 1.8489 0.656507 0
M  V30 1318 O 128.004 1.55176 1.50829 0
M  V30 1319 C 128.599 3.04805 -1.47917 0
M  V30 1320 C 127.158 3.54245 -1.27229 0
M  V30 1321 C 126.305 2.29986 -1.54925 0
M  V30 1322 H 129.256 0.996646 -1.23502 0
M  V30 1323 H 129.277 3.69702 -0.90005 0
M  V30 1324 H 128.789 2.92336 -2.55267 0
M  V30 1325 H 126.89 3.71956 -0.21899 0
M  V30 1326 H 127.003 4.35723 -1.99203 0
M  V30 1327 H 125.367 2.35496 -0.970242 0
M  V30 1328 H 126.15 2.20105 -2.63455 0
M  V30 1329 N 128.595 0.856903 1.32268 0
M  V30 1330 C 129.542 0.301172 2.28827 0
M  V30 1331 C 130.512 -0.593104 1.5515 0
M  V30 1332 O 131.697 -0.527537 1.83362 0
M  V30 1333 C 128.837 -0.502523 3.41422 0
M  V30 1334 C 127.95 0.417797 4.29975 0
M  V30 1335 C 127.085 -0.398749 5.29701 0
M  V30 1336 C 126.124 0.518827 6.09897 0
M  V30 1337 N 125.261 -0.260674 7.01616 0
M  V30 1338 H 130.101 1.12983 2.75751 0
M  V30 1339 H 127.638 0.568582 1.35667 0
M  V30 1340 H 129.596 -0.984141 4.05426 0
M  V30 1341 H 128.226 -1.29599 2.95642 0
M  V30 1342 H 127.278 1.01781 3.66531 0
M  V30 1343 H 128.59 1.12191 4.86019 0
M  V30 1344 H 127.744 -0.943435 5.9932 0
M  V30 1345 H 126.483 -1.13622 4.7428 0
M  V30 1346 H 125.488 1.07538 5.39181 0
M  V30 1347 H 126.713 1.25495 6.67404 0
M  V30 1348 H 124.659 -0.981198 6.4862 0
M  V30 1349 H 124.576 0.384364 7.55022 0
M  V30 1350 H 125.844 -0.787014 7.75517 0
M  V30 1351 N 130.073 -1.45103 0.615059 0
M  V30 1352 C 131.35 -1.95549 0.0448276 0
M  V30 1353 C 131.73 -1.55737 -1.4251 0
M  V30 1354 O 131.078 -0.823556 -2.13143 0
M  V30 1355 C 131.288 -3.48098 0.250785 0
M  V30 1356 C 132.636 -4.24384 0.135509 0
M  V30 1357 O 133.66 -3.55738 0.181299 0
M  V30 1358 O 132.519 -5.46493 0.0268878 0
M  V30 1359 H 129.613 -0.8264 -0.0314845 0
M  V30 1360 H 132.159 -1.55232 0.685642 0
M  V30 1361 H 130.931 -3.7007 1.27139 0
M  V30 1362 H 130.554 -3.95323 -0.424937 0
M  V30 1363 N 131.551 -0.354651 -1.53558 0
M  V30 1364 C 132.484 0.540273 -2.21712 0
M  V30 1365 C 133.462 1.09161 -1.2051 0
M  V30 1366 O 134.646 1.14979 -1.49372 0
M  V30 1367 C 131.773 1.74435 -2.90328 0
M  V30 1368 C 130.819 1.32146 -4.05512 0
M  V30 1369 S 131.652 0.331924 -5.3447 0
M  V30 1370 C 132.808 1.54258 -6.06593 0
M  V30 1371 H 133.041 -0.0385776 -2.97275 0
M  V30 1372 H 130.574 -0.138736 -1.53775 0
M  V30 1373 H 132.532 2.43507 -3.30476 0
M  V30 1374 H 131.193 2.29444 -2.1451 0
M  V30 1375 H 130.386 2.21952 -4.52497 0
M  V30 1376 H 129.988 0.710091 -3.67197 0
M  V30 1377 H 132.28 2.47534 -6.30661 0
M  V30 1378 H 133.223 1.11431 -6.99277 0
M  V30 1379 H 133.631 1.74367 -5.36895 0
M  V30 1380 N 133.029 1.57378 -0.0835403 0
M  V30 1381 C 133.992 2.12252 0.864959 0
M  V30 1382 C 134.992 1.04916 1.21858 0
M  V30 1383 O 136.182 1.30853 1.14991 0
M  V30 1384 C 133.314 2.63358 2.16461 0
M  V30 1385 H 134.507 2.97371 0.388676 0
M  V30 1386 H 132.06 1.55423 0.165317 0
M  V30 1387 H 132.795 1.81727 2.686 0
M  V30 1388 H 132.58 3.41826 1.92087 0
M  V30 1389 H 134.07 3.05847 2.84337 0
M  V30 1390 N 134.507 -0.190092 1.56449 0
M  V30 1391 C 135.918 -0.754312 1.70784 0
M  V30 1392 C 136.269 -1.83631 0.690951 0
M  V30 1393 O 135.394 -2.15868 -0.151604 0
M  V30 1394 C 135.989 -1.37503 3.09642 0
M  V30 1395 C 134.548 -1.88628 3.25725 0
M  V30 1396 C 133.695 -0.758098 2.66736 0
M  V30 1397 H 136.646 0.0350524 1.58661 0
M  V30 1398 H 136.667 -2.2445 3.0725 0
M  V30 1399 H 136.179 -0.587302 3.83631 0
M  V30 1400 H 134.28 -2.70103 2.56661 0
M  V30 1401 H 134.393 -2.04462 4.3328 0
M  V30 1402 H 132.757 -1.17369 2.26046 0
M  V30 1403 H 133.54 0.0174705 3.43296 0
M  V30 1404 N 135.985 -1.50799 -0.457987 0
M  V30 1405 C 137.21 -1.66496 -1.23668 0
M  V30 1406 C 137.635 -0.353288 -1.84752 0
M  V30 1407 O 136.993 0.684346 -1.67888 0
M  V30 1408 C 137.041 -2.76763 -2.3116 0
M  V30 1409 O 136.145 -2.38928 -3.36136 0
M  V30 1410 H 135.486 -0.555828 -0.363252 0
M  V30 1411 H 138.016 -1.9725 -0.543474 0
M  V30 1412 H 138.026 -3.00232 -2.76269 0
M  V30 1413 H 136.701 -3.71954 -1.86073 0
M  V30 1414 H 135.278 -2.25953 -2.96647 0
M  V30 1415 N 137.463 0.71206 -1.40597 0
M  V30 1416 C 138.413 1.81783 -1.37619 0
M  V30 1417 C 139.397 1.58896 -0.253162 0
M  V30 1418 O 140.589 1.70009 -0.492547 0
M  V30 1419 C 137.718 3.19944 -1.24462 0
M  V30 1420 C 136.804 3.48582 -2.4156 0
M  V30 1421 N 137.195 3.48016 -3.67041 0
M  V30 1422 C 135.493 3.79056 -2.35016 0
M  V30 1423 C 136.194 3.75096 -4.44609 0
M  V30 1424 N 135.17 3.94022 -3.74497 0
M  V30 1425 H 138.972 1.79683 -2.32575 0
M  V30 1426 H 136.486 0.91134 -1.34419 0
M  V30 1427 H 138.483 3.99133 -1.20411 0
M  V30 1428 H 137.143 3.23267 -0.304762 0
M  V30 1429 H 138.154 3.28782 -4.00153 0
M  V30 1430 H 134.831 3.89848 -1.49415 0
M  V30 1431 H 136.221 3.80934 -5.53479 0
M  V30 1432 N 138.941 1.26152 0.944643 0
M  V30 1433 C 140.181 1.12708 1.70517 0
M  V30 1434 C 140.545 -0.324727 1.89234 0
M  V30 1435 O 141.746 -0.581211 2.62441 0
M  V30 1436 C 140.017 1.8713 3.04495 0
M  V30 1437 S 141.576 1.89698 3.95677 0
M  V30 1438 H 138.394 0.402665 0.585988 0
M  V30 1439 H 140.996 1.59821 1.12594 0
M  V30 1440 H 139.7 2.91833 2.88551 0
M  V30 1441 H 139.231 1.40444 3.67477 0
M  V30 1442 H 141.246 0.981198 4.86402 0
M  V30 1443 N 140.419 -1.14872 1.07899 0
M  V30 1444 C 141.382 -2.17986 0.708161 0
M  V30 1445 C 142.382 -1.58775 -0.25442 0
M  V30 1446 O 143.572 -1.74166 -0.034645 0
M  V30 1447 C 140.704 -3.40871 0.0446929 0
M  V30 1448 H 141.897 -2.52306 1.62116 0
M  V30 1449 H 139.45 -1.2943 0.876218 0
M  V30 1450 H 140.185 -3.12124 -0.880281 0
M  V30 1451 H 139.97 -3.8511 0.737091 0
M  V30 1452 H 141.46 -4.17121 -0.19991 0
M  V30 1453 N 141.898 -0.863906 -1.31812 0
M  V30 1454 C 142.808 -0.318461 -2.32428 0
M  V30 1455 C 143.824 0.568496 -1.64451 0
M  V30 1456 O 145 0.46666 -1.95919 0
M  V30 1457 C 142.065 0.476355 -3.43412 0
M  V30 1458 C 141.126 -0.43784 -4.27061 0
M  V30 1459 C 140.359 0.319138 -5.32745 0
M  V30 1460 O 140.582 1.54799 -5.48993 0
M  V30 1461 O 139.516 -0.319861 -6.01049 0
M  V30 1462 H 143.342 -1.15229 -2.80991 0
M  V30 1463 H 140.927 -0.627103 -1.35602 0
M  V30 1464 H 142.809 0.927156 -4.11074 0
M  V30 1465 H 141.484 1.28683 -2.97022 0
M  V30 1466 H 140.391 -0.937013 -3.62175 0
M  V30 1467 H 141.724 -1.21375 -4.77 0
M  V30 1468 N 143.376 1.44774 -0.622745 0
M  V30 1469 C 144.326 2.2774 0.108889 0
M  V30 1470 C 145.31 1.38189 0.824175 0
M  V30 1471 O 146.502 1.62063 0.711664 0
M  V30 1472 C 143.631 3.25353 1.09546 0
M  V30 1473 C 142.717 4.22392 0.380232 0
M  V30 1474 N 143.108 5.02388 -0.586535 0
M  V30 1475 C 141.406 4.41588 0.625792 0
M  V30 1476 C 142.107 5.72894 -1.00834 0
M  V30 1477 N 141.083 5.42479 -0.348878 0
M  V30 1478 H 144.885 2.86993 -0.63341 0
M  V30 1479 H 142.399 1.5611 -0.447589 0
M  V30 1480 H 144.396 3.83538 1.63414 0
M  V30 1481 H 143.056 2.6766 1.83815 0
M  V30 1482 H 144.067 5.0885 -0.963975 0
M  V30 1483 H 140.744 3.95003 1.352 0
M  V30 1484 H 142.134 6.47158 -1.80656 0
M  V30 1485 N 144.854 0.36279 1.53368 0
M  V30 1486 C 145.801 -0.485008 2.25646 0
M  V30 1487 C 146.771 -1.07982 1.2621 0
M  V30 1488 O 147.956 -1.11284 1.54986 0
M  V30 1489 C 145.096 -1.62023 3.04701 0
M  V30 1490 C 144.209 -1.05086 4.19024 0
M  V30 1491 C 143.344 -2.15496 4.85525 0
M  V30 1492 C 142.383 -1.5601 5.91884 0
M  V30 1493 N 141.52 -2.60241 6.52088 0
M  V30 1494 H 146.36 0.137864 2.97681 0
M  V30 1495 H 143.897 0.0798061 1.46883 0
M  V30 1496 H 145.855 -2.28887 3.48807 0
M  V30 1497 H 144.485 -2.2138 2.34927 0
M  V30 1498 H 143.537 -0.27259 3.79422 0
M  V30 1499 H 144.849 -0.575926 4.95464 0
M  V30 1500 H 144.003 -2.90186 5.32801 0
M  V30 1501 H 142.742 -2.66341 4.08551 0
M  V30 1502 H 141.747 -0.798338 5.43973 0
M  V30 1503 H 142.972 -1.05994 6.70777 0
M  V30 1504 H 140.918 -3.10304 5.77968 0
M  V30 1505 H 140.835 -2.17426 7.24059 0
M  V30 1506 H 142.103 -3.34641 7.04014 0
M  V30 1507 N 146.332 -1.57332 0.0918853 0
M  V30 1508 C 147.609 -1.85691 -0.614668 0
M  V30 1509 C 147.989 -0.988146 -1.86545 0
M  V30 1510 O 147.337 -0.0597055 -2.28422 0
M  V30 1511 C 147.547 -3.36294 -0.933126 0
M  V30 1512 C 148.895 -4.04275 -1.29796 0
M  V30 1513 O 149.919 -3.41157 -1.02424 0
M  V30 1514 O 148.778 -5.1564 -1.81047 0
M  V30 1515 H 145.872 -0.767802 -0.307261 0
M  V30 1516 H 148.418 -1.69244 0.12434 0
M  V30 1517 H 147.19 -3.91273 -0.0456404 0
M  V30 1518 H 146.813 -3.58076 -1.72822 0
M  V30 1519 N 147.81 0.181792 -1.56548 0
M  V30 1520 C 148.742 1.24956 -1.92142 0
M  V30 1521 C 149.755 1.41022 -0.813422 0
M  V30 1522 O 150.944 1.41212 -1.09186 0
M  V30 1523 C 148.044 2.61981 -2.14987 0
M  V30 1524 C 147.217 2.6735 -3.46183 0
M  V30 1525 C 146.276 3.85664 -3.5798 0
M  V30 1526 O 145.302 3.72148 -4.30691 0
M  V30 1527 N 146.504 5.01683 -2.92053 0
M  V30 1528 H 149.269 0.947329 -2.84334 0
M  V30 1529 H 146.83 0.371629 -1.57577 0
M  V30 1530 H 148.822 3.3958 -2.20154 0
M  V30 1531 H 147.392 2.84637 -1.2923 0
M  V30 1532 H 146.612 1.75925 -3.52766 0
M  V30 1533 H 147.9 2.67939 -4.32534 0
M  V30 1534 H 147.298 5.15564 -2.32832 0
M  V30 1535 H 145.855 5.77181 -3.0283 0
M  V30 1536 N 149.288 1.51039 0.449983 0
M  V30 1537 C 150.535 1.63081 1.20045 0
M  V30 1538 C 150.863 0.341024 1.91487 0
M  V30 1539 O 150.118 -0.674276 1.83717 0
M  V30 1540 C 150.417 2.77556 2.25161 0
M  V30 1541 C 150.083 4.17289 1.70823 0
M  V30 1542 C 148.745 4.55305 1.55725 0
M  V30 1543 C 151.097 5.04536 1.3074 0
M  V30 1544 C 148.425 5.78287 0.989999 0
M  V30 1545 C 150.777 6.28085 0.754482 0
M  V30 1546 C 149.441 6.64885 0.590308 0
M  V30 1547 H 148.711 0.596755 0.439277 0
M  V30 1548 H 151.358 1.85037 0.49333 0
M  V30 1549 H 149.663 2.49771 3.01863 0
M  V30 1550 H 151.36 2.84073 2.83026 0
M  V30 1551 H 147.95 3.8731 1.83546 0
M  V30 1552 H 152.134 4.75782 1.41229 0
M  V30 1553 H 147.39 6.05456 0.850451 0
M  V30 1554 H 151.564 6.95038 0.435324 0
M  V30 1555 H 149.191 7.60055 0.14862 0
M  V30 1556 N 150.766 -0.704594 1.40972 0
M  V30 1557 C 151.696 -1.83124 1.44872 0
M  V30 1558 C 152.677 -1.67281 0.30838 0
M  V30 1559 O 153.862 -1.87149 0.518556 0
M  V30 1560 C 150.992 -3.21181 1.32136 0
M  V30 1561 C 149.946 -3.51714 2.43888 0
M  V30 1562 C 149.272 -4.89032 2.16222 0
M  V30 1563 C 150.572 -3.516 3.86232 0
M  V30 1564 H 152.266 -1.80117 2.39161 0
M  V30 1565 H 149.812 -0.865145 1.15114 0
M  V30 1566 H 151.765 -3.99702 1.33479 0
M  V30 1567 H 150.489 -3.24791 0.343279 0
M  V30 1568 H 149.148 -2.75539 2.41813 0
M  V30 1569 H 148.796 -4.89256 1.16778 0
M  V30 1570 H 148.496 -5.10426 2.911 0
M  V30 1571 H 150.02 -5.69873 2.19265 0
M  V30 1572 H 151.434 -4.2014 3.9007 0
M  V30 1573 H 149.831 -3.84523 4.60719 0
M  V30 1574 H 150.901 -2.50757 4.15029 0
M  V30 1575 N 152.244 -1.26651 -0.937939 0
M  V30 1576 C 153.176 -1.04283 -2.04102 0
M  V30 1577 C 154.189 -0.00221014 -1.628 0
M  V30 1578 O 155.378 -0.242645 -1.76843 0
M  V30 1579 C 152.478 -0.557846 -3.34277 0
M  V30 1580 C 151.651 -1.66843 -4.04329 0
M  V30 1581 C 150.71 -1.18095 -5.12777 0
M  V30 1582 O 149.736 -1.87865 -5.37304 0
M  V30 1583 N 150.938 -0.0311006 -5.80492 0
M  V30 1584 H 153.703 -1.9927 -2.23856 0
M  V30 1585 H 151.264 -1.1808 -1.10764 0
M  V30 1586 H 153.256 -0.215836 -4.04124 0
M  V30 1587 H 151.826 0.298523 -3.11171 0
M  V30 1588 H 151.046 -2.18123 -3.28353 0
M  V30 1589 H 152.334 -2.41408 -4.47883 0
M  V30 1590 H 151.732 0.551486 -5.63005 0
M  V30 1591 H 150.289 0.251809 -6.51313 0
M  V30 1592 N 153.722 1.14298 -1.08507 0
M  V30 1593 C 154.652 2.21542 -0.737646 0
M  V30 1594 C 155.633 1.67773 0.280377 0
M  V30 1595 O 156.818 1.93616 0.150521 0
M  V30 1596 C 153.948 3.46988 -0.147259 0
M  V30 1597 C 152.902 4.13789 -1.09374 0
M  V30 1598 C 152.228 5.33449 -0.365524 0
M  V30 1599 C 153.528 4.62208 -2.4323 0
M  V30 1600 H 155.222 2.5086 -1.6343 0
M  V30 1601 H 152.768 1.20576 -0.787243 0
M  V30 1602 H 154.721 4.21262 0.107808 0
M  V30 1603 H 153.445 3.17037 0.784538 0
M  V30 1604 H 152.104 3.4147 -1.33393 0
M  V30 1605 H 151.752 4.99759 0.57011 0
M  V30 1606 H 151.452 5.79088 -0.996512 0
M  V30 1607 H 152.976 6.10485 -0.118534 0
M  V30 1608 H 154.39 5.27952 -2.23472 0
M  V30 1609 H 152.787 5.18553 -3.02031 0
M  V30 1610 H 153.857 3.77224 -3.04681 0
M  V30 1611 N 155.201 0.870884 1.31352 0
M  V30 1612 C 156.426 0.495957 2.01383 0
M  V30 1613 C 156.851 -0.904324 1.64935 0
M  V30 1614 O 156.209 -1.59687 0.858466 0
M  V30 1615 C 156.257 0.661433 3.54482 0
M  V30 1616 O 155.361 -0.298851 4.11316 0
M  V30 1617 H 154.702 0.197158 0.634054 0
M  V30 1618 H 157.232 1.17455 1.67527 0
M  V30 1619 H 157.242 0.555072 4.04207 0
M  V30 1620 H 155.917 1.68246 3.8035 0
M  V30 1621 H 154.494 -0.147368 3.72609 0
M  V30 1622 N 156.679 -1.44442 0.630414 0
M  V30 1623 C 157.611 -2.2892 -0.113347 0
M  V30 1624 C 158.624 -1.41243 -0.80959 0
M  V30 1625 O 159.813 -1.65402 -0.671156 0
M  V30 1626 C 156.913 -3.17594 -1.18266 0
M  V30 1627 C 156.086 -4.33682 -0.569073 0
M  V30 1628 C 155.145 -5.03397 -1.53226 0
M  V30 1629 O 154.171 -5.59438 -1.04967 0
M  V30 1630 N 155.373 -5.04783 -2.86661 0
M  V30 1631 H 158.138 -2.93392 0.611636 0
M  V30 1632 H 155.699 -1.54881 0.471523 0
M  V30 1633 H 157.691 -3.61097 -1.82732 0
M  V30 1634 H 156.261 -2.54876 -1.80988 0
M  V30 1635 H 155.481 -3.9338 0.254187 0
M  V30 1636 H 156.769 -5.08608 -0.139767 0
M  V30 1637 H 156.167 -4.60584 -3.28449 0
M  V30 1638 H 154.724 -5.52077 -3.46489 0
M  V30 1639 N 158.157 -0.370918 -1.53173 0
M  V30 1640 C 159.387 0.217389 -2.05453 0
M  V30 1641 C 159.795 1.42568 -1.24382 0
M  V30 1642 O 159.138 1.81571 -0.278839 0
M  V30 1643 C 159.2 0.669827 -3.53205 0
M  V30 1644 C 158.864 -0.4225 -4.55043 0
M  V30 1645 C 159.861 -1.27407 -5.04047 0
M  V30 1646 C 157.546 -0.58427 -4.9889 0
M  V30 1647 C 159.54 -2.27271 -5.95505 0
M  V30 1648 C 157.227 -1.58627 -5.90153 0
M  V30 1649 C 158.225 -2.42892 -6.38351 0
M  V30 1650 O 157.913 -3.41382 -7.27814 0
M  V30 1651 H 157.645 0.0408171 -0.674767 0
M  V30 1652 H 160.199 -0.5292 -1.98466 0
M  V30 1653 H 158.429 1.4681 -3.57748 0
M  V30 1654 H 160.118 1.18173 -3.88317 0
M  V30 1655 H 160.884 -1.16031 -4.70916 0
M  V30 1656 H 156.763 0.061851 -4.60959 0
M  V30 1657 H 160.307 -2.93079 -6.33049 0
M  V30 1658 H 156.204 -1.70048 -6.22699 0
M  V30 1659 H 156.972 -3.37173 -7.45826 0
M  V30 1660 N 159.635 1.57281 -0.100228 0
M  V30 1661 C 161.051 1.57527 0.256416 0
M  V30 1662 C 161.251 1.11173 1.68056 0
M  V30 1663 O 160.307 0.79053 2.39806 0
M  V30 1664 C 161.62 3.00673 0.0401747 0
M  V30 1665 C 163.168 3.12815 0.107528 0
M  V30 1666 C 163.643 4.57929 -0.0807834 0
M  V30 1667 N 165.134 4.63193 -0.0261207 0
M  V30 1668 C 165.869 5.73212 -0.146999 0
M  V30 1669 N 165.365 6.92047 -0.322999 0
M  V30 1670 N 167.158 5.62031 -0.0879044 0
M  V30 1671 H 159.309 1.85718 -1.03065 0
M  V30 1672 H 161.572 0.857446 -0.404339 0
M  V30 1673 H 161.278 3.38804 -0.943649 0
M  V30 1674 H 161.152 3.69042 0.780262 0
M  V30 1675 H 163.539 2.74554 1.08186 0
M  V30 1676 H 163.62 2.47028 -0.664134 0
M  V30 1677 H 163.264 4.96886 -1.05201 0
M  V30 1678 H 163.194 5.21783 0.710635 0
M  V30 1679 H 165.685 3.77748 0.107161 0
M  V30 1680 H 165.998 7.7173 -0.406608 0
M  V30 1681 H 164.343 6.94074 -0.358733 0
M  V30 1682 H 167.534 4.68075 0.048498 0
M  V30 1683 H 167.707 6.47734 -0.185557 0
M  V30 1684 N 161.113 -0.173488 1.56642 0
M  V30 1685 C 162.045 -1.23935 1.92802 0
M  V30 1686 C 163.058 -1.40589 0.820889 0
M  V30 1687 O 164.247 -1.40631 1.09933 0
M  V30 1688 C 161.347 -2.60837 2.16373 0
M  V30 1689 C 160.52 -2.6551 3.47596 0
M  V30 1690 C 159.579 -3.8376 3.60021 0
M  V30 1691 O 158.605 -3.69859 4.32658 0
M  V30 1692 N 159.807 -5.00127 2.94709 0
M  V30 1693 H 162.572 -0.932236 2.84832 0
M  V30 1694 H 160.133 -0.363268 1.57772 0
M  V30 1695 H 162.125 -3.38407 2.21952 0
M  V30 1696 H 160.695 -2.83948 1.30738 0
M  V30 1697 H 159.915 -1.74052 3.53694 0
M  V30 1698 H 161.203 -2.65641 4.33949 0
M  V30 1699 H 160.601 -5.14322 2.35563 0
M  V30 1700 H 159.158 -5.75567 3.05886 0
M  V30 1701 N 162.591 -1.51276 -0.441967 0
M  V30 1702 C 163.521 -1.752 -1.54361 0
M  V30 1703 C 164.502 -0.601682 -1.59103 0
M  V30 1704 O 165.687 -0.843913 -1.74905 0
M  V30 1705 C 162.817 -1.87282 -2.92477 0
M  V30 1706 C 161.771 -3.02687 -3.02596 0
M  V30 1707 C 161.097 -2.99947 -4.42647 0
M  V30 1708 C 162.397 -4.4273 -2.77106 0
M  V30 1709 H 164.091 -2.67442 -1.34592 0
M  V30 1710 H 161.637 -1.28694 -0.646048 0
M  V30 1711 H 163.59 -2.02602 -3.695 0
M  V30 1712 H 162.314 -0.916844 -3.13467 0
M  V30 1713 H 160.973 -2.87065 -2.28012 0
M  V30 1714 H 160.621 -2.02136 -4.60597 0
M  V30 1715 H 160.321 -3.77439 -4.50348 0
M  V30 1716 H 161.845 -3.17354 -5.2165 0
M  V30 1717 H 163.259 -4.58727 -3.43864 0
M  V30 1718 H 161.656 -5.21893 -2.96222 0
M  V30 1719 H 162.726 -4.53087 -1.72744 0
M  V30 1720 N 164.069 0.697108 -1.41344 0
M  V30 1721 C 165.016 1.81106 -1.43071 0
M  V30 1722 C 165.986 1.63632 -0.285275 0
M  V30 1723 O 167.171 1.84504 -0.486091 0
M  V30 1724 C 164.311 3.18975 -1.31715 0
M  V30 1725 C 163.424 3.47892 -2.56115 0
M  V30 1726 C 162.559 4.75367 -2.37064 0
M  V30 1727 C 161.598 4.97247 -3.56948 0
M  V30 1728 N 160.735 6.15947 -3.36977 0
M  V30 1729 H 165.575 1.78965 -2.38276 0
M  V30 1730 H 163.112 0.873975 -1.18322 0
M  V30 1731 H 165.07 3.98615 -1.23133 0
M  V30 1732 H 163.7 3.20297 -0.401183 0
M  V30 1733 H 162.752 2.62669 -2.75153 0
M  V30 1734 H 164.064 3.59962 -3.45295 0
M  V30 1735 H 163.218 5.63059 -2.25941 0
M  V30 1736 H 161.957 4.65541 -1.45338 0
M  V30 1737 H 160.962 4.08004 -3.68527 0
M  V30 1738 H 162.187 5.08934 -4.49626 0
M  V30 1739 H 160.133 6.07336 -2.47949 0
M  V30 1740 H 160.05 6.28777 -4.19732 0
M  V30 1741 H 161.318 7.06377 -3.29623 0
M  V30 1742 N 165.547 1.27147 0.931209 0
M  V30 1743 C 166.775 1.16082 1.71267 0
M  V30 1744 C 167.19 -0.282772 1.8667 0
M  V30 1745 O 166.547 -1.19283 1.38122 0
M  V30 1746 C 166.598 1.8358 3.11417 0
M  V30 1747 O 166.319 3.22299 2.96741 0
M  V30 1748 C 167.82 1.78597 4.05732 0
M  V30 1749 H 165.04 0.403758 0.535929 0
M  V30 1750 H 167.584 1.67953 1.16671 0
M  V30 1751 H 165.739 1.35623 3.62885 0
M  V30 1752 H 166.153 3.55851 3.85319 0
M  V30 1753 H 167.627 2.30444 5.01597 0
M  V30 1754 H 168.104 0.754564 4.3267 0
M  V30 1755 H 168.71 2.26152 3.60188 0
M  V30 1756 N 167.025 -1.13721 1.09112 0
M  V30 1757 C 167.988 -2.17222 0.731241 0
M  V30 1758 C 168.988 -1.59035 -0.237566 0
M  V30 1759 O 170.178 -1.74192 -0.0161704 0
M  V30 1760 C 167.31 -3.40804 0.0808443 0
M  V30 1761 H 168.503 -2.50573 1.64783 0
M  V30 1762 H 166.056 -1.28493 0.889897 0
M  V30 1763 H 166.791 -3.1304 -0.847127 0
M  V30 1764 H 166.576 -3.84306 0.777896 0
M  V30 1765 H 168.066 -4.1731 -0.155657 0
M  V30 1766 N 168.503 -0.877838 -1.30888 0
M  V30 1767 C 169.413 -0.343096 -2.32078 0
M  V30 1768 C 170.429 0.551022 -1.65045 0
M  V30 1769 O 171.605 0.445854 -1.96403 0
M  V30 1770 C 168.67 0.439905 -3.43898 0
M  V30 1771 C 167.731 -0.483111 -4.26573 0
M  V30 1772 C 166.964 0.262616 -5.33053 0
M  V30 1773 O 167.187 1.48967 -5.50604 0
M  V30 1774 O 166.121 -0.383593 -6.00676 0
M  V30 1775 H 169.947 -1.18203 -2.79753 0
M  V30 1776 H 167.532 -0.64145 -1.34929 0
M  V30 1777 H 169.414 0.883504 -4.12034 0
M  V30 1778 H 168.089 1.25526 -2.98371 0
M  V30 1779 H 166.996 -0.975374 -3.61161 0
M  V30 1780 H 168.329 -1.26427 -4.75686 0
M  V30 1781 N 169.982 1.44106 -0.638065 0
M  V30 1782 C 171.259 1.95453 -0.0759321 0
M  V30 1783 C 171.639 1.57984 1.40015 0
M  V30 1784 O 170.987 0.857361 2.11806 0
M  V30 1785 C 171.197 3.47655 -0.306132 0
M  V30 1786 C 172.545 4.24114 -0.203008 0
M  V30 1787 O 173.569 3.55405 -0.237871 0
M  V30 1788 O 172.428 5.46381 -0.113827 0
M  V30 1789 H 169.522 0.826797 0.0183332 0
M  V30 1790 H 172.068 1.54122 -0.710251 0
M  V30 1791 H 170.84 3.68 -1.3301 0
M  V30 1792 H 170.463 3.95949 0.361991 0
M  V30 1793 N 171.46 0.379036 1.52974 0
M  V30 1794 C 172.69 -0.20649 2.05566 0
M  V30 1795 C 173.098 -1.41906 1.25137 0
M  V30 1796 O 172.441 -1.81421 0.288464 0
M  V30 1797 C 172.503 -0.651086 3.53555 0
M  V30 1798 C 172.167 0.446626 4.54812 0
M  V30 1799 C 173.164 1.30079 5.03364 0
M  V30 1800 C 170.849 0.610719 4.98573 0
M  V30 1801 C 172.843 2.30426 5.94292 0
M  V30 1802 C 170.53 1.61754 5.89304 0
M  V30 1803 C 171.528 2.46274 6.37054 0
M  V30 1804 O 171.216 3.45237 7.25994 0
M  V30 1805 H 170.948 -0.0372381 0.674974 0
M  V30 1806 H 173.502 0.539718 1.98182 0
M  V30 1807 H 171.732 -1.44911 3.58522 0
M  V30 1808 H 173.421 -1.16112 3.88938 0
M  V30 1809 H 174.187 1.18527 4.70294 0
M  V30 1810 H 170.066 -0.0374044 4.60985 0
M  V30 1811 H 173.61 2.96432 6.31485 0
M  V30 1812 H 169.507 1.73348 6.21788 0
M  V30 1813 H 170.275 3.41124 7.44027 0
M  V30 1814 N 172.938 -1.57226 0.108567 0
M  V30 1815 C 173.87 -2.11809 -0.875752 0
M  V30 1816 C 174.883 -1.05839 -1.23701 0
M  V30 1817 O 176.072 -1.33245 -1.18778 0
M  V30 1818 C 173.172 -2.59411 -2.18081 0
M  V30 1819 C 172.345 -3.89364 -1.99284 0
M  V30 1820 C 171.404 -4.22672 -3.13424 0
M  V30 1821 O 170.43 -4.91668 -2.86795 0
M  V30 1822 N 171.632 -3.79154 -4.3957 0
M  V30 1823 H 174.397 -2.9689 -0.409477 0
M  V30 1824 H 171.958 -1.61721 -0.076158 0
M  V30 1825 H 173.95 -2.7873 -2.93414 0
M  V30 1826 H 172.52 -1.79268 -2.5609 0
M  V30 1827 H 171.74 -3.79059 -1.08203 0
M  V30 1828 H 173.028 -4.74358 -1.84017 0
M  V30 1829 H 172.426 -3.23486 -4.64083 0
M  V30 1830 H 170.983 -4.03602 -5.11809 0
M  V30 1831 N 174.416 0.165178 -1.56732 0
M  V30 1832 C 175.379 1.18822 -1.95995 0
M  V30 1833 C 176.379 1.3685 -0.84431 0
M  V30 1834 O 177.569 1.34152 -1.11126 0
M  V30 1835 C 174.701 2.5521 -2.26011 0
M  V30 1836 H 175.894 0.851825 -2.87548 0
M  V30 1837 H 173.447 0.407857 -1.50885 0
M  V30 1838 H 174.182 2.93852 -1.37191 0
M  V30 1839 H 173.967 2.43489 -3.07336 0
M  V30 1840 H 175.457 3.28927 -2.57288 0
M  V30 1841 N 175.894 1.51508 0.433938 0
M  V30 1842 C 176.824 1.76016 1.53429 0
M  V30 1843 C 177.805 0.610112 1.58782 0
M  V30 1844 O 178.99 0.853177 1.74455 0
M  V30 1845 C 176.12 1.88831 2.9148 0
M  V30 1846 C 175.074 3.04288 3.00987 0
M  V30 1847 C 174.4 3.0229 4.4105 0
M  V30 1848 C 175.7 4.44193 2.74754 0
M  V30 1849 H 177.394 2.68152 1.33171 0
M  V30 1850 H 174.94 1.29035 0.639214 0
M  V30 1851 H 176.893 2.04559 3.6842 0
M  V30 1852 H 175.617 0.933455 3.12976 0
M  V30 1853 H 174.276 2.8827 2.26486 0
M  V30 1854 H 173.924 2.04576 4.59519 0
M  V30 1855 H 173.624 3.79822 4.4834 0
M  V30 1856 H 175.148 3.20116 5.1996 0
M  V30 1857 H 176.562 4.60544 3.41426 0
M  V30 1858 H 174.959 5.23457 2.9345 0
M  V30 1859 H 176.029 4.53996 1.70339 0
M  V30 1860 N 177.372 -0.689602 1.41712 0
M  V30 1861 C 178.32 -1.82475 1.44242 0
M  V30 1862 C 179.314 -1.66354 0.319774 0
M  V30 1863 O 180.52 -1.73143 0.492089 0
M  V30 1864 H 176.895 -0.601416 0.451445 0
M  V30 1865 H 178.866 -1.77458 2.39899 0
M  V30 1866 C 177.615 -3.20535 1.3473 0
M  V30 1867 H 176.938 -3.33559 2.20405 0
M  V30 1868 H 178.378 -4.00023 1.40562 0
M  V30 1869 C 176.837 -3.36846 0.0603281 0
M  V30 1870 O 177.367 -3.91656 -0.892663 0
M  V30 1871 N 175.573 -2.90595 -0.0177039 0
M  V30 1872 H 175.12 -2.46178 0.758572 0
M  V30 1873 H 175.078 -3.01886 -0.878201 0
M  V30 1874 N 178.85 -1.27639 -0.924453 0
M  V30 1875 C 179.797 -1.10644 -2.0255 0
M  V30 1876 C 180.767 -0.00658438 -1.66099 0
M  V30 1877 O 181.952 -0.16952 -1.90045 0
M  V30 1878 C 179.092 -0.76309 -3.36557 0
M  V30 1879 C 178.205 -1.94091 -3.85944 0
M  V30 1880 C 177.34 -1.53914 -5.08413 0
M  V30 1881 C 176.379 -2.68425 -5.50104 0
M  V30 1882 N 175.516 -2.28815 -6.63768 0
M  V30 1883 H 180.356 -2.04858 -2.16419 0
M  V30 1884 H 177.893 -1.01974 -1.06017 0
M  V30 1885 H 179.851 -0.544822 -4.13627 0
M  V30 1886 H 178.481 0.142102 -3.22487 0
M  V30 1887 H 177.533 -2.27162 -3.05125 0
M  V30 1888 H 178.845 -2.7998 -4.12811 0
M  V30 1889 H 177.999 -1.28231 -5.92994 0
M  V30 1890 H 176.738 -0.651391 -4.8333 0
M  V30 1891 H 175.743 -2.94819 -4.64071 0
M  V30 1892 H 176.968 -3.57826 -5.7718 0
M  V30 1893 H 174.914 -1.42495 -6.40337 0
M  V30 1894 H 174.831 -3.08242 -6.90306 0
M  V30 1895 H 176.099 -2.06387 -7.51681 0
M  V30 1896 N 180.328 1.1314 -1.09713 0
M  V30 1897 C 181.605 1.80762 -0.747302 0
M  V30 1898 C 181.985 1.96663 0.767265 0
M  V30 1899 O 181.333 1.53706 1.69076 0
M  V30 1900 C 181.543 3.15606 -1.48975 0
M  V30 1901 C 182.891 3.90914 -1.65746 0
M  V30 1902 O 183.915 3.25239 -1.45251 0
M  V30 1903 O 182.774 5.08718 -1.9967 0
M  V30 1904 H 179.868 0.782103 -0.268782 0
M  V30 1905 H 182.414 1.20041 -1.19951 0
M  V30 1906 H 181.186 2.99278 -2.52088 0
M  V30 1907 H 180.809 3.84029 -1.02991 0
M  V30 1908 N 181.806 0.884767 1.30421 0
M  V30 1909 C 183.055 0.499164 1.95426 0
M  V30 1910 C 183.368 -0.95645 1.70621 0
M  V30 1911 O 184.574 -1.44889 2.29607 0
M  V30 1912 C 183.03 0.84177 3.49917 0
M  V30 1913 C 182.638 2.31514 3.83543 0
M  V30 1914 C 184.382 0.525355 4.21237 0
M  V30 1915 C 182.289 2.59939 5.31212 0
M  V30 1916 H 181.219 0.182944 0.73147 0
M  V30 1917 H 183.87 1.07971 1.48373 0
M  V30 1918 H 182.252 0.190311 3.95542 0
M  V30 1919 H 183.426 3.0109 3.48829 0
M  V30 1920 H 181.741 2.59907 3.25326 0
M  V30 1921 H 184.338 0.714762 5.29901 0
M  V30 1922 H 184.681 -0.535222 4.12845 0
M  V30 1923 H 185.214 1.134 3.81294 0
M  V30 1924 H 181.953 3.64736 5.44654 0
M  V30 1925 H 181.473 1.94972 5.67227 0
M  V30 1926 H 183.152 2.45429 5.98643 0
M  V30 1927 N 183.284 -1.43765 0.645699 0
M  V30 1928 C 184.194 -2.34544 -0.0512957 0
M  V30 1929 C 185.21 -1.53455 -0.82022 0
M  V30 1930 O 186.386 -1.86133 -0.769176 0
M  V30 1931 C 183.451 -3.31636 -1.01087 0
M  V30 1932 C 182.512 -4.2863 -0.239712 0
M  V30 1933 C 181.745 -5.21084 -1.15358 0
M  V30 1934 O 181.968 -5.1779 -2.39269 0
M  V30 1935 O 180.902 -5.98593 -0.630038 0
M  V30 1936 H 184.728 -2.95624 0.695718 0
M  V30 1937 H 182.313 -1.43781 0.405882 0
M  V30 1938 H 184.195 -3.9136 -1.56254 0
M  V30 1939 H 182.87 -2.73069 -1.73824 0
M  V30 1940 H 181.777 -3.72408 0.355356 0
M  V30 1941 H 183.11 -4.90157 0.447936 0
M  V30 1942 N 184.763 -0.387143 -1.52771 0
M  V30 1943 C 185.726 0.436939 -2.24997 0
M  V30 1944 C 186.726 0.991991 -1.26555 0
M  V30 1945 O 187.916 0.874335 -1.50669 0
M  V30 1946 C 185.048 1.61281 -3.00335 0
M  V30 1947 H 186.241 -0.195365 -2.99263 0
M  V30 1948 H 183.794 -0.139218 -1.55679 0
M  V30 1949 H 184.529 2.2826 -2.30364 0
M  V30 1950 H 184.314 1.22154 -3.72587 0
M  V30 1951 H 185.804 2.19629 -3.5518 0
M  V30 1952 N 186.241 1.57166 -0.116904 0
M  V30 1953 C 187.173 2.12271 0.864507 0
M  V30 1954 C 188.186 1.06494 1.23138 0
M  V30 1955 O 189.375 1.33873 1.18069 0
M  V30 1956 C 186.475 2.60564 2.16702 0
M  V30 1957 C 185.648 3.90416 1.97216 0
M  V30 1958 C 184.707 4.24329 3.11178 0
M  V30 1959 O 183.733 4.93182 2.84184 0
M  V30 1960 N 184.935 3.8148 4.37554 0
M  V30 1961 H 187.7 2.97102 0.393726 0
M  V30 1962 H 185.261 1.61759 0.0675805 0
M  V30 1963 H 187.253 2.80282 2.91932 0
M  V30 1964 H 185.823 1.80623 2.55135 0
M  V30 1965 H 185.043 3.79627 1.06192 0
M  V30 1966 H 186.331 4.75327 1.81499 0
M  V30 1967 H 185.729 3.25943 4.62361 0
M  V30 1968 H 184.286 4.06311 5.09661 0
M  V30 1969 N 187.719 -0.156864 1.56817 0
M  V30 1970 C 188.649 -1.19589 2.00551 0
M  V30 1971 C 189.63 -1.4536 0.883426 0
M  V30 1972 O 190.815 -1.56449 1.15054 0
M  V30 1973 C 187.945 -2.53143 2.37773 0
M  V30 1974 C 186.899 -2.41913 3.53075 0
M  V30 1975 C 186.225 -3.80088 3.76081 0
M  V30 1976 C 187.525 -1.91157 4.86062 0
M  V30 1977 H 189.219 -0.832293 2.87599 0
M  V30 1978 H 186.765 -0.398918 1.38364 0
M  V30 1979 H 188.718 -3.26047 2.66967 0
M  V30 1980 H 187.442 -2.91319 1.4765 0
M  V30 1981 H 186.101 -1.71462 3.24031 0
M  V30 1982 H 185.749 -4.15683 2.83225 0
M  V30 1983 H 185.449 -3.73439 4.53671 0
M  V30 1984 H 186.973 -4.54556 4.0769 0
M  V30 1985 H 188.387 -2.53846 5.14038 0
M  V30 1986 H 186.784 -1.95422 5.67389 0
M  V30 1987 H 187.854 -0.866673 4.77092 0
M  V30 1988 N 189.197 -1.51736 -0.425897 0
M  V30 1989 C 190.129 -1.70083 -1.53638 0
M  V30 1990 C 191.142 -0.581349 -1.52066 0
M  V30 1991 O 192.331 -0.856017 -1.56635 0
M  V30 1992 C 189.431 -1.71078 -2.9255 0
M  V30 1993 C 188.604 -2.99795 -3.185 0
M  V30 1994 C 187.663 -2.92825 -4.37196 0
M  V30 1995 O 186.689 -3.66756 -4.35291 0
M  V30 1996 N 187.891 -2.0946 -5.41393 0
M  V30 1997 H 190.656 -2.65882 -1.383 0
M  V30 1998 H 188.217 -1.49765 -0.614988 0
M  V30 1999 H 190.209 -1.63969 -3.69995 0
M  V30 2000 H 188.779 -0.828242 -3.01428 0
M  V30 2001 H 187.999 -3.20684 -2.2925 0
M  V30 2002 H 189.287 -3.84977 -3.32671 0
M  V30 2003 H 188.685 -1.48792 -5.45781 0
M  V30 2004 H 187.242 -2.08221 -6.17647 0
M  V30 2005 N 190.675 0.682077 -1.42076 0
M  V30 2006 C 191.625 1.78823 -1.41444 0
M  V30 2007 C 192.609 1.58323 -0.28681 0
M  V30 2008 O 193.801 1.68926 -0.528498 0
M  V30 2009 C 190.93 3.17232 -1.3122 0
M  V30 2010 C 190.016 3.4338 -2.489 0
M  V30 2011 N 190.407 3.40152 -3.7434 0
M  V30 2012 C 188.705 3.73986 -2.43003 0
M  V30 2013 C 189.406 3.65581 -4.52466 0
M  V30 2014 N 188.382 3.85989 -3.8277 0
M  V30 2015 H 192.184 1.7471 -2.36334 0
M  V30 2016 H 189.698 0.882622 -1.36321 0
M  V30 2017 H 191.695 3.96489 -1.2885 0
M  V30 2018 H 190.355 3.22547 -0.373263 0
M  V30 2019 H 191.366 3.20221 -4.07037 0
M  V30 2020 H 188.043 3.86591 -1.57651 0
M  V30 2021 H 189.433 3.69108 -5.61435 0
M  V30 2022 N 192.153 1.28127 0.917671 0
M  V30 2023 C 193.116 1.11744 2.00115 0
M  V30 2024 C 194.116 0.0583052 1.60694 0
M  V30 2025 O 195.306 0.303755 1.71531 0
M  V30 2026 C 192.438 0.704862 3.33533 0
M  V30 2027 H 193.631 2.07966 2.16079 0
M  V30 2028 H 191.184 1.11058 1.09981 0
M  V30 2029 H 191.919 -0.258299 3.2327 0
M  V30 2030 H 191.704 1.4699 3.63505 0
M  V30 2031 H 193.194 0.612768 4.1308 0
M  V30 2032 N 193.631 -1.12557 1.10312 0
M  V30 2033 C 194.879 -1.83675 0.843091 0
M  V30 2034 C 195.2 -1.84435 -0.633131 0
M  V30 2035 O 194.47 -1.30657 -1.45964 0
M  V30 2036 H 193.05 -0.680138 0.308904 0
M  V30 2037 H 195.712 -1.36301 1.39313 0
M  V30 2038 H 194.808 -2.87908 1.2048 0
M  V30 2039 N 195.109 -0.891671 -1.2995 0
M  V30 2040 C 196.039 -0.379797 -2.30391 0
M  V30 2041 C 197.02 0.540919 -1.6127 0
M  V30 2042 O 198.205 0.453352 -1.88834 0
M  V30 2043 C 195.335 0.400654 -3.44981 0
M  V30 2044 C 194.289 -0.428905 -4.25846 0
M  V30 2045 C 193.615 0.478557 -5.32554 0
M  V30 2046 C 194.915 -1.67458 -4.94727 0
M  V30 2047 H 196.609 -1.21914 -2.73454 0
M  V30 2048 H 194.155 -0.587675 -1.31462 0
M  V30 2049 H 196.108 0.769434 -4.14316 0
M  V30 2050 H 194.832 1.27371 -3.0074 0
M  V30 2051 H 193.491 -0.779911 -3.58208 0
M  V30 2052 H 193.139 1.34951 -4.84559 0
M  V30 2053 H 192.839 -0.0727433 -5.87555 0
M  V30 2054 H 194.363 0.843705 -6.04743 0
M  V30 2055 H 195.777 -1.376 -5.56542 0
M  V30 2056 H 194.174 -2.16659 -5.59624 0
M  V30 2057 H 195.244 -2.41518 -4.20473 0
M  V30 2058 N 196.587 1.43421 -0.653314 0
M  V30 2059 C 198.003 1.56341 -0.320886 0
M  V30 2060 C 198.203 1.63696 1.17499 0
M  V30 2061 O 197.259 1.59208 1.95982 0
M  V30 2062 C 198.572 2.82424 -1.03233 0
M  V30 2063 C 200.12 2.96168 -1.01259 0
M  V30 2064 C 200.595 4.25084 -1.70492 0
M  V30 2065 N 202.086 4.31948 -1.67257 0
M  V30 2066 C 202.821 5.30466 -2.17701 0
M  V30 2067 N 202.317 6.35261 -2.76434 0
M  V30 2068 N 204.11 5.2212 -2.082 0
M  V30 2069 H 196.261 1.3689 -1.62403 0
M  V30 2070 H 198.524 0.657455 -0.682977 0
M  V30 2071 H 198.23 2.83053 -2.08744 0
M  V30 2072 H 198.104 3.72653 -0.583948 0
M  V30 2073 H 200.491 2.9508 0.0341235 0
M  V30 2074 H 200.572 2.07229 -1.49966 0
M  V30 2075 H 200.216 4.26932 -2.7512 0
M  V30 2076 H 200.146 5.1292 -1.19251 0
M  V30 2077 H 202.637 3.56838 -1.24398 0
M  V30 2078 H 202.95 7.06754 -3.12601 0
M  V30 2079 H 201.295 6.35884 -2.80495 0
M  V30 2080 H 204.486 4.39166 -1.62021 0
M  V30 2081 H 204.659 5.98739 -2.47822 0
M  V30 2082 N 198.065 0.39524 1.52563 0
M  V30 2083 C 198.975 -0.444232 2.30356 0
M  V30 2084 C 199.991 -1.06615 1.37511 0
M  V30 2085 O 201.167 -1.07067 1.70583 0
M  V30 2086 C 198.232 -1.55315 3.09964 0
M  V30 2087 C 197.293 -0.955734 4.18526 0
M  V30 2088 C 196.526 -2.01181 4.9433 0
M  V30 2089 O 196.749 -3.22781 4.70285 0
M  V30 2090 O 195.683 -1.62579 5.79527 0
M  V30 2091 H 199.509 0.189667 3.03107 0
M  V30 2092 H 197.094 0.1588 1.48554 0
M  V30 2093 H 198.976 -2.19724 3.59582 0
M  V30 2094 H 197.651 -2.17191 2.4002 0
M  V30 2095 H 196.558 -0.274743 3.7309 0
M  V30 2096 H 197.891 -0.381109 4.90722 0
M  V30 2097 N 199.544 -1.57102 0.125237 0
M  V30 2098 C 200.507 -2.14471 -0.80838 0
M  V30 2099 C 201.507 -1.0811 -1.19033 0
M  V30 2100 O 202.697 -1.33856 -1.11482 0
M  V30 2101 C 199.829 -2.69005 -2.09402 0
M  V30 2102 H 201.022 -2.98297 -0.309696 0
M  V30 2103 H 198.575 -1.55807 -0.124051 0
M  V30 2104 H 199.31 -1.88785 -2.63687 0
M  V30 2105 H 199.095 -3.46799 -1.82957 0
M  V30 2106 H 200.585 -3.13278 -2.76128 0
M  V30 2107 N 201.022 0.148545 -1.56898 0
M  V30 2108 C 202.27 0.859717 -1.82902 0
M  V30 2109 C 202.591 1.81775 -0.70588 0
M  V30 2110 O 201.861 1.93994 0.272586 0
M  V30 2111 H 200.441 0.320469 -0.674766 0
M  V30 2112 H 203.103 0.142918 -1.94375 0
M  V30 2113 H 202.199 1.4229 -2.77777 0
M  V30 2114 N 202.5 1.5196 0.417844 0
M  V30 2115 C 203.916 1.40569 0.755816 0
M  V30 2116 C 204.116 0.503316 1.95113 0
M  V30 2117 O 203.172 -0.0341925 2.52477 0
M  V30 2118 C 204.485 2.82947 1.01791 0
M  V30 2119 C 206.033 2.92231 1.12116 0
M  V30 2120 C 206.508 4.35559 1.41608 0
M  V30 2121 N 207.999 4.38753 1.48491 0
M  V30 2122 C 208.734 5.46705 1.7292 0
M  V30 2123 N 208.23 6.64788 1.95011 0
M  V30 2124 N 210.023 5.34209 1.74863 0
M  V30 2125 H 202.174 2.09168 -0.369098 0
M  V30 2126 H 204.437 0.942409 -0.102809 0
M  V30 2127 H 204.143 3.5106 0.212081 0
M  V30 2128 H 204.017 3.23462 1.94042 0
M  V30 2129 H 206.404 2.24304 1.9176 0
M  V30 2130 H 206.485 2.55185 0.177225 0
M  V30 2131 H 206.129 5.04042 0.624848 0
M  V30 2132 H 206.059 4.70133 2.37239 0
M  V30 2133 H 208.55 3.5363 1.33244 0
M  V30 2134 H 208.863 7.42845 2.13076 0
M  V30 2135 H 207.208 6.67869 1.92293 0
M  V30 2136 H 210.399 4.40937 1.57137 0
M  V30 2137 H 210.572 6.18415 1.93563 0
M  V30 2138 N 203.978 -0.674533 1.42435 0
M  V30 2139 C 205.227 -1.43034 1.42212 0
M  V30 2140 C 205.54 -1.95555 0.0420788 0
M  V30 2141 O 206.746 -2.71374 -0.0827558 0
M  V30 2142 C 205.202 -2.58748 2.50155 0
M  V30 2143 C 204.81 -2.12925 3.94166 0
M  V30 2144 C 206.554 -3.36257 2.59098 0
M  V30 2145 C 204.461 -3.25723 4.93618 0
M  V30 2146 H 203.391 -0.537345 0.528939 0
M  V30 2147 H 206.042 -0.73024 1.68344 0
M  V30 2148 H 204.424 -3.31128 2.17188 0
M  V30 2149 H 205.598 -1.47697 4.36488 0
M  V30 2150 H 203.913 -1.48354 3.89076 0
M  V30 2151 H 206.51 -4.20264 3.30578 0
M  V30 2152 H 206.853 -3.82866 1.63461 0
M  V30 2153 H 207.386 -2.70947 2.9126 0
M  V30 2154 H 204.125 -2.84105 5.90732 0
M  V30 2155 H 203.645 -3.89732 4.55926 0
M  V30 2156 H 205.324 -3.91186 5.15347 0
M  V30 2157 N 205.456 -1.28612 -0.910864 0
M  V30 2158 C 206.703 -1.15934 -1.66029 0
M  V30 2159 C 207.031 0.291483 -1.92303 0
M  V30 2160 O 206.286 1.22816 -1.52364 0
M  V30 2161 C 206.585 -1.90624 -3.0232 0
M  V30 2162 C 206.251 -3.40405 -2.95695 0
M  V30 2163 C 204.913 -3.81255 -2.93595 0
M  V30 2164 C 207.265 -4.359 -2.85728 0
M  V30 2165 C 204.593 -5.15936 -2.79334 0
M  V30 2166 C 206.945 -5.70657 -2.73007 0
M  V30 2167 C 205.609 -6.10779 -2.69267 0
M  V30 2168 H 204.879 -0.424234 -0.607541 0
M  V30 2169 H 207.526 -1.5942 -1.06101 0
M  V30 2170 H 205.831 -1.39696 -3.6605 0
M  V30 2171 H 207.528 -1.78228 -3.59215 0
M  V30 2172 H 204.118 -3.07927 -2.98125 0
M  V30 2173 H 208.302 -4.053 -2.86436 0
M  V30 2174 H 203.558 -5.46146 -2.74835 0
M  V30 2175 H 207.732 -6.44311 -2.64264 0
M  V30 2176 H 205.359 -7.1509 -2.57974 0
M  V30 2177 N 206.934 1.1197 -1.10907 0
M  V30 2178 C 208.164 1.8713 -0.875553 0
M  V30 2179 C 208.572 1.8016 0.577843 0
M  V30 2180 O 207.915 1.17699 1.41042 0
M  V30 2181 C 207.977 3.37005 -1.2517 0
M  V30 2182 C 207.641 3.67748 -2.71313 0
M  V30 2183 C 208.638 3.65698 -3.69542 0
M  V30 2184 C 206.323 3.96928 -3.07821 0
M  V30 2185 C 208.317 3.92395 -5.023 0
M  V30 2186 C 206.004 4.23284 -4.40765 0
M  V30 2187 C 207.002 4.21005 -5.37814 0
M  V30 2188 O 206.69 4.46704 -6.68364 0
M  V30 2189 H 206.422 0.598786 -0.313737 0
M  V30 2190 H 208.976 1.42568 -1.47863 0
M  V30 2191 H 207.206 3.82146 -0.591741 0
M  V30 2192 H 208.895 3.93519 -0.994877 0
M  V30 2193 H 209.661 3.43211 -3.42682 0
M  V30 2194 H 205.54 3.97841 -2.32902 0
M  V30 2195 H 209.084 3.90531 -5.78041 0
M  V30 2196 H 204.981 4.45246 -4.67361 0
M  V30 2197 H 205.749 4.64299 -6.74069 0
M  V30 2198 N 208.412 0.89855 1.29475 0
M  V30 2199 C 209.659 0.523882 1.95606 0
M  V30 2200 C 209.987 -0.929608 1.70847 0
M  V30 2201 O 209.242 -1.67401 1.01367 0
M  V30 2202 C 209.541 0.761398 3.49195 0
M  V30 2203 C 209.207 2.19207 3.94029 0
M  V30 2204 C 207.869 2.58326 4.05982 0
M  V30 2205 C 210.221 3.12379 4.17216 0
M  V30 2206 C 207.549 3.898 4.38489 0
M  V30 2207 C 209.901 4.43401 4.51197 0
M  V30 2208 C 208.565 4.82394 4.61359 0
M  V30 2209 H 207.835 0.191702 0.715773 0
M  V30 2210 H 210.482 1.13699 1.54094 0
M  V30 2211 H 208.787 0.0653622 3.91745 0
M  V30 2212 H 210.484 0.450904 3.98457 0
M  V30 2213 H 207.074 1.87846 3.85242 0
M  V30 2214 H 211.258 2.83371 4.07449 0
M  V30 2215 H 206.514 4.19734 4.44559 0
M  V30 2216 H 210.688 5.15623 4.68087 0
M  V30 2217 H 208.315 5.84306 4.86303 0
M  V30 2218 N 209.89 -1.43072 0.660911 0
M  V30 2219 C 211.115 -2.06584 0.183805 0
M  V30 2220 C 211.54 -1.49257 -1.14472 0
M  V30 2221 O 210.898 -0.605528 -1.70889 0
M  V30 2222 C 210.946 -3.60418 0.114434 0
M  V30 2223 O 210.05 -4.01981 -0.921137 0
M  V30 2224 H 209.391 -0.656669 0.0983994 0
M  V30 2225 H 211.921 -1.83447 0.906006 0
M  V30 2226 H 211.931 -4.07946 -0.0663394 0
M  V30 2227 H 210.606 -4.01519 1.08422 0
M  V30 2228 H 209.183 -3.66029 -0.71253 0
M  V30 2229 N 211.368 -0.403325 -1.52352 0
M  V30 2230 C 212.614 0.174605 -2.02047 0
M  V30 2231 C 212.947 1.45282 -1.28867 0
M  V30 2232 O 212.222 1.90483 -0.393257 0
M  V30 2233 C 212.505 0.428238 -3.57545 0
M  V30 2234 C 212.358 -0.866248 -4.4138 0
M  V30 2235 C 213.677 1.21287 -4.23057 0
M  V30 2236 H 210.796 0.0619851 -0.734389 0
M  V30 2237 H 213.438 -0.53565 -1.82293 0
M  V30 2238 H 211.588 1.03327 -3.74507 0
M  V30 2239 H 213.26 -1.50265 -4.3614 0
M  V30 2240 H 211.503 -1.47851 -4.07827 0
M  V30 2241 H 212.174 -0.643249 -5.48239 0
M  V30 2242 H 214.65 0.700703 -4.10158 0
M  V30 2243 H 213.526 1.35909 -5.31808 0
M  V30 2244 H 213.787 2.23193 -3.81625 0
M  V30 2245 N 212.846 1.57033 -0.133567 0
M  V30 2246 C 214.257 1.82593 0.389464 0
M  V30 2247 C 214.608 1.05156 1.6564 0
M  V30 2248 O 213.733 0.292644 2.14412 0
M  V30 2249 C 214.328 3.31204 0.713377 0
M  V30 2250 C 212.887 3.57393 1.18098 0
M  V30 2251 C 212.034 2.76598 0.197126 0
M  V30 2252 H 214.985 1.54598 -0.358481 0
M  V30 2253 H 215.006 3.46627 1.56939 0
M  V30 2254 H 214.518 3.87537 -0.2089 0
M  V30 2255 H 212.619 3.06433 2.11966 0
M  V30 2256 H 212.732 4.65915 1.11624 0
M  V30 2257 H 211.096 2.45257 0.687088 0
M  V30 2258 H 211.879 3.35697 -0.718504 0
M  V30 2259 N 214.325 -0.140222 1.56975 0
M  V30 2260 C 215.736 -0.699596 1.73097 0
M  V30 2261 C 216.087 -1.8134 0.749022 0
M  V30 2262 O 215.212 -2.16241 -0.0828503 0
M  V30 2263 C 215.807 -1.27582 3.1386 0
M  V30 2264 C 214.366 -1.78169 3.31561 0
M  V30 2265 C 213.513 -0.672855 2.69013 0
M  V30 2266 H 216.464 0.0855115 1.58469 0
M  V30 2267 H 216.485 -2.14561 3.14235 0
M  V30 2268 H 215.997 -0.464955 3.85305 0
M  V30 2269 H 214.098 -2.61801 2.65124 0
M  V30 2270 H 214.211 -1.90574 4.39566 0
M  V30 2271 H 212.575 -1.10118 2.29665 0
M  V30 2272 H 213.358 0.126679 3.43066 0
M  V30 2273 N 215.803 -1.52179 -0.40978 0
M  V30 2274 C 217.05 -1.66206 -1.15679 0
M  V30 2275 C 217.378 -0.391674 -1.90516 0
M  V30 2276 O 216.633 0.62533 -1.8544 0
M  V30 2277 C 216.932 -2.83428 -2.17723 0
M  V30 2278 C 216.598 -4.21672 -1.59699 0
M  V30 2279 C 215.26 -4.59274 -1.43599 0
M  V30 2280 C 217.612 -5.07825 -1.17317 0
M  V30 2281 C 214.94 -5.80709 -0.836328 0
M  V30 2282 C 217.292 -6.29864 -0.587691 0
M  V30 2283 C 215.956 -6.66216 -0.413818 0
M  V30 2284 H 215.226 -0.608192 -0.423301 0
M  V30 2285 H 217.873 -1.86279 -0.444097 0
M  V30 2286 H 216.178 -2.57687 -2.95135 0
M  V30 2287 H 217.875 -2.91477 -2.75394 0
M  V30 2288 H 214.465 -3.9204 -1.73213 0
M  V30 2289 H 218.649 -4.79359 -1.28565 0
M  V30 2290 H 213.905 -6.07498 -0.689626 0
M  V30 2291 H 218.079 -6.95948 -0.250894 0
M  V30 2292 H 215.706 -7.60182 0.0529471 0
M  V30 2293 N 217.281 0.66697 -1.42791 0
M  V30 2294 C 218.244 1.76211 -1.46568 0
M  V30 2295 C 219.244 1.56896 -0.352196 0
M  V30 2296 O 220.434 1.63044 -0.613364 0
M  V30 2297 C 217.566 3.14935 -1.30494 0
M  V30 2298 H 218.759 1.74247 -2.44086 0
M  V30 2299 H 216.312 0.877342 -1.29354 0
M  V30 2300 H 217.047 3.2252 -0.339301 0
M  V30 2301 H 216.832 3.30359 -2.11199 0
M  V30 2302 H 218.322 3.94821 -1.36038 0
M  V30 2303 N 218.759 1.29093 0.90403 0
M  V30 2304 C 219.989 1.19516 1.68522 0
M  V30 2305 C 220.397 -0.24738 1.87576 0
M  V30 2306 O 219.74 -1.17798 1.40959 0
M  V30 2307 C 219.802 1.83249 3.0929 0
M  V30 2308 C 219.466 3.32531 3.13484 0
M  V30 2309 C 220.463 4.28821 2.93953 0
M  V30 2310 C 218.148 3.73656 3.35688 0
M  V30 2311 C 220.142 5.64212 2.96553 0
M  V30 2312 C 217.829 5.0917 3.37919 0
M  V30 2313 C 218.827 6.04258 3.18373 0
M  V30 2314 O 218.515 7.37298 3.20385 0
M  V30 2315 H 218.247 0.415467 0.533257 0
M  V30 2316 H 220.801 1.70912 1.13922 0
M  V30 2317 H 219.031 1.26358 3.65473 0
M  V30 2318 H 220.72 1.68054 3.69476 0
M  V30 2319 H 221.486 3.98382 2.76616 0
M  V30 2320 H 217.365 3.00101 3.49943 0
M  V30 2321 H 220.909 6.38407 2.81216 0
M  V30 2322 H 216.806 5.39256 3.54787 0
M  V30 2323 H 217.574 7.46048 3.36681 0
M  V30 2324 N 220.237 -1.11381 1.11499 0
M  V30 2325 C 221.147 -2.21019 0.786628 0
M  V30 2326 C 222.163 -1.72597 -0.220507 0
M  V30 2327 O 223.339 -2.01321 -0.0565251 0
M  V30 2328 C 220.404 -3.459 0.235333 0
M  V30 2329 C 219.465 -4.09107 1.30115 0
M  V30 2330 C 218.698 -5.28027 0.776068 0
M  V30 2331 O 218.921 -5.6904 -0.393661 0
M  V30 2332 O 217.855 -5.81835 1.54114 0
M  V30 2333 H 221.681 -2.51521 1.70209 0
M  V30 2334 H 219.266 -1.19928 0.890928 0
M  V30 2335 H 221.148 -4.21346 -0.067715 0
M  V30 2336 H 219.823 -3.17049 -0.652828 0
M  V30 2337 H 218.73 -3.35391 1.65722 0
M  V30 2338 H 220.063 -4.42139 2.16273 0
M  V30 2339 N 221.715 -0.905404 -1.28997 0
M  V30 2340 C 222.992 -0.453513 -1.9027 0
M  V30 2341 C 223.372 1.06721 -1.82137 0
M  V30 2342 O 222.72 1.91159 -1.25182 0
M  V30 2343 C 222.93 -0.974494 -3.35119 0
M  V30 2344 C 224.278 -1.0216 -4.12127 0
M  V30 2345 O 225.302 -0.922557 -3.44046 0
M  V30 2346 O 224.161 -1.17121 -5.33802 0
M  V30 2347 H 221.255 -0.142347 -0.814657 0
M  V30 2348 H 223.801 -0.995642 -1.37423 0
M  V30 2349 H 222.573 -2.01848 -3.35221 0
M  V30 2350 H 222.196 -0.412706 -3.95452 0
M  V30 2351 N 223.193 1.4272 -0.668489 0
M  V30 2352 C 224.442 2.00846 -0.185389 0
M  V30 2353 C 224.755 1.53442 1.21305 0
M  V30 2354 O 225.961 2.03944 1.79218 0
M  V30 2355 C 224.417 3.58805 -0.280591 0
M  V30 2356 C 224.025 4.15198 -1.68268 0
M  V30 2357 C 225.769 4.24255 0.14412 0
M  V30 2358 C 223.676 5.655 -1.73099 0
M  V30 2359 H 222.606 0.751145 -0.0655475 0
M  V30 2360 H 225.257 1.63516 -0.832752 0
M  V30 2361 H 223.639 3.93608 0.434553 0
M  V30 2362 H 224.813 3.91866 -2.42441 0
M  V30 2363 H 223.128 3.62176 -2.05469 0
M  V30 2364 H 225.725 5.34547 0.128086 0
M  V30 2365 H 226.068 3.99277 1.17827 0
M  V30 2366 H 226.601 3.94389 -0.519798 0
M  V30 2367 H 223.34 5.95268 -2.74475 0
M  V30 2368 H 222.86 5.90842 -1.03274 0
M  V30 2369 H 224.539 6.29808 -1.48158 0
M  V30 2370 N 224.671 0.411399 1.52136 0
M  V30 2371 C 225.634 -0.401089 2.25663 0
M  V30 2372 C 226.634 -0.971732 1.28117 0
M  V30 2373 O 227.824 -0.850254 1.52041 0
M  V30 2374 C 224.956 -1.56483 3.02863 0
M  V30 2375 H 226.149 0.24295 2.98914 0
M  V30 2376 H 223.702 0.163968 1.55438 0
M  V30 2377 H 224.437 -2.24567 2.33967 0
M  V30 2378 H 224.222 -1.16211 3.74483 0
M  V30 2379 H 225.712 -2.13951 3.58629 0
M  V30 2380 N 226.149 -1.5696 0.141893 0
M  V30 2381 C 227.565 -1.58151 -0.21456 0
M  V30 2382 C 227.765 -1.1559 -1.65049 0
M  V30 2383 O 226.821 -0.853832 -2.37626 0
M  V30 2384 C 228.134 -3.00674 0.0395576 0
M  V30 2385 C 229.682 -3.1299 -0.0245529 0
M  V30 2386 C 230.157 -4.57554 0.202167 0
M  V30 2387 N 231.648 -4.62961 0.148919 0
M  V30 2388 C 232.383 -5.7262 0.298924 0
M  V30 2389 N 231.879 -6.90947 0.50637 0
M  V30 2390 N 233.672 -5.61601 0.236886 0
M  V30 2391 H 225.823 -1.8292 1.07953 0
M  V30 2392 H 228.086 -0.846425 0.42693 0
M  V30 2393 H 227.792 -3.36183 1.03315 0
M  V30 2394 H 227.666 -3.70981 -0.682143 0
M  V30 2395 H 230.053 -2.77326 -1.00869 0
M  V30 2396 H 230.134 -2.4518 0.729396 0
M  V30 2397 H 229.778 -4.93922 1.18338 0
M  V30 2398 H 229.708 -5.23484 -0.572044 0
M  V30 2399 H 232.199 -3.77899 -0.00697015 0
M  V30 2400 H 232.512 -7.7038 0.611076 0
M  V30 2401 H 230.857 -6.92878 0.542628 0
M  V30 2402 H 234.048 -4.68039 0.0756209 0
M  V30 2403 H 234.221 -6.47015 0.357227 0
M  V30 2404 N 227.627 0.131896 -1.57047 0
M  V30 2405 C 228.575 1.18146 -2.0036 0
M  V30 2406 C 229.569 1.43614 -0.898406 0
M  V30 2407 O 230.775 1.43729 -1.08361 0
M  V30 2408 H 227.15 0.398042 -0.638018 0
M  V30 2409 H 229.121 0.789564 -2.87765 0
M  V30 2410 C 227.87 2.50341 -2.41298 0
M  V30 2411 H 227.193 2.31578 -3.25902 0
M  V30 2412 H 228.633 3.22371 -2.75414 0
M  V30 2413 C 227.092 3.11984 -1.27153 0
M  V30 2414 O 227.622 3.97484 -0.580459 0
M  V30 2415 N 225.828 2.71662 -1.03189 0
M  V30 2416 H 225.375 2.02231 -1.59564 0
M  V30 2417 H 225.333 3.13238 -0.270077 0
M  V30 2418 N 229.106 1.52395 0.401703 0
M  V30 2419 C 230.355 1.66044 1.14509 0
M  V30 2420 C 230.668 0.400216 1.91462 0
M  V30 2421 O 231.874 0.416632 2.68284 0
M  V30 2422 C 230.33 2.93388 2.0845 0
M  V30 2423 C 229.938 4.26545 1.36978 0
M  V30 2424 C 231.682 3.16402 2.83001 0
M  V30 2425 C 229.589 5.45007 2.29611 0
M  V30 2426 H 228.519 0.618562 0.431158 0
M  V30 2427 H 231.17 1.78886 0.40892 0
M  V30 2428 H 229.552 2.74263 2.8565 0
M  V30 2429 H 230.726 4.56179 0.650916 0
M  V30 2430 H 229.041 4.09692 0.74438 0
M  V30 2431 H 231.638 4.02085 3.52465 0
M  V30 2432 H 231.981 2.30943 3.46368 0
M  V30 2433 H 232.514 3.36034 2.12898 0
M  V30 2434 H 229.253 6.32835 1.70879 0
M  V30 2435 H 228.773 5.19702 2.9945 0
M  V30 2436 H 230.452 5.7838 2.89974 0
M  V30 2437 N 230.584 -0.659388 1.43143 0
M  V30 2438 C 231.532 -1.79374 1.4808 0
M  V30 2439 C 232.526 -1.65639 0.354988 0
M  V30 2440 O 233.732 -1.7206 0.528704 0
M  V30 2441 H 230.107 -0.591705 0.4641 0
M  V30 2442 H 232.078 -1.72329 2.43609 0
M  V30 2443 C 230.827 -3.17606 1.41499 0
M  V30 2444 H 230.15 -3.28809 2.27431 0
M  V30 2445 H 231.59 -3.96951 1.49015 0
M  V30 2446 C 230.049 -3.36642 0.131765 0
M  V30 2447 O 230.579 -3.93461 -0.809386 0
M  V30 2448 N 228.785 -2.90567 0.0439396 0
M  V30 2449 H 228.332 -2.44513 0.810619 0
M  V30 2450 H 228.29 -3.03681 -0.813969 0
M  V30 2451 N 232.062 -1.29571 -0.897171 0
M  V30 2452 C 233.287 -1.20705 -1.68656 0
M  V30 2453 C 233.712 0.228582 -1.86706 0
M  V30 2454 O 233.07 1.16494 -1.3892 0
M  V30 2455 C 233.118 -1.9282 -3.04717 0
M  V30 2456 O 232.222 -1.24697 -3.93096 0
M  V30 2457 H 231.563 -0.418126 -0.515816 0
M  V30 2458 H 234.093 -1.71183 -1.12061 0
M  V30 2459 H 234.103 -2.01372 -3.54843 0
M  V30 2460 H 232.778 -2.97239 -2.90899 0
M  V30 2461 H 231.355 -1.2442 -3.51531 0
M  V30 2462 N 233.54 1.10788 -1.12088 0
M  V30 2463 C 234.765 1.87002 -0.896949 0
M  V30 2464 C 235.19 1.79933 0.548261 0
M  V30 2465 O 234.548 1.16662 1.38779 0
M  V30 2466 C 234.596 3.3349 -1.37174 0
M  V30 2467 O 233.7 4.08745 -0.547831 0
M  V30 2468 H 233.041 0.580397 -0.322545 0
M  V30 2469 H 235.571 1.39996 -1.49206 0
M  V30 2470 H 235.581 3.84339 -1.36922 0
M  V30 2471 H 234.256 3.37951 -2.42408 0
M  V30 2472 H 232.833 3.6776 -0.617034 0
M  V30 2473 N 235.018 0.912232 1.28515 0
M  V30 2474 C 236.258 0.551677 1.96814 0
M  V30 2475 C 236.622 -0.887825 1.7024 0
M  V30 2476 O 237.823 -1.35588 2.32098 0
M  V30 2477 C 236.094 0.850555 3.47132 0
M  V30 2478 S 237.653 0.59619 4.34731 0
M  V30 2479 H 234.471 0.204191 0.681049 0
M  V30 2480 H 237.073 1.17736 1.56072 0
M  V30 2481 H 235.777 1.8962 3.63968 0
M  V30 2482 H 235.308 0.213471 3.9282 0
M  V30 2483 H 237.323 -0.553154 4.93107 0
M  V30 2484 N 236.496 -1.42363 0.676048 0
M  V30 2485 C 237.912 -1.55811 0.345718 0
M  V30 2486 C 238.112 -1.65544 -1.14879 0
M  V30 2487 O 237.168 -1.62306 -1.93424 0
M  V30 2488 C 238.481 -2.80746 1.07713 0
M  V30 2489 C 240.029 -2.9452 1.05958 0
M  V30 2490 C 240.504 -4.22318 1.77233 0
M  V30 2491 N 241.995 -4.29233 1.74108 0
M  V30 2492 C 242.73 -5.26935 2.26113 0
M  V30 2493 N 242.226 -6.30783 2.86505 0
M  V30 2494 N 244.019 -5.18741 2.1648 0
M  V30 2495 H 236.17 -1.34289 1.6456 0
M  V30 2496 H 238.433 -0.646506 0.69335 0
M  V30 2497 H 238.139 -2.79696 2.13221 0
M  V30 2498 H 238.013 -3.71676 0.64316 0
M  V30 2499 H 240.4 -2.95097 0.0128255 0
M  V30 2500 H 240.481 -2.04817 1.53244 0
M  V30 2501 H 240.125 -4.22502 2.81877 0
M  V30 2502 H 240.055 -5.10958 1.27396 0
M  V30 2503 H 242.546 -3.54814 1.30059 0
M  V30 2504 H 242.859 -7.01691 3.23805 0
M  V30 2505 H 241.204 -6.31341 2.90575 0
M  V30 2506 H 244.395 -4.36533 1.68987 0
M  V30 2507 H 244.568 -5.94721 2.57316 0
M  V30 2508 N 237.974 -0.419461 -1.51915 0
M  V30 2509 C 239.385 0.0477853 -1.86639 0
M  V30 2510 C 239.736 1.43531 -1.33766 0
M  V30 2511 O 238.861 2.05401 -0.68113 0
M  V30 2512 C 239.456 0.0934885 -3.38671 0
M  V30 2513 C 238.015 0.505097 -3.72996 0
M  V30 2514 C 237.162 -0.313792 -2.75519 0
M  V30 2515 H 240.113 -0.636088 -1.45395 0
M  V30 2516 H 240.134 0.906667 -3.6954 0
M  V30 2517 H 239.646 -0.916501 -3.77123 0
M  V30 2518 H 237.747 1.52135 -3.40126 0
M  V30 2519 H 237.86 0.242309 -4.78487 0
M  V30 2520 H 236.224 0.225363 -2.53701 0
M  V30 2521 H 237.007 -1.32232 -3.16812 0
M  V30 2522 N 239.452 1.56882 -0.150215 0
M  V30 2523 C 240.7 1.9584 0.499105 0
M  V30 2524 C 241.021 1.03623 1.65188 0
M  V30 2525 O 240.291 0.0984084 1.95653 0
M  V30 2526 H 238.871 0.723119 0.187373 0
M  V30 2527 H 241.533 1.9358 -0.226466 0
M  V30 2528 H 240.629 2.99638 0.873122 0
M  V30 2529 N 240.93 -0.123565 1.57115 0
M  V30 2530 C 242.341 -0.681198 1.73829 0
M  V30 2531 C 242.692 -1.80535 0.768214 0
M  V30 2532 O 241.817 -2.16317 -0.0599103 0
M  V30 2533 C 242.412 -1.24246 3.15196 0
M  V30 2534 C 240.971 -1.74643 3.33432 0
M  V30 2535 C 240.118 -0.644284 2.69711 0
M  V30 2536 H 243.069 0.102315 1.5837 0
M  V30 2537 H 243.09 -2.11216 3.16493 0
M  V30 2538 H 242.602 -0.424062 3.85776 0
M  V30 2539 H 240.703 -2.58974 2.67886 0
M  V30 2540 H 240.816 -1.85902 4.41562 0
M  V30 2541 H 239.18 -1.07676 2.3082 0
M  V30 2542 H 239.963 0.163058 3.42913 0
M  V30 2543 N 242.408 -1.52605 -0.393616 0
M  V30 2544 C 243.656 -1.67093 -1.13685 0
M  V30 2545 C 243.977 -0.411011 -1.90619 0
M  V30 2546 O 243.247 0.574491 -1.87287 0
M  V30 2547 H 241.827 -0.615923 -0.422668 0
M  V30 2548 H 244.489 -1.89704 -0.447039 0
M  V30 2549 H 243.585 -2.51922 -1.84232 0
M  V30 2550 N 243.887 0.651787 -1.4349 0
M  V30 2551 C 244.85 1.74647 -1.48429 0
M  V30 2552 C 245.85 1.56513 -0.368817 0
M  V30 2553 O 247.04 1.62385 -0.630623 0
M  V30 2554 C 244.172 3.13533 -1.33827 0
M  V30 2555 H 245.365 1.71649 -2.4592 0
M  V30 2556 H 242.918 0.863573 -1.30277 0
M  V30 2557 H 243.653 3.22142 -0.37349 0
M  V30 2558 H 243.438 3.28101 -2.14691 0
M  V30 2559 H 244.928 3.93356 -1.40218 0
M  V30 2560 N 245.365 1.30045 0.890287 0
M  V30 2561 C 246.611 1.19747 1.64415 0
M  V30 2562 C 246.966 -0.246591 1.90813 0
M  V30 2563 O 246.259 -1.174 1.51419 0
M  V30 2564 C 246.453 1.95409 2.99249 0
M  V30 2565 C 246.282 3.47025 2.86013 0
M  V30 2566 C 245.052 4.1638 2.86279 0
M  V30 2567 C 247.25 4.42353 2.62351 0
M  V30 2568 N 245.232 5.54293 2.63879 0
M  V30 2569 C 246.603 5.67792 2.49022 0
M  V30 2570 C 248.658 4.32009 2.47533 0
M  V30 2571 C 247.361 6.8406 2.22383 0
M  V30 2572 C 249.387 5.48038 2.22279 0
M  V30 2573 C 248.749 6.72455 2.09722 0
M  V30 2574 H 244.848 0.493223 0.60684 0
M  V30 2575 H 247.432 1.6399 1.04954 0
M  V30 2576 H 245.603 1.53565 3.56752 0
M  V30 2577 H 247.335 1.77298 3.63796 0
M  V30 2578 H 244.09 3.68164 2.97913 0
M  V30 2579 H 244.514 6.26852 2.55706 0
M  V30 2580 H 249.156 3.36503 2.55979 0
M  V30 2581 H 246.874 7.79612 2.12675 0
M  V30 2582 H 250.46 5.41939 2.11643 0
M  V30 2583 H 249.34 7.60722 1.90453 0
M  V30 2584 N 246.843 -1.10192 1.12674 0
M  V30 2585 C 247.773 -2.18652 0.819362 0
M  V30 2586 C 248.754 -1.68698 -0.217915 0
M  V30 2587 O 249.939 -1.94041 -0.0785581 0
M  V30 2588 C 247.069 -3.46202 0.27594 0
M  V30 2589 C 246.023 -4.09444 1.24656 0
M  V30 2590 C 245.349 -5.31725 0.563258 0
M  V30 2591 C 246.649 -4.52863 2.60217 0
M  V30 2592 H 248.343 -2.44622 1.72628 0
M  V30 2593 H 245.889 -1.17571 0.831451 0
M  V30 2594 H 247.842 -4.21372 0.0486149 0
M  V30 2595 H 246.566 -3.1973 -0.666331 0
M  V30 2596 H 245.225 -3.36284 1.45974 0
M  V30 2597 H 244.873 -5.0153 -0.384235 0
M  V30 2598 H 244.573 -5.74991 1.21075 0
M  V30 2599 H 246.097 -6.09624 0.34503 0
M  V30 2600 H 247.511 -5.19294 2.42913 0
M  V30 2601 H 245.908 -5.06986 3.21068 0
M  V30 2602 H 246.978 -3.65656 3.18471 0
M  V30 2603 N 248.321 -0.919034 -1.28029 0
M  V30 2604 C 249.737 -0.617972 -1.4715 0
M  V30 2605 C 249.937 0.835242 -1.83374 0
M  V30 2606 O 248.993 1.61388 -1.94191 0
M  V30 2607 C 250.306 -1.56041 -2.57044 0
M  V30 2608 C 251.854 -1.56769 -2.7091 0
M  V30 2609 C 252.329 -2.49688 -3.83953 0
M  V30 2610 N 253.82 -2.47845 -3.91314 0
M  V30 2611 C 254.555 -3.16437 -4.78179 0
M  V30 2612 N 254.051 -3.94376 -5.69596 0
M  V30 2613 N 255.844 -3.05498 -4.71834 0
M  V30 2614 H 247.995 -1.85866 -1.02798 0
M  V30 2615 H 250.258 -0.797506 -0.512531 0
M  V30 2616 H 249.964 -2.59671 -2.372 0
M  V30 2617 H 249.838 -1.29551 -3.54255 0
M  V30 2618 H 252.225 -0.538745 -2.90141 0
M  V30 2619 H 252.306 -1.87305 -1.74214 0
M  V30 2620 H 251.95 -3.52688 -3.65477 0
M  V30 2621 H 251.88 -2.16453 -4.80058 0
M  V30 2622 H 254.371 -1.91234 -3.25941 0
M  V30 2623 H 254.684 -4.43721 -6.32718 0
M  V30 2624 H 253.029 -3.98481 -5.69419 0
M  V30 2625 H 256.22 -2.44108 -3.99411 0
M  V30 2626 H 256.393 -3.59225 -5.39316 0
M  V30 2627 N 249.799 1.42003 -0.683588 0
M  V30 2628 C 251.045 2.01712 -0.209825 0
M  V30 2629 C 251.378 1.53968 1.18353 0
M  V30 2630 O 250.653 0.745661 1.79639 0
M  V30 2631 C 250.936 3.59202 -0.254197 0
M  V30 2632 C 250.789 4.17102 -1.68363 0
M  V30 2633 C 252.108 4.38344 0.392709 0
M  V30 2634 H 249.227 0.732891 -0.0777189 0
M  V30 2635 H 251.869 1.68909 -0.87004 0
M  V30 2636 H 250.019 3.87278 0.307954 0
M  V30 2637 H 251.691 3.99946 -2.29871 0
M  V30 2638 H 249.934 3.72597 -2.22157 0
M  V30 2639 H 250.605 5.26249 -1.6663 0
M  V30 2640 H 253.081 4.16011 -0.0859162 0
M  V30 2641 H 251.957 5.47901 0.331063 0
M  V30 2642 H 252.218 4.16887 1.47164 0
M  V30 2643 N 251.277 0.427512 1.51691 0
M  V30 2644 C 252.523 -0.142439 2.02299 0
M  V30 2645 C 252.856 -1.43214 1.31162 0
M  V30 2646 O 252.131 -1.89833 0.423511 0
M  V30 2647 C 252.414 -0.371301 3.58181 0
M  V30 2648 C 252.267 0.936358 4.39946 0
M  V30 2649 C 253.586 -1.14542 4.24933 0
M  V30 2650 H 250.705 -0.0502937 0.735282 0
M  V30 2651 H 253.347 0.564584 1.81418 0
M  V30 2652 H 251.497 -0.973559 3.76104 0
M  V30 2653 H 253.169 1.57184 4.33694 0
M  V30 2654 H 251.412 1.5432 4.05423 0
M  V30 2655 H 252.083 0.730388 5.47147 0
M  V30 2656 H 254.559 -0.635362 4.11221 0
M  V30 2657 H 253.435 -1.27431 5.33903 0
M  V30 2658 H 253.696 -2.17093 3.85127 0
M  V30 2659 N 252.755 -1.56801 0.158532 0
M  V30 2660 C 253.685 -2.20347 -0.772609 0
M  V30 2661 C 254.666 -1.15518 -1.24859 0
M  V30 2662 O 255.851 -1.43902 -1.30406 0
M  V30 2663 C 252.981 -2.83417 -2.00729 0
M  V30 2664 C 251.935 -3.94174 -1.66765 0
M  V30 2665 C 251.261 -4.44233 -2.97592 0
M  V30 2666 C 252.561 -5.14392 -0.905447 0
M  V30 2667 H 254.255 -2.98413 -0.242959 0
M  V30 2668 H 251.801 -1.43537 -0.115419 0
M  V30 2669 H 253.754 -3.26543 -2.6636 0
M  V30 2670 H 252.478 -2.02701 -2.56086 0
M  V30 2671 H 251.137 -3.51684 -1.03508 0
M  V30 2672 H 250.785 -3.60325 -3.50963 0
M  V30 2673 H 250.485 -5.18945 -2.75626 0
M  V30 2674 H 252.009 -4.90037 -3.64274 0
M  V30 2675 H 253.423 -5.5429 -1.46408 0
M  V30 2676 H 251.82 -5.9494 -0.7853 0
M  V30 2677 H 252.89 -4.84795 0.100668 0
M  V30 2678 N 254.233 0.115231 -1.57178 0
M  V30 2679 C 255.143 1.15994 -2.03918 0
M  V30 2680 C 256.159 1.45103 -0.960268 0
M  V30 2681 O 257.335 1.56144 -1.27204 0
M  V30 2682 C 254.4 2.46568 -2.43732 0
M  V30 2683 C 253.461 2.24822 -3.65723 0
M  V30 2684 C 252.694 3.4917 -4.03629 0
M  V30 2685 O 252.917 4.56623 -3.41835 0
M  V30 2686 O 251.851 3.39949 -4.96708 0
M  V30 2687 H 255.677 0.793019 -2.93164 0
M  V30 2688 H 253.262 0.3263 -1.45793 0
M  V30 2689 H 255.144 3.23492 -2.70057 0
M  V30 2690 H 253.819 2.82726 -1.57631 0
M  V30 2691 H 252.726 1.45744 -3.44542 0
M  V30 2692 H 254.059 1.93566 -4.52541 0
M  V30 2693 N 255.711 1.52812 0.385517 0
M  V30 2694 C 256.658 1.77838 1.47113 0
M  V30 2695 C 257.628 0.621757 1.54024 0
M  V30 2696 O 258.813 0.861846 1.70226 0
M  V30 2697 C 255.953 1.95618 2.84302 0
M  V30 2698 C 255.066 3.23316 2.86515 0
M  V30 2699 C 254.201 3.31394 4.15152 0
M  V30 2700 C 253.24 4.53201 4.1143 0
M  V30 2701 N 252.377 4.58542 5.3168 0
M  V30 2702 H 257.217 2.70482 1.25073 0
M  V30 2703 H 254.754 1.34006 0.606692 0
M  V30 2704 H 256.712 2.03912 3.63972 0
M  V30 2705 H 255.342 1.06331 3.04784 0
M  V30 2706 H 254.394 3.24076 1.99195 0
M  V30 2707 H 255.706 4.13045 2.79634 0
M  V30 2708 H 254.86 3.3889 5.03228 0
M  V30 2709 H 253.599 2.39645 4.24761 0
M  V30 2710 H 252.604 4.45827 3.21742 0
M  V30 2711 H 253.829 5.46271 4.03442 0
M  V30 2712 H 251.775 3.69686 5.41912 0
M  V30 2713 H 251.692 5.42148 5.26889 0
M  V30 2714 H 252.96 4.70296 6.21644 0
M  V30 2715 N 257.189 -0.644168 1.43834 0
M  V30 2716 C 258.6 -1.22554 1.40845 0
M  V30 2717 C 258.951 -1.9585 0.117115 0
M  V30 2718 O 258.076 -2.01734 -0.783086 0
M  V30 2719 C 258.671 -2.22907 2.55143 0
M  V30 2720 C 257.23 -2.76501 2.5539 0
M  V30 2721 C 256.377 -1.51287 2.32396 0
M  V30 2722 H 259.328 -0.43563 1.52604 0
M  V30 2723 H 259.349 -3.05259 2.2715 0
M  V30 2724 H 258.861 -1.69533 3.49114 0
M  V30 2725 H 256.962 -3.33914 1.65324 0
M  V30 2726 H 257.075 -3.23429 3.53455 0
M  V30 2727 H 255.439 -1.78957 1.81236 0
M  V30 2728 H 256.222 -0.998336 3.28463 0
M  V30 2729 N 258.668 -1.30515 -0.883378 0
M  V30 2730 C 259.915 -1.1943 -1.63532 0
M  V30 2731 C 260.243 0.250627 -1.92878 0
M  V30 2732 O 259.498 1.19556 -1.54935 0
M  V30 2733 C 259.797 -1.96994 -2.98209 0
M  V30 2734 C 259.463 -3.466 -2.88408 0
M  V30 2735 C 258.125 -3.87397 -2.85442 0
M  V30 2736 C 260.477 -4.41863 -2.76418 0
M  V30 2737 C 257.805 -5.21745 -2.68327 0
M  V30 2738 C 260.157 -5.7632 -2.60841 0
M  V30 2739 C 258.821 -6.16354 -2.56251 0
M  V30 2740 H 258.091 -0.437025 -0.598406 0
M  V30 2741 H 260.738 -1.61635 -1.02696 0
M  V30 2742 H 259.043 -1.47429 -3.63004 0
M  V30 2743 H 260.74 -1.85808 -3.55354 0
M  V30 2744 H 257.33 -3.14182 -2.91527 0
M  V30 2745 H 261.514 -4.11285 -2.77775 0
M  V30 2746 H 256.77 -5.51853 -2.63189 0
M  V30 2747 H 260.944 -6.49772 -2.50538 0
M  V30 2748 H 258.571 -7.20401 -2.42748 0
M  V30 2749 N 260.146 1.09593 -1.13257 0
M  V30 2750 C 261.394 1.81375 -0.891492 0
M  V30 2751 C 261.715 1.86049 0.584009 0
M  V30 2752 O 260.985 1.34481 1.42449 0
M  V30 2753 H 259.565 0.671708 -0.326828 0
M  V30 2754 H 262.227 1.3256 -1.42877 0
M  V30 2755 H 261.323 2.84612 -1.28071 0
M  V30 2756 N 261.624 0.925811 1.2754 0
M  V30 2757 C 262.574 0.394488 2.24561 0
M  V30 2758 C 263.558 -0.500183 1.52928 0
M  V30 2759 O 264.75 -0.337936 1.73744 0
M  V30 2760 C 261.879 -0.353328 3.41477 0
M  V30 2761 C 260.965 0.557752 4.20416 0
M  V30 2762 N 261.356 1.67674 4.77199 0
M  V30 2763 C 259.654 0.360404 4.44541 0
M  V30 2764 C 260.355 2.24324 5.36706 0
M  V30 2765 N 259.331 1.53305 5.21535 0
M  V30 2766 H 263.133 1.2489 2.66045 0
M  V30 2767 H 260.647 0.779864 1.4245 0
M  V30 2768 H 262.644 -0.7509 4.10082 0
M  V30 2769 H 261.304 -1.20469 3.01525 0
M  V30 2770 H 262.315 2.05915 4.75204 0
M  V30 2771 H 258.992 -0.450454 4.15063 0
M  V30 2772 H 260.382 3.18521 5.91603 0
M  V30 2773 N 263.102 -1.41638 0.69111 0
M  V30 2774 C 264.379 -1.95036 0.148421 0
M  V30 2775 C 264.759 -1.63072 -1.34055 0
M  V30 2776 O 264.107 -0.93538 -2.08478 0
M  V30 2777 C 264.317 -3.46279 0.434951 0
M  V30 2778 C 265.665 -4.23069 0.360275 0
M  V30 2779 O 266.689 -3.54277 0.369613 0
M  V30 2780 O 265.548 -5.45583 0.316534 0
M  V30 2781 H 262.642 -0.826908 0.0123654 0
M  V30 2782 H 265.188 -1.5138 0.766963 0
M  V30 2783 H 263.96 -3.6281 1.46576 0
M  V30 2784 H 263.583 -3.97019 -0.214787 0
M  V30 2785 N 264.58 -0.43555 -1.51462 0
M  V30 2786 C 265.53 0.394701 -2.24558 0
M  V30 2787 C 266.514 0.99157 -1.26715 0
M  V30 2788 O 267.706 0.910007 -1.51815 0
M  V30 2789 C 264.835 1.4963 -3.08975 0
M  V30 2790 C 263.921 0.908912 -4.14246 0
M  V30 2791 N 264.312 0.0505335 -5.05775 0
M  V30 2792 C 262.61 1.17668 -4.30198 0
M  V30 2793 C 263.311 -0.279161 -5.8103 0
M  V30 2794 N 262.287 0.336767 -5.42556 0
M  V30 2795 H 266.089 -0.267106 -2.92684 0
M  V30 2796 H 263.603 -0.247518 -1.60503 0
M  V30 2797 H 265.6 2.10394 -3.59917 0
M  V30 2798 H 264.26 2.16046 -2.42393 0
M  V30 2799 H 265.271 -0.31577 -5.16936 0
M  V30 2800 H 261.948 1.83847 -3.74842 0
M  V30 2801 H 263.338 -0.977553 -6.64751 0
M  V30 2802 N 266.058 1.56714 -0.166846 0
M  V30 2803 C 267.305 1.96747 0.479252 0
M  V30 2804 C 267.633 1.05263 1.63554 0
M  V30 2805 O 266.888 0.0858098 1.95512 0
M  V30 2806 C 267.187 3.42889 1.00806 0
M  V30 2807 C 266.853 4.50889 -0.0318574 0
M  V30 2808 C 265.515 4.8015 -0.317675 0
M  V30 2809 C 267.867 5.15949 -0.737956 0
M  V30 2810 C 265.195 5.71772 -1.31506 0
M  V30 2811 C 267.547 6.08647 -1.72429 0
M  V30 2812 C 266.211 6.36277 -2.0176 0
M  V30 2813 H 265.481 0.719949 0.175371 0
M  V30 2814 H 268.128 1.89756 -0.257864 0
M  V30 2815 H 266.433 3.4681 1.82291 0
M  V30 2816 H 268.13 3.71203 1.51689 0
M  V30 2817 H 264.72 4.28128 0.201088 0
M  V30 2818 H 268.904 4.93458 -0.530351 0
M  V30 2819 H 264.16 5.91465 -1.54853 0
M  V30 2820 H 268.334 6.58129 -2.27682 0
M  V30 2821 H 265.961 7.07075 -2.79194 0
M  V30 2822 N 267.536 -0.106894 1.57237 0
M  V30 2823 C 268.761 -0.830287 1.90055 0
M  V30 2824 C 269.186 -1.72064 0.75998 0
M  V30 2825 O 268.544 -1.78982 -0.288991 0
M  V30 2826 C 268.592 -1.6295 3.21683 0
M  V30 2827 O 267.696 -2.73748 3.08441 0
M  V30 2828 H 267.037 -0.228855 0.623315 0
M  V30 2829 H 269.567 -0.085658 2.04421 0
M  V30 2830 H 269.577 -2.01621 3.54701 0
M  V30 2831 H 268.252 -0.975989 4.04286 0
M  V30 2832 H 266.829 -2.38192 2.86913 0
M  V30 2833 N 269.014 -1.53014 -0.377408 0
M  V30 2834 C 269.977 -1.77957 -1.44444 0
M  V30 2835 C 270.977 -0.649763 -1.47087 0
M  V30 2836 O 272.167 -0.917897 -1.48055 0
M  V30 2837 C 269.299 -1.89089 -2.83651 0
M  V30 2838 H 270.492 -2.73243 -1.23606 0
M  V30 2839 H 268.045 -1.43912 -0.609844 0
M  V30 2840 H 268.78 -0.958293 -3.09818 0
M  V30 2841 H 268.565 -2.71254 -2.83132 0
M  V30 2842 H 270.055 -2.1002 -3.60945 0
M  V30 2843 N 270.492 0.636531 -1.44174 0
M  V30 2844 C 271.424 1.7618 -1.46606 0
M  V30 2845 C 272.437 1.58768 -0.360091 0
M  V30 2846 O 273.626 1.67181 -0.625518 0
M  V30 2847 C 270.726 3.13833 -1.27915 0
M  V30 2848 C 269.899 3.57753 -2.51658 0
M  V30 2849 C 268.958 4.74265 -2.27945 0
M  V30 2850 O 267.984 4.82852 -3.01401 0
M  V30 2851 N 269.186 5.65604 -1.30662 0
M  V30 2852 H 271.951 1.74567 -2.43612 0
M  V30 2853 H 269.512 0.820924 -1.39544 0
M  V30 2854 H 271.504 3.8949 -1.09907 0
M  V30 2855 H 270.074 3.10121 -0.39293 0
M  V30 2856 H 269.294 2.72362 -2.84978 0
M  V30 2857 H 270.582 3.83847 -3.33974 0
M  V30 2858 H 269.98 5.61354 -0.699844 0
M  V30 2859 H 268.537 6.40913 -1.18634 0
M  V30 2860 N 271.97 1.30982 0.876444 0
M  V30 2861 C 272.902 1.13902 1.98894 0
M  V30 2862 C 273.915 0.0798815 1.62604 0
M  V30 2863 O 275.104 0.326743 1.75484 0
M  V30 2864 C 272.204 0.716699 3.31235 0
M  V30 2865 C 271.377 1.85945 3.95908 0
M  V30 2866 C 270.436 1.42426 5.06558 0
M  V30 2867 O 269.462 2.13287 5.27729 0
M  V30 2868 N 270.664 0.308025 5.79682 0
M  V30 2869 H 273.429 2.09724 2.14094 0
M  V30 2870 H 270.99 1.2323 1.05004 0
M  V30 2871 H 272.982 0.408403 4.02634 0
M  V30 2872 H 271.552 -0.149719 3.12241 0
M  V30 2873 H 270.772 2.33541 3.17573 0
M  V30 2874 H 272.06 2.62503 4.35855 0
M  V30 2875 H 271.458 -0.282241 5.64995 0
M  V30 2876 H 270.015 0.0592282 6.51773 0
M  V30 2877 N 273.449 -1.08991 1.13837 0
M  V30 2878 C 274.379 -2.17771 0.842507 0
M  V30 2879 C 275.36 -1.6892 -0.20001 0
M  V30 2880 O 276.545 -1.94113 -0.0579731 0
M  V30 2881 C 273.675 -3.4589 0.312644 0
M  V30 2882 C 272.629 -4.08099 1.28992 0
M  V30 2883 C 271.955 -5.31098 0.619623 0
M  V30 2884 C 273.255 -4.50077 2.65005 0
M  V30 2885 H 274.949 -2.42777 1.75213 0
M  V30 2886 H 272.495 -1.16682 0.843875 0
M  V30 2887 H 274.448 -4.21297 0.0933043 0
M  V30 2888 H 273.172 -3.20419 -0.632382 0
M  V30 2889 H 271.831 -3.34717 1.49533 0
M  V30 2890 H 271.479 -5.0191 -0.33102 0
M  V30 2891 H 271.179 -5.73674 1.27167 0
M  V30 2892 H 272.703 -6.09224 0.409669 0
M  V30 2893 H 274.117 -5.16688 2.48407 0
M  V30 2894 H 272.514 -5.03553 3.26427 0
M  V30 2895 H 273.584 -3.62257 3.22332 0
M  V30 2896 N 274.927 -0.932562 -1.27047 0
M  V30 2897 C 275.89 -0.440064 -2.24936 0
M  V30 2898 C 276.89 0.444071 -1.54547 0
M  V30 2899 O 278.08 0.244465 -1.72476 0
M  V30 2900 C 275.212 0.36678 -3.38921 0
M  V30 2901 H 276.405 -1.305 -2.70018 0
M  V30 2902 H 273.958 -0.713707 -1.39054 0
M  V30 2903 H 274.693 1.25033 -2.99228 0
M  V30 2904 H 274.478 -0.267204 -3.91188 0
M  V30 2905 H 275.968 0.701567 -4.11665 0
M  V30 2906 N 276.405 1.4127 -0.698611 0
M  V30 2907 C 277.633 2.05503 -0.239992 0
M  V30 2908 C 278.048 1.52584 1.11191 0
M  V30 2909 O 277.405 0.675323 1.69545 0
M  V30 2910 C 277.456 3.60987 -0.192429 0
M  V30 2911 O 277.177 4.1195 -1.49094 0
M  V30 2912 C 278.678 4.42371 0.28681 0
M  V30 2913 H 275.898 0.661748 -0.111045 0
M  V30 2914 H 278.442 1.80987 -0.95205 0
M  V30 2915 H 276.597 3.84533 0.470472 0
M  V30 2916 H 277.011 5.06018 -1.38007 0
M  V30 2917 H 278.485 5.51344 0.26896 0
M  V30 2918 H 278.962 4.18699 1.32619 0
M  V30 2919 H 279.568 4.23897 -0.345201 0
M  V30 2920 N 277.883 0.443576 1.51229 0
M  V30 2921 C 278.793 -0.370721 2.31652 0
M  V30 2922 C 279.809 -1.02186 1.40833 0
M  V30 2923 O 280.985 -1.01586 1.73903 0
M  V30 2924 C 278.05 -1.45376 3.14749 0
M  V30 2925 C 277.111 -0.822099 4.21355 0
M  V30 2926 C 276.344 -1.85353 5.0048 0
M  V30 2927 O 276.567 -3.07656 4.80316 0
M  V30 2928 O 275.501 -1.4406 5.84406 0
M  V30 2929 H 279.327 0.286002 3.0235 0
M  V30 2930 H 276.912 0.20598 1.47973 0
M  V30 2931 H 278.794 -2.08173 3.66391 0
M  V30 2932 H 277.469 -2.09445 2.46809 0
M  V30 2933 H 276.376 -0.155909 3.73775 0
M  V30 2934 H 277.709 -0.224797 4.91686 0
M  V30 2935 N 279.361 -1.56624 0.175154 0
M  V30 2936 C 280.291 -2.21155 -0.749195 0
M  V30 2937 C 281.272 -1.16836 -1.23626 0
M  V30 2938 O 282.457 -1.45277 -1.28873 0
M  V30 2939 C 279.587 -2.8553 -1.97711 0
M  V30 2940 C 278.541 -3.95921 -1.62575 0
M  V30 2941 C 277.867 -4.47365 -2.92864 0
M  V30 2942 C 279.167 -5.15323 -0.850838 0
M  V30 2943 H 280.861 -2.98653 -0.211295 0
M  V30 2944 H 278.407 -1.43651 -0.100188 0
M  V30 2945 H 280.36 -3.2935 -2.62881 0
M  V30 2946 H 279.084 -2.05406 -2.53921 0
M  V30 2947 H 277.743 -3.52762 -0.997719 0
M  V30 2948 H 277.391 -3.64027 -3.47122 0
M  V30 2949 H 277.091 -5.21839 -2.70106 0
M  V30 2950 H 278.615 -4.93873 -3.59056 0
M  V30 2951 H 280.029 -5.55812 -1.40521 0
M  V30 2952 H 278.426 -5.95739 -0.722154 0
M  V30 2953 H 279.496 -4.84661 0.152082 0
M  V30 2954 N 280.839 0.0985539 -1.57292 0
M  V30 2955 C 282.087 0.801092 -1.85545 0
M  V30 2956 C 282.408 1.79438 -0.763353 0
M  V30 2957 O 281.678 1.94763 0.21073 0
M  V30 2958 H 280.258 0.29884 -0.684619 0
M  V30 2959 H 282.92 0.0810064 -1.94732 0
M  V30 2960 H 282.016 1.3338 -2.82163 0
M  V30 2961 N 282.317 1.53212 0.369288 0
M  V30 2962 C 283.545 1.73119 1.13303 0
M  V30 2963 C 283.96 0.458455 1.83149 0
M  V30 2964 O 283.317 -0.568403 1.73423 0
M  V30 2965 C 283.368 2.89413 2.16616 0
M  V30 2966 O 283.089 4.11761 1.49614 0
M  V30 2967 C 284.59 3.21161 3.05566 0
M  V30 2968 H 281.81 0.579107 0.338934 0
M  V30 2969 H 284.354 1.99942 0.429338 0
M  V30 2970 H 282.509 2.64994 2.82589 0
M  V30 2971 H 282.923 4.76858 2.18419 0
M  V30 2972 H 284.397 4.05949 3.74045 0
M  V30 2973 H 284.874 2.36369 3.70171 0
M  V30 2974 H 285.48 3.47492 2.45213 0
M  V30 2975 N 283.795 -0.628877 1.44509 0
M  V30 2976 C 285.042 -1.38839 1.47411 0
M  V30 2977 C 285.37 -1.94202 0.10757 0
M  V30 2978 O 284.625 -1.74243 -0.890947 0
M  V30 2979 C 284.924 -2.56995 2.48371 0
M  V30 2980 C 284.59 -2.19908 3.93639 0
M  V30 2981 C 283.252 -2.09506 4.33198 0
M  V30 2982 C 285.604 -1.9064 4.85083 0
M  V30 2983 C 282.932 -1.68028 5.62124 0
M  V30 2984 C 285.284 -1.50655 6.14399 0
M  V30 2985 C 283.948 -1.38796 6.5291 0
M  V30 2986 H 283.218 -0.508048 0.539414 0
M  V30 2987 H 285.865 -0.712913 1.77735 0
M  V30 2988 H 284.17 -3.29786 2.11538 0
M  V30 2989 H 285.867 -3.15223 2.47861 0
M  V30 2990 H 282.457 -2.28922 3.62343 0
M  V30 2991 H 286.641 -1.97585 4.55273 0
M  V30 2992 H 281.897 -1.57452 5.90778 0
M  V30 2993 H 286.071 -1.27048 6.84713 0
M  V30 2994 H 283.698 -1.06429 7.52713 0
M  V30 2995 N 285.273 -1.31445 -0.869486 0
M  V30 2996 C 286.52 -1.21158 -1.62256 0
M  V30 2997 C 286.848 0.230155 -1.93133 0
M  V30 2998 O 286.103 1.17906 -1.56194 0
M  V30 2999 C 286.402 -2.00145 -2.96102 0
M  V30 3000 C 286.068 -3.4964 -2.84715 0
M  V30 3001 C 284.73 -3.90403 -2.81317 0
M  V30 3002 C 287.082 -4.44769 -2.71716 0
M  V30 3003 C 284.41 -5.24561 -2.62778 0
M  V30 3004 C 286.762 -5.79054 -2.54714 0
M  V30 3005 C 285.426 -6.19037 -2.49699 0
M  V30 3006 H 284.696 -0.443348 -0.593737 0
M  V30 3007 H 287.343 -1.62715 -1.00976 0
M  V30 3008 H 285.648 -1.5127 -3.6142 0
M  V30 3009 H 287.345 -1.89566 -3.53363 0
M  V30 3010 H 283.935 -3.17256 -2.88178 0
M  V30 3011 H 288.119 -4.14208 -2.73397 0
M  V30 3012 H 283.375 -5.54613 -2.57321 0
M  V30 3013 H 287.549 -6.52393 -2.43632 0
M  V30 3014 H 285.176 -7.22935 -2.35093 0
M  V30 3015 N 286.751 1.08385 -1.14413 0
M  V30 3016 C 287.683 2.1519 -0.789036 0
M  V30 3017 C 288.696 1.61638 0.19417 0
M  V30 3018 O 289.885 1.78479 -0.0275711 0
M  V30 3019 C 286.985 3.38565 -0.15058 0
M  V30 3020 C 286.158 4.21501 -1.16857 0
M  V30 3021 C 285.217 5.23277 -0.553832 0
M  V30 3022 O 284.243 5.56041 -1.21686 0
M  V30 3023 N 285.445 5.76629 0.669296 0
M  V30 3024 H 288.21 2.46257 -1.70814 0
M  V30 3025 H 285.771 1.24198 -1.03858 0
M  V30 3026 H 287.763 4.03777 0.273181 0
M  V30 3027 H 286.333 3.05299 0.671667 0
M  V30 3028 H 285.553 3.52265 -1.76926 0
M  V30 3029 H 286.841 4.73731 -1.85624 0
M  V30 3030 H 286.239 5.52243 1.22654 0
M  V30 3031 H 284.796 6.43521 1.03556 0
M  V30 3032 N 288.23 0.939286 1.26551 0
M  V30 3033 C 289.14 0.453432 2.30176 0
M  V30 3034 C 290.156 -0.471649 1.67486 0
M  V30 3035 O 291.332 -0.35164 1.98306 0
M  V30 3036 C 288.397 -0.275326 3.45605 0
M  V30 3037 C 287.458 0.686084 4.23782 0
M  V30 3038 C 286.691 -0.00798994 5.33699 0
M  V30 3039 O 286.914 -1.22528 5.57085 0
M  V30 3040 O 285.848 0.669746 5.98162 0
M  V30 3041 H 289.674 1.31416 2.73795 0
M  V30 3042 H 287.259 0.705095 1.31715 0
M  V30 3043 H 289.141 -0.685911 4.1578 0
M  V30 3044 H 287.816 -1.11147 3.0402 0
M  V30 3045 H 286.723 1.14658 3.56096 0
M  V30 3046 H 288.056 1.48979 4.69112 0
M  V30 3047 N 289.708 -1.40897 0.706093 0
M  V30 3048 C 290.618 -2.3455 0.0482286 0
M  V30 3049 C 291.634 -1.56796 -0.754396 0
M  V30 3050 O 292.81 -1.89228 -0.689538 0
M  V30 3051 C 289.875 -3.35625 -0.869303 0
M  V30 3052 C 288.936 -4.29261 -0.0576994 0
M  V30 3053 C 288.169 -5.25508 -0.931531 0
M  V30 3054 O 288.392 -5.27472 -2.17092 0
M  V30 3055 O 287.326 -6.00727 -0.375587 0
M  V30 3056 H 291.152 -2.92407 0.820476 0
M  V30 3057 H 288.737 -1.4193 0.4665 0
M  V30 3058 H 290.619 -3.97635 -1.39514 0
M  V30 3059 H 289.294 -2.80196 -1.62086 0
M  V30 3060 H 288.201 -3.70566 0.512988 0
M  V30 3061 H 289.534 -4.87817 0.655426 0
M  V30 3062 N 291.186 -0.45159 -1.50991 0
M  V30 3063 C 292.096 0.358431 -2.31846 0
M  V30 3064 C 293.112 1.01438 -1.41373 0
M  V30 3065 O 294.288 1.00663 -1.74439 0
M  V30 3066 C 291.353 1.43704 -3.15515 0
M  V30 3067 C 290.414 0.799742 -4.21785 0
M  V30 3068 C 289.647 1.82696 -5.01456 0
M  V30 3069 O 289.87 3.05105 -4.81941 0
M  V30 3070 O 288.804 1.40958 -5.85162 0
M  V30 3071 H 292.63 -0.302032 -3.02194 0
M  V30 3072 H 290.215 -0.213825 -1.47862 0
M  V30 3073 H 292.097 2.06227 -3.67489 0
M  V30 3074 H 290.772 2.08133 -2.47916 0
M  V30 3075 H 289.679 0.136084 -3.73852 0
M  V30 3076 H 291.012 0.198718 -4.91799 0
M  V30 3077 N 292.664 1.56529 -0.183458 0
M  V30 3078 C 293.597 2.14417 0.781052 0
M  V30 3079 C 294.575 1.07761 1.21763 0
M  V30 3080 O 295.759 1.35807 1.30724 0
M  V30 3081 C 292.886 2.69361 2.05335 0
M  V30 3082 C 291.932 3.885 1.75982 0
M  V30 3083 S 292.765 5.27568 0.918256 0
M  V30 3084 C 293.921 5.85926 2.20095 0
M  V30 3085 H 294.154 2.95893 0.2889 0
M  V30 3086 H 291.687 1.54368 0.0313844 0
M  V30 3087 H 293.645 3.01662 2.78406 0
M  V30 3088 H 292.306 1.87949 2.51663 0
M  V30 3089 H 291.499 4.25314 2.70415 0
M  V30 3090 H 291.101 3.57149 1.10999 0
M  V30 3091 H 293.393 5.99579 3.15453 0
M  V30 3092 H 294.336 6.82761 1.87731 0
M  V30 3093 H 294.744 5.14438 2.32409 0
M  V30 3094 N 294.142 -0.090211 1.57342 0
M  V30 3095 C 295.372 -0.805055 1.90269 0
M  V30 3096 C 295.78 -1.72561 0.775842 0
M  V30 3097 O 295.123 -1.81839 -0.260843 0
M  V30 3098 C 295.185 -1.66734 3.18497 0
M  V30 3099 C 294.849 -0.918092 4.47683 0
M  V30 3100 C 295.846 -0.245674 5.19319 0
M  V30 3101 C 293.531 -0.890724 4.94339 0
M  V30 3102 C 295.525 0.444088 6.35851 0
M  V30 3103 C 293.212 -0.197179 6.10782 0
M  V30 3104 C 294.21 0.469044 6.81388 0
M  V30 3105 O 293.898 1.15146 7.95611 0
M  V30 3106 H 293.63 -0.235143 0.633785 0
M  V30 3107 H 296.184 -0.0703805 2.05279 0
M  V30 3108 H 294.414 -2.44437 2.99646 0
M  V30 3109 H 296.103 -2.25919 3.37217 0
M  V30 3110 H 296.869 -0.258246 4.84312 0
M  V30 3111 H 292.748 -1.39873 4.39268 0
M  V30 3112 H 296.292 0.964667 6.90898 0
M  V30 3113 H 292.189 -0.18247 6.45242 0
M  V30 3114 H 292.957 1.05885 8.11622 0
M  V30 3115 N 295.62 -1.53406 -0.361157 0
M  V30 3116 C 297.036 -1.43277 -0.703124 0
M  V30 3117 C 297.236 -0.575384 -1.9311 0
M  V30 3118 O 296.292 -0.0595362 -2.5243 0
M  V30 3119 C 297.605 -2.8653 -0.9122 0
M  V30 3120 C 299.153 -2.96191 -1.01193 0
M  V30 3121 C 299.628 -4.40514 -1.25345 0
M  V30 3122 N 301.119 -4.43962 -1.32105 0
M  V30 3123 C 301.854 -5.52746 -1.5251 0
M  V30 3124 N 301.35 -6.71567 -1.70203 0
M  V30 3125 N 303.143 -5.40331 -1.54916 0
M  V30 3126 H 295.294 -2.07654 0.446475 0
M  V30 3127 H 297.557 -0.937944 0.137715 0
M  V30 3128 H 297.263 -3.51605 -0.0816414 0
M  V30 3129 H 297.137 -3.30441 -1.81903 0
M  V30 3130 H 299.524 -2.31266 -1.83303 0
M  V30 3131 H 299.605 -2.55667 -0.0823929 0
M  V30 3132 H 299.249 -5.06014 -0.437346 0
M  V30 3133 H 299.179 -4.78614 -2.19627 0
M  V30 3134 H 301.67 -3.58332 -1.20028 0
M  V30 3135 H 301.983 -7.50241 -1.85359 0
M  V30 3136 H 300.328 -6.74545 -1.67373 0
M  V30 3137 H 303.519 -4.46465 -1.40663 0
M  V30 3138 H 303.692 -6.25173 -1.70477 0
M  V30 3139 N 297.098 0.621204 -1.44841 0
M  V30 3140 C 298.344 1.3826 -1.48365 0
M  V30 3141 C 298.677 1.93831 -0.119624 0
M  V30 3142 O 297.952 1.74251 0.864111 0
M  V30 3143 C 298.235 2.54058 -2.55199 0
M  V30 3144 C 298.088 2.03772 -4.00995 0
M  V30 3145 C 299.407 3.56225 -2.58442 0
M  V30 3146 H 296.526 0.501374 -0.540179 0
M  V30 3147 H 299.168 0.7015 -1.76576 0
M  V30 3148 H 297.318 3.12162 -2.31274 0
M  V30 3149 H 298.99 1.50423 -4.36086 0
M  V30 3150 H 297.233 1.34876 -4.12299 0
M  V30 3151 H 297.904 2.87185 -4.71411 0
M  V30 3152 H 300.38 3.07939 -2.79844 0
M  V30 3153 H 299.256 4.34756 -3.3508 0
M  V30 3154 H 299.517 4.10949 -1.63013 0
M  V30 3155 N 298.576 1.31904 0.862503 0
M  V30 3156 C 299.853 1.12644 1.59908 0
M  V30 3157 C 300.233 -0.316104 2.0872 0
M  V30 3158 O 299.581 -1.31145 1.87118 0
M  V30 3159 C 299.791 2.1472 2.7513 0
M  V30 3160 C 301.139 2.47637 3.44907 0
M  V30 3161 O 302.163 2.13205 2.85346 0
M  V30 3162 O 301.022 3.06632 4.52371 0
M  V30 3163 H 298.116 0.43416 0.703871 0
M  V30 3164 H 300.662 1.43408 0.907314 0
M  V30 3165 H 299.434 3.1172 2.3653 0
M  V30 3166 H 299.057 1.84905 3.51989 0
M  V30 3167 N 300.054 -1.07777 1.14986 0
M  V30 3168 C 301.004 -2.13082 0.811181 0
M  V30 3169 C 301.988 -1.59619 -0.202597 0
M  V30 3170 O 303.18 -1.77 -0.00398275 0
M  V30 3171 C 300.309 -3.42009 0.297439 0
M  V30 3172 C 299.395 -4.02337 1.34112 0
M  V30 3173 N 299.786 -4.36982 2.54716 0
M  V30 3174 C 298.084 -4.29752 1.19285 0
M  V30 3175 C 298.785 -4.84729 3.21578 0
M  V30 3176 N 297.761 -4.83233 2.48972 0
M  V30 3177 H 301.563 -2.37696 1.72853 0
M  V30 3178 H 299.077 -1.25173 1.03468 0
M  V30 3179 H 301.074 -4.16884 0.0364777 0
M  V30 3180 H 299.734 -3.18841 -0.614022 0
M  V30 3181 H 300.745 -4.27807 2.91894 0
M  V30 3182 H 297.422 -4.16106 0.340926 0
M  V30 3183 H 298.812 -5.20863 4.24442 0
M  V30 3184 N 301.532 -0.945985 -1.26051 0
M  V30 3185 C 302.762 -0.612136 -1.97323 0
M  V30 3186 C 303.17 0.818171 -1.70595 0
M  V30 3187 O 302.513 1.55777 -0.973613 0
M  V30 3188 C 302.575 -0.780347 -3.50929 0
M  V30 3189 C 302.239 -2.18619 -4.01317 0
M  V30 3190 C 303.236 -3.16209 -4.12683 0
M  V30 3191 C 300.921 -2.50805 -4.35203 0
M  V30 3192 C 302.915 -4.44085 -4.57238 0
M  V30 3193 C 300.602 -3.78912 -4.79446 0
M  V30 3194 C 301.6 -4.75365 -4.90425 0
M  V30 3195 O 301.288 -6.01191 -5.3369 0
M  V30 3196 H 301.02 -0.229134 -0.635982 0
M  V30 3197 H 303.574 -1.27036 -1.61404 0
M  V30 3198 H 301.804 -0.0649864 -3.86645 0
M  V30 3199 H 303.493 -0.448842 -4.03411 0
M  V30 3200 H 304.259 -2.92668 -3.86744 0
M  V30 3201 H 300.138 -1.76463 -4.2589 0
M  V30 3202 H 303.682 -5.19373 -4.65723 0
M  V30 3203 H 299.579 -4.02265 -5.0483 0
M  V30 3204 H 300.347 -6.04442 -5.51899 0
M  V30 3205 N 303.011 1.40521 -0.713556 0
M  V30 3206 C 303.941 2.33381 -0.0743864 0
M  V30 3207 C 304.922 1.52784 0.747735 0
M  V30 3208 O 306.107 1.81258 0.697071 0
M  V30 3209 C 303.237 3.36748 0.849598 0
M  V30 3210 C 302.191 4.27793 0.133247 0
M  V30 3211 C 301.517 5.21679 1.17281 0
M  V30 3212 C 302.817 5.12415 -1.01134 0
M  V30 3213 H 304.511 2.87081 -0.850007 0
M  V30 3214 H 302.057 1.38034 -0.410201 0
M  V30 3215 H 304.01 4.00648 1.30612 0
M  V30 3216 H 302.734 2.81439 1.65709 0
M  V30 3217 H 301.393 3.65342 -0.303426 0
M  V30 3218 H 301.041 4.62677 1.9733 0
M  V30 3219 H 300.741 5.83435 0.698397 0
M  V30 3220 H 302.265 5.88456 1.62947 0
M  V30 3221 H 303.679 5.69781 -0.634274 0
M  V30 3222 H 302.076 5.83203 -1.41399 0
M  V30 3223 H 303.146 4.48514 -1.84292 0
M  V30 3224 N 304.489 0.459591 1.5075 0
M  V30 3225 C 305.737 -0.0991532 2.01857 0
M  V30 3226 C 306.058 -1.41247 1.34441 0
M  V30 3227 O 305.328 -1.89775 0.486022 0
M  V30 3228 H 303.908 -0.039633 0.745948 0
M  V30 3229 H 306.57 0.607387 1.85194 0
M  V30 3230 H 305.666 -0.258998 3.11023 0
M  V30 3231 N 305.967 -1.56429 0.191757 0
M  V30 3232 C 306.914 -2.18936 -0.730454 0
M  V30 3233 C 307.884 -1.13557 -1.21219 0
M  V30 3234 O 309.069 -1.41794 -1.27668 0
M  V30 3235 C 306.209 -2.85013 -1.9458 0
M  V30 3236 C 305.322 -4.04909 -1.50574 0
M  V30 3237 C 304.457 -4.58853 -2.67634 0
M  V30 3238 C 303.496 -5.71114 -2.20217 0
M  V30 3239 N 302.633 -6.19478 -3.30442 0
M  V30 3240 H 307.473 -2.97389 -0.190664 0
M  V30 3241 H 305.01 -1.46869 -0.0823694 0
M  V30 3242 H 306.968 -3.21492 -2.65893 0
M  V30 3243 H 305.598 -2.09129 -2.45896 0
M  V30 3244 H 304.65 -3.74115 -0.688605 0
M  V30 3245 H 305.962 -4.86113 -1.11784 0
M  V30 3246 H 305.116 -4.97619 -3.47074 0
M  V30 3247 H 303.855 -3.76749 -3.09696 0
M  V30 3248 H 302.86 -5.31879 -1.3923 0
M  V30 3249 H 304.085 -6.55033 -1.79189 0
M  V30 3250 H 302.031 -5.40297 -3.72041 0
M  V30 3251 H 301.948 -6.95725 -2.9581 0
M  V30 3252 H 303.216 -6.62898 -4.10106 0
M  V30 3253 N 307.445 0.0818655 -1.57387 0
M  V30 3254 C 308.377 1.12484 -1.997 0
M  V30 3255 C 309.39 1.35564 -0.90146 0
M  V30 3256 O 310.579 1.33982 -1.17945 0
M  V30 3257 C 307.679 2.47778 -2.31213 0
M  V30 3258 C 306.852 2.44793 -3.62485 0
M  V30 3259 C 305.911 3.62117 -3.81782 0
M  V30 3260 O 304.937 3.44005 -4.53486 0
M  V30 3261 N 306.139 4.82094 -3.23367 0
M  V30 3262 H 308.904 0.764585 -2.89783 0
M  V30 3263 H 306.465 0.270664 -1.59621 0
M  V30 3264 H 308.457 3.24891 -2.41304 0
M  V30 3265 H 307.027 2.75843 -1.4707 0
M  V30 3266 H 306.247 1.53134 -3.6324 0
M  V30 3267 H 307.535 2.39889 -4.48699 0
M  V30 3268 H 306.933 4.99713 -2.65148 0
M  V30 3269 H 305.49 5.56753 -3.38923 0
M  V30 3270 N 308.923 1.53595 0.353017 0
M  V30 3271 C 309.886 1.80232 1.41594 0
M  V30 3272 C 310.886 0.673081 1.46035 0
M  V30 3273 O 312.076 0.941335 1.46576 0
M  V30 3274 C 309.208 1.93578 2.80607 0
M  V30 3275 H 310.401 2.75174 1.19244 0
M  V30 3276 H 307.954 1.44864 0.586872 0
M  V30 3277 H 308.689 1.00746 3.08254 0
M  V30 3278 H 308.474 2.75724 2.78781 0
M  V30 3279 H 309.964 2.15735 3.57558 0
M  V30 3280 N 310.401 -0.613514 1.45168 0
M  V30 3281 C 311.647 -1.37471 1.49096 0
M  V30 3282 C 311.98 -1.93765 0.129901 0
M  V30 3283 O 311.255 -1.74707 -0.854858 0
M  V30 3284 C 311.538 -2.52701 2.56542 0
M  V30 3285 C 311.391 -2.01643 4.0207 0
M  V30 3286 C 312.71 -3.54849 2.60327 0
M  V30 3287 H 309.829 -0.498502 0.54283 0
M  V30 3288 H 312.471 -0.692125 1.76945 0
M  V30 3289 H 310.621 -3.10931 2.32926 0
M  V30 3290 H 312.293 -1.48108 4.36877 0
M  V30 3291 H 310.536 -1.32688 4.13009 0
M  V30 3292 H 311.207 -2.84681 4.72928 0
M  V30 3293 H 313.683 -3.0645 2.81474 0
M  V30 3294 H 312.559 -4.32973 3.37381 0
M  V30 3295 H 312.82 -4.10079 1.6519 0
M  V30 3296 N 311.879 -1.3236 -0.855495 0
M  V30 3297 C 312.842 -1.21164 -1.94556 0
M  V30 3298 C 313.842 -0.134908 -1.60233 0
M  V30 3299 O 315.032 -0.385249 -1.69887 0
M  V30 3300 C 312.164 -0.863192 -3.29791 0
M  V30 3301 H 313.357 -2.18038 -2.05911 0
M  V30 3302 H 310.91 -1.16179 -1.04557 0
M  V30 3303 H 311.645 0.103769 -3.24134 0
M  V30 3304 H 311.43 -1.64166 -3.56078 0
M  V30 3305 H 312.92 -0.809156 -4.09686 0
M  V30 3306 N 313.357 1.07166 -1.15556 0
M  V30 3307 C 314.289 2.14341 -0.811815 0
M  V30 3308 C 315.302 1.61835 0.177015 0
M  V30 3309 O 316.491 1.78439 -0.0464996 0
M  V30 3310 C 313.591 3.38387 -0.186481 0
M  V30 3311 C 312.764 4.20238 -1.21321 0
M  V30 3312 C 311.823 5.2266 -0.609302 0
M  V30 3313 O 310.849 5.54719 -1.27576 0
M  V30 3314 N 312.051 5.77306 0.608099 0
M  V30 3315 H 314.816 2.44431 -1.73417 0
M  V30 3316 H 312.377 1.23089 -1.0517 0
M  V30 3317 H 314.369 4.04044 0.230339 0
M  V30 3318 H 312.939 3.05994 0.639249 0
M  V30 3319 H 312.159 3.50369 -1.80652 0
M  V30 3320 H 313.447 4.71736 -1.90638 0
M  V30 3321 H 312.845 5.53513 1.1679 0
M  V30 3322 H 311.402 6.44583 0.96725 0
M  V30 3323 N 314.835 0.952656 1.25548 0
M  V30 3324 C 316.084 0.602053 1.92505 0
M  V30 3325 C 316.397 -0.864663 1.75451 0
M  V30 3326 O 317.603 -1.32514 2.36965 0
M  V30 3327 C 316.059 1.02607 3.44963 0
M  V30 3328 C 315.667 2.51519 3.70732 0
M  V30 3329 C 317.411 0.747905 4.1786 0
M  V30 3330 C 315.318 2.87732 5.16686 0
M  V30 3331 H 314.248 0.22146 0.720744 0
M  V30 3332 H 316.899 1.15684 1.42441 0
M  V30 3333 H 315.281 0.399712 3.93978 0
M  V30 3334 H 316.455 3.19157 3.32378 0
M  V30 3335 H 314.77 2.76786 3.11092 0
M  V30 3336 H 317.367 0.994647 5.25367 0
M  V30 3337 H 317.71 -0.315629 4.15102 0
M  V30 3338 H 318.243 1.33452 3.74747 0
M  V30 3339 H 314.982 3.93095 5.24554 0
M  V30 3340 H 314.502 2.24765 5.56094 0
M  V30 3341 H 316.181 2.76817 5.84792 0
M  V30 3342 N 316.313 -1.40141 0.720998 0
M  V30 3343 C 317.243 -2.33339 0.0867621 0
M  V30 3344 C 318.224 -1.53178 -0.739622 0
M  V30 3345 O 319.409 -1.81625 -0.687449 0
M  V30 3346 C 316.539 -3.37194 -0.831728 0
M  V30 3347 C 315.493 -4.27857 -0.110558 0
M  V30 3348 C 314.819 -5.22294 -1.14513 0
M  V30 3349 C 316.119 -5.11872 1.0385 0
M  V30 3350 H 317.813 -2.86626 0.865219 0
M  V30 3351 H 315.359 -1.37814 0.417516 0
M  V30 3352 H 317.312 -4.01335 -1.28485 0
M  V30 3353 H 316.036 -2.82314 -1.64214 0
M  V30 3354 H 314.695 -3.65176 0.322797 0
M  V30 3355 H 314.343 -4.63717 -1.94874 0
M  V30 3356 H 314.043 -5.83797 -0.667446 0
M  V30 3357 H 315.567 -5.89312 -1.59824 0
M  V30 3358 H 316.981 -5.69436 0.664482 0
M  V30 3359 H 315.378 -5.82445 1.4449 0
M  V30 3360 H 316.448 -4.4753 1.86668 0
M  V30 3361 N 317.792 -0.46758 -1.50504 0
M  V30 3362 C 319.203 -0.0116166 -1.86696 0
M  V30 3363 C 319.554 1.39202 -1.38265 0
M  V30 3364 O 318.679 2.0313 -0.746132 0
M  V30 3365 C 319.274 -0.0143044 -3.38797 0
M  V30 3366 C 317.833 0.386175 -3.74414 0
M  V30 3367 C 316.98 -0.401287 -2.74381 0
M  V30 3368 H 319.931 -0.682022 -1.43297 0
M  V30 3369 H 319.952 0.788641 -3.72237 0
M  V30 3370 H 319.464 -1.03602 -3.74016 0
M  V30 3371 H 317.565 1.41237 -3.44794 0
M  V30 3372 H 317.678 0.0899596 -4.79016 0
M  V30 3373 H 316.042 0.144536 -2.5429 0
M  V30 3374 H 316.825 -1.42244 -3.12444 0
M  V30 3375 N 319.27 1.56325 -0.20005 0
M  V30 3376 C 320.517 1.97719 0.437411 0
M  V30 3377 C 320.845 1.08709 1.61284 0
M  V30 3378 O 320.1 0.127261 1.95286 0
M  V30 3379 C 320.399 3.4495 0.935103 0
M  V30 3380 C 320.065 4.5072 -0.12749 0
M  V30 3381 C 318.727 4.79368 -0.419451 0
M  V30 3382 C 321.079 5.14268 -0.847231 0
M  V30 3383 C 318.407 5.68854 -1.43604 0
M  V30 3384 C 320.759 6.04852 -1.85301 0
M  V30 3385 C 319.423 6.31855 -2.15211 0
M  V30 3386 H 318.693 0.723507 0.16006 0
M  V30 3387 H 321.34 1.89166 -0.298056 0
M  V30 3388 H 319.645 3.50599 1.74894 0
M  V30 3389 H 321.342 3.74337 1.43781 0
M  V30 3390 H 317.932 4.28458 0.11023 0
M  V30 3391 H 322.116 4.92222 -0.634901 0
M  V30 3392 H 317.372 5.88047 -1.67364 0
M  V30 3393 H 321.546 6.53152 -2.41591 0
M  V30 3394 H 319.173 7.00994 -2.94129 0
M  V30 3395 N 320.748 -0.0735177 1.57428 0
M  V30 3396 C 322.164 -0.428264 1.53747 0
M  V30 3397 C 322.364 -1.79272 0.91998 0
M  V30 3398 O 321.42 -2.47051 0.521745 0
M  V30 3399 C 322.733 -0.370914 2.98404 0
M  V30 3400 C 324.281 -0.451224 3.0973 0
M  V30 3401 C 324.756 -0.4238 4.56035 0
M  V30 3402 N 326.247 -0.483925 4.60665 0
M  V30 3403 C 326.982 -0.484891 5.71346 0
M  V30 3404 N 326.478 -0.440775 6.91396 0
M  V30 3405 N 328.271 -0.531319 5.59583 0
M  V30 3406 H 320.422 0.819949 1.95935 0
M  V30 3407 H 322.685 0.307493 0.896745 0
M  V30 3408 H 322.391 0.564956 3.47133 0
M  V30 3409 H 322.265 -1.18176 3.5821 0
M  V30 3410 H 324.652 -1.37752 2.60976 0
M  V30 3411 H 324.733 0.388167 2.52838 0
M  V30 3412 H 324.377 0.498638 5.05446 0
M  V30 3413 H 324.307 -1.2807 5.10789 0
M  V30 3414 H 326.798 -0.522338 3.74273 0
M  V30 3415 H 327.111 -0.44539 7.71515 0
M  V30 3416 H 325.456 -0.40749 6.93804 0
M  V30 3417 H 328.647 -0.563464 4.64696 0
M  V30 3418 H 328.82 -0.528603 6.4584 0
M  V30 3419 N 322.226 -1.5378 -0.344866 0
M  V30 3420 C 323.503 -1.61589 -1.10219 0
M  V30 3421 C 323.883 -0.436316 -2.06542 0
M  V30 3422 O 323.231 0.571543 -2.21237 0
M  V30 3423 C 323.441 -2.97602 -1.82301 0
M  V30 3424 C 324.789 -3.5291 -2.36093 0
M  V30 3425 O 325.813 -2.99768 -1.924 0
M  V30 3426 O 324.672 -4.45859 -3.16026 0
M  V30 3427 H 321.766 -0.653522 -0.506792 0
M  V30 3428 H 324.312 -1.66126 -0.346465 0
M  V30 3429 H 323.084 -3.74893 -1.12121 0
M  V30 3430 H 322.707 -2.9665 -2.64735 0
M  V30 3431 N 323.704 0.605807 -1.45491 0
M  V30 3432 C 324.636 1.73031 -1.5031 0
M  V30 3433 C 325.649 1.57968 -0.393687 0
M  V30 3434 O 326.838 1.65817 -0.660839 0
M  V30 3435 C 323.938 3.11049 -1.34543 0
M  V30 3436 C 323.111 3.52334 -2.59189 0
M  V30 3437 C 322.17 4.69323 -2.37954 0
M  V30 3438 O 321.196 4.7635 -3.11575 0
M  V30 3439 N 322.398 5.62705 -1.4263 0
M  V30 3440 H 325.163 1.6936 -2.4726 0
M  V30 3441 H 322.724 0.79114 -1.41254 0
M  V30 3442 H 324.716 3.87071 -1.18144 0
M  V30 3443 H 323.286 3.09217 -0.458623 0
M  V30 3444 H 322.506 2.66256 -2.90691 0
M  V30 3445 H 323.794 3.76677 -3.42041 0
M  V30 3446 H 323.192 5.59744 -0.818758 0
M  V30 3447 H 321.749 6.38252 -1.32202 0
M  V30 3448 N 325.182 1.32811 0.848464 0
M  V30 3449 C 326.13 1.22231 1.97895 0
M  V30 3450 C 327.124 0.125749 1.68933 0
M  V30 3451 O 328.33 0.289083 1.77663 0
M  V30 3452 H 324.705 0.379058 0.649476 0
M  V30 3453 H 326.676 2.17828 2.03945 0
M  V30 3454 C 325.425 0.968572 3.33937 0
M  V30 3455 H 324.748 1.80458 3.56756 0
M  V30 3456 H 326.188 0.934808 4.13567 0
M  V30 3457 C 324.647 -0.328628 3.35293 0
M  V30 3458 O 325.177 -1.33848 3.78745 0
M  V30 3459 N 323.383 -0.352788 2.88451 0
M  V30 3460 H 322.93 0.469541 2.53285 0
M  V30 3461 H 322.888 -1.22057 2.89741 0
M  V30 3462 N 326.66 -1.06551 1.16123 0
M  V30 3463 C 328.076 -1.3142 0.905585 0
M  V30 3464 C 328.276 -1.96571 -0.442964 0
M  V30 3465 O 327.332 -2.23068 -1.18308 0
M  V30 3466 C 328.645 -2.19741 2.05267 0
M  V30 3467 C 330.193 -2.33165 2.08813 0
M  V30 3468 C 330.668 -3.24838 3.22868 0
M  V30 3469 N 332.159 -3.32421 3.22568 0
M  V30 3470 C 332.894 -4.0344 4.0746 0
M  V30 3471 N 332.39 -4.77003 5.02434 0
M  V30 3472 N 334.183 -3.99464 3.95456 0
M  V30 3473 H 326.334 -0.626548 2.02949 0
M  V30 3474 H 328.597 -0.338777 0.8854 0
M  V30 3475 H 328.303 -1.79142 3.02657 0
M  V30 3476 H 328.177 -3.20313 1.99198 0
M  V30 3477 H 330.564 -2.73013 1.12018 0
M  V30 3478 H 330.645 -1.3227 2.18948 0
M  V30 3479 H 330.289 -2.85708 4.19921 0
M  V30 3480 H 330.219 -4.25707 3.0997 0
M  V30 3481 H 332.71 -2.79994 2.53795 0
M  V30 3482 H 333.023 -5.28712 5.63634 0
M  V30 3483 H 331.368 -4.75992 5.06415 0
M  V30 3484 H 334.559 -3.4111 3.20564 0
M  V30 3485 H 334.732 -4.54544 4.61837 0
M  V30 3486 N 328.138 -0.959301 -1.25041 0
M  V30 3487 C 329.085 -0.482057 -2.2571 0
M  V30 3488 C 330.055 0.467939 -1.59372 0
M  V30 3489 O 331.24 0.380159 -1.86974 0
M  V30 3490 C 328.38 0.229623 -3.44335 0
M  V30 3491 C 327.493 -0.758156 -4.25295 0
M  V30 3492 C 326.628 -0.0234403 -5.31195 0
M  V30 3493 C 325.667 -1.00184 -6.03846 0
M  V30 3494 N 324.804 -0.29769 -7.01469 0
M  V30 3495 H 329.644 -1.34538 -2.65901 0
M  V30 3496 H 327.181 -0.674592 -1.3072 0
M  V30 3497 H 329.139 0.658856 -4.11965 0
M  V30 3498 H 327.769 1.05696 -3.05005 0
M  V30 3499 H 326.821 -1.30586 -3.57284 0
M  V30 3500 H 328.133 -1.50458 -4.75567 0
M  V30 3501 H 327.287 0.464201 -6.04922 0
M  V30 3502 H 326.026 0.755741 -4.81809 0
M  V30 3503 H 325.031 -1.50044 -5.2893 0
M  V30 3504 H 326.256 -1.78133 -6.55321 0
M  V30 3505 H 324.202 0.462668 -6.54366 0
M  V30 3506 H 324.119 -0.983128 -7.4958 0
M  V30 3507 H 325.387 0.16826 -7.79318 0
M  V30 3508 N 329.616 1.39756 -0.72842 0
M  V30 3509 C 330.579 2.29012 -0.0927297 0
M  V30 3510 C 331.579 1.45992 0.674025 0
M  V30 3511 O 332.769 1.66749 0.50402 0
M  V30 3512 C 329.901 3.29396 0.878137 0
M  V30 3513 H 331.094 2.86729 -0.879011 0
M  V30 3514 H 328.647 1.48293 -0.493847 0
M  V30 3515 H 329.382 2.76722 1.69101 0
M  V30 3516 H 329.167 3.907 0.331051 0
M  V30 3517 H 330.657 3.96199 1.3197 0
M  V30 3518 N 331.094 0.475555 1.50254 0
M  V30 3519 C 332.024 -0.30611 2.31485 0
M  V30 3520 C 333.005 -0.986228 1.38591 0
M  V30 3521 O 334.19 -0.982541 1.67511 0
M  V30 3522 C 331.32 -1.38588 3.1845 0
M  V30 3523 C 330.274 -0.827115 4.19932 0
M  V30 3524 C 329.6 -2.00551 4.95665 0
M  V30 3525 C 330.9 0.16463 5.2204 0
M  V30 3526 H 332.594 0.371866 2.97082 0
M  V30 3527 H 330.14 0.180282 1.42867 0
M  V30 3528 H 332.093 -1.94023 3.74076 0
M  V30 3529 H 330.817 -2.09269 2.50747 0
M  V30 3530 H 329.476 -0.294702 3.65414 0
M  V30 3531 H 329.124 -2.6994 4.2443 0
M  V30 3532 H 328.824 -1.63784 5.64313 0
M  V30 3533 H 330.348 -2.56468 5.54127 0
M  V30 3534 H 331.762 -0.300699 5.72511 0
M  V30 3535 H 330.159 0.446813 5.98434 0
M  V30 3536 H 331.229 1.08905 4.72512 0
M  V30 3537 N 332.573 -1.56217 0.208337 0
M  V30 3538 C 333.85 -1.89739 -0.475234 0
M  V30 3539 C 334.23 -1.1238 -1.78701 0
M  V30 3540 O 333.578 -0.228979 -2.2735 0
M  V30 3541 C 333.788 -3.42289 -0.681101 0
M  V30 3542 C 335.136 -4.12789 -0.994507 0
M  V30 3543 O 336.16 -3.47814 -0.768357 0
M  V30 3544 O 335.019 -5.27649 -1.42299 0
M  V30 3545 H 332.113 -0.788478 -0.249461 0
M  V30 3546 H 334.659 -1.67855 0.249538 0
M  V30 3547 H 333.431 -3.90534 0.244722 0
M  V30 3548 H 333.054 -3.69909 -1.45785 0
M  V30 3549 N 334.051 0.0651679 -1.57465 0
M  V30 3550 C 335.299 0.761555 -1.87202 0
M  V30 3551 C 335.62 1.77778 -0.801243 0
M  V30 3552 O 334.89 1.95166 0.16937 0
M  V30 3553 H 333.47 0.284251 -0.690804 0
M  V30 3554 H 336.132 0.0396827 -1.9486 0
M  V30 3555 H 335.228 1.27365 -2.84929 0
M  V30 3556 N 335.529 1.53961 0.336706 0
M  V30 3557 C 336.459 1.85417 1.41925 0
M  V30 3558 C 337.44 0.709856 1.5458 0
M  V30 3559 O 338.625 0.962396 1.68676 0
M  V30 3560 C 335.755 2.06985 2.78881 0
M  V30 3561 C 334.709 3.22813 2.81026 0
M  V30 3562 C 334.035 3.29727 4.20932 0
M  V30 3563 C 335.335 4.60767 2.45949 0
M  V30 3564 H 337.029 2.76079 1.15848 0
M  V30 3565 H 334.575 1.32839 0.555859 0
M  V30 3566 H 336.528 2.27575 3.54665 0
M  V30 3567 H 335.252 1.13061 3.06406 0
M  V30 3568 H 333.911 3.0209 2.07695 0
M  V30 3569 H 333.559 2.33385 4.45579 0
M  V30 3570 H 333.259 4.07566 4.23277 0
M  V30 3571 H 334.783 3.52536 4.98549 0
M  V30 3572 H 336.197 4.81325 3.11446 0
M  V30 3573 H 334.594 5.4106 2.59566 0
M  V30 3574 H 335.664 4.6391 1.41122 0
M  V30 3575 N 337.007 -0.598083 1.45811 0
M  V30 3576 C 338.253 -1.35679 1.51535 0
M  V30 3577 C 338.608 -1.91745 0.15864 0
M  V30 3578 O 337.901 -1.72654 -0.830724 0
M  V30 3579 C 338.095 -2.51669 2.53766 0
M  V30 3580 C 337.924 -2.06963 3.99245 0
M  V30 3581 C 336.694 -1.92693 4.67116 0
M  V30 3582 C 338.892 -1.63855 4.875 0
M  V30 3583 N 336.874 -1.41897 5.97276 0
M  V30 3584 C 338.245 -1.24541 6.07363 0
M  V30 3585 C 340.3 -1.51533 4.74281 0
M  V30 3586 C 339.003 -0.741354 7.15469 0
M  V30 3587 C 341.029 -1.0253 5.82444 0
M  V30 3588 C 340.391 -0.641869 7.01469 0
M  V30 3589 H 336.49 -0.490042 0.609412 0
M  V30 3590 H 339.074 -0.682687 1.82339 0
M  V30 3591 H 337.245 -3.16663 2.24898 0
M  V30 3592 H 338.977 -3.18578 2.4958 0
M  V30 3593 H 335.732 -2.1417 4.22408 0
M  V30 3594 H 336.156 -1.18704 6.66512 0
M  V30 3595 H 340.798 -1.798 3.82664 0
M  V30 3596 H 338.516 -0.446243 8.06867 0
M  V30 3597 H 342.102 -0.934088 5.74253 0
M  V30 3598 H 340.982 -0.268531 7.8374 0
M  V30 3599 N 338.485 -1.33259 -0.841409 0
M  V30 3600 C 339.433 -1.23279 -1.97244 0
M  V30 3601 C 340.427 -0.134706 -1.68864 0
M  V30 3602 O 341.633 -0.298501 -1.77508 0
M  V30 3603 H 338.008 -0.382497 -0.647457 0
M  V30 3604 H 339.979 -2.18906 -2.02787 0
M  V30 3605 C 338.728 -0.986268 -3.33419 0
M  V30 3606 H 338.051 -1.82347 -3.55794 0
M  V30 3607 H 339.491 -0.956728 -4.13065 0
M  V30 3608 C 337.95 0.310842 -3.35463 0
M  V30 3609 O 338.48 1.31838 -3.79449 0
M  V30 3610 N 336.686 0.337485 -2.88634 0
M  V30 3611 H 336.233 -0.482967 -2.53032 0
M  V30 3612 H 336.191 1.20518 -2.90384 0
M  V30 3613 N 339.963 1.05934 -1.16686 0
M  V30 3614 C 341.379 1.30938 -0.912542 0
M  V30 3615 C 341.579 1.96803 0.432533 0
M  V30 3616 O 340.635 2.23693 1.17123 0
M  V30 3617 C 341.948 2.18649 -2.06429 0
M  V30 3618 C 343.496 2.32055 -2.10047 0
M  V30 3619 C 343.971 3.23122 -3.24586 0
M  V30 3620 N 345.462 3.30706 -3.24327 0
M  V30 3621 C 346.197 4.01273 -4.09594 0
M  V30 3622 N 345.693 4.74332 -5.04956 0
M  V30 3623 N 347.486 3.97361 -3.97569 0
M  V30 3624 H 339.637 0.615777 -2.03278 0
M  V30 3625 H 341.9 0.334077 -0.887185 0
M  V30 3626 H 341.606 1.77534 -3.03603 0
M  V30 3627 H 341.48 3.19252 -2.00894 0
M  V30 3628 H 343.867 2.72415 -1.13464 0
M  V30 3629 H 343.948 1.31107 -2.19647 0
M  V30 3630 H 343.592 2.83477 -4.2143 0
M  V30 3631 H 343.522 4.24057 -3.12223 0
M  V30 3632 H 346.013 2.78644 -2.55276 0
M  V30 3633 H 346.326 5.25716 -5.6643 0
M  V30 3634 H 344.671 4.733 -5.08933 0
M  V30 3635 H 347.862 3.39405 -3.22369 0
M  V30 3636 H 348.035 4.52089 -4.64241 0
M  V30 3637 N 341.441 0.965919 1.2453 0
M  V30 3638 C 342.391 0.465731 2.23193 0
M  V30 3639 C 343.375 -0.451277 1.54442 0
M  V30 3640 O 344.567 -0.282489 1.74731 0
M  V30 3641 C 341.696 -0.244511 3.42428 0
M  V30 3642 C 340.782 0.691222 4.18429 0
M  V30 3643 N 341.173 1.82771 4.71623 0
M  V30 3644 C 339.471 0.501649 4.4317 0
M  V30 3645 C 340.172 2.41285 5.29298 0
M  V30 3646 N 339.148 1.69819 5.16394 0
M  V30 3647 H 342.95 1.33291 2.61937 0
M  V30 3648 H 340.464 0.824789 1.39896 0
M  V30 3649 H 342.461 -0.620056 4.12263 0
M  V30 3650 H 341.121 -1.10815 3.05205 0
M  V30 3651 H 342.132 2.20929 4.68413 0
M  V30 3652 H 338.809 -0.318177 4.16286 0
M  V30 3653 H 340.199 3.37181 5.8117 0
M  V30 3654 N 342.919 -1.39368 0.735821 0
M  V30 3655 C 343.869 -2.27885 0.0724287 0
M  V30 3656 C 344.853 -1.44301 -0.711756 0
M  V30 3657 O 346.045 -1.67206 -0.58063 0
M  V30 3658 C 343.174 -3.33029 -0.833454 0
M  V30 3659 C 342.26 -4.24078 -0.0433749 0
M  V30 3660 N 342.651 -4.96138 0.983903 0
M  V30 3661 C 340.949 -4.45164 -0.272905 0
M  V30 3662 C 341.65 -5.63069 1.4604 0
M  V30 3663 N 340.626 -5.37991 0.778857 0
M  V30 3664 H 344.428 -2.81052 0.859467 0
M  V30 3665 H 341.942 -1.5206 0.570227 0
M  V30 3666 H 343.939 -3.95311 -1.32419 0
M  V30 3667 H 342.599 -2.81421 -1.61964 0
M  V30 3668 H 343.61 -4.9958 1.36528 0
M  V30 3669 H 340.287 -4.04497 -1.03383 0
M  V30 3670 H 341.677 -6.30755 2.31511 0
M  V30 3671 N 344.397 -0.483516 -1.5 0
M  V30 3672 C 345.643 0.0672592 -2.02688 0
M  V30 3673 C 345.976 1.38247 -1.36387 0
M  V30 3674 O 345.251 1.88131 -0.493675 0
M  V30 3675 C 345.534 0.238109 -3.59312 0
M  V30 3676 C 345.387 -1.099 -4.36168 0
M  V30 3677 C 346.706 0.986916 -4.28892 0
M  V30 3678 H 343.825 0.0229696 -0.736642 0
M  V30 3679 H 346.467 -0.631527 -1.79197 0
M  V30 3680 H 344.617 0.8333 -3.79458 0
M  V30 3681 H 346.289 -1.73172 -4.27562 0
M  V30 3682 H 344.532 -1.69261 -3.99416 0
M  V30 3683 H 345.203 -0.932954 -5.44059 0
M  V30 3684 H 347.679 0.482302 -4.13295 0
M  V30 3685 H 346.555 1.07527 -5.38265 0
M  V30 3686 H 346.816 2.0265 -3.92919 0
M  V30 3687 N 345.875 1.56104 -0.216619 0
M  V30 3688 C 346.785 2.23694 0.706982 0
M  V30 3689 C 347.801 1.24295 1.21765 0
M  V30 3690 O 348.977 1.57094 1.2603 0
M  V30 3691 C 346.042 2.8998 1.90033 0
M  V30 3692 C 345.103 4.04708 1.43213 0
M  V30 3693 C 344.336 4.67824 2.56859 0
M  V30 3694 O 344.559 4.29913 3.74874 0
M  V30 3695 O 343.493 5.56905 2.28343 0
M  V30 3696 H 347.319 3.03272 0.161235 0
M  V30 3697 H 344.904 1.49394 0.0136177 0
M  V30 3698 H 346.786 3.31837 2.59735 0
M  V30 3699 H 345.461 2.13365 2.43428 0
M  V30 3700 H 344.368 3.6743 0.70327 0
M  V30 3701 H 345.701 4.83051 0.944615 0
M  V30 3702 N 347.353 -0.0568162 1.57498 0
M  V30 3703 C 348.769 -0.411933 1.54192 0
M  V30 3704 C 348.969 -1.78287 0.938942 0
M  V30 3705 O 348.025 -2.46483 0.547919 0
M  V30 3706 C 349.338 -0.339244 2.9878 0
M  V30 3707 C 350.886 -0.418348 3.10192 0
M  V30 3708 C 351.361 -0.375407 4.56459 0
M  V30 3709 N 352.852 -0.435038 4.61153 0
M  V30 3710 C 353.587 -0.424265 5.71828 0
M  V30 3711 N 353.083 -0.367418 6.91825 0
M  V30 3712 N 354.876 -0.471938 5.60115 0
M  V30 3713 H 347.027 0.840684 1.95055 0
M  V30 3714 H 349.29 0.316987 0.893433 0
M  V30 3715 H 348.996 0.601742 3.46514 0
M  V30 3716 H 348.87 -1.14371 3.59443 0
M  V30 3717 H 351.257 -1.34976 2.62422 0
M  V30 3718 H 351.338 0.414962 2.52412 0
M  V30 3719 H 350.982 0.552219 5.04889 0
M  V30 3720 H 350.912 -1.22645 5.12119 0
M  V30 3721 H 353.403 -0.482612 3.74806 0
M  V30 3722 H 353.716 -0.363535 7.71944 0
M  V30 3723 H 352.061 -0.333879 6.94198 0
M  V30 3724 H 355.252 -0.514145 4.65268 0
M  V30 3725 H 355.425 -0.460073 6.46365 0
M  V30 3726 N 348.832 -1.54138 -0.328536 0
M  V30 3727 C 350.078 -1.7236 -1.06865 0
M  V30 3728 C 350.411 -0.493231 -1.87832 0
M  V30 3729 O 349.686 0.5098 -1.877 0
M  V30 3730 C 349.969 -2.99621 -1.99747 0
M  V30 3731 C 349.822 -4.32899 -1.22143 0
M  V30 3732 C 351.141 -3.22615 -2.99345 0
M  V30 3733 H 348.26 -0.627151 -0.387105 0
M  V30 3734 H 350.902 -1.86827 -0.345767 0
M  V30 3735 H 349.052 -2.87418 -2.61387 0
M  V30 3736 H 350.724 -4.56978 -0.630017 0
M  V30 3737 H 348.967 -4.30628 -0.523628 0
M  V30 3738 H 349.638 -5.18154 -1.90318 0
M  V30 3739 H 352.114 -3.34248 -2.47826 0
M  V30 3740 H 350.99 -4.13027 -3.61524 0
M  V30 3741 H 351.251 -2.3961 -3.71536 0
M  V30 3742 N 350.31 0.590341 -1.46126 0
M  V30 3743 C 351.22 1.72793 -1.58681 0
M  V30 3744 C 352.236 1.67516 -0.470566 0
M  V30 3745 O 353.412 1.87562 -0.733642 0
M  V30 3746 C 350.477 3.09287 -1.5666 0
M  V30 3747 C 349.538 3.25886 -2.79458 0
M  V30 3748 C 348.771 4.55869 -2.77524 0
M  V30 3749 O 348.994 5.3928 -1.85832 0
M  V30 3750 O 347.928 4.75552 -3.68964 0
M  V30 3751 H 351.754 1.65149 -2.54872 0
M  V30 3752 H 349.339 0.756486 -1.28832 0
M  V30 3753 H 351.221 3.90577 -1.58202 0
M  V30 3754 H 349.896 3.17385 -0.636271 0
M  V30 3755 H 348.803 2.44119 -2.83472 0
M  V30 3756 H 350.136 3.22675 -3.71674 0
M  V30 3757 N 351.788 1.33704 0.83433 0
M  V30 3758 C 353.037 1.24763 1.58484 0
M  V30 3759 C 353.35 -0.183775 1.94735 0
M  V30 3760 O 354.556 -0.395234 2.68608 0
M  V30 3761 C 353.012 2.18638 2.85876 0
M  V30 3762 C 352.62 3.66974 2.56971 0
M  V30 3763 C 354.364 2.18581 3.63899 0
M  V30 3764 C 352.271 4.5275 3.80488 0
M  V30 3765 H 351.201 0.463425 0.594772 0
M  V30 3766 H 353.852 1.58797 0.919551 0
M  V30 3767 H 352.234 1.77542 3.5397 0
M  V30 3768 H 353.408 4.16538 1.9706 0
M  V30 3769 H 351.723 3.69366 1.92244 0
M  V30 3770 H 354.32 2.79894 4.55591 0
M  V30 3771 H 354.663 1.18207 3.99165 0
M  V30 3772 H 355.196 2.58062 3.02735 0
M  V30 3773 H 351.935 5.54017 3.5035 0
M  V30 3774 H 351.455 4.07927 4.39722 0
M  V30 3775 H 353.134 4.66784 4.4802 0
M  V30 3776 N 353.266 -1.05314 1.17247 0
M  V30 3777 C 354.515 -1.77685 0.954521 0
M  V30 3778 C 354.828 -1.88616 -0.518025 0
M  V30 3779 O 356.034 -2.57714 -0.854144 0
M  V30 3780 C 354.49 -3.19402 1.65863 0
M  V30 3781 C 354.098 -3.16605 3.16963 0
M  V30 3782 C 355.842 -3.96237 1.52303 0
M  V30 3783 C 353.749 -4.53103 3.80068 0
M  V30 3784 H 352.679 -0.666 0.353496 0
M  V30 3785 H 355.33 -1.1805 1.40486 0
M  V30 3786 H 353.712 -3.79355 1.13602 0
M  V30 3787 H 354.886 -2.66176 3.76148 0
M  V30 3788 H 353.201 -2.53268 3.30521 0
M  V30 3789 H 355.798 -4.97157 1.96822 0
M  V30 3790 H 356.141 -4.136 0.473401 0
M  V30 3791 H 356.674 -3.42829 2.01775 0
M  V30 3792 H 353.413 -4.40946 4.85023 0
M  V30 3793 H 352.933 -5.03686 3.2567 0
M  V30 3794 H 354.612 -5.22045 3.82202 0
M  V30 3795 N 354.744 -0.972509 -1.24016 0
M  V30 3796 C 355.677 -0.45117 -2.23696 0
M  V30 3797 C 356.655 0.477378 -1.55434 0
M  V30 3798 O 357.839 0.407647 -1.84039 0
M  V30 3799 C 354.966 0.34818 -3.36906 0
M  V30 3800 C 354.012 -0.523355 -4.23277 0
M  V30 3801 S 354.845 -1.96647 -4.98087 0
M  V30 3802 C 356.001 -1.17604 -6.14752 0
M  V30 3803 H 356.234 -1.29588 -2.67571 0
M  V30 3804 H 353.767 -0.777903 -1.33372 0
M  V30 3805 H 355.725 0.803387 -4.02562 0
M  V30 3806 H 354.386 1.16792 -2.91579 0
M  V30 3807 H 353.579 0.0906181 -5.03919 0
M  V30 3808 H 353.181 -0.914485 -3.62647 0
M  V30 3809 H 355.473 -0.433434 -6.76112 0
M  V30 3810 H 356.416 -1.95701 -6.8052 0
M  V30 3811 H 356.824 -0.698295 -5.60164 0
M  V30 3812 N 356.222 1.38976 -0.743202 0
M  V30 3813 C 357.169 2.30544 -0.10861 0
M  V30 3814 C 358.139 1.49642 0.720869 0
M  V30 3815 O 359.324 1.78304 0.679142 0
M  V30 3816 C 356.464 3.36018 0.786496 0
M  V30 3817 C 355.577 4.31963 -0.0564849 0
M  V30 3818 C 354.712 5.24506 0.840657 0
M  V30 3819 C 353.751 6.121 -0.00658363 0
M  V30 3820 N 352.888 6.96973 0.846943 0
M  V30 3821 H 357.728 2.8424 -0.895088 0
M  V30 3822 H 355.265 1.3995 -0.453048 0
M  V30 3823 H 357.223 3.95768 1.31999 0
M  V30 3824 H 355.853 2.83758 1.53887 0
M  V30 3825 H 354.905 3.73763 -0.707492 0
M  V30 3826 H 356.217 4.93703 -0.711229 0
M  V30 3827 H 355.371 5.89322 1.4417 0
M  V30 3828 H 354.11 4.63107 1.52916 0
M  V30 3829 H 353.115 5.46289 -0.620366 0
M  V30 3830 H 354.34 6.75565 -0.691992 0
M  V30 3831 H 352.286 6.38133 1.52059 0
M  V30 3832 H 352.203 7.5559 0.248864 0
M  V30 3833 H 353.471 7.6621 1.43328 0
M  V30 3834 N 357.7 0.491464 1.49741 0
M  V30 3835 C 358.61 -0.296835 2.32715 0
M  V30 3836 C 359.626 -0.976536 1.44013 0
M  V30 3837 O 360.802 -0.960023 1.77047 0
M  V30 3838 C 357.867 -1.35288 3.19215 0
M  V30 3839 C 356.928 -0.687632 4.23757 0
M  V30 3840 C 356.161 -1.69336 5.06123 0
M  V30 3841 O 356.384 -2.92219 4.89861 0
M  V30 3842 O 355.318 -1.25394 5.88693 0
M  V30 3843 H 359.144 0.382048 3.01287 0
M  V30 3844 H 356.729 0.252953 1.47243 0
M  V30 3845 H 358.611 -1.96411 3.72828 0
M  V30 3846 H 357.286 -2.01487 2.53347 0
M  V30 3847 H 356.193 -0.0369159 3.74082 0
M  V30 3848 H 357.526 -0.0682566 4.92153 0
M  V30 3849 N 359.178 -1.55987 0.224894 0
M  V30 3850 C 360.406 -2.02784 -0.410665 0
M  V30 3851 C 360.821 -1.10464 -1.53112 0
M  V30 3852 O 360.178 -0.114871 -1.82138 0
M  V30 3853 C 360.229 -3.49087 -0.939165 0
M  V30 3854 O 359.95 -4.37887 0.136614 0
M  V30 3855 C 361.451 -4.11543 -1.64763 0
M  V30 3856 H 358.671 -0.663484 -0.100148 0
M  V30 3857 H 361.215 -2.01614 0.342326 0
M  V30 3858 H 359.37 -3.50861 -1.64242 0
M  V30 3859 H 359.784 -5.23849 -0.261155 0
M  V30 3860 H 361.258 -5.15673 -1.96939 0
M  V30 3861 H 361.735 -3.56736 -2.56195 0
M  V30 3862 H 362.341 -4.13629 -0.989503 0
M  V30 3863 N 360.656 0.0484629 -1.57525 0
M  V30 3864 C 361.902 0.744226 -1.88651 0
M  V30 3865 C 362.235 1.76029 -0.820212 0
M  V30 3866 O 361.51 1.93782 0.166985 0
M  V30 3867 C 361.793 1.43128 -3.30434 0
M  V30 3868 C 361.646 0.43005 -4.47739 0
M  V30 3869 C 362.965 2.37031 -3.70816 0
M  V30 3870 H 360.084 0.269089 -0.68612 0
M  V30 3871 H 362.726 0.00713532 -1.89999 0
M  V30 3872 H 360.876 2.05956 -3.29415 0
M  V30 3873 H 362.548 -0.194816 -4.60888 0
M  V30 3874 H 360.791 -0.252522 -4.33064 0
M  V30 3875 H 361.462 0.948874 -5.43783 0
M  V30 3876 H 363.938 1.84263 -3.73077 0
M  V30 3877 H 362.814 2.82094 -4.70865 0
M  V30 3878 H 363.075 3.22864 -3.02012 0
M  V30 3879 N 362.134 1.5431 0.320358 0
M  V30 3880 C 363.411 1.63322 1.07635 0
M  V30 3881 C 363.791 0.46912 2.05821 0
M  V30 3882 O 363.139 -0.536274 2.22118 0
M  V30 3883 C 363.349 3.00465 1.77544 0
M  V30 3884 C 364.697 3.56621 2.30449 0
M  V30 3885 O 365.721 3.02791 1.87606 0
M  V30 3886 O 364.58 4.5083 3.08892 0
M  V30 3887 H 361.674 0.661502 0.496331 0
M  V30 3888 H 364.22 1.66656 0.319992 0
M  V30 3889 H 362.992 3.76629 1.06143 0
M  V30 3890 H 362.615 3.00824 2.59982 0
M  V30 3891 N 363.613 -0.582584 1.46437 0
M  V30 3892 C 364.576 -1.67366 1.56592 0
M  V30 3893 C 365.576 -1.54575 0.443072 0
M  V30 3894 O 366.766 -1.59191 0.707381 0
M  V30 3895 C 363.898 -3.06791 1.48634 0
M  V30 3896 H 365.091 -1.5972 2.5383 0
M  V30 3897 H 362.644 -0.800432 1.34249 0
M  V30 3898 H 363.379 -3.19993 0.526763 0
M  V30 3899 H 363.164 -3.17484 2.30101 0
M  V30 3900 H 364.654 -3.86218 1.58826 0
M  V30 3901 N 365.091 -1.34144 -0.827227 0
M  V30 3902 C 366.001 -1.27428 -1.96975 0
M  V30 3903 C 367.017 -0.182728 -1.73038 0
M  V30 3904 O 368.193 -0.408426 -1.97215 0
M  V30 3905 C 365.258 -1.02526 -3.31194 0
M  V30 3906 C 364.319 -2.20796 -3.68168 0
M  V30 3907 C 363.552 -1.97073 -4.95982 0
M  V30 3908 O 363.775 -0.926822 -5.6282 0
M  V30 3909 O 362.709 -2.83912 -5.30733 0
M  V30 3910 H 366.535 -2.23537 -2.05584 0
M  V30 3911 H 364.12 -1.14307 -0.961989 0
M  V30 3912 H 366.002 -0.904026 -4.11589 0
M  V30 3913 H 364.677 -0.0945389 -3.23562 0
M  V30 3914 H 363.584 -2.38477 -2.88235 0
M  V30 3915 H 364.917 -3.12243 -3.8048 0
M  V30 3916 N 366.569 1.04691 -1.17803 0
M  V30 3917 C 367.817 1.7743 -0.967617 0
M  V30 3918 C 368.138 1.88359 0.504574 0
M  V30 3919 O 367.408 1.40402 1.36617 0
M  V30 3920 H 365.988 0.657242 -0.355024 0
M  V30 3921 H 368.65 1.2638 -1.48371 0
M  V30 3922 H 367.746 2.78924 -1.40027 0
M  V30 3923 N 368.047 0.979072 1.23499 0
M  V30 3924 C 369.463 0.687475 1.44034 0
M  V30 3925 C 369.663 -0.746801 1.8715 0
M  V30 3926 O 368.719 -1.51939 2.0167 0
M  V30 3927 C 370.032 1.68127 2.49307 0
M  V30 3928 C 371.58 1.69516 2.63122 0
M  V30 3929 C 372.055 2.67723 3.71603 0
M  V30 3930 N 373.546 2.66233 3.79044 0
M  V30 3931 C 374.281 3.38891 4.62537 0
M  V30 3932 N 373.777 4.21103 5.50131 0
M  V30 3933 N 375.57 3.27661 4.56721 0
M  V30 3934 H 367.721 1.90559 0.938135 0
M  V30 3935 H 369.984 0.821051 0.473897 0
M  V30 3936 H 369.69 2.70693 2.2454 0
M  V30 3937 H 369.564 1.46306 3.4767 0
M  V30 3938 H 371.951 0.676561 2.8724 0
M  V30 3939 H 372.032 1.95404 1.65079 0
M  V30 3940 H 371.676 3.69724 3.48233 0
M  V30 3941 H 371.606 2.39111 4.69184 0
M  V30 3942 H 374.097 2.06568 3.16446 0
M  V30 3943 H 374.41 4.73403 6.10827 0
M  V30 3944 H 372.755 4.25195 5.49759 0
M  V30 3945 H 375.946 2.62887 3.87309 0
M  V30 3946 H 376.119 3.84547 5.21562 0
M  V30 3947 N 369.525 -1.3858 0.750561 0
M  V30 3948 C 370.753 -2.04471 0.316098 0
M  V30 3949 C 371.168 -1.56606 -1.05452 0
M  V30 3950 O 370.525 -0.737784 -1.66922 0
M  V30 3951 C 370.576 -3.60025 0.326275 0
M  V30 3952 O 370.297 -4.06133 1.6428 0
M  V30 3953 C 371.798 -4.43131 -0.122429 0
M  V30 3954 H 369.018 -0.65717 0.135528 0
M  V30 3955 H 371.562 -1.77329 1.01857 0
M  V30 3956 H 369.717 -3.86014 -0.327431 0
M  V30 3957 H 370.131 -5.00547 1.56693 0
M  V30 3958 H 371.605 -5.51963 -0.0641473 0
M  V30 3959 H 372.082 -4.23333 -1.16988 0
M  V30 3960 H 372.688 -4.22323 0.50229 0
M  V30 3961 N 371.003 -0.499398 -1.49478 0
M  V30 3962 C 372.228 0.044722 -2.07352 0
M  V30 3963 C 372.653 1.30207 -1.35749 0
M  V30 3964 O 372.011 1.76516 -0.413732 0
M  V30 3965 C 372.059 0.283013 -3.59488 0
M  V30 3966 O 371.163 1.35804 -3.89398 0
M  V30 3967 H 370.504 -0.0255147 -0.66351 0
M  V30 3968 H 373.034 -0.698561 -1.92305 0
M  V30 3969 H 373.044 0.515007 -4.04737 0
M  V30 3970 H 371.719 -0.635636 -4.11014 0
M  V30 3971 H 370.296 1.11113 -3.55961 0
M  V30 3972 N 372.481 1.55866 -0.233164 0
M  V30 3973 C 373.728 1.98603 0.395374 0
M  V30 3974 C 374.056 1.12105 1.58942 0
M  V30 3975 O 373.311 0.168656 1.94972 0
M  V30 3976 C 373.61 3.46856 0.861724 0
M  V30 3977 C 373.276 4.50348 -0.223066 0
M  V30 3978 C 371.938 4.78371 -0.521038 0
M  V30 3979 C 374.29 5.12355 -0.956124 0
M  V30 3980 C 371.618 5.6568 -1.55638 0
M  V30 3981 C 373.97 6.00786 -1.98089 0
M  V30 3982 C 372.634 6.27148 -2.28565 0
M  V30 3983 H 371.904 0.726739 0.144677 0
M  V30 3984 H 374.551 1.88491 -0.338114 0
M  V30 3985 H 372.856 3.5423 1.67418 0
M  V30 3986 H 374.553 3.77302 1.35809 0
M  V30 3987 H 371.143 4.28596 0.0193234 0
M  V30 3988 H 375.327 4.90765 -0.739166 0
M  V30 3989 H 370.583 5.84365 -1.798 0
M  V30 3990 H 374.757 6.4788 -2.55391 0
M  V30 3991 H 372.384 6.94597 -3.08932 0
M  V30 3992 N 373.959 -0.0401083 1.57549 0
M  V30 3993 C 375.189 -0.744115 1.92734 0
M  V30 3994 C 375.597 -1.70005 0.830348 0
M  V30 3995 O 374.94 -1.82576 -0.20286 0
M  V30 3996 C 375.002 -1.56516 3.2364 0
M  V30 3997 C 374.666 -0.7752 4.50377 0
M  V30 3998 C 375.663 -0.0803326 5.19838 0
M  V30 3999 C 373.348 -0.733002 4.96923 0
M  V30 4000 C 375.342 0.646154 6.34116 0
M  V30 4001 C 373.029 -0.00276321 6.111 0
M  V30 4002 C 374.027 0.685585 6.7955 0
M  V30 4003 O 373.715 1.40399 7.91545 0
M  V30 4004 H 373.447 -0.214861 0.640945 0
M  V30 4005 H 376.001 -0.00503675 2.05399 0
M  V30 4006 H 374.231 -2.3478 3.07271 0
M  V30 4007 H 375.92 -2.15076 3.44234 0
M  V30 4008 H 376.686 -0.104035 4.84888 0
M  V30 4009 H 372.565 -1.25827 4.43496 0
M  V30 4010 H 376.109 1.18398 6.87479 0
M  V30 4011 H 372.006 0.0229012 6.45496 0
M  V30 4012 H 372.774 1.31653 8.07843 0
M  V30 4013 N 375.437 -1.54477 -0.31217 0
M  V30 4014 C 376.347 -1.87695 -1.4074 0
M  V30 4015 C 377.363 -0.769975 -1.56036 0
M  V30 4016 O 378.539 -1.06537 -1.70915 0
M  V30 4017 C 375.604 -2.10755 -2.75287 0
M  V30 4018 C 374.665 -3.34514 -2.69071 0
M  V30 4019 C 373.898 -3.56465 -3.97201 0
M  V30 4020 O 374.121 -2.81637 -4.96021 0
M  V30 4021 O 373.055 -4.49964 -3.9977 0
M  V30 4022 H 376.881 -2.80849 -1.15574 0
M  V30 4023 H 374.466 -1.40526 -0.507228 0
M  V30 4024 H 376.348 -2.27188 -3.54913 0
M  V30 4025 H 375.023 -1.20788 -3.0032 0
M  V30 4026 H 373.93 -3.23456 -1.87955 0
M  V30 4027 H 375.263 -4.24575 -2.48992 0
M  V30 4028 N 376.915 0.57481 -1.46744 0
M  V30 4029 C 377.825 1.711 -1.60505 0
M  V30 4030 C 378.841 1.67008 -0.488307 0
M  V30 4031 O 380.017 1.86774 -0.753495 0
M  V30 4032 C 377.082 3.07608 -1.59932 0
M  V30 4033 C 376.143 3.22904 -2.82898 0
M  V30 4034 C 375.376 4.529 -2.82343 0
M  V30 4035 O 375.599 5.37278 -1.91542 0
M  V30 4036 O 374.533 4.71611 -3.73987 0
M  V30 4037 H 378.359 1.62436 -2.56609 0
M  V30 4038 H 375.944 0.742779 -1.29627 0
M  V30 4039 H 377.826 3.88877 -1.62336 0
M  V30 4040 H 376.501 3.16692 -0.669898 0
M  V30 4041 H 375.408 2.41099 -2.86046 0
M  V30 4042 H 376.741 3.18715 -3.75076 0
M  V30 4043 N 378.394 1.34581 0.820102 0
M  V30 4044 C 379.624 1.29991 1.6058 0
M  V30 4045 C 380.032 -0.127588 1.88769 0
M  V30 4046 O 379.375 -1.08595 1.48165 0
M  V30 4047 C 379.437 2.02548 2.9701 0
M  V30 4048 C 379.101 3.51794 2.91701 0
M  V30 4049 C 380.098 4.46647 2.66087 0
M  V30 4050 C 377.783 3.94249 3.11245 0
M  V30 4051 C 379.777 5.81929 2.60071 0
M  V30 4052 C 377.464 5.2963 3.04853 0
M  V30 4053 C 378.462 6.23282 2.793 0
M  V30 4054 O 378.15 7.56181 2.72847 0
M  V30 4055 H 377.882 0.448539 0.505756 0
M  V30 4056 H 380.436 1.77811 1.02822 0
M  V30 4057 H 378.666 1.49345 3.56697 0
M  V30 4058 H 380.355 1.91211 3.58041 0
M  V30 4059 H 381.121 4.15168 2.5072 0
M  V30 4060 H 377 3.21749 3.30149 0
M  V30 4061 H 380.544 6.54999 2.40046 0
M  V30 4062 H 376.441 5.60727 3.19774 0
M  V30 4063 H 377.209 7.6595 2.88553 0
M  V30 4064 N 379.872 -1.04064 1.18357 0
M  V30 4065 C 381.12 -1.76915 0.977013 0
M  V30 4066 C 381.441 -1.88624 -0.494577 0
M  V30 4067 O 380.711 -1.41125 -1.3587 0
M  V30 4068 H 379.291 -0.65535 0.358504 0
M  V30 4069 H 381.953 -1.25592 1.49039 0
M  V30 4070 H 381.049 -2.78178 1.41504 0
M  V30 4071 N 381.35 -0.985608 -1.22978 0
M  V30 4072 C 382.596 -0.65836 -1.91816 0
M  V30 4073 C 382.929 0.806692 -1.76653 0
M  V30 4074 O 382.204 1.58252 -1.13078 0
M  V30 4075 C 382.487 -1.056 -3.44268 0
M  V30 4076 C 382.34 -2.57906 -3.68516 0
M  V30 4077 C 383.659 -0.603781 -4.35939 0
M  V30 4078 H 380.778 -0.24065 -0.696604 0
M  V30 4079 H 383.42 -1.22783 -1.44998 0
M  V30 4080 H 381.57 -0.571445 -3.84274 0
M  V30 4081 H 383.242 -3.13976 -3.3796 0
M  V30 4082 H 381.485 -3.00305 -3.13048 0
M  V30 4083 H 382.156 -2.80779 -4.75255 0
M  V30 4084 H 384.632 -1.01987 -4.03408 0
M  V30 4085 H 383.508 -0.910383 -5.41298 0
M  V30 4086 H 383.769 0.495761 -4.39312 0
M  V30 4087 N 382.828 1.3818 -0.7579 0
M  V30 4088 C 384.077 1.99261 -0.312744 0
M  V30 4089 C 384.39 1.60846 1.11301 0
M  V30 4090 O 385.596 2.14929 1.65885 0
M  V30 4091 C 384.052 3.56294 -0.50821 0
M  V30 4092 C 383.66 4.03657 -1.94333 0
M  V30 4093 C 385.404 4.24313 -0.125982 0
M  V30 4094 C 383.311 5.53347 -2.08712 0
M  V30 4095 H 382.241 0.745456 -0.113185 0
M  V30 4096 H 384.892 1.57889 -0.935056 0
M  V30 4097 H 383.274 3.95575 0.183353 0
M  V30 4098 H 384.448 3.75655 -2.66871 0
M  V30 4099 H 382.763 3.48376 -2.28086 0
M  V30 4100 H 385.36 5.34279 -0.212125 0
M  V30 4101 H 385.703 4.05962 0.921964 0
M  V30 4102 H 386.236 3.90285 -0.769563 0
M  V30 4103 H 382.975 5.76607 -3.11777 0
M  V30 4104 H 382.495 5.83078 -1.4064 0
M  V30 4105 H 384.174 6.19111 -1.87912 0
M  V30 4106 N 384.306 0.507319 1.49211 0
M  V30 4107 C 385.722 0.163682 1.58758 0
M  V30 4108 C 385.922 -1.33208 1.51188 0
M  V30 4109 O 384.978 -2.10855 1.38911 0
M  V30 4110 C 386.291 0.746095 2.91297 0
M  V30 4111 C 387.839 0.712773 3.04776 0
M  V30 4112 C 388.314 1.27336 4.39943 0
M  V30 4113 N 389.805 1.23433 4.46451 0
M  V30 4114 C 390.54 1.63821 5.495 0
M  V30 4115 N 390.036 2.11832 6.5962 0
M  V30 4116 N 391.829 1.55198 5.4025 0
M  V30 4117 H 383.98 1.47972 1.52375 0
M  V30 4118 H 386.243 0.614147 0.722168 0
M  V30 4119 H 385.949 1.79534 3.02424 0
M  V30 4120 H 385.823 0.210137 3.76614 0
M  V30 4121 H 388.21 -0.327656 2.93275 0
M  V30 4122 H 388.291 1.28595 2.21127 0
M  V30 4123 H 387.935 2.3126 4.52196 0
M  V30 4124 H 387.865 0.676066 5.22242 0
M  V30 4125 H 390.356 0.882627 3.67448 0
M  V30 4126 H 390.669 2.40703 7.34358 0
M  V30 4127 H 389.014 2.1581 6.60644 0
M  V30 4128 H 392.205 1.17505 4.53112 0
M  V30 4129 H 392.378 1.86997 6.20432 0
M  V30 4130 N 385.784 -1.5574 0.241426 0
M  V30 4131 C 387.061 -1.90704 -0.434881 0
M  V30 4132 C 387.441 -1.16145 -1.76277 0
M  V30 4133 O 386.789 -0.277152 -2.26813 0
M  V30 4134 C 386.999 -3.43657 -0.608343 0
M  V30 4135 C 388.347 -4.14806 -0.906725 0
M  V30 4136 O 389.371 -3.49366 -0.694408 0
M  V30 4137 O 388.23 -5.30548 -1.31075 0
M  V30 4138 H 385.324 -0.793592 -0.23268 0
M  V30 4139 H 387.87 -1.67288 0.285086 0
M  V30 4140 H 386.642 -3.89927 0.327505 0
M  V30 4141 H 386.265 -3.72918 -1.37906 0
M  V30 4142 N 387.262 0.0317525 -1.57568 0
M  V30 4143 C 388.508 0.724175 -1.8943 0
M  V30 4144 C 388.841 1.75149 -0.838836 0
M  V30 4145 O 388.116 1.93948 0.146422 0
M  V30 4146 C 388.399 1.39615 -3.31933 0
M  V30 4147 C 388.252 0.382537 -4.4817 0
M  V30 4148 C 389.571 2.33084 -3.73309 0
M  V30 4149 H 386.69 0.261797 -0.688935 0
M  V30 4150 H 389.332 -0.013017 -1.89996 0
M  V30 4151 H 387.482 2.02451 -3.31581 0
M  V30 4152 H 389.154 -0.243689 -4.60656 0
M  V30 4153 H 387.397 -0.29844 -4.32772 0
M  V30 4154 H 388.068 0.891145 -5.44759 0
M  V30 4155 H 390.544 1.80295 -3.7501 0
M  V30 4156 H 389.42 2.77084 -4.73831 0
M  V30 4157 H 389.681 3.19643 -3.05419 0
M  V30 4158 N 388.74 1.54641 0.303973 0
M  V30 4159 C 389.67 1.88386 1.3796 0
M  V30 4160 C 390.651 0.742485 1.5304 0
M  V30 4161 O 391.836 0.997959 1.66597 0
M  V30 4162 C 388.966 2.12854 2.74427 0
M  V30 4163 C 387.92 3.28702 2.74115 0
M  V30 4164 C 387.246 3.38582 4.13844 0
M  V30 4165 C 388.546 4.65881 2.3612 0
M  V30 4166 H 390.24 2.78474 1.09966 0
M  V30 4167 H 387.786 1.33988 0.527556 0
M  V30 4168 H 389.739 2.35047 3.49758 0
M  V30 4169 H 388.463 1.19535 3.03939 0
M  V30 4170 H 387.122 3.06428 2.0124 0
M  V30 4171 H 386.77 2.42784 4.40528 0
M  V30 4172 H 386.47 4.16453 4.14537 0
M  V30 4173 H 387.994 3.63031 4.90959 0
M  V30 4174 H 389.408 4.87823 3.01167 0
M  V30 4175 H 387.805 5.46444 2.48031 0
M  V30 4176 H 388.875 4.66799 1.3125 0
M  V30 4177 N 390.218 -0.567019 1.47046 0
M  V30 4178 C 391.15 -1.68985 1.54844 0
M  V30 4179 C 392.163 -1.56869 0.435431 0
M  V30 4180 O 393.352 -1.64006 0.70457 0
M  V30 4181 C 390.452 -3.07373 1.42742 0
M  V30 4182 C 389.625 -3.45339 2.6844 0
M  V30 4183 C 388.684 -4.62849 2.50314 0
M  V30 4184 O 387.71 -4.67922 3.24095 0
M  V30 4185 N 388.912 -5.58726 1.57499 0
M  V30 4186 H 391.677 -1.62745 2.51663 0
M  V30 4187 H 389.238 -0.753411 1.43302 0
M  V30 4188 H 391.23 -3.83803 1.28365 0
M  V30 4189 H 389.8 -3.07893 0.540445 0
M  V30 4190 H 389.02 -2.58455 2.97648 0
M  V30 4191 H 390.308 -3.67476 3.51907 0
M  V30 4192 H 389.706 -5.57376 0.966876 0
M  V30 4193 H 388.263 -6.34523 1.49078 0
M  V30 4194 N 391.696 -1.35014 -0.812953 0
M  V30 4195 C 392.644 -1.27435 -1.94585 0
M  V30 4196 C 393.638 -0.170494 -1.6854 0
M  V30 4197 O 394.844 -0.336085 -1.76835 0
M  V30 4198 H 391.219 -0.396144 -0.639198 0
M  V30 4199 H 393.19 -2.23158 -1.98098 0
M  V30 4200 C 391.939 -1.05677 -3.31252 0
M  V30 4201 H 391.262 -1.89853 -3.51846 0
M  V30 4202 H 392.702 -1.04413 -4.10943 0
M  V30 4203 C 391.161 0.239615 -3.36047 0
M  V30 4204 O 391.691 1.23759 -3.8216 0
M  V30 4205 N 389.897 0.276186 -2.89285 0
M  V30 4206 H 389.444 -0.53653 -2.51951 0
M  V30 4207 H 389.402 1.14332 -2.92875 0
M  V30 4208 N 393.175 1.03435 -1.18907 0
M  V30 4209 C 394.125 2.09924 -0.889706 0
M  V30 4210 C 395.109 1.60261 0.143216 0
M  V30 4211 O 396.301 1.76892 -0.0617122 0
M  V30 4212 C 393.43 3.40669 -0.424168 0
M  V30 4213 C 392.516 3.97082 -1.48952 0
M  V30 4214 N 392.907 4.27227 -2.70759 0
M  V30 4215 C 391.205 4.25029 -1.35152 0
M  V30 4216 C 391.906 4.7246 -3.39347 0
M  V30 4217 N 390.882 4.7366 -2.66735 0
M  V30 4218 H 394.684 2.31116 -1.81555 0
M  V30 4219 H 392.198 1.21246 -1.08042 0
M  V30 4220 H 394.195 4.16461 -0.191176 0
M  V30 4221 H 392.855 3.20901 0.495263 0
M  V30 4222 H 393.866 4.16678 -3.0757 0
M  V30 4223 H 390.543 4.14554 -0.495126 0
M  V30 4224 H 391.933 5.04751 -4.43481 0
M  V30 4225 N 394.653 0.992116 1.22453 0
M  V30 4226 C 395.583 0.561677 2.26644 0
M  V30 4227 C 396.564 -0.411055 1.65059 0
M  V30 4228 O 397.749 -0.301861 1.9184 0
M  V30 4229 C 394.879 -0.125247 3.47074 0
M  V30 4230 C 393.833 0.765948 4.21091 0
M  V30 4231 C 393.159 -0.0538484 5.34673 0
M  V30 4232 C 394.459 2.06242 4.79856 0
M  V30 4233 H 396.153 1.43259 2.62902 0
M  V30 4234 H 393.699 0.690283 1.26377 0
M  V30 4235 H 395.652 -0.437764 4.1912 0
M  V30 4236 H 394.376 -1.03069 3.0991 0
M  V30 4237 H 393.035 1.0621 3.50878 0
M  V30 4238 H 392.683 -0.960188 4.9375 0
M  V30 4239 H 392.383 0.539415 5.85119 0
M  V30 4240 H 393.907 -0.360477 6.09535 0
M  V30 4241 H 395.321 1.8139 5.43848 0
M  V30 4242 H 393.718 2.60444 5.40638 0
M  V30 4243 H 394.788 2.74167 3.99951 0
M  V30 4244 N 396.131 -1.37776 0.765217 0
M  V30 4245 C 397.359 -2.04124 0.337767 0
M  V30 4246 C 397.774 -1.57715 -1.03785 0
M  V30 4247 O 397.131 -0.755447 -1.6613 0
M  V30 4248 C 397.182 -3.59658 0.364442 0
M  V30 4249 O 396.903 -4.04367 1.68579 0
M  V30 4250 C 398.404 -4.43236 -0.0754221 0
M  V30 4251 H 395.624 -0.655696 0.142491 0
M  V30 4252 H 398.168 -1.76238 1.03732 0
M  V30 4253 H 396.323 -3.86339 -0.286471 0
M  V30 4254 H 396.737 -4.98857 1.61993 0
M  V30 4255 H 398.211 -5.52 -0.00560067 0
M  V30 4256 H 398.688 -4.2455 -1.12491 0
M  V30 4257 H 399.294 -4.21767 0.547055 0
M  V30 4258 N 397.609 -0.515225 -1.4894 0
M  V30 4259 C 398.519 0.259774 -2.33157 0
M  V30 4260 C 399.535 0.953501 -1.45548 0
M  V30 4261 O 400.711 0.931735 -1.78552 0
M  V30 4262 C 397.776 1.30193 -3.21326 0
M  V30 4263 C 396.837 0.620129 -4.24797 0
M  V30 4264 C 396.07 1.61263 -5.08753 0
M  V30 4265 O 396.293 2.84389 -4.94448 0
M  V30 4266 O 395.227 1.16013 -5.90614 0
M  V30 4267 H 399.053 -0.429932 -3.00641 0
M  V30 4268 H 396.638 -0.276346 -1.46822 0
M  V30 4269 H 398.52 1.90455 -3.75905 0
M  V30 4270 H 397.195 1.97431 -2.56521 0
M  V30 4271 H 396.102 -0.0226019 -3.74093 0
M  V30 4272 H 397.435 -0.0100493 -4.92199 0
M  V30 4273 N 399.087 1.5561 -0.249682 0
M  V30 4274 C 400.333 1.99306 0.374841 0
M  V30 4275 C 400.666 1.13767 1.57387 0
M  V30 4276 O 399.941 0.201711 1.93451 0
M  V30 4277 C 400.224 3.51507 0.781986 0
M  V30 4278 C 400.077 4.4781 -0.422629 0
M  V30 4279 C 401.396 4.08884 1.62793 0
M  V30 4280 H 398.515 0.724572 0.134773 0
M  V30 4281 H 401.157 1.86719 -0.351549 0
M  V30 4282 H 399.307 3.62363 1.4009 0
M  V30 4283 H 400.979 4.48931 -1.06108 0
M  V30 4284 H 399.222 4.20518 -1.06524 0
M  V30 4285 H 399.893 5.51919 -0.0943766 0
M  V30 4286 H 402.369 4.01147 1.10547 0
M  V30 4287 H 401.245 5.1564 1.88166 0
M  V30 4288 H 401.506 3.57515 2.60068 0
M  V30 4289 N 400.565 -0.0233959 1.57583 0
M  V30 4290 C 401.495 -1.02162 2.09965 0
M  V30 4291 C 402.476 -1.3735 1.00344 0
M  V30 4292 O 403.661 -1.46135 1.27899 0
M  V30 4293 C 400.791 -2.32081 2.58371 0
M  V30 4294 C 399.745 -2.1112 3.72307 0
M  V30 4295 C 399.071 -3.46848 4.06941 0
M  V30 4296 C 400.371 -1.49276 5.00514 0
M  V30 4297 H 402.065 -0.585557 2.93618 0
M  V30 4298 H 399.611 -0.280218 1.41247 0
M  V30 4299 H 401.564 -3.02249 2.93639 0
M  V30 4300 H 400.288 -2.77758 1.71808 0
M  V30 4301 H 398.947 -1.43384 3.37397 0
M  V30 4302 H 398.595 -3.90184 3.17436 0
M  V30 4303 H 398.295 -3.33646 4.83688 0
M  V30 4304 H 399.819 -4.18369 4.44747 0
M  V30 4305 H 401.233 -2.09368 5.33702 0
M  V30 4306 H 399.63 -1.46632 5.8191 0
M  V30 4307 H 400.7 -0.459217 4.82721 0
M  V30 4308 N 402.043 -1.548 -0.295768 0
M  V30 4309 C 403.271 -1.78327 -1.04914 0
M  V30 4310 C 403.686 -0.545316 -1.80753 0
M  V30 4311 O 403.043 0.485013 -1.75937 0
M  V30 4312 C 403.094 -2.99418 -2.02561 0
M  V30 4313 O 402.815 -4.18431 -1.29798 0
M  V30 4314 C 404.316 -3.35375 -2.89895 0
M  V30 4315 H 401.536 -0.594618 -0.310918 0
M  V30 4316 H 404.08 -2.01763 -0.333454 0
M  V30 4317 H 402.235 -2.78175 -2.69624 0
M  V30 4318 H 402.649 -4.86736 -1.95419 0
M  V30 4319 H 404.123 -4.23332 -3.54251 0
M  V30 4320 H 404.6 -2.53761 -3.58472 0
M  V30 4321 H 405.206 -3.58796 -2.28355 0
M  V30 4322 N 403.521 0.559213 -1.47345 0
M  V30 4323 C 404.451 1.67622 -1.62558 0
M  V30 4324 C 405.432 1.63331 -0.475087 0
M  V30 4325 O 406.617 1.80983 -0.704182 0
M  V30 4326 C 403.747 3.0626 -1.63774 0
M  V30 4327 C 402.701 3.25397 -2.7803 0
M  V30 4328 C 402.027 4.64801 -2.64318 0
M  V30 4329 C 403.327 3.10965 -4.19641 0
M  V30 4330 H 405.021 1.55146 -2.56067 0
M  V30 4331 H 402.567 0.744961 -1.23233 0
M  V30 4332 H 404.52 3.84247 -1.73008 0
M  V30 4333 H 403.244 3.1969 -0.66825 0
M  V30 4334 H 401.903 2.49817 -2.68304 0
M  V30 4335 H 401.551 4.75028 -1.65401 0
M  V30 4336 H 401.251 4.78555 -3.40968 0
M  V30 4337 H 402.775 5.44926 -2.75478 0
M  V30 4338 H 404.189 3.78772 -4.30354 0
M  V30 4339 H 402.586 3.36229 -4.97062 0
M  V30 4340 H 403.656 2.07736 -4.38148 0
M  V30 4341 N 404.999 1.35443 0.805782 0
M  V30 4342 C 406.245 1.28952 1.56522 0
M  V30 4343 C 406.578 -0.135597 1.93726 0
M  V30 4344 O 405.853 -1.08516 1.61414 0
M  V30 4345 C 406.136 2.19678 2.85331 0
M  V30 4346 C 405.989 3.7081 2.54598 0
M  V30 4347 C 407.308 2.09495 3.8704 0
M  V30 4348 H 404.427 0.469764 0.567883 0
M  V30 4349 H 407.069 1.65851 0.927001 0
M  V30 4350 H 405.219 1.8834 3.39795 0
M  V30 4351 H 406.891 4.12593 2.06312 0
M  V30 4352 H 405.134 3.91051 1.8778 0
M  V30 4353 H 405.805 4.29679 3.46525 0
M  V30 4354 H 408.281 2.37045 3.41978 0
M  V30 4355 H 407.157 2.75173 4.74943 0
M  V30 4356 H 407.418 1.07714 4.28777 0
M  V30 4357 N 406.477 -1.02803 1.19454 0
M  V30 4358 C 407.44 -2.09264 0.934955 0
M  V30 4359 C 408.44 -1.60576 -0.0849015 0
M  V30 4360 O 409.63 -1.73554 0.149933 0
M  V30 4361 C 406.762 -3.38482 0.40531 0
M  V30 4362 H 407.955 -2.33726 1.87916 0
M  V30 4363 H 405.508 -1.19426 1.00832 0
M  V30 4364 H 406.243 -3.19689 -0.544899 0
M  V30 4365 H 406.028 -3.75142 1.14065 0
M  V30 4366 H 407.518 -4.16894 0.242806 0
M  V30 4367 N 407.956 -0.998596 -1.21925 0
M  V30 4368 C 408.889 -0.498517 -2.22688 0
M  V30 4369 C 409.867 0.444301 -1.56412 0
M  V30 4370 O 411.051 0.368518 -1.84863 0
M  V30 4371 C 408.178 0.276639 -3.37568 0
M  V30 4372 C 407.224 -0.61302 -4.22071 0
M  V30 4373 S 408.057 -2.07168 -4.93803 0
M  V30 4374 C 409.213 -1.30617 -6.12119 0
M  V30 4375 H 409.446 -1.35234 -2.64762 0
M  V30 4376 H 406.979 -0.806018 -1.31692 0
M  V30 4377 H 408.937 0.717817 -4.04175 0
M  V30 4378 H 407.598 1.10581 -2.93991 0
M  V30 4379 H 406.791 -0.0162909 -5.03997 0
M  V30 4380 H 406.393 -0.991202 -3.60626 0
M  V30 4381 H 408.685 -0.57675 -6.75041 0
M  V30 4382 H 409.628 -2.10091 -6.76215 0
M  V30 4383 H 410.036 -0.816957 -5.58557 0
M  V30 4384 N 409.434 1.37368 -0.772513 0
M  V30 4385 C 410.344 2.34053 -0.160081 0
M  V30 4386 C 411.36 1.60216 0.678728 0
M  V30 4387 O 412.536 1.92303 0.59847 0
M  V30 4388 C 409.601 3.3939 0.708182 0
M  V30 4389 C 408.662 4.29048 -0.147172 0
M  V30 4390 C 407.895 5.29354 0.679744 0
M  V30 4391 O 408.118 5.3723 1.91678 0
M  V30 4392 O 407.052 6.01835 0.0885444 0
M  V30 4393 H 410.878 2.88159 -0.959053 0
M  V30 4394 H 408.463 1.39543 -0.533685 0
M  V30 4395 H 410.345 4.03839 1.20384 0
M  V30 4396 H 409.02 2.8761 1.48533 0
M  V30 4397 H 407.927 3.67697 -0.689205 0
M  V30 4398 H 409.26 4.84134 -0.887423 0
M  V30 4399 N 410.912 0.523116 1.48665 0
M  V30 4400 C 411.842 -0.23231 2.32342 0
M  V30 4401 C 412.823 -0.941637 1.41659 0
M  V30 4402 O 414.008 -0.928751 1.70552 0
M  V30 4403 C 411.138 -1.28387 3.22698 0
M  V30 4404 C 410.092 -0.693098 4.22351 0
M  V30 4405 C 409.418 -1.8468 5.01794 0
M  V30 4406 C 410.718 0.33063 5.21252 0
M  V30 4407 H 412.412 0.466192 2.95748 0
M  V30 4408 H 409.958 0.225643 1.42221 0
M  V30 4409 H 411.911 -1.82024 3.80059 0
M  V30 4410 H 410.635 -2.01186 2.57278 0
M  V30 4411 H 409.294 -0.178299 3.66166 0
M  V30 4412 H 408.942 -2.56301 4.32804 0
M  V30 4413 H 408.642 -1.45747 5.69238 0
M  V30 4414 H 410.166 -2.38709 5.62006 0
M  V30 4415 H 411.58 -0.118407 5.73178 0
M  V30 4416 H 409.977 0.636974 5.9671 0
M  V30 4417 H 411.047 1.23883 4.68808 0
M  V30 4418 N 412.39 -1.55475 0.257931 0
M  V30 4419 C 413.801 -1.8511 -0.243135 0
M  V30 4420 C 414.152 -1.17986 -1.5676 0
M  V30 4421 O 413.277 -0.462102 -2.11409 0
M  V30 4422 C 413.872 -3.35826 -0.447929 0
M  V30 4423 C 412.431 -3.65647 -0.893245 0
M  V30 4424 C 411.578 -2.7729 0.0232965 0
M  V30 4425 H 414.529 -1.51261 0.480199 0
M  V30 4426 H 414.55 -3.58002 -1.28898 0
M  V30 4427 H 414.062 -3.84652 0.516196 0
M  V30 4428 H 412.163 -3.22308 -1.86945 0
M  V30 4429 H 412.276 -4.73312 -0.742469 0
M  V30 4430 H 410.64 -2.49942 -0.490021 0
M  V30 4431 H 411.423 -3.28926 0.982994 0
M  V30 4432 N 413.868 0.0150385 -1.57593 0
M  V30 4433 C 414.818 1.01943 -2.0394 0
M  V30 4434 C 415.802 1.31209 -0.931286 0
M  V30 4435 O 416.994 1.30559 -1.19513 0
M  V30 4436 C 414.123 2.31621 -2.53391 0
M  V30 4437 C 413.209 2.05384 -3.7105 0
M  V30 4438 N 413.6 1.49253 -4.83278 0
M  V30 4439 C 411.898 2.35601 -3.78693 0
M  V30 4440 C 412.599 1.39143 -5.64813 0
M  V30 4441 N 411.575 1.87187 -5.10355 0
M  V30 4442 H 415.377 0.57969 -2.88126 0
M  V30 4443 H 412.891 0.221056 -1.60888 0
M  V30 4444 H 414.888 3.044 -2.84862 0
M  V30 4445 H 413.548 2.76261 -1.70616 0
M  V30 4446 H 414.559 1.17334 -5.04433 0
M  V30 4447 H 411.236 2.8322 -3.06746 0
M  V30 4448 H 412.626 0.961153 -6.6499 0
M  V30 4449 N 415.346 1.54954 0.287554 0
M  V30 4450 C 416.294 1.87606 1.37502 0
M  V30 4451 C 417.288 0.751001 1.51843 0
M  V30 4452 O 418.494 0.935169 1.53801 0
M  V30 4453 H 414.869 0.595231 0.459569 0
M  V30 4454 H 416.84 2.78477 1.07206 0
M  V30 4455 C 415.589 2.15183 2.73115 0
M  V30 4456 H 414.912 3.01234 2.62866 0
M  V30 4457 H 416.352 2.4196 3.48183 0
M  V30 4458 C 414.811 0.954686 3.2309 0
M  V30 4459 O 415.341 0.181949 4.01288 0
M  V30 4460 N 413.547 0.756368 2.80584 0
M  V30 4461 H 413.094 1.38643 2.17108 0
M  V30 4462 H 413.052 -0.0430391 3.14371 0
M  V30 4463 N 416.824 -0.551391 1.4764 0
M  V30 4464 C 418.07 -1.31024 1.54792 0
M  V30 4465 C 418.403 -1.9304 0.211967 0
M  V30 4466 O 417.678 -1.78175 -0.77999 0
M  V30 4467 C 417.961 -2.41593 2.67029 0
M  V30 4468 C 417.814 -1.84408 4.10261 0
M  V30 4469 C 419.133 -3.43488 2.75143 0
M  V30 4470 H 416.252 -0.475031 0.563485 0
M  V30 4471 H 418.894 -0.616454 1.79722 0
M  V30 4472 H 417.044 -3.00772 2.45904 0
M  V30 4473 H 418.716 -1.29445 4.42766 0
M  V30 4474 H 416.959 -1.15051 4.18265 0
M  V30 4475 H 417.63 -2.64367 4.84576 0
M  V30 4476 H 420.106 -2.94236 2.94218 0
M  V30 4477 H 418.982 -4.18274 3.55441 0
M  V30 4478 H 419.243 -4.02703 1.82435 0
M  V30 4479 N 418.302 -1.35869 -0.798587 0
M  V30 4480 C 419.527 -1.32883 -1.59238 0
M  V30 4481 C 419.952 0.0894587 -1.87887 0
M  V30 4482 O 419.31 1.05869 -1.47178 0
M  V30 4483 C 419.358 -2.14892 -2.89575 0
M  V30 4484 O 418.462 -1.53512 -3.82763 0
M  V30 4485 H 417.803 -0.455236 -0.48338 0
M  V30 4486 H 420.333 -1.79024 -0.990539 0
M  V30 4487 H 420.343 -2.27139 -3.38928 0
M  V30 4488 H 419.018 -3.17998 -2.68049 0
M  V30 4489 H 417.595 -1.50153 -3.41334 0
M  V30 4490 N 419.78 1.02168 -1.19998 0
M  V30 4491 C 421.005 1.79833 -1.03319 0
M  V30 4492 C 421.43 1.83504 0.413281 0
M  V30 4493 O 420.788 1.26635 1.29743 0
M  V30 4494 C 420.836 3.22396 -1.61533 0
M  V30 4495 O 419.94 4.03555 -0.849519 0
M  V30 4496 H 419.281 0.554872 -0.364709 0
M  V30 4497 H 421.811 1.28542 -1.59179 0
M  V30 4498 H 421.821 3.73124 -1.65054 0
M  V30 4499 H 420.496 3.19039 -2.66809 0
M  V30 4500 H 419.073 3.62169 -0.888129 0
M  V30 4501 N 421.258 1.00505 1.21394 0
M  V30 4502 C 422.221 0.570459 2.21987 0
M  V30 4503 C 423.221 -0.353211 1.56873 0
M  V30 4504 O 424.411 -0.14349 1.73608 0
M  V30 4505 C 421.543 -0.168555 3.40483 0
M  V30 4506 H 422.736 1.46021 2.6195 0
M  V30 4507 H 420.289 0.793565 1.34656 0
M  V30 4508 H 421.024 -1.07374 3.06009 0
M  V30 4509 H 420.809 0.494823 3.88965 0
M  V30 4510 H 422.299 -0.460362 4.15055 0
M  V30 4511 N 422.737 -1.36956 0.779787 0
M  V30 4512 C 423.647 -2.33965 0.172491 0
M  V30 4513 C 424.663 -1.60574 -0.670222 0
M  V30 4514 O 425.839 -1.92617 -0.588263 0
M  V30 4515 C 422.904 -3.39761 -0.690173 0
M  V30 4516 C 421.965 -4.28964 0.169924 0
M  V30 4517 C 421.198 -5.29707 -0.651662 0
M  V30 4518 O 421.421 -5.38238 -1.88827 0
M  V30 4519 O 420.355 -6.01873 -0.0566264 0
M  V30 4520 H 424.181 -2.87647 0.974321 0
M  V30 4521 H 421.766 -1.39258 0.541078 0
M  V30 4522 H 423.648 -4.04471 -1.1824 0
M  V30 4523 H 422.323 -2.88394 -1.47006 0
M  V30 4524 H 421.23 -3.67326 0.708696 0
M  V30 4525 H 422.563 -4.83656 0.913085 0
M  V30 4526 N 424.215 -0.530993 -1.48385 0
M  V30 4527 C 425.178 0.220497 -2.28137 0
M  V30 4528 C 426.178 0.866851 -1.35434 0
M  V30 4529 O 427.368 0.726746 -1.58316 0
M  V30 4530 C 424.5 1.31921 -3.1434 0
M  V30 4531 H 425.693 -0.479714 -2.96038 0
M  V30 4532 H 423.246 -0.286968 -1.53643 0
M  V30 4533 H 423.981 2.05264 -2.51072 0
M  V30 4534 H 423.766 0.86085 -3.82533 0
M  V30 4535 H 425.256 1.84776 -3.74497 0
M  V30 4536 N 425.693 1.55336 -0.266172 0
M  V30 4537 C 426.939 1.99692 0.353681 0
M  V30 4538 C 427.272 1.1543 1.56172 0
M  V30 4539 O 426.547 0.222218 1.93226 0
M  V30 4540 C 426.83 3.52316 0.74466 0
M  V30 4541 C 426.683 4.47337 -0.470101 0
M  V30 4542 C 428.002 4.10588 1.58447 0
M  V30 4543 H 425.121 0.725961 0.12708 0
M  V30 4544 H 427.763 1.86336 -0.371333 0
M  V30 4545 H 425.913 3.63829 1.36239 0
M  V30 4546 H 427.585 4.4778 -1.10864 0
M  V30 4547 H 425.828 4.19364 -1.10978 0
M  V30 4548 H 426.499 5.51788 -0.15291 0
M  V30 4549 H 428.975 4.02297 1.06286 0
M  V30 4550 H 427.851 5.17607 1.82686 0
M  V30 4551 H 428.112 3.60253 2.56262 0
M  V30 4552 N 427.171 -0.0066808 1.57599 0
M  V30 4553 C 428.101 -0.999296 2.11036 0
M  V30 4554 C 429.082 -1.36278 1.01795 0
M  V30 4555 O 430.267 -1.4477 1.29442 0
M  V30 4556 C 427.397 -2.29328 2.60818 0
M  V30 4557 C 426.351 -2.07159 3.74525 0
M  V30 4558 C 425.677 -3.42512 4.10596 0
M  V30 4559 C 426.977 -1.43959 5.02069 0
M  V30 4560 H 428.671 -0.554382 2.94223 0
M  V30 4561 H 426.217 -0.265221 1.41536 0
M  V30 4562 H 428.17 -2.99117 2.96828 0
M  V30 4563 H 426.894 -2.7592 1.74745 0
M  V30 4564 H 425.553 -1.39797 3.38899 0
M  V30 4565 H 425.201 -3.86795 3.21556 0
M  V30 4566 H 424.901 -3.28498 4.87199 0
M  V30 4567 H 426.425 -4.13628 4.4916 0
M  V30 4568 H 427.839 -2.03696 5.35893 0
M  V30 4569 H 426.236 -1.40452 5.83432 0
M  V30 4570 H 427.306 -0.407992 4.83181 0
M  V30 4571 N 428.649 -1.55105 -0.279332 0
M  V30 4572 C 430.065 -1.46803 -0.626187 0
M  V30 4573 C 430.265 -0.676939 -1.89789 0
M  V30 4574 O 429.321 -0.19326 -2.51759 0
M  V30 4575 C 430.634 -2.90962 -0.759034 0
M  V30 4576 C 432.182 -3.01138 -0.853504 0
M  V30 4577 C 432.657 -4.46539 -1.01818 0
M  V30 4578 N 434.148 -4.50341 -1.08386 0
M  V30 4579 C 434.883 -5.60053 -1.22996 0
M  V30 4580 N 434.379 -6.79645 -1.34366 0
M  V30 4581 N 436.172 -5.47783 -1.26056 0
M  V30 4582 H 428.323 -2.04996 0.555921 0
M  V30 4583 H 430.586 -0.929325 0.187239 0
M  V30 4584 H 430.292 -3.51544 0.104852 0
M  V30 4585 H 430.166 -3.39619 -1.64131 0
M  V30 4586 H 432.553 -2.40658 -1.70786 0
M  V30 4587 H 432.634 -2.55745 0.0532466 0
M  V30 4588 H 432.278 -5.0762 -0.168504 0
M  V30 4589 H 432.208 -4.89583 -1.93948 0
M  V30 4590 H 434.699 -3.64191 -1.00864 0
M  V30 4591 H 435.012 -7.59012 -1.4533 0
M  V30 4592 H 433.357 -6.82469 -1.31382 0
M  V30 4593 H 436.548 -4.53294 -1.168 0
M  V30 4594 H 436.721 -6.33331 -1.37098 0
M  V30 4595 N 430.127 0.543554 -1.4793 0
M  V30 4596 C 431.077 1.64527 -1.57844 0
M  V30 4597 C 432.061 1.54869 -0.436408 0
M  V30 4598 O 433.253 1.63119 -0.687101 0
M  V30 4599 C 430.382 3.03281 -1.6086 0
M  V30 4600 C 429.468 3.18093 -2.80495 0
M  V30 4601 N 429.859 3.02923 -4.05057 0
M  V30 4602 C 428.157 3.49121 -2.77543 0
M  V30 4603 C 428.858 3.20791 -4.85251 0
M  V30 4604 N 427.834 3.47749 -4.17818 0
M  V30 4605 H 431.636 1.51388 -2.5191 0
M  V30 4606 H 429.15 0.748671 -1.44113 0
M  V30 4607 H 431.147 3.82403 -1.66054 0
M  V30 4608 H 429.807 3.17521 -0.678996 0
M  V30 4609 H 430.818 2.79966 -4.35705 0
M  V30 4610 H 427.495 3.69804 -1.93781 0
M  V30 4611 H 428.885 3.13915 -5.9406 0
M  V30 4612 N 431.605 1.3629 0.791371 0
M  V30 4613 C 432.552 1.30458 1.90393 0
M  V30 4614 C 433.522 0.173632 1.6519 0
M  V30 4615 O 434.707 0.35983 1.87376 0
M  V30 4616 C 431.847 1.09777 3.27174 0
M  V30 4617 C 430.96 2.31929 3.64462 0
M  V30 4618 C 430.095 2.04276 4.90352 0
M  V30 4619 C 429.134 3.224 5.20312 0
M  V30 4620 N 428.271 2.94424 6.37385 0
M  V30 4621 H 433.111 2.25589 1.94714 0
M  V30 4622 H 430.648 1.12122 0.952216 0
M  V30 4623 H 432.606 0.958133 4.06049 0
M  V30 4624 H 431.236 0.183014 3.22281 0
M  V30 4625 H 430.288 2.56703 2.80727 0
M  V30 4626 H 431.6 3.20085 3.82553 0
M  V30 4627 H 430.754 1.87231 5.77087 0
M  V30 4628 H 429.493 1.13428 4.74326 0
M  V30 4629 H 428.498 3.40005 4.32061 0
M  V30 4630 H 429.723 4.14071 5.38258 0
M  V30 4631 H 427.669 2.06185 6.22755 0
M  V30 4632 H 427.586 3.76118 6.55798 0
M  V30 4633 H 428.854 2.80953 7.27108 0
M  V30 4634 N 433.083 -1.0153 1.20538 0
M  V30 4635 C 434.013 -2.11972 0.979295 0
M  V30 4636 C 434.994 -1.6985 -0.0921787 0
M  V30 4637 O 436.179 -1.94089 0.0655932 0
M  V30 4638 C 433.309 -3.43201 0.531984 0
M  V30 4639 C 432.263 -3.9907 1.54685 0
M  V30 4640 C 431.589 -5.26082 0.956127 0
M  V30 4641 C 432.889 -4.32313 2.93092 0
M  V30 4642 H 434.583 -2.31143 1.90298 0
M  V30 4643 H 432.129 -1.11079 0.916372 0
M  V30 4644 H 434.082 -4.1985 0.361044 0
M  V30 4645 H 432.806 -3.23792 -0.427327 0
M  V30 4646 H 431.465 -3.2453 1.70517 0
M  V30 4647 H 431.113 -5.02999 -0.0111538 0
M  V30 4648 H 430.813 -5.64426 1.63393 0
M  V30 4649 H 432.337 -6.05386 0.796284 0
M  V30 4650 H 433.751 -4.99845 2.80763 0
M  V30 4651 H 432.148 -4.81774 3.57791 0
M  V30 4652 H 433.218 -3.41025 3.44717 0
M  V30 4653 N 434.561 -1.01147 -1.20859 0
M  V30 4654 C 435.493 -0.535546 -2.22855 0
M  V30 4655 C 436.506 0.379323 -1.58319 0
M  V30 4656 O 437.695 0.178489 -1.77605 0
M  V30 4657 C 434.795 0.240962 -3.38042 0
M  V30 4658 C 433.968 -0.674562 -4.32167 0
M  V30 4659 C 433.027 0.053467 -5.26173 0
M  V30 4660 O 432.053 -0.567339 -5.66366 0
M  V30 4661 N 433.255 1.32997 -5.65059 0
M  V30 4662 H 436.02 -1.41268 -2.64317 0
M  V30 4663 H 433.581 -0.888386 -1.35349 0
M  V30 4664 H 435.573 0.737115 -3.97931 0
M  V30 4665 H 434.143 1.01935 -2.95513 0
M  V30 4666 H 433.363 -1.35111 -3.70322 0
M  V30 4667 H 434.651 -1.2974 -4.91981 0
M  V30 4668 H 434.049 1.85536 -5.34409 0
M  V30 4669 H 432.606 1.77095 -6.2728 0
M  V30 4670 N 436.039 1.36541 -0.78704 0
M  V30 4671 C 437.285 1.99599 -0.358872 0
M  V30 4672 C 437.618 1.62323 1.06606 0
M  V30 4673 O 436.893 0.876858 1.73613 0
M  V30 4674 C 437.176 3.56327 -0.519944 0
M  V30 4675 C 437.029 4.03464 -1.98839 0
M  V30 4676 C 438.348 4.4005 0.0664737 0
M  V30 4677 H 435.467 0.725107 -0.131869 0
M  V30 4678 H 438.109 1.6199 -0.992936 0
M  V30 4679 H 436.259 3.88495 0.0198321 0
M  V30 4680 H 437.931 3.81793 -2.58905 0
M  V30 4681 H 436.174 3.55092 -2.49183 0
M  V30 4682 H 436.845 5.12439 -2.05207 0
M  V30 4683 H 439.321 4.14228 -0.394267 0
M  V30 4684 H 438.197 5.48847 -0.0762682 0
M  V30 4685 H 438.458 4.26655 1.15835 0
M  V30 4686 N 437.518 0.538854 1.48102 0
M  V30 4687 C 438.765 0.0080018 2.02498 0
M  V30 4688 C 439.093 -1.33437 1.41509 0
M  V30 4689 O 438.348 -1.87709 0.553507 0
M  V30 4690 C 438.647 -0.153808 3.57069 0
M  V30 4691 C 438.313 1.11533 4.36888 0
M  V30 4692 C 436.975 1.46314 4.58417 0
M  V30 4693 C 439.327 1.95718 4.83057 0
M  V30 4694 C 436.655 2.6516 5.23361 0
M  V30 4695 C 439.007 3.13751 5.49312 0
M  V30 4696 C 437.671 3.48866 5.69077 0
M  V30 4697 H 436.941 0.00292807 0.740994 0
M  V30 4698 H 439.588 0.706668 1.77984 0
M  V30 4699 H 437.893 -0.935309 3.80472 0
M  V30 4700 H 439.59 -0.579607 3.96789 0
M  V30 4701 H 436.18 0.834484 4.20398 0
M  V30 4702 H 440.364 1.70158 4.66219 0
M  V30 4703 H 435.62 2.92558 5.36861 0
M  V30 4704 H 439.794 3.79282 5.84053 0
M  V30 4705 H 437.421 4.41054 6.19173 0
M  V30 4706 N 438.996 -1.55193 0.274407 0
M  V30 4707 C 439.928 -2.1989 -0.646595 0
M  V30 4708 C 440.941 -1.1834 -1.11801 0
M  V30 4709 O 442.13 -1.4507 -1.04004 0
M  V30 4710 C 439.23 -2.8104 -1.89393 0
M  V30 4711 C 438.403 -4.08274 -1.56943 0
M  V30 4712 C 437.462 -4.53478 -2.66916 0
M  V30 4713 O 436.488 -5.19267 -2.33132 0
M  V30 4714 N 437.69 -4.2356 -3.9696 0
M  V30 4715 H 440.455 -2.99556 -0.0928686 0
M  V30 4716 H 438.016 -1.61618 0.0954783 0
M  V30 4717 H 440.008 -3.08226 -2.62257 0
M  V30 4718 H 438.578 -2.05372 -2.35672 0
M  V30 4719 H 437.798 -3.88384 -0.674655 0
M  V30 4720 H 439.086 -4.91173 -1.32764 0
M  V30 4721 H 438.484 -3.70799 -4.27229 0
M  V30 4722 H 437.041 -4.55518 -4.66205 0
M  V30 4723 N 440.474 -0.00167713 -1.576 0
M  V30 4724 C 441.437 0.974046 -2.07473 0
M  V30 4725 C 442.437 1.27143 -0.984444 0
M  V30 4726 O 443.627 1.21633 -1.24703 0
M  V30 4727 C 440.759 2.29849 -2.51759 0
M  V30 4728 H 441.952 0.54262 -2.9495 0
M  V30 4729 H 439.505 0.245829 -1.54355 0
M  V30 4730 H 440.24 2.77677 -1.67529 0
M  V30 4731 H 440.025 2.09584 -3.31386 0
M  V30 4732 H 441.515 2.9984 -2.90664 0
M  V30 4733 N 441.952 1.55251 0.271103 0
M  V30 4734 C 442.882 1.9127 1.33933 0
M  V30 4735 C 443.863 0.77478 1.5143 0
M  V30 4736 O 445.048 1.03307 1.64442 0
M  V30 4737 C 442.178 2.18627 2.69851 0
M  V30 4738 C 441.132 3.34442 2.67081 0
M  V30 4739 C 440.458 3.47284 4.06569 0
M  V30 4740 C 441.758 4.70784 2.26185 0
M  V30 4741 H 443.452 2.80744 1.04035 0
M  V30 4742 H 440.998 1.35077 0.499017 0
M  V30 4743 H 442.951 2.42413 3.44694 0
M  V30 4744 H 441.675 1.25955 3.01335 0
M  V30 4745 H 440.334 3.10627 1.94695 0
M  V30 4746 H 439.982 2.52074 4.35279 0
M  V30 4747 H 439.682 4.25152 4.0561 0
M  V30 4748 H 441.206 3.73363 4.83148 0
M  V30 4749 H 442.62 4.94102 2.90751 0
M  V30 4750 H 441.017 5.51582 2.36384 0
M  V30 4751 H 442.087 4.69478 1.21319 0
M  V30 4752 N 443.43 -0.535701 1.48216 0
M  V30 4753 C 444.846 -0.863701 1.3421 0
M  V30 4754 C 445.046 -1.98458 0.34879 0
M  V30 4755 O 444.102 -2.51432 -0.23204 0
M  V30 4756 C 445.415 -1.23662 2.74095 0
M  V30 4757 C 446.963 -1.34683 2.82541 0
M  V30 4758 C 447.438 -1.75322 4.23115 0
M  V30 4759 N 448.929 -1.82434 4.2576 0
M  V30 4760 C 449.664 -2.15252 5.31464 0
M  V30 4761 N 449.16 -2.46533 6.47452 0
M  V30 4762 N 450.953 -2.16209 5.18855 0
M  V30 4763 H 443.104 0.203965 2.11418 0
M  V30 4764 H 445.367 0.0286033 0.947568 0
M  V30 4765 H 445.073 -0.486674 3.48316 0
M  V30 4766 H 444.947 -2.18805 3.07253 0
M  V30 4767 H 447.334 -2.08756 2.08579 0
M  V30 4768 H 447.415 -0.376756 2.5301 0
M  V30 4769 H 447.059 -1.01812 4.97591 0
M  V30 4770 H 446.989 -2.7337 4.50085 0
M  V30 4771 H 449.48 -1.6056 3.42095 0
M  V30 4772 H 449.793 -2.70662 7.23852 0
M  V30 4773 H 448.138 -2.44065 6.50736 0
M  V30 4774 H 451.329 -1.91224 4.2726 0
M  V30 4775 H 451.502 -2.41453 6.01335 0
M  V30 4776 N 444.908 -1.36708 -0.784132 0
M  V30 4777 C 446.156 -1.30972 -1.53918 0
M  V30 4778 C 446.477 0.109086 -1.94695 0
M  V30 4779 O 445.747 1.05048 -1.65353 0
M  V30 4780 H 444.327 -0.481819 -0.570841 0
M  V30 4781 H 446.989 -1.71063 -0.934002 0
M  V30 4782 H 446.085 -1.94061 -2.44431 0
M  V30 4783 N 446.386 1.0089 -1.21074 0
M  V30 4784 C 447.316 2.1145 -0.990523 0
M  V30 4785 C 448.297 1.69897 0.0831699 0
M  V30 4786 O 449.482 1.94052 -0.0758853 0
M  V30 4787 C 446.612 3.42914 -0.550177 0
M  V30 4788 C 445.566 3.98244 -1.56799 0
M  V30 4789 C 444.892 5.25568 -0.984013 0
M  V30 4790 C 446.192 4.30752 -2.95381 0
M  V30 4791 H 447.886 2.3013 -1.91521 0
M  V30 4792 H 445.432 1.10592 -0.92225 0
M  V30 4793 H 447.385 4.19653 -0.383305 0
M  V30 4794 H 446.109 3.24014 0.41015 0
M  V30 4795 H 444.768 3.23621 -1.72236 0
M  V30 4796 H 444.416 5.02998 -0.0155216 0
M  V30 4797 H 444.116 5.63551 -1.66384 0
M  V30 4798 H 445.64 6.04955 -0.828378 0
M  V30 4799 H 447.054 4.98349 -2.8341 0
M  V30 4800 H 445.451 4.79869 -3.60341 0
M  V30 4801 H 446.521 3.39192 -3.46521 0
M  V30 4802 N 447.864 1.01787 1.20321 0
M  V30 4803 C 448.796 0.547357 2.22568 0
M  V30 4804 C 449.809 -0.370922 1.58518 0
M  V30 4805 O 450.998 -0.169067 1.77698 0
M  V30 4806 C 448.098 -0.223031 3.38165 0
M  V30 4807 C 447.271 0.697472 4.31803 0
M  V30 4808 C 446.33 -0.025562 5.26194 0
M  V30 4809 O 445.356 0.597367 5.66057 0
M  V30 4810 N 446.558 -1.29999 5.65757 0
M  V30 4811 H 449.323 1.42668 2.63564 0
M  V30 4812 H 446.884 0.895552 1.34876 0
M  V30 4813 H 448.876 -0.716002 3.98316 0
M  V30 4814 H 447.446 -1.00366 2.9605 0
M  V30 4815 H 446.666 1.37073 3.69601 0
M  V30 4816 H 447.954 1.32347 4.91286 0
M  V30 4817 H 447.352 -1.827 5.35385 0
M  V30 4818 H 445.909 -1.73766 6.28211 0
M  V30 4819 N 449.342 -1.36122 0.79427 0
M  V30 4820 C 450.758 -1.5232 0.476525 0
M  V30 4821 C 450.958 -1.74685 -1.00436 0
M  V30 4822 O 450.014 -1.78115 -1.78973 0
M  V30 4823 C 451.327 -2.70607 1.31119 0
M  V30 4824 C 452.875 -2.8448 1.30537 0
M  V30 4825 C 453.35 -4.05778 2.12387 0
M  V30 4826 N 454.841 -4.12933 2.09859 0
M  V30 4827 C 455.576 -5.05876 2.69957 0
M  V30 4828 N 455.072 -6.04232 3.38934 0
M  V30 4829 N 456.865 -4.98528 2.59665 0
M  V30 4830 H 449.016 -1.1986 1.75349 0
M  V30 4831 H 451.279 -0.585418 0.745647 0
M  V30 4832 H 450.985 -2.60619 2.36158 0
M  V30 4833 H 450.859 -3.64888 0.955843 0
M  V30 4834 H 453.246 -2.93927 0.262876 0
M  V30 4835 H 453.327 -1.91093 1.70051 0
M  V30 4836 H 452.971 -3.97092 3.1667 0
M  V30 4837 H 452.901 -4.98323 1.70242 0
M  V30 4838 H 455.392 -3.42515 1.59662 0
M  V30 4839 H 455.705 -6.71724 3.82109 0
M  V30 4840 H 454.05 -6.04443 3.43036 0
M  V30 4841 H 457.241 -4.20641 2.05375 0
M  V30 4842 H 457.414 -5.70773 3.06793 0
M  V30 4843 N 450.82 -0.546701 -1.47814 0
M  V30 4844 C 452.068 -0.0187037 -2.02091 0
M  V30 4845 C 452.389 1.33168 -1.42447 0
M  V30 4846 O 451.659 1.86619 -0.595839 0
M  V30 4847 H 450.239 -0.00392531 -0.74699 0
M  V30 4848 H 452.901 -0.714327 -1.81338 0
M  V30 4849 H 451.997 0.0772219 -3.12004 0
M  V30 4850 N 452.299 1.55045 -0.282633 0
M  V30 4851 C 453.524 2.04628 0.337977 0
M  V30 4852 C 453.949 1.15937 1.48123 0
M  V30 4853 O 453.307 0.159532 1.80597 0
M  V30 4854 C 453.355 3.51854 0.78936 0
M  V30 4855 O 452.459 3.66236 1.89592 0
M  V30 4856 H 451.8 0.660434 0.0687261 0
M  V30 4857 H 454.33 2.00261 -0.419124 0
M  V30 4858 H 454.34 3.93361 1.08311 0
M  V30 4859 H 453.015 4.15873 -0.0470419 0
M  V30 4860 H 451.592 3.36633 1.60413 0
M  V30 4861 N 453.777 0.010035 1.57597 0
M  V30 4862 C 454.74 -0.963029 2.07986 0
M  V30 4863 C 455.74 -1.26619 0.991173 0
M  V30 4864 O 456.93 -1.2097 1.25347 0
M  V30 4865 C 454.062 -2.2851 2.52974 0
M  V30 4866 H 455.255 -0.526971 2.95234 0
M  V30 4867 H 452.808 -0.237639 1.54483 0
M  V30 4868 H 453.543 -2.76784 1.69 0
M  V30 4869 H 453.328 -2.07824 3.32493 0
M  V30 4870 H 454.818 -2.98294 2.9225 0
M  V30 4871 N 455.255 -1.55392 -0.262866 0
M  V30 4872 C 456.501 -1.76737 -0.99458 0
M  V30 4873 C 456.834 -0.572453 -1.85571 0
M  V30 4874 O 456.109 0.429732 -1.89693 0
M  V30 4875 C 456.392 -3.07824 -1.8686 0
M  V30 4876 C 456.245 -4.3769 -1.03672 0
M  V30 4877 C 457.564 -3.35021 -2.85393 0
M  V30 4878 H 454.683 -0.643005 -0.360157 0
M  V30 4879 H 457.325 -1.88126 -0.266216 0
M  V30 4880 H 455.475 -2.98245 -2.48962 0
M  V30 4881 H 457.147 -4.59238 -0.43563 0
M  V30 4882 H 455.39 -4.32461 -0.340513 0
M  V30 4883 H 456.061 -5.25759 -1.6817 0
M  V30 4884 H 458.537 -3.44458 -2.33426 0
M  V30 4885 H 457.413 -4.27989 -3.43681 0
M  V30 4886 H 457.674 -2.55153 -3.61039 0
M  V30 4887 N 456.733 0.527833 -1.48498 0
M  V30 4888 C 457.979 1.28545 -1.56857 0
M  V30 4889 C 458.312 1.92678 -0.242651 0
M  V30 4890 O 457.587 1.79394 0.751545 0
M  V30 4891 C 457.87 2.37314 -2.70839 0
M  V30 4892 C 457.723 1.77858 -4.13142 0
M  V30 4893 C 459.042 3.39068 -2.80573 0
M  V30 4894 H 456.161 0.466006 -0.570971 0
M  V30 4895 H 458.803 0.587784 -1.8068 0
M  V30 4896 H 456.953 2.96821 -2.50658 0
M  V30 4897 H 458.625 1.22385 -4.44769 0
M  V30 4898 H 456.868 1.08383 -4.20042 0
M  V30 4899 H 457.539 2.56624 -4.88721 0
M  V30 4900 H 460.015 2.89518 -2.98862 0
M  V30 4901 H 458.891 4.12566 -3.6205 0
M  V30 4902 H 459.152 3.9975 -1.88818 0
M  V30 4903 N 458.211 1.37122 0.776871 0
M  V30 4904 C 459.459 1.31787 1.53221 0
M  V30 4905 C 459.78 -0.0987589 1.9475 0
M  V30 4906 O 459.05 -1.0417 1.65908 0
M  V30 4907 H 457.63 0.484839 0.568278 0
M  V30 4908 H 460.292 1.71556 0.924917 0
M  V30 4909 H 459.388 1.95355 2.43398 0
M  V30 4910 N 459.689 -1.00246 1.21608 0
M  V30 4911 C 460.621 -2.09244 0.935401 0
M  V30 4912 C 461.634 -1.62592 -0.0823594 0
M  V30 4913 O 462.823 -1.77865 0.150456 0
M  V30 4914 C 459.923 -3.36724 0.383453 0
M  V30 4915 C 459.096 -4.1245 1.45615 0
M  V30 4916 C 458.155 -5.18219 0.912991 0
M  V30 4917 O 457.181 -5.46337 1.59701 0
M  V30 4918 N 458.383 -5.7987 -0.270478 0
M  V30 4919 H 461.148 -2.33905 1.87373 0
M  V30 4920 H 458.709 -1.16748 1.12167 0
M  V30 4921 H 460.701 -4.047 0.00562157 0
M  V30 4922 H 459.271 -3.09201 -0.459758 0
M  V30 4923 H 458.491 -3.39241 2.00772 0
M  V30 4924 H 459.779 -4.59819 2.17817 0
M  V30 4925 H 459.177 -5.59381 -0.843195 0
M  V30 4926 H 457.734 -6.49126 -0.589794 0
M  V30 4927 N 461.167 -1.02423 -1.1978 0
M  V30 4928 C 462.397 -0.736387 -1.93031 0
M  V30 4929 C 462.805 0.708023 -1.75453 0
M  V30 4930 O 462.148 1.4927 -1.07071 0
M  V30 4931 C 462.21 -1.00194 -3.45255 0
M  V30 4932 C 461.874 -2.43698 -3.86601 0
M  V30 4933 C 462.871 -3.41814 -3.91738 0
M  V30 4934 C 460.556 -2.77975 -4.18372 0
M  V30 4935 C 462.55 -4.72265 -4.28071 0
M  V30 4936 C 460.237 -4.08636 -4.54378 0
M  V30 4937 C 461.235 -5.05592 -4.59201 0
M  V30 4938 O 460.923 -6.33914 -4.94376 0
M  V30 4939 H 460.655 -0.269116 -0.620123 0
M  V30 4940 H 463.209 -1.37043 -1.52998 0
M  V30 4941 H 461.439 -0.310747 -3.85449 0
M  V30 4942 H 463.128 -0.704488 -3.9974 0
M  V30 4943 H 463.894 -3.16671 -3.67348 0
M  V30 4944 H 459.773 -2.0319 -4.13805 0
M  V30 4945 H 463.317 -5.4794 -4.3175 0
M  V30 4946 H 459.214 -4.33556 -4.78226 0
M  V30 4947 H 459.982 -6.38317 -5.12341 0
M  V30 4948 N 462.645 1.35699 -0.801477 0
M  V30 4949 C 463.577 2.28598 -0.166028 0
M  V30 4950 C 464.59 1.50044 0.631721 0
M  V30 4951 O 465.779 1.72339 0.464921 0
M  V30 4952 C 462.879 3.29625 0.787451 0
M  V30 4953 C 462.052 4.37384 0.037171 0
M  V30 4954 C 461.111 5.183 0.908375 0
M  V30 4955 O 460.137 5.68053 0.361189 0
M  V30 4956 N 461.339 5.35912 2.23112 0
M  V30 4957 H 464.104 2.83771 -0.964071 0
M  V30 4958 H 461.665 1.47994 -0.656469 0
M  V30 4959 H 463.657 3.80648 1.37439 0
M  V30 4960 H 462.227 2.75004 1.48632 0
M  V30 4961 H 461.447 3.87364 -0.730935 0
M  V30 4962 H 462.735 5.0653 -0.480109 0
M  V30 4963 H 462.133 4.97125 2.69968 0
M  V30 4964 H 460.69 5.90133 2.76741 0
M  V30 4965 N 464.123 0.554532 1.47522 0
M  V30 4966 C 465.348 0.0322661 2.07375 0
M  V30 4967 C 465.773 -1.25079 1.40488 0
M  V30 4968 O 465.131 -1.74859 0.47896 0
M  V30 4969 C 465.179 -0.149397 3.6029 0
M  V30 4970 O 464.283 -1.21259 3.9417 0
M  V30 4971 H 463.624 0.0501228 0.662106 0
M  V30 4972 H 466.154 0.769452 1.8958 0
M  V30 4973 H 466.164 -0.364437 4.06369 0
M  V30 4974 H 464.839 0.787743 4.08372 0
M  V30 4975 H 463.416 -0.97825 3.5984 0
M  V30 4976 N 465.601 -1.54893 0.290851 0
M  V30 4977 C 466.831 -2.04047 -0.323818 0
M  V30 4978 C 467.239 -1.16809 -1.48837 0
M  V30 4979 O 466.582 -0.184145 -1.82775 0
M  V30 4980 C 466.644 -3.49248 -0.852395 0
M  V30 4981 C 466.308 -4.56623 0.185557 0
M  V30 4982 C 467.305 -5.09985 1.01053 0
M  V30 4983 C 464.99 -5.01252 0.324332 0
M  V30 4984 C 466.984 -6.06507 1.96031 0
M  V30 4985 C 464.671 -5.97596 1.27757 0
M  V30 4986 C 465.669 -6.50107 2.09405 0
M  V30 4987 O 465.357 -7.44565 3.03114 0
M  V30 4988 H 465.089 -0.671735 -0.0758129 0
M  V30 4989 H 467.643 -2.00947 0.425393 0
M  V30 4990 H 465.873 -3.49639 -1.65195 0
M  V30 4991 H 467.562 -3.81654 -1.38185 0
M  V30 4992 H 468.328 -4.76307 0.914129 0
M  V30 4993 H 464.207 -4.60015 -0.301213 0
M  V30 4994 H 467.751 -6.47418 2.598 0
M  V30 4995 H 463.648 -6.30691 1.37473 0
M  V30 4996 H 464.416 -7.62334 2.97976 0
M  V30 4997 N 467.08 -0.0183926 -1.57589 0
M  V30 4998 C 468.305 0.676634 -1.96052 0
M  V30 4999 C 468.73 1.6548 -0.894307 0
M  V30 5000 O 468.088 1.80712 0.145849 0
M  V30 5001 C 468.136 1.36872 -3.33614 0
M  V30 5002 O 467.24 2.48372 -3.29219 0
M  V30 5003 H 466.581 0.1786 -0.63953 0
M  V30 5004 H 469.111 -0.077056 -2.04455 0
M  V30 5005 H 469.121 1.72797 -3.69601 0
M  V30 5006 H 467.796 0.651636 -4.10763 0
M  V30 5007 H 466.373 2.14639 -3.04934 0
M  V30 5008 N 468.558 1.5553 0.254621 0
M  V30 5009 C 469.468 1.92789 1.33677 0
M  V30 5010 C 470.484 0.827356 1.53071 0
M  V30 5011 O 471.66 1.12807 1.66843 0
M  V30 5012 C 468.725 2.20827 2.67275 0
M  V30 5013 C 467.786 3.4427 2.5647 0
M  V30 5014 C 467.019 3.70961 3.83697 0
M  V30 5015 O 467.242 2.99852 4.85227 0
M  V30 5016 O 466.176 4.64491 3.82794 0
M  V30 5017 H 470.002 2.84945 1.05071 0
M  V30 5018 H 467.587 1.42312 0.454723 0
M  V30 5019 H 469.469 2.40204 3.46237 0
M  V30 5020 H 468.144 1.31851 2.9563 0
M  V30 5021 H 467.051 3.30209 1.75821 0
M  V30 5022 H 468.384 4.33524 2.33062 0
M  V30 5023 N 470.036 -0.519951 1.48776 0
M  V30 5024 C 470.968 -1.63973 1.60142 0
M  V30 5025 C 471.981 -1.55404 0.485117 0
M  V30 5026 O 473.17 -1.61682 0.756391 0
M  V30 5027 C 470.27 -3.02676 1.52449 0
M  V30 5028 C 469.443 -3.36624 2.79291 0
M  V30 5029 C 468.502 -4.54652 2.64912 0
M  V30 5030 O 467.528 -4.57374 3.38818 0
M  V30 5031 N 468.73 -5.53432 1.75195 0
M  V30 5032 H 471.495 -1.54656 2.56713 0
M  V30 5033 H 469.056 -0.707439 1.45626 0
M  V30 5034 H 471.048 -3.79525 1.4051 0
M  V30 5035 H 469.618 -3.06018 0.638125 0
M  V30 5036 H 468.838 -2.48855 3.0572 0
M  V30 5037 H 470.126 -3.56094 3.6342 0
M  V30 5038 H 469.524 -5.54018 1.14371 0
M  V30 5039 H 468.081 -6.29459 1.69189 0
M  V30 5040 N 471.514 -1.37532 -0.769588 0
M  V30 5041 C 472.76 -1.33057 -1.53048 0
M  V30 5042 C 473.093 0.0841865 -1.94017 0
M  V30 5043 O 472.368 1.04198 -1.64235 0
M  V30 5044 C 472.651 -2.27166 -2.79406 0
M  V30 5045 C 472.504 -3.77429 -2.44677 0
M  V30 5046 C 473.823 -2.19683 -3.81349 0
M  V30 5047 H 470.942 -0.484655 -0.555228 0
M  V30 5048 H 473.584 -1.68251 -0.882702 0
M  V30 5049 H 471.734 -1.97283 -3.34682 0
M  V30 5050 H 473.406 -4.17918 -1.953 0
M  V30 5051 H 471.649 -3.95892 -1.77346 0
M  V30 5052 H 472.32 -4.38716 -3.35011 0
M  V30 5053 H 474.796 -2.46029 -3.35573 0
M  V30 5054 H 473.672 -2.87668 -4.67481 0
M  V30 5055 H 473.933 -1.19045 -4.25771 0
M  V30 5056 N 472.992 0.995999 -1.22138 0
M  V30 5057 C 474.408 1.25917 -0.980667 0
M  V30 5058 C 474.608 1.98819 0.327604 0
M  V30 5059 O 473.664 2.29587 1.05101 0
M  V30 5060 C 474.977 2.07399 -2.17729 0
M  V30 5061 C 476.525 2.20594 -2.22052 0
M  V30 5062 C 477 3.05462 -3.41258 0
M  V30 5063 N 478.491 3.13049 -3.41401 0
M  V30 5064 C 479.226 3.78997 -4.30289 0
M  V30 5065 N 478.722 4.46899 -5.2939 0
M  V30 5066 N 480.515 3.75728 -4.18073 0
M  V30 5067 H 472.666 0.507158 -2.06256 0
M  V30 5068 H 474.929 0.28658 -0.903646 0
M  V30 5069 H 474.635 1.61191 -3.12586 0
M  V30 5070 H 474.509 3.08154 -2.17534 0
M  V30 5071 H 476.896 2.66017 -1.27745 0
M  V30 5072 H 476.977 1.1928 -2.26287 0
M  V30 5073 H 476.621 2.60739 -4.35864 0
M  V30 5074 H 476.551 4.06911 -3.34262 0
M  V30 5075 H 479.042 2.64721 -2.69688 0
M  V30 5076 H 479.355 4.94952 -5.935 0
M  V30 5077 H 477.7 4.45657 -5.33306 0
M  V30 5078 H 480.891 3.2184 -3.39907 0
M  V30 5079 H 481.064 4.26845 -4.87553 0
M  V30 5080 N 474.47 1.03057 1.19235 0
M  V30 5081 C 475.886 0.747947 1.40989 0
M  V30 5082 C 476.086 -0.666752 1.90149 0
M  V30 5083 O 475.142 -1.43249 2.07933 0
M  V30 5084 C 476.455 1.7855 2.41951 0
M  V30 5085 C 478.003 1.80524 2.55695 0
M  V30 5086 C 478.478 2.83243 3.59913 0
M  V30 5087 N 479.969 2.8207 3.67411 0
M  V30 5088 C 480.704 3.58204 4.47747 0
M  V30 5089 N 480.2 4.44057 5.31775 0
M  V30 5090 N 481.993 3.46738 4.42413 0
M  V30 5091 H 474.144 1.94367 0.856468 0
M  V30 5092 H 476.407 0.840412 0.438647 0
M  V30 5093 H 476.113 2.79973 2.12857 0
M  V30 5094 H 475.987 1.6092 3.41152 0
M  V30 5095 H 478.374 0.79778 2.84112 0
M  V30 5096 H 478.455 2.02229 1.56643 0
M  V30 5097 H 478.099 3.84161 3.32239 0
M  V30 5098 H 478.029 2.58795 4.5862 0
M  V30 5099 H 480.52 2.19803 3.074 0
M  V30 5100 H 480.833 4.98884 5.90199 0
M  V30 5101 H 479.178 4.48129 5.3123 0
M  V30 5102 H 482.369 2.79077 3.75811 0
M  V30 5103 H 482.542 4.06322 5.04783 0
M  V30 5104 N 475.948 -1.35272 0.808662 0
M  V30 5105 C 476.858 -2.33546 0.222079 0
M  V30 5106 C 477.874 -1.6196 -0.636011 0
M  V30 5107 O 479.05 -1.93822 -0.547274 0
M  V30 5108 C 476.115 -3.41148 -0.61795 0
M  V30 5109 C 475.176 -4.28507 0.260875 0
M  V30 5110 C 474.409 -5.3097 -0.539156 0
M  V30 5111 O 474.632 -5.42123 -1.77367 0
M  V30 5112 O 473.566 -6.01858 0.0710526 0
M  V30 5113 H 477.392 -2.85515 1.03512 0
M  V30 5114 H 474.977 -1.38079 0.570495 0
M  V30 5115 H 476.859 -4.06889 -1.09634 0
M  V30 5116 H 475.534 -2.91447 -1.40855 0
M  V30 5117 H 474.441 -3.6574 0.786451 0
M  V30 5118 H 475.774 -4.81611 1.01547 0
M  V30 5119 N 477.426 -0.562348 -1.47226 0
M  V30 5120 C 478.356 0.170627 -2.32876 0
M  V30 5121 C 479.337 0.903748 -1.44106 0
M  V30 5122 O 480.522 0.883206 -1.72954 0
M  V30 5123 C 477.652 1.19786 -3.25989 0
M  V30 5124 C 476.606 0.580875 -4.2404 0
M  V30 5125 C 475.932 1.71311 -5.06514 0
M  V30 5126 C 477.232 -0.468714 -5.20193 0
M  V30 5127 H 478.926 -0.544441 -2.94408 0
M  V30 5128 H 476.472 -0.263271 -1.41573 0
M  V30 5129 H 478.425 1.71884 -3.84752 0
M  V30 5130 H 477.149 1.94294 -2.62521 0
M  V30 5131 H 475.808 0.0811538 -3.6651 0
M  V30 5132 H 475.456 2.44736 -4.39447 0
M  V30 5133 H 475.156 1.30604 -5.72902 0
M  V30 5134 H 476.68 2.23725 -5.68137 0
M  V30 5135 H 478.094 -0.0336028 -5.7329 0
M  V30 5136 H 476.491 -0.794957 -5.94811 0
M  V30 5137 H 477.561 -1.36269 -4.65359 0
M  V30 5138 N 478.904 1.54736 -0.299062 0
M  V30 5139 C 479.836 2.20891 0.61153 0
M  V30 5140 C 480.849 1.20104 1.09904 0
M  V30 5141 O 482.038 1.46707 1.01683 0
M  V30 5142 C 479.138 2.84018 1.84897 0
M  V30 5143 C 478.311 4.10719 1.50428 0
M  V30 5144 C 477.37 4.57667 2.59667 0
M  V30 5145 O 476.396 5.2291 2.24842 0
M  V30 5146 N 477.598 4.29821 3.90172 0
M  V30 5147 H 480.363 2.99666 0.0452001 0
M  V30 5148 H 477.924 1.61446 -0.121178 0
M  V30 5149 H 479.916 3.1236 2.5732 0
M  V30 5150 H 478.486 2.09095 2.32375 0
M  V30 5151 H 477.706 3.89408 0.612781 0
M  V30 5152 H 478.994 4.93223 1.24934 0
M  V30 5153 H 478.392 3.77549 4.21276 0
M  V30 5154 H 476.949 4.62877 4.58899 0
M  V30 5155 N 480.382 0.0267497 1.57577 0
M  V30 5156 C 481.329 -0.955894 2.10075 0
M  V30 5157 C 482.299 -1.32453 1.00226 0
M  V30 5158 O 483.484 -1.41826 1.27632 0
M  V30 5159 C 480.624 -2.2338 2.6305 0
M  V30 5160 C 479.737 -1.92183 3.86898 0
M  V30 5161 C 478.872 -3.14251 4.28275 0
M  V30 5162 C 477.911 -2.78862 5.44888 0
M  V30 5163 N 477.048 -3.93548 5.81433 0
M  V30 5164 H 481.888 -0.501303 2.93753 0
M  V30 5165 H 479.425 -0.235847 1.45197 0
M  V30 5166 H 481.383 -2.98124 2.91853 0
M  V30 5167 H 480.013 -2.6646 1.82205 0
M  V30 5168 H 479.065 -1.07692 3.64838 0
M  V30 5169 H 480.377 -1.62117 4.7172 0
M  V30 5170 H 479.531 -3.97317 4.58502 0
M  V30 5171 H 478.27 -3.47476 3.42215 0
M  V30 5172 H 477.275 -1.94208 5.14357 0
M  V30 5173 H 478.5 -2.46855 6.32645 0
M  V30 5174 H 476.446 -4.2662 4.98328 0
M  V30 5175 H 476.363 -3.67098 6.6089 0
M  V30 5176 H 477.631 -4.77325 6.16264 0
M  V30 5177 N 481.861 -1.55662 -0.24637 0
M  V30 5178 C 483.272 -1.67953 -0.81539 0
M  V30 5179 C 483.623 -0.624302 -1.86002 0
M  V30 5180 O 482.748 0.229328 -2.15181 0
M  V30 5181 C 483.343 -3.04484 -1.48576 0
M  V30 5182 C 481.902 -3.18713 -2.00248 0
M  V30 5183 C 481.049 -2.6383 -0.853766 0
M  V30 5184 H 484 -1.58685 -0.0221692 0
M  V30 5185 H 484.021 -2.98959 -2.3538 0
M  V30 5186 H 483.533 -3.81264 -0.725222 0
M  V30 5187 H 481.634 -2.46757 -2.79181 0
M  V30 5188 H 481.747 -4.25628 -2.1995 0
M  V30 5189 H 480.111 -2.21667 -1.25442 0
M  V30 5190 H 480.894 -3.43135 -0.106302 0
M  V30 5191 N 483.339 0.512053 -1.4905 0
M  V30 5192 C 484.616 1.27337 -1.48474 0
M  V30 5193 C 484.996 2.1009 -0.206301 0
M  V30 5194 O 484.344 2.136 0.811609 0
M  V30 5195 C 484.554 2.13954 -2.75726 0
M  V30 5196 C 485.902 2.73507 -3.24776 0
M  V30 5197 O 486.926 2.24229 -2.76767 0
M  V30 5198 O 485.785 3.63186 -4.08361 0
M  V30 5199 H 482.879 0.575652 -0.593762 0
M  V30 5200 H 485.425 0.527232 -1.61302 0
M  V30 5201 H 484.197 1.52709 -3.60272 0
M  V30 5202 H 483.82 2.95782 -2.65705 0
M  V30 5203 N 484.817 1.37938 0.762283 0
M  V30 5204 C 486.042 1.37059 1.55659 0
M  V30 5205 C 486.467 -0.0396123 1.88058 0
M  V30 5206 O 485.825 -1.01929 1.49934 0
M  V30 5207 C 485.873 2.22494 2.83776 0
M  V30 5208 O 484.977 1.63607 3.78559 0
M  V30 5209 H 484.318 0.467892 0.47114 0
M  V30 5210 H 486.848 1.81587 0.942725 0
M  V30 5211 H 486.858 2.36045 3.32786 0
M  V30 5212 H 485.533 3.24993 2.59524 0
M  V30 5213 H 484.11 1.5915 3.37233 0
M  V30 5214 N 486.295 -0.989507 1.22664 0
M  V30 5215 C 487.542 -1.72953 1.05325 0
M  V30 5216 C 487.87 -1.90104 -0.411168 0
M  V30 5217 O 487.125 -1.44386 -1.32103 0
M  V30 5218 C 487.424 -3.13649 1.71345 0
M  V30 5219 C 487.09 -3.16403 3.21248 0
M  V30 5220 C 485.752 -3.16862 3.62149 0
M  V30 5221 C 488.104 -3.12428 4.17179 0
M  V30 5222 C 485.432 -3.11051 4.97458 0
M  V30 5223 C 487.784 -3.08159 5.52468 0
M  V30 5224 C 486.448 -3.06935 5.92746 0
M  V30 5225 H 485.718 -0.632881 0.385412 0
M  V30 5226 H 488.365 -1.15863 1.52473 0
M  V30 5227 H 486.67 -3.74069 1.16532 0
M  V30 5228 H 488.367 -3.69658 1.55416 0
M  V30 5229 H 484.957 -3.16798 2.88682 0
M  V30 5230 H 489.141 -3.11221 3.86595 0
M  V30 5231 H 484.397 -3.0845 5.27891 0
M  V30 5232 H 488.571 -3.04039 6.26525 0
M  V30 5233 H 486.198 -3.02186 6.97558 0
M  V30 5234 N 487.773 -1.03688 -1.18687 0
M  V30 5235 C 488.723 -0.595067 -2.20098 0
M  V30 5236 C 489.707 0.360465 -1.5681 0
M  V30 5237 O 490.899 0.180136 -1.76081 0
M  V30 5238 C 488.028 0.0444495 -3.43271 0
M  V30 5239 C 487.114 -0.934002 -4.13687 0
M  V30 5240 N 487.505 -2.09957 -4.60165 0
M  V30 5241 C 485.803 -0.759177 -4.39491 0
M  V30 5242 C 486.504 -2.71735 -5.1433 0
M  V30 5243 N 485.48 -1.99638 -5.05614 0
M  V30 5244 H 489.282 -1.48336 -2.5372 0
M  V30 5245 H 486.796 -0.904949 -1.3485 0
M  V30 5246 H 488.793 0.37864 -4.15177 0
M  V30 5247 H 487.453 0.928325 -3.11147 0
M  V30 5248 H 488.464 -2.47863 -4.54735 0
M  V30 5249 H 485.141 0.0749292 -4.17433 0
M  V30 5250 H 486.531 -3.70492 -5.60523 0
M  V30 5251 N 489.251 1.34841 -0.815825 0
M  V30 5252 C 490.476 2.03261 -0.41226 0
M  V30 5253 C 490.901 1.61055 0.971751 0
M  V30 5254 O 490.259 0.7917 1.63101 0
M  V30 5255 C 490.307 3.56914 -0.514289 0
M  V30 5256 O 489.411 4.09728 0.468675 0
M  V30 5257 H 488.752 0.641664 -0.170771 0
M  V30 5258 H 491.282 1.72241 -1.10427 0
M  V30 5259 H 491.292 4.06156 -0.387457 0
M  V30 5260 H 489.967 3.86982 -1.52375 0
M  V30 5261 H 488.544 3.71681 0.301316 0
M  V30 5262 N 490.729 0.570148 1.46925 0
M  V30 5263 C 491.659 -0.158274 2.32963 0
M  V30 5264 C 492.64 -0.896093 1.44583 0
M  V30 5265 O 493.825 -0.874022 1.7342 0
M  V30 5266 C 490.955 -1.18055 3.26619 0
M  V30 5267 C 489.909 -0.558379 4.24342 0
M  V30 5268 C 489.235 -1.68623 5.07415 0
M  V30 5269 C 490.535 0.496295 5.19937 0
M  V30 5270 H 492.229 0.560046 2.94115 0
M  V30 5271 H 489.775 0.270775 1.41431 0
M  V30 5272 H 491.728 -1.69841 3.85658 0
M  V30 5273 H 490.452 -1.92899 2.63548 0
M  V30 5274 H 489.111 -0.0617157 3.66548 0
M  V30 5275 H 488.759 -2.42402 4.40738 0
M  V30 5276 H 488.459 -1.27564 5.73586 0
M  V30 5277 H 489.983 -2.20709 5.69315 0
M  V30 5278 H 491.397 0.0640052 5.73264 0
M  V30 5279 H 489.794 0.82649 5.94381 0
M  V30 5280 H 490.864 1.38735 4.6463 0
M  V30 5281 N 492.207 -1.54576 0.307264 0
M  V30 5282 C 493.435 -2.04675 -0.302597 0
M  V30 5283 C 493.85 -1.18425 -1.47041 0
M  V30 5284 O 493.207 -0.211257 -1.81273 0
M  V30 5285 C 493.258 -3.53575 -0.752801 0
M  V30 5286 O 492.979 -4.36547 0.368536 0
M  V30 5287 C 494.48 -4.19699 -1.42717 0
M  V30 5288 H 491.7 -0.66786 -0.0648374 0
M  V30 5289 H 494.244 -1.99516 0.448716 0
M  V30 5290 H 492.399 -3.59074 -1.45412 0
M  V30 5291 H 492.813 -5.24497 0.0168937 0
M  V30 5292 H 494.287 -5.25388 -1.69327 0
M  V30 5293 H 494.764 -3.69815 -2.36925 0
M  V30 5294 H 495.37 -4.18293 -0.768856 0
M  V30 5295 N 493.685 -0.035106 -1.57561 0
M  V30 5296 C 495.096 0.502885 -1.798 0
M  V30 5297 C 495.447 1.71892 -0.945921 0
M  V30 5298 O 494.572 2.15822 -0.157991 0
M  V30 5299 C 495.167 0.919097 -3.26095 0
M  V30 5300 C 493.726 1.40216 -3.49308 0
M  V30 5301 C 492.873 0.369709 -2.74824 0
M  V30 5302 H 495.824 -0.261102 -1.56537 0
M  V30 5303 H 495.845 1.78308 -3.36135 0
M  V30 5304 H 495.357 0.0338526 -3.88085 0
M  V30 5305 H 493.458 2.30714 -2.92578 0
M  V30 5306 H 493.571 1.40541 -4.58023 0
M  V30 5307 H 491.935 0.839113 -2.40481 0
M  V30 5308 H 492.718 -0.507173 -3.39533 0
M  V30 5309 N 495.163 1.55791 0.238111 0
M  V30 5310 C 496.391 1.82098 0.982233 0
M  V30 5311 C 496.806 0.612025 1.78605 0
M  V30 5312 O 496.163 -0.419381 1.77616 0
M  V30 5313 C 496.214 3.0673 1.91309 0
M  V30 5314 O 495.935 4.2296 1.14179 0
M  V30 5315 C 497.436 3.45903 2.77248 0
M  V30 5316 H 494.656 0.605748 0.288635 0
M  V30 5317 H 497.2 2.02862 0.258341 0
M  V30 5318 H 495.355 2.87991 2.59114 0
M  V30 5319 H 495.769 4.93653 1.7722 0
M  V30 5320 H 497.243 4.36189 3.38295 0
M  V30 5321 H 497.72 2.66891 3.48806 0
M  V30 5322 H 498.326 3.67024 2.14881 0
M  V30 5323 N 496.642 -0.504142 1.49319 0
M  V30 5324 C 497.889 -1.25846 1.58647 0
M  V30 5325 C 498.217 -1.92592 0.27177 0
M  V30 5326 O 497.472 -1.81167 -0.74007 0
M  V30 5327 C 497.771 -2.35021 2.69258 0
M  V30 5328 C 497.437 -1.85755 4.1086 0
M  V30 5329 C 496.099 -1.72038 4.49395 0
M  V30 5330 C 498.451 -1.48844 4.99495 0
M  V30 5331 C 495.779 -1.19783 5.74342 0
M  V30 5332 C 498.131 -0.980422 6.24956 0
M  V30 5333 C 496.795 -0.829622 6.62324 0
M  V30 5334 H 496.065 -0.460505 0.580531 0
M  V30 5335 H 498.712 -0.559716 1.83138 0
M  V30 5336 H 497.017 -3.10672 2.38726 0
M  V30 5337 H 498.714 -2.93083 2.73685 0
M  V30 5338 H 495.304 -1.9739 3.80441 0
M  V30 5339 H 499.488 -1.5829 4.70381 0
M  V30 5340 H 494.744 -1.06817 6.01997 0
M  V30 5341 H 498.918 -0.685608 6.93017 0
M  V30 5342 H 496.545 -0.42253 7.59025 0
M  V30 5343 N 498.12 -1.38341 -0.754957 0
M  V30 5344 C 499.083 -1.35262 -1.85032 0
M  V30 5345 C 500.083 -0.253393 -1.58791 0
M  V30 5346 O 501.273 -0.510205 -1.66561 0
M  V30 5347 C 498.405 -1.10544 -3.22479 0
M  V30 5348 H 499.598 -2.32712 -1.8917 0
M  V30 5349 H 497.151 -1.23614 -0.956515 0
M  V30 5350 H 497.886 -0.136952 -3.24011 0
M  V30 5351 H 497.671 -1.90127 -3.4292 0
M  V30 5352 H 499.161 -1.11082 -4.02555 0
M  V30 5353 N 499.598 0.982988 -1.23187 0
M  V30 5354 C 500.561 2.05649 -1.01198 0
M  V30 5355 C 501.561 1.6078 0.0252464 0
M  V30 5356 O 502.751 1.72878 -0.214243 0
M  V30 5357 C 499.883 3.36744 -0.530656 0
M  V30 5358 H 501.076 2.2659 -1.96461 0
M  V30 5359 H 498.629 1.15602 -1.05195 0
M  V30 5360 H 499.364 3.21492 0.425873 0
M  V30 5361 H 499.149 3.7065 -1.2791 0
M  V30 5362 H 500.639 4.15705 -0.397366 0
M  V30 5363 N 501.076 1.04316 1.18135 0
M  V30 5364 C 502.322 0.749128 1.88457 0
M  V30 5365 C 502.655 -0.72149 1.803 0
M  V30 5366 O 501.93 -1.52676 1.205 0
M  V30 5367 C 502.213 1.21905 3.38838 0
M  V30 5368 C 502.066 2.75195 3.55792 0
M  V30 5369 C 503.385 0.811085 4.32561 0
M  V30 5370 H 500.504 0.273611 0.684329 0
M  V30 5371 H 503.146 1.29561 1.38975 0
M  V30 5372 H 501.296 0.754137 3.8111 0
M  V30 5373 H 502.968 3.29743 3.22595 0
M  V30 5374 H 501.211 3.14899 2.98364 0
M  V30 5375 H 501.882 3.03135 4.61317 0
M  V30 5376 H 504.358 1.21118 3.98082 0
M  V30 5377 H 503.234 1.16761 5.36338 0
M  V30 5378 H 503.495 -0.285596 4.41177 0
M  V30 5379 N 502.554 -1.34406 0.822964 0
M  V30 5380 C 503.484 -2.32052 0.259608 0
M  V30 5381 C 504.465 -1.58243 -0.623961 0
M  V30 5382 O 505.65 -1.86224 -0.55083 0
M  V30 5383 C 502.78 -3.42434 -0.579314 0
M  V30 5384 C 501.734 -4.27499 0.20712 0
M  V30 5385 C 501.06 -5.29349 -0.754547 0
M  V30 5386 C 502.36 -5.02758 1.41533 0
M  V30 5387 H 504.054 -2.79418 1.07545 0
M  V30 5388 H 501.6 -1.34338 0.518593 0
M  V30 5389 H 503.553 -4.0976 -0.983612 0
M  V30 5390 H 502.277 -2.93717 -1.4282 0
M  V30 5391 H 500.936 -3.61776 0.592787 0
M  V30 5392 H 500.584 -4.76895 -1.59939 0
M  V30 5393 H 500.284 -5.8714 -0.232561 0
M  V30 5394 H 501.808 -5.99544 -1.1567 0
M  V30 5395 H 503.222 -5.62938 1.08504 0
M  V30 5396 H 501.619 -5.70123 1.87296 0
M  V30 5397 H 502.689 -4.32451 2.1935 0
M  V30 5398 N 504.032 -0.577932 -1.46621 0
M  V30 5399 C 505.278 -0.0617793 -2.02706 0
M  V30 5400 C 505.611 1.29294 -1.44903 0
M  V30 5401 O 504.886 1.8461 -0.61232 0
M  V30 5402 C 505.169 0.00911824 -3.60099 0
M  V30 5403 C 505.022 -1.37416 -4.28295 0
M  V30 5404 C 506.341 0.712159 -4.343 0
M  V30 5405 H 503.46 -0.0239246 -0.736612 0
M  V30 5406 H 506.102 -0.744211 -1.74818 0
M  V30 5407 H 504.252 0.590292 -3.83989 0
M  V30 5408 H 505.924 -2.00013 -4.15683 0
M  V30 5409 H 504.167 -1.94319 -3.87843 0
M  V30 5410 H 504.838 -1.27707 -5.37024 0
M  V30 5411 H 507.314 0.218486 -4.15526 0
M  V30 5412 H 506.19 0.730782 -5.44014 0
M  V30 5413 H 506.451 1.77251 -4.05012 0
M  V30 5414 N 505.51 1.54411 -0.315457 0
M  V30 5415 C 506.46 2.20772 0.569549 0
M  V30 5416 C 507.444 1.18551 1.08787 0
M  V30 5417 O 508.636 1.44213 1.02624 0
M  V30 5418 C 505.765 2.96293 1.73394 0
M  V30 5419 C 504.851 4.05844 1.2309 0
M  V30 5420 N 505.242 5.03822 0.446927 0
M  V30 5421 C 503.54 4.19648 1.51035 0
M  V30 5422 C 504.241 5.8143 0.17725 0
M  V30 5423 N 503.217 5.38245 0.761118 0
M  V30 5424 H 507.019 2.93877 -0.0368076 0
M  V30 5425 H 504.533 1.61949 -0.120915 0
M  V30 5426 H 506.53 3.42313 2.37965 0
M  V30 5427 H 505.19 2.24708 2.34386 0
M  V30 5428 H 506.201 5.17821 0.0905027 0
M  V30 5429 H 502.878 3.59274 2.1267 0
M  V30 5430 H 504.268 6.70369 -0.45335 0
M  V30 5431 N 506.988 0.0434614 1.5754 0
M  V30 5432 C 508.237 -0.631454 1.91561 0
M  V30 5433 C 508.55 -1.72457 0.92292 0
M  V30 5434 O 509.756 -2.45712 1.15489 0
M  V30 5435 C 508.212 -1.17447 3.40197 0
M  V30 5436 C 507.82 -0.113867 4.47855 0
M  V30 5437 C 509.564 -1.82507 3.83264 0
M  V30 5438 C 507.471 -0.669326 5.876 0
M  V30 5439 H 506.401 -0.239629 0.714908 0
M  V30 5440 H 509.052 0.111097 1.83163 0
M  V30 5441 H 507.434 -1.96909 3.43574 0
M  V30 5442 H 508.608 0.659348 4.56058 0
M  V30 5443 H 506.923 0.438821 4.14081 0
M  V30 5444 H 509.52 -2.25047 4.85034 0
M  V30 5445 H 509.863 -2.67365 3.19095 0
M  V30 5446 H 510.396 -1.09712 3.82372 0
M  V30 5447 H 507.135 0.141449 6.55347 0
M  V30 5448 H 506.655 -1.4107 5.82974 0
M  V30 5449 H 508.334 -1.15463 6.36614 0
M  V30 5450 N 508.466 -1.55915 -0.229846 0
M  V30 5451 C 509.743 -1.6932 -0.979295 0
M  V30 5452 C 510.123 -0.588321 -2.02736 0
M  V30 5453 O 509.471 0.40586 -2.24867 0
M  V30 5454 C 509.681 -3.10305 -1.59724 0
M  V30 5455 C 511.029 -3.6945 -2.09264 0
M  V30 5456 O 512.053 -3.13214 -1.69633 0
M  V30 5457 O 510.912 -4.68072 -2.82082 0
M  V30 5458 H 508.006 -0.689314 -0.456919 0
M  V30 5459 H 510.552 -1.68238 -0.222283 0
M  V30 5460 H 509.324 -3.82177 -0.840039 0
M  V30 5461 H 508.947 -3.1547 -2.42001 0
M  V30 5462 N 509.944 0.496216 -1.49584 0
M  V30 5463 C 510.892 1.61805 -1.67098 0
M  V30 5464 C 511.886 1.60667 -0.536877 0
M  V30 5465 O 513.092 1.65118 -0.716654 0
M  V30 5466 H 509.467 0.53646 -0.526986 0
M  V30 5467 H 511.438 1.44187 -2.61252 0
M  V30 5468 C 510.187 2.99912 -1.75921 0
M  V30 5469 H 509.51 3.01496 -2.62565 0
M  V30 5470 H 510.95 3.77931 -1.92209 0
M  V30 5471 C 509.409 3.33092 -0.505088 0
M  V30 5472 O 509.939 4.00019 0.367085 0
M  V30 5473 N 508.145 2.88278 -0.366599 0
M  V30 5474 H 507.692 2.33989 -1.07735 0
M  V30 5475 H 507.65 3.10846 0.47142 0
M  V30 5476 N 511.423 1.38739 0.74761 0
M  V30 5477 C 512.353 1.39173 1.87492 0
M  V30 5478 C 513.334 0.256794 1.6815 0
M  V30 5479 O 514.519 0.460762 1.88655 0
M  V30 5480 C 511.649 1.22197 3.25093 0
M  V30 5481 C 510.603 2.32957 3.59047 0
M  V30 5482 C 509.929 2.01082 4.95449 0
M  V30 5483 C 511.229 3.75237 3.6331 0
M  V30 5484 H 512.923 2.3351 1.87386 0
M  V30 5485 H 510.469 1.12399 0.900134 0
M  V30 5486 H 512.422 1.21124 4.03617 0
M  V30 5487 H 511.146 0.243241 3.25693 0
M  V30 5488 H 509.805 2.33226 2.82845 0
M  V30 5489 H 509.453 1.01678 4.92616 0
M  V30 5490 H 509.153 2.75267 5.19136 0
M  V30 5491 H 510.677 2.01638 5.76346 0
M  V30 5492 H 512.091 3.76966 4.31937 0
M  V30 5493 H 510.488 4.48677 3.98509 0
M  V30 5494 H 511.558 4.07122 2.634 0
M  V30 5495 N 512.901 -0.976442 1.23707 0
M  V30 5496 C 514.317 -1.24341 1.00058 0
M  V30 5497 C 514.517 -1.99315 -0.295932 0
M  V30 5498 O 513.573 -2.3123 -1.01435 0
M  V30 5499 C 514.886 -2.03909 2.21001 0
M  V30 5500 C 516.434 -2.17034 2.25534 0
M  V30 5501 C 516.909 -2.99994 3.46075 0
M  V30 5502 N 518.4 -3.07578 3.46338 0
M  V30 5503 C 519.135 -3.72104 4.36264 0
M  V30 5504 N 518.631 -4.3842 5.36432 0
M  V30 5505 N 520.424 -3.69029 4.23998 0
M  V30 5506 H 512.575 -0.47428 2.07037 0
M  V30 5507 H 514.838 -0.272167 0.908091 0
M  V30 5508 H 514.544 -1.56198 3.15111 0
M  V30 5509 H 514.418 -3.04654 2.22409 0
M  V30 5510 H 516.805 -2.63951 1.31961 0
M  V30 5511 H 516.886 -1.15664 2.28156 0
M  V30 5512 H 516.53 -2.53772 4.39957 0
M  V30 5513 H 516.46 -4.01541 3.40694 0
M  V30 5514 H 518.951 -2.60397 2.73865 0
M  V30 5515 H 519.264 -4.85447 6.013 0
M  V30 5516 H 517.609 -4.37116 5.40328 0
M  V30 5517 H 520.8 -3.16392 3.44984 0
M  V30 5518 H 520.973 -4.19034 4.94282 0
M  V30 5519 N 514.379 -1.04941 -1.1758 0
M  V30 5520 C 515.625 -0.768896 -1.88307 0
M  V30 5521 C 515.98 0.696361 -1.79356 0
M  V30 5522 O 515.273 1.50245 -1.18899 0
M  V30 5523 C 515.467 -1.18062 -3.37337 0
M  V30 5524 C 515.296 -2.68436 -3.60794 0
M  V30 5525 C 514.066 -3.35709 -3.77661 0
M  V30 5526 C 516.264 -3.66657 -3.60649 0
M  V30 5527 N 514.246 -4.74974 -3.88939 0
M  V30 5528 C 515.617 -4.91638 -3.77747 0
M  V30 5529 C 517.672 -3.60162 -3.43785 0
M  V30 5530 C 516.375 -6.10902 -3.79726 0
M  V30 5531 C 518.401 -4.78863 -3.47051 0
M  V30 5532 C 517.763 -6.02666 -3.64654 0
M  V30 5533 H 513.862 -0.33355 -0.707296 0
M  V30 5534 H 516.446 -1.34085 -1.41171 0
M  V30 5535 H 514.617 -0.636648 -3.83147 0
M  V30 5536 H 516.349 -0.8502 -3.95669 0
M  V30 5537 H 513.104 -2.8611 -3.77409 0
M  V30 5538 H 513.528 -5.47378 -3.98379 0
M  V30 5539 H 518.17 -2.65412 -3.29114 0
M  V30 5540 H 515.888 -7.05998 -3.93182 0
M  V30 5541 H 519.474 -4.75488 -3.35265 0
M  V30 5542 H 518.354 -6.92979 -3.67083 0
M  V30 5543 N 515.857 1.33968 -0.830081 0
M  V30 5544 C 516.767 2.33164 -0.259207 0
M  V30 5545 C 517.783 1.62951 0.610164 0
M  V30 5546 O 518.959 1.94668 0.516369 0
M  V30 5547 C 516.024 3.42088 0.563598 0
M  V30 5548 C 515.085 4.28037 -0.329014 0
M  V30 5549 C 514.318 5.3176 0.454616 0
M  V30 5550 O 514.541 5.44876 1.6872 0
M  V30 5551 O 513.475 6.01669 -0.166794 0
M  V30 5552 H 517.301 2.83832 -1.08041 0
M  V30 5553 H 514.886 1.37154 -0.59239 0
M  V30 5554 H 516.768 4.08581 1.03147 0
M  V30 5555 H 515.443 2.93651 1.36201 0
M  V30 5556 H 514.35 3.64443 -0.844538 0
M  V30 5557 H 515.683 4.79934 -1.09196 0
M  V30 5558 N 517.335 0.585699 1.46312 0
M  V30 5559 C 518.583 0.072278 2.01971 0
M  V30 5560 C 518.904 -1.29345 1.45928 0
M  V30 5561 O 518.174 -1.84973 0.645109 0
M  V30 5562 H 516.754 0.023729 0.746623 0
M  V30 5563 H 519.416 0.762155 1.7938 0
M  V30 5564 H 518.512 0.00552767 3.121 0
M  V30 5565 N 518.813 -1.54241 0.323641 0
M  V30 5566 C 520.059 -2.00867 -0.279323 0
M  V30 5567 C 520.392 -1.21146 -1.5178 0
M  V30 5568 O 519.667 -0.29378 -1.92269 0
M  V30 5569 C 519.95 -3.54837 -0.613387 0
M  V30 5570 C 519.803 -4.45284 0.635803 0
M  V30 5571 C 521.122 -4.16186 -1.43099 0
M  V30 5572 H 518.241 -0.730177 -0.100049 0
M  V30 5573 H 520.883 -1.84829 0.440235 0
M  V30 5574 H 519.033 -3.68634 -1.22641 0
M  V30 5575 H 520.705 -4.43357 1.27406 0
M  V30 5576 H 518.948 -4.14956 1.26466 0
M  V30 5577 H 519.619 -5.5084 0.357597 0
M  V30 5578 H 522.095 -4.05964 -0.912814 0
M  V30 5579 H 520.971 -5.24031 -1.6335 0
M  V30 5580 H 521.232 -3.69516 -2.42715 0
M  V30 5581 N 520.291 -0.0518155 -1.57515 0
M  V30 5582 C 521.702 0.483787 -1.80323 0
M  V30 5583 C 522.053 1.70879 -0.964099 0
M  V30 5584 O 521.178 2.15643 -0.180872 0
M  V30 5585 C 521.773 0.884459 -3.27052 0
M  V30 5586 C 520.332 1.36504 -3.50776 0
M  V30 5587 C 519.479 0.340539 -2.75201 0
M  V30 5588 H 522.43 -0.277691 -1.56252 0
M  V30 5589 H 522.451 1.74733 -3.38007 0
M  V30 5590 H 521.963 -0.00731093 -3.88099 0
M  V30 5591 H 520.064 2.27598 -2.95009 0
M  V30 5592 H 520.177 1.35675 -4.59488 0
M  V30 5593 H 518.541 0.81356 -2.41357 0
M  V30 5594 H 519.324 -0.543156 -3.38976 0
M  V30 5595 N 521.769 1.56035 0.221574 0
M  V30 5596 C 523.016 1.79047 0.94597 0
M  V30 5597 C 523.344 0.62057 1.84334 0
M  V30 5598 O 522.599 -0.395053 1.91671 0
M  V30 5599 C 522.898 3.07813 1.8162 0
M  V30 5600 C 522.564 4.3797 1.07206 0
M  V30 5601 C 521.226 4.73334 0.866508 0
M  V30 5602 C 523.578 5.18326 0.546565 0
M  V30 5603 C 520.906 5.8657 0.123549 0
M  V30 5604 C 523.258 6.32335 -0.18305 0
M  V30 5605 C 521.922 6.66301 -0.399861 0
M  V30 5606 H 521.192 0.655178 0.346155 0
M  V30 5607 H 523.839 1.90299 0.214146 0
M  V30 5608 H 522.144 2.91682 2.61589 0
M  V30 5609 H 523.841 3.2282 2.37884 0
M  V30 5610 H 520.431 4.10202 1.24226 0
M  V30 5611 H 524.615 4.9144 0.692847 0
M  V30 5612 H 519.871 6.11376 -0.0546591 0
M  V30 5613 H 524.045 6.9383 -0.59775 0
M  V30 5614 H 521.672 7.53889 -0.977489 0
M  V30 5615 N 523.247 -0.488276 1.49845 0
M  V30 5616 C 524.496 -1.23826 1.59217 0
M  V30 5617 C 524.809 -1.93439 0.289966 0
M  V30 5618 O 526.015 -2.70229 0.262382 0
M  V30 5619 C 524.471 -2.24902 2.80976 0
M  V30 5620 C 524.079 -1.6117 4.18005 0
M  V30 5621 C 525.823 -3.00648 2.99685 0
M  V30 5622 C 523.73 -2.60431 5.3097 0
M  V30 5623 H 522.66 -0.465858 0.592868 0
M  V30 5624 H 525.311 -0.510645 1.76252 0
M  V30 5625 H 523.693 -3.0088 2.57463 0
M  V30 5626 H 524.867 -0.910968 4.51706 0
M  V30 5627 H 523.182 -0.97767 4.0476 0
M  V30 5628 H 525.779 -3.74903 3.81251 0
M  V30 5629 H 526.122 -3.5902 2.10738 0
M  V30 5630 H 526.655 -2.31784 3.23297 0
M  V30 5631 H 523.394 -2.06823 6.22017 0
M  V30 5632 H 522.914 -3.28707 5.01709 0
M  V30 5633 H 524.593 -3.22606 5.60834 0
M  V30 5634 N 524.725 -1.39134 -0.740242 0
M  V30 5635 C 525.655 -1.40165 -1.86751 0
M  V30 5636 C 526.636 -0.265708 -1.68012 0
M  V30 5637 O 527.821 -0.47076 -1.88408 0
M  V30 5638 C 524.951 -1.2392 -3.2444 0
M  V30 5639 C 523.905 -2.34858 -3.57807 0
M  V30 5640 C 523.231 -2.03707 -4.94376 0
M  V30 5641 C 524.531 -3.77159 -3.61315 0
M  V30 5642 H 526.225 -2.345 -1.86145 0
M  V30 5643 H 523.771 -1.12875 -0.89416 0
M  V30 5644 H 525.724 -1.23263 -4.02969 0
M  V30 5645 H 524.448 -0.26051 -3.25559 0
M  V30 5646 H 523.107 -2.34723 -2.81604 0
M  V30 5647 H 522.755 -1.04289 -4.9207 0
M  V30 5648 H 522.455 -2.78016 -5.17669 0
M  V30 5649 H 523.979 -2.04691 -5.75268 0
M  V30 5650 H 525.393 -3.79252 -4.29931 0
M  V30 5651 H 523.79 -4.50784 -3.96124 0
M  V30 5652 H 524.86 -4.08513 -2.61238 0
M  V30 5653 N 526.204 0.969867 -1.24223 0
M  V30 5654 C 527.137 2.06279 -0.975926 0
M  V30 5655 C 528.115 1.62353 0.0895385 0
M  V30 5656 O 529.299 1.88442 -0.0469418 0
M  V30 5657 C 526.426 3.35391 -0.472315 0
M  V30 5658 C 525.472 3.98266 -1.526 0
M  V30 5659 S 526.305 4.36172 -3.10667 0
M  V30 5660 C 527.461 5.68423 -2.62003 0
M  V30 5661 H 527.694 2.28551 -1.90137 0
M  V30 5662 H 525.227 1.10748 -1.07584 0
M  V30 5663 H 527.185 4.10068 -0.188376 0
M  V30 5664 H 525.846 3.1111 0.432378 0
M  V30 5665 H 525.039 4.91307 -1.12399 0
M  V30 5666 H 524.641 3.30009 -1.75983 0
M  V30 5667 H 526.933 6.45842 -2.0468 0
M  V30 5668 H 527.876 6.13478 -3.53625 0
M  V30 5669 H 528.284 5.26928 -2.02502 0
M  V30 5670 N 527.682 1.05563 1.17022 0
M  V30 5671 C 528.907 0.788437 1.91829 0
M  V30 5672 C 529.332 -0.650356 1.76499 0
M  V30 5673 O 528.69 -1.45229 1.08527 0
M  V30 5674 C 528.738 1.1786 3.40795 0
M  V30 5675 O 527.842 0.312965 4.11211 0
M  V30 5676 H 527.183 0.288794 0.597908 0
M  V30 5677 H 529.713 1.40948 1.48307 0
M  V30 5678 H 529.723 1.14697 3.91546 0
M  V30 5679 H 528.398 2.22666 3.51273 0
M  V30 5680 H 526.975 0.405515 3.70689 0
M  V30 5681 N 529.16 -1.33526 0.837174 0
M  V30 5682 C 530.408 -1.97446 0.431211 0
M  V30 5683 C 530.729 -1.6665 -1.01255 0
M  V30 5684 O 529.999 -0.964559 -1.70508 0
M  V30 5685 H 528.579 -0.73043 0.156463 0
M  V30 5686 H 531.241 -1.62918 1.06976 0
M  V30 5687 H 530.337 -3.07001 0.561877 0
M  V30 5688 N 530.638 -0.59345 -1.46 0
M  V30 5689 C 531.585 0.133618 -2.30413 0
M  V30 5690 C 532.555 0.873736 -1.41262 0
M  V30 5691 O 533.74 0.862279 -1.70204 0
M  V30 5692 C 530.88 1.13434 -3.25924 0
M  V30 5693 C 529.993 0.39656 -4.30176 0
M  V30 5694 C 529.128 1.38575 -5.12806 0
M  V30 5695 C 528.167 0.634984 -6.08797 0
M  V30 5696 N 527.304 1.57276 -6.84258 0
M  V30 5697 H 532.144 -0.592252 -2.92055 0
M  V30 5698 H 529.681 -0.303874 -1.43927 0
M  V30 5699 H 531.639 1.72752 -3.79753 0
M  V30 5700 H 530.269 1.82779 -2.66067 0
M  V30 5701 H 529.321 -0.311861 -3.79119 0
M  V30 5702 H 530.633 -0.189869 -4.98438 0
M  V30 5703 H 529.787 2.05141 -5.70966 0
M  V30 5704 H 528.526 2.00611 -4.44529 0
M  V30 5705 H 527.531 -0.0443925 -5.49782 0
M  V30 5706 H 528.756 0.0198678 -6.79097 0
M  V30 5707 H 526.702 2.18103 -6.18682 0
M  V30 5708 H 526.619 1.03941 -7.48821 0
M  V30 5709 H 527.887 2.22844 -7.46968 0
M  V30 5710 N 532.116 1.54067 -0.331816 0
M  V30 5711 C 533.079 2.23275 0.517768 0
M  V30 5712 C 534.079 1.22897 1.03697 0
M  V30 5713 O 535.269 1.47419 0.928084 0
M  V30 5714 C 532.401 2.94326 1.72004 0
M  V30 5715 H 533.594 2.99773 -0.0873507 0
M  V30 5716 H 531.147 1.56079 -0.0830042 0
M  V30 5717 H 531.882 2.21986 2.36417 0
M  V30 5718 H 531.667 3.67941 1.35507 0
M  V30 5719 H 533.157 3.47031 2.32291 0
M  V30 5720 N 533.594 0.0601682 1.57485 0
M  V30 5721 C 534.524 -0.90889 2.15085 0
M  V30 5722 C 535.505 -1.31838 1.07484 0
M  V30 5723 O 536.69 -1.3915 1.35466 0
M  V30 5724 C 533.82 -2.18059 2.7031 0
M  V30 5725 C 532.774 -1.91088 3.82974 0
M  V30 5726 C 532.1 -3.24789 4.24754 0
M  V30 5727 C 533.4 -1.22535 5.07723 0
M  V30 5728 H 535.094 -0.429093 2.96309 0
M  V30 5729 H 532.64 -0.204952 1.42534 0
M  V30 5730 H 534.593 -2.86258 3.09248 0
M  V30 5731 H 533.317 -2.6826 1.8629 0
M  V30 5732 H 531.976 -1.25297 3.44523 0
M  V30 5733 H 531.624 -3.72809 3.37672 0
M  V30 5734 H 531.324 -3.07538 5.00694 0
M  V30 5735 H 532.848 -3.94205 4.66299 0
M  V30 5736 H 534.262 -1.80783 5.4405 0
M  V30 5737 H 532.659 -1.1558 5.88864 0
M  V30 5738 H 533.729 -0.202692 4.84476 0
M  V30 5739 N 535.072 -1.5615 -0.213296 0
M  V30 5740 C 536.349 -1.70349 -0.961281 0
M  V30 5741 C 536.729 -0.609791 -2.02101 0
M  V30 5742 O 536.077 0.381987 -2.25285 0
M  V30 5743 C 536.287 -3.11982 -1.56424 0
M  V30 5744 C 537.635 -3.71649 -2.05334 0
M  V30 5745 O 538.659 -3.14995 -1.66302 0
M  V30 5746 O 537.518 -4.71038 -2.77102 0
M  V30 5747 H 534.612 -0.694121 -0.449582 0
M  V30 5748 H 537.158 -1.68464 -0.204426 0
M  V30 5749 H 535.93 -3.83046 -0.799457 0
M  V30 5750 H 535.553 -3.18019 -2.38641 0
M  V30 5751 N 536.55 0.480323 -1.50102 0
M  V30 5752 C 537.46 1.60547 -1.71061 0
M  V30 5753 C 538.476 1.63564 -0.593529 0
M  V30 5754 O 539.652 1.81604 -0.870751 0
M  V30 5755 C 536.717 2.96814 -1.79171 0
M  V30 5756 C 535.778 3.04259 -3.02861 0
M  V30 5757 C 535.011 4.34027 -3.10574 0
M  V30 5758 O 535.234 5.24009 -2.25323 0
M  V30 5759 O 534.168 4.46873 -4.03223 0
M  V30 5760 H 537.994 1.45788 -2.6642 0
M  V30 5761 H 535.579 0.658838 -1.34088 0
M  V30 5762 H 537.461 3.77765 -1.86738 0
M  V30 5763 H 536.136 3.11791 -0.869947 0
M  V30 5764 H 535.043 2.22419 -3.008 0
M  V30 5765 H 536.376 2.94216 -3.94586 0
M  V30 5766 N 538.028 1.39524 0.732853 0
M  V30 5767 C 539.444 1.21176 1.03868 0
M  V30 5768 C 539.644 0.0748448 2.01361 0
M  V30 5769 O 538.7 -0.57281 2.45917 0
M  V30 5770 C 540.013 2.54667 1.59892 0
M  V30 5771 C 541.561 2.6153 1.71962 0
M  V30 5772 C 542.036 3.95248 2.31394 0
M  V30 5773 N 543.527 3.96899 2.38801 0
M  V30 5774 C 544.262 4.97138 2.85729 0
M  V30 5775 N 543.758 6.07775 3.32537 0
M  V30 5776 N 545.551 4.84516 2.84957 0
M  V30 5777 H 537.702 2.12225 0.086304 0
M  V30 5778 H 539.965 0.942614 0.100907 0
M  V30 5779 H 539.671 3.38423 0.95721 0
M  V30 5780 H 539.545 2.74538 2.58668 0
M  V30 5781 H 541.932 1.78156 2.35254 0
M  V30 5782 H 542.013 2.45507 0.718327 0
M  V30 5783 H 541.657 4.79054 1.68729 0
M  V30 5784 H 541.587 4.08593 3.32204 0
M  V30 5785 H 544.078 3.16998 2.05719 0
M  V30 5786 H 544.391 6.8017 3.66862 0
M  V30 5787 H 542.736 6.11366 3.30541 0
M  V30 5788 H 545.927 3.97185 2.47713 0
M  V30 5789 H 546.1 5.62783 3.21215 0
M  V30 5790 N 539.506 -0.963266 1.24736 0
M  V30 5791 C 540.752 -1.70933 1.09131 0
M  V30 5792 C 541.085 -1.90676 -0.368273 0
M  V30 5793 O 540.36 -1.47147 -1.27193 0
M  V30 5794 C 540.643 -3.09744 1.83658 0
M  V30 5795 C 540.496 -2.97465 3.37394 0
M  V30 5796 C 541.815 -4.09483 1.61282 0
M  V30 5797 H 538.934 -0.620398 0.397838 0
M  V30 5798 H 541.576 -1.12028 1.53459 0
M  V30 5799 H 539.726 -3.60031 1.4598 0
M  V30 5800 H 541.398 -2.54571 3.84696 0
M  V30 5801 H 539.641 -2.33576 3.65547 0
M  V30 5802 H 540.312 -3.95822 3.84745 0
M  V30 5803 H 542.788 -3.68073 1.94066 0
M  V30 5804 H 541.664 -5.04666 2.15878 0
M  V30 5805 H 541.925 -4.38639 0.552102 0
M  V30 5806 N 540.985 -1.06182 -1.16461 0
M  V30 5807 C 542.233 -0.776326 -1.86595 0
M  V30 5808 C 542.554 0.69921 -1.82033 0
M  V30 5809 O 541.824 1.50579 -1.2531 0
M  V30 5810 H 540.404 -0.284184 -0.690832 0
M  V30 5811 H 543.066 -1.34308 -1.41235 0
M  V30 5812 H 542.162 -1.10022 -2.92064 0
M  V30 5813 N 542.463 1.3308 -0.844243 0
M  V30 5814 C 543.693 2.01515 -0.455541 0
M  V30 5815 C 544.101 1.63655 0.949406 0
M  V30 5816 O 543.444 0.84848 1.62931 0
M  V30 5817 C 543.506 3.55967 -0.502801 0
M  V30 5818 C 543.17 4.17222 -1.86481 0
M  V30 5819 C 544.167 4.36205 -2.8288 0
M  V30 5820 C 541.852 4.53528 -2.15911 0
M  V30 5821 C 543.846 4.90649 -4.06869 0
M  V30 5822 C 541.533 5.07679 -3.40155 0
M  V30 5823 C 542.531 5.26186 -4.35451 0
M  V30 5824 O 542.219 5.79183 -5.57496 0
M  V30 5825 H 541.951 0.65199 -0.178565 0
M  V30 5826 H 544.505 1.70867 -1.1399 0
M  V30 5827 H 542.735 3.85965 0.23836 0
M  V30 5828 H 544.424 4.05688 -0.131169 0
M  V30 5829 H 545.19 4.085 -2.61444 0
M  V30 5830 H 541.069 4.38414 -1.42528 0
M  V30 5831 H 544.613 5.0501 -4.81259 0
M  V30 5832 H 540.51 5.34815 -3.61446 0
M  V30 5833 H 541.278 5.97591 -5.5931 0
M  V30 5834 N 543.941 0.601185 1.45683 0
M  V30 5835 C 544.904 -0.111398 2.28929 0
M  V30 5836 C 545.904 -0.801246 1.39416 0
M  V30 5837 O 547.094 -0.650383 1.61603 0
M  V30 5838 C 544.226 -1.16773 3.20276 0
M  V30 5839 H 545.419 0.620412 2.93413 0
M  V30 5840 H 542.972 0.359946 1.52099 0
M  V30 5841 H 543.707 -1.93051 2.60579 0
M  V30 5842 H 543.492 -0.677358 3.86205 0
M  V30 5843 H 544.982 -1.66698 3.82886 0
M  V30 5844 N 545.419 -1.53889 0.339982 0
M  V30 5845 C 546.835 -1.59595 -0.0120752 0
M  V30 5846 C 547.035 -1.35605 -1.49042 0
M  V30 5847 O 546.091 -1.14856 -2.24865 0
M  V30 5848 C 547.404 -2.9774 0.420898 0
M  V30 5849 C 548.952 -3.1077 0.37294 0
M  V30 5850 C 549.427 -4.51286 0.781327 0
M  V30 5851 N 550.918 -4.57325 0.735374 0
M  V30 5852 C 551.653 -5.64194 1.02336 0
M  V30 5853 N 551.149 -6.7893 1.37933 0
M  V30 5854 N 552.942 -5.54051 0.947838 0
M  V30 5855 H 545.093 -1.67738 1.30299 0
M  V30 5856 H 547.356 -0.785385 0.530918 0
M  V30 5857 H 547.062 -3.20349 1.45152 0
M  V30 5858 H 546.936 -3.76639 -0.205721 0
M  V30 5859 H 549.323 -2.87886 -0.648505 0
M  V30 5860 H 549.404 -2.33939 1.03472 0
M  V30 5861 H 549.048 -4.74905 1.80077 0
M  V30 5862 H 548.978 -5.26511 0.0970679 0
M  V30 5863 H 551.469 -3.74931 0.472773 0
M  V30 5864 H 551.782 -7.56392 1.58402 0
M  V30 5865 H 550.127 -6.80386 1.41774 0
M  V30 5866 H 553.318 -4.63293 0.669115 0
M  V30 5867 H 553.491 -6.37246 1.17563 0
M  V30 5868 N 546.897 -0.0685191 -1.57451 0
M  V30 5869 C 548.146 0.600898 -1.92541 0
M  V30 5870 C 548.459 1.70967 -0.950239 0
M  V30 5871 O 549.665 2.43844 -1.19384 0
M  V30 5872 C 548.121 1.12019 -3.42023 0
M  V30 5873 C 547.729 0.0426028 -4.4798 0
M  V30 5874 C 549.473 1.76386 -3.86119 0
M  V30 5875 C 547.38 0.575759 -5.88591 0
M  V30 5876 H 546.31 0.228225 -0.71863 0
M  V30 5877 H 548.961 -0.140223 -1.82963 0
M  V30 5878 H 547.343 1.91418 -3.46663 0
M  V30 5879 H 548.517 -0.73182 -4.54952 0
M  V30 5880 H 546.832 -0.504642 -4.13331 0
M  V30 5881 H 549.429 2.17302 -4.88553 0
M  V30 5882 H 549.772 2.62255 -3.23308 0
M  V30 5883 H 550.305 1.03615 -3.84069 0
M  V30 5884 H 547.044 -0.245691 -6.55039 0
M  V30 5885 H 546.564 1.31778 -5.85145 0
M  V30 5886 H 548.243 1.0532 -6.3837 0
M  V30 5887 N 548.375 1.56261 0.205012 0
M  V30 5888 C 549.305 1.96779 1.257 0
M  V30 5889 C 550.286 0.838309 1.48008 0
M  V30 5890 O 551.471 1.10189 1.59913 0
M  V30 5891 C 548.601 2.29876 2.60335 0
M  V30 5892 C 547.555 3.45469 2.52656 0
M  V30 5893 C 546.881 3.64215 3.91473 0
M  V30 5894 C 548.181 4.79954 2.06014 0
M  V30 5895 H 549.875 2.84904 0.920338 0
M  V30 5896 H 547.421 1.37072 0.441277 0
M  V30 5897 H 549.374 2.56814 3.34102 0
M  V30 5898 H 548.098 1.38622 2.95722 0
M  V30 5899 H 546.757 3.18605 1.81345 0
M  V30 5900 H 546.405 2.70309 4.24196 0
M  V30 5901 H 546.105 4.41973 3.87213 0
M  V30 5902 H 547.629 3.93519 4.66878 0
M  V30 5903 H 549.043 5.05989 2.69533 0
M  V30 5904 H 547.44 5.61111 2.12777 0
M  V30 5905 H 548.51 4.74201 1.01297 0
M  V30 5906 N 549.853 -0.472356 1.50355 0
M  V30 5907 C 551.1 -1.22453 1.61281 0
M  V30 5908 C 551.428 -1.91972 0.31256 0
M  V30 5909 O 550.683 -1.82696 -0.701475 0
M  V30 5910 C 550.982 -2.29257 2.74182 0
M  V30 5911 C 550.648 -1.76999 4.14708 0
M  V30 5912 C 549.31 -1.62467 4.52944 0
M  V30 5913 C 551.662 -1.38215 5.0254 0
M  V30 5914 C 548.99 -1.07574 5.76754 0
M  V30 5915 C 551.342 -0.847638 6.26895 0
M  V30 5916 C 550.006 -0.688946 6.63935 0
M  V30 5917 H 549.276 -0.448087 0.590168 0
M  V30 5918 H 551.923 -0.520744 1.84284 0
M  V30 5919 H 550.228 -3.05538 2.45263 0
M  V30 5920 H 551.925 -2.87212 2.7984 0
M  V30 5921 H 548.515 -1.89276 3.84542 0
M  V30 5922 H 552.699 -1.48276 4.73633 0
M  V30 5923 H 547.955 -0.940237 6.04127 0
M  V30 5924 H 552.129 -0.538455 6.94315 0
M  V30 5925 H 549.756 -0.261435 7.5975 0
M  V30 5926 N 551.331 -1.39911 -0.725443 0
M  V30 5927 C 552.278 -1.39393 -1.83952 0
M  V30 5928 C 553.248 -0.252249 -1.64173 0
M  V30 5929 O 554.433 -0.44882 -1.85446 0
M  V30 5930 C 551.573 -1.25262 -3.21564 0
M  V30 5931 C 550.686 -2.49054 -3.52982 0
M  V30 5932 C 549.821 -2.27439 -4.80047 0
M  V30 5933 C 548.86 -3.46857 -5.04338 0
M  V30 5934 N 547.997 -3.24499 -6.22611 0
M  V30 5935 H 552.837 -2.34622 -1.83729 0
M  V30 5936 H 550.374 -1.16537 -0.897636 0
M  V30 5937 H 552.332 -1.15077 -4.01015 0
M  V30 5938 H 550.962 -0.33657 -3.21041 0
M  V30 5939 H 550.014 -2.69805 -2.6816 0
M  V30 5940 H 551.326 -3.37973 -3.66846 0
M  V30 5941 H 550.48 -2.14551 -5.67497 0
M  V30 5942 H 549.219 -1.35929 -4.68374 0
M  V30 5943 H 548.224 -3.60232 -4.15346 0
M  V30 5944 H 549.449 -4.3928 -5.17889 0
M  V30 5945 H 547.395 -2.35663 -6.12208 0
M  V30 5946 H 547.312 -4.06978 -6.37106 0
M  V30 5947 H 548.58 -3.15325 -7.12875 0
M  V30 5948 N 552.809 0.956637 -1.25245 0
M  V30 5949 C 553.757 2.0743 -1.0524 0
M  V30 5950 C 554.751 1.69392 0.0160725 0
M  V30 5951 O 555.957 1.7946 -0.139382 0
M  V30 5952 H 552.332 0.678921 -0.323373 0
M  V30 5953 H 554.303 2.2146 -1.99995 0
M  V30 5954 C 553.052 3.40872 -0.685702 0
M  V30 5955 H 552.375 3.70607 -1.49968 0
M  V30 5956 H 553.815 4.19939 -0.585415 0
M  V30 5957 C 552.274 3.31367 0.608082 0
M  V30 5958 O 552.804 3.66214 1.65076 0
M  V30 5959 N 551.01 2.84486 0.592955 0
M  V30 5960 H 550.557 2.56326 -0.25592 0
M  V30 5961 H 550.515 2.78509 1.45877 0
M  V30 5962 N 554.287 1.06798 1.15896 0
M  V30 5963 C 555.219 0.641263 2.20046 0
M  V30 5964 C 556.232 -0.303355 1.59949 0
M  V30 5965 O 557.421 -0.0935478 1.78255 0
M  V30 5966 C 554.521 -0.0794029 3.38807 0
M  V30 5967 C 553.694 0.879986 4.28457 0
M  V30 5968 C 552.753 0.197638 5.25829 0
M  V30 5969 O 551.779 0.836913 5.63014 0
M  V30 5970 N 552.981 -1.05886 5.70761 0
M  V30 5971 H 555.746 1.53718 2.57276 0
M  V30 5972 H 553.307 0.951951 1.30956 0
M  V30 5973 H 555.299 -0.546418 4.00994 0
M  V30 5974 H 553.869 -0.877193 3.0004 0
M  V30 5975 H 553.089 1.52625 3.63454 0
M  V30 5976 H 554.377 1.53065 4.8523 0
M  V30 5977 H 553.775 -1.59828 5.42652 0
M  V30 5978 H 552.332 -1.46965 6.35015 0
M  V30 5979 N 555.766 -1.3263 0.851289 0
M  V30 5980 C 556.729 -2.27247 0.298541 0
M  V30 5981 C 557.729 -1.51467 -0.539847 0
M  V30 5982 O 558.919 -1.7061 -0.351843 0
M  V30 5983 C 556.051 -3.35964 -0.578004 0
M  V30 5984 H 557.244 -2.7765 1.13359 0
M  V30 5985 H 554.797 -1.43245 0.625354 0
M  V30 5986 H 555.532 -2.90823 -1.435 0
M  V30 5987 H 555.317 -3.92094 0.0220539 0
M  V30 5988 H 556.807 -4.06472 -0.957626 0
M  V30 5989 N 557.244 -0.608902 -1.45362 0
M  V30 5990 C 558.484 -0.10763 -2.04116 0
M  V30 5991 C 558.848 1.23883 -1.46686 0
M  V30 5992 O 560.049 1.83091 -1.96803 0
M  V30 5993 C 558.32 -0.0703351 -3.57331 0
M  V30 5994 S 559.879 0.369554 -4.37241 0
M  V30 5995 H 556.697 -0.0502123 -0.709225 0
M  V30 5996 H 559.299 -0.8073 -1.78053 0
M  V30 5997 H 558.003 -1.05379 -3.9664 0
M  V30 5998 H 557.534 0.651287 -3.87971 0
M  V30 5999 H 559.549 1.61878 -4.69052 0
M  V30 6000 N 558.722 1.53707 -0.348139 0
M  V30 6001 C 559.962 2.02899 0.247254 0
M  V30 6002 C 560.326 1.23033 1.47401 0
M  V30 6003 O 561.527 1.62146 2.14388 0
M  V30 6004 C 559.798 3.53156 0.549151 0
M  V30 6005 S 561.357 4.24247 1.1207 0
M  V30 6006 H 558.175 0.707213 0.0732894 0
M  V30 6007 H 560.777 1.89338 -0.486965 0
M  V30 6008 H 559.481 4.08893 -0.351435 0
M  V30 6009 H 559.012 3.70845 1.31291 0
M  V30 6010 H 561.027 4.33958 2.40613 0
M  V30 6011 N 560.2 0.0768682 1.57412 0
M  V30 6012 C 561.446 -0.591961 1.93968 0
M  V30 6013 C 561.779 -1.68954 0.9575 0
M  V30 6014 O 561.054 -1.94496 -0.0124675 0
M  V30 6015 C 561.337 -1.16418 3.40762 0
M  V30 6016 C 561.19 -0.0728933 4.49741 0
M  V30 6017 C 562.509 -2.06814 3.88479 0
M  V30 6018 H 559.628 -0.213716 0.705333 0
M  V30 6019 H 562.27 0.14387 1.89455 0
M  V30 6020 H 560.42 -1.79128 3.4474 0
M  V30 6021 H 562.092 0.560446 4.57883 0
M  V30 6022 H 560.335 0.595859 4.29688 0
M  V30 6023 H 561.006 -0.513755 5.49604 0
M  V30 6024 H 563.482 -1.54033 3.8654 0
M  V30 6025 H 562.358 -2.43785 4.91793 0
M  V30 6026 H 562.619 -2.97844 3.26713 0
M  V30 6027 N 561.678 -1.56367 -0.196722 0
M  V30 6028 C 562.61 -1.90941 -1.26784 0
M  V30 6029 C 563.623 -0.799928 -1.41792 0
M  V30 6030 O 564.812 -1.07833 -1.42247 0
M  V30 6031 C 561.912 -2.12477 -2.6402 0
M  V30 6032 C 561.085 -3.43616 -2.70641 0
M  V30 6033 C 560.144 -3.54284 -3.89062 0
M  V30 6034 O 559.17 -4.2712 -3.76241 0
M  V30 6035 N 560.372 -2.87252 -5.04447 0
M  V30 6036 H 563.137 -2.83417 -0.974417 0
M  V30 6037 H 560.698 -1.57215 -0.386649 0
M  V30 6038 H 562.69 -2.16904 -3.41665 0
M  V30 6039 H 561.26 -1.26508 -2.85857 0
M  V30 6040 H 560.48 -3.51072 -1.79283 0
M  V30 6041 H 561.768 -4.29958 -2.72054 0
M  V30 6042 H 561.166 -2.27901 -5.17762 0
M  V30 6043 H 559.723 -2.97308 -5.80044 0
M  V30 6044 N 563.156 0.464375 -1.50603 0
M  V30 6045 C 564.381 1.24372 -1.65971 0
M  V30 6046 C 564.806 1.84901 -0.345453 0
M  V30 6047 O 564.164 1.67596 0.691457 0
M  V30 6048 C 564.212 2.32331 -2.7578 0
M  V30 6049 O 563.316 3.37146 -2.375 0
M  V30 6050 H 562.657 0.365604 -0.554283 0
M  V30 6051 H 565.187 0.55183 -1.97018 0
M  V30 6052 H 565.197 2.77539 -2.99059 0
M  V30 6053 H 563.872 1.87648 -3.71162 0
M  V30 6054 H 562.449 2.97602 -2.24694 0
M  V30 6055 N 564.634 1.40294 0.718013 0
M  V30 6056 C 565.544 1.42678 1.86226 0
M  V30 6057 C 566.56 0.319655 1.71039 0
M  V30 6058 O 567.736 0.563852 1.93346 0
M  V30 6059 C 564.801 1.2852 3.21999 0
M  V30 6060 C 563.862 2.49354 3.49458 0
M  V30 6061 C 563.095 2.35863 4.78753 0
M  V30 6062 O 563.318 1.37114 5.53675 0
M  V30 6063 O 562.252 3.25189 5.06494 0
M  V30 6064 H 566.078 2.39167 1.87171 0
M  V30 6065 H 563.663 1.2159 0.868112 0
M  V30 6066 H 565.545 1.22824 4.03103 0
M  V30 6067 H 564.22 0.351359 3.21787 0
M  V30 6068 H 563.127 2.60628 2.68373 0
M  V30 6069 H 564.46 3.41491 3.54464 0
M  V30 6070 N 566.112 -0.949982 1.2575 0
M  V30 6071 C 567.059 -2.04738 1.06541 0
M  V30 6072 C 568.029 -1.66078 -0.0268818 0
M  V30 6073 O 569.214 -1.90348 0.131196 0
M  V30 6074 C 566.354 -3.38027 0.695127 0
M  V30 6075 C 565.467 -3.89776 1.86276 0
M  V30 6076 C 564.602 -5.11411 1.4364 0
M  V30 6077 C 563.641 -5.554 2.57287 0
M  V30 6078 N 562.778 -6.68244 2.15395 0
M  V30 6079 H 567.618 -2.20502 2.00457 0
M  V30 6080 H 565.155 -1.0805 0.998178 0
M  V30 6081 H 567.113 -4.14641 0.461375 0
M  V30 6082 H 565.743 -3.22135 -0.207046 0
M  V30 6083 H 564.795 -3.0964 2.20969 0
M  V30 6084 H 566.107 -4.18368 2.71606 0
M  V30 6085 H 565.261 -5.95457 1.16257 0
M  V30 6086 H 564 -4.84545 0.553879 0
M  V30 6087 H 563.005 -4.69916 2.85409 0
M  V30 6088 H 564.23 -5.84272 3.46125 0
M  V30 6089 H 562.176 -6.43078 1.29565 0
M  V30 6090 H 562.093 -6.96377 2.94272 0
M  V30 6091 H 563.361 -7.55687 1.91201 0
M  V30 6092 N 567.59 -1.07411 -1.15328 0
M  V30 6093 C 568.54 -0.664788 -2.18093 0
M  V30 6094 C 569.524 0.310395 -1.57878 0
M  V30 6095 O 570.716 0.124026 -1.76565 0
M  V30 6096 C 567.845 -0.0647822 -3.43239 0
M  V30 6097 C 566.931 -1.06514 -4.10506 0
M  V30 6098 N 567.322 -2.24491 -4.53252 0
M  V30 6099 C 565.62 -0.898613 -4.36853 0
M  V30 6100 C 566.321 -2.8796 -5.05424 0
M  V30 6101 N 565.297 -2.15622 -4.99007 0
M  V30 6102 H 569.099 -1.56333 -2.48872 0
M  V30 6103 H 566.613 -0.947393 -1.31902 0
M  V30 6104 H 568.61 0.246363 -4.16171 0
M  V30 6105 H 567.27 0.828866 -3.13943 0
M  V30 6106 H 568.281 -2.62205 -4.46619 0
M  V30 6107 H 564.958 -0.0579118 -4.1746 0
M  V30 6108 H 566.348 -3.88137 -5.48452 0
M  V30 6109 N 569.068 1.32177 -0.85831 0
M  V30 6110 C 570.314 1.97813 -0.47346 0
M  V30 6111 C 570.669 1.66674 0.961122 0
M  V30 6112 O 569.962 0.94657 1.66585 0
M  V30 6113 C 570.156 3.51372 -0.653658 0
M  V30 6114 C 569.985 3.97433 -2.1042 0
M  V30 6115 C 568.755 4.24338 -2.74345 0
M  V30 6116 C 570.953 4.12233 -3.0752 0
M  V30 6117 N 568.935 4.56672 -4.10272 0
M  V30 6118 C 570.306 4.48146 -4.28445 0
M  V30 6119 C 572.361 3.94577 -3.03667 0
M  V30 6120 C 571.064 4.68246 -5.4602 0
M  V30 6121 C 573.09 4.15864 -4.20489 0
M  V30 6122 C 572.452 4.52098 -5.40173 0
M  V30 6123 H 568.551 0.749808 -0.222061 0
M  V30 6124 H 571.135 1.59927 -1.11047 0
M  V30 6125 H 569.306 3.88372 -0.0463267 0
M  V30 6126 H 571.038 4.03998 -0.238343 0
M  V30 6127 H 567.793 4.16544 -2.25362 0
M  V30 6128 H 568.217 4.77019 -4.80398 0
M  V30 6129 H 572.859 3.65662 -2.12252 0
M  V30 6130 H 570.577 4.96014 -6.37962 0
M  V30 6131 H 574.163 4.03702 -4.18947 0
M  V30 6132 H 573.043 4.68238 -6.29065 0
M  V30 6133 N 570.547 0.616602 1.45037 0
M  V30 6134 C 571.51 -0.0871112 2.29034 0
M  V30 6135 C 572.51 -0.786414 1.40258 0
M  V30 6136 O 573.7 -0.633207 1.62284 0
M  V30 6137 C 570.832 -1.13369 3.21497 0
M  V30 6138 H 572.025 0.651497 2.92738 0
M  V30 6139 H 569.578 0.376058 1.51709 0
M  V30 6140 H 570.313 -1.90277 2.62612 0
M  V30 6141 H 570.098 -0.636358 3.86902 0
M  V30 6142 H 571.588 -1.62627 3.84633 0
M  V30 6143 N 572.025 -1.5352 0.356285 0
M  V30 6144 C 572.988 -2.24071 -0.482182 0
M  V30 6145 C 573.988 -1.24531 -1.01729 0
M  V30 6146 O 575.178 -1.48876 -0.904513 0
M  V30 6147 C 572.31 -2.97025 -1.67299 0
M  V30 6148 H 573.503 -2.99596 0.135031 0
M  V30 6149 H 571.056 -1.55928 0.107825 0
M  V30 6150 H 571.791 -2.25719 -2.32855 0
M  V30 6151 H 571.576 -3.7005 -1.29636 0
M  V30 6152 H 573.066 -3.50683 -2.26741 0
M  V30 6153 N 573.503 -0.0852151 -1.57369 0
M  V30 6154 C 574.466 0.8627 -2.12344 0
M  V30 6155 C 575.466 1.21746 -1.05046 0
M  V30 6156 O 576.656 1.14852 -1.30976 0
M  V30 6157 C 573.788 2.1618 -2.63589 0
M  V30 6158 H 574.981 0.385511 -2.97412 0
M  V30 6159 H 572.534 0.163663 -1.55441 0
M  V30 6160 H 573.269 2.68406 -1.82013 0
M  V30 6161 H 573.054 1.91723 -3.4203 0
M  V30 6162 H 574.544 2.84011 -3.06149 0
M  V30 6163 N 574.981 1.5647 0.188427 0
M  V30 6164 C 575.913 1.91611 1.25769 0
M  V30 6165 C 576.926 0.807436 1.41366 0
M  V30 6166 O 578.115 1.08586 1.41673 0
M  V30 6167 C 575.215 2.13874 2.6289 0
M  V30 6168 C 574.388 3.45047 2.68815 0
M  V30 6169 C 573.447 3.56342 3.87178 0
M  V30 6170 O 572.473 4.29109 3.73971 0
M  V30 6171 N 573.675 2.89924 5.02916 0
M  V30 6172 H 576.44 2.8393 0.959373 0
M  V30 6173 H 574.001 1.57418 0.378306 0
M  V30 6174 H 575.993 2.18713 3.4051 0
M  V30 6175 H 574.563 1.28022 2.85183 0
M  V30 6176 H 573.783 3.52017 1.77419 0
M  V30 6177 H 575.071 4.31395 2.6977 0
M  V30 6178 H 574.469 2.30644 5.16546 0
M  V30 6179 H 573.026 3.0038 5.78459 0
M  V30 6180 N 576.459 -0.456382 1.50847 0
M  V30 6181 C 577.684 -1.2349 1.66628 0
M  V30 6182 C 578.109 -1.84715 0.355254 0
M  V30 6183 O 577.467 -1.67961 -0.682559 0
M  V30 6184 C 577.515 -2.30865 2.77009 0
M  V30 6185 O 576.619 -3.35882 2.39285 0
M  V30 6186 H 575.96 -0.36266 0.556214 0
M  V30 6187 H 578.49 -0.541374 1.97308 0
M  V30 6188 H 578.5 -2.75949 3.00526 0
M  V30 6189 H 577.175 -1.85677 3.72152 0
M  V30 6190 H 575.752 -2.96406 2.26269 0
M  V30 6191 N 577.937 -1.40673 -0.710563 0
M  V30 6192 C 578.869 -1.37256 -1.83558 0
M  V30 6193 C 579.882 -0.277133 -1.60424 0
M  V30 6194 O 581.071 -0.537831 -1.70205 0
M  V30 6195 C 578.171 -1.1144 -3.20054 0
M  V30 6196 C 577.344 -2.32734 -3.70342 0
M  V30 6197 C 576.403 -2.03002 -4.85465 0
M  V30 6198 O 575.429 -2.75912 -4.97857 0
M  V30 6199 N 576.631 -1.01105 -5.71627 0
M  V30 6200 H 579.396 -2.34215 -1.86985 0
M  V30 6201 H 576.957 -1.35091 -0.892301 0
M  V30 6202 H 578.949 -0.895265 -3.94673 0
M  V30 6203 H 577.519 -0.231307 -3.11743 0
M  V30 6204 H 576.739 -2.70446 -2.86798 0
M  V30 6205 H 578.027 -3.13584 -4.00678 0
M  V30 6206 H 577.425 -0.407303 -5.64232 0
M  V30 6207 H 575.982 -0.85182 -6.4621 0
M  V30 6208 N 579.415 0.9433 -1.26252 0
M  V30 6209 C 580.655 1.70397 -1.1289 0
M  V30 6210 C 581.019 1.89268 0.322713 0
M  V30 6211 O 582.22 2.62503 0.578418 0
M  V30 6212 C 580.491 3.04296 -1.87453 0
M  V30 6213 S 582.05 3.95475 -1.90119 0
M  V30 6214 H 578.868 0.585559 -0.403289 0
M  V30 6215 H 581.47 1.12424 -1.59941 0
M  V30 6216 H 580.174 2.8824 -2.9214 0
M  V30 6217 H 579.705 3.67327 -1.40835 0
M  V30 6218 H 581.72 4.86297 -0.986373 0
M  V30 6219 N 580.893 1.08022 1.14757 0
M  V30 6220 C 581.823 0.728248 2.21853 0
M  V30 6221 C 582.804 -0.287486 1.67653 0
M  V30 6222 O 583.989 -0.158727 1.9355 0
M  V30 6223 C 581.119 0.132549 3.47047 0
M  V30 6224 C 580.073 1.07619 4.14249 0
M  V30 6225 C 579.399 0.342907 5.33599 0
M  V30 6226 C 580.699 2.41268 4.63235 0
M  V30 6227 H 582.393 1.62365 2.51551 0
M  V30 6228 H 579.939 0.782125 1.20908 0
M  V30 6229 H 581.892 -0.125665 4.21213 0
M  V30 6230 H 580.616 -0.797971 3.16702 0
M  V30 6231 H 579.275 1.31944 3.42033 0
M  V30 6232 H 578.923 -0.59129 4.99513 0
M  V30 6233 H 578.623 0.971955 5.79506 0
M  V30 6234 H 580.147 0.0926538 6.1053 0
M  V30 6235 H 581.561 2.21232 5.28894 0
M  V30 6236 H 579.958 2.9983 5.19829 0
M  V30 6237 H 581.028 3.03079 3.78512 0
M  V30 6238 N 582.371 -1.3172 0.865308 0
M  V30 6239 C 583.782 -1.79104 0.527126 0
M  V30 6240 C 584.133 -1.7135 -0.955695 0
M  V30 6241 O 583.258 -1.27845 -1.74598 0
M  V30 6242 C 583.853 -3.25207 0.950061 0
M  V30 6243 C 582.412 -3.70504 0.663611 0
M  V30 6244 C 581.559 -2.52605 1.14395 0
M  V30 6245 H 584.51 -1.18868 1.05148 0
M  V30 6246 H 584.531 -3.79535 0.270805 0
M  V30 6247 H 584.043 -3.30818 2.02931 0
M  V30 6248 H 582.144 -3.70398 -0.404474 0
M  V30 6249 H 582.257 -4.62845 1.23737 0
M  V30 6250 H 580.621 -2.4838 0.563859 0
M  V30 6251 H 581.404 -2.60964 2.23053 0
M  V30 6252 N 583.85 -0.624285 -1.44708 0
M  V30 6253 C 585.266 -0.289322 -1.56956 0
M  V30 6254 C 585.466 1.20773 -1.61295 0
M  V30 6255 O 584.522 1.9915 -1.55227 0
M  V30 6256 C 585.835 -0.975215 -2.84447 0
M  V30 6257 C 587.383 -0.952709 -2.98148 0
M  V30 6258 C 587.858 -1.61893 -4.28433 0
M  V30 6259 N 589.349 -1.5852 -4.35231 0
M  V30 6260 C 590.084 -2.06969 -5.34744 0
M  V30 6261 N 589.58 -2.63579 -6.40701 0
M  V30 6262 N 591.373 -1.97638 -5.26209 0
M  V30 6263 H 583.524 -1.59612 -1.40135 0
M  V30 6264 H 585.787 -0.669592 -0.671081 0
M  V30 6265 H 585.493 -2.02999 -2.87201 0
M  V30 6266 H 585.367 -0.508749 -3.73753 0
M  V30 6267 H 587.754 0.093568 -2.94952 0
M  V30 6268 H 587.835 -1.4576 -2.10209 0
M  V30 6269 H 587.479 -2.66463 -4.32389 0
M  V30 6270 H 587.409 -1.08893 -5.15218 0
M  V30 6271 H 589.899 -1.17183 -3.59272 0
M  V30 6272 H 590.213 -2.98298 -7.12908 0
M  V30 6273 H 588.558 -2.67626 -6.41406 0
M  V30 6274 H 591.749 -1.5314 -4.42341 0
M  V30 6275 H 591.922 -2.35708 -6.03611 0
M  V30 6276 N 585.328 1.53329 -0.364422 0
M  V30 6277 C 586.26 2.23286 0.517293 0
M  V30 6278 C 587.273 1.24657 1.04711 0
M  V30 6279 O 588.462 1.50887 0.95369 0
M  V30 6280 C 585.562 2.91604 1.72685 0
M  V30 6281 C 584.735 4.1673 1.32873 0
M  V30 6282 C 583.794 4.68269 2.40022 0
M  V30 6283 O 582.82 5.31976 2.02461 0
M  V30 6284 N 584.022 4.45983 3.7159 0
M  V30 6285 H 586.787 2.99588 -0.0819391 0
M  V30 6286 H 584.348 1.60787 -0.189544 0
M  V30 6287 H 586.34 3.22992 2.4384 0
M  V30 6288 H 584.91 2.18763 2.23297 0
M  V30 6289 H 584.13 3.91657 0.447069 0
M  V30 6290 H 585.418 4.98078 1.03902 0
M  V30 6291 H 584.816 3.95077 4.04883 0
M  V30 6292 H 583.373 4.81924 4.38854 0
M  V30 6293 N 586.806 0.0935595 1.57322 0
M  V30 6294 C 587.736 -0.863062 2.16964 0
M  V30 6295 C 588.717 -1.29528 1.10256 0
M  V30 6296 O 589.902 -1.36245 1.38387 0
M  V30 6297 C 587.032 -2.12276 2.74875 0
M  V30 6298 C 585.986 -1.82921 3.86942 0
M  V30 6299 C 585.312 -3.15707 4.31548 0
M  V30 6300 C 586.612 -1.11737 5.10208 0
M  V30 6301 H 588.306 -0.366145 2.97153 0
M  V30 6302 H 585.852 -0.174673 1.42937 0
M  V30 6303 H 587.805 -2.79634 3.1525 0
M  V30 6304 H 586.529 -2.64248 1.91938 0
M  V30 6305 H 585.188 -1.17961 3.47103 0
M  V30 6306 H 584.836 -3.65563 3.45504 0
M  V30 6307 H 584.536 -2.96849 5.07104 0
M  V30 6308 H 586.06 -3.84226 4.74555 0
M  V30 6309 H 587.474 -1.69203 5.47762 0
M  V30 6310 H 585.871 -1.03064 5.91183 0
M  V30 6311 H 586.941 -0.0998818 4.84797 0
M  V30 6312 N 588.284 -1.56567 -0.180126 0
M  V30 6313 C 589.53 -1.81761 -0.899497 0
M  V30 6314 C 589.863 -0.670015 -1.82276 0
M  V30 6315 O 589.138 0.328575 -1.91705 0
M  V30 6316 C 589.421 -3.17296 -1.7028 0
M  V30 6317 C 589.274 -4.4257 -0.803255 0
M  V30 6318 C 590.593 -3.49678 -2.67233 0
M  V30 6319 H 587.712 -0.661192 -0.325567 0
M  V30 6320 H 590.354 -1.89272 -0.16612 0
M  V30 6321 H 588.504 -3.11023 -2.32802 0
M  V30 6322 H 590.176 -4.60902 -0.191585 0
M  V30 6323 H 588.419 -4.33658 -0.110796 0
M  V30 6324 H 589.09 -5.33935 -1.40064 0
M  V30 6325 H 591.566 -3.56347 -2.14839 0
M  V30 6326 H 590.442 -4.45605 -3.20511 0
M  V30 6327 H 590.703 -2.73932 -3.47007 0
M  V30 6328 N 589.762 0.448376 -1.51087 0
M  V30 6329 C 591.009 1.19872 -1.63209 0
M  V30 6330 C 591.337 1.91451 -0.343062 0
M  V30 6331 O 590.592 1.83789 0.672321 0
M  V30 6332 C 590.891 2.24866 -2.77795 0
M  V30 6333 C 590.557 1.70378 -4.17471 0
M  V30 6334 C 589.219 1.55241 -4.55471 0
M  V30 6335 C 591.571 1.30203 -5.04675 0
M  V30 6336 C 588.899 0.983844 -5.78392 0
M  V30 6337 C 591.251 0.747798 -6.28165 0
M  V30 6338 C 589.915 0.583233 -6.64947 0
M  V30 6339 H 589.185 0.438642 -0.597222 0
M  V30 6340 H 591.832 0.49136 -1.85089 0
M  V30 6341 H 590.137 3.01598 -2.50092 0
M  V30 6342 H 591.834 2.82723 -2.84374 0
M  V30 6343 H 588.424 1.83134 -3.87505 0
M  V30 6344 H 592.608 1.40723 -4.75932 0
M  V30 6345 H 587.864 0.844007 -6.05546 0
M  V30 6346 H 592.038 0.427927 -6.95084 0
M  V30 6347 H 589.665 0.140532 -7.6007 0
M  V30 6348 N 591.24 1.41047 0.703093 0
M  V30 6349 C 592.19 1.38774 1.80903 0
M  V30 6350 C 593.174 0.263275 1.58731 0
M  V30 6351 O 594.366 0.503362 1.69692 0
M  V30 6352 C 591.495 1.26497 3.19145 0
M  V30 6353 C 590.581 2.43775 3.47037 0
M  V30 6354 N 590.972 3.69249 3.45672 0
M  V30 6355 C 589.27 2.37425 3.77552 0
M  V30 6356 C 589.971 4.46989 3.72258 0
M  V30 6357 N 588.947 3.76998 3.91629 0
M  V30 6358 H 592.749 2.33714 1.78199 0
M  V30 6359 H 590.263 1.34996 0.902762 0
M  V30 6360 H 592.26 1.2295 3.98358 0
M  V30 6361 H 590.92 0.32534 3.23066 0
M  V30 6362 H 591.931 4.02239 3.26228 0
M  V30 6363 H 588.608 1.51895 3.88888 0
M  V30 6364 H 589.998 5.55894 3.77402 0
M  V30 6365 N 592.718 -0.936591 1.26751 0
M  V30 6366 C 593.967 -1.67778 1.11953 0
M  V30 6367 C 594.28 -1.92694 -0.33589 0
M  V30 6368 O 595.486 -2.64682 -0.604618 0
M  V30 6369 C 593.942 -3.02138 1.95551 0
M  V30 6370 C 593.55 -2.84953 3.45696 0
M  V30 6371 C 595.294 -3.79917 1.89377 0
M  V30 6372 C 593.201 -4.14814 4.21525 0
M  V30 6373 H 592.131 -0.629275 0.415366 0
M  V30 6374 H 594.782 -1.04122 1.51099 0
M  V30 6375 H 593.164 -3.668 1.49243 0
M  V30 6376 H 594.338 -2.29112 3.99805 0
M  V30 6377 H 592.653 -2.20612 3.53156 0
M  V30 6378 H 595.25 -4.76134 2.43312 0
M  V30 6379 H 595.593 -4.07204 0.865464 0
M  V30 6380 H 596.126 -3.22037 2.33532 0
M  V30 6381 H 592.865 -3.92709 5.24843 0
M  V30 6382 H 592.385 -4.70352 3.72195 0
M  V30 6383 H 594.064 -4.83239 4.3022 0
M  V30 6384 N 594.196 -1.08629 -1.14182 0
M  V30 6385 C 595.444 -0.815731 -1.84906 0
M  V30 6386 C 595.765 0.660441 -1.83475 0
M  V30 6387 O 595.035 1.47888 -1.28476 0
M  V30 6388 H 593.615 -0.298773 -0.684648 0
M  V30 6389 H 596.277 -1.37274 -1.38354 0
M  V30 6390 H 595.373 -1.16193 -2.89665 0
M  V30 6391 N 595.674 1.31259 -0.872281 0
M  V30 6392 C 596.624 2.26 -0.301295 0
M  V30 6393 C 597.608 1.50729 0.562991 0
M  V30 6394 O 598.8 1.72198 0.40949 0
M  V30 6395 C 595.929 3.39724 0.494227 0
M  V30 6396 C 595.015 4.22363 -0.383432 0
M  V30 6397 N 595.406 4.83724 -1.47799 0
M  V30 6398 C 593.704 4.45652 -0.176278 0
M  V30 6399 C 594.405 5.45523 -2.01939 0
M  V30 6400 N 593.381 5.27428 -1.31608 0
M  V30 6401 H 597.183 2.70981 -1.13782 0
M  V30 6402 H 594.697 1.45552 -0.720294 0
M  V30 6403 H 596.694 4.06626 0.919828 0
M  V30 6404 H 595.354 2.96286 1.32834 0
M  V30 6405 H 596.365 4.83313 -1.8609 0
M  V30 6406 H 593.042 4.12845 0.621698 0
M  V30 6407 H 594.432 6.04268 -2.93786 0
M  V30 6408 N 597.152 0.631951 1.44375 0
M  V30 6409 C 598.4 0.136497 2.01639 0
M  V30 6410 C 598.721 -1.24637 1.49969 0
M  V30 6411 O 597.991 -1.82827 0.70363 0
M  V30 6412 H 596.571 0.0474703 0.74549 0
M  V30 6413 H 599.233 0.818837 1.76865 0
M  V30 6414 H 598.329 0.104817 3.11924 0
M  V30 6415 N 598.631 -1.53133 0.372548 0
M  V30 6416 C 599.908 -1.93704 -0.271693 0
M  V30 6417 C 600.288 -1.30667 -1.65799 0
M  V30 6418 O 599.636 -0.46838 -2.23648 0
M  V30 6419 C 599.846 -3.47576 -0.314903 0
M  V30 6420 C 601.194 -4.20998 -0.551912 0
M  V30 6421 O 602.218 -3.53994 -0.39582 0
M  V30 6422 O 601.077 -5.39748 -0.85639 0
M  V30 6423 H 598.171 -0.810457 -0.164586 0
M  V30 6424 H 600.717 -1.6427 0.425838 0
M  V30 6425 H 599.489 -3.85749 0.656792 0
M  V30 6426 H 599.112 -3.83264 -1.05804 0
M  V30 6427 N 600.109 -0.101901 -1.5727 0
M  V30 6428 C 601.039 0.851544 -2.17419 0
M  V30 6429 C 602.02 1.28942 -1.10941 0
M  V30 6430 O 603.205 1.35509 -1.39107 0
M  V30 6431 C 600.335 2.10816 -2.75996 0
M  V30 6432 C 599.289 1.80867 -3.87906 0
M  V30 6433 C 598.615 3.13413 -4.33216 0
M  V30 6434 C 599.915 1.0903 -5.10793 0
M  V30 6435 H 601.609 0.350381 -2.97343 0
M  V30 6436 H 599.155 0.16709 -1.43027 0
M  V30 6437 H 601.108 2.77959 -3.16729 0
M  V30 6438 H 599.832 2.63227 -1.93337 0
M  V30 6439 H 598.491 1.16119 -3.47724 0
M  V30 6440 H 598.139 3.63725 -3.47438 0
M  V30 6441 H 597.839 2.94155 -5.08671 0
M  V30 6442 H 599.363 3.81704 -4.76586 0
M  V30 6443 H 600.777 1.66295 -5.48652 0
M  V30 6444 H 599.174 0.99927 -5.91722 0
M  V30 6445 H 600.244 0.0741704 -4.84843 0
M  V30 6446 N 601.587 1.56661 0.17182 0
M  V30 6447 C 602.835 1.81606 0.886774 0
M  V30 6448 C 603.156 0.678818 1.82803 0
M  V30 6449 O 602.426 -0.301354 1.93568 0
M  V30 6450 H 601.006 0.669934 0.330451 0
M  V30 6451 H 603.668 1.94142 0.171757 0
M  V30 6452 H 602.764 2.75634 1.46398 0
M  V30 6453 N 603.065 -0.440357 1.51323 0
M  V30 6454 C 604.29 -1.21716 1.67928 0
M  V30 6455 C 604.715 -1.84328 0.374826 0
M  V30 6456 O 604.073 -1.68675 -0.664706 0
M  V30 6457 C 604.121 -2.27914 2.79442 0
M  V30 6458 O 603.225 -3.33325 2.42834 0
M  V30 6459 H 602.566 -0.35674 0.560029 0
M  V30 6460 H 605.096 -0.520417 1.97871 0
M  V30 6461 H 605.106 -2.72746 3.03436 0
M  V30 6462 H 603.781 -1.8172 3.741 0
M  V30 6463 H 602.358 -2.9399 2.294 0
M  V30 6464 N 604.543 -1.41418 -0.695603 0
M  V30 6465 C 605.954 -1.36335 -1.27552 0
M  V30 6466 C 606.305 -0.0464336 -1.96145 0
M  V30 6467 O 605.43 0.855304 -1.9878 0
M  V30 6468 C 606.025 -2.46941 -2.3196 0
M  V30 6469 C 604.584 -2.45256 -2.85529 0
M  V30 6470 C 603.731 -2.2679 -1.59566 0
M  V30 6471 H 606.682 -1.50934 -0.490362 0
M  V30 6472 H 606.703 -2.15997 -3.1325 0
M  V30 6473 H 606.215 -3.42775 -1.82008 0
M  V30 6474 H 604.316 -1.53179 -3.39657 0
M  V30 6475 H 604.429 -3.41565 -3.35961 0
M  V30 6476 H 602.793 -1.74667 -1.85374 0
M  V30 6477 H 603.576 -3.24651 -1.1161 0
M  V30 6478 N 606.021 0.929856 -1.27246 0
M  V30 6479 C 606.984 2.01172 -1.09829 0
M  V30 6480 C 607.984 1.60743 -0.0429687 0
M  V30 6481 O 609.174 1.71813 -0.287373 0
M  V30 6482 C 606.306 3.34191 -0.673003 0
M  V30 6483 H 607.499 2.18054 -2.05895 0
M  V30 6484 H 605.052 1.11036 -1.10003 0
M  V30 6485 H 605.787 3.23009 0.289134 0
M  V30 6486 H 605.572 3.64892 -1.43515 0
M  V30 6487 H 607.062 4.13646 -0.573323 0
M  V30 6488 N 607.499 1.09233 1.13605 0
M  V30 6489 C 608.745 0.828385 1.8511 0
M  V30 6490 C 609.078 -0.64437 1.83198 0
M  V30 6491 O 608.353 -1.47428 1.26867 0
M  V30 6492 C 608.636 1.36167 3.33363 0
M  V30 6493 C 608.489 2.90038 3.438 0
M  V30 6494 C 609.808 0.993819 4.28732 0
M  V30 6495 H 606.927 0.30239 0.672108 0
M  V30 6496 H 609.569 1.35339 1.33355 0
M  V30 6497 H 607.719 0.9151 3.77569 0
M  V30 6498 H 609.391 3.43128 3.08319 0
M  V30 6499 H 607.634 3.27271 2.84739 0
M  V30 6500 H 608.305 3.22428 4.48045 0
M  V30 6501 H 610.781 1.37893 3.92587 0
M  V30 6502 H 609.657 1.39403 5.30903 0
M  V30 6503 H 609.918 -0.0982206 4.41991 0
M  V30 6504 N 608.977 -1.30795 0.87923 0
M  V30 6505 C 609.907 -2.30742 0.357796 0
M  V30 6506 C 610.888 -1.60747 -0.556283 0
M  V30 6507 O 612.073 -1.88393 -0.47135 0
M  V30 6508 C 609.203 -3.44583 -0.433555 0
M  V30 6509 C 608.157 -4.26235 0.388251 0
M  V30 6510 C 607.483 -5.32073 -0.529352 0
M  V30 6511 C 608.783 -4.96303 1.62729 0
M  V30 6512 H 610.477 -2.74605 1.19299 0
M  V30 6513 H 608.023 -1.32017 0.575104 0
M  V30 6514 H 609.976 -4.13563 -0.808934 0
M  V30 6515 H 608.7 -2.99511 -1.30234 0
M  V30 6516 H 607.359 -3.58936 0.745695 0
M  V30 6517 H 607.007 -4.83249 -1.39569 0
M  V30 6518 H 606.707 -5.87598 0.0166741 0
M  V30 6519 H 608.231 -6.0391 -0.901373 0
M  V30 6520 H 609.645 -5.5783 1.32283 0
M  V30 6521 H 608.042 -5.61666 2.11309 0
M  V30 6522 H 609.112 -4.22758 2.37494 0
M  V30 6523 N 610.455 -0.639598 -1.44038 0
M  V30 6524 C 611.701 -0.147698 -2.02261 0
M  V30 6525 C 612.034 1.23031 -1.50256 0
M  V30 6526 O 611.309 1.81847 -0.690068 0
M  V30 6527 C 611.592 -0.14362 -3.59813 0
M  V30 6528 C 611.445 -1.55458 -4.22082 0
M  V30 6529 C 612.764 0.527317 -4.36929 0
M  V30 6530 H 609.883 -0.0551453 -0.734934 0
M  V30 6531 H 612.525 -0.817688 -1.71505 0
M  V30 6532 H 610.675 0.426898 -3.86147 0
M  V30 6533 H 612.347 -2.17464 -4.06826 0
M  V30 6534 H 610.59 -2.10594 -3.79253 0
M  V30 6535 H 611.261 -1.50369 -5.31124 0
M  V30 6536 H 613.737 0.0420504 -4.16079 0
M  V30 6537 H 612.613 0.499389 -5.46624 0
M  V30 6538 H 612.874 1.59914 -4.12165 0
M  V30 6539 N 611.933 1.52934 -0.380664 0
M  V30 6540 C 613.158 2.06363 0.207157 0
M  V30 6541 C 613.583 1.25122 1.4045 0
M  V30 6542 O 612.941 0.274062 1.79217 0
M  V30 6543 C 612.989 3.56162 0.563996 0
M  V30 6544 O 612.093 3.77552 1.65917 0
M  V30 6545 H 611.434 0.663468 0.0265859 0
M  V30 6546 H 613.964 1.9719 -0.545635 0
M  V30 6547 H 613.974 3.99453 0.830752 0
M  V30 6548 H 612.649 4.14732 -0.311427 0
M  V30 6549 H 611.226 3.46154 1.3868 0
M  V30 6550 N 613.412 0.11024 1.57214 0
M  V30 6551 C 614.828 -0.24638 1.57687 0
M  V30 6552 C 615.028 -1.67344 1.12241 0
M  V30 6553 O 614.084 -2.39298 0.805783 0
M  V30 6554 C 615.397 -0.0210288 3.00693 0
M  V30 6555 C 616.945 -0.0876077 3.12877 0
M  V30 6556 C 617.42 0.10994 4.57868 0
M  V30 6557 N 618.911 0.0556135 4.63167 0
M  V30 6558 C 619.646 0.183495 5.73106 0
M  V30 6559 N 619.142 0.367058 6.91827 0
M  V30 6560 N 620.935 0.123689 5.61964 0
M  V30 6561 H 613.086 1.04246 1.85058 0
M  V30 6562 H 615.349 0.40979 0.854854 0
M  V30 6563 H 615.055 0.965203 3.38196 0
M  V30 6564 H 614.929 -0.756748 3.69531 0
M  V30 6565 H 617.316 -1.06436 2.75237 0
M  V30 6566 H 617.397 0.67985 2.466 0
M  V30 6567 H 617.041 1.08362 4.96206 0
M  V30 6568 H 616.971 -0.677397 5.22225 0
M  V30 6569 H 619.462 -0.0831062 3.77809 0
M  V30 6570 H 619.775 0.455739 7.71455 0
M  V30 6571 H 618.12 0.40292 6.93831 0
M  V30 6572 H 621.311 -0.0186928 4.68096 0
M  V30 6573 H 621.484 0.226797 6.47603 0
M  V30 6574 N 614.89 -1.56749 -0.16351 0
M  V30 6575 C 615.838 -1.97939 -1.22159 0
M  V30 6576 C 616.832 -0.869288 -1.45395 0
M  V30 6577 O 618.038 -1.05443 -1.45883 0
M  V30 6578 H 614.413 -0.629869 -0.410815 0
M  V30 6579 H 616.384 -2.86115 -0.847381 0
M  V30 6580 C 615.133 -2.36206 -2.55151 0
M  V30 6581 H 614.456 -3.2117 -2.38097 0
M  V30 6582 H 615.896 -2.68863 -3.27854 0
M  V30 6583 C 614.355 -1.20841 -3.14482 0
M  V30 6584 O 614.885 -0.500258 -3.98573 0
M  V30 6585 N 613.091 -0.976943 -2.73686 0
M  V30 6586 H 612.638 -1.55457 -2.05404 0
M  V30 6587 H 612.596 -0.206912 -3.13718 0
M  V30 6588 N 616.368 0.432326 -1.51554 0
M  V30 6589 C 617.298 1.53242 -1.76179 0
M  V30 6590 C 618.279 1.58717 -0.611801 0
M  V30 6591 O 619.464 1.74364 -0.855033 0
M  V30 6592 C 616.594 2.91278 -1.89141 0
M  V30 6593 C 615.548 3.00663 -3.04608 0
M  V30 6594 C 614.874 4.40728 -3.02759 0
M  V30 6595 C 616.174 2.74281 -4.44485 0
M  V30 6596 H 617.868 1.32886 -2.68294 0
M  V30 6597 H 615.414 0.637841 -1.29103 0
M  V30 6598 H 617.367 3.68203 -2.04951 0
M  V30 6599 H 616.091 3.12877 -0.936785 0
M  V30 6600 H 614.75 2.26179 -2.88511 0
M  V30 6601 H 614.398 4.59301 -2.05065 0
M  V30 6602 H 614.098 4.47936 -3.80299 0
M  V30 6603 H 615.622 5.19619 -3.20669 0
M  V30 6604 H 617.036 3.40936 -4.60907 0
M  V30 6605 H 615.433 2.92893 -5.23769 0
M  V30 6606 H 616.503 1.69856 -4.54177 0
M  V30 6607 N 617.846 1.41785 0.688094 0
M  V30 6608 C 619.093 1.41544 1.44816 0
M  V30 6609 C 619.421 0.0271746 1.94481 0
M  V30 6610 O 618.676 -0.962235 1.7041 0
M  V30 6611 C 618.975 2.37532 2.67046 0
M  V30 6612 C 618.641 3.84209 2.35996 0
M  V30 6613 C 617.303 4.24165 2.27239 0
M  V30 6614 C 619.655 4.76785 2.10536 0
M  V30 6615 C 616.983 5.54695 1.91128 0
M  V30 6616 C 619.335 6.07644 1.75931 0
M  V30 6617 C 617.999 6.46613 1.65675 0
M  V30 6618 H 617.269 0.517945 0.529919 0
M  V30 6619 H 619.916 1.74635 0.785797 0
M  V30 6620 H 618.221 1.9772 3.38251 0
M  V30 6621 H 619.918 2.34615 3.25203 0
M  V30 6622 H 616.508 3.52567 2.4371 0
M  V30 6623 H 620.692 4.46714 2.16242 0
M  V30 6624 H 615.948 5.83762 1.81746 0
M  V30 6625 H 620.122 6.78874 1.55252 0
M  V30 6626 H 617.749 7.47668 1.37463 0
M  V30 6627 N 619.324 -0.923095 1.27737 0
M  V30 6628 C 620.74 -1.19985 1.05241 0
M  V30 6629 C 620.94 -2.00391 -0.21113 0
M  V30 6630 O 619.996 -2.35324 -0.915366 0
M  V30 6631 C 621.309 -1.94352 2.29451 0
M  V30 6632 C 622.857 -2.07273 2.34536 0
M  V30 6633 C 623.332 -2.85046 3.58487 0
M  V30 6634 N 624.823 -2.92612 3.59072 0
M  V30 6635 C 625.558 -3.53266 4.51654 0
M  V30 6636 N 625.054 -4.15274 5.54545 0
M  V30 6637 N 626.847 -3.50714 4.39268 0
M  V30 6638 H 618.998 -0.386042 2.08862 0
M  V30 6639 H 621.261 -0.233407 0.918817 0
M  V30 6640 H 620.967 -1.42692 3.21453 0
M  V30 6641 H 620.841 -2.94947 2.3513 0
M  V30 6642 H 623.228 -2.58117 1.43037 0
M  V30 6643 H 623.309 -1.05884 2.32857 0
M  V30 6644 H 622.953 -2.34884 4.50324 0
M  V30 6645 H 622.883 -3.8673 3.57418 0
M  V30 6646 H 625.374 -2.48547 2.84663 0
M  V30 6647 H 625.687 -4.59507 6.21348 0
M  V30 6648 H 624.032 -4.13806 5.58382 0
M  V30 6649 H 627.223 -3.01475 3.58093 0
M  V30 6650 H 627.396 -3.97693 5.1161 0
M  V30 6651 N 620.802 -1.09834 -1.13024 0
M  V30 6652 C 622.213 -0.855651 -1.65938 0
M  V30 6653 C 622.564 0.615159 -1.86307 0
M  V30 6654 O 621.689 1.47335 -1.58497 0
M  V30 6655 C 622.284 -1.5467 -3.01434 0
M  V30 6656 C 620.843 -1.35088 -3.51323 0
M  V30 6657 C 619.99 -1.6001 -2.26478 0
M  V30 6658 H 622.941 -1.25691 -0.968889 0
M  V30 6659 H 622.962 -0.982179 -3.67605 0
M  V30 6660 H 622.474 -2.61715 -2.86578 0
M  V30 6661 H 620.575 -0.30179 -3.71376 0
M  V30 6662 H 620.688 -2.0886 -4.31178 0
M  V30 6663 H 619.052 -1.02246 -2.33276 0
M  V30 6664 H 619.835 -2.68293 -2.14182 0
M  V30 6665 N 622.28 1.30327 -0.886154 0
M  V30 6666 C 623.505 2.0079 -0.519425 0
M  V30 6667 C 623.93 1.65979 0.885013 0
M  V30 6668 O 623.288 0.877043 1.58675 0
M  V30 6669 C 623.336 3.53686 -0.702758 0
M  V30 6670 O 622.44 4.11637 0.250828 0
M  V30 6671 H 621.781 0.63171 -0.204544 0
M  V30 6672 H 624.311 1.66145 -1.19402 0
M  V30 6673 H 624.321 4.03531 -0.602207 0
M  V30 6674 H 622.996 3.78361 -1.72673 0
M  V30 6675 H 621.573 3.72755 0.103873 0
M  V30 6676 N 623.758 0.647228 1.43697 0
M  V30 6677 C 624.688 -0.0345631 2.33474 0
M  V30 6678 C 625.669 -0.818193 1.4913 0
M  V30 6679 O 626.854 -0.780867 1.77809 0
M  V30 6680 C 623.984 -1.00576 3.32418 0
M  V30 6681 C 622.938 -0.33266 4.26705 0
M  V30 6682 C 622.264 -1.41489 5.1564 0
M  V30 6683 C 623.564 0.771204 5.16575 0
M  V30 6684 H 625.258 0.715163 2.90733 0
M  V30 6685 H 622.804 0.345364 1.39797 0
M  V30 6686 H 624.757 -1.49159 3.94119 0
M  V30 6687 H 623.481 -1.78657 2.73403 0
M  V30 6688 H 622.14 0.13267 3.6636 0
M  V30 6689 H 621.788 -2.18698 4.52968 0
M  V30 6690 H 621.488 -0.969799 5.79542 0
M  V30 6691 H 623.012 -1.9022 5.80214 0
M  V30 6692 H 624.426 0.36779 5.72119 0
M  V30 6693 H 622.823 1.1404 5.89165 0
M  V30 6694 H 623.893 1.63169 4.56622 0
M  V30 6695 N 625.236 -1.5273 0.388769 0
M  V30 6696 C 626.647 -1.86505 -0.0853788 0
M  V30 6697 C 626.998 -1.30847 -1.46197 0
M  V30 6698 O 626.123 -0.639609 -2.06732 0
M  V30 6699 C 626.718 -3.38414 -0.161703 0
M  V30 6700 C 625.277 -3.71902 -0.580144 0
M  V30 6701 C 624.424 -2.76095 0.258218 0
M  V30 6702 H 627.375 -1.46647 0.606665 0
M  V30 6703 H 627.396 -3.67638 -0.980936 0
M  V30 6704 H 626.908 -3.78893 0.840333 0
M  V30 6705 H 625.009 -3.36992 -1.58957 0
M  V30 6706 H 625.122 -4.77902 -0.338663 0
M  V30 6707 H 623.486 -2.53195 -0.276432 0
M  V30 6708 H 624.269 -3.19411 1.25822 0
M  V30 6709 N 626.714 -0.118576 -1.57153 0
M  V30 6710 C 627.939 0.550582 -1.99958 0
M  V30 6711 C 628.364 1.59458 -0.997736 0
M  V30 6712 O 627.722 1.81274 0.0306269 0
M  V30 6713 C 627.77 1.15379 -3.41643 0
M  V30 6714 O 626.874 2.26932 -3.44348 0
M  V30 6715 H 626.215 0.137567 -0.649593 0
M  V30 6716 H 628.745 -0.206926 -2.03551 0
M  V30 6717 H 628.755 1.48942 -3.79843 0
M  V30 6718 H 627.43 0.389087 -4.14076 0
M  V30 6719 H 626.007 1.94812 -3.17967 0
M  V30 6720 N 628.193 1.56834 0.155195 0
M  V30 6721 C 629.418 1.87412 0.888337 0
M  V30 6722 C 629.843 0.70671 1.74319 0
M  V30 6723 O 629.201 -0.343892 1.78009 0
M  V30 6724 C 629.249 3.1652 1.72765 0
M  V30 6725 O 628.353 2.99877 2.83103 0
M  V30 6726 H 627.694 0.615983 0.247914 0
M  V30 6727 H 630.224 2.04061 0.148478 0
M  V30 6728 H 630.234 3.48334 2.12433 0
M  V30 6729 H 628.909 4.01094 1.09985 0
M  V30 6730 H 627.486 2.79453 2.46902 0
M  V30 6731 N 629.671 -0.424282 1.51781 0
M  V30 6732 C 630.917 -1.17117 1.66298 0
M  V30 6733 C 631.272 -1.88595 0.380767 0
M  V30 6734 O 630.565 -1.81151 -0.624094 0
M  V30 6735 C 630.759 -2.20418 2.81337 0
M  V30 6736 C 630.588 -1.59081 4.20622 0
M  V30 6737 C 629.358 -1.37007 4.86371 0
M  V30 6738 C 631.556 -1.05992 5.0326 0
M  V30 6739 N 629.538 -0.714049 6.09733 0
M  V30 6740 C 630.909 -0.529933 6.17731 0
M  V30 6741 C 632.964 -0.952927 4.88696 0
M  V30 6742 C 631.667 0.0965457 7.19235 0
M  V30 6743 C 633.693 -0.340325 5.9042 0
M  V30 6744 C 633.055 0.179057 7.04172 0
M  V30 6745 H 629.154 -0.41577 0.662314 0
M  V30 6746 H 631.738 -0.46579 1.89046 0
M  V30 6747 H 629.909 -2.8833 2.60231 0
M  V30 6748 H 631.641 -2.8736 2.84968 0
M  V30 6749 H 628.396 -1.63543 4.44467 0
M  V30 6750 H 628.82 -0.403101 6.75799 0
M  V30 6751 H 633.462 -1.34033 4.00993 0
M  V30 6752 H 631.18 0.496044 8.06576 0
M  V30 6753 H 634.766 -0.259266 5.81222 0
M  V30 6754 H 633.646 0.645626 7.81538 0
M  V30 6755 N 631.149 -1.42148 -0.680565 0
M  V30 6756 C 632.096 -1.45175 -1.79424 0
M  V30 6757 C 633.066 -0.304352 -1.63288 0
M  V30 6758 O 634.251 -0.507591 -1.83924 0
M  V30 6759 C 631.391 -1.35429 -3.17416 0
M  V30 6760 C 630.504 -2.60158 -3.4488 0
M  V30 6761 C 629.639 -2.42596 -4.72568 0
M  V30 6762 C 628.678 -3.62727 -4.93047 0
M  V30 6763 N 627.815 -3.44143 -6.11973 0
M  V30 6764 H 632.655 -2.40349 -1.76172 0
M  V30 6765 H 630.192 -1.19334 -0.860107 0
M  V30 6766 H 632.15 -1.27777 -3.97151 0
M  V30 6767 H 630.78 -0.438536 -3.19807 0
M  V30 6768 H 629.832 -2.78199 -2.5944 0
M  V30 6769 H 631.144 -3.49473 -3.55908 0
M  V30 6770 H 630.298 -2.32497 -5.60384 0
M  V30 6771 H 629.037 -1.50761 -4.63813 0
M  V30 6772 H 628.042 -3.73264 -4.03676 0
M  V30 6773 H 629.267 -4.55534 -5.03652 0
M  V30 6774 H 627.213 -2.5502 -6.04401 0
M  V30 6775 H 627.13 -4.27041 -6.23836 0
M  V30 6776 H 628.398 -3.37845 -7.02482 0
M  V30 6777 N 632.627 0.916307 -1.28225 0
M  V30 6778 C 633.537 2.05165 -1.13775 0
M  V30 6779 C 634.553 1.73879 -0.0649418 0
M  V30 6780 O 635.729 1.99531 -0.273722 0
M  V30 6781 C 632.794 3.37385 -0.798267 0
M  V30 6782 C 631.855 3.82296 -1.95316 0
M  V30 6783 C 631.088 5.08206 -1.62978 0
M  V30 6784 O 631.311 5.6781 -0.542948 0
M  V30 6785 O 630.245 5.48768 -2.47261 0
M  V30 6786 H 634.071 2.20273 -2.09078 0
M  V30 6787 H 631.656 1.0373 -1.07519 0
M  V30 6788 H 633.538 4.16773 -0.62278 0
M  V30 6789 H 632.213 3.23458 0.125139 0
M  V30 6790 H 631.12 3.03746 -2.18378 0
M  V30 6791 H 632.453 4.00782 -2.85718 0
M  V30 6792 N 634.105 1.10431 1.1244 0
M  V30 6793 C 635.038 0.696987 2.17296 0
M  V30 6794 C 636.016 -0.301673 1.59777 0
M  V30 6795 O 637.2 -0.200583 1.8743 0
M  V30 6796 C 634.327 0.0284094 3.38688 0
M  V30 6797 C 633.373 0.990536 4.14838 0
M  V30 6798 S 634.206 2.50785 4.73146 0
M  V30 6799 C 635.362 1.85198 5.97873 0
M  V30 6800 H 635.595 1.58523 2.51511 0
M  V30 6801 H 633.128 0.921312 1.239 0
M  V30 6802 H 635.086 -0.351009 4.08997 0
M  V30 6803 H 633.747 -0.836629 3.02753 0
M  V30 6804 H 632.94 0.469991 5.01804 0
M  V30 6805 H 632.542 1.31186 3.50237 0
M  V30 6806 H 634.834 1.18217 6.67106 0
M  V30 6807 H 635.777 2.7012 6.54554 0
M  V30 6808 H 636.185 1.31653 5.48933 0
M  V30 6809 N 635.583 -1.29855 0.893053 0
M  V30 6810 C 636.493 -2.31661 0.370157 0
M  V30 6811 C 637.509 -1.65677 -0.531723 0
M  V30 6812 O 638.685 -1.9691 -0.422902 0
M  V30 6813 C 635.75 -3.44388 -0.399741 0
M  V30 6814 C 634.811 -4.2598 0.532861 0
M  V30 6815 C 634.044 -5.33324 -0.200388 0
M  V30 6816 O 634.267 -5.52305 -1.42531 0
M  V30 6817 O 633.201 -6.00188 0.453668 0
M  V30 6818 H 637.027 -2.78354 1.2146 0
M  V30 6819 H 634.612 -1.34171 0.657153 0
M  V30 6820 H 636.494 -4.13037 -0.835358 0
M  V30 6821 H 635.169 -2.99815 -1.22035 0
M  V30 6822 H 634.076 -3.59998 1.01746 0
M  V30 6823 H 635.409 -4.74178 1.3197 0
M  V30 6824 N 637.061 -0.65484 -1.43351 0
M  V30 6825 C 638.309 -0.168559 -2.01396 0
M  V30 6826 C 638.63 1.22235 -1.51933 0
M  V30 6827 O 637.9 1.81685 -0.732627 0
M  V30 6828 H 636.48 -0.0593244 -0.744641 0
M  V30 6829 H 639.142 -0.846871 -1.75539 0
M  V30 6830 H 638.238 -0.154428 -3.11718 0
M  V30 6831 N 638.539 1.52521 -0.396863 0
M  V30 6832 C 639.95 1.86547 0.0754868 0
M  V30 6833 C 640.301 1.31621 1.45501 0
M  V30 6834 O 639.426 0.650563 2.0639 0
M  V30 6835 C 640.021 3.38495 0.143754 0
M  V30 6836 C 638.58 3.72205 0.560413 0
M  V30 6837 C 637.727 2.75954 -0.272856 0
M  V30 6838 H 640.678 1.46323 -0.614434 0
M  V30 6839 H 640.699 3.68153 0.961425 0
M  V30 6840 H 640.211 3.78442 -0.860415 0
M  V30 6841 H 638.312 3.3783 1.57167 0
M  V30 6842 H 638.425 4.78074 0.313314 0
M  V30 6843 H 636.789 2.53339 0.263 0
M  V30 6844 H 637.572 3.1874 -1.27515 0
M  V30 6845 N 640.017 0.126909 1.57088 0
M  V30 6846 C 641.428 -0.397201 1.82426 0
M  V30 6847 C 641.779 -1.66084 1.04453 0
M  V30 6848 O 640.904 -2.14534 0.283552 0
M  V30 6849 C 641.499 -0.727411 3.30899 0
M  V30 6850 C 640.058 -1.19612 3.56889 0
M  V30 6851 C 639.205 -0.20885 2.76512 0
M  V30 6852 H 642.156 0.351924 1.54749 0
M  V30 6853 H 642.177 -1.58407 3.45959 0
M  V30 6854 H 641.689 0.19247 3.87622 0
M  V30 6855 H 639.79 -2.13263 3.05532 0
M  V30 6856 H 639.903 -1.13598 4.65438 0
M  V30 6857 H 638.267 -0.697479 2.44964 0
M  V30 6858 H 639.05 0.704267 3.35998 0
M  V30 6859 N 641.495 -1.56914 -0.146875 0
M  V30 6860 C 642.743 -1.82994 -0.85777 0
M  V30 6861 C 643.064 -0.707814 -1.817 0
M  V30 6862 O 642.334 0.270521 -1.94023 0
M  V30 6863 H 640.914 -0.675106 -0.319751 0
M  V30 6864 H 643.576 -1.9439 -0.140849 0
M  V30 6865 H 642.672 -2.77928 -1.41994 0
M  V30 6866 N 642.974 0.416227 -1.52004 0
M  V30 6867 C 643.904 1.51365 -1.77795 0
M  V30 6868 C 644.885 1.58059 -0.628601 0
M  V30 6869 O 646.07 1.73447 -0.873478 0
M  V30 6870 C 643.2 2.89256 -1.92219 0
M  V30 6871 C 642.154 2.97415 -3.0778 0
M  V30 6872 C 641.48 4.37492 -3.07417 0
M  V30 6873 C 642.78 2.69551 -4.47369 0
M  V30 6874 H 644.474 1.30033 -2.69688 0
M  V30 6875 H 642.02 0.624112 -1.29772 0
M  V30 6876 H 643.973 3.66008 -2.08845 0
M  V30 6877 H 642.697 3.11866 -0.969917 0
M  V30 6878 H 641.356 2.23107 -2.90893 0
M  V30 6879 H 641.004 4.571 -2.09925 0
M  V30 6880 H 640.704 4.43877 -3.85029 0
M  V30 6881 H 642.228 5.16188 -3.26162 0
M  V30 6882 H 643.642 3.36028 -4.64497 0
M  V30 6883 H 642.039 2.87321 -5.26846 0
M  V30 6884 H 643.109 1.65029 -4.55953 0
M  V30 6885 N 644.452 1.42507 0.673017 0
M  V30 6886 C 645.868 1.25472 0.986355 0
M  V30 6887 C 646.068 0.160181 2.00862 0
M  V30 6888 O 645.124 -0.467993 2.48125 0
M  V30 6889 C 646.437 2.61219 1.48947 0
M  V30 6890 C 647.985 2.68589 1.60715 0
M  V30 6891 C 648.46 4.04707 2.14422 0
M  V30 6892 N 649.951 4.0667 2.21752 0
M  V30 6893 C 650.686 5.0881 2.64386 0
M  V30 6894 N 650.182 6.21332 3.0646 0
M  V30 6895 N 651.975 4.96166 2.64151 0
M  V30 6896 H 644.126 2.124 -0.00378532 0
M  V30 6897 H 646.389 0.946046 0.0608367 0
M  V30 6898 H 646.095 3.42179 0.812812 0
M  V30 6899 H 645.969 2.85261 2.46791 0
M  V30 6900 H 648.356 1.87974 2.27486 0
M  V30 6901 H 648.437 2.48333 0.613552 0
M  V30 6902 H 648.081 4.8578 1.48258 0
M  V30 6903 H 648.011 4.22315 3.14575 0
M  V30 6904 H 650.502 3.25438 1.92089 0
M  V30 6905 H 650.815 6.95118 3.37684 0
M  V30 6906 H 649.16 6.24835 3.04313 0
M  V30 6907 H 652.351 4.07334 2.30644 0
M  V30 6908 H 652.524 5.759 2.97057 0
M  V30 6909 N 645.93 -0.909495 1.28709 0
M  V30 6910 C 646.86 -2.0291 1.15542 0
M  V30 6911 C 647.841 -1.7002 0.0521017 0
M  V30 6912 O 649.026 -1.92835 0.229849 0
M  V30 6913 C 646.156 -3.37458 0.820935 0
M  V30 6914 C 645.11 -3.84524 1.87949 0
M  V30 6915 C 644.436 -5.16086 1.39854 0
M  V30 6916 C 645.736 -4.05918 3.28676 0
M  V30 6917 H 647.43 -2.14183 2.09203 0
M  V30 6918 H 644.976 -1.02913 1.00722 0
M  V30 6919 H 646.929 -4.1528 0.715571 0
M  V30 6920 H 645.653 -3.26249 -0.151374 0
M  V30 6921 H 644.312 -3.08911 1.97408 0
M  V30 6922 H 643.96 -5.01284 0.41518 0
M  V30 6923 H 643.66 -5.48547 2.1064 0
M  V30 6924 H 645.184 -5.96459 1.30649 0
M  V30 6925 H 646.598 -4.74252 3.22115 0
M  V30 6926 H 644.995 -4.49717 3.97334 0
M  V30 6927 H 646.065 -3.10583 3.72379 0
M  V30 6928 N 647.408 -1.11026 -1.11852 0
M  V30 6929 C 648.655 -0.85646 -1.83497 0
M  V30 6930 C 648.983 0.617938 -1.84423 0
M  V30 6931 O 648.238 1.47194 -1.28966 0
M  V30 6932 C 648.537 -1.35777 -3.30604 0
M  V30 6933 C 648.203 -2.84465 -3.49843 0
M  V30 6934 C 646.865 -3.25068 -3.54802 0
M  V30 6935 C 649.217 -3.80251 -3.56453 0
M  V30 6936 C 646.545 -4.60194 -3.63921 0
M  V30 6937 C 648.897 -5.15188 -3.67102 0
M  V30 6938 C 647.561 -5.55356 -3.70319 0
M  V30 6939 H 646.831 -0.313401 -0.671462 0
M  V30 6940 H 649.478 -1.38792 -1.31943 0
M  V30 6941 H 647.783 -0.746455 -3.84624 0
M  V30 6942 H 649.48 -1.13779 -3.8452 0
M  V30 6943 H 646.07 -2.52054 -3.46651 0
M  V30 6944 H 650.254 -3.49986 -3.51886 0
M  V30 6945 H 645.51 -4.90728 -3.64686 0
M  V30 6946 H 649.684 -5.89248 -3.71159 0
M  V30 6947 H 647.311 -6.60054 -3.77138 0
M  V30 6948 N 648.886 1.2938 -0.899927 0
M  V30 6949 C 650.134 1.95164 -0.524924 0
M  V30 6950 C 650.455 1.71292 0.931888 0
M  V30 6951 O 649.725 1.04481 1.65712 0
M  V30 6952 H 648.305 0.722133 -0.191135 0
M  V30 6953 H 650.967 1.57628 -1.14627 0
M  V30 6954 H 650.063 3.0397 -0.707711 0
M  V30 6955 N 650.364 0.662433 1.43002 0
M  V30 6956 C 651.589 0.186003 2.06564 0
M  V30 6957 C 652.014 -1.14314 1.49379 0
M  V30 6958 O 651.372 -1.70824 0.607346 0
M  V30 6959 C 651.42 0.118269 3.60406 0
M  V30 6960 O 650.524 -0.916859 4.02079 0
M  V30 6961 H 649.865 0.0990981 0.656563 0
M  V30 6962 H 652.395 0.907958 1.8335 0
M  V30 6963 H 652.405 -0.0619981 4.07953 0
M  V30 6964 H 651.08 1.08849 4.01403 0
M  V30 6965 H 649.657 -0.708635 3.66105 0
M  V30 6966 N 651.842 -1.52309 0.404946 0
M  V30 6967 C 653.253 -1.86585 -0.0655926 0
M  V30 6968 C 653.604 -1.3239 -1.44801 0
M  V30 6969 O 652.729 -0.6615 -2.06042 0
M  V30 6970 C 653.324 -3.38566 -0.125801 0
M  V30 6971 C 651.883 -3.72497 -0.540666 0
M  V30 6972 C 651.03 -2.75806 0.287487 0
M  V30 6973 H 653.981 -1.45995 0.622185 0
M  V30 6974 H 654.002 -3.68658 -0.941888 0
M  V30 6975 H 653.514 -3.77981 0.880473 0
M  V30 6976 H 651.615 -3.38659 -1.55373 0
M  V30 6977 H 651.728 -4.78234 -0.287956 0
M  V30 6978 H 650.092 -2.53474 -0.249561 0
M  V30 6979 H 650.875 -3.18059 1.29203 0
M  V30 6980 N 653.32 -0.135238 -1.57019 0
M  V30 6981 C 654.25 0.805235 -2.19176 0
M  V30 6982 C 655.231 1.2656 -1.13651 0
M  V30 6983 O 656.416 1.32528 -1.4195 0
M  V30 6984 C 653.546 2.04914 -2.80406 0
M  V30 6985 C 652.5 1.72598 -3.91655 0
M  V30 6986 C 651.826 3.04154 -4.39766 0
M  V30 6987 C 653.126 0.981709 -5.12991 0
M  V30 6988 H 654.82 0.287232 -2.98019 0
M  V30 6989 H 652.366 0.136714 -1.4335 0
M  V30 6990 H 654.319 2.71178 -3.22553 0
M  V30 6991 H 653.043 2.59067 -1.98877 0
M  V30 6992 H 651.702 1.08717 -3.50109 0
M  V30 6993 H 651.35 3.56274 -3.55075 0
M  V30 6994 H 651.05 2.83299 -5.14796 0
M  V30 6995 H 652.574 3.71509 -4.84576 0
M  V30 6996 H 653.988 1.5462 -5.52056 0
M  V30 6997 H 652.385 0.873533 -5.93708 0
M  V30 6998 H 653.455 -0.0286887 -4.84892 0
M  V30 6999 N 654.798 1.5699 0.138552 0
M  V30 7000 C 656.023 1.88344 0.86841 0
M  V30 7001 C 656.448 0.725159 1.7356 0
M  V30 7002 O 655.806 -0.324992 1.78363 0
M  V30 7003 C 655.854 3.18334 1.69398 0
M  V30 7004 O 654.958 3.02863 2.79907 0
M  V30 7005 H 654.299 0.618577 0.241367 0
M  V30 7006 H 656.829 2.04207 0.126826 0
M  V30 7007 H 656.839 3.50567 2.08726 0
M  V30 7008 H 655.514 4.02238 1.05725 0
M  V30 7009 H 654.091 2.82056 2.43924 0
M  V30 7010 N 656.276 -0.40816 1.52223 0
M  V30 7011 C 657.553 -1.16807 1.56893 0
M  V30 7012 C 657.933 -2.08169 0.350537 0
M  V30 7013 O 657.281 -2.18684 -0.662536 0
M  V30 7014 C 657.491 -1.94451 2.8981 0
M  V30 7015 C 658.839 -2.50484 3.42845 0
M  V30 7016 O 659.863 -2.0463 2.91556 0
M  V30 7017 O 658.722 -3.34192 4.3241 0
M  V30 7018 H 655.816 -0.533382 0.632007 0
M  V30 7019 H 658.362 -0.414862 1.64551 0
M  V30 7020 H 657.134 -1.27527 3.69936 0
M  V30 7021 H 656.757 -2.76775 2.85449 0
M  V30 7022 N 657.755 -1.42862 -0.66545 0
M  V30 7023 C 658.985 -1.47032 -1.45138 0
M  V30 7024 C 659.393 -0.0829977 -1.89018 0
M  V30 7025 O 658.736 0.914551 -1.59316 0
M  V30 7026 C 658.798 -2.34302 -2.72659 0
M  V30 7027 C 658.462 -3.82034 -2.50796 0
M  V30 7028 C 659.459 -4.73453 -2.14799 0
M  V30 7029 C 657.144 -4.26397 -2.655 0
M  V30 7030 C 659.138 -6.07228 -1.93785 0
M  V30 7031 C 656.825 -5.6023 -2.44103 0
M  V30 7032 C 657.823 -6.50462 -2.08299 0
M  V30 7033 O 657.511 -7.8182 -1.87116 0
M  V30 7034 H 657.243 -0.501969 -0.452772 0
M  V30 7035 H 659.797 -1.88137 -0.82423 0
M  V30 7036 H 658.027 -1.88063 -3.37889 0
M  V30 7037 H 659.716 -2.29818 -3.34572 0
M  V30 7038 H 660.482 -4.4046 -2.03026 0
M  V30 7039 H 656.361 -3.56448 -2.92345 0
M  V30 7040 H 659.905 -6.7762 -1.65763 0
M  V30 7041 H 655.802 -5.92793 -2.55475 0
M  V30 7042 H 656.57 -7.93274 -2.01639 0
M  V30 7043 N 659.233 0.902656 -1.29189 0
M  V30 7044 C 660.463 1.68394 -1.19695 0
M  V30 7045 C 660.871 1.87602 0.245384 0
M  V30 7046 O 660.214 1.41084 1.17648 0
M  V30 7047 C 660.276 3.09094 -1.83578 0
M  V30 7048 C 659.94 3.1313 -3.32864 0
M  V30 7049 C 660.937 2.93497 -4.29134 0
M  V30 7050 C 658.622 3.3529 -3.74013 0
M  V30 7051 C 660.616 2.95953 -5.64527 0
M  V30 7052 C 658.303 3.37377 -5.09529 0
M  V30 7053 C 659.301 3.1773 -6.04596 0
M  V30 7054 O 658.989 3.196 -7.37639 0
M  V30 7055 H 658.721 0.532815 -0.416034 0
M  V30 7056 H 661.275 1.1374 -1.71033 0
M  V30 7057 H 659.505 3.65338 -1.26747 0
M  V30 7058 H 661.194 3.69297 -1.68447 0
M  V30 7059 H 661.96 2.76192 -3.98677 0
M  V30 7060 H 657.839 3.49623 -3.00474 0
M  V30 7061 H 661.383 2.80536 -6.38706 0
M  V30 7062 H 657.28 3.54213 -5.39633 0
M  V30 7063 H 658.048 3.35887 -7.46406 0
M  V30 7064 N 660.711 1.11618 1.11262 0
M  V30 7065 C 661.674 0.779447 2.15539 0
M  V30 7066 C 662.674 -0.202081 1.59525 0
M  V30 7067 O 663.864 0.0226356 1.74185 0
M  V30 7068 C 660.996 0.15674 3.40539 0
M  V30 7069 H 662.189 1.70324 2.4684 0
M  V30 7070 H 659.742 0.918298 1.26479 0
M  V30 7071 H 660.477 -0.777186 3.1485 0
M  V30 7072 H 660.262 0.863308 3.82478 0
M  V30 7073 H 661.752 -0.062661 4.17553 0
M  V30 7074 N 662.189 -1.289 0.906776 0
M  V30 7075 C 663.419 -1.99112 0.551168 0
M  V30 7076 C 663.827 -1.67998 -0.870243 0
M  V30 7077 O 663.17 -0.92525 -1.58697 0
M  V30 7078 C 663.232 -3.53162 0.672065 0
M  V30 7079 C 662.896 -4.07849 2.06174 0
M  V30 7080 C 663.893 -4.22212 3.0337 0
M  V30 7081 C 661.578 -4.4271 2.37304 0
M  V30 7082 C 663.572 -4.70678 4.29815 0
M  V30 7083 C 661.259 -4.90871 3.6399 0
M  V30 7084 C 662.257 -5.04811 4.6006 0
M  V30 7085 O 661.945 -5.51925 5.84495 0
M  V30 7086 H 661.677 -0.642728 0.209469 0
M  V30 7087 H 664.231 -1.65234 1.22012 0
M  V30 7088 H 662.461 -3.86662 -0.05394 0
M  V30 7089 H 664.15 -4.046 0.324579 0
M  V30 7090 H 664.916 -3.9556 2.80637 0
M  V30 7091 H 660.795 -4.31114 1.63283 0
M  V30 7092 H 664.339 -4.81474 5.04806 0
M  V30 7093 H 660.236 -5.16961 3.86551 0
M  V30 7094 H 661.004 -5.70225 5.87185 0
M  V30 7095 N 663.667 -0.670007 -1.42649 0
M  V30 7096 C 664.892 -0.196955 -2.06463 0
M  V30 7097 C 665.317 1.1352 -1.49983 0
M  V30 7098 O 664.675 1.705 -0.616397 0
M  V30 7099 C 664.723 -0.137381 -3.60338 0
M  V30 7100 O 663.827 0.895523 -4.02559 0
M  V30 7101 H 663.168 -0.102579 -0.656029 0
M  V30 7102 H 665.698 -0.917669 -1.82866 0
M  V30 7103 H 665.708 0.0403625 -4.0798 0
M  V30 7104 H 664.383 -1.10977 -4.0082 0
M  V30 7105 H 662.96 0.689209 -3.66476 0
M  V30 7106 N 665.145 1.52092 -0.413018 0
M  V30 7107 C 666.556 1.86617 0.0556967 0
M  V30 7108 C 666.907 1.33156 1.44097 0
M  V30 7109 O 666.032 0.672417 2.05688 0
M  V30 7110 C 666.627 3.38628 0.107844 0
M  V30 7111 C 665.186 3.72778 0.520904 0
M  V30 7112 C 664.333 2.75649 -0.302109 0
M  V30 7113 H 667.284 1.45663 -0.629919 0
M  V30 7114 H 667.305 3.69152 0.922324 0
M  V30 7115 H 666.817 3.77508 -0.900506 0
M  V30 7116 H 664.918 3.39478 1.53575 0
M  V30 7117 H 665.031 4.7838 0.262591 0
M  V30 7118 H 663.395 2.53603 0.236115 0
M  V30 7119 H 664.178 3.17369 -1.30888 0
M  V30 7120 N 666.623 0.143563 1.56945 0
M  V30 7121 C 667.869 -0.50916 1.96304 0
M  V30 7122 C 668.202 -1.64741 1.0283 0
M  V30 7123 O 667.477 -1.94374 0.0700361 0
M  V30 7124 C 667.76 -1.0186 3.45393 0
M  V30 7125 C 667.613 0.117923 4.49645 0
M  V30 7126 C 668.932 -1.90151 3.96901 0
M  V30 7127 H 666.051 -0.183608 0.713763 0
M  V30 7128 H 668.693 0.224095 1.88674 0
M  V30 7129 H 666.843 -1.64345 3.52027 0
M  V30 7130 H 668.515 0.754145 4.55094 0
M  V30 7131 H 666.758 0.777568 4.26774 0
M  V30 7132 H 667.429 -0.280187 5.51288 0
M  V30 7133 H 669.905 -1.375 3.92725 0
M  V30 7134 H 668.781 -2.22707 5.0169 0
M  V30 7135 H 669.042 -2.83718 3.39052 0
M  V30 7136 N 668.101 -1.57061 -0.130224 0
M  V30 7137 C 669.517 -1.52103 -0.483413 0
M  V30 7138 C 669.717 -0.854752 -1.82473 0
M  V30 7139 O 668.773 -0.432342 -2.48771 0
M  V30 7140 C 670.086 -2.96872 -0.47825 0
M  V30 7141 C 671.634 -3.07902 -0.562592 0
M  V30 7142 C 672.109 -4.54211 -0.587929 0
M  V30 7143 N 673.6 -4.58621 -0.649684 0
M  V30 7144 C 674.335 -5.69227 -0.690551 0
M  V30 7145 N 673.831 -6.89358 -0.689743 0
M  V30 7146 N 675.624 -5.57304 -0.732708 0
M  V30 7147 H 667.775 -1.98764 0.748779 0
M  V30 7148 H 670.038 -0.907248 0.274965 0
M  V30 7149 H 669.744 -3.48944 0.439444 0
M  V30 7150 H 669.618 -3.53716 -1.31013 0
M  V30 7151 H 672.005 -2.5584 -1.47071 0
M  V30 7152 H 672.086 -2.54073 0.296764 0
M  V30 7153 H 671.73 -5.06915 0.316096 0
M  V30 7154 H 671.66 -5.0584 -1.46401 0
M  V30 7155 H 674.151 -3.72146 -0.656927 0
M  V30 7156 H 674.464 -7.69408 -0.723239 0
M  V30 7157 H 672.809 -6.91884 -0.657347 0
M  V30 7158 H 676 -4.62363 -0.730625 0
M  V30 7159 H 676.173 -6.43515 -0.76109 0
M  V30 7160 N 669.579 0.400081 -1.52437 0
M  V30 7161 C 670.489 1.51253 -1.79331 0
M  V30 7162 C 671.505 1.60188 -0.679396 0
M  V30 7163 O 672.681 1.76733 -0.965791 0
M  V30 7164 C 669.746 2.869 -1.94652 0
M  V30 7165 C 668.807 2.87777 -3.18564 0
M  V30 7166 C 668.04 4.16954 -3.33145 0
M  V30 7167 O 668.263 5.11329 -2.52783 0
M  V30 7168 O 667.197 4.2487 -4.26343 0
M  V30 7169 H 671.023 1.31461 -2.73773 0
M  V30 7170 H 668.608 0.586834 -1.37392 0
M  V30 7171 H 670.49 3.67336 -2.065 0
M  V30 7172 H 669.165 3.06741 -1.034 0
M  V30 7173 H 668.072 2.06162 -3.12167 0
M  V30 7174 H 669.405 2.72886 -4.09627 0
M  V30 7175 N 671.057 1.43213 0.657864 0
M  V30 7176 C 672.473 1.26511 0.972992 0
M  V30 7177 C 672.673 0.181477 2.00681 0
M  V30 7178 O 671.729 -0.441649 2.48608 0
M  V30 7179 C 673.042 2.62784 1.46168 0
M  V30 7180 C 674.59 2.70278 1.57857 0
M  V30 7181 C 675.065 4.06958 2.10117 0
M  V30 7182 N 676.556 4.08999 2.17426 0
M  V30 7183 C 677.291 5.11585 2.58975 0
M  V30 7184 N 676.787 6.24548 2.99853 0
M  V30 7185 N 678.58 4.9894 2.58873 0
M  V30 7186 H 670.731 2.12384 -0.0263129 0
M  V30 7187 H 672.994 0.946638 0.0507992 0
M  V30 7188 H 672.7 3.43022 0.776474 0
M  V30 7189 H 672.574 2.87863 2.43751 0
M  V30 7190 H 674.961 1.90376 2.25479 0
M  V30 7191 H 675.042 2.4897 0.587179 0
M  V30 7192 H 674.686 4.87325 1.43098 0
M  V30 7193 H 674.616 4.25628 3.10078 0
M  V30 7194 H 677.107 3.27457 1.88627 0
M  V30 7195 H 677.42 6.98661 3.30292 0
M  V30 7196 H 675.765 6.28027 2.97669 0
M  V30 7197 H 678.956 4.09757 2.26311 0
M  V30 7198 H 679.129 5.79019 2.90932 0
M  V30 7199 N 672.536 -0.895792 1.29666 0
M  V30 7200 C 673.813 -1.62723 1.08538 0
M  V30 7201 C 674.193 -2.07848 -0.369119 0
M  V30 7202 O 673.541 -1.8372 -1.35864 0
M  V30 7203 C 673.751 -2.80505 2.07648 0
M  V30 7204 C 675.099 -3.51098 2.3878 0
M  V30 7205 O 676.123 -2.90679 2.05874 0
M  V30 7206 O 674.982 -4.60028 2.9502 0
M  V30 7207 H 672.076 -0.714692 0.416106 0
M  V30 7208 H 674.622 -0.943517 1.41053 0
M  V30 7209 H 673.394 -2.44386 3.05599 0
M  V30 7210 H 673.017 -3.5658 1.75887 0
M  V30 7211 N 674.014 -1.12206 -1.10668 0
M  V30 7212 C 674.977 -0.790867 -2.15123 0
M  V30 7213 C 675.977 0.193618 -1.5963 0
M  V30 7214 O 677.167 -0.0318728 -1.74171 0
M  V30 7215 C 674.299 -0.174797 -3.40452 0
M  V30 7216 H 675.492 -1.7163 -2.45933 0
M  V30 7217 H 673.045 -0.924993 -1.2599 0
M  V30 7218 H 673.78 0.760478 -3.15257 0
M  V30 7219 H 673.565 -0.88358 -3.82015 0
M  V30 7220 H 675.055 0.0405162 -4.1758 0
M  V30 7221 N 675.492 1.28418 -0.913599 0
M  V30 7222 C 676.442 2.24928 -0.373042 0
M  V30 7223 C 677.426 1.52444 0.514753 0
M  V30 7224 O 678.618 1.73414 0.3545 0
M  V30 7225 C 675.747 3.41124 0.385896 0
M  V30 7226 C 674.833 4.20929 -0.51761 0
M  V30 7227 N 675.224 4.78777 -1.63113 0
M  V30 7228 C 673.522 4.44865 -0.317969 0
M  V30 7229 C 674.223 5.38822 -2.19193 0
M  V30 7230 N 673.199 5.22974 -1.48321 0
M  V30 7231 H 677.001 2.67224 -1.22346 0
M  V30 7232 H 674.515 1.43187 -0.766236 0
M  V30 7233 H 676.512 4.09347 0.789997 0
M  V30 7234 H 675.172 3.00362 1.23341 0
M  V30 7235 H 676.183 4.77148 -2.01372 0
M  V30 7236 H 672.86 4.14614 0.49004 0
M  V30 7237 H 674.25 5.94615 -3.12861 0
M  V30 7238 N 676.97 0.677563 1.42291 0
M  V30 7239 C 678.195 0.207901 2.06355 0
M  V30 7240 C 678.62 -1.12723 1.50583 0
M  V30 7241 O 677.978 -1.70171 0.62543 0
M  V30 7242 C 678.026 0.156489 3.6026 0
M  V30 7243 O 677.13 -0.874162 4.03029 0
M  V30 7244 H 676.471 0.106056 0.655475 0
M  V30 7245 H 679.001 0.927354 1.82377 0
M  V30 7246 H 679.011 -0.0187258 4.07996 0
M  V30 7247 H 677.686 1.13101 4.00226 0
M  V30 7248 H 676.263 -0.669764 3.66836 0
M  V30 7249 N 678.448 -1.51871 0.421078 0
M  V30 7250 C 679.694 -2.02237 -0.151014 0
M  V30 7251 C 680.027 -1.30554 -1.43768 0
M  V30 7252 O 679.302 -0.41546 -1.90011 0
M  V30 7253 C 679.585 -3.5802 -0.386482 0
M  V30 7254 C 679.438 -4.40339 0.9177 0
M  V30 7255 C 680.757 -4.24444 -1.16342 0
M  V30 7256 H 677.876 -0.735062 -0.0534102 0
M  V30 7257 H 680.518 -1.81656 0.556888 0
M  V30 7258 H 678.668 -3.75688 -0.989494 0
M  V30 7259 H 680.34 -4.34357 1.55344 0
M  V30 7260 H 678.583 -4.06073 1.526 0
M  V30 7261 H 679.254 -5.47451 0.707187 0
M  V30 7262 H 681.73 -4.10948 -0.652788 0
M  V30 7263 H 680.606 -5.33358 -1.29693 0
M  V30 7264 H 680.867 -3.84204 -2.18724 0
M  V30 7265 N 679.926 -0.151884 -1.56866 0
M  V30 7266 C 680.856 0.781943 -2.20018 0
M  V30 7267 C 681.837 1.25347 -1.14987 0
M  V30 7268 O 683.022 1.31015 -1.43348 0
M  V30 7269 C 680.152 2.01928 -2.82564 0
M  V30 7270 C 679.106 1.68434 -3.93464 0
M  V30 7271 C 678.432 2.99472 -4.42968 0
M  V30 7272 C 679.732 0.927244 -5.14003 0
M  V30 7273 H 681.426 0.255607 -2.98307 0
M  V30 7274 H 678.972 0.121502 -1.43486 0
M  V30 7275 H 680.925 2.67741 -3.25411 0
M  V30 7276 H 679.649 2.56943 -2.01614 0
M  V30 7277 H 678.308 1.04998 -3.51242 0
M  V30 7278 H 677.956 3.52488 -3.58834 0
M  V30 7279 H 677.656 2.77823 -5.17772 0
M  V30 7280 H 679.18 3.66348 -4.88489 0
M  V30 7281 H 680.594 1.48756 -5.53665 0
M  V30 7282 H 678.991 0.810513 -5.94601 0
M  V30 7283 H 680.061 -0.0801163 -4.84834 0
M  V30 7284 N 681.404 1.57128 0.121893 0
M  V30 7285 C 682.334 2.03165 1.15092 0
M  V30 7286 C 683.315 0.915587 1.43356 0
M  V30 7287 O 684.5 1.1851 1.53847 0
M  V30 7288 C 681.63 2.43352 2.47784 0
M  V30 7289 C 680.584 3.58376 2.33989 0
M  V30 7290 C 679.91 3.84454 3.71617 0
M  V30 7291 C 681.21 4.90199 1.80283 0
M  V30 7292 H 682.904 2.89382 0.768023 0
M  V30 7293 H 680.45 1.39218 0.367998 0
M  V30 7294 H 682.403 2.74163 3.20019 0
M  V30 7295 H 681.127 1.54103 2.87958 0
M  V30 7296 H 679.786 3.2777 1.64202 0
M  V30 7297 H 679.434 2.92414 4.09271 0
M  V30 7298 H 679.134 4.61877 3.6324 0
M  V30 7299 H 680.658 4.17714 4.45362 0
M  V30 7300 H 682.072 5.19565 2.42333 0
M  V30 7301 H 680.469 5.71601 1.82735 0
M  V30 7302 H 681.539 4.78904 0.760184 0
M  V30 7303 N 682.882 -0.391992 1.52647 0
M  V30 7304 C 684.107 -1.16312 1.71716 0
M  V30 7305 C 684.532 -1.83042 0.433279 0
M  V30 7306 O 683.89 -1.70705 -0.610707 0
M  V30 7307 C 683.938 -2.18908 2.86551 0
M  V30 7308 O 683.042 -3.2543 2.53316 0
M  V30 7309 H 682.383 -0.338743 0.571095 0
M  V30 7310 H 684.913 -0.457202 1.99426 0
M  V30 7311 H 684.923 -2.62954 3.1196 0
M  V30 7312 H 683.598 -1.69726 3.79692 0
M  V30 7313 H 682.175 -2.86543 2.38637 0
M  V30 7314 N 684.36 -1.4356 -0.65026 0
M  V30 7315 C 685.31 -1.45392 -1.75628 0
M  V30 7316 C 686.294 -0.322006 -1.57645 0
M  V30 7317 O 687.486 -0.565996 -1.67707 0
M  V30 7318 C 684.615 -1.38254 -3.1423 0
M  V30 7319 C 683.701 -2.56487 -3.3775 0
M  V30 7320 N 684.092 -3.81824 -3.31729 0
M  V30 7321 C 682.39 -2.51274 -3.6848 0
M  V30 7322 C 683.091 -4.60497 -3.55412 0
M  V30 7323 N 682.067 -3.91274 -3.77367 0
M  V30 7324 H 685.869 -2.40167 -1.69402 0
M  V30 7325 H 683.383 -1.38254 -0.852037 0
M  V30 7326 H 685.38 -1.3765 -3.9352 0
M  V30 7327 H 684.04 -0.445019 -3.21636 0
M  V30 7328 H 685.051 -4.14069 -3.11074 0
M  V30 7329 H 681.728 -1.66223 -3.82983 0
M  V30 7330 H 683.118 -5.69518 -3.5651 0
M  V30 7331 N 685.838 0.888903 -1.30139 0
M  V30 7332 C 687.087 1.63507 -1.18103 0
M  V30 7333 C 687.4 1.93808 0.264141 0
M  V30 7334 O 688.606 2.66744 0.505966 0
M  V30 7335 C 687.062 2.94673 -2.0663 0
M  V30 7336 C 686.67 2.71926 -3.56034 0
M  V30 7337 C 688.414 3.72626 -2.03346 0
M  V30 7338 C 686.321 3.98884 -4.3663 0
M  V30 7339 H 685.251 0.613426 -0.438435 0
M  V30 7340 H 687.902 0.984427 -1.54859 0
M  V30 7341 H 686.284 3.61009 -1.62754 0
M  V30 7342 H 687.458 2.14116 -4.08033 0
M  V30 7343 H 685.773 2.07353 -3.61101 0
M  V30 7344 H 688.37 4.66775 -2.60816 0
M  V30 7345 H 688.713 4.03712 -1.016 0
M  V30 7346 H 689.246 3.13147 -2.45324 0
M  V30 7347 H 685.985 3.72959 -5.39056 0
M  V30 7348 H 685.505 4.56214 -3.89396 0
M  V30 7349 H 687.184 4.66938 -4.47859 0
M  V30 7350 N 687.317 1.12792 1.10072 0
M  V30 7351 C 688.564 0.885545 1.82111 0
M  V30 7352 C 688.892 -0.588519 1.85383 0
M  V30 7353 O 688.147 -1.45124 1.31292 0
M  V30 7354 C 688.446 1.4102 3.28403 0
M  V30 7355 C 688.112 2.89995 3.45273 0
M  V30 7356 C 686.774 3.30671 3.49585 0
M  V30 7357 C 689.126 3.85874 3.50358 0
M  V30 7358 C 686.454 4.65925 3.56553 0
M  V30 7359 C 688.806 5.20963 3.58859 0
M  V30 7360 C 687.47 5.61177 3.61437 0
M  V30 7361 H 686.74 0.324044 0.666391 0
M  V30 7362 H 689.387 1.40874 1.29718 0
M  V30 7363 H 687.692 0.807551 3.83387 0
M  V30 7364 H 689.389 1.19882 3.82661 0
M  V30 7365 H 685.979 2.57537 3.42597 0
M  V30 7366 H 690.163 3.5554 3.46273 0
M  V30 7367 H 685.419 4.96468 3.56833 0
M  V30 7368 H 689.593 5.95079 3.61738 0
M  V30 7369 H 687.22 6.6597 3.66589 0
M  V30 7370 N 688.795 -1.27931 0.920396 0
M  V30 7371 C 689.745 -2.24727 0.384966 0
M  V30 7372 C 690.729 -1.52715 -0.506661 0
M  V30 7373 O 691.921 -1.73599 -0.345298 0
M  V30 7374 C 689.05 -3.41324 -0.3678 0
M  V30 7375 C 688.136 -4.20649 0.539925 0
M  V30 7376 N 688.527 -4.77906 1.6565 0
M  V30 7377 C 686.825 -4.4469 0.341557 0
M  V30 7378 C 687.526 -5.37652 2.22047 0
M  V30 7379 N 686.502 -5.2218 1.51093 0
M  V30 7380 H 690.304 -2.66572 1.23761 0
M  V30 7381 H 687.818 -1.42779 0.773819 0
M  V30 7382 H 689.815 -4.0976 -0.768277 0
M  V30 7383 H 688.475 -3.01012 -1.21746 0
M  V30 7384 H 689.486 -4.76073 2.03899 0
M  V30 7385 H 686.163 -4.14868 -0.468045 0
M  V30 7386 H 687.553 -5.92948 3.1601 0
M  V30 7387 N 690.273 -0.685099 -1.4193 0
M  V30 7388 C 691.521 -0.21124 -2.00993 0
M  V30 7389 C 691.842 1.18985 -1.54491 0
M  V30 7390 O 691.112 1.8009 -0.771 0
M  V30 7391 H 689.692 -0.0751059 -0.743215 0
M  V30 7392 H 692.354 -0.883915 -1.73704 0
M  V30 7393 H 691.45 -0.220513 -3.1132 0
M  V30 7394 N 691.751 1.51645 -0.429126 0
M  V30 7395 C 693.167 1.59394 -0.080994 0
M  V30 7396 C 693.367 1.44064 1.40882 0
M  V30 7397 O 692.423 1.27771 2.17786 0
M  V30 7398 C 693.736 2.94779 -0.593773 0
M  V30 7399 C 695.284 3.08067 -0.553494 0
M  V30 7400 C 695.759 4.45963 -1.04311 0
M  V30 7401 N 697.25 4.5226 -1.00076 0
M  V30 7402 C 697.985 5.57268 -1.35056 0
M  V30 7403 N 697.481 6.69734 -1.77282 0
M  V30 7404 N 699.274 5.47582 -1.26925 0
M  V30 7405 H 691.425 1.59856 -1.39857 0
M  V30 7406 H 693.688 0.753095 -0.575805 0
M  V30 7407 H 693.394 3.11342 -1.63583 0
M  V30 7408 H 693.268 3.77197 -0.0142202 0
M  V30 7409 H 695.655 2.91177 0.479556 0
M  V30 7410 H 695.736 2.27508 -1.16935 0
M  V30 7411 H 695.38 4.63598 -2.07459 0
M  V30 7412 H 695.31 5.25049 -0.403873 0
M  V30 7413 H 697.801 3.71537 -0.690564 0
M  V30 7414 H 698.114 7.4587 -2.02232 0
M  V30 7415 H 696.459 6.70963 -1.81202 0
M  V30 7416 H 699.65 4.58604 -0.93809 0
M  V30 7417 H 699.823 6.29308 -1.54516 0
M  V30 7418 N 693.229 0.160201 1.56784 0
M  V30 7419 C 694.176 -0.774416 2.1742 0
M  V30 7420 C 695.146 -1.23483 1.11091 0
M  V30 7421 O 696.331 -1.30499 1.39193 0
M  V30 7422 C 693.471 -2.00283 2.81035 0
M  V30 7423 C 692.584 -1.58701 4.01793 0
M  V30 7424 C 691.719 -2.76824 4.53367 0
M  V30 7425 C 690.758 -2.31679 5.66561 0
M  V30 7426 N 689.895 -3.42856 6.12694 0
M  V30 7427 H 694.735 -0.250542 2.96945 0
M  V30 7428 H 692.272 -0.111943 1.46673 0
M  V30 7429 H 694.23 -2.72316 3.16069 0
M  V30 7430 H 692.86 -2.5006 2.04132 0
M  V30 7431 H 691.912 -0.76384 3.72652 0
M  V30 7432 H 693.224 -1.21555 4.83762 0
M  V30 7433 H 692.378 -3.57029 4.90525 0
M  V30 7434 H 691.117 -3.17223 3.70433 0
M  V30 7435 H 690.122 -1.49917 5.28966 0
M  V30 7436 H 691.347 -1.9235 6.5129 0
M  V30 7437 H 689.293 -3.82852 5.32692 0
M  V30 7438 H 689.21 -3.09767 6.89624 0
M  V30 7439 H 690.478 -4.23379 6.545 0
M  V30 7440 N 694.707 -1.5719 -0.113559 0
M  V30 7441 C 695.655 -2.01725 -1.158 0
M  V30 7442 C 696.649 -0.915105 -1.42556 0
M  V30 7443 O 697.855 -1.10031 -1.42454 0
M  V30 7444 H 694.23 -0.64262 -0.390569 0
M  V30 7445 H 696.201 -2.88666 -0.755926 0
M  V30 7446 C 694.95 -2.44203 -2.47507 0
M  V30 7447 H 694.273 -3.28582 -2.27758 0
M  V30 7448 H 695.713 -2.79158 -3.19135 0
M  V30 7449 C 694.172 -1.30785 -3.10478 0
M  V30 7450 O 694.702 -0.626807 -3.9678 0
M  V30 7451 N 692.908 -1.06352 -2.7044 0
M  V30 7452 H 692.455 -1.61913 -2.00355 0
M  V30 7453 H 692.413 -0.306614 -3.12901 0
M  V30 7454 N 696.185 0.383891 -1.52853 0
M  V30 7455 C 697.432 1.12842 -1.68146 0
M  V30 7456 C 697.76 1.89823 -0.423954 0
M  V30 7457 O 697.015 1.86475 0.593765 0
M  V30 7458 C 697.314 2.12881 -2.87082 0
M  V30 7459 C 696.98 1.52519 -4.24322 0
M  V30 7460 C 695.642 1.35783 -4.61645 0
M  V30 7461 C 697.994 1.0868 -5.09743 0
M  V30 7462 C 695.322 0.737643 -5.82044 0
M  V30 7463 C 697.674 0.480699 -6.30771 0
M  V30 7464 C 696.338 0.300681 -6.66822 0
M  V30 7465 H 695.608 0.412917 -0.615289 0
M  V30 7466 H 698.255 0.412416 -1.87006 0
M  V30 7467 H 696.56 2.90719 -2.62659 0
M  V30 7468 H 698.257 2.70408 -2.96109 0
M  V30 7469 H 694.847 1.66534 -3.94923 0
M  V30 7470 H 699.031 1.2041 -4.81472 0
M  V30 7471 H 694.287 0.586415 -6.08581 0
M  V30 7472 H 698.461 0.132733 -6.96273 0
M  V30 7473 H 696.088 -0.181966 -7.59982 0
M  V30 7474 N 697.663 1.43903 0.642637 0
M  V30 7475 C 698.91 1.46079 1.40239 0
M  V30 7476 C 699.238 0.0890335 1.94296 0
M  V30 7477 O 698.493 -0.907533 1.73385 0
M  V30 7478 C 698.792 2.45907 2.59354 0
M  V30 7479 C 698.458 3.91522 2.23654 0
M  V30 7480 C 697.12 4.31179 2.1363 0
M  V30 7481 C 699.472 4.83242 1.95261 0
M  V30 7482 C 696.8 5.60495 1.73384 0
M  V30 7483 C 699.152 6.12933 1.56511 0
M  V30 7484 C 697.816 6.51556 1.4502 0
M  V30 7485 H 697.086 0.534542 0.513172 0
M  V30 7486 H 699.733 1.77047 0.72984 0
M  V30 7487 H 698.038 2.08381 3.3179 0
M  V30 7488 H 699.735 2.44842 3.17574 0
M  V30 7489 H 696.325 3.60142 2.32369 0
M  V30 7490 H 700.509 4.53367 2.0192 0
M  V30 7491 H 695.765 5.89249 1.63082 0
M  V30 7492 H 699.939 6.83469 1.33576 0
M  V30 7493 H 697.566 7.51663 1.13606 0
M  V30 7494 N 699.141 -0.881989 1.30609 0
M  V30 7495 C 700.39 -1.62878 1.18969 0
M  V30 7496 C 700.703 -1.93946 -0.253859 0
M  V30 7497 O 701.909 -2.67008 -0.491813 0
M  V30 7498 C 700.365 -2.93573 2.0819 0
M  V30 7499 C 699.973 -2.70034 3.57471 0
M  V30 7500 C 701.717 -3.71543 2.0532 0
M  V30 7501 C 699.624 -3.96563 4.38739 0
M  V30 7502 H 698.554 -0.611092 0.441682 0
M  V30 7503 H 701.205 -0.976201 1.55379 0
M  V30 7504 H 699.587 -3.6014 1.64666 0
M  V30 7505 H 700.761 -2.11949 4.09163 0
M  V30 7506 H 699.076 -2.05435 3.62195 0
M  V30 7507 H 701.673 -4.65386 2.63288 0
M  V30 7508 H 702.016 -4.03167 1.03739 0
M  V30 7509 H 702.549 -3.11842 2.46981 0
M  V30 7510 H 699.288 -3.70095 5.41027 0
M  V30 7511 H 698.808 -4.54142 3.9181 0
M  V30 7512 H 700.487 -4.64557 4.50329 0
M  V30 7513 N 700.619 -1.13374 -1.09472 0
M  V30 7514 C 701.847 -0.918351 -1.85402 0
M  V30 7515 C 702.262 0.53281 -1.81126 0
M  V30 7516 O 701.619 1.36879 -1.20708 0
M  V30 7517 C 701.67 -1.39743 -3.33398 0
M  V30 7518 O 701.391 -2.79172 -3.37631 0
M  V30 7519 C 702.892 -1.22042 -4.2617 0
M  V30 7520 H 700.112 -0.327511 -0.585643 0
M  V30 7521 H 702.656 -1.50617 -1.38328 0
M  V30 7522 H 700.811 -0.852619 -3.77901 0
M  V30 7523 H 701.225 -3.00428 -4.29934 0
M  V30 7524 H 702.699 -1.60438 -5.2817 0
M  V30 7525 H 703.176 -0.162047 -4.38901 0
M  V30 7526 H 703.782 -1.75323 -3.87482 0
M  V30 7527 N 702.098 1.27442 -0.927168 0
M  V30 7528 C 703.326 1.98498 -0.583622 0
M  V30 7529 C 703.741 1.69171 0.838241 0
M  V30 7530 O 703.098 0.951969 1.55704 0
M  V30 7531 C 703.149 3.52552 -0.799341 0
M  V30 7532 O 702.87 3.80851 -2.16527 0
M  V30 7533 C 704.371 4.4086 -0.464436 0
M  V30 7534 H 701.591 0.633487 -0.221213 0
M  V30 7535 H 704.135 1.62308 -1.24404 0
M  V30 7536 H 702.29 3.86955 -0.185728 0
M  V30 7537 H 702.704 4.75441 -2.21487 0
M  V30 7538 H 704.178 5.47967 -0.666075 0
M  V30 7539 H 704.655 4.35082 0.599995 0
M  V30 7540 H 705.261 4.11977 -1.05617 0
M  V30 7541 N 703.576 0.692616 1.41565 0
M  V30 7542 C 704.486 0.0258451 2.34586 0
M  V30 7543 C 705.502 -0.769324 1.56069 0
M  V30 7544 O 706.678 -0.707563 1.88562 0
M  V30 7545 C 703.743 -0.901289 3.3478 0
M  V30 7546 C 702.804 -0.0986579 4.29187 0
M  V30 7547 C 702.037 -0.981634 5.24595 0
M  V30 7548 O 702.26 -2.22115 5.25377 0
M  V30 7549 O 701.194 -0.432892 6.00341 0
M  V30 7550 H 705.02 0.792537 2.93177 0
M  V30 7551 H 702.605 0.452935 1.42369 0
M  V30 7552 H 704.487 -1.43302 3.96286 0
M  V30 7553 H 703.162 -1.64752 2.78637 0
M  V30 7554 H 702.069 0.477604 3.71039 0
M  V30 7555 H 703.402 0.608848 4.8842 0
M  V30 7556 N 705.054 -1.51416 0.437162 0
M  V30 7557 C 706.002 -2.29328 -0.388765 0
M  V30 7558 C 706.996 -1.35171 -1.02104 0
M  V30 7559 O 708.202 -1.52513 -0.956024 0
M  V30 7560 H 704.577 -0.738048 -0.144183 0
M  V30 7561 H 706.548 -2.96995 0.289212 0
M  V30 7562 C 705.297 -3.14741 -1.47761 0
M  V30 7563 H 704.62 -3.8708 -1.00045 0
M  V30 7564 H 706.06 -3.72313 -2.02877 0
M  V30 7565 C 704.519 -2.30105 -2.46076 0
M  V30 7566 O 705.049 -1.96055 -3.50607 0
M  V30 7567 N 703.255 -1.93331 -2.1696 0
M  V30 7568 H 702.802 -2.2122 -1.31983 0
M  V30 7569 H 702.76 -1.36999 -2.82982 0
M  V30 7570 N 706.532 -0.168513 -1.56696 0
M  V30 7571 C 707.462 0.758563 -2.20835 0
M  V30 7572 C 708.443 1.24121 -1.1631 0
M  V30 7573 O 709.628 1.29487 -1.4473 0
M  V30 7574 C 706.758 1.9892 -2.8469 0
M  V30 7575 C 705.712 1.64252 -3.95228 0
M  V30 7576 C 705.038 2.94757 -4.46119 0
M  V30 7577 C 706.338 0.872675 -5.14958 0
M  V30 7578 H 708.032 0.223953 -2.98561 0
M  V30 7579 H 705.578 0.106277 -1.43607 0
M  V30 7580 H 707.531 2.64275 -3.28233 0
M  V30 7581 H 706.255 2.5479 -2.04327 0
M  V30 7582 H 704.914 1.01266 -3.52336 0
M  V30 7583 H 704.562 3.48662 -3.62552 0
M  V30 7584 H 704.262 2.72316 -5.2069 0
M  V30 7585 H 705.786 3.61147 -4.92347 0
M  V30 7586 H 707.2 1.42875 -5.55211 0
M  V30 7587 H 705.597 0.747402 -5.95428 0
M  V30 7588 H 706.667 -0.131535 -4.84722 0
M  V30 7589 N 708.01 1.57248 0.105221 0
M  V30 7590 C 708.94 2.04374 1.12931 0
M  V30 7591 C 709.921 0.93074 1.42377 0
M  V30 7592 O 711.106 1.20136 1.52581 0
M  V30 7593 C 708.236 2.45967 2.45189 0
M  V30 7594 C 707.19 3.60838 2.30174 0
M  V30 7595 C 706.516 3.88374 3.67518 0
M  V30 7596 C 707.816 4.92084 1.75073 0
M  V30 7597 H 709.51 2.9018 0.737287 0
M  V30 7598 H 707.056 1.39601 0.353211 0
M  V30 7599 H 709.009 2.77542 3.17094 0
M  V30 7600 H 707.733 1.57148 2.86308 0
M  V30 7601 H 706.392 3.29493 1.60716 0
M  V30 7602 H 706.04 2.96739 4.06147 0
M  V30 7603 H 705.74 4.65703 3.58321 0
M  V30 7604 H 707.264 4.22415 4.40906 0
M  V30 7605 H 708.678 5.22106 2.36809 0
M  V30 7606 H 707.075 5.73507 1.76662 0
M  V30 7607 H 708.145 4.79684 0.709347 0
M  V30 7608 N 709.488 -0.375779 1.53054 0
M  V30 7609 C 710.451 -1.44254 1.7811 0
M  V30 7610 C 711.451 -1.47018 0.651328 0
M  V30 7611 O 712.641 -1.47957 0.919472 0
M  V30 7612 C 709.773 -2.8345 1.89391 0
M  V30 7613 H 710.966 -1.23316 2.73374 0
M  V30 7614 H 708.519 -0.608312 1.43977 0
M  V30 7615 H 709.254 -3.09716 0.961589 0
M  V30 7616 H 709.039 -2.82844 2.71555 0
M  V30 7617 H 710.529 -3.60722 2.10404 0
M  V30 7618 N 710.966 -1.44241 -0.634997 0
M  V30 7619 C 712.191 -1.50516 -1.42687 0
M  V30 7620 C 712.616 -0.129864 -1.87651 0
M  V30 7621 O 711.974 0.880164 -1.58502 0
M  V30 7622 C 712.022 -2.4714 -2.62591 0
M  V30 7623 O 711.126 -1.97025 -3.62291 0
M  V30 7624 H 710.467 -0.50841 -0.427101 0
M  V30 7625 H 712.997 -1.89337 -0.775408 0
M  V30 7626 H 713.007 -2.65048 -3.10183 0
M  V30 7627 H 711.682 -3.47039 -2.29209 0
M  V30 7628 H 710.259 -1.88866 -3.21534 0
M  V30 7629 N 712.444 0.87505 -1.31075 0
M  V30 7630 C 713.69 1.63006 -1.21657 0
M  V30 7631 C 714.045 1.91088 0.224306 0
M  V30 7632 O 713.338 1.52779 1.15625 0
M  V30 7633 C 713.532 2.96948 -1.98888 0
M  V30 7634 C 713.361 2.81944 -3.50339 0
M  V30 7635 C 712.131 2.814 -4.19693 0
M  V30 7636 C 714.329 2.57171 -4.45385 0
M  V30 7637 N 712.311 2.57392 -5.57335 0
M  V30 7638 C 713.682 2.42379 -5.7066 0
M  V30 7639 C 715.737 2.42474 -4.34868 0
M  V30 7640 C 714.44 2.14385 -6.86609 0
M  V30 7641 C 716.466 2.15868 -5.50595 0
M  V30 7642 C 715.828 2.0186 -6.74857 0
M  V30 7643 H 711.927 0.601043 -0.500271 0
M  V30 7644 H 714.511 1.03033 -1.65204 0
M  V30 7645 H 712.682 3.54936 -1.57718 0
M  V30 7646 H 714.414 3.61702 -1.81531 0
M  V30 7647 H 711.169 2.93596 -3.71616 0
M  V30 7648 H 711.593 2.48373 -6.29794 0
M  V30 7649 H 716.235 2.52035 -3.39468 0
M  V30 7650 H 713.953 2.03562 -7.82041 0
M  V30 7651 H 717.539 2.05304 -5.44372 0
M  V30 7652 H 716.419 1.81562 -7.62892 0
M  V30 7653 N 713.922 1.13953 1.08869 0
M  V30 7654 C 714.87 0.817664 2.17754 0
M  V30 7655 C 715.864 -0.202444 1.68186 0
M  V30 7656 O 717.07 -0.0590159 1.79903 0
M  V30 7657 H 713.445 0.246671 0.710392 0
M  V30 7658 H 715.416 1.74401 2.4213 0
M  V30 7659 C 714.165 0.3063 3.46348 0
M  V30 7660 H 713.488 1.08259 3.84864 0
M  V30 7661 H 714.928 0.119584 4.23831 0
M  V30 7662 C 713.387 -0.969158 3.22659 0
M  V30 7663 O 713.917 -2.04386 3.45817 0
M  V30 7664 N 712.123 -0.902516 2.7623 0
M  V30 7665 H 711.67 -0.027801 2.57585 0
M  V30 7666 H 711.628 -1.75649 2.60758 0
M  V30 7667 N 715.4 -1.26948 0.933913 0
M  V30 7668 C 716.647 -1.94087 0.577625 0
M  V30 7669 C 716.975 -1.73345 -0.88214 0
M  V30 7670 O 716.23 -1.05945 -1.64542 0
M  V30 7671 C 716.529 -3.46963 0.857406 0
M  V30 7672 C 716.195 -3.87834 2.2999 0
M  V30 7673 C 714.857 -3.98704 2.69423 0
M  V30 7674 C 717.209 -4.08442 3.23766 0
M  V30 7675 C 714.537 -4.27573 4.01744 0
M  V30 7676 C 716.889 -4.38798 4.55675 0
M  V30 7677 C 715.553 -4.47881 4.94934 0
M  V30 7678 H 714.823 -0.710215 0.211368 0
M  V30 7679 H 717.47 -1.50899 1.17905 0
M  V30 7680 H 715.775 -3.91416 0.173369 0
M  V30 7681 H 717.472 -3.97062 0.560615 0
M  V30 7682 H 714.062 -3.79916 1.98399 0
M  V30 7683 H 718.246 -3.99479 2.94499 0
M  V30 7684 H 713.502 -4.32815 4.31834 0
M  V30 7685 H 717.676 -4.5369 5.28335 0
M  V30 7686 H 715.303 -4.70005 5.97495 0
M  V30 7687 N 716.879 -0.700114 -1.41195 0
M  V30 7688 C 718.125 -0.242122 -2.01954 0
M  V30 7689 C 718.48 1.14697 -1.54475 0
M  V30 7690 O 717.773 1.76392 -0.748095 0
M  V30 7691 C 717.967 -0.243986 -3.56566 0
M  V30 7692 C 717.796 -1.63172 -4.19053 0
M  V30 7693 C 716.566 -2.23566 -4.53152 0
M  V30 7694 C 718.764 -2.57916 -4.44954 0
M  V30 7695 N 716.746 -3.54856 -5.00949 0
M  V30 7696 C 718.117 -3.73892 -4.94576 0
M  V30 7697 C 720.172 -2.56125 -4.26971 0
M  V30 7698 C 718.875 -4.88363 -5.28104 0
M  V30 7699 C 720.901 -3.69712 -4.61592 0
M  V30 7700 C 720.263 -4.84418 -5.11389 0
M  V30 7701 H 716.362 -0.134088 -0.770418 0
M  V30 7702 H 718.946 -0.918576 -1.71669 0
M  V30 7703 H 717.117 0.401971 -3.86314 0
M  V30 7704 H 718.849 0.229261 -4.0405 0
M  V30 7705 H 715.604 -1.75809 -4.39759 0
M  V30 7706 H 716.028 -4.22167 -5.29249 0
M  V30 7707 H 720.67 -1.68656 -3.87705 0
M  V30 7708 H 718.388 -5.76488 -5.66292 0
M  V30 7709 H 721.974 -3.69583 -4.49332 0
M  V30 7710 H 720.854 -5.70855 -5.37675 0
M  V30 7711 N 718.357 1.51182 -0.445186 0
M  V30 7712 C 719.585 2.06568 0.117091 0
M  V30 7713 C 720 1.31182 1.35781 0
M  V30 7714 O 719.357 0.373605 1.78635 0
M  V30 7715 C 719.408 3.58917 0.431408 0
M  V30 7716 O 719.129 4.31456 -0.760078 0
M  V30 7717 C 720.63 4.30843 1.0435 0
M  V30 7718 H 717.85 0.670985 0.00444436 0
M  V30 7719 H 720.394 1.94666 -0.626525 0
M  V30 7720 H 718.549 3.70708 1.12493 0
M  V30 7721 H 718.963 5.22215 -0.489048 0
M  V30 7722 H 720.437 5.38499 1.21337 0
M  V30 7723 H 720.914 3.89644 2.02667 0
M  V30 7724 H 721.52 4.23516 0.38913 0
M  V30 7725 N 719.835 0.176821 1.56605 0
M  V30 7726 C 721.246 -0.338963 1.83597 0
M  V30 7727 C 721.597 -1.62677 1.09684 0
M  V30 7728 O 720.722 -2.13524 0.351661 0
M  V30 7729 C 721.317 -0.62177 3.33046 0
M  V30 7730 C 719.876 -1.08198 3.60514 0
M  V30 7731 C 719.023 -0.120774 2.77037 0
M  V30 7732 H 721.974 0.400978 1.53551 0
M  V30 7733 H 721.995 -1.47321 3.50823 0
M  V30 7734 H 721.507 0.315692 3.86814 0
M  V30 7735 H 719.608 -2.03435 3.12162 0
M  V30 7736 H 719.721 -0.987329 4.68816 0
M  V30 7737 H 718.085 -0.619192 2.47059 0
M  V30 7738 H 718.868 0.810806 3.33588 0
M  V30 7739 N 721.313 -1.57302 -0.09688 0
M  V30 7740 C 722.243 -2.0497 -1.11846 0
M  V30 7741 C 723.224 -0.938278 -1.41882 0
M  V30 7742 O 724.409 -1.20943 -1.51942 0
M  V30 7743 C 721.539 -2.47264 -2.43881 0
M  V30 7744 C 720.493 -3.62053 -2.28257 0
M  V30 7745 C 719.819 -3.90318 -3.65453 0
M  V30 7746 C 721.119 -4.93005 -1.72461 0
M  V30 7747 H 722.813 -2.90567 -0.721888 0
M  V30 7748 H 720.359 -1.39786 -0.345803 0
M  V30 7749 H 722.312 -2.7922 -3.15617 0
M  V30 7750 H 721.036 -1.58664 -2.8547 0
M  V30 7751 H 719.695 -3.30341 -1.58967 0
M  V30 7752 H 719.343 -2.98889 -4.04567 0
M  V30 7753 H 719.043 -4.67597 -3.55846 0
M  V30 7754 H 720.567 -4.24747 -4.3866 0
M  V30 7755 H 721.981 -5.23354 -2.34036 0
M  V30 7756 H 720.378 -5.74436 -1.73618 0
M  V30 7757 H 721.448 -4.80053 -0.683898 0
M  V30 7758 N 722.791 0.367657 -1.53252 0
M  V30 7759 C 723.721 1.45632 -1.8252 0
M  V30 7760 C 724.702 1.55979 -0.678568 0
M  V30 7761 O 725.887 1.70581 -0.928217 0
M  V30 7762 C 723.017 2.82994 -2.01325 0
M  V30 7763 C 721.971 2.87473 -3.17086 0
M  V30 7764 C 721.297 4.2749 -3.21179 0
M  V30 7765 C 722.597 2.55182 -4.55719 0
M  V30 7766 H 724.291 1.21387 -2.73689 0
M  V30 7767 H 721.837 0.58251 -1.31692 0
M  V30 7768 H 723.79 3.59179 -2.20383 0
M  V30 7769 H 722.514 3.08622 -1.06864 0
M  V30 7770 H 721.173 2.13739 -2.97844 0
M  V30 7771 H 720.821 4.5019 -2.24361 0
M  V30 7772 H 720.521 4.31403 -3.98955 0
M  V30 7773 H 722.045 5.0555 -3.42419 0
M  V30 7774 H 723.459 3.21081 -4.74953 0
M  V30 7775 H 721.856 2.70414 -5.3572 0
M  V30 7776 H 722.926 1.5044 -4.60973 0
M  V30 7777 N 724.269 1.44576 0.627338 0
M  V30 7778 C 725.179 1.54232 1.76776 0
M  V30 7779 C 726.195 0.427782 1.6866 0
M  V30 7780 O 727.371 0.685671 1.89369 0
M  V30 7781 C 724.436 1.48738 3.13174 0
M  V30 7782 C 723.497 2.71074 3.32893 0
M  V30 7783 C 722.73 2.65832 4.62784 0
M  V30 7784 O 722.953 1.72048 5.43834 0
M  V30 7785 O 721.887 3.56742 4.84787 0
M  V30 7786 H 725.713 2.50586 1.71582 0
M  V30 7787 H 723.298 1.26865 0.789028 0
M  V30 7788 H 725.18 1.48211 3.94476 0
M  V30 7789 H 723.855 0.555292 3.18902 0
M  V30 7790 H 722.762 2.77168 2.51254 0
M  V30 7791 H 724.095 3.63342 3.32029 0
M  V30 7792 N 725.747 -0.868086 1.31537 0
M  V30 7793 C 726.972 -1.65926 1.24432 0
M  V30 7794 C 727.397 -1.87169 -0.186936 0
M  V30 7795 O 726.755 -1.4148 -1.13371 0
M  V30 7796 C 726.803 -3.00347 1.9956 0
M  V30 7797 O 725.907 -3.90221 1.33422 0
M  V30 7798 H 725.248 -0.506375 0.429512 0
M  V30 7799 H 727.778 -1.0822 1.73637 0
M  V30 7800 H 727.788 -3.50269 2.09226 0
M  V30 7801 H 726.463 -2.84205 3.03645 0
M  V30 7802 H 725.04 -3.48672 1.32219 0
M  V30 7803 N 727.225 -1.14528 -1.08264 0
M  V30 7804 C 728.155 -0.856356 -2.1723 0
M  V30 7805 C 729.136 0.189251 -1.69044 0
M  V30 7806 O 730.321 0.0456119 -1.94146 0
M  V30 7807 C 727.451 -0.334662 -3.45684 0
M  V30 7808 C 726.405 -1.31588 -4.0727 0
M  V30 7809 C 725.731 -0.653428 -5.30692 0
M  V30 7810 C 727.031 -2.67866 -4.48381 0
M  V30 7811 H 728.725 -1.76755 -2.41657 0
M  V30 7812 H 726.271 -0.851287 -1.16143 0
M  V30 7813 H 728.224 -0.120128 -4.21229 0
M  V30 7814 H 726.948 0.611967 -3.20815 0
M  V30 7815 H 725.607 -1.51661 -3.33758 0
M  V30 7816 H 725.255 0.299054 -5.0211 0
M  V30 7817 H 724.955 -1.30817 -5.72853 0
M  V30 7818 H 726.479 -0.448453 -6.08951 0
M  V30 7819 H 727.893 -2.51692 -5.15096 0
M  V30 7820 H 726.29 -3.29627 -5.01464 0
M  V30 7821 H 727.36 -3.24632 -3.60198 0
M  V30 7822 N 728.703 1.26451 -0.940633 0
M  V30 7823 C 729.666 2.24651 -0.454378 0
M  V30 7824 C 730.666 1.54826 0.434222 0
M  V30 7825 O 731.856 1.72628 0.233477 0
M  V30 7826 C 728.988 3.39148 0.345192 0
M  V30 7827 H 730.181 2.69182 -1.32217 0
M  V30 7828 H 727.734 1.38596 -0.722547 0
M  V30 7829 H 728.469 3.00018 1.23125 0
M  V30 7830 H 728.254 3.9101 -0.292107 0
M  V30 7831 H 729.744 4.12103 0.675341 0
M  V30 7832 N 730.181 0.707592 1.40822 0
M  V30 7833 C 731.131 0.0265008 2.27985 0
M  V30 7834 C 732.115 -0.740685 1.42838 0
M  V30 7835 O 733.307 -0.6142 1.66002 0
M  V30 7836 C 730.436 -0.900382 3.31282 0
M  V30 7837 C 729.522 -0.128807 4.23904 0
M  V30 7838 N 729.913 0.883744 4.9802 0
M  V30 7839 C 728.211 -0.362539 4.44524 0
M  V30 7840 C 728.912 1.34666 5.65898 0
M  V30 7841 N 727.888 0.670306 5.39451 0
M  V30 7842 H 731.69 0.802667 2.82727 0
M  V30 7843 H 729.204 0.539475 1.53178 0
M  V30 7844 H 731.201 -1.40357 3.92563 0
M  V30 7845 H 729.861 -1.67601 2.781 0
M  V30 7846 H 730.872 1.26435 5.0223 0
M  V30 7847 H 727.549 -1.11512 4.02332 0
M  V30 7848 H 728.939 2.18756 6.35292 0
M  V30 7849 N 731.66 -1.50943 0.453197 0
M  V30 7850 C 732.607 -2.28128 -0.350197 0
M  V30 7851 C 733.577 -1.32398 -1.00299 0
M  V30 7852 O 734.762 -1.61319 -1.01887 0
M  V30 7853 C 731.902 -3.13782 -1.43649 0
M  V30 7854 C 731.015 -4.24523 -0.800255 0
M  V30 7855 C 730.15 -4.97462 -1.86293 0
M  V30 7856 C 729.189 -6.00102 -1.20598 0
M  V30 7857 N 728.326 -6.66387 -2.21071 0
M  V30 7858 H 733.166 -2.96337 0.31434 0
M  V30 7859 H 730.703 -1.46151 0.166863 0
M  V30 7860 H 732.661 -3.6178 -2.07776 0
M  V30 7861 H 731.291 -2.47655 -2.07044 0
M  V30 7862 H 730.343 -3.80371 -0.0468651 0
M  V30 7863 H 731.655 -4.98009 -0.280777 0
M  V30 7864 H 730.809 -5.49088 -2.58044 0
M  V30 7865 H 729.548 -4.23642 -2.41617 0
M  V30 7866 H 728.553 -5.47753 -0.474 0
M  V30 7867 H 729.778 -6.75887 -0.659859 0
M  V30 7868 H 727.724 -5.9537 -2.75446 0
M  V30 7869 H 727.641 -7.3569 -1.74058 0
M  V30 7870 H 728.909 -7.22638 -2.92257 0
M  V30 7871 N 733.138 -0.185124 -1.56509 0
M  V30 7872 C 734.101 0.72591 -2.17401 0
M  V30 7873 C 735.101 1.14819 -1.12575 0
M  V30 7874 O 736.291 1.0629 -1.38015 0
M  V30 7875 C 733.423 1.98979 -2.76803 0
M  V30 7876 H 734.616 0.195588 -2.99262 0
M  V30 7877 H 732.169 0.0644772 -1.56167 0
M  V30 7878 H 732.904 2.56287 -1.98714 0
M  V30 7879 H 732.689 1.69583 -3.53531 0
M  V30 7880 H 734.179 2.63966 -3.23592 0
M  V30 7881 N 734.616 1.57351 0.0885366 0
M  V30 7882 C 736.027 1.75303 0.642308 0
M  V30 7883 C 736.378 0.808238 1.78779 0
M  V30 7884 O 735.503 -0.01171 2.16397 0
M  V30 7885 C 736.098 3.17885 1.17194 0
M  V30 7886 C 734.657 3.37239 1.67172 0
M  V30 7887 C 733.804 2.7108 0.584045 0
M  V30 7888 H 736.755 1.58103 -0.137567 0
M  V30 7889 H 736.776 3.2112 2.04114 0
M  V30 7890 H 736.288 3.86625 0.338024 0
M  V30 7891 H 734.389 2.73588 2.52943 0
M  V30 7892 H 734.502 4.45594 1.76019 0
M  V30 7893 H 732.866 2.33161 1.02508 0
M  V30 7894 H 733.649 3.42464 -0.239403 0
M  V30 7895 N 736.094 -0.359525 1.53444 0
M  V30 7896 C 737.51 -0.701599 1.43352 0
M  V30 7897 C 737.71 -1.93049 0.577439 0
M  V30 7898 O 736.766 -2.52423 0.0622224 0
M  V30 7899 C 738.079 -0.90915 2.86627 0
M  V30 7900 C 739.627 -1.00878 2.96298 0
M  V30 7901 C 740.102 -1.24876 4.40647 0
M  V30 7902 N 741.593 -1.31632 4.44103 0
M  V30 7903 C 742.328 -1.51922 5.52908 0
M  V30 7904 N 741.824 -1.69489 6.71748 0
M  V30 7905 N 743.617 -1.54341 5.40496 0
M  V30 7906 H 735.768 0.448685 2.07607 0
M  V30 7907 H 738.031 0.138713 0.937797 0
M  V30 7908 H 737.737 -0.0778997 3.51614 0
M  V30 7909 H 737.611 -1.81551 3.30634 0
M  V30 7910 H 739.998 -1.83057 2.31461 0
M  V30 7911 H 740.079 -0.0796721 2.55676 0
M  V30 7912 H 739.723 -0.431961 5.0606 0
M  V30 7913 H 739.653 -2.19118 4.78848 0
M  V30 7914 H 742.144 -1.19646 3.5846 0
M  V30 7915 H 742.457 -1.84561 7.50438 0
M  V30 7916 H 740.802 -1.66655 6.74723 0
M  V30 7917 H 743.993 -1.40188 4.46615 0
M  V30 7918 H 744.166 -1.69812 6.25354 0
M  V30 7919 N 737.572 -1.44907 -0.619662 0
M  V30 7920 C 738.502 -1.55488 -1.742 0
M  V30 7921 C 739.483 -0.407143 -1.65156 0
M  V30 7922 O 740.668 -0.628743 -1.8374 0
M  V30 7923 C 737.798 -1.5097 -3.1277 0
M  V30 7924 C 736.752 -2.64337 -3.36615 0
M  V30 7925 C 736.078 -2.44872 -4.75333 0
M  V30 7926 C 737.378 -4.06423 -3.28051 0
M  V30 7927 H 739.072 -2.49432 -1.65602 0
M  V30 7928 H 736.618 -1.20047 -0.795281 0
M  V30 7929 H 738.571 -1.56971 -3.91073 0
M  V30 7930 H 737.295 -0.535486 -3.2218 0
M  V30 7931 H 735.954 -2.57744 -2.60698 0
M  V30 7932 H 735.602 -1.45617 -4.81461 0
M  V30 7933 H 735.302 -3.20888 -4.92244 0
M  V30 7934 H 736.826 -2.52709 -5.55851 0
M  V30 7935 H 738.24 -4.14324 -3.96243 0
M  V30 7936 H 736.637 -4.82733 -3.56495 0
M  V30 7937 H 737.707 -4.29183 -2.25676 0
M  V30 7938 N 739.05 0.861098 -1.31996 0
M  V30 7939 C 740.28 1.64501 -1.24992 0
M  V30 7940 C 740.688 1.88288 0.185576 0
M  V30 7941 O 740.031 1.44756 1.131 0
M  V30 7942 C 740.093 3.03098 -1.93319 0
M  V30 7943 C 739.757 3.02381 -3.42658 0
M  V30 7944 C 740.754 2.79696 -4.38254 0
M  V30 7945 C 738.439 3.23221 -3.84491 0
M  V30 7946 C 740.433 2.77843 -5.73657 0
M  V30 7947 C 738.12 3.20996 -5.20005 0
M  V30 7948 C 739.118 2.98335 -6.14398 0
M  V30 7949 O 738.806 2.95971 -7.47433 0
M  V30 7950 H 738.538 0.519309 -0.432775 0
M  V30 7951 H 741.092 1.08241 -1.74565 0
M  V30 7952 H 739.322 3.61121 -1.38306 0
M  V30 7953 H 741.011 3.63751 -1.8011 0
M  V30 7954 H 741.777 2.63368 -4.07262 0
M  V30 7955 H 737.656 3.39887 -3.11445 0
M  V30 7956 H 741.2 2.60074 -6.47308 0
M  V30 7957 H 737.097 3.36865 -5.50629 0
M  V30 7958 H 737.865 3.1197 -7.56714 0
M  V30 7959 N 740.528 1.15101 1.07655 0
M  V30 7960 C 741.939 0.933848 1.61667 0
M  V30 7961 C 742.29 -0.525569 1.8903 0
M  V30 7962 O 741.415 -1.39605 1.65346 0
M  V30 7963 C 742.01 1.68876 2.93711 0
M  V30 7964 C 740.569 1.51697 3.44478 0
M  V30 7965 C 739.716 1.70633 2.18586 0
M  V30 7966 H 742.667 1.30171 0.907816 0
M  V30 7967 H 742.688 1.15645 3.625 0
M  V30 7968 H 742.2 2.7509 2.73764 0
M  V30 7969 H 740.301 0.478635 3.69513 0
M  V30 7970 H 740.414 2.29194 4.20722 0
M  V30 7971 H 738.778 1.13259 2.28132 0
M  V30 7972 H 739.561 2.78206 2.01137 0
M  V30 7973 N 742.006 -1.2595 0.947325 0
M  V30 7974 C 743.254 -1.93081 0.596996 0
M  V30 7975 C 743.575 -1.74632 -0.867672 0
M  V30 7976 O 742.845 -1.1056 -1.6172 0
M  V30 7977 H 741.425 -0.714542 0.217805 0
M  V30 7978 H 744.087 -1.53265 1.20398 0
M  V30 7979 H 743.183 -3.01134 0.82004 0
M  V30 7980 N 743.484 -0.715051 -1.40445 0
M  V30 7981 C 744.732 -0.253826 -2.005 0
M  V30 7982 C 745.053 1.15681 -1.5698 0
M  V30 7983 O 744.323 1.78414 -0.809027 0
M  V30 7984 H 742.903 -0.0908537 -0.741454 0
M  V30 7985 H 745.565 -0.920561 -1.7179 0
M  V30 7986 H 744.661 -0.286499 -3.10782 0
M  V30 7987 N 744.962 1.50701 -0.461195 0
M  V30 7988 C 745.925 2.2686 0.326679 0
M  V30 7989 C 746.925 1.31243 0.929085 0
M  V30 7990 O 748.115 1.54754 0.799807 0
M  V30 7991 C 745.247 3.07844 1.46441 0
M  V30 7992 H 746.44 2.97954 -0.341095 0
M  V30 7993 H 743.993 1.54814 -0.214984 0
M  V30 7994 H 744.728 2.41223 2.16753 0
M  V30 7995 H 744.513 3.78101 1.03836 0
M  V30 7996 H 746.003 3.65469 2.02044 0
M  V30 7997 N 746.441 0.193421 1.56409 0
M  V30 7998 C 747.351 -0.740112 2.2262 0
M  V30 7999 C 748.367 -1.23597 1.22474 0
M  V30 8000 O 749.543 -1.28348 1.55206 0
M  V30 8001 C 746.608 -1.94317 2.87127 0
M  V30 8002 C 745.669 -1.49205 4.02538 0
M  V30 8003 C 744.902 -2.63776 4.63959 0
M  V30 8004 O 745.125 -3.81215 4.24301 0
M  V30 8005 O 744.059 -2.36585 5.53454 0
M  V30 8006 H 747.885 -0.206238 3.02999 0
M  V30 8007 H 745.47 -0.0357938 1.49357 0
M  V30 8008 H 747.352 -2.64633 3.27944 0
M  V30 8009 H 746.027 -2.46568 2.09728 0
M  V30 8010 H 744.934 -0.757738 3.66346 0
M  V30 8011 H 746.267 -1.01622 4.81595 0
M  V30 8012 N 747.919 -1.57396 -0.0801906 0
M  V30 8013 C 748.867 -2.04136 -1.11495 0
M  V30 8014 C 749.861 -0.945137 -1.40583 0
M  V30 8015 O 751.067 -1.13028 -1.40088 0
M  V30 8016 H 747.442 -0.65076 -0.37685 0
M  V30 8017 H 749.413 -2.90205 -0.694526 0
M  V30 8018 C 748.162 -2.49399 -2.42272 0
M  V30 8019 H 747.485 -3.33339 -2.20737 0
M  V30 8020 H 748.925 -2.85864 -3.13142 0
M  V30 8021 C 747.384 -1.37341 -3.07635 0
M  V30 8022 O 747.914 -0.710829 -3.95361 0
M  V30 8023 N 746.12 -1.12064 -2.68123 0
M  V30 8024 H 745.667 -1.66126 -1.96875 0
M  V30 8025 H 745.625 -0.372916 -3.12181 0
M  V30 8026 N 749.397 0.351382 -1.53633 0
M  V30 8027 C 750.645 1.09034 -1.70165 0
M  V30 8028 C 750.966 1.89413 -0.463422 0
M  V30 8029 O 750.236 1.888 0.522624 0
M  V30 8030 H 748.816 0.405522 -0.627344 0
M  V30 8031 H 751.478 0.394554 -1.90865 0
M  V30 8032 H 750.574 1.77215 -2.56907 0
M  V30 8033 N 750.875 1.45233 0.611969 0
M  V30 8034 C 752.291 1.29542 0.932251 0
M  V30 8035 C 752.491 0.24523 2.00002 0
M  V30 8036 O 751.547 -0.362333 2.49887 0
M  V30 8037 C 752.86 2.67301 1.37733 0
M  V30 8038 C 754.408 2.75163 1.49178 0
M  V30 8039 C 754.883 4.13437 1.97064 0
M  V30 8040 N 756.374 4.15709 2.04304 0
M  V30 8041 C 757.109 5.19566 2.42568 0
M  V30 8042 N 756.605 6.33771 2.79832 0
M  V30 8043 N 758.398 5.06923 2.42869 0
M  V30 8044 H 750.549 2.12192 -0.0938679 0
M  V30 8045 H 752.812 0.947775 0.0206569 0
M  V30 8046 H 752.518 3.45318 0.666951 0
M  V30 8047 H 752.392 2.95472 2.3447 0
M  V30 8048 H 754.779 1.97453 2.19309 0
M  V30 8049 H 754.86 2.50712 0.507674 0
M  V30 8050 H 754.504 4.91631 1.27521 0
M  V30 8051 H 754.434 4.35277 2.9638 0
M  V30 8052 H 756.925 3.33293 1.78113 0
M  V30 8053 H 757.238 7.08815 3.07898 0
M  V30 8054 H 755.583 6.37179 2.77538 0
M  V30 8055 H 758.774 4.1675 2.1316 0
M  V30 8056 H 758.947 5.87981 2.72364 0
M  V30 8057 N 752.353 -0.854086 1.3245 0
M  V30 8058 C 753.283 -1.97827 1.24044 0
M  V30 8059 C 754.264 -1.69646 0.124166 0
M  V30 8060 O 755.449 -1.91687 0.31143 0
M  V30 8061 C 752.579 -3.33673 0.963324 0
M  V30 8062 C 751.533 -3.76207 2.04089 0
M  V30 8063 C 750.859 -5.0969 1.61618 0
M  V30 8064 C 752.159 -3.91612 3.45597 0
M  V30 8065 H 753.853 -2.05118 2.18099 0
M  V30 8066 H 751.399 -0.985489 1.04996 0
M  V30 8067 H 753.352 -4.11871 0.891061 0
M  V30 8068 H 752.076 -3.26597 -0.0128649 0
M  V30 8069 H 750.735 -3.0026 2.10332 0
M  V30 8070 H 750.383 -4.99072 0.627418 0
M  V30 8071 H 750.083 -5.3912 2.33717 0
M  V30 8072 H 751.607 -5.90381 1.55829 0
M  V30 8073 H 753.021 -4.60163 3.4194 0
M  V30 8074 H 751.418 -4.3246 4.16051 0
M  V30 8075 H 752.488 -2.9451 3.85217 0
M  V30 8076 N 753.831 -1.1567 -1.07043 0
M  V30 8077 C 754.761 -0.879348 -2.16309 0
M  V30 8078 C 755.742 0.171311 -1.69235 0
M  V30 8079 O 756.927 0.0250175 -1.94184 0
M  V30 8080 C 754.057 -0.371307 -3.45309 0
M  V30 8081 C 753.011 -1.359 -4.05851 0
M  V30 8082 C 752.337 -0.709678 -5.29969 0
M  V30 8083 C 753.637 -2.72606 -4.45514 0
M  V30 8084 H 755.331 -1.79308 -2.39768 0
M  V30 8085 H 752.877 -0.863558 -1.15233 0
M  V30 8086 H 754.83 -0.164798 -4.21078 0
M  V30 8087 H 753.554 0.577906 -3.21446 0
M  V30 8088 H 752.213 -1.55193 -3.32131 0
M  V30 8089 H 751.861 0.245782 -5.02399 0
M  V30 8090 H 751.561 -1.36886 -5.71433 0
M  V30 8091 H 753.085 -0.513015 -6.08441 0
M  V30 8092 H 754.499 -2.57141 -5.12398 0
M  V30 8093 H 752.896 -3.34927 -4.97939 0
M  V30 8094 H 753.966 -3.28434 -3.56734 0
M  V30 8095 N 755.309 1.25446 -0.953992 0
M  V30 8096 C 756.586 1.884 -0.525823 0
M  V30 8097 C 756.966 1.86079 0.996891 0
M  V30 8098 O 756.314 1.32389 1.8624 0
M  V30 8099 C 756.524 3.31154 -1.10172 0
M  V30 8100 C 757.872 4.07926 -1.17819 0
M  V30 8101 O 758.896 3.40273 -1.05323 0
M  V30 8102 O 757.755 5.28942 -1.37415 0
M  V30 8103 H 754.849 0.808629 -0.173345 0
M  V30 8104 H 757.395 1.33522 -1.04738 0
M  V30 8105 H 756.167 3.27271 -2.14499 0
M  V30 8106 H 755.79 3.93588 -0.56338 0
M  V30 8107 N 756.787 0.722489 1.40064 0
M  V30 8108 C 758.034 0.264979 2.00759 0
M  V30 8109 C 758.362 -1.14395 1.57302 0
M  V30 8110 O 757.617 -1.79165 0.787298 0
M  V30 8111 C 757.916 0.300682 3.56133 0
M  V30 8112 C 757.582 1.66087 4.19197 0
M  V30 8113 C 756.244 2.03319 4.36136 0
M  V30 8114 C 758.596 2.55452 4.54306 0
M  V30 8115 C 755.924 3.29448 4.8547 0
M  V30 8116 C 758.276 3.8094 5.05042 0
M  V30 8117 C 756.94 4.1828 5.2019 0
M  V30 8118 H 756.21 0.0969625 0.734629 0
M  V30 8119 H 758.857 0.926877 1.67575 0
M  V30 8120 H 757.162 -0.44479 3.89267 0
M  V30 8121 H 758.859 -0.0712542 4.00937 0
M  V30 8122 H 755.449 1.36137 4.06405 0
M  V30 8123 H 759.633 2.27961 4.40849 0
M  V30 8124 H 754.889 3.58338 4.95382 0
M  V30 8125 H 759.063 4.50351 5.31184 0
M  V30 8126 H 756.69 5.16081 5.58179 0
M  V30 8127 N 758.265 -1.50454 0.469181 0
M  V30 8128 C 759.175 -2.32248 -0.331349 0
M  V30 8129 C 760.191 -1.42548 -0.997807 0
M  V30 8130 O 761.367 -1.75602 -0.9862 0
M  V30 8131 C 758.432 -3.17171 -1.40012 0
M  V30 8132 C 757.493 -4.2269 -0.750463 0
M  V30 8133 C 756.726 -5.03554 -1.76831 0
M  V30 8134 O 756.949 -4.85469 -2.99459 0
M  V30 8135 O 755.883 -5.86767 -1.3412 0
M  V30 8136 H 759.709 -3.01821 0.337279 0
M  V30 8137 H 757.294 -1.47602 0.231066 0
M  V30 8138 H 759.176 -3.69871 -2.01924 0
M  V30 8139 H 757.851 -2.50328 -2.05226 0
M  V30 8140 H 756.758 -3.73986 -0.0924446 0
M  V30 8141 H 758.091 -4.91997 -0.14131 0
M  V30 8142 N 759.743 -0.201713 -1.56304 0
M  V30 8143 C 760.99 0.435307 -1.97766 0
M  V30 8144 C 761.318 1.61169 -1.0888 0
M  V30 8145 O 760.573 1.95272 -0.12934 0
M  V30 8146 C 760.872 0.931432 -3.45049 0
M  V30 8147 C 760.538 -0.132287 -4.50706 0
M  V30 8148 C 759.2 -0.424552 -4.79323 0
M  V30 8149 C 761.552 -0.852703 -5.14177 0
M  V30 8150 C 758.88 -1.4421 -5.68701 0
M  V30 8151 C 761.232 -1.85944 -6.04655 0
M  V30 8152 C 759.896 -2.15884 -6.31625 0
M  V30 8153 H 759.166 0.15929 -0.723676 0
M  V30 8154 H 761.813 -0.300069 -1.89134 0
M  V30 8155 H 760.118 1.7452 -3.50785 0
M  V30 8156 H 761.815 1.43383 -3.74489 0
M  V30 8157 H 758.405 0.105671 -4.2847 0
M  V30 8158 H 762.589 -0.640139 -4.92154 0
M  V30 8159 H 757.845 -1.6799 -5.87869 0
M  V30 8160 H 762.019 -2.42286 -6.52894 0
M  V30 8161 H 759.646 -2.94875 -7.0068 0
M  V30 8162 N 761.222 1.57436 0.0718424 0
M  V30 8163 C 762.447 1.91858 0.787745 0
M  V30 8164 C 762.872 0.798119 1.70328 0
M  V30 8165 O 762.23 -0.24905 1.79581 0
M  V30 8166 C 762.278 3.25232 1.55744 0
M  V30 8167 O 761.382 3.14462 2.6681 0
M  V30 8168 H 760.723 0.628258 0.214914 0
M  V30 8169 H 763.253 2.04561 0.0401012 0
M  V30 8170 H 763.263 3.59105 1.9367 0
M  V30 8171 H 761.938 4.0636 0.885691 0
M  V30 8172 H 760.515 2.92148 2.31741 0
M  V30 8173 N 762.7 -0.34323 1.53817 0
M  V30 8174 C 763.925 -1.1079 1.75329 0
M  V30 8175 C 764.35 -1.81571 0.491293 0
M  V30 8176 O 763.708 -1.72561 -0.556089 0
M  V30 8177 C 763.756 -2.09681 2.9337 0
M  V30 8178 O 762.86 -3.17207 2.63541 0
M  V30 8179 H 762.201 -0.320402 0.581583 0
M  V30 8180 H 764.731 -0.393525 2.0078 0
M  V30 8181 H 764.741 -2.52897 3.20168 0
M  V30 8182 H 763.416 -1.5756 3.84899 0
M  V30 8183 H 761.993 -2.78806 2.47632 0
M  V30 8184 N 764.178 -1.45556 -0.604258 0
M  V30 8185 C 765.426 -1.4945 -1.36048 0
M  V30 8186 C 765.747 -0.138933 -1.94504 0
M  V30 8187 O 765.017 0.832097 -1.7735 0
M  V30 8188 H 763.597 -0.550381 -0.505064 0
M  V30 8189 H 766.259 -1.81535 -0.709308 0
M  V30 8190 H 765.355 -2.23519 -2.17821 0
M  V30 8191 N 765.656 0.84705 -1.32902 0
M  V30 8192 C 767.072 1.13645 -1.12058 0
M  V30 8193 C 767.272 2.01281 0.093937 0
M  V30 8194 O 766.328 2.4026 0.776608 0
M  V30 8195 C 767.641 1.80644 -2.40392 0
M  V30 8196 C 769.189 1.93246 -2.46221 0
M  V30 8197 C 769.664 2.6366 -3.74496 0
M  V30 8198 N 771.155 2.71179 -3.75521 0
M  V30 8199 C 771.89 3.26332 -4.71482 0
M  V30 8200 N 771.386 3.82236 -5.77813 0
M  V30 8201 N 773.179 3.24507 -4.58968 0
M  V30 8202 H 765.33 0.263612 -2.10758 0
M  V30 8203 H 767.593 0.17944 -0.930863 0
M  V30 8204 H 767.299 1.23708 -3.29225 0
M  V30 8205 H 767.173 2.80736 -2.51926 0
M  V30 8206 H 769.56 2.49338 -1.57843 0
M  V30 8207 H 769.641 0.921272 -2.38634 0
M  V30 8208 H 769.285 2.08229 -4.63253 0
M  V30 8209 H 769.215 3.65234 -3.79357 0
M  V30 8210 H 771.706 2.31527 -2.9867 0
M  V30 8211 H 772.019 4.22499 -6.47082 0
M  V30 8212 H 770.364 3.80546 -5.81558 0
M  V30 8213 H 773.555 2.80085 -3.7506 0
M  V30 8214 H 773.728 3.67188 -5.33926 0
M  V30 8215 N 767.134 1.16236 1.06428 0
M  V30 8216 C 768.064 0.890807 2.1584 0
M  V30 8217 C 769.045 -0.162333 1.69324 0
M  V30 8218 O 770.23 -0.0147191 1.94194 0
M  V30 8219 C 767.36 0.389615 3.45108 0
M  V30 8220 C 766.314 1.38051 4.05125 0
M  V30 8221 C 765.64 0.737773 5.29586 0
M  V30 8222 C 766.94 2.74965 4.44062 0
M  V30 8223 H 768.634 1.80577 2.38814 0
M  V30 8224 H 766.18 0.869657 1.14774 0
M  V30 8225 H 768.133 0.187127 4.20984 0
M  V30 8226 H 766.857 -0.560851 3.21748 0
M  V30 8227 H 765.516 1.56952 3.31303 0
M  V30 8228 H 765.164 -0.219135 5.02522 0
M  V30 8229 H 764.864 1.39914 5.70699 0
M  V30 8230 H 766.388 0.545275 6.0816 0
M  V30 8231 H 767.802 2.59855 5.11027 0
M  V30 8232 H 766.199 3.37563 4.96156 0
M  V30 8233 H 767.269 3.30321 3.54987 0
M  V30 8234 N 768.612 -1.24939 0.960631 0
M  V30 8235 C 769.859 -1.92818 0.618663 0
M  V30 8236 C 770.187 -1.75177 -0.845173 0
M  V30 8237 O 769.442 -1.09412 -1.62258 0
M  V30 8238 C 769.741 -3.45066 0.930809 0
M  V30 8239 C 769.407 -3.82869 2.38164 0
M  V30 8240 C 768.069 -3.92899 2.7782 0
M  V30 8241 C 770.421 -4.01483 3.32356 0
M  V30 8242 C 767.749 -4.18955 4.10723 0
M  V30 8243 C 770.101 -4.29033 4.6488 0
M  V30 8244 C 768.765 -4.37282 5.04322 0
M  V30 8245 H 768.035 -0.705571 0.226385 0
M  V30 8246 H 770.682 -1.48365 1.21079 0
M  V30 8247 H 768.987 -3.9096 0.256355 0
M  V30 8248 H 770.684 -3.95783 0.644712 0
M  V30 8249 H 767.274 -3.75622 2.06413 0
M  V30 8250 H 771.458 -3.93143 3.02907 0
M  V30 8251 H 766.714 -4.23558 4.40918 0
M  V30 8252 H 770.888 -4.42381 5.3784 0
M  V30 8253 H 768.515 -4.57225 6.0733 0
M  V30 8254 N 770.09 -0.729906 -1.39679 0
M  V30 8255 C 771.337 -0.275622 -2.00615 0
M  V30 8256 C 771.665 1.13559 -1.57907 0
M  V30 8257 O 770.92 1.78745 -0.796789 0
M  V30 8258 C 771.219 -0.319564 -3.55968 0
M  V30 8259 C 770.885 -1.68308 -4.1831 0
M  V30 8260 C 769.547 -2.05629 -4.35052 0
M  V30 8261 C 771.899 -2.57857 -4.52945 0
M  V30 8262 C 769.227 -3.32018 -4.83716 0
M  V30 8263 C 771.579 -3.83613 -5.03015 0
M  V30 8264 C 770.243 -4.21033 -5.17965 0
M  V30 8265 H 769.513 -0.100857 -0.734104 0
M  V30 8266 H 772.16 -0.93575 -1.67081 0
M  V30 8267 H 770.465 0.42414 -3.89497 0
M  V30 8268 H 772.162 0.0499905 -4.00969 0
M  V30 8269 H 768.752 -1.3829 -4.05677 0
M  V30 8270 H 772.936 -2.30295 -4.39634 0
M  V30 8271 H 768.192 -3.6096 -4.93475 0
M  V30 8272 H 772.366 -4.53162 -5.28788 0
M  V30 8273 H 769.993 -5.19034 -5.55435 0
M  V30 8274 N 771.568 1.50203 -0.477153 0
M  V30 8275 C 772.793 2.07263 0.0754986 0
M  V30 8276 C 773.218 1.33801 1.32208 0
M  V30 8277 O 772.576 0.387482 1.77111 0
M  V30 8278 C 772.624 3.59028 0.336348 0
M  V30 8279 O 771.728 3.87339 1.4157 0
M  V30 8280 H 771.069 0.663815 -0.015662 0
M  V30 8281 H 773.599 1.93321 -0.669936 0
M  V30 8282 H 773.609 4.03927 0.575034 0
M  V30 8283 H 772.284 4.11912 -0.574551 0
M  V30 8284 H 770.861 3.54272 1.16385 0
M  V30 8285 N 773.046 0.209999 1.56195 0
M  V30 8286 C 773.978 -0.736967 2.17029 0
M  V30 8287 C 774.991 -1.16599 1.13616 0
M  V30 8288 O 776.18 -1.09914 1.40646 0
M  V30 8289 C 773.28 -2.00852 2.72969 0
M  V30 8290 C 772.453 -1.73691 4.01435 0
M  V30 8291 C 771.512 -2.85439 4.42053 0
M  V30 8292 O 770.538 -2.54405 5.09183 0
M  V30 8293 N 771.74 -4.14135 4.06783 0
M  V30 8294 H 774.505 -0.216656 2.98916 0
M  V30 8295 H 772.066 0.0285672 1.61875 0
M  V30 8296 H 774.058 -2.74778 2.97118 0
M  V30 8297 H 772.628 -2.43963 1.95451 0
M  V30 8298 H 771.848 -0.834676 3.85262 0
M  V30 8299 H 773.136 -1.52961 4.85263 0
M  V30 8300 H 772.534 -4.42196 3.52816 0
M  V30 8301 H 771.091 -4.84642 4.35851 0
M  V30 8302 N 774.524 -1.57472 -0.0634922 0
M  V30 8303 C 775.456 -2.00999 -1.10145 0
M  V30 8304 C 776.469 -0.917219 -1.34503 0
M  V30 8305 O 777.658 -1.19501 -1.32596 0
M  V30 8306 C 774.758 -2.34089 -2.45063 0
M  V30 8307 C 773.931 -3.65317 -2.40546 0
M  V30 8308 C 772.99 -3.85982 -3.57637 0
M  V30 8309 O 772.016 -4.5747 -3.38689 0
M  V30 8310 N 773.218 -3.28971 -4.78287 0
M  V30 8311 H 775.983 -2.90656 -0.730714 0
M  V30 8312 H 773.544 -1.59926 -0.252017 0
M  V30 8313 H 775.536 -2.4508 -3.22053 0
M  V30 8314 H 774.106 -1.50279 -2.74107 0
M  V30 8315 H 773.326 -3.65003 -1.48885 0
M  V30 8316 H 774.614 -4.51468 -2.34636 0
M  V30 8317 H 774.012 -2.70962 -4.96584 0
M  V30 8318 H 772.569 -3.45398 -5.5276 0
M  V30 8319 N 776.003 0.335068 -1.53997 0
M  V30 8320 C 776.935 1.4327 -1.78903 0
M  V30 8321 C 777.948 1.48347 -0.670598 0
M  V30 8322 O 779.137 1.51277 -0.947494 0
M  V30 8323 C 776.237 2.81878 -1.88144 0
M  V30 8324 C 775.41 3.00141 -3.18174 0
M  V30 8325 C 774.469 4.19041 -3.18263 0
M  V30 8326 O 773.495 4.12751 -3.9195 0
M  V30 8327 N 774.697 5.28004 -2.41231 0
M  V30 8328 H 777.462 1.22272 -2.73623 0
M  V30 8329 H 775.023 0.524996 -1.53152 0
M  V30 8330 H 777.015 3.59609 -1.85644 0
M  V30 8331 H 775.585 2.9598 -1.00572 0
M  V30 8332 H 774.805 2.09808 -3.33728 0
M  V30 8333 H 776.093 3.0923 -4.04047 0
M  V30 8334 H 775.491 5.35986 -1.8093 0
M  V30 8335 H 774.048 6.04196 -2.44521 0
M  V30 8336 N 777.481 1.45874 0.596531 0
M  V30 8337 C 778.892 1.44798 1.17857 0
M  V30 8338 C 779.243 0.181443 1.95359 0
M  V30 8339 O 778.368 -0.716336 2.042 0
M  V30 8340 C 778.963 2.62333 2.14398 0
M  V30 8341 C 777.522 2.64342 2.67955 0
M  V30 8342 C 776.669 2.37244 1.43564 0
M  V30 8343 H 779.62 1.53954 0.385222 0
M  V30 8344 H 779.641 2.37063 2.97626 0
M  V30 8345 H 779.153 3.54499 1.57963 0
M  V30 8346 H 777.254 1.76213 3.28298 0
M  V30 8347 H 777.367 3.63897 3.11634 0
M  V30 8348 H 775.731 1.87022 1.72901 0
M  V30 8349 H 776.514 3.31568 0.889805 0
M  V30 8350 N 778.959 -0.83999 1.33349 0
M  V30 8351 C 779.869 -1.98182 1.25543 0
M  V30 8352 C 780.885 -1.73204 0.166208 0
M  V30 8353 O 782.061 -1.97596 0.389589 0
M  V30 8354 C 779.126 -3.32157 0.993614 0
M  V30 8355 C 778.187 -3.70258 2.17273 0
M  V30 8356 C 777.42 -4.9784 1.92331 0
M  V30 8357 O 777.643 -5.63679 0.873074 0
M  V30 8358 O 776.577 -5.33418 2.78835 0
M  V30 8359 H 780.403 -2.07708 2.21565 0
M  V30 8360 H 777.988 -0.972852 1.13384 0
M  V30 8361 H 779.87 -4.12433 0.864711 0
M  V30 8362 H 778.545 -3.23637 0.0636596 0
M  V30 8363 H 777.452 -2.90497 2.35716 0
M  V30 8364 H 778.785 -3.83442 3.08598 0
M  V30 8365 N 780.437 -1.16799 -1.0581 0
M  V30 8366 C 781.369 -0.836774 -2.13379 0
M  V30 8367 C 782.382 0.158116 -1.6203 0
M  V30 8368 O 783.571 -0.0673211 -1.78373 0
M  V30 8369 C 780.671 -0.225959 -3.38146 0
M  V30 8370 C 779.844 -1.26217 -4.18794 0
M  V30 8371 C 778.903 -0.670257 -5.21914 0
M  V30 8372 O 777.929 -1.34042 -5.53192 0
M  V30 8373 N 779.131 0.540683 -5.77977 0
M  V30 8374 H 781.896 -1.76257 -2.42391 0
M  V30 8375 H 779.457 -1.06599 -1.21853 0
M  V30 8376 H 781.449 0.18317 -4.04285 0
M  V30 8377 H 780.019 0.603494 -3.06719 0
M  V30 8378 H 779.239 -1.84729 -3.48237 0
M  V30 8379 H 780.527 -1.9613 -4.69479 0
M  V30 8380 H 779.925 1.10322 -5.54838 0
M  V30 8381 H 778.482 0.891958 -6.45668 0
M  V30 8382 N 781.915 1.24427 -0.967243 0
M  V30 8383 C 782.845 2.2773 -0.515899 0
M  V30 8384 C 783.826 1.64197 0.444227 0
M  V30 8385 O 785.011 1.91193 0.340451 0
M  V30 8386 C 782.141 3.46751 0.195149 0
M  V30 8387 C 781.095 4.22548 -0.680953 0
M  V30 8388 C 780.421 5.34456 0.161561 0
M  V30 8389 C 781.721 4.83914 -1.96532 0
M  V30 8390 H 783.415 2.65735 -1.37933 0
M  V30 8391 H 780.961 1.27742 -0.664681 0
M  V30 8392 H 782.914 4.18153 0.522117 0
M  V30 8393 H 781.638 3.07771 1.09292 0
M  V30 8394 H 780.297 3.52946 -0.991186 0
M  V30 8395 H 779.945 4.91716 1.05947 0
M  V30 8396 H 779.645 5.86087 -0.421418 0
M  V30 8397 H 781.169 6.08685 0.483211 0
M  V30 8398 H 782.583 5.47392 -1.70396 0
M  V30 8399 H 780.98 5.45775 -2.49499 0
M  V30 8400 H 782.05 4.05393 -2.66053 0
M  V30 8401 N 783.393 0.737304 1.3929 0
M  V30 8402 C 784.639 0.286681 2.00763 0
M  V30 8403 C 784.972 -1.12388 1.58375 0
M  V30 8404 O 784.247 -1.76661 0.813699 0
M  V30 8405 C 784.53 0.391147 3.57969 0
M  V30 8406 C 784.383 1.84165 4.1037 0
M  V30 8407 C 785.702 -0.225072 4.39524 0
M  V30 8408 H 782.821 0.105642 0.729389 0
M  V30 8409 H 785.463 0.933892 1.65464 0
M  V30 8410 H 783.613 -0.159875 3.88171 0
M  V30 8411 H 785.285 2.44972 3.90879 0
M  V30 8412 H 783.528 2.3622 3.63844 0
M  V30 8413 H 784.199 1.866 5.19504 0
M  V30 8414 H 786.675 0.244677 4.1538 0
M  V30 8415 H 785.551 -0.121646 5.48765 0
M  V30 8416 H 785.812 -1.31141 4.22202 0
M  V30 8417 N 784.871 -1.49948 0.485112 0
M  V30 8418 C 786.282 -1.8667 0.0334041 0
M  V30 8419 C 786.633 -1.3988 -1.37579 0
M  V30 8420 O 785.758 -0.769788 -2.02245 0
M  V30 8421 C 786.353 -3.38757 0.0538426 0
M  V30 8422 C 784.912 -3.74839 -0.342453 0
M  V30 8423 C 784.059 -2.73894 0.433281 0
M  V30 8424 H 787.01 -1.42492 0.698699 0
M  V30 8425 H 787.031 -3.73132 -0.745146 0
M  V30 8426 H 786.543 -3.72782 1.07959 0
M  V30 8427 H 784.644 -3.46419 -1.37203 0
M  V30 8428 H 784.757 -4.79088 -0.0340503 0
M  V30 8429 H 783.121 -2.54441 -0.114849 0
M  V30 8430 H 783.904 -3.10763 1.45881 0
M  V30 8431 N 786.349 -0.21828 -1.56081 0
M  V30 8432 C 787.597 0.413488 -1.97825 0
M  V30 8433 C 787.918 1.60527 -1.10707 0
M  V30 8434 O 787.188 1.9504 -0.183378 0
M  V30 8435 H 785.768 0.155757 -0.730581 0
M  V30 8436 H 788.43 -0.310413 -1.92412 0
M  V30 8437 H 787.526 0.742024 -3.03151 0
M  V30 8438 N 787.827 1.57504 0.0551401 0
M  V30 8439 C 789.238 1.76626 0.604979 0
M  V30 8440 C 789.589 0.845978 1.77024 0
M  V30 8441 O 788.714 0.0341936 2.16373 0
M  V30 8442 C 789.309 3.203 1.10425 0
M  V30 8443 C 787.868 3.4071 1.59981 0
M  V30 8444 C 787.015 2.72258 0.526414 0
M  V30 8445 H 789.966 1.57775 -0.171072 0
M  V30 8446 H 789.987 3.25377 1.97256 0
M  V30 8447 H 789.499 3.87255 0.255939 0
M  V30 8448 H 787.6 2.78892 2.47083 0
M  V30 8449 H 787.713 4.49227 1.66528 0
M  V30 8450 H 786.077 2.35283 0.97539 0
M  V30 8451 H 786.86 3.41879 -0.311991 0
M  V30 8452 N 789.305 -0.326896 1.54172 0
M  V30 8453 C 790.553 -1.06313 1.71878 0
M  V30 8454 C 790.874 -1.88652 0.493498 0
M  V30 8455 O 790.144 -1.89608 -0.492522 0
M  V30 8456 H 788.724 -0.39549 0.633716 0
M  V30 8457 H 791.386 -0.364139 1.91468 0
M  V30 8458 H 790.482 -1.73105 2.59694 0
M  V30 8459 N 790.784 -1.46188 -0.588786 0
M  V30 8460 C 792.195 -1.45421 -1.17088 0
M  V30 8461 C 792.546 -0.191801 -1.9526 0
M  V30 8462 O 791.671 0.705497 -2.04577 0
M  V30 8463 C 792.266 -2.63467 -2.13004 0
M  V30 8464 C 790.825 -2.6576 -2.6655 0
M  V30 8465 C 789.972 -2.38002 -1.42304 0
M  V30 8466 H 792.923 -1.54156 -0.377052 0
M  V30 8467 H 792.944 -2.38638 -2.96365 0
M  V30 8468 H 792.456 -3.55331 -1.56081 0
M  V30 8469 H 790.557 -1.77952 -3.27359 0
M  V30 8470 H 790.67 -3.65545 -3.09699 0
M  V30 8471 H 789.034 -1.87936 -1.71907 0
M  V30 8472 H 789.817 -3.32035 -0.872209 0
M  V30 8473 N 792.262 0.832906 -1.33792 0
M  V30 8474 C 793.225 1.92471 -1.24449 0
M  V30 8475 C 794.225 1.59981 -0.162085 0
M  V30 8476 O 795.415 1.69208 -0.414029 0
M  V30 8477 C 792.547 3.28278 -0.919044 0
M  V30 8478 H 793.74 2.0218 -2.21502 0
M  V30 8479 H 791.293 1.0257 -1.17936 0
M  V30 8480 H 792.028 3.24263 0.048738 0
M  V30 8481 H 791.813 3.53241 -1.70187 0
M  V30 8482 H 793.303 4.08253 -0.878576 0
M  V30 8483 N 793.74 1.17359 1.05189 0
M  V30 8484 C 795.151 0.96793 1.5965 0
M  V30 8485 C 795.502 -0.485355 1.90102 0
M  V30 8486 O 794.627 -1.36066 1.6827 0
M  V30 8487 C 795.222 1.75068 2.90063 0
M  V30 8488 C 793.781 1.58969 3.41183 0
M  V30 8489 C 792.928 1.75231 2.14917 0
M  V30 8490 H 795.879 1.32067 0.880001 0
M  V30 8491 H 795.9 1.23308 3.59966 0
M  V30 8492 H 795.412 2.80835 2.67868 0
M  V30 8493 H 793.513 0.556906 3.68415 0
M  V30 8494 H 793.626 2.38067 4.15766 0
M  V30 8495 H 791.99 1.18073 2.25679 0
M  V30 8496 H 792.773 2.8241 1.95191 0
M  V30 8497 N 795.218 -1.23913 0.973828 0
M  V30 8498 C 796.151 -2.23647 0.45355 0
M  V30 8499 C 797.129 -1.55485 -0.475724 0
M  V30 8500 O 798.313 -1.84083 -0.405689 0
M  V30 8501 C 795.44 -3.36942 -0.344594 0
M  V30 8502 C 794.486 -4.23221 0.527859 0
M  V30 8503 S 795.319 -4.97877 1.97177 0
M  V30 8504 C 796.475 -6.14627 1.18258 0
M  V30 8505 H 796.708 -2.67433 1.29873 0
M  V30 8506 H 794.241 -1.33289 0.779322 0
M  V30 8507 H 796.199 -4.02647 -0.799103 0
M  V30 8508 H 794.86 -2.91703 -1.16482 0
M  V30 8509 H 794.053 -5.03928 -0.0852555 0
M  V30 8510 H 793.655 -3.6255 0.918344 0
M  V30 8511 H 795.947 -6.76066 0.440629 0
M  V30 8512 H 796.89 -6.80311 1.96425 0
M  V30 8513 H 797.298 -5.6009 0.704256 0
M  V30 8514 N 796.696 -0.74468 -1.38897 0
M  V30 8515 C 798.107 -0.36568 -1.83084 0
M  V30 8516 C 798.458 1.10436 -1.62168 0
M  V30 8517 O 797.583 1.85281 -1.11804 0
M  V30 8518 C 798.178 -0.656946 -3.3237 0
M  V30 8519 C 796.737 -0.331329 -3.74939 0
M  V30 8520 C 795.884 -0.914661 -2.61781 0
M  V30 8521 H 798.835 -0.941551 -1.27752 0
M  V30 8522 H 798.856 0.0679546 -3.80439 0
M  V30 8523 H 798.368 -1.72693 -3.47561 0
M  V30 8524 H 796.469 0.732426 -3.6533 0
M  V30 8525 H 796.582 -0.820655 -4.72019 0
M  V30 8526 H 794.946 -0.34063 -2.52412 0
M  V30 8527 H 795.729 -1.98949 -2.79775 0
M  V30 8528 N 798.174 1.49689 -0.493057 0
M  V30 8529 C 799.399 2.07331 0.0535114 0
M  V30 8530 C 799.824 1.35196 1.30781 0
M  V30 8531 O 799.182 0.406246 1.7669 0
M  V30 8532 C 799.23 3.59364 0.29825 0
M  V30 8533 O 798.334 3.88819 1.37454 0
M  V30 8534 H 797.675 0.663612 -0.0227018 0
M  V30 8535 H 800.205 1.926 -0.690402 0
M  V30 8536 H 800.215 4.04515 0.532159 0
M  V30 8537 H 798.89 4.1128 -0.618207 0
M  V30 8538 H 797.467 3.55487 1.12621 0
M  V30 8539 N 799.652 0.226554 1.55963 0
M  V30 8540 C 800.929 -0.453058 1.90281 0
M  V30 8541 C 801.309 -1.77377 1.14458 0
M  V30 8542 O 800.657 -2.27067 0.255496 0
M  V30 8543 C 800.867 -0.641108 3.43061 0
M  V30 8544 C 802.215 -0.946265 4.13921 0
M  V30 8545 O 803.239 -0.727713 3.48687 0
M  V30 8546 O 802.098 -1.36131 5.29274 0
M  V30 8547 H 799.192 -0.240242 0.791336 0
M  V30 8548 H 801.738 0.26911 1.67553 0
M  V30 8549 H 800.51 0.290283 3.90222 0
M  V30 8550 H 800.133 -1.41458 3.71585 0
M  V30 8551 N 801.13 -1.57531 -0.0467866 0
M  V30 8552 C 802.377 -1.88451 -0.74112 0
M  V30 8553 C 802.705 -0.821592 -1.76296 0
M  V30 8554 O 801.96 0.179585 -1.94874 0
M  V30 8555 C 802.259 -3.26091 -1.46285 0
M  V30 8556 C 801.925 -4.47171 -0.578669 0
M  V30 8557 C 800.587 -4.80032 -0.335083 0
M  V30 8558 C 802.939 -5.2119 0.0328809 0
M  V30 8559 C 800.267 -5.84309 0.529121 0
M  V30 8560 C 802.619 -6.26383 0.884684 0
M  V30 8561 C 801.283 -6.57729 1.1379 0
M  V30 8562 H 800.553 -0.68959 -0.271195 0
M  V30 8563 H 803.2 -1.915 -0.00132378 0
M  V30 8564 H 801.505 -3.18948 -2.27551 0
M  V30 8565 H 803.202 -3.47258 -2.00532 0
M  V30 8566 H 799.792 -4.21467 -0.778666 0
M  V30 8567 H 803.976 -4.96096 -0.142375 0
M  V30 8568 H 799.232 -6.06981 0.733794 0
M  V30 8569 H 803.406 -6.82888 1.36516 0
M  V30 8570 H 801.033 -7.38355 1.80929 0
M  V30 8571 N 802.608 0.318715 -1.54344 0
M  V30 8572 C 803.54 1.41364 -1.80413 0
M  V30 8573 C 804.553 1.47627 -0.686294 0
M  V30 8574 O 805.742 1.50264 -0.963486 0
M  V30 8575 C 802.842 2.79867 -1.91123 0
M  V30 8576 C 802.015 2.96749 -3.21339 0
M  V30 8577 C 801.074 4.15642 -3.22689 0
M  V30 8578 O 800.1 4.08571 -3.96306 0
M  V30 8579 N 801.302 5.25416 -2.46817 0
M  V30 8580 H 804.067 1.19363 -2.74905 0
M  V30 8581 H 801.628 0.508722 -1.537 0
M  V30 8582 H 803.62 3.57619 -1.89448 0
M  V30 8583 H 802.19 2.94896 -1.03706 0
M  V30 8584 H 801.41 2.06257 -3.35934 0
M  V30 8585 H 802.698 3.04927 -4.07304 0
M  V30 8586 H 802.096 5.34037 -1.86605 0
M  V30 8587 H 800.653 6.01569 -2.50915 0
M  V30 8588 N 804.086 1.46499 0.581025 0
M  V30 8589 C 805.332 1.52121 1.34116 0
M  V30 8590 C 805.665 0.173031 1.93428 0
M  V30 8591 O 804.94 -0.815729 1.76568 0
M  V30 8592 C 805.223 2.62108 2.46924 0
M  V30 8593 C 805.076 4.06462 1.92636 0
M  V30 8594 C 806.395 2.68167 3.48962 0
M  V30 8595 H 803.514 0.5538 0.486287 0
M  V30 8596 H 806.156 1.78443 0.652538 0
M  V30 8597 H 804.306 2.39794 3.05665 0
M  V30 8598 H 805.978 4.40068 1.3834 0
M  V30 8599 H 804.221 4.15862 1.23455 0
M  V30 8600 H 804.892 4.79152 2.74076 0
M  V30 8601 H 807.368 2.8823 3.00104 0
M  V30 8602 H 806.244 3.46942 4.2535 0
M  V30 8603 H 806.505 1.74284 4.06297 0
M  V30 8604 N 805.565 -0.825799 1.34232 0
M  V30 8605 C 806.495 -1.95151 1.28212 0
M  V30 8606 C 807.476 -1.69345 0.160123 0
M  V30 8607 O 808.661 -1.90983 0.352019 0
M  V30 8608 C 805.791 -3.31554 1.03388 0
M  V30 8609 C 804.745 -3.71793 2.12023 0
M  V30 8610 C 804.071 -5.06147 1.72392 0
M  V30 8611 C 805.371 -3.84193 3.53826 0
M  V30 8612 H 807.065 -2.00445 2.22401 0
M  V30 8613 H 804.611 -0.962996 1.07063 0
M  V30 8614 H 806.564 -4.09889 0.978225 0
M  V30 8615 H 805.288 -3.26551 0.0564142 0
M  V30 8616 H 803.947 -2.95731 2.16654 0
M  V30 8617 H 803.595 -4.97628 0.733137 0
M  V30 8618 H 803.295 -5.34041 2.451 0
M  V30 8619 H 804.819 -5.86943 1.68317 0
M  V30 8620 H 806.233 -4.52806 3.51624 0
M  V30 8621 H 804.63 -4.23538 4.2513 0
M  V30 8622 H 805.7 -2.86272 3.91377 0
M  V30 8623 N 807.043 -1.17915 -1.04565 0
M  V30 8624 C 808.459 -0.927761 -1.29864 0
M  V30 8625 C 808.659 0.409536 -1.97294 0
M  V30 8626 O 807.715 1.14505 -2.25044 0
M  V30 8627 C 809.028 -2.08967 -2.16225 0
M  V30 8628 C 810.576 -2.12741 -2.29587 0
M  V30 8629 C 811.051 -3.28335 -3.19312 0
M  V30 8630 N 812.542 -3.28164 -3.26898 0
M  V30 8631 C 813.277 -4.14249 -3.96466 0
M  V30 8632 N 812.773 -5.10457 -4.68407 0
M  V30 8633 N 814.566 -4.02179 -3.92694 0
M  V30 8634 H 806.717 -2.03983 -0.592011 0
M  V30 8635 H 808.98 -0.891023 -0.323701 0
M  V30 8636 H 808.686 -3.05654 -1.73979 0
M  V30 8637 H 808.56 -2.04606 -3.16885 0
M  V30 8638 H 810.947 -1.16636 -2.71072 0
M  V30 8639 H 811.028 -2.21162 -1.28535 0
M  V30 8640 H 810.672 -4.2471 -2.78539 0
M  V30 8641 H 810.602 -3.17151 -4.20384 0
M  V30 8642 H 813.093 -2.58511 -2.75646 0
M  V30 8643 H 813.406 -5.72526 -5.1907 0
M  V30 8644 H 811.751 -5.14422 -4.67328 0
M  V30 8645 H 814.942 -3.26308 -3.3562 0
M  V30 8646 H 815.115 -4.69486 -4.4664 0
M  V30 8647 N 808.521 1.23394 -0.980386 0
M  V30 8648 C 809.484 2.23092 -0.525619 0
M  V30 8649 C 810.484 1.56129 0.384745 0
M  V30 8650 O 811.674 1.73284 0.178439 0
M  V30 8651 C 808.806 3.40074 0.23712 0
M  V30 8652 H 809.999 2.64839 -1.40714 0
M  V30 8653 H 807.552 1.36227 -0.766275 0
M  V30 8654 H 808.287 3.03783 1.13518 0
M  V30 8655 H 808.072 3.89883 -0.416356 0
M  V30 8656 H 809.562 4.14043 0.543892 0
M  V30 8657 N 809.999 0.752036 1.385 0
M  V30 8658 C 810.946 0.123288 2.3047 0
M  V30 8659 C 811.916 -0.711326 1.50098 0
M  V30 8660 O 813.101 -0.667775 1.78733 0
M  V30 8661 C 810.241 -0.765085 3.36512 0
M  V30 8662 C 809.354 0.0839885 4.31918 0
M  V30 8663 C 808.489 -0.807243 5.25031 0
M  V30 8664 C 807.528 0.0455583 6.12083 0
M  V30 8665 N 806.665 -0.802547 6.97498 0
M  V30 8666 H 811.505 0.913169 2.83664 0
M  V30 8667 H 809.042 0.46195 1.39658 0
M  V30 8668 H 811 -1.29476 3.966 0
M  V30 8669 H 809.63 -1.52077 2.84732 0
M  V30 8670 H 808.682 0.731276 3.73305 0
M  V30 8671 H 809.994 0.74265 4.9324 0
M  V30 8672 H 809.148 -1.40414 5.90228 0
M  V30 8673 H 807.887 -1.49964 4.64071 0
M  V30 8674 H 806.892 0.655137 5.45883 0
M  V30 8675 H 808.117 0.734994 6.75111 0
M  V30 8676 H 806.063 -1.47992 6.39089 0
M  V30 8677 H 805.98 -0.200747 7.55733 0
M  V30 8678 H 807.248 -1.38447 7.67107 0
M  V30 8679 N 811.477 -1.49425 0.500989 0
M  V30 8680 C 812.707 -2.06561 -0.0402858 0
M  V30 8681 C 813.115 -1.36157 -1.31369 0
M  V30 8682 O 812.458 -0.433618 -1.78509 0
M  V30 8683 C 812.52 -3.5765 -0.364269 0
M  V30 8684 C 812.184 -4.49739 0.811417 0
M  V30 8685 C 813.181 -4.91255 1.7019 0
M  V30 8686 C 810.866 -4.92036 1.01022 0
M  V30 8687 C 812.86 -5.73806 2.77534 0
M  V30 8688 C 810.547 -5.74364 2.08683 0
M  V30 8689 C 811.545 -6.15154 2.96774 0
M  V30 8690 O 811.233 -6.95836 4.02577 0
M  V30 8691 H 810.965 -0.67578 0.0172357 0
M  V30 8692 H 813.519 -1.93193 0.697553 0
M  V30 8693 H 811.749 -3.69026 -1.1557 0
M  V30 8694 H 813.438 -3.97025 -0.844156 0
M  V30 8695 H 814.204 -4.59222 1.56013 0
M  V30 8696 H 810.083 -4.59789 0.333929 0
M  V30 8697 H 813.627 -6.05564 3.4632 0
M  V30 8698 H 809.524 -6.0581 2.22855 0
M  V30 8699 H 810.292 -7.14142 3.9993 0
M  V30 8700 N 812.955 -0.234822 -1.55841 0
M  V30 8701 C 814.371 0.120295 -1.59146 0
M  V30 8702 C 814.571 1.57896 -1.25184 0
M  V30 8703 O 813.627 2.32138 -0.993393 0
M  V30 8704 C 814.94 -0.217984 -2.99909 0
M  V30 8705 C 816.488 -0.161298 -3.12584 0
M  V30 8706 C 816.963 -0.473438 -4.55546 0
M  V30 8707 N 818.454 -0.423494 -4.6126 0
M  V30 8708 C 819.189 -0.638334 -5.69836 0
M  V30 8709 N 818.685 -0.915659 -6.86722 0
M  V30 8710 N 820.478 -0.569864 -5.59204 0
M  V30 8711 H 812.629 -1.18622 -1.76189 0
M  V30 8712 H 814.892 -0.476426 -0.819587 0
M  V30 8713 H 814.598 -1.2309 -3.29457 0
M  V30 8714 H 814.472 0.460707 -3.74376 0
M  V30 8715 H 816.859 0.842274 -2.82825 0
M  V30 8716 H 816.94 -0.873661 -2.40418 0
M  V30 8717 H 816.584 -1.47451 -4.86025 0
M  V30 8718 H 816.514 0.260268 -5.25956 0
M  V30 8719 H 819.005 -0.217383 -3.77274 0
M  V30 8720 H 819.318 -1.06734 -7.65394 0
M  V30 8721 H 817.663 -0.953 -6.88435 0
M  V30 8722 H 820.854 -0.35334 -4.66765 0
M  V30 8723 H 821.027 -0.740698 -6.43753 0
M  V30 8724 N 814.433 1.57553 0.0384317 0
M  V30 8725 C 815.343 2.09333 1.0591 0
M  V30 8726 C 816.359 1.0299 1.40247 0
M  V30 8727 O 817.535 1.34669 1.49754 0
M  V30 8728 C 814.6 2.55468 2.34386 0
M  V30 8729 C 813.661 3.76254 2.06716 0
M  V30 8730 C 812.894 4.20179 3.29067 0
M  V30 8731 O 813.117 3.637 4.39407 0
M  V30 8732 O 812.051 5.12697 3.15317 0
M  V30 8733 H 815.877 2.96683 0.649087 0
M  V30 8734 H 813.462 1.47211 0.254802 0
M  V30 8735 H 815.344 2.85514 3.09935 0
M  V30 8736 H 814.019 1.71234 2.74701 0
M  V30 8737 H 812.926 3.51241 1.28766 0
M  V30 8738 H 814.259 4.61443 1.71263 0
M  V30 8739 N 815.911 -0.310526 1.54511 0
M  V30 8740 C 817.136 -1.07046 1.7764 0
M  V30 8741 C 817.561 -1.80488 0.529696 0
M  V30 8742 O 816.919 -1.73702 -0.519361 0
M  V30 8743 C 816.967 -2.03411 2.97752 0
M  V30 8744 O 816.071 -3.11545 2.7021 0
M  V30 8745 H 815.412 -0.307994 0.588248 0
M  V30 8746 H 817.942 -0.350848 2.01569 0
M  V30 8747 H 817.952 -2.46048 3.2546 0
M  V30 8748 H 816.627 -1.49361 3.88155 0
M  V30 8749 H 815.204 -2.7349 2.53491 0
M  V30 8750 N 817.389 -1.46805 -0.573248 0
M  V30 8751 C 818.8 -1.46655 -1.15539 0
M  V30 8752 C 819.151 -0.2125 -1.95046 0
M  V30 8753 O 818.276 0.683759 -2.05314 0
M  V30 8754 C 818.871 -2.65711 -2.10198 0
M  V30 8755 C 817.43 -2.68572 -2.63716 0
M  V30 8756 C 816.577 -2.39498 -1.39772 0
M  V30 8757 H 819.528 -1.54547 -0.36068 0
M  V30 8758 H 819.549 -2.41768 -2.93817 0
M  V30 8759 H 819.061 -3.56967 -1.52303 0
M  V30 8760 H 817.162 -1.81414 -3.25453 0
M  V30 8761 H 817.275 -3.68809 -3.05805 0
M  V30 8762 H 815.639 -1.89749 -1.69904 0
M  V30 8763 H 816.422 -3.32942 -0.836943 0
M  V30 8764 N 818.867 0.818669 -1.34668 0
M  V30 8765 C 819.797 1.94468 -1.29245 0
M  V30 8766 C 820.778 1.69257 -0.169101 0
M  V30 8767 O 821.963 1.90794 -0.362143 0
M  V30 8768 C 819.093 3.31001 -1.05145 0
M  V30 8769 C 818.047 3.70663 -2.13992 0
M  V30 8770 C 817.373 5.05226 -1.75074 0
M  V30 8771 C 818.673 3.82312 -3.55858 0
M  V30 8772 H 820.367 1.99263 -2.2346 0
M  V30 8773 H 817.913 0.957304 -1.07572 0
M  V30 8774 H 819.866 4.09364 -0.999949 0
M  V30 8775 H 818.59 3.26517 -0.0737312 0
M  V30 8776 H 817.249 2.94578 -2.18219 0
M  V30 8777 H 816.897 4.97233 -0.759518 0
M  V30 8778 H 816.597 5.32734 -2.47928 0
M  V30 8779 H 818.121 5.86042 -1.71427 0
M  V30 8780 H 819.535 4.50935 -3.5402 0
M  V30 8781 H 817.932 4.21278 -4.2737 0
M  V30 8782 H 819.002 2.84193 -3.9289 0
M  V30 8783 N 820.346 1.18468 1.03938 0
M  V30 8784 C 821.592 0.982286 1.77423 0
M  V30 8785 C 821.925 -0.48679 1.88 0
M  V30 8786 O 821.2 -1.36146 1.38905 0
M  V30 8787 C 821.483 1.63929 3.20623 0
M  V30 8788 C 821.336 3.18132 3.17982 0
M  V30 8789 C 822.655 1.3536 4.18767 0
M  V30 8790 H 819.774 0.358264 0.644062 0
M  V30 8791 H 822.416 1.46154 1.21405 0
M  V30 8792 H 820.566 1.2318 3.68455 0
M  V30 8793 H 822.238 3.68024 2.78129 0
M  V30 8794 H 820.481 3.50225 2.55978 0
M  V30 8795 H 821.152 3.5924 4.19107 0
M  V30 8796 H 823.628 1.70669 3.79488 0
M  V30 8797 H 822.504 1.83896 5.17178 0
M  V30 8798 H 822.765 0.276722 4.41233 0
M  V30 8799 N 821.824 -1.22873 0.986916 0
M  V30 8800 C 823.049 -1.96028 0.677341 0
M  V30 8801 C 823.474 -1.72487 -0.750319 0
M  V30 8802 O 822.832 -1.00036 -1.51203 0
M  V30 8803 C 822.88 -3.46983 0.981593 0
M  V30 8804 O 821.984 -4.12328 0.0770729 0
M  V30 8805 H 821.325 -0.613458 0.254096 0
M  V30 8806 H 823.855 -1.56132 1.32227 0
M  V30 8807 H 823.865 -3.9747 0.920969 0
M  V30 8808 H 822.54 -3.63442 2.02194 0
M  V30 8809 H 821.117 -3.72402 0.192666 0
M  V30 8810 N 823.302 -0.75937 -1.38099 0
M  V30 8811 C 824.265 -0.14372 -2.28749 0
M  V30 8812 C 825.265 0.641338 -1.47457 0
M  V30 8813 O 826.455 0.466751 -1.67831 0
M  V30 8814 C 823.587 0.804545 -3.3127 0
M  V30 8815 H 824.78 -0.942663 -2.847 0
M  V30 8816 H 822.333 -0.526757 -1.47156 0
M  V30 8817 H 823.068 1.62895 -2.80421 0
M  V30 8818 H 822.853 0.243939 -3.9134 0
M  V30 8819 H 824.343 1.23111 -3.99041 0
M  V30 8820 N 824.78 1.49157 -0.508906 0
M  V30 8821 C 826.026 2.03385 0.0248089 0
M  V30 8822 C 826.381 1.381 1.33964 0
M  V30 8823 O 825.674 0.510317 1.84679 0
M  V30 8824 C 825.868 3.56687 0.225717 0
M  V30 8825 C 825.697 4.36832 -1.06809 0
M  V30 8826 C 824.467 4.78556 -1.6221 0
M  V30 8827 C 826.665 4.74934 -1.97338 0
M  V30 8828 N 824.647 5.43158 -2.86098 0
M  V30 8829 C 826.018 5.39336 -3.05805 0
M  V30 8830 C 828.073 4.56872 -1.97921 0
M  V30 8831 C 826.776 5.87587 -4.1489 0
M  V30 8832 C 828.802 5.06089 -3.05987 0
M  V30 8833 C 828.164 5.70499 -4.13172 0
M  V30 8834 H 824.263 0.781349 -0.0318988 0
M  V30 8835 H 826.847 1.82233 -0.685518 0
M  V30 8836 H 825.018 3.77707 0.905108 0
M  V30 8837 H 826.75 3.97554 0.757147 0
M  V30 8838 H 823.505 4.59017 -1.16621 0
M  V30 8839 H 823.929 5.8004 -3.49116 0
M  V30 8840 H 828.571 4.06474 -1.16357 0
M  V30 8841 H 826.289 6.37002 -4.97247 0
M  V30 8842 H 829.875 4.93919 -3.07466 0
M  V30 8843 H 828.755 6.07893 -4.95415 0
M  V30 8844 N 826.258 0.243083 1.55714 0
M  V30 8845 C 827.483 -0.389944 2.03701 0
M  V30 8846 C 827.908 -1.51025 1.12129 0
M  V30 8847 O 827.266 -1.80944 0.11352 0
M  V30 8848 C 827.314 -0.878649 3.49731 0
M  V30 8849 O 826.418 -1.98851 3.61292 0
M  V30 8850 H 825.759 -0.0855115 0.658471 0
M  V30 8851 H 828.289 0.368023 2.01263 0
M  V30 8852 H 828.299 -1.18287 3.90477 0
M  V30 8853 H 826.974 -0.0588107 4.15858 0
M  V30 8854 H 825.551 -1.68928 3.32442 0
M  V30 8855 N 827.736 -1.57571 -0.0300757 0
M  V30 8856 C 828.646 -2.09892 -1.04798 0
M  V30 8857 C 829.662 -1.03732 -1.39698 0
M  V30 8858 O 830.838 -1.35461 -1.49038 0
M  V30 8859 C 827.903 -2.56707 -2.33028 0
M  V30 8860 C 826.964 -3.77345 -2.04718 0
M  V30 8861 C 826.197 -4.21918 -3.26834 0
M  V30 8862 O 826.42 -3.66025 -4.37472 0
M  V30 8863 O 825.354 -5.14362 -3.12594 0
M  V30 8864 H 829.18 -2.97023 -0.633344 0
M  V30 8865 H 826.765 -1.47344 -0.246991 0
M  V30 8866 H 828.647 -2.87154 -3.08417 0
M  V30 8867 H 827.322 -1.72688 -2.73789 0
M  V30 8868 H 826.229 -3.51919 -1.26901 0
M  V30 8869 H 827.562 -4.62345 -1.68813 0
M  V30 8870 N 829.214 0.302327 -1.54673 0
M  V30 8871 C 830.124 1.39542 -1.88587 0
M  V30 8872 C 831.14 1.55543 -0.779895 0
M  V30 8873 O 832.316 1.70233 -1.07623 0
M  V30 8874 C 829.381 2.7394 -2.12504 0
M  V30 8875 C 828.442 2.66935 -3.3622 0
M  V30 8876 C 827.675 3.94923 -3.58987 0
M  V30 8877 O 827.898 4.94218 -2.84789 0
M  V30 8878 O 826.832 3.96896 -4.52501 0
M  V30 8879 H 830.658 1.13784 -2.81579 0
M  V30 8880 H 828.243 0.49827 -1.40846 0
M  V30 8881 H 830.125 3.5346 -2.29443 0
M  V30 8882 H 828.8 2.99544 -1.22698 0
M  V30 8883 H 827.707 1.85892 -3.24646 0
M  V30 8884 H 829.04 2.46283 -4.26152 0
M  V30 8885 N 830.692 1.47107 0.565454 0
M  V30 8886 C 831.622 1.61846 1.68309 0
M  V30 8887 C 832.603 0.468159 1.63531 0
M  V30 8888 O 833.788 0.696504 1.8128 0
M  V30 8889 C 830.918 1.62474 3.06952 0
M  V30 8890 C 829.872 2.76649 3.26572 0
M  V30 8891 C 829.198 2.62345 4.65917 0
M  V30 8892 C 830.498 4.18319 3.12741 0
M  V30 8893 H 832.192 2.55407 1.5623 0
M  V30 8894 H 829.738 1.22916 0.750179 0
M  V30 8895 H 831.691 1.71378 3.84977 0
M  V30 8896 H 830.415 0.654692 3.19971 0
M  V30 8897 H 829.074 2.67242 2.50952 0
M  V30 8898 H 828.722 1.63386 4.75725 0
M  V30 8899 H 828.422 3.38936 4.79996 0
M  V30 8900 H 829.946 2.73165 5.46089 0
M  V30 8901 H 831.36 4.28745 3.80593 0
M  V30 8902 H 829.757 4.95632 3.38333 0
M  V30 8903 H 830.827 4.37263 2.09592 0
M  V30 8904 N 832.17 -0.811516 1.35101 0
M  V30 8905 C 833.419 -1.56343 1.27435 0
M  V30 8906 C 833.732 -1.95019 -0.150696 0
M  V30 8907 O 834.938 -2.6924 -0.349586 0
M  V30 8908 C 833.394 -2.82124 2.23459 0
M  V30 8909 C 833.002 -2.50706 3.71283 0
M  V30 8910 C 834.746 -3.60137 2.24726 0
M  V30 8911 C 832.653 -3.72748 4.59143 0
M  V30 8912 H 831.583 -0.58682 0.473453 0
M  V30 8913 H 834.234 -0.892465 1.60335 0
M  V30 8914 H 832.616 -3.50905 1.83525 0
M  V30 8915 H 833.79 -1.89962 4.19823 0
M  V30 8916 H 832.105 -1.85947 3.72576 0
M  V30 8917 H 834.702 -4.50775 2.87587 0
M  V30 8918 H 835.045 -3.97101 1.24965 0
M  V30 8919 H 835.578 -2.98311 2.63164 0
M  V30 8920 H 832.317 -3.40896 5.59884 0
M  V30 8921 H 831.837 -4.32735 4.15332 0
M  V30 8922 H 833.516 -4.40033 4.74321 0
M  V30 8923 N 833.648 -1.19017 -1.03309 0
M  V30 8924 C 834.873 -1.01598 -1.80811 0
M  V30 8925 C 835.298 0.430773 -1.83101 0
M  V30 8926 O 834.656 1.30946 -1.25391 0
M  V30 8927 C 834.704 -1.5845 -3.23923 0
M  V30 8928 O 833.808 -0.810972 -4.04348 0
M  V30 8929 H 833.149 -0.359398 -0.558327 0
M  V30 8930 H 835.679 -1.57945 -1.30055 0
M  V30 8931 H 835.689 -1.61486 -3.74682 0
M  V30 8932 H 834.364 -2.63752 -3.21571 0
M  V30 8933 H 832.941 -0.85353 -3.63 0
M  V30 8934 N 835.127 1.22348 -0.993418 0
M  V30 8935 C 836.074 2.24294 -0.544118 0
M  V30 8936 C 837.044 1.60602 0.42381 0
M  V30 8937 O 838.229 1.87952 0.328453 0
M  V30 8938 C 835.369 3.44837 0.134578 0
M  V30 8939 C 834.482 4.23043 -0.875151 0
M  V30 8940 C 833.617 5.30928 -0.169919 0
M  V30 8941 C 832.656 6.00853 -1.16798 0
M  V30 8942 N 831.793 7.00381 -0.491021 0
M  V30 8943 H 836.633 2.6209 -1.4182 0
M  V30 8944 H 834.17 1.2881 -0.710384 0
M  V30 8945 H 836.128 4.13625 0.544998 0
M  V30 8946 H 834.758 3.07804 0.972446 0
M  V30 8947 H 833.81 3.53546 -1.40389 0
M  V30 8948 H 835.122 4.71237 -1.63516 0
M  V30 8949 H 834.276 6.05972 0.297205 0
M  V30 8950 H 833.015 4.8371 0.622586 0
M  V30 8951 H 832.02 5.24591 -1.64573 0
M  V30 8952 H 833.245 6.50159 -1.96137 0
M  V30 8953 H 831.191 6.55393 0.282037 0
M  V30 8954 H 831.108 7.46584 -1.18947 0
M  V30 8955 H 832.376 7.79486 -0.0467169 0
M  V30 8956 N 836.605 0.766683 1.37694 0
M  V30 8957 C 837.535 0.163432 2.32927 0
M  V30 8958 C 838.516 -0.688861 1.55527 0
M  V30 8959 O 839.701 -0.627363 1.83787 0
M  V30 8960 C 836.831 -0.720416 3.39746 0
M  V30 8961 C 835.785 0.0301718 4.27989 0
M  V30 8962 C 835.111 -0.972788 5.25776 0
M  V30 8963 C 836.411 1.20623 5.0818 0
M  V30 8964 H 838.105 0.958988 2.83626 0
M  V30 8965 H 835.651 0.462601 1.36367 0
M  V30 8966 H 837.604 -1.15221 4.05342 0
M  V30 8967 H 836.328 -1.54844 2.8756 0
M  V30 8968 H 834.987 0.442685 3.63917 0
M  V30 8969 H 834.635 -1.79522 4.69873 0
M  V30 8970 H 834.335 -0.475145 5.85676 0
M  V30 8971 H 835.859 -1.40362 5.94248 0
M  V30 8972 H 837.273 0.851341 5.66944 0
M  V30 8973 H 835.67 1.63561 5.7738 0
M  V30 8974 H 836.74 2.01281 4.41151 0
M  V30 8975 N 838.083 -1.48885 0.516809 0
M  V30 8976 C 839.046 -2.27916 -0.242256 0
M  V30 8977 C 840.046 -1.34601 -0.879735 0
M  V30 8978 O 841.236 -1.57616 -0.74182 0
M  V30 8979 C 838.368 -3.13067 -1.34914 0
M  V30 8980 H 839.561 -2.96483 0.451444 0
M  V30 8981 H 837.114 -1.5391 0.272294 0
M  V30 8982 H 837.849 -2.49102 -2.07651 0
M  V30 8983 H 837.634 -3.81695 -0.897313 0
M  V30 8984 H 839.124 -3.72716 -1.88341 0
M  V30 8985 N 839.561 -0.251338 -1.55583 0
M  V30 8986 C 840.509 0.662534 -2.22965 0
M  V30 8987 C 841.503 1.17662 -1.21869 0
M  V30 8988 O 842.709 1.133 -1.39868 0
M  V30 8989 H 839.084 0.232151 -0.715269 0
M  V30 8990 H 841.055 0.0711252 -2.98315 0
M  V30 8991 C 839.804 1.84646 -2.94621 0
M  V30 8992 H 839.127 1.46003 -3.72187 0
M  V30 8993 H 840.567 2.46303 -3.45124 0
M  V30 8994 C 839.026 2.72034 -1.98744 0
M  V30 8995 O 839.556 3.71695 -1.52335 0
M  V30 8996 N 837.762 2.38695 -1.6575 0
M  V30 8997 H 837.309 1.57702 -2.03685 0
M  V30 8998 H 837.267 2.9744 -1.01867 0
M  V30 8999 N 841.039 1.57585 0.0217189 0
M  V30 9000 C 842.316 1.80779 0.74687 0
M  V30 9001 C 842.696 0.851163 1.9318 0
M  V30 9002 O 842.044 -0.105039 2.28258 0
M  V30 9003 C 842.254 3.28696 1.17302 0
M  V30 9004 C 843.602 3.93871 1.58589 0
M  V30 9005 O 844.626 3.3289 1.2674 0
M  V30 9006 O 843.485 5.01254 2.1773 0
M  V30 9007 H 840.579 0.743666 0.361786 0
M  V30 9008 H 843.125 1.697 -0.00206785 0
M  V30 9009 H 841.897 3.89927 0.327453 0
M  V30 9010 H 841.52 3.44692 1.98174 0
M  V30 9011 N 842.517 -0.29412 1.54831 0
M  V30 9012 C 843.766 -1.02614 1.73647 0
M  V30 9013 C 844.079 -1.88193 0.533162 0
M  V30 9014 O 845.285 -2.64713 0.603275 0
M  V30 9015 C 843.741 -1.87417 3.07251 0
M  V30 9016 C 843.349 -1.06806 4.35082 0
M  V30 9017 C 845.093 -2.60176 3.35423 0
M  V30 9018 C 843 -1.90926 5.59733 0
M  V30 9019 H 841.93 -0.386834 0.647206 0
M  V30 9020 H 844.581 -0.282789 1.81308 0
M  V30 9021 H 842.963 -2.65765 2.93572 0
M  V30 9022 H 844.137 -0.330226 4.59615 0
M  V30 9023 H 842.452 -0.455979 4.13896 0
M  V30 9024 H 845.049 -3.23476 4.25755 0
M  V30 9025 H 845.392 -3.29365 2.54606 0
M  V30 9026 H 845.925 -1.88871 3.50103 0
M  V30 9027 H 842.664 -1.26194 6.43238 0
M  V30 9028 H 842.184 -2.62363 5.39375 0
M  V30 9029 H 843.863 -2.48807 5.97247 0
M  V30 9030 N 843.995 -1.47404 -0.557645 0
M  V30 9031 C 844.905 -1.62491 -1.69216 0
M  V30 9032 C 845.921 -0.507764 -1.66426 0
M  V30 9033 O 847.097 -0.775241 -1.85882 0
M  V30 9034 C 844.162 -1.63511 -3.05721 0
M  V30 9035 C 843.223 -2.86648 -3.1958 0
M  V30 9036 C 842.456 -2.87609 -4.49574 0
M  V30 9037 O 842.679 -1.97799 -5.35006 0
M  V30 9038 O 841.613 -3.79465 -4.67215 0
M  V30 9039 H 845.439 -2.58487 -1.59431 0
M  V30 9040 H 843.024 -1.30485 -0.7276 0
M  V30 9041 H 844.906 -1.66863 -3.86956 0
M  V30 9042 H 843.581 -0.706812 -3.15889 0
M  V30 9043 H 842.488 -2.8884 -2.37744 0
M  V30 9044 H 843.821 -3.7877 -3.14316 0
M  V30 9045 N 845.473 0.80434 -1.35529 0
M  V30 9046 C 846.436 1.89788 -1.28503 0
M  V30 9047 C 847.436 1.59601 -0.195983 0
M  V30 9048 O 848.626 1.68292 -0.449827 0
M  V30 9049 C 845.758 3.26255 -0.98847 0
M  V30 9050 H 846.951 1.97436 -2.25741 0
M  V30 9051 H 844.504 1.00046 -1.20086 0
M  V30 9052 H 845.239 3.24294 -0.0200541 0
M  V30 9053 H 845.024 3.49551 -1.77641 0
M  V30 9054 H 846.514 4.06298 -0.964975 0
M  V30 9055 N 846.951 1.19563 1.02676 0
M  V30 9056 C 848.179 1.02488 1.79732 0
M  V30 9057 C 848.594 -0.426302 1.83924 0
M  V30 9058 O 847.951 -1.29609 1.28483 0
M  V30 9059 C 848.002 1.58944 3.24683 0
M  V30 9060 O 847.723 2.98382 3.2078 0
M  V30 9061 C 849.224 1.46681 4.1833 0
M  V30 9062 H 846.444 0.361098 0.565552 0
M  V30 9063 H 848.988 1.58426 1.29311 0
M  V30 9064 H 847.143 1.0715 3.72287 0
M  V30 9065 H 847.557 3.24983 4.11687 0
M  V30 9066 H 849.031 1.90959 5.17918 0
M  V30 9067 H 849.508 0.417663 4.3721 0
M  V30 9068 H 850.114 1.97616 3.76601 0
M  V30 9069 N 848.429 -1.21819 0.999893 0
M  V30 9070 C 849.392 -2.22227 0.561044 0
M  V30 9071 C 850.392 -1.56722 -0.359858 0
M  V30 9072 O 851.582 -1.73546 -0.150848 0
M  V30 9073 C 848.714 -3.40409 -0.182987 0
M  V30 9074 H 849.907 -2.62567 1.44909 0
M  V30 9075 H 847.46 -1.34991 0.78785 0
M  V30 9076 H 848.195 -3.05551 -1.08671 0
M  V30 9077 H 847.98 -3.89171 0.47833 0
M  V30 9078 H 849.47 -4.14856 -0.477952 0
M  V30 9079 N 849.908 -0.773975 -1.37286 0
M  V30 9080 C 851.154 -0.339809 -1.99933 0
M  V30 9081 C 851.487 1.0815 -1.61299 0
M  V30 9082 O 850.762 1.74442 -0.860252 0
M  V30 9083 C 851.045 -0.485919 -3.56806 0
M  V30 9084 C 850.898 -1.9498 -4.05343 0
M  V30 9085 C 852.217 0.108461 -4.39966 0
M  V30 9086 H 849.336 -0.124944 -0.726332 0
M  V30 9087 H 851.978 -0.977433 -1.6293 0
M  V30 9088 H 850.128 0.0569023 -3.88458 0
M  V30 9089 H 851.8 -2.5525 -3.84246 0
M  V30 9090 H 850.043 -2.45784 -3.57453 0
M  V30 9091 H 850.714 -2.00308 -5.14374 0
M  V30 9092 H 853.19 -0.354722 -4.14585 0
M  V30 9093 H 852.066 -0.0238926 -5.48895 0
M  V30 9094 H 852.327 1.19901 -4.25531 0
M  V30 9095 N 851.386 1.48609 -0.524698 0
M  V30 9096 C 852.802 1.58557 -0.182199 0
M  V30 9097 C 853.002 1.52732 1.31435 0
M  V30 9098 O 852.058 1.41362 2.0922 0
M  V30 9099 C 853.371 2.90406 -0.78004 0
M  V30 9100 C 854.919 3.03924 -0.748293 0
M  V30 9101 C 855.394 4.38427 -1.32462 0
M  V30 9102 N 856.885 4.4498 -1.28635 0
M  V30 9103 C 857.62 5.47551 -1.70223 0
M  V30 9104 N 857.116 6.57103 -2.19515 0
M  V30 9105 N 858.909 5.38402 -1.61493 0
M  V30 9106 H 851.06 1.50638 -1.4974 0
M  V30 9107 H 853.323 0.714952 -0.622533 0
M  V30 9108 H 853.029 3.00308 -1.83052 0
M  V30 9109 H 852.903 3.76343 -0.254075 0
M  V30 9110 H 855.29 2.93638 0.293407 0
M  V30 9111 H 855.371 2.19611 -1.31167 0
M  V30 9112 H 855.015 4.49466 -2.36522 0
M  V30 9113 H 854.945 5.21418 -0.736967 0
M  V30 9114 H 857.436 3.66393 -0.92545 0
M  V30 9115 H 857.749 7.31499 -2.49257 0
M  V30 9116 H 856.094 6.58081 -2.23506 0
M  V30 9117 H 859.285 4.5171 -1.22785 0
M  V30 9118 H 859.458 6.18208 -1.94225 0
M  V30 9119 N 852.864 0.259585 1.55447 0
M  V30 9120 C 853.827 -0.621359 2.20617 0
M  V30 9121 C 854.827 -1.09317 1.17925 0
M  V30 9122 O 856.017 -0.995842 1.42929 0
M  V30 9123 C 853.149 -1.85546 2.85982 0
M  V30 9124 H 854.342 -0.0525833 2.99854 0
M  V30 9125 H 851.895 0.0101055 1.56297 0
M  V30 9126 H 852.63 -2.46515 2.10715 0
M  V30 9127 H 852.415 -1.52523 3.61219 0
M  V30 9128 H 853.905 -2.48227 3.35817 0
M  V30 9129 N 854.342 -1.57594 -0.0133615 0
M  V30 9130 C 855.588 -1.90262 -0.702019 0
M  V30 9131 C 855.921 -0.859219 -1.74158 0
M  V30 9132 O 855.196 0.123778 -1.94106 0
M  V30 9133 C 855.479 -3.3354 -1.35732 0
M  V30 9134 C 855.332 -4.48586 -0.330208 0
M  V30 9135 C 856.651 -3.76004 -2.28712 0
M  V30 9136 H 853.77 -0.691943 -0.253739 0
M  V30 9137 H 856.412 -1.89967 0.0351894 0
M  V30 9138 H 854.562 -3.33921 -1.98567 0
M  V30 9139 H 856.234 -4.6034 0.297433 0
M  V30 9140 H 854.477 -4.32394 0.348926 0
M  V30 9141 H 855.148 -5.45762 -0.827508 0
M  V30 9142 H 857.624 -3.77089 -1.75906 0
M  V30 9143 H 856.5 -4.77032 -2.71535 0
M  V30 9144 H 856.761 -3.09129 -3.16056 0
M  V30 9145 N 855.82 0.285905 -1.54985 0
M  V30 9146 C 857.236 0.632405 -1.46536 0
M  V30 9147 C 857.436 1.90074 -0.668888 0
M  V30 9148 O 856.492 2.51839 -0.182586 0
M  V30 9149 C 857.805 0.771361 -2.90638 0
M  V30 9150 C 859.353 0.866262 -3.00774 0
M  V30 9151 C 859.828 1.0371 -4.46103 0
M  V30 9152 N 861.319 1.10294 -4.49877 0
M  V30 9153 C 862.054 1.25369 -5.59527 0
M  V30 9154 N 861.55 1.37246 -6.7907 0
M  V30 9155 N 863.343 1.28377 -5.47244 0
M  V30 9156 H 855.494 -0.547226 -2.0523 0
M  V30 9157 H 857.757 -0.183298 -0.930111 0
M  V30 9158 H 857.463 -0.0899485 -3.51585 0
M  V30 9159 H 857.337 1.65569 -3.3892 0
M  V30 9160 H 859.724 1.71805 -2.39931 0
M  V30 9161 H 859.805 -0.0424049 -2.55765 0
M  V30 9162 H 859.449 0.190021 -5.07544 0
M  V30 9163 H 859.379 1.96022 -4.88757 0
M  V30 9164 H 861.87 1.02407 -3.6376 0
M  V30 9165 H 862.183 1.48546 -7.58389 0
M  V30 9166 H 860.528 1.34274 -6.81906 0
M  V30 9167 H 863.719 1.1872 -4.52795 0
M  V30 9168 H 863.892 1.39782 -6.32744 0
M  V30 9169 N 857.298 1.47698 0.54982 0
M  V30 9170 C 858.714 1.3338 0.876468 0
M  V30 9171 C 858.914 0.329837 1.98782 0
M  V30 9172 O 857.97 -0.256022 2.51199 0
M  V30 9173 C 859.283 2.72903 1.26272 0
M  V30 9174 C 860.831 2.81243 1.37373 0
M  V30 9175 C 861.306 4.21423 1.79351 0
M  V30 9176 N 862.797 4.24 1.86489 0
M  V30 9177 C 863.532 5.29386 2.20313 0
M  V30 9178 N 863.028 6.4507 2.527 0
M  V30 9179 N 864.821 5.16768 2.2115 0
M  V30 9180 H 856.972 2.11603 -0.183781 0
M  V30 9181 H 859.235 0.947798 -0.0195601 0
M  V30 9182 H 858.941 3.47836 0.519889 0
M  V30 9183 H 858.815 3.05151 2.21727 0
M  V30 9184 H 861.202 2.06577 2.10737 0
M  V30 9185 H 861.283 2.52639 0.400882 0
M  V30 9186 H 860.927 4.96597 1.06555 0
M  V30 9187 H 860.857 4.47456 2.77652 0
M  V30 9188 H 863.348 3.40547 1.63817 0
M  V30 9189 H 863.661 7.21236 2.77557 0
M  V30 9190 H 862.006 6.48377 2.50263 0
M  V30 9191 H 865.197 4.25416 1.95293 0
M  V30 9192 H 865.37 5.99004 2.4718 0
M  V30 9193 N 858.776 -0.797141 1.35954 0
M  V30 9194 C 860.023 -1.55468 1.29754 0
M  V30 9195 C 860.351 -1.94095 -0.125391 0
M  V30 9196 O 859.606 -1.62341 -1.09288 0
M  V30 9197 C 859.905 -2.84847 2.15863 0
M  V30 9198 C 859.571 -2.65394 3.64523 0
M  V30 9199 C 858.233 -2.59796 4.05042 0
M  V30 9200 C 860.585 -2.4727 4.58811 0
M  V30 9201 C 857.913 -2.3403 5.38002 0
M  V30 9202 C 860.265 -2.23032 5.91979 0
M  V30 9203 C 858.929 -2.15862 6.31633 0
M  V30 9204 H 858.199 -0.568897 0.474803 0
M  V30 9205 H 860.846 -0.920299 1.67937 0
M  V30 9206 H 859.151 -3.52712 1.70591 0
M  V30 9207 H 860.848 -3.42597 2.08395 0
M  V30 9208 H 857.438 -2.70602 3.32374 0
M  V30 9209 H 861.622 -2.506 4.28384 0
M  V30 9210 H 856.878 -2.26956 5.67715 0
M  V30 9211 H 861.052 -2.08001 6.64612 0
M  V30 9212 H 858.679 -1.9566 7.34589 0
M  V30 9213 N 860.254 -1.20106 -1.0204 0
M  V30 9214 C 861.502 -1.0069 -1.75231 0
M  V30 9215 C 861.823 0.462491 -1.89436 0
M  V30 9216 O 861.093 1.33455 -1.4341 0
M  V30 9217 H 859.673 -0.369576 -0.649171 0
M  V30 9218 H 862.335 -1.51149 -1.23044 0
M  V30 9219 H 861.431 -1.46205 -2.75736 0
M  V30 9220 N 861.732 1.21287 -1.00634 0
M  V30 9221 C 862.664 2.2308 -0.526094 0
M  V30 9222 C 863.677 1.58157 0.386031 0
M  V30 9223 O 864.866 1.77528 0.186016 0
M  V30 9224 C 861.966 3.37937 0.255289 0
M  V30 9225 C 861.139 4.32449 -0.656236 0
M  V30 9226 C 860.198 5.26145 0.0757714 0
M  V30 9227 O 859.224 5.66601 -0.543325 0
M  V30 9228 N 860.426 5.6449 1.35391 0
M  V30 9229 H 863.191 2.64913 -1.40147 0
M  V30 9230 H 860.752 1.35724 -0.882641 0
M  V30 9231 H 862.744 3.97614 0.753977 0
M  V30 9232 H 861.314 2.95078 1.03187 0
M  V30 9233 H 860.534 3.70892 -1.3354 0
M  V30 9234 H 861.822 4.92526 -1.27653 0
M  V30 9235 H 861.22 5.33617 1.878 0
M  V30 9236 H 859.777 6.26524 1.79753 0
M  V30 9237 N 863.21 0.781244 1.36873 0
M  V30 9238 C 864.457 0.349889 1.99454 0
M  V30 9239 C 864.785 -1.07621 1.62013 0
M  V30 9240 O 864.04 -1.75665 0.86258 0
M  V30 9241 C 864.339 0.45146 3.54537 0
M  V30 9242 C 864.005 1.83718 4.11775 0
M  V30 9243 C 862.667 2.21634 4.2712 0
M  V30 9244 C 865.019 2.7449 4.43063 0
M  V30 9245 C 862.347 3.49742 4.7106 0
M  V30 9246 C 864.699 4.02017 4.88431 0
M  V30 9247 C 863.363 4.39967 5.01982 0
M  V30 9248 H 862.633 0.128033 0.729855 0
M  V30 9249 H 865.28 0.997117 1.63493 0
M  V30 9250 H 863.585 -0.279288 3.90803 0
M  V30 9251 H 865.282 0.0988609 4.00878 0
M  V30 9252 H 861.872 1.53251 4.00265 0
M  V30 9253 H 866.056 2.46453 4.30783 0
M  V30 9254 H 861.312 3.79026 4.79738 0
M  V30 9255 H 865.486 4.72475 5.11605 0
M  V30 9256 H 863.113 5.39291 5.35788 0
M  V30 9257 N 864.689 -1.48329 0.532571 0
M  V30 9258 C 865.639 -2.2664 -0.24868 0
M  V30 9259 C 866.623 -1.32861 -0.907563 0
M  V30 9260 O 867.815 -1.57382 -0.809942 0
M  V30 9261 C 864.944 -3.18004 -1.29339 0
M  V30 9262 C 864.03 -4.19256 -0.639166 0
M  V30 9263 N 864.421 -5.05043 0.276597 0
M  V30 9264 C 862.719 -4.36906 -0.896062 0
M  V30 9265 C 863.42 -5.78009 0.654261 0
M  V30 9266 N 862.396 -5.43598 0.0147447 0
M  V30 9267 H 866.198 -2.90344 0.455792 0
M  V30 9268 H 863.712 -1.58566 0.350778 0
M  V30 9269 H 865.709 -3.72767 -1.86682 0
M  V30 9270 H 864.369 -2.55855 -1.99921 0
M  V30 9271 H 865.38 -5.13813 0.649351 0
M  V30 9272 H 862.057 -3.85945 -1.59226 0
M  V30 9273 H 863.447 -6.57039 1.40532 0
M  V30 9274 N 866.167 -0.267825 -1.55308 0
M  V30 9275 C 867.097 0.616585 -2.25212 0
M  V30 9276 C 868.078 1.16472 -1.23969 0
M  V30 9277 O 869.263 1.20021 -1.52672 0
M  V30 9278 C 866.393 1.80412 -2.96764 0
M  V30 9279 C 865.347 1.38784 -4.04874 0
M  V30 9280 C 864.673 2.65789 -4.63961 0
M  V30 9281 C 865.973 0.543415 -5.19465 0
M  V30 9282 H 867.667 0.0336257 -2.99381 0
M  V30 9283 H 865.213 0.0147328 -1.43992 0
M  V30 9284 H 867.166 2.42866 -3.44375 0
M  V30 9285 H 865.89 2.4128 -2.20118 0
M  V30 9286 H 864.549 0.786541 -3.58063 0
M  V30 9287 H 864.197 3.24899 -3.83992 0
M  V30 9288 H 863.897 2.38651 -5.36954 0
M  V30 9289 H 865.421 3.29104 -5.14318 0
M  V30 9290 H 866.835 1.07277 -5.63174 0
M  V30 9291 H 865.232 0.367219 -5.98975 0
M  V30 9292 H 866.302 -0.439534 -4.82904 0
M  V30 9293 N 867.645 1.57599 0.00500368 0
M  V30 9294 C 868.608 2.07058 0.982832 0
M  V30 9295 C 869.608 0.979045 1.27559 0
M  V30 9296 O 870.798 1.24187 1.22161 0
M  V30 9297 C 867.93 2.50782 2.30914 0
M  V30 9298 H 869.123 2.94718 0.555119 0
M  V30 9299 H 866.676 1.54249 0.25237 0
M  V30 9300 H 867.411 1.66351 2.78385 0
M  V30 9301 H 867.196 3.30495 2.10987 0
M  V30 9302 H 868.686 2.89391 3.0107 0
M  V30 9303 N 869.123 -0.277682 1.55134 0
M  V30 9304 C 870.053 -1.34742 1.90701 0
M  V30 9305 C 871.034 -1.51757 0.768354 0
M  V30 9306 O 872.219 -1.64879 1.02609 0
M  V30 9307 C 869.349 -2.70775 2.17481 0
M  V30 9308 C 868.303 -2.68497 3.33307 0
M  V30 9309 C 867.629 -4.08037 3.45557 0
M  V30 9310 C 868.929 -2.28178 4.69821 0
M  V30 9311 H 870.623 -1.05224 2.803 0
M  V30 9312 H 868.169 -0.504738 1.34864 0
M  V30 9313 H 870.122 -3.45719 2.40949 0
M  V30 9314 H 868.846 -3.01867 1.24676 0
M  V30 9315 H 867.505 -1.9601 3.09799 0
M  V30 9316 H 867.153 -4.36344 2.50226 0
M  V30 9317 H 866.853 -4.07409 4.23429 0
M  V30 9318 H 868.377 -4.84726 3.71312 0
M  V30 9319 H 869.791 -2.92843 4.92865 0
M  V30 9320 H 868.188 -2.3872 5.50575 0
M  V30 9321 H 869.258 -1.23308 4.6896 0
M  V30 9322 N 870.601 -1.47988 -0.541979 0
M  V30 9323 C 871.826 -1.59286 -1.32826 0
M  V30 9324 C 872.251 -0.24894 -1.86445 0
M  V30 9325 O 871.609 0.777581 -1.63778 0
M  V30 9326 C 871.657 -2.6334 -2.46343 0
M  V30 9327 O 870.761 -2.19667 -3.49028 0
M  V30 9328 H 870.102 -0.534543 -0.393903 0
M  V30 9329 H 872.632 -1.93885 -0.653427 0
M  V30 9330 H 872.642 -2.84238 -2.92699 0
M  V30 9331 H 871.317 -3.60913 -2.06675 0
M  V30 9332 H 869.894 -2.08932 -3.08872 0
M  V30 9333 N 872.079 0.78992 -1.36375 0
M  V30 9334 C 873.327 1.54472 -1.30319 0
M  V30 9335 C 873.648 1.94647 0.117338 0
M  V30 9336 O 872.918 1.64906 1.05748 0
M  V30 9337 H 871.498 0.572879 -0.479394 0
M  V30 9338 H 874.16 0.941245 -1.70665 0
M  V30 9339 H 873.256 2.45252 -1.93024 0
M  V30 9340 N 873.557 1.20646 1.01402 0
M  V30 9341 C 874.805 1.01618 1.74695 0
M  V30 9342 C 875.126 -0.452438 1.89679 0
M  V30 9343 O 874.396 -1.32693 1.44116 0
M  V30 9344 H 872.976 0.373013 0.647202 0
M  V30 9345 H 875.638 1.518 1.22241 0
M  V30 9346 H 874.734 1.47666 2.74957 0
M  V30 9347 N 875.035 -1.20752 1.01276 0
M  V30 9348 C 876.26 -1.94547 0.718769 0
M  V30 9349 C 876.685 -1.7404 -0.713563 0
M  V30 9350 O 876.043 -1.03221 -1.49047 0
M  V30 9351 C 876.091 -3.44823 1.05497 0
M  V30 9352 O 875.195 -4.12072 0.164516 0
M  V30 9353 H 874.536 -0.607931 0.267051 0
M  V30 9354 H 877.066 -1.53292 1.35509 0
M  V30 9355 H 877.076 -3.95427 1.00507 0
M  V30 9356 H 875.751 -3.59072 2.09858 0
M  V30 9357 H 874.328 -3.71909 0.271615 0
M  V30 9358 N 876.513 -0.788492 -1.36457 0
M  V30 9359 C 877.738 -0.371224 -2.04051 0
M  V30 9360 C 878.163 1.004 -1.59064 0
M  V30 9361 O 877.521 1.64663 -0.758679 0
M  V30 9362 C 877.569 -0.442275 -3.57877 0
M  V30 9363 O 876.673 0.55113 -4.08701 0
M  V30 9364 H 876.014 -0.157808 -0.644975 0
M  V30 9365 H 878.544 -1.06935 -1.74431 0
M  V30 9366 H 878.554 -0.305548 -4.06854 0
M  V30 9367 H 877.229 -1.44547 -3.89973 0
M  V30 9368 H 875.806 0.37614 -3.70998 0
M  V30 9369 N 877.991 1.48044 -0.54043 0
M  V30 9370 C 879.402 1.86418 -0.102662 0
M  V30 9371 C 879.753 1.4489 1.32293 0
M  V30 9372 O 878.878 0.844319 1.99249 0
M  V30 9373 C 879.473 3.38324 -0.179533 0
M  V30 9374 C 878.032 3.75852 0.203098 0
M  V30 9375 C 877.179 2.72097 -0.534637 0
M  V30 9376 H 880.13 1.398 -0.751103 0
M  V30 9377 H 880.151 3.75641 0.606147 0
M  V30 9378 H 879.663 3.68518 -1.21721 0
M  V30 9379 H 877.764 3.51272 1.24252 0
M  V30 9380 H 877.877 4.78884 -0.143784 0
M  V30 9381 H 876.241 2.54692 0.0203358 0
M  V30 9382 H 877.024 3.05135 -1.57314 0
M  V30 9383 N 879.47 0.276058 1.55163 0
M  V30 9384 C 880.716 -0.340959 1.99913 0
M  V30 9385 C 881.049 -1.55434 1.16422 0
M  V30 9386 O 880.324 -1.93081 0.234517 0
M  V30 9387 C 880.607 -0.722211 3.52783 0
M  V30 9388 C 880.46 0.498575 4.47028 0
M  V30 9389 C 881.779 -1.5583 4.11589 0
M  V30 9390 H 878.898 -0.122455 0.726756 0
M  V30 9391 H 881.54 0.38319 1.86096 0
M  V30 9392 H 879.69 -1.33919 3.64689 0
M  V30 9393 H 881.362 1.13713 4.47065 0
M  V30 9394 H 879.605 1.13646 4.18649 0
M  V30 9395 H 880.276 0.188041 5.5168 0
M  V30 9396 H 882.752 -1.03722 4.02965 0
M  V30 9397 H 881.628 -1.79387 5.1876 0
M  V30 9398 H 881.889 -2.53963 3.61877 0
M  V30 9399 N 880.948 -1.576 0.00335426 0
M  V30 9400 C 881.911 -2.07576 -0.971838 0
M  V30 9401 C 882.911 -0.985796 -1.27038 0
M  V30 9402 O 884.101 -1.24833 -1.21501 0
M  V30 9403 C 881.233 -2.52003 -2.29581 0
M  V30 9404 H 882.426 -2.95008 -0.539481 0
M  V30 9405 H 879.979 -1.54381 -0.244186 0
M  V30 9406 H 880.714 -1.67825 -2.77498 0
M  V30 9407 H 880.499 -3.31609 -2.09231 0
M  V30 9408 H 881.989 -2.90983 -2.99531 0
M  V30 9409 N 882.426 0.269451 -1.5528 0
M  V30 9410 C 883.356 1.33729 -1.91413 0
M  V30 9411 C 884.337 1.51348 -0.776391 0
M  V30 9412 O 885.522 1.64332 -1.03482 0
M  V30 9413 C 882.652 2.69618 -2.18914 0
M  V30 9414 C 881.606 2.66725 -3.34726 0
M  V30 9415 C 880.932 4.06199 -3.47716 0
M  V30 9416 C 882.232 2.25684 -4.71025 0
M  V30 9417 H 883.926 1.03736 -2.80854 0
M  V30 9418 H 881.472 0.497579 -1.3513 0
M  V30 9419 H 883.425 3.44436 -2.42779 0
M  V30 9420 H 882.149 3.01201 -1.26275 0
M  V30 9421 H 880.808 1.94365 -3.10834 0
M  V30 9422 H 880.456 4.3501 -2.52537 0
M  V30 9423 H 880.156 4.05157 -4.25583 0
M  V30 9424 H 881.68 4.8275 -3.73877 0
M  V30 9425 H 883.094 2.90225 -4.94411 0
M  V30 9426 H 881.491 2.35797 -5.51833 0
M  V30 9427 H 882.561 1.20819 -4.69607 0
M  V30 9428 N 883.904 1.48273 0.534124 0
M  V30 9429 C 885.151 1.56079 1.29017 0
M  V30 9430 C 885.479 0.232912 1.931 0
M  V30 9431 O 884.734 -0.77642 1.79639 0
M  V30 9432 C 885.033 2.64468 2.40398 0
M  V30 9433 C 884.699 4.07034 1.93995 0
M  V30 9434 C 883.361 4.45838 1.81058 0
M  V30 9435 C 885.713 4.96395 1.58877 0
M  V30 9436 C 883.041 5.71812 1.31331 0
M  V30 9437 C 885.393 6.22854 1.10614 0
M  V30 9438 C 884.057 6.60518 0.962895 0
M  V30 9439 H 883.327 0.571135 0.472108 0
M  V30 9440 H 885.974 1.81973 0.5965 0
M  V30 9441 H 884.279 2.32419 3.15418 0
M  V30 9442 H 885.976 2.67725 2.98537 0
M  V30 9443 H 882.566 3.76387 2.05015 0
M  V30 9444 H 886.75 4.67096 1.67734 0
M  V30 9445 H 882.006 5.99722 1.18924 0
M  V30 9446 H 886.18 6.91495 0.825095 0
M  V30 9447 H 883.807 7.58019 0.575369 0
M  V30 9448 N 885.382 -0.782676 1.36792 0
M  V30 9449 C 886.314 -1.9044 1.27536 0
M  V30 9450 C 887.327 -1.61647 0.193426 0
M  V30 9451 O 888.516 -1.72769 0.448692 0
M  V30 9452 C 885.616 -3.2541 0.946641 0
M  V30 9453 C 884.789 -3.81932 2.13183 0
M  V30 9454 C 883.848 -4.95355 1.7751 0
M  V30 9455 O 882.874 -5.11517 2.49678 0
M  V30 9456 N 884.076 -5.76108 0.712755 0
M  V30 9457 H 886.841 -1.98899 2.24186 0
M  V30 9458 H 884.402 -0.96127 1.30274 0
M  V30 9459 H 886.394 -3.98791 0.689043 0
M  V30 9460 H 884.964 -3.12524 0.0690591 0
M  V30 9461 H 884.184 -3.00459 2.55183 0
M  V30 9462 H 885.472 -4.16426 2.92347 0
M  V30 9463 H 884.87 -5.65586 0.113662 0
M  V30 9464 H 883.427 -6.49762 0.514995 0
M  V30 9465 N 886.86 -1.21182 -1.00761 0
M  V30 9466 C 887.792 -0.926523 -2.09638 0
M  V30 9467 C 888.805 0.0892511 -1.62555 0
M  V30 9468 O 889.994 -0.142915 -1.77927 0
M  V30 9469 C 887.094 -0.369175 -3.36883 0
M  V30 9470 C 886.267 -1.43866 -4.13063 0
M  V30 9471 C 885.326 -0.891015 -5.18601 0
M  V30 9472 O 884.352 -1.57384 -5.47009 0
M  V30 9473 N 885.554 0.295057 -5.7975 0
M  V30 9474 H 888.319 -1.8638 -2.34697 0
M  V30 9475 H 885.88 -1.11671 -1.17223 0
M  V30 9476 H 887.872 0.011534 -4.04698 0
M  V30 9477 H 886.442 0.472861 -3.09003 0
M  V30 9478 H 885.662 -1.99332 -3.40089 0
M  V30 9479 H 886.95 -2.15866 -4.60738 0
M  V30 9480 H 886.348 0.8669 -5.59018 0
M  V30 9481 H 884.905 0.617306 -6.4887 0
M  V30 9482 N 888.338 1.20213 -1.01915 0
M  V30 9483 C 889.268 2.25336 -0.612023 0
M  V30 9484 C 890.249 1.65933 0.374186 0
M  V30 9485 O 891.434 1.92464 0.259053 0
M  V30 9486 C 888.564 3.47267 0.047904 0
M  V30 9487 C 887.518 4.1928 -0.859557 0
M  V30 9488 C 886.844 5.3466 -0.0652655 0
M  V30 9489 C 888.144 4.75143 -2.1688 0
M  V30 9490 H 889.838 2.59645 -1.49079 0
M  V30 9491 H 887.384 1.24808 -0.718263 0
M  V30 9492 H 889.337 4.19991 0.344294 0
M  V30 9493 H 888.061 3.12129 0.961404 0
M  V30 9494 H 886.72 3.48425 -1.13999 0
M  V30 9495 H 886.368 4.95767 0.849964 0
M  V30 9496 H 886.068 5.83772 -0.669618 0
M  V30 9497 H 887.592 6.10187 0.224612 0
M  V30 9498 H 889.006 5.39672 -1.9346 0
M  V30 9499 H 887.403 5.34702 -2.72422 0
M  V30 9500 H 888.473 3.93744 -2.83008 0
M  V30 9501 N 889.816 0.795718 1.36037 0
M  V30 9502 C 890.779 0.204318 2.28287 0
M  V30 9503 C 891.779 -0.602017 1.49105 0
M  V30 9504 O 892.969 -0.422089 1.69009 0
M  V30 9505 C 890.101 -0.716431 3.33287 0
M  V30 9506 H 891.294 1.01781 2.821 0
M  V30 9507 H 888.847 0.565588 1.45708 0
M  V30 9508 H 889.582 -1.55403 2.84641 0
M  V30 9509 H 889.367 -0.140096 3.9185 0
M  V30 9510 H 890.857 -1.12488 4.02164 0
M  V30 9511 N 891.294 -1.47756 0.548274 0
M  V30 9512 C 892.522 -2.06884 0.0254873 0
M  V30 9513 C 892.937 -1.40225 -1.26422 0
M  V30 9514 O 892.294 -0.495776 -1.75637 0
M  V30 9515 C 892.345 -3.61036 -0.183134 0
M  V30 9516 O 892.066 -4.25195 1.05549 0
M  V30 9517 C 893.567 -4.37008 -0.744222 0
M  V30 9518 H 890.787 -0.669697 0.041789 0
M  V30 9519 H 893.331 -1.89888 0.759138 0
M  V30 9520 H 891.486 -3.77576 -0.866886 0
M  V30 9521 H 891.9 -5.17606 0.847629 0
M  V30 9522 H 893.374 -5.45579 -0.839529 0
M  V30 9523 H 893.851 -4.0268 -1.75344 0
M  V30 9524 H 894.457 -4.25191 -0.0964542 0
M  V30 9525 N 892.772 -0.284283 -1.55015 0
M  V30 9526 C 893.735 0.586182 -2.21577 0
M  V30 9527 C 894.735 1.07427 -1.1965 0
M  V30 9528 O 895.925 0.972977 -1.44495 0
M  V30 9529 C 893.057 1.80973 -2.88897 0
M  V30 9530 H 894.25 0.00487253 -2.999 0
M  V30 9531 H 891.803 -0.0349696 -1.56261 0
M  V30 9532 H 892.538 2.43131 -2.14611 0
M  V30 9533 H 892.323 1.46757 -3.636 0
M  V30 9534 H 893.813 2.42853 -3.39724 0
M  V30 9535 N 894.251 1.57596 -0.0117121 0
M  V30 9536 C 895.201 2.05641 0.98467 0
M  V30 9537 C 896.185 0.953422 1.2961 0
M  V30 9538 O 897.377 1.21712 1.28512 0
M  V30 9539 C 894.506 2.57285 2.27286 0
M  V30 9540 C 893.592 3.74483 1.99057 0
M  V30 9541 N 893.983 4.85741 1.41029 0
M  V30 9542 C 892.281 3.82637 2.2914 0
M  V30 9543 C 892.982 5.67094 1.29536 0
M  V30 9544 N 891.958 5.13459 1.78497 0
M  V30 9545 H 895.76 2.89069 0.530702 0
M  V30 9546 H 893.274 1.6124 0.193717 0
M  V30 9547 H 895.271 2.89988 2.99521 0
M  V30 9548 H 893.931 1.75281 2.73325 0
M  V30 9549 H 894.942 5.06352 1.08756 0
M  V30 9550 H 891.619 3.11509 2.77972 0
M  V30 9551 H 893.009 6.66525 0.848144 0
M  V30 9552 N 895.729 -0.261212 1.5542 0
M  V30 9553 C 896.959 -1.00769 1.80358 0
M  V30 9554 C 897.367 -1.79991 0.583085 0
M  V30 9555 O 896.71 -1.77911 -0.457534 0
M  V30 9556 C 896.772 -2.00463 2.9842 0
M  V30 9557 C 896.436 -1.4007 4.35005 0
M  V30 9558 C 897.433 -0.810388 5.13545 0
M  V30 9559 C 895.118 -1.42436 4.81682 0
M  V30 9560 C 897.112 -0.251784 6.36903 0
M  V30 9561 C 894.799 -0.861897 6.04991 0
M  V30 9562 C 895.797 -0.276622 6.8244 0
M  V30 9563 O 895.485 0.277194 8.03422 0
M  V30 9564 H 895.217 -0.302839 0.604371 0
M  V30 9565 H 897.771 -0.293763 2.03288 0
M  V30 9566 H 896.001 -2.75648 2.71211 0
M  V30 9567 H 897.69 -2.61336 3.10577 0
M  V30 9568 H 898.456 -0.784719 4.7861 0
M  V30 9569 H 894.335 -1.8693 4.214 0
M  V30 9570 H 897.879 0.205678 6.97297 0
M  V30 9571 H 893.776 -0.884846 6.39407 0
M  V30 9572 H 894.544 0.167682 8.18328 0
M  V30 9573 N 897.207 -1.48554 -0.526253 0
M  V30 9574 C 898.455 -1.56452 -1.27935 0
M  V30 9575 C 898.776 -0.24184 -1.93495 0
M  V30 9576 O 898.046 0.736917 -1.81511 0
M  V30 9577 H 896.626 -0.576379 -0.47518 0
M  V30 9578 H 899.288 -1.85039 -0.612083 0
M  V30 9579 H 898.384 -2.34751 -2.05666 0
M  V30 9580 N 898.685 0.775411 -1.37205 0
M  V30 9581 C 899.932 1.53384 -1.32211 0
M  V30 9582 C 900.26 1.9427 0.0944958 0
M  V30 9583 O 899.515 1.64059 1.06692 0
M  V30 9584 C 899.814 2.81377 -2.20367 0
M  V30 9585 C 899.48 2.59561 -3.68699 0
M  V30 9586 C 898.142 2.53319 -4.09124 0
M  V30 9587 C 900.494 2.39939 -4.62686 0
M  V30 9588 C 897.822 2.25442 -5.41658 0
M  V30 9589 C 900.174 2.13586 -5.95453 0
M  V30 9590 C 898.838 2.05786 -6.34987 0
M  V30 9591 H 898.108 0.561271 -0.483793 0
M  V30 9592 H 900.755 0.893466 -1.6938 0
M  V30 9593 H 899.06 3.49954 -1.76181 0
M  V30 9594 H 900.757 3.39238 -2.13819 0
M  V30 9595 H 897.347 2.6528 -3.36637 0
M  V30 9596 H 901.531 2.43753 -4.32317 0
M  V30 9597 H 896.787 2.17896 -5.71254 0
M  V30 9598 H 900.961 1.97401 -6.67837 0
M  V30 9599 H 898.588 1.83948 -7.37609 0
M  V30 9600 N 900.163 1.21714 1.00117 0
M  V30 9601 C 901.574 1.03477 1.55401 0
M  V30 9602 C 901.925 -0.40429 1.91989 0
M  V30 9603 O 901.05 -1.28807 1.7389 0
M  V30 9604 C 901.645 1.87213 2.82377 0
M  V30 9605 C 900.204 1.73297 3.34133 0
M  V30 9606 C 899.351 1.84189 2.07291 0
M  V30 9607 H 902.302 1.3568 0.823195 0
M  V30 9608 H 902.323 1.38465 3.54412 0
M  V30 9609 H 901.835 2.91944 2.55715 0
M  V30 9610 H 899.936 0.712662 3.65721 0
M  V30 9611 H 900.049 2.55486 4.05294 0
M  V30 9612 H 898.413 1.27538 2.20468 0
M  V30 9613 H 899.196 2.90435 1.83037 0
M  V30 9614 N 901.641 -1.19671 1.02551 0
M  V30 9615 C 902.887 -1.89818 0.730801 0
M  V30 9616 C 903.242 -1.77917 -0.732355 0
M  V30 9617 O 902.535 -1.15848 -1.5261 0
M  V30 9618 C 902.729 -3.39647 1.11241 0
M  V30 9619 C 902.558 -3.66129 2.61112 0
M  V30 9620 C 901.328 -3.84348 3.28032 0
M  V30 9621 C 903.526 -3.67963 3.59316 0
M  V30 9622 N 901.508 -3.98429 4.67041 0
M  V30 9623 C 902.879 -3.87575 4.83927 0
M  V30 9624 C 904.934 -3.50971 3.53162 0
M  V30 9625 C 903.637 -3.91957 6.03127 0
M  V30 9626 C 905.663 -3.56629 4.71773 0
M  V30 9627 C 905.025 -3.76722 5.95197 0
M  V30 9628 H 901.124 -0.713873 0.319232 0
M  V30 9629 H 903.708 -1.43844 1.31213 0
M  V30 9630 H 901.879 -3.84352 0.559324 0
M  V30 9631 H 903.611 -3.97301 0.77031 0
M  V30 9632 H 900.366 -3.83097 2.78448 0
M  V30 9633 H 900.79 -4.09327 5.39241 0
M  V30 9634 H 905.432 -3.34395 2.58728 0
M  V30 9635 H 903.15 -4.07326 6.97933 0
M  V30 9636 H 906.736 -3.44777 4.68637 0
M  V30 9637 H 905.616 -3.8097 6.85442 0
M  V30 9638 N 903.119 -0.802921 -1.35613 0
M  V30 9639 C 904.082 -0.216422 -2.28176 0
M  V30 9640 C 905.082 0.594101 -1.49422 0
M  V30 9641 O 906.272 0.41312 -1.6923 0
M  V30 9642 C 903.404 0.698746 -3.33662 0
M  V30 9643 H 904.597 -1.03276 -2.81557 0
M  V30 9644 H 902.15 -0.573307 -1.45406 0
M  V30 9645 H 902.885 1.53891 -2.85461 0
M  V30 9646 H 902.67 0.119314 -3.91918 0
M  V30 9647 H 904.16 1.10354 -4.02755 0
M  V30 9648 N 904.597 1.47463 -0.556102 0
M  V30 9649 C 905.547 2.27007 0.212592 0
M  V30 9650 C 906.531 1.34288 0.886312 0
M  V30 9651 O 907.723 1.5865 0.784801 0
M  V30 9652 C 904.852 3.20021 1.24263 0
M  V30 9653 C 903.938 4.2022 0.572385 0
M  V30 9654 N 904.329 5.04539 -0.35691 0
M  V30 9655 C 902.627 4.38276 0.826441 0
M  V30 9656 C 903.328 5.76895 -0.746134 0
M  V30 9657 N 902.304 5.43506 -0.101225 0
M  V30 9658 H 906.106 2.89582 -0.501925 0
M  V30 9659 H 903.62 1.57988 -0.375961 0
M  V30 9660 H 905.617 3.7569 1.80728 0
M  V30 9661 H 904.277 2.59003 1.95826 0
M  V30 9662 H 905.288 5.12715 -0.731012 0
M  V30 9663 H 901.965 3.88429 1.53066 0
M  V30 9664 H 903.355 6.5472 -1.50967 0
M  V30 9665 N 906.075 0.2925 1.54862 0
M  V30 9666 C 907.303 -0.322113 2.04377 0
M  V30 9667 C 907.718 -1.48164 1.17016 0
M  V30 9668 O 907.075 -1.81466 0.19395 0
M  V30 9669 C 907.126 -0.786506 3.5284 0
M  V30 9670 O 906.847 0.326863 4.36879 0
M  V30 9671 C 908.348 -1.46715 4.18318 0
M  V30 9672 H 905.568 -0.0712074 0.667211 0
M  V30 9673 H 908.112 0.429657 1.99935 0
M  V30 9674 H 906.267 -1.48832 3.5767 0
M  V30 9675 H 906.681 -0.0331558 5.2449 0
M  V30 9676 H 908.155 -1.74333 5.23748 0
M  V30 9677 H 908.632 -2.40443 3.67538 0
M  V30 9678 H 909.238 -0.808735 4.1754 0
M  V30 9679 N 907.553 -1.57587 0.0200696 0
M  V30 9680 C 908.503 -2.0616 -0.973751 0
M  V30 9681 C 909.487 -0.960282 -1.29102 0
M  V30 9682 O 910.679 -1.22391 -1.27865 0
M  V30 9683 C 907.808 -2.58487 -2.25919 0
M  V30 9684 C 906.894 -3.75533 -1.97068 0
M  V30 9685 N 907.285 -4.86482 -1.38451 0
M  V30 9686 C 905.583 -3.83847 -2.27107 0
M  V30 9687 C 906.284 -5.67773 -1.26527 0
M  V30 9688 N 905.26 -5.14398 -1.75772 0
M  V30 9689 H 909.062 -2.89346 -0.515365 0
M  V30 9690 H 906.576 -1.61341 -0.185163 0
M  V30 9691 H 908.573 -2.91572 -2.97979 0
M  V30 9692 H 907.233 -1.76728 -2.72392 0
M  V30 9693 H 908.244 -5.06922 -1.06069 0
M  V30 9694 H 904.921 -3.12978 -2.76316 0
M  V30 9695 H 906.311 -6.66966 -0.812785 0
M  V30 9696 N 909.032 0.252966 -1.55557 0
M  V30 9697 C 909.962 1.31691 -1.9282 0
M  V30 9698 C 910.943 1.50516 -0.7924 0
M  V30 9699 O 912.128 1.63225 -1.05219 0
M  V30 9700 C 909.258 2.67281 -2.21762 0
M  V30 9701 C 908.212 2.6316 -3.37536 0
M  V30 9702 C 907.538 4.02488 -3.52005 0
M  V30 9703 C 908.838 2.20675 -4.73392 0
M  V30 9704 H 910.532 1.00751 -2.81939 0
M  V30 9705 H 908.078 0.483219 -1.3565 0
M  V30 9706 H 910.031 3.41842 -2.46419 0
M  V30 9707 H 908.755 2.99845 -1.29463 0
M  V30 9708 H 907.414 1.91057 -3.12878 0
M  V30 9709 H 907.062 4.32307 -2.57137 0
M  V30 9710 H 906.762 4.00621 -4.29857 0
M  V30 9711 H 908.286 4.78758 -3.78977 0
M  V30 9712 H 909.7 2.84965 -4.97461 0
M  V30 9713 H 908.097 2.29931 -5.54303 0
M  V30 9714 H 909.167 1.15831 -4.70862 0
M  V30 9715 N 910.51 1.48831 0.518367 0
M  V30 9716 C 911.756 1.58649 1.27287 0
M  V30 9717 C 912.111 0.262085 1.90607 0
M  V30 9718 O 911.404 -0.736154 1.76894 0
M  V30 9719 C 911.598 2.67003 2.3758 0
M  V30 9720 C 911.427 4.09851 1.85073 0
M  V30 9721 C 910.197 4.76852 1.67154 0
M  V30 9722 C 912.395 4.95646 1.37256 0
M  V30 9723 N 910.377 6.04075 1.09394 0
M  V30 9724 C 911.748 6.13208 0.915189 0
M  V30 9725 C 913.803 4.8178 1.25666 0
M  V30 9726 C 912.506 7.18431 0.353411 0
M  V30 9727 C 914.532 5.87136 0.708873 0
M  V30 9728 C 913.894 7.03914 0.261642 0
M  V30 9729 H 909.993 0.635017 0.456374 0
M  V30 9730 H 912.577 1.85763 0.583097 0
M  V30 9731 H 910.748 2.41691 3.04039 0
M  V30 9732 H 912.48 2.6644 3.04617 0
M  V30 9733 H 909.235 4.3337 1.91017 0
M  V30 9734 H 909.659 6.71955 0.824917 0
M  V30 9735 H 914.301 3.91826 1.58846 0
M  V30 9736 H 912.019 8.08099 0.00931313 0
M  V30 9737 H 915.605 5.78463 0.622221 0
M  V30 9738 H 914.485 7.84046 -0.155634 0
M  V30 9739 N 911.988 -0.768124 1.37614 0
M  V30 9740 C 912.918 -1.89537 1.36374 0
M  V30 9741 C 913.899 -1.68513 0.231803 0
M  V30 9742 O 915.084 -1.89318 0.432705 0
M  V30 9743 C 912.214 -3.26871 1.17358 0
M  V30 9744 C 911.168 -3.62466 2.27602 0
M  V30 9745 C 910.494 -4.9838 1.93705 0
M  V30 9746 C 911.794 -3.68841 3.69802 0
M  V30 9747 H 913.488 -1.90832 2.30702 0
M  V30 9748 H 911.034 -0.91672 1.11051 0
M  V30 9749 H 912.987 -4.05371 1.15119 0
M  V30 9750 H 911.711 -3.26018 0.194865 0
M  V30 9751 H 910.37 -2.86276 2.29002 0
M  V30 9752 H 910.018 -4.94071 0.943539 0
M  V30 9753 H 909.718 -5.23165 2.6753 0
M  V30 9754 H 911.242 -5.79276 1.93059 0
M  V30 9755 H 912.656 -4.37485 3.70513 0
M  V30 9756 H 911.053 -4.05126 4.42711 0
M  V30 9757 H 912.123 -2.69415 4.03167 0
M  V30 9758 N 913.466 -1.22244 -0.994698 0
M  V30 9759 C 914.712 -1.04746 -1.73655 0
M  V30 9760 C 915.045 0.41668 -1.89677 0
M  V30 9761 O 914.32 1.30897 -1.43862 0
M  V30 9762 C 914.603 -1.75716 -3.14318 0
M  V30 9763 C 914.456 -3.29714 -3.05955 0
M  V30 9764 C 915.775 -1.50809 -4.13455 0
M  V30 9765 H 912.894 -0.381921 -0.630322 0
M  V30 9766 H 915.536 -1.50559 -1.15897 0
M  V30 9767 H 913.686 -1.3677 -3.63629 0
M  V30 9768 H 915.358 -3.78093 -2.64279 0
M  V30 9769 H 913.601 -3.59484 -2.42804 0
M  V30 9770 H 914.272 -3.74547 -4.05485 0
M  V30 9771 H 916.748 -1.84636 -3.72892 0
M  V30 9772 H 915.624 -2.02964 -5.09997 0
M  V30 9773 H 915.885 -0.440292 -4.39902 0
M  V30 9774 N 914.944 1.19125 -1.03184 0
M  V30 9775 C 916.221 1.84674 -0.644574 0
M  V30 9776 C 916.601 1.92042 0.876534 0
M  V30 9777 O 915.949 1.43965 1.77444 0
M  V30 9778 C 916.159 3.23477 -1.3101 0
M  V30 9779 C 917.507 3.99608 -1.43524 0
M  V30 9780 O 918.531 3.32886 -1.2675 0
M  V30 9781 O 917.39 5.19132 -1.70776 0
M  V30 9782 H 914.484 0.795968 -0.22442 0
M  V30 9783 H 917.03 1.2659 -1.13018 0
M  V30 9784 H 915.802 3.12967 -2.34878 0
M  V30 9785 H 915.425 3.89209 -0.812547 0
M  V30 9786 N 916.422 0.810101 1.35185 0
M  V30 9787 C 917.332 0.224565 2.33523 0
M  V30 9788 C 918.348 -0.634287 1.62027 0
M  V30 9789 O 919.524 -0.545211 1.9388 0
M  V30 9790 C 916.589 -0.614319 3.41214 0
M  V30 9791 C 915.65 0.265435 4.28479 0
M  V30 9792 C 914.883 -0.533506 5.31027 0
M  V30 9793 O 915.106 -1.7679 5.42311 0
M  V30 9794 O 914.04 0.0774573 6.0185 0
M  V30 9795 H 917.866 1.03815 2.85405 0
M  V30 9796 H 915.451 0.571964 1.38018 0
M  V30 9797 H 917.333 -1.09201 4.07005 0
M  V30 9798 H 916.008 -1.40545 2.91597 0
M  V30 9799 H 914.915 0.790343 3.65656 0
M  V30 9800 H 916.248 1.0206 4.81503 0
M  V30 9801 N 917.9 -1.47166 0.563914 0
M  V30 9802 C 919.316 -1.58018 0.224173 0
M  V30 9803 C 919.516 -1.56163 -1.27339 0
M  V30 9804 O 918.572 -1.4686 -2.05398 0
M  V30 9805 C 919.885 -2.88236 0.856762 0
M  V30 9806 C 921.433 -3.01833 0.82861 0
M  V30 9807 C 921.908 -4.34761 1.44039 0
M  V30 9808 N 923.399 -4.41413 1.40388 0
M  V30 9809 C 924.134 -5.42845 1.84681 0
M  V30 9810 N 923.63 -6.51052 2.3686 0
M  V30 9811 N 925.423 -5.33931 1.75711 0
M  V30 9812 H 917.574 -1.46615 1.53681 0
M  V30 9813 H 919.837 -0.698195 0.64127 0
M  V30 9814 H 919.543 -2.95349 1.90949 0
M  V30 9815 H 919.417 -3.75537 0.353766 0
M  V30 9816 H 921.804 -2.94312 -0.215451 0
M  V30 9817 H 921.885 -2.16056 1.36943 0
M  V30 9818 H 921.529 -4.43037 2.48355 0
M  V30 9819 H 921.459 -5.1928 0.874953 0
M  V30 9820 H 923.95 -3.63811 1.02227 0
M  V30 9821 H 924.263 -7.24633 2.68564 0
M  V30 9822 H 922.608 -6.51924 2.40875 0
M  V30 9823 H 925.799 -4.48295 1.34718 0
M  V30 9824 H 925.972 -6.12841 2.10547 0
M  V30 9825 N 919.378 -0.300708 -1.54705 0
M  V30 9826 C 920.618 0.30953 -2.02043 0
M  V30 9827 C 920.982 1.51114 -1.18442 0
M  V30 9828 O 922.183 2.19273 -1.55477 0
M  V30 9829 C 920.454 0.657489 -3.513 0
M  V30 9830 S 922.013 1.25063 -4.206 0
M  V30 9831 H 918.831 0.0950019 -0.704624 0
M  V30 9832 H 921.433 -0.428512 -1.90746 0
M  V30 9833 H 920.137 -0.225532 -4.0978 0
M  V30 9834 H 919.668 1.42633 -3.66633 0
M  V30 9835 H 921.683 2.53844 -4.26354 0
M  V30 9836 N 920.856 1.57574 -0.0284266 0
M  V30 9837 C 922.102 1.92056 0.651327 0
M  V30 9838 C 922.435 0.905092 1.71819 0
M  V30 9839 O 921.71 -0.0722703 1.94366 0
M  V30 9840 C 921.993 3.37021 1.26841 0
M  V30 9841 C 921.846 4.49304 0.211157 0
M  V30 9842 C 923.165 3.81936 2.18662 0
M  V30 9843 H 920.284 0.698428 0.235304 0
M  V30 9844 H 922.926 1.89807 -0.0855435 0
M  V30 9845 H 921.076 3.39068 1.89644 0
M  V30 9846 H 922.748 4.5939 -0.419379 0
M  V30 9847 H 920.991 4.31317 -0.463445 0
M  V30 9848 H 921.662 5.47764 0.682518 0
M  V30 9849 H 924.138 3.8162 1.65847 0
M  V30 9850 H 923.014 4.84064 2.58792 0
M  V30 9851 H 923.275 3.174 3.07749 0
M  V30 9852 N 922.334 -0.244713 1.55689 0
M  V30 9853 C 923.745 -0.813603 1.6804 0
M  V30 9854 C 924.096 -1.85936 0.626281 0
M  V30 9855 O 923.221 -2.15206 -0.227038 0
M  V30 9856 C 923.816 -1.48252 3.04642 0
M  V30 9857 C 922.375 -1.99908 3.18926 0
M  V30 9858 C 921.522 -0.850958 2.6392 0
M  V30 9859 H 924.473 -0.0204805 1.58687 0
M  V30 9860 H 924.494 -2.35062 2.99209 0
M  V30 9861 H 924.006 -0.721164 3.81341 0
M  V30 9862 H 922.107 -2.78918 2.47054 0
M  V30 9863 H 922.22 -2.19497 4.25862 0
M  V30 9864 H 920.584 -1.25206 2.21801 0
M  V30 9865 H 921.367 -0.10265 3.43146 0
M  V30 9866 N 923.813 -1.49104 -0.510467 0
M  V30 9867 C 924.743 -1.67981 -1.62187 0
M  V30 9868 C 925.724 -0.528529 -1.6168 0
M  V30 9869 O 926.909 -0.763305 -1.7857 0
M  V30 9870 C 924.039 -1.73755 -3.0071 0
M  V30 9871 C 922.993 -2.88579 -3.1608 0
M  V30 9872 C 922.319 -2.79457 -4.5586 0
M  V30 9873 C 923.619 -4.29638 -2.97 0
M  V30 9874 H 925.313 -2.61029 -1.46643 0
M  V30 9875 H 922.859 -1.25615 -0.704042 0
M  V30 9876 H 924.812 -1.85548 -3.78352 0
M  V30 9877 H 923.536 -0.772996 -3.17321 0
M  V30 9878 H 922.195 -2.76372 -2.40861 0
M  V30 9879 H 921.843 -1.80929 -4.69333 0
M  V30 9880 H 921.543 -3.56518 -4.67086 0
M  V30 9881 H 923.067 -2.93245 -5.35574 0
M  V30 9882 H 924.481 -4.42575 -3.64418 0
M  V30 9883 H 922.878 -5.07847 -3.19704 0
M  V30 9884 H 923.948 -4.44741 -1.93219 0
M  V30 9885 N 925.291 0.760815 -1.38019 0
M  V30 9886 C 926.516 1.55513 -1.37224 0
M  V30 9887 C 926.941 1.88062 0.037611 0
M  V30 9888 O 926.299 1.50042 1.0177 0
M  V30 9889 C 926.347 2.83539 -2.22796 0
M  V30 9890 O 925.451 3.78384 -1.64009 0
M  V30 9891 H 924.792 0.470642 -0.468393 0
M  V30 9892 H 927.322 0.940792 -1.81687 0
M  V30 9893 H 927.332 3.32535 -2.36399 0
M  V30 9894 H 926.007 2.59178 -3.25269 0
M  V30 9895 H 924.584 3.37063 -1.59508 0
M  V30 9896 N 926.769 1.22769 0.988202 0
M  V30 9897 C 928.046 0.9635 1.70223 0
M  V30 9898 C 928.426 -0.520102 2.04593 0
M  V30 9899 O 927.774 -1.48934 1.73295 0
M  V30 9900 C 927.984 1.86583 2.94937 0
M  V30 9901 C 929.332 2.12469 3.67616 0
M  V30 9902 O 930.356 1.84069 3.04954 0
M  V30 9903 O 929.215 2.60595 4.80367 0
M  V30 9904 H 926.309 0.362737 0.743203 0
M  V30 9905 H 928.855 1.33776 1.04412 0
M  V30 9906 H 927.627 2.86913 2.66077 0
M  V30 9907 H 927.25 1.49344 3.68486 0
M  V30 9908 N 928.247 -1.18576 1.03814 0
M  V30 9909 C 929.658 -1.70159 0.768299 0
M  V30 9910 C 930.009 -1.8286 -0.711106 0
M  V30 9911 O 929.134 -1.5063 -1.55369 0
M  V30 9912 C 929.729 -3.09062 1.38804 0
M  V30 9913 C 928.288 -3.57866 1.16656 0
M  V30 9914 C 927.435 -2.34484 1.48029 0
M  V30 9915 H 930.386 -1.03287 1.20488 0
M  V30 9916 H 930.407 -3.72211 0.7899 0
M  V30 9917 H 929.919 -2.99785 2.46476 0
M  V30 9918 H 928.02 -3.72442 0.108471 0
M  V30 9919 H 928.133 -4.41445 1.8618 0
M  V30 9920 H 926.497 -2.38273 0.899902 0
M  V30 9921 H 927.28 -2.27829 2.56805 0
M  V30 9922 N 929.725 -0.817259 -1.34754 0
M  V30 9923 C 930.635 -0.236946 -2.334 0
M  V30 9924 C 931.651 0.625685 -1.62361 0
M  V30 9925 O 932.827 0.534921 -1.94166 0
M  V30 9926 C 929.892 0.596215 -3.41535 0
M  V30 9927 C 928.953 -0.288154 -4.28332 0
M  V30 9928 C 928.186 0.505337 -5.31302 0
M  V30 9929 O 928.409 1.73912 -5.43241 0
M  V30 9930 O 927.343 -0.109374 -6.01801 0
M  V30 9931 H 931.169 -1.05327 -2.84851 0
M  V30 9932 H 928.754 -0.579275 -1.37713 0
M  V30 9933 H 930.636 1.07041 -4.07578 0
M  V30 9934 H 929.311 1.38997 -2.92338 0
M  V30 9935 H 928.218 -0.809724 -3.65232 0
M  V30 9936 H 929.551 -1.04612 -4.80955 0
M  V30 9937 N 931.203 1.46865 -0.571711 0
M  V30 9938 C 932.428 2.07323 -0.0564655 0
M  V30 9939 C 932.853 1.41938 1.23431 0
M  V30 9940 O 932.211 0.499334 1.74288 0
M  V30 9941 C 932.259 3.6044 0.107339 0
M  V30 9942 O 931.363 3.95558 1.1665 0
M  V30 9943 H 930.704 0.661475 -0.0578465 0
M  V30 9944 H 933.234 1.88669 -0.791524 0
M  V30 9945 H 933.244 4.06767 0.316987 0
M  V30 9946 H 931.919 4.07425 -0.835348 0
M  V30 9947 H 930.496 3.60957 0.936189 0
M  V30 9948 N 932.681 0.308908 1.54543 0
M  V30 9949 C 933.629 -0.579326 2.2527 0
M  V30 9950 C 934.623 -1.13058 1.26152 0
M  V30 9951 O 935.829 -1.08031 1.43977 0
M  V30 9952 H 932.204 -0.205444 0.723392 0
M  V30 9953 H 934.175 0.0396415 2.98374 0
M  V30 9954 C 932.924 -1.73584 3.01271 0
M  V30 9955 H 932.247 -1.32089 3.77349 0
M  V30 9956 H 933.687 -2.33324 3.54028 0
M  V30 9957 C 932.146 -2.6447 2.08703 0
M  V30 9958 O 932.676 -3.65785 1.66025 0
M  V30 9959 N 930.882 -2.32379 1.74495 0
M  V30 9960 H 930.429 -1.50034 2.09398 0
M  V30 9961 H 930.387 -2.93454 1.12836 0
M  V30 9962 N 934.159 -1.57557 0.0367827 0
M  V30 9963 C 935.406 -1.92114 -0.640185 0
M  V30 9964 C 935.734 -0.913887 -1.71693 0
M  V30 9965 O 934.989 0.0760343 -1.95552 0
M  V30 9966 C 935.288 -3.33387 -1.28794 0
M  V30 9967 C 934.954 -4.4961 -0.340819 0
M  V30 9968 C 933.616 -4.81133 -0.0801574 0
M  V30 9969 C 935.968 -5.20283 0.309106 0
M  V30 9970 C 933.296 -5.80683 0.838107 0
M  V30 9971 C 935.648 -6.20813 1.21547 0
M  V30 9972 C 934.312 -6.50773 1.48495 0
M  V30 9973 H 933.582 -0.702996 -0.23426 0
M  V30 9974 H 936.229 -1.91238 0.100188 0
M  V30 9975 H 934.534 -3.30561 -2.10324 0
M  V30 9976 H 936.231 -3.57399 -1.81843 0
M  V30 9977 H 932.821 -4.25002 -0.554161 0
M  V30 9978 H 937.005 -4.96153 0.120794 0
M  V30 9979 H 932.261 -6.02238 1.05451 0
M  V30 9980 H 936.435 -6.74692 1.72522 0
M  V30 9981 H 934.062 -7.27727 2.19814 0
M  V30 9982 N 935.637 0.236453 -1.55816 0
M  V30 9983 C 936.569 1.31602 -1.87653 0
M  V30 9984 C 937.582 1.43782 -0.763584 0
M  V30 9985 O 938.771 1.44945 -1.04178 0
M  V30 9986 C 935.871 2.69342 -2.05689 0
M  V30 9987 C 935.044 2.79298 -3.36617 0
M  V30 9988 C 934.103 3.97952 -3.44268 0
M  V30 9989 O 933.129 3.86989 -4.17406 0
M  V30 9990 N 934.331 5.11594 -2.74321 0
M  V30 9991 H 937.096 1.04623 -2.80845 0
M  V30 9992 H 934.657 0.426534 -1.5618 0
M  V30 9993 H 936.649 3.47074 -2.08138 0
M  V30 9994 H 935.219 2.88984 -1.19192 0
M  V30 9995 H 934.439 1.8816 -3.46395 0
M  V30 9996 H 935.727 2.82908 -4.22895 0
M  V30 9997 H 935.125 5.23394 -2.14651 0
M  V30 9998 H 933.682 5.87422 -2.8245 0
M  V30 9999 N 937.115 1.49373 0.502552 0
M  V30 10000 C 938.363 1.58467 1.25429 0
M  V30 10001 C 938.684 0.272593 1.93085 0
M  V30 10002 O 937.954 -0.707947 1.82661 0
M  V30 10003 H 936.534 0.583866 0.46595 0
M  V30 10004 H 939.196 1.8599 0.582568 0
M  V30 10005 H 938.292 2.37993 2.01906 0
M  V30 10006 N 938.594 -0.753485 1.38421 0
M  V30 10007 C 939.524 -1.8808 1.38377 0
M  V30 10008 C 940.505 -1.68258 0.249664 0
M  V30 10009 O 941.69 -1.88848 0.45276 0
M  V30 10010 C 938.82 -3.25608 1.20818 0
M  V30 10011 C 937.774 -3.60032 2.31433 0
M  V30 10012 C 937.1 -4.96297 1.9898 0
M  V30 10013 C 938.4 -3.64898 3.73694 0
M  V30 10014 H 940.094 -1.88375 2.32713 0
M  V30 10015 H 937.64 -0.90489 1.12017 0
M  V30 10016 H 939.593 -4.04127 1.19412 0
M  V30 10017 H 938.317 -3.25793 0.229433 0
M  V30 10018 H 936.976 -2.83831 2.32025 0
M  V30 10019 H 936.624 -4.93043 0.995889 0
M  V30 10020 H 936.324 -5.20298 2.73063 0
M  V30 10021 H 937.848 -5.77196 1.99193 0
M  V30 10022 H 939.262 -4.33531 3.75132 0
M  V30 10023 H 937.659 -4.00407 4.46983 0
M  V30 10024 H 938.729 -2.65124 4.06002 0
M  V30 10025 N 940.072 -1.23292 -0.981677 0
M  V30 10026 C 941.004 -0.970782 -2.07626 0
M  V30 10027 C 942.017 0.0547506 -1.62708 0
M  V30 10028 O 943.206 -0.180623 -1.77584 0
M  V30 10029 C 940.306 -0.44055 -3.36024 0
M  V30 10030 C 939.479 -1.52595 -4.09919 0
M  V30 10031 C 938.538 -1.00082 -5.16595 0
M  V30 10032 O 937.564 -1.68951 -5.43548 0
M  V30 10033 N 938.766 0.172017 -5.80245 0
M  V30 10034 H 941.531 -1.91316 -2.30691 0
M  V30 10035 H 939.092 -1.14133 -1.14828 0
M  V30 10036 H 941.084 -0.0743111 -4.04632 0
M  V30 10037 H 939.654 0.407211 -3.09936 0
M  V30 10038 H 938.874 -2.06501 -3.35784 0
M  V30 10039 H 940.162 -2.2559 -4.56055 0
M  V30 10040 H 939.56 0.748129 -5.60731 0
M  V30 10041 H 938.117 0.479532 -6.50034 0
M  V30 10042 N 941.55 1.18024 -1.04442 0
M  V30 10043 C 942.513 2.19992 -0.643136 0
M  V30 10044 C 943.513 1.57949 0.301444 0
M  V30 10045 O 944.703 1.73986 0.0863341 0
M  V30 10046 C 941.835 3.40853 0.0565208 0
M  V30 10047 H 943.028 2.57008 -1.54554 0
M  V30 10048 H 940.581 1.31974 -0.837408 0
M  V30 10049 H 941.316 3.09373 0.972553 0
M  V30 10050 H 941.101 3.87128 -0.622439 0
M  V30 10051 H 942.591 4.16344 0.323652 0
M  V30 10052 N 943.028 0.824394 1.34319 0
M  V30 10053 C 943.978 0.219624 2.2694 0
M  V30 10054 C 944.962 -0.616964 1.48601 0
M  V30 10055 O 946.154 -0.471303 1.7061 0
M  V30 10056 C 943.283 -0.616379 3.37721 0
M  V30 10057 C 942.369 0.230917 4.23471 0
M  V30 10058 N 942.76 1.30264 4.88738 0
M  V30 10059 C 941.058 0.0155016 4.45997 0
M  V30 10060 C 941.759 1.82141 5.52449 0
M  V30 10061 N 940.735 1.12508 5.3183 0
M  V30 10062 H 944.537 1.03939 2.74907 0
M  V30 10063 H 942.051 0.667353 1.48055 0
M  V30 10064 H 944.048 -1.06582 4.03046 0
M  V30 10065 H 942.708 -1.43429 2.91304 0
M  V30 10066 H 943.719 1.68545 4.89707 0
M  V30 10067 H 940.396 -0.770128 4.10336 0
M  V30 10068 H 941.786 2.7181 6.14466 0
M  V30 10069 N 944.506 -1.46559 0.579492 0
M  V30 10070 C 945.436 -2.33059 -0.143437 0
M  V30 10071 C 946.417 -1.4515 -0.886868 0
M  V30 10072 O 947.602 -1.73973 -0.862961 0
M  V30 10073 C 944.732 -3.27364 -1.15973 0
M  V30 10074 C 943.686 -4.24689 -0.531348 0
M  V30 10075 C 943.012 -5.08479 -1.65388 0
M  V30 10076 C 944.312 -5.1961 0.529391 0
M  V30 10077 H 946.006 -2.93753 0.578762 0
M  V30 10078 H 943.552 -1.41256 0.279775 0
M  V30 10079 H 945.505 -3.86732 -1.67382 0
M  V30 10080 H 944.229 -2.64771 -1.91217 0
M  V30 10081 H 942.888 -3.6658 -0.0383749 0
M  V30 10082 H 942.536 -4.42273 -2.3959 0
M  V30 10083 H 942.236 -5.74387 -1.23909 0
M  V30 10084 H 943.76 -5.70709 -2.17079 0
M  V30 10085 H 945.174 -5.73212 0.100506 0
M  V30 10086 H 943.571 -5.93843 0.86432 0
M  V30 10087 H 944.641 -4.63737 1.4169 0
M  V30 10088 N 945.984 -0.3171 -1.54377 0
M  V30 10089 C 946.914 0.544623 -2.2706 0
M  V30 10090 C 947.895 1.12469 -1.27611 0
M  V30 10091 O 949.08 1.15103 -1.56413 0
M  V30 10092 C 946.21 1.70879 -3.02353 0
M  V30 10093 C 945.164 1.25833 -4.09084 0
M  V30 10094 C 944.49 2.50894 -4.72182 0
M  V30 10095 C 945.79 0.377876 -5.20931 0
M  V30 10096 H 947.484 -0.0616372 -2.99337 0
M  V30 10097 H 945.03 -0.0310848 -1.43966 0
M  V30 10098 H 946.983 2.31787 -3.51927 0
M  V30 10099 H 945.707 2.34155 -2.27682 0
M  V30 10100 H 944.366 0.672228 -3.60384 0
M  V30 10101 H 944.014 3.12518 -3.94134 0
M  V30 10102 H 943.714 2.21447 -5.44275 0
M  V30 10103 H 945.238 3.12575 -5.24528 0
M  V30 10104 H 946.652 0.893056 -5.66302 0
M  V30 10105 H 945.049 0.176474 -5.9984 0
M  V30 10106 H 946.119 -0.592943 -4.81261 0
M  V30 10107 N 947.462 1.57535 -0.0451378 0
M  V30 10108 C 948.394 2.08109 0.960372 0
M  V30 10109 C 949.407 1.0077 1.27864 0
M  V30 10110 O 950.596 1.28351 1.24049 0
M  V30 10111 C 947.696 2.50414 2.28355 0
M  V30 10112 C 946.869 3.8102 2.14808 0
M  V30 10113 C 945.928 4.09702 3.30198 0
M  V30 10114 O 944.954 4.79715 3.0637 0
M  V30 10115 N 946.156 3.61138 4.54489 0
M  V30 10116 H 948.921 2.94999 0.528752 0
M  V30 10117 H 946.482 1.61283 0.141248 0
M  V30 10118 H 948.474 2.66683 3.04405 0
M  V30 10119 H 947.044 1.68805 2.63104 0
M  V30 10120 H 946.264 3.74392 1.23387 0
M  V30 10121 H 947.552 4.66559 2.02978 0
M  V30 10122 H 946.95 3.04527 4.76739 0
M  V30 10123 H 945.507 3.82656 5.27653 0
M  V30 10124 N 948.94 -0.228186 1.55939 0
M  V30 10125 C 949.89 -1.28607 1.88267 0
M  V30 10126 C 950.874 -1.42606 0.745139 0
M  V30 10127 O 952.066 -1.45533 1.00743 0
M  V30 10128 C 949.195 -2.63783 2.19712 0
M  V30 10129 C 948.281 -2.53712 3.3984 0
M  V30 10130 N 948.672 -2.13287 4.58631 0
M  V30 10131 C 946.97 -2.84686 3.43322 0
M  V30 10132 C 947.671 -2.14305 5.40785 0
M  V30 10133 N 946.647 -2.54536 4.80325 0
M  V30 10134 H 950.449 -0.964307 2.7763 0
M  V30 10135 H 947.963 -0.436769 1.56416 0
M  V30 10136 H 949.96 -3.40152 2.41044 0
M  V30 10137 H 948.62 -2.9681 1.31657 0
M  V30 10138 H 949.631 -1.84525 4.83912 0
M  V30 10139 H 946.308 -3.22129 2.65592 0
M  V30 10140 H 947.698 -1.85231 6.45863 0
M  V30 10141 N 950.418 -1.49637 -0.494624 0
M  V30 10142 C 951.664 -1.59681 -1.25019 0
M  V30 10143 C 951.997 -0.285511 -1.9209 0
M  V30 10144 O 951.272 0.711398 -1.81023 0
M  V30 10145 C 951.555 -2.76058 -2.31222 0
M  V30 10146 C 951.408 -4.17002 -1.68611 0
M  V30 10147 C 952.727 -2.88056 -3.32734 0
M  V30 10148 H 949.846 -0.581209 -0.453172 0
M  V30 10149 H 952.488 -1.81944 -0.547391 0
M  V30 10150 H 950.638 -2.57207 -2.91164 0
M  V30 10151 H 952.31 -4.47385 -1.12447 0
M  V30 10152 H 950.553 -4.22352 -0.989991 0
M  V30 10153 H 951.224 -4.94316 -2.45674 0
M  V30 10154 H 953.7 -3.05237 -2.82789 0
M  V30 10155 H 952.576 -3.71151 -4.04399 0
M  V30 10156 H 952.837 -1.97676 -3.95445 0
M  V30 10157 N 951.896 0.746133 -1.38819 0
M  V30 10158 C 953.312 1.0502 -1.20179 0
M  V30 10159 C 953.512 2.01423 -0.0556271 0
M  V30 10160 O 952.568 2.45359 0.59625 0
M  V30 10161 C 953.881 1.62315 -2.53129 0
M  V30 10162 C 955.429 1.74449 -2.59878 0
M  V30 10163 C 955.904 2.35155 -3.93022 0
M  V30 10164 N 957.395 2.42577 -3.94602 0
M  V30 10165 C 958.13 2.9046 -4.94389 0
M  V30 10166 N 957.626 3.38322 -6.04574 0
M  V30 10167 N 959.419 2.89568 -4.81775 0
M  V30 10168 H 951.57 0.106551 -2.12133 0
M  V30 10169 H 953.833 0.109897 -0.941609 0
M  V30 10170 H 953.539 0.98946 -3.37495 0
M  V30 10171 H 953.413 2.61276 -2.72057 0
M  V30 10172 H 955.8 2.36943 -1.75903 0
M  V30 10173 H 955.881 0.741721 -2.4481 0
M  V30 10174 H 955.525 1.73292 -4.77422 0
M  V30 10175 H 955.455 3.36088 -4.05404 0
M  V30 10176 H 957.946 2.08735 -3.15021 0
M  V30 10177 H 958.259 3.73336 -6.76639 0
M  V30 10178 H 956.604 3.3636 -6.08184 0
M  V30 10179 H 959.795 2.51492 -3.94803 0
M  V30 10180 H 959.968 3.26571 -5.59692 0
M  V30 10181 N 953.375 1.23811 0.975125 0
M  V30 10182 C 954.624 1.06741 1.71141 0
M  V30 10183 C 954.937 -0.394986 1.9157 0
M  V30 10184 O 956.143 -0.685723 2.62698 0
M  V30 10185 C 954.599 1.86168 3.08009 0
M  V30 10186 C 954.207 3.36771 2.95448 0
M  V30 10187 C 955.951 1.77604 3.85561 0
M  V30 10188 C 953.858 4.0857 4.2758 0
M  V30 10189 H 952.788 0.395819 0.64175 0
M  V30 10190 H 955.439 1.47825 1.0872 0
M  V30 10191 H 953.821 1.37893 3.71216 0
M  V30 10192 H 954.995 3.92571 2.41298 0
M  V30 10193 H 953.31 3.46205 2.31368 0
M  V30 10194 H 955.907 2.28556 4.83391 0
M  V30 10195 H 956.25 0.739837 4.09673 0
M  V30 10196 H 956.783 2.23519 3.29065 0
M  V30 10197 H 953.522 5.12518 4.08663 0
M  V30 10198 H 953.042 3.57556 4.81574 0
M  V30 10199 H 954.721 4.15157 4.9624 0
M  V30 10200 N 954.853 -1.17469 1.05066 0
M  V30 10201 C 956.264 -1.69334 0.786304 0
M  V30 10202 C 956.615 -1.83604 -0.691671 0
M  V30 10203 O 955.74 -1.52269 -1.53763 0
M  V30 10204 C 956.335 -3.07572 1.42074 0
M  V30 10205 C 954.894 -3.56609 1.20446 0
M  V30 10206 C 954.041 -2.329 1.50508 0
M  V30 10207 H 956.992 -1.02003 1.21577 0
M  V30 10208 H 957.013 -3.71352 0.829334 0
M  V30 10209 H 956.525 -2.97154 2.49642 0
M  V30 10210 H 954.626 -3.72306 0.147968 0
M  V30 10211 H 954.739 -4.39446 1.90852 0
M  V30 10212 H 953.103 -2.37305 0.925124 0
M  V30 10213 H 953.886 -2.25093 2.59207 0
M  V30 10214 N 956.331 -0.831506 -1.3388 0
M  V30 10215 C 957.561 -0.436292 -2.01941 0
M  V30 10216 C 957.969 0.964979 -1.62741 0
M  V30 10217 O 957.312 1.63733 -0.832894 0
M  V30 10218 C 957.374 -0.468811 -3.5643 0
M  V30 10219 C 957.038 -1.82491 -4.18982 0
M  V30 10220 C 958.035 -2.78705 -4.38885 0
M  V30 10221 C 955.72 -2.11574 -4.55568 0
M  V30 10222 C 957.714 -4.02168 -4.94509 0
M  V30 10223 C 955.401 -3.35296 -5.10901 0
M  V30 10224 C 956.399 -4.3041 -5.30317 0
M  V30 10225 O 956.087 -5.51944 -5.84477 0
M  V30 10226 H 955.819 -0.172335 -0.653664 0
M  V30 10227 H 958.373 -1.12354 -1.71947 0
M  V30 10228 H 956.603 0.275179 -3.8572 0
M  V30 10229 H 958.292 -0.0924518 -4.05795 0
M  V30 10230 H 959.058 -2.57534 -4.10976 0
M  V30 10231 H 954.937 -1.38338 -4.39754 0
M  V30 10232 H 958.481 -4.76418 -5.09579 0
M  V30 10233 H 954.378 -3.56326 -5.3824 0
M  V30 10234 H 955.146 -5.53582 -6.029 0
M  V30 10235 N 957.809 1.4625 -0.587256 0
M  V30 10236 C 959.039 2.06444 -0.0802135 0
M  V30 10237 C 959.447 1.43585 1.23207 0
M  V30 10238 O 958.79 0.536956 1.75677 0
M  V30 10239 C 958.852 3.59165 0.155129 0
M  V30 10240 C 958.516 4.44243 -1.07225 0
M  V30 10241 C 959.513 4.80497 -1.98542 0
M  V30 10242 C 957.198 4.8531 -1.29537 0
M  V30 10243 C 959.192 5.56649 -3.10516 0
M  V30 10244 C 956.879 5.61221 -2.41815 0
M  V30 10245 C 957.877 5.96805 -3.32134 0
M  V30 10246 O 957.565 6.71181 -4.42461 0
M  V30 10247 H 957.297 0.673626 -0.0566063 0
M  V30 10248 H 959.851 1.88797 -0.809004 0
M  V30 10249 H 958.081 3.75137 0.938583 0
M  V30 10250 H 959.77 4.01271 0.611243 0
M  V30 10251 H 960.536 4.49345 -1.82522 0
M  V30 10252 H 956.415 4.5706 -0.601431 0
M  V30 10253 H 959.959 5.84343 -3.81037 0
M  V30 10254 H 955.856 5.91786 -2.57797 0
M  V30 10255 H 956.624 6.8961 -4.40886 0
M  V30 10256 N 959.287 0.325282 1.54207 0
M  V30 10257 C 960.235 -0.5554 2.25872 0
M  V30 10258 C 961.229 -1.11714 1.27344 0
M  V30 10259 O 962.435 -1.06498 1.45115 0
M  V30 10260 H 958.81 -0.19776 0.725531 0
M  V30 10261 H 960.781 0.0712858 2.98315 0
M  V30 10262 C 959.53 -1.70379 3.03095 0
M  V30 10263 H 958.853 -1.2808 3.78729 0
M  V30 10264 H 960.293 -2.29556 3.56483 0
M  V30 10265 C 958.752 -2.62242 2.11496 0
M  V30 10266 O 959.282 -3.64003 1.69895 0
M  V30 10267 N 957.488 -2.30515 1.7695 0
M  V30 10268 H 957.035 -1.47805 2.10978 0
M  V30 10269 H 956.993 -2.92241 1.15942 0
M  V30 10270 N 960.765 -1.57509 0.0534917 0
M  V30 10271 C 962.014 -1.91959 -0.619244 0
M  V30 10272 C 962.327 -0.933882 -1.71866 0
M  V30 10273 O 963.533 -1.17052 -2.44972 0
M  V30 10274 C 961.989 -3.40938 -1.15278 0
M  V30 10275 C 961.597 -4.47919 -0.085348 0
M  V30 10276 C 963.341 -3.84419 -1.80063 0
M  V30 10277 C 961.248 -5.88014 -0.631897 0
M  V30 10278 H 960.178 -0.71642 -0.235072 0
M  V30 10279 H 962.829 -1.83089 0.122758 0
M  V30 10280 H 961.211 -3.44821 -1.94717 0
M  V30 10281 H 962.385 -4.55629 0.688374 0
M  V30 10282 H 960.7 -4.13793 0.465178 0
M  V30 10283 H 963.297 -4.86457 -2.21954 0
M  V30 10284 H 963.64 -3.20791 -2.65328 0
M  V30 10285 H 964.173 -3.83062 -1.07275 0
M  V30 10286 H 960.912 -6.55244 0.183175 0
M  V30 10287 H 960.432 -5.83861 -1.37355 0
M  V30 10288 H 962.111 -6.37336 -1.11407 0
M  V30 10289 N 962.243 0.219913 -1.56058 0
M  V30 10290 C 963.193 1.27606 -1.88946 0
M  V30 10291 C 964.177 1.42209 -0.752691 0
M  V30 10292 O 965.369 1.44996 -1.01514 0
M  V30 10293 C 962.498 2.62614 -2.21108 0
M  V30 10294 C 961.584 2.51906 -3.4118 0
M  V30 10295 N 961.975 2.10851 -4.59756 0
M  V30 10296 C 960.273 2.82861 -3.44827 0
M  V30 10297 C 960.974 2.11434 -5.41914 0
M  V30 10298 N 959.95 2.51985 -4.81669 0
M  V30 10299 H 963.752 0.94957 -2.78137 0
M  V30 10300 H 961.266 0.428468 -1.56646 0
M  V30 10301 H 963.263 3.38869 -2.42844 0
M  V30 10302 H 961.923 2.96108 -1.3323 0
M  V30 10303 H 962.934 1.81956 -4.84884 0
M  V30 10304 H 959.611 3.20716 -2.67297 0
M  V30 10305 H 961.001 1.81803 -6.46836 0
M  V30 10306 N 963.721 1.49897 0.486681 0
M  V30 10307 C 965.132 1.53142 1.06792 0
M  V30 10308 C 965.483 0.325856 1.93475 0
M  V30 10309 O 964.608 -0.562893 2.08951 0
M  V30 10310 C 965.203 2.77514 1.94348 0
M  V30 10311 C 963.762 2.83491 2.47609 0
M  V30 10312 C 962.909 2.47239 1.2557 0
M  V30 10313 H 965.86 1.56387 0.269962 0
M  V30 10314 H 965.881 2.58487 2.79221 0
M  V30 10315 H 965.393 3.65239 1.31232 0
M  V30 10316 H 963.494 2.0008 3.14323 0
M  V30 10317 H 963.607 3.86011 2.83782 0
M  V30 10318 H 961.971 1.99332 1.58552 0
M  V30 10319 H 962.754 3.37255 0.641404 0
M  V30 10320 N 965.199 -0.738761 1.39212 0
M  V30 10321 C 966.132 -1.86135 1.32018 0
M  V30 10322 C 967.11 -1.61432 0.194512 0
M  V30 10323 O 968.294 -1.84746 0.374331 0
M  V30 10324 C 965.421 -3.22044 1.04907 0
M  V30 10325 C 964.467 -3.65612 2.19613 0
M  V30 10326 S 965.3 -3.75418 3.81866 0
M  V30 10327 C 966.456 -5.14122 3.56972 0
M  V30 10328 H 966.689 -1.91954 2.27027 0
M  V30 10329 H 964.222 -0.903244 1.25223 0
M  V30 10330 H 966.18 -4.00524 0.899491 0
M  V30 10331 H 964.841 -3.13886 0.115918 0
M  V30 10332 H 964.034 -4.64232 1.96227 0
M  V30 10333 H 963.636 -2.94327 2.30755 0
M  V30 10334 H 965.928 -6.00339 3.14005 0
M  V30 10335 H 966.871 -5.42535 4.55039 0
M  V30 10336 H 967.279 -4.8362 2.91156 0
M  V30 10337 N 966.677 -1.24326 -0.968545 0
M  V30 10338 C 968.088 -1.07561 -1.52603 0
M  V30 10339 C 968.439 0.353245 -1.92994 0
M  V30 10340 O 967.564 1.24151 -1.77244 0
M  V30 10341 C 968.159 -1.94634 -2.77314 0
M  V30 10342 C 966.718 -1.82095 -3.29421 0
M  V30 10343 C 965.865 -1.8962 -2.02335 0
M  V30 10344 H 968.816 -1.37815 -0.786932 0
M  V30 10345 H 968.837 -1.47812 -3.50616 0
M  V30 10346 H 968.349 -2.98621 -2.47885 0
M  V30 10347 H 966.45 -0.809376 -3.63703 0
M  V30 10348 H 966.563 -2.66142 -3.98378 0
M  V30 10349 H 964.927 -1.33339 -2.17009 0
M  V30 10350 H 965.71 -2.95185 -1.75273 0
M  V30 10351 N 968.156 1.1691 -1.05688 0
M  V30 10352 C 969.402 1.8757 -0.771071 0
M  V30 10353 C 969.735 1.8113 0.700399 0
M  V30 10354 O 969.01 1.22273 1.5126 0
M  V30 10355 C 969.293 3.37392 -1.25851 0
M  V30 10356 C 969.146 3.52556 -2.79329 0
M  V30 10357 C 970.465 4.31585 -0.861512 0
M  V30 10358 H 967.584 0.681089 -0.281579 0
M  V30 10359 H 970.226 1.37453 -1.31174 0
M  V30 10360 H 968.376 3.80204 -0.798563 0
M  V30 10361 H 970.048 3.18725 -3.33485 0
M  V30 10362 H 968.291 2.94668 -3.1836 0
M  V30 10363 H 968.962 4.57748 -3.08498 0
M  V30 10364 H 971.438 3.96642 -1.25756 0
M  V30 10365 H 970.314 5.34939 -1.23012 0
M  V30 10366 H 970.575 4.4148 0.234089 0
M  V30 10367 N 969.634 0.838594 1.33437 0
M  V30 10368 C 970.584 0.243681 2.26694 0
M  V30 10369 C 971.568 -0.601168 1.49247 0
M  V30 10370 O 972.76 -0.453181 1.711 0
M  V30 10371 C 969.889 -0.580525 3.38356 0
M  V30 10372 C 968.975 0.275819 4.23202 0
M  V30 10373 N 969.366 1.3544 4.87329 0
M  V30 10374 C 967.664 0.0628047 4.45956 0
M  V30 10375 C 968.365 1.87991 5.50486 0
M  V30 10376 N 967.341 1.18143 5.30607 0
M  V30 10377 H 971.143 1.06849 2.73789 0
M  V30 10378 H 968.657 0.683019 1.47338 0
M  V30 10379 H 970.654 -1.02301 4.04153 0
M  V30 10380 H 969.314 -1.40331 2.92809 0
M  V30 10381 H 970.325 1.73729 4.87892 0
M  V30 10382 H 967.002 -0.726563 4.11129 0
M  V30 10383 H 968.392 2.78312 6.11549 0
M  V30 10384 N 971.112 -1.45937 0.595003 0
M  V30 10385 C 972.042 -2.33198 -0.11871 0
M  V30 10386 C 973.023 -1.46083 -0.871423 0
M  V30 10387 O 974.208 -1.74879 -0.844461 0
M  V30 10388 C 971.338 -3.28576 -1.12495 0
M  V30 10389 C 970.292 -4.25229 -0.486275 0
M  V30 10390 C 969.618 -5.10204 -1.59986 0
M  V30 10391 C 970.918 -5.19019 0.584473 0
M  V30 10392 H 972.612 -2.93122 0.609886 0
M  V30 10393 H 970.158 -1.40951 0.294742 0
M  V30 10394 H 972.111 -3.88485 -1.6327 0
M  V30 10395 H 970.835 -2.66784 -1.88398 0
M  V30 10396 H 969.494 -3.666 0.000507962 0
M  V30 10397 H 969.142 -4.44789 -2.34886 0
M  V30 10398 H 968.842 -5.75669 -1.1781 0
M  V30 10399 H 970.366 -5.7298 -2.11014 0
M  V30 10400 H 971.78 -5.73073 0.161297 0
M  V30 10401 H 970.177 -5.92893 0.927256 0
M  V30 10402 H 971.247 -4.62208 1.46601 0
M  V30 10403 N 972.59 -0.333456 -1.54032 0
M  V30 10404 C 973.522 0.562174 -2.22199 0
M  V30 10405 C 974.535 1.07202 -1.22522 0
M  V30 10406 O 975.724 0.983897 -1.48935 0
M  V30 10407 C 972.824 1.78525 -2.88066 0
M  V30 10408 C 971.997 1.41242 -4.13968 0
M  V30 10409 C 971.056 2.49408 -4.63338 0
M  V30 10410 O 970.082 2.13138 -5.27789 0
M  V30 10411 N 971.284 3.805 -4.38406 0
M  V30 10412 H 974.049 -0.0215629 -2.99692 0
M  V30 10413 H 971.61 -0.157111 -1.61136 0
M  V30 10414 H 973.602 2.50298 -3.18014 0
M  V30 10415 H 972.172 2.2766 -2.14219 0
M  V30 10416 H 971.392 0.525887 -3.90676 0
M  V30 10417 H 972.68 1.13916 -4.95884 0
M  V30 10418 H 972.078 4.12761 -3.86839 0
M  V30 10419 H 970.635 4.48474 -4.72984 0
M  V30 10420 N 974.068 1.57479 -0.061844 0
M  V30 10421 C 975 2.09116 0.938245 0
M  V30 10422 C 976.013 1.0212 1.26788 0
M  V30 10423 O 977.202 1.2966 1.22681 0
M  V30 10424 C 974.302 2.52822 2.25686 0
M  V30 10425 C 973.475 3.83277 2.10755 0
M  V30 10426 C 972.534 4.13182 3.25833 0
M  V30 10427 O 971.56 4.82937 3.01265 0
M  V30 10428 N 972.762 3.65938 4.50633 0
M  V30 10429 H 975.527 2.95543 0.497433 0
M  V30 10430 H 973.088 1.61423 0.124134 0
M  V30 10431 H 975.08 2.69896 3.01559 0
M  V30 10432 H 973.65 1.71586 2.61299 0
M  V30 10433 H 972.87 3.7568 1.19409 0
M  V30 10434 H 974.158 4.68686 1.98018 0
M  V30 10435 H 973.556 3.09566 4.73482 0
M  V30 10436 H 972.113 3.8823 5.23565 0
M  V30 10437 N 975.546 -0.211634 1.56173 0
M  V30 10438 C 976.962 -0.56177 1.49386 0
M  V30 10439 C 977.162 -1.86666 0.758813 0
M  V30 10440 O 976.218 -2.50681 0.302534 0
M  V30 10441 C 977.531 -0.631815 2.93987 0
M  V30 10442 C 979.079 -0.721773 3.04564 0
M  V30 10443 C 979.554 -0.823075 4.50544 0
M  V30 10444 N 981.045 -0.887038 4.54627 0
M  V30 10445 C 981.78 -0.985304 5.64871 0
M  V30 10446 N 981.276 -1.0469 6.84844 0
M  V30 10447 N 983.069 -1.02121 5.52746 0
M  V30 10448 H 975.22 0.64452 2.02385 0
M  V30 10449 H 977.483 0.227466 0.920306 0
M  V30 10450 H 977.189 0.257592 3.50755 0
M  V30 10451 H 977.063 -1.4921 3.46433 0
M  V30 10452 H 979.45 -1.60162 2.47855 0
M  V30 10453 H 979.531 0.164385 2.55271 0
M  V30 10454 H 979.175 0.0523511 5.07873 0
M  V30 10455 H 979.105 -1.72479 4.97552 0
M  V30 10456 H 981.596 -0.849352 3.68231 0
M  V30 10457 H 981.909 -1.12193 7.64613 0
M  V30 10458 H 980.254 -1.01586 6.87536 0
M  V30 10459 H 983.445 -0.969814 4.57943 0
M  V30 10460 H 983.618 -1.09434 6.38693 0
M  V30 10461 N 977.024 -1.50153 -0.478725 0
M  V30 10462 C 977.954 -1.71384 -1.58587 0
M  V30 10463 C 978.935 -0.562705 -1.60523 0
M  V30 10464 O 980.12 -0.80101 -1.76911 0
M  V30 10465 C 977.25 -1.80094 -2.96957 0
M  V30 10466 C 976.204 -2.95218 -3.09888 0
M  V30 10467 C 975.53 -2.89063 -4.49829 0
M  V30 10468 C 976.83 -4.35841 -2.8782 0
M  V30 10469 H 978.524 -2.64081 -1.41073 0
M  V30 10470 H 976.07 -1.27081 -0.677239 0
M  V30 10471 H 978.023 -1.93531 -3.74331 0
M  V30 10472 H 976.747 -0.840131 -3.1561 0
M  V30 10473 H 975.406 -2.81419 -2.34944 0
M  V30 10474 H 975.054 -1.90844 -4.6539 0
M  V30 10475 H 974.754 -3.66345 -4.59418 0
M  V30 10476 H 976.278 -3.04539 -5.29234 0
M  V30 10477 H 977.692 -4.50205 -3.54948 0
M  V30 10478 H 976.089 -5.14515 -3.0886 0
M  V30 10479 H 977.159 -4.48739 -1.83742 0
M  V30 10480 N 978.502 0.731368 -1.39602 0
M  V30 10481 C 979.742 1.5036 -1.3846 0
M  V30 10482 C 980.106 1.91991 0.018784 0
M  V30 10483 O 981.307 2.68351 0.155236 0
M  V30 10484 C 979.578 2.70755 -2.33295 0
M  V30 10485 S 981.137 3.6036 -2.50372 0
M  V30 10486 H 977.955 0.514271 -0.490964 0
M  V30 10487 H 980.557 0.856654 -1.75732 0
M  V30 10488 H 979.261 2.38316 -3.34116 0
M  V30 10489 H 978.792 3.40376 -1.97251 0
M  V30 10490 H 980.807 4.64529 -1.74435 0
M  V30 10491 N 979.98 1.24838 0.961938 0
M  V30 10492 C 980.943 1.04674 2.03902 0
M  V30 10493 C 981.943 0.00204674 1.608 0
M  V30 10494 O 983.133 0.243555 1.72489 0
M  V30 10495 C 980.265 0.587736 3.35795 0
M  V30 10496 H 981.458 2.00278 2.23223 0
M  V30 10497 H 979.011 1.07142 1.138 0
M  V30 10498 H 979.746 -0.371244 3.22168 0
M  V30 10499 H 979.531 1.34182 3.68426 0
M  V30 10500 H 981.021 0.467867 4.14971 0
M  V30 10501 N 981.458 -1.16348 1.06306 0
M  V30 10502 C 982.368 -2.24375 0.685059 0
M  V30 10503 C 983.384 -1.71413 -0.298956 0
M  V30 10504 O 984.56 -2.00854 -0.148239 0
M  V30 10505 C 981.625 -3.46614 0.0774088 0
M  V30 10506 C 980.686 -4.14613 1.11331 0
M  V30 10507 C 979.919 -5.31016 0.534559 0
M  V30 10508 O 980.142 -5.66654 -0.65265 0
M  V30 10509 O 979.076 -5.88256 1.27431 0
M  V30 10510 H 982.902 -2.59018 1.58566 0
M  V30 10511 H 980.487 -1.23865 0.835332 0
M  V30 10512 H 982.369 -4.20599 -0.259716 0
M  V30 10513 H 981.044 -3.13743 -0.796677 0
M  V30 10514 H 979.951 -3.42597 1.50261 0
M  V30 10515 H 981.284 -4.51538 1.95893 0
M  V30 10516 N 982.937 -0.845659 -1.3299 0
M  V30 10517 C 983.847 -0.2864 -2.32845 0
M  V30 10518 C 984.863 0.591105 -1.63652 0
M  V30 10519 O 986.039 0.493615 -1.95257 0
M  V30 10520 C 983.104 0.523636 -3.42723 0
M  V30 10521 C 982.165 -0.378945 -4.27624 0
M  V30 10522 C 981.398 0.392526 -5.32255 0
M  V30 10523 O 981.621 1.6235 -5.46808 0
M  V30 10524 O 980.555 -0.237 -6.01433 0
M  V30 10525 H 984.381 -1.11346 -2.82552 0
M  V30 10526 H 981.966 -0.608356 -1.36453 0
M  V30 10527 H 983.848 0.983718 -4.09757 0
M  V30 10528 H 982.523 1.32764 -2.95221 0
M  V30 10529 H 981.43 -0.887012 -3.63432 0
M  V30 10530 H 982.763 -1.1479 -4.78627 0
M  V30 10531 N 984.415 1.45619 -0.602734 0
M  V30 10532 C 985.692 1.9558 -0.0282472 0
M  V30 10533 C 986.072 1.54523 1.43826 0
M  V30 10534 O 985.42 0.805456 2.13833 0
M  V30 10535 C 985.63 3.48298 -0.221263 0
M  V30 10536 C 986.978 4.24483 -0.0995249 0
M  V30 10537 O 988.002 3.55879 -0.151132 0
M  V30 10538 O 986.861 5.46497 0.0194454 0
M  V30 10539 H 983.955 0.826104 0.0384897 0
M  V30 10540 H 986.501 1.55808 -0.672456 0
M  V30 10541 H 985.273 3.71134 -1.23997 0
M  V30 10542 H 984.896 3.94948 0.458437 0
M  V30 10543 N 985.893 0.34162 1.53853 0
M  V30 10544 C 986.825 -0.550383 2.22494 0
M  V30 10545 C 987.838 -1.0655 1.23089 0
M  V30 10546 O 989.027 -0.975985 1.49455 0
M  V30 10547 C 986.127 -1.76995 2.89009 0
M  V30 10548 C 985.3 -1.39045 4.14711 0
M  V30 10549 C 984.359 -2.46947 4.64654 0
M  V30 10550 O 983.385 -2.10336 5.28912 0
M  V30 10551 N 984.587 -3.7817 4.40418 0
M  V30 10552 H 987.352 0.037456 2.99677 0
M  V30 10553 H 984.913 0.165654 1.6105 0
M  V30 10554 H 986.905 -2.48608 3.19337 0
M  V30 10555 H 985.475 -2.2652 2.15424 0
M  V30 10556 H 984.695 -0.505161 3.9095 0
M  V30 10557 H 985.983 -1.11284 4.96481 0
M  V30 10558 H 985.381 -4.10704 3.89023 0
M  V30 10559 H 983.938 -4.45959 4.75356 0
M  V30 10560 N 987.371 -1.57444 0.0701946 0
M  V30 10561 C 988.619 -1.93047 -0.598106 0
M  V30 10562 C 988.94 -0.950841 -1.70247 0
M  V30 10563 O 988.21 0.00127177 -1.959 0
M  V30 10564 H 986.79 -0.712648 -0.223924 0
M  V30 10565 H 989.452 -1.94481 0.127674 0
M  V30 10566 H 988.548 -2.94807 -1.02445 0
M  V30 10567 N 988.849 0.203349 -1.56283 0
M  V30 10568 C 989.812 1.23566 -1.93039 0
M  V30 10569 C 990.812 1.38869 -0.810687 0
M  V30 10570 O 992.002 1.36822 -1.07821 0
M  V30 10571 C 989.134 2.60645 -2.1972 0
M  V30 10572 H 990.327 0.921692 -2.85385 0
M  V30 10573 H 987.88 0.44453 -1.49845 0
M  V30 10574 H 988.615 2.9711 -1.29985 0
M  V30 10575 H 988.4 2.50911 -3.01307 0
M  V30 10576 H 989.89 3.35103 -2.4919 0
M  V30 10577 N 990.327 1.50405 0.470755 0
M  V30 10578 C 991.259 1.65447 1.58619 0
M  V30 10579 C 992.272 0.535949 1.53725 0
M  V30 10580 O 993.461 0.80914 1.59107 0
M  V30 10581 C 990.561 1.62318 2.975 0
M  V30 10582 C 989.734 2.90207 3.27259 0
M  V30 10583 C 988.793 2.79717 4.45696 0
M  V30 10584 O 987.819 3.53672 4.45987 0
M  V30 10585 N 989.021 1.93296 5.47373 0
M  V30 10586 H 991.786 2.61659 1.46132 0
M  V30 10587 H 989.347 1.47873 0.659178 0
M  V30 10588 H 991.339 1.52912 3.747 0
M  V30 10589 H 989.909 0.738392 3.03754 0
M  V30 10590 H 989.129 3.13737 2.38669 0
M  V30 10591 H 990.417 3.74931 3.43953 0
M  V30 10592 H 989.815 1.32524 5.49958 0
M  V30 10593 H 988.372 1.89793 6.23556 0
M  V30 10594 N 991.805 -0.723954 1.39988 0
M  V30 10595 C 993.054 -1.47922 1.3712 0
M  V30 10596 C 993.367 -1.95582 -0.0263665 0
M  V30 10597 O 994.573 -2.70918 -0.177652 0
M  V30 10598 C 993.029 -2.67342 2.40949 0
M  V30 10599 C 992.637 -2.26586 3.86475 0
M  V30 10600 C 994.381 -3.45116 2.47174 0
M  V30 10601 C 992.288 -3.42794 4.81919 0
M  V30 10602 H 991.218 -0.555522 0.509815 0
M  V30 10603 H 993.869 -0.788692 1.65686 0
M  V30 10604 H 992.251 -3.38524 2.0547 0
M  V30 10605 H 993.425 -1.62878 4.31054 0
M  V30 10606 H 991.74 -1.61876 3.83647 0
M  V30 10607 H 994.337 -4.31573 3.15672 0
M  V30 10608 H 994.68 -3.8835 1.49966 0
M  V30 10609 H 995.213 -2.80971 2.81602 0
M  V30 10610 H 991.952 -3.046 5.8043 0
M  V30 10611 H 991.472 -4.05445 4.42012 0
M  V30 10612 H 993.151 -4.08977 5.01345 0
M  V30 10613 N 993.283 -1.25346 -0.955304 0
M  V30 10614 C 994.513 -1.12629 -1.732 0
M  V30 10615 C 994.921 0.322748 -1.86427 0
M  V30 10616 O 994.264 1.23381 -1.36099 0
M  V30 10617 C 994.326 -1.7064 -3.16421 0
M  V30 10618 C 993.99 -3.19632 -3.26626 0
M  V30 10619 C 994.987 -4.1663 -3.10991 0
M  V30 10620 C 992.672 -3.59829 -3.50468 0
M  V30 10621 C 994.666 -5.51806 -3.19043 0
M  V30 10622 C 992.353 -4.95143 -3.58157 0
M  V30 10623 C 993.351 -5.90941 -3.42459 0
M  V30 10624 O 993.039 -7.23792 -3.49828 0
M  V30 10625 H 992.771 -0.393646 -0.549562 0
M  V30 10626 H 995.325 -1.66184 -1.20715 0
M  V30 10627 H 993.555 -1.11532 -3.70267 0
M  V30 10628 H 995.244 -1.53032 -3.75947 0
M  V30 10629 H 996.01 -3.86915 -2.92441 0
M  V30 10630 H 991.889 -2.8576 -3.61749 0
M  V30 10631 H 995.433 -6.26559 -3.06707 0
M  V30 10632 H 991.33 -5.24525 -3.76224 0
M  V30 10633 H 992.098 -7.31879 -3.66463 0
M  V30 10634 N 994.761 1.15782 -1.06922 0
M  V30 10635 C 995.724 2.18578 -0.689654 0
M  V30 10636 C 996.724 1.58553 0.267872 0
M  V30 10637 O 997.914 1.7413 0.0494097 0
M  V30 10638 C 995.046 3.40896 -0.0157919 0
M  V30 10639 H 996.239 2.53672 -1.59971 0
M  V30 10640 H 993.792 1.30168 -0.865214 0
M  V30 10641 H 994.527 3.11367 0.906712 0
M  V30 10642 H 994.312 3.85721 -0.704415 0
M  V30 10643 H 995.802 4.16937 0.235266 0
M  V30 10644 N 996.239 0.8527 1.3254 0
M  V30 10645 C 997.655 0.542298 1.50104 0
M  V30 10646 C 997.855 -0.927465 1.78886 0
M  V30 10647 O 996.911 -1.7106 1.85728 0
M  V30 10648 C 998.224 1.4276 2.64651 0
M  V30 10649 C 999.772 1.42782 2.78536 0
M  V30 10650 C 1000.25 2.29828 3.9616 0
M  V30 10651 N 1001.74 2.27613 4.03418 0
M  V30 10652 C 1002.47 2.91696 4.93661 0
M  V30 10653 N 1001.97 3.64883 5.88925 0
M  V30 10654 N 1003.76 2.81094 4.86768 0
M  V30 10655 H 995.913 1.80395 1.12123 0
M  V30 10656 H 998.176 0.770394 0.552446 0
M  V30 10657 H 997.882 2.47266 2.50105 0
M  V30 10658 H 997.756 1.11358 3.60388 0
M  V30 10659 H 1000.14 0.390417 2.92506 0
M  V30 10660 H 1000.22 1.78198 1.83519 0
M  V30 10661 H 999.868 3.33635 3.82949 0
M  V30 10662 H 999.798 1.91746 4.9045 0
M  V30 10663 H 1002.29 1.74402 3.3525 0
M  V30 10664 H 1002.6 4.10952 6.54476 0
M  V30 10665 H 1000.95 3.68991 5.88957 0
M  V30 10666 H 1004.14 2.23469 4.11314 0
M  V30 10667 H 1004.31 3.31318 5.56895 0
M  V30 10668 N 997.718 -1.45297 0.610449 0
M  V30 10669 C 998.628 -2.34349 -0.108475 0
M  V30 10670 C 999.644 -1.51409 -0.857397 0
M  V30 10671 O 1000.82 -1.84202 -0.814337 0
M  V30 10672 C 997.885 -3.29072 -1.09144 0
M  V30 10673 C 996.946 -4.27918 -0.344165 0
M  V30 10674 C 996.179 -5.18116 -1.28031 0
M  V30 10675 O 996.402 -5.11802 -2.51824 0
M  V30 10676 O 995.336 -5.96879 -0.775821 0
M  V30 10677 H 999.162 -2.97232 0.623421 0
M  V30 10678 H 996.747 -1.44728 0.3707 0
M  V30 10679 H 998.629 -3.87433 -1.65751 0
M  V30 10680 H 997.304 -2.68749 -1.80431 0
M  V30 10681 H 996.211 -3.73164 0.264437 0
M  V30 10682 H 997.544 -4.91104 0.328275 0
M  V30 10683 N 999.196 -0.349774 -1.5367 0
M  V30 10684 C 1000.44 0.245862 -2.00196 0
M  V30 10685 C 1000.76 1.51154 -1.24144 0
M  V30 10686 O 1001.96 2.18481 -1.61178 0
M  V30 10687 C 1000.42 0.488665 -3.56567 0
M  V30 10688 C 1000.03 -0.761475 -4.41481 0
M  V30 10689 C 1001.77 1.04282 -4.11492 0
M  V30 10690 C 999.679 -0.489128 -5.89374 0
M  V30 10691 H 998.609 0.0956493 -0.747909 0
M  V30 10692 H 1001.26 -0.466068 -1.77483 0
M  V30 10693 H 999.642 1.26145 -3.75371 0
M  V30 10694 H 1000.82 -1.53585 -4.34452 0
M  V30 10695 H 999.131 -1.23771 -3.9758 0
M  V30 10696 H 1001.73 1.26164 -5.19603 0
M  V30 10697 H 1002.07 2.00023 -3.65098 0
M  V30 10698 H 1002.6 0.330582 -3.96424 0
M  V30 10699 H 999.343 -1.41643 -6.40014 0
M  V30 10700 H 998.863 0.247039 -5.99291 0
M  V30 10701 H 1000.54 -0.1087 -6.46909 0
M  V30 10702 N 1000.67 1.57404 -0.0785433 0
M  V30 10703 C 1001.9 1.98492 0.601292 0
M  V30 10704 C 1002.32 0.956832 1.61945 0
M  V30 10705 O 1001.68 -0.0767502 1.81137 0
M  V30 10706 C 1001.73 3.38596 1.24036 0
M  V30 10707 O 1000.83 3.38461 2.35622 0
M  V30 10708 H 1000.17 0.645882 0.154054 0
M  V30 10709 H 1002.7 2.04012 -0.155056 0
M  V30 10710 H 1002.71 3.75929 1.5856 0
M  V30 10711 H 1001.39 4.12952 0.494341 0
M  V30 10712 H 999.967 3.12906 2.02841 0
M  V30 10713 N 1002.15 -0.195058 1.56388 0
M  V30 10714 C 1003.11 -1.2254 1.93692 0
M  V30 10715 C 1004.11 -1.38437 0.81804 0
M  V30 10716 O 1005.3 -1.36248 1.08545 0
M  V30 10717 C 1002.44 -2.59476 2.21099 0
M  V30 10718 H 1003.63 -0.906544 2.8587 0
M  V30 10719 H 1001.18 -0.436577 1.50079 0
M  V30 10720 H 1001.92 -2.96417 1.31558 0
M  V30 10721 H 1001.7 -2.4931 3.02634 0
M  V30 10722 H 1003.19 -3.33777 2.50964 0
M  V30 10723 N 1003.63 -1.50653 -0.462772 0
M  V30 10724 C 1004.56 -1.73056 -1.5676 0
M  V30 10725 C 1005.54 -0.579699 -1.59917 0
M  V30 10726 O 1006.73 -0.819729 -1.76051 0
M  V30 10727 C 1003.86 -1.83234 -2.9503 0
M  V30 10728 C 1002.81 -2.98488 -3.06739 0
M  V30 10729 C 1002.14 -2.93818 -4.46738 0
M  V30 10730 C 1003.44 -4.38869 -2.83181 0
M  V30 10731 H 1005.13 -2.65562 -1.38265 0
M  V30 10732 H 1002.68 -1.27792 -0.663722 0
M  V30 10733 H 1004.63 -1.97491 -3.72257 0
M  V30 10734 H 1003.35 -0.873558 -3.14701 0
M  V30 10735 H 1002.01 -2.83895 -2.31946 0
M  V30 10736 H 1001.66 -1.95769 -4.63339 0
M  V30 10737 H 1001.36 -3.71197 -4.55507 0
M  V30 10738 H 1002.88 -3.10135 -5.25974 0
M  V30 10739 H 1004.3 -4.53945 -3.50153 0
M  V30 10740 H 1002.69 -5.17762 -3.03386 0
M  V30 10741 H 1003.76 -4.50663 -1.78972 0
M  V30 10742 N 1005.11 0.71652 -1.4037 0
M  V30 10743 C 1006.35 1.47857 -1.38803 0
M  V30 10744 C 1006.69 1.94197 0.0100536 0
M  V30 10745 O 1005.96 1.68093 0.978521 0
M  V30 10746 C 1006.25 2.7053 -2.37667 0
M  V30 10747 C 1006.1 2.3009 -3.86496 0
M  V30 10748 C 1007.42 3.72684 -2.34082 0
M  V30 10749 H 1004.54 0.53632 -0.505499 0
M  V30 10750 H 1007.18 0.817824 -1.71498 0
M  V30 10751 H 1005.33 3.26906 -2.09916 0
M  V30 10752 H 1007 1.79202 -4.2507 0
M  V30 10753 H 1005.24 1.62102 -4.02375 0
M  V30 10754 H 1005.91 3.18018 -4.51186 0
M  V30 10755 H 1008.39 3.25935 -2.58661 0
M  V30 10756 H 1007.27 4.56157 -3.05306 0
M  V30 10757 H 1007.53 4.20916 -1.35213 0
M  V30 10758 N 1006.59 1.25851 0.948643 0
M  V30 10759 C 1007.55 1.0683 2.0278 0
M  V30 10760 C 1008.55 0.0191016 1.60789 0
M  V30 10761 O 1009.74 0.261836 1.72221 0
M  V30 10762 C 1006.87 0.623318 3.35153 0
M  V30 10763 H 1008.06 2.02635 2.21086 0
M  V30 10764 H 1005.62 1.08343 1.12657 0
M  V30 10765 H 1006.35 -0.337053 3.22544 0
M  V30 10766 H 1006.14 1.38082 3.66982 0
M  V30 10767 H 1007.63 0.511854 4.14451 0
M  V30 10768 N 1008.06 -1.15214 1.07534 0
M  V30 10769 C 1009.01 -2.22078 0.69168 0
M  V30 10770 C 1010.01 -1.66751 -0.298382 0
M  V30 10771 O 1011.21 -1.7927 -0.161897 0
M  V30 10772 H 1007.59 -0.723347 0.205604 0
M  V30 10773 H 1009.56 -2.51716 1.60256 0
M  V30 10774 C 1008.31 -3.47534 0.107546 0
M  V30 10775 H 1007.63 -3.90429 0.860522 0
M  V30 10776 H 1009.07 -4.23821 -0.123215 0
M  V30 10777 C 1007.53 -3.16583 -1.15226 0
M  V30 10778 O 1008.06 -3.33551 -2.23845 0
M  V30 10779 N 1006.27 -2.70611 -1.05915 0
M  V30 10780 H 1005.81 -2.57004 -0.175198 0
M  V30 10781 H 1005.77 -2.50277 -1.90287 0
M  V30 10782 N 1009.54 -0.859717 -1.32086 0
M  V30 10783 C 1010.77 -0.478865 -2.01796 0
M  V30 10784 C 1011.19 0.918274 -1.64163 0
M  V30 10785 O 1010.55 1.60409 -0.844896 0
M  V30 10786 C 1010.6 -0.631356 -3.5503 0
M  V30 10787 O 1009.7 0.333712 -4.11048 0
M  V30 10788 H 1009.04 -0.191775 -0.635703 0
M  V30 10789 H 1011.57 -1.16031 -1.68517 0
M  V30 10790 H 1011.58 -0.520783 -4.04663 0
M  V30 10791 H 1010.26 -1.65015 -3.81763 0
M  V30 10792 H 1008.84 0.178953 -3.7247 0
M  V30 10793 N 1011.02 1.44971 -0.618145 0
M  V30 10794 C 1012.25 2.07039 -0.122395 0
M  V30 10795 C 1012.67 1.45793 1.18853 0
M  V30 10796 O 1012.03 0.55453 1.72611 0
M  V30 10797 C 1012.08 3.60599 -0.0073864 0
M  V30 10798 O 1011.18 3.99069 1.04007 0
M  V30 10799 H 1010.52 0.6593 -0.0788615 0
M  V30 10800 H 1013.05 1.86055 -0.851147 0
M  V30 10801 H 1013.06 4.07569 0.187417 0
M  V30 10802 H 1011.74 4.04561 -0.964544 0
M  V30 10803 H 1010.31 3.63753 0.820879 0
M  V30 10804 N 1012.5 0.357919 1.53482 0
M  V30 10805 C 1013.75 -0.234163 2.01142 0
M  V30 10806 C 1014.07 -1.49399 1.2454 0
M  V30 10807 O 1013.33 -1.92981 0.325111 0
M  V30 10808 C 1013.63 -0.579617 3.52669 0
M  V30 10809 C 1013.29 0.584988 4.47089 0
M  V30 10810 C 1011.96 0.904558 4.72622 0
M  V30 10811 C 1014.31 1.3656 5.02992 0
M  V30 10812 C 1011.64 2.00685 5.5131 0
M  V30 10813 C 1013.99 2.45824 5.82884 0
M  V30 10814 C 1012.65 2.78325 6.06706 0
M  V30 10815 H 1011.92 -0.0856863 0.736029 0
M  V30 10816 H 1014.57 0.488801 1.85157 0
M  V30 10817 H 1012.87 -1.38349 3.66561 0
M  V30 10818 H 1014.57 -1.04985 3.87013 0
M  V30 10819 H 1011.16 0.32587 4.27359 0
M  V30 10820 H 1015.34 1.13196 4.83219 0
M  V30 10821 H 1010.6 2.26272 5.67988 0
M  V30 10822 H 1014.77 3.06732 6.25211 0
M  V30 10823 H 1012.4 3.63862 6.67464 0
M  V30 10824 N 1013.98 -1.5736 0.0868897 0
M  V30 10825 C 1015.25 -1.85495 -0.620561 0
M  V30 10826 C 1015.63 -0.982218 -1.86857 0
M  V30 10827 O 1014.98 -0.0524529 -2.2844 0
M  V30 10828 C 1015.19 -3.35996 -0.943798 0
M  V30 10829 C 1016.54 -4.03861 -1.31079 0
M  V30 10830 O 1017.56 -3.4083 -1.03507 0
M  V30 10831 O 1016.42 -5.15062 -1.82683 0
M  V30 10832 H 1013.52 -0.766822 -0.309697 0
M  V30 10833 H 1016.06 -1.69282 0.118966 0
M  V30 10834 H 1014.83 -3.91257 -0.0580628 0
M  V30 10835 H 1014.46 -3.57525 -1.73958 0
M  V30 10836 N 1015.45 0.186762 -1.56489 0
M  V30 10837 C 1016.38 1.23395 -1.98232 0
M  V30 10838 C 1017.37 1.4702 -0.855526 0
M  V30 10839 O 1018.55 1.58616 -1.12048 0
M  V30 10840 C 1015.68 2.57635 -2.32898 0
M  V30 10841 C 1014.63 2.48607 -3.48394 0
M  V30 10842 C 1013.96 3.87196 -3.68759 0
M  V30 10843 C 1015.26 2.00398 -4.82325 0
M  V30 10844 H 1016.95 0.887026 -2.85958 0
M  V30 10845 H 1014.5 0.42525 -1.37578 0
M  V30 10846 H 1016.45 3.31082 -2.60696 0
M  V30 10847 H 1015.18 2.94084 -1.42064 0
M  V30 10848 H 1013.84 1.77615 -3.207 0
M  V30 10849 H 1013.48 4.21012 -2.75241 0
M  V30 10850 H 1013.18 3.82029 -4.46462 0
M  V30 10851 H 1014.71 4.62253 -3.98941 0
M  V30 10852 H 1016.12 2.6361 -5.091 0
M  V30 10853 H 1014.52 2.06214 -5.63556 0
M  V30 10854 H 1015.59 0.957562 -4.75351 0
M  V30 10855 N 1016.93 1.50896 0.454776 0
M  V30 10856 C 1018.18 1.6294 1.20741 0
M  V30 10857 C 1018.51 0.336339 1.91265 0
M  V30 10858 O 1017.79 -0.663153 1.82846 0
M  V30 10859 C 1018.07 2.82092 2.23822 0
M  V30 10860 C 1017.92 4.21326 1.57495 0
M  V30 10861 C 1019.24 2.96777 3.24979 0
M  V30 10862 H 1016.36 0.59302 0.437603 0
M  V30 10863 H 1019 1.83331 0.498959 0
M  V30 10864 H 1017.15 2.64837 2.84243 0
M  V30 10865 H 1018.82 4.50209 1.00546 0
M  V30 10866 H 1017.07 4.24829 0.877664 0
M  V30 10867 H 1017.74 5.00656 2.32482 0
M  V30 10868 H 1020.21 3.12627 2.74597 0
M  V30 10869 H 1019.09 3.81742 3.94416 0
M  V30 10870 H 1019.35 2.08091 3.90065 0
M  V30 10871 N 1018.41 -0.709066 1.40748 0
M  V30 10872 C 1019.34 -1.83583 1.4429 0
M  V30 10873 C 1020.32 -1.67378 0.303067 0
M  V30 10874 O 1021.51 -1.87312 0.512612 0
M  V30 10875 C 1018.64 -3.21599 1.31116 0
M  V30 10876 C 1017.59 -3.52486 2.4277 0
M  V30 10877 C 1016.92 -4.89716 2.14668 0
M  V30 10878 C 1018.22 -3.52824 3.85113 0
M  V30 10879 H 1019.91 -1.80876 2.38588 0
M  V30 10880 H 1017.46 -0.868795 1.14839 0
M  V30 10881 H 1019.41 -4.00123 1.32209 0
M  V30 10882 H 1018.13 -3.24898 0.332965 0
M  V30 10883 H 1016.79 -2.76305 2.40937 0
M  V30 10884 H 1016.44 -4.89625 1.15224 0
M  V30 10885 H 1016.14 -5.11347 2.89478 0
M  V30 10886 H 1017.66 -5.70566 2.17455 0
M  V30 10887 H 1019.08 -4.21377 3.88734 0
M  V30 10888 H 1017.48 -3.85984 4.59496 0
M  V30 10889 H 1018.55 -2.52073 4.14231 0
M  V30 10890 N 1019.89 -1.26353 -0.941956 0
M  V30 10891 C 1020.82 -1.10341 -2.05784 0
M  V30 10892 C 1021.8 -0.00881565 -1.70098 0
M  V30 10893 O 1022.99 -0.180699 -1.93357 0
M  V30 10894 C 1020.12 -0.734788 -3.39438 0
M  V30 10895 C 1019.07 -1.78103 -3.89183 0
M  V30 10896 C 1018.4 -1.26675 -5.19478 0
M  V30 10897 C 1019.7 -3.1824 -4.14151 0
M  V30 10898 H 1021.39 -2.03684 -2.19438 0
M  V30 10899 H 1018.94 -0.980698 -1.05443 0
M  V30 10900 H 1020.89 -0.609653 -4.16967 0
M  V30 10901 H 1019.61 0.234354 -3.25758 0
M  V30 10902 H 1018.27 -1.89482 -3.13835 0
M  V30 10903 H 1017.92 -0.287472 -5.02178 0
M  V30 10904 H 1017.62 -1.96612 -5.53731 0
M  V30 10905 H 1019.14 -1.15427 -5.99591 0
M  V30 10906 H 1020.56 -3.09942 -4.82296 0
M  V30 10907 H 1018.95 -3.8576 -4.59684 0
M  V30 10908 H 1020.02 -3.64354 -3.19959 0
M  V30 10909 N 1021.37 1.14642 -1.08144 0
M  V30 10910 C 1022.62 1.8525 -0.807885 0
M  V30 10911 C 1022.94 1.83194 0.668213 0
M  V30 10912 O 1022.21 1.27848 1.48431 0
M  V30 10913 H 1020.79 0.685909 -0.295868 0
M  V30 10914 H 1023.45 1.38935 -1.36686 0
M  V30 10915 H 1022.54 2.90155 -1.14964 0
M  V30 10916 N 1022.85 0.866709 1.31628 0
M  V30 10917 C 1023.78 0.264788 2.26659 0
M  V30 10918 C 1024.76 -0.604181 1.50958 0
M  V30 10919 O 1025.94 -0.558324 1.80042 0
M  V30 10920 C 1023.07 -0.625373 3.32877 0
M  V30 10921 C 1022.11 0.171813 4.26154 0
M  V30 10922 S 1022.95 1.54818 5.12632 0
M  V30 10923 C 1024.1 0.66405 6.22367 0
M  V30 10924 H 1024.34 1.07036 2.77364 0
M  V30 10925 H 1021.87 0.665038 1.39343 0
M  V30 10926 H 1023.83 -1.13327 3.94547 0
M  V30 10927 H 1022.49 -1.40486 2.80932 0
M  V30 10928 H 1021.68 -0.506694 5.01447 0
M  V30 10929 H 1021.28 0.611704 3.68964 0
M  V30 10930 H 1023.57 -0.126717 6.77381 0
M  V30 10931 H 1024.52 1.388 6.94363 0
M  V30 10932 H 1024.93 0.233046 5.64019 0
M  V30 10933 N 1024.32 -1.44642 0.625825 0
M  V30 10934 C 1025.57 -2.01695 0.127948 0
M  V30 10935 C 1025.89 -1.49439 -1.25271 0
M  V30 10936 O 1025.16 -0.695873 -1.83124 0
M  V30 10937 H 1023.74 -0.745685 0.0443096 0
M  V30 10938 H 1026.4 -1.7721 0.811332 0
M  V30 10939 H 1025.5 -3.11966 0.0915933 0
M  V30 10940 N 1025.8 -0.366053 -1.5329 0
M  V30 10941 C 1026.76 0.467904 -2.24373 0
M  V30 10942 C 1027.76 1.00934 -1.25176 0
M  V30 10943 O 1028.95 0.895015 -1.49449 0
M  V30 10944 C 1026.09 1.65405 -2.98084 0
M  V30 10945 H 1027.28 -0.154105 -2.99504 0
M  V30 10946 H 1024.83 -0.117751 -1.55856 0
M  V30 10947 H 1025.57 2.31413 -2.27197 0
M  V30 10948 H 1025.35 1.27277 -3.70868 0
M  V30 10949 H 1026.84 2.24503 -3.52119 0
M  V30 10950 N 1027.28 1.57312 -0.0952337 0
M  V30 10951 C 1028.56 1.85822 0.610715 0
M  V30 10952 C 1028.94 0.992114 1.86334 0
M  V30 10953 O 1028.28 0.0645669 2.28409 0
M  V30 10954 C 1028.49 3.36492 0.925967 0
M  V30 10955 C 1029.84 4.0455 1.28936 0
M  V30 10956 O 1030.87 3.41374 1.01698 0
M  V30 10957 O 1029.73 5.16024 1.79949 0
M  V30 10958 H 1026.82 0.768454 0.305626 0
M  V30 10959 H 1029.37 1.69217 -0.127941 0
M  V30 10960 H 1028.14 3.91282 0.0373127 0
M  V30 10961 H 1027.76 3.58443 1.7206 0
M  V30 10962 N 1028.76 -0.17846 1.56586 0
M  V30 10963 C 1030.01 -0.894464 1.81228 0
M  V30 10964 C 1030.33 -1.83089 0.671062 0
M  V30 10965 O 1029.6 -1.93439 -0.309557 0
M  V30 10966 H 1028.18 -0.333288 0.668527 0
M  V30 10967 H 1030.84 -0.179986 1.94067 0
M  V30 10968 H 1029.93 -1.47565 2.75011 0
M  V30 10969 N 1030.24 -1.51135 -0.446768 0
M  V30 10970 C 1031.19 -1.68152 -1.53977 0
M  V30 10971 C 1032.17 -0.53563 -1.51723 0
M  V30 10972 O 1033.36 -0.791134 -1.58335 0
M  V30 10973 C 1030.49 -1.80133 -2.92245 0
M  V30 10974 C 1029.58 -3.00476 -2.99291 0
M  V30 10975 N 1029.97 -4.23796 -2.76099 0
M  V30 10976 C 1028.27 -2.99536 -3.30445 0
M  V30 10977 C 1028.97 -5.04977 -2.88744 0
M  V30 10978 N 1027.94 -4.39428 -3.20006 0
M  V30 10979 H 1031.74 -2.61172 -1.34784 0
M  V30 10980 H 1029.26 -1.48653 -0.653923 0
M  V30 10981 H 1031.26 -1.90432 -3.70866 0
M  V30 10982 H 1029.92 -0.882879 -3.12467 0
M  V30 10983 H 1030.93 -4.52896 -2.51209 0
M  V30 10984 H 1027.6 -2.17286 -3.56501 0
M  V30 10985 H 1028.99 -6.13114 -2.74847 0
M  V30 10986 N 1031.71 0.701592 -1.41122 0
M  V30 10987 C 1032.94 1.49049 -1.43499 0
M  V30 10988 C 1033.36 1.88761 -0.0385684 0
M  V30 10989 O 1032.71 1.56384 0.940755 0
M  V30 10990 C 1032.76 2.7569 -2.33832 0
M  V30 10991 O 1032.49 2.37653 -3.68039 0
M  V30 10992 C 1033.99 3.69479 -2.44949 0
M  V30 10993 H 1031.21 0.459519 -0.488961 0
M  V30 10994 H 1033.75 0.864318 -1.85337 0
M  V30 10995 H 1031.91 3.34559 -1.95318 0
M  V30 10996 H 1032.32 3.19241 -4.16156 0
M  V30 10997 H 1033.79 4.55139 -3.12334 0
M  V30 10998 H 1034.27 4.13553 -1.47887 0
M  V30 10999 H 1034.88 3.16517 -2.84072 0
M  V30 11000 N 1033.19 1.2685 0.935242 0
M  V30 11001 C 1034.15 1.08975 2.01636 0
M  V30 11002 C 1035.15 0.0361543 1.60759 0
M  V30 11003 O 1036.34 0.280087 1.71934 0
M  V30 11004 C 1033.48 0.658831 3.34473 0
M  V30 11005 H 1034.67 2.04968 2.18925 0
M  V30 11006 H 1032.22 1.09531 1.11501 0
M  V30 11007 H 1032.96 -0.302824 3.22883 0
M  V30 11008 H 1032.74 1.41967 3.65497 0
M  V30 11009 H 1034.23 0.555783 4.13885 0
M  V30 11010 N 1034.67 -1.14067 1.0875 0
M  V30 11011 C 1035.9 -1.89582 0.841038 0
M  V30 11012 C 1036.32 -1.78226 -0.601436 0
M  V30 11013 O 1035.68 -1.12491 -1.42181 0
M  V30 11014 C 1035.73 -3.37415 1.27213 0
M  V30 11015 O 1034.83 -4.10191 0.426246 0
M  V30 11016 H 1034.17 -0.589716 0.305173 0
M  V30 11017 H 1036.7 -1.44364 1.44984 0
M  V30 11018 H 1036.71 -3.88234 1.25451 0
M  V30 11019 H 1035.39 -3.44999 2.32268 0
M  V30 11020 H 1033.96 -3.69429 0.507585 0
M  V30 11021 N 1036.15 -0.873678 -1.31166 0
M  V30 11022 C 1037.08 -0.348011 -2.30892 0
M  V30 11023 C 1038.06 0.563092 -1.60509 0
M  V30 11024 O 1039.24 0.479332 -1.88192 0
M  V30 11025 C 1036.37 0.448158 -3.44396 0
M  V30 11026 C 1035.33 -0.370179 -4.26396 0
M  V30 11027 C 1034.65 0.551903 -5.31844 0
M  V30 11028 C 1035.95 -1.60624 -4.96988 0
M  V30 11029 H 1037.65 -1.18134 -2.75109 0
M  V30 11030 H 1035.19 -0.569502 -1.3226 0
M  V30 11031 H 1037.15 0.826458 -4.13216 0
M  V30 11032 H 1035.87 1.31503 -2.98956 0
M  V30 11033 H 1034.53 -0.730472 -3.59249 0
M  V30 11034 H 1034.18 1.41616 -4.82653 0
M  V30 11035 H 1033.88 0.00823478 -5.87599 0
M  V30 11036 H 1035.4 0.926965 -6.03523 0
M  V30 11037 H 1036.82 -1.29917 -5.58386 0
M  V30 11038 H 1035.21 -2.08926 -5.62557 0
M  V30 11039 H 1036.28 -2.357 -4.23761 0
M  V30 11040 N 1037.63 1.44308 -0.633487 0
M  V30 11041 C 1038.87 2.02023 -0.138917 0
M  V30 11042 C 1039.2 1.49841 1.24008 0
M  V30 11043 O 1038.46 0.673718 1.83738 0
M  V30 11044 C 1038.76 3.57316 -0.0773886 0
M  V30 11045 C 1038.42 4.28762 -1.39548 0
M  V30 11046 C 1037.08 4.47997 -1.75648 0
M  V30 11047 C 1039.44 4.69391 -2.26542 0
M  V30 11048 C 1036.76 5.05121 -2.98445 0
M  V30 11049 C 1039.12 5.27876 -3.48612 0
M  V30 11050 C 1037.78 5.45329 -3.84932 0
M  V30 11051 H 1037.05 0.739254 -0.0508333 0
M  V30 11052 H 1039.7 1.73043 -0.820271 0
M  V30 11053 H 1038 3.85724 0.687345 0
M  V30 11054 H 1039.7 3.99706 0.321837 0
M  V30 11055 H 1036.29 4.14122 -1.10456 0
M  V30 11056 H 1040.47 4.54241 -1.99946 0
M  V30 11057 H 1035.73 5.16821 -3.26658 0
M  V30 11058 H 1039.9 5.58307 -4.16253 0
M  V30 11059 H 1037.53 5.8936 -4.80166 0
M  V30 11060 N 1039.1 0.374177 1.53094 0
M  V30 11061 C 1040.52 -0.103172 1.86415 0
M  V30 11062 C 1040.87 -1.47439 1.29446 0
M  V30 11063 O 1039.99 -2.07333 0.619853 0
M  V30 11064 C 1040.59 -0.193988 3.38244 0
M  V30 11065 C 1039.15 -0.615605 3.71332 0
M  V30 11066 C 1038.29 0.23186 2.76329 0
M  V30 11067 H 1041.24 0.592644 1.47219 0
M  V30 11068 H 1041.26 -1.01597 3.66686 0
M  V30 11069 H 1040.78 0.80414 3.79678 0
M  V30 11070 H 1038.88 -1.62165 3.3546 0
M  V30 11071 H 1038.99 -0.38425 4.77557 0
M  V30 11072 H 1037.35 -0.300579 2.5292 0
M  V30 11073 H 1038.14 1.22769 3.20597 0
M  V30 11074 N 1040.58 -1.57259 0.103575 0
M  V30 11075 C 1041.51 -2.1153 -0.882472 0
M  V30 11076 C 1042.53 -1.05446 -1.24036 0
M  V30 11077 O 1043.72 -1.32867 -1.192 0
M  V30 11078 C 1040.82 -2.58717 -2.18903 0
M  V30 11079 C 1039.99 -3.8873 -2.00519 0
M  V30 11080 C 1039.05 -4.21675 -3.14764 0
M  V30 11081 O 1038.07 -4.90755 -2.88355 0
M  V30 11082 N 1039.28 -3.77757 -4.40772 0
M  V30 11083 H 1042.04 -2.96758 -0.418901 0
M  V30 11084 H 1039.6 -1.61696 -0.0812921 0
M  V30 11085 H 1041.59 -2.77797 -2.94297 0
M  V30 11086 H 1040.16 -1.78454 -2.56657 0
M  V30 11087 H 1039.38 -3.78714 -1.09406 0
M  V30 11088 H 1040.67 -4.73771 -1.85522 0
M  V30 11089 H 1040.07 -3.22011 -4.65108 0
M  V30 11090 H 1038.63 -4.01975 -5.13088 0
M  V30 11091 N 1042.06 0.170153 -1.56679 0
M  V30 11092 C 1043.29 0.90618 -1.86556 0
M  V30 11093 C 1043.71 1.74986 -0.690044 0
M  V30 11094 O 1043.07 1.77672 0.360862 0
M  V30 11095 C 1043.12 1.75777 -3.14857 0
M  V30 11096 O 1042.22 2.85952 -2.97162 0
M  V30 11097 H 1041.56 0.253781 -0.613589 0
M  V30 11098 H 1044.09 0.167943 -2.0391 0
M  V30 11099 H 1044.1 2.15747 -3.46291 0
M  V30 11100 H 1042.78 1.13807 -4.00026 0
M  V30 11101 H 1041.35 2.49557 -2.77084 0
M  V30 11102 N 1043.54 1.5137 0.438746 0
M  V30 11103 C 1044.95 1.56462 1.01866 0
M  V30 11104 C 1045.3 0.387244 1.9234 0
M  V30 11105 O 1044.43 -0.496131 2.10636 0
M  V30 11106 C 1045.02 2.83557 1.85421 0
M  V30 11107 C 1043.58 2.91224 2.38464 0
M  V30 11108 C 1042.73 2.51109 1.17641 0
M  V30 11109 H 1045.68 1.57167 0.220072 0
M  V30 11110 H 1045.7 2.6724 2.70857 0
M  V30 11111 H 1045.21 3.69229 1.19546 0
M  V30 11112 H 1043.31 2.09979 3.07798 0
M  V30 11113 H 1043.42 3.94844 2.71358 0
M  V30 11114 H 1041.79 2.04276 1.5213 0
M  V30 11115 H 1042.57 3.39125 0.533785 0
M  V30 11116 N 1045.02 -0.694098 1.41492 0
M  V30 11117 C 1046.24 -1.48286 1.44288 0
M  V30 11118 C 1046.66 -1.88737 0.0485783 0
M  V30 11119 O 1046.02 -1.56881 -0.932449 0
M  V30 11120 C 1046.07 -2.74446 2.3529 0
M  V30 11121 O 1045.79 -2.35698 3.69294 0
M  V30 11122 C 1047.29 -3.68175 2.46905 0
M  V30 11123 H 1044.51 -0.45692 0.491391 0
M  V30 11124 H 1047.05 -0.854477 1.85793 0
M  V30 11125 H 1045.21 -3.33518 1.9709 0
M  V30 11126 H 1045.62 -3.17029 4.17843 0
M  V30 11127 H 1047.1 -4.53476 3.14743 0
M  V30 11128 H 1047.57 -4.12763 1.50078 0
M  V30 11129 H 1048.18 -3.15006 2.85747 0
M  V30 11130 N 1046.49 -1.27344 -0.928501 0
M  V30 11131 C 1047.74 -1.13411 -1.67279 0
M  V30 11132 C 1048.06 0.320698 -1.92345 0
M  V30 11133 O 1047.33 1.2245 -1.52915 0
M  V30 11134 H 1045.91 -0.416712 -0.619968 0
M  V30 11135 H 1048.58 -1.5986 -1.11493 0
M  V30 11136 H 1047.67 -1.66256 -2.64131 0
M  V30 11137 N 1047.97 1.13488 -1.09353 0
M  V30 11138 C 1048.9 2.20988 -0.75409 0
M  V30 11139 C 1049.88 1.67977 0.267901 0
M  V30 11140 O 1051.07 1.93722 0.136128 0
M  V30 11141 C 1048.2 3.46869 -0.173042 0
M  V30 11142 C 1047.15 4.12965 -1.12446 0
M  V30 11143 C 1046.48 5.33163 -0.405157 0
M  V30 11144 C 1047.78 4.60388 -2.46658 0
M  V30 11145 H 1049.47 2.49639 -1.6529 0
M  V30 11146 H 1047.02 1.19987 -0.796182 0
M  V30 11147 H 1048.97 4.21331 0.0764988 0
M  V30 11148 H 1047.7 3.17611 0.760956 0
M  V30 11149 H 1046.35 3.40469 -1.35927 0
M  V30 11150 H 1046 5.00169 0.532955 0
M  V30 11151 H 1045.7 5.78332 -1.03952 0
M  V30 11152 H 1047.23 6.1038 -0.163899 0
M  V30 11153 H 1048.64 5.26276 -2.27389 0
M  V30 11154 H 1047.04 5.16294 -3.05876 0
M  V30 11155 H 1048.11 3.74949 -3.07476 0
M  V30 11156 N 1049.45 0.880621 1.30701 0
M  V30 11157 C 1050.73 0.41712 1.91101 0
M  V30 11158 C 1051.11 -1.10177 1.80067 0
M  V30 11159 O 1050.46 -1.93513 1.21511 0
M  V30 11160 C 1050.67 0.910364 3.36917 0
M  V30 11161 C 1052.01 0.942764 4.14001 0
M  V30 11162 O 1053.04 0.856733 3.45743 0
M  V30 11163 O 1051.9 1.06913 5.3594 0
M  V30 11164 H 1048.99 0.126775 0.817225 0
M  V30 11165 H 1051.54 0.969236 1.39298 0
M  V30 11166 H 1050.31 1.95414 3.39012 0
M  V30 11167 H 1049.93 0.337164 3.96168 0
M  V30 11168 N 1050.93 -1.4397 0.641131 0
M  V30 11169 C 1052.18 -2.01548 0.149333 0
M  V30 11170 C 1052.5 -1.50759 -1.23679 0
M  V30 11171 O 1051.77 -0.715257 -1.82376 0
M  V30 11172 H 1050.35 -0.745173 0.0522161 0
M  V30 11173 H 1053.01 -1.7634 0.830082 0
M  V30 11174 H 1052.11 -3.11851 0.124676 0
M  V30 11175 N 1052.41 -0.382291 -1.52893 0
M  V30 11176 C 1053.32 0.463745 -2.29971 0
M  V30 11177 C 1054.33 1.07777 -1.36602 0
M  V30 11178 O 1055.51 1.0851 -1.69669 0
M  V30 11179 C 1052.57 1.57938 -3.08637 0
M  V30 11180 C 1051.64 0.991182 -4.17701 0
M  V30 11181 C 1050.87 2.05365 -4.92606 0
M  V30 11182 O 1051.09 3.26757 -4.67532 0
M  V30 11183 O 1050.03 1.67487 -5.78128 0
M  V30 11184 H 1053.85 -0.163962 -3.03257 0
M  V30 11185 H 1051.44 -0.146199 -1.48683 0
M  V30 11186 H 1053.32 2.22765 -3.57706 0
M  V30 11187 H 1051.99 2.19218 -2.3817 0
M  V30 11188 H 1050.9 0.306364 -3.72843 0
M  V30 11189 H 1052.23 0.422699 -4.90382 0
M  V30 11190 N 1053.89 1.57202 -0.111913 0
M  V30 11191 C 1054.82 2.11995 0.871242 0
M  V30 11192 C 1055.83 1.06102 1.23475 0
M  V30 11193 O 1057.02 1.33497 1.18494 0
M  V30 11194 C 1054.12 2.59874 2.17528 0
M  V30 11195 C 1053.29 3.89788 1.98455 0
M  V30 11196 C 1052.35 4.23339 3.12523 0
M  V30 11197 O 1051.38 4.92277 2.85748 0
M  V30 11198 N 1052.58 3.80089 4.38762 0
M  V30 11199 H 1055.34 2.96976 0.403157 0
M  V30 11200 H 1052.91 1.61737 0.0727159 0
M  V30 11201 H 1054.9 2.79354 2.9282 0
M  V30 11202 H 1053.47 1.79812 2.55707 0
M  V30 11203 H 1052.69 3.79288 1.07396 0
M  V30 11204 H 1053.98 4.74748 1.83007 0
M  V30 11205 H 1053.37 3.24473 4.63394 0
M  V30 11206 H 1051.93 4.04691 5.10949 0
M  V30 11207 N 1055.36 -0.161842 1.56767 0
M  V30 11208 C 1056.29 -1.20226 2.0017 0
M  V30 11209 C 1057.27 -1.4564 0.878807 0
M  V30 11210 O 1058.46 -1.56813 1.14557 0
M  V30 11211 C 1055.59 -2.53897 2.36968 0
M  V30 11212 C 1054.54 -2.43033 3.52305 0
M  V30 11213 C 1053.87 -3.81281 3.74872 0
M  V30 11214 C 1055.17 -1.927 4.85453 0
M  V30 11215 H 1056.86 -0.84142 2.87333 0
M  V30 11216 H 1054.41 -0.403309 1.38237 0
M  V30 11217 H 1056.36 -3.26893 2.6593 0
M  V30 11218 H 1055.09 -2.91787 1.46724 0
M  V30 11219 H 1053.75 -1.7249 3.23485 0
M  V30 11220 H 1053.39 -4.1658 2.81904 0
M  V30 11221 H 1053.09 -3.74877 4.52483 0
M  V30 11222 H 1054.62 -4.55848 4.06245 0
M  V30 11223 H 1056.03 -2.55477 5.13229 0
M  V30 11224 H 1054.43 -1.97222 5.66766 0
M  V30 11225 H 1055.5 -0.881816 4.76814 0
M  V30 11226 N 1056.84 -1.516 -0.430713 0
M  V30 11227 C 1058.09 -1.6484 -1.18134 0
M  V30 11228 C 1058.42 -0.366725 -1.90706 0
M  V30 11229 O 1057.7 0.63398 -1.83878 0
M  V30 11230 C 1057.98 -2.85617 -2.19306 0
M  V30 11231 C 1057.83 -4.23778 -1.50773 0
M  V30 11232 C 1059.15 -3.01909 -3.20217 0
M  V30 11233 H 1056.27 -0.599907 -0.428113 0
M  V30 11234 H 1058.91 -1.84102 -0.46973 0
M  V30 11235 H 1057.06 -2.69325 -2.79993 0
M  V30 11236 H 1058.73 -4.51752 -0.93371 0
M  V30 11237 H 1056.98 -4.26171 -0.809966 0
M  V30 11238 H 1057.65 -5.04291 -2.24487 0
M  V30 11239 H 1060.12 -3.16956 -2.69589 0
M  V30 11240 H 1059 -3.87968 -3.88293 0
M  V30 11241 H 1059.26 -2.1427 -3.86705 0
M  V30 11242 N 1058.32 0.686584 -1.41858 0
M  V30 11243 C 1059.57 1.44879 -1.41908 0
M  V30 11244 C 1059.9 1.94175 -0.0311408 0
M  V30 11245 O 1059.17 1.70131 0.942646 0
M  V30 11246 C 1059.46 2.65428 -2.43352 0
M  V30 11247 C 1059.31 2.2184 -3.91289 0
M  V30 11248 C 1060.63 3.67635 -2.41934 0
M  V30 11249 H 1057.75 0.525477 -0.516762 0
M  V30 11250 H 1060.39 0.781263 -1.73194 0
M  V30 11251 H 1058.54 3.2238 -2.16803 0
M  V30 11252 H 1060.21 1.70146 -4.28775 0
M  V30 11253 H 1058.45 1.53531 -4.05722 0
M  V30 11254 H 1059.13 3.08376 -4.5783 0
M  V30 11255 H 1061.6 3.20376 -2.65516 0
M  V30 11256 H 1060.48 4.49579 -3.14913 0
M  V30 11257 H 1060.74 4.17953 -1.44111 0
M  V30 11258 N 1059.8 1.27835 0.921735 0
M  V30 11259 C 1060.73 1.136 2.04003 0
M  V30 11260 C 1061.71 0.0358756 1.70062 0
M  V30 11261 O 1062.89 0.211438 1.93046 0
M  V30 11262 C 1060.02 0.788697 3.38226 0
M  V30 11263 C 1058.98 1.84272 3.863 0
M  V30 11264 C 1058.3 1.34923 5.17397 0
M  V30 11265 C 1059.6 3.24788 4.09035 0
M  V30 11266 H 1061.3 2.07149 2.1617 0
M  V30 11267 H 1058.84 0.997349 1.0387 0
M  V30 11268 H 1060.8 0.675911 4.15944 0
M  V30 11269 H 1059.52 -0.182499 3.2609 0
M  V30 11270 H 1058.18 1.94451 3.1078 0
M  V30 11271 H 1057.83 0.367328 5.01657 0
M  V30 11272 H 1057.53 2.05397 5.50532 0
M  V30 11273 H 1059.05 1.24951 5.97678 0
M  V30 11274 H 1060.47 3.17575 4.77304 0
M  V30 11275 H 1058.86 3.93025 4.53488 0
M  V30 11276 H 1059.93 3.69398 3.14122 0
M  V30 11277 N 1061.28 -1.12907 1.09954 0
M  V30 11278 C 1062.5 -1.88138 0.860905 0
M  V30 11279 C 1062.92 -1.79402 -0.588256 0
M  V30 11280 O 1062.28 -1.16442 -1.40526 0
M  V30 11281 C 1062.33 -3.37537 1.29425 0
M  V30 11282 O 1062.05 -3.46056 2.68658 0
M  V30 11283 C 1063.55 -4.29721 1.08879 0
M  V30 11284 H 1060.77 -0.595437 0.309347 0
M  V30 11285 H 1063.31 -1.42894 1.46292 0
M  V30 11286 H 1061.47 -3.80344 0.736009 0
M  V30 11287 H 1061.88 -4.38969 2.87065 0
M  V30 11288 H 1063.36 -5.32854 1.4412 0
M  V30 11289 H 1063.83 -4.39192 0.0270053 0
M  V30 11290 H 1064.44 -3.9269 1.63325 0
M  V30 11291 N 1062.75 -0.88754 -1.30232 0
M  V30 11292 C 1063.98 -0.522306 -2.00199 0
M  V30 11293 C 1064.4 0.889866 -1.66514 0
M  V30 11294 O 1063.75 1.58558 -0.903639 0
M  V30 11295 C 1063.8 -0.690551 -3.54843 0
M  V30 11296 O 1063.53 -2.04713 -3.8733 0
M  V30 11297 C 1065.03 -0.328649 -4.4208 0
M  V30 11298 H 1062.25 -0.201628 -0.63999 0
M  V30 11299 H 1064.79 -1.19355 -1.66056 0
M  V30 11300 H 1062.95 -0.0666493 -3.87343 0
M  V30 11301 H 1063.36 -2.06762 -4.82027 0
M  V30 11302 H 1064.83 -0.497257 -5.49756 0
M  V30 11303 H 1065.31 0.733502 -4.33032 0
M  V30 11304 H 1065.92 -0.928982 -4.1503 0
M  V30 11305 N 1064.23 1.43628 -0.648757 0
M  V30 11306 C 1065.46 2.06732 -0.166284 0
M  V30 11307 C 1065.88 1.48281 1.15734 0
M  V30 11308 O 1065.24 0.591018 1.71396 0
M  V30 11309 C 1065.29 3.60502 -0.0838732 0
M  V30 11310 O 1064.39 4.01186 0.955185 0
M  V30 11311 H 1063.73 0.657479 -0.0928285 0
M  V30 11312 H 1066.26 1.84208 -0.890421 0
M  V30 11313 H 1066.27 4.07875 0.100923 0
M  V30 11314 H 1064.95 4.02424 -1.05014 0
M  V30 11315 H 1063.53 3.65412 0.743537 0
M  V30 11316 N 1065.71 0.390394 1.52688 0
M  V30 11317 C 1067.12 -0.083394 1.86514 0
M  V30 11318 C 1067.47 -1.46057 1.31003 0
M  V30 11319 O 1066.6 -2.06663 0.641809 0
M  V30 11320 C 1067.19 -0.158102 3.38431 0
M  V30 11321 C 1065.75 -0.576186 3.71964 0
M  V30 11322 C 1064.9 0.261156 2.76068 0
M  V30 11323 H 1067.85 0.608226 1.46582 0
M  V30 11324 H 1067.87 -0.977023 3.67742 0
M  V30 11325 H 1067.38 0.844365 3.78803 0
M  V30 11326 H 1065.48 -1.58598 3.37161 0
M  V30 11327 H 1065.6 -0.333577 4.77937 0
M  V30 11328 H 1063.96 -0.273737 2.53225 0
M  V30 11329 H 1064.74 1.26162 3.19277 0
M  V30 11330 N 1067.19 -1.57141 0.120249 0
M  V30 11331 C 1068.41 -2.00017 -0.548454 0
M  V30 11332 C 1068.84 -0.999433 -1.59352 0
M  V30 11333 O 1068.2 0.0286978 -1.81277 0
M  V30 11334 C 1068.24 -3.41766 -1.15015 0
M  V30 11335 O 1067.35 -3.44589 -2.26566 0
M  V30 11336 H 1066.69 -0.649739 -0.136875 0
M  V30 11337 H 1069.22 -2.03529 0.209092 0
M  V30 11338 H 1069.23 -3.80001 -1.48537 0
M  V30 11339 H 1067.9 -4.14117 -0.384681 0
M  V30 11340 H 1066.48 -3.18174 -1.94473 0
M  V30 11341 N 1068.67 0.153526 -1.5685 0
M  V30 11342 C 1069.6 1.2147 -1.94365 0
M  V30 11343 C 1070.61 1.39532 -0.838726 0
M  V30 11344 O 1071.8 1.39219 -1.11715 0
M  V30 11345 C 1068.9 2.5806 -2.19677 0
M  V30 11346 C 1068.07 2.61062 -3.50949 0
M  V30 11347 C 1067.13 3.79144 -3.64878 0
M  V30 11348 O 1066.16 3.64319 -4.37333 0
M  V30 11349 N 1067.36 4.96333 -3.01054 0
M  V30 11350 H 1070.13 0.895889 -2.85996 0
M  V30 11351 H 1067.69 0.343147 -1.58222 0
M  V30 11352 H 1069.68 3.35553 -2.26243 0
M  V30 11353 H 1068.25 2.8226 -1.34343 0
M  V30 11354 H 1067.47 1.69533 -3.55882 0
M  V30 11355 H 1068.76 2.60094 -4.37297 0
M  V30 11356 H 1068.15 5.1128 -2.42093 0
M  V30 11357 H 1066.71 5.71625 -3.13191 0
M  V30 11358 N 1070.14 1.51827 0.422667 0
M  V30 11359 C 1071.56 1.57533 1.00201 0
M  V30 11360 C 1071.91 0.407623 1.91919 0
M  V30 11361 O 1071.03 -0.473763 2.1115 0
M  V30 11362 C 1071.63 2.85508 1.82403 0
M  V30 11363 C 1070.19 2.93737 2.35362 0
M  V30 11364 C 1069.33 2.52343 1.14971 0
M  V30 11365 H 1072.28 1.57391 0.20339 0
M  V30 11366 H 1072.3 2.70097 2.68007 0
M  V30 11367 H 1071.82 3.70477 1.15623 0
M  V30 11368 H 1069.92 2.13231 3.05554 0
M  V30 11369 H 1070.03 3.977 2.67155 0
M  V30 11370 H 1068.39 2.05878 1.49955 0
M  V30 11371 H 1069.18 3.39672 0.497786 0
M  V30 11372 N 1071.62 -0.679052 1.4222 0
M  V30 11373 C 1072.57 -1.78522 1.41824 0
M  V30 11374 C 1073.56 -1.58262 0.290179 0
M  V30 11375 O 1074.75 -1.68813 0.532092 0
M  V30 11376 C 1071.88 -3.16952 1.31895 0
M  V30 11377 C 1070.96 -3.42849 2.4963 0
M  V30 11378 N 1071.35 -3.39354 3.75063 0
M  V30 11379 C 1069.65 -3.73468 2.43799 0
M  V30 11380 C 1070.35 -3.64617 4.53243 0
M  V30 11381 N 1069.33 -3.85174 3.83591 0
M  V30 11382 H 1073.13 -1.74206 2.36705 0
M  V30 11383 H 1070.65 -0.879719 1.36509 0
M  V30 11384 H 1072.64 -3.96214 1.29693 0
M  V30 11385 H 1071.3 -3.22467 0.380127 0
M  V30 11386 H 1072.31 -3.19354 4.07718 0
M  V30 11387 H 1068.99 -3.86254 1.58474 0
M  V30 11388 H 1070.38 -3.67912 5.62219 0
M  V30 11389 N 1073.1 -1.28322 -0.914942 0
M  V30 11390 C 1074.52 -1.06003 -1.19313 0
M  V30 11391 C 1074.72 0.198366 -2.00521 0
M  V30 11392 O 1073.77 0.900364 -2.35902 0
M  V30 11393 C 1075.09 -2.30684 -1.92887 0
M  V30 11394 C 1076.63 -2.35851 -2.05775 0
M  V30 11395 C 1077.11 -3.60295 -2.82757 0
M  V30 11396 N 1078.6 -3.60928 -2.9032 0
M  V30 11397 C 1079.33 -4.53894 -3.50383 0
M  V30 11398 N 1078.83 -5.57178 -4.11734 0
M  V30 11399 N 1080.62 -4.41492 -3.4791 0
M  V30 11400 H 1072.77 -2.09104 -0.372735 0
M  V30 11401 H 1075.04 -0.920285 -0.227552 0
M  V30 11402 H 1074.74 -3.22355 -1.40643 0
M  V30 11403 H 1074.62 -2.37003 -2.93444 0
M  V30 11404 H 1077 -1.44678 -2.57201 0
M  V30 11405 H 1077.09 -2.33526 -1.04399 0
M  V30 11406 H 1076.73 -4.51811 -2.32011 0
M  V30 11407 H 1076.66 -3.59873 -3.84446 0
M  V30 11408 H 1079.15 -2.8624 -2.46729 0
M  V30 11409 H 1079.46 -6.24261 -4.55541 0
M  V30 11410 H 1077.81 -5.61005 -4.10242 0
M  V30 11411 H 1081 -3.60005 -2.99189 0
M  V30 11412 H 1081.17 -5.14132 -3.94427 0
M  V30 11413 N 1074.58 1.12322 -1.10551 0
M  V30 11414 C 1075.99 1.35858 -0.837543 0
M  V30 11415 C 1076.19 1.94062 0.54241 0
M  V30 11416 O 1075.25 2.1676 1.29505 0
M  V30 11417 C 1076.56 2.299 -1.9382 0
M  V30 11418 C 1078.11 2.43488 -1.96679 0
M  V30 11419 C 1078.59 3.40846 -3.05922 0
M  V30 11420 N 1080.08 3.48404 -3.05236 0
M  V30 11421 C 1080.81 4.2365 -3.86405 0
M  V30 11422 N 1080.31 5.01951 -4.77512 0
M  V30 11423 N 1082.1 4.19068 -3.74618 0
M  V30 11424 H 1074.25 0.729002 -1.99498 0
M  V30 11425 H 1076.52 0.38339 -0.867016 0
M  V30 11426 H 1076.22 1.94309 -2.9315 0
M  V30 11427 H 1076.1 3.30033 -1.82641 0
M  V30 11428 H 1078.48 2.78359 -0.979813 0
M  V30 11429 H 1078.56 1.43239 -2.11934 0
M  V30 11430 H 1078.21 3.06704 -4.04839 0
M  V30 11431 H 1078.14 4.40927 -2.87907 0
M  V30 11432 H 1080.63 2.92545 -2.39219 0
M  V30 11433 H 1080.94 5.56707 -5.36002 0
M  V30 11434 H 1079.29 5.01143 -4.8154 0
M  V30 11435 H 1082.48 3.5698 -3.02792 0
M  V30 11436 H 1082.65 4.77455 -4.38111 0
M  V30 11437 N 1076.06 0.894434 1.2976 0
M  V30 11438 C 1076.99 0.312806 2.26046 0
M  V30 11439 C 1077.97 -0.572024 1.52206 0
M  V30 11440 O 1079.15 -0.520009 1.81185 0
M  V30 11441 C 1076.28 -0.554624 3.34128 0
M  V30 11442 C 1075.32 0.262168 4.25693 0
M  V30 11443 S 1076.16 1.65656 5.09233 0
M  V30 11444 C 1077.31 0.795914 6.20819 0
M  V30 11445 H 1077.55 1.12895 2.75031 0
M  V30 11446 H 1075.08 0.694446 1.37901 0
M  V30 11447 H 1077.04 -1.04933 3.96862 0
M  V30 11448 H 1075.7 -1.34495 2.83848 0
M  V30 11449 H 1074.89 -0.400216 5.02408 0
M  V30 11450 H 1074.49 0.689829 3.67583 0
M  V30 11451 H 1076.79 0.0169942 6.77498 0
M  V30 11452 H 1077.73 1.53497 6.91263 0
M  V30 11453 H 1078.14 0.35263 5.63398 0
M  V30 11454 N 1077.53 -1.43282 0.656365 0
M  V30 11455 C 1078.76 -2.06641 0.177245 0
M  V30 11456 C 1079.18 -1.48893 -1.14946 0
M  V30 11457 O 1078.54 -0.600099 -1.7108 0
M  V30 11458 C 1078.59 -3.60453 0.10299 0
M  V30 11459 O 1077.69 -4.01687 -0.933895 0
M  V30 11460 H 1077.04 -0.656978 0.096314 0
M  V30 11461 H 1079.57 -1.83733 0.900178 0
M  V30 11462 H 1079.58 -4.07923 -0.079291 0
M  V30 11463 H 1078.25 -4.01861 1.07147 0
M  V30 11464 H 1076.83 -3.65801 -0.724148 0
M  V30 11465 N 1079.01 -0.398486 -1.52479 0
M  V30 11466 C 1079.94 0.423498 -2.29627 0
M  V30 11467 C 1080.92 1.05547 -1.33394 0
M  V30 11468 O 1082.11 1.0665 -1.62294 0
M  V30 11469 C 1079.24 1.54612 -3.10986 0
M  V30 11470 C 1078.19 1.03971 -4.15179 0
M  V30 11471 C 1077.52 2.25512 -4.84818 0
M  V30 11472 C 1078.82 0.10121 -5.22202 0
M  V30 11473 H 1080.51 -0.220222 -2.98589 0
M  V30 11474 H 1078.06 -0.107355 -1.43599 0
M  V30 11475 H 1080.01 2.12806 -3.63719 0
M  V30 11476 H 1078.74 2.21756 -2.39774 0
M  V30 11477 H 1077.4 0.480251 -3.63441 0
M  V30 11478 H 1077.04 2.91187 -4.10145 0
M  V30 11479 H 1076.74 1.92285 -5.55248 0
M  V30 11480 H 1078.27 2.84331 -5.40359 0
M  V30 11481 H 1079.68 0.591617 -5.70239 0
M  V30 11482 H 1078.08 -0.141737 -5.99933 0
M  V30 11483 H 1079.15 -0.847216 -4.77441 0
M  V30 11484 N 1080.49 1.57075 -0.12858 0
M  V30 11485 C 1081.72 2.00305 0.537839 0
M  V30 11486 C 1082.14 1.00787 1.58819 0
M  V30 11487 O 1081.5 -0.0190839 1.8129 0
M  V30 11488 C 1081.55 3.42371 1.13201 0
M  V30 11489 O 1080.65 3.45786 2.24735 0
M  V30 11490 H 1079.99 0.650456 0.133428 0
M  V30 11491 H 1082.52 2.03415 -0.219882 0
M  V30 11492 H 1082.53 3.80783 1.4652 0
M  V30 11493 H 1081.21 4.14315 0.362713 0
M  V30 11494 H 1079.78 3.19201 1.92783 0
M  V30 11495 N 1081.97 -0.145205 1.5693 0
M  V30 11496 C 1082.9 -1.18096 2.01434 0
M  V30 11497 C 1083.88 -1.447 0.894204 0
M  V30 11498 O 1085.07 -1.55589 1.16214 0
M  V30 11499 C 1082.2 -2.51369 2.39647 0
M  V30 11500 C 1081.15 -2.39283 3.54863 0
M  V30 11501 C 1080.48 -3.77283 3.78895 0
M  V30 11502 C 1081.78 -1.8754 4.87469 0
M  V30 11503 H 1083.47 -0.810897 2.8821 0
M  V30 11504 H 1081.02 -0.388624 1.38657 0
M  V30 11505 H 1082.97 -3.24054 2.69382 0
M  V30 11506 H 1081.69 -2.90214 1.49811 0
M  V30 11507 H 1080.35 -1.6905 3.25296 0
M  V30 11508 H 1080 -4.13567 2.86307 0
M  V30 11509 H 1079.7 -3.70057 4.56433 0
M  V30 11510 H 1081.22 -4.51514 4.11057 0
M  V30 11511 H 1082.64 -2.50019 5.1591 0
M  V30 11512 H 1081.03 -1.912 5.68826 0
M  V30 11513 H 1082.1 -0.831194 4.77723 0
M  V30 11514 N 1083.45 -1.52049 -0.414609 0
M  V30 11515 C 1084.86 -1.58062 -0.993638 0
M  V30 11516 C 1085.21 -0.417795 -1.917 0
M  V30 11517 O 1084.33 0.462558 -2.11399 0
M  V30 11518 C 1084.93 -2.86471 -1.80886 0
M  V30 11519 C 1083.49 -2.94981 -2.33801 0
M  V30 11520 C 1082.64 -2.52949 -1.13631 0
M  V30 11521 H 1085.59 -1.57497 -0.19504 0
M  V30 11522 H 1085.61 -2.71515 -2.66571 0
M  V30 11523 H 1085.12 -3.71085 -1.13657 0
M  V30 11524 H 1083.22 -2.14849 -3.04419 0
M  V30 11525 H 1083.33 -3.99111 -2.65042 0
M  V30 11526 H 1081.7 -2.0667 -1.48861 0
M  V30 11527 H 1082.48 -3.39931 -0.479765 0
M  V30 11528 N 1084.93 0.6715 -1.42579 0
M  V30 11529 C 1085.86 1.79693 -1.49107 0
M  V30 11530 C 1086.84 1.66516 -0.347338 0
M  V30 11531 O 1088.02 1.85887 -0.562094 0
M  V30 11532 C 1085.15 3.1801 -1.39596 0
M  V30 11533 C 1084.11 3.45926 -2.5203 0
M  V30 11534 C 1083.43 4.83852 -2.27577 0
M  V30 11535 C 1084.73 3.4249 -3.94333 0
M  V30 11536 H 1086.43 1.74486 -2.433 0
M  V30 11537 H 1083.97 0.838042 -1.17102 0
M  V30 11538 H 1085.92 3.96478 -1.42771 0
M  V30 11539 H 1084.65 3.23901 -0.418989 0
M  V30 11540 H 1083.31 2.6982 -2.48178 0
M  V30 11541 H 1082.96 4.86398 -1.28165 0
M  V30 11542 H 1082.66 5.03493 -3.02934 0
M  V30 11543 H 1084.18 5.646 -2.32506 0
M  V30 11544 H 1085.59 4.10922 -3.9977 0
M  V30 11545 H 1083.99 3.73666 -4.69568 0
M  V30 11546 H 1085.06 2.41002 -4.20768 0
M  V30 11547 N 1086.4 1.28806 0.908124 0
M  V30 11548 C 1087.65 1.15663 1.65242 0
M  V30 11549 C 1087.97 -0.292883 1.93395 0
M  V30 11550 O 1089.17 -0.545509 2.65963 0
M  V30 11551 C 1087.63 2.02233 2.97707 0
M  V30 11552 C 1087.24 3.51958 2.77181 0
M  V30 11553 C 1088.98 1.97792 3.75604 0
M  V30 11554 C 1086.89 4.3066 4.05322 0
M  V30 11555 H 1085.82 0.42928 0.619867 0
M  V30 11556 H 1088.47 1.5338 1.00731 0
M  V30 11557 H 1086.85 1.57377 3.63385 0
M  V30 11558 H 1088.02 4.0481 2.20149 0
M  V30 11559 H 1086.34 3.57983 2.12691 0
M  V30 11560 H 1088.94 2.53858 4.70596 0
M  V30 11561 H 1089.28 0.955956 4.05175 0
M  V30 11562 H 1089.81 2.40648 3.16755 0
M  V30 11563 H 1086.55 5.3346 3.8092 0
M  V30 11564 H 1086.07 3.8258 4.61944 0
M  V30 11565 H 1087.75 4.40878 4.73535 0
M  V30 11566 N 1087.88 -1.11734 1.11145 0
M  V30 11567 C 1088.83 -2.19765 0.761982 0
M  V30 11568 C 1089.82 -1.67616 -0.24518 0
M  V30 11569 O 1091.03 -1.79695 -0.104781 0
M  V30 11570 H 1087.4 -0.71644 0.228513 0
M  V30 11571 H 1089.38 -2.4649 1.68183 0
M  V30 11572 C 1088.12 -3.47016 0.218057 0
M  V30 11573 H 1087.45 -3.87494 0.984299 0
M  V30 11574 H 1088.89 -4.23998 0.0116825 0
M  V30 11575 C 1087.35 -3.20088 -1.05096 0
M  V30 11576 O 1087.88 -3.40503 -2.1312 0
M  V30 11577 N 1086.08 -2.73844 -0.972523 0
M  V30 11578 H 1085.63 -2.57431 -0.0933459 0
M  V30 11579 H 1085.59 -2.56204 -1.82228 0
M  V30 11580 N 1089.36 -0.901303 -1.29284 0
M  V30 11581 C 1090.78 -0.597634 -1.47988 0
M  V30 11582 C 1090.98 0.860434 -1.82205 0
M  V30 11583 O 1090.03 1.64049 -1.91948 0
M  V30 11584 C 1091.34 -1.52484 -2.5917 0
M  V30 11585 C 1092.89 -1.53021 -2.73045 0
M  V30 11586 C 1093.37 -2.44373 -3.87357 0
M  V30 11587 N 1094.86 -2.42429 -3.94693 0
M  V30 11588 C 1095.59 -3.09817 -4.82495 0
M  V30 11589 N 1095.09 -3.86489 -5.74976 0
M  V30 11590 N 1096.88 -2.98966 -4.76 0
M  V30 11591 H 1089.03 -1.84432 -1.0535 0
M  V30 11592 H 1091.3 -0.790367 -0.523473 0
M  V30 11593 H 1091 -2.56378 -2.40756 0
M  V30 11594 H 1090.88 -1.24657 -3.56006 0
M  V30 11595 H 1093.26 -0.498709 -2.90855 0
M  V30 11596 H 1093.34 -1.84886 -1.76779 0
M  V30 11597 H 1092.99 -3.47618 -3.70302 0
M  V30 11598 H 1092.92 -2.09817 -4.82995 0
M  V30 11599 H 1095.41 -1.86724 -3.28546 0
M  V30 11600 H 1095.72 -4.34959 -6.38773 0
M  V30 11601 H 1094.07 -3.90596 -5.74857 0
M  V30 11602 H 1097.26 -2.38581 -4.02737 0
M  V30 11603 H 1097.43 -3.51758 -5.44215 0
M  V30 11604 N 1090.84 1.42931 -0.663954 0
M  V30 11605 C 1091.8 2.29197 0.0117626 0
M  V30 11606 C 1092.8 1.42767 0.739875 0
M  V30 11607 O 1093.99 1.64278 0.579509 0
M  V30 11608 C 1091.12 3.2505 1.02738 0
M  V30 11609 H 1092.32 2.90438 -0.747391 0
M  V30 11610 H 1089.87 1.5039 -0.425733 0
M  V30 11611 H 1090.6 2.68726 1.8154 0
M  V30 11612 H 1090.39 3.88785 0.508809 0
M  V30 11613 H 1091.88 3.89771 1.49893 0
M  V30 11614 N 1092.32 0.406567 1.52266 0
M  V30 11615 C 1093.26 -0.420182 2.26943 0
M  V30 11616 C 1094.23 -1.04323 1.29251 0
M  V30 11617 O 1095.42 -1.06799 1.5811 0
M  V30 11618 C 1092.56 -1.5323 3.09216 0
M  V30 11619 C 1091.67 -0.930419 4.21862 0
M  V30 11620 C 1090.81 -2.01502 4.91498 0
M  V30 11621 C 1089.84 -1.38994 5.9611 0
M  V30 11622 N 1088.98 -2.41458 6.59274 0
M  V30 11623 H 1093.82 0.223066 2.97164 0
M  V30 11624 H 1091.36 0.121842 1.46595 0
M  V30 11625 H 1093.32 -2.18803 3.5522 0
M  V30 11626 H 1091.95 -2.14561 2.41171 0
M  V30 11627 H 1091 -0.163809 3.80047 0
M  V30 11628 H 1092.31 -0.433785 4.9691 0
M  V30 11629 H 1091.46 -2.74807 5.40894 0
M  V30 11630 H 1090.2 -2.5453 4.16012 0
M  V30 11631 H 1089.21 -0.642213 5.46036 0
M  V30 11632 H 1090.43 -0.867386 6.73538 0
M  V30 11633 H 1088.38 -2.93623 5.86619 0
M  V30 11634 H 1088.3 -1.96599 7.2999 0
M  V30 11635 H 1089.56 -3.14341 7.13309 0
M  V30 11636 N 1093.79 -1.57004 0.136909 0
M  V30 11637 C 1094.74 -2.16246 -0.806607 0
M  V30 11638 C 1095.71 -1.09246 -1.25118 0
M  V30 11639 O 1096.9 -1.3724 -1.32551 0
M  V30 11640 C 1094.04 -2.78031 -2.04433 0
M  V30 11641 C 1093.15 -3.99393 -1.64649 0
M  V30 11642 C 1092.28 -4.49208 -2.83524 0
M  V30 11643 C 1091.32 -5.63059 -2.40064 0
M  V30 11644 N 1090.46 -6.07537 -3.51913 0
M  V30 11645 H 1095.3 -2.9654 -0.294596 0
M  V30 11646 H 1092.84 -1.46491 -0.133705 0
M  V30 11647 H 1094.8 -3.11992 -2.76978 0
M  V30 11648 H 1093.43 -2.00398 -2.53062 0
M  V30 11649 H 1092.48 -3.71477 -0.819077 0
M  V30 11650 H 1093.79 -4.81904 -1.28723 0
M  V30 11651 H 1092.94 -4.85171 -3.64271 0
M  V30 11652 H 1091.68 -3.65683 -3.22688 0
M  V30 11653 H 1090.69 -5.26682 -1.57754 0
M  V30 11654 H 1091.91 -6.48362 -2.01997 0
M  V30 11655 H 1089.86 -5.2695 -3.90717 0
M  V30 11656 H 1089.78 -6.84949 -3.1997 0
M  V30 11657 H 1091.04 -6.48143 -4.33048 0
M  V30 11658 N 1095.27 0.136881 -1.57004 0
M  V30 11659 C 1096.52 0.849031 -1.84172 0
M  V30 11660 C 1096.85 1.80359 -0.720027 0
M  V30 11661 O 1096.13 1.92538 0.275584 0
M  V30 11662 C 1096.41 1.61465 -3.21871 0
M  V30 11663 C 1096.26 0.680902 -4.44616 0
M  V30 11664 C 1097.58 2.57488 -3.56914 0
M  V30 11665 H 1094.7 0.307209 -0.669919 0
M  V30 11666 H 1097.34 0.113862 -1.89659 0
M  V30 11667 H 1095.49 2.24137 -3.17325 0
M  V30 11668 H 1097.16 0.0644094 -4.61255 0
M  V30 11669 H 1095.41 -0.00883629 -4.33799 0
M  V30 11670 H 1096.08 1.25286 -5.37594 0
M  V30 11671 H 1098.55 2.0493 -3.62136 0
M  V30 11672 H 1097.43 3.08101 -4.54274 0
M  V30 11673 H 1097.69 3.39321 -2.83397 0
M  V30 11674 N 1096.75 1.52266 0.40654 0
M  V30 11675 C 1097.71 1.75168 1.47814 0
M  V30 11676 C 1098.71 0.621575 1.48301 0
M  V30 11677 O 1099.9 0.889476 1.4978 0
M  V30 11678 C 1097.04 1.83642 2.87208 0
M  V30 11679 H 1098.23 2.70834 1.28798 0
M  V30 11680 H 1095.78 1.42722 0.637196 0
M  V30 11681 H 1096.52 0.898994 3.1159 0
M  V30 11682 H 1096.3 2.65801 2.88257 0
M  V30 11683 H 1097.79 2.03093 3.64888 0
M  V30 11684 N 1098.23 -0.663929 1.42933 0
M  V30 11685 C 1099.47 -1.42603 1.44195 0
M  V30 11686 C 1099.81 -1.94101 0.0620284 0
M  V30 11687 O 1099.08 -1.71609 -0.91546 0
M  V30 11688 C 1099.37 -2.61522 2.47544 0
M  V30 11689 C 1099.22 -2.15587 3.94769 0
M  V30 11690 C 1100.54 -3.6374 2.47753 0
M  V30 11691 H 1097.66 -0.517189 0.525056 0
M  V30 11692 H 1100.3 -0.75361 1.74415 0
M  V30 11693 H 1098.45 -3.1889 2.21904 0
M  V30 11694 H 1100.12 -1.63303 4.31428 0
M  V30 11695 H 1098.36 -1.47057 4.08114 0
M  V30 11696 H 1099.03 -3.01053 4.62678 0
M  V30 11697 H 1101.51 -3.16111 2.70579 0
M  V30 11698 H 1100.39 -4.44512 3.22025 0
M  V30 11699 H 1100.65 -4.15607 1.50742 0
M  V30 11700 N 1099.71 -1.29285 -0.901281 0
M  V30 11701 C 1100.64 -1.16832 -2.0217 0
M  V30 11702 C 1101.62 -0.0629265 -1.69984 0
M  V30 11703 O 1102.8 -0.242123 -1.92685 0
M  V30 11704 C 1099.93 -0.842406 -3.36929 0
M  V30 11705 C 1098.89 -1.90394 -3.8332 0
M  V30 11706 C 1098.21 -1.43138 -5.15185 0
M  V30 11707 C 1099.51 -3.31254 -4.03817 0
M  V30 11708 H 1101.21 -2.10562 -2.12847 0
M  V30 11709 H 1098.75 -1.01375 -1.0227 0
M  V30 11710 H 1100.71 -0.741999 -4.14816 0
M  V30 11711 H 1099.43 0.130598 -3.26339 0
M  V30 11712 H 1098.09 -1.99371 -3.07647 0
M  V30 11713 H 1097.74 -0.447091 -5.01009 0
M  V30 11714 H 1097.44 -2.14129 -5.47195 0
M  V30 11715 H 1098.96 -1.34444 -5.95615 0
M  V30 11716 H 1100.37 -3.25129 -4.72191 0
M  V30 11717 H 1098.77 -4.00189 -4.47178 0
M  V30 11718 H 1099.84 -3.74349 -3.08206 0
M  V30 11719 N 1101.18 1.11143 -1.11736 0
M  V30 11720 C 1102.43 1.83219 -0.869413 0
M  V30 11721 C 1102.76 1.84588 0.603402 0
M  V30 11722 O 1102.04 1.30119 1.44566 0
M  V30 11723 C 1102.32 3.30247 -1.43559 0
M  V30 11724 C 1102.17 3.37253 -2.97624 0
M  V30 11725 C 1103.49 4.26412 -1.08907 0
M  V30 11726 H 1100.61 0.665205 -0.317286 0
M  V30 11727 H 1103.25 1.30307 -1.38275 0
M  V30 11728 H 1101.4 3.75437 -0.998978 0
M  V30 11729 H 1103.08 3.00599 -3.49911 0
M  V30 11730 H 1101.32 2.77378 -3.33532 0
M  V30 11731 H 1101.99 4.40752 -3.32328 0
M  V30 11732 H 1104.47 3.89418 -1.46604 0
M  V30 11733 H 1103.34 5.27666 -1.51195 0
M  V30 11734 H 1103.6 4.421 -0.000259009 0
M  V30 11735 N 1102.66 0.908147 1.28804 0
M  V30 11736 C 1103.6 0.336764 2.25701 0
M  V30 11737 C 1104.57 -0.555849 1.52804 0
M  V30 11738 O 1105.76 -0.500763 1.81727 0
M  V30 11739 C 1102.88 -0.519154 3.34698 0
M  V30 11740 C 1101.93 0.307304 4.25391 0
M  V30 11741 S 1102.76 1.71048 5.07447 0
M  V30 11742 C 1103.92 0.861715 6.1994 0
M  V30 11743 H 1104.15 1.15806 2.73818 0
M  V30 11744 H 1101.69 0.709033 1.37157 0
M  V30 11745 H 1103.64 -1.00718 3.97952 0
M  V30 11746 H 1102.3 -1.31477 2.85259 0
M  V30 11747 H 1101.5 -0.346906 5.02805 0
M  V30 11748 H 1101.1 0.728777 3.66831 0
M  V30 11749 H 1103.39 0.088851 6.77442 0
M  V30 11750 H 1104.33 1.60821 6.89596 0
M  V30 11751 H 1104.74 0.412366 5.62992 0
M  V30 11752 N 1104.14 -1.42577 0.671525 0
M  V30 11753 C 1105.39 -2.01185 0.192051 0
M  V30 11754 C 1105.71 -1.53349 -1.20454 0
M  V30 11755 O 1104.98 -0.753781 -1.80817 0
M  V30 11756 H 1103.56 -0.743898 0.0680106 0
M  V30 11757 H 1106.22 -1.74539 0.8673 0
M  V30 11758 H 1105.32 -3.11516 0.190796 0
M  V30 11759 N 1105.62 -0.414636 -1.52048 0
M  V30 11760 C 1107.03 -0.0657806 -1.59464 0
M  V30 11761 C 1107.23 1.4225 -1.42713 0
M  V30 11762 O 1106.29 2.18996 -1.25687 0
M  V30 11763 C 1107.6 -0.565618 -2.95332 0
M  V30 11764 C 1109.15 -0.524072 -3.08581 0
M  V30 11765 C 1109.63 -1.00051 -4.46938 0
M  V30 11766 N 1111.12 -0.957555 -4.53194 0
M  V30 11767 C 1111.85 -1.29733 -5.58531 0
M  V30 11768 N 1111.35 -1.70883 -6.71395 0
M  V30 11769 N 1113.14 -1.21694 -5.48769 0
M  V30 11770 H 1105.29 -1.38325 -1.61183 0
M  V30 11771 H 1107.56 -0.568593 -0.758556 0
M  V30 11772 H 1107.26 -1.60604 -3.12888 0
M  V30 11773 H 1107.14 0.0217735 -3.77194 0
M  V30 11774 H 1109.52 0.507319 -2.90707 0
M  V30 11775 H 1109.6 -1.14759 -2.28613 0
M  V30 11776 H 1109.25 -2.03025 -4.65557 0
M  V30 11777 H 1109.18 -0.353754 -5.2541 0
M  V30 11778 H 1111.67 -0.65508 -3.72179 0
M  V30 11779 H 1111.98 -1.95105 -7.47766 0
M  V30 11780 H 1110.33 -1.74791 -6.72661 0
M  V30 11781 H 1113.52 -0.894286 -4.59478 0
M  V30 11782 H 1113.69 -1.48504 -6.30754 0
M  V30 11783 N 1107.1 1.56929 -0.145233 0
M  V30 11784 C 1108.03 2.12449 0.833107 0
M  V30 11785 C 1109.01 1.0476 1.24355 0
M  V30 11786 O 1110.19 1.32579 1.33997 0
M  V30 11787 C 1107.32 2.64274 2.11842 0
M  V30 11788 C 1106.36 3.84093 1.85404 0
M  V30 11789 S 1107.2 5.25172 1.04663 0
M  V30 11790 C 1108.35 5.80384 2.34318 0
M  V30 11791 H 1108.59 2.951 0.360969 0
M  V30 11792 H 1106.12 1.54246 0.0690187 0
M  V30 11793 H 1108.08 2.94783 2.8568 0
M  V30 11794 H 1106.74 1.81756 2.56171 0
M  V30 11795 H 1105.93 4.18593 2.80706 0
M  V30 11796 H 1105.53 3.54336 1.19675 0
M  V30 11797 H 1107.83 5.91709 3.29981 0
M  V30 11798 H 1108.77 6.7798 2.04325 0
M  V30 11799 H 1109.18 5.08617 2.44885 0
M  V30 11800 N 1108.58 -0.128553 1.57075 0
M  V30 11801 C 1109.52 -1.15812 1.9964 0
M  V30 11802 C 1110.49 -1.41679 0.86696 0
M  V30 11803 O 1111.68 -1.53705 1.13046 0
M  V30 11804 C 1108.82 -2.48198 2.39774 0
M  V30 11805 C 1107.93 -2.29348 3.66092 0
M  V30 11806 C 1107.07 -3.54898 3.95248 0
M  V30 11807 C 1106.1 -3.31164 5.14779 0
M  V30 11808 N 1105.24 -4.48891 5.39853 0
M  V30 11809 H 1110.08 -0.788136 2.87389 0
M  V30 11810 H 1107.62 -0.377682 1.42169 0
M  V30 11811 H 1109.58 -3.25414 2.61077 0
M  V30 11812 H 1108.21 -2.83108 1.5508 0
M  V30 11813 H 1107.26 -1.43095 3.5246 0
M  V30 11814 H 1108.57 -2.07781 4.53463 0
M  V30 11815 H 1107.72 -4.40536 4.17148 0
M  V30 11816 H 1106.46 -3.79487 3.06335 0
M  V30 11817 H 1105.47 -2.43915 4.92733 0
M  V30 11818 H 1106.69 -3.07954 6.05261 0
M  V30 11819 H 1104.64 -4.73619 4.53895 0
M  V30 11820 H 1104.56 -4.30394 6.21528 0
M  V30 11821 H 1105.82 -5.35691 5.66265 0
M  V30 11822 N 1110.05 -1.5248 -0.398459 0
M  V30 11823 C 1111.47 -1.4152 -0.737854 0
M  V30 11824 C 1111.67 -0.528122 -1.94456 0
M  V30 11825 O 1110.73 0.00203799 -2.525 0
M  V30 11826 C 1112.04 -2.8422 -0.9818 0
M  V30 11827 C 1113.59 -2.93635 -1.08386 0
M  V30 11828 C 1114.06 -4.37327 -1.3605 0
M  V30 11829 N 1115.55 -4.40609 -1.42892 0
M  V30 11830 C 1116.29 -5.48863 -1.65944 0
M  V30 11831 N 1115.78 -6.67217 -1.86529 0
M  V30 11832 N 1117.58 -5.36393 -1.68046 0
M  V30 11833 H 1109.73 -2.08681 0.395705 0
M  V30 11834 H 1111.99 -0.941023 0.114801 0
M  V30 11835 H 1111.7 -3.51302 -0.167358 0
M  V30 11836 H 1111.57 -3.25907 -1.89907 0
M  V30 11837 H 1113.96 -2.26728 -1.88888 0
M  V30 11838 H 1114.04 -2.5539 -0.144714 0
M  V30 11839 H 1113.68 -5.04797 -0.56061 0
M  V30 11840 H 1113.61 -4.73116 -2.31233 0
M  V30 11841 H 1116.1 -3.55298 -1.2873 0
M  V30 11842 H 1116.42 -7.45498 -2.03599 0
M  V30 11843 H 1114.76 -6.70263 -1.83773 0
M  V30 11844 H 1117.95 -4.42903 -1.51509 0
M  V30 11845 H 1118.13 -6.2083 -1.85672 0
M  V30 11846 N 1111.53 0.65634 -1.43283 0
M  V30 11847 C 1112.44 1.79847 -1.50639 0
M  V30 11848 C 1113.46 1.69487 -0.393714 0
M  V30 11849 O 1114.63 1.90712 -0.647379 0
M  V30 11850 C 1111.7 3.16107 -1.42398 0
M  V30 11851 C 1110.76 3.38287 -2.64312 0
M  V30 11852 C 1109.99 4.68046 -2.56454 0
M  V30 11853 O 1110.22 5.4719 -1.61056 0
M  V30 11854 O 1109.15 4.91877 -3.46902 0
M  V30 11855 H 1112.98 1.76596 -2.47078 0
M  V30 11856 H 1110.56 0.814428 -1.25249 0
M  V30 11857 H 1112.44 3.97382 -1.40233 0
M  V30 11858 H 1111.12 3.19956 -0.490929 0
M  V30 11859 H 1110.02 2.56788 -2.72049 0
M  V30 11860 H 1111.36 3.39282 -3.56579 0
M  V30 11861 N 1113.01 1.29761 0.894412 0
M  V30 11862 C 1114.26 1.17409 1.64006 0
M  V30 11863 C 1114.57 -0.272355 1.93695 0
M  V30 11864 O 1115.78 -0.517269 2.66527 0
M  V30 11865 C 1114.23 2.05379 2.95546 0
M  V30 11866 C 1113.84 3.54878 2.73433 0
M  V30 11867 C 1115.59 2.01765 3.73485 0
M  V30 11868 C 1113.49 4.34935 4.00731 0
M  V30 11869 H 1112.42 0.43583 0.615279 0
M  V30 11870 H 1115.07 1.5444 0.990983 0
M  V30 11871 H 1113.46 1.61222 3.61695 0
M  V30 11872 H 1114.63 4.07122 2.15844 0
M  V30 11873 H 1112.94 3.60218 2.08882 0
M  V30 11874 H 1115.54 2.58835 4.67877 0
M  V30 11875 H 1115.88 0.998876 4.04139 0
M  V30 11876 H 1116.42 2.43994 3.14184 0
M  V30 11877 H 1113.16 5.3747 3.75241 0
M  V30 11878 H 1112.68 3.87458 4.5786 0
M  V30 11879 H 1114.36 4.45875 4.68833 0
M  V30 11880 N 1114.49 -1.10549 1.12324 0
M  V30 11881 C 1115.72 -1.8627 0.900618 0
M  V30 11882 C 1116.13 -1.80609 -0.550069 0
M  V30 11883 O 1115.49 -1.19396 -1.38025 0
M  V30 11884 C 1115.54 -3.34716 1.36556 0
M  V30 11885 O 1115.26 -3.40279 2.75938 0
M  V30 11886 C 1116.76 -4.27315 1.17969 0
M  V30 11887 H 1113.98 -0.588741 0.321908 0
M  V30 11888 H 1116.52 -1.39759 1.49291 0
M  V30 11889 H 1114.68 -3.78697 0.81652 0
M  V30 11890 H 1115.09 -4.32781 2.96312 0
M  V30 11891 H 1116.57 -5.29677 1.55391 0
M  V30 11892 H 1117.04 -4.39036 0.120158 0
M  V30 11893 H 1117.65 -3.89137 1.71617 0
M  V30 11894 N 1115.97 -0.914965 -1.28321 0
M  V30 11895 C 1117.19 -0.564654 -1.99046 0
M  V30 11896 C 1117.61 0.854345 -1.68364 0
M  V30 11897 O 1116.97 1.56605 -0.937068 0
M  V30 11898 C 1117.02 -0.765663 -3.53299 0
M  V30 11899 O 1116.74 -2.12883 -3.829 0
M  V30 11900 C 1118.24 -0.422347 -4.41283 0
M  V30 11901 H 1115.46 -0.215158 -0.635569 0
M  V30 11902 H 1118 -1.2285 -1.63487 0
M  V30 11903 H 1116.16 -0.148795 -3.87114 0
M  V30 11904 H 1116.57 -2.1694 -4.77533 0
M  V30 11905 H 1118.05 -0.613757 -5.48577 0
M  V30 11906 H 1118.52 0.641484 -4.3449 0
M  V30 11907 H 1119.13 -1.01681 -4.12966 0
M  V30 11908 N 1117.44 1.42219 -0.679077 0
M  V30 11909 C 1118.37 2.33493 -0.0174528 0
M  V30 11910 C 1119.35 1.50915 0.78477 0
M  V30 11911 O 1120.54 1.79504 0.741065 0
M  V30 11912 C 1117.67 3.34576 0.931463 0
M  V30 11913 C 1116.62 4.2734 0.237527 0
M  V30 11914 C 1115.95 5.18664 1.29967 0
M  V30 11915 C 1117.25 5.14729 -0.886082 0
M  V30 11916 H 1118.94 2.89068 -0.779748 0
M  V30 11917 H 1116.49 1.38993 -0.376419 0
M  V30 11918 H 1118.44 3.97343 1.40343 0
M  V30 11919 H 1117.17 2.77315 1.72523 0
M  V30 11920 H 1115.83 3.65973 -0.214245 0
M  V30 11921 H 1115.47 4.57727 2.08554 0
M  V30 11922 H 1115.17 5.81558 0.840463 0
M  V30 11923 H 1116.7 5.84308 1.77249 0
M  V30 11924 H 1118.11 5.71158 -0.495141 0
M  V30 11925 H 1116.51 5.86478 -1.27135 0
M  V30 11926 H 1117.58 4.52874 -1.733 0
M  V30 11927 N 1118.92 0.422693 1.51826 0
M  V30 11928 C 1120.17 -0.148861 2.02253 0
M  V30 11929 C 1120.5 -1.43629 1.30707 0
M  V30 11930 O 1119.78 -1.89967 0.417482 0
M  V30 11931 C 1120.06 -0.382672 3.58061 0
M  V30 11932 C 1119.91 0.922386 4.40241 0
M  V30 11933 C 1121.23 -1.1589 4.24567 0
M  V30 11934 H 1118.35 -0.0526279 0.735119 0
M  V30 11935 H 1120.99 0.558821 1.81596 0
M  V30 11936 H 1119.14 -0.985495 3.75793 0
M  V30 11937 H 1120.81 1.55806 4.34191 0
M  V30 11938 H 1119.06 1.53032 4.05911 0
M  V30 11939 H 1119.73 0.713012 5.47376 0
M  V30 11940 H 1122.2 -0.648415 4.11017 0
M  V30 11941 H 1121.08 -1.29125 5.33496 0
M  V30 11942 H 1121.34 -2.18315 3.84436 0
M  V30 11943 N 1120.4 -1.5685 0.153553 0
M  V30 11944 C 1121.62 -2.01135 -0.505904 0
M  V30 11945 C 1122.05 -1.03301 -1.57196 0
M  V30 11946 O 1121.41 -0.00976022 -1.81297 0
M  V30 11947 C 1121.46 -3.44129 -1.0774 0
M  V30 11948 O 1120.56 -3.49318 -2.19205 0
M  V30 11949 H 1119.9 -0.652496 -0.123062 0
M  V30 11950 H 1122.43 -2.03039 0.252216 0
M  V30 11951 H 1122.44 -3.83066 -1.40444 0
M  V30 11952 H 1121.12 -4.1484 -0.296754 0
M  V30 11953 H 1119.69 -3.22227 -1.8768 0
M  V30 11954 N 1121.88 0.120221 -1.57141 0
M  V30 11955 C 1123.29 0.473718 -1.52408 0
M  V30 11956 C 1123.49 1.81925 -0.866354 0
M  V30 11957 O 1122.55 2.48491 -0.448173 0
M  V30 11958 C 1123.86 0.459338 -2.97171 0
M  V30 11959 C 1125.41 0.542975 -3.08254 0
M  V30 11960 C 1125.89 0.558996 -4.54576 0
M  V30 11961 N 1127.38 0.620469 -4.59026 0
M  V30 11962 C 1128.11 0.654292 -5.69655 0
M  V30 11963 N 1127.61 0.645835 -6.89783 0
M  V30 11964 N 1129.4 0.697208 -5.57759 0
M  V30 11965 H 1121.55 -0.76142 -1.98283 0
M  V30 11966 H 1123.81 -0.280736 -0.905479 0
M  V30 11967 H 1123.52 -0.461654 -3.48657 0
M  V30 11968 H 1123.39 1.28759 -3.54543 0
M  V30 11969 H 1125.78 1.45439 -2.56772 0
M  V30 11970 H 1125.86 -0.312936 -2.53879 0
M  V30 11971 H 1125.51 -0.348367 -5.06704 0
M  V30 11972 H 1125.44 1.43177 -5.06762 0
M  V30 11973 H 1127.93 0.633218 -3.72557 0
M  V30 11974 H 1128.24 0.674233 -7.69853 0
M  V30 11975 H 1126.59 0.613279 -6.92289 0
M  V30 11976 H 1129.78 0.70117 -4.62819 0
M  V30 11977 H 1129.95 0.7201 -6.43986 0
M  V30 11978 N 1123.36 1.52689 0.390367 0
M  V30 11979 C 1124.6 1.67914 1.13722 0
M  V30 11980 C 1124.94 0.417159 1.89667 0
M  V30 11981 O 1124.21 -0.585005 1.85494 0
M  V30 11982 C 1124.49 2.91331 2.11656 0
M  V30 11983 C 1124.35 4.27626 1.39484 0
M  V30 11984 C 1125.67 3.10293 3.12099 0
M  V30 11985 H 1122.78 0.611047 0.412057 0
M  V30 11986 H 1125.43 1.85283 0.420753 0
M  V30 11987 H 1123.58 2.76654 2.72754 0
M  V30 11988 H 1125.25 4.54068 0.813607 0
M  V30 11989 H 1123.49 4.28169 0.69669 0
M  V30 11990 H 1124.16 5.10066 2.11038 0
M  V30 11991 H 1126.64 3.23992 2.6109 0
M  V30 11992 H 1125.51 3.98127 3.7787 0
M  V30 11993 H 1125.78 2.24448 3.80888 0
M  V30 11994 N 1124.83 -0.648732 1.43629 0
M  V30 11995 C 1126.08 -1.40579 1.45196 0
M  V30 11996 C 1126.4 -1.9484 0.0790556 0
M  V30 11997 O 1125.67 -1.74707 -0.886239 0
M  V30 11998 H 1124.25 -0.52175 0.53459 0
M  V30 11999 H 1126.92 -0.764796 1.79268 0
M  V30 12000 H 1126.01 -2.24591 2.16715 0
M  V30 12001 N 1126.31 -1.30234 -0.887518 0
M  V30 12002 C 1127.26 -1.13013 -1.9802 0
M  V30 12003 C 1128.25 -0.0460253 -1.60834 0
M  V30 12004 O 1129.44 -0.26907 -1.74943 0
M  V30 12005 C 1126.57 -0.821397 -3.33329 0
M  V30 12006 C 1125.65 -1.94564 -3.76837 0
M  V30 12007 N 1126.04 -3.19068 -3.92465 0
M  V30 12008 C 1124.34 -1.84142 -4.06211 0
M  V30 12009 C 1125.04 -3.92495 -4.29328 0
M  V30 12010 N 1124.02 -3.20526 -4.39049 0
M  V30 12011 H 1127.82 -2.07446 -2.0819 0
M  V30 12012 H 1125.34 -1.21536 -1.07716 0
M  V30 12013 H 1127.33 -0.679046 -4.11333 0
M  V30 12014 H 1125.99 0.114891 -3.24497 0
M  V30 12015 H 1127 -3.54386 -3.77665 0
M  V30 12016 H 1123.68 -0.97865 -4.05868 0
M  V30 12017 H 1125.07 -4.99701 -4.49164 0
M  V30 12018 N 1127.79 1.09952 -1.12909 0
M  V30 12019 C 1128.7 2.19999 -0.81471 0
M  V30 12020 C 1129.72 1.72864 0.19851 0
M  V30 12021 O 1130.89 2.01376 0.0308832 0
M  V30 12022 C 1127.96 3.45573 -0.279363 0
M  V30 12023 C 1127.02 4.07417 -1.35314 0
M  V30 12024 C 1126.25 5.26996 -0.843247 0
M  V30 12025 O 1126.47 5.69495 0.321164 0
M  V30 12026 O 1125.41 5.79826 -1.61511 0
M  V30 12027 H 1129.23 2.49333 -1.73398 0
M  V30 12028 H 1126.82 1.18784 -0.906128 0
M  V30 12029 H 1128.7 4.21398 0.0140531 0
M  V30 12030 H 1127.38 3.17854 0.612401 0
M  V30 12031 H 1126.28 3.33253 -1.6998 0
M  V30 12032 H 1127.62 4.39349 -2.21885 0
M  V30 12033 N 1129.27 0.921757 1.27833 0
M  V30 12034 C 1130.68 0.604496 1.76643 0
M  V30 12035 C 1131.03 -0.880294 1.75343 0
M  V30 12036 O 1130.16 -1.68875 1.35315 0
M  V30 12037 C 1130.75 1.09055 3.20768 0
M  V30 12038 C 1129.31 0.824066 3.67268 0
M  V30 12039 C 1128.46 1.25269 2.47392 0
M  V30 12040 H 1131.41 1.10217 1.14184 0
M  V30 12041 H 1131.43 0.435558 3.77999 0
M  V30 12042 H 1130.94 2.17122 3.21682 0
M  V30 12043 H 1129.04 -0.243055 3.71806 0
M  V30 12044 H 1129.15 1.43743 4.57028 0
M  V30 12045 H 1127.52 0.671313 2.45694 0
M  V30 12046 H 1128.3 2.34188 2.5102 0
M  V30 12047 N 1130.75 -1.41857 0.686609 0
M  V30 12048 C 1131.69 -2.30795 0.015643 0
M  V30 12049 C 1132.66 -1.46616 -0.780569 0
M  V30 12050 O 1133.85 -1.75423 -0.750424 0
M  V30 12051 C 1130.99 -3.32577 -0.921229 0
M  V30 12052 C 1130.1 -4.3184 -0.117585 0
M  V30 12053 C 1129.24 -5.20693 -1.05128 0
M  V30 12054 C 1128.28 -6.11629 -0.240018 0
M  V30 12055 N 1127.41 -6.92995 -1.12704 0
M  V30 12056 H 1132.25 -2.87615 0.77985 0
M  V30 12057 H 1129.79 -1.41661 0.396298 0
M  V30 12058 H 1131.75 -3.90129 -1.47836 0
M  V30 12059 H 1130.38 -2.77328 -1.65193 0
M  V30 12060 H 1129.43 -3.7631 0.55634 0
M  V30 12061 H 1130.74 -4.96168 0.511753 0
M  V30 12062 H 1129.9 -5.83035 -1.67795 0
M  V30 12063 H 1128.63 -4.5657 -1.71449 0
M  V30 12064 H 1127.64 -5.48345 0.399779 0
M  V30 12065 H 1128.86 -6.77805 0.419266 0
M  V30 12066 H 1126.81 -6.31489 -1.77644 0
M  V30 12067 H 1126.73 -7.53974 -0.553065 0
M  V30 12068 H 1128 -7.59813 -1.7408 0
M  V30 12069 N 1132.22 -0.430739 -1.51599 0
M  V30 12070 C 1133.17 0.384024 -2.27583 0
M  V30 12071 C 1134.14 1.02254 -1.30895 0
M  V30 12072 O 1135.33 1.0427 -1.59789 0
M  V30 12073 C 1132.47 1.48291 -3.11615 0
M  V30 12074 C 1131.58 0.863187 -4.23288 0
M  V30 12075 C 1130.71 1.93657 -4.94642 0
M  V30 12076 C 1129.75 1.29493 -5.98246 0
M  V30 12077 N 1128.89 2.30939 -6.63032 0
M  V30 12078 H 1133.73 -0.270314 -2.96771 0
M  V30 12079 H 1131.27 -0.145148 -1.46382 0
M  V30 12080 H 1133.23 2.13124 -3.58656 0
M  V30 12081 H 1131.86 2.10697 -2.44554 0
M  V30 12082 H 1130.91 0.103326 -3.8026 0
M  V30 12083 H 1132.22 0.354676 -4.97537 0
M  V30 12084 H 1131.37 2.66167 -5.45197 0
M  V30 12085 H 1130.11 2.4788 -4.20008 0
M  V30 12086 H 1129.12 0.555262 -5.46989 0
M  V30 12087 H 1130.34 0.760122 -6.74833 0
M  V30 12088 H 1128.29 2.84254 -5.91216 0
M  V30 12089 H 1128.21 1.84961 -7.33025 0
M  V30 12090 H 1129.47 3.02953 -7.1822 0
M  V30 12091 N 1133.7 1.56767 -0.161869 0
M  V30 12092 C 1134.95 1.97661 0.479751 0
M  V30 12093 C 1135.3 1.04583 1.61493 0
M  V30 12094 O 1134.6 0.0836772 1.91417 0
M  V30 12095 C 1134.79 3.42567 1.01894 0
M  V30 12096 C 1134.62 4.49657 -0.0624633 0
M  V30 12097 C 1133.39 5.0273 -0.508935 0
M  V30 12098 C 1135.59 5.07069 -0.85941 0
M  V30 12099 N 1133.57 5.93442 -1.57163 0
M  V30 12100 C 1134.94 5.94131 -1.77225 0
M  V30 12101 C 1137 4.89596 -0.905543 0
M  V30 12102 C 1135.7 6.6559 -2.72731 0
M  V30 12103 C 1137.72 5.61769 -1.8485 0
M  V30 12104 C 1137.09 6.48551 -2.74884 0
M  V30 12105 H 1133.19 0.76864 0.14393 0
M  V30 12106 H 1135.77 1.92957 -0.259906 0
M  V30 12107 H 1133.94 3.47835 1.72815 0
M  V30 12108 H 1135.67 3.70493 1.62841 0
M  V30 12109 H 1132.43 4.73476 -0.1084 0
M  V30 12110 H 1132.85 6.43502 -2.10319 0
M  V30 12111 H 1137.49 4.22209 -0.223516 0
M  V30 12112 H 1135.21 7.32197 -3.41927 0
M  V30 12113 H 1138.8 5.50239 -1.89018 0
M  V30 12114 H 1137.68 7.03417 -3.46661 0
M  V30 12115 N 1135.18 -0.111886 1.57202 0
M  V30 12116 C 1136.59 -0.668261 1.74331 0
M  V30 12117 C 1136.94 -1.79959 0.781609 0
M  V30 12118 O 1136.07 -2.16356 -0.043833 0
M  V30 12119 C 1136.66 -1.219 3.1611 0
M  V30 12120 C 1135.22 -1.7216 3.34721 0
M  V30 12121 C 1134.37 -0.624223 2.70183 0
M  V30 12122 H 1137.32 0.114081 1.58289 0
M  V30 12123 H 1137.34 -2.08858 3.18054 0
M  V30 12124 H 1136.85 -0.395381 3.86081 0
M  V30 12125 H 1134.95 -2.56976 2.69803 0
M  V30 12126 H 1135.07 -1.82615 4.42932 0
M  V30 12127 H 1133.43 -1.05958 2.31614 0
M  V30 12128 H 1134.21 0.188537 3.42782 0
M  V30 12129 N 1136.66 -1.52894 -0.382264 0
M  V30 12130 C 1137.91 -1.67489 -1.12385 0
M  V30 12131 C 1138.22 -0.424565 -1.90937 0
M  V30 12132 O 1139.43 -0.450763 -2.67732 0
M  V30 12133 C 1137.88 -2.96019 -2.04697 0
M  V30 12134 C 1137.49 -4.28255 -1.31535 0
M  V30 12135 C 1139.23 -3.19981 -2.78949 0
M  V30 12136 C 1137.14 -5.47887 -2.22652 0
M  V30 12137 H 1136.07 -0.624002 -0.423246 0
M  V30 12138 H 1138.72 -1.79392 -0.386107 0
M  V30 12139 H 1137.1 -2.77878 -2.82134 0
M  V30 12140 H 1138.28 -4.56971 -0.592771 0
M  V30 12141 H 1136.59 -4.10607 -0.692148 0
M  V30 12142 H 1139.19 -4.06541 -3.47316 0
M  V30 12143 H 1139.53 -2.35335 -3.43399 0
M  V30 12144 H 1140.07 -3.38718 -2.08602 0
M  V30 12145 H 1136.81 -6.3496 -1.62806 0
M  V30 12146 H 1136.33 -5.23473 -2.92807 0
M  V30 12147 H 1138 -5.82026 -2.82586 0
M  V30 12148 N 1138.14 0.641106 -1.43971 0
M  V30 12149 C 1139.36 1.43324 -1.4991 0
M  V30 12150 C 1139.79 1.87705 -0.121908 0
M  V30 12151 O 1139.15 1.58127 0.886875 0
M  V30 12152 C 1139.19 2.63637 -2.46025 0
M  V30 12153 O 1138.3 3.63123 -1.95488 0
M  V30 12154 H 1137.64 0.429252 -0.506595 0
M  V30 12155 H 1140.17 0.783427 -1.89007 0
M  V30 12156 H 1140.18 3.11304 -2.63731 0
M  V30 12157 H 1138.85 2.30678 -3.46064 0
M  V30 12158 H 1137.43 3.22332 -1.87501 0
M  V30 12159 N 1139.62 1.30703 0.880598 0
M  V30 12160 C 1140.86 1.19541 1.62955 0
M  V30 12161 C 1141.18 -0.249089 1.93403 0
M  V30 12162 O 1140.45 -1.1669 1.57354 0
M  V30 12163 H 1139.03 0.439434 0.604075 0
M  V30 12164 H 1141.7 1.63888 1.05483 0
M  V30 12165 H 1140.79 1.75945 2.57779 0
M  V30 12166 N 1141.09 -1.09351 1.1349 0
M  V30 12167 C 1142.34 -1.81812 0.898452 0
M  V30 12168 C 1142.67 -1.85525 -0.573959 0
M  V30 12169 O 1141.95 -1.32403 -1.42477 0
M  V30 12170 C 1142.23 -3.27921 1.48794 0
M  V30 12171 C 1142.08 -3.32476 3.02952 0
M  V30 12172 C 1143.4 -4.24625 1.15678 0
M  V30 12173 H 1140.52 -0.660074 0.327829 0
M  V30 12174 H 1143.16 -1.28091 1.40331 0
M  V30 12175 H 1141.31 -3.738 1.05858 0
M  V30 12176 H 1142.99 -2.94994 3.54649 0
M  V30 12177 H 1141.23 -2.72037 3.37903 0
M  V30 12178 H 1141.9 -4.35409 3.39298 0
M  V30 12179 H 1144.38 -3.87036 1.52781 0
M  V30 12180 H 1143.25 -5.25194 1.59571 0
M  V30 12181 H 1143.51 -4.42044 0.0705933 0
M  V30 12182 N 1142.57 -0.928524 -1.27343 0
M  V30 12183 C 1143.5 -0.445627 -2.29208 0
M  V30 12184 C 1144.48 0.494508 -1.62753 0
M  V30 12185 O 1145.67 0.399082 -1.90055 0
M  V30 12186 C 1142.8 0.301684 -3.45987 0
M  V30 12187 C 1141.75 -0.550695 -4.24442 0
M  V30 12188 C 1141.08 0.325833 -5.33706 0
M  V30 12189 C 1142.38 -1.81559 -4.89728 0
M  V30 12190 H 1144.07 -1.29696 -2.69851 0
M  V30 12191 H 1141.62 -0.625085 -1.29725 0
M  V30 12192 H 1143.57 0.650455 -4.1635 0
M  V30 12193 H 1142.29 1.18705 -3.04264 0
M  V30 12194 H 1140.95 -0.882185 -3.55827 0
M  V30 12195 H 1140.6 1.21018 -4.88225 0
M  V30 12196 H 1140.3 -0.240994 -5.87106 0
M  V30 12197 H 1141.83 0.670156 -6.06911 0
M  V30 12198 H 1143.24 -1.53483 -5.52373 0
M  V30 12199 H 1141.64 -2.32598 -5.53189 0
M  V30 12200 H 1142.71 -2.53461 -4.13383 0
M  V30 12201 N 1144.05 1.41491 -0.694123 0
M  V30 12202 C 1145.46 1.84283 -0.299439 0
M  V30 12203 C 1145.81 1.58081 1.16211 0
M  V30 12204 O 1144.94 1.05051 1.89191 0
M  V30 12205 C 1145.53 3.34522 -0.536696 0
M  V30 12206 C 1144.09 3.7589 -0.195944 0
M  V30 12207 C 1143.24 2.64908 -0.819692 0
M  V30 12208 H 1146.19 1.31063 -0.894884 0
M  V30 12209 H 1146.21 3.79947 0.205062 0
M  V30 12210 H 1145.72 3.53561 -1.6005 0
M  V30 12211 H 1143.82 3.62452 0.863655 0
M  V30 12212 H 1143.94 4.74671 -0.649954 0
M  V30 12213 H 1142.3 2.53476 -0.249412 0
M  V30 12214 H 1143.08 2.86765 -1.88734 0
M  V30 12215 N 1145.53 0.438773 1.51369 0
M  V30 12216 C 1146.48 -0.389921 2.24641 0
M  V30 12217 C 1147.46 -0.988871 1.26926 0
M  V30 12218 O 1148.65 -0.906774 1.52009 0
M  V30 12219 C 1145.78 -1.48972 3.09293 0
M  V30 12220 C 1144.87 -0.900093 4.14438 0
M  V30 12221 N 1145.26 -0.0397688 5.05784 0
M  V30 12222 C 1143.56 -1.16752 4.30447 0
M  V30 12223 C 1144.26 0.291527 5.80969 0
M  V30 12224 N 1143.23 -0.325219 5.42626 0
M  V30 12225 H 1147.04 0.273335 2.92626 0
M  V30 12226 H 1144.55 0.250934 1.6045 0
M  V30 12227 H 1146.55 -2.09627 3.60364 0
M  V30 12228 H 1145.21 -2.1553 2.42852 0
M  V30 12229 H 1146.22 0.326771 5.16868 0
M  V30 12230 H 1142.9 -1.83049 3.75232 0
M  V30 12231 H 1144.29 0.991699 6.64541 0
M  V30 12232 N 1147.01 -1.56678 0.170181 0
M  V30 12233 C 1148.23 -2.0166 -0.484543 0
M  V30 12234 C 1148.66 -1.04962 -1.56091 0
M  V30 12235 O 1148.01 -0.0289887 -1.81277 0
M  V30 12236 C 1148.06 -3.45252 -1.04084 0
M  V30 12237 O 1147.17 -3.51623 -2.15488 0
M  V30 12238 H 1146.51 -0.653765 -0.116135 0
M  V30 12239 H 1149.04 -2.02761 0.273737 0
M  V30 12240 H 1149.05 -3.84534 -1.36373 0
M  V30 12241 H 1147.72 -4.15131 -0.252738 0
M  V30 12242 H 1146.3 -3.242 -1.84252 0
M  V30 12243 N 1148.48 0.103547 -1.57259 0
M  V30 12244 C 1149.73 0.806979 -1.8529 0
M  V30 12245 C 1150.05 1.79679 -0.757653 0
M  V30 12246 O 1149.32 1.94695 0.216913 0
M  V30 12247 H 1147.9 0.301012 -0.683667 0
M  V30 12248 H 1150.56 0.0871886 -1.94705 0
M  V30 12249 H 1149.66 1.34275 -2.81738 0
M  V30 12250 N 1149.96 1.53094 0.37415 0
M  V30 12251 C 1150.89 1.75199 1.47776 0
M  V30 12252 C 1151.91 0.632627 1.50006 0
M  V30 12253 O 1153.1 0.908688 1.5364 0
M  V30 12254 C 1150.2 1.80909 2.86575 0
M  V30 12255 C 1149.37 3.10432 3.08141 0
M  V30 12256 C 1148.43 3.07495 4.27005 0
M  V30 12257 O 1147.45 3.81319 4.22592 0
M  V30 12258 N 1148.66 2.27715 5.33972 0
M  V30 12259 H 1151.42 2.70423 1.29196 0
M  V30 12260 H 1148.98 1.51766 0.563802 0
M  V30 12261 H 1150.97 1.76432 3.64217 0
M  V30 12262 H 1149.54 0.930074 2.98443 0
M  V30 12263 H 1148.76 3.2828 2.18233 0
M  V30 12264 H 1150.05 3.96047 3.19413 0
M  V30 12265 H 1149.45 1.67231 5.40417 0
M  V30 12266 H 1148.01 2.29065 6.10223 0
M  V30 12267 N 1151.44 -0.633461 1.44309 0
M  V30 12268 C 1152.37 -1.75676 1.53819 0
M  V30 12269 C 1153.35 -1.65537 0.391365 0
M  V30 12270 O 1154.54 -1.84332 0.611181 0
M  V30 12271 C 1151.67 -3.14197 1.47979 0
M  V30 12272 C 1150.62 -3.39122 2.61113 0
M  V30 12273 C 1149.95 -4.77648 2.40325 0
M  V30 12274 C 1151.25 -3.31914 4.03274 0
M  V30 12275 H 1152.94 -1.67974 2.47841 0
M  V30 12276 H 1150.49 -0.8067 1.19283 0
M  V30 12277 H 1152.44 -3.92553 1.53233 0
M  V30 12278 H 1151.16 -3.22677 0.504718 0
M  V30 12279 H 1149.82 -2.63145 2.55245 0
M  V30 12280 H 1149.47 -4.82829 1.41016 0
M  V30 12281 H 1149.17 -4.95284 3.16177 0
M  V30 12282 H 1150.69 -5.58237 2.47394 0
M  V30 12283 H 1152.11 -4.00178 4.10524 0
M  V30 12284 H 1150.5 -3.61085 4.7931 0
M  V30 12285 H 1151.57 -2.29761 4.2701 0
M  V30 12286 N 1152.92 -1.31168 -0.873655 0
M  V30 12287 C 1154.16 -1.20821 -1.62881 0
M  V30 12288 C 1154.5 0.233994 -1.92785 0
M  V30 12289 O 1153.77 1.16588 -1.55684 0
M  V30 12290 C 1154.06 -2.04875 -2.96139 0
M  V30 12291 C 1153.91 -3.57375 -2.73136 0
M  V30 12292 C 1155.23 -1.8953 -3.97198 0
M  V30 12293 H 1152.35 -0.44026 -0.59105 0
M  V30 12294 H 1154.99 -1.6092 -1.01019 0
M  V30 12295 H 1153.14 -1.70806 -3.48938 0
M  V30 12296 H 1154.81 -4.01561 -2.27038 0
M  V30 12297 H 1153.05 -3.8099 -2.07434 0
M  V30 12298 H 1153.72 -4.1149 -3.6794 0
M  V30 12299 H 1156.2 -2.19337 -3.53596 0
M  V30 12300 H 1155.08 -2.5065 -4.8833 0
M  V30 12301 H 1155.34 -0.857576 -4.33703 0
M  V30 12302 N 1154.4 1.08748 -1.14068 0
M  V30 12303 C 1155.64 1.81504 -0.918035 0
M  V30 12304 C 1156 1.84381 0.549671 0
M  V30 12305 O 1155.29 1.30612 1.40183 0
M  V30 12306 C 1155.48 3.26734 -1.44843 0
M  V30 12307 C 1155.31 3.38006 -2.96617 0
M  V30 12308 C 1154.08 3.49401 -3.6503 0
M  V30 12309 C 1156.28 3.29952 -3.94507 0
M  V30 12310 N 1154.26 3.49428 -5.04751 0
M  V30 12311 C 1155.63 3.3693 -5.20459 0
M  V30 12312 C 1157.69 3.13666 -3.86676 0
M  V30 12313 C 1156.39 3.29299 -6.39496 0
M  V30 12314 C 1158.42 3.07363 -5.05254 0
M  V30 12315 C 1157.78 3.1494 -6.30073 0
M  V30 12316 H 1153.88 0.67814 -0.389423 0
M  V30 12317 H 1156.46 1.29916 -1.45017 0
M  V30 12318 H 1154.63 3.76776 -0.943112 0
M  V30 12319 H 1156.37 3.87537 -1.16606 0
M  V30 12320 H 1153.12 3.53145 -3.15572 0
M  V30 12321 H 1153.55 3.53007 -5.77681 0
M  V30 12322 H 1158.19 3.06673 -2.91053 0
M  V30 12323 H 1155.91 3.35054 -7.35367 0
M  V30 12324 H 1159.49 2.95887 -5.00941 0
M  V30 12325 H 1158.37 3.10088 -7.20288 0
M  V30 12326 N 1155.87 0.935264 1.26849 0
M  V30 12327 C 1157.1 0.595384 1.97835 0
M  V30 12328 C 1157.51 -0.832605 1.69895 0
M  V30 12329 O 1156.86 -1.56597 0.960371 0
M  V30 12330 C 1156.92 0.750567 3.51578 0
M  V30 12331 C 1156.58 2.15208 4.03156 0
M  V30 12332 C 1157.58 3.12699 4.15349 0
M  V30 12333 C 1155.26 2.47106 4.37314 0
M  V30 12334 C 1157.26 4.40193 4.60987 0
M  V30 12335 C 1154.94 3.74834 4.82641 0
M  V30 12336 C 1155.94 4.7119 4.94438 0
M  V30 12337 O 1155.63 5.96644 5.38768 0
M  V30 12338 H 1155.36 0.223734 0.637902 0
M  V30 12339 H 1157.92 1.25663 1.62475 0
M  V30 12340 H 1156.15 0.0322039 3.86687 0
M  V30 12341 H 1157.84 0.414625 4.03777 0
M  V30 12342 H 1158.6 2.89378 3.89211 0
M  V30 12343 H 1154.48 1.72846 4.2737 0
M  V30 12344 H 1158.02 5.15406 4.70109 0
M  V30 12345 H 1153.92 3.9797 5.08222 0
M  V30 12346 H 1154.69 5.99741 5.57003 0
M  V30 12347 N 1157.35 -1.41121 0.701616 0
M  V30 12348 C 1158.29 -2.28198 -0.010533 0
M  V30 12349 C 1159.26 -1.42569 -0.78185 0
M  V30 12350 O 1160.45 -1.71993 -0.771408 0
M  V30 12351 C 1157.57 -3.22903 -1.02231 0
M  V30 12352 C 1156.62 -4.25115 -0.343454 0
M  V30 12353 S 1157.45 -5.27563 0.918553 0
M  V30 12354 C 1158.61 -6.25833 -0.0914763 0
M  V30 12355 H 1158.84 -2.88249 0.727995 0
M  V30 12356 H 1156.38 -1.46348 0.492112 0
M  V30 12357 H 1158.33 -3.77997 -1.60089 0
M  V30 12358 H 1156.99 -2.61936 -1.73345 0
M  V30 12359 H 1156.19 -4.91674 -1.10782 0
M  V30 12360 H 1155.79 -3.73648 0.162206 0
M  V30 12361 H 1158.08 -6.70908 -0.942826 0
M  V30 12362 H 1159.02 -7.06035 0.540351 0
M  V30 12363 H 1159.43 -5.62712 -0.448956 0
M  V30 12364 N 1158.83 -0.446794 -1.51134 0
M  V30 12365 C 1160.11 0.176892 -1.94798 0
M  V30 12366 C 1160.49 1.59229 -1.38598 0
M  V30 12367 O 1159.84 2.21097 -0.576905 0
M  V30 12368 C 1160.05 0.145 -3.48699 0
M  V30 12369 C 1161.39 0.345917 -4.23189 0
M  V30 12370 O 1162.42 0.222691 -3.55503 0
M  V30 12371 O 1161.28 0.592112 -5.43283 0
M  V30 12372 H 1158.37 0.12486 -0.81752 0
M  V30 12373 H 1160.92 -0.505453 -1.61998 0
M  V30 12374 H 1159.69 -0.844156 -3.82086 0
M  V30 12375 H 1159.31 0.869851 -3.87968 0
M  V30 12376 N 1160.31 1.56586 -0.178487 0
M  V30 12377 C 1161.54 2.01183 0.470002 0
M  V30 12378 C 1161.95 1.05781 1.56866 0
M  V30 12379 O 1161.29 0.0519678 1.83626 0
M  V30 12380 C 1161.35 3.42199 1.10183 0
M  V30 12381 C 1161.02 4.56773 0.143945 0
M  V30 12382 C 1162.01 5.1594 -0.64043 0
M  V30 12383 C 1159.7 5.02286 0.0376874 0
M  V30 12384 C 1161.69 6.19055 -1.51819 0
M  V30 12385 C 1159.38 6.05248 -0.843652 0
M  V30 12386 C 1160.38 6.63505 -1.62017 0
M  V30 12387 O 1160.06 7.6447 -2.48677 0
M  V30 12388 H 1159.8 0.664527 0.124018 0
M  V30 12389 H 1162.35 2.0349 -0.279495 0
M  V30 12390 H 1160.58 3.36827 1.89959 0
M  V30 12391 H 1162.27 3.70705 1.65326 0
M  V30 12392 H 1163.04 4.81656 -0.56855 0
M  V30 12393 H 1158.91 4.56649 0.631893 0
M  V30 12394 H 1162.46 6.64455 -2.12475 0
M  V30 12395 H 1158.36 6.38958 -0.916708 0
M  V30 12396 H 1159.12 7.81823 -2.42272 0
M  V30 12397 N 1161.79 -0.095206 1.57312 0
M  V30 12398 C 1163.06 -0.830388 1.77099 0
M  V30 12399 C 1163.44 -1.9694 0.760121 0
M  V30 12400 O 1162.79 -2.2752 -0.211403 0
M  V30 12401 C 1163 -1.32507 3.22867 0
M  V30 12402 C 1164.35 -1.7679 3.86045 0
M  V30 12403 O 1165.37 -1.42131 3.26615 0
M  V30 12404 O 1164.23 -2.40876 4.90552 0
M  V30 12405 H 1161.33 -0.396083 0.72598 0
M  V30 12406 H 1163.87 -0.0770965 1.69525 0
M  V30 12407 H 1162.64 -0.508992 3.87975 0
M  V30 12408 H 1162.27 -2.14037 3.35073 0
M  V30 12409 N 1163.26 -1.53291 -0.366026 0
M  V30 12410 C 1164.23 -1.79025 -1.43117 0
M  V30 12411 C 1165.23 -0.660676 -1.46601 0
M  V30 12412 O 1166.42 -0.928875 -1.47369 0
M  V30 12413 C 1163.55 -1.91192 -2.82238 0
M  V30 12414 H 1164.74 -2.74154 -1.21572 0
M  V30 12415 H 1162.3 -1.44361 -0.599132 0
M  V30 12416 H 1163.03 -0.98129 -3.09097 0
M  V30 12417 H 1162.82 -2.7335 -2.81109 0
M  V30 12418 H 1164.31 -2.12696 -3.59375 0
M  V30 12419 N 1164.74 0.6258 -1.44643 0
M  V30 12420 C 1165.99 1.38525 -1.47706 0
M  V30 12421 C 1166.32 1.94179 -0.111703 0
M  V30 12422 O 1165.57 1.74432 0.887237 0
M  V30 12423 C 1165.87 2.56466 -2.48917 0
M  V30 12424 C 1165.54 2.19069 -3.94106 0
M  V30 12425 C 1164.2 2.08583 -4.33643 0
M  V30 12426 C 1166.55 1.89608 -4.85488 0
M  V30 12427 C 1163.88 1.66831 -5.6248 0
M  V30 12428 C 1166.23 1.49347 -6.14718 0
M  V30 12429 C 1164.9 1.37406 -6.53204 0
M  V30 12430 H 1164.17 0.506899 -0.540494 0
M  V30 12431 H 1166.81 0.709128 -1.77887 0
M  V30 12432 H 1165.12 3.29335 -2.12239 0
M  V30 12433 H 1166.81 3.14695 -2.48532 0
M  V30 12434 H 1163.4 2.28151 -3.62829 0
M  V30 12435 H 1167.59 1.96616 -4.55693 0
M  V30 12436 H 1162.84 1.56195 -5.91112 0
M  V30 12437 H 1167.02 1.2559 -6.84982 0
M  V30 12438 H 1164.65 1.04826 -7.52938 0
M  V30 12439 N 1166.22 1.31629 0.866686 0
M  V30 12440 C 1167.15 1.22151 1.99001 0
M  V30 12441 C 1168.13 0.107972 1.69757 0
M  V30 12442 O 1169.32 0.293125 1.91975 0
M  V30 12443 C 1166.45 0.93144 3.34577 0
M  V30 12444 C 1165.4 2.0049 3.78137 0
M  V30 12445 C 1164.73 1.56747 5.11209 0
M  V30 12446 C 1166.03 3.41844 3.94892 0
M  V30 12447 H 1167.72 2.16132 2.0719 0
M  V30 12448 H 1165.27 1.04051 0.995463 0
M  V30 12449 H 1167.22 0.851719 4.12703 0
M  V30 12450 H 1165.94 -0.0440289 3.2657 0
M  V30 12451 H 1164.6 2.07457 3.02253 0
M  V30 12452 H 1164.25 0.579767 4.99648 0
M  V30 12453 H 1163.95 2.28562 5.41326 0
M  V30 12454 H 1165.47 1.50188 5.91841 0
M  V30 12455 H 1166.89 3.37534 4.63405 0
M  V30 12456 H 1165.29 4.11905 4.36411 0
M  V30 12457 H 1166.36 3.82389 2.98172 0
M  V30 12458 N 1167.7 -1.08142 1.14644 0
M  V30 12459 C 1168.95 -1.80225 0.914517 0
M  V30 12460 C 1169.27 -1.86778 -0.560269 0
M  V30 12461 O 1168.54 -1.36284 -1.40724 0
M  V30 12462 H 1167.12 -0.667492 0.335356 0
M  V30 12463 H 1169.78 -1.30729 1.44554 0
M  V30 12464 H 1168.88 -2.82958 1.31685 0
M  V30 12465 O 1169.22 -1.07262 -1.20736 0
M  V30 12466 H 1169.91 -0.758532 -1.7823 0
M  V30 END ATOM
M  V30 BEGIN BOND
M  V30 END BOND
M  V30 END CTAB
M  END
$$$$
