drugbank_target|O95665 Neurotensin receptor type 2 (DB01106)
 OpenBabel12092119323D

  0  0  0     0  0            999 V3000
M  V30 BEGIN CTAB
M  V30 COUNTS 6475 6563 0 0 0
M  V30 BEGIN ATOM
M  V30 1 H -0.908 1.98254 -0.117106 0
M  V30 2 N 0 1.576 0 0
M  V30 3 C 0.933 2.03868 1.02534 0
M  V30 4 C 1.911 0.928543 1.3348 0
M  V30 5 O 3.095 1.19667 1.45644 0
M  V30 6 C 0.222 2.43627 2.35294 0
M  V30 7 C -0.732 3.65373 2.2001 0
M  V30 8 S 0.101 5.13292 1.52614 0
M  V30 9 C 1.257 5.56322 2.86805 0
M  V30 10 H 1.49 2.90518 0.631377 0
M  V30 11 H -0.977 1.52953 0.210867 0
M  V30 12 H 0.981 2.67203 3.11629 0
M  V30 13 H -0.358 1.57376 2.7183 0
M  V30 14 H -1.165 3.90944 3.18086 0
M  V30 15 H -1.563 3.418 1.51819 0
M  V30 16 H 0.729 5.58782 3.83104 0
M  V30 17 H 1.672 6.56266 2.65933 0
M  V30 18 H 2.08 4.83886 2.90714 0
M  V30 19 N 1.4781 -0.272755 1.55222 0
M  V30 20 C 2.3881 -1.35918 1.91216 0
M  V30 21 C 3.4041 -1.54026 0.809436 0
M  V30 22 O 4.5801 -1.68148 1.10852 0
M  V30 23 C 1.6451 -2.69834 2.17693 0
M  V30 24 C 0.7061 -2.6047 3.41253 0
M  V30 25 C -0.0609 -3.88 3.66458 0
M  V30 26 O 0.1621 -4.88693 2.94169 0
M  V30 27 O -0.9039 -3.88189 4.59992 0
M  V30 28 H 2.9221 -1.0839 2.83699 0
M  V30 29 H 0.5071 -0.471301 1.41771 0
M  V30 30 H 2.3891 -3.49017 2.36147 0
M  V30 31 H 1.0641 -2.97148 1.28392 0
M  V30 32 H -0.0289 -1.79663 3.28134 0
M  V30 33 H 1.3041 -2.38106 4.30774 0
M  V30 34 N 2.9562 -1.48159 -0.537278 0
M  V30 35 C 4.1842 -1.59454 -1.31841 0
M  V30 36 C 4.5992 -0.252065 -1.8711 0
M  V30 37 O 3.9562 0.757621 -1.66031 0
M  V30 38 C 4.0072 -2.63546 -2.47439 0
M  V30 39 O 3.7282 -3.92583 -1.94449 0
M  V30 40 C 5.2292 -2.85212 -3.39366 0
M  V30 41 H 2.4492 -0.53785 -0.401196 0
M  V30 42 H 4.9932 -1.93932 -0.648891 0
M  V30 43 H 3.1482 -2.31946 -3.1029 0
M  V30 44 H 3.5622 -4.49629 -2.70063 0
M  V30 45 H 5.0362 -3.61863 -4.16844 0
M  V30 46 H 5.5132 -1.93765 -3.94147 0
M  V30 47 H 6.1192 -3.18086 -2.82314 0
M  V30 48 N 4.4343 0.785586 -1.36625 0
M  V30 49 C 5.6593 1.57963 -1.34397 0
M  V30 50 C 6.0843 1.87964 0.071526 0
M  V30 51 O 5.4423 1.48182 1.0446 0
M  V30 52 C 5.4903 2.87511 -2.17646 0
M  V30 53 O 4.5943 3.81281 -1.57158 0
M  V30 54 H 3.9353 0.479014 -0.459828 0
M  V30 55 H 6.4653 0.973411 -1.79961 0
M  V30 56 H 6.4753 3.36745 -2.30362 0
M  V30 57 H 5.1503 2.65002 -3.20541 0
M  V30 58 H 3.7273 3.39885 -1.53403 0
M  V30 59 N 5.9124 1.20967 1.01018 0
M  V30 60 C 7.1374 1.0503 1.78839 0
M  V30 61 C 7.5624 -0.395752 1.8389 0
M  V30 62 O 6.9204 -1.28529 1.27867 0
M  V30 63 C 6.9684 1.64602 3.2084 0
M  V30 64 O 6.0724 0.887988 4.02726 0
M  V30 65 H 5.4134 0.369987 0.551367 0
M  V30 66 H 7.9434 1.60399 1.27018 0
M  V30 67 H 7.9534 1.68607 3.71532 0
M  V30 68 H 6.6284 2.69841 3.16479 0
M  V30 69 H 5.2054 0.922648 3.61305 0
M  V30 70 N 7.3905 -1.2043 1.01659 0
M  V30 71 C 8.8015 -1.71517 0.737482 0
M  V30 72 C 9.1525 -1.81547 -0.743973 0
M  V30 73 O 8.2775 -1.47803 -1.58061 0
M  V30 74 C 8.8725 -3.11515 1.33206 0
M  V30 75 C 7.4315 -3.59912 1.10183 0
M  V30 76 C 6.5785 -2.37116 1.43776 0
M  V30 77 H 9.5295 -1.05444 1.18606 0
M  V30 78 H 9.5505 -3.73575 0.722636 0
M  V30 79 H 9.0625 -3.04182 2.41028 0
M  V30 80 H 7.1635 -3.72577 0.0412756 0
M  V30 81 H 7.2765 -4.44731 1.78188 0
M  V30 82 H 5.6405 -2.39857 0.856778 0
M  V30 83 H 6.4235 -2.32424 2.52654 0
M  V30 84 N 8.8686 -0.792821 -1.36206 0
M  V30 85 C 10.2846 -0.474903 -1.52371 0
M  V30 86 C 10.4846 1.00622 -1.74578 0
M  V30 87 O 9.5406 1.79162 -1.77924 0
M  V30 88 C 10.8536 -1.3083 -2.70747 0
M  V30 89 C 12.4016 -1.30234 -2.84619 0
M  V30 90 C 12.8766 -2.11956 -4.06004 0
M  V30 91 N 14.3676 -2.09419 -4.13156 0
M  V30 92 C 15.1026 -2.69419 -5.06163 0
M  V30 93 N 14.5986 -3.3829 -6.04592 0
M  V30 94 N 16.3916 -2.59134 -4.98804 0
M  V30 95 H 8.5426 -1.75222 -1.20046 0
M  V30 96 H 10.8056 -0.745024 -0.586211 0
M  V30 97 H 10.5116 -2.35881 -2.6087 0
M  V30 98 H 10.3856 -0.95196 -3.6499 0
M  V30 99 H 12.7726 -0.259748 -2.93955 0
M  V30 100 H 12.8536 -1.69847 -1.91274 0
M  V30 101 H 12.4976 -3.16248 -3.97429 0
M  V30 102 H 12.4276 -1.69711 -4.98503 0
M  V30 103 H 14.9186 -1.59297 -3.42685 0
M  V30 104 H 15.2316 -3.81394 -6.7213 0
M  V30 105 H 13.5766 -3.42393 -6.04807 0
M  V30 106 H 16.7676 -2.04927 -4.20859 0
M  V30 107 H 16.9406 -3.06185 -5.711 0
M  V30 108 N 10.3467 1.47872 -0.545128 0
M  V30 109 C 11.7577 1.86384 -0.108581 0
M  V30 110 C 12.1087 1.45309 1.31832 0
M  V30 111 O 11.2337 0.850641 1.9898 0
M  V30 112 C 11.8287 3.38265 -0.190274 0
M  V30 113 C 10.3877 3.75914 0.191164 0
M  V30 114 C 9.5347 2.71926 -0.543273 0
M  V30 115 H 12.4857 1.39561 -0.755537 0
M  V30 116 H 12.5067 3.75831 0.594217 0
M  V30 117 H 12.0187 3.6813 -1.2289 0
M  V30 118 H 10.1197 3.51665 1.23136 0
M  V30 119 H 10.2327 4.78836 -0.158987 0
M  V30 120 H 8.5967 2.54697 0.0122495 0
M  V30 121 H 9.3797 3.04634 -1.58282 0
M  V30 122 N 11.8248 0.280983 1.55075 0
M  V30 123 C 13.2358 -0.215629 1.85451 0
M  V30 124 C 13.5868 -1.54991 1.203 0
M  V30 125 O 12.7118 -2.10699 0.493435 0
M  V30 126 C 13.3068 -0.398026 3.36454 0
M  V30 127 C 11.8658 -0.838866 3.66933 0
M  V30 128 C 11.0128 0.064458 2.77225 0
M  V30 129 H 13.9638 0.502601 1.50531 0
M  V30 130 H 13.9848 -1.23569 3.59876 0
M  V30 131 H 13.4968 0.573241 3.83843 0
M  V30 132 H 11.5978 -1.8214 3.25048 0
M  V30 133 H 11.7108 -0.672123 4.74362 0
M  V30 134 H 10.0748 -0.452863 2.50642 0
M  V30 135 H 10.8578 1.03172 3.2743 0
M  V30 136 N 13.3029 -1.57598 0.00835791 0
M  V30 137 C 14.7189 -1.55764 -0.347822 0
M  V30 138 C 14.9189 -1.01186 -1.74252 0
M  V30 139 O 13.9749 -0.649371 -2.44007 0
M  V30 140 C 15.2879 -2.99927 -0.215407 0
M  V30 141 C 16.8359 -3.11656 -0.289725 0
M  V30 142 C 17.3109 -4.57621 -0.18634 0
M  V30 143 N 18.8019 -4.62557 -0.243978 0
M  V30 144 C 19.5369 -5.73094 -0.18745 0
M  V30 145 N 19.0329 -6.92753 -0.0810331 0
M  V30 146 N 20.8259 -5.61588 -0.239925 0
M  V30 147 H 12.9769 -1.91411 0.92062 0
M  V30 148 H 15.2399 -0.879562 0.353659 0
M  V30 149 H 14.9459 -3.43729 0.744512 0
M  V30 150 H 14.8199 -3.63865 -0.994097 0
M  V30 151 H 17.2069 -2.67779 -1.24009 0
M  V30 152 H 17.2879 -2.5048 0.51898 0
M  V30 153 H 16.9319 -5.02174 0.760519 0
M  V30 154 H 16.8619 -5.16752 -1.01364 0
M  V30 155 H 19.3529 -3.76481 -0.327217 0
M  V30 156 H 19.6659 -7.72787 -0.0440241 0
M  V30 157 H 18.0109 -6.94984 -0.0465419 0
M  V30 158 H 21.2019 -4.66996 -0.321317 0
M  V30 159 H 21.3749 -6.47714 -0.192407 0
M  V30 160 N 14.781 0.264519 -1.55364 0
M  V30 161 C 16.192 0.834936 -1.6699 0
M  V30 162 C 16.543 1.86718 -0.602552 0
M  V30 163 O 15.668 2.14899 0.254425 0
M  V30 164 C 16.263 1.5212 -3.02729 0
M  V30 165 C 14.822 2.03954 -3.16354 0
M  V30 166 C 13.969 0.884498 -2.62815 0
M  V30 167 H 16.92 0.0406869 -1.58648 0
M  V30 168 H 16.941 2.38853 -2.96191 0
M  V30 169 H 16.453 0.769668 -3.80392 0
M  V30 170 H 14.554 2.82041 -2.43482 0
M  V30 171 H 14.667 2.24902 -4.23032 0
M  V30 172 H 13.031 1.2802 -2.20188 0
M  V30 173 H 13.814 0.14634 -3.42988 0
M  V30 174 N 16.2591 1.48442 0.529413 0
M  V30 175 C 17.4841 1.60406 1.31471 0
M  V30 176 C 17.9091 0.264738 1.86228 0
M  V30 177 O 17.2671 -0.763668 1.64432 0
M  V30 178 C 17.3151 2.65419 2.44101 0
M  V30 179 O 16.4191 2.22618 3.47153 0
M  V30 180 H 15.7601 0.537863 0.389357 0
M  V30 181 H 18.2901 1.94432 0.636965 0
M  V30 182 H 18.3001 2.86709 2.90279 0
M  V30 183 H 16.9751 3.62652 2.03608 0
M  V30 184 H 15.5521 2.11543 3.0709 0
M  V30 185 N 17.7372 -0.778329 1.37039 0
M  V30 186 C 18.9622 -1.57248 1.35233 0
M  V30 187 C 19.3872 -1.87999 -0.0615568 0
M  V30 188 O 18.7452 -1.48734 -1.03672 0
M  V30 189 C 18.7932 -2.86353 2.19167 0
M  V30 190 O 17.8972 -3.80442 1.59178 0
M  V30 191 H 17.2382 -0.476569 0.462362 0
M  V30 192 H 19.7682 -0.963853 1.80474 0
M  V30 193 H 19.7782 -3.35519 2.32145 0
M  V30 194 H 18.4532 -2.63299 3.21942 0
M  V30 195 H 17.0302 -3.39067 1.55203 0
M  V30 196 N 19.2153 -1.21501 -1.00376 0
M  V30 197 C 20.1633 -0.972442 -2.11297 0
M  V30 198 C 21.1573 0.080731 -1.69208 0
M  V30 199 O 22.3633 -0.0707666 -1.79861 0
M  V30 200 H 18.7383 -0.297218 -0.690772 0
M  V30 201 H 20.7093 -1.91394 -2.28934 0
M  V30 202 C 19.4583 -0.555065 -3.43241 0
M  V30 203 H 18.7813 -1.35709 -3.76062 0
M  V30 204 H 20.2213 -0.424664 -4.21868 0
M  V30 205 C 18.6803 0.734147 -3.28804 0
M  V30 206 O 19.2103 1.78937 -3.59645 0
M  V30 207 N 17.4163 0.701133 -2.82015 0
M  V30 208 H 16.9633 -0.157874 -2.57116 0
M  V30 209 H 16.9213 1.56403 -2.72737 0
M  V30 210 N 20.6934 1.19889 -1.02296 0
M  V30 211 C 22.1044 1.71124 -0.746568 0
M  V30 212 C 22.4554 1.81939 0.734335 0
M  V30 213 O 21.5804 1.48639 1.57275 0
M  V30 214 C 22.1754 3.10804 -1.34857 0
M  V30 215 C 20.7344 3.59323 -1.1209 0
M  V30 216 C 19.8814 2.3635 -1.45031 0
M  V30 217 H 22.8324 1.04813 -1.19163 0
M  V30 218 H 22.8534 3.73186 -0.742437 0
M  V30 219 H 22.3654 3.029 -2.42638 0
M  V30 220 H 20.4664 3.7255 -0.0610337 0
M  V30 221 H 20.5794 4.4378 -1.80544 0
M  V30 222 H 18.9434 2.39399 -0.869487 0
M  V30 223 H 19.7264 2.31081 -2.53883 0
M  V30 224 N 22.1715 0.800033 1.35784 0
M  V30 225 C 23.4195 0.376597 1.9856 0
M  V30 226 C 23.7405 -1.05812 1.63795 0
M  V30 227 O 23.0105 -1.73103 0.917171 0
M  V30 228 H 21.5905 0.136261 0.734467 0
M  V30 229 H 24.2525 1.02442 1.65806 0
M  V30 230 H 23.3485 0.477002 3.08433 0
M  V30 231 N 23.6496 -1.47581 0.552962 0
M  V30 232 C 24.5796 -2.32762 -0.185451 0
M  V30 233 C 25.5606 -1.43527 -0.912905 0
M  V30 234 O 26.7456 -1.72388 -0.894201 0
M  V30 235 C 23.8756 -3.25219 -1.21859 0
M  V30 236 C 22.8296 -4.23661 -0.607864 0
M  V30 237 C 22.1556 -5.05413 -1.74533 0
M  V30 238 C 23.4556 -5.20481 0.435582 0
M  V30 239 H 25.1496 -2.94749 0.525684 0
M  V30 240 H 22.6956 -1.41738 0.254251 0
M  V30 241 H 24.6486 -3.8365 -1.7433 0
M  V30 242 H 23.3726 -2.61279 -1.95961 0
M  V30 243 H 22.0316 -3.66451 -0.104489 0
M  V30 244 H 21.6796 -4.3788 -2.47529 0
M  V30 245 H 21.3796 -5.72059 -1.34249 0
M  V30 246 H 22.9036 -5.66701 -2.27338 0
M  V30 247 H 24.3176 -5.733 -0.00290157 0
M  V30 248 H 22.7146 -5.95305 0.757067 0
M  V30 249 H 23.7846 -4.66217 1.33303 0
M  V30 250 N 25.1277 -0.289203 -1.54924 0
M  V30 251 C 26.3527 0.329299 -2.04769 0
M  V30 252 C 26.7777 1.4763 -1.16564 0
M  V30 253 O 26.1357 1.80527 -0.167186 0
M  V30 254 C 26.1837 0.774438 -3.52186 0
M  V30 255 O 25.2877 1.88038 -3.67036 0
M  V30 256 H 24.6287 0.0659259 -0.660719 0
M  V30 257 H 27.1587 -0.42761 -2.00082 0
M  V30 258 H 27.1687 1.06642 -3.93816 0
M  V30 259 H 25.8437 -0.0646707 -4.1585 0
M  V30 260 H 24.4207 1.58985 -3.3731 0
M  V30 261 N 26.6058 1.57591 -0.0167156 0
M  V30 262 C 27.5358 2.12496 0.967858 0
M  V30 263 C 28.5168 1.03807 1.34752 0
M  V30 264 O 29.7018 1.31577 1.42833 0
M  V30 265 C 26.8318 2.64194 2.25431 0
M  V30 266 C 25.7858 3.77559 2.01576 0
M  V30 267 C 25.1118 4.15636 3.36379 0
M  V30 268 C 26.4118 5.04151 1.36489 0
M  V30 269 H 28.1058 2.95013 0.510643 0
M  V30 270 H 25.6518 1.41915 0.244181 0
M  V30 271 H 27.6048 3.01236 2.94678 0
M  V30 272 H 26.3288 1.78821 2.73296 0
M  V30 273 H 24.9878 3.40937 1.34751 0
M  V30 274 H 24.6358 3.27263 3.81979 0
M  V30 275 H 24.3358 4.92022 3.21229 0
M  V30 276 H 25.8598 4.5525 4.06915 0
M  V30 277 H 27.2738 5.38857 1.95718 0
M  V30 278 H 25.6708 5.85453 1.31776 0
M  V30 279 H 26.7408 4.83733 0.336219 0
M  V30 280 N 28.0839 -0.256276 1.55502 0
M  V30 281 C 29.3609 -1.00789 1.67633 0
M  V30 282 C 29.7409 -2.03706 0.553826 0
M  V30 283 O 29.0889 -2.24145 -0.443969 0
M  V30 284 C 29.2989 -1.64968 3.07549 0
M  V30 285 C 30.6469 -2.15505 3.65845 0
M  V30 286 O 31.6709 -1.74925 3.1029 0
M  V30 287 O 30.5299 -2.89986 4.63217 0
M  V30 288 H 27.6239 -0.468553 0.681459 0
M  V30 289 H 30.1699 -0.250806 1.67836 0
M  V30 290 H 28.9419 -0.904785 3.80696 0
M  V30 291 H 28.5649 -2.47321 3.11317 0
M  V30 292 N 29.562 -1.4872 -0.521534 0
M  V30 293 C 30.525 -1.63379 -1.60748 0
M  V30 294 C 31.525 -0.50661 -1.52611 0
M  V30 295 O 32.715 -0.772601 -1.5613 0
M  V30 296 C 29.847 -1.61192 -3.00383 0
M  V30 297 H 31.04 -2.60217 -1.49087 0
M  V30 298 H 28.593 -1.37444 -0.744235 0
M  V30 299 H 29.328 -0.65863 -3.17541 0
M  V30 300 H 29.113 -2.43032 -3.07698 0
M  V30 301 H 30.603 -1.7466 -3.7932 0
M  V30 302 N 31.0401 0.771051 -1.3745 0
M  V30 303 C 32.4561 1.07171 -1.18265 0
M  V30 304 C 32.6561 2.01491 -0.019287 0
M  V30 305 O 31.7121 2.44244 0.640408 0
M  V30 306 C 33.0251 1.66854 -2.50161 0
M  V30 307 C 34.5731 1.79109 -2.56689 0
M  V30 308 C 35.0481 2.42205 -3.88717 0
M  V30 309 N 36.5391 2.49655 -3.90162 0
M  V30 310 C 37.2741 2.9933 -4.8907 0
M  V30 311 N 36.7701 3.49172 -5.98374 0
M  V30 312 N 38.5631 2.9821 -4.76474 0
M  V30 313 H 30.7141 0.144796 -2.11906 0
M  V30 314 H 32.9771 0.126863 -0.939473 0
M  V30 315 H 32.6831 1.05017 -3.35655 0
M  V30 316 H 32.5571 2.6614 -2.673 0
M  V30 317 H 34.9441 2.40077 -1.71601 0
M  V30 318 H 35.0251 0.785757 -2.43433 0
M  V30 319 H 34.6691 1.81875 -4.74219 0
M  V30 320 H 34.5991 3.43345 -3.99276 0
M  V30 321 H 37.0901 2.14383 -3.11205 0
M  V30 322 H 37.4031 3.8548 -6.69795 0
M  V30 323 H 35.7481 3.47275 -6.02018 0
M  V30 324 H 38.9391 2.58572 -3.90203 0
M  V30 325 H 39.1121 3.36613 -5.53711 0
M  V30 326 N 32.5182 1.22032 0.997298 0
M  V30 327 C 33.4482 1.01065 2.10495 0
M  V30 328 C 34.4292 -0.0669542 1.69968 0
M  V30 329 O 35.6142 0.0943987 1.9397 0
M  V30 330 C 32.7442 0.582874 3.42374 0
M  V30 331 C 31.6982 1.60592 3.96729 0
M  V30 332 C 31.0242 1.03412 5.24605 0
M  V30 333 C 32.3242 2.99478 4.27914 0
M  V30 334 H 34.0182 1.93708 2.28292 0
M  V30 335 H 31.5642 0.932761 1.09707 0
M  V30 336 H 33.5172 0.423332 4.19268 0
M  V30 337 H 32.2412 -0.379213 3.24391 0
M  V30 338 H 30.9002 1.75316 3.21963 0
M  V30 339 H 30.5482 0.063518 5.0296 0
M  V30 340 H 30.2482 1.71754 5.61938 0
M  V30 341 H 31.7722 0.886066 6.04137 0
M  V30 342 H 33.1862 2.88153 4.95622 0
M  V30 343 H 31.5832 3.64903 4.76409 0
M  V30 344 H 32.6532 3.49742 3.3587 0
M  V30 345 N 33.9963 -1.19345 1.0293 0
M  V30 346 C 35.2443 -1.88665 0.724574 0
M  V30 347 C 35.5653 -1.80036 -0.749144 0
M  V30 348 O 34.8353 -1.2111 -1.53978 0
M  V30 349 H 33.4153 -0.698406 0.265025 0
M  V30 350 H 36.0773 -1.44885 1.30362 0
M  V30 351 H 35.1733 -2.94987 1.01926 0
M  V30 352 N 35.4744 -0.807222 -1.35358 0
M  V30 353 C 36.7204 -0.388463 -1.99045 0
M  V30 354 C 37.0534 1.04184 -1.63888 0
M  V30 355 O 36.3284 1.72292 -0.902535 0
M  V30 356 C 36.6114 -0.572783 -3.55515 0
M  V30 357 C 36.4644 -2.04807 -4.00468 0
M  V30 358 C 37.7834 0.00114064 -4.401 0
M  V30 359 H 34.9024 -0.142619 -0.723069 0
M  V30 360 H 37.5444 -1.01687 -1.60498 0
M  V30 361 H 35.6944 -0.0378425 -3.88482 0
M  V30 362 H 37.3664 -2.64544 -3.77908 0
M  V30 363 H 35.6094 -2.54427 -3.51353 0
M  V30 364 H 36.2804 -2.12792 -5.09337 0
M  V30 365 H 38.7564 -0.455716 -4.13597 0
M  V30 366 H 37.6324 -0.157737 -5.48673 0
M  V30 367 H 37.8934 1.09488 -4.28328 0
M  V30 368 N 36.9525 1.47285 -0.560781 0
M  V30 369 C 38.2295 1.9558 0.0277798 0
M  V30 370 C 38.6095 1.5034 1.48192 0
M  V30 371 O 37.9575 0.743882 2.16052 0
M  V30 372 C 38.1675 3.48789 -0.121418 0
M  V30 373 C 39.5155 4.24594 0.0220912 0
M  V30 374 O 40.5395 3.56166 -0.0491439 0
M  V30 375 O 39.3985 5.46217 0.175958 0
M  V30 376 H 36.4925 0.824663 0.0621342 0
M  V30 377 H 39.0385 1.5767 -0.627556 0
M  V30 378 H 37.8105 3.74533 -1.13316 0
M  V30 379 H 37.4335 3.93473 0.571366 0
M  V30 380 N 38.4306 0.297415 1.54768 0
M  V30 381 C 39.6586 -0.315623 2.04478 0
M  V30 382 C 40.0736 -1.47792 1.17486 0
M  V30 383 O 39.4306 -1.81404 0.19971 0
M  V30 384 C 39.4816 -0.7753 3.53088 0
M  V30 385 O 39.2026 0.340732 4.36773 0
M  V30 386 C 40.7036 -1.45386 4.18781 0
M  V30 387 H 37.9236 -0.0690887 0.667434 0
M  V30 388 H 40.4676 0.436003 1.99798 0
M  V30 389 H 38.6226 -1.47696 3.58141 0
M  V30 390 H 39.0366 -0.0165035 5.24497 0
M  V30 391 H 40.5106 -1.72669 5.24299 0
M  V30 392 H 40.9876 -2.39275 3.68299 0
M  V30 393 H 41.5936 -0.795475 4.17795 0
M  V30 394 N 39.9087 -1.5758 0.0250728 0
M  V30 395 C 41.3247 -1.56124 -0.331282 0
M  V30 396 C 41.5247 -1.03029 -1.73169 0
M  V30 397 O 40.5807 -0.675215 -2.43305 0
M  V30 398 C 41.8937 -3.00139 -0.183584 0
M  V30 399 C 43.4417 -3.11946 -0.256654 0
M  V30 400 C 43.9167 -4.57793 -0.137792 0
M  V30 401 N 45.4077 -4.6279 -0.194904 0
M  V30 402 C 46.1427 -5.7326 -0.126655 0
M  V30 403 N 45.6387 -6.928 -0.00755288 0
M  V30 404 N 47.4317 -5.61811 -0.180348 0
M  V30 405 H 39.5827 -1.90424 0.94087 0
M  V30 406 H 41.8457 -0.875761 0.362968 0
M  V30 407 H 41.5517 -3.4292 0.780927 0
M  V30 408 H 41.4257 -3.64899 -0.955448 0
M  V30 409 H 43.8127 -2.69079 -1.21162 0
M  V30 410 H 43.8937 -2.49915 0.545517 0
M  V30 411 H 43.5377 -5.01339 0.813739 0
M  V30 412 H 43.4677 -5.17798 -0.958775 0
M  V30 413 H 45.9587 -3.76807 -0.287267 0
M  V30 414 H 46.2717 -7.72791 0.0379428 0
M  V30 415 H 44.6167 -6.94995 0.0271731 0
M  V30 416 H 47.8077 -4.6731 -0.271767 0
M  V30 417 H 47.9807 -6.47882 -0.123697 0
M  V30 418 N 41.3868 0.248026 -1.55636 0
M  V30 419 C 42.3168 1.31079 -1.93237 0
M  V30 420 C 43.2978 1.50264 -0.797174 0
M  V30 421 O 44.4828 1.62891 -1.05737 0
M  V30 422 C 41.6128 2.66575 -2.22609 0
M  V30 423 C 40.5668 2.62087 -3.3837 0
M  V30 424 C 39.8928 4.01369 -3.53281 0
M  V30 425 C 41.1928 2.19171 -4.7409 0
M  V30 426 H 42.8868 0.998556 -2.82257 0
M  V30 427 H 40.4328 0.47891 -1.35803 0
M  V30 428 H 42.3858 3.41057 -2.47503 0
M  V30 429 H 41.1098 2.99432 -1.30414 0
M  V30 430 H 39.7688 1.90063 -3.13483 0
M  V30 431 H 39.4168 4.31489 -2.58508 0
M  V30 432 H 39.1168 3.99254 -4.31127 0
M  V30 433 H 40.6408 4.77552 -3.80495 0
M  V30 434 H 42.0548 2.83384 -4.98363 0
M  V30 435 H 40.4518 2.2817 -5.5503 0
M  V30 436 H 41.5218 1.14336 -4.71227 0
M  V30 437 N 42.8649 1.48995 0.513639 0
M  V30 438 C 44.1109 1.59053 1.26783 0
M  V30 439 C 44.4659 0.268136 1.90522 0
M  V30 440 O 43.7589 -0.730534 1.77126 0
M  V30 441 C 43.9529 2.67756 2.36731 0
M  V30 442 C 43.7819 4.10437 1.83771 0
M  V30 443 C 42.5519 4.7738 1.65639 0
M  V30 444 C 44.7499 4.9608 1.35681 0
M  V30 445 N 42.7319 6.04419 1.07476 0
M  V30 446 C 44.1029 6.13496 0.895715 0
M  V30 447 C 46.1579 4.82177 1.24136 0
M  V30 448 C 44.8609 7.1854 0.3306 0
M  V30 449 C 46.8869 5.87358 0.690229 0
M  V30 450 C 46.2489 7.03993 0.239292 0
M  V30 451 H 42.3479 0.636463 0.454355 0
M  V30 452 H 44.9319 1.85948 0.577196 0
M  V30 453 H 43.1029 2.42655 3.03271 0
M  V30 454 H 44.8349 2.67406 3.0377 0
M  V30 455 H 41.5899 4.33974 1.8964 0
M  V30 456 H 42.0139 6.72214 0.803579 0
M  V30 457 H 46.6559 3.92329 1.57601 0
M  V30 458 H 44.3739 8.08098 -0.0163435 0
M  V30 459 H 47.9599 5.78658 0.603852 0
M  V30 460 H 46.8399 7.83992 -0.180526 0
M  V30 461 N 44.343 -0.763751 1.37857 0
M  V30 462 C 45.306 -1.85889 1.34081 0
M  V30 463 C 46.306 -1.58949 0.243277 0
M  V30 464 O 47.496 -1.66882 0.499589 0
M  V30 465 C 44.628 -3.23176 1.08489 0
M  V30 466 H 45.821 -1.90648 2.31502 0
M  V30 467 H 43.374 -0.964367 1.23003 0
M  V30 468 H 44.109 -3.24091 0.116318 0
M  V30 469 H 43.894 -3.44124 1.8794 0
M  V30 470 H 45.384 -4.03254 1.08517 0
M  V30 471 N 45.8211 -1.22559 -0.990812 0
M  V30 472 C 46.7681 -0.997519 -2.0813 0
M  V30 473 C 47.7381 0.0814702 -1.659 0
M  V30 474 O 48.9231 -0.0685424 -1.90677 0
M  V30 475 C 46.0631 -0.583615 -3.40129 0
M  V30 476 C 45.1761 -1.7336 -3.9569 0
M  V30 477 C 44.3111 -1.26748 -5.15857 0
M  V30 478 C 43.3501 -2.38888 -5.63559 0
M  V30 479 N 42.4871 -1.93308 -6.74964 0
M  V30 480 H 47.3271 -1.93099 -2.26973 0
M  V30 481 H 44.8641 -0.962114 -1.11273 0
M  V30 482 H 46.8221 -0.324801 -4.15934 0
M  V30 483 H 45.4521 0.312845 -3.2128 0
M  V30 484 H 44.5041 -2.10669 -3.16738 0
M  V30 485 H 45.8161 -2.57704 -4.27071 0
M  V30 486 H 44.9701 -0.966173 -5.98957 0
M  V30 487 H 43.7091 -0.394272 -4.86104 0
M  V30 488 H 42.7141 -2.69805 -4.79046 0
M  V30 489 H 43.9391 -3.26728 -5.95336 0
M  V30 490 H 41.8851 -1.08352 -6.4699 0
M  V30 491 H 41.8021 -2.71217 -7.05675 0
M  V30 492 H 43.0701 -1.66252 -7.61564 0
M  V30 493 N 47.2992 1.18797 -1.03562 0
M  V30 494 C 48.5452 1.8893 -0.737113 0
M  V30 495 C 48.8782 1.79837 0.732956 0
M  V30 496 O 48.1532 1.19525 1.5344 0
M  V30 497 C 48.4362 3.39607 -1.19745 0
M  V30 498 C 48.2892 3.57537 -2.72924 0
M  V30 499 C 49.6082 4.33069 -0.783526 0
M  V30 500 H 46.7272 0.686057 -0.269249 0
M  V30 501 H 49.3692 1.39797 -1.28673 0
M  V30 502 H 47.5192 3.81583 -0.729855 0
M  V30 503 H 49.1912 3.24688 -3.27682 0
M  V30 504 H 47.4342 3.00363 -3.12993 0
M  V30 505 H 48.1052 4.63238 -3.00191 0
M  V30 506 H 50.5812 3.98846 -1.18581 0
M  V30 507 H 49.4572 5.3707 -1.13343 0
M  V30 508 H 49.7182 4.40986 0.313681 0
M  V30 509 N 48.7773 0.814389 1.34928 0
M  V30 510 C 49.7073 0.244827 2.32213 0
M  V30 511 C 50.6883 -0.634024 1.57842 0
M  V30 512 O 51.8733 -0.562676 1.8587 0
M  V30 513 C 49.0033 -0.601106 3.42058 0
M  V30 514 C 47.9573 0.179896 4.27622 0
M  V30 515 C 47.2833 -0.788237 5.28858 0
M  V30 516 C 48.5833 1.38329 5.03649 0
M  V30 517 H 50.2773 1.05763 2.80097 0
M  V30 518 H 47.8233 0.510029 1.34665 0
M  V30 519 H 49.7763 -1.00968 4.09125 0
M  V30 520 H 48.5003 -1.44688 2.92802 0
M  V30 521 H 47.1593 0.569739 3.62146 0
M  V30 522 H 46.8073 -1.62973 4.75866 0
M  V30 523 H 46.5073 -0.269942 5.8698 0
M  V30 524 H 48.0313 -1.19485 5.98795 0
M  V30 525 H 49.4453 1.04918 5.63618 0
M  V30 526 H 47.8423 1.83662 5.71304 0
M  V30 527 H 48.9123 2.16592 4.33839 0
M  V30 528 N 50.2554 -1.46986 0.568584 0
M  V30 529 C 51.5024 -2.02441 0.0487986 0
M  V30 530 C 51.8304 -1.44169 -1.30559 0
M  V30 531 O 51.0854 -0.591213 -1.86556 0
M  V30 532 C 51.3844 -3.57306 -0.081836 0
M  V30 533 C 51.0504 -4.34552 1.20313 0
M  V30 534 C 49.7124 -4.55376 1.5552 0
M  V30 535 C 52.0644 -4.79016 2.05411 0
M  V30 536 C 49.3924 -5.17913 2.7565 0
M  V30 537 C 51.7444 -5.42879 3.24754 0
M  V30 538 C 50.4084 -5.61933 3.60261 0
M  V30 539 H 49.6784 -0.740785 0.0178567 0
M  V30 540 H 52.3254 -1.76525 0.742384 0
M  V30 541 H 50.6304 -3.8228 -0.858463 0
M  V30 542 H 52.3274 -3.97876 -0.499546 0
M  V30 543 H 48.9174 -4.18631 0.919014 0
M  V30 544 H 53.1014 -4.62696 1.79516 0
M  V30 545 H 48.3574 -5.30858 3.03315 0
M  V30 546 H 52.5314 -5.76293 3.90973 0
M  V30 547 H 50.1584 -6.10161 4.53439 0
M  V30 548 N 51.7335 -0.305618 -1.54608 0
M  V30 549 C 52.9615 0.304775 -2.04643 0
M  V30 550 C 53.3765 1.47167 -1.18268 0
M  V30 551 O 52.7335 1.81296 -0.209328 0
M  V30 552 C 52.7845 0.756564 -3.53495 0
M  V30 553 O 52.5055 -0.36389 -4.36586 0
M  V30 554 C 54.0065 1.43163 -4.19546 0
M  V30 555 H 51.2265 0.0655481 -0.667791 0
M  V30 556 H 53.7705 -0.446592 -1.99564 0
M  V30 557 H 51.9255 1.45794 -3.58919 0
M  V30 558 H 52.3395 -0.0113121 -5.24499 0
M  V30 559 H 53.8135 1.69886 -5.25207 0
M  V30 560 H 54.2905 2.37318 -3.69563 0
M  V30 561 H 54.8965 0.773307 -4.18211 0
M  V30 562 N 53.2116 1.57565 -0.0334293 0
M  V30 563 C 54.1746 2.09393 0.932048 0
M  V30 564 C 55.1746 1.00986 1.25134 0
M  V30 565 O 56.3646 1.27129 1.19096 0
M  V30 566 C 53.4966 2.56338 2.2473 0
M  V30 567 H 54.6896 2.95984 0.483085 0
M  V30 568 H 52.2426 1.54819 0.21468 0
M  V30 569 H 52.9776 1.7309 2.74245 0
M  V30 570 H 52.7626 3.35542 2.02865 0
M  V30 571 H 54.2526 2.96646 2.93923 0
M  V30 572 N 54.6897 -0.239769 1.55765 0
M  V30 573 C 55.6197 -1.30052 1.9393 0
M  V30 574 C 56.6007 -1.49839 0.805132 0
M  V30 575 O 57.7857 -1.62328 1.06599 0
M  V30 576 C 54.9157 -2.65391 2.2402 0
M  V30 577 C 53.8697 -2.60289 3.39755 0
M  V30 578 C 53.1957 -3.99489 3.55405 0
M  V30 579 C 54.4957 -2.16654 4.75246 0
M  V30 580 H 56.1897 -0.983573 2.82783 0
M  V30 581 H 53.7357 -0.471701 1.36055 0
M  V30 582 H 55.6887 -3.3974 2.49308 0
M  V30 583 H 54.4127 -2.98736 1.32 0
M  V30 584 H 53.0717 -1.88398 3.14487 0
M  V30 585 H 52.7197 -4.30112 2.60793 0
M  V30 586 H 52.4197 -3.96962 4.33238 0
M  V30 587 H 53.9437 -4.75528 3.83022 0
M  V30 588 H 55.3577 -2.80737 4.99859 0
M  V30 589 H 53.7547 -2.25223 5.56232 0
M  V30 590 H 54.8247 -1.11835 4.71827 0
M  V30 591 N 56.1678 -1.49265 -0.50573 0
M  V30 592 C 57.3978 -1.61979 -1.28243 0
M  V30 593 C 57.8058 -0.288576 -1.86986 0
M  V30 594 O 57.1488 0.735408 -1.68337 0
M  V30 595 C 57.2108 -2.62632 -2.45489 0
M  V30 596 C 56.8748 -4.071 -2.07651 0
M  V30 597 C 57.8718 -4.94049 -1.61901 0
M  V30 598 C 55.5568 -4.52801 -2.17431 0
M  V30 599 C 57.5508 -6.24736 -1.26428 0
M  V30 600 C 55.2378 -5.83503 -1.8157 0
M  V30 601 C 56.2358 -6.69294 -1.36142 0
M  V30 602 O 55.9238 -7.9756 -1.00764 0
M  V30 603 H 55.6558 -0.54834 -0.395347 0
M  V30 604 H 58.2098 -1.96002 -0.614204 0
M  V30 605 H 56.4398 -2.2378 -3.15372 0
M  V30 606 H 58.1288 -2.64925 -3.07522 0
M  V30 607 H 58.8948 -4.5997 -1.53795 0
M  V30 608 H 54.7738 -3.86196 -2.51742 0
M  V30 609 H 58.3178 -6.91652 -0.908992 0
M  V30 610 H 54.2148 -6.17112 -1.89324 0
M  V30 611 H 54.9828 -8.10529 -1.13952 0
M  V30 612 N 57.6459 0.756429 -1.3826 0
M  V30 613 C 58.6089 1.85176 -1.35065 0
M  V30 614 C 59.6089 1.58818 -0.251703 0
M  V30 615 O 60.7989 1.66615 -0.508433 0
M  V30 616 C 57.9309 3.22596 -1.10201 0
M  V30 617 H 59.1239 1.89417 -2.3251 0
M  V30 618 H 56.6769 0.95783 -1.23512 0
M  V30 619 H 57.4119 3.24025 -0.133504 0
M  V30 620 H 57.1969 3.43122 -1.89762 0
M  V30 621 H 58.6869 4.02673 -1.10654 0
M  V30 622 N 59.124 1.23083 0.984299 0
M  V30 623 C 60.054 1.03292 2.09411 0
M  V30 624 C 61.035 -0.048923 1.7003 0
M  V30 625 O 62.22 0.114967 1.93859 0
M  V30 626 C 59.35 0.619155 3.41736 0
M  V30 627 C 58.304 1.64791 3.95004 0
M  V30 628 C 57.63 1.0897 5.23478 0
M  V30 629 C 58.93 3.03999 4.24714 0
M  V30 630 H 60.624 1.96119 2.26225 0
M  V30 631 H 58.17 0.944344 1.08711 0
M  V30 632 H 60.123 0.467777 4.18796 0
M  V30 633 H 58.847 -0.344786 3.24775 0
M  V30 634 H 57.506 1.78721 3.20085 0
M  V30 635 H 57.154 0.11686 5.02864 0
M  V30 636 H 56.854 1.77704 5.60085 0
M  V30 637 H 58.378 0.950093 6.03163 0
M  V30 638 H 59.792 2.93393 4.92538 0
M  V30 639 H 58.189 3.69936 4.72512 0
M  V30 640 H 59.259 3.53285 3.32142 0
M  V30 641 N 60.6021 -1.18246 1.0419 0
M  V30 642 C 61.8511 -1.87588 0.741194 0
M  V30 643 C 62.1641 -1.81303 -0.734066 0
M  V30 644 O 63.3701 -2.46019 -1.14834 0
M  V30 645 C 61.8261 -3.36538 1.27555 0
M  V30 646 C 61.4341 -3.51349 2.77953 0
M  V30 647 C 63.1781 -4.11273 1.05143 0
M  V30 648 C 61.0851 -4.94265 3.2474 0
M  V30 649 H 60.0151 -0.702622 0.273565 0
M  V30 650 H 62.6661 -1.33601 1.25789 0
M  V30 651 H 61.0481 -3.9 0.686703 0
M  V30 652 H 62.2221 -3.08153 3.42605 0
M  V30 653 H 60.5371 -2.90022 2.98791 0
M  V30 654 H 63.1341 -5.16689 1.37611 0
M  V30 655 H 63.4771 -4.16298 -0.0112774 0
M  V30 656 H 64.0101 -3.63987 1.60495 0
M  V30 657 H 60.7491 -4.94408 4.30396 0
M  V30 658 H 60.2691 -5.38172 2.64823 0
M  V30 659 H 61.9481 -5.62987 3.18834 0
M  V30 660 N 62.0802 -0.821533 -1.34494 0
M  V30 661 C 63.3262 -0.418729 -1.99043 0
M  V30 662 C 63.6812 1.00672 -1.6396 0
M  V30 663 O 62.9742 1.69132 -0.900271 0
M  V30 664 C 63.1682 -0.556512 -3.53041 0
M  V30 665 C 62.9972 -1.9938 -4.03085 0
M  V30 666 C 61.7672 -2.62539 -4.31742 0
M  V30 667 C 63.9652 -2.96035 -4.20556 0
M  V30 668 N 61.9472 -3.97523 -4.67813 0
M  V30 669 C 63.3182 -4.15924 -4.59791 0
M  V30 670 C 65.3732 -2.9267 -4.02801 0
M  V30 671 C 64.0762 -5.32899 -4.83126 0
M  V30 672 C 66.1022 -4.08861 -4.27302 0
M  V30 673 C 65.4642 -5.275 -4.66822 0
M  V30 674 H 61.5632 -0.201299 -0.755647 0
M  V30 675 H 64.1472 -1.06594 -1.62929 0
M  V30 676 H 62.3182 0.0607924 -3.88352 0
M  V30 677 H 64.0502 -0.126842 -4.04501 0
M  V30 678 H 60.8052 -2.13789 -4.22601 0
M  V30 679 H 61.2292 -4.67061 -4.90085 0
M  V30 680 H 65.8712 -2.02088 -3.71376 0
M  V30 681 H 63.5892 -6.24041 -5.13418 0
M  V30 682 H 67.1752 -4.07654 -4.15101 0
M  V30 683 H 66.0552 -6.15913 -4.85408 0
M  V30 684 N 63.5583 1.46682 -0.576371 0
M  V30 685 C 64.5213 2.28707 0.150239 0
M  V30 686 C 65.5213 1.38035 0.824794 0
M  V30 687 O 66.7113 1.60476 0.677719 0
M  V30 688 C 63.8433 3.18248 1.22192 0
M  V30 689 H 65.0363 2.94423 -0.570521 0
M  V30 690 H 62.5893 1.52688 -0.334078 0
M  V30 691 H 63.3243 2.57265 1.97447 0
M  V30 692 H 63.1093 3.85 0.742812 0
M  V30 693 H 64.5993 3.80001 1.73172 0
M  V30 694 N 65.0364 0.313813 1.54444 0
M  V30 695 C 65.9664 -0.549454 2.26943 0
M  V30 696 C 66.9474 -1.12741 1.27372 0
M  V30 697 O 68.1324 -1.15436 1.56167 0
M  V30 698 C 65.2624 -1.71523 3.01989 0
M  V30 699 C 64.2164 -1.26703 4.08816 0
M  V30 700 C 63.5424 -2.51898 4.71647 0
M  V30 701 C 64.8424 -0.388962 5.2085 0
M  V30 702 H 66.5364 0.0552661 2.99349 0
M  V30 703 H 64.0824 0.0280207 1.43973 0
M  V30 704 H 66.0354 -2.32535 3.51433 0
M  V30 705 H 64.7594 -2.34639 2.27183 0
M  V30 706 H 63.4184 -0.679896 3.6024 0
M  V30 707 H 63.0664 -3.13356 3.93468 0
M  V30 708 H 62.7664 -2.22605 5.43802 0
M  V30 709 H 64.2904 -3.1369 5.23861 0
M  V30 710 H 65.7044 -0.905107 5.6611 0
M  V30 711 H 64.1014 -0.18924 5.99802 0
M  V30 712 H 65.1714 0.582699 4.81386 0
M  V30 713 N 66.5145 -1.57545 0.0417849 0
M  V30 714 C 67.7625 -1.91937 -0.632829 0
M  V30 715 C 68.0835 -0.919978 -1.71934 0
M  V30 716 O 67.3535 0.0366064 -1.95866 0
M  V30 717 H 65.9335 -0.708493 -0.236742 0
M  V30 718 H 68.5955 -1.9468 0.0925745 0
M  V30 719 H 67.6915 -2.92912 -1.07746 0
M  V30 720 N 67.9926 0.231505 -1.5589 0
M  V30 721 C 68.9556 1.27028 -1.90779 0
M  V30 722 C 69.9556 1.40308 -0.785507 0
M  V30 723 O 71.1456 1.38744 -1.05336 0
M  V30 724 C 68.2776 2.64566 -2.14983 0
M  V30 725 H 69.4706 0.973017 -2.83677 0
M  V30 726 H 67.0236 0.471486 -1.49019 0
M  V30 727 H 67.7586 2.99406 -1.24604 0
M  V30 728 H 67.5436 2.56305 -2.96732 0
M  V30 729 H 69.0336 3.39543 -2.43105 0
M  V30 730 N 69.4707 1.49531 0.497807 0
M  V30 731 C 70.4337 1.65916 1.58128 0
M  V30 732 C 71.4337 0.530825 1.51786 0
M  V30 733 O 72.6237 0.797342 1.54881 0
M  V30 734 C 69.7557 1.65951 2.9778 0
M  V30 735 H 70.9487 2.62556 1.44929 0
M  V30 736 H 68.5017 1.38611 0.722275 0
M  V30 737 H 69.2367 0.709065 3.16453 0
M  V30 738 H 69.0217 2.47897 3.03792 0
M  V30 739 H 70.5117 1.80673 3.76493 0
M  V30 740 N 70.9488 -0.749086 1.3866 0
M  V30 741 C 72.1968 -1.50535 1.34847 0
M  V30 742 C 72.5178 -1.94909 -0.0595016 0
M  V30 743 O 71.7878 -1.67973 -1.00806 0
M  V30 744 H 70.3678 -0.558395 0.49619 0
M  V30 745 H 73.0298 -0.890165 1.73384 0
M  V30 746 H 72.1258 -2.39413 2.00219 0
M  V30 747 N 72.4269 -1.23603 -0.977757 0
M  V30 748 C 73.3749 -1.01704 -2.09187 0
M  V30 749 C 74.3689 0.0448214 -1.69341 0
M  V30 750 O 75.5749 -0.108902 -1.7967 0
M  V30 751 H 71.9499 -0.311803 -0.684312 0
M  V30 752 H 73.9209 -1.96207 -2.24823 0
M  V30 753 C 72.6699 -0.627746 -3.41986 0
M  V30 754 H 71.9929 -1.43656 -3.73099 0
M  V30 755 H 73.4329 -0.514053 -4.20872 0
M  V30 756 C 71.8919 0.664238 -3.30287 0
M  V30 757 O 72.4219 1.71268 -3.6336 0
M  V30 758 N 70.6279 0.641156 -2.83439 0
M  V30 759 H 70.1749 -0.212376 -2.56723 0
M  V30 760 H 70.1329 1.50583 -2.75993 0
M  V30 761 N 73.905 1.17692 -1.04816 0
M  V30 762 C 74.868 2.19787 -0.650117 0
M  V30 763 C 75.868 1.58044 0.296427 0
M  V30 764 O 77.058 1.74012 0.0808097 0
M  V30 765 C 74.19 3.40869 0.0456987 0
M  V30 766 H 75.383 2.56516 -1.5537 0
M  V30 767 H 72.936 1.31708 -0.841594 0
M  V30 768 H 73.671 3.09681 0.962726 0
M  V30 769 H 73.456 3.86928 -0.634727 0
M  V30 770 H 74.946 4.16445 0.310432 0
M  V30 771 N 75.3831 0.828654 1.34056 0
M  V30 772 C 76.3131 0.269443 2.3194 0
M  V30 773 C 77.2941 -0.617247 1.58506 0
M  V30 774 O 78.4791 -0.542931 1.86456 0
M  V30 775 C 75.6091 -0.564793 3.42677 0
M  V30 776 C 74.5631 0.225241 4.27407 0
M  V30 777 C 73.8891 -0.7321 5.29664 0
M  V30 778 C 75.1891 1.43663 5.02154 0
M  V30 779 H 76.8831 1.08728 2.7896 0
M  V30 780 H 74.4291 0.524283 1.34117 0
M  V30 781 H 76.3821 -0.966233 4.10173 0
M  V30 782 H 75.1061 -1.41574 2.9432 0
M  V30 783 H 73.7651 0.608117 3.61521 0
M  V30 784 H 73.4131 -1.57916 4.77568 0
M  V30 785 H 73.1131 -0.20767 5.87233 0
M  V30 786 H 74.6371 -1.13128 6.00029 0
M  V30 787 H 76.0511 1.1089 5.62473 0
M  V30 788 H 74.4481 1.89711 5.69324 0
M  V30 789 H 75.5181 2.21181 4.31517 0
M  V30 790 N 76.8612 -1.46375 0.584142 0
M  V30 791 C 78.0862 -2.07268 0.0740405 0
M  V30 792 C 78.5112 -1.42979 -1.22223 0
M  V30 793 O 77.8692 -0.514092 -1.73859 0
M  V30 794 C 77.9172 -3.60518 -0.0767769 0
M  V30 795 O 77.0212 -3.96533 -1.13292 0
M  V30 796 H 76.3622 -0.660961 0.0634524 0
M  V30 797 H 78.8922 -1.87991 0.807492 0
M  V30 798 H 78.9022 -4.07021 -0.282489 0
M  V30 799 H 77.5772 -4.06702 0.86986 0
M  V30 800 H 76.1542 -3.61738 -0.905553 0
M  V30 801 N 78.3393 -0.321999 -1.54275 0
M  V30 802 C 79.3023 0.531975 -2.22941 0
M  V30 803 C 80.3023 1.04478 -1.22234 0
M  V30 804 O 81.4923 0.937452 -1.46825 0
M  V30 805 C 78.6243 1.73874 -2.93224 0
M  V30 806 H 79.8173 -0.0682612 -2.99822 0
M  V30 807 H 77.3703 -0.0730644 -1.56129 0
M  V30 808 H 78.1053 2.37825 -2.20476 0
M  V30 809 H 77.8903 1.37847 -3.6707 0
M  V30 810 H 79.3803 2.34496 -3.45545 0
M  V30 811 N 79.8174 1.5752 -0.0501392 0
M  V30 812 C 80.7674 2.07981 0.934231 0
M  V30 813 C 81.7514 0.984745 1.27246 0
M  V30 814 O 82.9434 1.24809 1.25506 0
M  V30 815 C 80.0724 2.62751 2.20945 0
M  V30 816 C 79.1584 3.79225 1.89865 0
M  V30 817 N 79.5494 4.89036 1.29142 0
M  V30 818 C 77.8474 3.88111 2.19741 0
M  V30 819 C 78.5484 5.70084 1.15669 0
M  V30 820 N 77.5244 5.17659 1.65923 0
M  V30 821 H 81.3264 2.90277 0.460053 0
M  V30 822 H 78.8404 1.61665 0.15434 0
M  V30 823 H 80.8374 2.97205 2.9236 0
M  V30 824 H 79.4974 1.81894 2.6897 0
M  V30 825 H 80.5084 5.08854 0.963756 0
M  V30 826 H 77.1854 3.18194 2.70293 0
M  V30 827 H 78.5754 6.68395 0.685356 0
M  V30 828 N 81.2955 -0.223234 1.56011 0
M  V30 829 C 82.5415 -0.949279 1.79211 0
M  V30 830 C 82.8745 -1.84054 0.619494 0
M  V30 831 O 82.1495 -1.90726 -0.381317 0
M  V30 832 C 82.4325 -1.78965 3.12479 0
M  V30 833 C 82.2855 -0.924997 4.40186 0
M  V30 834 C 83.6045 -2.76774 3.42175 0
M  V30 835 H 80.7235 -0.343676 0.651963 0
M  V30 836 H 83.3655 -0.218253 1.88742 0
M  V30 837 H 81.5155 -2.41291 3.04485 0
M  V30 838 H 83.1875 -0.318615 4.60198 0
M  V30 839 H 81.4305 -0.230344 4.33188 0
M  V30 840 H 82.1015 -1.54735 5.29869 0
M  V30 841 H 84.5775 -2.24584 3.50287 0
M  V30 842 H 83.4535 -3.32678 4.36597 0
M  V30 843 H 83.7145 -3.54429 2.64258 0
M  V30 844 N 82.7736 -1.49793 -0.48987 0
M  V30 845 C 84.0196 -1.60078 -1.24511 0
M  V30 846 C 84.3526 -0.291608 -1.91998 0
M  V30 847 O 83.6276 0.705647 -1.81248 0
M  V30 848 C 83.9106 -2.76791 -2.30345 0
M  V30 849 C 83.7636 -4.17535 -1.67286 0
M  V30 850 C 85.0826 -2.89111 -3.31817 0
M  V30 851 H 82.2016 -0.582645 -0.451324 0
M  V30 852 H 84.8436 -1.82117 -0.541612 0
M  V30 853 H 82.9936 -2.5813 -2.90346 0
M  V30 854 H 84.6656 -4.4774 -1.11026 0
M  V30 855 H 82.9086 -4.22665 -0.976577 0
M  V30 856 H 83.5796 -4.95094 -2.44103 0
M  V30 857 H 86.0556 -3.06133 -2.81819 0
M  V30 858 H 84.9316 -3.72433 -4.03219 0
M  V30 859 H 85.1926 -1.9893 -3.94815 0
M  V30 860 N 84.2517 0.741722 -1.39055 0
M  V30 861 C 85.1817 1.869 -1.39966 0
M  V30 862 C 86.1627 1.6804 -0.26392 0
M  V30 863 O 87.3477 1.88458 -0.468755 0
M  V30 864 C 84.4777 3.24572 -1.23574 0
M  V30 865 C 83.4317 3.58056 -2.34477 0
M  V30 866 C 82.7577 4.94593 -2.0318 0
M  V30 867 C 84.0577 3.61716 -3.76774 0
M  V30 868 H 85.7517 1.86395 -2.34302 0
M  V30 869 H 83.2977 0.895361 -1.1278 0
M  V30 870 H 85.2507 4.031 -1.22834 0
M  V30 871 H 83.9747 3.25587 -0.257045 0
M  V30 872 H 82.6337 2.81854 -2.34423 0
M  V30 873 H 82.2817 4.92181 -1.03765 0
M  V30 874 H 81.9817 5.17964 -2.77465 0
M  V30 875 H 83.5057 5.75486 -2.04079 0
M  V30 876 H 84.9197 4.30335 -3.78794 0
M  V30 877 H 83.3167 3.96603 -4.50362 0
M  V30 878 H 84.3867 2.61672 -4.08235 0
M  V30 879 N 85.7298 1.2412 0.971189 0
M  V30 880 C 86.6768 1.0305 2.06517 0
M  V30 881 C 87.6468 -0.0550666 1.66009 0
M  V30 882 O 88.8318 0.0988688 1.90544 0
M  V30 883 C 85.9718 0.637653 3.39158 0
M  V30 884 C 85.0848 1.79633 3.92882 0
M  V30 885 C 84.2198 1.34939 5.13775 0
M  V30 886 C 83.2588 2.47823 5.59687 0
M  V30 887 N 82.3958 2.04022 6.71803 0
M  V30 888 H 87.2358 1.96685 2.23873 0
M  V30 889 H 84.7728 0.979694 1.09729 0
M  V30 890 H 86.7308 0.390931 4.15364 0
M  V30 891 H 85.3608 -0.261693 3.21737 0
M  V30 892 H 84.4128 2.15681 3.13346 0
M  V30 893 H 85.7248 2.64466 4.22918 0
M  V30 894 H 84.8788 1.06134 5.97345 0
M  V30 895 H 83.6178 0.471557 4.85415 0
M  V30 896 H 82.6228 2.77392 4.74693 0
M  V30 897 H 83.8478 3.36158 5.90063 0
M  V30 898 H 81.7938 1.18632 6.45184 0
M  V30 899 H 81.7108 2.82409 7.01271 0
M  V30 900 H 82.9788 1.78347 7.58823 0
M  V30 901 N 87.2079 -1.17134 1.05439 0
M  V30 902 C 88.1709 -2.19439 0.661764 0
M  V30 903 C 89.1709 -1.58199 -0.288042 0
M  V30 904 O 90.3609 -1.74053 -0.0715803 0
M  V30 905 C 87.4929 -3.40889 -0.0276209 0
M  V30 906 H 88.6859 -2.55688 1.56728 0
M  V30 907 H 86.2389 -1.31259 0.848567 0
M  V30 908 H 86.9739 -3.10187 -0.94629 0
M  V30 909 H 86.7589 -3.86586 0.655238 0
M  V30 910 H 88.2489 -4.16603 -0.288342 0
M  V30 911 N 88.686 -0.835752 -1.33615 0
M  V30 912 C 90.102 -0.523139 -1.50783 0
M  V30 913 C 90.302 0.950171 -1.77691 0
M  V30 914 O 89.358 1.73411 -1.83534 0
M  V30 915 C 90.671 -1.39378 -2.66448 0
M  V30 916 C 92.219 -1.39223 -2.80332 0
M  V30 917 C 92.694 -2.24765 -3.99055 0
M  V30 918 N 94.185 -2.22458 -4.06284 0
M  V30 919 C 94.92 -2.85386 -4.97336 0
M  V30 920 N 94.416 -3.57354 -5.93523 0
M  V30 921 N 96.209 -2.74872 -4.90308 0
M  V30 922 H 88.36 -1.78952 -1.14411 0
M  V30 923 H 90.623 -0.763297 -0.562212 0
M  V30 924 H 90.329 -2.44061 -2.53234 0
M  V30 925 H 90.203 -1.0676 -3.61776 0
M  V30 926 H 92.59 -0.353136 -2.92979 0
M  V30 927 H 92.671 -1.75846 -1.85773 0
M  V30 928 H 92.315 -3.28732 -3.87167 0
M  V30 929 H 92.245 -1.85485 -4.92852 0
M  V30 930 H 94.736 -1.70119 -3.37443 0
M  V30 931 H 95.049 -4.02584 -6.59656 0
M  V30 932 H 93.394 -3.61461 -5.93608 0
M  V30 933 H 96.585 -2.18213 -4.14126 0
M  V30 934 H 96.758 -3.24199 -5.61069 0
M  V30 935 N 90.1641 1.46063 -0.591896 0
M  V30 936 C 91.1271 2.28854 0.125973 0
M  V30 937 C 92.1271 1.38903 0.810107 0
M  V30 938 O 93.3171 1.61186 0.66066 0
M  V30 939 C 90.4491 3.19526 1.1881 0
M  V30 940 H 91.6421 2.93802 -0.601717 0
M  V30 941 H 89.1951 1.52325 -0.350254 0
M  V30 942 H 89.9301 2.59345 1.94707 0
M  V30 943 H 89.7151 3.85766 0.701936 0
M  V30 944 H 91.2051 3.81817 1.69132 0
M  V30 945 N 91.6422 0.330177 1.54103 0
M  V30 946 C 92.8902 -0.269871 2.0029 0
M  V30 947 C 93.2112 -1.52133 1.21986 0
M  V30 948 O 92.4812 -1.93212 0.323438 0
M  V30 949 H 91.0612 -0.10271 0.739905 0
M  V30 950 H 93.7232 0.448249 1.89675 0
M  V30 951 H 92.8192 -0.52166 3.07709 0
M  V30 952 N 93.1203 -1.57491 0.0584922 0
M  V30 953 C 94.5363 -1.56792 -0.298091 0
M  V30 954 C 94.7363 -1.06679 -1.70944 0
M  V30 955 O 93.7923 -0.726672 -2.41818 0
M  V30 956 C 95.1053 -3.00461 -0.119879 0
M  V30 957 C 96.6533 -3.1242 -0.190428 0
M  V30 958 C 97.1283 -4.57982 -0.0406567 0
M  V30 959 N 98.6193 -4.63099 -0.0966958 0
M  V30 960 C 99.3543 -5.734 -0.00502943 0
M  V30 961 N 98.8503 -6.9266 0.139402 0
M  V30 962 N 100.643 -5.62067 -0.0611391 0
M  V30 963 H 92.7943 -1.88386 0.98105 0
M  V30 964 H 95.0573 -0.867865 0.381463 0
M  V30 965 H 94.7633 -3.41187 0.85349 0
M  V30 966 H 94.6373 -3.66843 -0.877833 0
M  V30 967 H 97.0243 -2.71589 -1.15427 0
M  V30 968 H 97.1053 -2.48702 0.598405 0
M  V30 969 H 96.7493 -4.995 0.919897 0
M  V30 970 H 96.6793 -5.19715 -0.848727 0
M  V30 971 H 99.1703 -3.77331 -0.207277 0
M  V30 972 H 99.4833 -7.72536 0.201855 0
M  V30 973 H 97.8283 -6.94781 0.174586 0
M  V30 974 H 101.019 -4.67782 -0.172583 0
M  V30 975 H 101.192 -6.47999 0.0137562 0
M  V30 976 N 94.5984 0.214957 -1.56127 0
M  V30 977 C 95.5614 1.24997 -1.92116 0
M  V30 978 C 96.5614 1.39467 -0.800344 0
M  V30 979 O 97.7514 1.37619 -1.06802 0
M  V30 980 C 94.8834 2.62271 -2.17777 0
M  V30 981 H 96.0764 0.942875 -2.84693 0
M  V30 982 H 93.6294 0.455654 -1.49511 0
M  V30 983 H 94.3644 2.98068 -1.27773 0
M  V30 984 H 94.1494 2.53143 -2.99434 0
M  V30 985 H 95.6394 3.36946 -2.46693 0
M  V30 986 N 96.0765 1.50051 0.48192 0
M  V30 987 C 97.3245 1.60181 1.23234 0
M  V30 988 C 97.6455 0.299176 1.92691 0
M  V30 989 O 96.9155 -0.682708 1.83619 0
M  V30 990 H 95.4955 0.590232 0.457859 0
M  V30 991 H 98.1575 1.86775 0.556881 0
M  V30 992 H 97.2535 2.40753 1.98607 0
M  V30 993 N 97.5546 -0.734337 1.39446 0
M  V30 994 C 98.9706 -1.03997 1.21065 0
M  V30 995 C 99.1706 -2.01369 0.0727019 0
M  V30 996 O 98.2266 -2.45856 -0.575426 0
M  V30 997 C 99.5396 -1.60163 2.54496 0
M  V30 998 C 101.088 -1.7224 2.61347 0
M  V30 999 C 101.563 -2.31814 3.95002 0
M  V30 1000 N 103.054 -2.39223 3.96644 0
M  V30 1001 C 103.789 -2.86258 4.96834 0
M  V30 1002 N 103.285 -3.33184 6.07421 0
M  V30 1003 N 105.078 -2.85473 4.84213 0
M  V30 1004 H 97.2286 -0.0885624 2.12215 0
M  V30 1005 H 99.4916 -0.10191 0.942506 0
M  V30 1006 H 99.1976 -0.960811 3.38321 0
M  V30 1007 H 99.0716 -2.5896 2.74262 0
M  V30 1008 H 101.459 -2.35443 1.77906 0
M  V30 1009 H 101.54 -0.720939 2.4543 0
M  V30 1010 H 101.184 -1.69238 4.78875 0
M  V30 1011 H 101.114 -3.32638 4.08239 0
M  V30 1012 H 103.605 -2.06057 3.16779 0
M  V30 1013 H 103.918 -3.67586 6.7978 0
M  V30 1014 H 102.263 -3.31191 6.11013 0
M  V30 1015 H 105.454 -2.48136 3.96921 0
M  V30 1016 H 105.627 -3.21814 5.62441 0
M  V30 1017 N 99.0327 -1.24633 -0.964593 0
M  V30 1018 C 99.9627 -1.06611 -2.07741 0
M  V30 1019 C 100.944 0.0218666 -1.70086 0
M  V30 1020 O 102.129 -0.145793 -1.93652 0
M  V30 1021 C 99.2587 -0.673444 -3.40708 0
M  V30 1022 C 98.2127 -1.71054 -3.92332 0
M  V30 1023 C 97.5387 -1.17285 -5.21678 0
M  V30 1024 C 98.8387 -3.10718 -4.19824 0
M  V30 1025 H 100.533 -1.99693 -2.23076 0
M  V30 1026 H 98.0787 -0.96152 -1.07195 0
M  V30 1027 H 100.032 -0.534345 -4.17998 0
M  V30 1028 H 98.7557 0.293073 -3.25282 0
M  V30 1029 H 97.4147 -1.83791 -3.17201 0
M  V30 1030 H 97.0627 -0.196847 -5.02615 0
M  V30 1031 H 96.7627 -1.86592 -5.57187 0
M  V30 1032 H 98.2867 -1.04593 -6.01575 0
M  V30 1033 H 99.7007 -3.01192 -4.87808 0
M  V30 1034 H 98.0977 -3.77406 -4.66567 0
M  V30 1035 H 99.1677 -3.58524 -3.26479 0
M  V30 1036 N 100.511 1.16574 -1.06058 0
M  V30 1037 C 101.927 1.3904 -0.783585 0
M  V30 1038 C 102.127 1.91784 0.618145 0
M  V30 1039 O 101.183 2.11511 1.37911 0
M  V30 1040 C 102.496 2.37329 -1.84649 0
M  V30 1041 C 104.044 2.51018 -1.86973 0
M  V30 1042 C 104.519 3.52588 -2.92311 0
M  V30 1043 N 106.01 3.60113 -2.91329 0
M  V30 1044 C 106.745 4.38486 -3.69482 0
M  V30 1045 N 106.241 5.20302 -4.57447 0
M  V30 1046 N 108.034 4.33446 -3.57885 0
M  V30 1047 H 100.185 0.806725 -1.96483 0
M  V30 1048 H 102.448 0.417117 -0.851303 0
M  V30 1049 H 102.154 2.05663 -2.85299 0
M  V30 1050 H 102.028 3.36946 -1.6955 0
M  V30 1051 H 104.415 2.81989 -0.869827 0
M  V30 1052 H 104.496 1.51445 -2.0615 0
M  V30 1053 H 104.14 3.22354 -3.92492 0
M  V30 1054 H 104.07 4.51886 -2.70383 0
M  V30 1055 H 106.561 3.01707 -2.27555 0
M  V30 1056 H 106.874 5.77311 -5.13743 0
M  V30 1057 H 105.219 5.19653 -4.61503 0
M  V30 1058 H 108.41 3.68586 -2.88551 0
M  V30 1059 H 108.583 4.94279 -4.19037 0
M  V30 1060 N 101.989 0.842826 1.3317 0
M  V30 1061 C 102.939 0.250877 2.26616 0
M  V30 1062 C 103.923 -0.596427 1.49437 0
M  V30 1063 O 105.115 -0.447747 1.71243 0
M  V30 1064 C 102.244 -0.569779 3.38539 0
M  V30 1065 C 101.33 0.289254 4.23112 0
M  V30 1066 N 101.721 1.36987 4.86897 0
M  V30 1067 C 100.019 0.0769631 4.45934 0
M  V30 1068 C 100.72 1.89737 5.49886 0
M  V30 1069 N 99.6959 1.19827 5.30229 0
M  V30 1070 H 103.498 1.07718 2.73448 0
M  V30 1071 H 101.012 0.687693 1.47121 0
M  V30 1072 H 103.009 -1.01018 4.04476 0
M  V30 1073 H 101.669 -1.39401 2.93253 0
M  V30 1074 H 102.68 1.75277 4.87338 0
M  V30 1075 H 99.3569 -0.713507 4.11358 0
M  V30 1076 H 100.747 2.80253 6.10662 0
M  V30 1077 N 103.467 -1.45747 0.599634 0
M  V30 1078 C 104.417 -2.27538 -0.145107 0
M  V30 1079 C 105.401 -1.3686 -0.846055 0
M  V30 1080 O 106.593 -1.6091 -0.737357 0
M  V30 1081 C 103.722 -3.23569 -1.14708 0
M  V30 1082 C 102.808 -4.21734 -0.447383 0
M  V30 1083 N 103.199 -5.03257 0.506535 0
M  V30 1084 C 101.497 -4.40536 -0.695966 0
M  V30 1085 C 102.198 -5.74426 0.917068 0
M  V30 1086 N 101.174 -5.42966 0.26253 0
M  V30 1087 H 104.976 -2.87965 0.587672 0
M  V30 1088 H 102.49 -1.56803 0.422697 0
M  V30 1089 H 104.487 -3.8089 -1.69495 0
M  V30 1090 H 103.147 -2.64702 -1.8805 0
M  V30 1091 H 104.158 -5.10319 0.882899 0
M  V30 1092 H 100.835 -3.92802 -1.41467 0
M  V30 1093 H 102.225 -6.4995 1.70338 0
M  V30 1094 N 104.945 -0.338344 -1.53925 0
M  V30 1095 C 106.191 0.260143 -2.01125 0
M  V30 1096 C 106.524 1.50617 -1.22589 0
M  V30 1097 O 105.799 1.91979 -0.312113 0
M  V30 1098 C 106.082 0.579499 -3.55407 0
M  V30 1099 C 105.935 -0.678264 -4.44657 0
M  V30 1100 C 107.254 1.39122 -4.17532 0
M  V30 1101 H 104.373 0.0930772 -0.731099 0
M  V30 1102 H 107.015 -0.457852 -1.84401 0
M  V30 1103 H 105.165 1.19118 -3.69788 0
M  V30 1104 H 106.837 -1.31631 -4.42121 0
M  V30 1105 H 105.08 -1.3042 -4.13731 0
M  V30 1106 H 105.751 -0.410143 -5.50474 0
M  V30 1107 H 108.227 0.874035 -4.06817 0
M  V30 1108 H 107.103 1.58342 -5.25565 0
M  V30 1109 H 107.364 2.39178 -3.71815 0
M  V30 1110 N 106.423 1.57458 -0.0668435 0
M  V30 1111 C 107.353 2.15468 0.899764 0
M  V30 1112 C 108.334 1.08042 1.31381 0
M  V30 1113 O 109.519 1.36054 1.38574 0
M  V30 1114 C 106.649 2.71232 2.16911 0
M  V30 1115 C 105.603 3.83781 1.89463 0
M  V30 1116 C 104.929 4.26127 3.22986 0
M  V30 1117 C 106.229 5.08238 1.20381 0
M  V30 1118 H 107.923 2.96488 0.416529 0
M  V30 1119 H 105.469 1.4262 0.198908 0
M  V30 1120 H 107.422 3.10458 2.84945 0
M  V30 1121 H 106.146 1.87426 2.67468 0
M  V30 1122 H 104.805 3.45051 1.23836 0
M  V30 1123 H 104.453 3.39249 3.71374 0
M  V30 1124 H 104.153 5.01993 3.05413 0
M  V30 1125 H 105.677 4.67966 3.92225 0
M  V30 1126 H 107.091 5.44811 1.78475 0
M  V30 1127 H 105.488 5.89349 1.13083 0
M  V30 1128 H 106.558 4.84558 0.182153 0
M  V30 1129 N 107.901 -0.206675 1.56239 0
M  V30 1130 C 109.126 -0.949474 1.8439 0
M  V30 1131 C 109.551 -1.76549 0.649016 0
M  V30 1132 O 108.909 -1.76782 -0.402231 0
M  V30 1133 C 108.957 -1.83078 3.10668 0
M  V30 1134 O 108.061 -2.9281 2.90407 0
M  V30 1135 H 107.402 -0.268033 0.607499 0
M  V30 1136 H 109.932 -0.215488 2.03462 0
M  V30 1137 H 109.942 -2.2377 3.41161 0
M  V30 1138 H 108.617 -1.23112 3.97261 0
M  V30 1139 H 107.194 -2.55956 2.71184 0
M  V30 1140 N 109.379 -1.50304 -0.473955 0
M  V30 1141 C 110.309 -1.71886 -1.58042 0
M  V30 1142 C 111.29 -0.567799 -1.60344 0
M  V30 1143 O 112.475 -0.806623 -1.76656 0
M  V30 1144 C 109.605 -1.81036 -2.96384 0
M  V30 1145 C 108.559 -2.962 -3.08949 0
M  V30 1146 C 107.885 -2.9049 -4.48909 0
M  V30 1147 C 109.185 -4.36752 -2.86434 0
M  V30 1148 H 110.879 -2.64527 -1.40234 0
M  V30 1149 H 108.425 -1.27295 -0.673201 0
M  V30 1150 H 110.378 -1.94719 -3.73714 0
M  V30 1151 H 109.102 -0.850147 -3.15341 0
M  V30 1152 H 107.761 -2.82164 -2.3405 0
M  V30 1153 H 107.409 -1.92321 -4.64781 0
M  V30 1154 H 107.109 -3.67802 -4.58253 0
M  V30 1155 H 108.633 -3.06218 -5.28264 0
M  V30 1156 H 110.047 -4.5133 -3.53517 0
M  V30 1157 H 108.444 -5.15493 -3.07225 0
M  V30 1158 H 109.514 -4.49321 -1.82316 0
M  V30 1159 N 110.857 0.726932 -1.39834 0
M  V30 1160 C 111.82 1.82269 -1.38962 0
M  V30 1161 C 112.82 1.58248 -0.285334 0
M  V30 1162 O 114.01 1.65499 -0.54366 0
M  V30 1163 C 111.142 3.20186 -1.17019 0
M  V30 1164 H 112.335 1.84443 -2.36476 0
M  V30 1165 H 109.888 0.931416 -1.25516 0
M  V30 1166 H 110.623 3.23669 -0.202204 0
M  V30 1167 H 110.408 3.3902 -1.96998 0
M  V30 1168 H 111.898 4.00235 -1.1917 0
M  V30 1169 N 112.336 1.25143 0.95797 0
M  V30 1170 C 113.266 1.07711 2.07173 0
M  V30 1171 C 114.247 -0.0128462 1.70095 0
M  V30 1172 O 115.432 0.156061 1.93572 0
M  V30 1173 C 112.562 0.691503 3.40346 0
M  V30 1174 C 111.516 1.73132 3.9142 0
M  V30 1175 C 110.842 1.20049 5.21049 0
M  V30 1176 C 112.142 3.1294 4.1817 0
M  V30 1177 H 113.836 2.00873 2.22014 0
M  V30 1178 H 111.382 0.967191 1.06684 0
M  V30 1179 H 113.335 0.556505 4.17709 0
M  V30 1180 H 112.059 -0.275819 3.25433 0
M  V30 1181 H 110.718 1.8547 3.16222 0
M  V30 1182 H 110.366 0.223499 5.02503 0
M  V30 1183 H 110.066 1.89545 5.56189 0
M  V30 1184 H 111.59 1.07782 6.01012 0
M  V30 1185 H 113.004 3.03775 4.86203 0
M  V30 1186 H 111.401 3.79875 4.64559 0
M  V30 1187 H 112.471 3.6025 3.24573 0
M  V30 1188 N 113.814 -1.1601 1.06675 0
M  V30 1189 C 114.777 -2.18724 0.685001 0
M  V30 1190 C 115.777 -1.58496 -0.271246 0
M  V30 1191 O 116.967 -1.74119 -0.0531156 0
M  V30 1192 C 114.099 -3.40899 0.00853648 0
M  V30 1193 H 115.292 -2.54011 1.59431 0
M  V30 1194 H 112.845 -1.30352 0.862441 0
M  V30 1195 H 113.58 -3.11173 -0.913337 0
M  V30 1196 H 113.365 -3.8587 0.696204 0
M  V30 1197 H 114.855 -4.16886 -0.24414 0
M  V30 1198 N 115.292 -0.849877 -1.32721 0
M  V30 1199 C 116.54 -0.450032 -1.97026 0
M  V30 1200 C 116.861 0.996604 -1.67609 0
M  V30 1201 O 116.131 1.6958 -0.980786 0
M  V30 1202 H 114.711 -0.163426 -0.728904 0
M  V30 1203 H 117.373 -1.08526 -1.6189 0
M  V30 1204 H 116.469 -0.591146 -3.0645 0
M  V30 1205 N 116.77 1.45427 -0.607355 0
M  V30 1206 C 117.7 2.3329 0.0989352 0
M  V30 1207 C 118.681 1.46816 0.859007 0
M  V30 1208 O 119.866 1.75588 0.829604 0
M  V30 1209 C 116.996 3.29518 1.09705 0
M  V30 1210 C 115.95 4.25626 0.450206 0
M  V30 1211 C 115.276 5.11542 1.55655 0
M  V30 1212 C 116.576 5.18505 -0.628455 0
M  V30 1213 H 118.27 2.92595 -0.634716 0
M  V30 1214 H 115.816 1.40696 -0.306681 0
M  V30 1215 H 117.769 3.89855 1.59971 0
M  V30 1216 H 116.493 2.68372 1.86129 0
M  V30 1217 H 115.152 3.66586 -0.0315886 0
M  V30 1218 H 114.8 4.46765 2.31107 0
M  V30 1219 H 114.5 5.76647 1.12925 0
M  V30 1220 H 116.024 5.74748 2.06148 0
M  V30 1221 H 117.438 5.72916 -0.209877 0
M  V30 1222 H 115.835 5.92085 -0.977489 0
M  V30 1223 H 116.905 4.60948 -1.50514 0
M  V30 1224 N 118.248 0.346503 1.53744 0
M  V30 1225 C 119.178 -0.501193 2.28058 0
M  V30 1226 C 120.159 -1.10014 1.29734 0
M  V30 1227 O 121.344 -1.12097 1.58581 0
M  V30 1228 C 118.474 -1.65078 3.05559 0
M  V30 1229 C 117.428 -1.18003 4.11411 0
M  V30 1230 C 116.754 -2.41837 4.76884 0
M  V30 1231 C 118.054 -0.278394 5.21558 0
M  V30 1232 H 119.748 0.11875 2.99164 0
M  V30 1233 H 117.294 0.0585531 1.43881 0
M  V30 1234 H 119.247 -2.25028 3.56287 0
M  V30 1235 H 117.971 -2.29767 2.32109 0
M  V30 1236 H 116.63 -0.603331 3.61601 0
M  V30 1237 H 116.278 -3.0494 4.00026 0
M  V30 1238 H 115.978 -2.1102 5.48402 0
M  V30 1239 H 117.502 -3.02508 5.30397 0
M  V30 1240 H 118.916 -0.784823 5.67903 0
M  V30 1241 H 117.313 -0.0619707 6.00068 0
M  V30 1242 H 118.383 0.684677 4.80042 0
M  V30 1243 N 119.726 -1.57421 0.075193 0
M  V30 1244 C 120.656 -2.15942 -0.888324 0
M  V30 1245 C 121.637 -1.08737 -1.30806 0
M  V30 1246 O 122.822 -1.36787 -1.37851 0
M  V30 1247 C 119.952 -2.72379 -2.1547 0
M  V30 1248 C 118.906 -3.8478 -1.87425 0
M  V30 1249 C 118.232 -4.27834 -3.20721 0
M  V30 1250 C 119.532 -5.08869 -1.17684 0
M  V30 1251 H 121.226 -2.96705 -0.400799 0
M  V30 1252 H 118.772 -1.42723 -0.191342 0
M  V30 1253 H 120.725 -3.11965 -2.83295 0
M  V30 1254 H 119.449 -1.88841 -2.6647 0
M  V30 1255 H 118.108 -3.45703 -1.22004 0
M  V30 1256 H 117.756 -3.41214 -3.6957 0
M  V30 1257 H 117.456 -5.03605 -3.02746 0
M  V30 1258 H 118.98 -4.70039 -3.89738 0
M  V30 1259 H 120.394 -5.4575 -1.75584 0
M  V30 1260 H 118.791 -5.8994 -1.09956 0
M  V30 1261 H 119.861 -4.84648 -0.156453 0
M  V30 1262 N 121.204 0.198386 -1.56346 0
M  V30 1263 C 122.134 1.24865 -1.9731 0
M  V30 1264 C 123.115 1.47651 -0.844576 0
M  V30 1265 O 124.3 1.59444 -1.10866 0
M  V30 1266 C 121.43 2.59358 -2.30977 0
M  V30 1267 C 120.384 2.5119 -3.46537 0
M  V30 1268 C 119.71 3.89926 -3.65871 0
M  V30 1269 C 121.01 2.03977 -4.80823 0
M  V30 1270 H 122.704 0.908252 -2.85291 0
M  V30 1271 H 120.25 0.435462 -1.37258 0
M  V30 1272 H 122.203 3.33011 -2.58228 0
M  V30 1273 H 120.927 2.95132 -1.39874 0
M  V30 1274 H 119.586 1.79993 -3.19371 0
M  V30 1275 H 119.234 4.23046 -2.72105 0
M  V30 1276 H 118.934 3.85336 -4.4361 0
M  V30 1277 H 120.458 4.65205 -3.95495 0
M  V30 1278 H 121.872 2.67386 -5.07127 0
M  V30 1279 H 120.269 2.10397 -5.62008 0
M  V30 1280 H 121.339 0.992861 -4.74626 0
M  V30 1281 N 122.682 1.50554 0.465978 0
M  V30 1282 C 123.612 1.72722 1.57128 0
M  V30 1283 C 124.593 0.576294 1.6004 0
M  V30 1284 O 125.778 0.81598 1.76225 0
M  V30 1285 C 122.908 1.82605 2.95419 0
M  V30 1286 C 121.862 2.97835 3.07373 0
M  V30 1287 C 121.188 2.92867 4.47363 0
M  V30 1288 C 122.488 4.38265 2.84114 0
M  V30 1289 H 124.182 2.65267 1.38829 0
M  V30 1290 H 121.728 1.2765 0.666441 0
M  V30 1291 H 123.681 1.96698 3.72677 0
M  V30 1292 H 122.405 0.866858 3.14886 0
M  V30 1293 H 121.064 2.83401 2.3255 0
M  V30 1294 H 120.712 1.94783 4.63755 0
M  V30 1295 H 120.412 3.70227 4.56296 0
M  V30 1296 H 121.936 3.09015 5.26633 0
M  V30 1297 H 123.35 4.53198 3.51118 0
M  V30 1298 H 121.747 5.17115 3.04487 0
M  V30 1299 H 122.817 4.50281 1.7993 0
M  V30 1300 N 124.16 -0.719506 1.40217 0
M  V30 1301 C 125.406 -1.48152 1.38488 0
M  V30 1302 C 125.739 -1.94195 -0.0141867 0
M  V30 1303 O 125.014 -1.67884 -0.982096 0
M  V30 1304 C 125.297 -2.71035 2.37091 0
M  V30 1305 C 125.15 -2.30912 3.86005 0
M  V30 1306 C 126.469 -3.73182 2.33288 0
M  V30 1307 H 123.588 -0.537395 0.504357 0
M  V30 1308 H 126.23 -0.821472 1.71324 0
M  V30 1309 H 124.38 -3.27352 2.0922 0
M  V30 1310 H 126.052 -1.80107 4.24687 0
M  V30 1311 H 124.295 -1.62958 4.02029 0
M  V30 1312 H 124.966 -3.18978 4.50508 0
M  V30 1313 H 127.442 -3.26485 2.57966 0
M  V30 1314 H 126.318 -4.56806 3.04334 0
M  V30 1315 H 126.579 -4.21202 1.34317 0
M  V30 1316 N 125.638 -1.25649 -0.95132 0
M  V30 1317 C 126.886 -1.10375 -1.69298 0
M  V30 1318 C 127.207 0.355339 -1.91735 0
M  V30 1319 O 126.477 1.25188 -1.50681 0
M  V30 1320 H 125.057 -0.405461 -0.627384 0
M  V30 1321 H 127.719 -1.57823 -1.14358 0
M  V30 1322 H 126.815 -1.61465 -2.67087 0
M  V30 1323 N 127.117 1.15442 -1.07289 0
M  V30 1324 C 128.363 1.86489 -0.796846 0
M  V30 1325 C 128.696 1.82078 0.675371 0
M  V30 1326 O 127.971 1.24346 1.4956 0
M  V30 1327 C 128.254 3.35626 -1.30489 0
M  V30 1328 C 128.107 3.48673 -2.84161 0
M  V30 1329 C 129.426 4.30357 -0.920907 0
M  V30 1330 H 126.545 0.677144 -0.290939 0
M  V30 1331 H 129.187 1.35633 -1.33056 0
M  V30 1332 H 127.337 3.79068 -0.850883 0
M  V30 1333 H 129.009 3.14099 -3.37846 0
M  V30 1334 H 127.252 2.90253 -3.22391 0
M  V30 1335 H 127.923 4.53453 -3.14777 0
M  V30 1336 H 130.399 3.94871 -1.3121 0
M  V30 1337 H 129.275 5.33193 -1.30372 0
M  V30 1338 H 129.536 4.4176 0.173226 0
M  V30 1339 N 128.595 0.856903 1.32268 0
M  V30 1340 C 130.006 0.515711 1.79436 0
M  V30 1341 C 130.357 -0.966586 1.70738 0
M  V30 1342 O 129.482 -1.75409 1.26731 0
M  V30 1343 C 130.077 0.929335 3.25805 0
M  V30 1344 C 128.636 0.640006 3.70919 0
M  V30 1345 C 127.783 1.12784 2.53328 0
M  V30 1346 H 130.734 1.04389 1.19535 0
M  V30 1347 H 130.755 0.246633 3.797 0
M  V30 1348 H 130.267 2.00821 3.32103 0
M  V30 1349 H 128.368 -0.428051 3.70133 0
M  V30 1350 H 128.481 1.20788 4.63624 0
M  V30 1351 H 126.845 0.548033 2.48734 0
M  V30 1352 H 127.628 2.21387 2.62379 0
M  V30 1353 N 130.073 -1.45103 0.615059 0
M  V30 1354 C 131.319 -2.02483 0.113347 0
M  V30 1355 C 131.652 -1.48146 -1.25564 0
M  V30 1356 O 130.927 -0.659104 -1.82992 0
M  V30 1357 C 131.21 -3.60005 0.0825278 0
M  V30 1358 C 131.063 -4.2466 1.48271 0
M  V30 1359 C 132.382 -4.35972 -0.601401 0
M  V30 1360 H 129.501 -0.735764 0.0426632 0
M  V30 1361 H 132.143 -1.72868 0.788461 0
M  V30 1362 H 130.293 -3.85367 -0.492378 0
M  V30 1363 H 131.965 -4.10458 2.10527 0
M  V30 1364 H 130.208 -3.82772 2.04127 0
M  V30 1365 H 130.879 -5.336 1.41332 0
M  V30 1366 H 133.355 -4.15947 -0.112666 0
M  V30 1367 H 132.231 -5.45697 -0.592097 0
M  V30 1368 H 132.492 -4.09391 -1.66887 0
M  V30 1369 N 131.551 -0.354651 -1.53558 0
M  V30 1370 C 132.461 0.50515 -2.29097 0
M  V30 1371 C 133.477 1.10223 -1.34636 0
M  V30 1372 O 134.653 1.11553 -1.67684 0
M  V30 1373 C 131.718 1.63479 -3.05738 0
M  V30 1374 C 130.779 1.06636 -4.15845 0
M  V30 1375 C 130.012 2.14217 -4.88822 0
M  V30 1376 O 130.235 3.35137 -4.61562 0
M  V30 1377 O 129.169 1.77887 -5.75013 0
M  V30 1378 H 132.995 -0.109237 -3.03503 0
M  V30 1379 H 130.58 -0.119357 -1.48922 0
M  V30 1380 H 132.462 2.2918 -3.5363 0
M  V30 1381 H 131.137 2.23478 -2.34178 0
M  V30 1382 H 130.044 0.373565 -3.7223 0
M  V30 1383 H 131.377 0.511081 -4.89539 0
M  V30 1384 N 133.029 1.57378 -0.0835403 0
M  V30 1385 C 133.959 2.1641 0.87686 0
M  V30 1386 C 134.94 1.09429 1.30228 0
M  V30 1387 O 136.125 1.37516 1.37124 0
M  V30 1388 C 133.255 2.73517 2.14022 0
M  V30 1389 C 132.209 3.85769 1.85381 0
M  V30 1390 C 131.535 4.29529 3.18448 0
M  V30 1391 C 132.835 5.09486 1.14984 0
M  V30 1392 H 134.529 2.96914 0.385059 0
M  V30 1393 H 132.075 1.42823 0.18377 0
M  V30 1394 H 134.028 3.13463 2.81636 0
M  V30 1395 H 132.752 1.90252 2.65465 0
M  V30 1396 H 131.411 3.46345 1.20169 0
M  V30 1397 H 131.059 3.43169 3.67755 0
M  V30 1398 H 130.759 5.05204 3.00071 0
M  V30 1399 H 132.283 4.72099 3.8724 0
M  V30 1400 H 133.697 5.46674 1.72687 0
M  V30 1401 H 132.094 5.90515 1.06826 0
M  V30 1402 H 133.164 4.84724 0.130749 0
M  V30 1403 N 134.507 -0.190092 1.56449 0
M  V30 1404 C 135.737 -0.92443 1.84764 0
M  V30 1405 C 136.145 -1.77146 0.664529 0
M  V30 1406 O 135.488 -1.79812 -0.375957 0
M  V30 1407 C 135.55 -1.86651 3.07248 0
M  V30 1408 C 135.214 -1.20094 4.40938 0
M  V30 1409 C 136.211 -0.575445 5.16706 0
M  V30 1410 C 133.896 -1.2033 4.87674 0
M  V30 1411 C 135.89 0.0388111 6.37388 0
M  V30 1412 C 133.577 -0.585214 6.08291 0
M  V30 1413 C 134.575 0.0347578 6.82991 0
M  V30 1414 O 134.263 0.643147 8.01323 0
M  V30 1415 H 133.995 -0.274974 0.617548 0
M  V30 1416 H 136.549 -0.200788 2.04416 0
M  V30 1417 H 134.779 -2.62998 2.83494 0
M  V30 1418 H 136.468 -2.46907 3.22167 0
M  V30 1419 H 137.234 -0.565728 4.81689 0
M  V30 1420 H 133.113 -1.67526 4.29484 0
M  V30 1421 H 136.657 0.523329 6.95634 0
M  V30 1422 H 132.554 -0.592451 6.42775 0
M  V30 1423 H 133.322 0.540545 8.16713 0
M  V30 1424 N 135.985 -1.50799 -0.457987 0
M  V30 1425 C 137.21 -1.66496 -1.23668 0
M  V30 1426 C 137.635 -0.353288 -1.84752 0
M  V30 1427 O 136.993 0.684346 -1.67888 0
M  V30 1428 C 137.041 -2.76763 -2.3116 0
M  V30 1429 O 136.145 -2.38928 -3.36136 0
M  V30 1430 H 135.486 -0.555828 -0.363252 0
M  V30 1431 H 138.016 -1.9725 -0.543474 0
M  V30 1432 H 138.026 -3.00232 -2.76269 0
M  V30 1433 H 136.701 -3.71954 -1.86073 0
M  V30 1434 H 135.278 -2.25953 -2.96647 0
M  V30 1435 N 137.463 0.71206 -1.40597 0
M  V30 1436 C 138.71 1.47197 -1.39065 0
M  V30 1437 C 139.038 1.94499 0.00583891 0
M  V30 1438 O 138.293 1.68752 0.99102 0
M  V30 1439 C 138.592 2.71039 -2.32965 0
M  V30 1440 C 138.258 2.42484 -3.80148 0
M  V30 1441 C 136.92 2.34406 -4.20247 0
M  V30 1442 C 139.272 2.18598 -4.73143 0
M  V30 1443 C 136.6 2.00516 -5.51371 0
M  V30 1444 C 138.952 1.8622 -6.0457 0
M  V30 1445 C 137.616 1.76626 -6.43708 0
M  V30 1446 H 136.886 0.538634 -0.508876 0
M  V30 1447 H 139.533 0.815325 -1.73276 0
M  V30 1448 H 137.838 3.41558 -1.91951 0
M  V30 1449 H 139.535 3.29138 -2.29061 0
M  V30 1450 H 136.125 2.49659 -3.4838 0
M  V30 1451 H 140.309 2.23793 -4.42979 0
M  V30 1452 H 135.565 1.91628 -5.80593 0
M  V30 1453 H 139.739 1.66752 -6.76141 0
M  V30 1454 H 137.366 1.50133 -7.45228 0
M  V30 1455 N 138.941 1.26152 0.944643 0
M  V30 1456 C 140.187 1.11657 1.69294 0
M  V30 1457 C 140.52 -0.339926 1.91202 0
M  V30 1458 O 139.795 -1.24994 1.49019 0
M  V30 1459 C 140.078 1.88236 3.06984 0
M  V30 1460 C 139.931 3.41772 2.92424 0
M  V30 1461 C 141.25 1.67343 4.07043 0
M  V30 1462 H 138.369 0.407004 0.614424 0
M  V30 1463 H 141.011 1.55106 1.09737 0
M  V30 1464 H 139.161 1.51308 3.57824 0
M  V30 1465 H 140.833 3.88433 2.48832 0
M  V30 1466 H 139.076 3.68974 2.28124 0
M  V30 1467 H 139.747 3.90579 3.90067 0
M  V30 1468 H 142.223 1.99509 3.65151 0
M  V30 1469 H 141.099 2.23346 5.01406 0
M  V30 1470 H 141.36 0.617158 4.37771 0
M  V30 1471 N 140.419 -1.14872 1.07899 0
M  V30 1472 C 141.665 -1.86289 0.81657 0
M  V30 1473 C 142.02 -1.8107 -0.65049 0
M  V30 1474 O 141.313 -1.22684 -1.47171 0
M  V30 1475 C 141.507 -3.34223 1.26609 0
M  V30 1476 C 141.336 -3.53846 2.77531 0
M  V30 1477 C 140.106 -3.68995 3.45212 0
M  V30 1478 C 142.304 -3.51201 3.75716 0
M  V30 1479 N 140.286 -3.76725 4.84718 0
M  V30 1480 C 141.657 -3.65112 5.01092 0
M  V30 1481 C 143.712 -3.34507 3.68794 0
M  V30 1482 C 142.415 -3.64056 6.20368 0
M  V30 1483 C 144.441 -3.34752 4.8754 0
M  V30 1484 C 143.803 -3.49199 6.11751 0
M  V30 1485 H 139.902 -0.698579 0.351443 0
M  V30 1486 H 142.486 -1.37713 1.37634 0
M  V30 1487 H 140.657 -3.81402 0.73395 0
M  V30 1488 H 142.389 -3.93377 0.95062 0
M  V30 1489 H 139.144 -3.70006 2.95622 0
M  V30 1490 H 139.568 -3.8432 5.5734 0
M  V30 1491 H 144.21 -3.22253 2.73702 0
M  V30 1492 H 141.928 -3.75087 7.15776 0
M  V30 1493 H 145.514 -3.23055 4.83866 0
M  V30 1494 H 144.394 -3.49328 7.02097 0
M  V30 1495 N 141.898 -0.863906 -1.31812 0
M  V30 1496 C 143.145 -0.471836 -1.96926 0
M  V30 1497 C 143.473 0.974578 -1.68322 0
M  V30 1498 O 142.728 1.7003 -0.968933 0
M  V30 1499 C 143.027 -0.668547 -3.51091 0
M  V30 1500 C 142.693 -2.08683 -3.99703 0
M  V30 1501 C 141.355 -2.47471 -4.12688 0
M  V30 1502 C 143.707 -3.01207 -4.25351 0
M  V30 1503 C 141.035 -3.78037 -4.4867 0
M  V30 1504 C 143.387 -4.31282 -4.62794 0
M  V30 1505 C 142.051 -4.69992 -4.73987 0
M  V30 1506 H 141.321 -0.172657 -0.720604 0
M  V30 1507 H 143.968 -1.09573 -1.57054 0
M  V30 1508 H 142.273 0.0385252 -3.91781 0
M  V30 1509 H 143.97 -0.345102 -3.99512 0
M  V30 1510 H 140.56 -1.77566 -3.90087 0
M  V30 1511 H 144.744 -2.72469 -4.14819 0
M  V30 1512 H 140 -4.078 -4.55532 0
M  V30 1513 H 144.174 -5.03031 -4.81594 0
M  V30 1514 H 141.801 -5.71207 -5.01624 0
M  V30 1515 N 143.376 1.44774 -0.622745 0
M  V30 1516 C 144.326 2.2774 0.108889 0
M  V30 1517 C 145.31 1.38189 0.824175 0
M  V30 1518 O 146.502 1.62063 0.711664 0
M  V30 1519 C 143.631 3.25353 1.09546 0
M  V30 1520 C 142.717 4.22392 0.380232 0
M  V30 1521 N 143.108 5.02388 -0.586535 0
M  V30 1522 C 141.406 4.41588 0.625792 0
M  V30 1523 C 142.107 5.72894 -1.00834 0
M  V30 1524 N 141.083 5.42479 -0.348878 0
M  V30 1525 H 144.885 2.86993 -0.63341 0
M  V30 1526 H 142.399 1.5611 -0.447589 0
M  V30 1527 H 144.396 3.83538 1.63414 0
M  V30 1528 H 143.056 2.6766 1.83815 0
M  V30 1529 H 144.067 5.0885 -0.963975 0
M  V30 1530 H 140.744 3.95003 1.352 0
M  V30 1531 H 142.134 6.47158 -1.80656 0
M  V30 1532 N 144.854 0.36279 1.53368 0
M  V30 1533 C 146.084 -0.228281 2.05335 0
M  V30 1534 C 146.492 -1.43226 1.23625 0
M  V30 1535 O 145.835 -1.81717 0.269206 0
M  V30 1536 C 145.897 -0.688549 3.52845 0
M  V30 1537 C 145.561 0.398362 4.5526 0
M  V30 1538 C 146.558 1.24732 5.04716 0
M  V30 1539 C 144.243 0.557805 4.99193 0
M  V30 1540 C 146.237 2.2411 5.96702 0
M  V30 1541 C 143.924 1.55495 5.90986 0
M  V30 1542 C 144.922 2.39503 6.39631 0
M  V30 1543 O 144.61 3.37517 7.29615 0
M  V30 1544 H 144.342 -0.044395 0.674541 0
M  V30 1545 H 146.896 0.518668 1.98744 0
M  V30 1546 H 145.126 -1.48706 3.56964 0
M  V30 1547 H 146.815 -1.20231 3.87685 0
M  V30 1548 H 147.581 1.13532 4.71525 0
M  V30 1549 H 143.46 -0.0862959 4.60919 0
M  V30 1550 H 147.004 2.89718 6.34594 0
M  V30 1551 H 142.901 1.66744 6.23592 0
M  V30 1552 H 143.669 3.33213 7.47604 0
M  V30 1553 N 146.332 -1.57332 0.0918853 0
M  V30 1554 C 147.743 -1.81496 -0.437739 0
M  V30 1555 C 148.094 -1.00727 -1.6837 0
M  V30 1556 O 147.219 -0.235694 -2.15113 0
M  V30 1557 C 147.814 -3.29197 -0.800939 0
M  V30 1558 C 146.373 -3.54136 -1.27532 0
M  V30 1559 C 145.52 -2.75979 -0.270392 0
M  V30 1560 H 148.471 -1.55494 0.317366 0
M  V30 1561 H 148.492 -3.42344 -1.66074 0
M  V30 1562 H 148.004 -3.87955 0.106078 0
M  V30 1563 H 146.105 -3.00705 -2.20016 0
M  V30 1564 H 146.218 -4.62792 -1.23938 0
M  V30 1565 H 144.582 -2.43349 -0.751872 0
M  V30 1566 H 145.365 -3.37484 0.629248 0
M  V30 1567 N 147.81 0.181792 -1.56548 0
M  V30 1568 C 149.056 0.896803 -1.82562 0
M  V30 1569 C 149.411 1.80324 -0.670908 0
M  V30 1570 O 148.704 1.8868 0.333235 0
M  V30 1571 C 148.898 1.73728 -3.12335 0
M  V30 1572 C 148.727 0.913714 -4.4032 0
M  V30 1573 C 147.497 0.592903 -5.01809 0
M  V30 1574 C 149.695 0.260164 -5.13642 0
M  V30 1575 N 147.677 -0.247901 -6.13399 0
M  V30 1576 C 149.048 -0.442256 -6.18421 0
M  V30 1577 C 151.103 0.177253 -4.97584 0
M  V30 1578 C 149.806 -1.21971 -7.08883 0
M  V30 1579 C 151.832 -0.586839 -5.88481 0
M  V30 1580 C 151.194 -1.27766 -6.92716 0
M  V30 1581 H 147.293 0.307122 -0.719166 0
M  V30 1582 H 149.877 0.164535 -1.94004 0
M  V30 1583 H 148.048 2.44105 -3.02105 0
M  V30 1584 H 149.78 2.39279 -3.26386 0
M  V30 1585 H 146.535 0.920502 -4.64568 0
M  V30 1586 H 146.959 -0.658304 -6.73792 0
M  V30 1587 H 151.601 0.696993 -4.17015 0
M  V30 1588 H 149.319 -1.75083 -7.88905 0
M  V30 1589 H 152.905 -0.652522 -5.78129 0
M  V30 1590 H 151.785 -1.85943 -7.61836 0
M  V30 1591 N 149.288 1.51039 0.449983 0
M  V30 1592 C 150.534 1.63322 1.20223 0
M  V30 1593 C 150.867 0.34241 1.91158 0
M  V30 1594 O 150.142 -0.657344 1.83055 0
M  V30 1595 C 150.425 2.82801 2.22925 0
M  V30 1596 C 150.278 4.21823 1.56157 0
M  V30 1597 C 151.597 2.97807 3.24035 0
M  V30 1598 H 148.716 0.594407 0.435718 0
M  V30 1599 H 151.358 1.83489 0.493136 0
M  V30 1600 H 149.508 2.65738 2.834 0
M  V30 1601 H 151.18 4.50526 0.991162 0
M  V30 1602 H 149.423 4.25105 0.864172 0
M  V30 1603 H 150.094 5.01391 2.30891 0
M  V30 1604 H 152.57 3.13497 2.73603 0
M  V30 1605 H 151.446 3.82992 3.93202 0
M  V30 1606 H 151.707 2.09328 3.89402 0
M  V30 1607 N 150.766 -0.704594 1.40972 0
M  V30 1608 C 152.013 -1.46458 1.39844 0
M  V30 1609 C 152.341 -1.94499 0.00447594 0
M  V30 1610 O 151.596 -1.69275 -0.982057 0
M  V30 1611 C 151.895 -2.698 2.34399 0
M  V30 1612 C 151.561 -2.40464 3.81429 0
M  V30 1613 C 150.223 -2.32174 4.21484 0
M  V30 1614 C 152.575 -2.16086 4.74296 0
M  V30 1615 C 149.903 -1.97589 5.52427 0
M  V30 1616 C 152.255 -1.83011 6.05549 0
M  V30 1617 C 150.919 -1.7321 6.44635 0
M  V30 1618 H 150.189 -0.535927 0.511725 0
M  V30 1619 H 152.836 -0.806124 1.73706 0
M  V30 1620 H 151.141 -3.40536 1.93759 0
M  V30 1621 H 152.838 -3.27919 2.30804 0
M  V30 1622 H 149.428 -2.47808 3.49699 0
M  V30 1623 H 153.612 -2.2144 4.4416 0
M  V30 1624 H 148.868 -1.88547 5.81601 0
M  V30 1625 H 153.042 -1.63164 6.77016 0
M  V30 1626 H 150.669 -1.46179 7.46013 0
M  V30 1627 N 152.244 -1.26651 -0.937939 0
M  V30 1628 C 153.492 -1.12165 -1.68118 0
M  V30 1629 C 153.813 0.334983 -1.92101 0
M  V30 1630 O 153.083 1.23583 -1.52 0
M  V30 1631 H 151.663 -0.412093 -0.623048 0
M  V30 1632 H 154.325 -1.59027 -1.12678 0
M  V30 1633 H 153.421 -1.64289 -2.6536 0
M  V30 1634 N 153.722 1.14298 -1.08507 0
M  V30 1635 C 154.999 1.81544 -0.728088 0
M  V30 1636 C 155.379 1.95838 0.78808 0
M  V30 1637 O 154.727 1.51904 1.70697 0
M  V30 1638 C 154.937 3.17169 -1.45619 0
M  V30 1639 C 156.285 3.9265 -1.61591 0
M  V30 1640 O 157.309 3.26762 -1.41793 0
M  V30 1641 O 156.168 5.10807 -1.94263 0
M  V30 1642 H 153.262 0.78491 -0.260471 0
M  V30 1643 H 155.808 1.21307 -1.18671 0
M  V30 1644 H 154.58 3.01934 -2.489 0
M  V30 1645 H 154.203 3.851 -0.989124 0
M  V30 1646 N 155.201 0.870884 1.31352 0
M  V30 1647 C 156.131 0.343096 2.30966 0
M  V30 1648 C 157.112 -0.566507 1.60389 0
M  V30 1649 O 158.297 -0.483336 1.88089 0
M  V30 1650 C 155.427 -0.455487 3.443 0
M  V30 1651 C 154.381 0.361103 4.26474 0
M  V30 1652 C 153.707 -0.563221 5.31725 0
M  V30 1653 C 155.007 1.59566 4.97329 0
M  V30 1654 H 156.701 1.17548 2.75359 0
M  V30 1655 H 154.247 0.566686 1.32381 0
M  V30 1656 H 156.2 -0.83525 4.13039 0
M  V30 1657 H 154.924 -1.32139 2.98675 0
M  V30 1658 H 153.583 0.722825 3.59403 0
M  V30 1659 H 153.231 -1.42643 4.82351 0
M  V30 1660 H 152.931 -0.0207409 5.87596 0
M  V30 1661 H 154.455 -0.939808 6.03324 0
M  V30 1662 H 155.869 1.28728 5.58661 0
M  V30 1663 H 154.266 2.07728 5.63 0
M  V30 1664 H 155.336 2.34798 4.24262 0
M  V30 1665 N 156.679 -1.44442 0.630414 0
M  V30 1666 C 157.927 -2.01653 0.134351 0
M  V30 1667 C 158.248 -1.49836 -1.24796 0
M  V30 1668 O 157.518 -0.701684 -1.82902 0
M  V30 1669 H 156.098 -0.74554 0.0466769 0
M  V30 1670 H 158.76 -1.76952 0.816955 0
M  V30 1671 H 157.856 -3.11935 0.101498 0
M  V30 1672 N 158.157 -0.370918 -1.53173 0
M  V30 1673 C 159.397 0.217106 -2.03244 0
M  V30 1674 C 159.761 1.45558 -1.25207 0
M  V30 1675 O 160.962 2.11957 -1.65311 0
M  V30 1676 C 159.233 0.496664 -3.53932 0
M  V30 1677 S 160.792 1.0576 -4.25864 0
M  V30 1678 H 157.61 0.0627827 -0.708223 0
M  V30 1679 H 160.212 -0.515019 -1.88594 0
M  V30 1680 H 158.916 -0.412096 -4.08326 0
M  V30 1681 H 158.447 1.25772 -3.72753 0
M  V30 1682 H 160.462 2.34145 -4.37482 0
M  V30 1683 N 159.635 1.57281 -0.100228 0
M  V30 1684 C 161.051 1.57527 0.256416 0
M  V30 1685 C 161.251 1.11173 1.68056 0
M  V30 1686 O 160.307 0.79053 2.39806 0
M  V30 1687 C 161.62 3.00673 0.0401747 0
M  V30 1688 C 163.168 3.12815 0.107528 0
M  V30 1689 C 163.643 4.57929 -0.0807834 0
M  V30 1690 N 165.134 4.63193 -0.0261207 0
M  V30 1691 C 165.869 5.73212 -0.146999 0
M  V30 1692 N 165.365 6.92047 -0.322999 0
M  V30 1693 N 167.158 5.62031 -0.0879044 0
M  V30 1694 H 159.309 1.85718 -1.03065 0
M  V30 1695 H 161.572 0.857446 -0.404339 0
M  V30 1696 H 161.278 3.38804 -0.943649 0
M  V30 1697 H 161.152 3.69042 0.780262 0
M  V30 1698 H 163.539 2.74554 1.08186 0
M  V30 1699 H 163.62 2.47028 -0.664134 0
M  V30 1700 H 163.264 4.96886 -1.05201 0
M  V30 1701 H 163.194 5.21783 0.710635 0
M  V30 1702 H 165.685 3.77748 0.107161 0
M  V30 1703 H 165.998 7.7173 -0.406608 0
M  V30 1704 H 164.343 6.94074 -0.358733 0
M  V30 1705 H 167.534 4.68075 0.048498 0
M  V30 1706 H 167.707 6.47734 -0.185557 0
M  V30 1707 N 161.113 -0.173488 1.56642 0
M  V30 1708 C 162.361 -0.888706 1.81512 0
M  V30 1709 C 162.682 -1.82875 0.676872 0
M  V30 1710 O 161.952 -1.93536 -0.303414 0
M  V30 1711 H 160.532 -0.331164 0.669582 0
M  V30 1712 H 163.194 -0.173823 1.94123 0
M  V30 1713 H 162.29 -1.46691 2.75478 0
M  V30 1714 N 162.591 -1.51276 -0.441967 0
M  V30 1715 C 163.821 -1.67273 -1.21257 0
M  V30 1716 C 164.229 -0.367624 -1.85594 0
M  V30 1717 O 163.572 0.663349 -1.71305 0
M  V30 1718 C 163.634 -2.72807 -2.34129 0
M  V30 1719 C 163.298 -4.1554 -1.90198 0
M  V30 1720 C 164.295 -5.00471 -1.40801 0
M  V30 1721 C 161.98 -4.61616 -1.9803 0
M  V30 1722 C 163.974 -6.29536 -0.998174 0
M  V30 1723 C 161.661 -5.90679 -1.56658 0
M  V30 1724 C 162.659 -6.74466 -1.07633 0
M  V30 1725 O 162.347 -8.01116 -0.668459 0
M  V30 1726 H 162.079 -0.564614 -0.371734 0
M  V30 1727 H 164.633 -1.9843 -0.530521 0
M  V30 1728 H 162.863 -2.36954 -3.05597 0
M  V30 1729 H 164.552 -2.77729 -2.96009 0
M  V30 1730 H 165.318 -4.66079 -1.34148 0
M  V30 1731 H 161.197 -3.96526 -2.35135 0
M  V30 1732 H 164.741 -6.94885 -0.61482 0
M  V30 1733 H 160.638 -6.24586 -1.62979 0
M  V30 1734 H 161.406 -8.14633 -0.794722 0
M  V30 1735 N 164.069 0.697108 -1.41344 0
M  V30 1736 C 165.299 1.48377 -1.43763 0
M  V30 1737 C 165.707 1.89156 -0.0408726 0
M  V30 1738 O 165.05 1.57239 0.949812 0
M  V30 1739 C 165.112 2.7781 -2.2817 0
M  V30 1740 C 164.776 2.59244 -3.76353 0
M  V30 1741 C 165.773 2.25292 -4.68551 0
M  V30 1742 C 163.458 2.74933 -4.20378 0
M  V30 1743 C 165.452 2.07264 -6.02761 0
M  V30 1744 C 163.139 2.56521 -5.54653 0
M  V30 1745 C 164.137 2.22737 -6.4566 0
M  V30 1746 O 163.825 2.04485 -7.77458 0
M  V30 1747 H 163.557 0.463842 -0.491759 0
M  V30 1748 H 166.111 0.865934 -1.86255 0
M  V30 1749 H 164.341 3.41995 -1.8049 0
M  V30 1750 H 166.03 3.39608 -2.22309 0
M  V30 1751 H 166.796 2.12787 -4.35829 0
M  V30 1752 H 162.675 3.00213 -3.49848 0
M  V30 1753 H 166.219 1.80817 -6.73759 0
M  V30 1754 H 162.116 2.68616 -5.86955 0
M  V30 1755 H 162.884 2.1926 -7.88586 0
M  V30 1756 N 165.547 1.27147 0.931209 0
M  V30 1757 C 166.794 1.13278 1.67852 0
M  V30 1758 C 167.122 -0.32204 1.91815 0
M  V30 1759 O 166.377 -1.25224 1.50391 0
M  V30 1760 C 166.676 1.8579 3.05314 0
M  V30 1761 C 166.342 3.35657 3.01073 0
M  V30 1762 C 165.004 3.76536 2.99623 0
M  V30 1763 C 167.356 4.31299 2.92627 0
M  V30 1764 C 164.684 5.11426 2.87506 0
M  V30 1765 C 167.036 5.66242 2.82051 0
M  V30 1766 C 165.7 6.06418 2.7895 0
M  V30 1767 H 164.97 0.414515 0.614214 0
M  V30 1768 H 167.617 1.57712 1.08624 0
M  V30 1769 H 165.922 1.33854 3.68226 0
M  V30 1770 H 167.619 1.72491 3.62005 0
M  V30 1771 H 164.209 3.03146 3.02986 0
M  V30 1772 H 168.393 4.00692 2.92848 0
M  V30 1773 H 163.649 5.41705 2.83489 0
M  V30 1774 H 167.823 6.40026 2.74481 0
M  V30 1775 H 165.45 7.10895 2.69318 0
M  V30 1776 N 167.025 -1.13721 1.09112 0
M  V30 1777 C 168.271 -1.85198 0.826414 0
M  V30 1778 C 168.604 -1.83129 -0.646319 0
M  V30 1779 O 167.879 -1.2671 -1.47563 0
M  V30 1780 C 168.162 -3.33507 1.35812 0
M  V30 1781 C 168.015 -3.44108 2.89672 0
M  V30 1782 C 169.334 -4.28838 0.989256 0
M  V30 1783 H 166.453 -0.67243 0.301675 0
M  V30 1784 H 169.095 -1.33499 1.35197 0
M  V30 1785 H 167.245 -3.77666 0.911082 0
M  V30 1786 H 168.917 -3.08684 3.428 0
M  V30 1787 H 167.16 -2.85087 3.26967 0
M  V30 1788 H 167.831 -4.48388 3.21951 0
M  V30 1789 H 170.307 -3.92734 1.37475 0
M  V30 1790 H 169.183 -5.31051 1.38838 0
M  V30 1791 H 169.444 -4.4198 -0.102924 0
M  V30 1792 N 168.503 -0.877838 -1.30888 0
M  V30 1793 C 169.453 -0.310872 -2.25871 0
M  V30 1794 C 170.437 0.556596 -1.50966 0
M  V30 1795 O 171.629 0.402187 -1.7237 0
M  V30 1796 C 168.758 0.479821 -3.3993 0
M  V30 1797 C 167.844 -0.401333 -4.22197 0
M  V30 1798 N 168.235 -1.49848 -4.83093 0
M  V30 1799 C 166.533 -0.195167 -4.45573 0
M  V30 1800 C 167.234 -2.0425 -5.44662 0
M  V30 1801 N 166.21 -1.33843 -5.26865 0
M  V30 1802 H 170.012 -1.1493 -2.70496 0
M  V30 1803 H 167.526 -0.726458 -1.45246 0
M  V30 1804 H 169.523 0.902582 -4.07012 0
M  V30 1805 H 168.183 1.31577 -2.96846 0
M  V30 1806 H 169.194 -1.88137 -4.82519 0
M  V30 1807 H 165.871 0.604192 -4.13105 0
M  V30 1808 H 167.261 -2.96345 -6.03017 0
M  V30 1809 N 169.982 1.44106 -0.638065 0
M  V30 1810 C 170.892 2.34513 0.0637334 0
M  V30 1811 C 171.908 1.53018 0.828346 0
M  V30 1812 O 173.084 1.85723 0.779036 0
M  V30 1813 C 170.149 3.31095 1.02844 0
M  V30 1814 C 169.21 4.28497 0.26244 0
M  V30 1815 C 168.443 5.20465 1.1812 0
M  V30 1816 O 168.666 5.16514 2.42011 0
M  V30 1817 O 167.6 5.98251 0.661774 0
M  V30 1818 H 171.426 2.95989 -0.68003 0
M  V30 1819 H 169.011 1.43994 -0.398252 0
M  V30 1820 H 170.893 3.90526 1.58327 0
M  V30 1821 H 169.568 2.72144 1.7527 0
M  V30 1822 H 168.475 3.72592 -0.335602 0
M  V30 1823 H 169.808 4.90388 -0.421936 0
M  V30 1824 N 171.46 0.379036 1.52974 0
M  V30 1825 C 172.39 -0.452706 2.29069 0
M  V30 1826 C 173.371 -1.07237 1.32039 0
M  V30 1827 O 174.556 -1.08708 1.60923 0
M  V30 1828 C 171.686 -1.5856 3.08992 0
M  V30 1829 C 170.64 -1.0925 4.13822 0
M  V30 1830 C 169.966 -2.31668 4.81907 0
M  V30 1831 C 171.266 -0.167702 5.22031 0
M  V30 1832 H 172.96 0.182181 2.98845 0
M  V30 1833 H 170.506 0.0890592 1.43724 0
M  V30 1834 H 172.459 -2.1742 3.6098 0
M  V30 1835 H 171.183 -2.24792 2.36931 0
M  V30 1836 H 169.842 -0.526494 3.628 0
M  V30 1837 H 169.49 -2.96386 4.06404 0
M  V30 1838 H 169.19 -1.9934 5.52754 0
M  V30 1839 H 170.714 -2.91189 5.36695 0
M  V30 1840 H 172.128 -0.664186 5.6944 0
M  V30 1841 H 170.525 0.0653265 6.00064 0
M  V30 1842 H 171.595 0.786347 4.78482 0
M  V30 1843 N 172.938 -1.57226 0.108567 0
M  V30 1844 C 174.178 -1.96717 -0.555155 0
M  V30 1845 C 174.542 -0.990003 -1.64508 0
M  V30 1846 O 175.743 -1.2739 -2.36696 0
M  V30 1847 C 174.014 -3.40575 -1.08367 0
M  V30 1848 S 175.573 -4.02072 -1.75737 0
M  V30 1849 H 172.391 -0.687638 -0.180762 0
M  V30 1850 H 174.993 -1.94563 0.191172 0
M  V30 1851 H 173.697 -4.0945 -0.279092 0
M  V30 1852 H 173.228 -3.46356 -1.86551 0
M  V30 1853 H 175.243 -3.91977 -3.04251 0
M  V30 1854 N 174.416 0.165178 -1.56732 0
M  V30 1855 C 175.379 1.18822 -1.95995 0
M  V30 1856 C 176.379 1.3685 -0.84431 0
M  V30 1857 O 177.569 1.34152 -1.11126 0
M  V30 1858 C 174.701 2.5521 -2.26011 0
M  V30 1859 H 175.894 0.851825 -2.87548 0
M  V30 1860 H 173.447 0.407857 -1.50885 0
M  V30 1861 H 174.182 2.93852 -1.37191 0
M  V30 1862 H 173.967 2.43489 -3.07336 0
M  V30 1863 H 175.457 3.28927 -2.57288 0
M  V30 1864 N 175.894 1.51508 0.433938 0
M  V30 1865 C 177.124 1.67914 1.20369 0
M  V30 1866 C 177.532 0.377461 1.85397 0
M  V30 1867 O 176.875 -0.654255 1.71654 0
M  V30 1868 C 176.937 2.74045 2.32679 0
M  V30 1869 C 176.601 4.16543 1.87991 0
M  V30 1870 C 177.598 5.01211 1.38145 0
M  V30 1871 C 175.283 4.6266 1.95579 0
M  V30 1872 C 177.277 6.30056 0.964774 0
M  V30 1873 C 174.964 5.91501 1.53523 0
M  V30 1874 C 175.962 6.75027 1.04055 0
M  V30 1875 O 175.65 8.01459 0.625964 0
M  V30 1876 H 175.382 0.566578 0.368735 0
M  V30 1877 H 177.936 1.98709 0.51999 0
M  V30 1878 H 176.166 2.38572 3.04336 0
M  V30 1879 H 177.855 2.79295 2.94532 0
M  V30 1880 H 178.621 4.66783 1.31675 0
M  V30 1881 H 174.5 3.97767 2.33029 0
M  V30 1882 H 178.044 6.95202 0.57796 0
M  V30 1883 H 173.941 6.25442 1.59665 0
M  V30 1884 H 174.709 8.15043 0.751509 0
M  V30 1885 N 177.372 -0.689602 1.41712 0
M  V30 1886 C 178.335 -1.78521 1.43746 0
M  V30 1887 C 179.335 -1.57436 0.327191 0
M  V30 1888 O 180.525 -1.64 0.587348 0
M  V30 1889 C 177.657 -3.16971 1.25467 0
M  V30 1890 H 178.85 -1.78108 2.41283 0
M  V30 1891 H 176.403 -0.89781 1.27942 0
M  V30 1892 H 177.138 -3.23019 0.287948 0
M  V30 1893 H 176.923 -3.33678 2.05917 0
M  V30 1894 H 178.413 -3.96935 1.2974 0
M  V30 1895 N 178.85 -1.27639 -0.924453 0
M  V30 1896 C 180.078 -1.16989 -1.70649 0
M  V30 1897 C 180.493 0.272869 -1.86818 0
M  V30 1898 O 179.85 1.18549 -1.38753 0
M  V30 1899 C 179.901 -1.85229 -3.10439 0
M  V30 1900 O 179.622 -3.23868 -2.95028 0
M  V30 1901 C 181.123 -1.80746 -4.04779 0
M  V30 1902 H 178.343 -0.406595 -0.53378 0
M  V30 1903 H 180.887 -1.68569 -1.15778 0
M  V30 1904 H 179.042 -1.37545 -3.6216 0
M  V30 1905 H 179.456 -3.57889 -3.83426 0
M  V30 1906 H 180.93 -2.33101 -5.00368 0
M  V30 1907 H 181.407 -0.777499 -4.32263 0
M  V30 1908 H 182.013 -2.28059 -3.58984 0
M  V30 1909 N 180.328 1.1314 -1.09713 0
M  V30 1910 C 181.574 1.84757 -0.836224 0
M  V30 1911 C 181.907 1.8347 0.636598 0
M  V30 1912 O 181.182 1.27491 1.46889 0
M  V30 1913 C 181.465 3.32782 -1.37578 0
M  V30 1914 C 181.318 3.42567 -2.91493 0
M  V30 1915 C 182.637 4.28307 -1.01198 0
M  V30 1916 H 179.756 0.67082 -0.305236 0
M  V30 1917 H 182.398 1.3278 -1.35903 0
M  V30 1918 H 180.548 3.77177 -0.931097 0
M  V30 1919 H 182.22 3.06862 -3.44432 0
M  V30 1920 H 180.463 2.83349 -3.28475 0
M  V30 1921 H 181.134 4.46674 -3.24324 0
M  V30 1922 H 183.61 3.91999 -1.39556 0
M  V30 1923 H 182.486 5.30307 -1.41653 0
M  V30 1924 H 182.747 4.42029 0.0794833 0
M  V30 1925 N 181.806 0.884767 1.30421 0
M  V30 1926 C 182.736 0.367574 2.30589 0
M  V30 1927 C 183.717 -0.549464 1.60981 0
M  V30 1928 O 184.902 -0.46336 1.88591 0
M  V30 1929 C 182.032 -0.418944 3.44764 0
M  V30 1930 C 180.986 0.406316 4.26067 0
M  V30 1931 C 180.312 -0.506793 5.32293 0
M  V30 1932 C 181.612 1.64832 4.95608 0
M  V30 1933 H 183.306 1.20462 2.74097 0
M  V30 1934 H 180.852 0.580695 1.31772 0
M  V30 1935 H 182.805 -0.791395 4.13902 0
M  V30 1936 H 181.529 -1.28964 3.0006 0
M  V30 1937 H 180.188 0.760903 3.58617 0
M  V30 1938 H 179.836 -1.37519 4.83836 0
M  V30 1939 H 179.536 0.0415828 5.87585 0
M  V30 1940 H 181.06 -0.875764 6.04287 0
M  V30 1941 H 182.474 1.34646 5.57264 0
M  V30 1942 H 180.871 2.13688 5.60765 0
M  V30 1943 H 181.941 2.39284 4.21748 0
M  V30 1944 N 183.284 -1.43765 0.645699 0
M  V30 1945 C 184.509 -2.06767 0.161883 0
M  V30 1946 C 184.934 -1.48034 -1.16049 0
M  V30 1947 O 184.292 -0.587369 -1.71522 0
M  V30 1948 C 184.34 -3.60519 0.0762003 0
M  V30 1949 O 183.444 -4.00982 -0.963721 0
M  V30 1950 H 182.785 -0.657675 0.091429 0
M  V30 1951 H 185.315 -1.84397 0.886499 0
M  V30 1952 H 185.325 -4.07853 -0.109604 0
M  V30 1953 H 184 -4.02646 1.04157 0
M  V30 1954 H 182.577 -3.65253 -0.751312 0
M  V30 1955 N 184.763 -0.387143 -1.52771 0
M  V30 1956 C 186.009 0.196025 -2.0185 0
M  V30 1957 C 186.342 1.46641 -1.27319 0
M  V30 1958 O 185.617 1.90889 -0.373032 0
M  V30 1959 C 185.9 0.466136 -3.5707 0
M  V30 1960 C 185.753 -0.819385 -4.42274 0
M  V30 1961 C 187.072 1.25768 -4.21747 0
M  V30 1962 H 184.191 0.0697708 -0.73369 0
M  V30 1963 H 186.833 -0.516286 -1.82851 0
M  V30 1964 H 184.983 1.07293 -3.7339 0
M  V30 1965 H 186.655 -1.4563 -4.37709 0
M  V30 1966 H 184.898 -1.43517 -4.09372 0
M  V30 1967 H 185.569 -0.585065 -5.48891 0
M  V30 1968 H 188.045 0.744167 -4.09391 0
M  V30 1969 H 186.921 1.41541 -5.30337 0
M  V30 1970 H 187.182 2.27228 -3.79236 0
M  V30 1971 N 186.241 1.57166 -0.116904 0
M  V30 1972 C 187.204 2.14039 0.819742 0
M  V30 1973 C 188.204 1.07477 1.19605 0
M  V30 1974 O 189.394 1.33263 1.1219 0
M  V30 1975 C 186.526 2.67891 2.10826 0
M  V30 1976 H 187.719 2.98128 0.325511 0
M  V30 1977 H 185.272 1.55739 0.132312 0
M  V30 1978 H 186.007 1.87384 2.64685 0
M  V30 1979 H 185.792 3.45823 1.84793 0
M  V30 1980 H 187.282 3.11809 2.77785 0
M  V30 1981 N 187.719 -0.156864 1.56817 0
M  V30 1982 C 188.967 -0.869404 1.82444 0
M  V30 1983 C 189.288 -1.82147 0.69623 0
M  V30 1984 O 188.558 -1.93847 -0.28287 0
M  V30 1985 H 187.138 -0.324043 0.673056 0
M  V30 1986 H 189.8 -0.153224 1.94297 0
M  V30 1987 H 188.896 -1.43761 2.77019 0
M  V30 1988 N 189.197 -1.51736 -0.425897 0
M  V30 1989 C 190.127 -1.76827 -1.52494 0
M  V30 1990 C 191.108 -0.618524 -1.58456 0
M  V30 1991 O 192.293 -0.862416 -1.74 0
M  V30 1992 C 189.423 -1.90374 -2.90474 0
M  V30 1993 C 188.377 -3.0588 -2.99369 0
M  V30 1994 C 187.703 -3.04625 -4.3944 0
M  V30 1995 C 189.003 -4.45644 -2.72394 0
M  V30 1996 H 190.697 -2.68855 -1.31748 0
M  V30 1997 H 188.243 -1.29372 -0.632362 0
M  V30 1998 H 190.196 -2.0651 -3.6733 0
M  V30 1999 H 188.92 -0.95004 -3.12477 0
M  V30 2000 H 187.579 -2.89467 -2.24954 0
M  V30 2001 H 187.227 -2.0701 -4.58428 0
M  V30 2002 H 186.927 -3.82195 -4.46319 0
M  V30 2003 H 188.451 -3.22869 -5.18255 0
M  V30 2004 H 189.865 -4.62348 -3.38979 0
M  V30 2005 H 188.262 -5.25006 -2.9067 0
M  V30 2006 H 189.332 -4.54893 -1.67929 0
M  V30 2007 N 190.675 0.682077 -1.42076 0
M  V30 2008 C 191.9 1.47558 -1.45744 0
M  V30 2009 C 192.325 1.87977 -0.0680981 0
M  V30 2010 O 191.683 1.55522 0.9318 0
M  V30 2011 C 191.731 2.70575 -2.38373 0
M  V30 2012 O 190.835 3.68573 -1.85007 0
M  V30 2013 H 190.176 0.443585 -0.494093 0
M  V30 2014 H 192.706 0.837238 -1.86686 0
M  V30 2015 H 192.716 3.18729 -2.54707 0
M  V30 2016 H 191.391 2.40495 -3.39315 0
M  V30 2017 H 189.968 3.2757 -1.78192 0
M  V30 2018 N 192.153 1.28127 0.917671 0
M  V30 2019 C 193.116 1.11744 2.00115 0
M  V30 2020 C 194.116 0.0583052 1.60694 0
M  V30 2021 O 195.306 0.303755 1.71531 0
M  V30 2022 C 192.438 0.704862 3.33533 0
M  V30 2023 H 193.631 2.07966 2.16079 0
M  V30 2024 H 191.184 1.11058 1.09981 0
M  V30 2025 H 191.919 -0.258299 3.2327 0
M  V30 2026 H 191.704 1.4699 3.63505 0
M  V30 2027 H 193.194 0.612768 4.1308 0
M  V30 2028 N 193.631 -1.12557 1.10312 0
M  V30 2029 C 194.541 -2.21841 0.763142 0
M  V30 2030 C 195.557 -1.72354 -0.238801 0
M  V30 2031 O 196.733 -2.01249 -0.0778746 0
M  V30 2032 C 193.798 -3.46131 0.198632 0
M  V30 2033 C 192.859 -4.10464 1.25769 0
M  V30 2034 C 192.092 -5.28821 0.72002 0
M  V30 2035 O 192.315 -5.6859 -0.453993 0
M  V30 2036 O 191.249 -5.83437 1.47935 0
M  V30 2037 H 195.075 -2.53312 1.67532 0
M  V30 2038 H 192.66 -1.20867 0.878157 0
M  V30 2039 H 194.542 -4.2125 -0.112401 0
M  V30 2040 H 193.217 -3.16338 -0.686419 0
M  V30 2041 H 192.124 -3.3713 1.62156 0
M  V30 2042 H 193.457 -4.44408 2.11571 0
M  V30 2043 N 195.109 -0.891671 -1.2995 0
M  V30 2044 C 196.525 -0.58662 -1.48428 0
M  V30 2045 C 196.725 0.873951 -1.81561 0
M  V30 2046 O 195.781 1.65471 -1.90724 0
M  V30 2047 C 197.094 -1.50553 -2.60296 0
M  V30 2048 C 198.642 -1.50988 -2.74175 0
M  V30 2049 C 199.117 -2.41488 -3.89163 0
M  V30 2050 N 200.608 -2.39489 -3.96483 0
M  V30 2051 C 201.343 -3.06223 -4.84784 0
M  V30 2052 N 200.839 -3.82206 -5.77833 0
M  V30 2053 N 202.632 -2.95421 -4.78208 0
M  V30 2054 H 194.783 -1.83644 -1.06718 0
M  V30 2055 H 197.046 -0.786455 -0.529332 0
M  V30 2056 H 196.752 -2.54581 -2.42654 0
M  V30 2057 H 196.626 -1.22008 -3.56923 0
M  V30 2058 H 199.013 -0.47708 -2.91218 0
M  V30 2059 H 199.094 -1.83567 -1.78148 0
M  V30 2060 H 198.738 -3.44857 -3.72876 0
M  V30 2061 H 198.668 -2.06222 -4.84541 0
M  V30 2062 H 201.159 -1.84278 -3.29924 0
M  V30 2063 H 201.472 -4.302 -6.41988 0
M  V30 2064 H 199.817 -3.86313 -5.77743 0
M  V30 2065 H 203.008 -2.35581 -4.04499 0
M  V30 2066 H 203.181 -3.47704 -5.46814 0
M  V30 2067 N 196.587 1.43421 -0.653314 0
M  V30 2068 C 197.827 2.03689 -0.170346 0
M  V30 2069 C 198.191 1.50427 1.19314 0
M  V30 2070 O 199.392 2.0234 1.76952 0
M  V30 2071 C 197.663 3.56946 -0.180183 0
M  V30 2072 S 199.222 4.38171 0.234925 0
M  V30 2073 H 196.04 0.707345 -0.0719976 0
M  V30 2074 H 198.642 1.75486 -0.86167 0
M  V30 2075 H 197.346 3.93212 -1.17526 0
M  V30 2076 H 196.877 3.89791 0.531675 0
M  V30 2077 H 198.892 4.73808 1.47378 0
M  V30 2078 N 198.065 0.39524 1.52563 0
M  V30 2079 C 198.995 -0.428384 2.29537 0
M  V30 2080 C 199.976 -1.05831 1.33169 0
M  V30 2081 O 201.161 -1.06995 1.62067 0
M  V30 2082 C 198.291 -1.55274 3.10656 0
M  V30 2083 C 197.245 -1.04855 4.14957 0
M  V30 2084 C 196.571 -2.26543 4.84337 0
M  V30 2085 C 197.871 -0.112324 5.22179 0
M  V30 2086 H 199.565 0.213867 2.98635 0
M  V30 2087 H 197.111 0.104298 1.43622 0
M  V30 2088 H 199.064 -2.1358 3.63265 0
M  V30 2089 H 197.788 -2.22266 2.39302 0
M  V30 2090 H 196.447 -0.487985 3.63338 0
M  V30 2091 H 196.095 -2.92059 4.09525 0
M  V30 2092 H 195.795 -1.93466 5.54837 0
M  V30 2093 H 197.319 -2.85481 5.39753 0
M  V30 2094 H 198.733 -0.603752 5.70112 0
M  V30 2095 H 197.13 0.128968 5.99961 0
M  V30 2096 H 198.2 0.837052 4.77621 0
M  V30 2097 N 199.544 -1.57102 0.125237 0
M  V30 2098 C 200.507 -2.14471 -0.80838 0
M  V30 2099 C 201.507 -1.0811 -1.19033 0
M  V30 2100 O 202.697 -1.33856 -1.11482 0
M  V30 2101 C 199.829 -2.69005 -2.09402 0
M  V30 2102 H 201.022 -2.98297 -0.309696 0
M  V30 2103 H 198.575 -1.55807 -0.124051 0
M  V30 2104 H 199.31 -1.88785 -2.63687 0
M  V30 2105 H 199.095 -3.46799 -1.82957 0
M  V30 2106 H 200.585 -3.13278 -2.76128 0
M  V30 2107 N 201.022 0.148545 -1.56898 0
M  V30 2108 C 202.268 0.862694 -1.83536 0
M  V30 2109 C 202.601 1.80889 -0.706604 0
M  V30 2110 O 201.876 1.92328 0.289885 0
M  V30 2111 C 202.159 1.63853 -3.20662 0
M  V30 2112 C 202.012 0.713925 -4.44098 0
M  V30 2113 C 203.331 2.60133 -3.54991 0
M  V30 2114 H 200.45 0.312179 -0.667618 0
M  V30 2115 H 203.092 0.127953 -1.89569 0
M  V30 2116 H 201.242 2.26489 -3.1565 0
M  V30 2117 H 202.914 0.098686 -4.61194 0
M  V30 2118 H 201.157 0.0234019 -4.33794 0
M  V30 2119 H 201.828 1.29278 -5.36648 0
M  V30 2120 H 204.304 2.07616 -3.60603 0
M  V30 2121 H 203.18 3.11468 -4.51972 0
M  V30 2122 H 203.441 3.41417 -2.80868 0
M  V30 2123 N 202.5 1.5196 0.417844 0
M  V30 2124 C 203.74 1.67262 1.17486 0
M  V30 2125 C 204.104 0.38983 1.88001 0
M  V30 2126 O 205.305 0.418845 2.65517 0
M  V30 2127 C 203.576 2.85526 2.14965 0
M  V30 2128 S 205.135 3.21263 2.98891 0
M  V30 2129 H 201.953 0.589077 0.398132 0
M  V30 2130 H 204.555 1.89927 0.463452 0
M  V30 2131 H 203.259 3.77145 1.61833 0
M  V30 2132 H 202.79 2.65107 2.90657 0
M  V30 2133 H 204.805 2.69208 4.16823 0
M  V30 2134 N 203.978 -0.674533 1.42435 0
M  V30 2135 C 204.91 -1.80005 1.41883 0
M  V30 2136 C 205.923 -1.59667 0.31787 0
M  V30 2137 O 207.112 -1.68781 0.580973 0
M  V30 2138 C 204.212 -3.17114 1.19549 0
M  V30 2139 C 203.385 -3.64299 2.42084 0
M  V30 2140 C 202.444 -4.80142 2.15291 0
M  V30 2141 O 201.47 -4.90673 2.88493 0
M  V30 2142 N 202.672 -5.68869 1.1562 0
M  V30 2143 H 205.437 -1.80964 2.38898 0
M  V30 2144 H 202.998 -0.857633 1.37318 0
M  V30 2145 H 204.99 -3.92267 0.995417 0
M  V30 2146 H 203.56 -3.11053 0.310569 0
M  V30 2147 H 202.78 -2.79822 2.77657 0
M  V30 2148 H 204.068 -3.92567 3.23679 0
M  V30 2149 H 203.466 -5.63012 0.550765 0
M  V30 2150 H 202.023 -6.43833 1.016 0
M  V30 2151 N 205.456 -1.28612 -0.910864 0
M  V30 2152 C 206.867 -1.14406 -1.47541 0
M  V30 2153 C 207.218 0.264901 -1.94403 0
M  V30 2154 O 206.343 1.15942 -1.82719 0
M  V30 2155 C 206.938 -2.07073 -2.68153 0
M  V30 2156 C 205.497 -1.96923 -3.20778 0
M  V30 2157 C 204.644 -1.98646 -1.93481 0
M  V30 2158 H 207.595 -1.41259 -0.723291 0
M  V30 2159 H 207.616 -1.63642 -3.43514 0
M  V30 2160 H 207.128 -3.09611 -2.34015 0
M  V30 2161 H 205.229 -0.97433 -3.59635 0
M  V30 2162 H 205.342 -2.84026 -3.85832 0
M  V30 2163 H 203.706 -1.43093 -2.10705 0
M  V30 2164 H 204.489 -3.02868 -1.61634 0
M  V30 2165 N 206.934 1.1197 -1.10907 0
M  V30 2166 C 207.864 2.19928 -0.784473 0
M  V30 2167 C 208.845 1.6833 0.244726 0
M  V30 2168 O 210.03 1.93892 0.109418 0
M  V30 2169 C 207.16 3.46597 -0.220827 0
M  V30 2170 C 206.114 4.11376 -1.18127 0
M  V30 2171 C 205.44 5.32554 -0.478594 0
M  V30 2172 C 206.74 4.56945 -2.52979 0
M  V30 2173 H 208.434 2.47337 -1.68715 0
M  V30 2174 H 205.98 1.18879 -0.812642 0
M  V30 2175 H 207.933 4.21396 0.0184278 0
M  V30 2176 H 206.657 3.1863 0.717113 0
M  V30 2177 H 205.316 3.38564 -1.40606 0
M  V30 2178 H 204.964 5.00856 0.463976 0
M  V30 2179 H 204.664 5.76844 -1.11912 0
M  V30 2180 H 206.188 6.10096 -0.248 0
M  V30 2181 H 207.602 5.23093 -2.3462 0
M  V30 2182 H 205.999 5.1203 -3.12962 0
M  V30 2183 H 207.069 3.70676 -3.12614 0
M  V30 2184 N 208.412 0.89855 1.29475 0
M  V30 2185 C 209.828 0.594483 1.48115 0
M  V30 2186 C 210.028 -0.86431 1.82022 0
M  V30 2187 O 209.084 -1.64457 1.91599 0
M  V30 2188 C 210.397 1.51932 2.59494 0
M  V30 2189 C 211.945 1.5244 2.7337 0
M  V30 2190 C 212.42 2.43548 3.87877 0
M  V30 2191 N 213.911 2.41589 3.95208 0
M  V30 2192 C 214.646 3.08789 4.83153 0
M  V30 2193 N 214.142 3.85265 5.75798 0
M  V30 2194 N 215.935 2.97952 4.76635 0
M  V30 2195 H 208.086 1.84207 1.05742 0
M  V30 2196 H 210.349 0.789251 0.525154 0
M  V30 2197 H 210.055 2.55865 2.41301 0
M  V30 2198 H 209.929 1.23899 3.56271 0
M  V30 2199 H 212.316 0.492518 2.90961 0
M  V30 2200 H 212.397 1.8451 1.77172 0
M  V30 2201 H 212.041 3.46829 3.71041 0
M  V30 2202 H 211.971 2.08788 4.83441 0
M  V30 2203 H 214.462 1.86025 3.28943 0
M  V30 2204 H 214.775 4.33598 6.39697 0
M  V30 2205 H 213.12 3.89371 5.75687 0
M  V30 2206 H 216.311 2.37723 4.03244 0
M  V30 2207 H 216.484 3.50599 5.44962 0
M  V30 2208 N 209.89 -1.43072 0.660911 0
M  V30 2209 C 210.853 -2.29194 -0.0166406 0
M  V30 2210 C 211.853 -1.42609 -0.742912 0
M  V30 2211 O 213.043 -1.64155 -0.583004 0
M  V30 2212 C 210.175 -3.24831 -1.0343 0
M  V30 2213 H 211.368 -2.90596 0.741208 0
M  V30 2214 H 208.921 -1.5048 0.422532 0
M  V30 2215 H 209.656 -2.68339 -1.82111 0
M  V30 2216 H 209.441 -3.88676 -0.517082 0
M  V30 2217 H 210.931 -3.89451 -1.50723 0
M  V30 2218 N 211.368 -0.403325 -1.52352 0
M  V30 2219 C 212.784 -0.0539281 -1.59509 0
M  V30 2220 C 212.984 1.43307 -1.41652 0
M  V30 2221 O 212.04 2.19924 -1.24056 0
M  V30 2222 C 213.353 -0.543654 -2.95745 0
M  V30 2223 C 214.901 -0.501125 -3.08962 0
M  V30 2224 C 215.376 -0.967267 -4.47669 0
M  V30 2225 N 216.867 -0.923849 -4.53893 0
M  V30 2226 C 217.602 -1.25578 -5.5948 0
M  V30 2227 N 217.098 -1.65889 -6.72646 0
M  V30 2228 N 218.891 -1.17613 -5.49658 0
M  V30 2229 H 211.042 -1.37123 -1.62206 0
M  V30 2230 H 213.305 -0.56294 -0.76276 0
M  V30 2231 H 213.011 -1.58275 -3.14073 0
M  V30 2232 H 212.885 0.0498042 -3.77167 0
M  V30 2233 H 215.272 0.528909 -2.90321 0
M  V30 2234 H 215.353 -1.13056 -2.2946 0
M  V30 2235 H 214.997 -1.9956 -4.67053 0
M  V30 2236 H 214.927 -0.314698 -5.25659 0
M  V30 2237 H 217.418 -0.627403 -3.72655 0
M  V30 2238 H 217.731 -1.89543 -7.49195 0
M  V30 2239 H 216.076 -1.69787 -6.73942 0
M  V30 2240 H 219.267 -0.860115 -4.6013 0
M  V30 2241 H 219.44 -1.43812 -6.3184 0
M  V30 2242 N 212.846 1.57033 -0.133567 0
M  V30 2243 C 214.071 2.00475 0.531477 0
M  V30 2244 C 214.496 1.01291 1.58499 0
M  V30 2245 O 213.854 -0.0133279 1.81295 0
M  V30 2246 C 213.902 3.42729 1.12113 0
M  V30 2247 O 213.006 3.46498 2.23636 0
M  V30 2248 H 212.347 0.650876 0.131362 0
M  V30 2249 H 214.877 2.03344 -0.22634 0
M  V30 2250 H 214.887 3.81246 1.4531 0
M  V30 2251 H 213.562 4.14428 0.349557 0
M  V30 2252 H 212.139 3.19811 1.91769 0
M  V30 2253 N 214.325 -0.140222 1.56975 0
M  V30 2254 C 215.255 -1.17456 2.01808 0
M  V30 2255 C 216.236 -1.44415 0.898794 0
M  V30 2256 O 217.421 -1.5522 1.16707 0
M  V30 2257 C 214.551 -2.50607 2.40444 0
M  V30 2258 C 213.505 -2.38155 3.55621 0
M  V30 2259 C 212.831 -3.76078 3.80091 0
M  V30 2260 C 214.131 -1.85991 4.88062 0
M  V30 2261 H 215.825 -0.801743 2.88466 0
M  V30 2262 H 213.371 -0.38422 1.38779 0
M  V30 2263 H 215.324 -3.23197 2.7041 0
M  V30 2264 H 214.048 -2.89737 1.50732 0
M  V30 2265 H 212.707 -1.68016 3.25832 0
M  V30 2266 H 212.355 -4.12656 2.87618 0
M  V30 2267 H 212.055 -3.68606 4.57606 0
M  V30 2268 H 213.579 -4.50206 4.12488 0
M  V30 2269 H 214.993 -2.4838 5.16701 0
M  V30 2270 H 213.39 -1.89393 5.6943 0
M  V30 2271 H 214.46 -0.816023 4.77984 0
M  V30 2272 N 215.803 -1.52179 -0.40978 0
M  V30 2273 C 216.733 -1.78435 -1.5061 0
M  V30 2274 C 217.714 -0.635295 -1.57791 0
M  V30 2275 O 218.899 -0.880823 -1.73076 0
M  V30 2276 C 216.029 -1.93444 -2.88439 0
M  V30 2277 C 214.983 -3.09038 -2.96108 0
M  V30 2278 C 214.309 -3.09268 -4.36185 0
M  V30 2279 C 215.609 -4.48508 -2.67652 0
M  V30 2280 H 217.303 -2.70237 -1.28889 0
M  V30 2281 H 214.849 -1.30036 -0.618605 0
M  V30 2282 H 216.802 -2.10394 -3.65119 0
M  V30 2283 H 215.526 -0.983129 -3.11452 0
M  V30 2284 H 214.185 -2.91837 -2.21872 0
M  V30 2285 H 213.833 -2.11861 -4.56206 0
M  V30 2286 H 213.533 -3.86907 -4.42241 0
M  V30 2287 H 215.057 -3.28348 -5.14801 0
M  V30 2288 H 216.471 -4.65918 -3.34056 0
M  V30 2289 H 214.868 -5.28059 -2.85085 0
M  V30 2290 H 215.938 -4.56649 -1.63095 0
M  V30 2291 N 217.281 0.66697 -1.42791 0
M  V30 2292 C 218.509 1.45505 -1.47091 0
M  V30 2293 C 218.924 1.8861 -0.0845873 0
M  V30 2294 O 218.281 1.58632 0.90234 0
M  V30 2295 C 218.332 2.69906 -2.40485 0
M  V30 2296 O 218.053 2.28608 -3.73725 0
M  V30 2297 C 219.554 3.63396 -2.53886 0
M  V30 2298 H 216.774 0.447459 -0.500022 0
M  V30 2299 H 219.318 0.818866 -1.8739 0
M  V30 2300 H 217.473 3.29696 -2.03419 0
M  V30 2301 H 217.887 3.08997 -4.23817 0
M  V30 2302 H 219.361 4.47387 -3.2334 0
M  V30 2303 H 219.838 4.09824 -1.57927 0
M  V30 2304 H 220.444 3.09495 -2.91706 0
M  V30 2305 N 218.759 1.29093 0.90403 0
M  V30 2306 C 220.17 1.15186 1.46932 0
M  V30 2307 C 220.521 -0.254587 1.94541 0
M  V30 2308 O 219.646 -1.14972 1.83332 0
M  V30 2309 C 220.241 2.08492 2.67051 0
M  V30 2310 C 218.8 1.98621 3.19729 0
M  V30 2311 C 217.947 1.9967 1.92425 0
M  V30 2312 H 220.898 1.41641 0.715789 0
M  V30 2313 H 220.919 1.65461 3.42641 0
M  V30 2314 H 220.431 3.10847 2.3237 0
M  V30 2315 H 218.532 0.993389 3.59114 0
M  V30 2316 H 218.645 2.86068 3.8432 0
M  V30 2317 H 217.009 1.44208 2.09943 0
M  V30 2318 H 217.792 3.03721 1.60026 0
M  V30 2319 N 220.237 -1.11381 1.11499 0
M  V30 2320 C 221.653 -1.35143 0.849031 0
M  V30 2321 C 221.853 -1.94515 -0.525938 0
M  V30 2322 O 220.909 -2.1785 -1.27662 0
M  V30 2323 C 222.222 -2.28249 1.95762 0
M  V30 2324 C 223.77 -2.41812 1.98736 0
M  V30 2325 C 224.245 -3.3824 3.088 0
M  V30 2326 N 225.736 -3.45803 3.08179 0
M  V30 2327 C 226.471 -4.20358 3.89982 0
M  V30 2328 N 225.967 -4.97884 4.8175 0
M  V30 2329 N 227.76 -4.15877 3.78157 0
M  V30 2330 H 219.911 -0.712062 2.00109 0
M  V30 2331 H 222.174 -0.376025 0.870235 0
M  V30 2332 H 221.88 -1.91817 2.94787 0
M  V30 2333 H 221.754 -3.28473 1.85433 0
M  V30 2334 H 224.141 -2.77518 1.00338 0
M  V30 2335 H 224.222 -1.41437 2.13141 0
M  V30 2336 H 223.866 -3.03261 4.07425 0
M  V30 2337 H 223.796 -4.38471 2.91635 0
M  V30 2338 H 226.287 -2.90506 2.41691 0
M  V30 2339 H 226.6 -5.52142 5.40702 0
M  V30 2340 H 224.945 -4.97043 4.85771 0
M  V30 2341 H 228.136 -3.544 3.05808 0
M  V30 2342 H 228.309 -4.73723 4.42143 0
M  V30 2343 N 221.715 -0.905404 -1.28997 0
M  V30 2344 C 223.131 -0.60233 -1.47798 0
M  V30 2345 C 223.331 0.854645 -1.82478 0
M  V30 2346 O 222.387 1.63439 -1.92468 0
M  V30 2347 C 223.7 -1.53306 -2.58685 0
M  V30 2348 C 225.248 -1.53887 -2.72558 0
M  V30 2349 C 225.723 -2.45602 -3.86579 0
M  V30 2350 N 227.214 -2.43681 -3.93921 0
M  V30 2351 C 227.949 -3.11347 -4.81509 0
M  V30 2352 N 227.445 -3.88313 -5.73746 0
M  V30 2353 N 229.238 -3.00476 -4.75048 0
M  V30 2354 H 221.389 -1.84765 -1.04764 0
M  V30 2355 H 223.652 -0.792025 -0.520961 0
M  V30 2356 H 223.358 -2.57141 -2.39941 0
M  V30 2357 H 223.232 -1.25787 -3.55609 0
M  V30 2358 H 225.619 -0.507941 -2.90696 0
M  V30 2359 H 225.7 -1.85447 -1.76191 0
M  V30 2360 H 225.344 -3.48792 -3.69197 0
M  V30 2361 H 225.274 -2.11349 -4.82327 0
M  V30 2362 H 227.765 -1.87767 -3.27951 0
M  V30 2363 H 228.078 -4.36985 -6.37389 0
M  V30 2364 H 226.423 -3.92419 -5.73614 0
M  V30 2365 H 229.614 -2.39858 -4.01977 0
M  V30 2366 H 229.787 -3.53485 -5.43095 0
M  V30 2367 N 223.193 1.4272 -0.668489 0
M  V30 2368 C 224.421 2.05966 -0.196348 0
M  V30 2369 C 224.836 1.50191 1.14403 0
M  V30 2370 O 224.193 0.639208 1.7094 0
M  V30 2371 C 224.244 3.61314 -0.115815 0
M  V30 2372 O 223.965 4.1502 -1.40322 0
M  V30 2373 C 225.466 4.41663 0.380579 0
M  V30 2374 H 222.686 0.663954 -0.0969829 0
M  V30 2375 H 225.23 1.82966 -0.913446 0
M  V30 2376 H 223.385 3.83448 0.551931 0
M  V30 2377 H 223.799 5.08832 -1.27243 0
M  V30 2378 H 225.273 5.5065 0.385848 0
M  V30 2379 H 225.75 4.15792 1.41471 0
M  V30 2380 H 226.356 4.24534 -0.255209 0
M  V30 2381 N 224.671 0.411399 1.52136 0
M  V30 2382 C 226.087 0.0623865 1.59478 0
M  V30 2383 C 226.287 -1.42554 1.4241 0
M  V30 2384 O 225.343 -2.19263 1.2522 0
M  V30 2385 C 226.656 0.559331 2.95452 0
M  V30 2386 C 228.204 0.517503 3.08692 0
M  V30 2387 C 228.679 0.990994 4.4715 0
M  V30 2388 N 230.17 0.947908 4.53397 0
M  V30 2389 C 230.905 1.28544 5.58806 0
M  V30 2390 N 230.401 1.69454 6.71757 0
M  V30 2391 N 232.194 1.20526 5.49026 0
M  V30 2392 H 224.345 1.37982 1.61477 0
M  V30 2393 H 226.608 0.566977 0.759764 0
M  V30 2394 H 226.314 1.59938 3.1323 0
M  V30 2395 H 226.188 -0.0298014 3.77188 0
M  V30 2396 H 228.575 -0.513505 2.90598 0
M  V30 2397 H 228.656 1.14272 2.28857 0
M  V30 2398 H 228.3 2.02034 4.65988 0
M  V30 2399 H 228.23 0.34257 5.25485 0
M  V30 2400 H 230.721 0.647157 3.72317 0
M  V30 2401 H 231.034 1.93513 7.48179 0
M  V30 2402 H 229.379 1.73359 6.73032 0
M  V30 2403 H 232.57 0.884505 4.59667 0
M  V30 2404 H 232.743 1.47161 6.31069 0
M  V30 2405 N 226.149 -1.5696 0.141893 0
M  V30 2406 C 227.395 -1.97034 -0.504884 0
M  V30 2407 C 227.75 -1.02518 -1.62812 0
M  V30 2408 O 227.043 -0.0592943 -1.91508 0
M  V30 2409 C 227.237 -3.41242 -1.06249 0
M  V30 2410 C 227.066 -4.497 0.00519653 0
M  V30 2411 C 225.836 -5.03338 0.444873 0
M  V30 2412 C 228.034 -5.08122 0.794767 0
M  V30 2413 N 226.016 -5.95395 1.49593 0
M  V30 2414 C 227.387 -5.96339 1.69645 0
M  V30 2415 C 229.442 -4.9071 0.843122 0
M  V30 2416 C 228.145 -6.69009 2.64233 0
M  V30 2417 C 230.171 -5.64077 1.77681 0
M  V30 2418 C 229.533 -6.51999 2.66603 0
M  V30 2419 H 225.632 -0.766745 -0.153707 0
M  V30 2420 H 228.216 -1.93273 0.235313 0
M  V30 2421 H 226.387 -3.45606 -1.77231 0
M  V30 2422 H 228.119 -3.68389 -1.67546 0
M  V30 2423 H 224.874 -4.73576 0.0480959 0
M  V30 2424 H 225.298 -6.46128 2.02107 0
M  V30 2425 H 229.94 -4.22459 0.169732 0
M  V30 2426 H 227.658 -7.36492 3.32575 0
M  V30 2427 H 231.244 -5.52602 1.81996 0
M  V30 2428 H 230.124 -7.07775 3.37675 0
M  V30 2429 N 227.627 0.131896 -1.57047 0
M  V30 2430 C 228.557 1.16384 -2.02428 0
M  V30 2431 C 229.538 1.43936 -0.90644 0
M  V30 2432 O 230.723 1.54599 -1.17528 0
M  V30 2433 C 227.853 2.49328 -2.4177 0
M  V30 2434 C 226.807 2.36266 -3.56879 0
M  V30 2435 C 226.133 3.74057 -3.8208 0
M  V30 2436 C 227.433 1.834 -4.89042 0
M  V30 2437 H 229.127 0.786433 -2.88887 0
M  V30 2438 H 226.673 0.376855 -1.38981 0
M  V30 2439 H 228.626 3.21759 -2.7212 0
M  V30 2440 H 227.35 2.88934 -1.52266 0
M  V30 2441 H 226.009 1.66286 -3.26718 0
M  V30 2442 H 225.657 4.11125 -2.89803 0
M  V30 2443 H 225.357 3.66174 -4.59554 0
M  V30 2444 H 226.881 4.48012 -4.1487 0
M  V30 2445 H 228.295 2.45636 -5.18011 0
M  V30 2446 H 226.692 1.8637 -5.70426 0
M  V30 2447 H 227.762 0.790662 -4.7841 0
M  V30 2448 N 229.106 1.52395 0.401703 0
M  V30 2449 C 230.352 1.67065 1.14966 0
M  V30 2450 C 230.685 0.403052 1.89971 0
M  V30 2451 O 229.96 -0.598774 1.85054 0
M  V30 2452 C 230.243 2.8975 2.13815 0
M  V30 2453 C 230.096 4.26578 1.42658 0
M  V30 2454 C 231.415 3.07965 3.14397 0
M  V30 2455 H 228.534 0.607968 0.416587 0
M  V30 2456 H 231.176 1.84965 0.434511 0
M  V30 2457 H 229.326 2.74619 2.74803 0
M  V30 2458 H 230.998 4.53451 0.847329 0
M  V30 2459 H 229.241 4.27639 0.72849 0
M  V30 2460 H 229.912 5.08483 2.14823 0
M  V30 2461 H 232.388 3.22043 2.63491 0
M  V30 2462 H 231.264 3.95308 3.80819 0
M  V30 2463 H 231.525 2.21611 3.82545 0
M  V30 2464 N 230.584 -0.659388 1.43143 0
M  V30 2465 C 231.547 -1.75432 1.47501 0
M  V30 2466 C 232.547 -1.56707 0.360512 0
M  V30 2467 O 233.737 -1.62717 0.622002 0
M  V30 2468 C 230.869 -3.14239 1.32162 0
M  V30 2469 H 232.062 -1.7295 2.45006 0
M  V30 2470 H 229.615 -0.870469 1.29817 0
M  V30 2471 H 230.35 -3.22336 0.356401 0
M  V30 2472 H 230.135 -3.29235 2.12948 0
M  V30 2473 H 231.625 -3.94094 1.3813 0
M  V30 2474 N 232.062 -1.29571 -0.897171 0
M  V30 2475 C 232.992 -1.17473 -2.01798 0
M  V30 2476 C 233.973 -0.068323 -1.69963 0
M  V30 2477 O 235.158 -0.248239 -1.92607 0
M  V30 2478 C 232.288 -0.853099 -3.36659 0
M  V30 2479 C 231.242 -1.9161 -3.82713 0
M  V30 2480 C 230.568 -1.44773 -5.14728 0
M  V30 2481 C 231.868 -3.32535 -4.02763 0
M  V30 2482 H 233.562 -2.11237 -2.12177 0
M  V30 2483 H 231.108 -1.01699 -1.01948 0
M  V30 2484 H 233.061 -0.755165 -4.14578 0
M  V30 2485 H 231.785 0.120236 -3.26379 0
M  V30 2486 H 230.444 -2.00346 -3.07013 0
M  V30 2487 H 230.092 -0.462995 -5.00865 0
M  V30 2488 H 229.792 -2.15865 -5.46513 0
M  V30 2489 H 231.316 -1.36334 -5.95185 0
M  V30 2490 H 232.73 -3.26626 -4.71156 0
M  V30 2491 H 231.127 -4.01607 -4.45905 0
M  V30 2492 H 232.197 -3.75326 -3.07016 0
M  V30 2493 N 233.54 1.10788 -1.12088 0
M  V30 2494 C 234.765 1.87002 -0.896949 0
M  V30 2495 C 235.19 1.79933 0.548261 0
M  V30 2496 O 234.548 1.16662 1.38779 0
M  V30 2497 C 234.596 3.3349 -1.37174 0
M  V30 2498 O 233.7 4.08745 -0.547831 0
M  V30 2499 H 233.041 0.580397 -0.322545 0
M  V30 2500 H 235.571 1.39996 -1.49206 0
M  V30 2501 H 235.581 3.84339 -1.36922 0
M  V30 2502 H 234.256 3.37951 -2.42408 0
M  V30 2503 H 232.833 3.6776 -0.617034 0
M  V30 2504 N 235.018 0.912232 1.28515 0
M  V30 2505 C 236.264 0.554851 1.95686 0
M  V30 2506 C 236.619 -0.89138 1.70506 0
M  V30 2507 O 235.912 -1.62529 1.01464 0
M  V30 2508 C 236.106 0.798392 3.48368 0
M  V30 2509 C 235.935 2.26674 3.88393 0
M  V30 2510 C 234.705 2.91657 4.12631 0
M  V30 2511 C 236.903 3.24303 3.99164 0
M  V30 2512 N 234.885 4.28805 4.39317 0
M  V30 2513 C 236.256 4.4661 4.30046 0
M  V30 2514 C 238.311 3.19723 3.81683 0
M  V30 2515 C 237.014 5.64915 4.45268 0
M  V30 2516 C 239.04 4.37325 3.98121 0
M  V30 2517 C 238.402 5.58406 4.29375 0
M  V30 2518 H 234.501 0.252876 0.739985 0
M  V30 2519 H 237.085 1.17565 1.55199 0
M  V30 2520 H 235.256 0.20688 3.87849 0
M  V30 2521 H 236.988 0.405193 4.02666 0
M  V30 2522 H 233.743 2.42393 4.06869 0
M  V30 2523 H 234.167 4.99712 4.56746 0
M  V30 2524 H 238.809 2.27191 3.56573 0
M  V30 2525 H 236.527 6.57927 4.6921 0
M  V30 2526 H 240.113 4.35282 3.86033 0
M  V30 2527 H 238.993 6.47889 4.41825 0
M  V30 2528 N 236.496 -1.42363 0.676048 0
M  V30 2529 C 237.459 -2.29199 0.00766941 0
M  V30 2530 C 238.459 -1.43389 -0.727745 0
M  V30 2531 O 239.649 -1.64764 -0.56556 0
M  V30 2532 C 236.781 -3.2591 -0.999785 0
M  V30 2533 H 237.974 -2.89794 0.771988 0
M  V30 2534 H 235.527 -1.50024 0.438468 0
M  V30 2535 H 236.262 -2.70256 -1.79255 0
M  V30 2536 H 236.047 -3.89202 -0.475829 0
M  V30 2537 H 237.537 -3.91028 -1.46583 0
M  V30 2538 N 237.974 -0.419461 -1.51915 0
M  V30 2539 C 238.937 0.389116 -2.25873 0
M  V30 2540 C 239.937 0.964924 -1.28631 0
M  V30 2541 O 241.127 0.842179 -1.52489 0
M  V30 2542 C 238.259 1.54874 -3.03689 0
M  V30 2543 H 239.452 -0.258799 -2.98781 0
M  V30 2544 H 237.005 -0.172209 -1.55348 0
M  V30 2545 H 237.74 2.23323 -2.35154 0
M  V30 2546 H 237.525 1.14223 -3.75094 0
M  V30 2547 H 239.015 2.12046 -3.59759 0
M  V30 2548 N 239.452 1.56882 -0.150215 0
M  V30 2549 C 240.677 2.01027 0.510184 0
M  V30 2550 C 241.102 1.02966 1.57415 0
M  V30 2551 O 240.46 0.00590158 1.81299 0
M  V30 2552 C 240.508 3.43899 1.08472 0
M  V30 2553 O 239.612 3.4885 2.19948 0
M  V30 2554 H 238.953 0.652233 0.124451 0
M  V30 2555 H 241.483 2.03093 -0.247894 0
M  V30 2556 H 241.493 3.82766 1.41259 0
M  V30 2557 H 240.168 4.14776 0.305582 0
M  V30 2558 H 238.745 3.21827 1.88366 0
M  V30 2559 N 240.93 -0.123565 1.57115 0
M  V30 2560 C 241.86 -1.15309 2.03042 0
M  V30 2561 C 242.841 -1.43454 0.914061 0
M  V30 2562 O 244.026 -1.53973 1.18347 0
M  V30 2563 C 241.156 -2.48043 2.43089 0
M  V30 2564 C 240.11 -2.3437 3.58127 0
M  V30 2565 C 239.436 -3.72026 3.84059 0
M  V30 2566 C 240.736 -1.80804 4.90007 0
M  V30 2567 H 242.43 -0.771102 2.893 0
M  V30 2568 H 239.976 -0.369479 1.39179 0
M  V30 2569 H 241.929 -3.20311 2.73823 0
M  V30 2570 H 240.653 -2.88122 1.53796 0
M  V30 2571 H 239.312 -1.64551 3.27595 0
M  V30 2572 H 238.96 -4.09582 2.91979 0
M  V30 2573 H 238.66 -3.63732 4.6149 0
M  V30 2574 H 240.184 -4.45806 4.1724 0
M  V30 2575 H 241.598 -2.42886 5.19307 0
M  V30 2576 H 239.995 -1.83343 5.71407 0
M  V30 2577 H 241.065 -0.76528 4.78823 0
M  V30 2578 N 242.408 -1.52605 -0.393616 0
M  V30 2579 C 243.656 -1.67093 -1.13685 0
M  V30 2580 C 243.977 -0.411011 -1.90619 0
M  V30 2581 O 243.247 0.574491 -1.87287 0
M  V30 2582 H 241.827 -0.615923 -0.422668 0
M  V30 2583 H 244.489 -1.89704 -0.447039 0
M  V30 2584 H 243.585 -2.51922 -1.84232 0
M  V30 2585 N 243.887 0.651787 -1.4349 0
M  V30 2586 C 244.817 1.77621 -1.51569 0
M  V30 2587 C 245.798 1.66022 -0.370253 0
M  V30 2588 O 246.983 1.85095 -0.587658 0
M  V30 2589 C 244.113 3.16056 -1.43966 0
M  V30 2590 C 243.067 3.4242 -2.56774 0
M  V30 2591 C 242.393 4.8067 -2.34223 0
M  V30 2592 C 243.693 3.37023 -3.99015 0
M  V30 2593 H 245.387 1.71117 -2.45681 0
M  V30 2594 H 242.933 0.821825 -1.18246 0
M  V30 2595 H 244.886 3.94472 -1.48221 0
M  V30 2596 H 243.61 3.23293 -0.463586 0
M  V30 2597 H 242.269 2.66375 -2.51873 0
M  V30 2598 H 241.917 4.84585 -1.34856 0
M  V30 2599 H 241.617 4.9927 -3.09844 0
M  V30 2600 H 243.141 5.61342 -2.40265 0
M  V30 2601 H 244.555 4.05374 -4.05395 0
M  V30 2602 H 242.952 3.67159 -4.74673 0
M  V30 2603 H 244.022 2.3518 -4.2405 0
M  V30 2604 N 245.365 1.30045 0.890287 0
M  V30 2605 C 246.328 1.15963 1.977 0
M  V30 2606 C 247.328 0.0923777 1.60534 0
M  V30 2607 O 248.518 0.340071 1.70848 0
M  V30 2608 C 245.65 0.775451 3.31963 0
M  V30 2609 H 246.843 2.12502 2.11619 0
M  V30 2610 H 244.396 1.13366 1.07601 0
M  V30 2611 H 245.131 -0.189671 3.23745 0
M  V30 2612 H 244.916 1.54668 3.60306 0
M  V30 2613 H 246.406 0.700251 4.11687 0
M  V30 2614 N 246.843 -1.10192 1.12674 0
M  V30 2615 C 247.773 -2.18652 0.819362 0
M  V30 2616 C 248.754 -1.68698 -0.217915 0
M  V30 2617 O 249.939 -1.94041 -0.0785581 0
M  V30 2618 C 247.069 -3.46202 0.27594 0
M  V30 2619 C 246.023 -4.09444 1.24656 0
M  V30 2620 C 245.349 -5.31725 0.563258 0
M  V30 2621 C 246.649 -4.52863 2.60217 0
M  V30 2622 H 248.343 -2.44622 1.72628 0
M  V30 2623 H 245.889 -1.17571 0.831451 0
M  V30 2624 H 247.842 -4.21372 0.0486149 0
M  V30 2625 H 246.566 -3.1973 -0.666331 0
M  V30 2626 H 245.225 -3.36284 1.45974 0
M  V30 2627 H 244.873 -5.0153 -0.384235 0
M  V30 2628 H 244.573 -5.74991 1.21075 0
M  V30 2629 H 246.097 -6.09624 0.34503 0
M  V30 2630 H 247.511 -5.19294 2.42913 0
M  V30 2631 H 245.908 -5.06986 3.21068 0
M  V30 2632 H 246.978 -3.65656 3.18471 0
M  V30 2633 N 248.321 -0.919034 -1.28029 0
M  V30 2634 C 249.732 -0.600735 -1.76771 0
M  V30 2635 C 250.083 0.884024 -1.75156 0
M  V30 2636 O 249.208 1.69163 -1.34956 0
M  V30 2637 C 249.803 -1.08372 -3.21 0
M  V30 2638 C 248.362 -0.816248 -3.67443 0
M  V30 2639 C 247.509 -1.24742 -2.47658 0
M  V30 2640 H 250.46 -1.09974 -1.14418 0
M  V30 2641 H 250.481 -0.427512 -3.78091 0
M  V30 2642 H 249.993 -2.16437 -3.22144 0
M  V30 2643 H 248.094 0.250968 -3.71754 0
M  V30 2644 H 248.207 -1.4277 -4.57333 0
M  V30 2645 H 246.571 -0.666083 -2.45836 0
M  V30 2646 H 247.354 -2.33653 -2.51518 0
M  V30 2647 N 249.799 1.42003 -0.683588 0
M  V30 2648 C 250.732 2.28166 0.039592 0
M  V30 2649 C 251.71 1.41562 0.799942 0
M  V30 2650 O 252.894 1.70997 0.793248 0
M  V30 2651 C 250.021 3.21575 1.06335 0
M  V30 2652 C 249.067 4.24643 0.397562 0
M  V30 2653 S 249.9 5.2869 -0.851296 0
M  V30 2654 C 251.056 6.25666 0.171166 0
M  V30 2655 H 251.289 2.89153 -0.691229 0
M  V30 2656 H 248.822 1.46962 -0.473435 0
M  V30 2657 H 250.78 3.75928 1.6489 0
M  V30 2658 H 249.441 2.59707 1.76667 0
M  V30 2659 H 248.634 4.90223 1.17035 0
M  V30 2660 H 248.236 3.73824 -0.114611 0
M  V30 2661 H 250.528 6.69653 1.02819 0
M  V30 2662 H 251.471 7.06666 -0.450397 0
M  V30 2663 H 251.879 5.62095 0.520578 0
M  V30 2664 N 251.277 0.427512 1.51691 0
M  V30 2665 C 252.24 -0.377132 2.26076 0
M  V30 2666 C 253.24 -0.958089 1.29141 0
M  V30 2667 O 254.43 -0.83408 1.52934 0
M  V30 2668 C 251.562 -1.53262 3.04506 0
M  V30 2669 H 252.755 0.27464 2.9864 0
M  V30 2670 H 250.308 0.180445 1.55255 0
M  V30 2671 H 251.043 -2.22072 2.36335 0
M  V30 2672 H 250.828 -1.12232 3.75694 0
M  V30 2673 H 252.318 -2.10135 3.60878 0
M  V30 2674 N 252.755 -1.56801 0.158532 0
M  V30 2675 C 254.001 -1.96781 -0.490405 0
M  V30 2676 C 254.334 -1.04397 -1.63753 0
M  V30 2677 O 253.609 -0.0885805 -1.94298 0
M  V30 2678 C 253.892 -3.4635 -0.985594 0
M  V30 2679 C 253.745 -4.49512 0.160824 0
M  V30 2680 C 255.064 -3.98697 -1.86355 0
M  V30 2681 H 252.183 -0.715482 -0.176788 0
M  V30 2682 H 254.825 -1.88451 0.242088 0
M  V30 2683 H 252.975 -3.53579 -1.60978 0
M  V30 2684 H 254.647 -4.54353 0.797537 0
M  V30 2685 H 252.89 -4.26013 0.818256 0
M  V30 2686 H 253.561 -5.51531 -0.227569 0
M  V30 2687 H 256.037 -3.94019 -1.33746 0
M  V30 2688 H 254.913 -5.03792 -2.17909 0
M  V30 2689 H 255.174 -3.41744 -2.8047 0
M  V30 2690 N 254.233 0.115231 -1.57178 0
M  V30 2691 C 255.482 0.820945 -1.84237 0
M  V30 2692 C 255.795 1.80866 -0.744761 0
M  V30 2693 O 257.001 2.56083 -0.901871 0
M  V30 2694 C 255.457 1.51072 -3.26658 0
M  V30 2695 C 255.065 0.563795 -4.44438 0
M  V30 2696 C 256.809 2.20134 -3.62962 0
M  V30 2697 C 254.716 1.25701 -5.77887 0
M  V30 2698 H 253.646 0.310328 -0.687177 0
M  V30 2699 H 256.297 0.0737134 -1.83352 0
M  V30 2700 H 254.679 2.30471 -3.22024 0
M  V30 2701 H 255.853 -0.197247 -4.60378 0
M  V30 2702 H 254.168 -0.0200638 -4.16395 0
M  V30 2703 H 256.765 2.72696 -4.59936 0
M  V30 2704 H 257.108 2.98107 -2.90582 0
M  V30 2705 H 257.641 1.47619 -3.69396 0
M  V30 2706 H 254.38 0.518493 -6.53446 0
M  V30 2707 H 253.9 1.98997 -5.65827 0
M  V30 2708 H 255.579 1.78915 -6.2177 0
M  V30 2709 N 255.711 1.52812 0.385517 0
M  V30 2710 C 256.644 1.72592 1.49289 0
M  V30 2711 C 257.622 0.573819 1.52138 0
M  V30 2712 O 258.806 0.80404 1.70492 0
M  V30 2713 C 255.933 1.78669 2.87741 0
M  V30 2714 C 254.979 3.00455 3.02703 0
M  V30 2715 S 255.812 4.60366 2.73538 0
M  V30 2716 C 256.968 4.69263 4.14177 0
M  V30 2717 H 257.201 2.66248 1.32285 0
M  V30 2718 H 254.734 1.43148 0.578611 0
M  V30 2719 H 256.692 1.82855 3.67524 0
M  V30 2720 H 255.353 0.861 3.02069 0
M  V30 2721 H 254.546 3.01258 4.04054 0
M  V30 2722 H 254.148 2.94278 2.30817 0
M  V30 2723 H 256.44 4.48092 5.08153 0
M  V30 2724 H 257.383 5.71276 4.18388 0
M  V30 2725 H 257.791 3.98072 4.00249 0
M  V30 2726 N 257.189 -0.644168 1.43834 0
M  V30 2727 C 258.437 -1.40117 1.45642 0
M  V30 2728 C 258.758 -1.94814 0.0852413 0
M  V30 2729 O 258.028 -1.74988 -0.880688 0
M  V30 2730 H 256.608 -0.52005 0.536243 0
M  V30 2731 H 259.27 -0.7591 1.7951 0
M  V30 2732 H 258.366 -2.23902 2.17427 0
M  V30 2733 N 258.668 -1.30515 -0.883378 0
M  V30 2734 C 259.6 -1.12846 -1.99496 0
M  V30 2735 C 260.613 -0.0712571 -1.62644 0
M  V30 2736 O 261.802 -0.317432 -1.75655 0
M  V30 2737 C 258.902 -0.699123 -3.3161 0
M  V30 2738 C 258.075 -1.83842 -3.96889 0
M  V30 2739 C 257.134 -1.39737 -5.07307 0
M  V30 2740 O 256.16 -2.10485 -5.28852 0
M  V30 2741 N 257.362 -0.277279 -5.79837 0
M  V30 2742 H 260.127 -2.08585 -2.15203 0
M  V30 2743 H 257.688 -1.22672 -1.05656 0
M  V30 2744 H 259.68 -0.387044 -4.02845 0
M  V30 2745 H 258.25 0.166276 -3.12157 0
M  V30 2746 H 257.47 -2.31853 -3.18807 0
M  V30 2747 H 258.758 -2.60187 -4.37241 0
M  V30 2748 H 258.156 0.3122 -5.64838 0
M  V30 2749 H 256.713 -0.0246623 -6.51795 0
M  V30 2750 N 260.146 1.09593 -1.13257 0
M  V30 2751 C 261.093 2.1618 -0.808381 0
M  V30 2752 C 262.063 1.64517 0.228754 0
M  V30 2753 O 263.248 1.9053 0.101381 0
M  V30 2754 C 260.388 3.43973 -0.278675 0
M  V30 2755 C 259.501 4.09545 -1.37466 0
M  V30 2756 C 258.636 5.25088 -0.803479 0
M  V30 2757 C 257.675 5.82579 -1.87799 0
M  V30 2758 N 256.812 6.89486 -1.32488 0
M  V30 2759 H 261.652 2.43254 -1.72138 0
M  V30 2760 H 259.189 1.19392 -0.859294 0
M  V30 2761 H 261.147 4.17174 0.0465583 0
M  V30 2762 H 259.777 3.17223 0.597459 0
M  V30 2763 H 258.829 3.34226 -1.81652 0
M  V30 2764 H 260.141 4.48307 -2.18684 0
M  V30 2765 H 259.295 6.05178 -0.429427 0
M  V30 2766 H 258.034 4.87684 0.0397956 0
M  V30 2767 H 257.039 5.01152 -2.26113 0
M  V30 2768 H 258.264 6.22045 -2.72463 0
M  V30 2769 H 256.21 6.54064 -0.503575 0
M  V30 2770 H 256.127 7.27007 -2.07355 0
M  V30 2771 H 257.395 7.73336 -0.978336 0
M  V30 2772 N 261.624 0.925811 1.2754 0
M  V30 2773 C 262.574 0.394488 2.24561 0
M  V30 2774 C 263.558 -0.500183 1.52928 0
M  V30 2775 O 264.75 -0.337936 1.73744 0
M  V30 2776 C 261.879 -0.353328 3.41477 0
M  V30 2777 C 260.965 0.557752 4.20416 0
M  V30 2778 N 261.356 1.67674 4.77199 0
M  V30 2779 C 259.654 0.360404 4.44541 0
M  V30 2780 C 260.355 2.24324 5.36706 0
M  V30 2781 N 259.331 1.53305 5.21535 0
M  V30 2782 H 263.133 1.2489 2.66045 0
M  V30 2783 H 260.647 0.779864 1.4245 0
M  V30 2784 H 262.644 -0.7509 4.10082 0
M  V30 2785 H 261.304 -1.20469 3.01525 0
M  V30 2786 H 262.315 2.05915 4.75204 0
M  V30 2787 H 258.992 -0.450454 4.15063 0
M  V30 2788 H 260.382 3.18521 5.91603 0
M  V30 2789 N 263.102 -1.41638 0.69111 0
M  V30 2790 C 264.012 -2.34588 0.0233487 0
M  V30 2791 C 265.028 -1.55987 -0.770984 0
M  V30 2792 O 266.204 -1.88486 -0.709569 0
M  V30 2793 C 263.269 -3.34684 -0.904851 0
M  V30 2794 C 262.33 -4.29176 -0.103225 0
M  V30 2795 C 261.563 -5.2449 -0.987216 0
M  V30 2796 O 261.786 -5.2514 -2.22674 0
M  V30 2797 O 260.72 -6.00295 -0.439281 0
M  V30 2798 H 264.546 -2.93261 0.789416 0
M  V30 2799 H 262.131 -1.42417 0.45142 0
M  V30 2800 H 264.013 -3.96133 -1.43724 0
M  V30 2801 H 262.688 -2.78461 -1.65049 0
M  V30 2802 H 261.595 -3.71089 0.473655 0
M  V30 2803 H 262.928 -4.88484 0.60365 0
M  V30 2804 N 264.58 -0.43555 -1.51462 0
M  V30 2805 C 265.51 0.367376 -2.30592 0
M  V30 2806 C 266.491 1.02263 -1.35928 0
M  V30 2807 O 267.676 1.02661 -1.64847 0
M  V30 2808 C 264.806 1.46983 -3.14664 0
M  V30 2809 C 263.76 0.938161 -4.17591 0
M  V30 2810 C 263.086 2.13622 -4.90173 0
M  V30 2811 C 264.386 -0.0261621 -5.22293 0
M  V30 2812 H 266.08 -0.292969 -2.97963 0
M  V30 2813 H 263.626 -0.14234 -1.43295 0
M  V30 2814 H 265.579 2.03873 -3.688 0
M  V30 2815 H 264.303 2.15843 -2.4511 0
M  V30 2816 H 262.962 0.391481 -3.64504 0
M  V30 2817 H 262.61 2.81098 -4.17124 0
M  V30 2818 H 262.31 1.78688 -5.59772 0
M  V30 2819 H 263.834 2.7107 -5.47132 0
M  V30 2820 H 265.248 0.452384 -5.71512 0
M  V30 2821 H 263.645 -0.287992 -5.99409 0
M  V30 2822 H 264.715 -0.963391 -4.75233 0
M  V30 2823 N 266.058 1.56714 -0.166846 0
M  V30 2824 C 266.968 2.21331 0.777791 0
M  V30 2825 C 267.984 1.20358 1.25658 0
M  V30 2826 O 269.16 1.53005 1.30964 0
M  V30 2827 C 266.225 2.83787 1.99163 0
M  V30 2828 C 265.286 3.99947 1.56016 0
M  V30 2829 C 264.519 4.59415 2.71613 0
M  V30 2830 O 264.742 4.17769 3.88362 0
M  V30 2831 O 263.676 5.49359 2.45945 0
M  V30 2832 H 267.502 3.02605 0.257636 0
M  V30 2833 H 265.087 1.49275 0.0611393 0
M  V30 2834 H 266.969 3.23405 2.70161 0
M  V30 2835 H 265.644 2.05513 2.50092 0
M  V30 2836 H 264.551 3.65007 0.819809 0
M  V30 2837 H 265.884 4.79801 1.09782 0
M  V30 2838 N 267.536 -0.106894 1.57237 0
M  V30 2839 C 268.764 -0.826389 1.8968 0
M  V30 2840 C 269.179 -1.72856 0.759353 0
M  V30 2841 O 268.536 -1.80503 -0.269263 0
M  V30 2842 C 268.587 -1.64967 3.21665 0
M  V30 2843 O 268.308 -0.783804 4.31031 0
M  V30 2844 C 269.809 -2.47326 3.67892 0
M  V30 2845 H 267.029 -0.236927 0.627779 0
M  V30 2846 H 269.573 -0.0876593 2.04312 0
M  V30 2847 H 267.728 -2.34103 3.08666 0
M  V30 2848 H 268.142 -1.35284 5.06753 0
M  V30 2849 H 269.616 -3.00604 4.6297 0
M  V30 2850 H 270.093 -3.25247 2.95146 0
M  V30 2851 H 270.699 -1.83411 3.83719 0
M  V30 2852 N 269.014 -1.53014 -0.377408 0
M  V30 2853 C 269.977 -1.77957 -1.44444 0
M  V30 2854 C 270.977 -0.649763 -1.47087 0
M  V30 2855 O 272.167 -0.917897 -1.48055 0
M  V30 2856 C 269.299 -1.89089 -2.83651 0
M  V30 2857 H 270.492 -2.73243 -1.23606 0
M  V30 2858 H 268.045 -1.43912 -0.609844 0
M  V30 2859 H 268.78 -0.958293 -3.09818 0
M  V30 2860 H 268.565 -2.71254 -2.83132 0
M  V30 2861 H 270.055 -2.1002 -3.60945 0
M  V30 2862 N 270.492 0.636531 -1.44174 0
M  V30 2863 C 271.769 1.39463 -1.37148 0
M  V30 2864 C 272.149 2.11082 -0.027507 0
M  V30 2865 O 271.497 2.05954 0.989716 0
M  V30 2866 C 271.707 2.36552 -2.56601 0
M  V30 2867 C 273.055 3.00048 -3.00427 0
M  V30 2868 O 274.079 2.46878 -2.56767 0
M  V30 2869 O 272.938 3.96488 -3.76111 0
M  V30 2870 H 270.032 0.623903 -0.542839 0
M  V30 2871 H 272.578 0.662039 -1.56253 0
M  V30 2872 H 271.35 1.82692 -3.46034 0
M  V30 2873 H 270.973 3.17236 -2.39681 0
M  V30 2874 N 271.97 1.30982 0.876444 0
M  V30 2875 C 273.218 1.20058 1.62575 0
M  V30 2876 C 273.539 -0.242947 1.93481 0
M  V30 2877 O 272.809 -1.1619 1.57724 0
M  V30 2878 H 271.389 0.44135 0.602677 0
M  V30 2879 H 274.051 1.64222 1.04962 0
M  V30 2880 H 273.147 1.76762 2.57219 0
M  V30 2881 N 273.449 -1.08991 1.13837 0
M  V30 2882 C 274.359 -2.19301 0.833333 0
M  V30 2883 C 275.375 -1.73026 -0.183847 0
M  V30 2884 O 276.551 -2.01395 -0.0138092 0
M  V30 2885 C 273.616 -3.45323 0.308651 0
M  V30 2886 C 272.677 -4.06255 1.38764 0
M  V30 2887 C 271.91 -5.26262 0.887896 0
M  V30 2888 O 272.133 -5.69747 -0.27287 0
M  V30 2889 O 271.067 -5.78435 1.66421 0
M  V30 2890 H 274.893 -2.47854 1.75506 0
M  V30 2891 H 272.478 -1.18012 0.916166 0
M  V30 2892 H 274.36 -4.21394 0.0216739 0
M  V30 2893 H 273.035 -3.18362 -0.585431 0
M  V30 2894 H 271.942 -3.318 1.72799 0
M  V30 2895 H 273.275 -4.37452 2.25602 0
M  V30 2896 N 274.927 -0.932562 -1.27047 0
M  V30 2897 C 276.338 -0.619451 -1.76124 0
M  V30 2898 C 276.689 0.865397 -1.76083 0
M  V30 2899 O 275.814 1.67722 -1.36742 0
M  V30 2900 C 276.409 -1.11771 -3.19832 0
M  V30 2901 C 274.968 -0.855174 -3.66557 0
M  V30 2902 C 274.115 -1.27362 -2.46321 0
M  V30 2903 H 277.066 -1.11181 -1.13245 0
M  V30 2904 H 277.087 -0.46759 -3.77616 0
M  V30 2905 H 276.599 -2.19842 -3.1983 0
M  V30 2906 H 274.7 0.211524 -3.71999 0
M  V30 2907 H 274.813 -1.47613 -4.55793 0
M  V30 2908 H 273.177 -0.692119 -2.45116 0
M  V30 2909 H 273.96 -2.36307 -2.49025 0
M  V30 2910 N 276.405 1.4127 -0.698611 0
M  V30 2911 C 277.315 2.34573 -0.0357891 0
M  V30 2912 C 278.331 1.56393 0.762701 0
M  V30 2913 O 279.507 1.8886 0.699564 0
M  V30 2914 C 276.572 3.35159 0.887089 0
M  V30 2915 C 275.633 4.29225 0.0804634 0
M  V30 2916 C 274.866 5.25006 0.959387 0
M  V30 2917 O 275.089 5.26314 2.19886 0
M  V30 2918 O 274.023 6.00519 0.407439 0
M  V30 2919 H 277.849 2.92838 -0.804957 0
M  V30 2920 H 275.434 1.42175 -0.458966 0
M  V30 2921 H 277.316 3.9689 1.41621 0
M  V30 2922 H 275.991 2.79333 1.6357 0
M  V30 2923 H 274.898 3.70833 -0.493328 0
M  V30 2924 H 276.231 4.88157 -0.629547 0
M  V30 2925 N 277.883 0.443576 1.51229 0
M  V30 2926 C 279.294 -0.0180867 1.86691 0
M  V30 2927 C 279.645 -1.41384 1.36033 0
M  V30 2928 O 278.77 -2.04291 0.713722 0
M  V30 2929 C 279.365 -0.039597 3.38777 0
M  V30 2930 C 277.924 -0.445692 3.73752 0
M  V30 2931 C 277.071 0.357584 2.74985 0
M  V30 2932 H 280.022 0.659138 1.44364 0
M  V30 2933 H 280.043 -0.847761 3.70936 0
M  V30 2934 H 279.555 0.976382 3.75617 0
M  V30 2935 H 277.656 -1.46704 3.42503 0
M  V30 2936 H 277.769 -0.166155 4.78812 0
M  V30 2937 H 276.133 -0.184973 2.54027 0
M  V30 2938 H 276.916 1.37256 3.14668 0
M  V30 2939 N 279.361 -1.56624 0.175154 0
M  V30 2940 C 280.324 -2.16934 -0.739738 0
M  V30 2941 C 281.324 -1.11842 -1.15533 0
M  V30 2942 O 282.514 -1.37335 -1.07167 0
M  V30 2943 C 279.646 -2.75531 -2.00738 0
M  V30 2944 H 280.839 -2.99131 -0.214639 0
M  V30 2945 H 278.392 -1.56123 -0.0744197 0
M  V30 2946 H 279.127 -1.97078 -2.57548 0
M  V30 2947 H 278.912 -3.52444 -1.71831 0
M  V30 2948 H 280.402 -3.21904 -2.66021 0
M  V30 2949 N 280.839 0.0985539 -1.57292 0
M  V30 2950 C 282.064 0.820196 -1.90493 0
M  V30 2951 C 282.489 1.71658 -0.769094 0
M  V30 2952 O 281.847 1.79133 0.279495 0
M  V30 2953 C 281.895 1.61242 -3.22542 0
M  V30 2954 O 280.999 2.72108 -3.09888 0
M  V30 2955 H 280.34 0.225547 -0.62452 0
M  V30 2956 H 282.87 0.0748159 -2.04463 0
M  V30 2957 H 282.88 1.99737 -3.55766 0
M  V30 2958 H 281.555 0.954535 -4.04798 0
M  V30 2959 H 280.132 2.36667 -2.88172 0
M  V30 2960 N 282.317 1.53212 0.369288 0
M  V30 2961 C 283.733 1.42902 0.710712 0
M  V30 2962 C 283.933 0.565135 1.93413 0
M  V30 2963 O 282.989 0.0461484 2.52458 0
M  V30 2964 C 284.302 2.86042 0.927382 0
M  V30 2965 C 285.85 2.9565 1.02762 0
M  V30 2966 C 286.325 4.39843 1.27679 0
M  V30 2967 N 287.816 4.43256 1.34457 0
M  V30 2968 C 288.551 5.51929 1.55439 0
M  V30 2969 N 288.047 6.70655 1.73762 0
M  V30 2970 N 289.84 5.39502 1.57779 0
M  V30 2971 H 281.991 2.07888 -0.435457 0
M  V30 2972 H 284.254 0.938661 -0.132739 0
M  V30 2973 H 283.96 3.51557 0.100287 0
M  V30 2974 H 283.834 3.29472 1.83653 0
M  V30 2975 H 286.221 2.30291 1.84527 0
M  V30 2976 H 286.302 2.5562 0.0959504 0
M  V30 2977 H 285.946 5.05774 0.464175 0
M  V30 2978 H 285.876 4.77443 2.22162 0
M  V30 2979 H 288.367 3.5769 1.21926 0
M  V30 2980 H 288.68 7.49248 1.89335 0
M  V30 2981 H 287.025 6.73648 1.70948 0
M  V30 2982 H 290.216 4.45713 1.43029 0
M  V30 2983 H 290.389 6.2426 1.7379 0
M  V30 2984 N 283.795 -0.628877 1.44509 0
M  V30 2985 C 285.041 -1.39045 1.47629 0
M  V30 2986 C 285.374 -1.93892 0.109343 0
M  V30 2987 O 284.649 -1.7379 -0.87334 0
M  V30 2988 C 284.932 -2.55408 2.53848 0
M  V30 2989 C 284.785 -2.05896 3.99909 0
M  V30 2990 C 286.104 -3.5759 2.56549 0
M  V30 2991 H 283.223 -0.504232 0.537512 0
M  V30 2992 H 285.865 -0.710854 1.76201 0
M  V30 2993 H 284.015 -3.13384 2.29615 0
M  V30 2994 H 285.687 -1.52734 4.35282 0
M  V30 2995 H 283.93 -1.37061 4.11578 0
M  V30 2996 H 284.601 -2.89681 4.69882 0
M  V30 2997 H 287.077 -3.09419 2.78207 0
M  V30 2998 H 285.953 -4.36527 3.32769 0
M  V30 2999 H 286.214 -4.11808 1.60832 0
M  V30 3000 N 285.273 -1.31445 -0.869486 0
M  V30 3001 C 286.513 -1.22458 -1.63656 0
M  V30 3002 C 286.877 0.213846 -1.90805 0
M  V30 3003 O 288.078 0.427212 -2.65383 0
M  V30 3004 C 286.349 -2.04564 -2.93067 0
M  V30 3005 S 287.908 -2.12445 -3.83944 0
M  V30 3006 H 284.726 -0.436145 -0.561514 0
M  V30 3007 H 287.328 -1.66114 -1.03085 0
M  V30 3008 H 286.032 -3.0816 -2.71045 0
M  V30 3009 H 285.563 -1.6163 -3.58663 0
M  V30 3010 H 287.578 -1.26312 -4.79854 0
M  V30 3011 N 286.751 1.08385 -1.14413 0
M  V30 3012 C 287.979 1.84517 -0.936001 0
M  V30 3013 C 288.394 1.81626 0.515503 0
M  V30 3014 O 287.751 1.22008 1.35721 0
M  V30 3015 C 287.802 3.32049 -1.42918 0
M  V30 3016 O 287.523 3.34951 -2.82381 0
M  V30 3017 C 289.024 4.24986 -1.26103 0
M  V30 3018 H 286.244 0.582491 -0.333084 0
M  V30 3019 H 288.788 1.36885 -1.5193 0
M  V30 3020 H 286.943 3.7707 -0.888641 0
M  V30 3021 H 287.357 4.27048 -3.04517 0
M  V30 3022 H 288.831 5.26615 -1.6547 0
M  V30 3023 H 289.308 4.38726 -0.20392 0
M  V30 3024 H 289.914 3.85791 -1.79012 0
M  V30 3025 N 288.23 0.939286 1.26551 0
M  V30 3026 C 289.476 0.586715 1.94128 0
M  V30 3027 C 289.809 -0.8717 1.73537 0
M  V30 3028 O 289.084 -1.62339 1.07127 0
M  V30 3029 C 289.367 0.927497 3.4795 0
M  V30 3030 C 289.22 2.44052 3.77834 0
M  V30 3031 C 290.539 0.441569 4.37879 0
M  V30 3032 H 287.658 0.21463 0.705055 0
M  V30 3033 H 290.3 1.17316 1.49455 0
M  V30 3034 H 288.45 0.428431 3.8613 0
M  V30 3035 H 290.122 3.01216 3.4938 0
M  V30 3036 H 288.365 2.8848 3.23978 0
M  V30 3037 H 289.036 2.62947 4.85348 0
M  V30 3038 H 291.512 0.869448 4.06915 0
M  V30 3039 H 290.388 0.708856 5.44304 0
M  V30 3040 H 290.649 -0.658467 4.37169 0
M  V30 3041 N 289.708 -1.40897 0.706093 0
M  V30 3042 C 290.638 -2.33418 0.0620085 0
M  V30 3043 C 291.619 -1.52385 -0.755827 0
M  V30 3044 O 292.804 -1.80886 -0.706674 0
M  V30 3045 C 289.934 -3.36293 -0.867445 0
M  V30 3046 C 288.888 -4.27716 -0.155932 0
M  V30 3047 C 288.214 -5.2105 -1.20046 0
M  V30 3048 C 289.514 -5.12944 0.984149 0
M  V30 3049 H 291.208 -2.87527 0.83477 0
M  V30 3050 H 288.754 -1.38249 0.402875 0
M  V30 3051 H 290.707 -3.99949 -1.32735 0
M  V30 3052 H 289.431 -2.80556 -1.67199 0
M  V30 3053 H 288.09 -3.65498 0.284047 0
M  V30 3054 H 287.738 -4.61624 -1.99781 0
M  V30 3055 H 287.438 -5.83056 -0.729328 0
M  V30 3056 H 288.962 -5.87584 -1.66066 0
M  V30 3057 H 290.376 -5.70109 0.604048 0
M  V30 3058 H 288.773 -5.83945 1.38304 0
M  V30 3059 H 289.843 -4.49485 1.81911 0
M  V30 3060 N 291.186 -0.45159 -1.50991 0
M  V30 3061 C 292.432 0.110237 -2.025 0
M  V30 3062 C 292.765 1.41109 -1.33424 0
M  V30 3063 O 292.04 1.89135 -0.453659 0
M  V30 3064 C 292.323 0.314271 -3.58726 0
M  V30 3065 C 292.176 -1.00623 -4.38401 0
M  V30 3066 C 293.495 1.07767 -4.26702 0
M  V30 3067 H 290.614 0.0385897 -0.735989 0
M  V30 3068 H 293.256 -0.593374 -1.80497 0
M  V30 3069 H 291.406 0.913601 -3.77605 0
M  V30 3070 H 293.078 -1.64064 -4.31139 0
M  V30 3071 H 291.321 -1.6075 -4.02917 0
M  V30 3072 H 291.992 -0.817341 -5.45915 0
M  V30 3073 H 294.468 0.56986 -4.12179 0
M  V30 3074 H 293.344 1.18921 -5.35863 0
M  V30 3075 H 293.605 2.10939 -3.88532 0
M  V30 3076 N 292.664 1.56529 -0.183458 0
M  V30 3077 C 293.889 2.02064 0.467428 0
M  V30 3078 C 294.314 1.06282 1.55196 0
M  V30 3079 O 293.672 0.0443565 1.81246 0
M  V30 3080 C 293.72 3.46122 1.01153 0
M  V30 3081 O 292.824 3.53437 2.12499 0
M  V30 3082 H 292.165 0.654726 0.110588 0
M  V30 3083 H 294.695 2.02521 -0.290917 0
M  V30 3084 H 294.705 3.85676 1.33108 0
M  V30 3085 H 293.38 4.15331 0.217533 0
M  V30 3086 H 291.957 3.2575 1.81497 0
M  V30 3087 N 294.142 -0.090211 1.57342 0
M  V30 3088 C 295.558 -0.444547 1.53284 0
M  V30 3089 C 295.758 -1.80238 0.900914 0
M  V30 3090 O 294.814 -2.4759 0.495513 0
M  V30 3091 C 296.127 -0.402543 2.97993 0
M  V30 3092 C 297.675 -0.48405 3.09234 0
M  V30 3093 C 298.15 -0.472144 4.5556 0
M  V30 3094 N 299.641 -0.532757 4.60126 0
M  V30 3095 C 300.376 -0.545462 5.708 0
M  V30 3096 N 299.872 -0.514082 6.9089 0
M  V30 3097 N 301.665 -0.59064 5.58988 0
M  V30 3098 H 293.816 0.799121 1.96794 0
M  V30 3099 H 296.079 0.297965 0.899956 0
M  V30 3100 H 295.785 0.528106 3.47712 0
M  V30 3101 H 295.659 -1.21969 3.56936 0
M  V30 3102 H 298.046 -1.40512 2.595 0
M  V30 3103 H 298.127 0.361328 2.53235 0
M  V30 3104 H 297.771 0.445 5.05947 0
M  V30 3105 H 297.701 -1.3348 5.09402 0
M  V30 3106 H 300.192 -0.562006 3.73698 0
M  V30 3107 H 300.505 -0.527195 7.71 0
M  V30 3108 H 298.85 -0.481054 6.93333 0
M  V30 3109 H 302.041 -0.61272 4.64073 0
M  V30 3110 H 302.214 -0.597073 6.45243 0
M  V30 3111 N 295.62 -1.53406 -0.361157 0
M  V30 3112 C 296.848 -1.73717 -1.12383 0
M  V30 3113 C 297.263 -0.468161 -1.82904 0
M  V30 3114 O 296.62 0.559198 -1.73722 0
M  V30 3115 C 296.671 -2.90558 -2.15078 0
M  V30 3116 O 296.392 -4.12549 -1.47428 0
M  V30 3117 C 297.893 -3.22777 -3.03858 0
M  V30 3118 H 295.113 -0.580896 -0.335858 0
M  V30 3119 H 297.657 -2.00167 -0.418728 0
M  V30 3120 H 295.812 -2.66489 -2.8118 0
M  V30 3121 H 296.226 -4.78009 -2.15887 0
M  V30 3122 H 297.7 -4.07927 -3.71887 0
M  V30 3123 H 298.177 -2.38329 -3.68912 0
M  V30 3124 H 298.783 -3.48787 -2.43367 0
M  V30 3125 N 297.098 0.621204 -1.44841 0
M  V30 3126 C 298.061 1.71459 -1.521 0
M  V30 3127 C 299.061 1.55696 -0.401933 0
M  V30 3128 O 300.251 1.61011 -0.664925 0
M  V30 3129 C 297.383 3.10624 -1.40447 0
M  V30 3130 H 298.576 1.66394 -2.49506 0
M  V30 3131 H 296.129 0.835745 -1.3208 0
M  V30 3132 H 296.864 3.21277 -0.441737 0
M  V30 3133 H 296.649 3.23473 -2.21602 0
M  V30 3134 H 298.139 3.90293 -1.4853 0
M  V30 3135 N 298.576 1.31904 0.862503 0
M  V30 3136 C 299.506 1.22782 1.98612 0
M  V30 3137 C 300.487 0.113362 1.69722 0
M  V30 3138 O 301.672 0.299218 1.91881 0
M  V30 3139 C 298.802 0.942058 3.34279 0
M  V30 3140 C 297.756 2.0169 3.77499 0
M  V30 3141 C 297.082 1.58369 5.10709 0
M  V30 3142 C 298.382 3.43096 3.93805 0
M  V30 3143 H 300.076 2.16788 2.06502 0
M  V30 3144 H 297.622 1.04366 0.992154 0
M  V30 3145 H 299.575 0.864818 4.1243 0
M  V30 3146 H 298.299 -0.0336603 3.26583 0
M  V30 3147 H 296.958 2.08416 3.01593 0
M  V30 3148 H 296.606 0.595628 4.99461 0
M  V30 3149 H 296.306 2.30279 5.40597 0
M  V30 3150 H 297.83 1.52067 5.91361 0
M  V30 3151 H 299.244 3.39003 4.62331 0
M  V30 3152 H 297.641 4.13288 4.35101 0
M  V30 3153 H 298.711 3.83334 2.96957 0
M  V30 3154 N 300.054 -1.07777 1.14986 0
M  V30 3155 C 300.986 -2.14769 0.800436 0
M  V30 3156 C 301.999 -1.61739 -0.185595 0
M  V30 3157 O 303.188 -1.78462 0.0370358 0
M  V30 3158 C 300.288 -3.38481 0.168533 0
M  V30 3159 C 299.461 -4.20876 1.1909 0
M  V30 3160 C 298.52 -5.22976 0.581575 0
M  V30 3161 O 297.546 -5.55388 1.24633 0
M  V30 3162 N 298.748 -5.76976 -0.638706 0
M  V30 3163 H 301.513 -2.45348 1.72118 0
M  V30 3164 H 299.074 -1.23645 1.04515 0
M  V30 3165 H 301.066 -4.03916 -0.251764 0
M  V30 3166 H 299.636 -3.05651 -0.655467 0
M  V30 3167 H 298.856 -3.51322 1.78791 0
M  V30 3168 H 300.144 -4.7274 1.88133 0
M  V30 3169 H 299.542 -5.52886 -1.19723 0
M  V30 3170 H 298.099 -6.44061 -1.00142 0
M  V30 3171 N 301.532 -0.945985 -1.26051 0
M  V30 3172 C 302.778 -0.597002 -1.93814 0
M  V30 3173 C 303.111 0.862484 -1.73997 0
M  V30 3174 O 302.386 1.61769 -1.07986 0
M  V30 3175 C 302.669 -0.945937 -3.47454 0
M  V30 3176 C 302.522 -2.46052 -3.76535 0
M  V30 3177 C 303.841 -0.464785 -4.37639 0
M  V30 3178 H 300.96 -0.218366 -0.703907 0
M  V30 3179 H 303.602 -1.18107 -1.48831 0
M  V30 3180 H 301.752 -0.448902 -3.85898 0
M  V30 3181 H 303.424 -3.03065 -3.47778 0
M  V30 3182 H 301.667 -2.90194 -3.22444 0
M  V30 3183 H 302.338 -2.65517 -4.83947 0
M  V30 3184 H 304.814 -0.891016 -4.06448 0
M  V30 3185 H 303.69 -0.737712 -5.4392 0
M  V30 3186 H 303.951 0.635274 -4.37512 0
M  V30 3187 N 303.011 1.40521 -0.713556 0
M  V30 3188 C 304.258 2.00923 -0.25219 0
M  V30 3189 C 304.586 1.56571 1.15395 0
M  V30 3190 O 303.841 0.775874 1.79663 0
M  V30 3191 C 304.14 3.56317 -0.278 0
M  V30 3192 C 303.806 4.20246 -1.63415 0
M  V30 3193 C 302.468 4.37422 -2.00538 0
M  V30 3194 C 304.82 4.55923 -2.52554 0
M  V30 3195 C 302.148 4.87558 -3.2635 0
M  V30 3196 C 304.5 5.07458 -3.77716 0
M  V30 3197 C 303.164 5.22843 -4.14959 0
M  V30 3198 H 302.434 0.735231 -0.0922829 0
M  V30 3199 H 305.081 1.68161 -0.916188 0
M  V30 3200 H 303.386 3.88976 0.469567 0
M  V30 3201 H 305.083 4.00883 0.0967819 0
M  V30 3202 H 301.673 4.07263 -1.33546 0
M  V30 3203 H 305.857 4.42291 -2.25149 0
M  V30 3204 H 301.113 4.97654 -3.55176 0
M  V30 3205 H 305.287 5.34041 -4.4696 0
M  V30 3206 H 302.914 5.61454 -5.12516 0
M  V30 3207 N 304.489 0.459591 1.5075 0
M  V30 3208 C 305.738 -0.100971 2.01447 0
M  V30 3209 C 306.051 -1.41816 1.34713 0
M  V30 3210 O 307.257 -2.06299 1.76502 0
M  V30 3211 C 305.713 -0.23047 3.59161 0
M  V30 3212 C 305.321 1.0776 4.34847 0
M  V30 3213 C 307.065 -0.743608 4.17936 0
M  V30 3214 C 304.972 0.91253 5.84317 0
M  V30 3215 H 303.902 -0.0415102 0.752856 0
M  V30 3216 H 306.553 0.592742 1.73663 0
M  V30 3217 H 304.935 -0.987703 3.83485 0
M  V30 3218 H 306.109 1.8449 4.22256 0
M  V30 3219 H 304.424 1.52097 3.87628 0
M  V30 3220 H 307.021 -0.883959 5.27343 0
M  V30 3221 H 307.364 -1.73196 3.78562 0
M  V30 3222 H 307.897 -0.04408 3.97776 0
M  V30 3223 H 304.636 1.87391 6.28144 0
M  V30 3224 H 304.156 0.185422 5.99513 0
M  V30 3225 H 305.835 0.574547 6.44444 0
M  V30 3226 N 305.967 -1.56429 0.191757 0
M  V30 3227 C 306.899 -2.16154 -0.762245 0
M  V30 3228 C 307.912 -1.12247 -1.17917 0
M  V30 3229 O 309.101 -1.39353 -1.11548 0
M  V30 3230 C 306.201 -2.70606 -2.04024 0
M  V30 3231 C 305.374 -3.99381 -1.78364 0
M  V30 3232 C 304.433 -4.38692 -2.90578 0
M  V30 3233 O 303.459 -5.06179 -2.6033 0
M  V30 3234 N 304.661 -4.01922 -4.18854 0
M  V30 3235 H 307.426 -2.98643 -0.251526 0
M  V30 3236 H 304.987 -1.61897 0.00967373 0
M  V30 3237 H 306.979 -2.93891 -2.78227 0
M  V30 3238 H 305.549 -1.9259 -2.46227 0
M  V30 3239 H 304.769 -3.84262 -0.879581 0
M  V30 3240 H 306.057 -4.83445 -1.58614 0
M  V30 3241 H 305.455 -3.47631 -4.46283 0
M  V30 3242 H 304.012 -4.30165 -4.89695 0
M  V30 3243 N 307.445 0.0818655 -1.57387 0
M  V30 3244 C 308.691 0.784074 -1.8703 0
M  V30 3245 C 309.024 1.77729 -0.782689 0
M  V30 3246 O 308.299 1.93384 0.208051 0
M  V30 3247 C 308.582 1.50105 -3.27323 0
M  V30 3248 C 308.435 0.524925 -4.46727 0
M  V30 3249 C 309.754 2.44843 -3.65705 0
M  V30 3250 H 306.873 0.283582 -0.680257 0
M  V30 3251 H 309.515 0.0474352 -1.89941 0
M  V30 3252 H 307.665 2.12897 -3.24972 0
M  V30 3253 H 309.337 -0.0970111 -4.61198 0
M  V30 3254 H 307.58 -0.160606 -4.33503 0
M  V30 3255 H 308.251 1.064 -5.41648 0
M  V30 3256 H 310.727 1.92135 -3.69085 0
M  V30 3257 H 309.603 2.92018 -4.64776 0
M  V30 3258 H 309.864 3.29197 -2.95096 0
M  V30 3259 N 308.923 1.53595 0.353017 0
M  V30 3260 C 309.871 1.81605 1.45335 0
M  V30 3261 C 310.865 0.685923 1.54892 0
M  V30 3262 O 312.071 0.869095 1.57628 0
M  V30 3263 H 308.446 0.575204 0.484401 0
M  V30 3264 H 310.417 2.73679 1.18921 0
M  V30 3265 C 309.166 2.03406 2.81995 0
M  V30 3266 H 308.489 2.89814 2.75405 0
M  V30 3267 H 309.929 2.26975 3.58132 0
M  V30 3268 C 308.388 0.816794 3.26849 0
M  V30 3269 O 308.918 0.0115856 4.01698 0
M  V30 3270 N 307.124 0.636682 2.8354 0
M  V30 3271 H 306.671 1.2931 2.22793 0
M  V30 3272 H 306.629 -0.176336 3.13905 0
M  V30 3273 N 310.401 -0.613514 1.45168 0
M  V30 3274 C 311.647 -1.37471 1.49096 0
M  V30 3275 C 311.98 -1.93765 0.129901 0
M  V30 3276 O 311.255 -1.74707 -0.854858 0
M  V30 3277 C 311.538 -2.52701 2.56542 0
M  V30 3278 C 311.391 -2.01643 4.0207 0
M  V30 3279 C 312.71 -3.54849 2.60327 0
M  V30 3280 H 309.829 -0.498502 0.54283 0
M  V30 3281 H 312.471 -0.692125 1.76945 0
M  V30 3282 H 310.621 -3.10931 2.32926 0
M  V30 3283 H 312.293 -1.48108 4.36877 0
M  V30 3284 H 310.536 -1.32688 4.13009 0
M  V30 3285 H 311.207 -2.84681 4.72928 0
M  V30 3286 H 313.683 -3.0645 2.81474 0
M  V30 3287 H 312.559 -4.32973 3.37381 0
M  V30 3288 H 312.82 -4.10079 1.6519 0
M  V30 3289 N 311.879 -1.3236 -0.855495 0
M  V30 3290 C 312.809 -1.23833 -1.97958 0
M  V30 3291 C 313.79 -0.122361 -1.69659 0
M  V30 3292 O 314.975 -0.30939 -1.9172 0
M  V30 3293 C 312.105 -0.959772 -3.33775 0
M  V30 3294 C 311.059 -2.03689 -3.76424 0
M  V30 3295 C 310.385 -1.61075 -5.09862 0
M  V30 3296 C 311.685 -3.4518 -3.9198 0
M  V30 3297 H 313.379 -2.1788 -2.0535 0
M  V30 3298 H 310.925 -1.04891 -0.986605 0
M  V30 3299 H 312.878 -0.886678 -4.11966 0
M  V30 3300 H 311.602 0.0163404 -3.26596 0
M  V30 3301 H 310.261 -2.10012 -3.00484 0
M  V30 3302 H 309.909 -0.622107 -4.99138 0
M  V30 3303 H 309.609 -2.33143 -5.39368 0
M  V30 3304 H 311.133 -1.55201 -5.90546 0
M  V30 3305 H 312.547 -3.4145 -4.60526 0
M  V30 3306 H 310.944 -4.1559 -4.32903 0
M  V30 3307 H 312.014 -3.84903 -2.94919 0
M  V30 3308 N 313.357 1.07166 -1.15556 0
M  V30 3309 C 314.603 1.80065 -0.932984 0
M  V30 3310 C 314.936 1.86586 0.53845 0
M  V30 3311 O 314.211 1.35098 1.39924 0
M  V30 3312 C 314.494 3.25022 -1.55025 0
M  V30 3313 C 314.347 3.26634 -3.09242 0
M  V30 3314 C 315.666 4.22341 -1.2376 0
M  V30 3315 H 312.785 0.653697 -0.340366 0
M  V30 3316 H 315.427 1.25389 -1.4275 0
M  V30 3317 H 313.577 3.71712 -1.12972 0
M  V30 3318 H 315.249 2.88173 -3.60214 0
M  V30 3319 H 313.492 2.65539 -3.43033 0
M  V30 3320 H 314.163 4.28854 -3.47546 0
M  V30 3321 H 316.639 3.8405 -1.60139 0
M  V30 3322 H 315.515 5.22053 -1.69564 0
M  V30 3323 H 315.776 4.41828 -0.154938 0
M  V30 3324 N 314.835 0.952656 1.25548 0
M  V30 3325 C 316.06 0.623025 1.97821 0
M  V30 3326 C 316.485 -0.7976 1.70352 0
M  V30 3327 O 315.843 -1.53905 0.958283 0
M  V30 3328 C 315.891 0.885532 3.49558 0
M  V30 3329 O 314.995 -0.0366641 4.12384 0
M  V30 3330 H 314.336 0.237082 0.620232 0
M  V30 3331 H 316.866 1.27871 1.59719 0
M  V30 3332 H 316.876 0.811009 3.99858 0
M  V30 3333 H 315.551 1.92094 3.6888 0
M  V30 3334 H 314.128 0.0898954 3.72792 0
M  V30 3335 N 316.313 -1.40141 0.720998 0
M  V30 3336 C 317.56 -2.00787 0.262842 0
M  V30 3337 C 317.888 -1.5718 -1.14563 0
M  V30 3338 O 317.143 -0.785391 -1.79249 0
M  V30 3339 C 317.442 -3.56165 0.296892 0
M  V30 3340 C 317.108 -4.19373 1.65641 0
M  V30 3341 C 315.77 -4.36352 2.02855 0
M  V30 3342 C 318.122 -4.54578 2.54968 0
M  V30 3343 C 315.45 -4.8582 3.28931 0
M  V30 3344 C 317.802 -5.05447 3.80402 0
M  V30 3345 C 316.466 -5.20635 4.17726 0
M  V30 3346 H 315.736 -0.734731 0.0961807 0
M  V30 3347 H 318.383 -1.67673 0.925093 0
M  V30 3348 H 316.688 -3.8922 -0.448932 0
M  V30 3349 H 318.385 -4.00929 -0.0755208 0
M  V30 3350 H 314.975 -4.06549 1.35704 0
M  V30 3351 H 319.159 -4.41091 2.27491 0
M  V30 3352 H 314.415 -4.95764 3.57811 0
M  V30 3353 H 318.589 -5.31663 4.49786 0
M  V30 3354 H 316.216 -5.58728 5.15487 0
M  V30 3355 N 317.792 -0.46758 -1.50504 0
M  V30 3356 C 319.038 0.0887532 -2.02606 0
M  V30 3357 C 319.371 1.39686 -1.34913 0
M  V30 3358 O 318.646 1.88644 -0.473694 0
M  V30 3359 C 318.929 0.276206 -3.59039 0
M  V30 3360 C 318.782 -1.05267 -4.37309 0
M  V30 3361 C 320.101 1.03235 -4.27821 0
M  V30 3362 H 317.22 0.0307814 -0.736357 0
M  V30 3363 H 319.862 -0.612485 -1.79857 0
M  V30 3364 H 318.012 0.8735 -3.78553 0
M  V30 3365 H 319.684 -1.68628 -4.29374 0
M  V30 3366 H 317.927 -1.65015 -4.01189 0
M  V30 3367 H 318.598 -0.875197 -5.45018 0
M  V30 3368 H 321.074 0.526111 -4.12761 0
M  V30 3369 H 319.95 1.1323 -5.37094 0
M  V30 3370 H 320.211 2.06806 -3.90748 0
M  V30 3371 N 319.27 1.56325 -0.20005 0
M  V30 3372 C 320.2 2.22318 0.713916 0
M  V30 3373 C 321.181 1.18788 1.21752 0
M  V30 3374 O 322.366 1.47309 1.26545 0
M  V30 3375 C 319.496 2.88639 1.93144 0
M  V30 3376 C 318.45 3.98457 1.56255 0
M  V30 3377 C 317.776 4.51967 2.85709 0
M  V30 3378 C 319.076 5.16612 0.768747 0
M  V30 3379 H 320.77 2.98952 0.163755 0
M  V30 3380 H 318.316 1.43792 0.0773219 0
M  V30 3381 H 320.269 3.33491 2.57608 0
M  V30 3382 H 318.993 2.09419 2.50621 0
M  V30 3383 H 317.652 3.54305 0.941471 0
M  V30 3384 H 317.3 3.69503 3.41287 0
M  V30 3385 H 317 5.26071 2.6177 0
M  V30 3386 H 318.524 4.99523 3.51154 0
M  V30 3387 H 319.938 5.57977 1.3166 0
M  V30 3388 H 318.335 5.96812 0.627286 0
M  V30 3389 H 319.405 4.84358 -0.229168 0
M  V30 3390 N 320.748 -0.0735177 1.57428 0
M  V30 3391 C 322.159 -0.625551 1.75908 0
M  V30 3392 C 322.51 -1.78 0.825261 0
M  V30 3393 O 321.635 -2.16398 0.00893964 0
M  V30 3394 C 322.23 -1.14155 3.18989 0
M  V30 3395 C 320.789 -1.63946 3.38819 0
M  V30 3396 C 319.936 -0.558151 2.71625 0
M  V30 3397 H 322.887 0.152647 1.57964 0
M  V30 3398 H 322.908 -2.0104 3.23053 0
M  V30 3399 H 322.42 -0.301116 3.8693 0
M  V30 3400 H 320.521 -2.50321 2.7599 0
M  V30 3401 H 320.634 -1.71759 4.47253 0
M  V30 3402 H 318.998 -1.00278 2.34129 0
M  V30 3403 H 319.781 0.272071 3.4222 0
M  V30 3404 N 322.226 -1.5378 -0.344866 0
M  V30 3405 C 323.156 -1.84662 -1.42906 0
M  V30 3406 C 324.137 -0.701648 -1.54955 0
M  V30 3407 O 325.322 -0.953438 -1.69184 0
M  V30 3408 C 322.452 -2.05503 -2.79974 0
M  V30 3409 C 321.406 -3.21318 -2.82734 0
M  V30 3410 C 320.732 -3.2749 -4.22675 0
M  V30 3411 C 322.032 -4.59456 -2.48389 0
M  V30 3412 H 323.726 -2.75461 -1.17311 0
M  V30 3413 H 321.272 -1.32542 -0.562896 0
M  V30 3414 H 323.225 -2.25691 -3.55867 0
M  V30 3415 H 321.949 -1.11434 -3.07002 0
M  V30 3416 H 320.608 -3.00984 -2.09294 0
M  V30 3417 H 320.256 -2.31019 -4.4681 0
M  V30 3418 H 319.956 -4.05316 -4.25433 0
M  V30 3419 H 321.48 -3.49887 -5.00412 0
M  V30 3420 H 322.894 -4.79667 -3.13995 0
M  V30 3421 H 321.291 -5.39675 -2.62432 0
M  V30 3422 H 322.361 -4.63155 -1.4358 0
M  V30 3423 N 323.704 0.605807 -1.45491 0
M  V30 3424 C 324.667 1.69836 -1.5391 0
M  V30 3425 C 325.667 1.55261 -0.418424 0
M  V30 3426 O 326.857 1.60296 -0.681965 0
M  V30 3427 C 323.989 3.09117 -1.43734 0
M  V30 3428 H 325.182 1.63738 -2.51257 0
M  V30 3429 H 322.735 0.821689 -1.32959 0
M  V30 3430 H 323.47 3.20791 -0.475788 0
M  V30 3431 H 323.255 3.21104 -2.25021 0
M  V30 3432 H 324.745 3.88696 -1.52661 0
M  V30 3433 N 325.182 1.32811 0.848464 0
M  V30 3434 C 326.112 1.24882 1.97299 0
M  V30 3435 C 327.093 0.131357 1.69592 0
M  V30 3436 O 328.278 0.319553 1.91553 0
M  V30 3437 C 325.408 0.97746 3.33261 0
M  V30 3438 C 324.362 2.05682 3.75338 0
M  V30 3439 C 323.688 1.63777 5.09 0
M  V30 3440 C 324.988 3.47254 3.90144 0
M  V30 3441 H 326.682 2.18966 2.04191 0
M  V30 3442 H 324.228 1.05413 0.981029 0
M  V30 3443 H 326.181 0.908513 4.1149 0
M  V30 3444 H 324.905 0.000980011 3.266 0
M  V30 3445 H 323.564 2.11603 2.99366 0
M  V30 3446 H 323.212 0.648569 4.98801 0
M  V30 3447 H 322.912 2.36 5.38124 0
M  V30 3448 H 324.436 1.5833 5.89715 0
M  V30 3449 H 325.85 3.43888 4.58709 0
M  V30 3450 H 324.247 4.1788 4.30693 0
M  V30 3451 H 325.317 3.86462 2.92874 0
M  V30 3452 N 326.66 -1.06551 1.16123 0
M  V30 3453 C 327.888 -1.83005 0.965237 0
M  V30 3454 C 328.303 -1.82423 -0.486542 0
M  V30 3455 O 327.66 -1.24152 -1.33763 0
M  V30 3456 C 327.711 -3.29733 1.48183 0
M  V30 3457 O 327.432 -3.30416 2.87674 0
M  V30 3458 C 328.933 -4.22926 1.32848 0
M  V30 3459 H 326.153 -0.577118 0.342309 0
M  V30 3460 H 328.697 -1.3445 1.54089 0
M  V30 3461 H 326.852 -3.75609 0.948517 0
M  V30 3462 H 327.266 -4.22149 3.11272 0
M  V30 3463 H 328.74 -5.23916 1.73827 0
M  V30 3464 H 329.217 -4.38346 0.273692 0
M  V30 3465 H 329.823 -3.82894 1.85127 0
M  V30 3466 N 328.138 -0.959301 -1.25041 0
M  V30 3467 C 329.101 -0.487677 -2.23952 0
M  V30 3468 C 330.101 0.41119 -1.55454 0
M  V30 3469 O 331.291 0.207825 -1.72956 0
M  V30 3470 C 328.423 0.294807 -3.39623 0
M  V30 3471 H 329.616 -1.36198 -2.67189 0
M  V30 3472 H 327.169 -0.743042 -1.37508 0
M  V30 3473 H 327.904 1.18658 -3.01813 0
M  V30 3474 H 327.689 -0.35012 -3.90534 0
M  V30 3475 H 329.179 0.614089 -4.1306 0
M  V30 3476 N 329.616 1.39756 -0.72842 0
M  V30 3477 C 330.863 2.00645 -0.273487 0
M  V30 3478 C 331.191 1.57786 1.13727 0
M  V30 3479 O 330.446 0.794886 1.7883 0
M  V30 3480 C 330.745 3.56002 -0.315776 0
M  V30 3481 C 330.411 4.18489 -1.67863 0
M  V30 3482 C 329.073 4.3527 -2.05166 0
M  V30 3483 C 331.425 4.53219 -2.57375 0
M  V30 3484 C 328.753 4.84069 -3.31503 0
M  V30 3485 C 331.105 5.03423 -3.83077 0
M  V30 3486 C 329.769 5.18413 -4.20481 0
M  V30 3487 H 329.039 0.734211 -0.100076 0
M  V30 3488 H 331.686 1.6718 -0.933972 0
M  V30 3489 H 329.991 3.89452 0.428285 0
M  V30 3490 H 331.688 4.00963 0.0542575 0
M  V30 3491 H 328.278 4.05824 -1.37858 0
M  V30 3492 H 332.462 4.39878 -2.29827 0
M  V30 3493 H 327.718 4.93859 -3.60435 0
M  V30 3494 H 331.892 5.2927 -4.52599 0
M  V30 3495 H 329.519 5.55987 -5.18443 0
M  V30 3496 N 331.094 0.475555 1.50254 0
M  V30 3497 C 332.024 -0.30611 2.31485 0
M  V30 3498 C 333.005 -0.986228 1.38591 0
M  V30 3499 O 334.19 -0.982541 1.67511 0
M  V30 3500 C 331.32 -1.38588 3.1845 0
M  V30 3501 C 330.274 -0.827115 4.19932 0
M  V30 3502 C 329.6 -2.00551 4.95665 0
M  V30 3503 C 330.9 0.16463 5.2204 0
M  V30 3504 H 332.594 0.371866 2.97082 0
M  V30 3505 H 330.14 0.180282 1.42867 0
M  V30 3506 H 332.093 -1.94023 3.74076 0
M  V30 3507 H 330.817 -2.09269 2.50747 0
M  V30 3508 H 329.476 -0.294702 3.65414 0
M  V30 3509 H 329.124 -2.6994 4.2443 0
M  V30 3510 H 328.824 -1.63784 5.64313 0
M  V30 3511 H 330.348 -2.56468 5.54127 0
M  V30 3512 H 331.762 -0.300699 5.72511 0
M  V30 3513 H 330.159 0.446813 5.98434 0
M  V30 3514 H 331.229 1.08905 4.72512 0
M  V30 3515 N 332.573 -1.56217 0.208337 0
M  V30 3516 C 333.521 -2.21053 -0.723769 0
M  V30 3517 C 334.515 -1.18578 -1.20978 0
M  V30 3518 O 335.721 -1.36691 -1.17114 0
M  V30 3519 H 332.096 -0.708595 -0.251788 0
M  V30 3520 H 334.067 -2.98006 -0.153365 0
M  V30 3521 C 332.816 -2.89417 -1.927 0
M  V30 3522 H 332.139 -3.68019 -1.56212 0
M  V30 3523 H 333.579 -3.38201 -2.55727 0
M  V30 3524 C 332.038 -1.91166 -2.77411 0
M  V30 3525 O 332.568 -1.42026 -3.75754 0
M  V30 3526 N 330.774 -1.59105 -2.43175 0
M  V30 3527 H 330.321 -1.99259 -1.63259 0
M  V30 3528 H 330.279 -0.936255 -3.00136 0
M  V30 3529 N 334.051 0.0651679 -1.57465 0
M  V30 3530 C 335.299 0.761555 -1.87202 0
M  V30 3531 C 335.62 1.77778 -0.801243 0
M  V30 3532 O 334.89 1.95166 0.16937 0
M  V30 3533 H 333.47 0.284251 -0.690804 0
M  V30 3534 H 336.132 0.0396827 -1.9486 0
M  V30 3535 H 335.228 1.27365 -2.84929 0
M  V30 3536 N 335.529 1.53961 0.336706 0
M  V30 3537 C 336.775 1.7179 1.07777 0
M  V30 3538 C 337.108 0.483263 1.88091 0
M  V30 3539 O 336.383 -0.519747 1.87427 0
M  V30 3540 C 336.666 2.98558 2.01334 0
M  V30 3541 C 336.519 4.32245 1.24437 0
M  V30 3542 C 337.838 3.21023 3.01052 0
M  V30 3543 H 334.957 0.625089 0.390426 0
M  V30 3544 H 337.599 1.86641 0.35567 0
M  V30 3545 H 335.749 2.86028 2.62908 0
M  V30 3546 H 337.421 4.56637 0.654243 0
M  V30 3547 H 335.664 4.30344 0.546458 0
M  V30 3548 H 336.335 5.17137 1.93063 0
M  V30 3549 H 338.811 3.32929 2.49595 0
M  V30 3550 H 337.687 4.11104 3.6371 0
M  V30 3551 H 337.948 2.37637 3.72802 0
M  V30 3552 N 337.007 -0.598083 1.45811 0
M  V30 3553 C 338.235 -1.38322 1.53866 0
M  V30 3554 C 338.65 -1.87992 0.174479 0
M  V30 3555 O 338.007 -1.62756 -0.825627 0
M  V30 3556 C 338.058 -2.58125 2.53089 0
M  V30 3557 O 337.779 -2.10516 3.84206 0
M  V30 3558 C 339.28 -3.50869 2.70935 0
M  V30 3559 H 336.5 -0.423093 0.520801 0
M  V30 3560 H 339.044 -0.728527 1.91083 0
M  V30 3561 H 337.199 -3.19615 2.18917 0
M  V30 3562 H 337.613 -2.88425 4.38077 0
M  V30 3563 H 339.087 -4.31451 3.44317 0
M  V30 3564 H 339.564 -4.01822 1.77301 0
M  V30 3565 H 340.17 -2.95225 3.06141 0
M  V30 3566 N 338.485 -1.33259 -0.841409 0
M  V30 3567 C 339.731 -1.24757 -1.59886 0
M  V30 3568 C 340.064 0.186913 -1.93298 0
M  V30 3569 O 339.339 1.12757 -1.5848 0
M  V30 3570 C 339.622 -2.12036 -2.91055 0
M  V30 3571 C 339.475 -3.63929 -2.6434 0
M  V30 3572 C 340.794 -1.9916 -3.92458 0
M  V30 3573 H 337.913 -0.454542 -0.580138 0
M  V30 3574 H 340.555 -1.63335 -0.970647 0
M  V30 3575 H 338.705 -1.79265 -3.44669 0
M  V30 3576 H 340.377 -4.06978 -2.17178 0
M  V30 3577 H 338.62 -3.85935 -1.98082 0
M  V30 3578 H 339.291 -4.20341 -3.57796 0
M  V30 3579 H 341.767 -2.27895 -3.48143 0
M  V30 3580 H 340.643 -2.62484 -4.82072 0
M  V30 3581 H 340.904 -0.963082 -4.31482 0
M  V30 3582 N 339.963 1.05934 -1.16686 0
M  V30 3583 C 341.188 1.83029 -0.975455 0
M  V30 3584 C 341.613 1.82096 0.471452 0
M  V30 3585 O 340.971 1.22443 1.33706 0
M  V30 3586 C 341.019 3.27372 -1.51195 0
M  V30 3587 O 340.123 4.06054 -0.720701 0
M  V30 3588 H 339.464 0.566194 -0.346872 0
M  V30 3589 H 341.994 1.33541 -1.55009 0
M  V30 3590 H 342.004 3.78186 -1.53099 0
M  V30 3591 H 340.679 3.27366 -2.56523 0
M  V30 3592 H 339.256 3.64812 -0.772458 0
M  V30 3593 N 341.441 0.965919 1.2453 0
M  V30 3594 C 342.391 0.465731 2.23193 0
M  V30 3595 C 343.375 -0.451277 1.54442 0
M  V30 3596 O 344.567 -0.282489 1.74731 0
M  V30 3597 C 341.696 -0.244511 3.42428 0
M  V30 3598 C 340.782 0.691222 4.18429 0
M  V30 3599 N 341.173 1.82771 4.71623 0
M  V30 3600 C 339.471 0.501649 4.4317 0
M  V30 3601 C 340.172 2.41285 5.29298 0
M  V30 3602 N 339.148 1.69819 5.16394 0
M  V30 3603 H 342.95 1.33291 2.61937 0
M  V30 3604 H 340.464 0.824789 1.39896 0
M  V30 3605 H 342.461 -0.620056 4.12263 0
M  V30 3606 H 341.121 -1.10815 3.05205 0
M  V30 3607 H 342.132 2.20929 4.68413 0
M  V30 3608 H 338.809 -0.318177 4.16286 0
M  V30 3609 H 340.199 3.37181 5.8117 0
M  V30 3610 N 342.919 -1.39368 0.735821 0
M  V30 3611 C 343.849 -2.33234 0.111506 0
M  V30 3612 C 344.83 -1.53954 -0.723334 0
M  V30 3613 O 346.015 -1.82344 -0.668147 0
M  V30 3614 C 343.145 -3.38057 -0.795917 0
M  V30 3615 C 342.099 -4.2795 -0.065172 0
M  V30 3616 C 341.425 -5.23479 -1.08967 0
M  V30 3617 C 342.725 -5.10741 1.09273 0
M  V30 3618 H 344.419 -2.85692 0.895571 0
M  V30 3619 H 341.965 -1.37364 0.432109 0
M  V30 3620 H 343.918 -4.02675 -1.24221 0
M  V30 3621 H 342.642 -2.8404 -1.61211 0
M  V30 3622 H 341.301 -3.64813 0.361511 0
M  V30 3623 H 340.949 -4.65758 -1.89944 0
M  V30 3624 H 340.649 -5.84472 -0.605489 0
M  V30 3625 H 342.173 -5.90974 -1.53565 0
M  V30 3626 H 343.587 -5.68699 0.724841 0
M  V30 3627 H 341.984 -5.8088 1.50659 0
M  V30 3628 H 343.054 -4.45525 1.91404 0
M  V30 3629 N 344.397 -0.483516 -1.5 0
M  V30 3630 C 345.327 0.293829 -2.31644 0
M  V30 3631 C 346.308 0.978864 -1.39112 0
M  V30 3632 O 347.493 0.973644 -1.68029 0
M  V30 3633 C 344.623 1.36897 -3.19181 0
M  V30 3634 C 343.577 0.804833 -4.20365 0
M  V30 3635 C 342.903 1.9792 -4.96721 0
M  V30 3636 C 344.203 -0.192313 -5.21946 0
M  V30 3637 H 345.897 -0.387616 -2.9688 0
M  V30 3638 H 343.443 -0.187856 -1.42769 0
M  V30 3639 H 345.396 1.92037 -3.751 0
M  V30 3640 H 344.12 2.07936 -2.51853 0
M  V30 3641 H 342.779 0.275319 -3.65565 0
M  V30 3642 H 342.427 2.67686 -4.25856 0
M  V30 3643 H 342.127 1.60789 -5.65173 0
M  V30 3644 H 343.651 2.53526 -5.55479 0
M  V30 3645 H 345.065 0.270333 -5.72662 0
M  V30 3646 H 343.462 -0.478543 -5.98189 0
M  V30 3647 H 344.532 -1.11409 -4.71928 0
M  V30 3648 N 345.875 1.56104 -0.216619 0
M  V30 3649 C 346.838 2.18819 0.681962 0
M  V30 3650 C 347.838 1.14866 1.12528 0
M  V30 3651 O 349.028 1.40128 1.03488 0
M  V30 3652 C 346.16 2.80756 1.93362 0
M  V30 3653 H 347.353 2.99595 0.135254 0
M  V30 3654 H 344.906 1.56265 0.0330003 0
M  V30 3655 H 345.641 2.03837 2.52232 0
M  V30 3656 H 345.426 3.56876 1.62426 0
M  V30 3657 H 346.916 3.28844 2.57393 0
M  V30 3658 N 347.353 -0.0568162 1.57498 0
M  V30 3659 C 348.283 -1.06593 2.0775 0
M  V30 3660 C 349.264 -1.39448 0.974082 0
M  V30 3661 O 350.449 -1.48815 1.24771 0
M  V30 3662 C 347.579 -2.37509 2.5339 0
M  V30 3663 C 346.533 -2.1897 3.67745 0
M  V30 3664 C 345.859 -3.55402 3.99492 0
M  V30 3665 C 347.159 -1.59859 4.97235 0
M  V30 3666 H 348.853 -0.647706 2.9231 0
M  V30 3667 H 346.399 -0.310116 1.40621 0
M  V30 3668 H 348.352 -3.08409 2.87162 0
M  V30 3669 H 347.076 -2.8134 1.65878 0
M  V30 3670 H 345.735 -1.50508 3.3428 0
M  V30 3671 H 345.383 -3.9683 3.09088 0
M  V30 3672 H 345.083 -3.43831 4.76502 0
M  V30 3673 H 346.607 -4.27708 4.35773 0
M  V30 3674 H 348.021 -2.20642 5.29141 0
M  V30 3675 H 346.418 -1.58942 5.78669 0
M  V30 3676 H 347.488 -0.561506 4.81638 0
M  V30 3677 N 348.832 -1.54138 -0.328536 0
M  V30 3678 C 350.072 -1.73827 -1.07534 0
M  V30 3679 C 350.436 -0.498777 -1.85408 0
M  V30 3680 O 351.637 -0.572937 -2.62623 0
M  V30 3681 C 349.908 -2.97573 -1.97952 0
M  V30 3682 S 351.467 -3.38143 -2.79652 0
M  V30 3683 H 348.285 -0.611287 -0.36311 0
M  V30 3684 H 350.887 -1.92306 -0.351931 0
M  V30 3685 H 349.591 -3.85939 -1.39569 0
M  V30 3686 H 349.122 -2.81603 -2.74706 0
M  V30 3687 H 351.137 -2.93052 -4.00418 0
M  V30 3688 N 350.31 0.590341 -1.46126 0
M  V30 3689 C 351.535 1.37991 -1.54833 0
M  V30 3690 C 351.96 1.87163 -0.187506 0
M  V30 3691 O 351.318 1.61133 0.831008 0
M  V30 3692 C 351.366 2.54867 -2.55098 0
M  V30 3693 O 350.47 3.56061 -2.08073 0
M  V30 3694 H 349.811 0.411265 -0.521303 0
M  V30 3695 H 352.341 0.716819 -1.91632 0
M  V30 3696 H 352.351 3.01886 -2.74461 0
M  V30 3697 H 351.026 2.18429 -3.53923 0
M  V30 3698 H 349.603 3.15574 -1.98664 0
M  V30 3699 N 351.788 1.33704 0.83433 0
M  V30 3700 C 352.72 1.20172 1.9517 0
M  V30 3701 C 353.733 0.131572 1.62267 0
M  V30 3702 O 354.922 0.382406 1.74356 0
M  V30 3703 C 352.022 0.821716 3.28787 0
M  V30 3704 C 351.195 1.98446 3.89792 0
M  V30 3705 C 350.254 1.58469 5.01771 0
M  V30 3706 O 349.28 2.29968 5.20676 0
M  V30 3707 N 350.482 0.492291 5.78409 0
M  V30 3708 H 353.247 2.16429 2.07313 0
M  V30 3709 H 350.808 1.26509 1.0103 0
M  V30 3710 H 352.8 0.536291 4.01131 0
M  V30 3711 H 351.37 -0.0503058 3.1256 0
M  V30 3712 H 350.59 2.43526 3.09982 0
M  V30 3713 H 351.878 2.76236 4.27283 0
M  V30 3714 H 351.276 -0.102349 5.65607 0
M  V30 3715 H 349.833 0.266555 6.51255 0
M  V30 3716 N 353.266 -1.05314 1.17247 0
M  V30 3717 C 354.512 -1.78557 0.961513 0
M  V30 3718 C 354.845 -1.87419 -0.508697 0
M  V30 3719 O 354.12 -1.37307 -1.37757 0
M  V30 3720 C 354.403 -3.22514 1.60176 0
M  V30 3721 C 354.256 -3.21673 3.14399 0
M  V30 3722 C 355.575 -4.20318 1.30463 0
M  V30 3723 H 352.694 -0.6482 0.350723 0
M  V30 3724 H 355.336 -1.23102 1.44727 0
M  V30 3725 H 353.486 -3.69867 1.18871 0
M  V30 3726 H 355.158 -2.82405 3.64753 0
M  V30 3727 H 353.401 -2.60048 3.47214 0
M  V30 3728 H 354.072 -4.23271 3.54324 0
M  V30 3729 H 356.548 -3.81454 1.66229 0
M  V30 3730 H 355.424 -5.19289 1.77848 0
M  V30 3731 H 355.685 -4.41526 0.22521 0
M  V30 3732 N 354.744 -0.972509 -1.24016 0
M  V30 3733 C 356.155 -0.67517 -1.74064 0
M  V30 3734 C 356.506 0.808939 -1.78747 0
M  V30 3735 O 355.631 1.63286 -1.42009 0
M  V30 3736 C 356.226 -1.21889 -3.16115 0
M  V30 3737 C 354.785 -0.971358 -3.6365 0
M  V30 3738 C 353.932 -1.35134 -2.42145 0
M  V30 3739 H 356.883 -1.14727 -1.09651 0
M  V30 3740 H 356.904 -0.587489 -3.75937 0
M  V30 3741 H 356.416 -2.29906 -3.12674 0
M  V30 3742 H 354.517 0.0930686 -3.72484 0
M  V30 3743 H 354.63 -1.62039 -4.50866 0
M  V30 3744 H 352.994 -0.769751 -2.4279 0
M  V30 3745 H 353.777 -2.4411 -2.41381 0
M  V30 3746 N 356.222 1.38976 -0.743202 0
M  V30 3747 C 357.447 2.05161 -0.303936 0
M  V30 3748 C 357.872 1.55677 1.05576 0
M  V30 3749 O 357.23 0.704131 1.67068 0
M  V30 3750 C 357.278 3.59138 -0.324373 0
M  V30 3751 O 356.382 4.06668 0.685204 0
M  V30 3752 H 355.723 0.649815 -0.136518 0
M  V30 3753 H 358.253 1.77852 -1.01142 0
M  V30 3754 H 358.263 4.07639 -0.171618 0
M  V30 3755 H 356.938 3.94515 -1.31647 0
M  V30 3756 H 355.515 3.69561 0.497913 0
M  V30 3757 N 357.7 0.491464 1.49741 0
M  V30 3758 C 358.928 -0.0535151 2.06831 0
M  V30 3759 C 359.343 -1.31683 1.35296 0
M  V30 3760 O 358.7 -1.77402 0.42836 0
M  V30 3761 C 358.751 -0.320835 3.60073 0
M  V30 3762 O 358.472 0.892394 4.28915 0
M  V30 3763 C 359.973 -0.910519 4.33848 0
M  V30 3764 H 357.193 0.0161909 0.670805 0
M  V30 3765 H 359.737 0.68609 1.92647 0
M  V30 3766 H 357.892 -1.0104 3.73991 0
M  V30 3767 H 358.306 0.649401 5.20464 0
M  V30 3768 H 359.78 -1.04721 5.41976 0
M  V30 3769 H 360.257 -1.90589 3.95692 0
M  V30 3770 H 360.863 -0.258712 4.24512 0
M  V30 3771 N 359.178 -1.55987 0.224894 0
M  V30 3772 C 360.403 -2.03232 -0.41369 0
M  V30 3773 C 360.828 -1.10359 -1.52323 0
M  V30 3774 O 360.186 -0.092395 -1.81064 0
M  V30 3775 C 360.234 -3.48682 -0.919405 0
M  V30 3776 O 359.338 -3.58947 -2.03054 0
M  V30 3777 H 358.679 -0.657428 -0.0931903 0
M  V30 3778 H 361.209 -2.01679 0.34451 0
M  V30 3779 H 361.219 -3.8907 -1.22835 0
M  V30 3780 H 359.894 -4.15761 -0.107339 0
M  V30 3781 H 358.471 -3.30448 -1.72796 0
M  V30 3782 N 360.656 0.0484629 -1.57525 0
M  V30 3783 C 361.884 0.755421 -1.92616 0
M  V30 3784 C 362.299 1.69919 -0.822984 0
M  V30 3785 O 361.656 1.81378 0.202085 0
M  V30 3786 C 361.707 1.52915 -3.27566 0
M  V30 3787 O 361.428 0.62329 -4.33644 0
M  V30 3788 C 362.929 2.33502 -3.76818 0
M  V30 3789 H 360.149 0.213465 -0.63614 0
M  V30 3790 H 362.693 0.0117698 -2.04497 0
M  V30 3791 H 360.848 2.22486 -3.17142 0
M  V30 3792 H 361.262 1.16383 -5.11425 0
M  V30 3793 H 362.736 2.83214 -4.73808 0
M  V30 3794 H 363.213 3.14068 -3.07014 0
M  V30 3795 H 363.819 1.69043 -3.90262 0
M  V30 3796 N 362.134 1.5431 0.320358 0
M  V30 3797 C 363.545 1.63872 0.894594 0
M  V30 3798 C 363.896 0.534847 1.88769 0
M  V30 3799 O 363.021 -0.331732 2.13842 0
M  V30 3800 C 363.616 2.97049 1.62934 0
M  V30 3801 C 362.175 3.08796 2.15226 0
M  V30 3802 C 361.322 2.59456 0.978671 0
M  V30 3803 H 364.273 1.58398 0.0978544 0
M  V30 3804 H 364.294 2.87388 2.49376 0
M  V30 3805 H 363.806 3.7737 0.906302 0
M  V30 3806 H 361.907 2.33156 2.90636 0
M  V30 3807 H 362.02 4.14649 2.40006 0
M  V30 3808 H 360.384 2.1543 1.35875 0
M  V30 3809 H 361.167 3.42237 0.269895 0
M  V30 3810 N 363.613 -0.582584 1.46437 0
M  V30 3811 C 364.861 -1.33814 1.51453 0
M  V30 3812 C 365.182 -1.94277 0.167792 0
M  V30 3813 O 364.452 -1.78566 -0.805677 0
M  V30 3814 H 363.032 -0.496838 0.557818 0
M  V30 3815 H 365.694 -0.682281 1.82568 0
M  V30 3816 H 364.79 -2.14479 2.26728 0
M  V30 3817 N 365.091 -1.34144 -0.827227 0
M  V30 3818 C 366.316 -1.29476 -1.62021 0
M  V30 3819 C 366.741 0.129292 -1.87655 0
M  V30 3820 O 366.099 1.08967 -1.449 0
M  V30 3821 C 366.147 -2.08702 -2.94068 0
M  V30 3822 O 365.251 -1.45359 -3.85933 0
M  V30 3823 H 364.592 -0.444881 -0.492927 0
M  V30 3824 H 367.122 -1.76882 -1.02829 0
M  V30 3825 H 367.132 -2.19898 -3.43669 0
M  V30 3826 H 365.807 -3.12241 -2.74734 0
M  V30 3827 H 364.384 -1.42879 -3.44442 0
M  V30 3828 N 366.569 1.04691 -1.17803 0
M  V30 3829 C 367.794 1.81984 -0.994813 0
M  V30 3830 C 368.219 1.82586 0.452112 0
M  V30 3831 O 367.577 1.23854 1.324 0
M  V30 3832 C 367.625 3.2575 -1.54659 0
M  V30 3833 O 366.729 4.05267 -0.763728 0
M  V30 3834 H 366.07 0.562483 -0.352857 0
M  V30 3835 H 368.6 1.3189 -1.56417 0
M  V30 3836 H 368.61 3.76541 -1.57102 0
M  V30 3837 H 367.285 3.24627 -2.59981 0
M  V30 3838 H 365.862 3.63972 -0.811108 0
M  V30 3839 N 368.047 0.979072 1.23499 0
M  V30 3840 C 369.275 0.665202 1.95915 0
M  V30 3841 C 369.69 -0.767571 1.72493 0
M  V30 3842 O 369.047 -1.51635 1.01554 0
M  V30 3843 C 369.098 0.944438 3.48945 0
M  V30 3844 O 368.819 2.3209 3.71572 0
M  V30 3845 C 370.32 0.646336 4.38563 0
M  V30 3846 H 367.54 0.247218 0.623798 0
M  V30 3847 H 370.084 1.31009 1.57025 0
M  V30 3848 H 368.239 0.345575 3.85856 0
M  V30 3849 H 368.653 2.40957 4.65876 0
M  V30 3850 H 370.127 0.892091 5.44744 0
M  V30 3851 H 370.604 -0.419575 4.37191 0
M  V30 3852 H 371.21 1.22562 4.07258 0
M  V30 3853 N 369.525 -1.3858 0.750561 0
M  V30 3854 C 370.936 -1.82927 0.373438 0
M  V30 3855 C 371.287 -1.62634 -1.09748 0
M  V30 3856 O 370.412 -1.12588 -1.84805 0
M  V30 3857 C 371.007 -3.32088 0.671029 0
M  V30 3858 C 369.566 -3.74795 0.34722 0
M  V30 3859 C 368.713 -2.61391 0.92575 0
M  V30 3860 H 371.664 -1.27351 0.946958 0
M  V30 3861 H 371.685 -3.80465 -0.0518269 0
M  V30 3862 H 371.197 -3.46826 1.74164 0
M  V30 3863 H 369.298 -3.65638 -0.716933 0
M  V30 3864 H 369.411 -4.71667 0.840656 0
M  V30 3865 H 367.775 -2.52265 0.351327 0
M  V30 3866 H 368.558 -2.78929 2.00133 0
M  V30 3867 N 371.003 -0.499398 -1.49478 0
M  V30 3868 C 372.228 0.044722 -2.07352 0
M  V30 3869 C 372.653 1.30207 -1.35749 0
M  V30 3870 O 372.011 1.76516 -0.413732 0
M  V30 3871 C 372.059 0.283013 -3.59488 0
M  V30 3872 O 371.163 1.35804 -3.89398 0
M  V30 3873 H 370.504 -0.0255147 -0.66351 0
M  V30 3874 H 373.034 -0.698561 -1.92305 0
M  V30 3875 H 373.044 0.515007 -4.04737 0
M  V30 3876 H 371.719 -0.635636 -4.11014 0
M  V30 3877 H 370.296 1.11113 -3.55961 0
M  V30 3878 N 372.481 1.55866 -0.233164 0
M  V30 3879 C 373.897 1.59133 0.121988 0
M  V30 3880 C 374.097 1.25016 1.58029 0
M  V30 3881 O 373.153 0.990922 2.32243 0
M  V30 3882 C 374.466 2.99932 -0.214792 0
M  V30 3883 C 376.014 3.12601 -0.157971 0
M  V30 3884 C 376.489 4.55597 -0.46859 0
M  V30 3885 N 377.98 4.61305 -0.418585 0
M  V30 3886 C 378.715 5.69903 -0.63227 0
M  V30 3887 N 378.211 6.86819 -0.90835 0
M  V30 3888 N 380.004 5.59264 -0.563913 0
M  V30 3889 H 372.155 1.76315 -1.18434 0
M  V30 3890 H 374.418 0.820093 -0.475553 0
M  V30 3891 H 374.124 3.29588 -1.22739 0
M  V30 3892 H 373.998 3.74327 0.464691 0
M  V30 3893 H 376.385 2.82735 0.845283 0
M  V30 3894 H 376.466 2.40511 -0.871102 0
M  V30 3895 H 376.11 4.86182 -1.46934 0
M  V30 3896 H 376.04 5.25928 0.265865 0
M  V30 3897 H 378.531 3.77297 -0.213368 0
M  V30 3898 H 378.844 7.65507 -1.05919 0
M  V30 3899 H 377.189 6.88536 -0.945673 0
M  V30 3900 H 380.38 4.66802 -0.348372 0
M  V30 3901 H 380.553 6.43831 -0.733847 0
M  V30 3902 N 373.959 -0.0401083 1.57549 0
M  V30 3903 C 374.889 -1.04384 2.08869 0
M  V30 3904 C 375.87 -1.38407 0.988817 0
M  V30 3905 O 377.055 -1.47483 1.26342 0
M  V30 3906 C 374.185 -2.34808 2.55895 0
M  V30 3907 C 373.139 -2.15057 3.70047 0
M  V30 3908 C 372.465 -3.51145 4.03239 0
M  V30 3909 C 373.765 -1.54576 4.98902 0
M  V30 3910 H 375.459 -0.616666 2.92981 0
M  V30 3911 H 373.005 -0.295184 1.40942 0
M  V30 3912 H 374.958 -3.05346 2.90417 0
M  V30 3913 H 373.682 -2.79565 1.68853 0
M  V30 3914 H 372.341 -1.46954 3.35857 0
M  V30 3915 H 371.989 -3.93529 3.13279 0
M  V30 3916 H 371.689 -3.38758 4.80122 0
M  V30 3917 H 373.213 -4.23062 4.40285 0
M  V30 3918 H 374.627 -2.15017 5.31451 0
M  V30 3919 H 373.024 -1.52796 5.80322 0
M  V30 3920 H 374.094 -0.51039 4.82206 0
M  V30 3921 N 375.437 -1.54477 -0.31217 0
M  V30 3922 C 376.347 -1.87695 -1.4074 0
M  V30 3923 C 377.363 -0.769975 -1.56036 0
M  V30 3924 O 378.539 -1.06537 -1.70915 0
M  V30 3925 C 375.604 -2.10755 -2.75287 0
M  V30 3926 C 374.665 -3.34514 -2.69071 0
M  V30 3927 C 373.898 -3.56465 -3.97201 0
M  V30 3928 O 374.121 -2.81637 -4.96021 0
M  V30 3929 O 373.055 -4.49964 -3.9977 0
M  V30 3930 H 376.881 -2.80849 -1.15574 0
M  V30 3931 H 374.466 -1.40526 -0.507228 0
M  V30 3932 H 376.348 -2.27188 -3.54913 0
M  V30 3933 H 375.023 -1.20788 -3.0032 0
M  V30 3934 H 373.93 -3.23456 -1.87955 0
M  V30 3935 H 375.263 -4.24575 -2.48992 0
M  V30 3936 N 376.915 0.57481 -1.46744 0
M  V30 3937 C 377.845 1.69337 -1.60771 0
M  V30 3938 C 378.826 1.63825 -0.457736 0
M  V30 3939 O 380.011 1.8172 -0.684947 0
M  V30 3940 C 377.141 3.0798 -1.60517 0
M  V30 3941 C 376.095 3.28327 -2.74564 0
M  V30 3942 C 375.421 4.67578 -2.59373 0
M  V30 3943 C 376.721 3.15398 -4.16319 0
M  V30 3944 H 378.415 1.57853 -2.54407 0
M  V30 3945 H 375.961 0.75799 -1.22436 0
M  V30 3946 H 377.914 3.86061 -1.68923 0
M  V30 3947 H 376.638 3.20381 -0.634305 0
M  V30 3948 H 375.297 2.52649 -2.65639 0
M  V30 3949 H 374.945 4.76755 -1.60353 0
M  V30 3950 H 374.645 4.82144 -3.35873 0
M  V30 3951 H 376.169 5.47817 -2.69682 0
M  V30 3952 H 377.583 3.83315 -4.26313 0
M  V30 3953 H 375.98 3.41482 -4.93468 0
M  V30 3954 H 377.05 2.12372 -4.3592 0
M  V30 3955 N 378.394 1.34581 0.820102 0
M  V30 3956 C 379.324 1.29038 1.94606 0
M  V30 3957 C 380.305 0.1673 1.69275 0
M  V30 3958 O 381.49 0.360112 1.90832 0
M  V30 3959 C 378.62 1.04793 3.31113 0
M  V30 3960 C 377.574 2.13597 3.70891 0
M  V30 3961 C 376.9 1.74537 5.05412 0
M  V30 3962 C 378.2 3.55451 3.8269 0
M  V30 3963 H 379.894 2.23248 1.99501 0
M  V30 3964 H 377.44 1.0747 0.958449 0
M  V30 3965 H 379.393 0.995592 4.0947 0
M  V30 3966 H 378.117 0.0702565 3.26524 0
M  V30 3967 H 376.776 2.17905 2.9481 0
M  V30 3968 H 376.424 0.754226 4.97313 0
M  V30 3969 H 376.124 2.47361 5.32997 0
M  V30 3970 H 377.648 1.70803 5.86224 0
M  V30 3971 H 379.062 3.5354 4.51312 0
M  V30 3972 H 377.459 4.26922 4.21732 0
M  V30 3973 H 378.529 3.92587 2.84611 0
M  V30 3974 N 379.872 -1.04064 1.18357 0
M  V30 3975 C 381.097 -1.81454 1.00445 0
M  V30 3976 C 381.522 -1.82823 -0.442423 0
M  V30 3977 O 380.88 -1.24555 -1.31741 0
M  V30 3978 C 380.928 -3.24925 1.56384 0
M  V30 3979 O 380.032 -4.04856 0.785209 0
M  V30 3980 H 379.373 -0.560604 0.355835 0
M  V30 3981 H 381.903 -1.31059 1.57114 0
M  V30 3982 H 381.913 -3.75702 1.59097 0
M  V30 3983 H 380.588 -3.23244 2.61699 0
M  V30 3984 H 379.165 -3.63537 0.830399 0
M  V30 3985 N 381.35 -0.985608 -1.22978 0
M  V30 3986 C 382.26 -0.538548 -2.28335 0
M  V30 3987 C 383.276 0.409163 -1.69121 0
M  V30 3988 O 384.452 0.277797 -1.99475 0
M  V30 3989 C 381.517 0.146867 -3.46389 0
M  V30 3990 C 380.578 -0.842896 -4.20944 0
M  V30 3991 C 379.811 -0.190095 -5.33361 0
M  V30 3992 O 380.034 1.01767 -5.61248 0
M  V30 3993 O 378.968 -0.891289 -5.95264 0
M  V30 3994 H 382.794 -1.41487 -2.68729 0
M  V30 3995 H 380.379 -0.753495 -1.29007 0
M  V30 3996 H 382.261 0.531125 -4.1804 0
M  V30 3997 H 380.936 0.997871 -3.07935 0
M  V30 3998 H 379.843 -1.27795 -3.51595 0
M  V30 3999 H 381.176 -1.66287 -4.6326 0
M  V30 4000 N 382.828 1.3818 -0.7579 0
M  V30 4001 C 383.738 2.3421 -0.135247 0
M  V30 4002 C 384.754 1.59487 0.695683 0
M  V30 4003 O 385.93 1.91657 0.618832 0
M  V30 4004 C 382.995 3.3862 0.744139 0
M  V30 4005 C 382.056 4.2918 -0.101658 0
M  V30 4006 C 381.289 5.28603 0.735851 0
M  V30 4007 O 381.512 5.35166 1.97366 0
M  V30 4008 O 380.446 6.01707 0.152372 0
M  V30 4009 H 384.272 2.8916 -0.928436 0
M  V30 4010 H 381.857 1.40101 -0.518855 0
M  V30 4011 H 383.739 4.02539 1.2466 0
M  V30 4012 H 382.414 2.86019 1.51575 0
M  V30 4013 H 381.321 3.68407 -0.650167 0
M  V30 4014 H 382.654 4.85048 -0.836024 0
M  V30 4015 N 384.306 0.507319 1.49211 0
M  V30 4016 C 385.554 -0.0348839 2.0207 0
M  V30 4017 C 385.875 -1.36898 1.38866 0
M  V30 4018 O 385.145 -1.88133 0.546151 0
M  V30 4019 H 383.725 -0.0158812 0.746831 0
M  V30 4020 H 386.387 0.665998 1.83168 0
M  V30 4021 H 385.483 -0.159917 3.1169 0
M  V30 4022 N 385.784 -1.5574 0.241426 0
M  V30 4023 C 386.714 -2.24133 -0.654722 0
M  V30 4024 C 387.695 -1.21974 -1.1856 0
M  V30 4025 O 388.88 -1.50612 -1.22595 0
M  V30 4026 C 386.01 -2.93659 -1.85423 0
M  V30 4027 C 384.964 -4.0246 -1.45636 0
M  V30 4028 C 384.29 -4.59383 -2.73626 0
M  V30 4029 C 385.59 -5.18468 -0.631506 0
M  V30 4030 H 387.284 -2.99281 -0.0844353 0
M  V30 4031 H 384.83 -1.43947 -0.0391707 0
M  V30 4032 H 386.783 -3.40203 -2.48676 0
M  V30 4033 H 385.507 -2.15991 -2.44981 0
M  V30 4034 H 384.166 -3.56676 -0.847202 0
M  V30 4035 H 383.814 -3.78422 -3.3137 0
M  V30 4036 H 383.514 -5.32826 -2.4773 0
M  V30 4037 H 385.038 -5.08658 -3.37786 0
M  V30 4038 H 386.452 -5.61272 -1.1682 0
M  V30 4039 H 384.849 -5.98266 -0.468831 0
M  V30 4040 H 385.919 -4.8358 0.357506 0
M  V30 4041 N 387.262 0.0317525 -1.57568 0
M  V30 4042 C 388.192 1.03274 -2.0942 0
M  V30 4043 C 389.173 1.3788 -0.996143 0
M  V30 4044 O 390.358 1.46811 -1.27122 0
M  V30 4045 C 387.488 2.33448 -2.57137 0
M  V30 4046 C 386.442 2.13091 -3.71182 0
M  V30 4047 C 385.768 3.49001 -4.05095 0
M  V30 4048 C 387.068 1.51928 -4.99715 0
M  V30 4049 H 388.762 0.60112 -2.93303 0
M  V30 4050 H 386.308 0.287705 -1.41097 0
M  V30 4051 H 388.261 3.03802 -2.92032 0
M  V30 4052 H 386.985 2.78665 -1.70333 0
M  V30 4053 H 385.644 1.45171 -3.36632 0
M  V30 4054 H 385.292 3.91862 -3.15362 0
M  V30 4055 H 384.992 3.36207 -4.81911 0
M  V30 4056 H 386.516 4.20721 -4.42522 0
M  V30 4057 H 387.93 2.12196 -5.32584 0
M  V30 4058 H 386.327 1.49716 -5.81124 0
M  V30 4059 H 387.397 0.484811 -4.8247 0
M  V30 4060 N 388.74 1.54641 0.303973 0
M  V30 4061 C 389.965 1.78092 1.06292 0
M  V30 4062 C 390.39 0.537342 1.80262 0
M  V30 4063 O 389.748 -0.511993 1.7392 0
M  V30 4064 C 389.796 2.98612 2.02147 0
M  V30 4065 O 388.9 2.71528 3.10397 0
M  V30 4066 H 388.241 0.589548 0.305497 0
M  V30 4067 H 390.771 2.01716 0.3423 0
M  V30 4068 H 390.781 3.265 2.44667 0
M  V30 4069 H 389.456 3.88785 1.47714 0
M  V30 4070 H 388.033 2.54648 2.72413 0
M  V30 4071 N 390.218 -0.567019 1.47046 0
M  V30 4072 C 391.465 -1.32462 1.53167 0
M  V30 4073 C 391.793 -1.93571 0.189841 0
M  V30 4074 O 391.048 -1.77865 -0.816243 0
M  V30 4075 C 391.347 -2.4623 2.59047 0
M  V30 4076 C 391.013 -2.03014 4.02612 0
M  V30 4077 C 389.675 -1.90944 4.41694 0
M  V30 4078 C 392.027 -1.69895 4.92732 0
M  V30 4079 C 389.355 -1.44035 5.68745 0
M  V30 4080 C 391.707 -1.2446 6.20236 0
M  V30 4081 C 390.371 -1.10979 6.5821 0
M  V30 4082 H 389.641 -0.484713 0.560477 0
M  V30 4083 H 392.288 -0.636888 1.80599 0
M  V30 4084 H 390.593 -3.20517 2.25335 0
M  V30 4085 H 392.29 -3.04427 2.61008 0
M  V30 4086 H 388.88 -2.13348 3.71726 0
M  V30 4087 H 393.064 -1.78098 4.63244 0
M  V30 4088 H 388.32 -1.32254 5.96925 0
M  V30 4089 H 392.494 -0.978924 6.89485 0
M  V30 4090 H 390.121 -0.744078 7.5655 0
M  V30 4091 N 391.696 -1.35014 -0.812953 0
M  V30 4092 C 392.945 -1.27269 -1.56479 0
M  V30 4093 C 393.258 0.152771 -1.95002 0
M  V30 4094 O 394.464 0.352451 -2.69203 0
M  V30 4095 C 392.92 -2.23159 -2.82362 0
M  V30 4096 C 392.528 -3.71016 -2.511 0
M  V30 4097 C 394.272 -2.24342 -3.60376 0
M  V30 4098 C 392.179 -4.58746 -3.73237 0
M  V30 4099 H 391.109 -0.472829 -0.587324 0
M  V30 4100 H 393.76 -1.6024 -0.894171 0
M  V30 4101 H 392.142 -1.83151 -3.51101 0
M  V30 4102 H 393.316 -4.1962 -1.90409 0
M  V30 4103 H 391.631 -3.72378 -1.86343 0
M  V30 4104 H 394.228 -2.87107 -4.51081 0
M  V30 4105 H 394.571 -1.24542 -3.97234 0
M  V30 4106 H 395.104 -2.62846 -2.98591 0
M  V30 4107 H 391.843 -5.59521 -3.41492 0
M  V30 4108 H 391.363 -4.14871 -4.33176 0
M  V30 4109 H 393.042 -4.73852 -4.40537 0
M  V30 4110 N 393.175 1.03435 -1.18907 0
M  V30 4111 C 394.421 1.77005 -0.989798 0
M  V30 4112 C 394.754 1.88205 0.478816 0
M  V30 4113 O 394.029 1.39481 1.35556 0
M  V30 4114 C 394.312 3.19925 -1.65287 0
M  V30 4115 C 394.165 3.1663 -3.19477 0
M  V30 4116 C 395.484 4.18189 -1.37134 0
M  V30 4117 H 392.603 0.642538 -0.360991 0
M  V30 4118 H 395.245 1.20784 -1.46667 0
M  V30 4119 H 393.395 3.67929 -1.24741 0
M  V30 4120 H 395.067 2.76567 -3.692 0
M  V30 4121 H 393.31 2.54491 -3.51307 0
M  V30 4122 H 393.981 4.1758 -3.61013 0
M  V30 4123 H 396.457 3.78761 -1.72276 0
M  V30 4124 H 395.333 5.16394 -1.86087 0
M  V30 4125 H 395.594 4.41112 -0.295424 0
M  V30 4126 N 394.653 0.992116 1.22453 0
M  V30 4127 C 395.899 0.678177 1.91761 0
M  V30 4128 C 396.254 -0.781141 1.75829 0
M  V30 4129 O 395.547 -1.55747 1.11595 0
M  V30 4130 C 395.741 1.01832 3.42586 0
M  V30 4131 C 395.57 2.50916 3.73191 0
M  V30 4132 C 394.34 3.17308 3.93248 0
M  V30 4133 C 396.538 3.49032 3.77732 0
M  V30 4134 N 394.52 4.55876 4.11157 0
M  V30 4135 C 395.891 4.73055 4.00773 0
M  V30 4136 C 397.946 3.43349 3.60577 0
M  V30 4137 C 396.649 5.92089 4.0844 0
M  V30 4138 C 398.675 4.61759 3.69503 0
M  V30 4139 C 398.037 5.84582 3.92993 0
M  V30 4140 H 394.136 0.299425 0.722405 0
M  V30 4141 H 396.72 1.27197 1.47408 0
M  V30 4142 H 394.891 0.453118 3.85748 0
M  V30 4143 H 396.623 0.660454 3.99274 0
M  V30 4144 H 393.378 2.67778 3.9063 0
M  V30 4145 H 393.802 5.27748 4.24042 0
M  V30 4146 H 398.444 2.49408 3.41402 0
M  V30 4147 H 396.162 6.86435 4.26418 0
M  V30 4148 H 399.748 4.58951 3.57569 0
M  V30 4149 H 398.628 6.74676 3.99728 0
M  V30 4150 N 396.131 -1.37776 0.765217 0
M  V30 4151 C 397.078 -2.30342 0.145274 0
M  V30 4152 C 398.048 -1.5077 -0.696971 0
M  V30 4153 O 399.233 -1.79362 -0.650689 0
M  V30 4154 C 396.373 -3.37227 -0.732939 0
M  V30 4155 C 395.486 -4.31819 0.125199 0
M  V30 4156 C 394.621 -5.25777 -0.757107 0
M  V30 4157 C 393.66 -6.12012 0.103963 0
M  V30 4158 N 392.797 -6.98232 -0.735953 0
M  V30 4159 H 397.637 -2.8278 0.940195 0
M  V30 4160 H 395.174 -1.39211 0.475255 0
M  V30 4161 H 397.132 -3.97818 -1.25686 0
M  V30 4162 H 395.762 -2.86171 -1.49353 0
M  V30 4163 H 394.814 -3.7259 0.766865 0
M  V30 4164 H 396.126 -4.92509 0.789683 0
M  V30 4165 H 395.28 -5.91541 -1.34776 0
M  V30 4166 H 394.019 -4.65481 -1.45529 0
M  V30 4167 H 393.024 -5.45233 0.707197 0
M  V30 4168 H 394.249 -6.74379 0.799381 0
M  V30 4169 H 392.195 -6.40472 -1.41887 0
M  V30 4170 H 392.112 -7.55891 -0.128624 0
M  V30 4171 H 393.38 -7.68393 -1.31121 0
M  V30 4172 N 397.609 -0.515225 -1.4894 0
M  V30 4173 C 398.556 0.255567 -2.29381 0
M  V30 4174 C 399.526 0.947387 -1.36432 0
M  V30 4175 O 400.711 0.951288 -1.65394 0
M  V30 4176 C 397.851 1.30551 -3.19453 0
M  V30 4177 C 396.964 0.624029 -4.27469 0
M  V30 4178 C 396.099 1.65563 -5.0474 0
M  V30 4179 C 395.138 0.956802 -6.04576 0
M  V30 4180 N 394.275 1.93326 -6.74959 0
M  V30 4181 H 399.115 -0.436607 -2.94784 0
M  V30 4182 H 396.652 -0.227154 -1.45336 0
M  V30 4183 H 398.61 1.92639 -3.70062 0
M  V30 4184 H 397.24 1.96626 -2.56004 0
M  V30 4185 H 396.292 -0.110459 -3.8024 0
M  V30 4186 H 397.604 0.0746092 -4.98744 0
M  V30 4187 H 396.758 2.35119 -5.59289 0
M  V30 4188 H 395.497 2.23893 -4.3327 0
M  V30 4189 H 394.502 0.247097 -5.49244 0
M  V30 4190 H 395.727 0.379814 -6.78037 0
M  V30 4191 H 393.673 2.50591 -6.06251 0
M  V30 4192 H 393.59 1.43489 -7.42258 0
M  V30 4193 H 394.858 2.62126 -7.34105 0
M  V30 4194 N 399.087 1.5561 -0.249682 0
M  V30 4195 C 400.315 2.03411 0.378352 0
M  V30 4196 C 400.73 1.12886 1.51335 0
M  V30 4197 O 400.087 0.143833 1.81932 0
M  V30 4198 C 400.138 3.50537 0.88351 0
M  V30 4199 O 399.859 4.37614 -0.20626 0
M  V30 4200 C 401.36 4.14113 1.58195 0
M  V30 4201 H 398.58 0.664994 0.08958 0
M  V30 4202 H 401.124 2.01044 -0.374357 0
M  V30 4203 H 399.279 3.5343 1.58639 0
M  V30 4204 H 399.693 5.24199 0.177782 0
M  V30 4205 H 401.167 5.18741 1.8871 0
M  V30 4206 H 401.644 3.60767 2.50487 0
M  V30 4207 H 402.25 4.15151 0.923573 0
M  V30 4208 N 400.565 -0.0233959 1.57583 0
M  V30 4209 C 401.812 -0.713063 1.8953 0
M  V30 4210 C 402.14 -1.75056 0.847673 0
M  V30 4211 O 401.395 -1.95119 -0.150636 0
M  V30 4212 C 401.694 -1.41428 3.28227 0
M  V30 4213 C 401.36 -0.512222 4.47981 0
M  V30 4214 C 400.022 -0.263785 4.80476 0
M  V30 4215 C 402.374 0.110248 5.21083 0
M  V30 4216 C 399.702 0.615804 5.83459 0
M  V30 4217 C 402.054 0.977573 6.25001 0
M  V30 4218 C 400.718 1.23542 6.55968 0
M  V30 4219 H 399.988 -0.260928 0.69354 0
M  V30 4220 H 402.635 0.0271047 1.91481 0
M  V30 4221 H 400.94 -2.22791 3.22291 0
M  V30 4222 H 402.637 -1.95355 3.50196 0
M  V30 4223 H 399.227 -0.716013 4.22577 0
M  V30 4224 H 403.411 -0.0687137 4.96252 0
M  V30 4225 H 398.667 0.82382 6.05824 0
M  V30 4226 H 402.841 1.46638 6.80786 0
M  V30 4227 H 400.468 1.91871 7.35588 0
M  V30 4228 N 402.043 -1.548 -0.295768 0
M  V30 4229 C 403.292 -1.73538 -1.02798 0
M  V30 4230 C 403.605 -0.531159 -1.8825 0
M  V30 4231 O 404.811 -0.600458 -2.64777 0
M  V30 4232 C 403.267 -3.07051 -1.87744 0
M  V30 4233 C 402.875 -4.34968 -1.07269 0
M  V30 4234 C 404.619 -3.35146 -2.60533 0
M  V30 4235 C 402.526 -5.5953 -1.91521 0
M  V30 4236 H 401.456 -0.646794 -0.387522 0
M  V30 4237 H 404.107 -1.81278 -0.284718 0
M  V30 4238 H 402.489 -2.93289 -2.66078 0
M  V30 4239 H 403.663 -4.5958 -0.335117 0
M  V30 4240 H 401.978 -4.13847 -0.460384 0
M  V30 4241 H 404.575 -4.2541 -3.23929 0
M  V30 4242 H 404.918 -2.54255 -3.29636 0
M  V30 4243 H 405.451 -3.49902 -1.89244 0
M  V30 4244 H 402.19 -6.43103 -1.26878 0
M  V30 4245 H 401.71 -5.39096 -2.62937 0
M  V30 4246 H 403.389 -5.96982 -2.49442 0
M  V30 4247 N 403.521 0.559213 -1.47345 0
M  V30 4248 C 404.453 1.68161 -1.55738 0
M  V30 4249 C 405.466 1.56636 -0.443744 0
M  V30 4250 O 406.655 1.6363 -0.713258 0
M  V30 4251 C 403.755 3.06611 -1.4437 0
M  V30 4252 C 402.928 3.4391 -2.70268 0
M  V30 4253 C 401.987 4.61515 -2.52765 0
M  V30 4254 O 401.013 4.66197 -3.26572 0
M  V30 4255 N 402.215 5.57883 -1.6046 0
M  V30 4256 H 404.98 1.61408 -2.52522 0
M  V30 4257 H 402.541 0.7458 -1.43699 0
M  V30 4258 H 404.533 3.83117 -1.30398 0
M  V30 4259 H 403.103 3.07602 -0.556766 0
M  V30 4260 H 402.323 2.56873 -2.99015 0
M  V30 4261 H 403.611 3.65605 -3.53851 0
M  V30 4262 H 403.009 5.56855 -0.996422 0
M  V30 4263 H 401.566 6.33723 -1.52441 0
M  V30 4264 N 404.999 1.35443 0.805782 0
M  V30 4265 C 406.247 1.28507 1.55982 0
M  V30 4266 C 406.568 -0.140046 1.94496 0
M  V30 4267 O 405.838 -1.07666 1.63661 0
M  V30 4268 H 404.418 0.472676 0.578434 0
M  V30 4269 H 407.08 1.69555 0.961098 0
M  V30 4270 H 406.176 1.90148 2.47488 0
M  V30 4271 N 406.477 -1.02803 1.19454 0
M  V30 4272 C 407.725 -1.75869 0.995722 0
M  V30 4273 C 408.046 -1.89138 -0.474543 0
M  V30 4274 O 407.316 -1.42558 -1.34366 0
M  V30 4275 H 405.896 -0.651511 0.365435 0
M  V30 4276 H 408.558 -1.24004 1.50363 0
M  V30 4277 H 407.654 -2.76661 1.44447 0
M  V30 4278 N 407.956 -0.998596 -1.21925 0
M  V30 4279 C 408.888 -0.511879 -2.23411 0
M  V30 4280 C 409.901 0.396094 -1.57908 0
M  V30 4281 O 411.09 0.197316 -1.77406 0
M  V30 4282 C 408.19 0.276802 -3.37768 0
M  V30 4283 C 407.363 -0.628687 -4.32858 0
M  V30 4284 C 406.422 0.109272 -5.26087 0
M  V30 4285 O 405.448 -0.507237 -5.66935 0
M  V30 4286 N 406.65 1.38983 -5.63617 0
M  V30 4287 H 409.415 -1.38457 -2.658 0
M  V30 4288 H 406.976 -0.873981 -1.36283 0
M  V30 4289 H 408.968 0.77928 -3.97126 0
M  V30 4290 H 407.538 1.05063 -2.94415 0
M  V30 4291 H 406.758 -1.31175 -3.71735 0
M  V30 4292 H 408.046 -1.24514 -4.93329 0
M  V30 4293 H 407.444 1.91194 -5.32411 0
M  V30 4294 H 406.001 1.83739 -6.25367 0
M  V30 4295 N 409.434 1.37368 -0.772513 0
M  V30 4296 C 410.68 1.99969 -0.337681 0
M  V30 4297 C 411.013 1.61184 1.08321 0
M  V30 4298 O 410.288 0.858395 1.74533 0
M  V30 4299 C 410.571 3.56858 -0.482121 0
M  V30 4300 C 410.424 4.0555 -1.94549 0
M  V30 4301 C 411.743 4.39955 0.113143 0
M  V30 4302 H 408.862 0.726464 -0.124171 0
M  V30 4303 H 411.504 1.63034 -0.975699 0
M  V30 4304 H 409.654 3.88452 0.0610361 0
M  V30 4305 H 411.326 3.84518 -2.54841 0
M  V30 4306 H 409.569 3.57715 -2.45403 0
M  V30 4307 H 410.24 5.14587 -1.9976 0
M  V30 4308 H 412.716 4.14623 -0.35031 0
M  V30 4309 H 411.592 5.48897 -0.0180514 0
M  V30 4310 H 411.853 4.25403 1.20354 0
M  V30 4311 N 410.912 0.523116 1.48665 0
M  V30 4312 C 412.137 -0.0117284 2.07397 0
M  V30 4313 C 412.562 -1.28031 1.37803 0
M  V30 4314 O 411.92 -1.75836 0.441762 0
M  V30 4315 C 411.968 -0.225786 3.59892 0
M  V30 4316 O 411.072 -1.29592 3.91509 0
M  V30 4317 H 410.413 0.0360673 0.66302 0
M  V30 4318 H 412.943 0.729066 1.9117 0
M  V30 4319 H 412.953 -0.450552 4.05505 0
M  V30 4320 H 411.628 0.700944 4.09951 0
M  V30 4321 H 410.205 -1.05436 3.57684 0
M  V30 4322 N 412.39 -1.55475 0.257931 0
M  V30 4323 C 413.32 -2.24815 -0.630912 0
M  V30 4324 C 414.301 -1.23224 -1.17259 0
M  V30 4325 O 415.486 -1.51904 -1.20991 0
M  V30 4326 C 412.616 -2.95609 -1.82298 0
M  V30 4327 C 411.57 -4.03982 -1.41359 0
M  V30 4328 C 410.896 -4.6226 -2.68738 0
M  V30 4329 C 412.196 -5.19109 -0.57648 0
M  V30 4330 H 413.89 -2.99354 -0.0526878 0
M  V30 4331 H 411.436 -1.4398 -0.023901 0
M  V30 4332 H 413.389 -3.42822 -2.45054 0
M  V30 4333 H 412.113 -2.18577 -2.42676 0
M  V30 4334 H 410.772 -3.57555 -0.809324 0
M  V30 4335 H 410.42 -3.81915 -3.27338 0
M  V30 4336 H 410.12 -5.35424 -2.42065 0
M  V30 4337 H 411.644 -5.12212 -3.32372 0
M  V30 4338 H 413.058 -5.62479 -1.10861 0
M  V30 4339 H 411.455 -5.98729 -0.405351 0
M  V30 4340 H 412.525 -4.83174 0.408776 0
M  V30 4341 N 413.868 0.0150385 -1.57593 0
M  V30 4342 C 415.114 0.704043 -1.90187 0
M  V30 4343 C 415.447 1.74249 -0.857366 0
M  V30 4344 O 414.722 1.94092 0.125843 0
M  V30 4345 C 415.005 1.36087 -3.33395 0
M  V30 4346 C 414.858 0.334981 -4.48551 0
M  V30 4347 C 416.177 2.29112 -3.7576 0
M  V30 4348 H 413.296 0.254475 -0.691673 0
M  V30 4349 H 415.938 -0.0331678 -1.89971 0
M  V30 4350 H 414.088 1.98922 -3.3371 0
M  V30 4351 H 415.76 -0.292534 -4.60372 0
M  V30 4352 H 414.003 -0.344325 -4.32431 0
M  V30 4353 H 414.674 0.833316 -5.45674 0
M  V30 4354 H 417.15 1.76308 -3.76902 0
M  V30 4355 H 416.026 2.72043 -4.76743 0
M  V30 4356 H 416.287 3.16385 -3.08793 0
M  V30 4357 N 415.346 1.54954 0.287554 0
M  V30 4358 C 416.762 1.46469 0.633964 0
M  V30 4359 C 416.962 0.666865 1.90145 0
M  V30 4360 O 416.018 0.179906 2.51858 0
M  V30 4361 C 417.331 2.90556 0.774454 0
M  V30 4362 C 418.879 3.00681 0.869462 0
M  V30 4363 C 419.354 4.45993 1.04184 0
M  V30 4364 N 420.845 4.4976 1.10772 0
M  V30 4365 C 421.58 5.59393 1.25964 0
M  V30 4366 N 421.076 6.78923 1.37968 0
M  V30 4367 N 422.869 5.47107 1.28959 0
M  V30 4368 H 415.02 2.05288 -0.545041 0
M  V30 4369 H 417.283 0.930305 -0.182308 0
M  V30 4370 H 416.989 3.51594 -0.086207 0
M  V30 4371 H 416.863 3.38743 1.6593 0
M  V30 4372 H 419.25 2.39749 1.7206 0
M  V30 4373 H 419.331 2.55769 -0.0396831 0
M  V30 4374 H 418.975 5.07524 0.195422 0
M  V30 4375 H 418.905 4.88548 1.96542 0
M  V30 4376 H 421.396 3.63651 1.02794 0
M  V30 4377 H 421.709 7.58231 1.49353 0
M  V30 4378 H 420.054 6.81763 1.34999 0
M  V30 4379 H 423.245 4.52668 1.19202 0
M  V30 4380 H 423.418 6.32595 1.40455 0
M  V30 4381 N 416.824 -0.551391 1.4764 0
M  V30 4382 C 417.774 -1.65362 1.56969 0
M  V30 4383 C 418.758 -1.55098 0.428189 0
M  V30 4384 O 419.95 -1.63481 0.678441 0
M  V30 4385 C 417.079 -3.04129 1.59249 0
M  V30 4386 C 416.165 -3.19576 2.78804 0
M  V30 4387 N 416.556 -3.05067 4.03445 0
M  V30 4388 C 414.854 -3.50588 2.75688 0
M  V30 4389 C 415.555 -3.2336 4.83543 0
M  V30 4390 N 414.531 -3.4996 4.15968 0
M  V30 4391 H 418.333 -1.52722 2.51104 0
M  V30 4392 H 415.847 -0.756303 1.43714 0
M  V30 4393 H 417.844 -3.83278 1.64024 0
M  V30 4394 H 416.504 -3.17877 0.662148 0
M  V30 4395 H 417.515 -2.82273 4.34215 0
M  V30 4396 H 414.192 -3.70827 1.91817 0
M  V30 4397 H 415.582 -3.17061 5.92387 0
M  V30 4398 N 418.302 -1.35869 -0.798587 0
M  V30 4399 C 419.249 -1.29446 -1.91082 0
M  V30 4400 C 420.219 -0.16487 -1.6528 0
M  V30 4401 O 421.404 -0.349888 -1.87564 0
M  V30 4402 C 418.544 -1.0804 -3.27752 0
M  V30 4403 C 417.657 -2.29993 -3.65687 0
M  V30 4404 C 416.792 -2.01673 -4.91428 0
M  V30 4405 C 415.831 -3.19636 -5.22015 0
M  V30 4406 N 414.968 -2.91039 -6.38937 0
M  V30 4407 H 419.808 -2.24553 -1.95907 0
M  V30 4408 H 417.345 -1.11615 -0.958148 0
M  V30 4409 H 419.303 -0.936586 -4.06551 0
M  V30 4410 H 417.933 -0.16592 -3.22373 0
M  V30 4411 H 416.985 -2.55211 -2.82085 0
M  V30 4412 H 418.297 -3.18052 -3.84245 0
M  V30 4413 H 417.451 -1.84168 -5.78072 0
M  V30 4414 H 416.19 -1.10911 -4.74921 0
M  V30 4415 H 415.195 -3.37709 -4.33858 0
M  V30 4416 H 416.42 -4.11211 -5.40447 0
M  V30 4417 H 414.366 -2.0288 -6.2384 0
M  V30 4418 H 414.283 -3.72635 -6.57784 0
M  V30 4419 H 415.551 -2.77093 -7.28587 0
M  V30 4420 N 419.78 1.02168 -1.19998 0
M  V30 4421 C 421.057 1.72816 -0.916191 0
M  V30 4422 C 421.437 2.03081 0.576325 0
M  V30 4423 O 420.785 1.69122 1.53656 0
M  V30 4424 C 420.995 2.9997 -1.78378 0
M  V30 4425 C 422.343 3.73336 -2.02251 0
M  V30 4426 O 423.367 3.09914 -1.75589 0
M  V30 4427 O 422.226 4.87371 -2.47249 0
M  V30 4428 H 419.32 0.752924 -0.342103 0
M  V30 4429 H 421.866 1.08062 -1.30846 0
M  V30 4430 H 420.638 2.73888 -2.79466 0
M  V30 4431 H 420.261 3.72464 -1.39126 0
M  V30 4432 N 421.258 1.00505 1.21394 0
M  V30 4433 C 422.504 0.688793 1.90745 0
M  V30 4434 C 422.837 -0.778486 1.77914 0
M  V30 4435 O 422.112 -1.56433 1.15581 0
M  V30 4436 C 422.395 1.11063 3.42545 0
M  V30 4437 C 422.248 2.63737 3.64367 0
M  V30 4438 C 423.567 0.673059 4.34923 0
M  V30 4439 H 420.686 0.251702 0.692687 0
M  V30 4440 H 423.328 1.25074 1.43026 0
M  V30 4441 H 421.478 0.632508 3.83317 0
M  V30 4442 H 423.15 3.19313 3.32922 0
M  V30 4443 H 421.393 3.05248 3.08231 0
M  V30 4444 H 422.064 2.88305 4.70727 0
M  V30 4445 H 424.54 1.08392 4.01734 0
M  V30 4446 H 423.416 0.996383 5.39781 0
M  V30 4447 H 423.677 -0.425808 4.40045 0
M  V30 4448 N 422.737 -1.36956 0.779787 0
M  V30 4449 C 424.153 -1.52817 0.460342 0
M  V30 4450 C 424.353 -1.7361 -1.02283 0
M  V30 4451 O 423.409 -1.76207 -1.80852 0
M  V30 4452 C 424.722 -2.71983 1.28241 0
M  V30 4453 C 426.27 -2.85849 1.27512 0
M  V30 4454 C 426.745 -4.08008 2.08072 0
M  V30 4455 N 428.236 -4.15135 2.05467 0
M  V30 4456 C 428.971 -5.08711 2.64577 0
M  V30 4457 N 428.467 -6.07792 3.32506 0
M  V30 4458 N 430.26 -5.01254 2.54363 0
M  V30 4459 H 422.411 -1.21713 1.74068 0
M  V30 4460 H 424.674 -0.593294 0.739396 0
M  V30 4461 H 424.38 -2.63109 2.33381 0
M  V30 4462 H 424.254 -3.65882 0.917088 0
M  V30 4463 H 426.641 -2.94189 0.231686 0
M  V30 4464 H 426.722 -1.92886 1.68014 0
M  V30 4465 H 426.366 -4.00429 3.12441 0
M  V30 4466 H 426.296 -5.001 1.64947 0
M  V30 4467 H 428.787 -3.44189 1.5602 0
M  V30 4468 H 429.1 -6.75739 3.74963 0
M  V30 4469 H 427.445 -6.08047 3.36606 0
M  V30 4470 H 430.636 -4.22795 2.00902 0
M  V30 4471 H 430.809 -5.73995 3.00722 0
M  V30 4472 N 424.215 -0.530993 -1.48385 0
M  V30 4473 C 425.631 -0.188919 -1.58478 0
M  V30 4474 C 425.831 1.30786 -1.53288 0
M  V30 4475 O 424.887 2.08619 -1.42248 0
M  V30 4476 C 426.2 -0.792343 -2.90073 0
M  V30 4477 C 427.748 -0.76117 -3.03604 0
M  V30 4478 C 428.223 -1.34319 -4.37861 0
M  V30 4479 N 429.714 -1.3052 -4.44431 0
M  V30 4480 C 430.449 -1.72543 -5.46824 0
M  V30 4481 N 429.945 -2.22299 -6.56167 0
M  V30 4482 N 431.738 -1.63773 -5.37712 0
M  V30 4483 H 423.889 -1.50377 -1.50002 0
M  V30 4484 H 426.152 -0.625559 -0.712306 0
M  V30 4485 H 425.858 -1.84323 -2.99529 0
M  V30 4486 H 425.732 -0.270026 -3.76232 0
M  V30 4487 H 428.119 0.280957 -2.93759 0
M  V30 4488 H 428.2 -1.32097 -2.19053 0
M  V30 4489 H 427.844 -2.38425 -4.4846 0
M  V30 4490 H 427.774 -0.759064 -5.21101 0
M  V30 4491 H 430.265 -0.940973 -3.65997 0
M  V30 4492 H 430.578 -2.52356 -7.30436 0
M  V30 4493 H 428.923 -2.26293 -6.57127 0
M  V30 4494 H 432.114 -1.24698 -4.51185 0
M  V30 4495 H 432.287 -1.96844 -6.17379 0
M  V30 4496 N 425.693 1.55336 -0.266172 0
M  V30 4497 C 426.942 1.98574 0.353749 0
M  V30 4498 C 427.255 1.15789 1.57646 0
M  V30 4499 O 428.461 1.49129 2.26876 0
M  V30 4500 C 426.917 3.53403 0.680747 0
M  V30 4501 C 426.525 4.44953 -0.52165 0
M  V30 4502 C 428.269 4.05251 1.26379 0
M  V30 4503 C 426.176 5.91156 -0.169736 0
M  V30 4504 H 425.106 0.741643 0.135949 0
M  V30 4505 H 427.757 1.79743 -0.369421 0
M  V30 4506 H 426.139 3.68001 1.46257 0
M  V30 4507 H 427.313 4.42121 -1.29869 0
M  V30 4508 H 425.628 4.03691 -1.02093 0
M  V30 4509 H 428.225 5.12021 1.54074 0
M  V30 4510 H 428.568 3.53749 2.19471 0
M  V30 4511 H 429.101 3.94057 0.544447 0
M  V30 4512 H 425.84 6.46736 -1.0683 0
M  V30 4513 H 425.36 5.97079 0.570717 0
M  V30 4514 H 427.039 6.4655 0.241245 0
M  V30 4515 N 427.171 -0.0066808 1.57599 0
M  V30 4516 C 428.587 -0.36267 1.55425 0
M  V30 4517 C 428.787 -1.75209 0.995187 0
M  V30 4518 O 427.843 -2.44616 0.626058 0
M  V30 4519 C 429.156 -0.244017 2.99708 0
M  V30 4520 C 430.704 -0.319451 3.11366 0
M  V30 4521 C 431.179 -0.229998 4.57422 0
M  V30 4522 N 432.67 -0.288105 4.62303 0
M  V30 4523 C 433.405 -0.242127 5.72889 0
M  V30 4524 N 432.901 -0.147133 6.92644 0
M  V30 4525 N 434.694 -0.293502 5.61333 0
M  V30 4526 H 426.845 0.902314 1.92281 0
M  V30 4527 H 429.108 0.34525 0.882896 0
M  V30 4528 H 428.814 0.711678 3.44424 0
M  V30 4529 H 428.688 -1.02877 3.629 0
M  V30 4530 H 431.075 -1.26559 2.66584 0
M  V30 4531 H 431.156 0.495055 2.50964 0
M  V30 4532 H 430.8 0.712566 5.02877 0
M  V30 4533 H 430.73 -1.0629 5.15761 0
M  V30 4534 H 433.221 -0.363126 3.76151 0
M  V30 4535 H 433.534 -0.117763 7.7271 0
M  V30 4536 H 431.879 -0.112857 6.94908 0
M  V30 4537 H 435.07 -0.365864 4.66668 0
M  V30 4538 H 435.243 -0.254204 6.47501 0
M  V30 4539 N 428.649 -1.55105 -0.279332 0
M  V30 4540 C 429.874 -1.7976 -1.03446 0
M  V30 4541 C 430.299 -0.565952 -1.79384 0
M  V30 4542 O 429.657 0.484259 -1.74713 0
M  V30 4543 C 429.705 -3.0179 -1.97371 0
M  V30 4544 O 428.809 -2.76432 -3.06038 0
M  V30 4545 H 428.15 -0.594334 -0.29608 0
M  V30 4546 H 430.68 -2.02235 -0.310165 0
M  V30 4547 H 430.69 -3.30351 -2.39441 0
M  V30 4548 H 429.365 -3.91085 -1.4151 0
M  V30 4549 H 427.942 -2.58949 -2.68328 0
M  V30 4550 N 430.127 0.543554 -1.4793 0
M  V30 4551 C 431.057 1.65888 -1.64327 0
M  V30 4552 C 432.038 1.62818 -0.492383 0
M  V30 4553 O 433.223 1.80226 -0.723338 0
M  V30 4554 C 430.353 3.04506 -1.67013 0
M  V30 4555 C 429.307 3.2243 -2.81466 0
M  V30 4556 C 428.633 4.61972 -2.69233 0
M  V30 4557 C 429.933 3.06496 -4.22915 0
M  V30 4558 H 431.627 1.52421 -2.57698 0
M  V30 4559 H 429.173 0.731849 -1.24016 0
M  V30 4560 H 431.126 3.82391 -1.77074 0
M  V30 4561 H 429.85 3.18964 -0.70212 0
M  V30 4562 H 428.509 2.46957 -2.70938 0
M  V30 4563 H 428.157 4.73247 -1.7043 0
M  V30 4564 H 427.857 4.74911 -3.46025 0
M  V30 4565 H 429.381 5.41974 -2.81242 0
M  V30 4566 H 430.795 3.74186 -4.34348 0
M  V30 4567 H 429.192 3.30938 -5.006 0
M  V30 4568 H 430.262 2.03077 -4.40327 0
M  V30 4569 N 431.605 1.3629 0.791371 0
M  V30 4570 C 432.537 1.26321 1.91248 0
M  V30 4571 C 433.55 0.18313 1.61767 0
M  V30 4572 O 434.739 0.437682 1.73051 0
M  V30 4573 C 431.839 0.925901 3.26007 0
M  V30 4574 C 431.012 2.10746 3.83281 0
M  V30 4575 C 430.071 1.74352 4.96475 0
M  V30 4576 O 429.097 2.46416 5.13096 0
M  V30 4577 N 430.299 0.676058 5.7655 0
M  V30 4578 H 433.064 2.22915 2.00323 0
M  V30 4579 H 430.625 1.29659 0.969546 0
M  V30 4580 H 432.617 0.663636 3.99222 0
M  V30 4581 H 431.187 0.0491581 3.12561 0
M  V30 4582 H 430.407 2.53264 3.02077 0
M  V30 4583 H 431.695 2.8969 4.18279 0
M  V30 4584 H 431.093 0.0776467 5.65647 0
M  V30 4585 H 429.65 0.473612 6.50077 0
M  V30 4586 N 433.083 -1.0153 1.20538 0
M  V30 4587 C 434.499 -1.27461 0.96051 0
M  V30 4588 C 434.699 -1.98273 -0.359193 0
M  V30 4589 O 433.755 -2.27886 -1.0874 0
M  V30 4590 C 435.068 -2.10837 2.14402 0
M  V30 4591 C 436.616 -2.24099 2.18515 0
M  V30 4592 C 437.091 -3.10852 3.36355 0
M  V30 4593 N 438.582 -3.18441 3.36377 0
M  V30 4594 C 439.317 -3.85795 4.24205 0
M  V30 4595 N 438.813 -4.55264 5.22213 0
M  V30 4596 N 440.606 -3.82331 4.12043 0
M  V30 4597 H 432.757 -0.539907 2.05423 0
M  V30 4598 H 435.02 -0.30092 0.898972 0
M  V30 4599 H 434.726 -1.66144 3.09983 0
M  V30 4600 H 434.6 -3.11576 2.12604 0
M  V30 4601 H 436.987 -2.68016 1.23497 0
M  V30 4602 H 437.068 -1.22865 2.24361 0
M  V30 4603 H 436.712 -2.6764 4.31661 0
M  V30 4604 H 436.642 -4.12177 3.27746 0
M  V30 4605 H 439.133 -2.68978 2.65442 0
M  V30 4606 H 439.446 -5.04331 5.85551 0
M  V30 4607 H 437.791 -4.54085 5.26148 0
M  V30 4608 H 440.982 -3.27207 3.34743 0
M  V30 4609 H 441.155 -4.34547 4.807 0
M  V30 4610 N 434.561 -1.01147 -1.20859 0
M  V30 4611 C 435.786 -0.716698 -1.94623 0
M  V30 4612 C 436.211 0.715415 -1.73964 0
M  V30 4613 O 435.569 1.49157 -1.03062 0
M  V30 4614 C 435.617 -1.0513 -3.44935 0
M  V30 4615 O 434.721 -0.160131 -4.12089 0
M  V30 4616 H 434.062 -0.266404 -0.608214 0
M  V30 4617 H 436.592 -1.35346 -1.53436 0
M  V30 4618 H 436.602 -1.00086 -3.95533 0
M  V30 4619 H 435.277 -2.09475 -3.59295 0
M  V30 4620 H 433.854 -0.267657 -3.71938 0
M  V30 4621 N 436.039 1.36541 -0.78704 0
M  V30 4622 C 437.285 1.99599 -0.358872 0
M  V30 4623 C 437.618 1.62323 1.06606 0
M  V30 4624 O 436.893 0.876858 1.73613 0
M  V30 4625 C 437.176 3.56327 -0.519944 0
M  V30 4626 C 437.029 4.03464 -1.98839 0
M  V30 4627 C 438.348 4.4005 0.0664737 0
M  V30 4628 H 435.467 0.725107 -0.131869 0
M  V30 4629 H 438.109 1.6199 -0.992936 0
M  V30 4630 H 436.259 3.88495 0.0198321 0
M  V30 4631 H 437.931 3.81793 -2.58905 0
M  V30 4632 H 436.174 3.55092 -2.49183 0
M  V30 4633 H 436.845 5.12439 -2.05207 0
M  V30 4634 H 439.321 4.14228 -0.394267 0
M  V30 4635 H 438.197 5.48847 -0.0762682 0
M  V30 4636 H 438.458 4.26655 1.15835 0
M  V30 4637 N 437.518 0.538854 1.48102 0
M  V30 4638 C 438.45 -0.256278 2.27763 0
M  V30 4639 C 439.463 -0.89633 1.35904 0
M  V30 4640 O 440.652 -0.773275 1.60881 0
M  V30 4641 C 437.752 -1.37896 3.09577 0
M  V30 4642 C 436.925 -0.839159 4.29275 0
M  V30 4643 C 435.984 -1.84405 4.9283 0
M  V30 4644 O 435.01 -1.39746 5.51779 0
M  V30 4645 N 436.212 -3.17666 4.85869 0
M  V30 4646 H 438.977 0.426968 2.96643 0
M  V30 4647 H 436.538 0.373747 1.57527 0
M  V30 4648 H 438.53 -2.04955 3.48963 0
M  V30 4649 H 437.1 -1.96572 2.4306 0
M  V30 4650 H 436.32 0.00769287 3.94199 0
M  V30 4651 H 437.608 -0.457548 5.06739 0
M  V30 4652 H 437.006 -3.56609 4.39143 0
M  V30 4653 H 435.563 -3.80334 5.29329 0
M  V30 4654 N 438.996 -1.55193 0.274407 0
M  V30 4655 C 440.242 -1.99877 -0.343086 0
M  V30 4656 C 440.575 -1.16256 -1.55558 0
M  V30 4657 O 439.85 -0.232462 -1.93106 0
M  V30 4658 C 440.133 -3.52706 -0.725965 0
M  V30 4659 C 439.986 -4.47081 0.493818 0
M  V30 4660 C 441.305 -4.11422 -1.56268 0
M  V30 4661 H 438.424 -0.726625 -0.123229 0
M  V30 4662 H 441.066 -1.86136 0.38121 0
M  V30 4663 H 439.216 -3.64546 -1.34307 0
M  V30 4664 H 440.888 -4.47186 1.13237 0
M  V30 4665 H 439.131 -4.1877 1.13201 0
M  V30 4666 H 439.802 -5.51699 0.18217 0
M  V30 4667 H 442.278 -4.02855 -1.04151 0
M  V30 4668 H 441.154 -5.18568 -1.79939 0
M  V30 4669 H 441.415 -3.61607 -2.54348 0
M  V30 4670 N 440.474 -0.00167713 -1.576 0
M  V30 4671 C 441.404 0.988091 -2.11563 0
M  V30 4672 C 442.385 1.35736 -1.02517 0
M  V30 4673 O 443.57 1.44082 -1.30208 0
M  V30 4674 C 440.7 2.27941 -2.62031 0
M  V30 4675 C 439.654 2.0517 -3.75619 0
M  V30 4676 C 438.98 3.4033 -4.12407 0
M  V30 4677 C 440.28 1.41294 -5.02825 0
M  V30 4678 H 441.974 0.538771 -2.94513 0
M  V30 4679 H 439.52 0.257712 -1.41675 0
M  V30 4680 H 441.473 2.97539 -2.9841 0
M  V30 4681 H 440.197 2.74989 -1.76205 0
M  V30 4682 H 438.856 1.37998 -3.39635 0
M  V30 4683 H 438.504 3.85085 -3.23603 0
M  V30 4684 H 438.204 3.25909 -4.88935 0
M  V30 4685 H 439.728 4.1124 -4.51347 0
M  V30 4686 H 441.142 2.00851 -5.36965 0
M  V30 4687 H 439.539 1.37356 -5.84169 0
M  V30 4688 H 440.609 0.382362 -4.8339 0
M  V30 4689 N 441.952 1.55251 0.271103 0
M  V30 4690 C 443.368 1.47133 0.618393 0
M  V30 4691 C 443.568 0.686994 1.89427 0
M  V30 4692 O 442.624 0.206609 2.51653 0
M  V30 4693 C 443.937 2.91361 0.743593 0
M  V30 4694 C 445.485 3.01587 0.837522 0
M  V30 4695 C 445.96 4.47073 0.994483 0
M  V30 4696 N 447.451 4.50909 1.05996 0
M  V30 4697 C 448.186 5.60698 1.20024 0
M  V30 4698 N 447.682 6.80348 1.30759 0
M  V30 4699 N 449.475 5.48444 1.23149 0
M  V30 4700 H 441.626 2.04698 -0.566784 0
M  V30 4701 H 443.889 0.928319 -0.192165 0
M  V30 4702 H 443.595 3.51483 -0.123493 0
M  V30 4703 H 443.469 3.40484 1.62328 0
M  V30 4704 H 445.856 2.4156 1.69507 0
M  V30 4705 H 445.937 2.55713 -0.0668086 0
M  V30 4706 H 445.581 5.07703 0.141582 0
M  V30 4707 H 445.511 4.90605 1.91349 0
M  V30 4708 H 448.002 3.6472 0.989316 0
M  V30 4709 H 448.315 7.59772 1.41303 0
M  V30 4710 H 446.66 6.83156 1.27761 0
M  V30 4711 H 449.851 4.53907 1.14394 0
M  V30 4712 H 450.024 6.34049 1.33738 0
M  V30 4713 N 443.43 -0.535701 1.48216 0
M  V30 4714 C 444.393 -1.623 1.61838 0
M  V30 4715 C 445.393 -1.53087 0.492024 0
M  V30 4716 O 446.583 -1.5686 0.757668 0
M  V30 4717 C 443.715 -3.01907 1.58319 0
M  V30 4718 H 444.908 -1.51564 2.58783 0
M  V30 4719 H 442.461 -0.757317 1.36727 0
M  V30 4720 H 443.196 -3.18155 0.628299 0
M  V30 4721 H 442.981 -3.10003 2.40085 0
M  V30 4722 H 444.471 -3.80969 1.71033 0
M  V30 4723 N 444.908 -1.36708 -0.784132 0
M  V30 4724 C 446.157 -1.30559 -1.53744 0
M  V30 4725 C 446.47 0.111374 -1.95283 0
M  V30 4726 O 447.676 0.29527 -2.6989 0
M  V30 4727 C 446.132 -2.29098 -2.77565 0
M  V30 4728 C 445.74 -3.76258 -2.43174 0
M  V30 4729 C 447.484 -2.31936 -3.55536 0
M  V30 4730 C 445.391 -4.6656 -3.63422 0
M  V30 4731 H 444.321 -0.48518 -0.577162 0
M  V30 4732 H 446.972 -1.62101 -0.859981 0
M  V30 4733 H 445.354 -1.90557 -3.47137 0
M  V30 4734 H 446.528 -4.23565 -1.81465 0
M  V30 4735 H 444.843 -3.76246 -1.78403 0
M  V30 4736 H 447.44 -2.9661 -4.44889 0
M  V30 4737 H 447.783 -1.3294 -3.94503 0
M  V30 4738 H 448.316 -2.6912 -2.92949 0
M  V30 4739 H 445.055 -5.66638 -3.29547 0
M  V30 4740 H 444.575 -4.23966 -4.24279 0
M  V30 4741 H 446.254 -4.8309 -4.30387 0
M  V30 4742 N 446.386 1.0089 -1.21074 0
M  V30 4743 C 447.632 1.74866 -1.02712 0
M  V30 4744 C 447.965 1.89178 0.438787 0
M  V30 4745 O 447.24 1.42325 1.32567 0
M  V30 4746 C 447.523 3.16347 -1.72036 0
M  V30 4747 C 447.376 3.09782 -3.26121 0
M  V30 4748 C 448.695 4.15187 -1.45973 0
M  V30 4749 H 445.814 0.634736 -0.374539 0
M  V30 4750 H 448.456 1.17646 -1.49196 0
M  V30 4751 H 446.606 3.65201 -1.32517 0
M  V30 4752 H 448.278 2.68673 -3.74983 0
M  V30 4753 H 446.521 2.46982 -3.56626 0
M  V30 4754 H 447.192 4.09829 -3.6979 0
M  V30 4755 H 449.668 3.75022 -1.80272 0
M  V30 4756 H 448.544 5.12331 -1.96999 0
M  V30 4757 H 448.805 4.40386 -0.388924 0
M  V30 4758 N 447.864 1.01787 1.20321 0
M  V30 4759 C 449.11 0.708985 1.90003 0
M  V30 4760 C 449.443 -0.759572 1.78729 0
M  V30 4761 O 448.718 -1.55198 1.17234 0
M  V30 4762 C 449.001 1.1469 3.41348 0
M  V30 4763 C 448.854 2.67586 3.61549 0
M  V30 4764 C 450.173 0.71915 4.34185 0
M  V30 4765 H 447.292 0.259034 0.689978 0
M  V30 4766 H 449.934 1.26584 1.41692 0
M  V30 4767 H 448.084 0.673128 3.82624 0
M  V30 4768 H 449.756 3.22826 3.29517 0
M  V30 4769 H 447.999 3.085 3.04976 0
M  V30 4770 H 448.67 2.93281 4.67643 0
M  V30 4771 H 451.146 1.12647 4.00562 0
M  V30 4772 H 450.022 1.05358 5.38694 0
M  V30 4773 H 450.283 -0.379111 4.40472 0
M  V30 4774 N 449.342 -1.36122 0.79427 0
M  V30 4775 C 450.275 -2.27759 0.141845 0
M  V30 4776 C 451.253 -1.47471 -0.684921 0
M  V30 4777 O 452.437 -1.76759 -0.654857 0
M  V30 4778 C 449.564 -3.29008 -0.804446 0
M  V30 4779 C 448.61 -4.26459 -0.0588617 0
M  V30 4780 S 449.443 -5.20253 1.26873 0
M  V30 4781 C 450.599 -6.25048 0.326562 0
M  V30 4782 H 450.832 -2.82746 0.918818 0
M  V30 4783 H 448.365 -1.42736 0.588722 0
M  V30 4784 H 450.323 -3.87842 -1.34495 0
M  V30 4785 H 448.984 -2.72924 -1.5547 0
M  V30 4786 H 448.177 -4.97973 -0.777087 0
M  V30 4787 H 447.779 -3.71731 0.411309 0
M  V30 4788 H 450.071 -6.75705 -0.492795 0
M  V30 4789 H 451.014 -7.00852 1.01053 0
M  V30 4790 H 451.422 -5.64454 -0.0722627 0
M  V30 4791 N 450.82 -0.546701 -1.47814 0
M  V30 4792 C 452.05 -0.0232519 -2.06587 0
M  V30 4793 C 452.458 1.2712 -1.40133 0
M  V30 4794 O 451.801 1.77091 -0.488305 0
M  V30 4795 C 451.863 0.254117 -3.58601 0
M  V30 4796 C 451.527 -0.949331 -4.47031 0
M  V30 4797 C 452.524 -1.85216 -4.85789 0
M  V30 4798 C 450.209 -1.16104 -4.88697 0
M  V30 4799 C 452.203 -2.95047 -5.65001 0
M  V30 4800 C 449.89 -2.26247 -5.67676 0
M  V30 4801 C 450.888 -3.1555 -6.05737 0
M  V30 4802 O 450.576 -4.23784 -6.83127 0
M  V30 4803 H 450.308 -0.0380082 -0.674931 0
M  V30 4804 H 452.862 -0.756631 -1.90956 0
M  V30 4805 H 451.092 1.04168 -3.72406 0
M  V30 4806 H 452.781 0.72167 -3.99433 0
M  V30 4807 H 453.547 -1.70061 -4.54207 0
M  V30 4808 H 449.426 -0.475159 -4.58545 0
M  V30 4809 H 452.97 -3.64778 -5.94628 0
M  V30 4810 H 448.867 -2.41379 -5.98671 0
M  V30 4811 H 449.635 -4.21701 -7.01506 0
M  V30 4812 N 452.299 1.55045 -0.282633 0
M  V30 4813 C 453.545 2.00056 0.332481 0
M  V30 4814 C 453.878 1.1708 1.54939 0
M  V30 4815 O 453.153 0.2427 1.9298 0
M  V30 4816 C 453.436 3.53086 0.70725 0
M  V30 4817 C 453.289 4.46813 -0.517521 0
M  V30 4818 C 454.608 4.12245 1.54084 0
M  V30 4819 H 451.727 0.727268 0.119373 0
M  V30 4820 H 454.369 1.85932 -0.391076 0
M  V30 4821 H 452.519 3.65253 1.32372 0
M  V30 4822 H 454.191 4.46579 -1.15607 0
M  V30 4823 H 452.434 4.18163 -1.1542 0
M  V30 4824 H 453.105 5.51595 -0.211426 0
M  V30 4825 H 455.581 4.03401 1.02013 0
M  V30 4826 H 454.457 5.19515 1.77186 0
M  V30 4827 H 454.718 3.62951 2.52427 0
M  V30 4828 N 453.777 0.010035 1.57597 0
M  V30 4829 C 455.026 -0.671945 1.90178 0
M  V30 4830 C 455.339 -1.74376 0.886131 0
M  V30 4831 O 456.545 -2.48107 1.10252 0
M  V30 4832 C 455.001 -1.24636 3.3763 0
M  V30 4833 C 454.609 -0.208838 4.47513 0
M  V30 4834 C 456.353 -1.90595 3.79307 0
M  V30 4835 C 454.26 -0.793814 5.86048 0
M  V30 4836 H 453.19 -0.25474 0.709665 0
M  V30 4837 H 455.841 0.0722206 1.83358 0
M  V30 4838 H 454.223 -2.04152 3.3932 0
M  V30 4839 H 455.397 0.562463 4.57354 0
M  V30 4840 H 453.712 0.350889 4.14919 0
M  V30 4841 H 456.309 -2.35284 4.80151 0
M  V30 4842 H 456.652 -2.74074 3.13352 0
M  V30 4843 H 457.185 -1.17798 3.79958 0
M  V30 4844 H 453.924 0.00240855 6.555 0
M  V30 4845 H 453.444 -1.53404 5.79851 0
M  V30 4846 H 455.123 -1.2894 6.34022 0
M  V30 4847 N 455.255 -1.55392 -0.262866 0
M  V30 4848 C 456.495 -1.78231 -1.00064 0
M  V30 4849 C 456.859 -0.576966 -1.83126 0
M  V30 4850 O 458.06 -0.683809 -2.59957 0
M  V30 4851 C 456.331 -3.05701 -1.85153 0
M  V30 4852 S 457.89 -3.49699 -2.65058 0
M  V30 4853 H 454.708 -0.626138 -0.336856 0
M  V30 4854 H 457.31 -1.93626 -0.27005 0
M  V30 4855 H 456.014 -3.91511 -1.23074 0
M  V30 4856 H 455.545 -2.93 -2.62515 0
M  V30 4857 H 457.56 -3.09772 -3.87629 0
M  V30 4858 N 456.733 0.527833 -1.48498 0
M  V30 4859 C 457.979 1.28295 -1.57836 0
M  V30 4860 C 458.334 1.9077 -0.249943 0
M  V30 4861 O 457.627 1.76421 0.747402 0
M  V30 4862 C 457.821 2.39275 -2.65485 0
M  V30 4863 C 457.65 1.87679 -4.08664 0
M  V30 4864 C 456.42 1.70187 -4.75778 0
M  V30 4865 C 458.618 1.40409 -4.94762 0
M  V30 4866 N 456.6 1.13238 -6.03366 0
M  V30 4867 C 457.971 0.954216 -6.12613 0
M  V30 4868 C 460.026 1.28732 -4.8097 0
M  V30 4869 C 458.729 0.39915 -7.18192 0
M  V30 4870 C 460.755 0.746244 -5.86673 0
M  V30 4871 C 460.117 0.306457 -7.03733 0
M  V30 4872 H 456.216 0.460408 -0.632099 0
M  V30 4873 H 458.8 0.594913 -1.85388 0
M  V30 4874 H 456.971 3.05572 -2.3975 0
M  V30 4875 H 458.703 3.06308 -2.64495 0
M  V30 4876 H 455.458 1.93772 -4.32145 0
M  V30 4877 H 455.882 0.867687 -6.71417 0
M  V30 4878 H 460.524 1.61338 -3.90807 0
M  V30 4879 H 458.242 0.0607678 -8.08077 0
M  V30 4880 H 461.828 0.659041 -5.78055 0
M  V30 4881 H 460.708 -0.105708 -7.84129 0
M  V30 4882 N 458.211 1.37122 0.776871 0
M  V30 4883 C 459.141 1.35164 1.90402 0
M  V30 4884 C 460.122 0.221069 1.68657 0
M  V30 4885 O 461.307 0.420642 1.8959 0
M  V30 4886 C 458.437 1.15274 3.27611 0
M  V30 4887 C 457.391 2.25289 3.63908 0
M  V30 4888 C 456.717 1.90527 4.99603 0
M  V30 4889 C 458.017 3.67446 3.71188 0
M  V30 4890 H 459.711 2.29482 1.92297 0
M  V30 4891 H 457.257 1.10465 0.923773 0
M  V30 4892 H 459.21 1.12536 4.06096 0
M  V30 4893 H 457.934 0.174102 3.26136 0
M  V30 4894 H 456.593 2.27174 2.87728 0
M  V30 4895 H 456.241 0.91206 4.94662 0
M  V30 4896 H 455.941 2.64193 5.24858 0
M  V30 4897 H 457.465 1.89367 5.80493 0
M  V30 4898 H 458.879 3.67719 4.39836 0
M  V30 4899 H 457.276 4.40123 4.07936 0
M  V30 4900 H 458.346 4.01443 2.71977 0
M  V30 4901 N 459.689 -1.00246 1.21608 0
M  V30 4902 C 461.1 -1.55511 1.03312 0
M  V30 4903 C 461.451 -1.91946 -0.406332 0
M  V30 4904 O 460.576 -1.73753 -1.28992 0
M  V30 4905 C 461.171 -2.82576 1.86913 0
M  V30 4906 C 459.73 -3.34318 1.72941 0
M  V30 4907 C 458.877 -2.07487 1.83968 0
M  V30 4908 H 461.828 -0.824638 1.35593 0
M  V30 4909 H 461.849 -3.54559 1.38087 0
M  V30 4910 H 461.361 -2.56026 2.91672 0
M  V30 4911 H 459.462 -3.65797 0.70877 0
M  V30 4912 H 459.575 -4.05566 2.55055 0
M  V30 4913 H 457.939 -2.20603 1.27304 0
M  V30 4914 H 458.722 -1.83346 2.9024 0
M  V30 4915 N 461.167 -1.02423 -1.1978 0
M  V30 4916 C 462.397 -0.736387 -1.93031 0
M  V30 4917 C 462.805 0.708023 -1.75453 0
M  V30 4918 O 462.148 1.4927 -1.07071 0
M  V30 4919 C 462.21 -1.00194 -3.45255 0
M  V30 4920 C 461.874 -2.43698 -3.86601 0
M  V30 4921 C 462.871 -3.41814 -3.91738 0
M  V30 4922 C 460.556 -2.77975 -4.18372 0
M  V30 4923 C 462.55 -4.72265 -4.28071 0
M  V30 4924 C 460.237 -4.08636 -4.54378 0
M  V30 4925 C 461.235 -5.05592 -4.59201 0
M  V30 4926 O 460.923 -6.33914 -4.94376 0
M  V30 4927 H 460.655 -0.269116 -0.620123 0
M  V30 4928 H 463.209 -1.37043 -1.52998 0
M  V30 4929 H 461.439 -0.310747 -3.85449 0
M  V30 4930 H 463.128 -0.704488 -3.9974 0
M  V30 4931 H 463.894 -3.16671 -3.67348 0
M  V30 4932 H 459.773 -2.0319 -4.13805 0
M  V30 4933 H 463.317 -5.4794 -4.3175 0
M  V30 4934 H 459.214 -4.33556 -4.78226 0
M  V30 4935 H 459.982 -6.38317 -5.12341 0
M  V30 4936 N 462.645 1.35699 -0.801477 0
M  V30 4937 C 463.595 2.2728 -0.181073 0
M  V30 4938 C 464.579 1.47533 0.642098 0
M  V30 4939 O 465.771 1.69785 0.500193 0
M  V30 4940 C 462.9 3.36626 0.673612 0
M  V30 4941 C 461.986 4.23802 -0.159008 0
M  V30 4942 N 462.377 4.90879 -1.2195 0
M  V30 4943 C 460.675 4.45959 0.0602005 0
M  V30 4944 C 461.376 5.5546 -1.72738 0
M  V30 4945 N 460.352 5.33663 -1.03465 0
M  V30 4946 H 464.154 2.76632 -0.992582 0
M  V30 4947 H 461.668 1.49166 -0.642127 0
M  V30 4948 H 463.665 4.01179 1.13408 0
M  V30 4949 H 462.325 2.88828 1.48353 0
M  V30 4950 H 463.336 4.92497 -1.60209 0
M  V30 4951 H 460.013 4.08969 0.839664 0
M  V30 4952 H 461.403 6.18991 -2.61342 0
M  V30 4953 N 464.123 0.554532 1.47522 0
M  V30 4954 C 465.086 -0.184174 2.28459 0
M  V30 4955 C 466.086 -0.845195 1.36796 0
M  V30 4956 O 467.276 -0.701467 1.59452 0
M  V30 4957 C 464.408 -1.26903 3.16399 0
M  V30 4958 H 465.601 0.526751 2.95238 0
M  V30 4959 H 463.154 0.311375 1.53167 0
M  V30 4960 H 463.889 -2.01244 2.54306 0
M  V30 4961 H 463.674 -0.799883 3.83854 0
M  V30 4962 H 465.164 -1.78794 3.77389 0
M  V30 4963 N 465.601 -1.54893 0.290851 0
M  V30 4964 C 467.017 -1.59476 -0.0628432 0
M  V30 4965 C 467.217 -1.30795 -1.5328 0
M  V30 4966 O 466.273 -1.07644 -2.28406 0
M  V30 4967 C 467.586 -2.98928 0.325962 0
M  V30 4968 C 469.134 -3.11799 0.273882 0
M  V30 4969 C 469.609 -4.53544 0.637359 0
M  V30 4970 N 471.1 -4.59433 0.589507 0
M  V30 4971 C 471.835 -5.67164 0.84335 0
M  V30 4972 N 471.331 -6.82975 1.16263 0
M  V30 4973 N 473.124 -5.56786 0.771091 0
M  V30 4974 H 465.275 -1.71798 1.24896 0
M  V30 4975 H 467.538 -0.801879 0.505663 0
M  V30 4976 H 467.244 -3.24805 1.34887 0
M  V30 4977 H 467.118 -3.75793 -0.325441 0
M  V30 4978 H 469.505 -2.85677 -0.739765 0
M  V30 4979 H 469.586 -2.37112 0.959766 0
M  V30 4980 H 469.23 -4.80394 1.64877 0
M  V30 4981 H 469.16 -5.26553 -0.0704866 0
M  V30 4982 H 471.651 -3.76245 0.353252 0
M  V30 4983 H 471.964 -7.61048 1.34257 0
M  V30 4984 H 470.309 -6.84552 1.20057 0
M  V30 4985 H 473.5 -4.65187 0.521383 0
M  V30 4986 H 473.673 -6.40664 0.972295 0
M  V30 4987 N 467.08 -0.0183926 -1.57589 0
M  V30 4988 C 468.496 0.337897 -1.55982 0
M  V30 4989 C 468.696 1.73604 -1.02294 0
M  V30 4990 O 467.752 2.43589 -0.664895 0
M  V30 4991 C 469.065 0.196305 -3.00059 0
M  V30 4992 C 470.613 0.269875 -3.11834 0
M  V30 4993 C 471.088 0.157197 -4.5773 0
M  V30 4994 N 472.579 0.214521 -4.62703 0
M  V30 4995 C 473.314 0.150955 -5.73201 0
M  V30 4996 N 472.81 0.0369212 -6.9279 0
M  V30 4997 N 474.603 0.204162 -5.61729 0
M  V30 4998 H 466.754 -0.93279 -1.90821 0
M  V30 4999 H 469.017 -0.359253 -0.877292 0
M  V30 5000 H 468.723 -0.766383 -3.43248 0
M  V30 5001 H 468.597 0.970908 -3.6449 0
M  V30 5002 H 470.984 1.22302 -2.68563 0
M  V30 5003 H 471.065 -0.534918 -2.50144 0
M  V30 5004 H 470.709 -0.792479 -5.01679 0
M  V30 5005 H 470.639 0.980717 -5.17387 0
M  V30 5006 H 473.13 0.303238 -3.76681 0
M  V30 5007 H 473.443 -0.00518321 -7.728 0
M  V30 5008 H 471.788 0.0022886 -6.95 0
M  V30 5009 H 474.979 0.291575 -4.67191 0
M  V30 5010 H 475.152 0.15116 -6.47824 0
M  V30 5011 N 468.558 1.5553 0.254621 0
M  V30 5012 C 469.488 1.9268 1.31897 0
M  V30 5013 C 470.469 0.790797 1.506 0
M  V30 5014 O 471.654 1.05045 1.63337 0
M  V30 5015 C 468.784 2.21477 2.67517 0
M  V30 5016 C 467.738 3.37256 2.63519 0
M  V30 5017 C 467.064 3.51576 4.02862 0
M  V30 5018 C 468.364 4.73157 2.21179 0
M  V30 5019 H 470.058 2.81832 1.01051 0
M  V30 5020 H 467.604 1.35599 0.484662 0
M  V30 5021 H 469.557 2.46055 3.42104 0
M  V30 5022 H 468.281 1.29144 2.99982 0
M  V30 5023 H 466.94 3.12675 1.9139 0
M  V30 5024 H 466.588 2.56676 4.32581 0
M  V30 5025 H 466.288 4.2943 4.01078 0
M  V30 5026 H 467.812 3.78467 4.79161 0
M  V30 5027 H 469.226 4.97158 2.85494 0
M  V30 5028 H 467.623 5.54058 2.30521 0
M  V30 5029 H 468.693 4.70739 1.16332 0
M  V30 5030 N 470.036 -0.519951 1.48776 0
M  V30 5031 C 470.969 -1.64053 1.58625 0
M  V30 5032 C 471.947 -1.5664 0.43618 0
M  V30 5033 O 473.131 -1.76969 0.649159 0
M  V30 5034 C 470.258 -3.02497 1.52359 0
M  V30 5035 C 469.304 -3.28235 2.72331 0
M  V30 5036 S 470.137 -3.13414 4.34203 0
M  V30 5037 C 471.293 -4.54287 4.30551 0
M  V30 5038 H 471.526 -1.5545 2.53422 0
M  V30 5039 H 469.059 -0.703681 1.37433 0
M  V30 5040 H 471.017 -3.82336 1.4943 0
M  V30 5041 H 469.678 -3.08531 0.588824 0
M  V30 5042 H 468.871 -4.29256 2.64113 0
M  V30 5043 H 468.473 -2.56085 2.72574 0
M  V30 5044 H 470.765 -5.46006 4.01103 0
M  V30 5045 H 471.708 -4.67558 5.31785 0
M  V30 5046 H 472.116 -4.34079 3.60881 0
M  V30 5047 N 471.514 -1.37532 -0.769588 0
M  V30 5048 C 472.744 -1.35861 -1.55645 0
M  V30 5049 C 473.152 0.0574398 -1.89113 0
M  V30 5050 O 472.495 1.03021 -1.52093 0
M  V30 5051 C 472.557 -2.13431 -2.89288 0
M  V30 5052 C 472.221 -3.62378 -2.78444 0
M  V30 5053 C 473.218 -4.56215 -2.49326 0
M  V30 5054 C 470.903 -4.05529 -2.96398 0
M  V30 5055 C 472.897 -5.91181 -2.38294 0
M  V30 5056 C 470.584 -5.40579 -2.84987 0
M  V30 5057 C 471.582 -6.33218 -2.55975 0
M  V30 5058 O 471.27 -7.65787 -2.44594 0
M  V30 5059 H 471.002 -0.467001 -0.48876 0
M  V30 5060 H 473.556 -1.81505 -0.961515 0
M  V30 5061 H 471.786 -1.62481 -3.50909 0
M  V30 5062 H 473.475 -2.04368 -3.50697 0
M  V30 5063 H 474.241 -4.24187 -2.35139 0
M  V30 5064 H 470.12 -3.33781 -3.1798 0
M  V30 5065 H 473.664 -6.63457 -2.15571 0
M  V30 5066 H 469.561 -5.72209 -2.98743 0
M  V30 5067 H 470.329 -7.76132 -2.59927 0
M  V30 5068 N 472.992 0.995999 -1.22138 0
M  V30 5069 C 474.232 1.75032 -1.05561 0
M  V30 5070 C 474.596 1.87729 0.402698 0
M  V30 5071 O 475.797 2.59813 0.689234 0
M  V30 5072 C 474.068 3.11973 -1.74379 0
M  V30 5073 S 475.627 4.03182 -1.73175 0
M  V30 5074 H 472.445 0.602137 -0.37809 0
M  V30 5075 H 475.047 1.19107 -1.55028 0
M  V30 5076 H 473.751 3.00371 -2.79652 0
M  V30 5077 H 473.282 3.7297 -1.25128 0
M  V30 5078 H 475.297 4.90043 -0.77923 0
M  V30 5079 N 474.47 1.03057 1.19235 0
M  V30 5080 C 475.7 0.746613 1.92638 0
M  V30 5081 C 476.108 -0.698708 1.75826 0
M  V30 5082 O 475.451 -1.487 1.07861 0
M  V30 5083 C 475.513 1.02024 3.44719 0
M  V30 5084 C 475.177 2.45745 3.85303 0
M  V30 5085 C 476.174 3.43887 3.8992 0
M  V30 5086 C 473.859 2.8019 4.16892 0
M  V30 5087 C 475.853 4.74529 4.2556 0
M  V30 5088 C 473.54 4.1104 4.52205 0
M  V30 5089 C 474.538 5.0802 4.56513 0
M  V30 5090 O 474.226 6.36527 4.91008 0
M  V30 5091 H 473.958 0.272401 0.618687 0
M  V30 5092 H 476.512 1.37853 1.52269 0
M  V30 5093 H 474.742 0.331184 3.85279 0
M  V30 5094 H 476.431 0.725677 3.9936 0
M  V30 5095 H 477.197 3.18614 3.65664 0
M  V30 5096 H 473.076 2.05382 4.12722 0
M  V30 5097 H 476.62 5.50222 4.28838 0
M  V30 5098 H 472.517 4.36086 4.7592 0
M  V30 5099 H 473.285 6.41025 5.08949 0
M  V30 5100 N 475.948 -1.35272 0.808662 0
M  V30 5101 C 477.194 -1.99003 0.390581 0
M  V30 5102 C 477.527 -1.63999 -1.0401 0
M  V30 5103 O 476.802 -0.904368 -1.72196 0
M  V30 5104 C 477.085 -3.55454 0.576566 0
M  V30 5105 C 476.938 -4.00249 2.05233 0
M  V30 5106 C 478.257 -4.401 0.00354277 0
M  V30 5107 H 475.376 -0.722917 0.143388 0
M  V30 5108 H 478.018 -1.6039 1.01858 0
M  V30 5109 H 476.168 -3.88477 0.0419766 0
M  V30 5110 H 477.84 -3.77626 2.64946 0
M  V30 5111 H 476.083 -3.51082 2.54801 0
M  V30 5112 H 476.754 -5.0911 2.13333 0
M  V30 5113 H 479.23 -4.13548 0.460117 0
M  V30 5114 H 478.106 -5.48656 0.163575 0
M  V30 5115 H 478.367 -4.28444 -1.09032 0
M  V30 5116 N 477.426 -0.562348 -1.47226 0
M  V30 5117 C 478.837 -0.130325 -1.86245 0
M  V30 5118 C 479.188 1.30128 -1.46838 0
M  V30 5119 O 478.313 1.97974 -0.873805 0
M  V30 5120 C 478.908 -0.229738 -3.3802 0
M  V30 5121 C 477.467 0.14728 -3.76112 0
M  V30 5122 C 476.614 -0.574971 -2.71274 0
M  V30 5123 H 479.565 -0.771773 -1.3867 0
M  V30 5124 H 479.586 0.550316 -3.76499 0
M  V30 5125 H 479.098 -1.27178 -3.66671 0
M  V30 5126 H 477.199 1.19023 -3.53078 0
M  V30 5127 H 477.312 -0.214858 -4.78618 0
M  V30 5128 H 475.676 -0.0174756 -2.54694 0
M  V30 5129 H 476.459 -1.61827 -3.02766 0
M  V30 5130 N 478.904 1.54736 -0.299062 0
M  V30 5131 C 480.181 1.92187 0.363802 0
M  V30 5132 C 480.561 1.22607 1.71845 0
M  V30 5133 O 479.909 0.361141 2.25628 0
M  V30 5134 C 480.119 3.45678 0.480377 0
M  V30 5135 C 481.467 4.17885 0.752147 0
M  V30 5136 O 482.491 3.51702 0.564264 0
M  V30 5137 O 481.35 5.35048 1.11294 0
M  V30 5138 H 478.444 0.801681 0.203066 0
M  V30 5139 H 480.99 1.66115 -0.346978 0
M  V30 5140 H 479.762 3.88443 -0.471999 0
M  V30 5141 H 479.385 3.77779 1.2397 0
M  V30 5142 N 480.382 0.0267497 1.57577 0
M  V30 5143 C 481.659 -0.690926 1.82991 0
M  V30 5144 C 482.039 -1.90471 0.910164 0
M  V30 5145 O 481.387 -2.28474 -0.0347985 0
M  V30 5146 C 481.597 -1.07139 3.32148 0
M  V30 5147 C 482.945 -1.46402 3.98562 0
M  V30 5148 O 483.969 -1.16443 3.36629 0
M  V30 5149 O 482.828 -2.02214 5.07712 0
M  V30 5150 H 479.922 -0.338747 0.75444 0
M  V30 5151 H 482.468 0.0542506 1.69613 0
M  V30 5152 H 481.24 -0.207394 3.9075 0
M  V30 5153 H 480.863 -1.87481 3.50623 0
M  V30 5154 N 481.861 -1.55662 -0.24637 0
M  V30 5155 C 482.824 -1.89558 -1.28842 0
M  V30 5156 C 483.824 -0.772082 -1.41052 0
M  V30 5157 O 485.014 -1.04007 -1.39743 0
M  V30 5158 C 482.146 -2.12449 -2.66605 0
M  V30 5159 H 483.339 -2.82735 -1.00004 0
M  V30 5160 H 480.892 -1.48562 -0.485684 0
M  V30 5161 H 481.627 -1.21742 -3.00582 0
M  V30 5162 H 481.412 -2.94273 -2.59125 0
M  V30 5163 H 482.902 -2.39854 -3.41847 0
M  V30 5164 N 483.339 0.512053 -1.4905 0
M  V30 5165 C 484.585 1.26613 -1.59187 0
M  V30 5166 C 484.94 1.90494 -0.270163 0
M  V30 5167 O 484.233 1.77204 0.728648 0
M  V30 5168 C 484.427 2.36446 -2.68008 0
M  V30 5169 C 484.256 1.83334 -4.10632 0
M  V30 5170 C 483.026 1.65131 -4.77556 0
M  V30 5171 C 485.224 1.35153 -4.96224 0
M  V30 5172 N 483.206 1.06833 -6.04533 0
M  V30 5173 C 484.577 0.889186 -6.13591 0
M  V30 5174 C 486.632 1.23623 -4.82309 0
M  V30 5175 C 485.335 0.322953 -7.18575 0
M  V30 5176 C 487.361 0.683978 -5.87431 0
M  V30 5177 C 486.723 0.2318 -7.04018 0
M  V30 5178 H 482.822 0.453678 -0.636946 0
M  V30 5179 H 485.406 0.575217 -1.86009 0
M  V30 5180 H 483.577 3.03012 -2.42978 0
M  V30 5181 H 485.309 3.03485 -2.67729 0
M  V30 5182 H 482.064 1.89178 -4.34176 0
M  V30 5183 H 482.488 0.796425 -6.72299 0
M  V30 5184 H 487.13 1.57184 -3.92496 0
M  V30 5185 H 484.848 -0.024943 -8.08096 0
M  V30 5186 H 488.434 0.597694 -5.78722 0
M  V30 5187 H 487.314 -0.188869 -7.83973 0
M  V30 5188 N 484.817 1.37938 0.762283 0
M  V30 5189 C 486.045 1.36883 1.55147 0
M  V30 5190 C 486.46 -0.0435348 1.8875 0
M  V30 5191 O 485.817 -1.00786 1.52146 0
M  V30 5192 C 485.868 2.21624 2.85596 0
M  V30 5193 O 485.589 3.57358 2.5343 0
M  V30 5194 C 487.09 2.28653 3.7978 0
M  V30 5195 H 484.31 0.468521 0.480343 0
M  V30 5196 H 486.854 1.81404 0.944079 0
M  V30 5197 H 485.009 1.80588 3.42734 0
M  V30 5198 H 485.423 4.01883 3.37032 0
M  V30 5199 H 486.897 2.9225 4.68288 0
M  V30 5200 H 487.374 1.29767 4.19592 0
M  V30 5201 H 487.98 2.70043 3.28568 0
M  V30 5202 N 486.295 -0.989507 1.22664 0
M  V30 5203 C 487.572 -1.70326 0.961688 0
M  V30 5204 C 487.952 -2.04537 -0.522279 0
M  V30 5205 O 487.3 -1.73136 -1.49118 0
M  V30 5206 C 487.51 -2.95135 1.86269 0
M  V30 5207 C 488.858 -3.67842 2.12078 0
M  V30 5208 O 489.882 -3.0515 1.83745 0
M  V30 5209 O 488.741 -4.80644 2.60083 0
M  V30 5210 H 485.835 -0.743589 0.361946 0
M  V30 5211 H 488.381 -1.04555 1.33665 0
M  V30 5212 H 487.153 -2.66382 2.8663 0
M  V30 5213 H 486.776 -3.68645 1.48952 0
M  V30 5214 N 487.773 -1.03688 -1.18687 0
M  V30 5215 C 489.184 -0.766488 -1.70241 0
M  V30 5216 C 489.535 0.713052 -1.82784 0
M  V30 5217 O 488.66 1.55529 -1.50465 0
M  V30 5218 C 489.255 -1.38475 -3.09209 0
M  V30 5219 C 487.814 -1.16276 -3.5799 0
M  V30 5220 C 486.961 -1.4778 -2.34641 0
M  V30 5221 H 489.912 -1.20378 -1.03415 0
M  V30 5222 H 489.933 -0.785939 -3.72295 0
M  V30 5223 H 489.445 -2.46157 -3.00048 0
M  V30 5224 H 487.546 -0.104508 -3.72453 0
M  V30 5225 H 487.659 -1.8571 -4.41643 0
M  V30 5226 H 486.023 -0.897366 -2.38368 0
M  V30 5227 H 486.806 -2.56562 -2.28102 0
M  V30 5228 N 489.251 1.34841 -0.815825 0
M  V30 5229 C 490.181 2.32187 -0.247298 0
M  V30 5230 C 491.162 1.5791 0.632344 0
M  V30 5231 O 492.347 1.8593 0.560698 0
M  V30 5232 C 489.477 3.42122 0.597466 0
M  V30 5233 C 488.431 4.27602 -0.184446 0
M  V30 5234 C 487.757 5.28942 0.782609 0
M  V30 5235 C 489.057 5.03502 -1.38865 0
M  V30 5236 H 490.751 2.79985 -1.06061 0
M  V30 5237 H 488.297 1.34611 -0.511461 0
M  V30 5238 H 490.25 4.09232 1.00533 0
M  V30 5239 H 488.974 2.92956 1.44376 0
M  V30 5240 H 487.633 3.62085 -0.573592 0
M  V30 5241 H 487.281 4.7604 1.62466 0
M  V30 5242 H 486.981 5.87008 0.263695 0
M  V30 5243 H 488.505 5.98922 1.18848 0
M  V30 5244 H 489.919 5.63506 -1.05518 0
M  V30 5245 H 488.316 5.71108 -1.8427 0
M  V30 5246 H 489.386 4.33608 -2.17054 0
M  V30 5247 N 490.729 0.570148 1.46925 0
M  V30 5248 C 491.959 0.0561151 2.06524 0
M  V30 5249 C 492.367 -1.24874 1.42137 0
M  V30 5250 O 491.71 -1.76292 0.516417 0
M  V30 5251 C 491.772 -0.197035 3.5896 0
M  V30 5252 C 491.436 1.02033 4.45464 0
M  V30 5253 C 492.433 1.92921 4.82781 0
M  V30 5254 C 490.118 1.23864 4.86788 0
M  V30 5255 C 492.112 3.03999 5.60235 0
M  V30 5256 C 489.799 2.35249 5.64004 0
M  V30 5257 C 490.797 3.25146 6.0064 0
M  V30 5258 O 490.485 4.34598 6.76299 0
M  V30 5259 H 490.217 0.0487409 0.674241 0
M  V30 5260 H 492.771 0.786915 1.89728 0
M  V30 5261 H 491.001 -0.982299 3.74016 0
M  V30 5262 H 492.69 -0.658032 4.00531 0
M  V30 5263 H 493.456 1.77265 4.51444 0
M  V30 5264 H 489.335 0.54805 4.57731 0
M  V30 5265 H 492.879 3.74192 5.8875 0
M  V30 5266 H 488.776 2.50873 5.94755 0
M  V30 5267 H 489.544 4.32808 6.94708 0
M  V30 5268 N 492.207 -1.54576 0.307264 0
M  V30 5269 C 493.155 -2.25208 -0.581723 0
M  V30 5270 C 494.149 -1.26031 -1.13192 0
M  V30 5271 O 495.355 -1.43862 -1.08184 0
M  V30 5272 H 491.73 -0.723173 -0.206214 0
M  V30 5273 H 493.701 -2.98378 0.0364663 0
M  V30 5274 C 492.45 -3.01086 -1.73904 0
M  V30 5275 H 491.773 -3.77208 -1.32491 0
M  V30 5276 H 493.213 -3.5378 -2.33701 0
M  V30 5277 C 491.672 -2.08422 -2.64692 0
M  V30 5278 O 492.202 -1.65636 -3.65961 0
M  V30 5279 N 490.408 -1.74247 -2.32564 0
M  V30 5280 H 489.955 -2.09238 -1.50257 0
M  V30 5281 H 489.913 -1.12524 -2.93574 0
M  V30 5282 N 493.685 -0.035106 -1.57561 0
M  V30 5283 C 494.932 0.642229 -1.92046 0
M  V30 5284 C 495.26 1.7179 -0.91206 0
M  V30 5285 O 494.515 1.95544 0.0781153 0
M  V30 5286 C 494.814 1.29149 -3.3325 0
M  V30 5287 C 494.48 0.345604 -4.49574 0
M  V30 5288 C 493.142 0.0852775 -4.81124 0
M  V30 5289 C 495.494 -0.303569 -5.20315 0
M  V30 5290 C 492.822 -0.831927 -5.80772 0
M  V30 5291 C 495.174 -1.20886 -6.20942 0
M  V30 5292 C 493.838 -1.47802 -6.50931 0
M  V30 5293 H 493.108 0.235008 -0.702746 0
M  V30 5294 H 495.755 -0.0981529 -1.91248 0
M  V30 5295 H 494.06 2.10676 -3.30337 0
M  V30 5296 H 495.757 1.82223 -3.57205 0
M  V30 5297 H 492.347 0.558683 -4.24943 0
M  V30 5298 H 496.531 -0.115515 -4.96166 0
M  V30 5299 H 491.787 -1.0481 -6.02349 0
M  V30 5300 H 495.961 -1.71804 -6.74875 0
M  V30 5301 H 493.588 -2.19039 -7.2796 0
M  V30 5302 N 495.163 1.55791 0.238111 0
M  V30 5303 C 496.393 1.81834 0.980809 0
M  V30 5304 C 496.801 0.609741 1.79106 0
M  V30 5305 O 496.144 -0.431073 1.78571 0
M  V30 5306 C 496.206 3.01363 1.96011 0
M  V30 5307 C 495.87 4.37037 1.33597 0
M  V30 5308 C 496.867 5.14692 0.734063 0
M  V30 5309 C 494.552 4.83743 1.3527 0
M  V30 5310 C 496.546 6.37206 0.157208 0
M  V30 5311 C 494.233 6.06204 0.77199 0
M  V30 5312 C 495.231 6.82775 0.175282 0
M  V30 5313 O 494.919 8.02922 -0.396432 0
M  V30 5314 H 494.651 0.6088 0.293834 0
M  V30 5315 H 497.205 2.03702 0.263552 0
M  V30 5316 H 495.435 2.75273 2.71591 0
M  V30 5317 H 497.124 3.14422 2.56697 0
M  V30 5318 H 497.89 4.79722 0.713582 0
M  V30 5319 H 493.769 4.24129 1.80653 0
M  V30 5320 H 497.313 6.96915 -0.30917 0
M  V30 5321 H 493.21 6.4065 0.789828 0
M  V30 5322 H 493.978 8.17989 -0.289145 0
M  V30 5323 N 496.642 -0.504142 1.49319 0
M  V30 5324 C 497.592 -1.60284 1.62151 0
M  V30 5325 C 498.576 -1.53657 0.477315 0
M  V30 5326 O 499.768 -1.6124 0.730108 0
M  V30 5327 C 496.897 -2.98909 1.68844 0
M  V30 5328 C 495.983 -3.10544 2.8883 0
M  V30 5329 N 496.374 -2.92078 4.12946 0
M  V30 5330 C 494.672 -3.4164 2.86702 0
M  V30 5331 C 495.373 -3.07812 4.93585 0
M  V30 5332 N 494.349 -3.36549 4.26891 0
M  V30 5333 H 498.151 -1.44656 2.55835 0
M  V30 5334 H 495.665 -0.710198 1.46048 0
M  V30 5335 H 497.662 -3.77865 1.76134 0
M  V30 5336 H 496.322 -3.15609 0.762943 0
M  V30 5337 H 497.333 -2.68316 4.42975 0
M  V30 5338 H 494.01 -3.64537 2.03517 0
M  V30 5339 H 495.4 -2.98054 6.02174 0
M  V30 5340 N 498.12 -1.38341 -0.754957 0
M  V30 5341 C 499.35 -1.37504 -1.54195 0
M  V30 5342 C 499.758 0.0373787 -1.89163 0
M  V30 5343 O 499.101 1.01402 -1.53178 0
M  V30 5344 C 499.163 -2.16488 -2.87008 0
M  V30 5345 C 498.827 -3.65311 -2.74585 0
M  V30 5346 C 499.824 -4.58834 -2.44474 0
M  V30 5347 C 497.509 -4.08649 -2.9208 0
M  V30 5348 C 499.503 -5.93675 -2.32011 0
M  V30 5349 C 497.19 -5.43571 -2.79237 0
M  V30 5350 C 498.188 -6.35898 -2.49245 0
M  V30 5351 O 497.876 -7.68338 -2.36458 0
M  V30 5352 H 497.608 -0.472159 -0.483779 0
M  V30 5353 H 500.162 -1.82515 -0.94221 0
M  V30 5354 H 498.392 -1.66194 -3.49166 0
M  V30 5355 H 500.081 -2.08076 -3.4851 0
M  V30 5356 H 500.847 -4.26657 -2.30627 0
M  V30 5357 H 496.726 -3.37134 -3.14422 0
M  V30 5358 H 500.27 -6.65706 -2.08522 0
M  V30 5359 H 496.167 -5.75345 -2.92657 0
M  V30 5360 H 496.935 -7.78845 -2.5168 0
M  V30 5361 N 499.598 0.982988 -1.23187 0
M  V30 5362 C 500.845 1.72392 -1.06241 0
M  V30 5363 C 501.173 1.9032 0.40108 0
M  V30 5364 O 500.428 1.45084 1.31336 0
M  V30 5365 C 500.727 3.12736 -1.73006 0
M  V30 5366 C 500.393 3.14695 -3.22921 0
M  V30 5367 C 499.055 3.14937 -3.63824 0
M  V30 5368 C 501.407 3.10211 -4.1883 0
M  V30 5369 C 498.735 3.08408 -4.99101 0
M  V30 5370 C 501.087 3.05224 -5.54095 0
M  V30 5371 C 499.751 3.03787 -5.94365 0
M  V30 5372 H 499.021 0.630829 -0.388762 0
M  V30 5373 H 501.668 1.15053 -1.53085 0
M  V30 5374 H 499.973 3.73446 -1.18514 0
M  V30 5375 H 501.67 3.68828 -1.57374 0
M  V30 5376 H 498.26 3.15262 -2.90358 0
M  V30 5377 H 502.444 3.09166 -3.8824 0
M  V30 5378 H 497.7 3.05646 -5.29519 0
M  V30 5379 H 501.874 3.00712 -6.28128 0
M  V30 5380 H 499.501 2.98483 -6.99151 0
M  V30 5381 N 501.076 1.04316 1.18135 0
M  V30 5382 C 502.306 0.767003 1.91835 0
M  V30 5383 C 502.714 -0.68002 1.76557 0
M  V30 5384 O 502.057 -1.47548 1.09432 0
M  V30 5385 C 502.119 1.05674 3.43618 0
M  V30 5386 C 501.783 2.49818 3.82675 0
M  V30 5387 C 502.78 3.48003 3.86251 0
M  V30 5388 C 500.465 2.84596 4.13897 0
M  V30 5389 C 502.459 4.79016 4.20503 0
M  V30 5390 C 500.146 4.15813 4.4782 0
M  V30 5391 C 501.144 5.12834 4.51099 0
M  V30 5392 O 500.832 6.41699 4.84229 0
M  V30 5393 H 500.564 0.278948 0.615763 0
M  V30 5394 H 503.118 1.3946 1.50798 0
M  V30 5395 H 501.348 0.372029 3.84906 0
M  V30 5396 H 503.037 0.767994 3.98568 0
M  V30 5397 H 503.803 3.22475 3.62264 0
M  V30 5398 H 499.682 2.09748 4.1052 0
M  V30 5399 H 503.226 5.54739 4.22978 0
M  V30 5400 H 499.123 4.41109 4.71268 0
M  V30 5401 H 499.891 6.46387 5.02121 0
M  V30 5402 N 502.554 -1.34406 0.822964 0
M  V30 5403 C 503.487 -2.27407 0.190124 0
M  V30 5404 C 504.465 -1.4889 -0.653486 0
M  V30 5405 O 505.649 -1.78109 -0.617216 0
M  V30 5406 C 502.776 -3.3064 -0.734477 0
M  V30 5407 C 501.822 -4.26488 0.0316099 0
M  V30 5408 S 502.655 -5.17445 1.3788 0
M  V30 5409 C 503.811 -6.24214 0.45907 0
M  V30 5410 H 504.044 -2.80733 0.978586 0
M  V30 5411 H 501.577 -1.41455 0.618866 0
M  V30 5412 H 503.535 -3.90607 -1.26238 0
M  V30 5413 H 502.196 -2.76161 -1.49646 0
M  V30 5414 H 501.389 -4.9951 -0.671285 0
M  V30 5415 H 500.991 -3.70775 0.490066 0
M  V30 5416 H 503.283 -6.76599 -0.349357 0
M  V30 5417 H 504.226 -6.98551 1.15896 0
M  V30 5418 H 504.634 -5.6448 0.0474825 0
M  V30 5419 N 504.032 -0.577932 -1.46621 0
M  V30 5420 C 505.278 -0.0617793 -2.02706 0
M  V30 5421 C 505.611 1.29294 -1.44903 0
M  V30 5422 O 504.886 1.8461 -0.61232 0
M  V30 5423 C 505.169 0.00911824 -3.60099 0
M  V30 5424 C 505.022 -1.37416 -4.28295 0
M  V30 5425 C 506.341 0.712159 -4.343 0
M  V30 5426 H 503.46 -0.0239246 -0.736612 0
M  V30 5427 H 506.102 -0.744211 -1.74818 0
M  V30 5428 H 504.252 0.590292 -3.83989 0
M  V30 5429 H 505.924 -2.00013 -4.15683 0
M  V30 5430 H 504.167 -1.94319 -3.87843 0
M  V30 5431 H 504.838 -1.27707 -5.37024 0
M  V30 5432 H 507.314 0.218486 -4.15526 0
M  V30 5433 H 506.19 0.730782 -5.44014 0
M  V30 5434 H 506.451 1.77251 -4.05012 0
M  V30 5435 N 505.51 1.54411 -0.315457 0
M  V30 5436 C 506.738 2.04833 0.291738 0
M  V30 5437 C 507.153 1.19203 1.46411 0
M  V30 5438 O 506.51 0.220867 1.81159 0
M  V30 5439 C 506.561 3.53969 0.73404 0
M  V30 5440 O 506.282 4.36346 -0.391682 0
M  V30 5441 C 507.783 4.2045 1.40489 0
M  V30 5442 H 505.003 0.668195 0.0612947 0
M  V30 5443 H 507.547 1.99276 -0.45929 0
M  V30 5444 H 505.702 3.5984 1.43506 0
M  V30 5445 H 506.116 5.24481 -0.0447088 0
M  V30 5446 H 507.59 5.26278 1.66539 0
M  V30 5447 H 508.067 3.71067 2.3496 0
M  V30 5448 H 508.673 4.18694 0.746662 0
M  V30 5449 N 506.988 0.0434614 1.5754 0
M  V30 5450 C 507.936 -0.951465 2.1225 0
M  V30 5451 C 508.93 -1.3274 1.05245 0
M  V30 5452 O 510.136 -1.30795 1.23663 0
M  V30 5453 H 506.511 -0.324667 0.678303 0
M  V30 5454 H 508.482 -0.464855 2.94757 0
M  V30 5455 C 507.231 -2.21972 2.67626 0
M  V30 5456 H 506.554 -1.93923 3.4962 0
M  V30 5457 H 507.994 -2.89765 3.09536 0
M  V30 5458 C 506.453 -2.95919 1.61038 0
M  V30 5459 O 506.983 -3.8857 1.01862 0
M  V30 5460 N 505.189 -2.58511 1.32741 0
M  V30 5461 H 504.736 -1.83244 1.81051 0
M  V30 5462 H 504.694 -3.08296 0.616531 0
M  V30 5463 N 508.466 -1.55915 -0.229846 0
M  V30 5464 C 509.694 -1.82617 -0.972562 0
M  V30 5465 C 510.109 -0.621488 -1.78278 0
M  V30 5466 O 509.466 0.409956 -1.77836 0
M  V30 5467 C 509.517 -3.0774 -1.89679 0
M  V30 5468 O 509.238 -4.23559 -1.11934 0
M  V30 5469 C 510.739 -3.47368 -2.75409 0
M  V30 5470 H 507.959 -0.60727 -0.285419 0
M  V30 5471 H 510.503 -2.02996 -0.247579 0
M  V30 5472 H 508.658 -2.89361 -2.57583 0
M  V30 5473 H 509.072 -4.94586 -1.74599 0
M  V30 5474 H 510.546 -4.37977 -3.35977 0
M  V30 5475 H 511.023 -2.68737 -3.47386 0
M  V30 5476 H 511.629 -3.68158 -2.12931 0
M  V30 5477 N 509.944 0.496216 -1.49584 0
M  V30 5478 C 510.874 1.60576 -1.69521 0
M  V30 5479 C 511.855 1.61169 -0.543933 0
M  V30 5480 O 513.04 1.77834 -0.78031 0
M  V30 5481 C 510.17 2.99038 -1.76616 0
M  V30 5482 C 509.124 3.13312 -2.91581 0
M  V30 5483 C 508.45 4.53172 -2.83794 0
M  V30 5484 C 509.75 2.92886 -4.32452 0
M  V30 5485 H 511.444 1.44146 -2.62416 0
M  V30 5486 H 508.99 0.692024 -1.26282 0
M  V30 5487 H 510.943 3.76564 -1.8915 0
M  V30 5488 H 509.667 3.16568 -0.80324 0
M  V30 5489 H 508.326 2.38213 -2.78658 0
M  V30 5490 H 507.974 4.67585 -1.854 0
M  V30 5491 H 507.674 4.63662 -3.60958 0
M  V30 5492 H 509.198 5.32752 -2.98342 0
M  V30 5493 H 510.612 3.60178 -4.46032 0
M  V30 5494 H 509.009 3.14844 -5.10875 0
M  V30 5495 H 510.079 1.88966 -4.46565 0
M  V30 5496 N 511.423 1.38739 0.74761 0
M  V30 5497 C 512.67 1.35274 1.50689 0
M  V30 5498 C 512.998 -0.0553359 1.94421 0
M  V30 5499 O 512.253 -1.03365 1.66175 0
M  V30 5500 C 512.552 2.25992 2.7688 0
M  V30 5501 C 512.218 3.73854 2.5208 0
M  V30 5502 C 510.88 4.14145 2.45025 0
M  V30 5503 C 513.232 4.67427 2.30568 0
M  V30 5504 C 510.56 5.4609 2.14483 0
M  V30 5505 C 512.912 5.99635 2.01545 0
M  V30 5506 C 511.576 6.39004 1.92951 0
M  V30 5507 H 510.846 0.495003 0.55141 0
M  V30 5508 H 513.493 1.71145 0.859158 0
M  V30 5509 H 511.798 1.83196 3.46333 0
M  V30 5510 H 513.495 2.20611 3.34861 0
M  V30 5511 H 510.085 3.41913 2.58444 0
M  V30 5512 H 514.269 4.3714 2.34994 0
M  V30 5513 H 509.525 5.75528 2.06342 0
M  V30 5514 H 513.699 6.71678 1.83906 0
M  V30 5515 H 511.326 7.41165 1.6905 0
M  V30 5516 N 512.901 -0.976442 1.23707 0
M  V30 5517 C 514.131 -1.75087 1.09673 0
M  V30 5518 C 514.539 -1.85852 -0.354344 0
M  V30 5519 O 513.882 -1.33985 -1.25673 0
M  V30 5520 C 513.944 -3.19272 1.65245 0
M  V30 5521 C 513.608 -3.32004 3.14042 0
M  V30 5522 C 514.605 -3.18017 4.11292 0
M  V30 5523 C 512.29 -3.56525 3.53829 0
M  V30 5524 C 514.284 -3.28363 5.46312 0
M  V30 5525 C 511.971 -3.6651 4.88993 0
M  V30 5526 C 512.969 -3.52439 5.85043 0
M  V30 5527 O 512.657 -3.62063 7.1775 0
M  V30 5528 H 512.389 -0.556164 0.384262 0
M  V30 5529 H 514.943 -1.23518 1.64111 0
M  V30 5530 H 513.173 -3.72107 1.05231 0
M  V30 5531 H 514.862 -3.7849 1.46629 0
M  V30 5532 H 515.628 -2.98966 3.81896 0
M  V30 5533 H 511.507 -3.66547 2.79579 0
M  V30 5534 H 515.051 -3.17297 6.21263 0
M  V30 5535 H 510.948 -3.85072 5.18063 0
M  V30 5536 H 511.716 -3.78833 7.25553 0
M  V30 5537 N 514.379 -1.04941 -1.1758 0
M  V30 5538 C 515.625 -0.759112 -1.88057 0
M  V30 5539 C 515.958 0.711918 -1.8068 0
M  V30 5540 O 515.233 1.52035 -1.21308 0
M  V30 5541 C 515.516 -1.237 -3.38187 0
M  V30 5542 C 515.369 -2.77078 -3.54327 0
M  V30 5543 C 516.688 -0.834014 -4.32125 0
M  V30 5544 H 513.807 -0.277237 -0.682868 0
M  V30 5545 H 516.449 -1.30296 -1.38286 0
M  V30 5546 H 514.599 -0.774337 -3.80705 0
M  V30 5547 H 516.271 -3.31449 -3.20842 0
M  V30 5548 H 514.514 -3.16477 -2.96689 0
M  V30 5549 H 515.185 -3.05577 -4.59703 0
M  V30 5550 H 517.661 -1.23228 -3.97434 0
M  V30 5551 H 516.537 -1.19603 -5.35711 0
M  V30 5552 H 516.798 0.262195 -4.41322 0
M  V30 5553 N 515.857 1.33968 -0.830081 0
M  V30 5554 C 517.082 2.02813 -0.433796 0
M  V30 5555 C 517.507 1.62076 0.954614 0
M  V30 5556 O 516.865 0.808955 1.62252 0
M  V30 5557 C 516.913 3.56348 -0.552115 0
M  V30 5558 O 516.017 4.10202 0.425191 0
M  V30 5559 H 515.358 0.639817 -0.177567 0
M  V30 5560 H 517.888 1.7106 -1.12248 0
M  V30 5561 H 517.898 4.05722 -0.430513 0
M  V30 5562 H 516.573 3.85344 -1.56471 0
M  V30 5563 H 515.15 3.71979 0.261878 0
M  V30 5564 N 517.335 0.585699 1.46312 0
M  V30 5565 C 518.56 0.0762461 2.0726 0
M  V30 5566 C 518.985 -1.22071 1.43109 0
M  V30 5567 O 518.343 -1.73804 0.515942 0
M  V30 5568 C 518.391 -0.0729404 3.60526 0
M  V30 5569 O 517.495 -1.1287 3.96654 0
M  V30 5570 H 516.836 0.0641558 0.660893 0
M  V30 5571 H 519.366 0.809492 1.87905 0
M  V30 5572 H 519.376 -0.278158 4.07051 0
M  V30 5573 H 518.051 0.874188 4.06609 0
M  V30 5574 H 516.628 -0.901703 3.61834 0
M  V30 5575 N 518.813 -1.54241 0.323641 0
M  V30 5576 C 519.776 -2.22997 -0.529602 0
M  V30 5577 C 520.776 -1.22345 -1.04347 0
M  V30 5578 O 521.966 -1.46924 -0.935889 0
M  V30 5579 C 519.098 -2.93409 -1.73562 0
M  V30 5580 H 520.291 -2.99815 0.0714518 0
M  V30 5581 H 517.844 -1.56121 0.0747258 0
M  V30 5582 H 518.579 -2.20729 -2.37591 0
M  V30 5583 H 518.364 -3.67217 -1.37456 0
M  V30 5584 H 519.854 -3.45794 -2.34128 0
M  V30 5585 N 520.291 -0.0518155 -1.57515 0
M  V30 5586 C 521.537 0.622745 -1.93002 0
M  V30 5587 C 521.87 1.70456 -0.930499 0
M  V30 5588 O 521.145 1.94452 0.0434086 0
M  V30 5589 C 521.428 1.21824 -3.38867 0
M  V30 5590 C 521.281 0.144434 -4.49568 0
M  V30 5591 C 522.6 2.12968 -3.8514 0
M  V30 5592 H 519.719 0.22491 -0.701844 0
M  V30 5593 H 522.361 -0.113711 -1.89659 0
M  V30 5594 H 520.511 1.8459 -3.41846 0
M  V30 5595 H 522.183 -0.48753 -4.58717 0
M  V30 5596 H 520.426 -0.527424 -4.30582 0
M  V30 5597 H 521.097 0.601127 -5.48717 0
M  V30 5598 H 523.573 1.60163 -3.8404 0
M  V30 5599 H 522.449 2.51578 -4.87852 0
M  V30 5600 H 522.71 3.03004 -3.21934 0
M  V30 5601 N 521.769 1.56035 0.221574 0
M  V30 5602 C 522.997 1.8313 0.962864 0
M  V30 5603 C 523.412 0.630934 1.77946 0
M  V30 5604 O 522.769 -0.400519 1.78051 0
M  V30 5605 C 522.82 3.08742 1.88045 0
M  V30 5606 O 522.541 4.24147 1.09686 0
M  V30 5607 C 524.042 3.48824 2.73563 0
M  V30 5608 H 521.262 0.608775 0.282194 0
M  V30 5609 H 523.806 2.03124 0.23681 0
M  V30 5610 H 521.961 2.90723 2.56045 0
M  V30 5611 H 522.375 4.95505 1.71974 0
M  V30 5612 H 523.849 4.39752 3.3365 0
M  V30 5613 H 524.326 2.70575 3.45956 0
M  V30 5614 H 524.932 3.69282 2.10976 0
M  V30 5615 N 523.247 -0.488276 1.49845 0
M  V30 5616 C 524.658 -1.06955 1.53028 0
M  V30 5617 C 525.009 -1.9351 0.323797 0
M  V30 5618 O 524.134 -2.08891 -0.565116 0
M  V30 5619 C 524.729 -1.94643 2.77307 0
M  V30 5620 C 523.288 -2.4791 2.83227 0
M  V30 5621 C 522.435 -1.25833 2.47106 0
M  V30 5622 H 525.386 -0.271626 1.56358 0
M  V30 5623 H 525.407 -2.79496 2.5819 0
M  V30 5624 H 524.919 -1.31621 3.65099 0
M  V30 5625 H 523.02 -3.14535 1.99745 0
M  V30 5626 H 523.133 -2.84193 3.85709 0
M  V30 5627 H 521.497 -1.58764 1.99163 0
M  V30 5628 H 522.28 -0.644993 3.37186 0
M  V30 5629 N 524.725 -1.39134 -0.740242 0
M  V30 5630 C 525.655 -1.40165 -1.86751 0
M  V30 5631 C 526.636 -0.265708 -1.68012 0
M  V30 5632 O 527.821 -0.47076 -1.88408 0
M  V30 5633 C 524.951 -1.2392 -3.2444 0
M  V30 5634 C 523.905 -2.34858 -3.57807 0
M  V30 5635 C 523.231 -2.03707 -4.94376 0
M  V30 5636 C 524.531 -3.77159 -3.61315 0
M  V30 5637 H 526.225 -2.345 -1.86145 0
M  V30 5638 H 523.771 -1.12875 -0.89416 0
M  V30 5639 H 525.724 -1.23263 -4.02969 0
M  V30 5640 H 524.448 -0.26051 -3.25559 0
M  V30 5641 H 523.107 -2.34723 -2.81604 0
M  V30 5642 H 522.755 -1.04289 -4.9207 0
M  V30 5643 H 522.455 -2.78016 -5.17669 0
M  V30 5644 H 523.979 -2.04691 -5.75268 0
M  V30 5645 H 525.393 -3.79252 -4.29931 0
M  V30 5646 H 523.79 -4.50784 -3.96124 0
M  V30 5647 H 524.86 -4.08513 -2.61238 0
M  V30 5648 N 526.204 0.969867 -1.24223 0
M  V30 5649 C 527.134 2.08191 -1.05729 0
M  V30 5650 C 528.115 1.70075 0.0290765 0
M  V30 5651 O 529.3 1.93712 -0.137583 0
M  V30 5652 C 526.43 3.40991 -0.658995 0
M  V30 5653 C 525.384 3.93054 -1.69389 0
M  V30 5654 C 524.71 5.22171 -1.15072 0
M  V30 5655 C 526.01 4.21137 -3.08935 0
M  V30 5656 H 527.704 2.23921 -1.98746 0
M  V30 5657 H 525.25 1.07602 -0.956967 0
M  V30 5658 H 527.203 4.18221 -0.51662 0
M  V30 5659 H 525.927 3.25155 0.30686 0
M  V30 5660 H 524.586 3.17977 -1.82444 0
M  V30 5661 H 524.234 5.02694 -0.175539 0
M  V30 5662 H 523.934 5.57973 -1.84229 0
M  V30 5663 H 525.458 6.02013 -1.02042 0
M  V30 5664 H 526.872 4.8908 -2.99121 0
M  V30 5665 H 525.269 4.68163 -3.75425 0
M  V30 5666 H 526.339 3.27996 -3.57137 0
M  V30 5667 N 527.682 1.05563 1.17022 0
M  V30 5668 C 528.912 0.787307 1.91011 0
M  V30 5669 C 529.32 -0.661256 1.77268 0
M  V30 5670 O 528.663 -1.46379 1.10991 0
M  V30 5671 C 528.725 1.09313 3.42478 0
M  V30 5672 C 528.389 2.53863 3.80004 0
M  V30 5673 C 529.386 3.52081 3.82538 0
M  V30 5674 C 527.071 2.88969 4.10855 0
M  V30 5675 C 529.065 4.83449 4.15399 0
M  V30 5676 C 526.752 4.2054 4.43384 0
M  V30 5677 C 527.75 5.17589 4.45635 0
M  V30 5678 O 527.438 6.46799 4.77395 0
M  V30 5679 H 527.17 0.285463 0.61277 0
M  V30 5680 H 529.724 1.41051 1.49311 0
M  V30 5681 H 527.954 0.412833 3.8449 0
M  V30 5682 H 529.643 0.810224 3.97731 0
M  V30 5683 H 530.409 3.26299 3.58823 0
M  V30 5684 H 526.288 2.1409 4.08272 0
M  V30 5685 H 529.832 5.59194 4.1707 0
M  V30 5686 H 525.729 4.46083 4.66563 0
M  V30 5687 H 526.497 6.51677 4.95237 0
M  V30 5688 N 529.16 -1.33526 0.837174 0
M  V30 5689 C 530.108 -2.31168 0.257698 0
M  V30 5690 C 531.102 -1.5806 -0.609388 0
M  V30 5691 O 532.308 -1.72941 -0.499139 0
M  V30 5692 H 528.683 -0.74922 0.0646058 0
M  V30 5693 H 530.654 -2.77552 1.09578 0
M  V30 5694 C 529.403 -3.4326 -0.553887 0
M  V30 5695 H 528.726 -3.99665 0.104008 0
M  V30 5696 H 530.166 -4.13782 -0.925219 0
M  V30 5697 C 528.625 -2.88965 -1.73207 0
M  V30 5698 O 529.155 -2.85013 -2.83073 0
M  V30 5699 N 527.361 -2.45596 -1.55342 0
M  V30 5700 H 526.908 -2.49009 -0.659705 0
M  V30 5701 H 526.866 -2.0962 -2.34322 0
M  V30 5702 N 530.638 -0.59345 -1.46 0
M  V30 5703 C 531.601 0.123538 -2.28867 0
M  V30 5704 C 532.601 0.808628 -1.38989 0
M  V30 5705 O 533.791 0.658945 -1.61256 0
M  V30 5706 C 530.923 1.1847 -3.19653 0
M  V30 5707 H 532.116 -0.604843 -2.93737 0
M  V30 5708 H 529.669 -0.351875 -1.52288 0
M  V30 5709 H 530.404 1.94431 -2.59552 0
M  V30 5710 H 530.189 0.69783 -3.8584 0
M  V30 5711 H 531.679 1.68726 -3.81997 0
M  V30 5712 N 532.116 1.54067 -0.331816 0
M  V30 5713 C 533.362 2.01012 0.268667 0
M  V30 5714 C 533.695 1.2195 1.51136 0
M  V30 5715 O 532.97 0.303972 1.9211 0
M  V30 5716 C 533.253 3.55158 0.59456 0
M  V30 5717 C 533.106 4.4494 -0.659409 0
M  V30 5718 C 534.425 4.16939 1.4089 0
M  V30 5719 H 531.544 0.730698 0.0961756 0
M  V30 5720 H 534.186 1.84593 -0.450031 0
M  V30 5721 H 532.336 3.6928 1.20685 0
M  V30 5722 H 534.008 4.42675 -1.29756 0
M  V30 5723 H 532.251 4.1428 -1.28665 0
M  V30 5724 H 532.922 5.50643 -0.386804 0
M  V30 5725 H 535.398 4.06443 0.891272 0
M  V30 5726 H 534.274 5.24889 1.60569 0
M  V30 5727 H 534.535 3.70798 2.40752 0
M  V30 5728 N 533.594 0.0601682 1.57485 0
M  V30 5729 C 534.819 -0.624416 1.97777 0
M  V30 5730 C 535.244 -1.63051 0.937867 0
M  V30 5731 O 534.602 -1.81036 -0.0978845 0
M  V30 5732 C 534.65 -1.27979 3.37126 0
M  V30 5733 O 533.754 -2.39556 3.35688 0
M  V30 5734 H 533.095 -0.161581 0.64404 0
M  V30 5735 H 535.625 0.131237 2.04179 0
M  V30 5736 H 535.635 -1.62937 3.74053 0
M  V30 5737 H 534.31 -0.542501 4.12347 0
M  V30 5738 H 532.887 -2.06478 3.10517 0
M  V30 5739 N 535.072 -1.5615 -0.213296 0
M  V30 5740 C 536.297 -1.83986 -0.957282 0
M  V30 5741 C 536.722 -0.641526 -1.76822 0
M  V30 5742 O 536.08 0.409722 -1.7661 0
M  V30 5743 C 536.128 -3.09889 -1.84393 0
M  V30 5744 O 535.232 -2.89163 -2.94038 0
M  V30 5745 H 534.573 -0.606357 -0.270605 0
M  V30 5746 H 537.103 -2.03369 -0.224111 0
M  V30 5747 H 537.113 -3.40209 -2.25215 0
M  V30 5748 H 535.788 -3.96735 -1.24795 0
M  V30 5749 H 534.365 -2.70097 -2.57103 0
M  V30 5750 N 536.55 0.480323 -1.50102 0
M  V30 5751 C 537.775 1.26126 -1.64642 0
M  V30 5752 C 538.2 1.85257 -0.325823 0
M  V30 5753 O 537.558 1.66854 0.709194 0
M  V30 5754 C 537.606 2.35243 -2.73301 0
M  V30 5755 O 536.71 3.39646 -2.33911 0
M  V30 5756 H 536.051 0.371463 -0.550374 0
M  V30 5757 H 538.581 0.572696 -1.96421 0
M  V30 5758 H 538.591 2.80695 -2.96098 0
M  V30 5759 H 537.266 1.91574 -3.6915 0
M  V30 5760 H 535.843 2.99969 -2.21525 0
M  V30 5761 N 538.028 1.39524 0.732853 0
M  V30 5762 C 539.275 1.36865 1.49246 0
M  V30 5763 C 539.603 -0.0347118 1.94469 0
M  V30 5764 O 538.858 -1.01596 1.67262 0
M  V30 5765 C 539.157 2.28916 2.74468 0
M  V30 5766 C 538.823 3.76506 2.481 0
M  V30 5767 C 537.485 4.16721 2.40619 0
M  V30 5768 C 539.837 4.69846 2.25598 0
M  V30 5769 C 537.165 5.48334 2.08679 0
M  V30 5770 C 539.517 6.01739 1.95174 0
M  V30 5771 C 538.181 6.41015 1.86163 0
M  V30 5772 H 537.451 0.500824 0.546129 0
M  V30 5773 H 540.098 1.72047 0.840958 0
M  V30 5774 H 538.403 1.86859 3.4437 0
M  V30 5775 H 540.1 2.2415 3.32502 0
M  V30 5776 H 536.69 3.44635 2.54803 0
M  V30 5777 H 540.874 4.39608 2.30344 0
M  V30 5778 H 536.13 5.77685 2.00226 0
M  V30 5779 H 540.304 6.73591 1.76771 0
M  V30 5780 H 537.931 7.42917 1.61179 0
M  V30 5781 N 539.506 -0.963266 1.24736 0
M  V30 5782 C 540.922 -1.23273 1.01371 0
M  V30 5783 C 541.122 -1.99618 -0.274776 0
M  V30 5784 O 540.178 -2.32293 -0.989769 0
M  V30 5785 C 541.491 -2.01554 2.23152 0
M  V30 5786 C 543.039 -2.14629 2.27823 0
M  V30 5787 C 543.514 -2.96307 3.49237 0
M  V30 5788 N 545.005 -3.03887 3.49581 0
M  V30 5789 C 545.74 -3.67456 4.40186 0
M  V30 5790 N 545.236 -4.32706 5.41052 0
M  V30 5791 N 547.029 -3.64511 4.27888 0
M  V30 5792 H 539.18 -0.452294 2.07528 0
M  V30 5793 H 541.443 -0.262521 0.910926 0
M  V30 5794 H 541.149 -1.52847 3.1675 0
M  V30 5795 H 541.023 -3.02278 2.25628 0
M  V30 5796 H 543.41 -2.62537 1.34753 0
M  V30 5797 H 543.491 -1.13238 2.2937 0
M  V30 5798 H 543.135 -2.49091 4.42624 0
M  V30 5799 H 543.065 -3.97905 3.44933 0
M  V30 5800 H 545.556 -2.57477 2.76611 0
M  V30 5801 H 545.869 -4.79042 6.06415 0
M  V30 5802 H 544.214 -4.31361 5.44934 0
M  V30 5803 H 547.405 -3.12715 3.4832 0
M  V30 5804 H 547.578 -4.13768 4.98698 0
M  V30 5805 N 540.985 -1.06182 -1.16461 0
M  V30 5806 C 541.932 -0.671613 -2.20812 0
M  V30 5807 C 542.902 0.331186 -1.62765 0
M  V30 5808 O 544.087 0.22033 -1.89524 0
M  V30 5809 C 541.227 -0.063029 -3.45042 0
M  V30 5810 C 540.34 -1.11587 -4.1734 0
M  V30 5811 C 539.475 -0.473546 -5.29085 0
M  V30 5812 C 538.514 -1.51 -5.93182 0
M  V30 5813 N 537.651 -0.891118 -6.96422 0
M  V30 5814 H 542.491 -1.56589 -2.53542 0
M  V30 5815 H 540.028 -0.782951 -1.24532 0
M  V30 5816 H 541.986 0.307344 -4.16066 0
M  V30 5817 H 540.616 0.794663 -3.12866 0
M  V30 5818 H 539.668 -1.60396 -3.44931 0
M  V30 5819 H 540.98 -1.90221 -4.61104 0
M  V30 5820 H 540.134 -0.0501432 -6.06679 0
M  V30 5821 H 538.873 0.344687 -4.8648 0
M  V30 5822 H 537.878 -1.94331 -5.14311 0
M  V30 5823 H 539.103 -2.33031 -6.37866 0
M  V30 5824 H 537.049 -0.0935753 -6.55933 0
M  V30 5825 H 536.966 -1.61486 -7.38551 0
M  V30 5826 H 538.234 -0.492822 -7.77941 0
M  V30 5827 N 542.463 1.3308 -0.844243 0
M  V30 5828 C 543.393 2.3161 -0.296493 0
M  V30 5829 C 544.374 1.59215 0.598707 0
M  V30 5830 O 545.559 1.87077 0.521134 0
M  V30 5831 C 542.689 3.43313 0.524762 0
M  V30 5832 C 541.643 4.27115 -0.275106 0
M  V30 5833 C 540.969 5.30483 0.670236 0
M  V30 5834 C 542.269 5.00443 -1.49514 0
M  V30 5835 H 543.963 2.77672 -1.11976 0
M  V30 5836 H 541.509 1.33496 -0.539899 0
M  V30 5837 H 543.462 4.11273 0.918298 0
M  V30 5838 H 542.186 2.95952 1.3813 0
M  V30 5839 H 540.845 3.60787 -0.650267 0
M  V30 5840 H 540.493 4.79379 1.52332 0
M  V30 5841 H 540.193 5.87435 0.139123 0
M  V30 5842 H 541.717 6.01308 1.06117 0
M  V30 5843 H 543.131 5.61141 -1.17447 0
M  V30 5844 H 541.528 5.67071 -1.96343 0
M  V30 5845 H 542.598 4.28906 -2.26202 0
M  V30 5846 N 543.941 0.601185 1.45683 0
M  V30 5847 C 545.188 0.0938811 2.02282 0
M  V30 5848 C 545.516 -1.27315 1.47041 0
M  V30 5849 O 544.771 -1.85193 0.632623 0
M  V30 5850 C 545.07 -0.00222425 3.574 0
M  V30 5851 C 544.736 1.29963 4.31764 0
M  V30 5852 C 543.398 1.65625 4.51798 0
M  V30 5853 C 545.75 2.1603 4.74321 0
M  V30 5854 C 543.078 2.87119 5.11644 0
M  V30 5855 C 545.43 3.36766 5.3551 0
M  V30 5856 C 544.094 3.72689 5.53768 0
M  V30 5857 H 543.364 0.0343535 0.740203 0
M  V30 5858 H 546.011 0.781522 1.74827 0
M  V30 5859 H 544.316 -0.773096 3.84097 0
M  V30 5860 H 546.013 -0.410794 3.9889 0
M  V30 5861 H 542.603 1.01204 4.1648 0
M  V30 5862 H 546.787 1.89778 4.58582 0
M  V30 5863 H 542.043 3.15065 5.2397 0
M  V30 5864 H 546.217 4.03713 5.67441 0
M  V30 5865 H 543.844 4.66918 5.99909 0
M  V30 5866 N 545.419 -1.53889 0.339982 0
M  V30 5867 C 546.349 -2.27843 -0.510856 0
M  V30 5868 C 547.33 -1.29267 -1.10563 0
M  V30 5869 O 548.515 -1.58104 -1.12768 0
M  V30 5870 C 545.645 -3.04857 -1.66372 0
M  V30 5871 C 544.599 -4.10907 -1.19746 0
M  V30 5872 C 543.925 -4.75855 -2.43857 0
M  V30 5873 C 545.225 -5.21435 -0.300501 0
M  V30 5874 H 546.919 -2.99212 0.106067 0
M  V30 5875 H 544.465 -1.43904 0.0524533 0
M  V30 5876 H 546.418 -3.5533 -2.26537 0
M  V30 5877 H 545.142 -2.31133 -2.30749 0
M  V30 5878 H 543.801 -3.61342 -0.618654 0
M  V30 5879 H 543.449 -3.9873 -3.06633 0
M  V30 5880 H 543.149 -5.47502 -2.13343 0
M  V30 5881 H 544.673 -5.2911 -3.04754 0
M  V30 5882 H 546.087 -5.67565 -0.80889 0
M  V30 5883 H 544.484 -6.00036 -0.0874076 0
M  V30 5884 H 545.554 -4.80328 0.664321 0
M  V30 5885 N 546.897 -0.0685191 -1.57451 0
M  V30 5886 C 547.807 0.914677 -2.16034 0
M  V30 5887 C 548.823 1.32938 -1.12265 0
M  V30 5888 O 549.999 1.40275 -1.44516 0
M  V30 5889 C 547.064 2.16519 -2.70777 0
M  V30 5890 C 546.125 1.80721 -3.89408 0
M  V30 5891 C 545.358 2.9981 -4.41531 0
M  V30 5892 O 545.581 4.13727 -3.92666 0
M  V30 5893 O 544.515 2.79817 -5.32903 0
M  V30 5894 H 548.341 0.446364 -3.00402 0
M  V30 5895 H 545.926 0.154367 -1.486 0
M  V30 5896 H 547.808 2.89856 -3.05878 0
M  V30 5897 H 546.483 2.62454 -1.89471 0
M  V30 5898 H 545.39 1.04646 -3.59166 0
M  V30 5899 H 546.723 1.39571 -4.71997 0
M  V30 5900 N 548.375 1.56261 0.205012 0
M  V30 5901 C 549.338 1.92908 1.23771 0
M  V30 5902 C 550.338 0.809208 1.38955 0
M  V30 5903 O 551.528 1.07676 1.36936 0
M  V30 5904 C 548.66 2.19442 2.60879 0
M  V30 5905 H 549.853 2.85287 0.924728 0
M  V30 5906 H 547.406 1.49798 0.446125 0
M  V30 5907 H 548.141 1.29668 2.97248 0
M  V30 5908 H 547.926 3.0104 2.51232 0
M  V30 5909 H 549.416 2.48833 3.35368 0
M  V30 5910 N 549.853 -0.472356 1.50355 0
M  V30 5911 C 551.099 -1.22634 1.6152 0
M  V30 5912 C 551.432 -1.91645 0.313995 0
M  V30 5913 O 550.707 -1.82059 -0.684446 0
M  V30 5914 C 550.99 -2.27099 2.7946 0
M  V30 5915 C 550.843 -1.62402 4.19459 0
M  V30 5916 C 552.162 -3.28421 2.92964 0
M  V30 5917 H 549.281 -0.444494 0.587873 0
M  V30 5918 H 551.923 -0.520321 1.82737 0
M  V30 5919 H 550.073 -2.87314 2.61501 0
M  V30 5920 H 551.745 -1.05793 4.49005 0
M  V30 5921 H 549.988 -0.927184 4.23776 0
M  V30 5922 H 550.659 -2.38309 4.97909 0
M  V30 5923 H 553.135 -2.78227 3.09401 0
M  V30 5924 H 552.011 -3.98845 3.77113 0
M  V30 5925 H 552.272 -3.92467 2.03525 0
M  V30 5926 N 551.331 -1.39911 -0.725443 0
M  V30 5927 C 552.556 -1.41137 -1.5197 0
M  V30 5928 C 552.981 -0.010262 -1.88097 0
M  V30 5929 O 552.339 0.979184 -1.52583 0
M  V30 5930 C 552.387 -2.2994 -2.77777 0
M  V30 5931 O 551.491 -1.73586 -3.74088 0
M  V30 5932 H 550.832 -0.480219 -0.458569 0
M  V30 5933 H 553.362 -1.84023 -0.894249 0
M  V30 5934 H 553.372 -2.44785 -3.26411 0
M  V30 5935 H 552.047 -3.31759 -2.50816 0
M  V30 5936 H 550.624 -1.68035 -3.32894 0
M  V30 5937 N 552.809 0.956637 -1.25245 0
M  V30 5938 C 554.034 1.74104 -1.12706 0
M  V30 5939 C 554.459 1.85436 0.315429 0
M  V30 5940 O 553.817 1.33334 1.22848 0
M  V30 5941 C 553.865 3.1338 -1.78396 0
M  V30 5942 O 552.969 3.98485 -1.06224 0
M  V30 5943 H 552.31 0.53476 -0.393609 0
M  V30 5944 H 554.84 1.19924 -1.65769 0
M  V30 5945 H 554.85 3.6385 -1.846 0
M  V30 5946 H 553.525 3.04448 -2.83345 0
M  V30 5947 H 552.102 3.56952 -1.07886 0
M  V30 5948 N 554.287 1.06798 1.15896 0
M  V30 5949 C 555.217 0.704677 2.22613 0
M  V30 5950 C 556.198 -0.305252 1.67339 0
M  V30 5951 O 557.383 -0.179247 1.93371 0
M  V30 5952 C 554.513 0.0957325 3.47168 0
M  V30 5953 C 553.467 1.0322 4.15367 0
M  V30 5954 C 552.793 0.286293 5.33933 0
M  V30 5955 C 554.093 2.36341 4.65768 0
M  V30 5956 H 555.787 1.59688 2.53259 0
M  V30 5957 H 553.333 0.769257 1.21731 0
M  V30 5958 H 555.286 -0.170333 4.21056 0
M  V30 5959 H 554.01 -0.831516 3.15838 0
M  V30 5960 H 552.669 1.28309 3.43413 0
M  V30 5961 H 552.317 -0.644237 4.98857 0
M  V30 5962 H 552.017 0.910436 5.80504 0
M  V30 5963 H 553.541 0.0278938 6.10594 0
M  V30 5964 H 554.955 2.1561 5.31211 0
M  V30 5965 H 553.352 2.94299 5.2298 0
M  V30 5966 H 554.422 2.99047 3.81705 0
M  V30 5967 N 555.766 -1.3263 0.851289 0
M  V30 5968 C 557.006 -1.99174 0.459266 0
M  V30 5969 C 557.37 -1.65913 -0.966273 0
M  V30 5970 O 558.571 -2.2552 -1.46267 0
M  V30 5971 C 556.842 -3.50721 0.687698 0
M  V30 5972 S 558.401 -4.37039 0.392746 0
M  V30 5973 H 555.219 -0.689832 0.172199 0
M  V30 5974 H 557.821 -1.61395 1.10327 0
M  V30 5975 H 556.525 -3.72417 1.72435 0
M  V30 5976 H 556.056 -3.93389 0.0299949 0
M  V30 5977 H 558.071 -4.8999 -0.782578 0
M  V30 5978 N 557.244 -0.608902 -1.45362 0
M  V30 5979 C 558.492 -0.104401 -2.0183 0
M  V30 5980 C 558.813 1.27007 -1.47967 0
M  V30 5981 O 558.083 1.83924 -0.674455 0
M  V30 5982 H 556.663 -0.0356042 -0.746151 0
M  V30 5983 H 559.325 -0.790596 -1.78145 0
M  V30 5984 H 558.421 -0.0551793 -3.12051 0
M  V30 5985 N 558.722 1.53707 -0.348139 0
M  V30 5986 C 559.632 2.28881 0.514857 0
M  V30 5987 C 560.648 1.34168 1.10793 0
M  V30 5988 O 561.824 1.6721 1.12262 0
M  V30 5989 C 558.889 3.05042 1.64774 0
M  V30 5990 C 557.95 4.15389 1.08398 0
M  V30 5991 C 557.183 4.87909 2.16287 0
M  V30 5992 O 557.406 4.60137 3.3709 0
M  V30 5993 O 556.34 5.74254 1.80323 0
M  V30 5994 H 560.166 3.03547 -0.0963699 0
M  V30 5995 H 557.751 1.48972 -0.113043 0
M  V30 5996 H 559.633 3.52656 2.30677 0
M  V30 5997 H 558.308 2.33228 2.24469 0
M  V30 5998 H 557.215 3.72068 0.389341 0
M  V30 5999 H 558.548 4.89318 0.531829 0
M  V30 6000 N 560.2 0.0768682 1.57412 0
M  V30 6001 C 561.15 -0.898795 2.09537 0
M  V30 6002 C 562.134 -1.25556 1.0062 0
M  V30 6003 O 563.326 -1.23369 1.26921 0
M  V30 6004 C 560.455 -2.16453 2.66464 0
M  V30 6005 C 559.541 -1.83401 3.82393 0
M  V30 6006 N 559.932 -1.20823 4.91157 0
M  V30 6007 C 558.23 -2.13121 3.91785 0
M  V30 6008 C 558.931 -1.05976 5.71965 0
M  V30 6009 N 557.907 -1.57113 5.204 0
M  V30 6010 H 561.709 -0.410718 2.91016 0
M  V30 6011 H 559.223 -0.126878 1.61904 0
M  V30 6012 H 561.22 -2.87274 3.02125 0
M  V30 6013 H 559.88 -2.65844 1.86433 0
M  V30 6014 H 560.891 -0.877249 5.10416 0
M  V30 6015 H 557.568 -2.64854 3.22736 0
M  V30 6016 H 558.958 -0.571809 6.69462 0
M  V30 6017 N 561.678 -1.56367 -0.196722 0
M  V30 6018 C 562.628 -1.9082 -1.24787 0
M  V30 6019 C 563.612 -0.773719 -1.41076 0
M  V30 6020 O 564.804 -1.03655 -1.43474 0
M  V30 6021 C 561.933 -2.24982 -2.59303 0
M  V30 6022 C 561.019 -3.44882 -2.46814 0
M  V30 6023 N 561.41 -4.62835 -2.04003 0
M  V30 6024 C 559.708 -3.48988 -2.77711 0
M  V30 6025 C 560.409 -5.44993 -2.03366 0
M  V30 6026 N 559.385 -4.85356 -2.44807 0
M  V30 6027 H 563.187 -2.79516 -0.908175 0
M  V30 6028 H 560.701 -1.57265 -0.405166 0
M  V30 6029 H 562.698 -2.47848 -3.35227 0
M  V30 6030 H 561.358 -1.37611 -2.94098 0
M  V30 6031 H 562.369 -4.87532 -1.74738 0
M  V30 6032 H 559.046 -2.72029 -3.16712 0
M  V30 6033 H 560.436 -6.49464 -1.72181 0
M  V30 6034 N 563.156 0.464375 -1.50603 0
M  V30 6035 C 564.567 1.04507 -1.5471 0
M  V30 6036 C 564.918 1.9297 -0.354542 0
M  V30 6037 O 564.043 2.09763 0.531812 0
M  V30 6038 C 564.638 1.90207 -2.80369 0
M  V30 6039 C 563.197 2.43373 -2.87135 0
M  V30 6040 C 562.344 1.21886 -2.49076 0
M  V30 6041 H 565.295 0.246716 -1.56771 0
M  V30 6042 H 565.316 2.75353 -2.62604 0
M  V30 6043 H 564.828 1.25796 -3.67147 0
M  V30 6044 H 562.929 3.11318 -2.04724 0
M  V30 6045 H 563.042 2.7802 -3.90181 0
M  V30 6046 H 561.406 1.55575 -2.01664 0
M  V30 6047 H 562.189 0.591268 -3.3817 0
M  V30 6048 N 564.634 1.40294 0.718013 0
M  V30 6049 C 565.567 1.34767 1.84155 0
M  V30 6050 C 566.545 0.218455 1.61126 0
M  V30 6051 O 567.729 0.401716 1.8417 0
M  V30 6052 C 564.856 1.09676 3.20451 0
M  V30 6053 C 563.902 2.25016 3.62312 0
M  V30 6054 S 564.735 3.87397 3.69707 0
M  V30 6055 C 565.891 3.64565 5.08766 0
M  V30 6056 H 566.124 2.29851 1.88562 0
M  V30 6057 H 563.657 1.2655 0.884555 0
M  V30 6058 H 565.615 0.95885 3.99144 0
M  V30 6059 H 564.276 0.162502 3.13679 0
M  V30 6060 H 563.469 2.03097 4.61268 0
M  V30 6061 H 563.071 2.35098 2.90869 0
M  V30 6062 H 565.363 3.22882 5.95612 0
M  V30 6063 H 566.306 4.63043 5.35721 0
M  V30 6064 H 566.714 2.98303 4.79245 0
M  V30 6065 N 566.112 -0.949982 1.2575 0
M  V30 6066 C 567.059 -2.04738 1.06541 0
M  V30 6067 C 568.029 -1.66078 -0.0268818 0
M  V30 6068 O 569.214 -1.90348 0.131196 0
M  V30 6069 C 566.354 -3.38027 0.695127 0
M  V30 6070 C 565.467 -3.89776 1.86276 0
M  V30 6071 C 564.602 -5.11411 1.4364 0
M  V30 6072 C 563.641 -5.554 2.57287 0
M  V30 6073 N 562.778 -6.68244 2.15395 0
M  V30 6074 H 567.618 -2.20502 2.00457 0
M  V30 6075 H 565.155 -1.0805 0.998178 0
M  V30 6076 H 567.113 -4.14641 0.461375 0
M  V30 6077 H 565.743 -3.22135 -0.207046 0
M  V30 6078 H 564.795 -3.0964 2.20969 0
M  V30 6079 H 566.107 -4.18368 2.71606 0
M  V30 6080 H 565.261 -5.95457 1.16257 0
M  V30 6081 H 564 -4.84545 0.553879 0
M  V30 6082 H 563.005 -4.69916 2.85409 0
M  V30 6083 H 564.23 -5.84272 3.46125 0
M  V30 6084 H 562.176 -6.43078 1.29565 0
M  V30 6085 H 562.093 -6.96377 2.94272 0
M  V30 6086 H 563.361 -7.55687 1.91201 0
M  V30 6087 N 567.59 -1.07411 -1.15328 0
M  V30 6088 C 569.006 -0.799759 -1.38116 0
M  V30 6089 C 569.206 0.59572 -1.92493 0
M  V30 6090 O 568.262 1.35433 -2.13106 0
M  V30 6091 C 569.575 -1.87407 -2.35158 0
M  V30 6092 C 571.123 -1.89889 -2.48819 0
M  V30 6093 C 571.598 -2.96406 -3.49153 0
M  V30 6094 N 573.089 -2.95512 -3.56689 0
M  V30 6095 C 573.824 -3.74575 -4.34144 0
M  V30 6096 N 573.32 -4.63488 -5.14928 0
M  V30 6097 N 575.113 -3.62919 -4.29239 0
M  V30 6098 H 567.264 -1.97411 -0.78374 0
M  V30 6099 H 569.527 -0.856113 -0.407154 0
M  V30 6100 H 569.233 -2.8768 -2.0232 0
M  V30 6101 H 569.107 -1.73471 -3.34944 0
M  V30 6102 H 571.494 -0.902677 -2.80955 0
M  V30 6103 H 571.575 -2.07904 -1.49029 0
M  V30 6104 H 571.219 -3.96227 -3.17752 0
M  V30 6105 H 571.149 -2.75638 -4.48699 0
M  V30 6106 H 573.64 -2.31061 -2.99031 0
M  V30 6107 H 573.953 -5.20445 -5.71276 0
M  V30 6108 H 572.298 -4.67537 -5.14232 0
M  V30 6109 H 575.489 -2.92833 -3.65194 0
M  V30 6110 H 575.662 -4.24777 -4.89355 0
M  V30 6111 N 569.068 1.32177 -0.85831 0
M  V30 6112 C 569.998 2.31282 -0.321041 0
M  V30 6113 C 570.979 1.59841 0.581786 0
M  V30 6114 O 572.164 1.87619 0.501262 0
M  V30 6115 C 569.294 3.4385 0.48832 0
M  V30 6116 C 568.248 4.26799 -0.320391 0
M  V30 6117 C 567.574 5.31164 0.613934 0
M  V30 6118 C 568.874 4.98829 -1.54813 0
M  V30 6119 H 570.568 2.76469 -1.14915 0
M  V30 6120 H 568.114 1.32916 -0.554028 0
M  V30 6121 H 570.067 4.12224 0.874626 0
M  V30 6122 H 568.791 2.97401 1.34983 0
M  V30 6123 H 567.45 3.60077 -0.688497 0
M  V30 6124 H 567.098 4.80967 1.47239 0
M  V30 6125 H 566.798 5.8755 0.0768097 0
M  V30 6126 H 568.322 6.024 0.997336 0
M  V30 6127 H 569.736 5.59864 -1.23392 0
M  V30 6128 H 568.133 5.64957 -2.02346 0
M  V30 6129 H 569.203 4.26483 -2.30739 0
M  V30 6130 N 570.547 0.616602 1.45037 0
M  V30 6131 C 571.958 0.199359 1.85633 0
M  V30 6132 C 572.309 -1.24588 1.51566 0
M  V30 6133 O 571.434 -1.94594 0.94668 0
M  V30 6134 C 572.029 0.355033 3.36935 0
M  V30 6135 C 570.588 -0.00758748 3.76399 0
M  V30 6136 C 569.735 0.675256 2.68953 0
M  V30 6137 H 572.686 0.822708 1.3571 0
M  V30 6138 H 572.707 -0.410201 3.78282 0
M  V30 6139 H 572.219 1.40699 3.61698 0
M  V30 6140 H 570.32 -1.05837 3.57252 0
M  V30 6141 H 570.433 0.392346 4.77491 0
M  V30 6142 H 568.797 0.111992 2.54454 0
M  V30 6143 H 569.58 1.72952 2.96551 0
M  V30 6144 N 572.025 -1.5352 0.356285 0
M  V30 6145 C 573.436 -1.86282 -0.12492 0
M  V30 6146 C 573.787 -1.27717 -1.48939 0
M  V30 6147 O 572.912 -0.595614 -2.08042 0
M  V30 6148 C 573.507 -3.37995 -0.23345 0
M  V30 6149 C 572.066 -3.70588 -0.658899 0
M  V30 6150 C 571.213 -2.76581 0.199596 0
M  V30 6151 H 574.164 -1.47901 0.575423 0
M  V30 6152 H 574.185 -3.65475 -1.0587 0
M  V30 6153 H 573.697 -3.8059 0.759776 0
M  V30 6154 H 571.798 -3.33544 -1.66069 0
M  V30 6155 H 571.911 -4.77076 -0.439957 0
M  V30 6156 H 570.275 -2.52552 -0.330076 0
M  V30 6157 H 571.058 -3.22008 1.19019 0
M  V30 6158 N 573.503 -0.0852151 -1.57369 0
M  V30 6159 C 574.45 0.877268 -2.13478 0
M  V30 6160 C 575.42 1.28642 -1.05073 0
M  V30 6161 O 576.605 1.36992 -1.32808 0
M  V30 6162 C 573.745 2.13464 -2.71159 0
M  V30 6163 C 572.858 1.77691 -3.93764 0
M  V30 6164 C 571.993 2.98139 -4.39643 0
M  V30 6165 C 571.032 2.58447 -5.54862 0
M  V30 6166 N 570.169 3.71698 -5.95639 0
M  V30 6167 H 575.009 0.391933 -2.95411 0
M  V30 6168 H 572.546 0.181796 -1.45972 0
M  V30 6169 H 574.504 2.87086 -3.02717 0
M  V30 6170 H 573.134 2.59514 -1.91969 0
M  V30 6171 H 572.186 0.940768 -3.68583 0
M  V30 6172 H 573.498 1.44497 -4.77412 0
M  V30 6173 H 572.652 3.80026 -4.72933 0
M  V30 6174 H 571.391 3.34536 -3.54876 0
M  V30 6175 H 570.396 1.74984 -5.21211 0
M  V30 6176 H 571.621 2.23205 -6.41371 0
M  V30 6177 H 569.567 4.07831 -5.13819 0
M  V30 6178 H 569.484 3.42317 -6.74059 0
M  V30 6179 H 570.752 4.54123 -6.33555 0
M  V30 6180 N 574.981 1.5647 0.188427 0
M  V30 6181 C 576.392 1.70864 0.752494 0
M  V30 6182 C 576.743 0.692905 1.83557 0
M  V30 6183 O 575.868 -0.149307 2.15884 0
M  V30 6184 C 576.463 3.09789 1.37173 0
M  V30 6185 C 575.022 3.25925 1.88281 0
M  V30 6186 C 574.169 2.66817 0.755259 0
M  V30 6187 H 577.12 1.58657 -0.0367408 0
M  V30 6188 H 577.141 3.07489 2.24122 0
M  V30 6189 H 576.653 3.83693 0.583219 0
M  V30 6190 H 574.754 2.56948 2.6983 0
M  V30 6191 H 574.867 4.33498 2.04001 0
M  V30 6192 H 573.231 2.2617 1.17128 0
M  V30 6193 H 574.014 3.43294 -0.0211237 0
M  V30 6194 N 576.459 -0.456382 1.50847 0
M  V30 6195 C 577.391 -1.57033 1.66953 0
M  V30 6196 C 578.404 -1.53207 0.550593 0
M  V30 6197 O 579.593 -1.58328 0.824285 0
M  V30 6198 C 576.693 -2.95937 1.65149 0
M  V30 6199 C 575.866 -3.24475 2.93317 0
M  V30 6200 C 574.925 -4.43007 2.83957 0
M  V30 6201 O 573.951 -4.42592 3.57912 0
M  V30 6202 N 575.153 -5.45503 1.9851 0
M  V30 6203 H 577.918 -1.43629 2.63042 0
M  V30 6204 H 575.479 -0.645037 1.48495 0
M  V30 6205 H 577.471 -3.73224 1.56481 0
M  V30 6206 H 576.041 -3.03036 0.767343 0
M  V30 6207 H 575.261 -2.35664 3.16 0
M  V30 6208 H 576.549 -3.4036 3.78196 0
M  V30 6209 H 575.947 -5.48668 1.37766 0
M  V30 6210 H 574.504 -6.21716 1.95735 0
M  V30 6211 N 577.937 -1.40673 -0.710563 0
M  V30 6212 C 579.162 -1.42741 -1.50465 0
M  V30 6213 C 579.587 -0.0302116 -1.88076 0
M  V30 6214 O 578.945 0.962945 -1.53613 0
M  V30 6215 C 578.993 -2.32873 -2.75322 0
M  V30 6216 O 578.097 -1.77544 -3.72226 0
M  V30 6217 H 577.438 -0.485056 -0.45345 0
M  V30 6218 H 579.968 -1.84961 -0.874681 0
M  V30 6219 H 579.978 -2.48233 -3.23797 0
M  V30 6220 H 578.653 -3.34401 -2.47283 0
M  V30 6221 H 577.23 -1.71556 -3.31093 0
M  V30 6222 N 579.415 0.9433 -1.26252 0
M  V30 6223 C 580.826 1.50404 -1.10614 0
M  V30 6224 C 581.177 1.93666 0.31429 0
M  V30 6225 O 580.302 1.79709 1.20555 0
M  V30 6226 C 580.897 2.73336 -2.00182 0
M  V30 6227 C 579.456 3.25686 -1.88695 0
M  V30 6228 C 578.603 1.98474 -1.93658 0
M  V30 6229 H 581.554 0.759006 -1.39373 0
M  V30 6230 H 581.575 3.47567 -1.54847 0
M  V30 6231 H 581.087 2.41818 -3.03555 0
M  V30 6232 H 579.188 3.61998 -0.882489 0
M  V30 6233 H 579.301 3.92935 -2.74115 0
M  V30 6234 H 577.665 2.14278 -1.37684 0
M  V30 6235 H 578.448 1.6929 -2.98657 0
M  V30 6236 N 580.893 1.08022 1.14757 0
M  V30 6237 C 582.121 0.828847 1.89572 0
M  V30 6238 C 582.536 -0.618621 1.78377 0
M  V30 6239 O 581.893 -1.42482 1.1404 0
M  V30 6240 C 581.944 1.23677 3.39685 0
M  V30 6241 O 581.665 2.62746 3.50566 0
M  V30 6242 C 583.166 1.01569 4.31507 0
M  V30 6243 H 580.386 0.299196 0.600602 0
M  V30 6244 H 582.93 1.43846 1.45357 0
M  V30 6245 H 581.085 0.671347 3.81539 0
M  V30 6246 H 581.499 2.79573 4.43778 0
M  V30 6247 H 582.973 1.35055 5.35223 0
M  V30 6248 H 583.45 -0.0475433 4.39174 0
M  V30 6249 H 584.056 1.56636 3.95405 0
M  V30 6250 N 582.371 -1.3172 0.865308 0
M  V30 6251 C 583.301 -2.31109 0.333302 0
M  V30 6252 C 584.282 -1.60148 -0.573301 0
M  V30 6253 O 585.467 -1.87882 -0.491305 0
M  V30 6254 C 582.597 -3.44104 -0.470078 0
M  V30 6255 C 581.551 -4.26623 0.343021 0
M  V30 6256 C 580.877 -5.31482 -0.585756 0
M  V30 6257 C 582.177 -4.98001 1.57456 0
M  V30 6258 H 583.871 -2.75855 1.1638 0
M  V30 6259 H 581.417 -1.3262 0.561069 0
M  V30 6260 H 583.37 -4.12682 -0.852752 0
M  V30 6261 H 582.094 -2.98112 -1.33404 0
M  V30 6262 H 580.753 -3.59707 0.707583 0
M  V30 6263 H 580.401 -4.81741 -1.44686 0
M  V30 6264 H 580.101 -5.87582 -0.0456494 0
M  V30 6265 H 581.625 -6.0292 -0.965375 0
M  V30 6266 H 583.039 -5.59201 1.26359 0
M  V30 6267 H 581.436 -5.63876 2.05339 0
M  V30 6268 H 582.506 -4.25253 2.32997 0
M  V30 6269 N 583.85 -0.624285 -1.44708 0
M  V30 6270 C 584.783 0.133905 -2.27807 0
M  V30 6271 C 585.76 0.857794 -1.38133 0
M  V30 6272 O 586.945 0.863277 -1.6757 0
M  V30 6273 C 584.072 1.19541 -3.16903 0
M  V30 6274 C 583.118 0.572813 -4.22636 0
M  V30 6275 S 583.951 -0.631953 -5.31758 0
M  V30 6276 C 585.106 0.429733 -6.24423 0
M  V30 6277 H 585.34 -0.571072 -2.91764 0
M  V30 6278 H 582.873 -0.412261 -1.48794 0
M  V30 6279 H 584.831 1.80293 -3.68788 0
M  V30 6280 H 583.492 1.87255 -2.5218 0
M  V30 6281 H 582.685 1.37205 -4.84965 0
M  V30 6282 H 582.287 0.0400641 -3.73979 0
M  V30 6283 H 584.579 1.30421 -6.64828 0
M  V30 6284 H 585.522 -0.157804 -7.07924 0
M  V30 6285 H 585.93 0.75256 -5.59461 0
M  V30 6286 N 585.328 1.53329 -0.364422 0
M  V30 6287 C 586.605 1.93557 0.281962 0
M  V30 6288 C 586.985 1.29786 1.6649 0
M  V30 6289 O 586.333 0.456512 2.23893 0
M  V30 6290 C 586.543 3.47405 0.333331 0
M  V30 6291 C 587.891 4.20699 0.574231 0
M  V30 6292 O 588.915 3.53779 0.414588 0
M  V30 6293 O 587.774 5.39287 0.885002 0
M  V30 6294 H 584.868 0.809573 0.168881 0
M  V30 6295 H 587.414 1.64494 -0.417121 0
M  V30 6296 H 586.186 3.86091 -0.636326 0
M  V30 6297 H 585.809 3.82697 1.07836 0
M  V30 6298 N 586.806 0.0935595 1.57322 0
M  V30 6299 C 588.034 -0.578934 1.98635 0
M  V30 6300 C 588.449 -1.61819 0.972626 0
M  V30 6301 O 587.806 -1.82461 -0.0379638 0
M  V30 6302 C 587.857 -1.22802 3.40003 0
M  V30 6303 O 587.578 -0.230334 4.37494 0
M  V30 6304 C 589.079 -1.98627 3.96311 0
M  V30 6305 H 586.299 -0.155324 0.652775 0
M  V30 6306 H 588.843 0.172393 2.03772 0
M  V30 6307 H 586.998 -1.93029 3.35885 0
M  V30 6308 H 587.412 -0.698649 5.19826 0
M  V30 6309 H 588.886 -2.39405 4.97382 0
M  V30 6310 H 589.363 -2.85151 3.34044 0
M  V30 6311 H 589.969 -1.3322 4.03897 0
M  V30 6312 N 588.284 -1.56567 -0.180126 0
M  V30 6313 C 589.247 -1.94852 -1.20686 0
M  V30 6314 C 590.247 -0.831212 -1.3765 0
M  V30 6315 O 591.437 -1.09841 -1.35206 0
M  V30 6316 C 588.569 -2.23565 -2.57355 0
M  V30 6317 H 589.762 -2.86722 -0.879225 0
M  V30 6318 H 587.315 -1.50489 -0.422237 0
M  V30 6319 H 588.05 -1.34381 -2.95148 0
M  V30 6320 H 587.835 -3.04999 -2.46411 0
M  V30 6321 H 589.325 -2.54137 -3.31367 0
M  V30 6322 N 589.762 0.448376 -1.51087 0
M  V30 6323 C 590.987 1.22605 -1.6728 0
M  V30 6324 C 591.412 1.84524 -0.365045 0
M  V30 6325 O 590.77 1.6832 0.673642 0
M  V30 6326 C 590.818 2.29393 -2.78229 0
M  V30 6327 O 589.922 3.34608 -2.41063 0
M  V30 6328 H 589.263 0.359705 -0.558129 0
M  V30 6329 H 591.793 0.530903 -1.97592 0
M  V30 6330 H 591.803 2.74352 -3.01986 0
M  V30 6331 H 590.478 1.83701 -3.73131 0
M  V30 6332 H 589.055 2.95202 -2.27838 0
M  V30 6333 N 591.24 1.41047 0.703093 0
M  V30 6334 C 592.488 1.39723 1.4602 0
M  V30 6335 C 592.809 0.00461257 1.94999 0
M  V30 6336 O 592.079 -0.952292 1.71196 0
M  V30 6337 H 590.659 0.514281 0.541779 0
M  V30 6338 H 593.321 1.76217 0.832678 0
M  V30 6339 H 592.417 2.07982 2.32701 0
M  V30 6340 N 592.718 -0.936591 1.26751 0
M  V30 6341 C 593.965 -1.68331 1.12566 0
M  V30 6342 C 594.293 -1.91677 -0.330168 0
M  V30 6343 O 593.548 -1.49859 -1.2586 0
M  V30 6344 C 593.847 -3.06099 1.84494 0
M  V30 6345 C 593.513 -3.02493 3.34378 0
M  V30 6346 C 592.175 -3.01217 3.75262 0
M  V30 6347 C 594.527 -2.94453 4.30055 0
M  V30 6348 C 591.855 -2.89672 5.10203 0
M  V30 6349 C 594.207 -2.84449 5.65041 0
M  V30 6350 C 592.871 -2.81518 6.0523 0
M  V30 6351 H 592.141 -0.615965 0.411907 0
M  V30 6352 H 594.788 -1.09292 1.5725 0
M  V30 6353 H 593.093 -3.6879 1.32292 0
M  V30 6354 H 594.79 -3.62733 1.70955 0
M  V30 6355 H 591.38 -3.04269 3.01858 0
M  V30 6356 H 595.564 -2.94544 3.99447 0
M  V30 6357 H 590.82 -2.85783 5.40498 0
M  V30 6358 H 594.994 -2.77192 6.38856 0
M  V30 6359 H 592.621 -2.72329 7.09747 0
M  V30 6360 N 594.196 -1.08629 -1.14182 0
M  V30 6361 C 595.444 -0.815731 -1.84906 0
M  V30 6362 C 595.765 0.660441 -1.83475 0
M  V30 6363 O 595.035 1.47888 -1.28476 0
M  V30 6364 H 593.615 -0.298773 -0.684648 0
M  V30 6365 H 596.277 -1.37274 -1.38354 0
M  V30 6366 H 595.373 -1.16193 -2.89665 0
M  V30 6367 N 595.674 1.31259 -0.872281 0
M  V30 6368 C 596.951 1.91362 -0.404943 0
M  V30 6369 C 597.331 1.79362 1.11321 0
M  V30 6370 O 596.679 1.20277 1.94283 0
M  V30 6371 C 596.889 3.3749 -0.888893 0
M  V30 6372 C 598.237 4.14593 -0.916384 0
M  V30 6373 O 599.261 3.46282 -0.834701 0
M  V30 6374 O 598.12 5.3661 -1.03498 0
M  V30 6375 H 595.214 0.818016 -0.121569 0
M  V30 6376 H 597.76 1.39912 -0.960346 0
M  V30 6377 H 596.532 3.40249 -1.93251 0
M  V30 6378 H 596.155 3.96375 -0.311932 0
M  V30 6379 N 597.152 0.631951 1.44375 0
M  V30 6380 C 598.563 0.219036 1.85411 0
M  V30 6381 C 598.914 -1.22974 1.52879 0
M  V30 6382 O 598.039 -1.93579 0.967266 0
M  V30 6383 C 598.634 0.39075 3.36539 0
M  V30 6384 C 597.193 0.0323351 3.76386 0
M  V30 6385 C 596.34 0.703744 2.68221 0
M  V30 6386 H 599.291 0.837056 1.3483 0
M  V30 6387 H 599.312 -0.370056 3.78696 0
M  V30 6388 H 598.824 1.44527 3.60185 0
M  V30 6389 H 596.925 -1.02042 3.58355 0
M  V30 6390 H 597.038 0.442969 4.77048 0
M  V30 6391 H 595.402 0.138974 2.54321 0
M  V30 6392 H 596.185 1.76088 2.947 0
M  V30 6393 N 598.631 -1.53133 0.372548 0
M  V30 6394 C 600.042 -1.86404 -0.105155 0
M  V30 6395 C 600.393 -1.29289 -1.47576 0
M  V30 6396 O 599.518 -0.617646 -2.07398 0
M  V30 6397 C 600.113 -3.38223 -0.197588 0
M  V30 6398 C 598.672 -3.71266 -0.619556 0
M  V30 6399 C 597.819 -2.76353 0.228919 0
M  V30 6400 H 600.77 -1.47282 0.591077 0
M  V30 6401 H 600.791 -3.66577 -1.01987 0
M  V30 6402 H 600.303 -3.79763 0.800099 0
M  V30 6403 H 598.404 -3.35287 -1.62522 0
M  V30 6404 H 598.517 -4.77515 -0.389332 0
M  V30 6405 H 596.881 -2.52888 -0.303271 0
M  V30 6406 H 597.664 -3.20728 1.22428 0
M  V30 6407 N 600.109 -0.101901 -1.5727 0
M  V30 6408 C 601.019 0.868647 -2.17926 0
M  V30 6409 C 602.035 1.30527 -1.1506 0
M  V30 6410 O 603.211 1.37178 -1.47459 0
M  V30 6411 C 600.276 2.10727 -2.75309 0
M  V30 6412 C 599.337 1.7242 -3.93154 0
M  V30 6413 C 598.57 2.90377 -4.47791 0
M  V30 6414 O 598.793 4.05305 -4.01353 0
M  V30 6415 O 597.727 2.6845 -5.38719 0
M  V30 6416 H 601.553 0.382544 -3.01281 0
M  V30 6417 H 599.138 0.122812 -1.48894 0
M  V30 6418 H 601.02 2.83303 -3.11958 0
M  V30 6419 H 599.695 2.58376 -1.94996 0
M  V30 6420 H 598.602 0.970039 -3.61305 0
M  V30 6421 H 599.935 1.29528 -4.74851 0
M  V30 6422 N 601.587 1.56661 0.17182 0
M  V30 6423 C 602.815 1.861 0.904115 0
M  V30 6424 C 603.23 0.687227 1.75848 0
M  V30 6425 O 602.587 -0.343671 1.79235 0
M  V30 6426 C 602.638 3.14568 1.78127 0
M  V30 6427 O 602.359 4.27422 0.961366 0
M  V30 6428 C 603.86 3.5735 2.62327 0
M  V30 6429 H 601.08 0.617445 0.262684 0
M  V30 6430 H 603.624 2.03775 0.172068 0
M  V30 6431 H 601.779 2.98721 2.46666 0
M  V30 6432 H 602.193 5.00725 1.56123 0
M  V30 6433 H 603.667 4.50144 3.1949 0
M  V30 6434 H 604.144 2.81445 3.37173 0
M  V30 6435 H 604.75 3.75807 1.99121 0
M  V30 6436 N 603.065 -0.440357 1.51323 0
M  V30 6437 C 604.481 -0.7766 1.39431 0
M  V30 6438 C 604.681 -1.95838 0.474296 0
M  V30 6439 O 603.737 -2.52398 -0.0716692 0
M  V30 6440 C 605.05 -1.05981 2.81405 0
M  V30 6441 C 606.598 -1.16442 2.90534 0
M  V30 6442 C 607.073 -1.48058 4.33408 0
M  V30 6443 N 608.564 -1.54988 4.36501 0
M  V30 6444 C 609.299 -1.81017 5.44078 0
M  V30 6445 N 608.795 -2.04858 6.61819 0
M  V30 6446 N 610.588 -1.82774 5.31554 0
M  V30 6447 H 602.739 0.338006 2.09693 0
M  V30 6448 H 605.002 0.0888072 0.943831 0
M  V30 6449 H 604.708 -0.264173 3.50706 0
M  V30 6450 H 604.582 -1.98822 3.20546 0
M  V30 6451 H 606.969 -1.95068 2.21432 0
M  V30 6452 H 607.05 -0.215088 2.54894 0
M  V30 6453 H 606.694 -0.699605 5.03059 0
M  V30 6454 H 606.624 -2.44192 4.66559 0
M  V30 6455 H 609.115 -1.38479 3.51613 0
M  V30 6456 H 609.428 -2.2408 7.396 0
M  V30 6457 H 607.773 -2.02187 6.6494 0
M  V30 6458 H 610.964 -1.63665 4.38556 0
M  V30 6459 H 611.137 -2.02722 6.15474 0
M  V30 6460 N 604.543 -1.41418 -0.695603 0
M  V30 6461 C 605.771 -1.4413 -1.48439 0
M  V30 6462 C 606.186 -0.0465698 -1.88743 0
M  V30 6463 O 605.543 0.934117 -1.56782 0
M  V30 6464 C 605.594 -2.34998 -2.74696 0
M  V30 6465 O 605.315 -3.69043 -2.36091 0
M  V30 6466 C 606.816 -2.46513 -3.68438 0
M  V30 6467 H 604.036 -0.490905 -0.457442 0
M  V30 6468 H 606.58 -1.85702 -0.856454 0
M  V30 6469 H 604.735 -1.96735 -3.33728 0
M  V30 6470 H 605.149 -4.17505 -3.17474 0
M  V30 6471 H 606.623 -3.1426 -4.53811 0
M  V30 6472 H 607.1 -1.49638 -4.12922 0
M  V30 6473 H 607.706 -2.85412 -3.1531 0
M  V30 6474 O 606.06 0.837703 -1.38075 0
M  V30 6475 H 606.751 1.47967 -1.25002 0
M  V30 END ATOM
M  V30 BEGIN BOND
M  V30 END BOND
M  V30 END CTAB
M  END
$$$$
