drugbank_target|O95644 Nuclear factor of activated T-cells, cytoplasmic 1 (DB00852)
 OpenBabel12092120593D

  0  0  0     0  0            999 V3000
M  V30 BEGIN CTAB
M  V30 COUNTS 14083 14311 0 0 0
M  V30 BEGIN ATOM
M  V30 1 H -0.908 1.98254 -0.117106 0
M  V30 2 N 0 1.576 0 0
M  V30 3 C 0.933 2.03868 1.02534 0
M  V30 4 C 1.911 0.928543 1.3348 0
M  V30 5 O 3.095 1.19667 1.45644 0
M  V30 6 C 0.222 2.43627 2.35294 0
M  V30 7 C -0.732 3.65373 2.2001 0
M  V30 8 S 0.101 5.13292 1.52614 0
M  V30 9 C 1.257 5.56322 2.86805 0
M  V30 10 H 1.49 2.90518 0.631377 0
M  V30 11 H -0.977 1.52953 0.210867 0
M  V30 12 H 0.981 2.67203 3.11629 0
M  V30 13 H -0.358 1.57376 2.7183 0
M  V30 14 H -1.165 3.90944 3.18086 0
M  V30 15 H -1.563 3.418 1.51819 0
M  V30 16 H 0.729 5.58782 3.83104 0
M  V30 17 H 1.672 6.56266 2.65933 0
M  V30 18 H 2.08 4.83886 2.90714 0
M  V30 19 N 1.4781 -0.272755 1.55222 0
M  V30 20 C 2.8891 -0.84378 1.66545 0
M  V30 21 C 3.2401 -1.87035 0.592641 0
M  V30 22 O 2.3651 -2.14761 -0.265818 0
M  V30 23 C 2.9601 -1.53723 3.01918 0
M  V30 24 C 1.5191 -2.05628 3.15268 0
M  V30 25 C 0.6661 -0.898424 2.62343 0
M  V30 26 H 3.6171 -0.0490998 1.58624 0
M  V30 27 H 3.6381 -2.40421 2.94921 0
M  V30 28 H 3.1501 -0.78983 3.79978 0
M  V30 29 H 1.2511 -2.83329 2.41983 0
M  V30 30 H 1.3641 -2.27142 4.21833 0
M  V30 31 H -0.2719 -1.29186 2.19506 0
M  V30 32 H 0.5111 -0.164528 3.42906 0
M  V30 33 N 2.9562 -1.48159 -0.537278 0
M  V30 34 C 4.1812 -1.59707 -1.32319 0
M  V30 35 C 4.6062 -0.254859 -1.86365 0
M  V30 36 O 3.9642 0.772378 -1.64024 0
M  V30 37 C 4.0122 -2.6412 -2.45505 0
M  V30 38 O 3.1162 -2.20774 -3.48328 0
M  V30 39 H 2.4572 -0.535791 -0.392204 0
M  V30 40 H 4.9872 -1.94092 -0.647268 0
M  V30 41 H 4.9972 -2.85166 -2.91795 0
M  V30 42 H 3.6722 -3.61567 -2.05528 0
M  V30 43 H 2.2492 -2.09911 -3.08207 0
M  V30 44 N 4.4343 0.785586 -1.36625 0
M  V30 45 C 5.6623 1.57448 -1.3423 0
M  V30 46 C 6.0773 1.88649 0.0755653 0
M  V30 47 O 5.4343 1.50414 1.03354 0
M  V30 48 C 5.4853 2.89316 -2.16745 0
M  V30 49 O 5.2063 2.59459 -3.53005 0
M  V30 50 C 6.7073 3.83606 -2.22174 0
M  V30 51 H 3.9273 0.488226 -0.4603 0
M  V30 52 H 6.4713 0.974733 -1.79775 0
M  V30 53 H 4.6263 3.4575 -1.74745 0
M  V30 54 H 5.0403 3.43804 -3.96105 0
M  V30 55 H 6.5143 4.73181 -2.8426 0
M  V30 56 H 6.9913 4.21734 -1.22627 0
M  V30 57 H 7.5973 3.33104 -2.64427 0
M  V30 58 N 5.9124 1.20967 1.01018 0
M  V30 59 C 7.1374 1.0503 1.78839 0
M  V30 60 C 7.5624 -0.395752 1.8389 0
M  V30 61 O 6.9204 -1.28529 1.27867 0
M  V30 62 C 6.9684 1.64602 3.2084 0
M  V30 63 O 6.0724 0.887988 4.02726 0
M  V30 64 H 5.4134 0.369987 0.551367 0
M  V30 65 H 7.9434 1.60399 1.27018 0
M  V30 66 H 7.9534 1.68607 3.71532 0
M  V30 67 H 6.6284 2.69841 3.16479 0
M  V30 68 H 5.2054 0.922648 3.61305 0
M  V30 69 N 7.3905 -1.2043 1.01659 0
M  V30 70 C 8.6375 -1.89797 0.705917 0
M  V30 71 C 8.9655 -1.78848 -0.764439 0
M  V30 72 O 8.2205 -1.16694 -1.57102 0
M  V30 73 C 8.5195 -3.40464 1.08714 0
M  V30 74 C 8.1855 -3.71614 2.5537 0
M  V30 75 C 6.8475 -3.79826 2.95441 0
M  V30 76 C 9.1995 -3.85915 3.50313 0
M  V30 77 C 6.5275 -3.99797 4.29394 0
M  V30 78 C 8.8795 -4.07396 4.83954 0
M  V30 79 C 7.5435 -4.13837 5.23732 0
M  V30 80 H 6.8135 -0.694518 0.258313 0
M  V30 81 H 9.4605 -1.42691 1.27717 0
M  V30 82 H 7.7655 -3.89385 0.434309 0
M  V30 83 H 9.4625 -3.92433 0.824461 0
M  V30 84 H 6.0525 -3.65822 2.23321 0
M  V30 85 H 10.2365 -3.78926 3.20513 0
M  V30 86 H 5.4925 -4.03018 4.59768 0
M  V30 87 H 9.6665 -4.17404 5.57447 0
M  V30 88 H 7.2935 -4.29064 6.27541 0
M  V30 89 N 8.8686 -0.792821 -1.36206 0
M  V30 90 C 10.2796 -0.429513 -1.81692 0
M  V30 91 C 10.6306 1.04695 -1.65932 0
M  V30 92 O 9.7556 1.81256 -1.18218 0
M  V30 93 C 10.3506 -0.772831 -3.29868 0
M  V30 94 C 8.9096 -0.462307 -3.7355 0
M  V30 95 C 8.0566 -1.00569 -2.5842 0
M  V30 96 H 11.0076 -0.985672 -1.24379 0
M  V30 97 H 11.0286 -0.0651928 -3.80444 0
M  V30 98 H 10.5406 -1.84747 -3.41307 0
M  V30 99 H 8.6416 0.604158 -3.67669 0
M  V30 100 H 8.7546 -0.985299 -4.68859 0
M  V30 101 H 7.1186 -0.428734 -2.51066 0
M  V30 102 H 7.9016 -2.08616 -2.72643 0
M  V30 103 N 10.3467 1.47872 -0.545128 0
M  V30 104 C 11.5927 2.02793 -0.0166104 0
M  V30 105 C 11.9257 1.41987 1.32489 0
M  V30 106 O 11.2007 0.571045 1.85928 0
M  V30 107 C 11.4837 3.59989 0.0893294 0
M  V30 108 C 11.3367 4.3125 -1.27841 0
M  V30 109 C 12.6557 4.32606 0.808724 0
M  V30 110 H 9.7747 0.736962 -0.00751035 0
M  V30 111 H 12.4167 1.76433 -0.705085 0
M  V30 112 H 10.5667 3.82579 0.675681 0
M  V30 113 H 12.2387 4.20035 -1.90704 0
M  V30 114 H 10.4817 3.92076 -1.85632 0
M  V30 115 H 11.1527 5.39736 -1.15713 0
M  V30 116 H 13.6287 4.14936 0.310992 0
M  V30 117 H 12.5047 5.42251 0.851782 0
M  V30 118 H 12.7657 4.00963 1.86229 0
M  V30 119 N 11.8248 0.280983 1.55075 0
M  V30 120 C 13.2358 -0.215629 1.85451 0
M  V30 121 C 13.5868 -1.54991 1.203 0
M  V30 122 O 12.7118 -2.10699 0.493435 0
M  V30 123 C 13.3068 -0.398026 3.36454 0
M  V30 124 C 11.8658 -0.838866 3.66933 0
M  V30 125 C 11.0128 0.064458 2.77225 0
M  V30 126 H 13.9638 0.502601 1.50531 0
M  V30 127 H 13.9848 -1.23569 3.59876 0
M  V30 128 H 13.4968 0.573241 3.83843 0
M  V30 129 H 11.5978 -1.8214 3.25048 0
M  V30 130 H 11.7108 -0.672123 4.74362 0
M  V30 131 H 10.0748 -0.452863 2.50642 0
M  V30 132 H 10.8578 1.03172 3.2743 0
M  V30 133 N 13.3029 -1.57598 0.00835791 0
M  V30 134 C 14.5279 -1.95617 -0.689103 0
M  V30 135 C 14.9529 -0.883753 -1.66046 0
M  V30 136 O 14.3109 0.157352 -1.80616 0
M  V30 137 C 14.3589 -3.32736 -1.38994 0
M  V30 138 O 13.4629 -3.27631 -2.50463 0
M  V30 139 H 12.8039 -0.638379 -0.182668 0
M  V30 140 H 15.3339 -2.045 0.064036 0
M  V30 141 H 15.3439 -3.68494 -1.75147 0
M  V30 142 H 14.0189 -4.1034 -0.677778 0
M  V30 143 H 12.5959 -3.03561 -2.16576 0
M  V30 144 N 14.781 0.264519 -1.55364 0
M  V30 145 C 15.728 1.32717 -1.88825 0
M  V30 146 C 16.698 1.48675 -0.740605 0
M  V30 147 O 17.883 1.62945 -0.992657 0
M  V30 148 C 15.023 2.68089 -2.17307 0
M  V30 149 C 14.136 2.60284 -3.44785 0
M  V30 150 C 13.271 3.87892 -3.62924 0
M  V30 151 C 12.31 3.74631 -4.84064 0
M  V30 152 N 11.447 4.94092 -4.98816 0
M  V30 153 H 16.287 1.03481 -2.79456 0
M  V30 154 H 13.824 0.499757 -1.3835 0
M  V30 155 H 15.782 3.46864 -2.31821 0
M  V30 156 H 14.412 2.95509 -1.299 0
M  V30 157 H 13.464 1.73173 -3.38697 0
M  V30 158 H 14.776 2.46388 -4.33698 0
M  V30 159 H 13.93 4.75109 -3.77302 0
M  V30 160 H 12.669 4.04664 -2.7221 0
M  V30 161 H 11.674 2.85797 -4.69681 0
M  V30 162 H 12.899 3.5937 -5.76221 0
M  V30 163 H 10.845 5.11259 -4.11036 0
M  V30 164 H 10.762 4.8276 -5.81789 0
M  V30 165 H 12.03 5.82857 -5.17588 0
M  V30 166 N 16.2591 1.48442 0.529413 0
M  V30 167 C 17.5061 1.56488 1.28521 0
M  V30 168 C 17.8341 0.239042 1.93025 0
M  V30 169 O 17.0891 -0.770713 1.79885 0
M  V30 170 C 17.3881 2.6523 2.39558 0
M  V30 171 C 17.0541 4.07648 1.92702 0
M  V30 172 C 15.7161 4.46411 1.79641 0
M  V30 173 C 18.0681 4.96896 1.573 0
M  V30 174 C 15.3961 5.72226 1.29514 0
M  V30 175 C 17.7481 6.23202 1.08636 0
M  V30 176 C 16.4121 6.60821 0.941919 0
M  V30 177 H 15.6821 0.572631 0.470292 0
M  V30 178 H 18.3291 1.82161 0.59072 0
M  V30 179 H 16.6341 2.33419 3.14679 0
M  V30 180 H 18.3311 2.68671 2.97686 0
M  V30 181 H 14.9211 3.77036 2.03819 0
M  V30 182 H 19.1051 4.67626 1.66251 0
M  V30 183 H 14.3611 6.00097 1.17019 0
M  V30 184 H 18.5351 6.91753 0.803136 0
M  V30 185 H 16.1621 7.58198 0.5513 0
M  V30 186 N 17.7372 -0.778329 1.37039 0
M  V30 187 C 19.1482 -1.35421 1.28523 0
M  V30 188 C 19.4992 -1.96075 -0.0700901 0
M  V30 189 O 18.6242 -1.93352 -0.971801 0
M  V30 190 C 19.2192 -2.46211 2.32735 0
M  V30 191 C 17.7782 -2.99585 2.27873 0
M  V30 192 C 16.9252 -1.72748 2.16918 0
M  V30 193 H 19.8762 -0.5791 1.47757 0
M  V30 194 H 19.8972 -3.2552 1.9702 0
M  V30 195 H 19.4092 -2.02036 3.31365 0
M  V30 196 H 17.5102 -3.48152 1.32745 0
M  V30 197 H 17.6232 -3.55646 3.21018 0
M  V30 198 H 15.9872 -1.95416 1.63354 0
M  V30 199 H 16.7702 -1.30686 3.17452 0
M  V30 200 N 19.2153 -1.21501 -1.00376 0
M  V30 201 C 20.1453 -0.999478 -2.11028 0
M  V30 202 C 21.1263 0.0759671 -1.6993 0
M  V30 203 O 22.3113 -0.0841106 -1.94018 0
M  V30 204 C 19.4413 -0.564709 -3.42678 0
M  V30 205 C 18.3953 -1.58486 -3.97576 0
M  V30 206 C 17.7213 -1.00628 -5.25146 0
M  V30 207 C 19.0213 -2.97204 -4.29496 0
M  V30 208 H 20.7153 -1.92495 -2.29317 0
M  V30 209 H 18.2613 -0.92693 -1.102 0
M  V30 210 H 20.2143 -0.401091 -4.19487 0
M  V30 211 H 18.9383 0.396411 -3.24185 0
M  V30 212 H 17.5973 -1.73606 -3.22888 0
M  V30 213 H 17.2453 -0.0368439 -5.02987 0
M  V30 214 H 16.9453 -1.68771 -5.62841 0
M  V30 215 H 18.4693 -0.854015 -6.04598 0
M  V30 216 H 19.8833 -2.8552 -4.97143 0
M  V30 217 H 18.2803 -3.62372 -4.78338 0
M  V30 218 H 19.3503 -3.47956 -3.3772 0
M  V30 219 N 20.6934 1.19889 -1.02296 0
M  V30 220 C 21.9414 1.89046 -0.714558 0
M  V30 221 C 22.2624 1.79636 0.758681 0
M  V30 222 O 21.5324 1.20292 1.54618 0
M  V30 223 H 20.1124 0.699802 -0.261317 0
M  V30 224 H 22.7744 1.45574 -1.29592 0
M  V30 225 H 21.8704 2.95524 -1.0036 0
M  V30 226 N 22.1715 0.800033 1.35784 0
M  V30 227 C 23.5825 0.439142 1.81462 0
M  V30 228 C 23.9335 -1.03813 1.66485 0
M  V30 229 O 23.0585 -1.80626 1.19177 0
M  V30 230 C 23.6535 0.790314 3.29453 0
M  V30 231 C 22.2125 0.482111 3.733 0
M  V30 232 C 21.3595 1.01938 2.57883 0
M  V30 233 H 24.3105 0.992254 1.23855 0
M  V30 234 H 24.3315 0.0853677 3.80404 0
M  V30 235 H 23.8435 1.86554 3.40322 0
M  V30 236 H 21.9445 -0.584652 3.67984 0
M  V30 237 H 22.0575 1.01015 4.6833 0
M  V30 238 H 20.4215 0.442043 2.50835 0
M  V30 239 H 21.2045 2.10059 2.71533 0
M  V30 240 N 23.6496 -1.47581 0.552962 0
M  V30 241 C 24.6126 -2.28439 -0.186605 0
M  V30 242 C 25.6126 -1.36706 -0.84665 0
M  V30 243 O 26.8026 -1.59378 -0.703164 0
M  V30 244 C 23.9346 -3.16264 -1.2724 0
M  V30 245 H 25.1276 -2.95294 0.523609 0
M  V30 246 H 22.6806 -1.532 0.309745 0
M  V30 247 H 23.4156 -2.54091 -2.01514 0
M  V30 248 H 23.2006 -3.83769 -0.803968 0
M  V30 249 H 24.6906 -3.77198 -1.79196 0
M  V30 250 N 25.1277 -0.289203 -1.54924 0
M  V30 251 C 26.0907 0.579144 -2.21762 0
M  V30 252 C 27.0907 1.07047 -1.1999 0
M  V30 253 O 28.2807 0.968384 -1.44803 0
M  V30 254 C 25.4127 1.80055 -2.8947 0
M  V30 255 H 26.6057 -0.00464908 -2.999 0
M  V30 256 H 24.1587 -0.0399306 -1.56249 0
M  V30 257 H 24.8937 2.42449 -2.15381 0
M  V30 258 H 24.6787 1.45602 -3.64064 0
M  V30 259 H 26.1687 2.41773 -3.40493 0
M  V30 260 N 26.6058 1.57591 -0.0167156 0
M  V30 261 C 27.5688 2.08393 0.954204 0
M  V30 262 C 28.5688 0.996531 1.26198 0
M  V30 263 O 29.7588 1.25858 1.20438 0
M  V30 264 C 26.8908 2.5394 2.27436 0
M  V30 265 H 28.0838 2.95455 0.514451 0
M  V30 266 H 25.6368 1.54582 0.231089 0
M  V30 267 H 26.3718 1.70171 2.76066 0
M  V30 268 H 26.1568 3.33371 2.06412 0
M  V30 269 H 27.6468 2.93512 2.97053 0
M  V30 270 N 28.0839 -0.256276 1.55502 0
M  V30 271 C 29.3299 -0.987079 1.77157 0
M  V30 272 C 29.6629 -1.85327 0.580315 0
M  V30 273 O 28.9379 -1.89874 -0.421686 0
M  V30 274 C 29.2209 -1.85553 3.08613 0
M  V30 275 C 29.0739 -1.01816 4.38125 0
M  V30 276 C 30.3929 -2.8397 3.36228 0
M  V30 277 H 27.5119 -0.357428 0.644526 0
M  V30 278 H 30.1539 -0.258239 1.88237 0
M  V30 279 H 28.3039 -2.47695 2.99298 0
M  V30 280 H 29.9759 -0.416159 4.59419 0
M  V30 281 H 28.2189 -0.322178 4.32602 0
M  V30 282 H 28.8899 -1.65939 5.26468 0
M  V30 283 H 31.3659 -2.31964 3.45445 0
M  V30 284 H 30.2419 -3.41864 4.29442 0
M  V30 285 H 30.5029 -3.59955 2.56681 0
M  V30 286 N 29.562 -1.4872 -0.521534 0
M  V30 287 C 30.809 -1.57168 -1.27689 0
M  V30 288 C 31.137 -0.249275 -1.92896 0
M  V30 289 O 30.392 0.761162 -1.80291 0
M  V30 290 C 30.691 -2.66497 -2.38148 0
M  V30 291 C 30.357 -4.08664 -1.90538 0
M  V30 292 C 29.019 -4.47357 -1.77271 0
M  V30 293 C 31.371 -4.97724 -1.54663 0
M  V30 294 C 28.699 -5.72905 -1.26478 0
M  V30 295 C 31.051 -6.2377 -1.05329 0
M  V30 296 C 29.715 -6.61311 -0.906861 0
M  V30 297 H 28.985 -0.575117 -0.467249 0
M  V30 298 H 31.632 -1.82472 -0.581051 0
M  V30 299 H 29.937 -2.35085 -3.13437 0
M  V30 300 H 31.634 -2.70246 -2.96257 0
M  V30 301 H 28.224 -3.78111 -2.01816 0
M  V30 302 H 32.408 -4.68501 -1.63768 0
M  V30 303 H 27.664 -6.00709 -1.13835 0
M  V30 304 H 31.838 -6.9217 -0.76644 0
M  V30 305 H 29.465 -7.5848 -0.511083 0
M  V30 306 N 31.0401 0.771051 -1.3745 0
M  V30 307 C 32.2881 1.52661 -1.32435 0
M  V30 308 C 32.6091 1.9479 0.0905024 0
M  V30 309 O 31.8791 1.66348 1.03466 0
M  V30 310 H 30.4591 0.566218 -0.487244 0
M  V30 311 H 33.1211 0.917636 -1.71946 0
M  V30 312 H 32.2171 2.42568 -1.96385 0
M  V30 313 N 32.5182 1.22032 0.997298 0
M  V30 314 C 33.9342 0.979326 1.26021 0
M  V30 315 C 34.1342 -0.32972 1.98784 0
M  V30 316 O 33.1902 -1.05345 2.29475 0
M  V30 317 C 34.5032 2.17509 2.07631 0
M  V30 318 C 36.0512 2.21817 2.2083 0
M  V30 319 C 36.5262 3.40933 3.05825 0
M  V30 320 N 38.0172 3.41067 3.13412 0
M  V30 321 C 38.7522 4.29885 3.79455 0
M  V30 322 N 38.2482 5.28914 4.47462 0
M  V30 323 N 40.0412 4.17673 3.76173 0
M  V30 324 H 32.1922 2.06202 0.509352 0
M  V30 325 H 34.4552 0.90334 0.287541 0
M  V30 326 H 34.1612 3.12415 1.61524 0
M  V30 327 H 34.0352 2.17206 3.08385 0
M  V30 328 H 36.4222 1.27462 2.66153 0
M  V30 329 H 36.5032 2.2616 1.1952 0
M  V30 330 H 36.1472 4.35586 2.61203 0
M  V30 331 H 36.0772 3.33829 4.07266 0
M  V30 332 H 38.5682 2.69406 2.65007 0
M  V30 333 H 38.8812 5.92973 4.95583 0
M  V30 334 H 37.2262 5.32831 4.46224 0
M  V30 335 H 40.4172 3.39564 3.22202 0
M  V30 336 H 40.5902 4.87098 4.27363 0
M  V30 337 N 33.9963 -1.19345 1.0293 0
M  V30 338 C 35.2443 -1.88665 0.724574 0
M  V30 339 C 35.5653 -1.80036 -0.749144 0
M  V30 340 O 34.8353 -1.2111 -1.53978 0
M  V30 341 H 33.4153 -0.698406 0.265025 0
M  V30 342 H 36.0773 -1.44885 1.30362 0
M  V30 343 H 35.1733 -2.94987 1.01926 0
M  V30 344 N 35.4744 -0.807222 -1.35358 0
M  V30 345 C 36.3844 -0.219594 -2.3357 0
M  V30 346 C 37.4004 0.637734 -1.61892 0
M  V30 347 O 38.5764 0.549336 -1.93763 0
M  V30 348 C 35.6414 0.62158 -3.41083 0
M  V30 349 C 34.7024 -0.256315 -4.28534 0
M  V30 350 C 33.9354 0.544807 -5.30912 0
M  V30 351 O 34.1584 1.77944 -5.41934 0
M  V30 352 O 33.0924 -0.0646478 -6.01865 0
M  V30 353 H 36.9184 -1.03208 -2.85625 0
M  V30 354 H 34.5034 -0.569025 -1.38139 0
M  V30 355 H 36.3854 1.10067 -4.06772 0
M  V30 356 H 35.0604 1.41165 -2.91297 0
M  V30 357 H 33.9674 -0.782559 -3.65823 0
M  V30 358 H 35.3004 -1.01034 -4.81719 0
M  V30 359 N 36.9525 1.47285 -0.560781 0
M  V30 360 C 38.1805 2.06855 -0.0430262 0
M  V30 361 C 38.5955 1.41291 1.25229 0
M  V30 362 O 37.9525 0.510648 1.7521 0
M  V30 363 C 38.0035 3.61178 0.152518 0
M  V30 364 O 37.7245 4.24285 -1.0915 0
M  V30 365 C 39.2255 4.37624 0.707145 0
M  V30 366 H 36.4455 0.669319 -0.0474652 0
M  V30 367 H 38.9895 1.89237 -0.77521 0
M  V30 368 H 37.1445 3.78298 0.834843 0
M  V30 369 H 37.5585 5.16868 -0.891482 0
M  V30 370 H 39.0325 5.46271 0.793244 0
M  V30 371 H 39.5095 4.04152 1.71923 0
M  V30 372 H 40.1155 4.25257 0.0604027 0
M  V30 373 N 38.4306 0.297415 1.54768 0
M  V30 374 C 39.3606 -0.573494 2.26348 0
M  V30 375 C 40.3416 -1.14085 1.26169 0
M  V30 376 O 41.5266 -1.17086 1.54934 0
M  V30 377 C 38.6566 -1.74716 3.00153 0
M  V30 378 C 37.6106 -1.31032 4.07449 0
M  V30 379 C 36.9366 -2.56887 4.68949 0
M  V30 380 C 38.2366 -0.444183 5.20408 0
M  V30 381 H 39.9306 0.0235131 2.99391 0
M  V30 382 H 37.4766 0.0127488 1.43994 0
M  V30 383 H 39.4296 -2.3625 3.48947 0
M  V30 384 H 38.1536 -2.37035 2.24682 0
M  V30 385 H 36.8126 -0.718066 3.59499 0
M  V30 386 H 36.4606 -3.17512 3.90122 0
M  V30 387 H 36.1606 -2.2836 5.41411 0
M  V30 388 H 37.6846 -3.19229 5.20505 0
M  V30 389 H 39.0986 -0.9651 5.65118 0
M  V30 390 H 37.4956 -0.252846 5.99567 0
M  V30 391 H 38.5656 0.531609 4.81977 0
M  V30 392 N 39.9087 -1.5758 0.0250728 0
M  V30 393 C 41.1567 -1.91255 -0.653151 0
M  V30 394 C 41.4777 -0.901691 -1.729 0
M  V30 395 O 40.7477 0.0573785 -1.95816 0
M  V30 396 H 39.3277 -0.705942 -0.244243 0
M  V30 397 H 41.9897 -1.94767 0.0719209 0
M  V30 398 H 41.0857 -2.91752 -1.10847 0
M  V30 399 N 41.3868 0.248026 -1.55636 0
M  V30 400 C 42.7978 0.817177 -1.67866 0
M  V30 401 C 43.1488 1.86069 -0.622322 0
M  V30 402 O 42.2738 2.15157 0.231618 0
M  V30 403 C 42.8688 1.489 -3.04326 0
M  V30 404 C 41.4278 2.00587 -3.185 0
M  V30 405 C 40.5748 0.856573 -2.63739 0
M  V30 406 H 43.5258 0.0238579 -1.58682 0
M  V30 407 H 43.5468 2.35698 -2.98708 0
M  V30 408 H 43.0588 0.729279 -3.81186 0
M  V30 409 H 41.1598 2.79443 -2.4646 0
M  V30 410 H 41.2728 2.20402 -4.25393 0
M  V30 411 H 39.6368 1.25678 -2.21534 0
M  V30 412 H 40.4198 0.109953 -3.43124 0
M  V30 413 N 42.8649 1.48995 0.513639 0
M  V30 414 C 43.8279 1.64229 1.59879 0
M  V30 415 C 44.8279 0.514696 1.5234 0
M  V30 416 O 46.0179 0.78087 1.55718 0
M  V30 417 C 43.1499 1.62783 2.99524 0
M  V30 418 H 44.3429 2.61004 1.47705 0
M  V30 419 H 41.8959 1.37837 0.736936 0
M  V30 420 H 42.6309 0.675461 3.17188 0
M  V30 421 H 42.4159 2.4466 3.06404 0
M  V30 422 H 43.9059 1.76669 3.78388 0
M  V30 423 N 44.343 -0.763751 1.37857 0
M  V30 424 C 45.754 -1.3405 1.29952 0
M  V30 425 C 46.105 -1.96138 -0.0492898 0
M  V30 426 O 45.23 -1.94372 -0.951239 0
M  V30 427 C 45.825 -2.43729 2.35333 0
M  V30 428 C 44.384 -2.97151 2.31037 0
M  V30 429 C 43.531 -1.70438 2.18738 0
M  V30 430 H 46.482 -0.563396 1.48363 0
M  V30 431 H 46.503 -3.23412 2.00462 0
M  V30 432 H 46.015 -1.9851 3.33489 0
M  V30 433 H 44.116 -3.46724 1.3643 0
M  V30 434 H 44.229 -3.52221 3.24772 0
M  V30 435 H 42.593 -1.93673 1.65418 0
M  V30 436 H 43.376 -1.27312 3.18821 0
M  V30 437 N 45.8211 -1.22559 -0.990812 0
M  V30 438 C 47.2371 -0.985996 -1.255 0
M  V30 439 C 47.4371 0.319173 -1.98956 0
M  V30 440 O 46.4931 1.04127 -2.3003 0
M  V30 441 C 47.8061 -2.18607 -2.06474 0
M  V30 442 C 49.3541 -2.22985 -2.19651 0
M  V30 443 C 49.8291 -3.4255 -3.04012 0
M  V30 444 N 51.3201 -3.42725 -3.11599 0
M  V30 445 C 52.0551 -4.31892 -3.7717 0
M  V30 446 N 51.5511 -5.31279 -4.44651 0
M  V30 447 N 53.3441 -4.19662 -3.73952 0
M  V30 448 H 45.4951 -2.06469 -0.49841 0
M  V30 449 H 47.7581 -0.904853 -0.282747 0
M  V30 450 H 47.4641 -3.13267 -1.59865 0
M  V30 451 H 47.3381 -2.18838 -3.07229 0
M  V30 452 H 49.7251 -1.28871 -2.65474 0
M  V30 453 H 49.8061 -2.26791 -1.18319 0
M  V30 454 H 49.4501 -4.36965 -2.58889 0
M  V30 455 H 49.3801 -3.35984 -4.0549 0
M  V30 456 H 51.8711 -2.70807 -2.63575 0
M  V30 457 H 52.1841 -5.95593 -4.92431 0
M  V30 458 H 50.5291 -5.3519 -4.43392 0
M  V30 459 H 53.7201 -3.41268 -3.20396 0
M  V30 460 H 53.8931 -4.89358 -4.24774 0
M  V30 461 N 47.2992 1.18797 -1.03562 0
M  V30 462 C 48.2622 2.20464 -0.626769 0
M  V30 463 C 49.2622 1.57721 0.313173 0
M  V30 464 O 50.4522 1.73917 0.0992615 0
M  V30 465 C 47.5842 3.40802 0.0818498 0
M  V30 466 H 48.7772 2.58149 -1.5264 0
M  V30 467 H 46.3302 1.32593 -0.827578 0
M  V30 468 H 47.0652 3.08642 0.995518 0
M  V30 469 H 46.8502 3.8758 -0.593652 0
M  V30 470 H 48.3402 4.16092 0.354584 0
M  V30 471 N 48.7773 0.814389 1.34928 0
M  V30 472 C 50.0253 0.397636 1.9815 0
M  V30 473 C 50.3463 -1.04069 1.64908 0
M  V30 474 O 49.6163 -1.72121 0.93548 0
M  V30 475 H 48.1963 0.144043 0.732981 0
M  V30 476 H 50.8583 1.04195 1.6471 0
M  V30 477 H 49.9543 0.509688 3.0791 0
M  V30 478 N 50.2554 -1.46986 0.568584 0
M  V30 479 C 51.5034 -2.02041 0.0487022 0
M  V30 480 C 51.8244 -1.44408 -1.31039 0
M  V30 481 O 51.0944 -0.623477 -1.85714 0
M  V30 482 H 49.6744 -0.746849 0.015014 0
M  V30 483 H 52.3364 -1.80257 0.741168 0
M  V30 484 H 51.4324 -3.12085 -0.0308961 0
M  V30 485 N 51.7335 -0.305618 -1.54608 0
M  V30 486 C 52.9615 0.304775 -2.04643 0
M  V30 487 C 53.3765 1.47167 -1.18268 0
M  V30 488 O 52.7335 1.81296 -0.209328 0
M  V30 489 C 52.7845 0.756564 -3.53495 0
M  V30 490 O 52.5055 -0.36389 -4.36586 0
M  V30 491 C 54.0065 1.43163 -4.19546 0
M  V30 492 H 51.2265 0.0655481 -0.667791 0
M  V30 493 H 53.7705 -0.446592 -1.99564 0
M  V30 494 H 51.9255 1.45794 -3.58919 0
M  V30 495 H 52.3395 -0.0113121 -5.24499 0
M  V30 496 H 53.8135 1.69886 -5.25207 0
M  V30 497 H 54.2905 2.37318 -3.69563 0
M  V30 498 H 54.8965 0.773307 -4.18211 0
M  V30 499 N 53.2116 1.57565 -0.0334293 0
M  V30 500 C 54.1446 2.05997 0.981866 0
M  V30 501 C 55.1226 0.956647 1.3148 0
M  V30 502 O 56.3066 1.22729 1.43073 0
M  V30 503 C 53.4336 2.48564 2.30074 0
M  V30 504 C 52.4796 3.69958 2.12211 0
M  V30 505 S 53.3126 5.16414 1.41692 0
M  V30 506 C 54.4686 5.6228 2.7494 0
M  V30 507 H 54.7016 2.91792 0.569612 0
M  V30 508 H 52.2346 1.53366 0.178376 0
M  V30 509 H 54.1926 2.73753 3.05892 0
M  V30 510 H 52.8536 1.63106 2.68431 0
M  V30 511 H 52.0466 3.97603 3.09722 0
M  V30 512 H 51.6486 3.44943 1.44535 0
M  V30 513 H 53.9406 5.66783 3.71165 0
M  V30 514 H 54.8836 6.61759 2.51953 0
M  V30 515 H 55.2916 4.89944 2.80384 0
M  V30 516 N 54.6897 -0.239769 1.55765 0
M  V30 517 C 55.6367 -1.29696 1.90913 0
M  V30 518 C 56.6067 -1.47478 0.764164 0
M  V30 519 O 57.7917 -1.61345 1.01845 0
M  V30 520 C 54.9317 -2.64598 2.21544 0
M  V30 521 C 54.0447 -2.54765 3.48882 0
M  V30 522 C 53.1797 -3.82069 3.69049 0
M  V30 523 C 52.2187 -3.66883 4.89963 0
M  V30 524 N 51.3557 -4.86094 5.06614 0
M  V30 525 H 56.1957 -0.990224 2.81067 0
M  V30 526 H 53.7327 -0.477684 1.39128 0
M  V30 527 H 55.6907 -3.43132 2.3731 0
M  V30 528 H 54.3207 -2.93405 1.34585 0
M  V30 529 H 53.3727 -1.67763 3.41409 0
M  V30 530 H 54.6847 -2.39457 4.37563 0
M  V30 531 H 53.8387 -4.69046 3.84812 0
M  V30 532 H 52.5777 -4.00282 2.78614 0
M  V30 533 H 51.5827 -2.78289 4.74168 0
M  V30 534 H 52.8077 -3.50157 5.81865 0
M  V30 535 H 50.7537 -5.04655 4.19117 0
M  V30 536 H 50.6707 -4.73443 5.89396 0
M  V30 537 H 51.9387 -5.74549 5.26795 0
M  V30 538 N 56.1678 -1.49265 -0.50573 0
M  V30 539 C 57.3928 -1.62478 -1.28902 0
M  V30 540 C 57.8178 -0.294332 -1.85783 0
M  V30 541 O 57.1758 0.737412 -1.65626 0
M  V30 542 C 57.2238 -2.69268 -2.39848 0
M  V30 543 O 56.3278 -2.28113 -3.43567 0
M  V30 544 H 55.6688 -0.54399 -0.380751 0
M  V30 545 H 58.1988 -1.95421 -0.605952 0
M  V30 546 H 58.2088 -2.91291 -2.85681 0
M  V30 547 H 56.8838 -3.65846 -1.97812 0
M  V30 548 H 55.4608 -2.16401 -3.03685 0
M  V30 549 N 57.6459 0.756429 -1.3826 0
M  V30 550 C 58.6089 1.85176 -1.35065 0
M  V30 551 C 59.6089 1.58818 -0.251703 0
M  V30 552 O 60.7989 1.66615 -0.508433 0
M  V30 553 C 57.9309 3.22596 -1.10201 0
M  V30 554 H 59.1239 1.89417 -2.3251 0
M  V30 555 H 56.6769 0.95783 -1.23512 0
M  V30 556 H 57.4119 3.24025 -0.133504 0
M  V30 557 H 57.1969 3.43122 -1.89762 0
M  V30 558 H 58.6869 4.02673 -1.10654 0
M  V30 559 N 59.124 1.23083 0.984299 0
M  V30 560 C 60.034 1.02515 2.11016 0
M  V30 561 C 61.05 -0.0291702 1.73976 0
M  V30 562 O 62.226 0.165434 2.00719 0
M  V30 563 C 59.291 0.614673 3.41208 0
M  V30 564 C 58.352 1.74359 3.92297 0
M  V30 565 C 57.585 1.35261 5.16275 0
M  V30 566 O 57.808 0.235136 5.69915 0
M  V30 567 O 56.742 2.17227 5.61334 0
M  V30 568 H 60.568 1.96862 2.31255 0
M  V30 569 H 58.153 1.01753 1.09392 0
M  V30 570 H 60.035 0.396518 4.1953 0
M  V30 571 H 58.71 -0.299851 3.22308 0
M  V30 572 H 57.617 2.01635 3.1511 0
M  V30 573 H 58.95 2.63629 4.15645 0
M  V30 574 N 60.6021 -1.18246 1.0419 0
M  V30 575 C 61.5121 -2.25574 0.644476 0
M  V30 576 C 62.5281 -1.70845 -0.329826 0
M  V30 577 O 63.7041 -2.00554 -0.184443 0
M  V30 578 C 60.7691 -3.46697 0.014877 0
M  V30 579 C 59.8301 -4.16554 1.03834 0
M  V30 580 C 59.0631 -5.31894 0.438692 0
M  V30 581 O 59.2861 -5.65385 -0.754752 0
M  V30 582 O 58.2201 -5.90459 1.168 0
M  V30 583 H 62.0461 -2.61836 1.53869 0
M  V30 584 H 59.6311 -1.25352 0.812854 0
M  V30 585 H 61.5131 -4.20062 -0.335538 0
M  V30 586 H 60.1881 -3.12255 -0.853138 0
M  V30 587 H 59.0951 -3.45251 1.44057 0
M  V30 588 H 60.4281 -4.54998 1.87716 0
M  V30 589 N 62.0802 -0.821533 -1.34494 0
M  V30 590 C 62.9902 -0.244355 -2.33324 0
M  V30 591 C 64.0062 0.620527 -1.62559 0
M  V30 592 O 65.1822 0.528754 -1.94335 0
M  V30 593 C 62.2472 0.585368 -3.41723 0
M  V30 594 C 61.3082 -0.301752 -4.28238 0
M  V30 595 C 60.5412 0.488466 -5.3146 0
M  V30 596 O 60.7642 1.72186 -5.4379 0
M  V30 597 O 59.6982 -0.12848 -6.01763 0
M  V30 598 H 63.5242 -1.06231 -2.84515 0
M  V30 599 H 61.1092 -0.583645 -1.37528 0
M  V30 600 H 62.9912 1.05747 -4.07916 0
M  V30 601 H 61.6662 1.38068 -2.92778 0
M  V30 602 H 60.5732 -0.821315 -3.64973 0
M  V30 603 H 61.9062 -1.06138 -4.8062 0
M  V30 604 N 63.5583 1.46682 -0.576371 0
M  V30 605 C 64.5083 2.27278 0.181288 0
M  V30 606 C 65.4923 1.35497 0.867721 0
M  V30 607 O 66.6843 1.59717 0.762863 0
M  V30 608 C 63.8133 3.21703 1.19841 0
M  V30 609 C 62.8993 4.20969 0.51442 0
M  V30 610 N 63.2903 5.03999 -0.426407 0
M  V30 611 C 61.5883 4.39373 0.765963 0
M  V30 612 C 62.2893 5.75812 -0.825565 0
M  V30 613 N 61.2653 5.43315 -0.176116 0
M  V30 614 H 65.0673 2.88863 -0.541785 0
M  V30 615 H 62.5813 1.57455 -0.397697 0
M  V30 616 H 64.5783 3.78145 1.75533 0
M  V30 617 H 63.2383 2.61677 1.92238 0
M  V30 618 H 64.2493 5.11659 -0.8016 0
M  V30 619 H 60.9263 3.90502 1.47698 0
M  V30 620 H 62.3163 6.52577 -1.59976 0
M  V30 621 N 65.0364 0.313813 1.54444 0
M  V30 622 C 66.2664 -0.293491 2.04505 0
M  V30 623 C 66.6744 -1.47086 1.19005 0
M  V30 624 O 66.0174 -1.82481 0.211257 0
M  V30 625 C 66.0794 -0.800455 3.50475 0
M  V30 626 C 65.7434 0.253322 4.56297 0
M  V30 627 C 66.7404 1.08612 5.08428 0
M  V30 628 C 64.4254 0.398708 5.00715 0
M  V30 629 C 66.4194 2.05013 6.0353 0
M  V30 630 C 64.1064 1.36614 5.95634 0
M  V30 631 C 65.1044 2.19033 6.46926 0
M  V30 632 O 64.7924 3.14134 7.39983 0
M  V30 633 H 64.5244 -0.0658325 0.672787 0
M  V30 634 H 67.0784 0.455177 2.00293 0
M  V30 635 H 65.3084 -1.59987 3.52053 0
M  V30 636 H 66.9974 -1.32504 3.83663 0
M  V30 637 H 67.7634 0.984736 4.74898 0
M  V30 638 H 63.6424 -0.23289 4.60411 0
M  V30 639 H 67.1864 2.69382 6.4349 0
M  V30 640 H 63.0834 1.4682 6.28581 0
M  V30 641 H 63.8514 3.0926 7.57826 0
M  V30 642 N 66.5145 -1.57545 0.0417849 0
M  V30 643 C 67.7625 -1.91937 -0.632829 0
M  V30 644 C 68.0835 -0.919978 -1.71934 0
M  V30 645 O 67.3535 0.0366064 -1.95866 0
M  V30 646 H 65.9335 -0.708493 -0.236742 0
M  V30 647 H 68.5955 -1.9468 0.0925745 0
M  V30 648 H 67.6915 -2.92912 -1.07746 0
M  V30 649 N 67.9926 0.231505 -1.5589 0
M  V30 650 C 69.2226 0.973092 -1.82248 0
M  V30 651 C 69.6306 1.78845 -0.617328 0
M  V30 652 O 68.9736 1.78752 0.423499 0
M  V30 653 C 69.0356 1.94732 -3.02192 0
M  V30 654 C 68.6996 1.31743 -4.37599 0
M  V30 655 C 69.6966 0.712238 -5.14998 0
M  V30 656 C 67.3816 1.33218 -4.84312 0
M  V30 657 C 69.3756 0.130195 -6.37267 0
M  V30 658 C 67.0626 0.746286 -6.06526 0
M  V30 659 C 68.0606 0.146337 -6.82843 0
M  V30 660 O 67.7486 -0.430465 -8.02747 0
M  V30 661 H 67.4806 0.29125 -0.61004 0
M  V30 662 H 70.0346 0.254915 -2.03812 0
M  V30 663 H 68.2646 2.70422 -2.76422 0
M  V30 664 H 69.9536 2.55362 -3.15508 0
M  V30 665 H 70.7196 0.69324 -4.8002 0
M  V30 666 H 66.5986 1.78854 -4.24891 0
M  V30 667 H 70.1426 -0.33871 -6.96777 0
M  V30 668 H 66.0396 0.762663 -6.40979 0
M  V30 669 H 66.8076 -0.323818 -8.17859 0
M  V30 670 N 69.4707 1.49531 0.497807 0
M  V30 671 C 70.4337 1.65916 1.58128 0
M  V30 672 C 71.4337 0.530825 1.51786 0
M  V30 673 O 72.6237 0.797342 1.54881 0
M  V30 674 C 69.7557 1.65951 2.9778 0
M  V30 675 H 70.9487 2.62556 1.44929 0
M  V30 676 H 68.5017 1.38611 0.722275 0
M  V30 677 H 69.2367 0.709065 3.16453 0
M  V30 678 H 69.0217 2.47897 3.03792 0
M  V30 679 H 70.5117 1.80673 3.76493 0
M  V30 680 N 70.9488 -0.749086 1.3866 0
M  V30 681 C 72.1738 -1.54344 1.38538 0
M  V30 682 C 72.5988 -1.88088 -0.0216655 0
M  V30 683 O 71.9568 -1.50899 -1.00494 0
M  V30 684 C 72.0048 -2.8164 2.25192 0
M  V30 685 O 71.1088 -3.7698 1.67212 0
M  V30 686 H 70.4498 -0.466654 0.472367 0
M  V30 687 H 72.9798 -0.925355 1.82478 0
M  V30 688 H 72.9898 -3.30519 2.3921 0
M  V30 689 H 71.6648 -2.56411 3.27454 0
M  V30 690 H 70.2418 -3.35699 1.6236 0
M  V30 691 N 72.4269 -1.23603 -0.977757 0
M  V30 692 C 73.6519 -1.09735 -1.75991 0
M  V30 693 C 74.0769 0.346858 -1.84874 0
M  V30 694 O 73.4349 1.25093 -1.3123 0
M  V30 695 C 73.4829 -1.73051 -3.16363 0
M  V30 696 O 72.5869 -0.994452 -4.0023 0
M  V30 697 H 71.9279 -0.384476 -0.541364 0
M  V30 698 H 74.4579 -1.6371 -1.2272 0
M  V30 699 H 74.4679 -1.78398 -3.66931 0
M  V30 700 H 73.1429 -2.78137 -3.09213 0
M  V30 701 H 71.7199 -1.01812 -3.58732 0
M  V30 702 N 73.905 1.17692 -1.04816 0
M  V30 703 C 74.853 2.23632 -0.63966 0
M  V30 704 C 75.847 1.6601 0.337219 0
M  V30 705 O 77.053 1.78844 0.203693 0
M  V30 706 H 73.428 0.727949 -0.188665 0
M  V30 707 H 75.399 2.55387 -1.54337 0
M  V30 708 C 74.148 3.4769 -0.0264051 0
M  V30 709 H 73.471 3.92331 -0.769164 0
M  V30 710 H 74.911 4.23418 0.222098 0
M  V30 711 C 73.37 3.13807 1.22584 0
M  V30 712 O 73.9 3.28236 2.31569 0
M  V30 713 N 72.106 2.68065 1.12202 0
M  V30 714 H 71.653 2.56525 0.235133 0
M  V30 715 H 71.611 2.45767 1.96076 0
M  V30 716 N 75.3831 0.828654 1.34056 0
M  V30 717 C 76.6291 0.42008 1.98402 0
M  V30 718 C 76.9621 -1.01564 1.65525 0
M  V30 719 O 76.2371 -1.70834 0.929831 0
M  V30 720 C 76.5201 0.62927 3.54559 0
M  V30 721 C 76.3731 2.11152 3.97159 0
M  V30 722 C 77.6921 0.0688756 4.40046 0
M  V30 723 H 74.8111 0.154104 0.720709 0
M  V30 724 H 77.4531 1.04228 1.5886 0
M  V30 725 H 75.6031 0.0996418 3.88372 0
M  V30 726 H 77.2751 2.70522 3.73651 0
M  V30 727 H 75.5181 2.59985 3.47261 0
M  V30 728 H 76.1891 2.20868 5.05887 0
M  V30 729 H 78.6651 0.521458 4.1282 0
M  V30 730 H 77.5411 0.245006 5.48353 0
M  V30 731 H 77.8021 -1.0266 4.30015 0
M  V30 732 N 76.8612 -1.46375 0.584142 0
M  V30 733 C 78.0862 -2.07268 0.0740405 0
M  V30 734 C 78.5112 -1.42979 -1.22223 0
M  V30 735 O 77.8692 -0.514092 -1.73859 0
M  V30 736 C 77.9172 -3.60518 -0.0767769 0
M  V30 737 O 77.0212 -3.96533 -1.13292 0
M  V30 738 H 76.3622 -0.660961 0.0634524 0
M  V30 739 H 78.8922 -1.87991 0.807492 0
M  V30 740 H 78.9022 -4.07021 -0.282489 0
M  V30 741 H 77.5772 -4.06702 0.86986 0
M  V30 742 H 76.1542 -3.61738 -0.905553 0
M  V30 743 N 78.3393 -0.321999 -1.54275 0
M  V30 744 C 79.7503 0.166384 -1.85957 0
M  V30 745 C 80.1013 1.51747 -1.24367 0
M  V30 746 O 79.2263 2.09317 -0.549124 0
M  V30 747 C 79.8213 0.308681 -3.37391 0
M  V30 748 C 78.3803 0.741286 -3.69028 0
M  V30 749 C 77.5273 -0.137937 -2.76957 0
M  V30 750 H 80.4783 -0.542335 -1.49146 0
M  V30 751 H 80.4993 1.13984 -3.63026 0
M  V30 752 H 80.0113 -0.674809 -3.82188 0
M  V30 753 H 78.1123 1.73458 -3.29762 0
M  V30 754 H 78.2253 0.546118 -4.75977 0
M  V30 755 H 76.5893 0.386251 -2.51754 0
M  V30 756 H 77.3723 -1.11816 -3.2458 0
M  V30 757 N 79.8174 1.5752 -0.0501392 0
M  V30 758 C 80.7804 2.1037 0.909786 0
M  V30 759 C 81.7804 1.02308 1.24056 0
M  V30 760 O 82.9704 1.28385 1.17741 0
M  V30 761 C 80.1024 2.58708 2.21998 0
M  V30 762 H 81.2954 2.96479 0.451665 0
M  V30 763 H 78.8484 1.55038 0.198248 0
M  V30 764 H 79.5834 1.75989 2.72394 0
M  V30 765 H 79.3684 3.37675 1.99295 0
M  V30 766 H 80.8584 2.99747 2.9076 0
M  V30 767 N 81.2955 -0.223234 1.56011 0
M  V30 768 C 82.2255 -1.27988 1.95298 0
M  V30 769 C 83.2065 -1.48976 0.820979 0
M  V30 770 O 84.3915 -1.61188 1.08315 0
M  V30 771 C 81.5215 -2.63 2.26822 0
M  V30 772 C 80.4755 -2.56671 3.42497 0
M  V30 773 C 79.8015 -3.95697 3.59622 0
M  V30 774 C 81.1015 -2.11601 4.77517 0
M  V30 775 H 82.7955 -0.953525 2.8381 0
M  V30 776 H 80.3415 -0.457244 1.36548 0
M  V30 777 H 82.2945 -3.37077 2.52898 0
M  V30 778 H 81.0185 -2.9732 1.35161 0
M  V30 779 H 79.6775 -1.85051 3.16467 0
M  V30 780 H 79.3255 -4.27322 2.6534 0
M  V30 781 H 79.0255 -3.92345 4.37424 0
M  V30 782 H 80.5495 -4.71438 3.88044 0
M  V30 783 H 81.9635 -2.7542 5.02809 0
M  V30 784 H 80.3605 -2.19311 5.5859 0
M  V30 785 H 81.4305 -1.06824 4.72987 0
M  V30 786 N 82.7736 -1.49793 -0.48987 0
M  V30 787 C 84.1846 -1.52914 -1.07118 0
M  V30 788 C 84.5356 -0.321738 -1.93544 0
M  V30 789 O 83.6606 0.567338 -2.08831 0
M  V30 790 C 84.2556 -2.771 -1.94938 0
M  V30 791 C 82.8146 -2.82963 -2.48212 0
M  V30 792 C 81.9616 -2.46972 -1.26096 0
M  V30 793 H 84.9126 -1.56329 -0.273289 0
M  V30 794 H 84.9336 -2.57892 -2.79771 0
M  V30 795 H 84.4456 -3.64959 -1.32009 0
M  V30 796 H 82.5466 -1.99411 -3.14748 0
M  V30 797 H 82.6596 -3.85406 -2.84603 0
M  V30 798 H 81.0236 -1.98994 -1.58976 0
M  V30 799 H 81.8066 -3.37118 -0.648581 0
M  V30 800 N 84.2517 0.741722 -1.39055 0
M  V30 801 C 85.1817 1.869 -1.39966 0
M  V30 802 C 86.1627 1.6804 -0.26392 0
M  V30 803 O 87.3477 1.88458 -0.468755 0
M  V30 804 C 84.4777 3.24572 -1.23574 0
M  V30 805 C 83.4317 3.58056 -2.34477 0
M  V30 806 C 82.7577 4.94593 -2.0318 0
M  V30 807 C 84.0577 3.61716 -3.76774 0
M  V30 808 H 85.7517 1.86395 -2.34302 0
M  V30 809 H 83.2977 0.895361 -1.1278 0
M  V30 810 H 85.2507 4.031 -1.22834 0
M  V30 811 H 83.9747 3.25587 -0.257045 0
M  V30 812 H 82.6337 2.81854 -2.34423 0
M  V30 813 H 82.2817 4.92181 -1.03765 0
M  V30 814 H 81.9817 5.17964 -2.77465 0
M  V30 815 H 83.5057 5.75486 -2.04079 0
M  V30 816 H 84.9197 4.30335 -3.78794 0
M  V30 817 H 83.3167 3.96603 -4.50362 0
M  V30 818 H 84.3867 2.61672 -4.08235 0
M  V30 819 N 85.7298 1.2412 0.971189 0
M  V30 820 C 87.1408 1.07236 1.52831 0
M  V30 821 C 87.4918 -0.357352 1.92918 0
M  V30 822 O 86.6168 -1.24528 1.76979 0
M  V30 823 C 87.2118 1.94043 2.77728 0
M  V30 824 C 85.7708 1.81394 3.29808 0
M  V30 825 C 84.9178 1.89189 2.02738 0
M  V30 826 H 87.8688 1.37648 0.789864 0
M  V30 827 H 87.8898 1.47066 3.5093 0
M  V30 828 H 87.4018 2.98093 2.4852 0
M  V30 829 H 85.5028 0.801634 3.63874 0
M  V30 830 H 85.6158 2.65294 3.98944 0
M  V30 831 H 83.9798 1.32877 2.17292 0
M  V30 832 H 84.7628 2.94812 1.759 0
M  V30 833 N 87.2079 -1.17134 1.05439 0
M  V30 834 C 88.4359 -1.91372 0.786414 0
M  V30 835 C 88.8509 -1.76955 -0.658202 0
M  V30 836 O 88.2079 -1.10838 -1.44987 0
M  V30 837 C 88.2589 -3.42356 1.1608 0
M  V30 838 O 87.9799 -3.56332 2.54871 0
M  V30 839 C 89.4809 -4.33663 0.919322 0
M  V30 840 H 86.7009 -0.607118 0.285743 0
M  V30 841 H 89.2449 -1.48525 1.40572 0
M  V30 842 H 87.3999 -3.82939 0.586191 0
M  V30 843 H 87.8139 -4.49896 2.69618 0
M  V30 844 H 89.2879 -5.38099 1.231 0
M  V30 845 H 89.7649 -4.38959 -0.145359 0
M  V30 846 H 90.3709 -3.98796 1.47789 0
M  V30 847 N 88.686 -0.835752 -1.33615 0
M  V30 848 C 89.649 -0.272 -2.2758 0
M  V30 849 C 90.649 0.557487 -1.50827 0
M  V30 850 O 91.839 0.37173 -1.70188 0
M  V30 851 C 88.971 0.617173 -3.35267 0
M  V30 852 H 90.164 -1.10111 -2.78954 0
M  V30 853 H 87.717 -0.608594 -1.43965 0
M  V30 854 H 88.452 1.46884 -2.89129 0
M  V30 855 H 88.237 0.0237066 -3.92093 0
M  V30 856 H 89.727 1.005 -4.05326 0
M  V30 857 N 90.1641 1.46063 -0.591896 0
M  V30 858 C 91.1141 2.27458 0.157172 0
M  V30 859 C 92.0981 1.3641 0.853301 0
M  V30 860 O 93.2901 1.60517 0.74588 0
M  V30 861 C 90.4191 3.22956 1.16423 0
M  V30 862 C 89.5051 4.2149 0.469742 0
M  V30 863 N 89.8961 5.03519 -0.479839 0
M  V30 864 C 88.1941 4.40161 0.719319 0
M  V30 865 C 88.8951 5.74904 -0.886591 0
M  V30 866 N 87.8711 5.43097 -0.233731 0
M  V30 867 H 91.6731 2.88272 -0.572392 0
M  V30 868 H 89.1871 1.57024 -0.414375 0
M  V30 869 H 91.1841 3.79986 1.71513 0
M  V30 870 H 89.8441 2.63701 1.89451 0
M  V30 871 H 90.8551 5.1078 -0.855823 0
M  V30 872 H 87.5321 3.92046 1.43548 0
M  V30 873 H 88.9221 6.50844 -1.66888 0
M  V30 874 N 91.6422 0.330177 1.54103 0
M  V30 875 C 92.8672 -0.274893 2.0557 0
M  V30 876 C 93.2922 -1.44487 1.20437 0
M  V30 877 O 92.6502 -1.80021 0.214991 0
M  V30 878 C 92.6982 -0.68079 3.54115 0
M  V30 879 O 91.8022 -1.7824 3.71893 0
M  V30 880 H 91.1432 -0.0483849 0.662235 0
M  V30 881 H 93.6732 0.480508 1.98878 0
M  V30 882 H 93.6832 -0.961635 3.96505 0
M  V30 883 H 92.3582 0.174903 4.15532 0
M  V30 884 H 90.9352 -1.49985 3.41407 0
M  V30 885 N 93.1203 -1.57491 0.0584922 0
M  V30 886 C 94.3483 -1.97296 -0.623037 0
M  V30 887 C 94.7633 -0.936338 -1.63946 0
M  V30 888 O 94.1203 0.0785981 -1.82331 0
M  V30 889 C 94.1713 -3.37183 -1.30345 0
M  V30 890 O 93.8923 -4.36872 -0.32773 0
M  V30 891 C 95.3933 -3.91788 -2.07406 0
M  V30 892 H 92.6133 -0.649153 -0.169826 0
M  V30 893 H 95.1573 -2.04106 0.12696 0
M  V30 894 H 93.3123 -3.31502 -2.00463 0
M  V30 895 H 93.7263 -5.18141 -0.814269 0
M  V30 896 H 95.2003 -4.91926 -2.50425 0
M  V30 897 H 95.6773 -3.27609 -2.92521 0
M  V30 898 H 96.2833 -4.00829 -1.42184 0
M  V30 899 N 94.5984 0.214957 -1.56127 0
M  V30 900 C 95.5284 1.2695 -1.95974 0
M  V30 901 C 96.5094 1.48539 -0.828868 0
M  V30 902 O 97.6944 1.60611 -1.09168 0
M  V30 903 C 94.8244 2.61794 -2.28214 0
M  V30 904 C 93.7784 2.54851 -3.43853 0
M  V30 905 C 93.1044 3.93785 -3.61715 0
M  V30 906 C 94.4044 2.09065 -4.78632 0
M  V30 907 H 96.0984 0.93846 -2.84312 0
M  V30 908 H 93.6444 0.449996 -1.36788 0
M  V30 909 H 95.5974 3.35731 -2.54682 0
M  V30 910 H 94.3214 2.96599 -1.36736 0
M  V30 911 H 92.9804 1.8337 -3.17444 0
M  V30 912 H 92.6284 4.25908 -2.67602 0
M  V30 913 H 92.3284 3.90019 -4.39498 0
M  V30 914 H 93.8524 4.69374 -3.90539 0
M  V30 915 H 95.2664 2.7275 -5.04262 0
M  V30 916 H 93.6634 2.16346 -5.59745 0
M  V30 917 H 94.7334 1.04315 -4.73547 0
M  V30 918 N 96.0765 1.50051 0.48192 0
M  V30 919 C 97.4875 1.5348 1.06305 0
M  V30 920 C 97.8385 0.331997 1.93371 0
M  V30 921 O 96.9635 -0.556256 2.09129 0
M  V30 922 C 97.5585 2.7813 1.93466 0
M  V30 923 C 96.1175 2.84275 2.46707 0
M  V30 924 C 95.2645 2.47637 1.24785 0
M  V30 925 H 98.2155 1.56472 0.264995 0
M  V30 926 H 98.2365 2.59372 2.78399 0
M  V30 927 H 97.7485 3.65654 1.30072 0
M  V30 928 H 95.8495 2.01077 3.13686 0
M  V30 929 H 95.9625 3.8691 2.82555 0
M  V30 930 H 94.3265 1.99835 1.57918 0
M  V30 931 H 95.1095 3.37457 0.630694 0
M  V30 932 N 97.5546 -0.734337 1.39446 0
M  V30 933 C 98.5176 -1.83004 1.37994 0
M  V30 934 C 99.5176 -1.58397 0.276938 0
M  V30 935 O 100.708 -1.65785 0.534875 0
M  V30 936 C 97.8396 -3.20802 1.1532 0
M  V30 937 H 99.0326 -1.85694 2.35494 0
M  V30 938 H 96.5856 -0.938059 1.25021 0
M  V30 939 H 97.3206 -3.23772 0.185036 0
M  V30 940 H 97.1056 -3.4006 1.95197 0
M  V30 941 H 98.5956 -4.00862 1.17046 0
M  V30 942 N 99.0327 -1.24633 -0.964593 0
M  V30 943 C 100.444 -1.08045 -1.5226 0
M  V30 944 C 100.795 0.347116 -1.93105 0
M  V30 945 O 99.9197 1.23588 -1.77637 0
M  V30 946 C 100.515 -1.95514 -2.76695 0
M  V30 947 C 99.0737 -1.8314 -3.28841 0
M  V30 948 C 98.2207 -1.90262 -2.01732 0
M  V30 949 H 101.172 -1.38064 -0.782553 0
M  V30 950 H 101.193 -1.48925 -3.50145 0
M  V30 951 H 100.705 -2.99407 -2.46936 0
M  V30 952 H 98.8057 -0.82092 -3.63444 0
M  V30 953 H 98.9187 -2.67406 -3.97531 0
M  V30 954 H 97.2827 -1.34027 -2.16584 0
M  V30 955 H 98.0657 -2.9574 -1.74334 0
M  V30 956 N 100.511 1.16574 -1.06058 0
M  V30 957 C 101.751 1.88723 -0.78504 0
M  V30 958 C 102.115 1.79706 0.676006 0
M  V30 959 O 103.316 2.46757 1.06603 0
M  V30 960 C 101.587 3.34338 -1.26304 0
M  V30 961 S 103.146 4.24366 -1.1162 0
M  V30 962 H 99.9638 0.651448 -0.284846 0
M  V30 963 H 102.566 1.40732 -1.35701 0
M  V30 964 H 101.27 3.38439 -2.32136 0
M  V30 965 H 100.801 3.87378 -0.685719 0
M  V30 966 H 102.816 4.96179 -0.0456539 0
M  V30 967 N 101.989 0.842826 1.3317 0
M  V30 968 C 102.939 0.250877 2.26616 0
M  V30 969 C 103.923 -0.596427 1.49437 0
M  V30 970 O 105.115 -0.447747 1.71243 0
M  V30 971 C 102.244 -0.569779 3.38539 0
M  V30 972 C 101.33 0.289254 4.23112 0
M  V30 973 N 101.721 1.36987 4.86897 0
M  V30 974 C 100.019 0.0769631 4.45934 0
M  V30 975 C 100.72 1.89737 5.49886 0
M  V30 976 N 99.6959 1.19827 5.30229 0
M  V30 977 H 103.498 1.07718 2.73448 0
M  V30 978 H 101.012 0.687693 1.47121 0
M  V30 979 H 103.009 -1.01018 4.04476 0
M  V30 980 H 101.669 -1.39401 2.93253 0
M  V30 981 H 102.68 1.75277 4.87338 0
M  V30 982 H 99.3569 -0.713507 4.11358 0
M  V30 983 H 100.747 2.80253 6.10662 0
M  V30 984 N 103.467 -1.45747 0.599634 0
M  V30 985 C 104.415 -2.322 -0.136426 0
M  V30 986 C 105.409 -1.45497 -0.867583 0
M  V30 987 O 106.615 -1.62027 -0.78405 0
M  V30 988 H 102.99 -0.749368 -0.0628588 0
M  V30 989 H 104.961 -2.92072 0.611281 0
M  V30 990 C 103.71 -3.28974 -1.12567 0
M  V30 991 H 103.033 -3.9568 -0.572484 0
M  V30 992 H 104.473 -3.92212 -1.61077 0
M  V30 993 C 102.932 -2.55561 -2.19523 0
M  V30 994 O 103.462 -2.33111 -3.27143 0
M  V30 995 N 101.668 -2.15832 -1.94589 0
M  V30 996 H 101.215 -2.3429 -1.07078 0
M  V30 997 H 101.173 -1.67034 -2.66359 0
M  V30 998 N 104.945 -0.338344 -1.53925 0
M  V30 999 C 105.875 0.51328 -2.27789 0
M  V30 1000 C 106.856 1.107 -1.29149 0
M  V30 1001 O 108.041 1.12937 -1.57984 0
M  V30 1002 C 105.171 1.66697 -3.04679 0
M  V30 1003 C 104.125 1.20183 -4.1078 0
M  V30 1004 C 103.451 2.44363 -4.75595 0
M  V30 1005 C 104.751 0.30605 -5.21403 0
M  V30 1006 H 106.445 -0.102883 -2.99223 0
M  V30 1007 H 103.991 -0.0509219 -1.4391 0
M  V30 1008 H 105.944 2.26915 -3.55088 0
M  V30 1009 H 104.668 2.30995 -2.30887 0
M  V30 1010 H 103.327 0.622499 -3.61276 0
M  V30 1011 H 102.975 3.07057 -3.98403 0
M  V30 1012 H 102.675 2.13925 -5.47275 0
M  V30 1013 H 104.199 3.05317 -5.28786 0
M  V30 1014 H 105.613 0.814929 -5.67478 0
M  V30 1015 H 104.01 0.0937929 -6.00027 0
M  V30 1016 H 105.08 -0.65921 -4.80398 0
M  V30 1017 N 106.423 1.57458 -0.0668435 0
M  V30 1018 C 107.355 2.09413 0.931601 0
M  V30 1019 C 108.368 1.02522 1.26464 0
M  V30 1020 O 109.557 1.30049 1.22269 0
M  V30 1021 C 106.657 2.53537 2.24882 0
M  V30 1022 C 105.83 3.83944 2.09537 0
M  V30 1023 C 104.889 4.14214 3.2452 0
M  V30 1024 O 103.915 4.83891 2.9973 0
M  V30 1025 N 105.117 3.67367 4.49469 0
M  V30 1026 H 107.882 2.95699 0.488048 0
M  V30 1027 H 105.443 1.61462 0.119009 0
M  V30 1028 H 107.435 2.70853 3.00701 0
M  V30 1029 H 106.005 1.72415 2.60753 0
M  V30 1030 H 105.225 3.76057 1.18215 0
M  V30 1031 H 106.513 4.69312 1.96529 0
M  V30 1032 H 105.911 3.11068 4.72497 0
M  V30 1033 H 104.468 3.89891 5.2233 0
M  V30 1034 N 107.901 -0.206675 1.56239 0
M  V30 1035 C 109.129 -0.945345 1.8404 0
M  V30 1036 C 109.544 -1.77336 0.647885 0
M  V30 1037 O 108.901 -1.78425 -0.383511 0
M  V30 1038 C 108.952 -1.8509 3.10522 0
M  V30 1039 O 108.673 -1.05634 4.25174 0
M  V30 1040 C 110.174 -2.70222 3.51418 0
M  V30 1041 H 107.394 -0.276372 0.61144 0
M  V30 1042 H 109.938 -0.217417 2.03341 0
M  V30 1043 H 108.093 -2.53259 2.93153 0
M  V30 1044 H 108.507 -1.67238 4.97124 0
M  V30 1045 H 109.981 -3.29438 4.42916 0
M  V30 1046 H 110.458 -3.43358 2.73864 0
M  V30 1047 H 111.064 -2.07443 3.71278 0
M  V30 1048 N 109.379 -1.50304 -0.473955 0
M  V30 1049 C 110.604 -1.65175 -1.25427 0
M  V30 1050 C 111.029 -0.333673 -1.85117 0
M  V30 1051 O 110.387 0.702114 -1.67153 0
M  V30 1052 C 110.435 -2.74295 -2.34082 0
M  V30 1053 O 109.539 -2.35349 -3.38651 0
M  V30 1054 H 108.88 -0.551944 -0.369126 0
M  V30 1055 H 111.41 -1.96662 -0.564364 0
M  V30 1056 H 111.42 -2.97285 -2.79438 0
M  V30 1057 H 110.095 -3.69959 -1.90008 0
M  V30 1058 H 108.672 -2.22794 -2.99027 0
M  V30 1059 N 110.857 0.726932 -1.39834 0
M  V30 1060 C 112.085 1.51613 -1.40787 0
M  V30 1061 C 112.5 1.88799 -0.00451505 0
M  V30 1062 O 111.857 1.54662 0.968809 0
M  V30 1063 C 111.908 2.79863 -2.28821 0
M  V30 1064 O 111.629 2.44253 -3.63692 0
M  V30 1065 C 113.13 3.73837 -2.38245 0
M  V30 1066 H 110.35 0.468264 -0.480593 0
M  V30 1067 H 112.894 0.897607 -1.83748 0
M  V30 1068 H 111.049 3.38027 -1.89252 0
M  V30 1069 H 111.463 3.26695 -4.1033 0
M  V30 1070 H 112.937 4.60699 -3.04073 0
M  V30 1071 H 113.414 4.16153 -1.40403 0
M  V30 1072 H 114.02 3.21589 -2.78317 0
M  V30 1073 N 112.336 1.25143 0.95797 0
M  V30 1074 C 113.747 1.08851 1.51685 0
M  V30 1075 C 114.098 -0.33687 1.93286 0
M  V30 1076 O 113.223 -1.22644 1.7829 0
M  V30 1077 C 113.818 1.96978 2.75654 0
M  V30 1078 C 112.377 1.84881 3.27866 0
M  V30 1079 C 111.524 1.91329 2.0072 0
M  V30 1080 H 114.475 1.38478 0.77522 0
M  V30 1081 H 114.496 1.5078 3.4935 0
M  V30 1082 H 114.008 3.00712 2.45345 0
M  V30 1083 H 112.109 0.840182 3.63004 0
M  V30 1084 H 112.222 2.6951 3.96107 0
M  V30 1085 H 110.586 1.35174 2.15871 0
M  V30 1086 H 111.369 2.96661 1.72764 0
M  V30 1087 N 113.814 -1.1601 1.06675 0
M  V30 1088 C 115.062 -1.86264 0.784229 0
M  V30 1089 C 115.383 -1.82328 -0.691488 0
M  V30 1090 O 114.653 -1.25947 -1.50047 0
M  V30 1091 H 113.233 -0.689621 0.28711 0
M  V30 1092 H 115.895 -1.40664 1.34906 0
M  V30 1093 H 114.991 -2.91595 1.11259 0
M  V30 1094 N 115.292 -0.849877 -1.32721 0
M  V30 1095 C 116.541 -0.447175 -1.96681 0
M  V30 1096 C 116.854 1.00135 -1.68025 0
M  V30 1097 O 118.06 1.50926 -2.25685 0
M  V30 1098 C 116.516 -0.7487 -3.52026 0
M  V30 1099 C 116.124 -2.21264 -3.89546 0
M  V30 1100 C 117.868 -0.413487 -4.22481 0
M  V30 1101 C 115.775 -2.45763 -5.37917 0
M  V30 1102 H 114.705 -0.163486 -0.736063 0
M  V30 1103 H 117.356 -1.03999 -1.51183 0
M  V30 1104 H 115.738 -0.0853727 -3.95908 0
M  V30 1105 H 116.912 -2.91736 -3.56689 0
M  V30 1106 H 115.227 -2.5119 -3.32103 0
M  V30 1107 H 117.824 -0.574017 -5.3161 0
M  V30 1108 H 118.167 0.644492 -4.11281 0
M  V30 1109 H 118.7 -1.03251 -3.84167 0
M  V30 1110 H 115.439 -3.50168 -5.54132 0
M  V30 1111 H 114.959 -1.79864 -5.72197 0
M  V30 1112 H 116.638 -2.29471 -6.0494 0
M  V30 1113 N 116.77 1.45427 -0.607355 0
M  V30 1114 C 118.019 2.01452 -0.100036 0
M  V30 1115 C 118.332 1.48159 1.27704 0
M  V30 1116 O 119.538 1.96159 1.87707 0
M  V30 1117 C 117.994 3.59672 -0.128158 0
M  V30 1118 C 117.602 4.21962 -1.50507 0
M  V30 1119 C 119.346 4.23262 0.323932 0
M  V30 1120 C 117.253 5.72333 -1.48959 0
M  V30 1121 H 116.183 0.75325 -0.0336299 0
M  V30 1122 H 118.834 1.66901 -0.76265 0
M  V30 1123 H 117.216 3.91411 0.601105 0
M  V30 1124 H 118.39 4.01796 -2.25602 0
M  V30 1125 H 116.705 3.70565 -1.89923 0
M  V30 1126 H 119.302 5.33522 0.354691 0
M  V30 1127 H 119.645 3.93921 1.34656 0
M  V30 1128 H 120.178 3.96239 -0.352056 0
M  V30 1129 H 116.917 6.06373 -2.48981 0
M  V30 1130 H 116.437 5.94691 -0.781214 0
M  V30 1131 H 118.116 6.35525 -1.21313 0
M  V30 1132 N 118.248 0.346503 1.53744 0
M  V30 1133 C 119.659 -0.136779 1.86198 0
M  V30 1134 C 120.01 -1.49749 1.26766 0
M  V30 1135 O 119.135 -2.08417 0.582355 0
M  V30 1136 C 119.73 -0.254966 3.37839 0
M  V30 1137 C 118.289 -0.682482 3.70161 0
M  V30 1138 C 117.436 0.181981 2.76702 0
M  V30 1139 H 120.387 0.565994 1.48264 0
M  V30 1140 H 120.408 -1.08195 3.64793 0
M  V30 1141 H 119.92 0.735526 3.81066 0
M  V30 1142 H 118.021 -1.68189 3.3248 0
M  V30 1143 H 118.134 -0.470326 4.76786 0
M  V30 1144 H 116.498 -0.34615 2.52337 0
M  V30 1145 H 117.281 1.16966 3.2276 0
M  V30 1146 N 119.726 -1.57421 0.075193 0
M  V30 1147 C 121.137 -1.81021 -0.456964 0
M  V30 1148 C 121.488 -0.98936 -1.69429 0
M  V30 1149 O 120.613 -0.212865 -2.15351 0
M  V30 1150 C 121.208 -3.28329 -0.83581 0
M  V30 1151 C 119.767 -3.52764 -1.31281 0
M  V30 1152 C 118.914 -2.75676 -0.299648 0
M  V30 1153 H 121.865 -1.55822 0.300856 0
M  V30 1154 H 121.886 -3.40564 -1.69696 0
M  V30 1155 H 121.398 -3.88046 0.0649238 0
M  V30 1156 H 119.499 -2.98355 -2.23193 0
M  V30 1157 H 119.612 -4.61451 -1.28839 0
M  V30 1158 H 117.976 -2.42538 -0.777641 0
M  V30 1159 H 118.759 -3.38132 0.593417 0
M  V30 1160 N 121.204 0.198386 -1.56346 0
M  V30 1161 C 122.167 1.22952 -1.93431 0
M  V30 1162 C 123.167 1.38611 -0.815092 0
M  V30 1163 O 124.357 1.36479 -1.08255 0
M  V30 1164 C 121.489 2.59946 -2.20546 0
M  V30 1165 H 122.682 0.912626 -2.85677 0
M  V30 1166 H 120.235 0.43977 -1.49986 0
M  V30 1167 H 120.97 2.96696 -1.30927 0
M  V30 1168 H 120.755 2.49953 -3.02102 0
M  V30 1169 H 122.245 3.3431 -2.50253 0
M  V30 1170 N 122.682 1.50554 0.465978 0
M  V30 1171 C 123.959 1.5232 1.22712 0
M  V30 1172 C 124.339 0.270807 2.09356 0
M  V30 1173 O 123.687 -0.745541 2.15995 0
M  V30 1174 C 123.897 2.82175 2.05374 0
M  V30 1175 C 125.245 3.33033 2.6339 0
M  V30 1176 O 126.269 2.83531 2.15612 0
M  V30 1177 O 125.128 4.19336 3.50456 0
M  V30 1178 H 122.222 0.611183 0.557122 0
M  V30 1179 H 124.768 1.62847 0.477381 0
M  V30 1180 H 123.54 3.64797 1.41558 0
M  V30 1181 H 123.163 2.74675 2.87471 0
M  V30 1182 N 124.16 -0.719506 1.40217 0
M  V30 1183 C 125.11 -1.8251 1.36653 0
M  V30 1184 C 126.094 -1.59028 0.244732 0
M  V30 1185 O 127.286 -1.70268 0.483524 0
M  V30 1186 C 124.415 -3.20599 1.22763 0
M  V30 1187 C 123.501 -3.49858 2.39708 0
M  V30 1188 N 123.892 -3.49957 3.6519 0
M  V30 1189 C 122.19 -3.80297 2.33002 0
M  V30 1190 C 122.891 -3.77449 4.42614 0
M  V30 1191 N 121.867 -3.96002 3.72402 0
M  V30 1192 H 125.669 -1.80914 2.31619 0
M  V30 1193 H 123.183 -0.918455 1.33933 0
M  V30 1194 H 125.18 -3.99766 1.18292 0
M  V30 1195 H 123.84 -3.23424 0.287614 0
M  V30 1196 H 124.851 -3.309 3.98404 0
M  V30 1197 H 121.528 -3.90635 1.47346 0
M  V30 1198 H 122.918 -3.83863 5.51451 0
M  V30 1199 N 125.638 -1.25649 -0.95132 0
M  V30 1200 C 127.049 -1.09654 -1.51106 0
M  V30 1201 C 127.4 0.326615 -1.93462 0
M  V30 1202 O 126.525 1.21697 -1.78938 0
M  V30 1203 C 127.12 -1.98437 -2.74605 0
M  V30 1204 C 125.679 -1.86618 -3.2688 0
M  V30 1205 C 124.826 -1.9239 -1.99703 0
M  V30 1206 H 127.777 -1.38887 -0.767865 0
M  V30 1207 H 127.798 -1.5263 -3.48546 0
M  V30 1208 H 127.31 -3.02009 -2.43746 0
M  V30 1209 H 125.411 -0.859421 -3.62553 0
M  V30 1210 H 125.524 -2.71607 -3.94673 0
M  V30 1211 H 123.888 -1.36317 -2.15151 0
M  V30 1212 H 124.671 -2.97573 -1.71188 0
M  V30 1213 N 127.117 1.15442 -1.07289 0
M  V30 1214 C 128.342 1.90638 -0.816828 0
M  V30 1215 C 128.767 1.77445 0.624083 0
M  V30 1216 O 128.125 1.10671 1.43602 0
M  V30 1217 C 128.173 3.39008 -1.22906 0
M  V30 1218 O 127.277 4.10701 -0.373975 0
M  V30 1219 H 126.618 0.593555 -0.297638 0
M  V30 1220 H 129.148 1.46198 -1.43134 0
M  V30 1221 H 129.158 3.89801 -1.20497 0
M  V30 1222 H 127.833 3.47929 -2.27856 0
M  V30 1223 H 126.41 3.70046 -0.460499 0
M  V30 1224 N 128.595 0.856903 1.32268 0
M  V30 1225 C 129.843 0.460474 1.96784 0
M  V30 1226 C 130.164 -0.987701 1.68135 0
M  V30 1227 O 129.434 -1.69058 0.989765 0
M  V30 1228 H 128.014 0.167289 0.728027 0
M  V30 1229 H 130.676 1.09383 1.61312 0
M  V30 1230 H 129.772 0.60739 3.06133 0
M  V30 1231 N 130.073 -1.45103 0.615059 0
M  V30 1232 C 131.303 -2.06254 0.119596 0
M  V30 1233 C 131.711 -1.4591 -1.20445 0
M  V30 1234 O 131.054 -0.570384 -1.7462 0
M  V30 1235 C 131.116 -3.59396 -0.0865591 0
M  V30 1236 C 130.78 -4.42116 1.15683 0
M  V30 1237 C 131.777 -4.7662 2.07676 0
M  V30 1238 C 129.462 -4.82749 1.38775 0
M  V30 1239 C 131.456 -5.50622 3.21082 0
M  V30 1240 C 129.143 -5.56504 2.52481 0
M  V30 1241 C 130.141 -5.90358 3.43463 0
M  V30 1242 O 129.829 -6.62615 4.55189 0
M  V30 1243 H 129.561 -0.672423 0.0694512 0
M  V30 1244 H 132.115 -1.87219 0.844885 0
M  V30 1245 H 130.345 -3.76859 -0.866823 0
M  V30 1246 H 132.034 -4.02365 -0.534555 0
M  V30 1247 H 132.8 -4.4578 1.91063 0
M  V30 1248 H 128.679 -4.55829 0.688545 0
M  V30 1249 H 132.223 -5.76965 3.92119 0
M  V30 1250 H 128.12 -5.86759 2.69043 0
M  V30 1251 H 128.888 -6.81071 4.53966 0
M  V30 1252 N 131.551 -0.354651 -1.53558 0
M  V30 1253 C 132.799 0.237972 -2.00694 0
M  V30 1254 C 133.12 1.50173 -1.24391 0
M  V30 1255 O 132.39 1.92673 -0.354135 0
M  V30 1256 H 130.97 0.0909256 -0.741446 0
M  V30 1257 H 133.632 -0.478368 -1.88938 0
M  V30 1258 H 132.728 0.47264 -3.085 0
M  V30 1259 N 133.029 1.57378 -0.0835403 0
M  V30 1260 C 133.992 2.12252 0.864959 0
M  V30 1261 C 134.992 1.04916 1.21858 0
M  V30 1262 O 136.182 1.30853 1.14991 0
M  V30 1263 C 133.314 2.63358 2.16461 0
M  V30 1264 H 134.507 2.97371 0.388676 0
M  V30 1265 H 132.06 1.55423 0.165317 0
M  V30 1266 H 132.795 1.81727 2.686 0
M  V30 1267 H 132.58 3.41826 1.92087 0
M  V30 1268 H 134.07 3.05847 2.84337 0
M  V30 1269 N 134.507 -0.190092 1.56449 0
M  V30 1270 C 135.47 -1.21925 1.9408 0
M  V30 1271 C 136.47 -1.38176 0.822431 0
M  V30 1272 O 137.66 -1.35903 1.08977 0
M  V30 1273 C 134.792 -2.58773 2.21922 0
M  V30 1274 H 135.985 -0.897464 2.86157 0
M  V30 1275 H 133.538 -0.43181 1.50217 0
M  V30 1276 H 134.273 -2.95998 1.32499 0
M  V30 1277 H 134.058 -2.48348 3.03424 0
M  V30 1278 H 135.548 -3.32978 2.52022 0
M  V30 1279 N 135.985 -1.50799 -0.457987 0
M  V30 1280 C 136.915 -1.73553 -1.5621 0
M  V30 1281 C 137.896 -0.584774 -1.59732 0
M  V30 1282 O 139.081 -0.825314 -1.7579 0
M  V30 1283 C 136.211 -1.84169 -2.94447 0
M  V30 1284 C 135.165 -2.99461 -3.0579 0
M  V30 1285 C 134.491 -2.95235 -4.45803 0
M  V30 1286 C 135.791 -4.39766 -2.81786 0
M  V30 1287 H 137.485 -2.66 -1.37421 0
M  V30 1288 H 135.031 -1.28002 -0.659662 0
M  V30 1289 H 136.984 -1.98672 -3.71628 0
M  V30 1290 H 135.708 -0.883545 -3.14422 0
M  V30 1291 H 134.367 -2.8463 -2.31044 0
M  V30 1292 H 134.015 -1.97239 -4.62715 0
M  V30 1293 H 133.715 -3.72642 -4.54326 0
M  V30 1294 H 135.239 -3.11803 -5.24987 0
M  V30 1295 H 136.653 -4.55054 -3.4871 0
M  V30 1296 H 135.05 -5.18722 -3.0174 0
M  V30 1297 H 136.12 -4.51229 -1.7754 0
M  V30 1298 N 137.463 0.71206 -1.40597 0
M  V30 1299 C 138.74 1.46536 -1.29563 0
M  V30 1300 C 139.12 2.10931 0.0844217 0
M  V30 1301 O 138.468 2.00418 1.0975 0
M  V30 1302 C 138.678 2.49821 -2.43701 0
M  V30 1303 C 140.026 3.15551 -2.841 0
M  V30 1304 O 141.05 2.60142 -2.4332 0
M  V30 1305 O 139.909 4.15867 -3.54566 0
M  V30 1306 H 137.003 0.651801 -0.509004 0
M  V30 1307 H 139.549 0.743935 -1.52524 0
M  V30 1308 H 138.321 2.00778 -3.35863 0
M  V30 1309 H 137.944 3.29495 -2.22528 0
M  V30 1310 N 138.941 1.26152 0.944643 0
M  V30 1311 C 140.189 1.11271 1.6871 0
M  V30 1312 C 140.51 -0.345166 1.91921 0
M  V30 1313 O 139.78 -1.24387 1.51343 0
M  V30 1314 H 138.36 0.408783 0.625224 0
M  V30 1315 H 141.022 1.58427 1.1352 0
M  V30 1316 H 140.118 1.62879 2.66227 0
M  V30 1317 N 140.419 -1.14872 1.07899 0
M  V30 1318 C 141.667 -1.85422 0.803941 0
M  V30 1319 C 141.988 -1.83051 -0.67211 0
M  V30 1320 O 141.258 -1.27532 -1.48703 0
M  V30 1321 H 139.838 -0.686537 0.294408 0
M  V30 1322 H 142.5 -1.39226 1.3639 0
M  V30 1323 H 141.596 -2.90399 1.14346 0
M  V30 1324 N 141.898 -0.863906 -1.31812 0
M  V30 1325 C 143.309 -0.52522 -1.7916 0
M  V30 1326 C 143.66 0.957518 -1.71248 0
M  V30 1327 O 142.785 1.74734 -1.27659 0
M  V30 1328 C 143.38 -0.9466 -3.25307 0
M  V30 1329 C 141.939 -0.659668 -3.70574 0
M  V30 1330 C 141.086 -1.14126 -2.52726 0
M  V30 1331 H 144.037 -1.05022 -1.1898 0
M  V30 1332 H 144.058 -0.266766 -3.79564 0
M  V30 1333 H 143.57 -2.02579 -3.31034 0
M  V30 1334 H 141.671 0.408416 -3.70355 0
M  V30 1335 H 141.784 -1.23245 -4.62977 0
M  V30 1336 H 140.148 -0.561216 -2.4844 0
M  V30 1337 H 140.931 -2.22775 -2.61201 0
M  V30 1338 N 143.376 1.44774 -0.622745 0
M  V30 1339 C 144.339 2.29069 0.0774015 0
M  V30 1340 C 145.339 1.4059 0.780461 0
M  V30 1341 O 146.529 1.62551 0.626322 0
M  V30 1342 C 143.661 3.21974 1.12006 0
M  V30 1343 H 144.854 2.92459 -0.663901 0
M  V30 1344 H 142.407 1.51548 -0.382486 0
M  V30 1345 H 143.142 2.63417 1.89162 0
M  V30 1346 H 142.927 3.87168 0.619951 0
M  V30 1347 H 144.417 3.85318 1.60995 0
M  V30 1348 N 144.854 0.36279 1.53368 0
M  V30 1349 C 146.102 -0.227326 2.00817 0
M  V30 1350 C 146.423 -1.49511 1.25186 0
M  V30 1351 O 145.693 -1.92482 0.364348 0
M  V30 1352 H 144.273 -0.0869923 0.741917 0
M  V30 1353 H 146.935 0.488381 1.88682 0
M  V30 1354 H 146.031 -0.456273 3.08747 0
M  V30 1355 N 146.332 -1.57332 0.0918853 0
M  V30 1356 C 147.562 -1.98286 -0.580205 0
M  V30 1357 C 147.97 -0.969713 -1.6246 0
M  V30 1358 O 147.313 0.0493501 -1.83634 0
M  V30 1359 C 147.375 -3.35603 -1.28882 0
M  V30 1360 C 147.039 -4.55285 -0.395559 0
M  V30 1361 C 148.036 -5.18687 0.355002 0
M  V30 1362 C 145.721 -5.01314 -0.314556 0
M  V30 1363 C 147.715 -6.26484 1.17458 0
M  V30 1364 C 145.402 -6.08979 0.508677 0
M  V30 1365 C 146.4 -6.71429 1.2519 0
M  V30 1366 O 146.088 -7.77018 2.06151 0
M  V30 1367 H 145.82 -0.656678 -0.160466 0
M  V30 1368 H 148.374 -2.04721 0.16688 0
M  V30 1369 H 146.604 -3.25842 -2.08241 0
M  V30 1370 H 148.293 -3.61026 -1.85512 0
M  V30 1371 H 149.059 -4.84058 0.302134 0
M  V30 1372 H 144.938 -4.5247 -0.882697 0
M  V30 1373 H 148.482 -6.75159 1.75518 0
M  V30 1374 H 144.379 -6.4304 0.563037 0
M  V30 1375 H 145.147 -7.93991 1.98799 0
M  V30 1376 N 147.81 0.181792 -1.56548 0
M  V30 1377 C 149.057 0.900097 -1.81396 0
M  V30 1378 C 149.385 1.82695 -0.667281 0
M  V30 1379 O 148.64 1.92614 0.346146 0
M  V30 1380 C 148.939 1.73728 -3.12335 0
M  V30 1381 C 148.605 0.960255 -4.40556 0
M  V30 1382 C 147.267 0.745766 -4.75386 0
M  V30 1383 C 149.619 0.414477 -5.19549 0
M  V30 1384 C 146.947 -0.0257694 -5.86694 0
M  V30 1385 C 149.299 -0.343916 -6.31664 0
M  V30 1386 C 147.963 -0.569301 -6.65068 0
M  V30 1387 H 147.233 0.329369 -0.663775 0
M  V30 1388 H 149.88 0.165647 -1.90782 0
M  V30 1389 H 148.185 2.54081 -2.98245 0
M  V30 1390 H 149.882 2.29591 -3.28769 0
M  V30 1391 H 146.472 1.13746 -4.13231 0
M  V30 1392 H 150.656 0.567554 -4.93044 0
M  V30 1393 H 145.912 -0.210233 -6.11038 0
M  V30 1394 H 150.086 -0.774133 -6.92084 0
M  V30 1395 H 147.713 -1.16903 -7.51158 0
M  V30 1396 N 149.288 1.51039 0.449983 0
M  V30 1397 C 150.218 1.74379 1.55288 0
M  V30 1398 C 151.199 0.593236 1.5942 0
M  V30 1399 O 152.384 0.834625 1.7535 0
M  V30 1400 C 149.514 1.85728 2.93466 0
M  V30 1401 C 148.468 3.01078 3.04197 0
M  V30 1402 C 147.794 2.97595 4.44231 0
M  V30 1403 C 149.094 4.41254 2.7945 0
M  V30 1404 H 150.788 2.66725 1.36008 0
M  V30 1405 H 148.334 1.2835 0.652864 0
M  V30 1406 H 150.287 2.0064 3.70569 0
M  V30 1407 H 149.011 0.900207 3.13949 0
M  V30 1408 H 147.67 2.85851 2.29531 0
M  V30 1409 H 147.318 1.99691 4.61663 0
M  V30 1410 H 147.018 3.75046 4.52343 0
M  V30 1411 H 148.542 3.14583 5.23326 0
M  V30 1412 H 149.956 4.56897 3.46292 0
M  V30 1413 H 148.353 5.20315 2.98985 0
M  V30 1414 H 149.423 4.52164 1.75144 0
M  V30 1415 N 150.766 -0.704594 1.40972 0
M  V30 1416 C 151.991 -1.49858 1.43378 0
M  V30 1417 C 152.416 -1.88061 0.038184 0
M  V30 1418 O 151.774 -1.5402 -0.956425 0
M  V30 1419 C 151.822 -2.74333 2.34038 0
M  V30 1420 O 150.926 -3.7147 1.7912 0
M  V30 1421 H 150.267 -0.45139 0.486974 0
M  V30 1422 H 152.797 -0.866832 1.8533 0
M  V30 1423 H 152.807 -3.22741 2.49604 0
M  V30 1424 H 151.482 -2.45863 3.35446 0
M  V30 1425 H 150.059 -3.30363 1.72958 0
M  V30 1426 N 152.244 -1.26651 -0.937939 0
M  V30 1427 C 153.469 -1.15279 -1.72411 0
M  V30 1428 C 153.894 0.287866 -1.85884 0
M  V30 1429 O 153.252 1.20855 -1.35143 0
M  V30 1430 C 153.3 -1.83028 -3.10698 0
M  V30 1431 O 152.404 -1.12128 -3.96864 0
M  V30 1432 H 151.745 -0.401504 -0.528858 0
M  V30 1433 H 154.275 -1.67531 -1.1745 0
M  V30 1434 H 154.285 -1.89981 -3.6107 0
M  V30 1435 H 152.96 -2.87833 -3.00208 0
M  V30 1436 H 151.537 -1.13173 -3.55312 0
M  V30 1437 N 153.722 1.14298 -1.08507 0
M  V30 1438 C 154.97 1.84993 -0.813763 0
M  V30 1439 C 155.291 1.83405 0.662393 0
M  V30 1440 O 154.561 1.28319 1.48024 0
M  V30 1441 H 153.141 0.684966 -0.298045 0
M  V30 1442 H 155.803 1.385 -1.37126 0
M  V30 1443 H 154.899 2.89788 -1.15884 0
M  V30 1444 N 155.201 0.870884 1.31352 0
M  V30 1445 C 156.151 0.298889 2.26032 0
M  V30 1446 C 157.135 -0.564595 1.50669 0
M  V30 1447 O 158.327 -0.411323 1.72154 0
M  V30 1448 C 155.456 -0.497842 3.39671 0
M  V30 1449 C 154.542 0.378937 4.22404 0
M  V30 1450 N 154.933 1.47284 4.83881 0
M  V30 1451 C 153.231 0.171535 4.4567 0
M  V30 1452 C 153.932 2.01359 5.45738 0
M  V30 1453 N 152.908 1.31047 5.27568 0
M  V30 1454 H 156.71 1.13494 2.71102 0
M  V30 1455 H 154.224 0.718745 1.45629 0
M  V30 1456 H 156.221 -0.924155 4.06528 0
M  V30 1457 H 154.881 -1.33149 2.96144 0
M  V30 1458 H 155.892 1.85575 4.8351 0
M  V30 1459 H 152.569 -0.626091 4.12779 0
M  V30 1460 H 153.959 2.93143 6.0458 0
M  V30 1461 N 156.679 -1.44442 0.630414 0
M  V30 1462 C 157.907 -2.06414 0.141671 0
M  V30 1463 C 158.322 -1.47105 -1.18345 0
M  V30 1464 O 157.679 -0.593662 -1.72574 0
M  V30 1465 C 157.73 -3.61494 0.0199784 0
M  V30 1466 O 157.451 -4.18594 1.29269 0
M  V30 1467 C 158.952 -4.40499 -0.497544 0
M  V30 1468 H 156.172 -0.666292 0.0793452 0
M  V30 1469 H 158.716 -1.85323 0.864614 0
M  V30 1470 H 156.871 -3.8185 -0.653402 0
M  V30 1471 H 157.285 -5.12026 1.13707 0
M  V30 1472 H 158.759 -5.49433 -0.531708 0
M  V30 1473 H 159.236 -4.11895 -1.52445 0
M  V30 1474 H 159.842 -4.25061 0.142562 0
M  V30 1475 N 158.157 -0.370918 -1.53173 0
M  V30 1476 C 159.573 -0.0200818 -1.59587 0
M  V30 1477 C 159.773 1.46279 -1.38581 0
M  V30 1478 O 158.829 2.22506 -1.19363 0
M  V30 1479 C 160.142 -0.4808 -2.96831 0
M  V30 1480 C 161.69 -0.435477 -3.09956 0
M  V30 1481 C 162.165 -0.872092 -4.4962 0
M  V30 1482 N 163.656 -0.827364 -4.55751 0
M  V30 1483 C 164.391 -1.13683 -5.62018 0
M  V30 1484 N 163.887 -1.51584 -6.76014 0
M  V30 1485 N 165.68 -1.05927 -5.52029 0
M  V30 1486 H 157.831 -1.33652 -1.65079 0
M  V30 1487 H 160.094 -0.546634 -0.774529 0
M  V30 1488 H 159.8 -1.51577 -3.1736 0
M  V30 1489 H 159.674 0.129796 -3.76977 0
M  V30 1490 H 162.061 0.590371 -2.89134 0
M  V30 1491 H 162.142 -1.08164 -2.31806 0
M  V30 1492 H 161.786 -1.89608 -4.71181 0
M  V30 1493 H 161.716 -0.203127 -5.26208 0
M  V30 1494 H 164.207 -0.548216 -3.73902 0
M  V30 1495 H 164.52 -1.73609 -7.53047 0
M  V30 1496 H 162.865 -1.55454 -6.77391 0
M  V30 1497 H 166.056 -0.762321 -4.61851 0
M  V30 1498 H 166.229 -1.30378 -6.34749 0
M  V30 1499 N 159.635 1.57281 -0.100228 0
M  V30 1500 C 161.046 1.81725 0.428107 0
M  V30 1501 C 161.397 1.01619 1.67833 0
M  V30 1502 O 160.522 0.247098 2.14985 0
M  V30 1503 C 161.117 3.29617 0.78347 0
M  V30 1504 C 159.676 3.54808 1.25653 0
M  V30 1505 C 158.823 2.76118 0.255752 0
M  V30 1506 H 161.774 1.55324 -0.325608 0
M  V30 1507 H 161.795 3.4322 1.64256 0
M  V30 1508 H 161.307 3.87893 -0.12665 0
M  V30 1509 H 159.408 3.01868 2.18418 0
M  V30 1510 H 159.521 4.63443 1.21482 0
M  V30 1511 H 157.885 2.43745 0.738956 0
M  V30 1512 H 158.668 3.37145 -0.647136 0
M  V30 1513 N 161.113 -0.173488 1.56642 0
M  V30 1514 C 162.39 -0.917617 1.7274 0
M  V30 1515 C 162.77 -2.00484 0.661027 0
M  V30 1516 O 162.118 -2.26184 -0.32453 0
M  V30 1517 C 162.328 -1.48433 3.15862 0
M  V30 1518 C 163.676 -1.95809 3.76754 0
M  V30 1519 O 164.7 -1.58231 3.19126 0
M  V30 1520 O 163.559 -2.65024 4.77938 0
M  V30 1521 H 160.653 -0.431772 0.705338 0
M  V30 1522 H 163.199 -0.161487 1.6893 0
M  V30 1523 H 161.971 -0.701715 3.84957 0
M  V30 1524 H 161.594 -2.30471 3.23989 0
M  V30 1525 N 162.591 -1.51276 -0.441967 0
M  V30 1526 C 163.839 -1.63392 -1.18943 0
M  V30 1527 C 164.16 -0.350159 -1.9183 0
M  V30 1528 O 163.43 0.633784 -1.85364 0
M  V30 1529 H 162.01 -0.602164 -0.442049 0
M  V30 1530 H 164.672 -1.88186 -0.507165 0
M  V30 1531 H 163.768 -2.45934 -1.92154 0
M  V30 1532 N 164.069 0.697108 -1.41344 0
M  V30 1533 C 165.032 1.79281 -1.42797 0
M  V30 1534 C 166.032 1.57607 -0.318837 0
M  V30 1535 O 167.222 1.64309 -0.578642 0
M  V30 1536 C 164.354 3.17632 -1.23785 0
M  V30 1537 H 165.547 1.79385 -2.40335 0
M  V30 1538 H 163.1 0.904582 -1.27464 0
M  V30 1539 H 163.835 3.23167 -0.270814 0
M  V30 1540 H 163.62 3.34765 -2.04144 0
M  V30 1541 H 165.11 3.97617 -1.27633 0
M  V30 1542 N 165.547 1.27147 0.931209 0
M  V30 1543 C 166.958 1.12044 1.49342 0
M  V30 1544 C 167.309 -0.295795 1.93957 0
M  V30 1545 O 166.434 -1.18835 1.80852 0
M  V30 1546 C 167.029 2.02781 2.71414 0
M  V30 1547 C 165.588 1.91794 3.2387 0
M  V30 1548 C 164.735 1.95543 1.96617 0
M  V30 1549 H 167.686 1.40091 0.745672 0
M  V30 1550 H 167.707 1.58156 3.46074 0
M  V30 1551 H 167.219 3.05848 2.38911 0
M  V30 1552 H 165.32 0.916992 3.6114 0
M  V30 1553 H 165.433 2.77852 3.90302 0
M  V30 1554 H 163.797 1.39722 2.12955 0
M  V30 1555 H 164.58 3.00259 1.66432 0
M  V30 1556 N 167.025 -1.13721 1.09112 0
M  V30 1557 C 167.988 -2.17222 0.731241 0
M  V30 1558 C 168.988 -1.59035 -0.237566 0
M  V30 1559 O 170.178 -1.74192 -0.0161704 0
M  V30 1560 C 167.31 -3.40804 0.0808443 0
M  V30 1561 H 168.503 -2.50573 1.64783 0
M  V30 1562 H 166.056 -1.28493 0.889897 0
M  V30 1563 H 166.791 -3.1304 -0.847127 0
M  V30 1564 H 166.576 -3.84306 0.777896 0
M  V30 1565 H 168.066 -4.1731 -0.155657 0
M  V30 1566 N 168.503 -0.877838 -1.30888 0
M  V30 1567 C 169.433 -0.35534 -2.3078 0
M  V30 1568 C 170.414 0.557994 -1.60687 0
M  V30 1569 O 171.599 0.473355 -1.88343 0
M  V30 1570 C 168.729 0.437221 -3.44537 0
M  V30 1571 C 167.683 -0.383715 -4.26276 0
M  V30 1572 C 167.009 0.535014 -5.32017 0
M  V30 1573 C 168.309 -1.62201 -4.96476 0
M  V30 1574 H 170.003 -1.19007 -2.74732 0
M  V30 1575 H 167.549 -0.573698 -1.32078 0
M  V30 1576 H 169.502 0.813334 -4.13477 0
M  V30 1577 H 168.226 1.30553 -2.99372 0
M  V30 1578 H 166.885 -0.741874 -3.59015 0
M  V30 1579 H 166.533 1.40083 -4.831 0
M  V30 1580 H 166.233 -0.0104211 -5.87599 0
M  V30 1581 H 167.757 0.907799 -6.03814 0
M  V30 1582 H 169.171 -1.31689 -5.5797 0
M  V30 1583 H 167.568 -2.10711 -5.61891 0
M  V30 1584 H 168.638 -2.37044 -4.23011 0
M  V30 1585 N 169.982 1.44106 -0.638065 0
M  V30 1586 C 170.892 2.34513 0.0637334 0
M  V30 1587 C 171.908 1.53018 0.828346 0
M  V30 1588 O 173.084 1.85723 0.779036 0
M  V30 1589 C 170.149 3.31095 1.02844 0
M  V30 1590 C 169.21 4.28497 0.26244 0
M  V30 1591 C 168.443 5.20465 1.1812 0
M  V30 1592 O 168.666 5.16514 2.42011 0
M  V30 1593 O 167.6 5.98251 0.661774 0
M  V30 1594 H 171.426 2.95989 -0.68003 0
M  V30 1595 H 169.011 1.43994 -0.398252 0
M  V30 1596 H 170.893 3.90526 1.58327 0
M  V30 1597 H 169.568 2.72144 1.7527 0
M  V30 1598 H 168.475 3.72592 -0.335602 0
M  V30 1599 H 169.808 4.90388 -0.421936 0
M  V30 1600 N 171.46 0.379036 1.52974 0
M  V30 1601 C 172.685 -0.209353 2.06341 0
M  V30 1602 C 173.11 -1.40583 1.24972 0
M  V30 1603 O 172.468 -1.79246 0.272155 0
M  V30 1604 C 172.516 -0.567786 3.56102 0
M  V30 1605 O 171.62 -1.66318 3.77375 0
M  V30 1606 H 170.961 -0.0272919 0.663439 0
M  V30 1607 H 173.491 0.543536 1.97248 0
M  V30 1608 H 173.501 -0.835003 3.99364 0
M  V30 1609 H 172.176 0.307013 4.14765 0
M  V30 1610 H 170.753 -1.39048 3.46006 0
M  V30 1611 N 172.938 -1.57226 0.108567 0
M  V30 1612 C 174.349 -1.8195 -0.418464 0
M  V30 1613 C 174.7 -1.02508 -1.67292 0
M  V30 1614 O 173.825 -0.258496 -2.14851 0
M  V30 1615 C 174.42 -3.30028 -0.765979 0
M  V30 1616 C 172.979 -3.55469 -1.23769 0
M  V30 1617 C 172.126 -2.7625 -0.241106 0
M  V30 1618 H 175.077 -1.55149 0.33384 0
M  V30 1619 H 175.098 -3.44086 -1.62434 0
M  V30 1620 H 174.61 -3.87821 0.147219 0
M  V30 1621 H 172.711 -3.03022 -2.16814 0
M  V30 1622 H 172.824 -4.6408 -1.19022 0
M  V30 1623 H 171.188 -2.44133 -0.72602 0
M  V30 1624 H 171.971 -3.36797 0.665007 0
M  V30 1625 N 174.416 0.165178 -1.56732 0
M  V30 1626 C 175.832 0.517174 -1.50988 0
M  V30 1627 C 176.032 1.84331 -0.813894 0
M  V30 1628 O 175.088 2.49672 -0.37682 0
M  V30 1629 C 176.401 0.544261 -2.95733 0
M  V30 1630 C 177.949 0.631039 -3.06573 0
M  V30 1631 C 178.424 0.68896 -4.52788 0
M  V30 1632 N 179.915 0.751683 -4.5706 0
M  V30 1633 C 180.65 0.817177 -5.67547 0
M  V30 1634 N 180.146 0.843129 -6.8765 0
M  V30 1635 N 181.939 0.856668 -5.55534 0
M  V30 1636 H 174.09 -0.704318 -2.00382 0
M  V30 1637 H 176.353 -0.254687 -0.913148 0
M  V30 1638 H 176.059 -0.361607 -3.49836 0
M  V30 1639 H 175.933 1.3886 -3.5071 0
M  V30 1640 H 178.32 1.52733 -2.52501 0
M  V30 1641 H 178.401 -0.240095 -2.54671 0
M  V30 1642 H 178.045 -0.2031 -5.07494 0
M  V30 1643 H 177.975 1.57633 -5.02454 0
M  V30 1644 H 180.466 0.739661 -3.70591 0
M  V30 1645 H 180.779 0.894448 -7.67606 0
M  V30 1646 H 179.124 0.811304 -6.90248 0
M  V30 1647 H 182.315 0.833437 -4.60621 0
M  V30 1648 H 182.488 0.904247 -6.4166 0
M  V30 1649 N 175.894 1.51508 0.433938 0
M  V30 1650 C 177.143 1.63578 1.18005 0
M  V30 1651 C 177.456 0.359514 1.92268 0
M  V30 1652 O 178.662 0.359632 2.69108 0
M  V30 1653 C 177.118 2.88901 2.14626 0
M  V30 1654 C 176.726 4.23544 1.45995 0
M  V30 1655 C 178.47 3.10328 2.89649 0
M  V30 1656 C 176.377 5.40014 2.4112 0
M  V30 1657 H 175.307 0.609277 0.444182 0
M  V30 1658 H 177.958 1.77978 0.446773 0
M  V30 1659 H 176.34 2.68142 2.91403 0
M  V30 1660 H 177.514 4.54696 0.747532 0
M  V30 1661 H 175.829 4.08021 0.831115 0
M  V30 1662 H 178.426 3.94518 3.60915 0
M  V30 1663 H 178.769 2.23544 3.51189 0
M  V30 1664 H 179.302 3.31443 2.19978 0
M  V30 1665 H 176.041 6.29068 1.84264 0
M  V30 1666 H 175.561 5.13233 3.10406 0
M  V30 1667 H 177.24 5.72099 3.02177 0
M  V30 1668 N 177.372 -0.689602 1.41712 0
M  V30 1669 C 178.282 -1.83314 1.46401 0
M  V30 1670 C 179.298 -1.7036 0.35405 0
M  V30 1671 O 180.474 -1.92171 0.602692 0
M  V30 1672 C 177.539 -3.19344 1.34982 0
M  V30 1673 C 176.6 -3.44363 2.56344 0
M  V30 1674 C 175.833 -4.73904 2.45461 0
M  V30 1675 O 176.056 -5.508 1.48241 0
M  V30 1676 O 174.99 -4.99839 3.35328 0
M  V30 1677 H 178.816 -1.82314 2.42889 0
M  V30 1678 H 176.401 -0.843438 1.23315 0
M  V30 1679 H 178.283 -4.00547 1.3092 0
M  V30 1680 H 176.958 -3.21014 0.41612 0
M  V30 1681 H 175.865 -2.63067 2.65982 0
M  V30 1682 H 177.198 -3.47512 3.48563 0
M  V30 1683 N 178.85 -1.27639 -0.924453 0
M  V30 1684 C 180.099 -1.13549 -1.66702 0
M  V30 1685 C 180.412 0.317487 -1.93006 0
M  V30 1686 O 181.618 0.579333 -2.65247 0
M  V30 1687 C 180.074 -1.98426 -3.00259 0
M  V30 1688 C 179.682 -3.484 -2.81641 0
M  V30 1689 C 181.426 -1.92993 -3.78092 0
M  V30 1690 C 179.333 -4.25464 -4.10773 0
M  V30 1691 H 178.263 -0.421351 -0.625283 0
M  V30 1692 H 180.914 -1.52085 -1.02676 0
M  V30 1693 H 179.296 -1.52736 -3.6536 0
M  V30 1694 H 180.47 -4.01973 -2.25287 0
M  V30 1695 H 178.785 -3.55245 -2.17232 0
M  V30 1696 H 181.382 -2.47844 -4.7379 0
M  V30 1697 H 181.725 -0.904281 -4.0636 0
M  V30 1698 H 182.258 -2.36595 -3.19793 0
M  V30 1699 H 178.997 -5.28566 -3.87683 0
M  V30 1700 H 178.517 -3.76667 -4.66779 0
M  V30 1701 H 180.196 -4.34812 -4.79111 0
M  V30 1702 N 180.328 1.1314 -1.09713 0
M  V30 1703 C 181.556 1.88321 -0.856898 0
M  V30 1704 C 181.971 1.79276 0.592073 0
M  V30 1705 O 181.328 1.16142 1.40774 0
M  V30 1706 C 181.379 3.37812 -1.28706 0
M  V30 1707 O 181.1 3.46627 -2.67921 0
M  V30 1708 C 182.601 4.29952 -1.07964 0
M  V30 1709 H 179.821 0.596094 -0.308079 0
M  V30 1710 H 182.365 1.43205 -1.45988 0
M  V30 1711 H 180.52 3.805 -0.727912 0
M  V30 1712 H 180.934 4.39579 -2.8613 0
M  V30 1713 H 182.408 5.33159 -1.42986 0
M  V30 1714 H 182.885 4.39196 -0.0176577 0
M  V30 1715 H 183.491 3.93036 -1.62489 0
M  V30 1716 N 181.806 0.884767 1.30421 0
M  V30 1717 C 183.031 0.517288 2.00845 0
M  V30 1718 C 183.456 -0.886779 1.65885 0
M  V30 1719 O 182.814 -1.58768 0.875354 0
M  V30 1720 C 182.862 0.698994 3.5376 0
M  V30 1721 O 181.966 -0.255208 4.1161 0
M  V30 1722 H 181.307 0.203872 0.631927 0
M  V30 1723 H 183.837 1.19225 1.66272 0
M  V30 1724 H 183.847 0.597912 4.03595 0
M  V30 1725 H 182.522 1.72271 3.78544 0
M  V30 1726 H 181.099 -0.10784 3.72744 0
M  V30 1727 N 183.284 -1.43765 0.645699 0
M  V30 1728 C 184.524 -2.03776 0.159542 0
M  V30 1729 C 184.888 -1.49792 -1.2011 0
M  V30 1730 O 186.089 -2.01398 -1.78023 0
M  V30 1731 C 184.36 -3.57036 0.161251 0
M  V30 1732 S 185.919 -4.3804 -0.258159 0
M  V30 1733 H 182.737 -0.707717 0.0682454 0
M  V30 1734 H 185.339 -1.75941 0.852352 0
M  V30 1735 H 184.043 -3.9383 1.15439 0
M  V30 1736 H 183.574 -3.89503 -0.552339 0
M  V30 1737 H 185.589 -4.7302 -1.49889 0
M  V30 1738 N 184.763 -0.387143 -1.52771 0
M  V30 1739 C 185.693 0.440551 -2.29306 0
M  V30 1740 C 186.674 1.06535 -1.32606 0
M  V30 1741 O 187.859 1.07853 -1.61497 0
M  V30 1742 C 184.989 1.56919 -3.09829 0
M  V30 1743 C 183.943 1.07054 -4.14395 0
M  V30 1744 C 183.269 2.29109 -4.83129 0
M  V30 1745 C 184.569 0.140015 -5.22112 0
M  V30 1746 H 186.263 -0.198026 -2.98744 0
M  V30 1747 H 183.809 -0.09668 -1.43675 0
M  V30 1748 H 185.762 2.15503 -3.62128 0
M  V30 1749 H 184.486 2.23532 -2.3812 0
M  V30 1750 H 183.145 0.507247 -3.63074 0
M  V30 1751 H 182.793 2.94227 -4.0797 0
M  V30 1752 H 182.493 1.96406 -5.53804 0
M  V30 1753 H 184.017 2.88339 -5.38231 0
M  V30 1754 H 185.431 0.633978 -5.69784 0
M  V30 1755 H 183.828 -0.0971485 -6.00021 0
M  V30 1756 H 184.898 -0.811711 -4.78058 0
M  V30 1757 N 186.241 1.57166 -0.116904 0
M  V30 1758 C 187.489 1.94737 0.540533 0
M  V30 1759 C 187.81 1.00096 1.67349 0
M  V30 1760 O 187.08 0.0568854 1.95817 0
M  V30 1761 H 185.66 0.718981 0.202669 0
M  V30 1762 H 188.322 1.94017 -0.185353 0
M  V30 1763 H 187.418 2.97719 0.936483 0
M  V30 1764 N 187.719 -0.156864 1.56817 0
M  V30 1765 C 188.649 -1.19589 2.00551 0
M  V30 1766 C 189.63 -1.4536 0.883426 0
M  V30 1767 O 190.815 -1.56449 1.15054 0
M  V30 1768 C 187.945 -2.53143 2.37773 0
M  V30 1769 C 186.899 -2.41913 3.53075 0
M  V30 1770 C 186.225 -3.80088 3.76081 0
M  V30 1771 C 187.525 -1.91157 4.86062 0
M  V30 1772 H 189.219 -0.832293 2.87599 0
M  V30 1773 H 186.765 -0.398918 1.38364 0
M  V30 1774 H 188.718 -3.26047 2.66967 0
M  V30 1775 H 187.442 -2.91319 1.4765 0
M  V30 1776 H 186.101 -1.71462 3.24031 0
M  V30 1777 H 185.749 -4.15683 2.83225 0
M  V30 1778 H 185.449 -3.73439 4.53671 0
M  V30 1779 H 186.973 -4.54556 4.0769 0
M  V30 1780 H 188.387 -2.53846 5.14038 0
M  V30 1781 H 186.784 -1.95422 5.67389 0
M  V30 1782 H 187.854 -0.866673 4.77092 0
M  V30 1783 N 189.197 -1.51736 -0.425897 0
M  V30 1784 C 190.427 -1.68549 -1.19476 0
M  V30 1785 C 190.835 -0.387288 -1.85194 0
M  V30 1786 O 190.178 0.645142 -1.71999 0
M  V30 1787 C 190.24 -2.75275 -2.31223 0
M  V30 1788 C 189.904 -4.17534 -1.8578 0
M  V30 1789 C 190.901 -5.01936 -1.35485 0
M  V30 1790 C 188.586 -4.6369 -1.93123 0
M  V30 1791 C 190.58 -6.30559 -0.931347 0
M  V30 1792 C 188.267 -5.92307 -1.50384 0
M  V30 1793 C 189.265 -6.75569 -1.00473 0
M  V30 1794 O 188.953 -8.0178 -0.583452 0
M  V30 1795 H 188.685 -0.568525 -0.365725 0
M  V30 1796 H 191.239 -1.98982 -0.509444 0
M  V30 1797 H 189.469 -2.40182 -3.03067 0
M  V30 1798 H 191.158 -2.80853 -2.93047 0
M  V30 1799 H 191.924 -4.67475 -1.29197 0
M  V30 1800 H 187.803 -3.98997 -2.30916 0
M  V30 1801 H 191.347 -6.95498 -0.541084 0
M  V30 1802 H 187.244 -6.2628 -1.56346 0
M  V30 1803 H 188.012 -8.1543 -0.708275 0
M  V30 1804 N 190.675 0.682077 -1.42076 0
M  V30 1805 C 191.625 1.78823 -1.41444 0
M  V30 1806 C 192.609 1.58323 -0.28681 0
M  V30 1807 O 193.801 1.68926 -0.528498 0
M  V30 1808 C 190.93 3.17232 -1.3122 0
M  V30 1809 C 190.016 3.4338 -2.489 0
M  V30 1810 N 190.407 3.40152 -3.7434 0
M  V30 1811 C 188.705 3.73986 -2.43003 0
M  V30 1812 C 189.406 3.65581 -4.52466 0
M  V30 1813 N 188.382 3.85989 -3.8277 0
M  V30 1814 H 192.184 1.7471 -2.36334 0
M  V30 1815 H 189.698 0.882622 -1.36321 0
M  V30 1816 H 191.695 3.96489 -1.2885 0
M  V30 1817 H 190.355 3.22547 -0.373263 0
M  V30 1818 H 191.366 3.20221 -4.07037 0
M  V30 1819 H 188.043 3.86591 -1.57651 0
M  V30 1820 H 189.433 3.69108 -5.61435 0
M  V30 1821 N 192.153 1.28127 0.917671 0
M  V30 1822 C 193.101 1.11569 2.04096 0
M  V30 1823 C 194.095 0.0360242 1.69362 0
M  V30 1824 O 195.301 0.194501 1.78946 0
M  V30 1825 H 191.676 0.344097 0.668656 0
M  V30 1826 H 193.647 2.06711 2.15205 0
M  V30 1827 C 192.396 0.790197 3.38602 0
M  V30 1828 H 191.719 1.61293 3.6582 0
M  V30 1829 H 193.159 0.714271 4.1794 0
M  V30 1830 C 191.618 -0.505897 3.3308 0
M  V30 1831 O 192.148 -1.53736 3.71117 0
M  V30 1832 N 190.354 -0.505193 2.86175 0
M  V30 1833 H 189.901 0.334621 2.55417 0
M  V30 1834 H 189.859 -1.37243 2.82863 0
M  V30 1835 N 193.631 -1.12557 1.10312 0
M  V30 1836 C 194.579 -2.20325 0.745629 0
M  V30 1837 C 195.573 -1.67429 -0.25763 0
M  V30 1838 O 196.779 -1.79612 -0.118132 0
M  V30 1839 H 193.154 -0.718118 0.223182 0
M  V30 1840 H 195.125 -2.47733 1.66346 0
M  V30 1841 C 193.874 -3.47168 0.192262 0
M  V30 1842 H 193.197 -3.88215 0.955475 0
M  V30 1843 H 194.637 -4.23995 -0.0198274 0
M  V30 1844 C 193.096 -3.19298 -1.07472 0
M  V30 1845 O 193.626 -3.3891 -2.15645 0
M  V30 1846 N 191.832 -2.73113 -0.992847 0
M  V30 1847 H 191.379 -2.57354 -0.112474 0
M  V30 1848 H 191.337 -2.54842 -1.84127 0
M  V30 1849 N 195.109 -0.891671 -1.2995 0
M  V30 1850 C 196.057 -0.353066 -2.29905 0
M  V30 1851 C 197.051 0.543509 -1.60444 0
M  V30 1852 O 198.257 0.4272 -1.74857 0
M  V30 1853 H 194.632 -0.095531 -0.745907 0
M  V30 1854 H 196.603 -1.20961 -2.72784 0
M  V30 1855 C 195.352 0.411475 -3.45257 0
M  V30 1856 H 194.675 -0.269182 -3.98893 0
M  V30 1857 H 196.115 0.753328 -4.17254 0
M  V30 1858 C 194.574 1.6111 -2.9588 0
M  V30 1859 O 195.104 2.71045 -2.96475 0
M  V30 1860 N 193.31 1.45054 -2.51809 0
M  V30 1861 H 192.857 0.556175 -2.51524 0
M  V30 1862 H 192.815 2.25453 -2.1913 0
M  V30 1863 N 196.587 1.43421 -0.653314 0
M  V30 1864 C 197.519 2.29071 0.0769134 0
M  V30 1865 C 198.532 1.42513 0.787017 0
M  V30 1866 O 199.721 1.66449 0.644757 0
M  V30 1867 C 196.821 3.19436 1.13199 0
M  V30 1868 C 195.994 4.34533 0.500006 0
M  V30 1869 C 195.053 5.05771 1.45198 0
M  V30 1870 O 194.079 5.61037 0.960538 0
M  V30 1871 N 195.281 5.0928 2.78594 0
M  V30 1872 H 198.046 2.92382 -0.658235 0
M  V30 1873 H 195.607 1.54112 -0.496104 0
M  V30 1874 H 197.599 3.63958 1.76964 0
M  V30 1875 H 196.169 2.57724 1.7691 0
M  V30 1876 H 195.389 3.92925 -0.316738 0
M  V30 1877 H 196.677 5.08766 0.0588345 0
M  V30 1878 H 196.075 4.65751 3.2108 0
M  V30 1879 H 194.632 5.57519 3.37662 0
M  V30 1880 N 198.065 0.39524 1.52563 0
M  V30 1881 C 199.312 -0.185044 2.01653 0
M  V30 1882 C 199.64 -1.46317 1.28146 0
M  V30 1883 O 198.895 -1.9213 0.372074 0
M  V30 1884 C 199.194 -0.493444 3.53977 0
M  V30 1885 C 198.86 0.69384 4.4553 0
M  V30 1886 C 197.522 1.01954 4.70275 0
M  V30 1887 C 199.874 1.48785 4.99512 0
M  V30 1888 C 197.202 2.14069 5.46252 0
M  V30 1889 C 199.554 2.59965 5.76716 0
M  V30 1890 C 198.218 2.93037 5.99738 0
M  V30 1891 H 197.488 -0.0677123 0.7379 0
M  V30 1892 H 200.135 0.533807 1.8391 0
M  V30 1893 H 198.44 -1.29369 3.69825 0
M  V30 1894 H 200.137 -0.955163 3.89458 0
M  V30 1895 H 196.727 0.429987 4.26438 0
M  V30 1896 H 200.911 1.24946 4.80315 0
M  V30 1897 H 196.167 2.40056 5.62302 0
M  V30 1898 H 200.341 3.21887 6.17545 0
M  V30 1899 H 197.968 3.8003 6.58393 0
M  V30 1900 N 199.544 -1.57102 0.125237 0
M  V30 1901 C 200.791 -1.95407 -0.531248 0
M  V30 1902 C 201.119 -1.0089 -1.66287 0
M  V30 1903 O 200.374 -0.0339431 -1.95671 0
M  V30 1904 C 200.673 -3.40096 -1.09862 0
M  V30 1905 C 200.339 -4.50815 -0.0876989 0
M  V30 1906 C 199.001 -4.80824 0.19026 0
M  V30 1907 C 201.353 -5.17724 0.600902 0
M  V30 1908 C 198.681 -5.75058 1.163 0
M  V30 1909 C 201.033 -6.13005 1.56231 0
M  V30 1910 C 199.697 -6.41403 1.8482 0
M  V30 1911 H 198.967 -0.715046 -0.194397 0
M  V30 1912 H 201.614 -1.90373 0.207463 0
M  V30 1913 H 199.919 -3.41855 -1.91422 0
M  V30 1914 H 201.616 -3.6705 -1.61478 0
M  V30 1915 H 198.206 -4.27444 -0.314528 0
M  V30 1916 H 202.39 -4.94691 0.399333 0
M  V30 1917 H 197.646 -5.95362 1.39117 0
M  V30 1918 H 201.82 -6.63934 2.10153 0
M  V30 1919 H 199.447 -7.14229 2.60349 0
M  V30 1920 N 201.022 0.148545 -1.56898 0
M  V30 1921 C 201.972 1.1886 -1.94567 0
M  V30 1922 C 202.956 1.3863 -0.816735 0
M  V30 1923 O 204.148 1.40218 -1.08018 0
M  V30 1924 C 201.277 2.52262 -2.32849 0
M  V30 1925 C 200.363 2.36092 -3.52309 0
M  V30 1926 N 200.754 1.89674 -4.6889 0
M  V30 1927 C 199.052 2.66848 -3.57363 0
M  V30 1928 C 199.753 1.86511 -5.50989 0
M  V30 1929 N 198.729 2.29766 -4.92655 0
M  V30 1930 H 202.531 0.821793 -2.82177 0
M  V30 1931 H 200.045 0.356615 -1.58436 0
M  V30 1932 H 202.042 3.27447 -2.58039 0
M  V30 1933 H 200.702 2.89727 -1.46589 0
M  V30 1934 H 201.713 1.59663 -4.92674 0
M  V30 1935 H 198.39 3.08198 -2.81639 0
M  V30 1936 H 199.78 1.52128 -6.54452 0
M  V30 1937 N 202.5 1.5196 0.417844 0
M  V30 1938 C 203.777 1.56146 1.17803 0
M  V30 1939 C 204.157 0.337275 2.08388 0
M  V30 1940 O 203.505 -0.676447 2.18258 0
M  V30 1941 C 203.715 2.88566 1.96293 0
M  V30 1942 C 205.063 3.41244 2.52662 0
M  V30 1943 O 206.087 2.90247 2.06483 0
M  V30 1944 O 204.946 4.30273 3.36938 0
M  V30 1945 H 202.04 0.628598 0.537395 0
M  V30 1946 H 204.586 1.64283 0.425331 0
M  V30 1947 H 203.358 3.69116 1.2988 0
M  V30 1948 H 202.981 2.83681 2.78587 0
M  V30 1949 N 203.978 -0.674533 1.42435 0
M  V30 1950 C 205.224 -1.43671 1.43131 0
M  V30 1951 C 205.557 -1.94142 0.0476021 0
M  V30 1952 O 204.832 -1.70924 -0.928188 0
M  V30 1953 C 205.115 -2.63355 2.45594 0
M  V30 1954 C 204.968 -2.18514 3.93156 0
M  V30 1955 C 206.287 -3.65571 2.45043 0
M  V30 1956 H 203.406 -0.521077 0.521198 0
M  V30 1957 H 206.048 -0.766551 1.7385 0
M  V30 1958 H 204.198 -3.2053 2.19528 0
M  V30 1959 H 205.87 -1.66504 4.30202 0
M  V30 1960 H 204.113 -1.50086 4.07009 0
M  V30 1961 H 204.784 -3.04484 4.60428 0
M  V30 1962 H 207.26 -3.18113 2.68223 0
M  V30 1963 H 206.136 -4.46893 3.18713 0
M  V30 1964 H 206.397 -4.16716 1.47649 0
M  V30 1965 N 205.456 -1.28612 -0.910864 0
M  V30 1966 C 206.366 -1.14643 -2.0468 0
M  V30 1967 C 207.382 -0.0723121 -1.7385 0
M  V30 1968 O 208.558 -0.282178 -1.99413 0
M  V30 1969 C 205.623 -0.812561 -3.37044 0
M  V30 1970 C 204.684 -1.96935 -3.81465 0
M  V30 1971 C 203.917 -1.65131 -5.07511 0
M  V30 1972 O 204.14 -0.567013 -5.67575 0
M  V30 1973 O 203.074 -2.49585 -5.47714 0
M  V30 1974 H 206.9 -2.1001 -2.19384 0
M  V30 1975 H 204.485 -1.07958 -1.03274 0
M  V30 1976 H 206.367 -0.640441 -4.16505 0
M  V30 1977 H 205.042 0.111426 -3.23508 0
M  V30 1978 H 203.949 -2.19664 -3.02818 0
M  V30 1979 H 205.282 -2.87414 -3.99567 0
M  V30 1980 N 206.934 1.1197 -1.10907 0
M  V30 1981 C 208.18 1.8386 -0.855773 0
M  V30 1982 C 208.513 1.84134 0.617103 0
M  V30 1983 O 207.788 1.29041 1.45529 0
M  V30 1984 C 208.071 3.31305 -1.411 0
M  V30 1985 C 207.924 3.39456 -2.9511 0
M  V30 1986 C 209.243 4.2721 -1.05736 0
M  V30 1987 H 206.362 0.667545 -0.312334 0
M  V30 1988 H 209.004 1.31331 -1.37303 0
M  V30 1989 H 207.154 3.76169 -0.97105 0
M  V30 1990 H 208.826 3.03191 -3.47668 0
M  V30 1991 H 207.069 2.79849 -3.31462 0
M  V30 1992 H 207.74 4.43209 -3.29044 0
M  V30 1993 H 210.216 3.90497 -1.43706 0
M  V30 1994 H 209.092 5.28775 -1.47269 0
M  V30 1995 H 209.353 4.42088 0.0325958 0
M  V30 1996 N 208.412 0.89855 1.29475 0
M  V30 1997 C 209.322 0.379974 2.31502 0
M  V30 1998 C 210.338 -0.524695 1.659 0
M  V30 1999 O 211.514 -0.414551 1.97087 0
M  V30 2000 C 208.579 -0.385138 3.44554 0
M  V30 2001 C 207.64 0.550914 4.2575 0
M  V30 2002 C 206.873 -0.177778 5.33404 0
M  V30 2003 O 207.096 -1.40189 5.52904 0
M  V30 2004 O 206.03 0.479106 5.9999 0
M  V30 2005 H 209.856 1.22639 2.77837 0
M  V30 2006 H 207.441 0.662834 1.33891 0
M  V30 2007 H 209.323 -0.817841 4.13388 0
M  V30 2008 H 207.998 -1.20763 3.0033 0
M  V30 2009 H 206.905 1.03271 3.59564 0
M  V30 2010 H 208.238 1.33979 4.73614 0
M  V30 2011 N 209.89 -1.43072 0.660911 0
M  V30 2012 C 211.167 -1.95307 0.107017 0
M  V30 2013 C 211.547 -1.60192 -1.37484 0
M  V30 2014 O 210.895 -0.890949 -2.10415 0
M  V30 2015 C 211.105 -3.47124 0.361402 0
M  V30 2016 C 212.453 -4.23738 0.270455 0
M  V30 2017 O 213.477 -3.54981 0.294382 0
M  V30 2018 O 212.336 -5.46131 0.200737 0
M  V30 2019 H 209.43 -0.826984 -0.00517729 0
M  V30 2020 H 211.976 -1.52972 0.734681 0
M  V30 2021 H 210.748 -3.65837 1.38848 0
M  V30 2022 H 210.371 -3.96475 -0.298953 0
M  V30 2023 N 211.368 -0.403325 -1.52352 0
M  V30 2024 C 212.614 0.174605 -2.02047 0
M  V30 2025 C 212.947 1.45282 -1.28867 0
M  V30 2026 O 212.222 1.90483 -0.393257 0
M  V30 2027 C 212.505 0.428238 -3.57545 0
M  V30 2028 C 212.358 -0.866248 -4.4138 0
M  V30 2029 C 213.677 1.21287 -4.23057 0
M  V30 2030 H 210.796 0.0619851 -0.734389 0
M  V30 2031 H 213.438 -0.53565 -1.82293 0
M  V30 2032 H 211.588 1.03327 -3.74507 0
M  V30 2033 H 213.26 -1.50265 -4.3614 0
M  V30 2034 H 211.503 -1.47851 -4.07827 0
M  V30 2035 H 212.174 -0.643249 -5.48239 0
M  V30 2036 H 214.65 0.700703 -4.10158 0
M  V30 2037 H 213.526 1.35909 -5.31808 0
M  V30 2038 H 213.787 2.23193 -3.81625 0
M  V30 2039 N 212.846 1.57033 -0.133567 0
M  V30 2040 C 213.776 2.1909 0.807567 0
M  V30 2041 C 214.757 1.13517 1.26681 0
M  V30 2042 O 215.942 1.41809 1.32679 0
M  V30 2043 C 213.072 2.80188 2.05212 0
M  V30 2044 C 212.026 3.91471 1.73015 0
M  V30 2045 C 211.352 4.39443 3.04622 0
M  V30 2046 C 212.652 5.12886 0.987168 0
M  V30 2047 H 214.346 2.97988 0.290403 0
M  V30 2048 H 211.892 1.43335 0.138239 0
M  V30 2049 H 213.845 3.22264 2.71521 0
M  V30 2050 H 212.569 1.98601 2.59278 0
M  V30 2051 H 211.228 3.49993 1.0909 0
M  V30 2052 H 210.876 3.54695 3.56651 0
M  V30 2053 H 210.576 5.14495 2.83847 0
M  V30 2054 H 212.1 4.8418 3.72024 0
M  V30 2055 H 213.514 5.51891 1.55208 0
M  V30 2056 H 211.911 5.93615 0.87985 0
M  V30 2057 H 212.981 4.84894 -0.0235286 0
M  V30 2058 N 214.325 -0.140222 1.56975 0
M  V30 2059 C 215.736 -0.699596 1.73097 0
M  V30 2060 C 216.087 -1.8134 0.749022 0
M  V30 2061 O 215.212 -2.16241 -0.0828503 0
M  V30 2062 C 215.807 -1.27582 3.1386 0
M  V30 2063 C 214.366 -1.78169 3.31561 0
M  V30 2064 C 213.513 -0.672855 2.69013 0
M  V30 2065 H 216.464 0.0855115 1.58469 0
M  V30 2066 H 216.485 -2.14561 3.14235 0
M  V30 2067 H 215.997 -0.464955 3.85305 0
M  V30 2068 H 214.098 -2.61801 2.65124 0
M  V30 2069 H 214.211 -1.90574 4.39566 0
M  V30 2070 H 212.575 -1.10118 2.29665 0
M  V30 2071 H 213.358 0.126679 3.43066 0
M  V30 2072 N 215.803 -1.52179 -0.40978 0
M  V30 2073 C 217.028 -1.70347 -1.18308 0
M  V30 2074 C 217.453 -0.411887 -1.83535 0
M  V30 2075 O 216.811 0.630587 -1.6998 0
M  V30 2076 C 216.859 -2.83977 -2.22238 0
M  V30 2077 O 215.963 -2.495 -3.28365 0
M  V30 2078 H 215.304 -0.567103 -0.345384 0
M  V30 2079 H 217.834 -1.98879 -0.480445 0
M  V30 2080 H 217.844 -3.0887 -2.66577 0
M  V30 2081 H 216.519 -3.77685 -1.74146 0
M  V30 2082 H 215.096 -2.35277 -2.89308 0
M  V30 2083 N 217.281 0.66697 -1.42791 0
M  V30 2084 C 218.506 1.46004 -1.47301 0
M  V30 2085 C 218.931 1.87894 -0.0880317 0
M  V30 2086 O 218.289 1.56502 0.915253 0
M  V30 2087 C 218.337 2.68031 -2.41229 0
M  V30 2088 O 217.441 3.6659 -1.88906 0
M  V30 2089 H 216.782 0.43832 -0.49877 0
M  V30 2090 H 219.312 0.817391 -1.87563 0
M  V30 2091 H 219.322 3.1601 -2.58073 0
M  V30 2092 H 217.997 2.36883 -3.41847 0
M  V30 2093 H 216.574 3.25661 -1.81656 0
M  V30 2094 N 218.759 1.29093 0.90403 0
M  V30 2095 C 219.706 1.13853 2.00764 0
M  V30 2096 C 220.676 0.0330084 1.66067 0
M  V30 2097 O 221.861 0.199733 1.89752 0
M  V30 2098 C 219.001 0.816537 3.35301 0
M  V30 2099 C 218.114 2.00206 3.82807 0
M  V30 2100 C 217.249 1.61983 5.059 0
M  V30 2101 C 216.288 2.77143 5.45764 0
M  V30 2102 N 215.425 2.39346 6.60044 0
M  V30 2103 H 220.265 2.08276 2.13132 0
M  V30 2104 H 217.802 1.03648 1.04381 0
M  V30 2105 H 219.76 0.610557 4.12708 0
M  V30 2106 H 218.39 -0.090779 3.22672 0
M  V30 2107 H 217.442 2.31988 3.01473 0
M  V30 2108 H 218.754 2.86512 4.08304 0
M  V30 2109 H 217.908 1.37649 5.90879 0
M  V30 2110 H 216.647 0.728202 4.82233 0
M  V30 2111 H 215.652 3.02165 4.59322 0
M  V30 2112 H 216.877 3.66964 5.71414 0
M  V30 2113 H 214.823 1.52665 6.37989 0
M  V30 2114 H 214.74 3.19185 6.85315 0
M  V30 2115 H 216.008 2.1832 7.48303 0
M  V30 2116 N 220.237 -1.11381 1.11499 0
M  V30 2117 C 221.653 -1.35143 0.849031 0
M  V30 2118 C 221.853 -1.94515 -0.525938 0
M  V30 2119 O 220.909 -2.1785 -1.27662 0
M  V30 2120 C 222.222 -2.28249 1.95762 0
M  V30 2121 C 223.77 -2.41812 1.98736 0
M  V30 2122 C 224.245 -3.3824 3.088 0
M  V30 2123 N 225.736 -3.45803 3.08179 0
M  V30 2124 C 226.471 -4.20358 3.89982 0
M  V30 2125 N 225.967 -4.97884 4.8175 0
M  V30 2126 N 227.76 -4.15877 3.78157 0
M  V30 2127 H 219.911 -0.712062 2.00109 0
M  V30 2128 H 222.174 -0.376025 0.870235 0
M  V30 2129 H 221.88 -1.91817 2.94787 0
M  V30 2130 H 221.754 -3.28473 1.85433 0
M  V30 2131 H 224.141 -2.77518 1.00338 0
M  V30 2132 H 224.222 -1.41437 2.13141 0
M  V30 2133 H 223.866 -3.03261 4.07425 0
M  V30 2134 H 223.796 -4.38471 2.91635 0
M  V30 2135 H 226.287 -2.90506 2.41691 0
M  V30 2136 H 226.6 -5.52142 5.40702 0
M  V30 2137 H 224.945 -4.97043 4.85771 0
M  V30 2138 H 228.136 -3.544 3.05808 0
M  V30 2139 H 228.309 -4.73723 4.42143 0
M  V30 2140 N 221.715 -0.905404 -1.28997 0
M  V30 2141 C 222.94 -0.549175 -1.99997 0
M  V30 2142 C 223.365 0.860276 -1.67275 0
M  V30 2143 O 222.723 1.57355 -0.900502 0
M  V30 2144 C 222.771 -0.755185 -3.52604 0
M  V30 2145 O 221.875 0.189692 -4.11964 0
M  V30 2146 H 221.216 -0.213899 -0.628604 0
M  V30 2147 H 223.746 -1.21856 -1.64354 0
M  V30 2148 H 223.756 -0.662045 -4.02593 0
M  V30 2149 H 222.431 -1.78271 -3.75755 0
M  V30 2150 H 221.008 0.0485257 -3.72868 0
M  V30 2151 N 223.193 1.4272 -0.668489 0
M  V30 2152 C 224.604 1.84793 -0.266151 0
M  V30 2153 C 224.955 1.55959 1.19043 0
M  V30 2154 O 224.08 1.01622 1.91055 0
M  V30 2155 C 224.675 3.35436 -0.476271 0
M  V30 2156 C 223.234 3.76182 -0.128113 0
M  V30 2157 C 222.381 2.66344 -0.771777 0
M  V30 2158 H 225.332 1.32656 -0.871098 0
M  V30 2159 H 225.353 3.79515 0.273561 0
M  V30 2160 H 224.865 3.5639 -1.53647 0
M  V30 2161 H 222.966 3.60836 0.928891 0
M  V30 2162 H 223.079 4.75766 -0.564231 0
M  V30 2163 H 221.443 2.53885 -0.203652 0
M  V30 2164 H 222.226 2.90123 -1.83531 0
M  V30 2165 N 224.671 0.411399 1.52136 0
M  V30 2166 C 225.896 -0.165538 2.06738 0
M  V30 2167 C 226.321 -1.379 1.27926 0
M  V30 2168 O 225.679 -1.78628 0.310114 0
M  V30 2169 C 225.727 -0.492124 3.57226 0
M  V30 2170 O 224.831 -1.58276 3.80818 0
M  V30 2171 H 224.172 -0.0132132 0.663869 0
M  V30 2172 H 226.702 0.585253 1.96051 0
M  V30 2173 H 226.712 -0.750104 4.01045 0
M  V30 2174 H 225.387 0.394922 4.14021 0
M  V30 2175 H 223.964 -1.31677 3.48877 0
M  V30 2176 N 226.149 -1.5696 0.141893 0
M  V30 2177 C 227.377 -2.00322 -0.517579 0
M  V30 2178 C 227.792 -1.02193 -1.58752 0
M  V30 2179 O 227.149 -0.0181619 -1.82491 0
M  V30 2180 C 227.2 -3.43618 -1.12289 0
M  V30 2181 O 226.921 -4.37995 -0.0956929 0
M  V30 2182 C 228.422 -4.02231 -1.86347 0
M  V30 2183 H 225.642 -0.657243 -0.135177 0
M  V30 2184 H 228.186 -2.03146 0.234973 0
M  V30 2185 H 226.341 -3.41662 -1.82609 0
M  V30 2186 H 226.755 -5.21729 -0.538469 0
M  V30 2187 H 228.229 -5.04509 -2.23997 0
M  V30 2188 H 228.706 -3.42655 -2.74744 0
M  V30 2189 H 229.312 -4.07802 -1.20737 0
M  V30 2190 N 227.627 0.131896 -1.57047 0
M  V30 2191 C 228.59 1.14638 -1.98471 0
M  V30 2192 C 229.59 1.35029 -0.873148 0
M  V30 2193 O 230.78 1.31764 -1.13946 0
M  V30 2194 C 227.912 2.50358 -2.31373 0
M  V30 2195 H 229.105 0.79064 -2.8929 0
M  V30 2196 H 226.658 0.375761 -1.51716 0
M  V30 2197 H 227.393 2.90876 -1.43393 0
M  V30 2198 H 227.178 2.36915 -3.12432 0
M  V30 2199 H 228.668 3.23395 -2.64207 0
M  V30 2200 N 229.106 1.52395 0.401703 0
M  V30 2201 C 230.334 1.70676 1.16949 0
M  V30 2202 C 230.749 0.419503 1.8408 0
M  V30 2203 O 230.106 -0.605061 1.72178 0
M  V30 2204 C 230.157 2.84753 2.22706 0
M  V30 2205 O 229.878 4.08495 1.58314 0
M  V30 2206 C 231.379 3.14608 3.12309 0
M  V30 2207 H 228.599 0.571787 0.351142 0
M  V30 2208 H 231.143 1.98987 0.471652 0
M  V30 2209 H 229.298 2.58941 2.88147 0
M  V30 2210 H 229.712 4.72117 2.28485 0
M  V30 2211 H 231.186 3.97923 3.82572 0
M  V30 2212 H 231.663 2.28464 3.75101 0
M  V30 2213 H 232.269 3.42212 2.52529 0
M  V30 2214 N 230.584 -0.659388 1.43143 0
M  V30 2215 C 231.514 -1.78422 1.50625 0
M  V30 2216 C 232.495 -1.66216 0.361443 0
M  V30 2217 O 233.68 -1.85404 0.577834 0
M  V30 2218 C 230.81 -3.16815 1.42287 0
M  V30 2219 C 229.764 -3.43777 2.54954 0
M  V30 2220 C 229.09 -4.81905 2.31671 0
M  V30 2221 C 230.39 -3.39134 3.97222 0
M  V30 2222 H 232.084 -1.72417 2.44771 0
M  V30 2223 H 229.63 -0.828084 1.17808 0
M  V30 2224 H 231.583 -3.95253 1.46127 0
M  V30 2225 H 230.307 -3.23534 0.446435 0
M  V30 2226 H 228.966 -2.67707 2.50457 0
M  V30 2227 H 228.614 -4.85294 1.32284 0
M  V30 2228 H 228.314 -5.00906 3.07192 0
M  V30 2229 H 229.838 -5.62609 2.37284 0
M  V30 2230 H 231.252 -4.07518 4.03239 0
M  V30 2231 H 229.649 -3.69671 4.72719 0
M  V30 2232 H 230.719 -2.37426 4.22797 0
M  V30 2233 N 232.062 -1.29571 -0.897171 0
M  V30 2234 C 233.287 -1.20705 -1.68656 0
M  V30 2235 C 233.712 0.228582 -1.86706 0
M  V30 2236 O 233.07 1.16494 -1.3892 0
M  V30 2237 C 233.118 -1.9282 -3.04717 0
M  V30 2238 O 232.222 -1.24697 -3.93096 0
M  V30 2239 H 231.563 -0.418126 -0.515816 0
M  V30 2240 H 234.093 -1.71183 -1.12061 0
M  V30 2241 H 234.103 -2.01372 -3.54843 0
M  V30 2242 H 232.778 -2.97239 -2.90899 0
M  V30 2243 H 231.355 -1.2442 -3.51531 0
M  V30 2244 N 233.54 1.10788 -1.12088 0
M  V30 2245 C 234.47 2.19083 -0.807755 0
M  V30 2246 C 235.451 1.6858 0.226859 0
M  V30 2247 O 236.636 1.93997 0.0888475 0
M  V30 2248 C 233.766 3.46344 -0.257576 0
M  V30 2249 C 232.72 4.101 -1.22483 0
M  V30 2250 C 232.046 5.32016 -0.535052 0
M  V30 2251 C 233.346 4.54236 -2.57811 0
M  V30 2252 H 235.04 2.45534 -1.71328 0
M  V30 2253 H 232.586 1.1801 -0.825205 0
M  V30 2254 H 234.539 4.21392 -0.0262679 0
M  V30 2255 H 233.263 3.19373 0.683278 0
M  V30 2256 H 231.922 3.37054 -1.44189 0
M  V30 2257 H 231.57 5.01319 0.410827 0
M  V30 2258 H 231.27 5.75625 -1.18024 0
M  V30 2259 H 232.794 6.09799 -0.312695 0
M  V30 2260 H 234.208 5.20575 -2.40155 0
M  V30 2261 H 232.605 5.08682 -3.18375 0
M  V30 2262 H 233.675 3.6734 -3.16528 0
M  V30 2263 N 235.018 0.912232 1.28515 0
M  V30 2264 C 236.429 0.591352 1.77087 0
M  V30 2265 C 236.78 -0.8933 1.74684 0
M  V30 2266 O 235.905 -1.69876 1.34056 0
M  V30 2267 C 236.5 1.06668 3.2157 0
M  V30 2268 C 235.059 0.79675 3.67871 0
M  V30 2269 C 234.206 1.23427 2.48316 0
M  V30 2270 H 237.157 1.09365 1.15 0
M  V30 2271 H 237.178 0.407455 3.78312 0
M  V30 2272 H 236.69 2.14726 3.23287 0
M  V30 2273 H 234.791 -0.270679 3.71616 0
M  V30 2274 H 234.904 1.40343 4.58084 0
M  V30 2275 H 233.268 0.653036 2.46186 0
M  V30 2276 H 234.051 2.32316 2.52753 0
M  V30 2277 N 236.496 -1.42363 0.676048 0
M  V30 2278 C 237.721 -2.06377 0.205705 0
M  V30 2279 C 238.146 -1.50463 -1.12883 0
M  V30 2280 O 237.504 -0.623619 -1.70237 0
M  V30 2281 C 237.552 -3.60277 0.152655 0
M  V30 2282 O 236.656 -4.02935 -0.87845 0
M  V30 2283 H 235.997 -0.655588 0.105359 0
M  V30 2284 H 238.527 -1.82475 0.925412 0
M  V30 2285 H 238.537 -4.07993 -0.0230675 0
M  V30 2286 H 237.212 -4.00346 1.12675 0
M  V30 2287 H 235.789 -3.66764 -0.673668 0
M  V30 2288 N 237.974 -0.419461 -1.51915 0
M  V30 2289 C 238.904 0.391813 -2.30189 0
M  V30 2290 C 239.885 1.03699 -1.34836 0
M  V30 2291 O 241.07 1.04403 -1.63748 0
M  V30 2292 C 238.2 1.50312 -3.13087 0
M  V30 2293 C 237.154 0.9824 -4.16573 0
M  V30 2294 C 236.48 2.18809 -4.8788 0
M  V30 2295 C 237.78 0.0292356 -5.22292 0
M  V30 2296 H 239.474 -0.26135 -2.98257 0
M  V30 2297 H 237.02 -0.127134 -1.43438 0
M  V30 2298 H 238.973 2.07773 -3.66617 0
M  V30 2299 H 237.697 2.18431 -2.42807 0
M  V30 2300 H 236.356 0.430119 -3.64068 0
M  V30 2301 H 236.004 2.85507 -4.14119 0
M  V30 2302 H 235.704 1.84615 -5.57845 0
M  V30 2303 H 237.228 2.76858 -5.44226 0
M  V30 2304 H 238.642 0.512976 -5.71 0
M  V30 2305 H 237.039 -0.2244 -5.9968 0
M  V30 2306 H 238.109 -0.912931 -4.76228 0
M  V30 2307 N 239.452 1.56882 -0.150215 0
M  V30 2308 C 240.362 2.20494 0.801222 0
M  V30 2309 C 241.378 1.19019 1.26927 0
M  V30 2310 O 242.554 1.51607 1.32579 0
M  V30 2311 C 239.619 2.81659 2.02161 0
M  V30 2312 C 238.68 3.9827 1.60249 0
M  V30 2313 C 237.913 4.56508 2.7647 0
M  V30 2314 O 238.136 4.13627 3.92771 0
M  V30 2315 O 237.07 5.46719 2.51757 0
M  V30 2316 H 240.896 3.02315 0.289717 0
M  V30 2317 H 238.481 1.49202 0.0769684 0
M  V30 2318 H 240.363 3.20522 2.73576 0
M  V30 2319 H 239.038 2.02849 2.52258 0
M  V30 2320 H 237.945 3.64117 0.858477 0
M  V30 2321 H 239.278 4.78609 1.14864 0
M  V30 2322 N 240.93 -0.123565 1.57115 0
M  V30 2323 C 241.893 -1.13583 1.99076 0
M  V30 2324 C 242.893 -1.34564 0.880296 0
M  V30 2325 O 244.083 -1.31158 1.14644 0
M  V30 2326 C 241.215 -2.49128 2.32698 0
M  V30 2327 H 242.408 -0.775287 2.89706 0
M  V30 2328 H 239.961 -0.36771 1.51913 0
M  V30 2329 H 240.696 -2.90111 1.44934 0
M  V30 2330 H 240.481 -2.35255 3.13684 0
M  V30 2331 H 241.971 -3.2199 2.65918 0
M  V30 2332 N 242.408 -1.52605 -0.393616 0
M  V30 2333 C 243.638 -1.71046 -1.15874 0
M  V30 2334 C 244.046 -0.426483 -1.84331 0
M  V30 2335 O 243.389 0.608513 -1.73329 0
M  V30 2336 C 243.451 -2.80118 -2.25332 0
M  V30 2337 C 243.115 -4.21381 -1.76881 0
M  V30 2338 C 244.112 -5.04697 -1.24808 0
M  V30 2339 C 241.797 -4.67683 -1.83244 0
M  V30 2340 C 243.791 -6.32393 -0.797387 0
M  V30 2341 C 241.478 -5.95364 -1.37787 0
M  V30 2342 C 242.476 -6.77549 -0.861208 0
M  V30 2343 O 242.164 -8.02837 -0.413252 0
M  V30 2344 H 241.896 -0.576155 -0.353583 0
M  V30 2345 H 244.45 -2.00018 -0.467123 0
M  V30 2346 H 242.68 -2.46557 -2.97904 0
M  V30 2347 H 244.369 -2.87006 -2.87023 0
M  V30 2348 H 245.135 -4.70111 -1.19252 0
M  V30 2349 H 241.014 -4.03805 -2.22401 0
M  V30 2350 H 244.558 -6.9649 -0.393437 0
M  V30 2351 H 240.455 -6.29455 -1.43026 0
M  V30 2352 H 241.223 -8.16749 -0.53515 0
M  V30 2353 N 243.887 0.651787 -1.4349 0
M  V30 2354 C 245.303 0.96762 -1.26922 0
M  V30 2355 C 245.503 2.00602 -0.189982 0
M  V30 2356 O 244.559 2.48793 0.431107 0
M  V30 2357 C 245.872 1.45052 -2.63401 0
M  V30 2358 C 247.42 1.5671 -2.70945 0
M  V30 2359 C 247.895 2.0839 -4.07845 0
M  V30 2360 N 249.386 2.1569 -4.09917 0
M  V30 2361 C 250.121 2.56804 -5.12679 0
M  V30 2362 N 249.617 2.97203 -6.25813 0
M  V30 2363 N 251.41 2.56756 -5.00033 0
M  V30 2364 H 243.561 -0.0353158 -2.12371 0
M  V30 2365 H 245.824 0.0467858 -0.946845 0
M  V30 2366 H 245.53 0.761926 -3.43348 0
M  V30 2367 H 245.404 2.42529 -2.88894 0
M  V30 2368 H 247.791 2.2467 -1.9133 0
M  V30 2369 H 247.872 0.57662 -2.49216 0
M  V30 2370 H 247.516 1.41031 -4.87927 0
M  V30 2371 H 247.446 3.08271 -4.26938 0
M  V30 2372 H 249.937 1.87237 -3.28254 0
M  V30 2373 H 250.25 3.27328 -7.00055 0
M  V30 2374 H 248.595 2.95004 -6.29283 0
M  V30 2375 H 251.786 2.24572 -4.10713 0
M  V30 2376 H 251.959 2.88475 -5.80247 0
M  V30 2377 N 245.365 1.30045 0.890287 0
M  V30 2378 C 246.642 1.09227 1.62262 0
M  V30 2379 C 247.022 -0.360305 2.08002 0
M  V30 2380 O 246.37 -1.35084 1.84295 0
M  V30 2381 C 246.58 2.08835 2.79623 0
M  V30 2382 C 247.928 2.40266 3.50082 0
M  V30 2383 O 248.952 2.07104 2.89804 0
M  V30 2384 O 247.811 2.96967 4.58773 0
M  V30 2385 H 244.905 0.419132 0.712922 0
M  V30 2386 H 247.451 1.41451 0.937529 0
M  V30 2387 H 246.223 3.06633 2.43089 0
M  V30 2388 H 245.846 1.77397 3.55832 0
M  V30 2389 N 246.843 -1.10192 1.12674 0
M  V30 2390 C 248.254 -1.63707 0.897604 0
M  V30 2391 C 248.605 -1.87812 -0.567546 0
M  V30 2392 O 247.73 -1.62196 -1.43253 0
M  V30 2393 C 248.325 -2.974 1.62292 0
M  V30 2394 C 246.884 -3.47772 1.43986 0
M  V30 2395 C 246.031 -2.22332 1.65722 0
M  V30 2396 H 248.982 -0.936587 1.28116 0
M  V30 2397 H 249.003 -3.64986 1.07541 0
M  V30 2398 H 248.515 -2.79824 2.68924 0
M  V30 2399 H 246.616 -3.70487 0.396206 0
M  V30 2400 H 246.729 -4.25723 2.19765 0
M  V30 2401 H 245.093 -2.30599 1.08149 0
M  V30 2402 H 245.876 -2.07285 2.73657 0
M  V30 2403 N 248.321 -0.919034 -1.28029 0
M  V30 2404 C 249.546 -0.570357 -1.99403 0
M  V30 2405 C 249.971 0.842486 -1.68178 0
M  V30 2406 O 249.329 1.56391 -0.917141 0
M  V30 2407 C 249.377 -0.792541 -3.51783 0
M  V30 2408 O 248.481 0.145988 -4.12142 0
M  V30 2409 H 247.822 -0.220555 -0.6263 0
M  V30 2410 H 250.352 -1.23592 -1.63053 0
M  V30 2411 H 250.362 -0.704708 -4.01868 0
M  V30 2412 H 249.037 -1.82247 -3.73844 0
M  V30 2413 H 247.614 0.00897528 -3.72899 0
M  V30 2414 N 249.799 1.42003 -0.683588 0
M  V30 2415 C 251.039 2.03282 -0.213513 0
M  V30 2416 C 251.403 1.52924 1.16097 0
M  V30 2417 O 252.604 2.06048 1.7262 0
M  V30 2418 C 250.875 3.56483 -0.255856 0
M  V30 2419 S 252.434 4.3857 0.14193 0
M  V30 2420 H 249.252 0.705659 -0.0869853 0
M  V30 2421 H 251.854 1.73619 -0.8987 0
M  V30 2422 H 250.558 3.90631 -1.25841 0
M  V30 2423 H 250.089 3.90831 0.448875 0
M  V30 2424 H 252.104 4.76828 1.37295 0
M  V30 2425 N 251.277 0.427512 1.51691 0
M  V30 2426 C 252.207 -0.3796 2.30394 0
M  V30 2427 C 253.188 -1.02982 1.35384 0
M  V30 2428 O 254.373 -1.03534 1.643 0
M  V30 2429 C 251.503 -1.48649 3.1388 0
M  V30 2430 C 250.457 -0.960294 4.17088 0
M  V30 2431 C 249.783 -2.16219 4.89033 0
M  V30 2432 C 251.083 -0.00153679 5.223 0
M  V30 2433 H 252.777 0.277164 2.98114 0
M  V30 2434 H 250.323 0.134739 1.43368 0
M  V30 2435 H 252.276 -2.05826 3.67714 0
M  V30 2436 H 251 -2.1714 2.43962 0
M  V30 2437 H 249.659 -0.410806 3.64291 0
M  V30 2438 H 249.307 -2.83307 4.15628 0
M  V30 2439 H 249.007 -1.81654 5.58816 0
M  V30 2440 H 250.531 -2.73968 5.45687 0
M  V30 2441 H 251.945 -0.482687 5.71264 0
M  V30 2442 H 250.342 0.256199 5.99553 0
M  V30 2443 H 251.412 0.938174 4.75738 0
M  V30 2444 N 252.755 -1.56801 0.158532 0
M  V30 2445 C 253.98 -2.01295 -0.499516 0
M  V30 2446 C 254.405 -1.03799 -1.56867 0
M  V30 2447 O 253.763 -0.0155162 -1.81293 0
M  V30 2448 C 253.811 -3.44469 -1.06647 0
M  V30 2449 O 252.915 -3.50012 -2.18095 0
M  V30 2450 H 252.256 -0.652884 -0.12099 0
M  V30 2451 H 254.786 -2.02958 0.258661 0
M  V30 2452 H 254.796 -3.8351 -1.39227 0
M  V30 2453 H 253.471 -4.14932 -0.283581 0
M  V30 2454 H 252.048 -3.22822 -1.86656 0
M  V30 2455 N 254.233 0.115231 -1.57178 0
M  V30 2456 C 255.644 0.67197 -1.74188 0
M  V30 2457 C 255.995 1.80125 -0.777777 0
M  V30 2458 O 255.12 2.16346 0.0484376 0
M  V30 2459 C 255.715 1.22573 -3.1585 0
M  V30 2460 C 254.274 1.72872 -3.34353 0
M  V30 2461 C 253.421 0.629972 -2.70049 0
M  V30 2462 H 256.372 -0.110712 -1.58313 0
M  V30 2463 H 256.393 2.09535 -3.17609 0
M  V30 2464 H 255.905 0.403598 -3.85996 0
M  V30 2465 H 254.006 2.5755 -2.69256 0
M  V30 2466 H 254.119 1.83557 -4.42542 0
M  V30 2467 H 252.483 1.0645 -2.31388 0
M  V30 2468 H 253.266 -0.181241 -3.42821 0
M  V30 2469 N 255.711 1.52812 0.385517 0
M  V30 2470 C 256.674 1.77188 1.45386 0
M  V30 2471 C 257.674 0.641953 1.4743 0
M  V30 2472 O 258.864 0.910033 1.4854 0
M  V30 2473 C 255.996 1.87582 2.8465 0
M  V30 2474 H 257.189 2.72583 1.25054 0
M  V30 2475 H 254.742 1.43586 0.617467 0
M  V30 2476 H 255.477 0.941849 3.10322 0
M  V30 2477 H 255.262 2.69748 2.84567 0
M  V30 2478 H 256.752 2.08102 3.62054 0
M  V30 2479 N 257.189 -0.644168 1.43834 0
M  V30 2480 C 258.414 -1.43642 1.49605 0
M  V30 2481 C 258.839 -1.8773 0.117913 0
M  V30 2482 O 258.197 -1.57938 -0.890239 0
M  V30 2483 C 258.245 -2.6416 2.45463 0
M  V30 2484 O 257.349 -3.63538 1.94714 0
M  V30 2485 H 256.69 -0.430329 0.50568 0
M  V30 2486 H 259.22 -0.787448 1.8884 0
M  V30 2487 H 259.23 -3.11864 2.63068 0
M  V30 2488 H 257.905 -2.31414 3.45572 0
M  V30 2489 H 256.482 -3.2273 1.86814 0
M  V30 2490 N 258.668 -1.30515 -0.883378 0
M  V30 2491 C 259.893 -1.22487 -1.67367 0
M  V30 2492 C 260.318 0.208767 -1.86938 0
M  V30 2493 O 259.676 1.15015 -1.40148 0
M  V30 2494 C 259.724 -1.96041 -3.02655 0
M  V30 2495 O 258.828 -1.28859 -3.91751 0
M  V30 2496 H 258.169 -0.423573 -0.511353 0
M  V30 2497 H 260.699 -1.72362 -1.10239 0
M  V30 2498 H 260.709 -2.05124 -3.52687 0
M  V30 2499 H 259.384 -3.00307 -2.8773 0
M  V30 2500 H 257.961 -1.28141 -3.50192 0
M  V30 2501 N 260.146 1.09593 -1.13257 0
M  V30 2502 C 261.076 2.18214 -0.830946 0
M  V30 2503 C 262.057 1.68812 0.208966 0
M  V30 2504 O 263.242 1.9408 0.0682666 0
M  V30 2505 C 260.372 3.46051 -0.294296 0
M  V30 2506 C 259.326 4.08778 -1.26826 0
M  V30 2507 C 258.652 5.31419 -0.591449 0
M  V30 2508 C 259.952 4.51476 -2.62615 0
M  V30 2509 H 261.646 2.43703 -1.73923 0
M  V30 2510 H 259.192 1.17128 -0.837675 0
M  V30 2511 H 261.145 4.2134 -0.0709606 0
M  V30 2512 H 259.869 3.20079 0.649366 0
M  V30 2513 H 258.528 3.35505 -1.47756 0
M  V30 2514 H 258.176 5.01727 0.357633 0
M  V30 2515 H 257.876 5.74341 -1.24123 0
M  V30 2516 H 259.4 6.09433 -0.377355 0
M  V30 2517 H 260.814 5.17999 -2.45663 0
M  V30 2518 H 259.211 5.05277 -3.23752 0
M  V30 2519 H 260.281 3.63962 -3.20406 0
M  V30 2520 N 261.624 0.925811 1.2754 0
M  V30 2521 C 262.849 0.580924 1.99098 0
M  V30 2522 C 263.274 -0.833555 1.68622 0
M  V30 2523 O 262.632 -1.55903 0.925422 0
M  V30 2524 C 262.68 0.811186 3.51358 0
M  V30 2525 O 261.784 -0.124129 4.12213 0
M  V30 2526 H 261.125 0.223873 0.625122 0
M  V30 2527 H 263.655 1.24455 1.62395 0
M  V30 2528 H 263.665 0.72601 4.01489 0
M  V30 2529 H 262.34 1.84227 3.72872 0
M  V30 2530 H 260.917 0.0108006 3.72898 0
M  V30 2531 N 263.102 -1.41638 0.69111 0
M  V30 2532 C 264.327 -2.06148 0.227583 0
M  V30 2533 C 264.752 -1.51652 -1.11281 0
M  V30 2534 O 264.11 -0.64164 -1.69566 0
M  V30 2535 C 264.158 -3.60095 0.190858 0
M  V30 2536 O 263.262 -4.03845 -0.835664 0
M  V30 2537 H 262.603 -0.654434 0.112306 0
M  V30 2538 H 265.133 -1.81484 0.944714 0
M  V30 2539 H 265.143 -4.07995 0.020207 0
M  V30 2540 H 263.818 -3.99129 1.16915 0
M  V30 2541 H 262.395 -3.67458 -0.63473 0
M  V30 2542 N 264.58 -0.43555 -1.51462 0
M  V30 2543 C 265.996 -0.0877501 -1.59359 0
M  V30 2544 C 266.196 1.4027 -1.4466 0
M  V30 2545 O 265.252 2.17243 -1.28693 0
M  V30 2546 C 266.565 -0.606264 -2.94525 0
M  V30 2547 C 268.113 -0.566548 -3.0783 0
M  V30 2548 C 268.588 -1.06201 -4.45517 0
M  V30 2549 N 270.079 -1.01992 -4.51832 0
M  V30 2550 C 270.814 -1.37417 -5.5669 0
M  V30 2551 N 270.31 -1.80119 -6.68976 0
M  V30 2552 N 272.103 -1.29245 -5.47039 0
M  V30 2553 H 264.254 -1.40533 -1.59261 0
M  V30 2554 H 266.517 -0.578992 -0.750648 0
M  V30 2555 H 266.223 -1.64901 -3.10645 0
M  V30 2556 H 266.097 -0.0302097 -3.77188 0
M  V30 2557 H 268.484 0.467208 -2.91378 0
M  V30 2558 H 268.565 -1.17898 -2.2701 0
M  V30 2559 H 268.209 -2.09422 -4.62715 0
M  V30 2560 H 268.139 -0.426127 -5.24873 0
M  V30 2561 H 270.63 -0.706308 -3.71241 0
M  V30 2562 H 270.943 -2.05392 -7.45006 0
M  V30 2563 H 269.288 -1.84044 -6.70189 0
M  V30 2564 H 272.479 -0.957522 -4.58202 0
M  V30 2565 H 272.652 -1.57182 -6.28648 0
M  V30 2566 N 266.058 1.56714 -0.166846 0
M  V30 2567 C 267.283 2.01557 0.488833 0
M  V30 2568 C 267.708 1.0463 1.56314 0
M  V30 2569 O 267.066 0.0251304 1.81283 0
M  V30 2570 C 267.114 3.4503 1.04818 0
M  V30 2571 O 266.218 3.51163 2.16236 0
M  V30 2572 H 265.559 0.653516 0.117526 0
M  V30 2573 H 268.089 2.02818 -0.269421 0
M  V30 2574 H 268.099 3.84243 1.37191 0
M  V30 2575 H 266.774 4.15077 0.261572 0
M  V30 2576 H 265.351 3.23807 1.84942 0
M  V30 2577 N 267.536 -0.106894 1.57237 0
M  V30 2578 C 268.776 -0.818277 1.87306 0
M  V30 2579 C 269.14 -1.76474 0.756371 0
M  V30 2580 O 270.341 -2.5186 0.939155 0
M  V30 2581 C 268.612 -1.53806 3.22612 0
M  V30 2582 S 270.171 -2.28935 3.74345 0
M  V30 2583 H 266.989 -0.272862 0.656557 0
M  V30 2584 H 269.591 -0.075988 1.95352 0
M  V30 2585 H 268.295 -0.834951 4.01817 0
M  V30 2586 H 267.826 -2.32049 3.17674 0
M  V30 2587 H 269.841 -3.54871 3.46815 0
M  V30 2588 N 269.014 -1.53014 -0.377408 0
M  V30 2589 C 269.962 -1.7927 -1.48206 0
M  V30 2590 C 270.956 -0.661195 -1.55963 0
M  V30 2591 O 272.162 -0.843908 -1.58991 0
M  V30 2592 H 268.537 -0.567425 -0.493491 0
M  V30 2593 H 270.508 -2.71753 -1.2326 0
M  V30 2594 C 269.257 -1.98894 -2.85196 0
M  V30 2595 H 268.58 -2.85395 -2.79981 0
M  V30 2596 H 270.02 -2.21249 -3.61698 0
M  V30 2597 C 268.479 -0.764691 -3.28107 0
M  V30 2598 O 269.009 0.0523226 -4.01666 0
M  V30 2599 N 267.215 -0.591493 -2.84517 0
M  V30 2600 H 266.762 -1.25749 -2.24822 0
M  V30 2601 H 266.72 0.226253 -3.13585 0
M  V30 2602 N 270.492 0.636531 -1.44174 0
M  V30 2603 C 271.717 1.42847 -1.50364 0
M  V30 2604 C 272.142 1.87665 -0.127867 0
M  V30 2605 O 271.5 1.58408 0.88185 0
M  V30 2606 C 271.548 2.62854 -2.4686 0
M  V30 2607 O 270.652 3.62501 -1.9664 0
M  V30 2608 H 269.993 0.427642 -0.507955 0
M  V30 2609 H 272.523 0.777422 -1.89255 0
M  V30 2610 H 272.533 3.10465 -2.64718 0
M  V30 2611 H 271.208 2.29578 -3.46795 0
M  V30 2612 H 269.785 3.21735 -1.88523 0
M  V30 2613 N 271.97 1.30982 0.876444 0
M  V30 2614 C 272.88 1.2003 2.01569 0
M  V30 2615 C 273.896 0.11838 1.73597 0
M  V30 2616 O 275.072 0.33495 1.98595 0
M  V30 2617 C 272.137 0.901637 3.34771 0
M  V30 2618 C 271.198 2.06979 3.76109 0
M  V30 2619 C 270.431 1.78529 5.02954 0
M  V30 2620 O 270.654 0.717296 5.65872 0
M  V30 2621 O 269.588 2.64019 5.40905 0
M  V30 2622 H 273.414 2.15753 2.13739 0
M  V30 2623 H 270.999 1.10658 1.00375 0
M  V30 2624 H 272.881 0.750645 4.1466 0
M  V30 2625 H 271.556 -0.0256141 3.2369 0
M  V30 2626 H 270.463 2.27616 2.96887 0
M  V30 2627 H 271.796 2.97907 3.91807 0
M  V30 2628 N 273.449 -1.08991 1.13837 0
M  V30 2629 C 274.412 -2.13925 0.822715 0
M  V30 2630 C 275.412 -1.599 -0.1699 0
M  V30 2631 O 276.602 -1.74104 0.0577251 0
M  V30 2632 C 273.734 -3.40155 0.225318 0
M  V30 2633 H 274.927 -2.43358 1.75262 0
M  V30 2634 H 272.48 -1.24603 0.943594 0
M  V30 2635 H 273.215 -3.16352 -0.713594 0
M  V30 2636 H 273 -3.80661 0.940193 0
M  V30 2637 H 274.49 -4.17594 0.0214784 0
M  V30 2638 N 274.927 -0.932562 -1.27047 0
M  V30 2639 C 276.152 -0.591474 -1.98787 0
M  V30 2640 C 276.577 0.824601 -1.69062 0
M  V30 2641 O 275.935 1.5541 -0.933677 0
M  V30 2642 C 275.983 -0.829808 -3.50922 0
M  V30 2643 O 275.087 0.102266 -4.12273 0
M  V30 2644 H 274.428 -0.227185 -0.623926 0
M  V30 2645 H 276.958 -1.25314 -1.61733 0
M  V30 2646 H 276.968 -0.747292 -4.01098 0
M  V30 2647 H 275.643 -1.86201 -3.7189 0
M  V30 2648 H 274.22 -0.0305761 -3.72887 0
M  V30 2649 N 276.405 1.4127 -0.698611 0
M  V30 2650 C 277.63 2.06024 -0.238512 0
M  V30 2651 C 278.055 1.5224 1.10475 0
M  V30 2652 O 277.413 0.650623 1.69223 0
M  V30 2653 C 277.461 3.59988 -0.209952 0
M  V30 2654 O 276.565 4.04282 0.814235 0
M  V30 2655 H 275.906 0.653829 -0.115775 0
M  V30 2656 H 278.436 1.8098 -0.954326 0
M  V30 2657 H 278.446 4.07979 -0.0418436 0
M  V30 2658 H 277.121 3.98503 -1.1903 0
M  V30 2659 H 275.698 3.6779 0.615234 0
M  V30 2660 N 277.883 0.443576 1.51229 0
M  V30 2661 C 279.113 -0.119117 2.06256 0
M  V30 2662 C 279.521 -1.36471 1.31043 0
M  V30 2663 O 278.864 -1.80034 0.365151 0
M  V30 2664 C 278.926 -0.500546 3.55998 0
M  V30 2665 C 278.59 0.639125 4.52509 0
M  V30 2666 C 279.587 1.51311 4.97394 0
M  V30 2667 C 277.272 0.821632 4.95535 0
M  V30 2668 C 279.266 2.55425 5.83984 0
M  V30 2669 C 276.953 1.86603 5.81913 0
M  V30 2670 C 277.951 2.73072 6.26036 0
M  V30 2671 O 277.639 3.75718 7.10698 0
M  V30 2672 H 277.371 -0.00857665 0.675946 0
M  V30 2673 H 279.925 0.623288 1.95715 0
M  V30 2674 H 278.155 -1.29575 3.64345 0
M  V30 2675 H 279.844 -0.995116 3.93513 0
M  V30 2676 H 280.61 1.38367 4.64844 0
M  V30 2677 H 276.489 0.158149 4.60729 0
M  V30 2678 H 280.033 3.22949 6.18344 0
M  V30 2679 H 275.93 1.99564 6.13876 0
M  V30 2680 H 276.698 3.72374 7.2889 0
M  V30 2681 N 279.361 -1.56624 0.175154 0
M  V30 2682 C 280.271 -2.21741 -0.766042 0
M  V30 2683 C 281.287 -1.21023 -1.25018 0
M  V30 2684 O 282.463 -1.53697 -1.3015 0
M  V30 2685 C 279.528 -2.84839 -1.97655 0
M  V30 2686 C 278.589 -4.00769 -1.53892 0
M  V30 2687 C 277.822 -4.60849 -2.69173 0
M  V30 2688 O 278.045 -4.19823 -3.86141 0
M  V30 2689 O 276.979 -5.50655 -2.43028 0
M  V30 2690 H 280.805 -3.02738 -0.241585 0
M  V30 2691 H 278.39 -1.49305 -0.053222 0
M  V30 2692 H 280.272 -3.24834 -2.68442 0
M  V30 2693 H 278.947 -2.06836 -2.48999 0
M  V30 2694 H 277.854 -3.65436 -0.80044 0
M  V30 2695 H 279.187 -4.80376 -1.07236 0
M  V30 2696 N 280.839 0.0985539 -1.57292 0
M  V30 2697 C 282.064 0.820196 -1.90493 0
M  V30 2698 C 282.489 1.71658 -0.769094 0
M  V30 2699 O 281.847 1.79133 0.279495 0
M  V30 2700 C 281.895 1.61242 -3.22542 0
M  V30 2701 O 280.999 2.72108 -3.09888 0
M  V30 2702 H 280.34 0.225547 -0.62452 0
M  V30 2703 H 282.87 0.0748159 -2.04463 0
M  V30 2704 H 282.88 1.99737 -3.55766 0
M  V30 2705 H 281.555 0.954535 -4.04798 0
M  V30 2706 H 280.132 2.36667 -2.88172 0
M  V30 2707 N 282.317 1.53212 0.369288 0
M  V30 2708 C 283.265 1.80054 1.47253 0
M  V30 2709 C 284.259 0.669456 1.55611 0
M  V30 2710 O 285.465 0.852328 1.58541 0
M  V30 2711 H 281.84 0.570034 0.490475 0
M  V30 2712 H 283.811 2.72403 1.21817 0
M  V30 2713 C 282.56 2.00403 2.84137 0
M  V30 2714 H 281.883 2.86876 2.78464 0
M  V30 2715 H 283.323 2.23164 3.60519 0
M  V30 2716 C 281.782 0.782081 3.27697 0
M  V30 2717 O 282.312 -0.0310205 4.01688 0
M  V30 2718 N 280.518 0.606573 2.84199 0
M  V30 2719 H 280.065 1.26939 2.24152 0
M  V30 2720 H 280.023 -0.20962 3.137 0
M  V30 2721 N 283.795 -0.628877 1.44509 0
M  V30 2722 C 285.025 -1.41349 1.50678 0
M  V30 2723 C 285.433 -1.88745 0.131075 0
M  V30 2724 O 284.776 -1.61592 -0.87371 0
M  V30 2725 C 284.838 -2.66608 2.41165 0
M  V30 2726 C 284.502 -2.40993 3.88293 0
M  V30 2727 C 285.499 -2.0268 4.78766 0
M  V30 2728 C 283.184 -2.54563 4.33016 0
M  V30 2729 C 285.178 -1.78269 6.11963 0
M  V30 2730 C 282.865 -2.29766 5.6626 0
M  V30 2731 C 283.863 -1.91678 6.55552 0
M  V30 2732 O 283.551 -1.67158 7.86329 0
M  V30 2733 H 283.283 -0.439851 0.51333 0
M  V30 2734 H 285.837 -0.776084 1.90174 0
M  V30 2735 H 284.067 -3.32994 1.96601 0
M  V30 2736 H 285.756 -3.28615 2.38259 0
M  V30 2737 H 286.522 -1.91751 4.45485 0
M  V30 2738 H 282.401 -2.83179 3.63773 0
M  V30 2739 H 285.945 -1.48465 6.81619 0
M  V30 2740 H 281.842 -2.40306 5.99102 0
M  V30 2741 H 282.61 -1.81386 7.98149 0
M  V30 2742 N 285.273 -1.31445 -0.869486 0
M  V30 2743 C 286.498 -1.24256 -1.66058 0
M  V30 2744 C 286.923 0.188928 -1.87149 0
M  V30 2745 O 286.281 1.13522 -1.4136 0
M  V30 2746 C 286.329 -1.9924 -3.00559 0
M  V30 2747 O 285.433 -1.33007 -3.90362 0
M  V30 2748 H 284.774 -0.428973 -0.506831 0
M  V30 2749 H 287.304 -1.73521 -1.08404 0
M  V30 2750 H 287.314 -2.08854 -3.50491 0
M  V30 2751 H 285.989 -3.03342 -2.84528 0
M  V30 2752 H 284.566 -1.31848 -3.48813 0
M  V30 2753 N 286.751 1.08385 -1.14413 0
M  V30 2754 C 287.981 1.8425 -0.934644 0
M  V30 2755 C 288.389 1.81907 0.520234 0
M  V30 2756 O 287.732 1.22126 1.37226 0
M  V30 2757 C 287.794 3.32853 -1.35828 0
M  V30 2758 C 287.458 3.5893 -2.82875 0
M  V30 2759 C 288.455 3.53756 -3.80989 0
M  V30 2760 C 286.14 3.86934 -3.20293 0
M  V30 2761 C 288.134 3.76216 -5.14529 0
M  V30 2762 C 285.821 4.09047 -4.54008 0
M  V30 2763 C 286.819 4.03682 -5.50936 0
M  V30 2764 O 286.507 4.25214 -6.82238 0
M  V30 2765 H 286.239 0.588502 -0.332628 0
M  V30 2766 H 288.793 1.37792 -1.52324 0
M  V30 2767 H 287.023 3.8007 -0.713019 0
M  V30 2768 H 288.712 3.90154 -1.11957 0
M  V30 2769 H 289.478 3.32135 -3.53428 0
M  V30 2770 H 285.357 3.9023 -2.45442 0
M  V30 2771 H 288.901 3.71943 -5.90173 0
M  V30 2772 H 284.798 4.30151 -4.8129 0
M  V30 2773 H 285.566 4.42619 -6.88499 0
M  V30 2774 N 288.23 0.939286 1.26551 0
M  V30 2775 C 289.641 0.628782 1.75793 0
M  V30 2776 C 289.992 -0.856046 1.7654 0
M  V30 2777 O 289.117 -1.66994 1.3763 0
M  V30 2778 C 289.712 1.13465 3.19235 0
M  V30 2779 C 288.271 0.874601 3.66098 0
M  V30 2780 C 287.418 1.28667 2.45642 0
M  V30 2781 H 290.369 1.1178 1.12654 0
M  V30 2782 H 290.39 0.487609 3.77363 0
M  V30 2783 H 289.902 2.21535 3.1866 0
M  V30 2784 H 288.003 -0.191793 3.72106 0
M  V30 2785 H 288.116 1.50028 4.55004 0
M  V30 2786 H 286.48 0.705109 2.44745 0
M  V30 2787 H 287.263 2.37625 2.47769 0
M  V30 2788 N 289.708 -1.40897 0.706093 0
M  V30 2789 C 290.938 -2.05075 0.250523 0
M  V30 2790 C 291.346 -1.53275 -1.10921 0
M  V30 2791 O 290.689 -0.680281 -1.7064 0
M  V30 2792 C 290.751 -3.59219 0.142178 0
M  V30 2793 C 290.415 -4.33864 1.43566 0
M  V30 2794 C 291.412 -4.62448 2.37566 0
M  V30 2795 C 289.097 -4.72946 1.69195 0
M  V30 2796 C 291.091 -5.29088 3.5545 0
M  V30 2797 C 288.778 -5.3932 2.87362 0
M  V30 2798 C 289.776 -5.6732 3.80312 0
M  V30 2799 O 289.464 -6.32325 4.96408 0
M  V30 2800 H 289.196 -0.666645 0.112074 0
M  V30 2801 H 291.75 -1.81467 0.962239 0
M  V30 2802 H 289.98 -3.81609 -0.6254 0
M  V30 2803 H 291.669 -4.0495 -0.277584 0
M  V30 2804 H 292.435 -4.32727 2.19027 0
M  V30 2805 H 288.314 -4.50527 0.977042 0
M  V30 2806 H 291.858 -5.50859 4.28018 0
M  V30 2807 H 287.755 -5.68461 3.05814 0
M  V30 2808 H 288.523 -6.50821 4.9636 0
M  V30 2809 N 291.186 -0.45159 -1.50991 0
M  V30 2810 C 292.149 0.341117 -2.26647 0
M  V30 2811 C 293.149 0.937422 -1.30649 0
M  V30 2812 O 294.339 0.809644 -1.54241 0
M  V30 2813 C 291.471 1.48398 -3.06905 0
M  V30 2814 H 292.664 -0.322117 -2.98165 0
M  V30 2815 H 290.217 -0.205122 -1.54948 0
M  V30 2816 H 290.952 2.18284 -2.39838 0
M  V30 2817 H 290.737 1.06241 -3.77432 0
M  V30 2818 H 292.227 2.04367 -3.64176 0
M  V30 2819 N 292.664 1.56529 -0.183458 0
M  V30 2820 C 293.889 2.02064 0.467428 0
M  V30 2821 C 294.314 1.06282 1.55196 0
M  V30 2822 O 293.672 0.0443565 1.81246 0
M  V30 2823 C 293.72 3.46122 1.01153 0
M  V30 2824 O 292.824 3.53437 2.12499 0
M  V30 2825 H 292.165 0.654726 0.110588 0
M  V30 2826 H 294.695 2.02521 -0.290917 0
M  V30 2827 H 294.705 3.85676 1.33108 0
M  V30 2828 H 293.38 4.15331 0.217533 0
M  V30 2829 H 291.957 3.2575 1.81497 0
M  V30 2830 N 294.142 -0.090211 1.57342 0
M  V30 2831 C 295.553 -0.644173 1.75235 0
M  V30 2832 C 295.904 -1.78865 0.806335 0
M  V30 2833 O 295.029 -2.16395 -0.0140128 0
M  V30 2834 C 295.624 -1.17532 3.1776 0
M  V30 2835 C 294.183 -1.67531 3.37061 0
M  V30 2836 C 293.33 -0.58693 2.71017 0
M  V30 2837 H 296.281 0.135884 1.58117 0
M  V30 2838 H 296.302 -2.04455 3.20902 0
M  V30 2839 H 295.814 -0.342138 3.86589 0
M  V30 2840 H 293.915 -2.53234 2.73319 0
M  V30 2841 H 294.028 -1.76493 4.45406 0
M  V30 2842 H 292.392 -1.02756 2.33052 0
M  V30 2843 H 293.175 0.235758 3.4249 0
M  V30 2844 N 295.62 -1.53406 -0.361157 0
M  V30 2845 C 296.552 -1.76446 -1.46286 0
M  V30 2846 C 297.565 -0.645322 -1.49464 0
M  V30 2847 O 298.754 -0.921681 -1.52864 0
M  V30 2848 C 295.854 -1.83332 -2.85031 0
M  V30 2849 C 295.027 -3.13033 -3.05498 0
M  V30 2850 C 294.086 -3.11104 -4.24383 0
M  V30 2851 O 293.112 -3.84888 -4.19344 0
M  V30 2852 N 294.314 -2.32234 -5.32022 0
M  V30 2853 H 297.079 -2.71508 -1.26899 0
M  V30 2854 H 294.64 -1.52238 -0.550915 0
M  V30 2855 H 296.632 -1.79514 -3.62708 0
M  V30 2856 H 295.202 -0.955342 -2.97644 0
M  V30 2857 H 294.422 -3.30119 -2.15442 0
M  V30 2858 H 295.71 -3.9874 -3.16044 0
M  V30 2859 H 295.108 -1.71807 -5.38979 0
M  V30 2860 H 293.665 -2.3423 -6.08259 0
M  V30 2861 N 297.098 0.621204 -1.44841 0
M  V30 2862 C 298.326 1.40752 -1.51646 0
M  V30 2863 C 298.741 1.88246 -0.144549 0
M  V30 2864 O 298.098 1.61422 0.851416 0
M  V30 2865 C 298.149 2.62119 -2.4895 0
M  V30 2866 O 297.87 2.16602 -3.80808 0
M  V30 2867 C 299.371 3.55135 -2.65319 0
M  V30 2868 H 296.591 0.431325 -0.514004 0
M  V30 2869 H 299.135 0.758835 -1.899 0
M  V30 2870 H 297.29 3.23058 -2.13805 0
M  V30 2871 H 297.704 2.95358 -4.33433 0
M  V30 2872 H 299.178 4.36874 -3.37409 0
M  V30 2873 H 299.655 4.04592 -1.70886 0
M  V30 2874 H 300.261 3.00058 -3.01405 0
M  V30 2875 N 298.576 1.31904 0.862503 0
M  V30 2876 C 299.801 1.25135 1.65397 0
M  V30 2877 C 300.226 -0.179 1.87246 0
M  V30 2878 O 299.584 -1.1277 1.4196 0
M  V30 2879 C 299.632 2.00832 2.99498 0
M  V30 2880 O 298.736 1.35075 3.89652 0
M  V30 2881 H 298.077 0.431655 0.504549 0
M  V30 2882 H 300.607 1.74094 1.07483 0
M  V30 2883 H 300.617 2.10709 3.49379 0
M  V30 2884 H 299.292 3.04847 2.82916 0
M  V30 2885 H 297.869 1.33696 3.48109 0
M  V30 2886 N 300.054 -1.07777 1.14986 0
M  V30 2887 C 301.465 -1.61766 0.932127 0
M  V30 2888 C 301.816 -1.88974 -0.527581 0
M  V30 2889 O 300.941 -1.65198 -1.39781 0
M  V30 2890 C 301.536 -2.93891 1.68563 0
M  V30 2891 C 300.095 -3.44639 1.5133 0
M  V30 2892 C 299.242 -2.18767 1.704 0
M  V30 2893 H 302.193 -0.909201 1.30074 0
M  V30 2894 H 302.214 -3.62623 1.15259 0
M  V30 2895 H 301.726 -2.74057 2.74799 0
M  V30 2896 H 299.827 -3.69564 0.474702 0
M  V30 2897 H 299.94 -4.20966 2.28746 0
M  V30 2898 H 298.304 -2.28253 1.13016 0
M  V30 2899 H 299.087 -2.01433 2.77992 0
M  V30 2900 N 301.532 -0.945985 -1.26051 0
M  V30 2901 C 302.778 -0.606539 -1.94146 0
M  V30 2902 C 303.133 0.84586 -1.72809 0
M  V30 2903 O 302.426 1.59781 -1.05738 0
M  V30 2904 C 302.62 -0.890475 -3.46129 0
M  V30 2905 C 302.449 -2.36892 -3.82246 0
M  V30 2906 C 301.219 -3.02494 -4.04753 0
M  V30 2907 C 303.417 -3.34772 -3.90425 0
M  V30 2908 N 301.399 -4.40302 -4.27794 0
M  V30 2909 C 302.77 -4.57855 -4.18054 0
M  V30 2910 C 304.825 -3.2973 -3.73072 0
M  V30 2911 C 303.528 -5.76522 -4.30134 0
M  V30 2912 C 305.554 -4.47727 -3.86386 0
M  V30 2913 C 304.916 -5.69593 -4.14419 0
M  V30 2914 H 301.015 -0.272407 -0.73302 0
M  V30 2915 H 303.599 -1.21638 -1.52027 0
M  V30 2916 H 301.77 -0.309638 -3.87164 0
M  V30 2917 H 303.502 -0.51181 -4.01451 0
M  V30 2918 H 300.257 -2.53095 -4.003 0
M  V30 2919 H 300.681 -5.11646 -4.43337 0
M  V30 2920 H 305.323 -2.36565 -3.50424 0
M  V30 2921 H 303.041 -6.70136 -4.51601 0
M  V30 2922 H 306.627 -4.45363 -3.74356 0
M  V30 2923 H 305.507 -6.59375 -4.24493 0
M  V30 2924 N 303.011 1.40521 -0.713556 0
M  V30 2925 C 303.943 2.29191 -0.0203126 0
M  V30 2926 C 304.956 1.45723 0.725864 0
M  V30 2927 O 306.145 1.69033 0.573581 0
M  V30 2928 C 303.245 3.2395 0.995486 0
M  V30 2929 C 302.418 4.36262 0.315256 0
M  V30 2930 C 301.477 5.11474 1.23616 0
M  V30 2931 O 300.503 5.64606 0.721719 0
M  V30 2932 N 301.705 5.20638 2.56743 0
M  V30 2933 H 304.47 2.89327 -0.781652 0
M  V30 2934 H 302.031 1.51869 -0.561022 0
M  V30 2935 H 304.023 3.71137 1.61368 0
M  V30 2936 H 302.593 2.64995 1.6582 0
M  V30 2937 H 301.813 3.91228 -0.483106 0
M  V30 2938 H 303.101 5.08558 -0.157004 0
M  V30 2939 H 302.499 4.7895 3.01037 0
M  V30 2940 H 301.056 5.71339 3.13712 0
M  V30 2941 N 304.489 0.459591 1.5075 0
M  V30 2942 C 305.714 -0.0996819 2.0716 0
M  V30 2943 C 306.139 -1.33761 1.32249 0
M  V30 2944 O 305.497 -1.77551 0.366786 0
M  V30 2945 C 305.545 -0.378226 3.58611 0
M  V30 2946 O 304.649 -1.46081 3.85661 0
M  V30 2947 H 303.99 0.00791392 0.663953 0
M  V30 2948 H 306.52 0.647329 1.9409 0
M  V30 2949 H 306.53 -0.622135 4.03229 0
M  V30 2950 H 305.205 0.526439 4.12555 0
M  V30 2951 H 303.782 -1.20511 3.5289 0
M  V30 2952 N 305.967 -1.56429 0.191757 0
M  V30 2953 C 307.378 -1.83912 -0.321428 0
M  V30 2954 C 307.729 -1.11231 -1.61623 0
M  V30 2955 O 306.854 -0.37202 -2.13178 0
M  V30 2956 C 307.449 -3.33624 -0.589961 0
M  V30 2957 C 306.008 -3.6153 -1.04753 0
M  V30 2958 C 305.155 -2.7714 -0.0943327 0
M  V30 2959 H 308.106 -1.53161 0.415612 0
M  V30 2960 H 308.127 -3.52213 -1.43966 0
M  V30 2961 H 307.639 -3.86495 0.352588 0
M  V30 2962 H 305.74 -3.14089 -2.00447 0
M  V30 2963 H 305.853 -4.69737 -0.942549 0
M  V30 2964 H 304.217 -2.47638 -0.595589 0
M  V30 2965 H 305 -3.32799 0.842601 0
M  V30 2966 N 307.445 0.0818655 -1.57387 0
M  V30 2967 C 308.685 0.788375 -1.88584 0
M  V30 2968 C 309.049 1.75248 -0.784351 0
M  V30 2969 O 310.25 2.50334 -0.979105 0
M  V30 2970 C 308.521 1.48654 -3.25018 0
M  V30 2971 S 310.08 2.22951 -3.7794 0
M  V30 2972 H 306.898 0.262383 -0.660815 0
M  V30 2973 H 309.5 0.0448995 -1.95448 0
M  V30 2974 H 308.204 0.770919 -4.03094 0
M  V30 2975 H 307.735 2.26965 -3.21326 0
M  V30 2976 H 309.75 3.49309 -3.52417 0
M  V30 2977 N 308.923 1.53595 0.353017 0
M  V30 2978 C 310.169 1.70638 1.09593 0
M  V30 2979 C 310.502 0.463286 1.88593 0
M  V30 2980 O 309.777 -0.539597 1.86865 0
M  V30 2981 C 310.06 2.96406 2.04489 0
M  V30 2982 C 309.913 4.30901 1.29014 0
M  V30 2983 C 311.232 3.17812 3.0444 0
M  V30 2984 H 308.351 0.620913 0.397034 0
M  V30 2985 H 310.993 1.86254 0.375446 0
M  V30 2986 H 309.143 2.83223 2.65927 0
M  V30 2987 H 310.815 4.55917 0.702638 0
M  V30 2988 H 309.058 4.29741 0.592071 0
M  V30 2989 H 309.729 5.1506 1.98537 0
M  V30 2990 H 312.205 3.30263 2.53112 0
M  V30 2991 H 311.081 4.07223 3.6805 0
M  V30 2992 H 311.342 2.33669 3.75301 0
M  V30 2993 N 310.401 -0.613514 1.45168 0
M  V30 2994 C 311.626 -1.40437 1.52618 0
M  V30 2995 C 312.051 -1.87438 0.157707 0
M  V30 2996 O 311.409 -1.59791 -0.856537 0
M  V30 2997 C 311.457 -2.58894 2.51011 0
M  V30 2998 O 310.561 -3.59326 2.02382 0
M  V30 2999 H 309.902 -0.419506 0.514695 0
M  V30 3000 H 312.432 -0.747215 1.90467 0
M  V30 3001 H 312.442 -3.06214 2.69624 0
M  V30 3002 H 311.117 -2.24032 3.50403 0
M  V30 3003 H 309.694 -3.18695 1.93618 0
M  V30 3004 N 311.879 -1.3236 -0.855495 0
M  V30 3005 C 313.29 -1.2056 -1.42556 0
M  V30 3006 C 313.641 0.182209 -1.95352 0
M  V30 3007 O 312.766 1.08088 -1.87472 0
M  V30 3008 C 313.361 -2.1826 -2.59129 0
M  V30 3009 C 311.92 -2.10351 -3.12137 0
M  V30 3010 C 311.067 -2.06674 -1.84882 0
M  V30 3011 H 314.018 -1.442 -0.662727 0
M  V30 3012 H 314.039 -1.78064 -3.36264 0
M  V30 3013 H 313.551 -3.19257 -2.20673 0
M  V30 3014 H 311.652 -1.12599 -3.55179 0
M  V30 3015 H 311.765 -3.00135 -3.73438 0
M  V30 3016 H 310.129 -1.51901 -2.04446 0
M  V30 3017 H 310.912 -3.09451 -1.48643 0
M  V30 3018 N 313.357 1.07166 -1.15556 0
M  V30 3019 C 314.304 2.14417 -0.854055 0
M  V30 3020 C 315.274 1.64965 0.193806 0
M  V30 3021 O 316.459 1.90703 0.0609443 0
M  V30 3022 C 313.599 3.43304 -0.351574 0
M  V30 3023 C 312.712 4.06537 -1.46123 0
M  V30 3024 C 311.847 5.23266 -0.914677 0
M  V30 3025 C 310.886 5.78464 -2.00114 0
M  V30 3026 N 310.023 6.86521 -1.47083 0
M  V30 3027 H 314.863 2.39548 -1.77259 0
M  V30 3028 H 312.4 1.17543 -0.884425 0
M  V30 3029 H 314.358 4.17179 -0.0419409 0
M  V30 3030 H 312.988 3.18419 0.530037 0
M  V30 3031 H 312.04 3.30297 -1.88701 0
M  V30 3032 H 313.352 4.43567 -2.28144 0
M  V30 3033 H 312.506 6.04131 -0.557698 0
M  V30 3034 H 311.245 4.87658 -0.0636583 0
M  V30 3035 H 310.25 4.96243 -2.36692 0
M  V30 3036 H 311.475 6.16126 -2.85597 0
M  V30 3037 H 309.421 6.52849 -0.642198 0
M  V30 3038 H 309.338 7.22446 -2.22729 0
M  V30 3039 H 310.606 7.71087 -1.14215 0
M  V30 3040 N 314.835 0.952656 1.25548 0
M  V30 3041 C 316.063 0.623496 1.97282 0
M  V30 3042 C 316.478 -0.803987 1.70826 0
M  V30 3043 O 315.835 -1.53755 0.983147 0
M  V30 3044 C 315.886 0.870209 3.5087 0
M  V30 3045 O 315.607 2.24156 3.76412 0
M  V30 3046 C 317.108 0.553164 4.39835 0
M  V30 3047 H 314.328 0.233931 0.628902 0
M  V30 3048 H 316.872 1.27649 1.59768 0
M  V30 3049 H 315.027 0.263652 3.86502 0
M  V30 3050 H 315.441 2.31021 4.70882 0
M  V30 3051 H 316.915 0.776342 5.46513 0
M  V30 3052 H 317.392 -0.512215 4.36203 0
M  V30 3053 H 317.998 1.13896 4.09766 0
M  V30 3054 N 316.313 -1.40141 0.720998 0
M  V30 3055 C 317.541 -2.05096 0.272656 0
M  V30 3056 C 317.956 -1.54334 -1.0875 0
M  V30 3057 O 317.313 -0.702211 -1.6845 0
M  V30 3058 C 317.364 -3.60636 0.249835 0
M  V30 3059 O 317.085 -4.09526 1.55629 0
M  V30 3060 C 318.586 -4.42772 -0.216396 0
M  V30 3061 H 315.806 -0.659897 0.121558 0
M  V30 3062 H 318.35 -1.79449 0.980723 0
M  V30 3063 H 316.505 -3.85232 -0.409237 0
M  V30 3064 H 316.919 -5.03758 1.4604 0
M  V30 3065 H 318.393 -5.51702 -0.181212 0
M  V30 3066 H 318.87 -4.20756 -1.25941 0
M  V30 3067 H 319.476 -4.23294 0.412596 0
M  V30 3068 N 317.792 -0.46758 -1.50504 0
M  V30 3069 C 319.069 0.15003 -1.95024 0
M  V30 3070 C 319.449 1.57304 -1.40779 0
M  V30 3071 O 318.797 2.20281 -0.607319 0
M  V30 3072 C 319.007 0.0969324 -3.48865 0
M  V30 3073 C 320.355 0.287565 -4.23625 0
M  V30 3074 O 321.379 0.173678 -3.55776 0
M  V30 3075 O 320.238 0.517186 -5.44047 0
M  V30 3076 H 317.332 0.113582 -0.819163 0
M  V30 3077 H 319.878 -0.52773 -1.61286 0
M  V30 3078 H 318.65 -0.896732 -3.80886 0
M  V30 3079 H 318.273 0.816303 -3.8913 0
M  V30 3080 N 319.27 1.56325 -0.20005 0
M  V30 3081 C 320.681 1.8408 0.31167 0
M  V30 3082 C 321.032 1.12087 1.61031 0
M  V30 3083 O 320.157 0.38332 2.12978 0
M  V30 3084 C 320.752 3.33932 0.57226 0
M  V30 3085 C 319.311 3.6208 1.02834 0
M  V30 3086 C 318.458 2.77186 0.079634 0
M  V30 3087 H 321.409 1.52939 -0.423729 0
M  V30 3088 H 321.43 3.52971 1.42096 0
M  V30 3089 H 320.942 3.86303 -0.37308 0
M  V30 3090 H 319.043 3.15147 1.98778 0
M  V30 3091 H 319.156 4.7023 0.917624 0
M  V30 3092 H 317.52 2.47951 0.582448 0
M  V30 3093 H 318.303 3.32347 -0.860238 0
M  V30 3094 N 320.748 -0.0735177 1.57428 0
M  V30 3095 C 321.658 -1.10547 2.06922 0
M  V30 3096 C 322.674 -1.42506 0.998402 0
M  V30 3097 O 323.85 -1.52717 1.31299 0
M  V30 3098 C 320.915 -2.40019 2.50184 0
M  V30 3099 C 319.976 -2.15046 3.71556 0
M  V30 3100 C 319.209 -3.38345 4.12745 0
M  V30 3101 O 319.432 -4.47399 3.53822 0
M  V30 3102 O 318.366 -3.2666 5.05546 0
M  V30 3103 H 322.192 -0.715013 2.95163 0
M  V30 3104 H 319.777 -0.287531 1.46607 0
M  V30 3105 H 321.659 -3.16218 2.78539 0
M  V30 3106 H 320.334 -2.78447 1.65072 0
M  V30 3107 H 319.241 -1.36558 3.48285 0
M  V30 3108 H 320.574 -1.81499 4.57514 0
M  V30 3109 N 322.226 -1.5378 -0.344866 0
M  V30 3110 C 323.136 -1.84667 -1.4469 0
M  V30 3111 C 324.152 -0.736704 -1.57635 0
M  V30 3112 O 325.328 -1.02888 -1.73136 0
M  V30 3113 C 322.393 -2.04869 -2.79696 0
M  V30 3114 C 321.454 -3.28731 -2.76106 0
M  V30 3115 C 320.687 -3.4796 -4.04673 0
M  V30 3116 O 320.91 -2.71052 -5.01883 0
M  V30 3117 O 319.844 -4.41383 -4.09224 0
M  V30 3118 H 323.67 -2.78334 -1.21506 0
M  V30 3119 H 321.255 -1.39418 -0.536921 0
M  V30 3120 H 323.137 -2.19609 -3.59652 0
M  V30 3121 H 321.812 -1.14391 -3.02814 0
M  V30 3122 H 320.719 -3.19396 -1.94774 0
M  V30 3123 H 322.052 -4.19198 -2.57941 0
M  V30 3124 N 323.704 0.605807 -1.45491 0
M  V30 3125 C 324.952 1.36207 -1.49305 0
M  V30 3126 C 325.273 1.94519 -0.136863 0
M  V30 3127 O 324.543 1.77261 0.833983 0
M  V30 3128 H 323.123 0.50565 -0.549843 0
M  V30 3129 H 325.785 0.711239 -1.81459 0
M  V30 3130 H 324.881 2.18058 -2.23287 0
M  V30 3131 N 325.182 1.32811 0.848464 0
M  V30 3132 C 326.429 1.23724 1.60308 0
M  V30 3133 C 326.757 -0.1994 1.93475 0
M  V30 3134 O 326.012 -1.15406 1.5805 0
M  V30 3135 C 326.311 2.04831 2.92881 0
M  V30 3136 C 325.977 3.54125 2.79117 0
M  V30 3137 C 324.639 3.94829 2.7507 0
M  V30 3138 C 326.991 4.49036 2.64606 0
M  V30 3139 C 324.319 5.28675 2.544 0
M  V30 3140 C 326.671 5.83033 2.4547 0
M  V30 3141 C 325.335 6.22931 2.39819 0
M  V30 3142 H 324.605 0.452737 0.586609 0
M  V30 3143 H 327.252 1.64301 0.983743 0
M  V30 3144 H 325.557 1.57001 3.58968 0
M  V30 3145 H 327.254 1.95164 3.50303 0
M  V30 3146 H 323.844 3.21801 2.83094 0
M  V30 3147 H 328.028 4.18505 2.66772 0
M  V30 3148 H 323.284 5.58637 2.48465 0
M  V30 3149 H 327.458 6.56186 2.33222 0
M  V30 3150 H 325.085 7.26584 2.23562 0
M  V30 3151 N 326.66 -1.06551 1.16123 0
M  V30 3152 C 328.071 -1.60768 0.949232 0
M  V30 3153 C 328.422 -1.89523 -0.507508 0
M  V30 3154 O 327.547 -1.66671 -1.38021 0
M  V30 3155 C 328.142 -2.92086 1.71671 0
M  V30 3156 C 326.701 -3.43015 1.54977 0
M  V30 3157 C 325.848 -2.16947 1.72711 0
M  V30 3158 H 328.799 -0.895354 1.31031 0
M  V30 3159 H 328.82 -3.6138 1.19099 0
M  V30 3160 H 328.332 -2.71127 2.7769 0
M  V30 3161 H 326.433 -3.69039 0.513873 0
M  V30 3162 H 326.546 -4.18516 2.33198 0
M  V30 3163 H 324.91 -2.27041 1.15431 0
M  V30 3164 H 325.693 -1.98473 2.80113 0
M  V30 3165 N 328.138 -0.959301 -1.25041 0
M  V30 3166 C 329.554 -0.664474 -1.4511 0
M  V30 3167 C 329.754 0.776481 -1.85938 0
M  V30 3168 O 328.81 1.55128 -1.99227 0
M  V30 3169 C 330.123 -1.64139 -2.5195 0
M  V30 3170 C 331.671 -1.65309 -2.65786 0
M  V30 3171 C 332.146 -2.61777 -3.75815 0
M  V30 3172 N 333.637 -2.60169 -3.83231 0
M  V30 3173 C 334.372 -3.31489 -4.6787 0
M  V30 3174 N 333.868 -4.12298 -5.56761 0
M  V30 3175 N 335.661 -3.20354 -4.61876 0
M  V30 3176 H 327.812 -1.89043 -0.968332 0
M  V30 3177 H 330.075 -0.813408 -0.4869 0
M  V30 3178 H 329.781 -2.67086 -2.28819 0
M  V30 3179 H 329.655 -1.40756 -3.49954 0
M  V30 3180 H 332.042 -0.630778 -2.8828 0
M  V30 3181 H 332.123 -1.92753 -1.68167 0
M  V30 3182 H 331.767 -3.64137 -3.54071 0
M  V30 3183 H 331.697 -2.31616 -4.72929 0
M  V30 3184 H 334.188 -2.01507 -3.19692 0
M  V30 3185 H 334.501 -4.63625 -6.18281 0
M  V30 3186 H 332.846 -4.16395 -5.56454 0
M  V30 3187 H 336.037 -2.56692 -3.91442 0
M  V30 3188 H 336.21 -3.76201 -5.27614 0
M  V30 3189 N 329.616 1.39756 -0.72842 0
M  V30 3190 C 330.864 2.00248 -0.272946 0
M  V30 3191 C 331.185 1.58077 1.14178 0
M  V30 3192 O 330.455 0.826014 1.77634 0
M  V30 3193 H 329.035 0.740554 -0.0979247 0
M  V30 3194 H 331.697 1.70903 -0.936912 0
M  V30 3195 H 330.793 3.10495 -0.316142 0
M  V30 3196 N 331.094 0.475555 1.50254 0
M  V30 3197 C 332.024 -0.30611 2.31485 0
M  V30 3198 C 333.005 -0.986228 1.38591 0
M  V30 3199 O 334.19 -0.982541 1.67511 0
M  V30 3200 C 331.32 -1.38588 3.1845 0
M  V30 3201 C 330.274 -0.827115 4.19932 0
M  V30 3202 C 329.6 -2.00551 4.95665 0
M  V30 3203 C 330.9 0.16463 5.2204 0
M  V30 3204 H 332.594 0.371866 2.97082 0
M  V30 3205 H 330.14 0.180282 1.42867 0
M  V30 3206 H 332.093 -1.94023 3.74076 0
M  V30 3207 H 330.817 -2.09269 2.50747 0
M  V30 3208 H 329.476 -0.294702 3.65414 0
M  V30 3209 H 329.124 -2.6994 4.2443 0
M  V30 3210 H 328.824 -1.63784 5.64313 0
M  V30 3211 H 330.348 -2.56468 5.54127 0
M  V30 3212 H 331.762 -0.300699 5.72511 0
M  V30 3213 H 330.159 0.446813 5.98434 0
M  V30 3214 H 331.229 1.08905 4.72512 0
M  V30 3215 N 332.573 -1.56217 0.208337 0
M  V30 3216 C 333.821 -1.97558 -0.426076 0
M  V30 3217 C 334.142 -1.09683 -1.61229 0
M  V30 3218 O 333.412 -0.170956 -1.95153 0
M  V30 3219 H 331.992 -0.729575 -0.160405 0
M  V30 3220 H 334.654 -1.92606 0.298155 0
M  V30 3221 H 333.75 -3.02672 -0.761312 0
M  V30 3222 N 334.051 0.0651679 -1.57465 0
M  V30 3223 C 335.014 1.06117 -2.03155 0
M  V30 3224 C 336.014 1.31204 -0.929632 0
M  V30 3225 O 337.204 1.26813 -1.19432 0
M  V30 3226 C 334.336 2.4032 -2.41783 0
M  V30 3227 H 335.529 0.667231 -2.92383 0
M  V30 3228 H 333.082 0.311075 -1.53173 0
M  V30 3229 H 333.817 2.84532 -1.55601 0
M  V30 3230 H 333.602 2.23451 -3.22199 0
M  V30 3231 H 335.092 3.11898 -2.77685 0
M  V30 3232 N 335.529 1.53961 0.336706 0
M  V30 3233 C 336.769 1.73254 1.08454 0
M  V30 3234 C 337.133 0.488937 1.8567 0
M  V30 3235 O 338.334 0.559001 2.62923 0
M  V30 3236 C 336.605 2.96519 1.99528 0
M  V30 3237 S 338.164 3.36655 2.81441 0
M  V30 3238 H 334.982 0.609353 0.366347 0
M  V30 3239 H 337.584 1.92117 0.362124 0
M  V30 3240 H 336.288 3.85193 1.41614 0
M  V30 3241 H 335.819 2.80142 2.76196 0
M  V30 3242 H 337.834 2.90925 4.01967 0
M  V30 3243 N 337.007 -0.598083 1.45811 0
M  V30 3244 C 338.235 -1.38322 1.53866 0
M  V30 3245 C 338.65 -1.87992 0.174479 0
M  V30 3246 O 338.007 -1.62756 -0.825627 0
M  V30 3247 C 338.058 -2.58125 2.53089 0
M  V30 3248 O 337.779 -2.10516 3.84206 0
M  V30 3249 C 339.28 -3.50869 2.70935 0
M  V30 3250 H 336.5 -0.423093 0.520801 0
M  V30 3251 H 339.044 -0.728527 1.91083 0
M  V30 3252 H 337.199 -3.19615 2.18917 0
M  V30 3253 H 337.613 -2.88425 4.38077 0
M  V30 3254 H 339.087 -4.31451 3.44317 0
M  V30 3255 H 339.564 -4.01822 1.77301 0
M  V30 3256 H 340.17 -2.95225 3.06141 0
M  V30 3257 N 338.485 -1.33259 -0.841409 0
M  V30 3258 C 339.415 -1.25926 -1.96634 0
M  V30 3259 C 340.396 -0.140349 -1.6952 0
M  V30 3260 O 341.581 -0.329707 -1.91381 0
M  V30 3261 C 338.711 -0.99512 -3.32738 0
M  V30 3262 C 337.665 -2.0767 -3.74242 0
M  V30 3263 C 336.991 -1.66474 -5.08125 0
M  V30 3264 C 338.291 -3.49318 -3.88297 0
M  V30 3265 H 339.985 -2.20046 -2.03027 0
M  V30 3266 H 337.531 -1.05931 -0.975425 0
M  V30 3267 H 339.484 -0.930323 -4.11002 0
M  V30 3268 H 338.208 -0.0183004 -3.26595 0
M  V30 3269 H 336.867 -2.13187 -2.98239 0
M  V30 3270 H 336.515 -0.675012 -4.9845 0
M  V30 3271 H 336.215 -2.3885 -5.36865 0
M  V30 3272 H 337.739 -1.61455 -5.88867 0
M  V30 3273 H 339.153 -3.46316 -4.56879 0
M  V30 3274 H 337.55 -4.20158 -4.28471 0
M  V30 3275 H 338.62 -3.8801 -2.9082 0
M  V30 3276 N 339.963 1.05934 -1.16686 0
M  V30 3277 C 340.893 2.1546 -0.899949 0
M  V30 3278 C 341.874 1.69391 0.155154 0
M  V30 3279 O 343.059 1.94199 0.00648693 0
M  V30 3280 C 340.189 3.44939 -0.404241 0
M  V30 3281 C 339.143 4.04536 -1.39767 0
M  V30 3282 C 338.469 5.29268 -0.760216 0
M  V30 3283 C 339.769 4.42893 -2.76845 0
M  V30 3284 H 341.463 2.38046 -1.81588 0
M  V30 3285 H 339.009 1.14404 -0.874514 0
M  V30 3286 H 340.962 4.20901 -0.204971 0
M  V30 3287 H 339.686 3.21983 0.547206 0
M  V30 3288 H 338.345 3.30635 -1.58355 0
M  V30 3289 H 337.993 5.02611 0.197831 0
M  V30 3290 H 337.693 5.70101 -1.42332 0
M  V30 3291 H 339.217 6.07924 -0.57105 0
M  V30 3292 H 340.631 5.09921 -2.62019 0
M  V30 3293 H 339.028 4.94721 -3.39663 0
M  V30 3294 H 340.098 3.53584 -3.31823 0
M  V30 3295 N 341.441 0.965919 1.2453 0
M  V30 3296 C 342.689 0.625593 1.92174 0
M  V30 3297 C 343.01 -0.841652 1.75901 0
M  V30 3298 O 342.28 -1.60061 1.12948 0
M  V30 3299 H 340.86 0.228388 0.71123 0
M  V30 3300 H 343.522 1.2266 1.51461 0
M  V30 3301 H 342.618 0.864653 2.99884 0
M  V30 3302 N 342.919 -1.39368 0.735821 0
M  V30 3303 C 344.144 -2.05319 0.293052 0
M  V30 3304 C 344.569 -1.55115 -1.064 0
M  V30 3305 O 343.927 -0.695261 -1.67439 0
M  V30 3306 C 343.975 -3.59305 0.305323 0
M  V30 3307 O 343.079 -4.06299 -0.706761 0
M  V30 3308 H 342.42 -0.650529 0.13307 0
M  V30 3309 H 344.95 -1.78386 1.00197 0
M  V30 3310 H 344.96 -4.07724 0.149997 0
M  V30 3311 H 343.635 -3.95207 1.29553 0
M  V30 3312 H 342.212 -3.69292 -0.517504 0
M  V30 3313 N 344.397 -0.483516 -1.5 0
M  V30 3314 C 345.808 -0.0314176 -1.86674 0
M  V30 3315 C 346.159 1.37728 -1.39733 0
M  V30 3316 O 345.284 2.02327 -0.767635 0
M  V30 3317 C 345.879 -0.0502376 -3.38763 0
M  V30 3318 C 344.438 0.346442 -3.74802 0
M  V30 3319 C 343.585 -0.430366 -2.7394 0
M  V30 3320 H 346.536 -0.697182 -1.42566 0
M  V30 3321 H 346.557 0.749116 -3.73053 0
M  V30 3322 H 346.069 -1.07563 -3.72897 0
M  V30 3323 H 344.17 1.37572 -3.46273 0
M  V30 3324 H 344.283 0.0391486 -4.79084 0
M  V30 3325 H 342.647 0.117557 -2.54429 0
M  V30 3326 H 343.43 -1.4555 -3.10918 0
M  V30 3327 N 345.875 1.56104 -0.216619 0
M  V30 3328 C 347.291 1.58995 0.13886 0
M  V30 3329 C 347.491 1.23333 1.59346 0
M  V30 3330 O 346.547 0.966234 2.33281 0
M  V30 3331 C 347.86 3.00143 -0.182968 0
M  V30 3332 C 349.408 3.12751 -0.124807 0
M  V30 3333 C 349.883 4.56068 -0.420241 0
M  V30 3334 N 351.374 4.61723 -0.369634 0
M  V30 3335 C 352.109 5.70542 -0.571789 0
M  V30 3336 N 351.605 6.87744 -0.835453 0
M  V30 3337 N 353.398 5.59831 -0.504563 0
M  V30 3338 H 345.549 1.77562 -1.16557 0
M  V30 3339 H 347.812 0.825091 -0.466828 0
M  V30 3340 H 347.518 3.30871 -1.19237 0
M  V30 3341 H 347.392 3.73813 0.504367 0
M  V30 3342 H 349.779 2.81822 0.875223 0
M  V30 3343 H 349.86 2.41421 -0.845544 0
M  V30 3344 H 349.504 4.87713 -1.41769 0
M  V30 3345 H 349.434 5.25617 0.321631 0
M  V30 3346 H 351.925 3.77502 -0.173338 0
M  V30 3347 H 352.238 7.66587 -0.977938 0
M  V30 3348 H 350.583 6.895 -0.872592 0
M  V30 3349 H 353.774 4.67145 -0.298842 0
M  V30 3350 H 353.947 6.44573 -0.665519 0
M  V30 3351 N 347.353 -0.0568162 1.57498 0
M  V30 3352 C 348.303 -1.07315 2.01166 0
M  V30 3353 C 349.287 -1.33632 0.896171 0
M  V30 3354 O 350.479 -1.33682 1.16009 0
M  V30 3355 C 347.608 -2.38257 2.47161 0
M  V30 3356 C 346.694 -2.1515 3.65474 0
M  V30 3357 N 347.085 -1.62014 4.7915 0
M  V30 3358 C 345.383 -2.45559 3.72313 0
M  V30 3359 C 346.084 -1.54069 5.60926 0
M  V30 3360 N 345.06 -2.00652 5.05213 0
M  V30 3361 H 348.862 -0.655878 2.86488 0
M  V30 3362 H 346.376 -0.263635 1.60246 0
M  V30 3363 H 348.373 -3.11845 2.76691 0
M  V30 3364 H 347.033 -2.80687 1.63232 0
M  V30 3365 H 348.044 -1.30667 5.01145 0
M  V30 3366 H 344.721 -2.91253 2.99129 0
M  V30 3367 H 346.111 -1.13712 6.62208 0
M  V30 3368 N 348.832 -1.54138 -0.328536 0
M  V30 3369 C 350.057 -1.76378 -1.09112 0
M  V30 3370 C 350.482 -0.508596 -1.81094 0
M  V30 3371 O 349.84 0.539598 -1.73084 0
M  V30 3372 C 349.888 -2.95358 -2.06872 0
M  V30 3373 O 348.992 -2.66556 -3.14677 0
M  V30 3374 H 348.333 -0.584614 -0.314838 0
M  V30 3375 H 350.863 -2.01146 -0.374348 0
M  V30 3376 H 350.873 -3.22566 -2.4983 0
M  V30 3377 H 349.548 -3.86385 -1.5388 0
M  V30 3378 H 348.125 -2.50282 -2.7643 0
M  V30 3379 N 350.31 0.590341 -1.46126 0
M  V30 3380 C 351.721 1.17243 -1.45296 0
M  V30 3381 C 352.072 1.95281 -0.189723 0
M  V30 3382 O 351.197 2.04502 0.707674 0
M  V30 3383 C 351.792 2.13284 -2.6324 0
M  V30 3384 C 350.351 2.66832 -2.65476 0
M  V30 3385 C 349.498 1.42557 -2.3785 0
M  V30 3386 H 352.449 0.378692 -1.54116 0
M  V30 3387 H 352.47 2.96619 -2.38323 0
M  V30 3388 H 351.982 1.56459 -3.55165 0
M  V30 3389 H 350.083 3.27548 -1.77603 0
M  V30 3390 H 350.196 3.10088 -3.65215 0
M  V30 3391 H 348.56 1.72107 -1.87753 0
M  V30 3392 H 349.343 0.875741 -3.31942 0
M  V30 3393 N 351.788 1.33704 0.83433 0
M  V30 3394 C 353.013 1.28615 1.62705 0
M  V30 3395 C 353.438 -0.139242 1.87584 0
M  V30 3396 O 352.796 -1.09734 1.4432 0
M  V30 3397 C 352.844 2.07139 2.95171 0
M  V30 3398 O 351.948 1.4331 3.86699 0
M  V30 3399 H 351.289 0.44226 0.49528 0
M  V30 3400 H 353.819 1.76335 1.03766 0
M  V30 3401 H 353.829 2.18073 3.44831 0
M  V30 3402 H 352.504 3.10779 2.76386 0
M  V30 3403 H 351.081 1.4105 3.45195 0
M  V30 3404 N 353.266 -1.05314 1.17247 0
M  V30 3405 C 354.494 -1.81971 0.984593 0
M  V30 3406 C 354.909 -1.82929 -0.467166 0
M  V30 3407 O 354.266 -1.25564 -1.32438 0
M  V30 3408 C 354.317 -3.28143 1.51672 0
M  V30 3409 O 354.038 -3.27347 2.91163 0
M  V30 3410 C 355.539 -4.21493 1.37326 0
M  V30 3411 H 352.759 -0.573455 0.348411 0
M  V30 3412 H 355.303 -1.32808 1.55506 0
M  V30 3413 H 353.458 -3.74582 0.988302 0
M  V30 3414 H 353.872 -4.18824 3.15732 0
M  V30 3415 H 355.346 -5.22043 1.79375 0
M  V30 3416 H 355.823 -4.38031 0.320169 0
M  V30 3417 H 356.429 -3.80909 1.89178 0
M  V30 3418 N 354.744 -0.972509 -1.24016 0
M  V30 3419 C 355.969 -0.654417 -1.96805 0
M  V30 3420 C 356.394 0.770398 -1.716 0
M  V30 3421 O 355.752 1.52361 -0.982647 0
M  V30 3422 C 355.8 -0.941031 -3.48105 0
M  V30 3423 O 354.904 -0.0289472 -4.1239 0
M  V30 3424 H 354.245 -0.24692 -0.616382 0
M  V30 3425 H 356.775 -1.30396 -1.57664 0
M  V30 3426 H 356.785 -0.87452 -3.98517 0
M  V30 3427 H 355.46 -1.97939 -3.65777 0
M  V30 3428 H 354.037 -0.149192 -3.72601 0
M  V30 3429 N 356.222 1.38976 -0.743202 0
M  V30 3430 C 357.633 1.83123 -0.363732 0
M  V30 3431 C 357.984 1.6205 1.10609 0
M  V30 3432 O 357.109 1.11606 1.854 0
M  V30 3433 C 357.704 3.32439 -0.653408 0
M  V30 3434 C 356.263 3.74974 -0.327338 0
M  V30 3435 C 355.41 2.61878 -0.911875 0
M  V30 3436 H 358.361 1.27852 -0.940191 0
M  V30 3437 H 358.382 3.80432 0.0720031 0
M  V30 3438 H 357.894 3.47745 -1.72323 0
M  V30 3439 H 355.995 3.65252 0.736314 0
M  V30 3440 H 356.108 4.72106 -0.815631 0
M  V30 3441 H 354.472 2.52448 -0.337944 0
M  V30 3442 H 355.255 2.79987 -1.98651 0
M  V30 3443 N 357.7 0.491464 1.49741 0
M  V30 3444 C 359.116 0.146835 1.58923 0
M  V30 3445 C 359.316 -1.34804 1.49767 0
M  V30 3446 O 358.372 -2.12317 1.36667 0
M  V30 3447 C 359.685 0.715157 2.92072 0
M  V30 3448 C 361.233 0.680407 3.05515 0
M  V30 3449 C 361.708 1.22663 4.41269 0
M  V30 3450 N 363.199 1.18691 4.47735 0
M  V30 3451 C 363.934 1.57984 5.51207 0
M  V30 3452 N 363.43 2.04824 6.6183 0
M  V30 3453 N 365.223 1.49459 5.41866 0
M  V30 3454 H 357.374 1.46347 1.53936 0
M  V30 3455 H 359.637 0.606453 0.728642 0
M  V30 3456 H 359.343 1.76317 3.04311 0
M  V30 3457 H 359.217 0.17018 3.76816 0
M  V30 3458 H 361.604 -0.358743 2.92911 0
M  V30 3459 H 361.685 1.26242 2.22478 0
M  V30 3460 H 361.329 2.26451 4.54623 0
M  V30 3461 H 361.259 0.620637 5.2293 0
M  V30 3462 H 363.75 0.843605 3.68364 0
M  V30 3463 H 364.063 2.32901 7.3687 0
M  V30 3464 H 362.408 2.08791 6.62896 0
M  V30 3465 H 365.599 1.12692 4.54333 0
M  V30 3466 H 365.772 1.80406 6.22381 0
M  V30 3467 N 359.178 -1.55987 0.224894 0
M  V30 3468 C 360.141 -2.19178 -0.670348 0
M  V30 3469 C 361.141 -1.15461 -1.11917 0
M  V30 3470 O 362.331 -1.40675 -1.02743 0
M  V30 3471 C 359.463 -2.81777 -1.9187 0
M  V30 3472 H 360.656 -2.99662 -0.119364 0
M  V30 3473 H 358.209 -1.5628 -0.0247128 0
M  V30 3474 H 358.944 -2.05172 -2.51147 0
M  V30 3475 H 358.729 -3.57732 -1.60531 0
M  V30 3476 H 360.219 -3.30205 -2.55645 0
M  V30 3477 N 360.656 0.0484629 -1.57525 0
M  V30 3478 C 361.881 0.759177 -1.93006 0
M  V30 3479 C 362.306 1.69125 -0.823317 0
M  V30 3480 O 361.664 1.79931 0.222364 0
M  V30 3481 C 361.712 1.50899 -3.27509 0
M  V30 3482 O 360.816 2.62112 -3.18388 0
M  V30 3483 H 360.157 0.205564 -0.631379 0
M  V30 3484 H 362.687 0.00972959 -2.04598 0
M  V30 3485 H 362.697 1.88317 -3.6194 0
M  V30 3486 H 361.372 0.825269 -4.0763 0
M  V30 3487 H 359.949 2.27379 -2.95556 0
M  V30 3488 N 362.134 1.5431 0.320358 0
M  V30 3489 C 363.38 1.72924 1.05949 0
M  V30 3490 C 363.713 0.503185 1.87568 0
M  V30 3491 O 362.988 -0.499839 1.87968 0
M  V30 3492 C 363.271 3.00676 1.98156 0
M  V30 3493 C 363.124 4.3354 1.19845 0
M  V30 3494 C 364.443 3.24198 2.9763 0
M  V30 3495 H 361.562 0.629195 0.383774 0
M  V30 3496 H 364.204 1.87008 0.335854 0
M  V30 3497 H 362.354 2.888 2.59859 0
M  V30 3498 H 364.026 4.57305 0.605773 0
M  V30 3499 H 362.269 4.309 0.500784 0
M  V30 3500 H 362.94 5.19156 1.87567 0
M  V30 3501 H 365.416 3.35557 2.4605 0
M  V30 3502 H 364.292 4.14938 3.59329 0
M  V30 3503 H 364.553 2.41577 3.7026 0
M  V30 3504 N 363.613 -0.582584 1.46437 0
M  V30 3505 C 364.841 -1.36682 1.55324 0
M  V30 3506 C 365.256 -1.87796 0.194409 0
M  V30 3507 O 364.613 -1.63623 -0.808318 0
M  V30 3508 C 364.664 -2.55426 2.55812 0
M  V30 3509 O 364.385 -2.0643 3.86417 0
M  V30 3510 C 365.886 -3.47976 2.74641 0
M  V30 3511 H 363.106 -0.417545 0.525259 0
M  V30 3512 H 365.65 -0.708219 1.91845 0
M  V30 3513 H 363.805 -3.17275 2.22295 0
M  V30 3514 H 364.219 -2.83762 4.41111 0
M  V30 3515 H 365.693 -4.27775 3.48874 0
M  V30 3516 H 366.17 -3.99919 1.81553 0
M  V30 3517 H 366.776 -2.91962 3.09255 0
M  V30 3518 N 365.091 -1.34144 -0.827227 0
M  V30 3519 C 366.001 -1.27428 -1.96975 0
M  V30 3520 C 367.017 -0.182728 -1.73038 0
M  V30 3521 O 368.193 -0.408426 -1.97215 0
M  V30 3522 C 365.258 -1.02526 -3.31194 0
M  V30 3523 C 364.319 -2.20796 -3.68168 0
M  V30 3524 C 363.552 -1.97073 -4.95982 0
M  V30 3525 O 363.775 -0.926822 -5.6282 0
M  V30 3526 O 362.709 -2.83912 -5.30733 0
M  V30 3527 H 366.535 -2.23537 -2.05584 0
M  V30 3528 H 364.12 -1.14307 -0.961989 0
M  V30 3529 H 366.002 -0.904026 -4.11589 0
M  V30 3530 H 364.677 -0.0945389 -3.23562 0
M  V30 3531 H 363.584 -2.38477 -2.88235 0
M  V30 3532 H 364.917 -3.12243 -3.8048 0
M  V30 3533 N 366.569 1.04691 -1.17803 0
M  V30 3534 C 367.479 2.16057 -0.914151 0
M  V30 3535 C 368.495 1.73589 0.119503 0
M  V30 3536 O 369.671 2.01308 -0.0609468 0
M  V30 3537 C 366.736 3.4394 -0.436603 0
M  V30 3538 C 365.797 4.00825 -1.53746 0
M  V30 3539 C 365.03 5.22604 -1.0826 0
M  V30 3540 O 365.253 5.70367 0.0612244 0
M  V30 3541 O 364.187 5.7186 -1.87775 0
M  V30 3542 H 368.013 2.41169 -1.84584 0
M  V30 3543 H 365.598 1.1453 -0.959334 0
M  V30 3544 H 367.48 4.21024 -0.178057 0
M  V30 3545 H 366.155 3.20316 0.466869 0
M  V30 3546 H 365.062 3.25158 -1.84995 0
M  V30 3547 H 366.395 4.28778 -2.41683 0
M  V30 3548 N 368.047 0.979072 1.23499 0
M  V30 3549 C 369.272 0.664845 1.96455 0
M  V30 3550 C 369.697 -0.761287 1.72006 0
M  V30 3551 O 369.055 -1.51837 0.990713 0
M  V30 3552 C 369.103 0.959479 3.47601 0
M  V30 3553 O 368.207 0.0508168 4.12369 0
M  V30 3554 H 367.548 0.250185 0.615064 0
M  V30 3555 H 370.078 1.31231 1.5697 0
M  V30 3556 H 370.088 0.895642 3.98048 0
M  V30 3557 H 368.763 1.99876 3.64723 0
M  V30 3558 H 367.34 0.16895 3.72517 0
M  V30 3559 N 369.525 -1.3858 0.750561 0
M  V30 3560 C 370.771 -2.0095 0.31477 0
M  V30 3561 C 371.126 -1.58509 -1.09053 0
M  V30 3562 O 370.419 -0.8112 -1.7358 0
M  V30 3563 C 370.613 -3.55455 0.372373 0
M  V30 3564 C 370.442 -4.12898 1.78173 0
M  V30 3565 C 369.212 -4.44797 2.39757 0
M  V30 3566 C 371.41 -4.35366 2.7379 0
M  V30 3567 N 369.392 -4.87831 3.72685 0
M  V30 3568 C 370.763 -4.80775 3.91478 0
M  V30 3569 C 372.818 -4.1746 2.71351 0
M  V30 3570 C 371.521 -5.10155 5.07084 0
M  V30 3571 C 373.547 -4.47963 3.86113 0
M  V30 3572 C 372.909 -4.93593 5.02539 0
M  V30 3573 H 369.008 -0.765083 0.161776 0
M  V30 3574 H 371.592 -1.68246 0.979867 0
M  V30 3575 H 369.763 -3.87512 -0.26244 0
M  V30 3576 H 371.495 -4.04614 -0.0834479 0
M  V30 3577 H 368.25 -4.33135 1.91548 0
M  V30 3578 H 368.674 -5.13685 4.40972 0
M  V30 3579 H 373.316 -3.81372 1.82524 0
M  V30 3580 H 371.034 -5.45141 5.96529 0
M  V30 3581 H 374.62 -4.35717 3.85542 0
M  V30 3582 H 373.5 -5.16746 5.89867 0
M  V30 3583 N 371.003 -0.499398 -1.49478 0
M  V30 3584 C 371.933 0.269244 -2.31943 0
M  V30 3585 C 372.914 0.964054 -1.40143 0
M  V30 3586 O 374.099 0.955767 -1.69052 0
M  V30 3587 C 371.229 1.33504 -3.20615 0
M  V30 3588 C 370.183 0.760202 -4.21195 0
M  V30 3589 C 369.509 1.9264 -4.98792 0
M  V30 3590 C 370.809 -0.247661 -5.21712 0
M  V30 3591 H 372.503 -0.419082 -2.96452 0
M  V30 3592 H 370.049 -0.202988 -1.42562 0
M  V30 3593 H 372.002 1.88048 -3.77115 0
M  V30 3594 H 370.726 2.05253 -2.54045 0
M  V30 3595 H 369.385 0.23653 -3.65836 0
M  V30 3596 H 369.033 2.63154 -4.28671 0
M  V30 3597 H 368.733 1.54785 -5.66847 0
M  V30 3598 H 370.257 2.4762 -5.58137 0
M  V30 3599 H 371.671 0.209579 -5.72917 0
M  V30 3600 H 370.068 -0.541962 -5.97648 0
M  V30 3601 H 371.138 -1.16409 -4.7072 0
M  V30 3602 N 372.481 1.55866 -0.233164 0
M  V30 3603 C 373.729 1.9821 0.394593 0
M  V30 3604 C 374.05 1.12234 1.59463 0
M  V30 3605 O 373.32 0.201981 1.94856 0
M  V30 3606 H 371.9 0.732034 0.148778 0
M  V30 3607 H 374.562 1.92107 -0.32876 0
M  V30 3608 H 373.658 3.03845 0.713063 0
M  V30 3609 N 373.959 -0.0401083 1.57549 0
M  V30 3610 C 374.922 -1.02871 2.04817 0
M  V30 3611 C 375.922 -1.29708 0.950388 0
M  V30 3612 O 377.112 -1.24897 1.21435 0
M  V30 3613 C 374.244 -2.36443 2.45576 0
M  V30 3614 H 375.437 -0.620631 2.93408 0
M  V30 3615 H 372.99 -0.286667 1.53649 0
M  V30 3616 H 373.725 -2.82021 1.60108 0
M  V30 3617 H 373.51 -2.18296 3.25713 0
M  V30 3618 H 375 -3.07441 2.82612 0
M  V30 3619 N 375.437 -1.54477 -0.31217 0
M  V30 3620 C 376.853 -1.45442 -0.657185 0
M  V30 3621 C 377.053 -0.63653 -1.91182 0
M  V30 3622 O 376.109 -0.139815 -2.52113 0
M  V30 3623 C 377.422 -2.89287 -0.82058 0
M  V30 3624 C 378.97 -2.9926 -0.917188 0
M  V30 3625 C 379.445 -4.44279 -1.11267 0
M  V30 3626 N 380.936 -4.4794 -1.17914 0
M  V30 3627 C 381.671 -5.57318 -1.34848 0
M  V30 3628 N 381.167 -6.76642 -1.48752 0
M  V30 3629 N 382.96 -5.44986 -1.37647 0
M  V30 3630 H 375.111 -2.06129 0.512313 0
M  V30 3631 H 377.374 -0.933088 0.167485 0
M  V30 3632 H 377.08 -3.51687 0.0302604 0
M  V30 3633 H 376.954 -3.36061 -1.71298 0
M  V30 3634 H 379.341 -2.36981 -1.75852 0
M  V30 3635 H 379.422 -2.558 -0.00101257 0
M  V30 3636 H 379.066 -5.07149 -0.27614 0
M  V30 3637 H 378.996 -4.85359 -2.04289 0
M  V30 3638 H 381.487 -3.61969 -1.08567 0
M  V30 3639 H 381.8 -7.55758 -1.61397 0
M  V30 3640 H 380.145 -6.79529 -1.45828 0
M  V30 3641 H 383.336 -4.50715 -1.26388 0
M  V30 3642 H 383.509 -6.3028 -1.50501 0
M  V30 3643 N 376.915 0.57481 -1.46744 0
M  V30 3644 C 378.14 1.36341 -1.56288 0
M  V30 3645 C 378.565 1.86954 -0.207347 0
M  V30 3646 O 377.923 1.62006 0.813871 0
M  V30 3647 C 377.971 2.52147 -2.57787 0
M  V30 3648 O 377.075 3.53834 -2.11838 0
M  V30 3649 H 376.416 0.405713 -0.525636 0
M  V30 3650 H 378.946 0.696453 -1.92382 0
M  V30 3651 H 378.956 2.98958 -2.77648 0
M  V30 3652 H 377.631 2.14663 -3.5622 0
M  V30 3653 H 376.208 3.1345 -2.01999 0
M  V30 3654 N 378.394 1.34581 0.820102 0
M  V30 3655 C 379.619 1.30333 1.61332 0
M  V30 3656 C 380.044 -0.119339 1.87721 0
M  V30 3657 O 379.402 -1.08197 1.45475 0
M  V30 3658 C 379.45 2.10258 2.92957 0
M  V30 3659 O 378.554 1.47404 3.85157 0
M  V30 3660 H 377.895 0.447488 0.490561 0
M  V30 3661 H 380.425 1.77425 1.01889 0
M  V30 3662 H 380.435 2.21718 3.42498 0
M  V30 3663 H 379.11 3.13693 2.73074 0
M  V30 3664 H 377.687 1.44703 3.43679 0
M  V30 3665 N 379.872 -1.04064 1.18357 0
M  V30 3666 C 381.288 -1.2947 0.933258 0
M  V30 3667 C 381.488 -1.97466 -0.401169 0
M  V30 3668 O 380.544 -2.25528 -1.13549 0
M  V30 3669 C 381.857 -2.15337 2.09882 0
M  V30 3670 C 383.405 -2.28683 2.13712 0
M  V30 3671 C 383.88 -3.17917 3.29686 0
M  V30 3672 N 385.371 -3.25504 3.29547 0
M  V30 3673 C 386.106 -3.94706 4.15926 0
M  V30 3674 N 385.602 -4.66239 5.12439 0
M  V30 3675 N 387.395 -3.90986 4.0384 0
M  V30 3676 H 379.546 -0.583359 2.04232 0
M  V30 3677 H 381.809 -0.319921 0.892387 0
M  V30 3678 H 381.515 -1.72682 3.06389 0
M  V30 3679 H 381.389 -3.16015 2.05947 0
M  V30 3680 H 383.776 -2.70575 1.17784 0
M  V30 3681 H 383.857 -1.27596 2.21705 0
M  V30 3682 H 383.501 -2.76736 4.25887 0
M  V30 3683 H 383.431 -4.19036 3.1893 0
M  V30 3684 H 385.922 -2.74547 2.59677 0
M  V30 3685 H 386.235 -5.16638 5.74722 0
M  V30 3686 H 384.58 -4.65143 5.16398 0
M  V30 3687 H 387.771 -3.34234 3.27727 0
M  V30 3688 H 387.944 -4.44646 4.71375 0
M  V30 3689 N 381.35 -0.985608 -1.22978 0
M  V30 3690 C 382.761 -0.693593 -1.73338 0
M  V30 3691 C 383.112 0.789935 -1.79595 0
M  V30 3692 O 382.237 1.61771 -1.43733 0
M  V30 3693 C 382.832 -1.25235 -3.14804 0
M  V30 3694 C 381.391 -1.00987 -3.626 0
M  V30 3695 C 380.538 -1.37695 -2.40698 0
M  V30 3696 H 383.489 -1.15884 -1.08428 0
M  V30 3697 H 383.51 -0.627329 -3.75293 0
M  V30 3698 H 383.022 -2.33209 -3.10218 0
M  V30 3699 H 381.123 0.0535565 -3.72562 0
M  V30 3700 H 381.236 -1.66812 -4.49122 0
M  V30 3701 H 379.6 -0.795459 -2.4196 0
M  V30 3702 H 380.383 -2.46657 -2.38779 0
M  V30 3703 N 382.828 1.3818 -0.7579 0
M  V30 3704 C 383.791 2.28764 -0.141286 0
M  V30 3705 C 384.791 1.47388 0.642907 0
M  V30 3706 O 385.981 1.67781 0.468536 0
M  V30 3707 C 383.113 3.31184 0.808069 0
M  V30 3708 H 384.306 2.848 -0.939633 0
M  V30 3709 H 381.859 1.47212 -0.525191 0
M  V30 3710 H 382.594 2.80247 1.63193 0
M  V30 3711 H 382.379 3.91314 0.248104 0
M  V30 3712 H 383.869 3.98909 1.23536 0
M  V30 3713 N 384.306 0.507319 1.49211 0
M  V30 3714 C 385.531 -0.033725 2.07373 0
M  V30 3715 C 385.956 -1.29485 1.36437 0
M  V30 3716 O 385.314 -1.76294 0.423087 0
M  V30 3717 C 385.362 -0.263945 3.59633 0
M  V30 3718 O 384.466 -1.33737 3.90113 0
M  V30 3719 H 383.807 0.0290331 0.663365 0
M  V30 3720 H 386.337 0.708749 1.91932 0
M  V30 3721 H 386.347 -0.493536 4.05004 0
M  V30 3722 H 385.022 0.657424 4.10671 0
M  V30 3723 H 383.599 -1.09224 3.56545 0
M  V30 3724 N 385.784 -1.5574 0.241426 0
M  V30 3725 C 387.195 -1.84842 -0.262755 0
M  V30 3726 C 387.546 -1.16317 -1.58003 0
M  V30 3727 O 386.671 -0.439653 -2.11887 0
M  V30 3728 C 387.266 -3.35332 -0.483523 0
M  V30 3729 C 385.825 -3.6468 -0.931977 0
M  V30 3730 C 384.972 -2.77299 -0.0061151 0
M  V30 3731 H 387.923 -1.51761 0.464129 0
M  V30 3732 H 387.944 -3.56615 -1.32688 0
M  V30 3733 H 387.456 -3.85178 0.47537 0
M  V30 3734 H 385.557 -3.20307 -1.90353 0
M  V30 3735 H 385.67 -4.72498 -0.792628 0
M  V30 3736 H 384.034 -2.49408 -0.516503 0
M  V30 3737 H 384.817 -3.2995 0.948052 0
M  V30 3738 N 387.262 0.0317525 -1.57568 0
M  V30 3739 C 388.502 0.727979 -1.90997 0
M  V30 3740 C 388.866 1.72664 -0.839708 0
M  V30 3741 O 390.067 2.47092 -1.05825 0
M  V30 3742 C 388.338 1.38239 -3.29583 0
M  V30 3743 S 389.897 2.10814 -3.84841 0
M  V30 3744 H 386.715 0.241226 -0.668828 0
M  V30 3745 H 389.317 -0.0173037 -1.95492 0
M  V30 3746 H 388.021 0.642288 -4.05343 0
M  V30 3747 H 387.552 2.16628 -3.28384 0
M  V30 3748 H 389.567 3.3792 -3.63352 0
M  V30 3749 N 388.74 1.54641 0.303973 0
M  V30 3750 C 389.688 1.86137 1.39484 0
M  V30 3751 C 390.682 0.734854 1.52631 0
M  V30 3752 O 391.888 0.918803 1.54784 0
M  V30 3753 H 388.263 0.590324 0.465856 0
M  V30 3754 H 390.234 2.77324 1.10154 0
M  V30 3755 C 388.983 2.12274 2.75382 0
M  V30 3756 H 388.306 2.98429 2.66046 0
M  V30 3757 H 389.746 2.38254 3.5073 0
M  V30 3758 C 388.205 0.920365 3.24085 0
M  V30 3759 O 388.735 0.139377 4.01458 0
M  V30 3760 N 386.941 0.726566 2.81371 0
M  V30 3761 H 386.488 1.36332 2.18567 0
M  V30 3762 H 386.446 -0.0763799 3.14307 0
M  V30 3763 N 390.218 -0.567019 1.47046 0
M  V30 3764 C 391.165 -1.67489 1.58796 0
M  V30 3765 C 392.135 -1.60399 0.43144 0
M  V30 3766 O 393.32 -1.79378 0.650233 0
M  V30 3767 C 390.46 -3.05821 1.59899 0
M  V30 3768 C 389.573 -3.2342 2.86397 0
M  V30 3769 C 388.708 -4.52093 2.789 0
M  V30 3770 C 387.747 -4.6309 4.00267 0
M  V30 3771 N 386.884 -5.83106 3.91064 0
M  V30 3772 H 391.724 -1.56785 2.53422 0
M  V30 3773 H 389.261 -0.763896 1.2571 0
M  V30 3774 H 391.219 -3.8591 1.58522 0
M  V30 3775 H 389.849 -3.15384 0.687929 0
M  V30 3776 H 388.901 -2.3683 2.97684 0
M  V30 3777 H 390.213 -3.27412 3.76301 0
M  V30 3778 H 389.367 -5.4043 2.75718 0
M  V30 3779 H 388.106 -4.50565 1.86662 0
M  V30 3780 H 387.111 -3.73168 4.03765 0
M  V30 3781 H 388.336 -4.66386 4.93621 0
M  V30 3782 H 386.282 -5.82546 3.01623 0
M  V30 3783 H 386.199 -5.88434 4.74638 0
M  V30 3784 H 387.467 -6.73831 3.91882 0
M  V30 3785 N 391.696 -1.35014 -0.812953 0
M  V30 3786 C 393.112 -1.14914 -1.10757 0
M  V30 3787 C 393.312 0.0426818 -2.01455 0
M  V30 3788 O 392.368 0.715212 -2.42159 0
M  V30 3789 C 393.681 -2.44911 -1.74468 0
M  V30 3790 C 395.229 -2.5106 -1.86917 0
M  V30 3791 C 395.704 -3.81085 -2.54044 0
M  V30 3792 N 397.195 -3.82301 -2.61535 0
M  V30 3793 C 397.93 -4.79634 -3.14227 0
M  V30 3794 N 397.426 -5.87353 -3.67407 0
M  V30 3795 N 399.219 -4.67078 -3.12721 0
M  V30 3796 H 391.37 -2.1136 -0.20989 0
M  V30 3797 H 393.633 -0.935128 -0.155692 0
M  V30 3798 H 393.339 -3.32267 -1.15289 0
M  V30 3799 H 393.213 -2.58989 -2.74234 0
M  V30 3800 H 395.6 -1.64137 -2.45241 0
M  V30 3801 H 395.681 -2.40901 -0.860242 0
M  V30 3802 H 395.325 -4.68402 -1.96372 0
M  V30 3803 H 395.255 -3.88529 -3.55461 0
M  V30 3804 H 397.746 -3.04465 -2.23851 0
M  V30 3805 H 398.059 -6.57624 -4.05894 0
M  V30 3806 H 396.404 -5.91054 -3.65623 0
M  V30 3807 H 399.595 -3.82067 -2.70449 0
M  V30 3808 H 399.768 -5.43098 -3.53481 0
M  V30 3809 N 393.175 1.03435 -1.18907 0
M  V30 3810 C 394.122 2.11591 -0.921837 0
M  V30 3811 C 395.092 1.65499 0.141226 0
M  V30 3812 O 396.277 1.908 0.000242829 0
M  V30 3813 C 393.417 3.42012 -0.460616 0
M  V30 3814 C 392.53 4.01682 -1.58982 0
M  V30 3815 C 391.665 5.20091 -1.08069 0
M  V30 3816 C 390.704 5.71805 -2.18416 0
M  V30 3817 N 389.841 6.81494 -1.68849 0
M  V30 3818 H 394.681 2.33787 -1.8479 0
M  V30 3819 H 392.218 1.1467 -0.921373 0
M  V30 3820 H 394.176 4.16834 -0.174642 0
M  V30 3821 H 392.806 3.19944 0.428467 0
M  V30 3822 H 391.858 3.24127 -1.99113 0
M  V30 3823 H 393.17 4.36084 -2.4214 0
M  V30 3824 H 392.324 6.02051 -0.749615 0
M  V30 3825 H 391.063 4.87209 -0.218771 0
M  V30 3826 H 390.068 4.88461 -2.5236 0
M  V30 3827 H 391.293 6.06728 -3.05054 0
M  V30 3828 H 389.239 6.50475 -0.849572 0
M  V30 3829 H 389.156 7.14994 -2.45601 0
M  V30 3830 H 390.424 7.67063 -1.38689 0
M  V30 3831 N 394.653 0.992116 1.22453 0
M  V30 3832 C 395.883 0.684949 1.94915 0
M  V30 3833 C 396.291 -0.754292 1.73514 0
M  V30 3834 O 395.634 -1.52056 1.03076 0
M  V30 3835 C 395.696 0.910054 3.47791 0
M  V30 3836 C 395.36 2.33363 3.92926 0
M  V30 3837 C 396.357 3.31308 4.00663 0
M  V30 3838 C 394.042 2.66785 4.25595 0
M  V30 3839 C 396.036 4.6075 4.40441 0
M  V30 3840 C 393.723 3.96446 4.65053 0
M  V30 3841 C 394.721 4.9324 4.72444 0
M  V30 3842 O 394.409 6.20584 5.1101 0
M  V30 3843 H 394.141 0.25258 0.62704 0
M  V30 3844 H 396.695 1.32939 1.56577 0
M  V30 3845 H 394.925 0.208443 3.86138 0
M  V30 3846 H 396.614 0.598257 4.01467 0
M  V30 3847 H 397.38 3.0682 3.75615 0
M  V30 3848 H 393.259 1.92148 4.19047 0
M  V30 3849 H 396.803 5.363 4.46126 0
M  V30 3850 H 392.7 4.20724 4.89552 0
M  V30 3851 H 393.468 6.24509 5.29085 0
M  V30 3852 N 396.131 -1.37776 0.765217 0
M  V30 3853 C 397.356 -2.04651 0.336537 0
M  V30 3854 C 397.781 -1.57337 -1.03086 0
M  V30 3855 O 397.139 -0.730621 -1.65927 0
M  V30 3856 C 397.187 -3.58577 0.381468 0
M  V30 3857 O 396.291 -4.07706 -0.62042 0
M  V30 3858 H 395.632 -0.64756 0.146838 0
M  V30 3859 H 398.162 -1.76221 1.03959 0
M  V30 3860 H 398.172 -4.07314 0.236448 0
M  V30 3861 H 396.847 -3.9237 1.37907 0
M  V30 3862 H 395.424 -3.70306 -0.439056 0
M  V30 3863 N 397.609 -0.515225 -1.4894 0
M  V30 3864 C 398.539 0.244628 -2.32215 0
M  V30 3865 C 399.52 0.949136 -1.41157 0
M  V30 3866 O 400.705 0.937783 -1.70057 0
M  V30 3867 C 397.835 1.30096 -3.22013 0
M  V30 3868 C 396.789 0.715486 -4.21977 0
M  V30 3869 C 396.115 1.87339 -5.00808 0
M  V30 3870 C 397.415 -0.302982 -5.2142 0
M  V30 3871 H 399.109 -0.450501 -2.95991 0
M  V30 3872 H 396.655 -0.218098 -1.42339 0
M  V30 3873 H 398.608 1.84037 -3.79089 0
M  V30 3874 H 397.332 2.02547 -2.56207 0
M  V30 3875 H 395.991 0.197715 -3.66066 0
M  V30 3876 H 395.639 2.58592 -4.31438 0
M  V30 3877 H 395.339 1.48764 -5.68457 0
M  V30 3878 H 396.863 2.41686 -5.60732 0
M  V30 3879 H 398.277 0.148802 -5.73107 0
M  V30 3880 H 396.674 -0.60532 -5.97039 0
M  V30 3881 H 397.744 -1.21395 -4.69459 0
M  V30 3882 N 399.087 1.5561 -0.249682 0
M  V30 3883 C 400.035 2.22894 0.664906 0
M  V30 3884 C 401.029 1.21743 1.17792 0
M  V30 3885 O 402.235 1.39748 1.13449 0
M  V30 3886 H 398.61 0.715022 0.232912 0
M  V30 3887 H 400.581 2.98307 0.0742998 0
M  V30 3888 C 399.33 2.94424 1.84959 0
M  V30 3889 H 398.653 3.72031 1.46399 0
M  V30 3890 H 400.093 3.44862 2.4667 0
M  V30 3891 C 398.552 1.98454 2.72245 0
M  V30 3892 O 399.082 1.51939 3.71857 0
M  V30 3893 N 397.288 1.65496 2.38871 0
M  V30 3894 H 396.835 2.03517 1.57919 0
M  V30 3895 H 396.793 1.0155 2.97548 0
M  V30 3896 N 400.565 -0.0233959 1.57583 0
M  V30 3897 C 401.813 -0.711654 1.89156 0
M  V30 3898 C 402.134 -1.75591 0.848096 0
M  V30 3899 O 401.404 -1.95547 -0.117566 0
M  V30 3900 H 399.984 -0.265835 0.698098 0
M  V30 3901 H 402.646 0.0119948 1.94896 0
M  V30 3902 H 401.742 -1.19766 2.88206 0
M  V30 3903 N 402.043 -1.548 -0.295768 0
M  V30 3904 C 403.459 -1.4613 -0.641722 0
M  V30 3905 C 403.659 -0.656771 -1.90496 0
M  V30 3906 O 402.715 -0.166547 -2.5195 0
M  V30 3907 C 404.028 -2.90141 -0.789852 0
M  V30 3908 C 405.576 -3.00216 -0.885396 0
M  V30 3909 C 406.051 -4.45434 -1.06548 0
M  V30 3910 N 407.542 -4.49166 -1.13156 0
M  V30 3911 C 408.277 -5.58717 -1.28929 0
M  V30 3912 N 407.773 -6.78182 -1.41567 0
M  V30 3913 N 409.566 -5.46415 -1.31859 0
M  V30 3914 H 401.717 -2.05574 0.534147 0
M  V30 3915 H 403.98 -0.931259 0.177372 0
M  V30 3916 H 403.686 -3.51635 0.0675598 0
M  V30 3917 H 403.56 -3.37859 -1.67724 0
M  V30 3918 H 405.947 -2.38833 -1.73329 0
M  V30 3919 H 406.028 -2.55787 0.0261185 0
M  V30 3920 H 405.672 -5.07413 -0.222335 0
M  V30 3921 H 405.602 -4.87499 -1.9913 0
M  V30 3922 H 408.093 -3.631 -1.04721 0
M  V30 3923 H 408.406 -7.57428 -1.53372 0
M  V30 3924 H 406.751 -6.81037 -1.38613 0
M  V30 3925 H 409.942 -4.5203 -1.21601 0
M  V30 3926 H 410.115 -6.31841 -1.43808 0
M  V30 3927 N 403.521 0.559213 -1.47345 0
M  V30 3928 C 404.453 1.68161 -1.55738 0
M  V30 3929 C 405.466 1.56636 -0.443744 0
M  V30 3930 O 406.655 1.6363 -0.713258 0
M  V30 3931 C 403.755 3.06611 -1.4437 0
M  V30 3932 C 402.928 3.4391 -2.70268 0
M  V30 3933 C 401.987 4.61515 -2.52765 0
M  V30 3934 O 401.013 4.66197 -3.26572 0
M  V30 3935 N 402.215 5.57883 -1.6046 0
M  V30 3936 H 404.98 1.61408 -2.52522 0
M  V30 3937 H 402.541 0.7458 -1.43699 0
M  V30 3938 H 404.533 3.83117 -1.30398 0
M  V30 3939 H 403.103 3.07602 -0.556766 0
M  V30 3940 H 402.323 2.56873 -2.99015 0
M  V30 3941 H 403.611 3.65605 -3.53851 0
M  V30 3942 H 403.009 5.56855 -0.996422 0
M  V30 3943 H 401.566 6.33723 -1.52441 0
M  V30 3944 N 404.999 1.35443 0.805782 0
M  V30 3945 C 406.41 1.25768 1.37983 0
M  V30 3946 C 406.761 -0.10958 1.95894 0
M  V30 3947 O 405.886 -1.01056 1.91355 0
M  V30 3948 C 406.481 2.27727 2.5085 0
M  V30 3949 C 405.04 2.2179 3.04115 0
M  V30 3950 C 404.187 2.13393 1.77084 0
M  V30 3951 H 407.138 1.4656 0.608752 0
M  V30 3952 H 407.159 1.90422 3.29424 0
M  V30 3953 H 406.671 3.27227 2.08671 0
M  V30 3954 H 404.772 1.25703 3.50756 0
M  V30 3955 H 404.885 3.13788 3.62042 0
M  V30 3956 H 403.249 1.59384 1.98668 0
M  V30 3957 H 404.032 3.14755 1.37056 0
M  V30 3958 N 406.477 -1.02803 1.19454 0
M  V30 3959 C 407.888 -1.57667 0.999899 0
M  V30 3960 C 408.239 -1.91041 -0.446956 0
M  V30 3961 O 407.364 -1.70978 -1.32648 0
M  V30 3962 C 407.959 -2.86477 1.80877 0
M  V30 3963 C 406.518 -3.37911 1.65811 0
M  V30 3964 C 405.665 -2.11343 1.79526 0
M  V30 3965 H 408.616 -0.853214 1.33813 0
M  V30 3966 H 408.637 -3.57408 1.30536 0
M  V30 3967 H 408.149 -2.62155 2.86175 0
M  V30 3968 H 406.25 -3.67218 0.63102 0
M  V30 3969 H 406.363 -4.10885 2.46395 0
M  V30 3970 H 404.727 -2.23254 1.22596 0
M  V30 3971 H 405.51 -1.89461 2.86285 0
M  V30 3972 N 407.956 -0.998596 -1.21925 0
M  V30 3973 C 409.186 -0.695276 -1.94549 0
M  V30 3974 C 409.594 0.745079 -1.73911 0
M  V30 3975 O 408.937 1.51507 -1.03881 0
M  V30 3976 C 408.999 -0.928485 -3.47303 0
M  V30 3977 C 408.663 -2.35443 -3.91683 0
M  V30 3978 C 409.66 -3.33428 -3.98901 0
M  V30 3979 C 407.345 -2.69038 -4.24174 0
M  V30 3980 C 409.339 -4.63079 -4.37992 0
M  V30 3981 C 407.026 -3.98906 -4.62944 0
M  V30 3982 C 408.024 -4.95738 -4.69822 0
M  V30 3983 O 407.712 -6.23285 -5.07711 0
M  V30 3984 H 407.444 -0.255902 -0.625692 0
M  V30 3985 H 409.998 -1.33767 -1.5587 0
M  V30 3986 H 408.228 -0.228917 -3.86022 0
M  V30 3987 H 409.917 -0.619539 -4.01144 0
M  V30 3988 H 410.683 -3.08807 -3.73983 0
M  V30 3989 H 406.562 -1.94367 -4.18022 0
M  V30 3990 H 410.106 -5.38658 -4.43275 0
M  V30 3991 H 406.003 -4.23314 -4.87314 0
M  V30 3992 H 406.771 -6.27306 -5.25766 0
M  V30 3993 N 409.434 1.37368 -0.772513 0
M  V30 3994 C 410.659 2.0447 -0.347386 0
M  V30 3995 C 411.084 1.57882 1.0225 0
M  V30 3996 O 410.442 0.73941 1.65537 0
M  V30 3997 C 410.49 3.58369 -0.400479 0
M  V30 3998 O 409.594 4.0803 0.598789 0
M  V30 3999 H 408.935 0.646773 -0.15027 0
M  V30 4000 H 411.465 1.75667 -1.04892 0
M  V30 4001 H 411.475 4.07183 -0.258045 0
M  V30 4002 H 410.15 3.91633 -1.39986 0
M  V30 4003 H 408.727 3.70534 0.419411 0
M  V30 4004 N 410.912 0.523116 1.48665 0
M  V30 4005 C 412.323 0.0808997 1.86525 0
M  V30 4006 C 412.674 -1.33975 1.43336 0
M  V30 4007 O 411.799 -2.00221 0.821009 0
M  V30 4008 C 412.394 0.140037 3.3851 0
M  V30 4009 C 410.953 -0.246948 3.75589 0
M  V30 4010 C 410.1 0.502845 2.72703 0
M  V30 4011 H 413.051 0.734736 1.40667 0
M  V30 4012 H 413.072 -0.649945 3.74908 0
M  V30 4013 H 412.584 1.17412 3.69914 0
M  V30 4014 H 410.685 -1.28343 3.49798 0
M  V30 4015 H 410.798 0.0878859 4.79019 0
M  V30 4016 H 409.162 -0.0500581 2.54651 0
M  V30 4017 H 409.945 1.53743 3.0695 0
M  V30 4018 N 412.39 -1.55475 0.257931 0
M  V30 4019 C 413.34 -2.18506 -0.651094 0
M  V30 4020 C 414.324 -1.14431 -1.13112 0
M  V30 4021 O 415.516 -1.40305 -1.07905 0
M  V30 4022 C 412.645 -2.89653 -1.84272 0
M  V30 4023 C 411.731 -4.00996 -1.38068 0
M  V30 4024 N 412.122 -5.01816 -0.633609 0
M  V30 4025 C 410.42 -4.13753 -1.66506 0
M  V30 4026 C 411.121 -5.80371 -0.392922 0
M  V30 4027 N 410.097 -5.3505 -0.960359 0
M  V30 4028 H 413.899 -2.93811 -0.0722883 0
M  V30 4029 H 411.413 -1.62286 0.0607256 0
M  V30 4030 H 413.41 -3.33245 -2.50506 0
M  V30 4031 H 412.07 -2.15854 -2.42564 0
M  V30 4032 H 413.081 -5.17128 -0.282626 0
M  V30 4033 H 409.758 -3.51133 -2.25858 0
M  V30 4034 H 411.148 -6.7159 0.204235 0
M  V30 4035 N 413.868 0.0150385 -1.57593 0
M  V30 4036 C 414.818 1.01943 -2.0394 0
M  V30 4037 C 415.802 1.31209 -0.931286 0
M  V30 4038 O 416.994 1.30559 -1.19513 0
M  V30 4039 C 414.123 2.31621 -2.53391 0
M  V30 4040 C 413.209 2.05384 -3.7105 0
M  V30 4041 N 413.6 1.49253 -4.83278 0
M  V30 4042 C 411.898 2.35601 -3.78693 0
M  V30 4043 C 412.599 1.39143 -5.64813 0
M  V30 4044 N 411.575 1.87187 -5.10355 0
M  V30 4045 H 415.377 0.57969 -2.88126 0
M  V30 4046 H 412.891 0.221056 -1.60888 0
M  V30 4047 H 414.888 3.044 -2.84862 0
M  V30 4048 H 413.548 2.76261 -1.70616 0
M  V30 4049 H 414.559 1.17334 -5.04433 0
M  V30 4050 H 411.236 2.8322 -3.06746 0
M  V30 4051 H 412.626 0.961153 -6.6499 0
M  V30 4052 N 415.346 1.54954 0.287554 0
M  V30 4053 C 416.571 1.79209 1.04397 0
M  V30 4054 C 416.996 0.556431 1.79682 0
M  V30 4055 O 416.354 -0.493518 1.74454 0
M  V30 4056 C 416.402 3.00739 1.98969 0
M  V30 4057 O 415.506 2.74805 3.075 0
M  V30 4058 H 414.847 0.592755 0.299227 0
M  V30 4059 H 417.377 2.02068 0.320886 0
M  V30 4060 H 417.387 3.29077 2.4119 0
M  V30 4061 H 416.062 3.90329 1.43582 0
M  V30 4062 H 414.639 2.57523 2.69697 0
M  V30 4063 N 416.824 -0.551391 1.4764 0
M  V30 4064 C 418.235 -1.13349 1.48354 0
M  V30 4065 C 418.586 -1.94709 0.241432 0
M  V30 4066 O 417.711 -2.06306 -0.653205 0
M  V30 4067 C 418.306 -2.0623 2.68802 0
M  V30 4068 C 416.865 -2.597 2.72457 0
M  V30 4069 C 416.012 -1.36201 2.41546 0
M  V30 4070 H 418.963 -0.337698 1.55065 0
M  V30 4071 H 418.984 -2.90196 2.46103 0
M  V30 4072 H 418.496 -1.46987 3.59188 0
M  V30 4073 H 416.597 -3.22724 1.86225 0
M  V30 4074 H 416.71 -3.00296 3.73308 0
M  V30 4075 H 415.074 -1.67068 1.9225 0
M  V30 4076 H 415.857 -0.787425 3.34147 0
M  V30 4077 N 418.302 -1.35869 -0.798587 0
M  V30 4078 C 419.53 -1.32722 -1.58722 0
M  V30 4079 C 419.945 0.0935631 -1.88568 0
M  V30 4080 O 419.302 1.04784 -1.49421 0
M  V30 4081 C 419.353 -2.13974 -2.91371 0
M  V30 4082 O 419.074 -3.50514 -2.62815 0
M  V30 4083 C 420.575 -2.18504 -3.85708 0
M  V30 4084 H 417.795 -0.45562 -0.492596 0
M  V30 4085 H 420.339 -1.78837 -0.991843 0
M  V30 4086 H 418.494 -1.71438 -3.47402 0
M  V30 4087 H 418.908 -3.92806 -3.47568 0
M  V30 4088 H 420.382 -2.79732 -4.75872 0
M  V30 4089 H 420.859 -1.18597 -4.22885 0
M  V30 4090 H 421.465 -2.61236 -3.35612 0
M  V30 4091 N 419.78 1.02168 -1.19998 0
M  V30 4092 C 421.191 1.57135 -1.00825 0
M  V30 4093 C 421.542 1.91276 0.436818 0
M  V30 4094 O 420.667 1.71679 1.3174 0
M  V30 4095 C 421.262 2.85514 -1.82393 0
M  V30 4096 C 419.821 3.37027 -1.67601 0
M  V30 4097 C 418.968 2.10388 -1.80644 0
M  V30 4098 H 421.919 0.846106 -1.34264 0
M  V30 4099 H 421.94 3.56711 -1.32429 0
M  V30 4100 H 421.452 2.60634 -2.87561 0
M  V30 4101 H 419.553 3.66878 -0.650485 0
M  V30 4102 H 419.666 4.09572 -2.4857 0
M  V30 4103 H 418.03 2.22601 -1.23778 0
M  V30 4104 H 418.813 1.8794 -2.87286 0
M  V30 4105 N 421.258 1.00505 1.21394 0
M  V30 4106 C 422.483 0.706367 1.95001 0
M  V30 4107 C 422.908 -0.72463 1.73582 0
M  V30 4108 O 422.266 -1.49702 1.0227 0
M  V30 4109 C 422.314 1.03299 3.45487 0
M  V30 4110 O 421.418 0.138275 4.12168 0
M  V30 4111 H 420.759 0.263175 0.609619 0
M  V30 4112 H 423.289 1.34531 1.54151 0
M  V30 4113 H 423.299 0.979872 3.96059 0
M  V30 4114 H 421.974 2.07567 3.60401 0
M  V30 4115 H 420.551 0.247928 3.72075 0
M  V30 4116 N 422.737 -1.36956 0.779787 0
M  V30 4117 C 424.148 -1.82094 0.412156 0
M  V30 4118 C 424.499 -1.64926 -1.06273 0
M  V30 4119 O 423.624 -1.16483 -1.82375 0
M  V30 4120 C 424.219 -3.3059 0.741319 0
M  V30 4121 C 422.778 -3.73974 0.426641 0
M  V30 4122 C 421.925 -2.59368 0.980987 0
M  V30 4123 H 424.876 -1.25314 0.973758 0
M  V30 4124 H 424.897 -3.80489 0.028887 0
M  V30 4125 H 424.409 -3.43054 1.81482 0
M  V30 4126 H 422.51 -3.67076 -0.639215 0
M  V30 4127 H 422.623 -4.69778 0.940515 0
M  V30 4128 H 420.987 -2.51463 0.404757 0
M  V30 4129 H 421.77 -2.74621 2.06005 0
M  V30 4130 N 424.215 -0.530993 -1.48385 0
M  V30 4131 C 425.165 0.251092 -2.26613 0
M  V30 4132 C 426.149 0.908977 -1.32765 0
M  V30 4133 O 427.341 0.811616 -1.57295 0
M  V30 4134 C 424.47 1.29677 -3.17866 0
M  V30 4135 C 423.556 0.643627 -4.19188 0
M  V30 4136 N 423.947 -0.271223 -5.05072 0
M  V30 4137 C 422.245 0.900711 -4.3681 0
M  V30 4138 C 422.946 -0.648109 -5.78078 0
M  V30 4139 N 421.922 -0.00895987 -5.43599 0
M  V30 4140 H 425.724 -0.452702 -2.90393 0
M  V30 4141 H 423.238 -0.349091 -1.58604 0
M  V30 4142 H 425.235 1.87079 -3.72568 0
M  V30 4143 H 423.895 2.00193 -2.55642 0
M  V30 4144 H 424.906 -0.643883 -5.13882 0
M  V30 4145 H 421.583 1.59636 -3.85775 0
M  V30 4146 H 422.973 -1.39833 -6.57188 0
M  V30 4147 N 425.693 1.55336 -0.266172 0
M  V30 4148 C 426.941 1.99003 0.35246 0
M  V30 4149 C 427.262 1.15591 1.57047 0
M  V30 4150 O 426.532 0.243268 1.94384 0
M  V30 4151 H 425.112 0.735025 0.133217 0
M  V30 4152 H 427.774 1.91367 -0.369434 0
M  V30 4153 H 426.87 3.05289 0.648453 0
M  V30 4154 N 427.171 -0.0066808 1.57599 0
M  V30 4155 C 428.396 -0.707738 1.94951 0
M  V30 4156 C 428.821 -1.66882 0.867868 0
M  V30 4157 O 428.179 -1.80457 -0.17458 0
M  V30 4158 C 428.227 -1.42162 3.31394 0
M  V30 4159 O 427.331 -2.53578 3.25226 0
M  V30 4160 H 426.672 -0.188752 0.636607 0
M  V30 4161 H 429.202 0.0445193 2.04552 0
M  V30 4162 H 429.212 -1.78655 3.66806 0
M  V30 4163 H 427.887 -0.716903 4.09675 0
M  V30 4164 H 426.464 -2.19463 3.01481 0
M  V30 4165 N 428.649 -1.55105 -0.279332 0
M  V30 4166 C 430.06 -1.66186 -0.850832 0
M  V30 4167 C 430.411 -0.584707 -1.87285 0
M  V30 4168 O 429.536 0.274919 -2.14647 0
M  V30 4169 C 430.131 -3.01264 -1.55001 0
M  V30 4170 C 428.69 -3.14394 -2.06963 0
M  V30 4171 C 427.837 -2.61959 -0.909536 0
M  V30 4172 H 430.788 -1.58602 -0.0558235 0
M  V30 4173 H 430.809 -2.93899 -2.41669 0
M  V30 4174 H 430.321 -3.7964 -0.805931 0
M  V30 4175 H 428.422 -2.4078 -2.84352 0
M  V30 4176 H 428.535 -4.20867 -2.28928 0
M  V30 4177 H 426.899 -2.18957 -1.30116 0
M  V30 4178 H 427.682 -3.42833 -0.179062 0
M  V30 4179 N 430.127 0.543554 -1.4793 0
M  V30 4180 C 431.543 0.870806 -1.3375 0
M  V30 4181 C 431.743 1.9864 -0.338261 0
M  V30 4182 O 430.799 2.51305 0.245371 0
M  V30 4183 C 432.112 1.25114 -2.73435 0
M  V30 4184 C 433.66 1.3618 -2.81823 0
M  V30 4185 C 434.135 1.77563 -4.22179 0
M  V30 4186 N 435.626 1.8469 -4.24787 0
M  V30 4187 C 436.361 2.18067 -5.30315 0
M  V30 4188 N 435.857 2.49963 -6.46135 0
M  V30 4189 N 437.65 2.18958 -5.17701 0
M  V30 4190 H 429.801 -0.19275 -2.11524 0
M  V30 4191 H 432.064 -0.0235777 -0.947707 0
M  V30 4192 H 431.77 0.50514 -3.48053 0
M  V30 4193 H 431.644 2.20431 -3.06088 0
M  V30 4194 H 434.031 2.09859 -2.07468 0
M  V30 4195 H 434.112 0.390169 -2.52807 0
M  V30 4196 H 433.756 1.04449 -4.97044 0
M  V30 4197 H 433.686 2.75753 -4.48629 0
M  V30 4198 H 436.177 1.62372 -3.41239 0
M  V30 4199 H 436.49 2.74497 -7.22406 0
M  V30 4200 H 434.835 2.47513 -6.49432 0
M  V30 4201 H 438.026 1.93488 -4.2624 0
M  V30 4202 H 438.199 2.44639 -6.00047 0
M  V30 4203 N 431.605 1.3629 0.791371 0
M  V30 4204 C 432.851 1.30605 1.55146 0
M  V30 4205 C 433.184 -0.115042 1.93859 0
M  V30 4206 O 432.459 -1.06798 1.62556 0
M  V30 4207 C 432.742 2.22692 2.82985 0
M  V30 4208 C 432.595 3.73489 2.50651 0
M  V30 4209 C 433.914 2.13588 3.84796 0
M  V30 4210 H 431.033 0.475761 0.562868 0
M  V30 4211 H 433.675 1.66825 0.909358 0
M  V30 4212 H 431.825 1.91933 3.37778 0
M  V30 4213 H 433.497 4.14758 2.01924 0
M  V30 4214 H 431.74 3.93021 1.83622 0
M  V30 4215 H 432.411 4.3333 3.41949 0
M  V30 4216 H 434.887 2.40659 3.39445 0
M  V30 4217 H 433.763 2.80195 4.71998 0
M  V30 4218 H 434.024 1.12256 4.27611 0
M  V30 4219 N 433.083 -1.0153 1.20538 0
M  V30 4220 C 434.308 -1.79283 1.04271 0
M  V30 4221 C 434.733 -1.8372 -0.403544 0
M  V30 4222 O 434.091 -1.27321 -1.2907 0
M  V30 4223 C 434.139 -3.21535 1.63241 0
M  V30 4224 O 433.243 -4.03099 0.870908 0
M  V30 4225 H 432.584 -0.55293 0.367647 0
M  V30 4226 H 435.114 -1.27696 1.59859 0
M  V30 4227 H 435.124 -3.72243 1.6703 0
M  V30 4228 H 433.799 -3.1762 2.68497 0
M  V30 4229 H 432.376 -3.61693 0.907323 0
M  V30 4230 N 434.561 -1.01147 -1.20859 0
M  V30 4231 C 435.807 -0.698899 -1.90377 0
M  V30 4232 C 436.14 0.76904 -1.78324 0
M  V30 4233 O 435.415 1.55817 -1.16409 0
M  V30 4234 C 435.698 -1.12878 -3.41951 0
M  V30 4235 C 435.551 -2.65665 -3.62963 0
M  V30 4236 C 436.87 -0.696114 -4.3456 0
M  V30 4237 H 433.989 -0.255372 -0.691342 0
M  V30 4238 H 436.631 -1.25831 -1.42361 0
M  V30 4239 H 434.781 -0.652827 -3.82976 0
M  V30 4240 H 436.453 -3.21074 -3.31224 0
M  V30 4241 H 434.696 -3.06878 -3.06608 0
M  V30 4242 H 435.367 -2.90797 -4.69192 0
M  V30 4243 H 437.843 -1.10521 -4.01154 0
M  V30 4244 H 436.719 -1.025 -5.39245 0
M  V30 4245 H 436.98 0.402465 -4.40264 0
M  V30 4246 N 436.039 1.36541 -0.78704 0
M  V30 4247 C 437.267 2.03561 -0.370199 0
M  V30 4248 C 437.682 1.59347 1.01263 0
M  V30 4249 O 437.039 0.781781 1.64907 0
M  V30 4250 C 437.09 3.59033 -0.421614 0
M  V30 4251 O 436.811 4.01634 -1.7499 0
M  V30 4252 C 438.312 4.433 0.00489763 0
M  V30 4253 H 435.532 0.653346 -0.152904 0
M  V30 4254 H 438.076 1.74566 -1.06522 0
M  V30 4255 H 436.231 3.86746 0.224971 0
M  V30 4256 H 436.645 4.96217 -1.69909 0
M  V30 4257 H 438.119 5.51939 -0.0822184 0
M  V30 4258 H 438.596 4.26285 1.05723 0
M  V30 4259 H 439.202 4.20843 -0.614085 0
M  V30 4260 N 437.518 0.538854 1.48102 0
M  V30 4261 C 438.795 -0.0568108 1.95517 0
M  V30 4262 C 439.175 -1.50408 1.48124 0
M  V30 4263 O 438.523 -2.17133 0.711727 0
M  V30 4264 C 438.733 0.0696262 3.48931 0
M  V30 4265 C 440.081 -0.0851202 4.24515 0
M  V30 4266 O 441.105 -0.0037347 3.562 0
M  V30 4267 O 439.964 -0.257025 5.45895 0
M  V30 4268 H 437.058 -0.0743695 0.823649 0
M  V30 4269 H 439.604 0.604081 1.58584 0
M  V30 4270 H 438.376 1.07744 3.76174 0
M  V30 4271 H 437.999 -0.629714 3.92582 0
M  V30 4272 N 438.996 -1.55193 0.274407 0
M  V30 4273 C 440.273 -1.91584 -0.394331 0
M  V30 4274 C 440.653 -1.19858 -1.73774 0
M  V30 4275 O 440.001 -0.3252 -2.26174 0
M  V30 4276 C 440.211 -3.4487 -0.535311 0
M  V30 4277 C 441.559 -4.16636 -0.818534 0
M  V30 4278 O 442.583 -3.5076 -0.620146 0
M  V30 4279 O 441.442 -5.33209 -1.19792 0
M  V30 4280 H 438.536 -0.798349 -0.215794 0
M  V30 4281 H 441.082 -1.66646 0.320507 0
M  V30 4282 H 439.854 -3.89145 0.410141 0
M  V30 4283 H 439.477 -3.75759 -1.29964 0
M  V30 4284 N 440.474 -0.00167713 -1.576 0
M  V30 4285 C 441.699 0.69739 -1.95323 0
M  V30 4286 C 442.124 1.6642 -0.876706 0
M  V30 4287 O 441.482 1.80548 0.165007 0
M  V30 4288 C 441.53 1.40403 -3.32144 0
M  V30 4289 O 440.634 2.5185 -3.26566 0
M  V30 4290 H 439.975 0.185373 -0.637599 0
M  V30 4291 H 442.505 -0.0553665 -2.04525 0
M  V30 4292 H 442.515 1.76707 -3.67748 0
M  V30 4293 H 441.19 0.695167 -4.10049 0
M  V30 4294 H 439.767 2.17861 -3.0264 0
M  V30 4295 N 441.952 1.55251 0.271103 0
M  V30 4296 C 443.198 1.7713 0.999832 0
M  V30 4297 C 443.553 0.56659 1.83868 0
M  V30 4298 O 442.846 -0.44069 1.86463 0
M  V30 4299 C 443.04 3.01879 1.91321 0
M  V30 4300 C 442.869 4.34368 1.16426 0
M  V30 4301 C 441.639 4.97593 0.879169 0
M  V30 4302 C 443.837 5.1131 0.553749 0
M  V30 4303 N 441.819 6.13813 0.103618 0
M  V30 4304 C 443.19 6.19938 -0.0875442 0
M  V30 4305 C 445.245 4.95754 0.461782 0
M  V30 4306 C 443.948 7.14703 -0.811942 0
M  V30 4307 C 445.974 5.90875 -0.249027 0
M  V30 4308 C 445.336 6.98893 -0.879051 0
M  V30 4309 H 441.435 0.700407 0.347784 0
M  V30 4310 H 444.019 1.92744 0.275314 0
M  V30 4311 H 442.19 2.87637 2.60997 0
M  V30 4312 H 443.922 3.12154 2.57569 0
M  V30 4313 H 440.677 4.58538 1.18491 0
M  V30 4314 H 441.101 6.76455 -0.271543 0
M  V30 4315 H 445.743 4.12342 0.934552 0
M  V30 4316 H 443.461 7.97634 -1.29639 0
M  V30 4317 H 447.047 5.80916 -0.320529 0
M  V30 4318 H 445.927 7.71231 -1.42031 0
M  V30 4319 N 443.43 -0.535701 1.48216 0
M  V30 4320 C 444.36 -1.65014 1.65204 0
M  V30 4321 C 445.341 -1.62554 0.501011 0
M  V30 4322 O 446.526 -1.7984 0.732886 0
M  V30 4323 C 443.656 -3.03616 1.68626 0
M  V30 4324 C 442.61 -3.20932 2.83172 0
M  V30 4325 C 441.936 -4.60537 2.71679 0
M  V30 4326 C 443.236 -3.04249 4.24535 0
M  V30 4327 H 444.93 -1.51053 2.58502 0
M  V30 4328 H 442.476 -0.725262 1.24402 0
M  V30 4329 H 444.429 -3.81446 1.79099 0
M  V30 4330 H 443.153 -3.18587 0.719026 0
M  V30 4331 H 441.812 -2.45517 2.72244 0
M  V30 4332 H 441.46 -4.72336 1.72937 0
M  V30 4333 H 441.16 -4.73069 3.48538 0
M  V30 4334 H 442.684 -5.40475 2.84112 0
M  V30 4335 H 444.098 -3.71877 4.36326 0
M  V30 4336 H 442.495 -3.28278 5.02348 0
M  V30 4337 H 443.565 -2.00739 4.41397 0
M  V30 4338 N 444.908 -1.36708 -0.784132 0
M  V30 4339 C 446.156 -1.30972 -1.53918 0
M  V30 4340 C 446.477 0.109086 -1.94695 0
M  V30 4341 O 445.747 1.05048 -1.65353 0
M  V30 4342 H 444.327 -0.481819 -0.570841 0
M  V30 4343 H 446.989 -1.71063 -0.934002 0
M  V30 4344 H 446.085 -1.94061 -2.44431 0
M  V30 4345 N 446.386 1.0089 -1.21074 0
M  V30 4346 C 447.334 2.11707 -0.963476 0
M  V30 4347 C 448.328 1.69172 0.0879032 0
M  V30 4348 O 449.534 1.79889 -0.0631415 0
M  V30 4349 H 445.909 0.692026 -0.294287 0
M  V30 4350 H 447.88 2.29743 -1.90422 0
M  V30 4351 C 446.629 3.43473 -0.540509 0
M  V30 4352 H 445.952 3.76634 -1.34114 0
M  V30 4353 H 447.392 4.22044 -0.406777 0
M  V30 4354 C 445.851 3.2849 0.748079 0
M  V30 4355 O 446.381 3.58883 1.8046 0
M  V30 4356 N 444.587 2.81715 0.713081 0
M  V30 4357 H 444.134 2.5718 -0.146973 0
M  V30 4358 H 444.092 2.72071 1.57558 0
M  V30 4359 N 447.864 1.01787 1.20321 0
M  V30 4360 C 449.092 0.727194 1.937 0
M  V30 4361 C 449.507 -0.712305 1.74848 0
M  V30 4362 O 448.864 -1.48327 1.06327 0
M  V30 4363 C 448.915 1.05497 3.45764 0
M  V30 4364 O 448.636 2.43794 3.64 0
M  V30 4365 C 450.137 0.785534 4.36285 0
M  V30 4366 H 447.357 0.266939 0.615617 0
M  V30 4367 H 449.901 1.35939 1.52777 0
M  V30 4368 H 448.056 0.468158 3.84561 0
M  V30 4369 H 448.47 2.55656 4.57974 0
M  V30 4370 H 449.944 1.06495 5.4163 0
M  V30 4371 H 450.421 -0.280273 4.38305 0
M  V30 4372 H 451.027 1.35456 4.03152 0
M  V30 4373 N 449.342 -1.36122 0.79427 0
M  V30 4374 C 450.57 -2.03362 0.380989 0
M  V30 4375 C 450.985 -1.59881 -1.00416 0
M  V30 4376 O 450.342 -0.790515 -1.6449 0
M  V30 4377 C 450.393 -3.58804 0.440649 0
M  V30 4378 O 450.114 -4.007 1.77118 0
M  V30 4379 C 451.615 -4.43296 0.0186117 0
M  V30 4380 H 448.835 -0.652526 0.156367 0
M  V30 4381 H 451.379 -1.73998 1.07447 0
M  V30 4382 H 449.534 -3.8686 -0.204458 0
M  V30 4383 H 449.948 -4.95309 1.72538 0
M  V30 4384 H 451.422 -5.51887 0.111488 0
M  V30 4385 H 451.899 -4.2684 -1.03461 0
M  V30 4386 H 452.505 -4.20512 0.636395 0
M  V30 4387 N 450.82 -0.546701 -1.47814 0
M  V30 4388 C 451.752 0.244196 -2.27895 0
M  V30 4389 C 452.765 0.88911 -1.36377 0
M  V30 4390 O 453.954 0.764733 -1.61289 0
M  V30 4391 C 451.054 1.36252 -3.10304 0
M  V30 4392 C 450.227 0.816382 -4.29714 0
M  V30 4393 C 449.286 1.81789 -4.93801 0
M  V30 4394 O 448.312 1.36818 -5.52512 0
M  V30 4395 N 449.514 3.15085 -4.87547 0
M  V30 4396 H 452.279 -0.442694 -2.96412 0
M  V30 4397 H 449.84 -0.382095 -1.57327 0
M  V30 4398 H 451.832 2.03102 -3.50045 0
M  V30 4399 H 450.402 1.95281 -2.44099 0
M  V30 4400 H 449.622 -0.0285981 -3.9419 0
M  V30 4401 H 450.91 0.430668 -5.06974 0
M  V30 4402 H 450.308 3.54275 -4.41028 0
M  V30 4403 H 448.865 3.77522 -5.31339 0
M  V30 4404 N 452.299 1.55045 -0.282633 0
M  V30 4405 C 453.529 2.03872 0.334635 0
M  V30 4406 C 453.937 1.16018 1.49454 0
M  V30 4407 O 453.28 0.174449 1.8287 0
M  V30 4408 C 453.342 3.48791 0.870905 0
M  V30 4409 C 453.006 4.56715 -0.161338 0
M  V30 4410 C 454.003 5.10513 -0.983466 0
M  V30 4411 C 451.688 5.01417 -0.297745 0
M  V30 4412 C 453.682 6.07538 -1.92811 0
M  V30 4413 C 451.369 5.98265 -1.24586 0
M  V30 4414 C 452.367 6.51208 -2.05954 0
M  V30 4415 O 452.055 7.46162 -2.99162 0
M  V30 4416 H 451.787 0.671324 0.0793742 0
M  V30 4417 H 454.341 2.01169 -0.41473 0
M  V30 4418 H 452.571 3.48758 1.67047 0
M  V30 4419 H 454.26 3.80916 1.40207 0
M  V30 4420 H 455.026 4.76785 -0.888856 0
M  V30 4421 H 450.905 4.59849 0.325604 0
M  V30 4422 H 454.449 6.48787 -2.56363 0
M  V30 4423 H 450.346 6.31412 -1.34126 0
M  V30 4424 H 451.114 7.63903 -2.93929 0
M  V30 4425 N 453.777 0.010035 1.57597 0
M  V30 4426 C 455.005 -0.683413 1.95287 0
M  V30 4427 C 455.42 -1.66747 0.885481 0
M  V30 4428 O 454.777 -1.82003 -0.134629 0
M  V30 4429 C 454.828 -1.40652 3.33015 0
M  V30 4430 O 454.549 -0.461916 4.35658 0
M  V30 4431 C 456.05 -2.19356 3.85225 0
M  V30 4432 H 453.27 -0.189708 0.643624 0
M  V30 4433 H 455.814 0.0641359 2.04399 0
M  V30 4434 H 453.969 -2.10562 3.2518 0
M  V30 4435 H 454.383 -0.973215 5.15392 0
M  V30 4436 H 455.857 -2.65433 4.83993 0
M  V30 4437 H 456.334 -3.02457 3.18459 0
M  V30 4438 H 456.94 -1.54442 3.96267 0
M  V30 4439 N 455.255 -1.55392 -0.262866 0
M  V30 4440 C 456.48 -1.80847 -1.01533 0
M  V30 4441 C 456.905 -0.584946 -1.78774 0
M  V30 4442 O 456.263 0.465701 -1.75217 0
M  V30 4443 C 456.311 -3.03866 -1.94159 0
M  V30 4444 O 455.415 -2.79662 -3.03089 0
M  V30 4445 H 454.756 -0.597441 -0.289759 0
M  V30 4446 H 457.286 -2.02553 -0.288698 0
M  V30 4447 H 457.296 -3.32872 -2.35924 0
M  V30 4448 H 455.971 -3.92564 -1.37354 0
M  V30 4449 H 454.548 -2.61781 -2.65566 0
M  V30 4450 N 456.733 0.527833 -1.48498 0
M  V30 4451 C 457.958 1.313 -1.60546 0
M  V30 4452 C 458.383 1.86199 -0.26672 0
M  V30 4453 O 457.741 1.64513 0.761918 0
M  V30 4454 C 457.789 2.43818 -2.65678 0
M  V30 4455 O 456.893 3.46916 -2.22987 0
M  V30 4456 H 456.234 0.388784 -0.538277 0
M  V30 4457 H 458.764 0.634896 -1.945 0
M  V30 4458 H 458.774 2.89973 -2.87018 0
M  V30 4459 H 457.449 2.03222 -3.62869 0
M  V30 4460 H 456.026 3.06864 -2.11869 0
M  V30 4461 N 458.211 1.37122 0.776871 0
M  V30 4462 C 459.174 1.32301 1.8716 0
M  V30 4463 C 460.174 0.228099 1.59174 0
M  V30 4464 O 461.364 0.483642 1.67352 0
M  V30 4465 C 458.496 1.054 3.24197 0
M  V30 4466 H 459.689 2.29673 1.92848 0
M  V30 4467 H 457.242 1.22077 0.97606 0
M  V30 4468 H 457.977 0.0853872 3.24188 0
M  V30 4469 H 457.762 1.84648 3.45901 0
M  V30 4470 H 459.252 1.04664 4.04271 0
M  V30 4471 N 459.689 -1.00246 1.21608 0
M  V30 4472 C 460.938 -1.73476 1.02902 0
M  V30 4473 C 461.251 -1.90643 -0.437561 0
M  V30 4474 O 462.457 -2.61105 -0.74407 0
M  V30 4475 C 460.913 -3.12079 1.79261 0
M  V30 4476 C 460.521 -3.02877 3.30106 0
M  V30 4477 C 462.265 -3.89421 1.68972 0
M  V30 4478 C 460.172 -4.36575 3.98944 0
M  V30 4479 H 459.102 -0.650408 0.381425 0
M  V30 4480 H 461.753 -1.11985 1.45367 0
M  V30 4481 H 460.135 -3.74196 1.2959 0
M  V30 4482 H 461.309 -2.49983 3.87098 0
M  V30 4483 H 459.624 -2.39022 3.40965 0
M  V30 4484 H 462.221 -4.88362 2.17731 0
M  V30 4485 H 462.564 -4.1122 0.648397 0
M  V30 4486 H 463.097 -3.33963 2.16133 0
M  V30 4487 H 459.836 -4.19978 5.03288 0
M  V30 4488 H 459.356 -4.8942 3.4674 0
M  V30 4489 H 461.035 -5.05364 4.04 0
M  V30 4490 N 461.167 -1.02423 -1.1978 0
M  V30 4491 C 462.413 -0.719051 -1.89625 0
M  V30 4492 C 462.746 0.750083 -1.7913 0
M  V30 4493 O 462.021 1.54574 -1.18056 0
M  V30 4494 C 462.304 -1.16499 -3.40735 0
M  V30 4495 C 462.157 -2.695 -3.60125 0
M  V30 4496 C 463.476 -0.742166 -4.33797 0
M  V30 4497 H 460.595 -0.26269 -0.688595 0
M  V30 4498 H 463.237 -1.27333 -1.41018 0
M  V30 4499 H 461.387 -0.69341 -3.82262 0
M  V30 4500 H 463.059 -3.24569 -3.278 0
M  V30 4501 H 461.302 -3.10113 -3.03336 0
M  V30 4502 H 461.973 -2.95757 -4.66081 0
M  V30 4503 H 464.449 -1.1477 -3.99959 0
M  V30 4504 H 463.325 -1.08213 -5.38127 0
M  V30 4505 H 463.586 0.355747 -4.40666 0
M  V30 4506 N 462.645 1.35699 -0.801477 0
M  V30 4507 C 463.608 2.28199 -0.213994 0
M  V30 4508 C 464.608 1.49359 0.595691 0
M  V30 4509 O 465.798 1.69186 0.414921 0
M  V30 4510 C 462.93 3.33587 0.702297 0
M  V30 4511 H 464.123 2.81666 -1.02976 0
M  V30 4512 H 461.676 1.45467 -0.571759 0
M  V30 4513 H 462.411 2.85297 1.54195 0
M  V30 4514 H 462.196 3.91906 0.123484 0
M  V30 4515 H 463.686 4.02638 1.10783 0
M  V30 4516 N 464.123 0.554532 1.47522 0
M  V30 4517 C 465.086 -0.184174 2.28459 0
M  V30 4518 C 466.086 -0.845195 1.36796 0
M  V30 4519 O 467.276 -0.701467 1.59452 0
M  V30 4520 C 464.408 -1.26903 3.16399 0
M  V30 4521 H 465.601 0.526751 2.95238 0
M  V30 4522 H 463.154 0.311375 1.53167 0
M  V30 4523 H 463.889 -2.01244 2.54306 0
M  V30 4524 H 463.674 -0.799883 3.83854 0
M  V30 4525 H 465.164 -1.78794 3.77389 0
M  V30 4526 N 465.601 -1.54893 0.290851 0
M  V30 4527 C 466.85 -1.99111 -0.322113 0
M  V30 4528 C 467.163 -1.18283 -1.55784 0
M  V30 4529 O 468.369 -1.5272 -2.24475 0
M  V30 4530 C 466.825 -3.54442 -0.624438 0
M  V30 4531 C 466.433 -4.44066 0.592373 0
M  V30 4532 C 468.177 -4.07211 -1.19916 0
M  V30 4533 C 466.084 -5.90812 0.263762 0
M  V30 4534 H 465.014 -0.743712 -0.124133 0
M  V30 4535 H 467.665 -1.79132 0.39797 0
M  V30 4536 H 466.047 -3.70281 -1.40384 0
M  V30 4537 H 467.221 -4.39999 1.36886 0
M  V30 4538 H 465.536 -4.02015 1.08502 0
M  V30 4539 H 468.133 -5.14407 -1.45909 0
M  V30 4540 H 468.476 -3.57196 -2.13815 0
M  V30 4541 H 469.009 -3.94873 -0.481687 0
M  V30 4542 H 465.748 -6.44955 1.17105 0
M  V30 4543 H 465.268 -5.97911 -0.475655 0
M  V30 4544 H 466.947 -6.46852 -0.138354 0
M  V30 4545 N 467.08 -0.0183926 -1.57589 0
M  V30 4546 C 468.028 0.985111 -2.10709 0
M  V30 4547 C 469.022 1.34397 -1.0312 0
M  V30 4548 O 470.228 1.32746 -1.21567 0
M  V30 4549 H 466.603 0.335418 -0.673052 0
M  V30 4550 H 468.574 0.511689 -2.9398 0
M  V30 4551 C 467.323 2.26202 -2.64061 0
M  V30 4552 H 466.646 1.9946 -3.4649 0
M  V30 4553 H 468.086 2.94652 -3.04887 0
M  V30 4554 C 466.545 2.98444 -1.5631 0
M  V30 4555 O 467.075 3.90142 -0.956674 0
M  V30 4556 N 465.281 2.6059 -1.28612 0
M  V30 4557 H 464.828 1.86101 -1.78112 0
M  V30 4558 H 464.786 3.09238 -0.567406 0
M  V30 4559 N 468.558 1.5553 0.254621 0
M  V30 4560 C 469.521 1.88872 1.29846 0
M  V30 4561 C 470.521 0.764591 1.41459 0
M  V30 4562 O 471.711 1.03265 1.40293 0
M  V30 4563 C 468.843 2.11032 2.67728 0
M  V30 4564 H 470.036 2.82201 1.01502 0
M  V30 4565 H 467.589 1.48303 0.493556 0
M  V30 4566 H 468.324 1.20146 3.01223 0
M  V30 4567 H 468.109 2.92895 2.60682 0
M  V30 4568 H 469.599 2.38038 3.43115 0
M  V30 4569 N 470.036 -0.519951 1.48776 0
M  V30 4570 C 470.966 -1.63253 1.66945 0
M  V30 4571 C 471.947 -1.62014 0.518224 0
M  V30 4572 O 473.132 -1.79053 0.751919 0
M  V30 4573 C 470.262 -3.0181 1.71836 0
M  V30 4574 C 469.216 -3.17911 2.8656 0
M  V30 4575 C 468.542 -4.5763 2.76548 0
M  V30 4576 C 469.842 -2.99729 4.27738 0
M  V30 4577 H 471.536 -1.48302 2.6009 0
M  V30 4578 H 469.082 -0.712026 1.25165 0
M  V30 4579 H 471.035 -3.79525 1.83135 0
M  V30 4580 H 469.759 -3.17806 0.752775 0
M  V30 4581 H 468.418 -2.42616 2.74833 0
M  V30 4582 H 468.066 -4.70476 1.77937 0
M  V30 4583 H 467.766 -4.69346 3.53536 0
M  V30 4584 H 469.29 -5.37431 2.89828 0
M  V30 4585 H 470.704 -3.67228 4.40246 0
M  V30 4586 H 469.101 -3.22932 5.05801 0
M  V30 4587 H 470.171 -1.96047 4.43502 0
M  V30 4588 N 471.514 -1.37532 -0.769588 0
M  V30 4589 C 472.742 -1.36059 -1.55871 0
M  V30 4590 C 473.157 0.053544 -1.88724 0
M  V30 4591 O 472.514 1.01591 -1.5161 0
M  V30 4592 C 472.565 -2.20107 -2.86767 0
M  V30 4593 O 472.286 -3.56009 -2.55321 0
M  V30 4594 C 473.787 -2.26636 -3.80987 0
M  V30 4595 H 471.007 -0.465967 -0.482821 0
M  V30 4596 H 473.551 -1.80901 -0.953686 0
M  V30 4597 H 471.706 -1.78768 -3.43687 0
M  V30 4598 H 472.12 -4.0009 -3.39158 0
M  V30 4599 H 473.594 -2.89763 -4.69831 0
M  V30 4600 H 474.071 -1.2754 -4.20274 0
M  V30 4601 H 474.677 -2.68296 -3.29996 0
M  V30 4602 N 472.992 0.995999 -1.22138 0
M  V30 4603 C 474.22 1.77066 -1.07029 0
M  V30 4604 C 474.635 1.8495 0.379357 0
M  V30 4605 O 473.992 1.3174 1.26297 0
M  V30 4606 C 474.043 3.20533 -1.67155 0
M  V30 4607 O 473.764 3.13082 -3.06449 0
M  V30 4608 C 475.265 4.14461 -1.5728 0
M  V30 4609 H 472.485 0.556179 -0.375374 0
M  V30 4610 H 475.029 1.25238 -1.61666 0
M  V30 4611 H 473.184 3.6944 -1.16589 0
M  V30 4612 H 473.598 4.03283 -3.35355 0
M  V30 4613 H 475.072 5.1289 -2.04078 0
M  V30 4614 H 475.549 4.36005 -0.528795 0
M  V30 4615 H 476.155 3.71449 -2.07136 0
M  V30 4616 N 474.47 1.03057 1.19235 0
M  V30 4617 C 475.747 0.642608 1.84743 0
M  V30 4618 C 476.127 -0.878577 1.91948 0
M  V30 4619 O 475.475 -1.77597 1.43776 0
M  V30 4620 C 475.685 1.30665 3.23616 0
M  V30 4621 C 477.033 1.43098 3.9976 0
M  V30 4622 O 478.057 1.26396 3.3302 0
M  V30 4623 O 476.916 1.70223 5.19313 0
M  V30 4624 H 474.01 0.223573 0.796206 0
M  V30 4625 H 476.556 1.12883 1.26711 0
M  V30 4626 H 475.328 2.34544 3.13217 0
M  V30 4627 H 474.951 0.808405 3.89295 0
M  V30 4628 N 475.948 -1.35272 0.808662 0
M  V30 4629 C 477.173 -2.03477 0.401475 0
M  V30 4630 C 477.598 -1.60537 -0.980279 0
M  V30 4631 O 476.956 -0.78304 -1.63518 0
M  V30 4632 C 477.004 -3.57181 0.495354 0
M  V30 4633 O 476.108 -4.09474 -0.490397 0
M  V30 4634 H 475.449 -0.642561 0.167366 0
M  V30 4635 H 477.979 -1.72824 1.09512 0
M  V30 4636 H 477.989 -4.06356 0.365912 0
M  V30 4637 H 476.664 -3.87784 1.5032 0
M  V30 4638 H 475.241 -3.71516 -0.321023 0
M  V30 4639 N 477.426 -0.562348 -1.47226 0
M  V30 4640 C 478.651 -0.0432632 -2.07355 0
M  V30 4641 C 479.076 1.24332 -1.41149 0
M  V30 4642 O 478.434 1.74603 -0.488226 0
M  V30 4643 C 478.482 0.130288 -3.60365 0
M  V30 4644 O 477.586 1.19166 -3.94808 0
M  V30 4645 H 476.927 -0.0536334 -0.66183 0
M  V30 4646 H 479.457 -0.779495 -1.89169 0
M  V30 4647 H 479.467 0.342881 -4.06557 0
M  V30 4648 H 478.142 -0.809389 -4.07948 0
M  V30 4649 H 476.719 0.959153 -3.60354 0
M  V30 4650 N 478.904 1.54736 -0.299062 0
M  V30 4651 C 479.834 2.26409 0.571085 0
M  V30 4652 C 480.815 1.2629 1.13951 0
M  V30 4653 O 482 1.55059 1.16921 0
M  V30 4654 C 479.13 3.00338 1.74396 0
M  V30 4655 C 478.084 4.07588 1.30599 0
M  V30 4656 C 477.41 4.69222 2.56387 0
M  V30 4657 C 478.71 5.20455 0.438645 0
M  V30 4658 H 480.404 2.99388 -0.0266991 0
M  V30 4659 H 477.95 1.43993 -0.0142812 0
M  V30 4660 H 479.903 3.49198 2.35878 0
M  V30 4661 H 478.627 2.24934 2.36796 0
M  V30 4662 H 477.286 3.59575 0.71424 0
M  V30 4663 H 476.934 3.9046 3.17097 0
M  V30 4664 H 476.634 5.41653 2.27784 0
M  V30 4665 H 478.158 5.20844 3.18675 0
M  V30 4666 H 479.572 5.65221 0.959085 0
M  V30 4667 H 477.969 5.99594 0.246466 0
M  V30 4668 H 479.039 4.8192 -0.536738 0
M  V30 4669 N 480.382 0.0267497 1.57577 0
M  V30 4670 C 481.659 -0.690926 1.82991 0
M  V30 4671 C 482.039 -1.90471 0.910164 0
M  V30 4672 O 481.387 -2.28474 -0.0347985 0
M  V30 4673 C 481.597 -1.07139 3.32148 0
M  V30 4674 C 482.945 -1.46402 3.98562 0
M  V30 4675 O 483.969 -1.16443 3.36629 0
M  V30 4676 O 482.828 -2.02214 5.07712 0
M  V30 4677 H 479.922 -0.338747 0.75444 0
M  V30 4678 H 482.468 0.0542506 1.69613 0
M  V30 4679 H 481.24 -0.207394 3.9075 0
M  V30 4680 H 480.863 -1.87481 3.50623 0
M  V30 4681 N 481.861 -1.55662 -0.24637 0
M  V30 4682 C 482.791 -1.93377 -1.30873 0
M  V30 4683 C 483.772 -0.798773 -1.50179 0
M  V30 4684 O 484.957 -1.0591 -1.62778 0
M  V30 4685 C 482.087 -2.22893 -2.66338 0
M  V30 4686 C 481.041 -3.38649 -2.61727 0
M  V30 4687 C 480.367 -3.53708 -4.00992 0
M  V30 4688 C 481.667 -4.74323 -2.18666 0
M  V30 4689 H 483.361 -2.82363 -0.995552 0
M  V30 4690 H 480.907 -1.35854 -0.477464 0
M  V30 4691 H 482.86 -2.47866 -3.40794 0
M  V30 4692 H 481.584 -1.30733 -2.99293 0
M  V30 4693 H 480.243 -3.13685 -1.89729 0
M  V30 4694 H 479.891 -2.58967 -4.31214 0
M  V30 4695 H 479.591 -4.31551 -3.98795 0
M  V30 4696 H 481.115 -3.81003 -4.77147 0
M  V30 4697 H 482.529 -4.98665 -2.82854 0
M  V30 4698 H 480.926 -5.55273 -2.27579 0
M  V30 4699 H 481.996 -4.71349 -1.13834 0
M  V30 4700 N 483.339 0.512053 -1.4905 0
M  V30 4701 C 484.587 1.26436 -1.57665 0
M  V30 4702 C 484.908 1.93255 -0.260293 0
M  V30 4703 O 484.178 1.82206 0.719564 0
M  V30 4704 H 482.758 0.469658 -0.580888 0
M  V30 4705 H 485.42 0.594398 -1.85615 0
M  V30 4706 H 484.516 2.03417 -2.36702 0
M  V30 4707 N 484.817 1.37938 0.762283 0
M  V30 4708 C 486.094 1.24196 1.51112 0
M  V30 4709 C 486.474 -0.160409 2.1049 0
M  V30 4710 O 485.822 -1.16904 1.96331 0
M  V30 4711 C 486.032 2.34537 2.58445 0
M  V30 4712 C 487.38 2.7254 3.25588 0
M  V30 4713 O 488.404 2.33783 2.68745 0
M  V30 4714 O 487.263 3.39343 4.28379 0
M  V30 4715 H 484.357 0.485175 0.669727 0
M  V30 4716 H 486.903 1.49743 0.798438 0
M  V30 4717 H 485.675 3.28406 2.12756 0
M  V30 4718 H 485.298 2.10505 3.37303 0
M  V30 4719 N 486.295 -0.989507 1.22664 0
M  V30 4720 C 487.543 -1.72612 1.05117 0
M  V30 4721 C 487.864 -1.90552 -0.414131 0
M  V30 4722 O 487.134 -1.4676 -1.29762 0
M  V30 4723 H 485.714 -0.639555 0.385977 0
M  V30 4724 H 488.376 -1.19158 1.54232 0
M  V30 4725 H 487.472 -2.71926 1.53175 0
M  V30 4726 N 487.773 -1.03688 -1.18687 0
M  V30 4727 C 489.019 -0.739123 -1.88851 0
M  V30 4728 C 489.352 0.731042 -1.79915 0
M  V30 4729 O 488.627 1.53313 -1.19688 0
M  V30 4730 C 488.91 -1.20106 -3.3948 0
M  V30 4731 C 488.763 -2.73304 -3.57246 0
M  V30 4732 C 490.082 -0.788134 -4.32986 0
M  V30 4733 H 487.201 -0.269978 -0.68577 0
M  V30 4734 H 489.843 -1.28822 -1.3966 0
M  V30 4735 H 487.993 -0.733915 -3.81505 0
M  V30 4736 H 489.665 -3.28027 -3.24339 0
M  V30 4737 H 487.908 -3.13313 -3.00029 0
M  V30 4738 H 488.579 -3.00684 -4.62918 0
M  V30 4739 H 491.055 -1.19005 -3.98719 0
M  V30 4740 H 489.931 -1.13915 -5.36949 0
M  V30 4741 H 490.192 0.308988 -4.41019 0
M  V30 4742 N 489.251 1.34841 -0.815825 0
M  V30 4743 C 490.662 1.80937 -0.46029 0
M  V30 4744 C 491.013 1.67685 1.01863 0
M  V30 4745 O 490.138 1.21277 1.79223 0
M  V30 4746 C 490.733 3.28509 -0.828708 0
M  V30 4747 C 489.292 3.72712 -0.525644 0
M  V30 4748 C 488.439 2.56676 -1.04941 0
M  V30 4749 H 491.39 1.22688 -1.00664 0
M  V30 4750 H 491.411 3.80279 -0.129757 0
M  V30 4751 H 490.923 3.38122 -1.90513 0
M  V30 4752 H 489.024 3.68642 0.541666 0
M  V30 4753 H 489.137 4.67119 -1.06474 0
M  V30 4754 H 487.501 2.50302 -0.471286 0
M  V30 4755 H 488.284 2.69063 -2.13214 0
M  V30 4756 N 490.729 0.570148 1.46925 0
M  V30 4757 C 491.975 0.0510284 2.02736 0
M  V30 4758 C 492.308 -1.3006 1.44215 0
M  V30 4759 O 491.583 -1.84932 0.602521 0
M  V30 4760 C 491.866 -0.028215 3.60089 0
M  V30 4761 C 491.719 1.35142 4.29018 0
M  V30 4762 C 493.038 -0.735181 4.33916 0
M  V30 4763 H 490.157 0.0200178 0.736728 0
M  V30 4764 H 492.799 0.73493 1.75211 0
M  V30 4765 H 490.949 -0.610648 3.83671 0
M  V30 4766 H 492.621 1.97806 4.16738 0
M  V30 4767 H 490.864 1.9226 3.88868 0
M  V30 4768 H 491.535 1.24857 5.37694 0
M  V30 4769 H 494.011 -0.240519 4.15404 0
M  V30 4770 H 492.887 -0.759622 5.43618 0
M  V30 4771 H 493.148 -1.79397 4.04066 0
M  V30 4772 N 492.207 -1.54576 0.307264 0
M  V30 4773 C 493.154 -2.23751 -0.56604 0
M  V30 4774 C 494.124 -1.22235 -1.12462 0
M  V30 4775 O 495.309 -1.50873 -1.16799 0
M  V30 4776 C 492.449 -2.98661 -1.72903 0
M  V30 4777 C 491.562 -4.14963 -1.20124 0
M  V30 4778 C 490.697 -4.77441 -2.3286 0
M  V30 4779 C 489.736 -5.85875 -1.77247 0
M  V30 4780 N 488.873 -6.42282 -2.8358 0
M  V30 4781 H 493.713 -2.97984 0.0304578 0
M  V30 4782 H 491.25 -1.47076 0.0268015 0
M  V30 4783 H 493.208 -3.40329 -2.41313 0
M  V30 4784 H 491.838 -2.26793 -2.29706 0
M  V30 4785 H 490.89 -3.78193 -0.409198 0
M  V30 4786 H 492.202 -4.93066 -0.754171 0
M  V30 4787 H 491.356 -5.21993 -3.09205 0
M  V30 4788 H 490.095 -3.98684 -2.80896 0
M  V30 4789 H 489.1 -5.40741 -0.993926 0
M  V30 4790 H 490.325 -6.6652 -1.30107 0
M  V30 4791 H 488.271 -5.66406 -3.30939 0
M  V30 4792 H 488.188 -7.1575 -2.43388 0
M  V30 4793 H 489.456 -6.91492 -3.59804 0
M  V30 4794 N 493.685 -0.035106 -1.57561 0
M  V30 4795 C 494.91 0.655802 -1.96759 0
M  V30 4796 C 495.335 1.64523 -0.911809 0
M  V30 4797 O 494.693 1.80857 0.126673 0
M  V30 4798 C 494.741 1.33326 -3.35047 0
M  V30 4799 O 493.845 2.44866 -3.31835 0
M  V30 4800 H 493.186 0.171807 -0.641388 0
M  V30 4801 H 495.716 -0.0987369 -2.04362 0
M  V30 4802 H 495.726 1.68867 -3.71413 0
M  V30 4803 H 494.401 0.608033 -4.11431 0
M  V30 4804 H 492.978 2.11392 -3.07193 0
M  V30 4805 N 495.163 1.55791 0.238111 0
M  V30 4806 C 496.579 1.48411 0.587045 0
M  V30 4807 C 496.779 0.72702 1.87927 0
M  V30 4808 O 495.835 0.259942 2.51158 0
M  V30 4809 C 497.148 2.92873 0.681623 0
M  V30 4810 C 498.696 3.03295 0.773363 0
M  V30 4811 C 499.171 4.49082 0.899428 0
M  V30 4812 N 500.662 4.53056 0.964075 0
M  V30 4813 C 501.397 5.63117 1.08104 0
M  V30 4814 N 500.893 6.82969 1.16299 0
M  V30 4815 N 502.686 5.50933 1.11488 0
M  V30 4816 H 494.837 2.0345 -0.610076 0
M  V30 4817 H 497.1 0.924034 -0.211813 0
M  V30 4818 H 496.806 3.51142 -0.19802 0
M  V30 4819 H 496.68 3.43851 1.55069 0
M  V30 4820 H 499.067 2.45101 1.64346 0
M  V30 4821 H 499.148 2.55513 -0.121034 0
M  V30 4822 H 498.792 5.07889 0.0338586 0
M  V30 4823 H 498.722 4.94553 1.809 0
M  V30 4824 H 501.213 3.66737 0.91173 0
M  V30 4825 H 501.526 7.62598 1.25155 0
M  V30 4826 H 499.871 6.85712 1.13241 0
M  V30 4827 H 503.062 4.56231 1.0474 0
M  V30 4828 H 503.235 6.36743 1.20259 0
M  V30 4829 N 496.642 -0.504142 1.49319 0
M  V30 4830 C 497.589 -1.60603 1.65756 0
M  V30 4831 C 498.559 -1.58425 0.499082 0
M  V30 4832 O 499.744 -1.76459 0.725728 0
M  V30 4833 C 496.884 -2.98764 1.72726 0
M  V30 4834 C 495.997 -3.10982 2.99857 0
M  V30 4835 C 495.132 -4.39857 2.97824 0
M  V30 4836 C 494.171 -4.45697 4.19548 0
M  V30 4837 N 493.308 -5.65995 4.15444 0
M  V30 4838 H 498.148 -1.45895 2.59843 0
M  V30 4839 H 495.685 -0.709891 1.28837 0
M  V30 4840 H 497.643 -3.78839 1.74747 0
M  V30 4841 H 496.273 -3.12183 0.821075 0
M  V30 4842 H 495.325 -2.23991 3.07461 0
M  V30 4843 H 496.637 -3.11157 3.89849 0
M  V30 4844 H 495.791 -5.2825 2.98391 0
M  V30 4845 H 494.53 -4.42242 2.05604 0
M  V30 4846 H 493.535 -3.55707 4.19229 0
M  V30 4847 H 494.76 -4.4503 5.12957 0
M  V30 4848 H 492.706 -5.69229 3.26059 0
M  V30 4849 H 492.623 -5.67773 4.99169 0
M  V30 4850 H 493.891 -6.56604 4.20109 0
M  V30 4851 N 498.12 -1.38341 -0.754957 0
M  V30 4852 C 499.348 -1.37704 -1.54419 0
M  V30 4853 C 499.763 0.0335243 -1.8877 0
M  V30 4854 O 499.12 0.999773 -1.52679 0
M  V30 4855 C 499.171 -2.23136 -2.84416 0
M  V30 4856 O 498.892 -3.58697 -2.51531 0
M  V30 4857 C 500.393 -2.30664 -3.78562 0
M  V30 4858 H 497.613 -0.471061 -0.477852 0
M  V30 4859 H 500.157 -1.81902 -0.934446 0
M  V30 4860 H 498.312 -1.82403 -3.41772 0
M  V30 4861 H 498.726 -4.03665 -3.34896 0
M  V30 4862 H 500.2 -2.9473 -4.66732 0
M  V30 4863 H 500.677 -1.3199 -4.18898 0
M  V30 4864 H 501.283 -2.71781 -3.27131 0
M  V30 4865 N 499.598 0.982988 -1.23187 0
M  V30 4866 C 500.826 1.75921 -1.08901 0
M  V30 4867 C 501.241 1.85341 0.359719 0
M  V30 4868 O 500.598 1.33072 1.24892 0
M  V30 4869 C 500.649 3.18742 -1.70545 0
M  V30 4870 O 500.37 3.09814 -3.09753 0
M  V30 4871 C 501.871 4.1277 -1.61667 0
M  V30 4872 H 499.091 0.552166 -0.381252 0
M  V30 4873 H 501.635 1.23516 -1.62985 0
M  V30 4874 H 499.79 3.68182 -1.20501 0
M  V30 4875 H 500.204 3.99703 -3.39614 0
M  V30 4876 H 501.678 5.10697 -2.09506 0
M  V30 4877 H 502.155 4.3542 -0.575009 0
M  V30 4878 H 502.761 3.69232 -2.11064 0
M  V30 4879 N 501.076 1.04316 1.18135 0
M  V30 4880 C 502.006 0.657299 2.24058 0
M  V30 4881 C 502.987 -0.340678 1.66654 0
M  V30 4882 O 504.172 -0.220223 1.92947 0
M  V30 4883 C 501.302 0.0220715 3.47293 0
M  V30 4884 C 500.256 0.943857 4.17463 0
M  V30 4885 C 499.582 0.172973 5.3442 0
M  V30 4886 C 500.882 2.26409 4.70677 0
M  V30 4887 H 502.576 1.5428 2.56589 0
M  V30 4888 H 500.122 0.743263 1.23335 0
M  V30 4889 H 502.075 -0.259607 4.206 0
M  V30 4890 H 500.799 -0.898323 3.14003 0
M  V30 4891 H 499.458 1.20996 3.46057 0
M  V30 4892 H 499.106 -0.749907 4.97379 0
M  V30 4893 H 498.806 0.787098 5.82304 0
M  V30 4894 H 500.33 -0.101628 6.10515 0
M  V30 4895 H 501.744 2.04294 5.35665 0
M  V30 4896 H 500.141 2.8314 5.29105 0
M  V30 4897 H 501.211 2.90883 3.87962 0
M  V30 4898 N 502.554 -1.34406 0.822964 0
M  V30 4899 C 503.464 -2.33298 0.246838 0
M  V30 4900 C 504.48 -1.62625 -0.618797 0
M  V30 4901 O 505.656 -1.94391 -0.526685 0
M  V30 4902 C 502.721 -3.41785 -0.581731 0
M  V30 4903 C 501.782 -4.28206 0.306309 0
M  V30 4904 C 501.015 -5.31512 -0.48281 0
M  V30 4905 O 501.238 -5.43973 -1.71607 0
M  V30 4906 O 500.172 -6.01749 0.134884 0
M  V30 4907 H 503.998 -2.84401 1.06534 0
M  V30 4908 H 501.583 -1.37466 0.585108 0
M  V30 4909 H 503.465 -4.08028 -1.05313 0
M  V30 4910 H 502.14 -2.92925 -1.37756 0
M  V30 4911 H 501.047 -3.64885 0.825199 0
M  V30 4912 H 502.38 -4.80507 1.06649 0
M  V30 4913 N 504.032 -0.577932 -1.46621 0
M  V30 4914 C 504.964 0.195801 -2.28362 0
M  V30 4915 C 505.977 0.859983 -1.38232 0
M  V30 4916 O 507.166 0.730349 -1.62875 0
M  V30 4917 C 504.266 1.29639 -3.13124 0
M  V30 4918 C 503.439 0.725049 -4.31349 0
M  V30 4919 C 502.498 1.71274 -4.97546 0
M  V30 4920 O 501.524 1.25067 -5.5529 0
M  V30 4921 N 502.726 3.04672 -4.94121 0
M  V30 4922 H 505.491 -0.505468 -2.95407 0
M  V30 4923 H 503.052 -0.415381 -1.56481 0
M  V30 4924 H 505.044 1.95631 -3.54275 0
M  V30 4925 H 503.614 1.90059 -2.48186 0
M  V30 4926 H 502.834 -0.112205 -3.9404 0
M  V30 4927 H 504.122 0.323034 -5.07774 0
M  V30 4928 H 503.52 3.4484 -4.48444 0
M  V30 4929 H 502.077 3.66166 -5.39227 0
M  V30 4930 N 505.51 1.54411 -0.315457 0
M  V30 4931 C 506.921 1.85885 0.174265 0
M  V30 4932 C 507.272 1.23723 1.52273 0
M  V30 4933 O 506.397 0.540246 2.09548 0
M  V30 4934 C 506.992 3.37257 0.322981 0
M  V30 4935 C 505.551 3.68711 0.756922 0
M  V30 4936 C 504.698 2.77013 -0.126195 0
M  V30 4937 H 507.649 1.49374 -0.536007 0
M  V30 4938 H 507.67 3.62539 1.15522 0
M  V30 4939 H 507.182 3.82471 -0.658602 0
M  V30 4940 H 505.283 3.29024 1.74854 0
M  V30 4941 H 505.396 4.75741 0.566291 0
M  V30 4942 H 503.76 2.51588 0.39692 0
M  V30 4943 H 504.543 3.25051 -1.1044 0
M  V30 4944 N 506.988 0.0434614 1.5754 0
M  V30 4945 C 508.399 -0.493343 1.80064 0
M  V30 4946 C 508.75 -1.71388 0.955023 0
M  V30 4947 O 507.875 -2.15736 0.169434 0
M  V30 4948 C 508.47 -0.90179 3.26578 0
M  V30 4949 C 507.029 -1.38362 3.50047 0
M  V30 4950 C 506.176 -0.355129 2.75017 0
M  V30 4951 H 509.127 0.2694 1.56397 0
M  V30 4952 H 509.148 -1.76523 3.37075 0
M  V30 4953 H 508.66 -0.013271 3.88098 0
M  V30 4954 H 506.761 -2.29159 2.93798 0
M  V30 4955 H 506.874 -1.3811 4.58762 0
M  V30 4956 H 505.238 -0.826348 2.40922 0
M  V30 4957 H 506.021 0.525172 3.39259 0
M  V30 4958 N 508.466 -1.55915 -0.229846 0
M  V30 4959 C 509.691 -1.8296 -0.976743 0
M  V30 4960 C 510.116 -0.622735 -1.77493 0
M  V30 4961 O 509.474 0.428431 -1.76165 0
M  V30 4962 C 509.522 -3.07916 -1.8767 0
M  V30 4963 O 508.626 -2.86028 -2.97088 0
M  V30 4964 H 507.967 -0.603453 -0.277021 0
M  V30 4965 H 510.497 -2.0312 -0.245669 0
M  V30 4966 H 510.507 -3.37802 -2.2881 0
M  V30 4967 H 509.182 -3.95389 -1.28996 0
M  V30 4968 H 507.759 -2.67355 -2.59954 0
M  V30 4969 N 509.944 0.496216 -1.49584 0
M  V30 4970 C 511.19 1.25189 -1.59548 0
M  V30 4971 C 511.523 1.9212 -0.283466 0
M  V30 4972 O 510.798 1.80947 0.713324 0
M  V30 4973 C 511.081 2.31516 -2.75812 0
M  V30 4974 C 510.934 1.69054 -4.16822 0
M  V30 4975 C 512.253 3.3304 -2.87702 0
M  V30 4976 H 509.372 0.45379 -0.580727 0
M  V30 4977 H 512.014 0.549327 -1.81886 0
M  V30 4978 H 510.164 2.91438 -2.56897 0
M  V30 4979 H 511.836 1.12923 -4.47265 0
M  V30 4980 H 510.079 0.994485 -4.22247 0
M  V30 4981 H 510.75 2.462 -4.94054 0
M  V30 4982 H 513.226 2.83114 -3.04936 0
M  V30 4983 H 512.102 4.04794 -3.7072 0
M  V30 4984 H 512.363 3.95655 -1.97255 0
M  V30 4985 N 511.423 1.38739 0.74761 0
M  V30 4986 C 512.386 1.36241 1.84312 0
M  V30 4987 C 513.386 0.261811 1.58654 0
M  V30 4988 O 514.576 0.519031 1.66288 0
M  V30 4989 C 511.708 1.12253 3.21888 0
M  V30 4990 H 512.901 2.33712 1.87933 0
M  V30 4991 H 510.454 1.2412 0.949946 0
M  V30 4992 H 511.189 0.154133 3.23934 0
M  V30 4993 H 510.974 1.91943 3.41907 0
M  V30 4994 H 512.464 1.13215 4.0196 0
M  V30 4995 N 512.901 -0.976442 1.23707 0
M  V30 4996 C 513.831 -2.08749 1.04624 0
M  V30 4997 C 514.812 -1.70057 -0.0380956 0
M  V30 4998 O 515.997 -1.93782 0.127308 0
M  V30 4999 C 513.127 -3.41335 0.640902 0
M  V30 5000 C 512.081 -3.93947 1.67302 0
M  V30 5001 C 511.407 -5.22774 1.12301 0
M  V30 5002 C 512.707 -4.22769 3.06697 0
M  V30 5003 H 514.401 -2.24972 1.97555 0
M  V30 5004 H 511.947 -1.08108 0.951247 0
M  V30 5005 H 513.9 -4.18489 0.494434 0
M  V30 5006 H 512.624 -3.24988 -0.324099 0
M  V30 5007 H 511.283 -3.18941 1.80755 0
M  V30 5008 H 510.931 -5.0278 0.148877 0
M  V30 5009 H 510.631 -5.58942 1.81267 0
M  V30 5010 H 512.155 -6.02546 0.988479 0
M  V30 5011 H 513.569 -4.90659 2.96524 0
M  V30 5012 H 511.966 -4.70147 3.72937 0
M  V30 5013 H 513.036 -3.29885 3.55392 0
M  V30 5014 N 514.379 -1.04941 -1.1758 0
M  V30 5015 C 515.326 -0.648155 -2.21512 0
M  V30 5016 C 516.296 0.348431 -1.62404 0
M  V30 5017 O 517.481 0.240419 -1.89279 0
M  V30 5018 C 514.621 -0.0264291 -3.4509 0
M  V30 5019 C 513.734 -1.07154 -4.185 0
M  V30 5020 C 512.869 -0.417403 -5.29558 0
M  V30 5021 C 511.908 -1.447 -5.94751 0
M  V30 5022 N 511.045 -0.817203 -6.97328 0
M  V30 5023 H 515.885 -1.53891 -2.55189 0
M  V30 5024 H 513.422 -0.769699 -1.25356 0
M  V30 5025 H 515.38 0.351456 -4.15717 0
M  V30 5026 H 514.01 0.827802 -3.12005 0
M  V30 5027 H 513.062 -1.56728 -3.46613 0
M  V30 5028 H 514.374 -1.8532 -4.63096 0
M  V30 5029 H 513.528 0.0142061 -6.06698 0
M  V30 5030 H 512.267 0.396265 -4.86087 0
M  V30 5031 H 511.272 -1.88865 -5.16343 0
M  V30 5032 H 512.497 -2.26252 -6.40302 0
M  V30 5033 H 510.443 -0.0239995 -6.55996 0
M  V30 5034 H 510.36 -1.53644 -7.40223 0
M  V30 5035 H 511.628 -0.410283 -7.7842 0
M  V30 5036 N 515.857 1.33968 -0.830081 0
M  V30 5037 C 517.103 1.98357 -0.422191 0
M  V30 5038 C 517.436 1.65633 1.01387 0
M  V30 5039 O 516.711 0.931648 1.70735 0
M  V30 5040 C 516.994 3.54492 -0.633043 0
M  V30 5041 C 516.847 3.96934 -2.11574 0
M  V30 5042 C 518.166 4.40039 -0.0735584 0
M  V30 5043 H 515.285 0.720544 -0.154871 0
M  V30 5044 H 517.927 1.58749 -1.04397 0
M  V30 5045 H 516.077 3.88361 -0.103775 0
M  V30 5046 H 517.749 3.73363 -2.7092 0
M  V30 5047 H 515.992 3.46984 -2.60354 0
M  V30 5048 H 516.663 5.05651 -2.21406 0
M  V30 5049 H 519.139 4.12764 -0.52585 0
M  V30 5050 H 518.015 5.48327 -0.250841 0
M  V30 5051 H 518.276 4.30124 1.02202 0
M  V30 5052 N 517.335 0.585699 1.46312 0
M  V30 5053 C 518.245 -0.148236 2.34131 0
M  V30 5054 C 519.261 -0.882972 1.49932 0
M  V30 5055 O 520.437 -0.845484 1.82794 0
M  V30 5056 C 517.502 -1.14714 3.27172 0
M  V30 5057 C 516.563 -0.416746 4.27272 0
M  V30 5058 C 515.796 -1.36806 5.15868 0
M  V30 5059 O 516.019 -2.60475 5.07454 0
M  V30 5060 O 514.953 -0.877018 5.95476 0
M  V30 5061 H 518.779 0.572882 2.98248 0
M  V30 5062 H 516.364 0.346082 1.45336 0
M  V30 5063 H 518.246 -1.72303 3.84564 0
M  V30 5064 H 516.921 -1.84967 2.65648 0
M  V30 5065 H 515.828 0.201061 3.73559 0
M  V30 5066 H 517.161 0.244872 4.9159 0
M  V30 5067 N 518.813 -1.54241 0.323641 0
M  V30 5068 C 520.224 -1.85975 -0.164405 0
M  V30 5069 C 520.575 -1.24529 -1.51615 0
M  V30 5070 O 519.7 -0.551351 -2.09258 0
M  V30 5071 C 520.295 -3.37424 -0.305091 0
M  V30 5072 C 518.854 -3.69107 -0.737358 0
M  V30 5073 C 518.001 -2.76942 0.140884 0
M  V30 5074 H 520.952 -1.49088 0.543922 0
M  V30 5075 H 520.973 -3.63147 -1.13598 0
M  V30 5076 H 520.485 -3.82116 0.678876 0
M  V30 5077 H 518.586 -3.29947 -1.73107 0
M  V30 5078 H 518.699 -4.76035 -0.541053 0
M  V30 5079 H 517.063 -2.51795 -0.383572 0
M  V30 5080 H 517.846 -3.24461 1.12162 0
M  V30 5081 N 520.291 -0.0518155 -1.57515 0
M  V30 5082 C 521.537 0.622745 -1.93002 0
M  V30 5083 C 521.87 1.70456 -0.930499 0
M  V30 5084 O 521.145 1.94452 0.0434086 0
M  V30 5085 C 521.428 1.21824 -3.38867 0
M  V30 5086 C 521.281 0.144434 -4.49568 0
M  V30 5087 C 522.6 2.12968 -3.8514 0
M  V30 5088 H 519.719 0.22491 -0.701844 0
M  V30 5089 H 522.361 -0.113711 -1.89659 0
M  V30 5090 H 520.511 1.8459 -3.41846 0
M  V30 5091 H 522.183 -0.48753 -4.58717 0
M  V30 5092 H 520.426 -0.527424 -4.30582 0
M  V30 5093 H 521.097 0.601127 -5.48717 0
M  V30 5094 H 523.573 1.60163 -3.8404 0
M  V30 5095 H 522.449 2.51578 -4.87852 0
M  V30 5096 H 522.71 3.03004 -3.21934 0
M  V30 5097 N 521.769 1.56035 0.221574 0
M  V30 5098 C 523.017 1.78693 0.944102 0
M  V30 5099 C 523.338 0.620317 1.8487 0
M  V30 5100 O 522.608 -0.362784 1.92512 0
M  V30 5101 H 521.188 0.659082 0.351597 0
M  V30 5102 H 523.85 1.93497 0.233435 0
M  V30 5103 H 522.946 2.70837 1.55093 0
M  V30 5104 N 523.247 -0.488276 1.49845 0
M  V30 5105 C 524.157 -1.61451 1.70207 0
M  V30 5106 C 525.173 -1.63877 0.584846 0
M  V30 5107 O 526.349 -1.82063 0.861107 0
M  V30 5108 C 523.414 -2.9776 1.77594 0
M  V30 5109 C 522.475 -3.05861 3.01243 0
M  V30 5110 C 521.708 -4.35668 3.08268 0
M  V30 5111 O 521.931 -5.25197 2.22541 0
M  V30 5112 O 520.865 -4.49005 4.00847 0
M  V30 5113 H 524.691 -1.47199 2.65643 0
M  V30 5114 H 522.276 -0.665939 1.33737 0
M  V30 5115 H 524.158 -3.7875 1.84732 0
M  V30 5116 H 522.833 -3.12248 0.8534 0
M  V30 5117 H 521.74 -2.24012 2.99616 0
M  V30 5118 H 523.073 -2.96304 3.9302 0
M  V30 5119 N 524.725 -1.39134 -0.740242 0
M  V30 5120 C 526.002 -1.26584 -1.49117 0
M  V30 5121 C 526.382 0.126902 -2.10718 0
M  V30 5122 O 525.73 1.13765 -1.98166 0
M  V30 5123 C 525.94 -2.38619 -2.54681 0
M  V30 5124 C 527.288 -2.77685 -3.21211 0
M  V30 5125 O 528.312 -2.38029 -2.64991 0
M  V30 5126 O 527.171 -3.46115 -4.22926 0
M  V30 5127 H 524.265 -0.495769 -0.661923 0
M  V30 5128 H 526.811 -1.50995 -0.774514 0
M  V30 5129 H 525.583 -3.3175 -2.07504 0
M  V30 5130 H 525.206 -2.15845 -3.33911 0
M  V30 5131 N 526.204 0.969867 -1.24223 0
M  V30 5132 C 527.134 2.08191 -1.05729 0
M  V30 5133 C 528.115 1.70075 0.0290765 0
M  V30 5134 O 529.3 1.93712 -0.137583 0
M  V30 5135 C 526.43 3.40991 -0.658995 0
M  V30 5136 C 525.384 3.93054 -1.69389 0
M  V30 5137 C 524.71 5.22171 -1.15072 0
M  V30 5138 C 526.01 4.21137 -3.08935 0
M  V30 5139 H 527.704 2.23921 -1.98746 0
M  V30 5140 H 525.25 1.07602 -0.956967 0
M  V30 5141 H 527.203 4.18221 -0.51662 0
M  V30 5142 H 525.927 3.25155 0.30686 0
M  V30 5143 H 524.586 3.17977 -1.82444 0
M  V30 5144 H 524.234 5.02694 -0.175539 0
M  V30 5145 H 523.934 5.57973 -1.84229 0
M  V30 5146 H 525.458 6.02013 -1.02042 0
M  V30 5147 H 526.872 4.8908 -2.99121 0
M  V30 5148 H 525.269 4.68163 -3.75425 0
M  V30 5149 H 526.339 3.27996 -3.57137 0
M  V30 5150 N 527.682 1.05563 1.17022 0
M  V30 5151 C 528.93 0.76642 1.87004 0
M  V30 5152 C 529.251 -0.708854 1.8166 0
M  V30 5153 O 528.521 -1.51242 1.2451 0
M  V30 5154 H 527.101 0.280516 0.692329 0
M  V30 5155 H 529.763 1.33557 1.41945 0
M  V30 5156 H 528.859 1.08472 2.92644 0
M  V30 5157 N 529.16 -1.33526 0.837174 0
M  V30 5158 C 530.385 -2.0258 0.444545 0
M  V30 5159 C 530.81 -1.6258 -0.946006 0
M  V30 5160 O 530.168 -0.817548 -1.6182 0
M  V30 5161 C 530.216 -3.5605 0.571006 0
M  V30 5162 O 529.32 -4.10422 -0.403431 0
M  V30 5163 H 528.661 -0.638866 0.180958 0
M  V30 5164 H 531.191 -1.70462 1.13154 0
M  V30 5165 H 531.201 -4.05488 0.452024 0
M  V30 5166 H 529.876 -3.84509 1.58512 0
M  V30 5167 H 528.453 -3.72113 -0.242147 0
M  V30 5168 N 530.638 -0.59345 -1.46 0
M  V30 5169 C 532.049 -0.169801 -1.85926 0
M  V30 5170 C 532.4 1.26984 -1.49565 0
M  V30 5171 O 531.525 1.96076 -0.915602 0
M  V30 5172 C 532.12 -0.301385 -3.37457 0
M  V30 5173 C 530.679 0.0674684 -3.7634 0
M  V30 5174 C 529.826 -0.632383 -2.69993 0
M  V30 5175 H 532.777 -0.801014 -1.37002 0
M  V30 5176 H 532.798 0.470331 -3.77582 0
M  V30 5177 H 532.31 -1.34927 -3.63891 0
M  V30 5178 H 530.411 1.11507 -3.55523 0
M  V30 5179 H 530.524 -0.316332 -4.78055 0
M  V30 5180 H 528.888 -0.0714961 -2.546 0
M  V30 5181 H 529.671 -1.68212 -2.99265 0
M  V30 5182 N 532.116 1.54067 -0.331816 0
M  V30 5183 C 533.527 1.86059 0.15454 0
M  V30 5184 C 533.878 1.25331 1.50952 0
M  V30 5185 O 533.003 0.562441 2.08963 0
M  V30 5186 C 533.598 3.37581 0.287192 0
M  V30 5187 C 532.157 3.69493 0.717773 0
M  V30 5188 C 531.304 2.76863 -0.155569 0
M  V30 5189 H 534.255 1.48797 -0.55182 0
M  V30 5190 H 534.276 3.63744 1.11671 0
M  V30 5191 H 533.788 3.81751 -0.699131 0
M  V30 5192 H 531.889 3.3086 1.71354 0
M  V30 5193 H 532.002 4.76315 0.5158 0
M  V30 5194 H 530.366 2.51995 0.370213 0
M  V30 5195 H 531.149 3.23861 -1.13881 0
M  V30 5196 N 533.594 0.0601682 1.57485 0
M  V30 5197 C 535.005 -0.474217 1.80577 0
M  V30 5198 C 535.356 -1.70365 0.973147 0
M  V30 5199 O 534.481 -2.15544 0.192306 0
M  V30 5200 C 535.076 -0.867102 3.27516 0
M  V30 5201 C 533.635 -1.34642 3.51495 0
M  V30 5202 C 532.782 -0.32594 2.75378 0
M  V30 5203 H 535.733 0.285973 1.56102 0
M  V30 5204 H 535.754 -1.72938 3.38929 0
M  V30 5205 H 535.266 0.0278927 3.8809 0
M  V30 5206 H 533.367 -2.2603 2.96212 0
M  V30 5207 H 533.48 -1.33237 4.60201 0
M  V30 5208 H 531.844 -0.800749 2.41785 0
M  V30 5209 H 532.627 0.561125 3.38683 0
M  V30 5210 N 535.072 -1.5615 -0.213296 0
M  V30 5211 C 536.483 -1.69645 -0.779582 0
M  V30 5212 C 536.834 -0.663615 -1.84636 0
M  V30 5213 O 535.959 0.183633 -2.15619 0
M  V30 5214 C 536.554 -3.07567 -1.42084 0
M  V30 5215 C 535.113 -3.22889 -1.93442 0
M  V30 5216 C 534.26 -2.65581 -0.797612 0
M  V30 5217 H 537.211 -1.58696 0.0114951 0
M  V30 5218 H 537.232 -3.03884 -2.28986 0
M  V30 5219 H 536.744 -3.82716 -0.644187 0
M  V30 5220 H 534.845 -2.52623 -2.73884 0
M  V30 5221 H 534.958 -4.30197 -2.10872 0
M  V30 5222 H 533.322 -2.24278 -1.20712 0
M  V30 5223 H 534.105 -3.43284 -0.033494 0
M  V30 5224 N 536.55 0.480323 -1.50102 0
M  V30 5225 C 537.513 1.56181 -1.6775 0
M  V30 5226 C 538.513 1.51156 -0.548503 0
M  V30 5227 O 539.703 1.5394 -0.815363 0
M  V30 5228 C 536.835 2.95823 -1.69415 0
M  V30 5229 H 538.028 1.41855 -2.6423 0
M  V30 5230 H 535.581 0.70605 -1.39444 0
M  V30 5231 H 536.316 3.15604 -0.745948 0
M  V30 5232 H 536.101 3.00878 -2.51425 0
M  V30 5233 H 537.591 3.74359 -1.85054 0
M  V30 5234 N 538.028 1.39524 0.732853 0
M  V30 5235 C 539.305 1.27373 1.48444 0
M  V30 5236 C 539.685 -0.115725 2.10783 0
M  V30 5237 O 539.033 -1.12713 1.98766 0
M  V30 5238 C 539.243 2.39966 2.53412 0
M  V30 5239 C 540.591 2.79384 3.19733 0
M  V30 5240 O 541.615 2.39431 2.63725 0
M  V30 5241 O 540.474 3.48353 4.21085 0
M  V30 5242 H 537.568 0.499272 0.659285 0
M  V30 5243 H 540.114 1.51403 0.766496 0
M  V30 5244 H 538.886 3.32845 2.05742 0
M  V30 5245 H 538.509 2.17612 3.32762 0
M  V30 5246 N 539.506 -0.963266 1.24736 0
M  V30 5247 C 540.753 -1.7068 1.0897 0
M  V30 5248 C 541.081 -1.90934 -0.370751 0
M  V30 5249 O 540.336 -1.47155 -1.29011 0
M  V30 5250 C 540.635 -3.09944 1.7796 0
M  V30 5251 C 540.301 -3.09518 3.27887 0
M  V30 5252 C 538.963 -3.09109 3.68789 0
M  V30 5253 C 541.315 -3.03509 4.23712 0
M  V30 5254 C 538.643 -3.00429 5.03944 0
M  V30 5255 C 540.995 -2.96371 5.5888 0
M  V30 5256 C 539.659 -2.94293 5.99123 0
M  V30 5257 H 538.929 -0.624564 0.398749 0
M  V30 5258 H 541.576 -1.12603 1.54896 0
M  V30 5259 H 539.881 -3.71513 1.2444 0
M  V30 5260 H 541.578 -3.66278 1.63222 0
M  V30 5261 H 538.168 -3.10603 2.95337 0
M  V30 5262 H 542.352 -3.0295 3.93109 0
M  V30 5263 H 537.608 -2.97183 5.34314 0
M  V30 5264 H 541.782 -2.90681 6.32833 0
M  V30 5265 H 539.409 -2.87322 7.03811 0
M  V30 5266 N 540.985 -1.06182 -1.16461 0
M  V30 5267 C 541.948 -0.675723 -2.19013 0
M  V30 5268 C 542.948 0.277963 -1.58379 0
M  V30 5269 O 544.138 0.0604962 -1.74095 0
M  V30 5270 C 541.27 0.00591459 -3.40899 0
M  V30 5271 H 542.463 -1.58353 -2.54685 0
M  V30 5272 H 540.016 -0.856908 -1.30716 0
M  V30 5273 H 540.751 0.92652 -3.10783 0
M  V30 5274 H 540.536 -0.67984 -3.86161 0
M  V30 5275 H 542.026 0.26181 -4.16778 0
M  V30 5276 N 542.463 1.3308 -0.844243 0
M  V30 5277 C 543.874 1.7992 -0.498566 0
M  V30 5278 C 544.225 1.69808 0.982834 0
M  V30 5279 O 543.35 1.25051 1.7661 0
M  V30 5280 C 543.945 3.26677 -0.898204 0
M  V30 5281 C 542.504 3.71513 -0.604583 0
M  V30 5282 C 541.651 2.54393 -1.10362 0
M  V30 5283 H 544.602 1.20526 -1.03244 0
M  V30 5284 H 544.623 3.79918 -0.21039 0
M  V30 5285 H 544.135 3.34004 -1.97643 0
M  V30 5286 H 542.236 3.69708 0.46335 0
M  V30 5287 H 542.349 4.64755 -1.16358 0
M  V30 5288 H 540.713 2.49246 -0.524273 0
M  V30 5289 H 541.496 2.6448 -2.18873 0
M  V30 5290 N 543.941 0.601185 1.45683 0
M  V30 5291 C 544.851 -0.123395 2.34275 0
M  V30 5292 C 545.867 -0.86702 1.5086 0
M  V30 5293 O 547.043 -0.826049 1.8368 0
M  V30 5294 C 544.108 -1.11237 3.2837 0
M  V30 5295 C 543.169 -0.371405 4.2769 0
M  V30 5296 C 542.402 -1.31327 5.1729 0
M  V30 5297 O 542.625 -2.55078 5.10188 0
M  V30 5298 O 541.559 -0.813811 5.96373 0
M  V30 5299 H 545.385 0.604483 2.97623 0
M  V30 5300 H 542.97 0.361477 1.44961 0
M  V30 5301 H 544.852 -1.68214 3.8637 0
M  V30 5302 H 543.527 -1.82139 2.67595 0
M  V30 5303 H 542.434 0.24067 3.73325 0
M  V30 5304 H 543.767 0.296998 4.91303 0
M  V30 5305 N 545.419 -1.53889 0.339982 0
M  V30 5306 C 546.696 -1.93084 -0.312719 0
M  V30 5307 C 547.076 -1.2712 -1.68534 0
M  V30 5308 O 546.424 -0.420835 -2.24591 0
M  V30 5309 C 546.634 -3.4683 -0.388558 0
M  V30 5310 C 547.982 -4.19732 -0.641088 0
M  V30 5311 O 549.006 -3.53075 -0.470818 0
M  V30 5312 O 547.865 -5.3781 -0.970685 0
M  V30 5313 H 544.959 -0.806784 -0.18174 0
M  V30 5314 H 547.505 -1.65137 0.390898 0
M  V30 5315 H 546.277 -3.87055 0.574821 0
M  V30 5316 H 545.9 -3.80933 -1.1391 0
M  V30 5317 N 546.897 -0.0685191 -1.57451 0
M  V30 5318 C 548.127 0.609577 -1.97402 0
M  V30 5319 C 548.535 1.63882 -0.945489 0
M  V30 5320 O 547.878 1.8354 0.0766052 0
M  V30 5321 C 547.94 1.3385 -3.33653 0
M  V30 5322 C 547.604 0.463103 -4.54648 0
M  V30 5323 C 548.601 -0.277964 -5.19156 0
M  V30 5324 C 546.286 0.388941 -5.00792 0
M  V30 5325 C 548.28 -1.08145 -6.28159 0
M  V30 5326 C 545.967 -0.418217 -6.09667 0
M  V30 5327 C 546.965 -1.15208 -6.73213 0
M  V30 5328 O 546.653 -1.94594 -7.79993 0
M  V30 5329 H 546.385 0.170197 -0.654224 0
M  V30 5330 H 548.939 -0.13647 -2.04946 0
M  V30 5331 H 547.169 2.13055 -3.22714 0
M  V30 5332 H 548.858 1.90851 -3.58233 0
M  V30 5333 H 549.624 -0.230241 -4.84453 0
M  V30 5334 H 545.503 0.949769 -4.5111 0
M  V30 5335 H 549.047 -1.65476 -6.7769 0
M  V30 5336 H 544.944 -0.467515 -6.43805 0
M  V30 5337 H 545.712 -1.8699 -7.96854 0
M  V30 5338 N 548.375 1.56261 0.205012 0
M  V30 5339 C 549.6 1.84491 0.947512 0
M  V30 5340 C 550.025 0.650894 1.76479 0
M  V30 5341 O 549.383 -0.40035 1.76824 0
M  V30 5342 C 549.431 3.10863 1.82747 0
M  V30 5343 O 548.535 2.90719 2.925 0
M  V30 5344 H 547.876 0.607783 0.267386 0
M  V30 5345 H 550.406 2.03485 0.213323 0
M  V30 5346 H 550.416 3.41399 2.23407 0
M  V30 5347 H 549.091 3.97392 1.2269 0
M  V30 5348 H 547.668 2.71457 2.55667 0
M  V30 5349 N 549.853 -0.472356 1.50355 0
M  V30 5350 C 551.078 -1.25251 1.65309 0
M  V30 5351 C 551.503 -1.85081 0.335643 0
M  V30 5352 O 550.861 -1.67227 -0.700335 0
M  V30 5353 C 550.909 -2.3379 2.74544 0
M  V30 5354 O 550.013 -3.38401 2.35709 0
M  V30 5355 H 549.354 -0.368539 0.552336 0
M  V30 5356 H 551.884 -0.562271 1.96722 0
M  V30 5357 H 551.894 -2.79121 2.97583 0
M  V30 5358 H 550.569 -1.89614 3.70161 0
M  V30 5359 H 549.146 -2.9879 2.23112 0
M  V30 5360 N 551.331 -1.39911 -0.725443 0
M  V30 5361 C 552.578 -1.37654 -1.48518 0
M  V30 5362 C 552.906 0.0243982 -1.94485 0
M  V30 5363 O 552.161 1.00708 -1.67799 0
M  V30 5364 C 552.46 -2.30368 -2.7325 0
M  V30 5365 C 552.126 -3.77817 -2.461 0
M  V30 5366 C 550.788 -4.17991 -2.38405 0
M  V30 5367 C 553.14 -4.71036 -2.23103 0
M  V30 5368 C 550.468 -5.49433 -2.05768 0
M  V30 5369 C 552.82 -6.02766 -1.9198 0
M  V30 5370 C 551.484 -6.41993 -1.82761 0
M  V30 5371 H 550.754 -0.503713 -0.543465 0
M  V30 5372 H 553.401 -1.7249 -0.831822 0
M  V30 5373 H 551.706 -1.88683 -3.43375 0
M  V30 5374 H 553.403 -2.2591 -3.31309 0
M  V30 5375 H 549.993 -3.45982 -2.52972 0
M  V30 5376 H 554.177 -4.40823 -2.2801 0
M  V30 5377 H 549.433 -5.78738 -1.9716 0
M  V30 5378 H 553.607 -6.74519 -1.73197 0
M  V30 5379 H 551.234 -7.43761 -1.57237 0
M  V30 5380 N 552.809 0.956637 -1.25245 0
M  V30 5381 C 553.741 2.05628 -1.01242 0
M  V30 5382 C 554.754 1.62785 0.0219579 0
M  V30 5383 O 555.943 1.77184 -0.216365 0
M  V30 5384 C 553.043 3.35069 -0.508161 0
M  V30 5385 C 552.216 4.06761 -1.60823 0
M  V30 5386 C 551.275 5.14473 -1.1047 0
M  V30 5387 O 550.301 5.40033 -1.79868 0
M  V30 5388 N 551.503 5.80474 0.0550773 0
M  V30 5389 H 554.268 2.2679 -1.95925 0
M  V30 5390 H 551.829 1.12505 -1.16423 0
M  V30 5391 H 553.821 4.044 -0.155819 0
M  V30 5392 H 552.391 3.10694 0.344683 0
M  V30 5393 H 551.611 3.31555 -2.13224 0
M  V30 5394 H 552.899 4.51418 -2.34733 0
M  V30 5395 H 552.297 5.62125 0.635004 0
M  V30 5396 H 550.854 6.50868 0.348469 0
M  V30 5397 N 554.287 1.06798 1.15896 0
M  V30 5398 C 555.237 0.653213 2.18443 0
M  V30 5399 C 556.221 -0.318763 1.57711 0
M  V30 5400 O 557.413 -0.133388 1.76497 0
M  V30 5401 C 554.542 0.0465785 3.43268 0
M  V30 5402 C 553.628 1.04336 4.11066 0
M  V30 5403 N 554.019 2.22084 4.54436 0
M  V30 5404 C 552.317 0.875433 4.37324 0
M  V30 5405 C 553.018 2.85276 5.06944 0
M  V30 5406 N 551.994 2.12973 5.00143 0
M  V30 5407 H 555.796 1.55011 2.49698 0
M  V30 5408 H 553.31 0.940384 1.32403 0
M  V30 5409 H 555.307 -0.26843 4.16035 0
M  V30 5410 H 553.967 -0.845504 3.13499 0
M  V30 5411 H 554.978 2.59833 4.48004 0
M  V30 5412 H 551.655 0.0357721 4.17485 0
M  V30 5413 H 553.045 3.85223 5.50503 0
M  V30 5414 N 555.766 -1.3263 0.851289 0
M  V30 5415 C 557.015 -1.96633 0.449267 0
M  V30 5416 C 557.328 -1.68131 -0.999562 0
M  V30 5417 O 558.534 -2.25845 -1.50685 0
M  V30 5418 C 556.99 -3.51946 0.752446 0
M  V30 5419 C 556.598 -3.89311 2.21678 0
M  V30 5420 C 558.342 -4.22437 0.417983 0
M  V30 5421 C 556.249 -5.37655 2.46336 0
M  V30 5422 H 555.179 -0.735888 0.164269 0
M  V30 5423 H 557.83 -1.51073 1.0416 0
M  V30 5424 H 556.212 -3.95899 0.0895858 0
M  V30 5425 H 557.386 -3.56378 2.92115 0
M  V30 5426 H 555.701 -3.31836 2.51543 0
M  V30 5427 H 558.298 -5.31549 0.579674 0
M  V30 5428 H 558.641 -4.11349 -0.640115 0
M  V30 5429 H 559.174 -3.84057 1.03659 0
M  V30 5430 H 555.913 -5.5376 3.50757 0
M  V30 5431 H 555.433 -5.72005 1.80473 0
M  V30 5432 H 557.112 -6.04695 2.30115 0
M  V30 5433 N 557.244 -0.608902 -1.45362 0
M  V30 5434 C 558.66 -0.272659 -1.57254 0
M  V30 5435 C 558.86 1.22477 -1.60005 0
M  V30 5436 O 557.916 2.00785 -1.53106 0
M  V30 5437 C 559.229 -0.944991 -2.85465 0
M  V30 5438 C 560.777 -0.921033 -2.99142 0
M  V30 5439 C 561.252 -1.5734 -4.30126 0
M  V30 5440 N 562.743 -1.53895 -4.36887 0
M  V30 5441 C 563.478 -2.01286 -5.36909 0
M  V30 5442 N 562.974 -2.56768 -6.43461 0
M  V30 5443 N 564.767 -1.92046 -5.28275 0
M  V30 5444 H 556.918 -1.58117 -1.4182 0
M  V30 5445 H 559.181 -0.662437 -0.678146 0
M  V30 5446 H 558.887 -1.99941 -2.89338 0
M  V30 5447 H 558.761 -0.469079 -3.74272 0
M  V30 5448 H 561.148 0.124846 -2.94836 0
M  V30 5449 H 561.229 -1.43522 -2.11743 0
M  V30 5450 H 560.873 -2.61862 -4.35191 0
M  V30 5451 H 560.803 -1.03422 -5.16344 0
M  V30 5452 H 563.294 -1.13366 -3.60495 0
M  V30 5453 H 563.607 -2.9072 -7.16032 0
M  V30 5454 H 561.952 -2.60808 -6.44208 0
M  V30 5455 H 565.143 -1.48439 -4.43941 0
M  V30 5456 H 565.316 -2.29293 -6.06077 0
M  V30 5457 N 558.722 1.53707 -0.348139 0
M  V30 5458 C 559.669 2.25173 0.506518 0
M  V30 5459 C 560.639 1.25174 1.09182 0
M  V30 5460 O 561.824 1.53917 1.12757 0
M  V30 5461 C 558.964 3.03141 1.64923 0
M  V30 5462 C 558.077 4.18002 1.0908 0
M  V30 5463 C 557.212 4.83447 2.20119 0
M  V30 5464 C 556.251 5.90369 1.61651 0
M  V30 5465 N 555.388 6.49575 2.66451 0
M  V30 5466 H 560.228 2.97799 -0.109452 0
M  V30 5467 H 557.765 1.46953 -0.0657866 0
M  V30 5468 H 559.723 3.46607 2.32205 0
M  V30 5469 H 558.353 2.32803 2.23612 0
M  V30 5470 H 557.405 3.79145 0.308783 0
M  V30 5471 H 558.717 4.94892 0.623178 0
M  V30 5472 H 557.871 5.30008 2.95257 0
M  V30 5473 H 556.61 4.05991 2.70227 0
M  V30 5474 H 555.615 5.43186 0.850209 0
M  V30 5475 H 556.84 6.69735 1.1239 0
M  V30 5476 H 554.786 5.74981 3.15805 0
M  V30 5477 H 554.703 7.21952 2.24325 0
M  V30 5478 H 555.971 7.00789 3.41344 0
M  V30 5479 N 560.2 0.0768682 1.57412 0
M  V30 5480 C 561.448 -0.589918 1.93299 0
M  V30 5481 C 561.769 -1.69842 0.958049 0
M  V30 5482 O 561.039 -1.95899 0.00703261 0
M  V30 5483 H 559.619 -0.220901 0.713591 0
M  V30 5484 H 562.281 0.135917 1.94425 0
M  V30 5485 H 561.377 -1.01195 2.95239 0
M  V30 5486 N 561.678 -1.56367 -0.196722 0
M  V30 5487 C 562.926 -1.80172 -0.915554 0
M  V30 5488 C 563.247 -0.649649 -1.8386 0
M  V30 5489 O 562.517 0.332111 -1.93064 0
M  V30 5490 H 561.097 -0.664592 -0.341067 0
M  V30 5491 H 563.759 -1.93844 -0.202622 0
M  V30 5492 H 562.855 -2.7327 -1.50764 0
M  V30 5493 N 563.156 0.464375 -1.50603 0
M  V30 5494 C 564.403 1.21596 -1.61928 0
M  V30 5495 C 564.731 1.91804 -0.322737 0
M  V30 5496 O 563.986 1.83065 0.691776 0
M  V30 5497 C 564.285 2.278 -2.75394 0
M  V30 5498 C 563.951 1.74797 -4.1564 0
M  V30 5499 C 562.613 1.60063 -4.53799 0
M  V30 5500 C 564.965 1.35548 -5.03266 0
M  V30 5501 C 562.293 1.04514 -5.77316 0
M  V30 5502 C 564.645 0.814381 -6.27336 0
M  V30 5503 C 563.309 0.653726 -6.64291 0
M  V30 5504 H 562.579 0.444951 -0.592536 0
M  V30 5505 H 565.226 0.510964 -1.84557 0
M  V30 5506 H 563.531 3.04233 -2.46879 0
M  V30 5507 H 565.228 2.85723 -2.81359 0
M  V30 5508 H 561.818 1.87234 -3.8554 0
M  V30 5509 H 566.002 1.45763 -4.74412 0
M  V30 5510 H 561.258 0.908186 -6.04617 0
M  V30 5511 H 565.432 0.501626 -6.94591 0
M  V30 5512 H 563.059 0.22114 -7.59878 0
M  V30 5513 N 564.634 1.40294 0.718013 0
M  V30 5514 C 565.874 1.39888 1.49032 0
M  V30 5515 C 566.238 -0.000462935 1.92 0
M  V30 5516 O 567.439 -0.129622 2.68487 0
M  V30 5517 C 565.71 2.35868 2.68516 0
M  V30 5518 S 567.269 2.53799 3.57954 0
M  V30 5519 H 564.087 0.495849 0.509563 0
M  V30 5520 H 566.689 1.76541 0.839846 0
M  V30 5521 H 565.393 3.36375 2.35117 0
M  V30 5522 H 564.924 2.0049 3.38478 0
M  V30 5523 H 566.939 1.78859 4.62843 0
M  V30 5524 N 566.112 -0.949982 1.2575 0
M  V30 5525 C 567.389 -1.6718 1.01539 0
M  V30 5526 C 567.769 -2.06095 -0.456942 0
M  V30 5527 O 567.117 -1.77792 -1.43534 0
M  V30 5528 C 567.327 -2.8906 1.95564 0
M  V30 5529 C 568.675 -3.60909 2.23673 0
M  V30 5530 O 569.699 -2.9915 1.9336 0
M  V30 5531 O 568.558 -4.72127 2.75243 0
M  V30 5532 H 565.652 -0.731697 0.385419 0
M  V30 5533 H 568.198 -1.00249 1.36924 0
M  V30 5534 H 566.97 -2.57128 2.94959 0
M  V30 5535 H 566.593 -3.63719 1.60605 0
M  V30 5536 N 567.59 -1.07411 -1.15328 0
M  V30 5537 C 568.522 -0.652924 -2.19703 0
M  V30 5538 C 569.535 0.294869 -1.60107 0
M  V30 5539 O 570.724 0.0840932 -1.78302 0
M  V30 5540 C 567.824 0.061434 -3.38844 0
M  V30 5541 C 566.997 -0.902696 -4.27984 0
M  V30 5542 C 566.056 -0.225521 -5.25717 0
M  V30 5543 O 565.082 -0.86676 -5.62562 0
M  V30 5544 N 566.284 1.02858 -5.71315 0
M  V30 5545 H 569.049 -1.55081 -2.56457 0
M  V30 5546 H 566.61 -0.958883 -1.30449 0
M  V30 5547 H 568.602 0.525145 -4.01278 0
M  V30 5548 H 567.172 0.861269 -3.00501 0
M  V30 5549 H 566.392 -1.54551 -3.6264 0
M  V30 5550 H 567.68 -1.55636 -4.84412 0
M  V30 5551 H 567.078 1.56948 -5.43492 0
M  V30 5552 H 565.635 1.43596 -6.35786 0
M  V30 5553 N 569.068 1.32177 -0.85831 0
M  V30 5554 C 570.298 2.01021 -0.476889 0
M  V30 5555 C 570.706 1.64653 0.931995 0
M  V30 5556 O 570.049 0.865713 1.62022 0
M  V30 5557 C 570.111 3.55413 -0.540528 0
M  V30 5558 C 569.775 4.1522 -1.90895 0
M  V30 5559 C 570.772 4.3318 -2.87491 0
M  V30 5560 C 568.457 4.51212 -2.20709 0
M  V30 5561 C 570.451 4.86306 -4.1205 0
M  V30 5562 C 568.138 5.04042 -3.45521 0
M  V30 5563 C 569.136 5.21538 -4.41007 0
M  V30 5564 O 568.824 5.73238 -5.63608 0
M  V30 5565 H 568.556 0.650059 -0.18547 0
M  V30 5566 H 571.11 1.69648 -1.15796 0
M  V30 5567 H 569.34 3.86196 0.19741 0
M  V30 5568 H 571.029 4.05526 -0.174191 0
M  V30 5569 H 571.795 4.05704 -2.65762 0
M  V30 5570 H 567.674 4.36878 -1.4717 0
M  V30 5571 H 571.218 4.99877 -4.86589 0
M  V30 5572 H 567.115 5.30952 -3.67098 0
M  V30 5573 H 567.883 5.91625 -5.65617 0
M  V30 5574 N 570.547 0.616602 1.45037 0
M  V30 5575 C 571.477 -0.0840787 2.33349 0
M  V30 5576 C 572.458 -0.849641 1.4736 0
M  V30 5577 O 573.643 -0.818407 1.76113 0
M  V30 5578 C 570.773 -1.07604 3.3021 0
M  V30 5579 C 569.727 -0.423096 4.25904 0
M  V30 5580 C 569.053 -1.52394 5.12523 0
M  V30 5581 C 570.353 0.661457 5.18095 0
M  V30 5582 H 572.047 0.653333 2.92185 0
M  V30 5583 H 569.593 0.315634 1.40498 0
M  V30 5584 H 571.546 -1.57485 3.90866 0
M  V30 5585 H 570.27 -1.84416 2.69552 0
M  V30 5586 H 568.929 0.05493 3.66559 0
M  V30 5587 H 568.577 -2.28257 4.48227 0
M  V30 5588 H 568.277 -1.09251 5.77354 0
M  V30 5589 H 569.801 -2.02485 5.76049 0
M  V30 5590 H 571.215 0.246353 5.7277 0
M  V30 5591 H 569.612 1.01517 5.91451 0
M  V30 5592 H 570.682 1.53446 4.59981 0
M  V30 5593 N 572.025 -1.5352 0.356285 0
M  V30 5594 C 572.988 -2.24071 -0.482182 0
M  V30 5595 C 573.988 -1.24531 -1.01729 0
M  V30 5596 O 575.178 -1.48876 -0.904513 0
M  V30 5597 C 572.31 -2.97025 -1.67299 0
M  V30 5598 H 573.503 -2.99596 0.135031 0
M  V30 5599 H 571.056 -1.55928 0.107825 0
M  V30 5600 H 571.791 -2.25719 -2.32855 0
M  V30 5601 H 571.576 -3.7005 -1.29636 0
M  V30 5602 H 573.066 -3.50683 -2.26741 0
M  V30 5603 N 573.503 -0.0852151 -1.57369 0
M  V30 5604 C 574.749 0.581666 -1.94279 0
M  V30 5605 C 575.082 1.68444 -0.966446 0
M  V30 5606 O 574.357 1.945 0.00215277 0
M  V30 5607 C 574.64 1.14609 -3.41375 0
M  V30 5608 C 574.493 0.0490414 -4.49773 0
M  V30 5609 C 575.812 2.04751 -3.8957 0
M  V30 5610 H 572.931 0.209972 -0.706456 0
M  V30 5611 H 575.573 -0.153915 -1.89376 0
M  V30 5612 H 573.723 1.77297 -3.45685 0
M  V30 5613 H 575.395 -0.584721 -4.57579 0
M  V30 5614 H 573.638 -0.618638 -4.29366 0
M  V30 5615 H 574.309 0.484601 -5.49869 0
M  V30 5616 H 576.785 1.51981 -3.87351 0
M  V30 5617 H 575.661 2.41173 -4.93079 0
M  V30 5618 H 575.922 2.96107 -3.28288 0
M  V30 5619 N 574.981 1.5647 0.188427 0
M  V30 5620 C 576.392 1.70864 0.752494 0
M  V30 5621 C 576.743 0.692905 1.83557 0
M  V30 5622 O 575.868 -0.149307 2.15884 0
M  V30 5623 C 576.463 3.09789 1.37173 0
M  V30 5624 C 575.022 3.25925 1.88281 0
M  V30 5625 C 574.169 2.66817 0.755259 0
M  V30 5626 H 577.12 1.58657 -0.0367408 0
M  V30 5627 H 577.141 3.07489 2.24122 0
M  V30 5628 H 576.653 3.83693 0.583219 0
M  V30 5629 H 574.754 2.56948 2.6983 0
M  V30 5630 H 574.867 4.33498 2.04001 0
M  V30 5631 H 573.231 2.2617 1.17128 0
M  V30 5632 H 574.014 3.43294 -0.0211237 0
M  V30 5633 N 576.459 -0.456382 1.50847 0
M  V30 5634 C 577.391 -1.57033 1.66953 0
M  V30 5635 C 578.404 -1.53207 0.550593 0
M  V30 5636 O 579.593 -1.58328 0.824285 0
M  V30 5637 C 576.693 -2.95937 1.65149 0
M  V30 5638 C 575.866 -3.24475 2.93317 0
M  V30 5639 C 574.925 -4.43007 2.83957 0
M  V30 5640 O 573.951 -4.42592 3.57912 0
M  V30 5641 N 575.153 -5.45503 1.9851 0
M  V30 5642 H 577.918 -1.43629 2.63042 0
M  V30 5643 H 575.479 -0.645037 1.48495 0
M  V30 5644 H 577.471 -3.73224 1.56481 0
M  V30 5645 H 576.041 -3.03036 0.767343 0
M  V30 5646 H 575.261 -2.35664 3.16 0
M  V30 5647 H 576.549 -3.4036 3.78196 0
M  V30 5648 H 575.947 -5.48668 1.37766 0
M  V30 5649 H 574.504 -6.21716 1.95735 0
M  V30 5650 N 577.937 -1.40673 -0.710563 0
M  V30 5651 C 578.887 -1.37812 -1.81636 0
M  V30 5652 C 579.871 -0.254853 -1.58869 0
M  V30 5653 O 581.063 -0.494356 -1.69956 0
M  V30 5654 C 578.192 -1.24802 -3.19811 0
M  V30 5655 C 577.278 -2.41931 -3.48325 0
M  V30 5656 N 577.669 -3.67411 -3.47625 0
M  V30 5657 C 575.967 -2.35419 -3.78806 0
M  V30 5658 C 576.668 -4.45008 -3.74623 0
M  V30 5659 N 575.644 -3.74916 -3.93623 0
M  V30 5660 H 579.446 -2.32766 -1.79436 0
M  V30 5661 H 576.96 -1.34516 -0.909909 0
M  V30 5662 H 578.957 -1.20835 -3.99004 0
M  V30 5663 H 577.617 -0.308202 -3.23234 0
M  V30 5664 H 578.628 -4.00503 -3.28356 0
M  V30 5665 H 575.305 -1.4983 -3.89689 0
M  V30 5666 H 576.695 -5.53884 -3.80344 0
M  V30 5667 N 579.415 0.9433 -1.26252 0
M  V30 5668 C 580.826 1.50404 -1.10614 0
M  V30 5669 C 581.177 1.93666 0.31429 0
M  V30 5670 O 580.302 1.79709 1.20555 0
M  V30 5671 C 580.897 2.73336 -2.00182 0
M  V30 5672 C 579.456 3.25686 -1.88695 0
M  V30 5673 C 578.603 1.98474 -1.93658 0
M  V30 5674 H 581.554 0.759006 -1.39373 0
M  V30 5675 H 581.575 3.47567 -1.54847 0
M  V30 5676 H 581.087 2.41818 -3.03555 0
M  V30 5677 H 579.188 3.61998 -0.882489 0
M  V30 5678 H 579.301 3.92935 -2.74115 0
M  V30 5679 H 577.665 2.14278 -1.37684 0
M  V30 5680 H 578.448 1.6929 -2.98657 0
M  V30 5681 N 580.893 1.08022 1.14757 0
M  V30 5682 C 582.123 0.827646 1.89298 0
M  V30 5683 C 582.531 -0.623506 1.78631 0
M  V30 5684 O 581.874 -1.43991 1.14071 0
M  V30 5685 C 581.936 1.16553 3.40082 0
M  V30 5686 C 581.6 2.61866 3.74533 0
M  V30 5687 C 582.597 3.60116 3.74984 0
M  V30 5688 C 580.282 2.97619 4.04633 0
M  V30 5689 C 582.276 4.92151 4.05051 0
M  V30 5690 C 579.963 4.2985 4.34364 0
M  V30 5691 C 580.961 5.26926 4.34555 0
M  V30 5692 O 580.649 6.5678 4.63568 0
M  V30 5693 H 580.381 0.298396 0.606577 0
M  V30 5694 H 582.935 1.44187 1.46285 0
M  V30 5695 H 581.165 0.494296 3.83528 0
M  V30 5696 H 582.854 0.894407 3.95923 0
M  V30 5697 H 583.62 3.33837 3.51821 0
M  V30 5698 H 579.499 2.22702 4.03639 0
M  V30 5699 H 583.043 5.67915 4.05115 0
M  V30 5700 H 578.94 4.55879 4.56995 0
M  V30 5701 H 579.708 6.62035 4.81303 0
M  V30 5702 N 582.371 -1.3172 0.865308 0
M  V30 5703 C 583.303 -2.27545 0.274906 0
M  V30 5704 C 584.316 -1.52887 -0.559413 0
M  V30 5705 O 585.505 -1.74361 -0.382166 0
M  V30 5706 C 582.605 -3.33006 -0.629286 0
M  V30 5707 C 581.778 -4.37063 0.171553 0
M  V30 5708 C 580.837 -5.22044 -0.660052 0
M  V30 5709 O 579.863 -5.69129 -0.0897527 0
M  V30 5710 N 581.065 -5.45946 -1.97289 0
M  V30 5711 H 583.83 -2.78848 1.09836 0
M  V30 5712 H 581.391 -1.44693 0.726331 0
M  V30 5713 H 583.383 -3.86772 -1.19121 0
M  V30 5714 H 581.953 -2.81782 -1.35342 0
M  V30 5715 H 581.173 -3.83436 0.914919 0
M  V30 5716 H 582.461 -5.03662 0.721235 0
M  V30 5717 H 581.859 -5.0944 -2.45942 0
M  V30 5718 H 580.416 -6.02665 -2.4827 0
M  V30 5719 N 583.85 -0.624285 -1.44708 0
M  V30 5720 C 585.096 -0.13473 -2.02953 0
M  V30 5721 C 585.451 1.22724 -1.48178 0
M  V30 5722 O 584.744 1.80109 -0.653542 0
M  V30 5723 C 584.938 -0.0546353 -3.57358 0
M  V30 5724 C 584.767 -1.40729 -4.27113 0
M  V30 5725 C 583.537 -1.99231 -4.64365 0
M  V30 5726 C 585.735 -2.33968 -4.58 0
M  V30 5727 N 583.716 -3.27803 -5.19055 0
M  V30 5728 C 585.088 -3.47149 -5.137 0
M  V30 5729 C 587.143 -2.33132 -4.39948 0
M  V30 5730 C 585.846 -4.59682 -5.53249 0
M  V30 5731 C 587.872 -3.44724 -4.8054 0
M  V30 5732 C 587.234 -4.56629 -5.36348 0
M  V30 5733 H 583.332 -0.0930617 -0.776443 0
M  V30 5734 H 585.917 -0.826286 -1.76297 0
M  V30 5735 H 584.088 0.606183 -3.8364 0
M  V30 5736 H 585.82 0.443116 -4.02267 0
M  V30 5737 H 582.575 -1.52251 -4.4846 0
M  V30 5738 H 582.999 -3.93519 -5.50883 0
M  V30 5739 H 587.641 -1.47868 -3.961 0
M  V30 5740 H 585.359 -5.4566 -5.96054 0
M  V30 5741 H 588.945 -3.45245 -4.68291 0
M  V30 5742 H 587.825 -5.41551 -5.67179 0
M  V30 5743 N 585.328 1.53329 -0.364422 0
M  V30 5744 C 586.291 2.24323 0.470292 0
M  V30 5745 C 587.291 1.25068 1.01067 0
M  V30 5746 O 588.481 1.49354 0.896605 0
M  V30 5747 C 585.613 2.97908 1.65722 0
M  V30 5748 H 586.806 2.9952 -0.150917 0
M  V30 5749 H 584.359 1.55868 -0.116092 0
M  V30 5750 H 585.094 2.2695 2.31655 0
M  V30 5751 H 584.879 3.70732 1.27671 0
M  V30 5752 H 586.369 3.5188 2.24878 0
M  V30 5753 N 586.806 0.0935595 1.57322 0
M  V30 5754 C 587.753 -0.865935 2.1394 0
M  V30 5755 C 588.723 -1.28083 1.05754 0
M  V30 5756 O 589.908 -1.36285 1.33533 0
M  V30 5757 C 587.048 -2.12023 2.72287 0
M  V30 5758 C 586.161 -1.756 3.94701 0
M  V30 5759 C 585.296 -2.95804 4.41218 0
M  V30 5760 C 584.335 -2.555 5.56225 0
M  V30 5761 N 583.472 -3.68534 5.97601 0
M  V30 5762 H 588.312 -0.376261 2.95615 0
M  V30 5763 H 585.849 -0.174052 1.46067 0
M  V30 5764 H 587.807 -2.85477 3.04235 0
M  V30 5765 H 586.437 -2.58492 1.93343 0
M  V30 5766 H 585.489 -0.921208 3.69077 0
M  V30 5767 H 586.801 -1.41964 4.78171 0
M  V30 5768 H 585.955 -3.77513 4.74941 0
M  V30 5769 H 584.694 -3.32649 3.56645 0
M  V30 5770 H 583.699 -1.72218 5.22131 0
M  V30 5771 H 584.924 -2.19801 6.42545 0
M  V30 5772 H 582.87 -4.051 5.15974 0
M  V30 5773 H 582.787 -3.38737 6.75865 0
M  V30 5774 H 584.055 -4.50757 6.35955 0
M  V30 5775 N 588.284 -1.56567 -0.180126 0
M  V30 5776 C 589.695 -1.7126 -0.743422 0
M  V30 5777 C 590.046 -0.70263 -1.83187 0
M  V30 5778 O 589.171 0.137856 -2.1596 0
M  V30 5779 C 589.766 -3.10512 -1.35528 0
M  V30 5780 C 588.325 -3.26919 -1.8655 0
M  V30 5781 C 587.472 -2.67213 -0.741099 0
M  V30 5782 H 590.423 -1.58636 0.0451543 0
M  V30 5783 H 590.444 -3.08673 -2.22489 0
M  V30 5784 H 589.956 -3.83997 -0.562862 0
M  V30 5785 H 588.057 -2.58376 -2.68464 0
M  V30 5786 H 588.17 -4.34574 -2.01699 0
M  V30 5787 H 586.534 -2.26788 -1.15927 0
M  V30 5788 H 587.317 -3.43277 0.0393291 0
M  V30 5789 N 589.762 0.448376 -1.51087 0
M  V30 5790 C 590.709 1.54341 -1.71603 0
M  V30 5791 C 591.679 1.56463 -0.557536 0
M  V30 5792 O 592.864 1.73644 -0.79072 0
M  V30 5793 C 590.004 2.92148 -1.83695 0
M  V30 5794 C 589.117 2.99639 -3.11192 0
M  V30 5795 C 588.252 4.285 -3.13944 0
M  V30 5796 C 587.291 4.29819 -4.35801 0
M  V30 5797 N 586.428 5.50186 -4.36164 0
M  V30 5798 H 591.268 1.36151 -2.65079 0
M  V30 5799 H 588.805 0.661585 -1.31383 0
M  V30 5800 H 590.763 3.72093 -1.88687 0
M  V30 5801 H 589.393 3.0892 -0.936374 0
M  V30 5802 H 588.445 2.12425 -3.15562 0
M  V30 5803 H 589.757 2.96474 -4.01129 0
M  V30 5804 H 588.911 5.16811 -3.17791 0
M  V30 5805 H 587.65 4.34307 -2.21876 0
M  V30 5806 H 586.655 3.39902 -4.32142 0
M  V30 5807 H 587.88 4.25685 -5.29121 0
M  V30 5808 H 585.826 5.56735 -3.46961 0
M  V30 5809 H 585.743 5.48856 -5.19897 0
M  V30 5810 H 587.011 6.40559 -4.44189 0
M  V30 5811 N 591.24 1.41047 0.703093 0
M  V30 5812 C 592.651 1.35657 1.28274 0
M  V30 5813 C 593.002 0.0360309 1.96167 0
M  V30 5814 O 592.127 -0.865833 1.98324 0
M  V30 5815 C 592.722 2.45707 2.33267 0
M  V30 5816 C 591.281 2.43738 2.86825 0
M  V30 5817 C 590.428 2.25941 1.60767 0
M  V30 5818 H 593.379 1.50672 0.49836 0
M  V30 5819 H 593.4 2.14333 3.14391 0
M  V30 5820 H 592.912 3.41805 1.83824 0
M  V30 5821 H 591.013 1.51375 3.40465 0
M  V30 5822 H 591.126 3.39779 3.37768 0
M  V30 5823 H 589.49 1.73681 1.86298 0
M  V30 5824 H 590.273 3.24054 1.1333 0
M  V30 5825 N 592.718 -0.936591 1.26751 0
M  V30 5826 C 593.648 -2.05315 1.11212 0
M  V30 5827 C 594.629 -1.70092 0.0160262 0
M  V30 5828 O 595.814 -1.93279 0.188894 0
M  V30 5829 C 592.944 -3.39123 0.749171 0
M  V30 5830 C 591.898 -3.88425 1.79751 0
M  V30 5831 C 591.224 -5.18936 1.28876 0
M  V30 5832 C 592.524 -4.12798 3.19992 0
M  V30 5833 H 594.218 -2.18573 2.04613 0
M  V30 5834 H 591.764 -1.05027 0.985159 0
M  V30 5835 H 593.717 -4.16704 0.627323 0
M  V30 5836 H 592.441 -3.25855 -0.220543 0
M  V30 5837 H 591.1 -3.13028 1.90811 0
M  V30 5838 H 590.748 -5.02051 0.308757 0
M  V30 5839 H 590.448 -5.52892 1.98958 0
M  V30 5840 H 591.972 -5.99096 1.17967 0
M  V30 5841 H 593.386 -4.80977 3.11983 0
M  V30 5842 H 591.783 -4.58044 3.87705 0
M  V30 5843 H 592.853 -3.18412 3.65707 0
M  V30 5844 N 594.196 -1.08629 -1.14182 0
M  V30 5845 C 595.421 -0.83902 -1.89671 0
M  V30 5846 C 595.846 0.603332 -1.78161 0
M  V30 5847 O 595.204 1.42301 -1.12339 0
M  V30 5848 C 595.252 -1.26854 -3.37551 0
M  V30 5849 O 594.356 -0.42188 -4.10236 0
M  V30 5850 H 593.697 -0.304545 -0.590041 0
M  V30 5851 H 596.227 -1.4483 -1.44518 0
M  V30 5852 H 596.237 -1.25038 -3.88368 0
M  V30 5853 H 594.912 -2.31901 -3.45246 0
M  V30 5854 H 593.489 -0.503654 -3.69483 0
M  V30 5855 N 595.674 1.31259 -0.872281 0
M  V30 5856 C 597.085 1.78822 -0.536617 0
M  V30 5857 C 597.436 1.71855 0.946594 0
M  V30 5858 O 596.561 1.28769 1.73918 0
M  V30 5859 C 597.156 3.24698 -0.967294 0
M  V30 5860 C 595.715 3.70147 -0.683251 0
M  V30 5861 C 594.862 2.51994 -1.15733 0
M  V30 5862 H 597.813 1.18308 -1.05777 0
M  V30 5863 H 597.834 3.79386 -0.290929 0
M  V30 5864 H 597.346 3.29737 -2.04683 0
M  V30 5865 H 595.447 3.70607 0.384825 0
M  V30 5866 H 595.56 4.62183 -1.2619 0
M  V30 5867 H 593.924 2.48078 -0.577024 0
M  V30 5868 H 594.707 2.59778 -2.24434 0
M  V30 5869 N 597.152 0.631951 1.44375 0
M  V30 5870 C 598.38 0.143867 2.06399 0
M  V30 5871 C 598.795 -1.18188 1.47231 0
M  V30 5872 O 598.152 -1.72511 0.595498 0
M  V30 5873 C 598.203 0.0238253 3.61492 0
M  V30 5874 O 597.924 1.29715 4.18456 0
M  V30 5875 C 599.425 -0.492856 4.40552 0
M  V30 5876 H 596.645 0.0800542 0.666207 0
M  V30 5877 H 599.189 0.866586 1.85231 0
M  V30 5878 H 597.344 -0.649338 3.81919 0
M  V30 5879 H 597.758 1.14252 5.11905 0
M  V30 5880 H 599.232 -0.525861 5.49489 0
M  V30 5881 H 599.709 -1.52006 4.12057 0
M  V30 5882 H 600.315 0.147085 4.25046 0
M  V30 5883 N 598.631 -1.53133 0.372548 0
M  V30 5884 C 599.856 -2.0625 -0.218098 0
M  V30 5885 C 600.281 -1.24375 -1.41111 0
M  V30 5886 O 599.639 -0.264554 -1.79359 0
M  V30 5887 C 599.687 -3.55858 -0.582876 0
M  V30 5888 O 598.791 -3.76667 -1.67917 0
M  V30 5889 H 598.132 -0.663317 -0.030104 0
M  V30 5890 H 600.662 -1.97477 0.535169 0
M  V30 5891 H 600.672 -3.99007 -0.851925 0
M  V30 5892 H 599.347 -4.14892 0.289428 0
M  V30 5893 H 597.924 -3.45413 -1.40513 0
M  V30 5894 N 600.109 -0.101901 -1.5727 0
M  V30 5895 C 601.339 0.567568 -1.98651 0
M  V30 5896 C 601.747 1.61839 -0.980037 0
M  V30 5897 O 601.09 1.83661 0.0376564 0
M  V30 5898 C 601.152 1.26742 -3.36417 0
M  V30 5899 C 600.816 0.366561 -4.55528 0
M  V30 5900 C 601.813 -0.388022 -5.1845 0
M  V30 5901 C 599.498 0.282629 -5.01504 0
M  V30 5902 C 601.492 -1.21445 -6.25724 0
M  V30 5903 C 599.179 -0.547443 -6.08643 0
M  V30 5904 C 600.177 -1.29462 -6.70618 0
M  V30 5905 O 599.865 -2.11095 -7.7569 0
M  V30 5906 H 599.597 0.156282 -0.657687 0
M  V30 5907 H 602.151 -0.179912 -2.04611 0
M  V30 5908 H 600.381 2.06162 -3.27161 0
M  V30 5909 H 602.07 1.8321 -3.622 0
M  V30 5910 H 602.836 -0.332949 -4.83856 0
M  V30 5911 H 598.715 0.853868 -4.53023 0
M  V30 5912 H 602.259 -1.79814 -6.74027 0
M  V30 5913 H 598.156 -0.603971 -6.42668 0
M  V30 5914 H 598.924 -2.03851 -7.92709 0
M  V30 5915 N 601.587 1.56661 0.17182 0
M  V30 5916 C 602.52 1.91474 1.24149 0
M  V30 5917 C 603.498 0.777485 1.42807 0
M  V30 5918 O 604.682 1.03075 1.57822 0
M  V30 5919 C 601.809 2.16523 2.60453 0
M  V30 5920 C 600.855 3.39209 2.58533 0
M  V30 5921 S 601.688 4.93594 2.07665 0
M  V30 5922 C 602.844 5.21737 3.45747 0
M  V30 5923 H 603.077 2.81903 0.944346 0
M  V30 5924 H 600.61 1.49743 0.376364 0
M  V30 5925 H 602.568 2.31635 3.38903 0
M  V30 5926 H 601.229 1.26802 2.87368 0
M  V30 5927 H 600.422 3.53935 3.58812 0
M  V30 5928 H 600.024 3.2321 1.88178 0
M  V30 5929 H 602.316 5.13684 4.41741 0
M  V30 5930 H 603.259 6.23361 3.35896 0
M  V30 5931 H 603.667 4.49307 3.41736 0
M  V30 5932 N 603.065 -0.440357 1.51323 0
M  V30 5933 C 604.29 -1.21716 1.67928 0
M  V30 5934 C 604.715 -1.84328 0.374826 0
M  V30 5935 O 604.073 -1.68675 -0.664706 0
M  V30 5936 C 604.121 -2.27914 2.79442 0
M  V30 5937 O 603.225 -3.33325 2.42834 0
M  V30 5938 H 602.566 -0.35674 0.560029 0
M  V30 5939 H 605.096 -0.520417 1.97871 0
M  V30 5940 H 605.106 -2.72746 3.03436 0
M  V30 5941 H 603.781 -1.8172 3.741 0
M  V30 5942 H 602.358 -2.9399 2.294 0
M  V30 5943 N 604.543 -1.41418 -0.695603 0
M  V30 5944 C 605.954 -1.36335 -1.27552 0
M  V30 5945 C 606.305 -0.0464336 -1.96145 0
M  V30 5946 O 605.43 0.855304 -1.9878 0
M  V30 5947 C 606.025 -2.46941 -2.3196 0
M  V30 5948 C 604.584 -2.45256 -2.85529 0
M  V30 5949 C 603.731 -2.2679 -1.59566 0
M  V30 5950 H 606.682 -1.50934 -0.490362 0
M  V30 5951 H 606.703 -2.15997 -3.1325 0
M  V30 5952 H 606.215 -3.42775 -1.82008 0
M  V30 5953 H 604.316 -1.53179 -3.39657 0
M  V30 5954 H 604.429 -3.41565 -3.35961 0
M  V30 5955 H 602.793 -1.74667 -1.85374 0
M  V30 5956 H 603.576 -3.24651 -1.1161 0
M  V30 5957 N 606.021 0.929856 -1.27246 0
M  V30 5958 C 607.249 1.71144 -1.16265 0
M  V30 5959 C 607.664 1.867 0.280786 0
M  V30 5960 O 607.021 1.38249 1.19136 0
M  V30 5961 C 607.072 3.11222 -1.83911 0
M  V30 5962 O 606.793 2.96398 -3.22614 0
M  V30 5963 C 608.294 4.05541 -1.79028 0
M  V30 5964 H 605.514 0.535499 -0.404328 0
M  V30 5965 H 608.058 1.16492 -1.68077 0
M  V30 5966 H 606.213 3.6274 -1.36009 0
M  V30 5967 H 606.627 3.8494 -3.56261 0
M  V30 5968 H 608.101 5.01351 -2.30978 0
M  V30 5969 H 608.578 4.32589 -0.759168 0
M  V30 5970 H 609.184 3.59947 -2.26535 0
M  V30 5971 N 607.499 1.09233 1.13605 0
M  V30 5972 C 608.429 0.751738 2.21068 0
M  V30 5973 C 609.41 -0.269688 1.67948 0
M  V30 5974 O 610.595 -0.13819 1.93708 0
M  V30 5975 C 607.725 0.16935 3.46887 0
M  V30 5976 C 606.679 1.12007 4.13084 0
M  V30 5977 C 606.005 0.399483 5.33206 0
M  V30 5978 C 607.305 2.46168 4.6065 0
M  V30 5979 H 608.999 1.65024 2.49815 0
M  V30 5980 H 606.545 0.794905 1.20072 0
M  V30 5981 H 608.498 -0.0809824 4.21322 0
M  V30 5982 H 607.222 -0.764335 3.1753 0
M  V30 5983 H 605.881 1.35564 3.40614 0
M  V30 5984 H 605.529 -0.538277 5.00112 0
M  V30 5985 H 605.229 1.03337 5.78442 0
M  V30 5986 H 606.753 0.157403 6.10397 0
M  V30 5987 H 608.167 2.26829 5.26518 0
M  V30 5988 H 606.564 3.05326 5.1662 0
M  V30 5989 H 607.634 3.07076 3.75276 0
M  V30 5990 N 608.977 -1.30795 0.87923 0
M  V30 5991 C 610.388 -1.78535 0.546093 0
M  V30 5992 C 610.739 -1.72354 -0.937467 0
M  V30 5993 O 609.864 -1.2969 -1.73233 0
M  V30 5994 C 610.459 -3.24181 0.9845 0
M  V30 5995 C 609.018 -3.69779 0.702871 0
M  V30 5996 C 608.165 -2.51377 1.17068 0
M  V30 5997 H 611.116 -1.17746 1.06403 0
M  V30 5998 H 611.137 -3.79227 0.311045 0
M  V30 5999 H 610.649 -3.28647 2.06429 0
M  V30 6000 H 608.75 -3.70806 -0.365166 0
M  V30 6001 H 608.863 -4.61507 1.28639 0
M  V30 6002 H 607.227 -2.47768 0.590172 0
M  V30 6003 H 608.01 -2.58584 2.25808 0
M  V30 6004 N 610.455 -0.639598 -1.44038 0
M  V30 6005 C 611.418 0.0506628 -2.29144 0
M  V30 6006 C 612.418 0.764001 -1.41491 0
M  V30 6007 O 613.608 0.607309 -1.63271 0
M  V30 6008 C 610.74 1.0824 -3.2326 0
M  V30 6009 H 611.933 -0.697987 -2.91664 0
M  V30 6010 H 609.486 -0.400146 -1.51091 0
M  V30 6011 H 610.221 1.86075 -2.65606 0
M  V30 6012 H 610.006 0.574725 -3.87865 0
M  V30 6013 H 611.496 1.56487 -3.87171 0
M  V30 6014 N 611.933 1.52934 -0.380664 0
M  V30 6015 C 612.863 2.29118 0.450268 0
M  V30 6016 C 613.844 1.32153 1.07096 0
M  V30 6017 O 615.029 1.61038 1.08537 0
M  V30 6018 C 612.159 3.09161 1.58231 0
M  V30 6019 C 611.113 4.13938 1.0881 0
M  V30 6020 C 610.439 4.82153 2.31155 0
M  V30 6021 C 611.739 5.22048 0.162146 0
M  V30 6022 H 613.433 2.98826 -0.185361 0
M  V30 6023 H 610.979 1.43715 -0.0905886 0
M  V30 6024 H 612.932 3.61211 2.17036 0
M  V30 6025 H 611.656 2.3717 2.2454 0
M  V30 6026 H 610.315 3.62855 0.522633 0
M  V30 6027 H 609.963 4.06719 2.95953 0
M  V30 6028 H 609.663 5.52966 1.98752 0
M  V30 6029 H 611.187 5.37004 2.90618 0
M  V30 6030 H 612.601 5.6951 0.658126 0
M  V30 6031 H 610.998 6.00057 -0.0717122 0
M  V30 6032 H 612.068 4.78398 -0.791438 0
M  V30 6033 N 613.412 0.11024 1.57214 0
M  V30 6034 C 614.689 -0.592956 1.86396 0
M  V30 6035 C 615.069 -1.85379 1.00985 0
M  V30 6036 O 614.417 -2.28337 0.0863592 0
M  V30 6037 C 614.627 -0.893816 3.3736 0
M  V30 6038 C 615.975 -1.25069 4.05762 0
M  V30 6039 O 616.999 -0.984356 3.42329 0
M  V30 6040 O 615.858 -1.75017 5.17718 0
M  V30 6041 H 612.952 -0.29828 0.771335 0
M  V30 6042 H 615.498 0.144083 1.69087 0
M  V30 6043 H 614.27 2.6031e-05 3.913 0
M  V30 6044 H 613.893 -1.68631 3.60068 0
M  V30 6045 N 614.89 -1.56749 -0.16351 0
M  V30 6046 C 616.136 -1.83597 -0.875436 0
M  V30 6047 C 616.491 -0.691907 -1.79528 0
M  V30 6048 O 615.784 0.311193 -1.89056 0
M  V30 6049 C 615.978 -3.14342 -1.70071 0
M  V30 6050 C 615.807 -4.41356 -0.862265 0
M  V30 6051 C 614.577 -5.02467 -0.534299 0
M  V30 6052 C 616.775 -5.1391 -0.200203 0
M  V30 6053 N 614.757 -6.13068 0.31947 0
M  V30 6054 C 616.128 -6.17862 0.514398 0
M  V30 6055 C 618.183 -4.97757 -0.119171 0
M  V30 6056 C 616.886 -7.07412 1.30236 0
M  V30 6057 C 618.912 -5.87756 0.655477 0
M  V30 6058 C 618.274 -6.91178 1.35842 0
M  V30 6059 H 614.373 -0.722702 -0.298708 0
M  V30 6060 H 616.957 -1.94182 -0.141883 0
M  V30 6061 H 615.128 -3.04933 -2.40562 0
M  V30 6062 H 616.86 -3.29156 -2.35453 0
M  V30 6063 H 613.615 -4.65611 -0.866222 0
M  V30 6064 H 614.039 -6.72978 0.736893 0
M  V30 6065 H 618.681 -4.178 -0.648278 0
M  V30 6066 H 616.399 -7.86808 1.84278 0
M  V30 6067 H 619.985 -5.77328 0.719948 0
M  V30 6068 H 618.865 -7.59614 1.94822 0
M  V30 6069 N 616.368 0.432326 -1.51554 0
M  V30 6070 C 617.3 1.54357 -1.6943 0
M  V30 6071 C 618.313 1.52311 -0.574897 0
M  V30 6072 O 619.502 1.56997 -0.849369 0
M  V30 6073 C 616.602 2.93273 -1.69836 0
M  V30 6074 C 615.775 3.19768 -2.98442 0
M  V30 6075 C 614.834 4.38433 -2.90969 0
M  V30 6076 O 613.86 4.36842 -3.64908 0
M  V30 6077 N 615.062 5.42276 -2.07163 0
M  V30 6078 H 617.827 1.39426 -2.65293 0
M  V30 6079 H 615.388 0.621331 -1.49503 0
M  V30 6080 H 617.38 3.70687 -1.62399 0
M  V30 6081 H 615.95 3.01777 -0.815456 0
M  V30 6082 H 615.17 2.30607 -3.19709 0
M  V30 6083 H 616.458 3.343 -3.83563 0
M  V30 6084 H 615.856 5.46407 -1.46477 0
M  V30 6085 H 614.413 6.18524 -2.05601 0
M  V30 6086 N 617.846 1.41785 0.688094 0
M  V30 6087 C 618.776 1.47 1.8142 0
M  V30 6088 C 619.757 0.327881 1.6691 0
M  V30 6089 O 620.942 0.540362 1.86531 0
M  V30 6090 C 618.072 1.35876 3.19617 0
M  V30 6091 C 617.026 2.47976 3.48844 0
M  V30 6092 C 616.352 2.21915 4.86475 0
M  V30 6093 C 617.652 3.90309 3.47068 0
M  V30 6094 H 619.346 2.41247 1.77314 0
M  V30 6095 H 616.892 1.16116 0.851651 0
M  V30 6096 H 618.845 1.38134 3.98117 0
M  V30 6097 H 617.569 0.38116 3.24368 0
M  V30 6098 H 616.228 2.45013 2.72698 0
M  V30 6099 H 615.876 1.2248 4.8786 0
M  V30 6100 H 615.576 2.97037 5.06994 0
M  V30 6101 H 617.1 2.25901 5.67275 0
M  V30 6102 H 618.514 3.94947 4.1556 0
M  V30 6103 H 616.911 4.65175 3.7912 0
M  V30 6104 H 617.981 4.17927 2.45896 0
M  V30 6105 N 619.324 -0.923095 1.27737 0
M  V30 6106 C 620.735 -1.48626 1.12993 0
M  V30 6107 C 621.086 -1.94142 -0.283439 0
M  V30 6108 O 620.211 -1.81605 -1.17681 0
M  V30 6109 C 620.806 -2.70117 2.04505 0
M  V30 6110 C 619.365 -3.22642 1.93853 0
M  V30 6111 C 618.512 -1.95368 1.96791 0
M  V30 6112 H 621.463 -0.736737 1.40563 0
M  V30 6113 H 621.484 -3.4506 1.60356 0
M  V30 6114 H 620.996 -2.36959 3.07363 0
M  V30 6115 H 619.097 -3.60549 0.939968 0
M  V30 6116 H 619.21 -3.88525 2.80331 0
M  V30 6117 H 617.574 -2.12061 1.41076 0
M  V30 6118 H 618.357 -1.64517 3.01312 0
M  V30 6119 N 620.802 -1.09834 -1.13024 0
M  V30 6120 C 622.027 -0.85909 -1.88771 0
M  V30 6121 C 622.452 0.584402 -1.78791 0
M  V30 6122 O 621.81 1.41101 -1.13842 0
M  V30 6123 C 621.858 -1.30427 -3.36186 0
M  V30 6124 O 620.962 -0.465368 -4.09766 0
M  V30 6125 H 620.303 -0.310786 -0.586778 0
M  V30 6126 H 622.833 -1.46355 -1.42973 0
M  V30 6127 H 622.843 -1.2915 -3.8702 0
M  V30 6128 H 621.518 -2.3555 -3.42767 0
M  V30 6129 H 620.095 -0.542814 -3.68928 0
M  V30 6130 N 622.28 1.30327 -0.886154 0
M  V30 6131 C 623.23 2.25668 -0.325248 0
M  V30 6132 C 624.214 1.51318 0.546972 0
M  V30 6133 O 625.406 1.72623 0.391203 0
M  V30 6134 C 622.535 3.40229 0.458167 0
M  V30 6135 C 621.621 4.21933 -0.428208 0
M  V30 6136 N 622.012 4.82129 -1.52921 0
M  V30 6137 C 620.31 4.45439 -0.223535 0
M  V30 6138 C 621.011 5.43351 -2.07714 0
M  V30 6139 N 619.987 5.26002 -1.37195 0
M  V30 6140 H 623.789 2.69759 -1.1665 0
M  V30 6141 H 621.303 1.4478 -0.735691 0
M  V30 6142 H 623.3 4.07579 0.876648 0
M  V30 6143 H 621.96 2.97678 1.29684 0
M  V30 6144 H 622.971 4.81312 -1.91205 0
M  V30 6145 H 619.648 4.13481 0.577875 0
M  V30 6146 H 621.038 6.01118 -3.00178 0
M  V30 6147 N 623.758 0.647228 1.43697 0
M  V30 6148 C 624.983 0.164083 2.0675 0
M  V30 6149 C 625.408 -1.15892 1.48158 0
M  V30 6150 O 624.766 -1.71459 0.589194 0
M  V30 6151 C 624.814 0.0800368 3.60511 0
M  V30 6152 O 623.918 -0.959453 4.01084 0
M  V30 6153 H 623.259 0.0921288 0.657578 0
M  V30 6154 H 625.789 0.88846 1.84303 0
M  V30 6155 H 625.799 -0.105263 4.07864 0
M  V30 6156 H 624.474 1.04586 4.02535 0
M  V30 6157 H 623.051 -0.747425 3.65333 0
M  V30 6158 N 625.236 -1.5273 0.388769 0
M  V30 6159 C 626.484 -2.01174 -0.193208 0
M  V30 6160 C 626.805 -1.27705 -1.47365 0
M  V30 6161 O 626.075 -0.396966 -1.91836 0
M  V30 6162 H 624.655 -0.743287 -0.0743871 0
M  V30 6163 H 627.317 -1.87826 0.520336 0
M  V30 6164 H 626.413 -3.09477 -0.403803 0
M  V30 6165 N 626.714 -0.118576 -1.57153 0
M  V30 6166 C 628.125 0.40687 -1.82213 0
M  V30 6167 C 628.476 1.66636 -1.03571 0
M  V30 6168 O 627.601 2.14682 -0.272171 0
M  V30 6169 C 628.196 0.744949 -3.30509 0
M  V30 6170 C 626.755 1.21503 -3.5625 0
M  V30 6171 C 625.902 0.223511 -2.76398 0
M  V30 6172 H 628.853 -0.343712 -1.54933 0
M  V30 6173 H 628.874 1.6024 -3.45114 0
M  V30 6174 H 628.386 -0.171911 -3.87719 0
M  V30 6175 H 626.487 2.1488 -3.04396 0
M  V30 6176 H 626.6 1.16065 -4.64829 0
M  V30 6177 H 624.964 0.71046 -2.44591 0
M  V30 6178 H 625.747 -0.686439 -3.36367 0
M  V30 6179 N 628.193 1.56834 0.155195 0
M  V30 6180 C 629.423 1.86778 0.883044 0
M  V30 6181 C 629.831 0.703824 1.75622 0
M  V30 6182 O 629.174 -0.33581 1.80605 0
M  V30 6183 C 629.236 3.1133 1.79761 0
M  V30 6184 C 628.9 4.43504 1.10242 0
M  V30 6185 C 629.897 5.17859 0.460204 0
M  V30 6186 C 627.582 4.90233 1.09437 0
M  V30 6187 C 629.576 6.37144 -0.180782 0
M  V30 6188 C 627.263 6.09444 0.449569 0
M  V30 6189 C 628.261 6.82744 -0.186888 0
M  V30 6190 O 627.949 7.99692 -0.821486 0
M  V30 6191 H 627.681 0.62352 0.261149 0
M  V30 6192 H 630.235 2.04813 0.155204 0
M  V30 6193 H 628.465 2.89282 2.56618 0
M  V30 6194 H 630.154 3.27587 2.39669 0
M  V30 6195 H 630.92 4.8283 0.458289 0
M  V30 6196 H 626.799 4.33109 1.57917 0
M  V30 6197 H 630.343 6.94296 -0.678154 0
M  V30 6198 H 626.24 6.43936 0.449123 0
M  V30 6199 H 627.008 8.15306 -0.722337 0
M  V30 6200 N 629.671 -0.424282 1.51781 0
M  V30 6201 C 630.581 -1.54087 1.76902 0
M  V30 6202 C 631.597 -1.61249 0.653826 0
M  V30 6203 O 632.773 -1.78247 0.937552 0
M  V30 6204 C 629.838 -2.8996 1.90063 0
M  V30 6205 C 628.899 -2.92809 3.13945 0
M  V30 6206 C 628.132 -4.22201 3.26469 0
M  V30 6207 O 628.355 -5.15286 2.44616 0
M  V30 6208 O 627.289 -4.31599 4.1953 0
M  V30 6209 H 631.115 -1.358 2.71647 0
M  V30 6210 H 628.7 -0.608618 1.36441 0
M  V30 6211 H 630.582 -3.70575 2.0063 0
M  V30 6212 H 629.257 -3.08347 0.985067 0
M  V30 6213 H 628.164 -2.11102 3.08847 0
M  V30 6214 H 629.497 -2.79369 4.05233 0
M  V30 6215 N 631.149 -1.42148 -0.680565 0
M  V30 6216 C 632.079 -1.4796 -1.80638 0
M  V30 6217 C 633.06 -0.336728 -1.66734 0
M  V30 6218 O 634.245 -0.550247 -1.86242 0
M  V30 6219 C 631.375 -1.37569 -3.18892 0
M  V30 6220 C 630.329 -2.49823 -3.47524 0
M  V30 6221 C 629.655 -2.24491 -4.85291 0
M  V30 6222 C 630.955 -3.92144 -3.44994 0
M  V30 6223 H 632.649 -2.42184 -1.76032 0
M  V30 6224 H 630.195 -1.16566 -0.845481 0
M  V30 6225 H 632.148 -1.40243 -3.97379 0
M  V30 6226 H 630.872 -0.398357 -3.24162 0
M  V30 6227 H 629.531 -2.46455 -2.71395 0
M  V30 6228 H 629.179 -1.25066 -4.87204 0
M  V30 6229 H 628.879 -2.99722 -5.05411 0
M  V30 6230 H 630.403 -2.28906 -5.66069 0
M  V30 6231 H 631.817 -3.97145 -4.13459 0
M  V30 6232 H 630.214 -4.67179 -3.76648 0
M  V30 6233 H 631.284 -4.19225 -2.43676 0
M  V30 6234 N 632.627 0.916307 -1.28225 0
M  V30 6235 C 634.043 1.19425 -1.05876 0
M  V30 6236 C 634.243 2.005 0.2005 0
M  V30 6237 O 633.299 2.35806 0.902873 0
M  V30 6238 C 634.612 1.93133 -2.30478 0
M  V30 6239 C 636.16 2.06026 -2.35632 0
M  V30 6240 C 636.635 2.83141 -3.59994 0
M  V30 6241 N 638.126 2.90704 -3.60618 0
M  V30 6242 C 638.861 3.50865 -4.53521 0
M  V30 6243 N 638.357 4.12327 -5.56739 0
M  V30 6244 N 640.15 3.48379 -4.41122 0
M  V30 6245 H 632.301 0.37496 -2.09064 0
M  V30 6246 H 634.564 0.228531 -0.920042 0
M  V30 6247 H 634.27 1.40985 -3.22205 0
M  V30 6248 H 634.144 2.93696 -2.36691 0
M  V30 6249 H 636.531 2.57355 -1.44404 0
M  V30 6250 H 636.612 1.04647 -2.33415 0
M  V30 6251 H 636.256 2.32492 -4.51564 0
M  V30 6252 H 636.186 3.84829 -3.59464 0
M  V30 6253 H 638.677 2.47034 -2.85977 0
M  V30 6254 H 638.99 4.56205 -6.23776 0
M  V30 6255 H 637.335 4.10839 -5.60568 0
M  V30 6256 H 640.526 2.99572 -3.59686 0
M  V30 6257 H 640.699 3.94974 -5.13712 0
M  V30 6258 N 634.105 1.10431 1.1244 0
M  V30 6259 C 635.354 0.841539 1.83306 0
M  V30 6260 C 635.667 -0.634961 1.85007 0
M  V30 6261 O 636.873 -1.01363 2.51869 0
M  V30 6262 C 635.329 1.45565 3.29149 0
M  V30 6263 C 634.937 2.96544 3.35806 0
M  V30 6264 C 636.681 1.27227 4.04986 0
M  V30 6265 C 634.588 3.5099 4.75983 0
M  V30 6266 H 633.518 0.311156 0.686803 0
M  V30 6267 H 636.169 1.32829 1.26604 0
M  V30 6268 H 634.551 0.896574 3.85717 0
M  V30 6269 H 635.725 3.58766 2.89177 0
M  V30 6270 H 634.04 3.14036 2.73442 0
M  V30 6271 H 636.637 1.65348 5.08492 0
M  V30 6272 H 636.98 0.213834 4.1575 0
M  V30 6273 H 637.513 1.79941 3.54776 0
M  V30 6274 H 634.252 4.56499 4.70413 0
M  V30 6275 H 633.772 2.93535 5.23065 0
M  V30 6276 H 635.451 3.48808 5.44924 0
M  V30 6277 N 635.583 -1.29855 0.893053 0
M  V30 6278 C 636.493 -2.31661 0.370157 0
M  V30 6279 C 637.509 -1.65677 -0.531723 0
M  V30 6280 O 638.685 -1.9691 -0.422902 0
M  V30 6281 C 635.75 -3.44388 -0.399741 0
M  V30 6282 C 634.811 -4.2598 0.532861 0
M  V30 6283 C 634.044 -5.33324 -0.200388 0
M  V30 6284 O 634.267 -5.52305 -1.42531 0
M  V30 6285 O 633.201 -6.00188 0.453668 0
M  V30 6286 H 637.027 -2.78354 1.2146 0
M  V30 6287 H 634.612 -1.34171 0.657153 0
M  V30 6288 H 636.494 -4.13037 -0.835358 0
M  V30 6289 H 635.169 -2.99815 -1.22035 0
M  V30 6290 H 634.076 -3.59998 1.01746 0
M  V30 6291 H 635.409 -4.74178 1.3197 0
M  V30 6292 N 637.061 -0.65484 -1.43351 0
M  V30 6293 C 638.307 -0.169142 -2.02093 0
M  V30 6294 C 638.64 1.21431 -1.51553 0
M  V30 6295 O 637.915 1.81105 -0.709317 0
M  V30 6296 C 638.198 -0.181775 -3.59641 0
M  V30 6297 C 638.051 -1.59926 -4.20409 0
M  V30 6298 C 639.37 0.480945 -4.37464 0
M  V30 6299 H 636.489 -0.0629371 -0.734308 0
M  V30 6300 H 639.131 -0.835833 -1.70628 0
M  V30 6301 H 637.281 0.385918 -3.86578 0
M  V30 6302 H 638.953 -2.21766 -4.04497 0
M  V30 6303 H 637.196 -2.14605 -3.76998 0
M  V30 6304 H 637.867 -1.55994 -5.295 0
M  V30 6305 H 640.343 -0.00208273 -4.161 0
M  V30 6306 H 639.219 0.441384 -5.47122 0
M  V30 6307 H 639.48 1.55533 -4.13838 0
M  V30 6308 N 638.539 1.52521 -0.396863 0
M  V30 6309 C 639.471 2.24333 0.469814 0
M  V30 6310 C 640.484 1.2685 1.02043 0
M  V30 6311 O 641.673 1.52876 0.92147 0
M  V30 6312 C 638.773 2.95202 1.66461 0
M  V30 6313 C 637.946 4.19454 1.24003 0
M  V30 6314 C 637.005 4.73255 2.30036 0
M  V30 6315 O 636.031 5.36151 1.91131 0
M  V30 6316 N 637.233 4.53765 3.62047 0
M  V30 6317 H 639.998 2.99347 -0.145468 0
M  V30 6318 H 637.559 1.60348 -0.223606 0
M  V30 6319 H 639.551 3.28092 2.36934 0
M  V30 6320 H 638.121 2.2345 2.18607 0
M  V30 6321 H 637.341 3.92517 0.363892 0
M  V30 6322 H 638.629 5.0017 0.933135 0
M  V30 6323 H 638.027 4.03576 3.96412 0
M  V30 6324 H 636.584 4.91124 4.28533 0
M  V30 6325 N 640.017 0.126909 1.57088 0
M  V30 6326 C 641.428 -0.397201 1.82426 0
M  V30 6327 C 641.779 -1.66084 1.04453 0
M  V30 6328 O 640.904 -2.14534 0.283552 0
M  V30 6329 C 641.499 -0.727411 3.30899 0
M  V30 6330 C 640.058 -1.19612 3.56889 0
M  V30 6331 C 639.205 -0.20885 2.76512 0
M  V30 6332 H 642.156 0.351924 1.54749 0
M  V30 6333 H 642.177 -1.58407 3.45959 0
M  V30 6334 H 641.689 0.19247 3.87622 0
M  V30 6335 H 639.79 -2.13263 3.05532 0
M  V30 6336 H 639.903 -1.13598 4.65438 0
M  V30 6337 H 638.267 -0.697479 2.44964 0
M  V30 6338 H 639.05 0.704267 3.35998 0
M  V30 6339 N 641.495 -1.56914 -0.146875 0
M  V30 6340 C 642.442 -1.98275 -1.18134 0
M  V30 6341 C 643.412 -0.850367 -1.42681 0
M  V30 6342 O 644.597 -1.11244 -1.55014 0
M  V30 6343 C 641.737 -2.36861 -2.5098 0
M  V30 6344 C 640.85 -3.63391 -2.33605 0
M  V30 6345 C 639.985 -3.91079 -3.59486 0
M  V30 6346 C 639.024 -5.10879 -3.37149 0
M  V30 6347 N 638.161 -5.34577 -4.55161 0
M  V30 6348 H 643.001 -2.8645 -0.821622 0
M  V30 6349 H 640.538 -1.41718 -0.394248 0
M  V30 6350 H 642.496 -2.57262 -3.28439 0
M  V30 6351 H 641.126 -1.51766 -2.84898 0
M  V30 6352 H 640.178 -3.50766 -1.47199 0
M  V30 6353 H 641.49 -4.51007 -2.13059 0
M  V30 6354 H 640.644 -4.11979 -4.45374 0
M  V30 6355 H 639.383 -3.01885 -3.83036 0
M  V30 6356 H 638.388 -4.89853 -2.49649 0
M  V30 6357 H 639.613 -6.01626 -3.14997 0
M  V30 6358 H 637.559 -4.48337 -4.78884 0
M  V30 6359 H 637.476 -6.16463 -4.37618 0
M  V30 6360 H 638.744 -5.59975 -5.42263 0
M  V30 6361 N 642.974 0.416227 -1.52004 0
M  V30 6362 C 644.199 1.19029 -1.69843 0
M  V30 6363 C 644.624 1.83708 -0.404103 0
M  V30 6364 O 643.982 1.69711 0.637787 0
M  V30 6365 C 644.03 2.23439 -2.83032 0
M  V30 6366 O 643.134 3.29419 -2.48106 0
M  V30 6367 H 642.475 0.347785 -0.565634 0
M  V30 6368 H 645.005 0.488871 -1.98674 0
M  V30 6369 H 645.015 2.67884 -3.07737 0
M  V30 6370 H 643.69 1.75745 -3.76944 0
M  V30 6371 H 642.267 2.90303 -2.34048 0
M  V30 6372 N 644.452 1.42507 0.673017 0
M  V30 6373 C 645.402 1.4258 1.77919 0
M  V30 6374 C 646.386 0.296885 1.58137 0
M  V30 6375 O 647.578 0.539243 1.68586 0
M  V30 6376 C 644.707 1.33238 3.1639 0
M  V30 6377 C 643.793 2.51081 3.41788 0
M  V30 6378 N 644.184 3.76498 3.37761 0
M  V30 6379 C 642.482 2.4538 3.72431 0
M  V30 6380 C 643.183 4.54784 3.62693 0
M  V30 6381 N 642.159 3.8522 3.83544 0
M  V30 6382 H 645.961 2.37442 1.73201 0
M  V30 6383 H 643.475 1.36881 0.873924 0
M  V30 6384 H 645.472 1.31372 3.9566 0
M  V30 6385 H 644.132 0.393794 3.22303 0
M  V30 6386 H 645.143 4.09068 3.17622 0
M  V30 6387 H 641.82 1.60109 3.85579 0
M  V30 6388 H 643.21 5.63774 3.65525 0
M  V30 6389 N 645.93 -0.909495 1.28709 0
M  V30 6390 C 646.88 -1.9991 1.09636 0
M  V30 6391 C 647.864 -1.60889 0.01872 0
M  V30 6392 O 649.056 -1.75374 0.239338 0
M  V30 6393 C 646.185 -3.34675 0.764702 0
M  V30 6394 C 645.271 -3.80085 1.8814 0
M  V30 6395 N 645.662 -3.97824 3.12361 0
M  V30 6396 C 643.96 -4.09278 1.77221 0
M  V30 6397 C 644.661 -4.35928 3.85151 0
M  V30 6398 N 643.637 -4.44426 3.13028 0
M  V30 6399 H 647.439 -2.11681 2.03883 0
M  V30 6400 H 644.953 -1.09763 1.1969 0
M  V30 6401 H 646.95 -4.12426 0.609132 0
M  V30 6402 H 645.61 -3.24255 -0.169952 0
M  V30 6403 H 646.621 -3.83626 3.47925 0
M  V30 6404 H 643.298 -4.0747 0.909621 0
M  V30 6405 H 644.688 -4.57581 4.92006 0
M  V30 6406 N 647.408 -1.11026 -1.11852 0
M  V30 6407 C 648.824 -0.843294 -1.35502 0
M  V30 6408 C 649.024 0.534179 -1.9429 0
M  V30 6409 O 648.08 1.28585 -2.17307 0
M  V30 6410 C 649.393 -1.94793 -2.29077 0
M  V30 6411 C 650.941 -1.97709 -2.42652 0
M  V30 6412 C 651.416 -3.07364 -3.39546 0
M  V30 6413 N 652.907 -3.0671 -3.47107 0
M  V30 6414 C 653.642 -3.88197 -4.22008 0
M  V30 6415 N 653.138 -4.79635 -4.99922 0
M  V30 6416 N 654.931 -3.76391 -4.17476 0
M  V30 6417 H 647.082 -1.99805 -0.720538 0
M  V30 6418 H 649.345 -0.868633 -0.379711 0
M  V30 6419 H 649.051 -2.93971 -1.93065 0
M  V30 6420 H 648.925 -1.84039 -3.29256 0
M  V30 6421 H 651.312 -0.991604 -2.77941 0
M  V30 6422 H 651.393 -2.1254 -1.4234 0
M  V30 6423 H 651.037 -4.06136 -3.04985 0
M  V30 6424 H 650.967 -2.89774 -4.39703 0
M  V30 6425 H 653.458 -2.40457 -2.91528 0
M  V30 6426 H 653.771 -5.38357 -5.54429 0
M  V30 6427 H 652.116 -4.8366 -4.99097 0
M  V30 6428 H 655.307 -3.04303 -3.55693 0
M  V30 6429 H 655.48 -4.40131 -4.75593 0
M  V30 6430 N 648.886 1.2938 -0.899927 0
M  V30 6431 C 649.849 2.25983 -0.382677 0
M  V30 6432 C 650.849 1.53366 0.483259 0
M  V30 6433 O 652.039 1.71798 0.28828 0
M  V30 6434 C 649.171 3.37878 0.452915 0
M  V30 6435 H 650.364 2.73252 -1.23586 0
M  V30 6436 H 647.917 1.40825 -0.678088 0
M  V30 6437 H 648.652 2.95949 1.32608 0
M  V30 6438 H 648.437 3.91742 -0.167562 0
M  V30 6439 H 649.927 4.09746 0.806107 0
M  V30 6440 N 650.364 0.662433 1.43002 0
M  V30 6441 C 651.314 -0.0460442 2.27954 0
M  V30 6442 C 652.298 -0.785753 1.40409 0
M  V30 6443 O 653.49 -0.666701 1.63964 0
M  V30 6444 C 650.619 -1.00532 3.2825 0
M  V30 6445 C 649.705 -0.263604 4.2328 0
M  V30 6446 N 650.096 0.724855 5.00579 0
M  V30 6447 C 648.394 -0.503778 4.43146 0
M  V30 6448 C 649.095 1.16594 5.69895 0
M  V30 6449 N 648.071 0.498345 5.41311 0
M  V30 6450 H 651.873 0.712314 2.85137 0
M  V30 6451 H 649.387 0.490469 1.54817 0
M  V30 6452 H 651.384 -1.52775 3.87899 0
M  V30 6453 H 650.044 -1.76364 2.72628 0
M  V30 6454 H 651.055 1.10393 5.05998 0
M  V30 6455 H 647.732 -1.24255 3.98581 0
M  V30 6456 H 649.122 1.98434 6.4193 0
M  V30 6457 N 651.842 -1.52309 0.404946 0
M  V30 6458 C 653.072 -2.05886 -0.171569 0
M  V30 6459 C 653.48 -1.27527 -1.39762 0
M  V30 6460 O 652.823 -0.319215 -1.80905 0
M  V30 6461 C 652.885 -3.54609 -0.590983 0
M  V30 6462 C 652.549 -4.53989 0.523757 0
M  V30 6463 C 653.546 -5.01084 1.38604 0
M  V30 6464 C 651.231 -4.97465 0.695255 0
M  V30 6465 C 653.225 -5.90295 2.4048 0
M  V30 6466 C 650.912 -5.86473 1.71733 0
M  V30 6467 C 651.91 -6.32782 2.57051 0
M  V30 6468 O 651.598 -7.20029 3.57509 0
M  V30 6469 H 651.33 -0.675508 -0.0257763 0
M  V30 6470 H 653.884 -1.97238 0.573278 0
M  V30 6471 H 652.114 -3.60929 -1.38805 0
M  V30 6472 H 653.803 -3.90853 -1.09494 0
M  V30 6473 H 654.569 -4.68214 1.26492 0
M  V30 6474 H 650.448 -4.60982 0.0408447 0
M  V30 6475 H 653.992 -6.26363 3.07108 0
M  V30 6476 H 649.889 -6.18756 1.83877 0
M  V30 6477 H 650.657 -7.3813 3.53703 0
M  V30 6478 N 653.32 -0.135238 -1.57019 0
M  V30 6479 C 654.23 0.822226 -2.19719 0
M  V30 6480 C 655.246 1.28057 -1.17802 0
M  V30 6481 O 656.422 1.3402 -1.50335 0
M  V30 6482 C 653.487 2.0484 -2.79717 0
M  V30 6483 C 652.548 1.64042 -3.96723 0
M  V30 6484 C 651.781 2.80814 -4.53849 0
M  V30 6485 O 652.004 3.967 -4.0986 0
M  V30 6486 O 650.938 2.56963 -5.44292 0
M  V30 6487 H 654.764 0.318552 -3.02025 0
M  V30 6488 H 652.349 0.0912021 -1.49121 0
M  V30 6489 H 654.231 2.76622 -3.17897 0
M  V30 6490 H 652.906 2.54182 -2.00432 0
M  V30 6491 H 651.813 0.893182 -3.63281 0
M  V30 6492 H 653.146 1.19426 -4.77492 0
M  V30 6493 N 654.798 1.5699 0.138552 0
M  V30 6494 C 656.026 1.87976 0.864437 0
M  V30 6495 C 656.441 0.724372 1.74351 0
M  V30 6496 O 655.798 -0.305575 1.79924 0
M  V30 6497 C 655.849 3.18276 1.71414 0
M  V30 6498 O 655.57 4.29365 0.870487 0
M  V30 6499 C 657.071 3.62834 2.54688 0
M  V30 6500 H 654.291 0.622878 0.249528 0
M  V30 6501 H 656.835 2.04094 0.128805 0
M  V30 6502 H 654.99 3.03886 2.40274 0
M  V30 6503 H 655.404 5.03924 1.45466 0
M  V30 6504 H 656.878 4.5682 3.0987 0
M  V30 6505 H 657.355 2.88533 3.31127 0
M  V30 6506 H 657.961 3.79946 1.91105 0
M  V30 6507 N 656.276 -0.40816 1.52223 0
M  V30 6508 C 657.186 -1.52202 1.78526 0
M  V30 6509 C 658.202 -1.60546 0.670892 0
M  V30 6510 O 659.378 -1.77242 0.956404 0
M  V30 6511 C 656.443 -2.87928 1.93128 0
M  V30 6512 C 655.504 -2.89463 3.17033 0
M  V30 6513 C 654.737 -4.18715 3.30929 0
M  V30 6514 O 654.96 -5.12662 2.50067 0
M  V30 6515 O 653.894 -4.27125 4.24084 0
M  V30 6516 H 657.72 -1.32911 2.73072 0
M  V30 6517 H 655.305 -0.594112 1.37079 0
M  V30 6518 H 657.187 -3.68426 2.04549 0
M  V30 6519 H 655.862 -3.07285 1.01772 0
M  V30 6520 H 654.769 -2.07815 3.11069 0
M  V30 6521 H 656.102 -2.75055 4.08174 0
M  V30 6522 N 657.755 -1.42862 -0.66545 0
M  V30 6523 C 659.003 -1.43546 -1.42264 0
M  V30 6524 C 659.324 -0.0563116 -1.94919 0
M  V30 6525 O 658.594 0.906568 -1.73661 0
M  V30 6526 H 657.174 -0.528464 -0.527953 0
M  V30 6527 H 659.836 -1.78363 -0.785665 0
M  V30 6528 H 658.932 -2.14079 -2.27105 0
M  V30 6529 N 659.233 0.902656 -1.29189 0
M  V30 6530 C 660.458 1.69167 -1.19989 0
M  V30 6531 C 660.883 1.86607 0.236495 0
M  V30 6532 O 660.241 1.38425 1.17082 0
M  V30 6533 C 660.289 3.05532 -1.91527 0
M  V30 6534 O 659.393 3.93621 -1.2303 0
M  V30 6535 H 658.734 0.517584 -0.415936 0
M  V30 6536 H 661.264 1.12785 -1.70706 0
M  V30 6537 H 661.274 3.55693 -1.99866 0
M  V30 6538 H 659.949 2.92156 -2.96003 0
M  V30 6539 H 658.526 3.52055 -1.22928 0
M  V30 6540 N 660.711 1.11618 1.11262 0
M  V30 6541 C 662.127 0.850468 1.35053 0
M  V30 6542 C 662.327 -0.523868 1.94571 0
M  V30 6543 O 661.383 -1.2743 2.17986 0
M  V30 6544 C 662.696 1.96005 2.28041 0
M  V30 6545 C 664.244 1.98993 2.416 0
M  V30 6546 C 664.719 3.0916 3.37911 0
M  V30 6547 N 666.21 3.08547 3.45475 0
M  V30 6548 C 666.945 3.9043 4.19943 0
M  V30 6549 N 666.441 4.8228 4.97371 0
M  V30 6550 N 668.234 3.786 4.15474 0
M  V30 6551 H 660.385 2.00184 0.709932 0
M  V30 6552 H 662.648 0.870635 0.375099 0
M  V30 6553 H 662.354 2.9499 1.91503 0
M  V30 6554 H 662.228 1.85782 3.28275 0
M  V30 6555 H 664.615 1.00633 2.77411 0
M  V30 6556 H 664.696 2.13292 1.4121 0
M  V30 6557 H 664.34 4.07748 3.02827 0
M  V30 6558 H 664.27 2.92102 4.3816 0
M  V30 6559 H 666.761 2.42 2.90249 0
M  V30 6560 H 667.074 5.41289 5.51567 0
M  V30 6561 H 665.419 4.863 4.96525 0
M  V30 6562 H 668.61 3.06185 3.54074 0
M  V30 6563 H 668.783 4.42647 4.73253 0
M  V30 6564 N 662.189 -1.289 0.906776 0
M  V30 6565 C 663.437 -1.94883 0.535266 0
M  V30 6566 C 663.758 -1.71784 -0.922791 0
M  V30 6567 O 663.028 -1.05359 -1.65156 0
M  V30 6568 H 661.608 -0.721109 0.194962 0
M  V30 6569 H 664.27 -1.57018 1.15461 0
M  V30 6570 H 663.366 -3.03591 0.723821 0
M  V30 6571 N 663.667 -0.670007 -1.42649 0
M  V30 6572 C 664.63 0.00204659 -2.292 0
M  V30 6573 C 665.63 0.733817 -1.4308 0
M  V30 6574 O 666.82 0.57254 -1.64522 0
M  V30 6575 C 663.952 1.01359 -3.25483 0
M  V30 6576 H 665.145 -0.759696 -2.90118 0
M  V30 6577 H 662.698 -0.432105 -1.50208 0
M  V30 6578 H 663.433 1.80399 -2.69493 0
M  V30 6579 H 663.218 0.492323 -3.88997 0
M  V30 6580 H 664.708 1.4824 -3.90403 0
M  V30 6581 N 665.145 1.52092 -0.413018 0
M  V30 6582 C 666.391 2.02154 0.161737 0
M  V30 6583 C 666.724 1.29789 1.44459 0
M  V30 6584 O 665.999 0.405378 1.90229 0
M  V30 6585 C 666.282 3.5781 0.405463 0
M  V30 6586 C 666.135 4.40819 -0.894335 0
M  V30 6587 C 667.454 4.23821 1.18591 0
M  V30 6588 H 664.573 0.734769 0.0573077 0
M  V30 6589 H 667.215 1.81948 -0.547247 0
M  V30 6590 H 665.365 3.75158 1.0094 0
M  V30 6591 H 667.037 4.35175 -1.53039 0
M  V30 6592 H 665.28 4.06877 -1.50444 0
M  V30 6593 H 665.951 5.47819 -0.678144 0
M  V30 6594 H 668.427 4.10596 0.674573 0
M  V30 6595 H 667.303 5.32663 1.3252 0
M  V30 6596 H 667.564 3.83038 2.20758 0
M  V30 6597 N 666.623 0.143563 1.56945 0
M  V30 6598 C 667.57 -0.797433 2.16586 0
M  V30 6599 C 668.54 -1.24654 1.09775 0
M  V30 6600 O 669.725 -1.31968 1.37801 0
M  V30 6601 C 666.865 -2.03253 2.78895 0
M  V30 6602 C 665.978 -1.62954 4.00087 0
M  V30 6603 C 665.113 -2.81617 4.50406 0
M  V30 6604 C 664.152 -2.37675 5.64072 0
M  V30 6605 N 663.289 -3.49335 6.09023 0
M  V30 6606 H 668.129 -0.282023 2.96662 0
M  V30 6607 H 665.666 -0.127494 1.46546 0
M  V30 6608 H 667.624 -2.75653 3.13163 0
M  V30 6609 H 666.254 -2.52211 2.01469 0
M  V30 6610 H 665.306 -0.803322 3.71821 0
M  V30 6611 H 666.618 -1.26679 4.82446 0
M  V30 6612 H 665.772 -3.62212 4.86711 0
M  V30 6613 H 664.511 -3.21134 3.67048 0
M  V30 6614 H 663.516 -1.55519 5.27346 0
M  V30 6615 H 664.741 -1.99247 6.49213 0
M  V30 6616 H 662.687 -3.8848 5.28601 0
M  V30 6617 H 662.604 -3.17064 6.86299 0
M  V30 6618 H 663.872 -4.30297 6.49973 0
M  V30 6619 N 668.101 -1.57061 -0.130224 0
M  V30 6620 C 669.064 -1.98593 -1.14426 0
M  V30 6621 C 670.064 -0.874584 -1.34936 0
M  V30 6622 O 671.254 -1.14086 -1.31643 0
M  V30 6623 C 668.386 -2.31639 -2.50112 0
M  V30 6624 H 669.579 -2.89374 -0.787561 0
M  V30 6625 H 667.132 -1.51756 -0.374146 0
M  V30 6626 H 667.867 -1.43703 -2.90723 0
M  V30 6627 H 667.652 -3.12684 -2.36583 0
M  V30 6628 H 669.142 -2.64551 -3.23114 0
M  V30 6629 N 669.579 0.400081 -1.52437 0
M  V30 6630 C 670.804 1.17221 -1.71096 0
M  V30 6631 C 671.229 1.83269 -0.423565 0
M  V30 6632 O 670.587 1.70378 0.619751 0
M  V30 6633 C 670.635 2.20425 -2.85386 0
M  V30 6634 O 669.739 3.26769 -2.51586 0
M  V30 6635 H 669.08 0.341766 -0.569291 0
M  V30 6636 H 671.61 0.467772 -1.99181 0
M  V30 6637 H 671.62 2.64605 -3.10561 0
M  V30 6638 H 670.295 1.71737 -3.78786 0
M  V30 6639 H 668.872 2.87804 -2.37114 0
M  V30 6640 N 671.057 1.43213 0.657864 0
M  V30 6641 C 672.02 1.47687 1.75275 0
M  V30 6642 C 673.02 0.362179 1.56668 0
M  V30 6643 O 674.21 0.623734 1.62651 0
M  V30 6644 C 671.342 1.32497 3.14098 0
M  V30 6645 H 672.535 2.4519 1.7269 0
M  V30 6646 H 670.088 1.2991 0.869087 0
M  V30 6647 H 670.823 0.359831 3.22298 0
M  V30 6648 H 670.608 2.13299 3.29008 0
M  V30 6649 H 672.098 1.38549 3.93946 0
M  V30 6650 N 672.536 -0.895792 1.29666 0
M  V30 6651 C 673.784 -1.64339 1.17631 0
M  V30 6652 C 674.105 -1.93099 -0.271643 0
M  V30 6653 O 673.375 -1.55981 -1.18518 0
M  V30 6654 H 671.955 -0.609162 0.432354 0
M  V30 6655 H 674.617 -1.07389 1.62646 0
M  V30 6656 H 673.713 -2.59815 1.72924 0
M  V30 6657 N 674.014 -1.12206 -1.10668 0
M  V30 6658 C 675.262 -0.874144 -1.82217 0
M  V30 6659 C 675.583 0.601736 -1.85484 0
M  V30 6660 O 674.853 1.43725 -1.33116 0
M  V30 6661 H 673.433 -0.320404 -0.674797 0
M  V30 6662 H 676.095 -1.41606 -1.33917 0
M  V30 6663 H 675.191 -1.25349 -2.85822 0
M  V30 6664 N 675.492 1.28418 -0.913599 0
M  V30 6665 C 676.442 2.24928 -0.373042 0
M  V30 6666 C 677.426 1.52444 0.514753 0
M  V30 6667 O 678.618 1.73414 0.3545 0
M  V30 6668 C 675.747 3.41124 0.385896 0
M  V30 6669 C 674.833 4.20929 -0.51761 0
M  V30 6670 N 675.224 4.78777 -1.63113 0
M  V30 6671 C 673.522 4.44865 -0.317969 0
M  V30 6672 C 674.223 5.38822 -2.19193 0
M  V30 6673 N 673.199 5.22974 -1.48321 0
M  V30 6674 H 677.001 2.67224 -1.22346 0
M  V30 6675 H 674.515 1.43187 -0.766236 0
M  V30 6676 H 676.512 4.09347 0.789997 0
M  V30 6677 H 675.172 3.00362 1.23341 0
M  V30 6678 H 676.183 4.77148 -2.01372 0
M  V30 6679 H 672.86 4.14614 0.49004 0
M  V30 6680 H 674.25 5.94615 -3.12861 0
M  V30 6681 N 676.97 0.677563 1.42291 0
M  V30 6682 C 678.381 0.277912 1.8462 0
M  V30 6683 C 678.732 -1.18048 1.56714 0
M  V30 6684 O 677.857 -1.90404 1.02836 0
M  V30 6685 C 678.452 0.497619 3.35126 0
M  V30 6686 C 677.011 0.152063 3.76093 0
M  V30 6687 C 676.158 0.78872 2.65847 0
M  V30 6688 H 679.109 0.879527 1.32098 0
M  V30 6689 H 679.13 -0.24939 3.79682 0
M  V30 6690 H 678.642 1.55913 3.55405 0
M  V30 6691 H 676.743 -0.905896 3.6142 0
M  V30 6692 H 676.856 0.594514 4.75397 0
M  V30 6693 H 675.22 0.219813 2.5375 0
M  V30 6694 H 676.003 1.85374 2.88949 0
M  V30 6695 N 678.448 -1.51871 0.421078 0
M  V30 6696 C 679.697 -2.01125 -0.152206 0
M  V30 6697 C 680.01 -1.3106 -1.45199 0
M  V30 6698 O 681.216 -1.71195 -2.10724 0
M  V30 6699 C 679.672 -3.58458 -0.3218 0
M  V30 6700 C 679.28 -4.37448 0.96659 0
M  V30 6701 C 681.024 -4.15908 -0.84973 0
M  V30 6702 C 678.931 -5.86451 0.763529 0
M  V30 6703 H 677.861 -0.751556 -0.0606565 0
M  V30 6704 H 680.512 -1.75115 0.548354 0
M  V30 6705 H 678.894 -3.80847 -1.08498 0
M  V30 6706 H 680.068 -4.26814 1.73684 0
M  V30 6707 H 678.383 -3.91373 1.42183 0
M  V30 6708 H 680.98 -5.24922 -1.01788 0
M  V30 6709 H 681.323 -3.74031 -1.82774 0
M  V30 6710 H 681.856 -3.97535 -0.145297 0
M  V30 6711 H 678.595 -6.3271 1.71344 0
M  V30 6712 H 678.115 -5.99791 0.0327889 0
M  V30 6713 H 679.794 -6.45697 0.410354 0
M  V30 6714 N 679.926 -0.151884 -1.56866 0
M  V30 6715 C 681.172 0.498742 -1.96572 0
M  V30 6716 C 681.505 1.64194 -1.03702 0
M  V30 6717 O 680.78 1.94334 -0.0803432 0
M  V30 6718 C 681.063 1.00027 -3.45929 0
M  V30 6719 C 680.916 -0.141767 -4.49577 0
M  V30 6720 C 682.235 1.88044 -3.97904 0
M  V30 6721 H 679.354 0.17982 -0.714726 0
M  V30 6722 H 681.996 -0.234097 -1.88552 0
M  V30 6723 H 680.146 1.62476 -3.52894 0
M  V30 6724 H 681.818 -0.778269 -4.54687 0
M  V30 6725 H 680.061 -0.80019 -4.26356 0
M  V30 6726 H 680.732 0.250947 -5.51429 0
M  V30 6727 H 683.208 1.35416 -3.93449 0
M  V30 6728 H 682.084 2.20043 -5.02864 0
M  V30 6729 H 682.345 2.81916 -3.40552 0
M  V30 6730 N 681.404 1.57128 0.121893 0
M  V30 6731 C 682.336 1.96773 1.17529 0
M  V30 6732 C 683.349 0.866668 1.37814 0
M  V30 6733 O 684.538 1.14497 1.3694 0
M  V30 6734 C 681.638 2.24832 2.53582 0
M  V30 6735 C 680.811 3.56138 2.53939 0
M  V30 6736 C 679.87 3.72443 3.71716 0
M  V30 6737 O 678.896 4.44584 3.55434 0
M  V30 6738 N 680.098 3.10993 4.90167 0
M  V30 6739 H 682.863 2.87743 0.838086 0
M  V30 6740 H 680.424 1.58881 0.311199 0
M  V30 6741 H 682.416 2.32958 3.30927 0
M  V30 6742 H 680.986 1.40002 2.79496 0
M  V30 6743 H 680.206 3.59226 1.62329 0
M  V30 6744 H 681.494 4.42448 2.51231 0
M  V30 6745 H 680.892 2.52345 5.06299 0
M  V30 6746 H 679.449 3.24644 5.65198 0
M  V30 6747 N 682.882 -0.391992 1.52647 0
M  V30 6748 C 683.812 -1.48517 1.8018 0
M  V30 6749 C 684.793 -1.57039 0.653667 0
M  V30 6750 O 685.978 -1.72036 0.900962 0
M  V30 6751 C 683.108 -2.86161 1.96797 0
M  V30 6752 C 682.062 -2.92481 3.12472 0
M  V30 6753 C 681.388 -4.32546 3.14338 0
M  V30 6754 C 682.688 -2.624 4.51601 0
M  V30 6755 H 684.382 -1.25726 2.71723 0
M  V30 6756 H 681.928 -0.603387 1.30749 0
M  V30 6757 H 683.881 -3.62639 2.14641 0
M  V30 6758 H 682.605 -3.10283 1.01941 0
M  V30 6759 H 681.264 -2.18451 2.94406 0
M  V30 6760 H 680.912 -4.53703 2.1717 0
M  V30 6761 H 680.612 -4.37695 3.92042 0
M  V30 6762 H 682.136 -5.10934 3.34333 0
M  V30 6763 H 683.55 -3.28596 4.69785 0
M  V30 6764 H 681.947 -2.78903 5.3135 0
M  V30 6765 H 683.017 -1.57754 4.58521 0
M  V30 6766 N 684.36 -1.4356 -0.65026 0
M  V30 6767 C 685.31 -1.45392 -1.75628 0
M  V30 6768 C 686.294 -0.322006 -1.57645 0
M  V30 6769 O 687.486 -0.565996 -1.67707 0
M  V30 6770 C 684.615 -1.38254 -3.1423 0
M  V30 6771 C 683.701 -2.56487 -3.3775 0
M  V30 6772 N 684.092 -3.81824 -3.31729 0
M  V30 6773 C 682.39 -2.51274 -3.6848 0
M  V30 6774 C 683.091 -4.60497 -3.55412 0
M  V30 6775 N 682.067 -3.91274 -3.77367 0
M  V30 6776 H 685.869 -2.40167 -1.69402 0
M  V30 6777 H 683.383 -1.38254 -0.852037 0
M  V30 6778 H 685.38 -1.3765 -3.9352 0
M  V30 6779 H 684.04 -0.445019 -3.21636 0
M  V30 6780 H 685.051 -4.14069 -3.11074 0
M  V30 6781 H 681.728 -1.66223 -3.82983 0
M  V30 6782 H 683.118 -5.69518 -3.5651 0
M  V30 6783 N 685.838 0.888903 -1.30139 0
M  V30 6784 C 687.086 1.63713 -1.18501 0
M  V30 6785 C 687.407 1.9324 0.261399 0
M  V30 6786 O 686.677 1.56608 1.17689 0
M  V30 6787 H 685.257 0.606861 -0.435579 0
M  V30 6788 H 687.919 1.06525 -1.63213 0
M  V30 6789 H 687.015 2.58894 -1.743 0
M  V30 6790 N 687.317 1.12792 1.10072 0
M  V30 6791 C 688.547 0.907189 1.85617 0
M  V30 6792 C 688.955 -0.547181 1.81115 0
M  V30 6793 O 688.298 -1.39024 1.20075 0
M  V30 6794 C 688.36 1.30872 3.34832 0
M  V30 6795 C 688.024 2.77516 3.6309 0
M  V30 6796 C 689.021 3.75696 3.59373 0
M  V30 6797 C 686.706 3.14513 3.91646 0
M  V30 6798 C 688.7 5.08888 3.83812 0
M  V30 6799 C 686.387 4.47886 4.15742 0
M  V30 6800 C 687.385 5.44882 4.11816 0
M  V30 6801 O 687.073 6.7585 4.35295 0
M  V30 6802 H 686.805 0.323855 0.593375 0
M  V30 6803 H 689.359 1.50262 1.40038 0
M  V30 6804 H 687.589 0.656518 3.81086 0
M  V30 6805 H 689.278 1.06153 3.91773 0
M  V30 6806 H 690.044 3.48458 3.37345 0
M  V30 6807 H 685.923 2.39622 3.93831 0
M  V30 6808 H 689.467 5.84586 3.80663 0
M  V30 6809 H 685.364 4.74851 4.37249 0
M  V30 6810 H 686.132 6.81853 4.52791 0
M  V30 6811 N 688.795 -1.27931 0.920396 0
M  V30 6812 C 689.725 -2.29487 0.431024 0
M  V30 6813 C 690.706 -1.62435 -0.504861 0
M  V30 6814 O 691.891 -1.89797 -0.411176 0
M  V30 6815 C 689.021 -3.45788 -0.323709 0
M  V30 6816 C 687.975 -4.24784 0.523658 0
M  V30 6817 C 687.301 -5.33488 -0.359809 0
M  V30 6818 C 688.601 -4.90874 1.78437 0
M  V30 6819 H 690.295 -2.70671 1.27975 0
M  V30 6820 H 687.841 -1.30121 0.616813 0
M  V30 6821 H 689.794 -4.15927 -0.676952 0
M  V30 6822 H 688.518 -3.03502 -1.2064 0
M  V30 6823 H 687.177 -3.56382 0.85951 0
M  V30 6824 H 686.825 -4.87445 -1.24124 0
M  V30 6825 H 686.525 -5.87247 0.203605 0
M  V30 6826 H 688.049 -6.06472 -0.708787 0
M  V30 6827 H 689.463 -5.53339 1.49963 0
M  V30 6828 H 687.86 -5.54659 2.29071 0
M  V30 6829 H 688.93 -4.14988 2.50824 0
M  V30 6830 N 690.273 -0.685099 -1.4193 0
M  V30 6831 C 691.183 -0.013404 -2.34596 0
M  V30 6832 C 692.199 0.777589 -1.55658 0
M  V30 6833 O 693.375 0.717553 -1.88184 0
M  V30 6834 C 690.44 0.919031 -3.34297 0
M  V30 6835 C 689.501 0.121417 -4.29128 0
M  V30 6836 C 688.734 1.00944 -5.24067 0
M  V30 6837 O 688.957 2.24898 -5.24192 0
M  V30 6838 O 687.891 0.464724 -6.00103 0
M  V30 6839 H 691.717 -0.776978 -2.93593 0
M  V30 6840 H 689.302 -0.445379 -1.42607 0
M  V30 6841 H 691.184 1.45402 -3.9552 0
M  V30 6842 H 689.859 1.66228 -2.77759 0
M  V30 6843 H 688.766 -0.45792 -3.71287 0
M  V30 6844 H 690.099 -0.582937 -4.88736 0
M  V30 6845 N 691.751 1.51645 -0.429126 0
M  V30 6846 C 692.699 2.29119 0.400921 0
M  V30 6847 C 693.693 1.34628 1.02819 0
M  V30 6848 O 694.899 1.52004 0.964098 0
M  V30 6849 H 691.274 0.737273 0.148095 0
M  V30 6850 H 693.245 2.97144 -0.273457 0
M  V30 6851 C 691.994 3.13953 1.49429 0
M  V30 6852 H 691.317 3.86544 1.02097 0
M  V30 6853 H 692.757 3.71232 2.04849 0
M  V30 6854 C 691.216 2.28796 2.47293 0
M  V30 6855 O 691.746 1.94193 3.51642 0
M  V30 6856 N 689.952 1.92177 2.17982 0
M  V30 6857 H 689.499 2.20517 1.33154 0
M  V30 6858 H 689.457 1.35497 2.83704 0
M  V30 6859 N 693.229 0.160201 1.56784 0
M  V30 6860 C 694.139 -0.787167 2.21 0
M  V30 6861 C 695.155 -1.26167 1.19825 0
M  V30 6862 O 696.331 -1.31611 1.52448 0
M  V30 6863 C 693.396 -2.00364 2.8294 0
M  V30 6864 C 692.457 -1.5771 3.99282 0
M  V30 6865 C 691.69 -2.73558 4.58259 0
M  V30 6866 O 691.913 -3.90129 4.16119 0
M  V30 6867 O 690.847 -2.48271 5.48311 0
M  V30 6868 H 694.673 -0.270462 3.02493 0
M  V30 6869 H 692.258 -0.0674666 1.49248 0
M  V30 6870 H 694.14 -2.71529 3.22257 0
M  V30 6871 H 692.815 -2.50961 2.04451 0
M  V30 6872 H 691.722 -0.835274 3.64656 0
M  V30 6873 H 693.055 -1.11815 4.79331 0
M  V30 6874 N 694.707 -1.5719 -0.113559 0
M  V30 6875 C 696.118 -1.74259 -0.670116 0
M  V30 6876 C 696.469 -0.779694 -1.80042 0
M  V30 6877 O 695.594 0.0461353 -2.16351 0
M  V30 6878 C 696.189 -3.15981 -1.22236 0
M  V30 6879 C 694.748 -3.34537 -1.72516 0
M  V30 6880 C 693.895 -2.70116 -0.627098 0
M  V30 6881 H 696.846 -1.58301 0.112396 0
M  V30 6882 H 696.867 -3.17832 -2.09197 0
M  V30 6883 H 696.379 -3.86038 -0.39949 0
M  V30 6884 H 694.48 -2.6953 -2.57263 0
M  V30 6885 H 694.593 -4.42737 -1.83086 0
M  V30 6886 H 692.957 -2.31501 -1.06204 0
M  V30 6887 H 693.74 -3.42802 0.184889 0
M  V30 6888 N 696.185 0.383891 -1.52853 0
M  V30 6889 C 697.115 1.47559 -1.80965 0
M  V30 6890 C 698.096 1.5669 -0.661986 0
M  V30 6891 O 699.281 1.71556 -0.910072 0
M  V30 6892 C 696.411 2.85114 -1.98312 0
M  V30 6893 C 695.365 2.9082 -3.14019 0
M  V30 6894 C 694.691 4.30873 -3.16627 0
M  V30 6895 C 695.991 2.60001 -4.52986 0
M  V30 6896 H 697.685 1.24283 -2.72386 0
M  V30 6897 H 695.231 0.596445 -1.31067 0
M  V30 6898 H 697.184 3.61496 -2.16561 0
M  V30 6899 H 695.908 3.09738 -1.03585 0
M  V30 6900 H 694.567 2.16886 -2.9556 0
M  V30 6901 H 694.215 4.52545 -2.19573 0
M  V30 6902 H 693.915 4.3561 -3.94357 0
M  V30 6903 H 695.439 5.09154 -3.37038 0
M  V30 6904 H 696.853 3.261 -4.71521 0
M  V30 6905 H 695.25 2.76081 -5.32822 0
M  V30 6906 H 696.32 1.5532 -4.59351 0
M  V30 6907 N 697.663 1.43903 0.642637 0
M  V30 6908 C 698.596 1.44339 1.76753 0
M  V30 6909 C 699.574 0.303558 1.59741 0
M  V30 6910 O 700.758 0.498775 1.81781 0
M  V30 6911 C 697.885 1.26508 3.14187 0
M  V30 6912 C 696.931 2.43905 3.49875 0
M  V30 6913 S 697.764 4.0645 3.48653 0
M  V30 6914 C 698.92 3.91021 4.88726 0
M  V30 6915 H 699.153 2.39523 1.76113 0
M  V30 6916 H 696.686 1.31061 0.81623 0
M  V30 6917 H 698.644 1.16908 3.93501 0
M  V30 6918 H 697.305 0.328548 3.12377 0
M  V30 6919 H 696.498 2.27262 4.49853 0
M  V30 6920 H 696.1 2.50186 2.77998 0
M  V30 6921 H 698.392 3.54 5.77659 0
M  V30 6922 H 699.335 4.9079 5.10423 0
M  V30 6923 H 699.743 3.23287 4.62759 0
M  V30 6924 N 699.141 -0.881989 1.30609 0
M  V30 6925 C 700.071 -2.00413 1.1982 0
M  V30 6926 C 701.052 -1.69871 0.0881538 0
M  V30 6927 O 702.237 -1.92304 0.2707 0
M  V30 6928 C 699.367 -3.35641 0.89233 0
M  V30 6929 C 698.321 -3.80451 1.96064 0
M  V30 6930 C 697.647 -5.13003 1.5077 0
M  V30 6931 C 698.947 -3.98855 3.37213 0
M  V30 6932 H 700.641 -2.09698 2.13699 0
M  V30 6933 H 698.187 -1.00754 1.02882 0
M  V30 6934 H 700.14 -4.13669 0.803497 0
M  V30 6935 H 698.864 -3.26497 -0.0821381 0
M  V30 6936 H 697.523 -3.04654 2.03916 0
M  V30 6937 H 697.171 -5.0029 0.521417 0
M  V30 6938 H 696.871 -5.43956 2.22229 0
M  V30 6939 H 698.395 -5.93554 1.43271 0
M  V30 6940 H 699.809 -4.67312 3.32103 0
M  V30 6941 H 698.206 -4.41188 4.06784 0
M  V30 6942 H 699.276 -3.02614 3.78883 0
M  V30 6943 N 700.619 -1.13374 -1.09472 0
M  V30 6944 C 701.551 -0.768466 -2.15933 0
M  V30 6945 C 702.564 0.209585 -1.61445 0
M  V30 6946 O 703.753 -0.010539 -1.78497 0
M  V30 6947 C 700.853 -0.118266 -3.38694 0
M  V30 6948 C 700.026 -1.12829 -4.22597 0
M  V30 6949 C 699.085 -0.503875 -5.23782 0
M  V30 6950 O 698.111 -1.16374 -5.57177 0
M  V30 6951 N 699.313 0.724288 -5.75964 0
M  V30 6952 H 702.078 -1.68457 -2.47876 0
M  V30 6953 H 699.639 -1.02668 -1.25183 0
M  V30 6954 H 701.631 0.311698 -4.03498 0
M  V30 6955 H 700.201 0.700769 -3.04644 0
M  V30 6956 H 699.421 -1.73556 -3.53938 0
M  V30 6957 H 700.709 -1.81095 -4.75481 0
M  V30 6958 H 700.107 1.27918 -5.51048 0
M  V30 6959 H 698.664 1.09692 -6.42504 0
M  V30 6960 N 702.098 1.27442 -0.927168 0
M  V30 6961 C 703.028 2.29256 -0.443188 0
M  V30 6962 C 704.009 1.62701 0.49624 0
M  V30 6963 O 705.194 1.90013 0.401105 0
M  V30 6964 C 702.324 3.45955 0.305366 0
M  V30 6965 C 701.278 4.24501 -0.546178 0
M  V30 6966 C 700.604 5.33671 0.331512 0
M  V30 6967 C 701.904 4.89921 -1.81037 0
M  V30 6968 H 703.598 2.69988 -1.29409 0
M  V30 6969 H 701.144 1.29792 -0.623705 0
M  V30 6970 H 703.097 4.1628 0.654885 0
M  V30 6971 H 701.821 3.04138 1.19029 0
M  V30 6972 H 700.48 3.55921 -0.878398 0
M  V30 6973 H 700.128 4.88096 1.21537 0
M  V30 6974 H 699.828 5.87131 -0.234746 0
M  V30 6975 H 701.352 6.0684 0.676614 0
M  V30 6976 H 702.766 5.52536 -1.52895 0
M  V30 6977 H 701.163 5.53436 -2.32009 0
M  V30 6978 H 702.233 4.13652 -2.53021 0
M  V30 6979 N 703.576 0.692616 1.41565 0
M  V30 6980 C 704.823 0.222335 2.01276 0
M  V30 6981 C 705.151 -1.17706 1.5484 0
M  V30 6982 O 704.406 -1.80795 0.749118 0
M  V30 6983 C 704.705 0.225073 3.56691 0
M  V30 6984 C 704.371 1.57158 4.22625 0
M  V30 6985 C 703.033 1.94022 4.40351 0
M  V30 6986 C 705.385 2.45758 4.59622 0
M  V30 6987 C 702.713 3.19076 4.92349 0
M  V30 6988 C 705.065 3.70141 5.13009 0
M  V30 6989 C 703.729 4.07152 5.28946 0
M  V30 6990 H 702.999 0.0813581 0.73652 0
M  V30 6991 H 705.646 0.891123 1.69503 0
M  V30 6992 H 703.951 -0.527259 3.88236 0
M  V30 6993 H 705.648 -0.156283 4.00695 0
M  V30 6994 H 702.238 1.27486 4.09201 0
M  V30 6995 H 706.422 2.18558 4.45585 0
M  V30 6996 H 701.678 3.4775 5.02872 0
M  V30 6997 H 705.852 4.38983 5.40617 0
M  V30 6998 H 703.479 5.04125 5.69001 0
M  V30 6999 N 705.054 -1.51416 0.437162 0
M  V30 7000 C 706.303 -2.01275 -0.130865 0
M  V30 7001 C 706.616 -1.32593 -1.438 0
M  V30 7002 O 707.822 -1.7342 -2.08897 0
M  V30 7003 C 706.278 -3.5878 -0.283763 0
M  V30 7004 C 705.886 -4.36399 1.01293 0
M  V30 7005 C 707.63 -4.16786 -0.805569 0
M  V30 7006 C 705.537 -5.85608 0.825687 0
M  V30 7007 H 704.467 -0.752157 -0.0526818 0
M  V30 7008 H 707.118 -1.74524 0.566896 0
M  V30 7009 H 705.5 -3.81976 -1.04452 0
M  V30 7010 H 706.674 -4.24948 1.78201 0
M  V30 7011 H 704.989 -3.89843 1.46326 0
M  V30 7012 H 707.586 -5.25972 -0.962146 0
M  V30 7013 H 707.929 -3.75949 -1.78796 0
M  V30 7014 H 708.462 -3.97666 -0.103125 0
M  V30 7015 H 705.201 -6.30857 1.78045 0
M  V30 7016 H 704.721 -5.99723 0.0964029 0
M  V30 7017 H 706.4 -6.45226 0.478815 0
M  V30 7018 N 706.532 -0.168513 -1.56696 0
M  V30 7019 C 707.78 0.476216 -1.96409 0
M  V30 7020 C 708.101 1.63968 -1.05544 0
M  V30 7021 O 707.371 1.95525 -0.121235 0
M  V30 7022 H 705.951 0.178921 -0.725256 0
M  V30 7023 H 708.613 -0.249042 -1.93302 0
M  V30 7024 H 707.709 0.838094 -3.00637 0
M  V30 7025 N 708.01 1.57248 0.105221 0
M  V30 7026 C 709.238 1.89768 0.82437 0
M  V30 7027 C 709.653 0.761192 1.72775 0
M  V30 7028 O 709.01 -0.267342 1.80531 0
M  V30 7029 C 709.061 3.2184 1.64625 0
M  V30 7030 O 708.782 4.31115 0.779217 0
M  V30 7031 C 710.283 3.68155 2.46935 0
M  V30 7032 H 707.503 0.628031 0.236259 0
M  V30 7033 H 710.047 2.04321 0.085485 0
M  V30 7034 H 708.202 3.08915 2.33775 0
M  V30 7035 H 708.616 5.06897 1.34745 0
M  V30 7036 H 710.09 4.6329 3.00111 0
M  V30 7037 H 710.567 2.95492 3.24932 0
M  V30 7038 H 711.173 3.83914 1.83002 0
M  V30 7039 N 709.488 -0.375779 1.53054 0
M  V30 7040 C 710.451 -1.44254 1.7811 0
M  V30 7041 C 711.451 -1.47018 0.651328 0
M  V30 7042 O 712.641 -1.47957 0.919472 0
M  V30 7043 C 709.773 -2.8345 1.89391 0
M  V30 7044 H 710.966 -1.23316 2.73374 0
M  V30 7045 H 708.519 -0.608312 1.43977 0
M  V30 7046 H 709.254 -3.09716 0.961589 0
M  V30 7047 H 709.039 -2.82844 2.71555 0
M  V30 7048 H 710.529 -3.60722 2.10404 0
M  V30 7049 N 710.966 -1.44241 -0.634997 0
M  V30 7050 C 712.243 -1.37296 -1.39317 0
M  V30 7051 C 712.623 -0.0297532 -2.11079 0
M  V30 7052 O 711.971 0.987524 -2.06059 0
M  V30 7053 C 712.181 -2.56853 -2.36279 0
M  V30 7054 C 713.529 -3.00747 -2.99728 0
M  V30 7055 O 714.553 -2.5703 -2.46605 0
M  V30 7056 O 713.412 -3.76533 -3.96087 0
M  V30 7057 H 710.506 -0.543503 -0.623325 0
M  V30 7058 H 713.052 -1.56324 -0.660376 0
M  V30 7059 H 711.824 -3.46228 -1.82324 0
M  V30 7060 H 711.447 -2.40019 -3.16981 0
M  V30 7061 N 712.444 0.87505 -1.31075 0
M  V30 7062 C 713.721 1.60976 -1.11113 0
M  V30 7063 C 714.101 2.08409 0.336006 0
M  V30 7064 O 713.449 1.85858 1.32924 0
M  V30 7065 C 713.659 2.77166 -2.12085 0
M  V30 7066 C 715.007 3.47254 -2.44335 0
M  V30 7067 O 716.031 2.87367 -2.10472 0
M  V30 7068 O 714.89 4.55276 -3.02301 0
M  V30 7069 H 711.984 0.707982 -0.427424 0
M  V30 7070 H 714.53 0.920957 -1.42536 0
M  V30 7071 H 713.302 2.39494 -3.09449 0
M  V30 7072 H 712.925 3.53737 -1.81538 0
M  V30 7073 N 713.922 1.13953 1.08869 0
M  V30 7074 C 715.338 0.878924 1.33218 0
M  V30 7075 C 715.538 -0.482478 1.95638 0
M  V30 7076 O 714.594 -1.22778 2.2064 0
M  V30 7077 C 715.907 2.00798 2.23832 0
M  V30 7078 C 717.455 2.04073 2.37325 0
M  V30 7079 C 717.93 3.16258 3.31278 0
M  V30 7080 N 719.421 3.15805 3.38853 0
M  V30 7081 C 720.156 3.99249 4.11567 0
M  V30 7082 N 719.652 4.92721 4.87029 0
M  V30 7083 N 721.445 3.87327 4.0735 0
M  V30 7084 H 713.596 2.01645 0.66731 0
M  V30 7085 H 715.859 0.878395 0.356547 0
M  V30 7086 H 715.565 2.98986 1.85203 0
M  V30 7087 H 715.439 1.92704 3.24261 0
M  V30 7088 H 717.826 1.06495 2.75214 0
M  V30 7089 H 717.907 2.16239 1.36654 0
M  V30 7090 H 717.551 4.14079 2.9411 0
M  V30 7091 H 717.481 3.0133 4.31866 0
M  V30 7092 H 719.972 2.48102 2.8505 0
M  V30 7093 H 720.285 5.52867 5.39961 0
M  V30 7094 H 718.63 4.96723 4.86098 0
M  V30 7095 H 721.821 3.13627 3.475 0
M  V30 7096 H 721.994 4.52585 4.63757 0
M  V30 7097 N 715.4 -1.26948 0.933913 0
M  V30 7098 C 716.33 -2.29017 0.45534 0
M  V30 7099 C 717.311 -1.62961 -0.487605 0
M  V30 7100 O 718.496 -1.90223 -0.391022 0
M  V30 7101 C 715.626 -3.46112 -0.287015 0
M  V30 7102 C 714.58 -4.24205 0.568682 0
M  V30 7103 C 713.906 -5.3384 -0.303206 0
M  V30 7104 C 715.206 -4.88954 1.83633 0
M  V30 7105 H 716.9 -2.69298 1.30839 0
M  V30 7106 H 714.446 -1.29459 0.630579 0
M  V30 7107 H 716.399 -4.16622 -0.6328 0
M  V30 7108 H 715.123 -3.04765 -1.17414 0
M  V30 7109 H 713.782 -3.5545 0.897261 0
M  V30 7110 H 713.43 -4.88734 -1.18947 0
M  V30 7111 H 713.13 -5.86998 0.265879 0
M  V30 7112 H 714.654 -6.0719 -0.644423 0
M  V30 7113 H 716.068 -5.51717 1.55823 0
M  V30 7114 H 714.465 -5.52198 2.34941 0
M  V30 7115 H 715.535 -4.12305 2.55211 0
M  V30 7116 N 716.879 -0.700114 -1.41195 0
M  V30 7117 C 717.809 -0.0521132 -2.33442 0
M  V30 7118 C 718.79 0.76228 -1.52063 0
M  V30 7119 O 719.975 0.714336 -1.80585 0
M  V30 7120 C 717.105 0.881693 -3.35922 0
M  V30 7121 C 716.059 0.174062 -4.27646 0
M  V30 7122 C 715.385 1.22254 -5.20536 0
M  V30 7123 C 716.685 -0.962396 -5.13357 0
M  V30 7124 H 718.379 -0.822574 -2.87879 0
M  V30 7125 H 715.925 -0.397011 -1.38419 0
M  V30 7126 H 717.878 1.34429 -3.99383 0
M  V30 7127 H 716.602 1.68387 -2.79845 0
M  V30 7128 H 715.261 -0.268551 -3.65615 0
M  V30 7129 H 714.909 2.01736 -4.60773 0
M  V30 7130 H 714.609 0.754038 -5.82742 0
M  V30 7131 H 716.133 1.68555 -5.86874 0
M  V30 7132 H 717.547 -0.579875 -5.7036 0
M  V30 7133 H 715.944 -1.35828 -5.84526 0
M  V30 7134 H 717.014 -1.80003 -4.50252 0
M  V30 7135 N 718.357 1.51182 -0.445186 0
M  V30 7136 C 719.773 1.59299 -0.0978954 0
M  V30 7137 C 719.973 1.4555 1.39346 0
M  V30 7138 O 719.029 1.30073 2.16419 0
M  V30 7139 C 720.342 2.94133 -0.625005 0
M  V30 7140 C 721.89 3.07463 -0.586137 0
M  V30 7141 C 722.365 4.44832 -1.09035 0
M  V30 7142 N 723.856 4.51173 -1.04867 0
M  V30 7143 C 724.591 5.55804 -1.40959 0
M  V30 7144 N 724.087 6.67816 -1.84375 0
M  V30 7145 N 725.88 5.46205 -1.32726 0
M  V30 7146 H 718.031 1.58363 -1.41544 0
M  V30 7147 H 720.294 0.746946 -0.58376 0
M  V30 7148 H 720 3.09589 -1.66876 0
M  V30 7149 H 719.874 3.77161 -0.0542262 0
M  V30 7150 H 722.261 2.9167 0.448646 0
M  V30 7151 H 722.342 2.26255 -1.19341 0
M  V30 7152 H 721.986 4.61372 -2.12364 0
M  V30 7153 H 721.916 5.24591 -0.459539 0
M  V30 7154 H 724.407 3.70783 -0.729932 0
M  V30 7155 H 724.72 7.43683 -2.10131 0
M  V30 7156 H 723.065 6.69003 -1.88308 0
M  V30 7157 H 726.256 4.57583 -0.986678 0
M  V30 7158 H 726.429 6.27634 -1.61182 0
M  V30 7159 N 719.835 0.176821 1.56605 0
M  V30 7160 C 721.246 -0.338963 1.83597 0
M  V30 7161 C 721.597 -1.62677 1.09684 0
M  V30 7162 O 720.722 -2.13524 0.351661 0
M  V30 7163 C 721.317 -0.62177 3.33046 0
M  V30 7164 C 719.876 -1.08198 3.60514 0
M  V30 7165 C 719.023 -0.120774 2.77037 0
M  V30 7166 H 721.974 0.400978 1.53551 0
M  V30 7167 H 721.995 -1.47321 3.50823 0
M  V30 7168 H 721.507 0.315692 3.86814 0
M  V30 7169 H 719.608 -2.03435 3.12162 0
M  V30 7170 H 719.721 -0.987329 4.68816 0
M  V30 7171 H 718.085 -0.619192 2.47059 0
M  V30 7172 H 718.868 0.810806 3.33588 0
M  V30 7173 N 721.313 -1.57302 -0.09688 0
M  V30 7174 C 722.263 -1.98369 -1.12399 0
M  V30 7175 C 723.247 -0.861872 -1.3587 0
M  V30 7176 O 724.439 -1.1257 -1.36591 0
M  V30 7177 C 721.568 -2.41017 -2.4447 0
M  V30 7178 C 720.654 -3.59881 -2.24381 0
M  V30 7179 N 721.045 -4.74872 -1.74155 0
M  V30 7180 C 719.343 -3.65943 -2.54954 0
M  V30 7181 C 720.044 -5.56823 -1.68294 0
M  V30 7182 N 719.02 -4.99942 -2.13444 0
M  V30 7183 H 722.822 -2.84726 -0.728575 0
M  V30 7184 H 720.336 -1.59523 -0.304332 0
M  V30 7185 H 722.333 -2.68665 -3.18786 0
M  V30 7186 H 720.993 -1.56036 -2.84751 0
M  V30 7187 H 722.004 -4.97657 -1.43379 0
M  V30 7188 H 718.681 -2.9162 -2.98771 0
M  V30 7189 H 720.071 -6.59099 -1.30528 0
M  V30 7190 N 722.791 0.367657 -1.53252 0
M  V30 7191 C 723.754 1.43308 -1.78873 0
M  V30 7192 C 724.754 1.46671 -0.659115 0
M  V30 7193 O 725.944 1.47468 -0.927306 0
M  V30 7194 C 723.076 2.82442 -1.90892 0
M  V30 7195 H 724.269 1.21864 -2.74024 0
M  V30 7196 H 721.822 0.600668 -1.44297 0
M  V30 7197 H 722.557 3.09202 -0.978 0
M  V30 7198 H 722.342 2.81399 -2.73051 0
M  V30 7199 H 723.832 3.59601 -2.12314 0
M  V30 7200 N 724.269 1.44576 0.627338 0
M  V30 7201 C 725.516 1.47558 1.38682 0
M  V30 7202 C 725.844 0.109636 1.94191 0
M  V30 7203 O 725.099 -0.889092 1.74338 0
M  V30 7204 C 725.398 2.48644 2.56731 0
M  V30 7205 C 725.064 3.93873 2.19489 0
M  V30 7206 C 723.726 4.33421 2.09045 0
M  V30 7207 C 726.078 4.85286 1.90124 0
M  V30 7208 C 723.406 5.62303 1.6743 0
M  V30 7209 C 725.758 6.14559 1.50001 0
M  V30 7210 C 724.422 6.53058 1.38101 0
M  V30 7211 H 723.692 0.539955 0.507474 0
M  V30 7212 H 726.339 1.77811 0.711021 0
M  V30 7213 H 724.644 2.11889 3.29561 0
M  V30 7214 H 726.341 2.48197 3.14959 0
M  V30 7215 H 722.931 3.62587 2.28537 0
M  V30 7216 H 727.115 4.55483 1.971 0
M  V30 7217 H 722.371 5.90945 1.56823 0
M  V30 7218 H 726.545 6.84848 1.26319 0
M  V30 7219 H 724.172 7.52826 1.05628 0
M  V30 7220 N 725.747 -0.868086 1.31537 0
M  V30 7221 C 726.977 -1.65162 1.24118 0
M  V30 7222 C 727.385 -1.88187 -0.195558 0
M  V30 7223 O 726.728 -1.44154 -1.13866 0
M  V30 7224 C 726.79 -3.04119 1.91708 0
M  V30 7225 C 726.454 -3.04194 3.4105 0
M  V30 7226 C 727.451 -2.82016 4.36764 0
M  V30 7227 C 725.136 -3.25256 3.82772 0
M  V30 7228 C 727.13 -2.80881 5.72175 0
M  V30 7229 C 724.817 -3.23749 5.18295 0
M  V30 7230 C 725.815 -3.01589 6.12808 0
M  V30 7231 O 725.503 -2.9993 7.45853 0
M  V30 7232 H 725.235 -0.521597 0.430015 0
M  V30 7233 H 727.789 -1.09165 1.73989 0
M  V30 7234 H 726.019 -3.61849 1.36389 0
M  V30 7235 H 727.708 -3.64701 1.78179 0
M  V30 7236 H 728.474 -2.65525 4.05859 0
M  V30 7237 H 724.353 -3.41534 3.09638 0
M  V30 7238 H 727.897 -2.63503 6.45919 0
M  V30 7239 H 723.794 -3.39781 5.48834 0
M  V30 7240 H 724.562 -3.15979 7.55049 0
M  V30 7241 N 727.225 -1.14528 -1.08264 0
M  V30 7242 C 728.157 -0.791325 -2.15106 0
M  V30 7243 C 729.17 0.192449 -1.61659 0
M  V30 7244 O 730.359 -0.0294704 -1.78476 0
M  V30 7245 C 727.459 -0.154183 -3.38549 0
M  V30 7246 C 726.632 -1.17305 -4.21377 0
M  V30 7247 C 725.691 -0.559401 -5.23218 0
M  V30 7248 O 724.717 -1.22277 -5.55911 0
M  V30 7249 N 725.919 0.663159 -5.767 0
M  V30 7250 H 728.684 -1.71076 -2.46075 0
M  V30 7251 H 726.245 -1.0399 -1.24087 0
M  V30 7252 H 728.237 0.268884 -4.03806 0
M  V30 7253 H 726.807 0.668418 -3.0537 0
M  V30 7254 H 726.027 -1.773 -3.52077 0
M  V30 7255 H 727.315 -1.86128 -4.73533 0
M  V30 7256 H 726.713 1.22066 -5.52373 0
M  V30 7257 H 725.27 1.02871 -6.43631 0
M  V30 7258 N 728.703 1.26451 -0.940633 0
M  V30 7259 C 729.949 1.94065 -0.58878 0
M  V30 7260 C 730.282 1.7363 0.869853 0
M  V30 7261 O 729.557 1.073 1.62225 0
M  V30 7262 C 729.84 3.47852 -0.931199 0
M  V30 7263 C 729.693 3.77575 -2.44453 0
M  V30 7264 C 731.012 4.37832 -0.446229 0
M  V30 7265 H 728.131 0.704827 -0.21538 0
M  V30 7266 H 730.773 1.4933 -1.17475 0
M  V30 7267 H 728.923 3.86085 -0.432539 0
M  V30 7268 H 730.595 3.49059 -3.01588 0
M  V30 7269 H 728.838 3.23671 -2.88825 0
M  V30 7270 H 729.509 4.85068 -2.63464 0
M  V30 7271 H 731.985 4.06822 -0.873778 0
M  V30 7272 H 730.861 5.44228 -0.714648 0
M  V30 7273 H 731.122 4.37239 0.653815 0
M  V30 7274 N 730.181 0.707592 1.40822 0
M  V30 7275 C 731.131 0.0265008 2.27985 0
M  V30 7276 C 732.115 -0.740685 1.42838 0
M  V30 7277 O 733.307 -0.6142 1.66002 0
M  V30 7278 C 730.436 -0.900382 3.31282 0
M  V30 7279 C 729.522 -0.128807 4.23904 0
M  V30 7280 N 729.913 0.883744 4.9802 0
M  V30 7281 C 728.211 -0.362539 4.44524 0
M  V30 7282 C 728.912 1.34666 5.65898 0
M  V30 7283 N 727.888 0.670306 5.39451 0
M  V30 7284 H 731.69 0.802667 2.82727 0
M  V30 7285 H 729.204 0.539475 1.53178 0
M  V30 7286 H 731.201 -1.40357 3.92563 0
M  V30 7287 H 729.861 -1.67601 2.781 0
M  V30 7288 H 730.872 1.26435 5.0223 0
M  V30 7289 H 727.549 -1.11512 4.02332 0
M  V30 7290 H 728.939 2.18756 6.35292 0
M  V30 7291 N 731.66 -1.50943 0.453197 0
M  V30 7292 C 733.076 -1.59245 0.106342 0
M  V30 7293 C 733.276 -1.46287 -1.38572 0
M  V30 7294 O 732.332 -1.31219 -2.15726 0
M  V30 7295 C 733.645 -2.93797 0.640595 0
M  V30 7296 C 735.193 -3.07148 0.602435 0
M  V30 7297 C 735.668 -4.44247 1.11393 0
M  V30 7298 N 737.159 -4.50611 1.07258 0
M  V30 7299 C 737.894 -5.55049 1.43905 0
M  V30 7300 N 737.39 -6.66828 1.87914 0
M  V30 7301 N 739.183 -5.45494 1.35621 0
M  V30 7302 H 731.334 -1.5761 1.42382 0
M  V30 7303 H 733.597 -0.74384 0.587713 0
M  V30 7304 H 733.303 -3.087 1.68515 0
M  V30 7305 H 733.177 -3.77127 0.0742272 0
M  V30 7306 H 735.564 -2.91903 -0.433171 0
M  V30 7307 H 735.645 -2.25619 1.20539 0
M  V30 7308 H 735.289 -4.60239 2.14808 0
M  V30 7309 H 735.219 -5.2434 0.487353 0
M  V30 7310 H 737.71 -3.70391 0.749585 0
M  V30 7311 H 738.023 -7.42558 2.14072 0
M  V30 7312 H 736.368 -6.67995 1.91853 0
M  V30 7313 H 739.559 -4.57053 1.01093 0
M  V30 7314 H 739.732 -6.2677 1.64508 0
M  V30 7315 N 733.138 -0.185124 -1.56509 0
M  V30 7316 C 734.387 0.456421 -1.96468 0
M  V30 7317 C 734.7 1.63448 -1.07444 0
M  V30 7318 O 735.906 2.34316 -1.37143 0
M  V30 7319 C 734.362 0.863404 -3.4939 0
M  V30 7320 C 733.97 -0.289815 -4.47062 0
M  V30 7321 C 735.714 1.47259 -3.98139 0
M  V30 7322 C 733.621 0.137571 -5.9124 0
M  V30 7323 H 732.551 0.17429 -0.733579 0
M  V30 7324 H 735.202 -0.275554 -1.81419 0
M  V30 7325 H 733.584 1.65176 -3.59907 0
M  V30 7326 H 734.758 -1.06728 -4.4827 0
M  V30 7327 H 733.073 -0.809851 -4.08449 0
M  V30 7328 H 735.67 1.80463 -5.03326 0
M  V30 7329 H 736.013 2.3755 -3.41871 0
M  V30 7330 H 736.546 0.748405 -3.90696 0
M  V30 7331 H 733.285 -0.730907 -6.51412 0
M  V30 7332 H 732.805 0.8801 -5.93308 0
M  V30 7333 H 734.484 0.576771 -6.44424 0
M  V30 7334 N 734.616 1.57351 0.0885366 0
M  V30 7335 C 735.844 1.90631 0.804196 0
M  V30 7336 C 736.259 0.779474 1.71958 0
M  V30 7337 O 735.616 -0.248179 1.80805 0
M  V30 7338 C 735.667 3.23568 1.61202 0
M  V30 7339 O 735.388 4.31917 0.733447 0
M  V30 7340 C 736.889 3.70753 2.43016 0
M  V30 7341 H 734.109 0.630501 0.229585 0
M  V30 7342 H 736.653 2.044 0.0638092 0
M  V30 7343 H 734.808 3.11377 2.30485 0
M  V30 7344 H 735.222 5.08297 1.29361 0
M  V30 7345 H 736.696 4.66447 2.9518 0
M  V30 7346 H 737.173 2.98922 3.2178 0
M  V30 7347 H 737.779 3.85834 1.7892 0
M  V30 7348 N 736.094 -0.359525 1.53444 0
M  V30 7349 C 737.342 -1.09935 1.69584 0
M  V30 7350 C 737.663 -1.89656 0.453371 0
M  V30 7351 O 736.933 -1.8852 -0.53263 0
M  V30 7352 H 735.513 -0.408843 0.625185 0
M  V30 7353 H 738.175 -0.40467 1.90653 0
M  V30 7354 H 737.271 -1.78575 2.55964 0
M  V30 7355 N 737.572 -1.44907 -0.619662 0
M  V30 7356 C 738.519 -1.52654 -1.73105 0
M  V30 7357 C 739.489 -0.373334 -1.6185 0
M  V30 7358 O 740.674 -0.585143 -1.81606 0
M  V30 7359 C 737.814 -1.48769 -3.11387 0
M  V30 7360 C 736.927 -2.74551 -3.33535 0
M  V30 7361 C 736.062 -2.62421 -4.61854 0
M  V30 7362 C 735.101 -3.83312 -4.77219 0
M  V30 7363 N 734.238 -3.69789 -5.96826 0
M  V30 7364 H 739.078 -2.47605 -1.65819 0
M  V30 7365 H 736.615 -1.22875 -0.808719 0
M  V30 7366 H 738.573 -1.44507 -3.91374 0
M  V30 7367 H 737.203 -0.573783 -3.1766 0
M  V30 7368 H 736.255 -2.88953 -2.47408 0
M  V30 7369 H 737.567 -3.64253 -3.40765 0
M  V30 7370 H 736.721 -2.56056 -5.50019 0
M  V30 7371 H 735.46 -1.70298 -4.57001 0
M  V30 7372 H 734.465 -3.90049 -3.87481 0
M  V30 7373 H 735.69 -4.76486 -4.83878 0
M  V30 7374 H 733.636 -2.80426 -5.93041 0
M  V30 7375 H 733.553 -4.53116 -6.05163 0
M  V30 7376 H 734.821 -3.67335 -6.87521 0
M  V30 7377 N 739.05 0.861098 -1.31996 0
M  V30 7378 C 740.278 1.6474 -1.25173 0
M  V30 7379 C 740.693 1.87926 0.181425 0
M  V30 7380 O 740.05 1.4437 1.1164 0
M  V30 7381 C 740.101 3.01036 -2.0015 0
M  V30 7382 O 739.822 2.7888 -3.37872 0
M  V30 7383 C 741.323 3.95481 -2.00273 0
M  V30 7384 H 738.543 0.513314 -0.432146 0
M  V30 7385 H 741.087 1.07419 -1.74016 0
M  V30 7386 H 739.242 3.55021 -1.55046 0
M  V30 7387 H 739.656 3.65514 -3.76165 0
M  V30 7388 H 741.13 4.88403 -2.57229 0
M  V30 7389 H 741.607 4.27957 -0.987407 0
M  V30 7390 H 742.213 3.47433 -2.45296 0
M  V30 7391 N 740.528 1.15101 1.07655 0
M  V30 7392 C 741.774 0.925343 1.80458 0
M  V30 7393 C 742.107 -0.546354 1.86356 0
M  V30 7394 O 741.382 -1.40496 1.34503 0
M  V30 7395 C 741.665 1.53646 3.25676 0
M  V30 7396 C 741.518 3.07854 3.27942 0
M  V30 7397 C 742.837 1.21968 4.22861 0
M  V30 7398 H 739.956 0.337592 0.655134 0
M  V30 7399 H 742.598 1.42217 1.25993 0
M  V30 7400 H 740.748 1.11395 3.72187 0
M  V30 7401 H 742.42 3.58989 2.89697 0
M  V30 7402 H 740.663 3.41904 2.66991 0
M  V30 7403 H 741.334 3.45725 4.30324 0
M  V30 7404 H 743.81 1.5851 3.84726 0
M  V30 7405 H 742.686 1.67349 5.22767 0
M  V30 7406 H 742.947 0.136207 4.4189 0
M  V30 7407 N 742.006 -1.2595 0.947325 0
M  V30 7408 C 743.231 -1.98083 0.614633 0
M  V30 7409 C 743.656 -1.70013 -0.804815 0
M  V30 7410 O 743.014 -0.95175 -1.54309 0
M  V30 7411 C 743.062 -3.4993 0.870706 0
M  V30 7412 O 742.166 -4.12364 -0.0541451 0
M  V30 7413 H 741.507 -0.621232 0.234451 0
M  V30 7414 H 744.037 -1.60259 1.27193 0
M  V30 7415 H 744.047 -4.00198 0.794051 0
M  V30 7416 H 742.722 -3.69691 1.90529 0
M  V30 7417 H 741.299 -3.72826 0.0740917 0
M  V30 7418 N 743.484 -0.715051 -1.40445 0
M  V30 7419 C 744.712 -0.263959 -2.05209 0
M  V30 7420 C 745.127 1.09403 -1.53871 0
M  V30 7421 O 744.484 1.68746 -0.695064 0
M  V30 7422 C 744.535 -0.234545 -3.60738 0
M  V30 7423 O 744.256 -1.53891 -4.10182 0
M  V30 7424 C 745.757 0.235164 -4.42676 0
M  V30 7425 H 742.977 -0.11876 -0.660407 0
M  V30 7426 H 745.521 -0.973107 -1.79864 0
M  V30 7427 H 743.676 0.425563 -3.85055 0
M  V30 7428 H 744.09 -1.43903 -5.04373 0
M  V30 7429 H 745.564 0.204598 -5.51621 0
M  V30 7430 H 746.041 1.27724 -4.20218 0
M  V30 7431 H 746.647 -0.394649 -4.23465 0
M  V30 7432 N 744.962 1.50701 -0.461195 0
M  V30 7433 C 746.19 2.06681 0.0951756 0
M  V30 7434 C 746.605 1.32615 1.34382 0
M  V30 7435 O 745.962 0.392531 1.78229 0
M  V30 7436 C 746.013 3.59354 0.393316 0
M  V30 7437 O 745.734 4.30626 -0.805797 0
M  V30 7438 C 747.235 4.31926 0.997744 0
M  V30 7439 H 744.455 0.670995 -0.00267259 0
M  V30 7440 H 746.999 1.93991 -0.647137 0
M  V30 7441 H 745.154 3.7188 1.08555 0
M  V30 7442 H 745.568 5.21667 -0.544409 0
M  V30 7443 H 747.042 5.39756 1.15619 0
M  V30 7444 H 747.519 3.91772 1.98523 0
M  V30 7445 H 748.125 4.23905 0.344188 0
M  V30 7446 N 746.441 0.193421 1.56409 0
M  V30 7447 C 747.666 -0.454552 2.02358 0
M  V30 7448 C 748.091 -1.54516 1.07268 0
M  V30 7449 O 747.449 -1.81214 0.0558962 0
M  V30 7450 C 747.497 -0.989469 3.46759 0
M  V30 7451 O 746.601 -2.10244 3.54783 0
M  V30 7452 H 745.942 -0.106417 0.655417 0
M  V30 7453 H 748.472 0.303807 2.02332 0
M  V30 7454 H 748.482 -1.30649 3.86516 0
M  V30 7455 H 747.157 -0.191083 4.15461 0
M  V30 7456 H 745.734 -1.79419 3.26899 0
M  V30 7457 N 747.919 -1.57396 -0.0801906 0
M  V30 7458 C 748.869 -1.9955 -1.10289 0
M  V30 7459 C 749.853 -0.876234 -1.34948 0
M  V30 7460 O 751.045 -1.14012 -1.35389 0
M  V30 7461 C 748.174 -2.43596 -2.419 0
M  V30 7462 C 747.26 -3.6224 -2.20551 0
M  V30 7463 N 747.651 -4.76693 -1.69109 0
M  V30 7464 C 745.949 -3.68627 -2.51059 0
M  V30 7465 C 746.65 -5.58577 -1.62379 0
M  V30 7466 N 745.626 -5.02178 -2.0813 0
M  V30 7467 H 749.428 -2.85483 -0.698335 0
M  V30 7468 H 746.942 -1.59837 -0.287395 0
M  V30 7469 H 748.939 -2.72031 -3.15919 0
M  V30 7470 H 747.599 -1.59047 -2.8308 0
M  V30 7471 H 748.61 -4.9915 -1.38092 0
M  V30 7472 H 745.287 -2.94772 -2.95661 0
M  V30 7473 H 746.677 -6.60447 -1.2353 0
M  V30 7474 N 749.397 0.351382 -1.53633 0
M  V30 7475 C 750.307 1.45471 -1.84052 0
M  V30 7476 C 751.323 1.57945 -0.730015 0
M  V30 7477 O 752.499 1.73571 -1.02153 0
M  V30 7478 C 749.564 2.80562 -2.03681 0
M  V30 7479 C 748.625 2.77497 -3.27558 0
M  V30 7480 C 747.858 4.06144 -3.46241 0
M  V30 7481 O 748.081 5.03028 -2.68922 0
M  V30 7482 O 747.015 4.11092 -4.39645 0
M  V30 7483 H 750.841 1.22684 -2.77817 0
M  V30 7484 H 748.426 0.542827 -1.3919 0
M  V30 7485 H 750.308 3.6058 -2.18082 0
M  V30 7486 H 748.983 3.03296 -1.13106 0
M  V30 7487 H 747.89 1.96126 -3.18568 0
M  V30 7488 H 749.223 2.59716 -4.18101 0
M  V30 7489 N 750.875 1.45233 0.611969 0
M  V30 7490 C 751.838 1.53189 1.70487 0
M  V30 7491 C 752.838 0.411839 1.55437 0
M  V30 7492 O 754.028 0.675164 1.60584 0
M  V30 7493 C 751.16 1.42422 3.09723 0
M  V30 7494 H 752.353 2.5056 1.64802 0
M  V30 7495 H 749.906 1.32609 0.827318 0
M  V30 7496 H 750.641 0.462185 3.2099 0
M  V30 7497 H 750.426 2.23658 3.22055 0
M  V30 7498 H 751.916 1.51012 3.89339 0
M  V30 7499 N 752.353 -0.854086 1.3245 0
M  V30 7500 C 753.602 -1.60318 1.22397 0
M  V30 7501 C 753.915 -1.9444 -0.212664 0
M  V30 7502 O 755.121 -2.67991 -0.435066 0
M  V30 7503 C 753.577 -2.8909 2.1437 0
M  V30 7504 C 753.185 -2.62391 3.63119 0
M  V30 7505 C 754.929 -3.67104 2.13155 0
M  V30 7506 C 752.836 -3.87167 4.47052 0
M  V30 7507 H 751.766 -0.601586 0.454544 0
M  V30 7508 H 754.417 -0.943023 1.57415 0
M  V30 7509 H 752.799 -3.56567 1.72268 0
M  V30 7510 H 753.973 -2.03222 4.13567 0
M  V30 7511 H 752.288 -1.97706 3.66471 0
M  V30 7512 H 754.885 -4.59696 2.731 0
M  V30 7513 H 755.228 -4.00876 1.12268 0
M  V30 7514 H 755.761 -3.06533 2.5354 0
M  V30 7515 H 752.5 -3.58536 5.48755 0
M  V30 7516 H 752.02 -4.45729 4.01355 0
M  V30 7517 H 753.699 -4.549 4.60081 0
M  V30 7518 N 753.831 -1.1567 -1.07043 0
M  V30 7519 C 754.761 -0.879348 -2.16309 0
M  V30 7520 C 755.742 0.171311 -1.69235 0
M  V30 7521 O 756.927 0.0250175 -1.94184 0
M  V30 7522 C 754.057 -0.371307 -3.45309 0
M  V30 7523 C 753.011 -1.359 -4.05851 0
M  V30 7524 C 752.337 -0.709678 -5.29969 0
M  V30 7525 C 753.637 -2.72606 -4.45514 0
M  V30 7526 H 755.331 -1.79308 -2.39768 0
M  V30 7527 H 752.877 -0.863558 -1.15233 0
M  V30 7528 H 754.83 -0.164798 -4.21078 0
M  V30 7529 H 753.554 0.577906 -3.21446 0
M  V30 7530 H 752.213 -1.55193 -3.32131 0
M  V30 7531 H 751.861 0.245782 -5.02399 0
M  V30 7532 H 751.561 -1.36886 -5.71433 0
M  V30 7533 H 753.085 -0.513015 -6.08441 0
M  V30 7534 H 754.499 -2.57141 -5.12398 0
M  V30 7535 H 752.896 -3.34927 -4.97939 0
M  V30 7536 H 753.966 -3.28434 -3.56734 0
M  V30 7537 N 755.309 1.25446 -0.953992 0
M  V30 7538 C 756.534 1.97755 -0.625129 0
M  V30 7539 C 756.959 1.70437 0.795787 0
M  V30 7540 O 756.317 0.95992 1.53803 0
M  V30 7541 C 756.365 3.49463 -0.889251 0
M  V30 7542 O 755.469 4.12387 0.0322757 0
M  V30 7543 H 754.81 0.61998 -0.237742 0
M  V30 7544 H 757.34 1.59582 -1.28041 0
M  V30 7545 H 757.35 3.99772 -0.815263 0
M  V30 7546 H 756.025 3.68676 -1.92487 0
M  V30 7547 H 754.602 3.72782 -0.0938625 0
M  V30 7548 N 756.787 0.722489 1.40064 0
M  V30 7549 C 757.735 0.063329 2.32514 0
M  V30 7550 C 758.729 -0.73953 1.52405 0
M  V30 7551 O 759.935 -0.642122 1.68157 0
M  V30 7552 H 756.31 0.00167692 0.751998 0
M  V30 7553 H 758.281 0.859656 2.85749 0
M  V30 7554 C 757.03 -0.839219 3.3742 0
M  V30 7555 H 756.353 -0.230836 3.99133 0
M  V30 7556 H 757.793 -1.26827 4.04587 0
M  V30 7557 C 756.252 -1.96783 2.73456 0
M  V30 7558 O 756.782 -3.05933 2.60323 0
M  V30 7559 N 754.988 -1.75351 2.31734 0
M  V30 7560 H 754.535 -0.865787 2.42615 0
M  V30 7561 H 754.493 -2.51043 1.89275 0
M  V30 7562 N 758.265 -1.50454 0.469181 0
M  V30 7563 C 759.493 -2.06729 -0.0842134 0
M  V30 7564 C 759.908 -1.33326 -1.33677 0
M  V30 7565 O 759.265 -0.401977 -1.78018 0
M  V30 7566 C 759.316 -3.59557 -0.374253 0
M  V30 7567 O 759.037 -4.30192 0.828622 0
M  V30 7568 C 760.538 -4.32449 -0.974824 0
M  V30 7569 H 757.758 -0.670971 0.006231 0
M  V30 7570 H 760.302 -1.93645 0.657415 0
M  V30 7571 H 758.457 -3.7245 -1.06581 0
M  V30 7572 H 758.871 -5.21371 0.572066 0
M  V30 7573 H 760.345 -5.40361 -1.12755 0
M  V30 7574 H 760.822 -3.92819 -1.96442 0
M  V30 7575 H 761.428 -4.24082 -0.321703 0
M  V30 7576 N 759.743 -0.201713 -1.56304 0
M  V30 7577 C 760.69 0.716499 -2.19397 0
M  V30 7578 C 761.66 1.20494 -1.14326 0
M  V30 7579 O 762.845 1.26763 -1.42604 0
M  V30 7580 C 759.985 1.92762 -2.86246 0
M  V30 7581 C 759.098 1.47993 -4.0586 0
M  V30 7582 C 758.233 2.64706 -4.60547 0
M  V30 7583 C 757.272 2.16576 -5.72504 0
M  V30 7584 N 756.409 3.26491 -6.21569 0
M  V30 7585 H 761.249 0.171724 -2.97505 0
M  V30 7586 H 758.786 0.073016 -1.46919 0
M  V30 7587 H 760.744 2.6384 -3.23178 0
M  V30 7588 H 759.374 2.44559 -2.10691 0
M  V30 7589 H 758.426 0.66477 -3.74546 0
M  V30 7590 H 759.738 1.08686 -4.86815 0
M  V30 7591 H 758.892 3.43898 -4.99819 0
M  V30 7592 H 757.631 3.0729 -3.78713 0
M  V30 7593 H 756.636 1.3584 -5.32755 0
M  V30 7594 H 757.861 1.75015 -6.56161 0
M  V30 7595 H 755.807 3.68594 -5.42655 0
M  V30 7596 H 755.724 2.91374 -6.97594 0
M  V30 7597 H 756.992 4.05877 -6.65495 0
M  V30 7598 N 761.222 1.57436 0.0718424 0
M  V30 7599 C 762.468 1.87525 0.772149 0
M  V30 7600 C 762.801 0.79399 1.77227 0
M  V30 7601 O 762.076 -0.195733 1.93513 0
M  V30 7602 C 762.359 3.28272 1.48018 0
M  V30 7603 C 762.212 4.47052 0.49647 0
M  V30 7604 C 763.531 3.67256 2.42509 0
M  V30 7605 H 760.65 0.682049 0.279245 0
M  V30 7606 H 763.292 1.89967 0.03534 0
M  V30 7607 H 761.442 3.26321 2.10824 0
M  V30 7608 H 763.114 4.61127 -0.126375 0
M  V30 7609 H 761.357 4.33392 -0.188205 0
M  V30 7610 H 762.028 5.42315 1.02949 0
M  V30 7611 H 764.504 3.70301 1.89781 0
M  V30 7612 H 763.38 4.66626 2.89053 0
M  V30 7613 H 763.641 2.97186 3.27312 0
M  V30 7614 N 762.7 -0.34323 1.53817 0
M  V30 7615 C 763.63 -1.42709 1.84814 0
M  V30 7616 C 764.611 -1.5488 0.703297 0
M  V30 7617 O 765.796 -1.69082 0.955237 0
M  V30 7618 C 762.926 -2.79756 2.05801 0
M  V30 7619 C 761.88 -2.82392 3.21619 0
M  V30 7620 C 761.206 -4.22326 3.2794 0
M  V30 7621 C 762.506 -2.479 4.59721 0
M  V30 7622 H 764.2 -1.17018 2.75585 0
M  V30 7623 H 761.746 -0.561485 1.32602 0
M  V30 7624 H 763.699 -3.55627 2.26069 0
M  V30 7625 H 762.423 -3.06883 1.11761 0
M  V30 7626 H 761.082 -2.08974 3.01207 0
M  V30 7627 H 760.73 -4.46564 2.31494 0
M  V30 7628 H 760.43 -4.25001 4.05768 0
M  V30 7629 H 761.954 -5.00039 3.50419 0
M  V30 7630 H 763.368 -3.13484 4.80001 0
M  V30 7631 H 761.765 -2.61857 5.39954 0
M  V30 7632 H 762.835 -1.43087 4.63308 0
M  V30 7633 N 764.178 -1.45556 -0.604258 0
M  V30 7634 C 765.088 -1.57025 -1.74299 0
M  V30 7635 C 766.104 -0.45456 -1.67958 0
M  V30 7636 O 767.28 -0.715711 -1.88254 0
M  V30 7637 C 764.345 -1.53702 -3.10768 0
M  V30 7638 C 763.406 -2.76335 -3.28538 0
M  V30 7639 C 762.639 -2.73161 -4.58496 0
M  V30 7640 O 762.862 -1.80678 -5.41028 0
M  V30 7641 O 761.796 -3.64409 -4.79051 0
M  V30 7642 H 765.622 -2.53284 -1.67573 0
M  V30 7643 H 763.207 -1.28104 -0.768745 0
M  V30 7644 H 765.089 -1.54468 -3.92068 0
M  V30 7645 H 763.764 -0.605957 -3.17978 0
M  V30 7646 H 762.671 -2.8113 -2.46813 0
M  V30 7647 H 764.004 -3.68578 -3.26207 0
M  V30 7648 N 765.656 0.84705 -1.32902 0
M  V30 7649 C 766.905 1.59667 -1.23245 0
M  V30 7650 C 767.218 1.94551 0.202349 0
M  V30 7651 O 768.424 2.68218 0.420847 0
M  V30 7652 C 766.88 2.8795 -2.15901 0
M  V30 7653 C 766.488 2.60461 -3.64505 0
M  V30 7654 C 768.232 3.65968 -2.15098 0
M  V30 7655 C 766.139 3.84791 -4.49099 0
M  V30 7656 H 765.069 0.599167 -0.457728 0
M  V30 7657 H 767.72 0.934662 -1.57912 0
M  V30 7658 H 766.102 3.55648 -1.74157 0
M  V30 7659 H 767.276 2.01026 -4.14639 0
M  V30 7660 H 765.591 1.9576 -3.67515 0
M  V30 7661 H 768.188 4.58241 -2.75534 0
M  V30 7662 H 768.531 4.00275 -1.14392 0
M  V30 7663 H 769.064 3.05184 -2.55162 0
M  V30 7664 H 765.803 3.55621 -5.50649 0
M  V30 7665 H 765.323 4.43594 -4.03713 0
M  V30 7666 H 767.002 4.52454 -4.62487 0
M  V30 7667 N 767.134 1.16236 1.06428 0
M  V30 7668 C 768.545 0.950942 1.60667 0
M  V30 7669 C 768.896 -0.505491 1.89576 0
M  V30 7670 O 768.021 -1.37843 1.66818 0
M  V30 7671 C 768.616 1.71982 2.91904 0
M  V30 7672 C 767.175 1.55342 3.4285 0
M  V30 7673 C 766.322 1.72942 2.16763 0
M  V30 7674 H 769.273 1.31126 0.893959 0
M  V30 7675 H 769.294 1.19483 3.61253 0
M  V30 7676 H 768.806 2.77978 2.70831 0
M  V30 7677 H 766.907 0.5178 3.68985 0
M  V30 7678 H 767.02 2.33643 4.18267 0
M  V30 7679 H 765.384 1.15673 2.26918 0
M  V30 7680 H 766.167 2.80324 1.98175 0
M  V30 7681 N 768.612 -1.24939 0.960631 0
M  V30 7682 C 769.542 -2.28 0.503815 0
M  V30 7683 C 770.523 -1.63959 -0.452928 0
M  V30 7684 O 771.708 -1.91009 -0.350585 0
M  V30 7685 C 768.838 -3.46643 -0.213535 0
M  V30 7686 C 767.792 -4.22903 0.658535 0
M  V30 7687 C 767.118 -5.34363 -0.189902 0
M  V30 7688 C 768.418 -4.84949 1.93963 0
M  V30 7689 H 770.112 -2.66462 1.36521 0
M  V30 7690 H 767.658 -1.28093 0.657897 0
M  V30 7691 H 769.611 -4.1787 -0.544286 0
M  V30 7692 H 768.335 -3.07187 -1.10923 0
M  V30 7693 H 766.994 -3.53467 0.972455 0
M  V30 7694 H 766.642 -4.91147 -1.08553 0
M  V30 7695 H 766.342 -5.86302 0.390331 0
M  V30 7696 H 767.866 -6.0842 -0.515484 0
M  V30 7697 H 769.28 -5.48288 1.67491 0
M  V30 7698 H 767.677 -5.47091 2.46601 0
M  V30 7699 H 768.747 -4.06799 2.639 0
M  V30 7700 N 770.09 -0.729906 -1.39679 0
M  V30 7701 C 771.02 -0.101618 -2.33279 0
M  V30 7702 C 772.001 0.729854 -1.53646 0
M  V30 7703 O 773.186 0.67587 -1.82059 0
M  V30 7704 C 770.316 0.81024 -3.37716 0
M  V30 7705 C 769.27 0.0833126 -4.27919 0
M  V30 7706 C 768.596 1.11185 -5.23012 0
M  V30 7707 C 769.896 -1.07107 -5.112 0
M  V30 7708 H 771.59 -0.883452 -2.86069 0
M  V30 7709 H 769.136 -0.426283 -1.37546 0
M  V30 7710 H 771.089 1.25927 -4.02145 0
M  V30 7711 H 769.813 1.62413 -2.83354 0
M  V30 7712 H 768.472 -0.346043 -3.64963 0
M  V30 7713 H 768.12 1.91917 -4.64948 0
M  V30 7714 H 767.82 0.63026 -5.8421 0
M  V30 7715 H 769.344 1.56068 -5.90318 0
M  V30 7716 H 770.758 -0.700726 -5.69002 0
M  V30 7717 H 769.155 -1.48196 -5.81514 0
M  V30 7718 H 770.225 -1.89513 -4.46332 0
M  V30 7719 N 771.568 1.50203 -0.477153 0
M  V30 7720 C 772.979 1.86685 -0.0235041 0
M  V30 7721 C 773.33 1.39148 1.38319 0
M  V30 7722 O 772.455 0.759051 2.02651 0
M  V30 7723 C 773.05 3.38781 -0.0358767 0
M  V30 7724 C 771.609 3.74652 0.362327 0
M  V30 7725 C 770.756 2.7412 -0.41875 0
M  V30 7726 H 773.707 1.4286 -0.691133 0
M  V30 7727 H 773.728 3.72732 0.764924 0
M  V30 7728 H 773.24 3.73349 -1.05981 0
M  V30 7729 H 771.341 3.45686 1.39039 0
M  V30 7730 H 771.454 4.79063 0.059457 0
M  V30 7731 H 769.818 2.54376 0.128341 0
M  V30 7732 H 770.601 3.11532 -1.44231 0
M  V30 7733 N 773.046 0.209999 1.56195 0
M  V30 7734 C 773.956 -0.716459 2.23392 0
M  V30 7735 C 774.972 -1.22291 1.23778 0
M  V30 7736 O 776.148 -1.26694 1.56558 0
M  V30 7737 C 773.213 -1.91261 2.89172 0
M  V30 7738 C 772.274 -1.44927 4.04097 0
M  V30 7739 C 771.507 -2.5884 4.66731 0
M  V30 7740 O 771.73 -3.76693 4.2832 0
M  V30 7741 O 770.664 -2.30701 5.55932 0
M  V30 7742 H 774.49 -0.174089 3.03201 0
M  V30 7743 H 772.075 -0.0199505 1.49387 0
M  V30 7744 H 773.957 -2.6114 3.30733 0
M  V30 7745 H 772.632 -2.4433 2.12331 0
M  V30 7746 H 771.539 -0.718839 3.67129 0
M  V30 7747 H 772.872 -0.965084 4.82646 0
M  V30 7748 N 774.524 -1.57472 -0.0634922 0
M  V30 7749 C 775.472 -2.05307 -1.09323 0
M  V30 7750 C 776.466 -0.959995 -1.39572 0
M  V30 7751 O 777.672 -1.14507 -1.38882 0
M  V30 7752 H 774.047 -0.65472 -0.369927 0
M  V30 7753 H 776.018 -2.90925 -0.663707 0
M  V30 7754 C 774.767 -2.51954 -2.39613 0
M  V30 7755 H 774.09 -3.35662 -2.1719 0
M  V30 7756 H 775.53 -2.89169 -3.10092 0
M  V30 7757 C 773.989 -1.40596 -3.06161 0
M  V30 7758 O 774.519 -0.752722 -3.94585 0
M  V30 7759 N 772.725 -1.14902 -2.66919 0
M  V30 7760 H 772.272 -1.68205 -1.95102 0
M  V30 7761 H 772.23 -0.406006 -3.11767 0
M  V30 7762 N 776.003 0.335068 -1.53997 0
M  V30 7763 C 777.228 1.09859 -1.75914 0
M  V30 7764 C 777.653 1.81308 -0.500915 0
M  V30 7765 O 777.011 1.72854 0.54693 0
M  V30 7766 C 777.059 2.08122 -2.94478 0
M  V30 7767 O 776.163 3.15805 -2.65219 0
M  V30 7768 H 775.504 0.317313 -0.583274 0
M  V30 7769 H 778.034 0.382872 -2.00986 0
M  V30 7770 H 778.044 2.51195 -3.21504 0
M  V30 7771 H 776.719 1.55517 -3.8573 0
M  V30 7772 H 775.296 2.77489 -2.49107 0
M  V30 7773 N 777.481 1.45874 0.596531 0
M  V30 7774 C 778.414 1.49889 1.72071 0
M  V30 7775 C 779.392 0.354224 1.58695 0
M  V30 7776 O 780.576 0.556355 1.80103 0
M  V30 7777 C 777.703 1.3644 3.10003 0
M  V30 7778 C 776.749 2.54913 3.41938 0
M  V30 7779 S 777.582 4.17336 3.35545 0
M  V30 7780 C 778.738 4.06372 4.76039 0
M  V30 7781 H 778.971 2.45005 1.68404 0
M  V30 7782 H 776.504 1.33592 0.77412 0
M  V30 7783 H 778.462 1.29368 3.89582 0
M  V30 7784 H 777.123 0.427762 3.11174 0
M  V30 7785 H 776.316 2.41458 4.42396 0
M  V30 7786 H 775.918 2.58904 2.69898 0
M  V30 7787 H 778.21 3.72199 5.66105 0
M  V30 7788 H 779.153 5.0678 4.9455 0
M  V30 7789 H 779.561 3.37846 4.52239 0
M  V30 7790 N 778.959 -0.83999 1.33349 0
M  V30 7791 C 780.375 -1.13049 1.12659 0
M  V30 7792 C 780.575 -2.01328 -0.0832613 0
M  V30 7793 O 779.631 -2.40669 -0.763856 0
M  V30 7794 C 780.944 -1.79366 2.41347 0
M  V30 7795 C 782.492 -1.91937 2.47243 0
M  V30 7796 C 782.967 -2.6167 3.75889 0
M  V30 7797 N 784.458 -2.69184 3.76954 0
M  V30 7798 C 785.193 -3.23827 4.73206 0
M  V30 7799 N 784.689 -3.79166 5.79832 0
M  V30 7800 N 786.482 -3.22068 4.60683 0
M  V30 7801 H 778.633 -0.252432 2.10895 0
M  V30 7802 H 780.896 -0.174501 0.931801 0
M  V30 7803 H 780.602 -1.2196 3.29877 0
M  V30 7804 H 780.476 -2.79396 2.53412 0
M  V30 7805 H 782.863 -2.48498 1.59163 0
M  V30 7806 H 782.944 -0.908604 2.39119 0
M  V30 7807 H 782.588 -2.05769 4.64351 0
M  V30 7808 H 782.518 -3.63217 3.81289 0
M  V30 7809 H 785.009 -2.2994 2.99893 0
M  V30 7810 H 785.322 -4.19061 6.49313 0
M  V30 7811 H 783.667 -3.77457 5.83568 0
M  V30 7812 H 786.858 -2.78092 3.7654 0
M  V30 7813 H 787.031 -3.64351 5.35866 0
M  V30 7814 N 780.437 -1.16799 -1.0581 0
M  V30 7815 C 781.4 -0.881396 -2.11575 0
M  V30 7816 C 782.4 0.12574 -1.60308 0
M  V30 7817 O 783.59 -0.105716 -1.73879 0
M  V30 7818 C 780.722 -0.319037 -3.39404 0
M  V30 7819 H 781.915 -1.81907 -2.38432 0
M  V30 7820 H 779.468 -0.977597 -1.21954 0
M  V30 7821 H 780.203 0.626082 -3.18199 0
M  V30 7822 H 779.988 -1.04481 -3.77923 0
M  V30 7823 H 781.478 -0.13663 -4.17376 0
M  V30 7824 N 781.915 1.24427 -0.967243 0
M  V30 7825 C 783.161 1.92772 -0.629812 0
M  V30 7826 C 783.494 1.75436 0.832827 0
M  V30 7827 O 782.769 1.10716 1.59913 0
M  V30 7828 C 783.052 3.45798 -1.00477 0
M  V30 7829 C 782.905 3.72304 -2.52407 0
M  V30 7830 C 784.224 4.36787 -0.538999 0
M  V30 7831 H 781.343 0.700099 -0.230282 0
M  V30 7832 H 783.985 1.46805 -1.20616 0
M  V30 7833 H 782.135 3.8508 -0.514336 0
M  V30 7834 H 783.807 3.42584 -3.08924 0
M  V30 7835 H 782.05 3.17472 -2.95625 0
M  V30 7836 H 782.721 4.7937 -2.73693 0
M  V30 7837 H 785.197 4.04877 -0.959874 0
M  V30 7838 H 784.073 5.4259 -0.829926 0
M  V30 7839 H 784.334 4.38527 0.560923 0
M  V30 7840 N 783.393 0.737304 1.3929 0
M  V30 7841 C 784.642 0.283129 1.99703 0
M  V30 7842 C 784.955 -1.13677 1.59176 0
M  V30 7843 O 786.161 -1.69058 2.12442 0
M  V30 7844 C 784.617 0.455262 3.57009 0
M  V30 7845 C 784.225 1.88319 4.06497 0
M  V30 7846 C 785.969 0.0629786 4.24453 0
M  V30 7847 C 783.876 2.00475 5.56385 0
M  V30 7848 H 782.806 0.102106 0.747054 0
M  V30 7849 H 785.457 0.911515 1.5926 0
M  V30 7850 H 783.839 -0.242057 3.9526 0
M  V30 7851 H 785.013 2.61265 3.79575 0
M  V30 7852 H 783.328 2.2289 3.51723 0
M  V30 7853 H 785.925 0.132787 5.34535 0
M  V30 7854 H 786.268 -0.982128 4.04549 0
M  V30 7855 H 786.801 0.71154 3.91385 0
M  V30 7856 H 783.54 3.03182 5.81172 0
M  V30 7857 H 783.06 1.31969 5.85102 0
M  V30 7858 H 784.739 1.787 6.21832 0
M  V30 7859 N 784.871 -1.49948 0.485112 0
M  V30 7860 C 786.148 -1.95186 -0.12726 0
M  V30 7861 C 786.528 -1.42605 -1.5565 0
M  V30 7862 O 785.876 -0.632986 -2.19558 0
M  V30 7863 C 786.086 -3.48955 -0.0562117 0
M  V30 7864 C 787.434 -4.23932 -0.238106 0
M  V30 7865 O 788.458 -3.55955 -0.132145 0
M  V30 7866 O 787.317 -5.44614 -0.453658 0
M  V30 7867 H 784.411 -0.820433 -0.104014 0
M  V30 7868 H 786.957 -1.60659 0.546517 0
M  V30 7869 H 785.729 -3.79814 0.941122 0
M  V30 7870 H 785.352 -3.90056 -0.770834 0
M  V30 7871 N 786.349 -0.21828 -1.56081 0
M  V30 7872 C 787.589 0.416193 -2.00118 0
M  V30 7873 C 787.953 1.5718 -1.10265 0
M  V30 7874 O 789.154 2.27206 -1.43635 0
M  V30 7875 C 787.425 0.842781 -3.47321 0
M  V30 7876 S 788.984 1.47182 -4.1338 0
M  V30 7877 H 785.802 0.132219 -0.698598 0
M  V30 7878 H 788.404 -0.326799 -1.92749 0
M  V30 7879 H 787.108 -0.00799925 -4.10399 0
M  V30 7880 H 786.639 1.61867 -3.58556 0
M  V30 7881 H 788.654 2.76087 -4.12299 0
M  V30 7882 N 787.827 1.57504 0.0551401 0
M  V30 7883 C 788.79 2.03826 1.04821 0
M  V30 7884 C 789.79 0.937968 1.30609 0
M  V30 7885 O 790.98 1.20237 1.2605 0
M  V30 7886 C 788.112 2.43309 2.38775 0
M  V30 7887 H 789.305 2.92802 0.6486 0
M  V30 7888 H 786.858 1.53368 0.301315 0
M  V30 7889 H 787.593 1.5741 2.83536 0
M  V30 7890 H 787.378 3.23615 2.21395 0
M  V30 7891 H 788.868 2.79666 3.10124 0
M  V30 7892 N 789.305 -0.326896 1.54172 0
M  V30 7893 C 790.553 -1.06313 1.71878 0
M  V30 7894 C 790.874 -1.88652 0.493498 0
M  V30 7895 O 790.144 -1.89608 -0.492522 0
M  V30 7896 H 788.724 -0.39549 0.633716 0
M  V30 7897 H 791.386 -0.364139 1.91468 0
M  V30 7898 H 790.482 -1.73105 2.59694 0
M  V30 7899 N 790.784 -1.46188 -0.588786 0
M  V30 7900 C 792.033 -1.50452 -1.34339 0
M  V30 7901 C 792.346 -0.158096 -1.9496 0
M  V30 7902 O 793.552 -0.0784918 -2.71387 0
M  V30 7903 C 792.008 -2.65074 -2.43441 0
M  V30 7904 C 791.616 -4.06111 -1.8915 0
M  V30 7905 C 793.36 -2.78603 -3.20282 0
M  V30 7906 C 791.267 -5.12084 -2.95845 0
M  V30 7907 H 790.197 -0.559905 -0.504997 0
M  V30 7908 H 792.848 -1.72382 -0.629014 0
M  V30 7909 H 791.23 -2.36462 -3.1765 0
M  V30 7910 H 792.404 -4.44487 -1.21524 0
M  V30 7911 H 790.719 -3.97197 -1.24995 0
M  V30 7912 H 793.316 -3.54944 -3.99898 0
M  V30 7913 H 793.659 -1.85902 -3.72486 0
M  V30 7914 H 794.192 -3.06832 -2.53178 0
M  V30 7915 H 790.931 -6.06556 -2.48535 0
M  V30 7916 H 790.451 -4.78259 -3.61979 0
M  V30 7917 H 792.13 -5.37661 -3.59902 0
M  V30 7918 N 792.262 0.832906 -1.33792 0
M  V30 7919 C 793.192 1.95828 -1.27176 0
M  V30 7920 C 794.173 1.69427 -0.15114 0
M  V30 7921 O 795.358 1.91167 -0.341886 0
M  V30 7922 C 792.488 3.32098 -1.01629 0
M  V30 7923 C 791.442 3.72912 -2.10049 0
M  V30 7924 C 790.768 5.07054 -1.69706 0
M  V30 7925 C 792.068 3.86064 -3.51783 0
M  V30 7926 H 793.762 2.01622 -2.21334 0
M  V30 7927 H 791.308 0.96866 -1.0655 0
M  V30 7928 H 793.261 4.10402 -0.956474 0
M  V30 7929 H 791.985 3.26577 -0.0390956 0
M  V30 7930 H 790.644 2.96876 -2.15082 0
M  V30 7931 H 790.292 4.9801 -0.706737 0
M  V30 7932 H 789.992 5.35333 -2.42264 0
M  V30 7933 H 791.516 5.87827 -1.65202 0
M  V30 7934 H 792.93 4.54665 -3.49218 0
M  V30 7935 H 791.327 4.25787 -4.22878 0
M  V30 7936 H 792.397 2.88344 -3.89854 0
M  V30 7937 N 793.74 1.17359 1.05189 0
M  V30 7938 C 794.687 0.890325 2.12936 0
M  V30 7939 C 795.657 -0.165779 1.65271 0
M  V30 7940 O 796.842 -0.0285672 1.90779 0
M  V30 7941 C 793.982 0.409793 3.42658 0
M  V30 7942 C 793.095 1.53002 4.03998 0
M  V30 7943 C 792.23 1.00336 5.21638 0
M  V30 7944 C 791.269 2.09903 5.74984 0
M  V30 7945 N 790.406 1.58714 6.83926 0
M  V30 7946 H 795.246 1.81299 2.36505 0
M  V30 7947 H 792.783 0.904249 1.16025 0
M  V30 7948 H 794.741 0.112743 4.17048 0
M  V30 7949 H 793.371 -0.475915 3.19272 0
M  V30 7950 H 792.423 1.9428 3.27047 0
M  V30 7951 H 793.735 2.3564 4.39631 0
M  V30 7952 H 792.889 0.660158 6.03098 0
M  V30 7953 H 791.628 0.14642 4.8748 0
M  V30 7954 H 790.633 2.45081 4.92154 0
M  V30 7955 H 791.858 2.96013 6.1119 0
M  V30 7956 H 789.804 0.752915 6.51665 0
M  V30 7957 H 789.721 2.34959 7.18561 0
M  V30 7958 H 790.989 1.27287 7.69037 0
M  V30 7959 N 795.218 -1.23913 0.973828 0
M  V30 7960 C 796.148 -2.27453 0.527969 0
M  V30 7961 C 797.129 -1.6443 -0.435513 0
M  V30 7962 O 798.314 -1.9137 -0.330306 0
M  V30 7963 C 795.444 -3.4685 -0.176757 0
M  V30 7964 C 794.398 -4.22181 0.703352 0
M  V30 7965 C 793.724 -5.34534 -0.133215 0
M  V30 7966 C 795.024 -4.82865 1.99096 0
M  V30 7967 H 796.718 -2.65 1.3934 0
M  V30 7968 H 794.264 -1.27388 0.671446 0
M  V30 7969 H 796.217 -4.18424 -0.499934 0
M  V30 7970 H 794.941 -3.08346 -1.07659 0
M  V30 7971 H 793.6 -3.52416 1.00989 0
M  V30 7972 H 793.248 -4.92271 -1.03338 0
M  V30 7973 H 792.948 -5.85855 0.452494 0
M  V30 7974 H 794.472 -6.08933 -0.450924 0
M  V30 7975 H 795.886 -5.46481 1.73297 0
M  V30 7976 H 794.283 -5.44444 2.52389 0
M  V30 7977 H 795.353 -4.03977 2.68199 0
M  V30 7978 N 796.696 -0.74468 -1.38897 0
M  V30 7979 C 798.112 -0.421302 -1.53939 0
M  V30 7980 C 798.312 1.06668 -1.70951 0
M  V30 7981 O 797.368 1.85278 -1.71547 0
M  V30 7982 C 798.681 -1.21278 -2.75159 0
M  V30 7983 C 800.229 -1.20196 -2.89001 0
M  V30 7984 C 800.704 -1.97621 -4.13171 0
M  V30 7985 N 802.195 -1.94836 -4.2023 0
M  V30 7986 C 802.93 -2.51545 -5.15279 0
M  V30 7987 N 802.426 -3.1693 -6.16058 0
M  V30 7988 N 804.219 -2.41524 -5.07565 0
M  V30 7989 H 796.37 -1.70914 -1.26103 0
M  V30 7990 H 798.633 -0.724058 -0.611919 0
M  V30 7991 H 798.339 -2.26609 -2.68963 0
M  V30 7992 H 798.213 -0.823677 -3.68097 0
M  V30 7993 H 800.6 -0.156742 -2.94683 0
M  V30 7994 H 800.681 -1.63051 -1.97099 0
M  V30 7995 H 800.325 -3.02149 -4.0825 0
M  V30 7996 H 800.255 -1.52166 -5.04136 0
M  V30 7997 H 802.746 -1.4721 -3.48048 0
M  V30 7998 H 803.059 -3.57644 -6.85062 0
M  V30 7999 H 801.404 -3.21023 -6.16417 0
M  V30 8000 H 804.595 -1.90077 -4.27771 0
M  V30 8001 H 804.768 -2.86016 -5.81462 0
M  V30 8002 N 798.174 1.49689 -0.493057 0
M  V30 8003 C 799.122 2.30613 0.303383 0
M  V30 8004 C 800.116 1.38867 0.970165 0
M  V30 8005 O 801.322 1.55956 0.898761 0
M  V30 8006 H 797.697 0.742891 0.116691 0
M  V30 8007 H 799.668 2.95717 -0.39924 0
M  V30 8008 C 798.417 3.20008 1.35978 0
M  V30 8009 H 797.74 3.90526 0.856103 0
M  V30 8010 H 799.18 3.79586 1.88919 0
M  V30 8011 C 797.639 2.39079 2.37367 0
M  V30 8012 O 798.169 2.08933 3.43089 0
M  V30 8013 N 796.375 2.0125 2.09635 0
M  V30 8014 H 795.922 2.25966 1.23682 0
M  V30 8015 H 795.88 1.47408 2.77702 0
M  V30 8016 N 799.652 0.226554 1.55963 0
M  V30 8017 C 800.877 -0.411527 2.03276 0
M  V30 8018 C 801.302 -1.52206 1.10521 0
M  V30 8019 O 800.66 -1.81054 0.0943217 0
M  V30 8020 C 800.708 -0.915694 3.4878 0
M  V30 8021 O 799.812 -2.02672 3.59163 0
M  V30 8022 H 799.153 -0.0924907 0.657527 0
M  V30 8023 H 801.683 0.346656 2.01642 0
M  V30 8024 H 801.693 -1.22421 3.892 0
M  V30 8025 H 800.368 -0.102915 4.15773 0
M  V30 8026 H 798.945 -1.72445 3.30632 0
M  V30 8027 N 801.13 -1.57531 -0.0467866 0
M  V30 8028 C 802.407 -1.79568 -0.775536 0
M  V30 8029 C 802.787 -0.820322 -1.94509 0
M  V30 8030 O 802.135 0.14134 -2.28062 0
M  V30 8031 C 802.345 -3.26789 -1.22516 0
M  V30 8032 C 803.693 -3.91299 -1.64835 0
M  V30 8033 O 804.717 -3.30831 -1.3202 0
M  V30 8034 O 803.576 -4.97727 -2.25677 0
M  V30 8035 H 800.67 -0.737817 -0.373572 0
M  V30 8036 H 803.216 -1.69682 -0.0249302 0
M  V30 8037 H 801.988 -3.89357 -0.389446 0
M  V30 8038 H 801.611 -3.41496 -2.03633 0
M  V30 8039 N 802.608 0.318715 -1.54344 0
M  V30 8040 C 803.857 1.05363 -1.71993 0
M  V30 8041 C 804.17 1.89018 -0.503155 0
M  V30 8042 O 805.376 2.65639 -0.561085 0
M  V30 8043 C 803.832 1.92281 -3.0423 0
M  V30 8044 C 803.44 1.13715 -4.33328 0
M  V30 8045 C 805.184 2.65479 -3.31242 0
M  V30 8046 C 803.091 1.99806 -5.56625 0
M  V30 8047 H 802.021 0.397081 -0.64097 0
M  V30 8048 H 804.672 0.311598 -1.80835 0
M  V30 8049 H 803.054 2.70402 -2.89307 0
M  V30 8050 H 804.228 0.403305 -4.59032 0
M  V30 8051 H 802.543 0.521769 -4.13118 0
M  V30 8052 H 805.14 3.30209 -4.20555 0
M  V30 8053 H 805.483 3.33374 -2.49334 0
M  V30 8054 H 806.016 1.94417 -3.47054 0
M  V30 8055 H 802.755 1.36411 -6.41149 0
M  V30 8056 H 802.275 2.70911 -5.35133 0
M  V30 8057 H 803.954 2.58277 -5.93213 0
M  V30 8058 N 804.086 1.46499 0.581025 0
M  V30 8059 C 804.996 1.59778 1.71779 0
M  V30 8060 C 806.012 0.481223 1.67213 0
M  V30 8061 O 807.188 0.74557 1.87091 0
M  V30 8062 C 804.253 1.58626 3.08283 0
M  V30 8063 C 803.314 2.81527 3.241 0
M  V30 8064 C 802.547 2.80421 4.54092 0
M  V30 8065 O 802.77 1.89262 5.38085 0
M  V30 8066 O 801.704 3.71984 4.73193 0
M  V30 8067 H 805.53 2.55918 1.63523 0
M  V30 8068 H 803.115 1.29311 0.748267 0
M  V30 8069 H 804.997 1.60686 3.89561 0
M  V30 8070 H 803.672 0.656467 3.16973 0
M  V30 8071 H 802.579 2.85021 2.42309 0
M  V30 8072 H 803.912 3.73721 3.20302 0
M  V30 8073 N 805.565 -0.825799 1.34232 0
M  V30 8074 C 806.495 -1.95151 1.28212 0
M  V30 8075 C 807.476 -1.69345 0.160123 0
M  V30 8076 O 808.661 -1.90983 0.352019 0
M  V30 8077 C 805.791 -3.31554 1.03388 0
M  V30 8078 C 804.745 -3.71793 2.12023 0
M  V30 8079 C 804.071 -5.06147 1.72392 0
M  V30 8080 C 805.371 -3.84193 3.53826 0
M  V30 8081 H 807.065 -2.00445 2.22401 0
M  V30 8082 H 804.611 -0.962996 1.07063 0
M  V30 8083 H 806.564 -4.09889 0.978225 0
M  V30 8084 H 805.288 -3.26551 0.0564142 0
M  V30 8085 H 803.947 -2.95731 2.16654 0
M  V30 8086 H 803.595 -4.97628 0.733137 0
M  V30 8087 H 803.295 -5.34041 2.451 0
M  V30 8088 H 804.819 -5.86943 1.68317 0
M  V30 8089 H 806.233 -4.52806 3.51624 0
M  V30 8090 H 804.63 -4.23538 4.2513 0
M  V30 8091 H 805.7 -2.86272 3.91377 0
M  V30 8092 N 807.043 -1.17915 -1.04565 0
M  V30 8093 C 808.459 -0.927761 -1.29864 0
M  V30 8094 C 808.659 0.409536 -1.97294 0
M  V30 8095 O 807.715 1.14505 -2.25044 0
M  V30 8096 C 809.028 -2.08967 -2.16225 0
M  V30 8097 C 810.576 -2.12741 -2.29587 0
M  V30 8098 C 811.051 -3.28335 -3.19312 0
M  V30 8099 N 812.542 -3.28164 -3.26898 0
M  V30 8100 C 813.277 -4.14249 -3.96466 0
M  V30 8101 N 812.773 -5.10457 -4.68407 0
M  V30 8102 N 814.566 -4.02179 -3.92694 0
M  V30 8103 H 806.717 -2.03983 -0.592011 0
M  V30 8104 H 808.98 -0.891023 -0.323701 0
M  V30 8105 H 808.686 -3.05654 -1.73979 0
M  V30 8106 H 808.56 -2.04606 -3.16885 0
M  V30 8107 H 810.947 -1.16636 -2.71072 0
M  V30 8108 H 811.028 -2.21162 -1.28535 0
M  V30 8109 H 810.672 -4.2471 -2.78539 0
M  V30 8110 H 810.602 -3.17151 -4.20384 0
M  V30 8111 H 813.093 -2.58511 -2.75646 0
M  V30 8112 H 813.406 -5.72526 -5.1907 0
M  V30 8113 H 811.751 -5.14422 -4.67328 0
M  V30 8114 H 814.942 -3.26308 -3.3562 0
M  V30 8115 H 815.115 -4.69486 -4.4664 0
M  V30 8116 N 808.521 1.23394 -0.980386 0
M  V30 8117 C 809.468 2.24859 -0.520298 0
M  V30 8118 C 810.438 1.60144 0.440821 0
M  V30 8119 O 811.623 1.87593 0.348369 0
M  V30 8120 C 808.763 3.44675 0.171145 0
M  V30 8121 C 807.876 4.23947 -0.830233 0
M  V30 8122 C 807.011 5.31079 -0.113597 0
M  V30 8123 C 806.05 6.02058 -1.10419 0
M  V30 8124 N 805.187 7.00862 -0.416709 0
M  V30 8125 H 810.027 2.63579 -1.39032 0
M  V30 8126 H 807.564 1.29556 -0.696682 0
M  V30 8127 H 809.522 4.13024 0.588838 0
M  V30 8128 H 808.152 3.06755 1.00504 0
M  V30 8129 H 807.204 3.55016 -1.36631 0
M  V30 8130 H 808.516 4.72945 -1.58508 0
M  V30 8131 H 807.67 6.05622 0.36146 0
M  V30 8132 H 806.409 4.83022 0.673854 0
M  V30 8133 H 805.414 5.26307 -1.59 0
M  V30 8134 H 806.639 6.52203 -1.8923 0
M  V30 8135 H 804.585 6.55057 0.351535 0
M  V30 8136 H 804.502 7.47804 -1.11021 0
M  V30 8137 H 805.77 7.79492 0.0359606 0
M  V30 8138 N 809.999 0.752036 1.385 0
M  V30 8139 C 811.247 0.306895 1.99756 0
M  V30 8140 C 811.568 -1.11478 1.59992 0
M  V30 8141 O 810.838 -1.76206 0.856045 0
M  V30 8142 H 809.418 0.11048 0.738785 0
M  V30 8143 H 812.08 0.965785 1.69289 0
M  V30 8144 H 811.176 0.368797 3.09913 0
M  V30 8145 N 811.477 -1.49425 0.500989 0
M  V30 8146 C 812.387 -2.32899 -0.282011 0
M  V30 8147 C 813.403 -1.44632 -0.967346 0
M  V30 8148 O 814.579 -1.77654 -0.94873 0
M  V30 8149 C 811.644 -3.20069 -1.33253 0
M  V30 8150 C 810.705 -4.24186 -0.660636 0
M  V30 8151 C 809.938 -5.07191 -1.6611 0
M  V30 8152 O 810.161 -4.91712 -2.89094 0
M  V30 8153 O 809.095 -5.8948 -1.21643 0
M  V30 8154 H 812.921 -3.01038 0.401224 0
M  V30 8155 H 810.506 -1.47079 0.262323 0
M  V30 8156 H 812.388 -3.74071 -1.94033 0
M  V30 8157 H 811.063 -2.54625 -1.9987 0
M  V30 8158 H 809.97 -3.74098 -0.0130959 0
M  V30 8159 H 811.303 -4.92186 -0.0369179 0
M  V30 8160 N 812.955 -0.234822 -1.55841 0
M  V30 8161 C 814.183 0.397745 -2.03041 0
M  V30 8162 C 814.598 1.52405 -1.11437 0
M  V30 8163 O 813.955 1.82061 -0.126466 0
M  V30 8164 C 814.006 0.916919 -3.49678 0
M  V30 8165 O 813.727 -0.164493 -4.37791 0
M  V30 8166 C 815.228 1.62139 -4.12584 0
M  V30 8167 H 812.448 0.0959214 -0.664108 0
M  V30 8168 H 814.992 -0.355156 -2.01392 0
M  V30 8169 H 813.147 1.62004 -3.519 0
M  V30 8170 H 813.561 0.227794 -5.24005 0
M  V30 8171 H 815.035 1.93651 -5.16917 0
M  V30 8172 H 815.512 2.53918 -3.58361 0
M  V30 8173 H 816.118 0.963145 -4.14251 0
M  V30 8174 N 814.433 1.57553 0.0384317 0
M  V30 8175 C 815.71 1.79977 0.766002 0
M  V30 8176 C 816.09 0.830625 1.94072 0
M  V30 8177 O 815.438 -0.129243 2.28134 0
M  V30 8178 C 815.648 3.27434 1.20781 0
M  V30 8179 C 816.996 3.92167 1.62758 0
M  V30 8180 O 818.02 3.31527 1.30263 0
M  V30 8181 O 816.879 4.98917 2.23035 0
M  V30 8182 H 813.973 0.739787 0.369654 0
M  V30 8183 H 816.519 1.69693 0.0159312 0
M  V30 8184 H 815.291 3.89558 0.368792 0
M  V30 8185 H 814.914 3.42571 2.01819 0
M  V30 8186 N 815.911 -0.310526 1.54511 0
M  V30 8187 C 817.16 -1.0445 1.72549 0
M  V30 8188 C 817.473 -1.88748 0.513172 0
M  V30 8189 O 818.679 -2.65338 0.575165 0
M  V30 8190 C 817.135 -1.90665 3.05246 0
M  V30 8191 C 816.743 -1.11415 4.33925 0
M  V30 8192 C 818.487 -2.63719 3.32645 0
M  V30 8193 C 816.394 -1.96852 5.57677 0
M  V30 8194 H 815.324 -0.393676 0.643067 0
M  V30 8195 H 817.975 -0.302003 1.80998 0
M  V30 8196 H 816.357 -2.68864 2.90737 0
M  V30 8197 H 817.531 -0.378956 4.59239 0
M  V30 8198 H 815.846 -0.499853 4.13389 0
M  V30 8199 H 818.443 -3.27974 4.223 0
M  V30 8200 H 818.786 -3.32047 2.51098 0
M  V30 8201 H 819.319 -1.92574 3.48081 0
M  V30 8202 H 816.058 -1.33009 6.41864 0
M  V30 8203 H 815.578 -2.68069 5.36562 0
M  V30 8204 H 817.257 -2.55127 5.94575 0
M  V30 8205 N 817.389 -1.46805 -0.573248 0
M  V30 8206 C 818.637 -1.52302 -1.32847 0
M  V30 8207 C 818.958 -0.180159 -1.94166 0
M  V30 8208 O 818.228 0.794291 -1.79075 0
M  V30 8209 H 816.808 -0.56097 -0.493276 0
M  V30 8210 H 819.47 -1.82998 -0.670642 0
M  V30 8211 H 818.566 -2.28089 -2.13031 0
M  V30 8212 N 818.867 0.818669 -1.34668 0
M  V30 8213 C 820.283 1.11243 -1.14443 0
M  V30 8214 C 820.483 2.01435 0.0512212 0
M  V30 8215 O 819.539 2.41854 0.725471 0
M  V30 8216 C 820.852 1.75504 -2.4417 0
M  V30 8217 C 822.4 1.8798 -2.50265 0
M  V30 8218 C 822.875 2.55657 -3.80004 0
M  V30 8219 N 824.366 2.63153 -3.81189 0
M  V30 8220 C 825.101 3.16258 -4.78298 0
M  V30 8221 N 824.597 3.69893 -5.85791 0
M  V30 8222 N 826.39 3.14698 -4.65748 0
M  V30 8223 H 818.541 0.218848 -2.1127 0
M  V30 8224 H 820.804 0.159655 -0.934459 0
M  V30 8225 H 820.51 1.16697 -3.31775 0
M  V30 8226 H 820.384 2.75329 -2.57825 0
M  V30 8227 H 822.771 2.45934 -1.63096 0
M  V30 8228 H 822.852 0.870447 -2.40535 0
M  V30 8229 H 822.496 1.98356 -4.67565 0
M  V30 8230 H 822.426 3.57105 -3.87019 0
M  V30 8231 H 824.917 2.2514 -3.03513 0
M  V30 8232 H 825.23 4.08678 -6.55898 0
M  V30 8233 H 823.575 3.68125 -5.89499 0
M  V30 8234 H 826.766 2.72066 -3.80917 0
M  V30 8235 H 826.939 3.5578 -5.41594 0
M  V30 8236 N 820.346 1.18468 1.03938 0
M  V30 8237 C 821.293 0.912859 2.1198 0
M  V30 8238 C 822.263 -0.14824 1.65437 0
M  V30 8239 O 823.448 -0.008331 1.90798 0
M  V30 8240 C 820.588 0.446114 3.42204 0
M  V30 8241 C 819.701 1.57278 4.02353 0
M  V30 8242 C 818.836 1.05863 5.20544 0
M  V30 8243 C 817.875 2.1599 5.72726 0
M  V30 8244 N 817.012 1.65959 6.82204 0
M  V30 8245 H 821.852 1.83798 2.34569 0
M  V30 8246 H 819.389 0.916504 1.15059 0
M  V30 8247 H 821.347 0.15697 4.16905 0
M  V30 8248 H 819.977 -0.442025 3.19759 0
M  V30 8249 H 819.029 1.97737 3.24968 0
M  V30 8250 H 820.341 2.40289 4.37107 0
M  V30 8251 H 819.495 0.724087 6.02364 0
M  V30 8252 H 818.234 0.198116 4.87297 0
M  V30 8253 H 817.239 2.50287 4.89527 0
M  V30 8254 H 818.464 3.02479 6.08016 0
M  V30 8255 H 816.41 0.82199 6.5083 0
M  V30 8256 H 816.327 2.42567 7.16029 0
M  V30 8257 H 817.595 1.35436 7.67644 0
M  V30 8258 N 821.824 -1.22873 0.986916 0
M  V30 8259 C 822.772 -2.26597 0.525043 0
M  V30 8260 C 823.766 -1.64079 -0.421252 0
M  V30 8261 O 824.972 -1.77576 -0.294429 0
M  V30 8262 H 821.347 -0.736606 0.151381 0
M  V30 8263 H 823.318 -2.62909 1.41142 0
M  V30 8264 C 822.067 -3.47374 -0.150542 0
M  V30 8265 H 821.39 -3.95737 0.568541 0
M  V30 8266 H 822.83 -4.21739 -0.437256 0
M  V30 8267 C 821.289 -3.07163 -1.38392 0
M  V30 8268 O 821.819 -3.16028 -2.47971 0
M  V30 8269 N 820.025 -2.62009 -1.25697 0
M  V30 8270 H 819.572 -2.54996 -0.365355 0
M  V30 8271 H 819.53 -2.35472 -2.08327 0
M  V30 8272 N 823.302 -0.75937 -1.38099 0
M  V30 8273 C 824.53 -0.329111 -2.04266 0
M  V30 8274 C 824.945 1.04453 -1.57274 0
M  V30 8275 O 824.302 1.66449 -0.748397 0
M  V30 8276 C 824.353 -0.349192 -3.5981 0
M  V30 8277 O 824.074 -1.66863 -4.05078 0
M  V30 8278 C 825.575 0.0942106 -4.432 0
M  V30 8279 H 822.795 -0.13971 -0.656294 0
M  V30 8280 H 825.339 -1.02984 -1.76677 0
M  V30 8281 H 823.494 0.302846 -3.86214 0
M  V30 8282 H 823.908 -1.59877 -4.9954 0
M  V30 8283 H 825.382 0.0290004 -5.51992 0
M  V30 8284 H 825.859 1.1429 -4.24069 0
M  V30 8285 H 826.465 -0.529171 -4.21995 0
M  V30 8286 N 824.78 1.49157 -0.508906 0
M  V30 8287 C 826.196 1.58741 -0.165372 0
M  V30 8288 C 826.396 1.5133 1.33047 0
M  V30 8289 O 825.452 1.39135 2.10707 0
M  V30 8290 C 826.765 2.91217 -0.749194 0
M  V30 8291 C 828.313 3.047 -0.716015 0
M  V30 8292 C 828.788 4.39807 -1.27804 0
M  V30 8293 N 830.279 4.46319 -1.23908 0
M  V30 8294 C 831.014 5.49325 -1.64406 0
M  V30 8295 N 830.51 6.59395 -2.12534 0
M  V30 8296 N 832.303 5.40084 -1.55773 0
M  V30 8297 H 824.454 1.52217 -1.48134 0
M  V30 8298 H 826.717 0.721514 -0.614915 0
M  V30 8299 H 826.423 3.02233 -1.79856 0
M  V30 8300 H 826.297 3.76592 -0.214144 0
M  V30 8301 H 828.684 2.9331 0.324535 0
M  V30 8302 H 828.765 2.2099 -1.2883 0
M  V30 8303 H 828.409 4.5195 -2.31741 0
M  V30 8304 H 828.339 5.2217 -0.681623 0
M  V30 8305 H 830.83 3.67354 -0.886537 0
M  V30 8306 H 831.143 7.34102 -2.41485 0
M  V30 8307 H 829.488 6.60414 -2.16513 0
M  V30 8308 H 832.679 4.52986 -1.17987 0
M  V30 8309 H 832.852 6.20233 -1.87657 0
M  V30 8310 N 826.258 0.243083 1.55714 0
M  V30 8311 C 827.504 -0.383287 1.99145 0
M  V30 8312 C 827.837 -1.57868 1.13098 0
M  V30 8313 O 827.112 -1.93535 0.193509 0
M  V30 8314 C 827.395 -0.796879 3.51172 0
M  V30 8315 C 827.248 0.403642 4.47985 0
M  V30 8316 C 828.567 -1.64525 4.08191 0
M  V30 8317 H 825.686 -0.137843 0.723995 0
M  V30 8318 H 828.328 0.343631 1.86867 0
M  V30 8319 H 826.478 -1.41625 3.61766 0
M  V30 8320 H 828.15 1.04204 4.49376 0
M  V30 8321 H 826.393 1.04741 4.20965 0
M  V30 8322 H 827.064 0.0709794 5.51954 0
M  V30 8323 H 829.54 -1.12246 4.00674 0
M  V30 8324 H 828.416 -1.9035 5.14838 0
M  V30 8325 H 828.677 -2.61582 3.56409 0
M  V30 8326 N 827.736 -1.57571 -0.0300757 0
M  V30 8327 C 829.152 -1.54869 -0.385703 0
M  V30 8328 C 829.352 -0.969068 -1.76667 0
M  V30 8329 O 828.408 -0.589676 -2.45518 0
M  V30 8330 C 829.721 -2.99313 -0.288482 0
M  V30 8331 C 831.269 -3.10857 -0.365638 0
M  V30 8332 C 831.744 -4.5703 -0.297878 0
M  V30 8333 N 833.235 -4.61825 -0.356703 0
M  V30 8334 C 833.97 -5.72466 -0.327146 0
M  V30 8335 N 833.466 -6.92349 -0.249941 0
M  V30 8336 N 835.259 -5.60836 -0.376801 0
M  V30 8337 H 827.41 -1.936 0.87367 0
M  V30 8338 H 829.673 -0.887924 0.332106 0
M  V30 8339 H 829.379 -3.45443 0.66047 0
M  V30 8340 H 829.253 -3.61332 -1.08253 0
M  V30 8341 H 831.64 -2.64676 -1.30502 0
M  V30 8342 H 831.721 -2.51671 0.457744 0
M  V30 8343 H 831.365 -5.03879 0.637835 0
M  V30 8344 H 831.295 -5.14127 -1.13935 0
M  V30 8345 H 833.786 -3.75571 -0.418926 0
M  V30 8346 H 834.099 -7.7245 -0.23246 0
M  V30 8347 H 832.444 -6.94664 -0.216004 0
M  V30 8348 H 835.635 -4.66073 -0.435101 0
M  V30 8349 H 835.808 -6.47052 -0.350298 0
M  V30 8350 N 829.214 0.302327 -1.54673 0
M  V30 8351 C 830.144 1.37759 -1.88533 0
M  V30 8352 C 831.125 1.52961 -0.744113 0
M  V30 8353 O 832.31 1.6649 -0.999731 0
M  V30 8354 C 829.44 2.74201 -2.13146 0
M  V30 8355 C 828.394 2.73765 -3.28993 0
M  V30 8356 C 827.72 4.13483 -3.39022 0
M  V30 8357 C 829.02 2.35624 -4.66132 0
M  V30 8358 H 830.714 1.0967 -2.78591 0
M  V30 8359 H 828.26 0.52613 -1.34044 0
M  V30 8360 H 830.213 3.49508 -2.35419 0
M  V30 8361 H 828.937 3.03812 -1.19858 0
M  V30 8362 H 827.596 2.00914 -3.06642 0
M  V30 8363 H 827.244 4.40269 -2.43253 0
M  V30 8364 H 826.944 4.14093 -4.16894 0
M  V30 8365 H 828.468 4.90572 -3.63553 0
M  V30 8366 H 829.882 3.00647 -4.88143 0
M  V30 8367 H 828.279 2.47449 -5.46707 0
M  V30 8368 H 829.349 1.30753 -4.66939 0
M  V30 8369 N 830.692 1.47107 0.565454 0
M  V30 8370 C 831.938 1.53535 1.32495 0
M  V30 8371 C 832.271 0.193537 1.93233 0
M  V30 8372 O 831.546 -0.796956 1.77423 0
M  V30 8373 C 831.829 2.64712 2.4413 0
M  V30 8374 C 831.682 4.08482 1.88314 0
M  V30 8375 C 833.001 2.71853 3.46098 0
M  V30 8376 H 830.12 0.558926 0.480386 0
M  V30 8377 H 832.762 1.79125 0.633575 0
M  V30 8378 H 830.912 2.43023 3.03104 0
M  V30 8379 H 832.584 4.4151 1.33665 0
M  V30 8380 H 830.827 4.17148 1.19037 0
M  V30 8381 H 831.498 4.82032 2.68978 0
M  V30 8382 H 833.974 2.91397 2.97031 0
M  V30 8383 H 832.85 3.51433 4.21646 0
M  V30 8384 H 833.111 1.78584 4.04426 0
M  V30 8385 N 832.17 -0.811516 1.35101 0
M  V30 8386 C 833.417 -1.56835 1.28098 0
M  V30 8387 C 833.745 -1.93951 -0.14597 0
M  V30 8388 O 833 -1.61173 -1.11004 0
M  V30 8389 C 833.299 -2.87121 2.1283 0
M  V30 8390 C 832.965 -2.69245 3.61688 0
M  V30 8391 C 831.627 -2.64078 4.02264 0
M  V30 8392 C 833.979 -2.52122 4.56162 0
M  V30 8393 C 831.307 -2.39724 5.3549 0
M  V30 8394 C 833.659 -2.29298 5.89581 0
M  V30 8395 C 832.323 -2.2255 6.29307 0
M  V30 8396 H 831.593 -0.5739 0.468742 0
M  V30 8397 H 834.24 -0.93806 1.66951 0
M  V30 8398 H 832.545 -3.54502 1.66841 0
M  V30 8399 H 834.242 -3.44788 2.0475 0
M  V30 8400 H 830.832 -2.74112 3.29485 0
M  V30 8401 H 835.016 -2.5513 4.25702 0
M  V30 8402 H 830.272 -2.32965 5.65276 0
M  V30 8403 H 834.446 -2.15038 6.62368 0
M  V30 8404 H 832.073 -2.0344 7.32473 0
M  V30 8405 N 833.648 -1.19017 -1.03309 0
M  V30 8406 C 835.064 -0.941483 -1.28873 0
M  V30 8407 C 835.264 0.388587 -1.97718 0
M  V30 8408 O 834.32 1.12111 -2.26246 0
M  V30 8409 C 835.633 -2.11249 -2.13996 0
M  V30 8410 C 837.181 -2.15164 -2.27318 0
M  V30 8411 C 837.656 -3.31704 -3.15811 0
M  V30 8412 N 839.147 -3.31613 -3.23399 0
M  V30 8413 C 839.882 -4.18431 -3.9205 0
M  V30 8414 N 839.378 -5.15397 -4.62966 0
M  V30 8415 N 841.171 -4.06321 -3.88406 0
M  V30 8416 H 833.322 -2.04599 -0.570343 0
M  V30 8417 H 835.585 -0.894406 -0.314232 0
M  V30 8418 H 835.291 -3.07482 -1.70727 0
M  V30 8419 H 835.165 -2.07955 -3.14697 0
M  V30 8420 H 837.552 -1.19504 -2.6982 0
M  V30 8421 H 837.633 -2.22513 -1.26182 0
M  V30 8422 H 837.277 -4.2764 -2.74019 0
M  V30 8423 H 837.207 -3.21592 -4.16997 0
M  V30 8424 H 839.698 -2.6142 -2.72888 0
M  V30 8425 H 840.011 -5.78 -5.12968 0
M  V30 8426 H 838.356 -5.19349 -4.61846 0
M  V30 8427 H 841.547 -3.29849 -3.3214 0
M  V30 8428 H 841.72 -4.74196 -4.41635 0
M  V30 8429 N 835.127 1.22348 -0.993418 0
M  V30 8430 C 836.373 1.91393 -0.67056 0
M  V30 8431 C 836.706 1.77163 0.795428 0
M  V30 8432 O 835.981 1.14084 1.57528 0
M  V30 8433 C 836.264 3.43589 -1.0779 0
M  V30 8434 C 836.117 3.66867 -2.60248 0
M  V30 8435 C 837.436 4.35545 -0.631527 0
M  V30 8436 H 834.555 0.695057 -0.24508 0
M  V30 8437 H 837.197 1.44213 -1.23703 0
M  V30 8438 H 835.347 3.83903 -0.595902 0
M  V30 8439 H 837.019 3.35954 -3.16121 0
M  V30 8440 H 835.262 3.1113 -3.02293 0
M  V30 8441 H 835.933 4.73457 -2.838 0
M  V30 8442 H 838.409 4.0275 -1.04554 0
M  V30 8443 H 837.285 5.40707 -0.944831 0
M  V30 8444 H 837.546 4.39618 0.467779 0
M  V30 8445 N 836.605 0.766683 1.37694 0
M  V30 8446 C 837.555 0.123173 2.27667 0
M  V30 8447 C 838.539 -0.679436 1.45851 0
M  V30 8448 O 839.731 -0.54324 1.68457 0
M  V30 8449 C 836.86 -0.759064 3.34803 0
M  V30 8450 C 835.946 0.0511009 4.24069 0
M  V30 8451 N 836.337 1.09418 4.93823 0
M  V30 8452 C 834.635 -0.173675 4.45662 0
M  V30 8453 C 835.336 1.58546 5.59677 0
M  V30 8454 N 834.312 0.898503 5.36123 0
M  V30 8455 H 838.114 0.921859 2.79068 0
M  V30 8456 H 835.628 0.603957 1.50752 0
M  V30 8457 H 837.625 -1.23581 3.98163 0
M  V30 8458 H 836.285 -1.55655 2.84959 0
M  V30 8459 H 837.296 1.47623 4.96415 0
M  V30 8460 H 833.973 -0.943473 4.067 0
M  V30 8461 H 835.363 2.45504 6.25442 0
M  V30 8462 N 838.083 -1.48885 0.516809 0
M  V30 8463 C 839.329 -2.02788 -0.0220928 0
M  V30 8464 C 839.662 -1.39433 -1.35175 0
M  V30 8465 O 838.937 -0.535459 -1.86984 0
M  V30 8466 C 839.22 -3.59753 -0.158012 0
M  V30 8467 C 839.073 -4.33611 1.19588 0
M  V30 8468 C 840.392 -4.30984 -0.891133 0
M  V30 8469 H 837.511 -0.736971 -0.00655488 0
M  V30 8470 H 840.153 -1.77746 0.671287 0
M  V30 8471 H 838.303 -3.8122 -0.748568 0
M  V30 8472 H 839.975 -4.23598 1.82653 0
M  V30 8473 H 838.218 -3.95547 1.78116 0
M  V30 8474 H 838.889 -5.41846 1.05391 0
M  V30 8475 H 841.365 -4.14267 -0.39012 0
M  V30 8476 H 840.241 -5.40527 -0.955107 0
M  V30 8477 H 840.502 -3.97336 -1.93847 0
M  V30 8478 N 839.561 -0.251338 -1.55583 0
M  V30 8479 C 840.972 0.25098 -1.85005 0
M  V30 8480 C 841.323 1.57259 -1.17321 0
M  V30 8481 O 840.448 2.11603 -0.453136 0
M  V30 8482 C 841.043 0.462161 -3.35633 0
M  V30 8483 C 839.602 0.908737 -3.65266 0
M  V30 8484 C 838.749 -0.0115418 -2.77298 0
M  V30 8485 H 841.7 -0.473782 -1.51463 0
M  V30 8486 H 841.721 1.30415 -3.57452 0
M  V30 8487 H 841.233 -0.499886 -3.84867 0
M  V30 8488 H 839.334 1.8831 -3.21512 0
M  V30 8489 H 839.447 0.762526 -4.72993 0
M  V30 8490 H 837.811 0.500612 -2.49732 0
M  V30 8491 H 838.594 -0.969042 -3.29339 0
M  V30 8492 N 841.039 1.57585 0.0217189 0
M  V30 8493 C 841.971 2.03849 1.04777 0
M  V30 8494 C 842.984 0.952558 1.32023 0
M  V30 8495 O 844.173 1.22974 1.29381 0
M  V30 8496 C 841.273 2.40504 2.3877 0
M  V30 8497 C 840.446 3.71566 2.30775 0
M  V30 8498 C 839.505 3.95329 3.47277 0
M  V30 8499 O 838.531 4.66289 3.26441 0
M  V30 8500 N 839.733 3.41536 4.69397 0
M  V30 8501 H 842.498 2.92491 0.653395 0
M  V30 8502 H 840.059 1.60538 0.209527 0
M  V30 8503 H 842.051 2.53532 3.15442 0
M  V30 8504 H 840.621 1.57494 2.70027 0
M  V30 8505 H 839.841 3.68822 1.39155 0
M  V30 8506 H 841.129 4.5753 2.22584 0
M  V30 8507 H 840.527 2.84033 4.89226 0
M  V30 8508 H 839.084 3.59932 5.43408 0
M  V30 8509 N 842.517 -0.29412 1.54831 0
M  V30 8510 C 843.928 -0.866651 1.65366 0
M  V30 8511 C 844.279 -1.87834 0.56681 0
M  V30 8512 O 843.404 -2.14374 -0.295389 0
M  V30 8513 C 843.999 -1.57869 2.99771 0
M  V30 8514 C 842.558 -2.09954 3.12404 0
M  V30 8515 C 841.705 -0.934492 2.6108 0
M  V30 8516 H 844.656 -0.0709551 1.58541 0
M  V30 8517 H 844.677 -2.44462 2.91579 0
M  V30 8518 H 844.189 -0.84212 3.78853 0
M  V30 8519 H 842.29 -2.86637 2.38055 0
M  V30 8520 H 842.403 -2.32934 4.18663 0
M  V30 8521 H 840.767 -1.32199 2.17705 0
M  V30 8522 H 841.55 -0.211768 3.42646 0
M  V30 8523 N 843.995 -1.47404 -0.557645 0
M  V30 8524 C 845.22 -1.57868 -1.34508 0
M  V30 8525 C 845.645 -0.229151 -1.86699 0
M  V30 8526 O 845.003 0.794908 -1.62944 0
M  V30 8527 C 845.051 -2.60712 -2.49122 0
M  V30 8528 O 844.155 -2.15952 -3.51338 0
M  V30 8529 H 843.496 -0.530335 -0.399551 0
M  V30 8530 H 846.026 -1.93181 -0.673954 0
M  V30 8531 H 846.036 -2.81118 -2.95697 0
M  V30 8532 H 844.711 -3.58701 -2.10491 0
M  V30 8533 H 843.288 -2.05644 -3.11071 0
M  V30 8534 N 845.473 0.80434 -1.35529 0
M  V30 8535 C 846.721 1.55845 -1.28673 0
M  V30 8536 C 847.042 1.94511 0.137976 0
M  V30 8537 O 846.312 1.63775 1.07492 0
M  V30 8538 H 844.892 0.577931 -0.473291 0
M  V30 8539 H 847.554 0.959293 -1.69657 0
M  V30 8540 H 846.65 2.47285 -1.90411 0
M  V30 8541 N 846.951 1.19563 1.02676 0
M  V30 8542 C 848.367 0.948304 1.28372 0
M  V30 8543 C 848.567 -0.378096 1.97921 0
M  V30 8544 O 847.623 -1.1091 2.26838 0
M  V30 8545 C 848.936 2.12381 2.12873 0
M  V30 8546 C 850.484 2.16366 2.26174 0
M  V30 8547 C 850.959 3.33374 3.14048 0
M  V30 8548 N 852.45 3.33323 3.21636 0
M  V30 8549 C 853.185 4.20504 3.89825 0
M  V30 8550 N 852.681 5.17845 4.60227 0
M  V30 8551 N 854.474 4.08375 3.86246 0
M  V30 8552 H 846.625 2.04899 0.559485 0
M  V30 8553 H 848.888 0.89606 0.309484 0
M  V30 8554 H 848.594 3.08383 1.69094 0
M  V30 8555 H 848.468 2.09621 3.1359 0
M  V30 8556 H 850.855 1.20933 2.69182 0
M  V30 8557 H 850.936 2.23179 1.25 0
M  V30 8558 H 850.58 4.29087 2.71747 0
M  V30 8559 H 850.51 3.23798 4.15286 0
M  V30 8560 H 853.001 2.62863 2.71498 0
M  V30 8561 H 853.314 5.80712 5.09896 0
M  V30 8562 H 851.659 5.21791 4.59085 0
M  V30 8563 H 854.85 3.31606 3.30386 0
M  V30 8564 H 855.023 4.76532 4.39114 0
M  V30 8565 N 848.429 -1.21819 0.999893 0
M  V30 8566 C 849.657 -1.94758 0.698359 0
M  V30 8567 C 850.072 -1.73771 -0.738183 0
M  V30 8568 O 849.429 -1.04113 -1.49889 0
M  V30 8569 C 849.48 -3.47292 1.00353 0
M  V30 8570 O 849.201 -3.67579 2.38363 0
M  V30 8571 C 850.702 -4.37403 0.72068 0
M  V30 8572 H 847.922 -0.619512 0.257771 0
M  V30 8573 H 850.466 -1.54778 1.33656 0
M  V30 8574 H 848.621 -3.85213 0.411018 0
M  V30 8575 H 849.035 -4.61719 2.48829 0
M  V30 8576 H 850.509 -5.43151 0.984422 0
M  V30 8577 H 850.986 -4.3784 -0.345309 0
M  V30 8578 H 851.592 -4.05119 1.29456 0
M  V30 8579 N 849.908 -0.773975 -1.37286 0
M  V30 8580 C 850.838 -0.175782 -2.32837 0
M  V30 8581 C 851.819 0.680603 -1.5589 0
M  V30 8582 O 853.004 0.617607 -1.84117 0
M  V30 8583 C 850.134 0.702388 -3.40123 0
M  V30 8584 C 849.088 -0.0528687 -4.27967 0
M  V30 8585 C 848.414 0.944891 -5.26285 0
M  V30 8586 C 849.714 -1.23316 -5.07534 0
M  V30 8587 H 851.408 -0.974016 -2.83114 0
M  V30 8588 H 848.954 -0.469826 -1.3612 0
M  V30 8589 H 850.907 1.13069 -4.05947 0
M  V30 8590 H 849.631 1.53316 -2.88378 0
M  V30 8591 H 848.29 -0.461978 -3.63678 0
M  V30 8592 H 847.938 1.77028 -4.70819 0
M  V30 8593 H 847.638 0.444079 -5.8592 0
M  V30 8594 H 849.162 1.37209 -5.94984 0
M  V30 8595 H 850.576 -0.881395 -5.66484 0
M  V30 8596 H 848.973 -1.66621 -5.76504 0
M  V30 8597 H 850.043 -2.03617 -4.40077 0
M  V30 8598 N 851.386 1.48609 -0.524698 0
M  V30 8599 C 852.611 2.07398 0.00952139 0
M  V30 8600 C 853.036 1.37939 1.27884 0
M  V30 8601 O 852.394 0.443633 1.75788 0
M  V30 8602 C 852.442 3.59916 0.221956 0
M  V30 8603 O 851.546 3.91647 1.29175 0
M  V30 8604 H 850.887 0.662981 -0.0367729 0
M  V30 8605 H 853.417 1.91092 -0.7311 0
M  V30 8606 H 853.427 4.05552 0.446236 0
M  V30 8607 H 852.102 4.09876 -0.705306 0
M  V30 8608 H 850.679 3.57796 1.05055 0
M  V30 8609 N 852.864 0.259585 1.55447 0
M  V30 8610 C 853.794 -0.62852 2.24882 0
M  V30 8611 C 854.775 -1.17128 1.23349 0
M  V30 8612 O 855.96 -1.20829 1.52033 0
M  V30 8613 C 853.09 -1.81983 2.95803 0
M  V30 8614 C 852.044 -1.40929 4.04132 0
M  V30 8615 C 851.37 -2.68246 4.62545 0
M  V30 8616 C 852.67 -0.570956 5.1917 0
M  V30 8617 H 854.364 -0.0495021 2.99359 0
M  V30 8618 H 851.91 -0.0223688 1.43983 0
M  V30 8619 H 853.863 -2.44689 3.43082 0
M  V30 8620 H 852.587 -2.42444 2.18835 0
M  V30 8621 H 851.246 -0.805519 3.57641 0
M  V30 8622 H 850.894 -3.26931 3.82263 0
M  V30 8623 H 850.594 -2.41495 5.35681 0
M  V30 8624 H 852.118 -3.31827 5.12565 0
M  V30 8625 H 853.532 -1.10262 5.62597 0
M  V30 8626 H 851.929 -0.398979 5.98772 0
M  V30 8627 H 852.999 0.413918 4.8313 0
M  V30 8628 N 854.342 -1.57594 -0.0133615 0
M  V30 8629 C 855.274 -2.04402 -1.03695 0
M  V30 8630 C 856.287 -0.959546 -1.31516 0
M  V30 8631 O 857.476 -1.23659 -1.28727 0
M  V30 8632 C 854.576 -2.41766 -2.37491 0
M  V30 8633 C 853.749 -3.72785 -2.28802 0
M  V30 8634 C 852.808 -3.97165 -3.45176 0
M  V30 8635 O 851.834 -4.68013 -3.23963 0
M  V30 8636 N 853.036 -3.44021 -4.67579 0
M  V30 8637 H 855.801 -2.92833 -0.637874 0
M  V30 8638 H 853.362 -1.60647 -0.20101 0
M  V30 8639 H 855.354 -2.55201 -3.14093 0
M  V30 8640 H 853.924 -1.58924 -2.69188 0
M  V30 8641 H 853.144 -3.69555 -1.37197 0
M  V30 8642 H 854.432 -4.58704 -2.20154 0
M  V30 8643 H 853.83 -2.86623 -4.87713 0
M  V30 8644 H 852.387 -3.62808 -5.41492 0
M  V30 8645 N 855.82 0.285905 -1.54985 0
M  V30 8646 C 857.066 1.02071 -1.75241 0
M  V30 8647 C 857.399 1.864 -0.544842 0
M  V30 8648 O 856.674 1.89034 0.457844 0
M  V30 8649 C 856.957 1.91409 -3.05016 0
M  V30 8650 C 856.81 1.10158 -4.36102 0
M  V30 8651 C 858.129 2.90335 -3.30747 0
M  V30 8652 H 855.248 0.369663 -0.637588 0
M  V30 8653 H 857.89 0.294114 -1.8771 0
M  V30 8654 H 856.04 2.53362 -2.94517 0
M  V30 8655 H 857.712 0.503756 -4.58541 0
M  V30 8656 H 855.955 0.404675 -4.31908 0
M  V30 8657 H 856.626 1.75956 -5.23205 0
M  V30 8658 H 859.102 2.38514 -3.40955 0
M  V30 8659 H 857.978 3.49997 -4.2284 0
M  V30 8660 H 858.239 3.64787 -2.49765 0
M  V30 8661 N 857.298 1.47698 0.54982 0
M  V30 8662 C 858.261 1.60282 1.63837 0
M  V30 8663 C 859.261 0.477394 1.5355 0
M  V30 8664 O 860.451 0.742665 1.57576 0
M  V30 8665 C 857.583 1.55431 3.03404 0
M  V30 8666 H 858.776 2.57325 1.54026 0
M  V30 8667 H 856.329 1.35999 0.770329 0
M  V30 8668 H 857.064 0.597912 3.1874 0
M  V30 8669 H 856.849 2.37116 3.12279 0
M  V30 8670 H 858.339 1.6739 3.82584 0
M  V30 8671 N 858.776 -0.797141 1.35954 0
M  V30 8672 C 860.001 -1.59097 1.33053 0
M  V30 8673 C 860.426 -1.87897 -0.0874592 0
M  V30 8674 O 859.784 -1.47291 -1.05712 0
M  V30 8675 C 859.832 -2.89346 2.152 0
M  V30 8676 O 858.936 -3.826 1.5392 0
M  V30 8677 H 858.277 -0.482895 0.45575 0
M  V30 8678 H 860.807 -0.988633 1.79129 0
M  V30 8679 H 860.817 -3.38686 2.27499 0
M  V30 8680 H 859.492 -2.6771 3.18283 0
M  V30 8681 H 858.069 -3.41174 1.50516 0
M  V30 8682 N 860.254 -1.20106 -1.0204 0
M  V30 8683 C 861.202 -0.943231 -2.12617 0
M  V30 8684 C 862.196 0.104042 -1.6908 0
M  V30 8685 O 863.402 -0.0459732 -1.79941 0
M  V30 8686 H 859.777 -0.28767 -0.694802 0
M  V30 8687 H 861.748 -1.88221 -2.3155 0
M  V30 8688 C 860.497 -0.50771 -3.43973 0
M  V30 8689 H 859.82 -1.30514 -3.77897 0
M  V30 8690 H 861.26 -0.366486 -4.22413 0
M  V30 8691 C 859.719 0.77939 -3.27761 0
M  V30 8692 O 860.249 1.83876 -3.57145 0
M  V30 8693 N 858.455 0.739931 -2.81022 0
M  V30 8694 H 858.002 -0.122426 -2.57309 0
M  V30 8695 H 857.96 1.60147 -2.70556 0
M  V30 8696 N 861.732 1.21287 -1.00634 0
M  V30 8697 C 863.143 1.72136 -0.722914 0
M  V30 8698 C 863.494 1.8091 0.759338 0
M  V30 8699 O 862.619 1.46458 1.59308 0
M  V30 8700 C 863.214 3.12633 -1.30561 0
M  V30 8701 C 861.773 3.60833 -1.07127 0
M  V30 8702 C 860.92 2.38326 -1.4176 0
M  V30 8703 H 863.871 1.06445 -1.17708 0
M  V30 8704 H 863.892 3.74174 -0.690937 0
M  V30 8705 H 863.404 3.06215 -2.38441 0
M  V30 8706 H 861.505 3.72599 -0.00968671 0
M  V30 8707 H 861.618 4.46226 -1.74411 0
M  V30 8708 H 859.982 2.40575 -0.836412 0
M  V30 8709 H 860.765 2.34558 -2.50674 0
M  V30 8710 N 863.21 0.781244 1.36873 0
M  V30 8711 C 864.459 0.34652 1.98701 0
M  V30 8712 C 864.772 -1.08555 1.62712 0
M  V30 8713 O 865.978 -1.62213 2.17713 0
M  V30 8714 C 864.434 0.568611 3.5538 0
M  V30 8715 C 864.042 2.01156 4.003 0
M  V30 8716 C 865.786 0.197983 4.24038 0
M  V30 8717 C 863.693 2.18074 5.49725 0
M  V30 8718 H 862.623 0.125821 0.743428 0
M  V30 8719 H 865.274 0.961721 1.56279 0
M  V30 8720 H 863.656 -0.116185 3.9583 0
M  V30 8721 H 864.83 2.73209 3.71071 0
M  V30 8722 H 863.145 2.33967 3.44454 0
M  V30 8723 H 865.742 0.302778 5.33842 0
M  V30 8724 H 866.085 -0.852927 4.07469 0
M  V30 8725 H 866.618 0.835696 3.88923 0
M  V30 8726 H 863.357 3.21519 5.71232 0
M  V30 8727 H 862.877 1.50517 5.80607 0
M  V30 8728 H 864.556 1.98393 6.15832 0
M  V30 8729 N 864.689 -1.48329 0.532571 0
M  V30 8730 C 865.599 -2.33445 -0.232546 0
M  V30 8731 C 866.615 -1.46651 -0.93645 0
M  V30 8732 O 867.791 -1.79627 -0.910834 0
M  V30 8733 C 864.856 -3.22824 -1.26434 0
M  V30 8734 C 863.917 -4.25492 -0.570511 0
M  V30 8735 C 863.15 -5.10601 -1.55315 0
M  V30 8736 O 863.373 -4.97733 -2.78599 0
M  V30 8737 O 862.307 -5.91927 -1.09112 0
M  V30 8738 H 866.133 -3.00119 0.464988 0
M  V30 8739 H 863.718 -1.46489 0.293462 0
M  V30 8740 H 865.6 -3.78103 -1.86055 0
M  V30 8741 H 864.275 -2.58807 -1.94424 0
M  V30 8742 H 863.182 -3.74041 0.0662587 0
M  V30 8743 H 864.515 -4.92154 0.0674904 0
M  V30 8744 N 866.167 -0.267825 -1.55308 0
M  V30 8745 C 867.407 0.352316 -2.01341 0
M  V30 8746 C 867.771 1.53593 -1.1521 0
M  V30 8747 O 868.972 2.22521 -1.50791 0
M  V30 8748 C 867.243 0.731857 -3.49827 0
M  V30 8749 S 868.802 1.33956 -4.17853 0
M  V30 8750 H 865.62 0.109927 -0.702451 0
M  V30 8751 H 868.222 -0.387955 -1.91612 0
M  V30 8752 H 866.926 -0.138561 -4.10166 0
M  V30 8753 H 866.457 1.50378 -3.63525 0
M  V30 8754 H 868.472 2.62831 -4.20874 0
M  V30 8755 N 867.645 1.57599 0.00500368 0
M  V30 8756 C 868.87 1.95026 0.705663 0
M  V30 8757 C 869.295 0.869643 1.6679 0
M  V30 8758 O 868.653 -0.172659 1.80476 0
M  V30 8759 C 868.701 3.31545 1.4181 0
M  V30 8760 O 867.805 3.25495 2.53232 0
M  V30 8761 H 867.146 0.636808 0.188074 0
M  V30 8762 H 869.676 2.04547 -0.046696 0
M  V30 8763 H 869.686 3.66996 1.78265 0
M  V30 8764 H 868.361 4.09751 0.712543 0
M  V30 8765 H 866.938 3.01714 2.19142 0
M  V30 8766 N 869.123 -0.277682 1.55134 0
M  V30 8767 C 870.055 -1.36531 1.84098 0
M  V30 8768 C 871.068 -1.45756 0.725194 0
M  V30 8769 O 872.257 -1.47656 1.00299 0
M  V30 8770 C 869.357 -2.74701 1.98476 0
M  V30 8771 C 868.53 -2.88125 3.29094 0
M  V30 8772 C 867.589 -4.0694 3.33596 0
M  V30 8773 O 866.615 -3.9792 4.06999 0
M  V30 8774 N 867.817 -5.18687 2.60661 0
M  V30 8775 H 870.582 -1.12032 2.77973 0
M  V30 8776 H 868.143 -0.467793 1.54995 0
M  V30 8777 H 870.135 -3.52471 1.98863 0
M  V30 8778 H 868.705 -2.92043 1.11488 0
M  V30 8779 H 867.925 -1.97277 3.41285 0
M  V30 8780 H 869.213 -2.94021 4.15246 0
M  V30 8781 H 868.611 -5.28901 2.00699 0
M  V30 8782 H 867.168 -5.94705 2.66776 0
M  V30 8783 N 870.601 -1.47988 -0.541979 0
M  V30 8784 C 872.017 -1.33843 -0.869383 0
M  V30 8785 C 872.217 -0.340374 -1.98604 0
M  V30 8786 O 871.273 0.242696 -2.51331 0
M  V30 8787 C 872.586 -2.73568 -1.24823 0
M  V30 8788 C 874.134 -2.81967 -1.3588 0
M  V30 8789 C 874.609 -4.22368 -1.77114 0
M  V30 8790 N 876.1 -4.24983 -1.84237 0
M  V30 8791 C 876.835 -5.30547 -2.17503 0
M  V30 8792 N 876.331 -6.46401 -2.49275 0
M  V30 8793 N 878.124 -5.17933 -2.18406 0
M  V30 8794 H 870.275 -2.11503 0.195001 0
M  V30 8795 H 872.538 -0.947681 0.0245862 0
M  V30 8796 H 872.244 -3.48107 -0.501435 0
M  V30 8797 H 872.118 -3.06322 -2.20106 0
M  V30 8798 H 874.505 -2.07692 -2.09638 0
M  V30 8799 H 874.586 -2.52848 -0.387478 0
M  V30 8800 H 874.23 -4.97155 -1.0392 0
M  V30 8801 H 874.16 -4.48922 -2.75275 0
M  V30 8802 H 876.651 -3.41411 -1.62009 0
M  V30 8803 H 876.964 -7.22698 -2.73729 0
M  V30 8804 H 875.309 -6.49696 -2.46821 0
M  V30 8805 H 878.5 -4.26445 -1.93034 0
M  V30 8806 H 878.673 -6.00307 -2.44 0
M  V30 8807 N 872.079 0.78992 -1.36375 0
M  V30 8808 C 873.304 1.58389 -1.33895 0
M  V30 8809 C 873.729 1.8794 0.0774934 0
M  V30 8810 O 873.087 1.4785 1.0493 0
M  V30 8811 C 873.135 2.88201 -2.16732 0
M  V30 8812 O 872.239 3.81778 -1.55946 0
M  V30 8813 H 871.58 0.480471 -0.458305 0
M  V30 8814 H 874.11 0.979119 -1.79651 0
M  V30 8815 H 874.12 3.37475 -2.29292 0
M  V30 8816 H 872.795 2.66019 -3.19698 0
M  V30 8817 H 871.372 3.40371 -1.52323 0
M  V30 8818 N 873.557 1.20646 1.01402 0
M  V30 8819 C 874.52 0.959314 2.08158 0
M  V30 8820 C 875.52 -0.0661558 1.60664 0
M  V30 8821 O 876.71 0.170177 1.73367 0
M  V30 8822 C 873.842 0.444785 3.37986 0
M  V30 8823 H 875.035 1.90631 2.31517 0
M  V30 8824 H 872.588 1.02219 1.18241 0
M  V30 8825 H 873.323 -0.507553 3.20304 0
M  V30 8826 H 873.108 1.18435 3.73785 0
M  V30 8827 H 874.598 0.291443 4.16582 0
M  V30 8828 N 875.035 -1.20752 1.01276 0
M  V30 8829 C 875.967 -2.22798 0.537917 0
M  V30 8830 C 876.98 -1.5836 -0.377638 0
M  V30 8831 O 878.169 -1.77624 -0.176599 0
M  V30 8832 C 875.269 -3.38068 -0.237364 0
M  V30 8833 C 874.442 -4.32095 0.679161 0
M  V30 8834 C 873.501 -5.26178 -0.0478676 0
M  V30 8835 O 872.527 -5.66305 0.573366 0
M  V30 8836 N 873.729 -5.65201 -1.32396 0
M  V30 8837 H 876.494 -2.64166 1.4155 0
M  V30 8838 H 874.055 -1.35254 0.889826 0
M  V30 8839 H 876.047 -3.98009 -0.73288 0
M  V30 8840 H 874.617 -2.95622 -1.0162 0
M  V30 8841 H 873.837 -3.70179 1.35505 0
M  V30 8842 H 875.125 -4.91842 1.30263 0
M  V30 8843 H 874.523 -5.34606 -1.84968 0
M  V30 8844 H 873.08 -6.27468 -1.76428 0
M  V30 8845 N 876.513 -0.788492 -1.36457 0
M  V30 8846 C 877.423 -0.187385 -2.3385 0
M  V30 8847 C 878.439 0.659984 -1.60998 0
M  V30 8848 O 879.615 0.575986 -1.92988 0
M  V30 8849 C 876.68 0.668525 -3.40194 0
M  V30 8850 C 875.741 -0.197234 -4.28847 0
M  V30 8851 C 874.974 0.61792 -5.30111 0
M  V30 8852 O 875.197 1.85396 -5.3943 0
M  V30 8853 O 874.131 0.0183016 -6.01897 0
M  V30 8854 H 877.957 -0.992617 -2.87021 0
M  V30 8855 H 875.542 -0.549934 -1.3891 0
M  V30 8856 H 877.424 1.15663 -4.05216 0
M  V30 8857 H 876.099 1.45166 -2.89324 0
M  V30 8858 H 875.006 -0.73207 -3.66867 0
M  V30 8859 H 876.339 -0.943863 -4.83065 0
M  V30 8860 N 877.991 1.48044 -0.54043 0
M  V30 8861 C 878.921 2.32597 0.205178 0
M  V30 8862 C 879.902 1.42748 0.925041 0
M  V30 8863 O 881.087 1.71624 0.908784 0
M  V30 8864 C 878.217 3.24175 1.24612 0
M  V30 8865 C 877.171 4.23131 0.64376 0
M  V30 8866 C 876.497 5.03915 1.78812 0
M  V30 8867 C 877.797 5.20831 -0.39144 0
M  V30 8868 H 879.491 2.95184 -0.500676 0
M  V30 8869 H 877.037 1.41948 -0.242225 0
M  V30 8870 H 878.99 3.82158 1.77576 0
M  V30 8871 H 877.714 2.59608 1.98169 0
M  V30 8872 H 876.373 3.66349 0.135554 0
M  V30 8873 H 876.021 4.35765 2.51232 0
M  V30 8874 H 875.721 5.709 1.39094 0
M  V30 8875 H 877.245 5.64753 2.32134 0
M  V30 8876 H 878.659 5.73277 0.0515064 0
M  V30 8877 H 877.056 5.95926 -0.706569 0
M  V30 8878 H 878.126 4.6733 -1.29345 0
M  V30 8879 N 879.47 0.276058 1.55163 0
M  V30 8880 C 880.881 -0.221516 1.85381 0
M  V30 8881 C 881.232 -1.55372 1.19808 0
M  V30 8882 O 880.357 -2.10855 0.486742 0
M  V30 8883 C 880.952 -0.408706 3.36326 0
M  V30 8884 C 879.511 -0.850512 3.66665 0
M  V30 8885 C 878.658 0.055656 2.77244 0
M  V30 8886 H 881.609 0.497819 1.5069 0
M  V30 8887 H 881.63 -1.24711 3.59482 0
M  V30 8888 H 881.142 0.561052 3.84023 0
M  V30 8889 H 879.243 -1.83171 3.24468 0
M  V30 8890 H 879.356 -0.687181 4.74146 0
M  V30 8891 H 877.72 -0.460819 2.50497 0
M  V30 8892 H 878.503 1.02131 3.27756 0
M  V30 8893 N 880.948 -1.576 0.00335426 0
M  V30 8894 C 881.878 -2.11668 -0.985839 0
M  V30 8895 C 882.859 -1.02661 -1.35627 0
M  V30 8896 O 884.044 -1.30361 -1.43943 0
M  V30 8897 C 881.174 -2.62273 -2.27662 0
M  V30 8898 C 880.128 -3.75837 -2.0477 0
M  V30 8899 C 879.454 -4.12769 -3.39891 0
M  V30 8900 C 880.754 -5.02975 -1.40759 0
M  V30 8901 H 882.448 -2.9457 -0.535637 0
M  V30 8902 H 879.994 -1.41702 -0.256204 0
M  V30 8903 H 881.947 -2.98727 -2.97221 0
M  V30 8904 H 880.671 -1.76498 -2.74802 0
M  V30 8905 H 879.33 -3.39782 -1.37636 0
M  V30 8906 H 878.978 -3.24013 -3.8474 0
M  V30 8907 H 878.678 -4.89281 -3.25389 0
M  V30 8908 H 880.202 -4.51784 -4.1076 0
M  V30 8909 H 881.616 -5.37179 -2.00279 0
M  V30 8910 H 880.013 -5.84315 -1.36734 0
M  V30 8911 H 881.083 -4.83431 -0.377218 0
M  V30 8912 N 882.426 0.269451 -1.5528 0
M  V30 8913 C 883.672 1.00206 -1.76314 0
M  V30 8914 C 884.005 1.85812 -0.564581 0
M  V30 8915 O 883.28 1.89509 0.437769 0
M  V30 8916 C 883.563 1.88163 -3.07029 0
M  V30 8917 C 883.416 1.05527 -4.37246 0
M  V30 8918 C 884.735 2.8681 -3.33808 0
M  V30 8919 H 881.854 0.36288 -0.641473 0
M  V30 8920 H 884.496 0.274188 -1.88011 0
M  V30 8921 H 882.646 2.50224 -2.97187 0
M  V30 8922 H 884.318 0.455094 -4.5905 0
M  V30 8923 H 882.561 0.358842 -4.32313 0
M  V30 8924 H 883.232 1.70397 -5.25042 0
M  V30 8925 H 885.708 2.34884 -3.43466 0
M  V30 8926 H 884.584 3.45492 -4.26528 0
M  V30 8927 H 884.845 3.62118 -2.5362 0
M  V30 8928 N 883.904 1.48273 0.534124 0
M  V30 8929 C 884.814 1.65162 1.66609 0
M  V30 8930 C 885.83 0.534177 1.65598 0
M  V30 8931 O 887.006 0.804715 1.84625 0
M  V30 8932 C 884.071 1.68354 3.03081 0
M  V30 8933 C 883.132 2.91696 3.1498 0
M  V30 8934 C 882.365 2.94725 4.44941 0
M  V30 8935 O 882.588 2.06285 5.31792 0
M  V30 8936 O 881.522 3.8685 4.61119 0
M  V30 8937 H 885.348 2.60991 1.55298 0
M  V30 8938 H 882.933 1.31626 0.706749 0
M  V30 8939 H 884.815 1.72998 3.84252 0
M  V30 8940 H 883.49 0.756978 3.14725 0
M  V30 8941 H 882.397 2.92586 2.33119 0
M  V30 8942 H 883.73 3.83722 3.0825 0
M  V30 8943 N 885.382 -0.782676 1.36792 0
M  V30 8944 C 886.329 -1.89558 1.31667 0
M  V30 8945 C 887.299 -1.65076 0.184147 0
M  V30 8946 O 888.484 -1.87143 0.371753 0
M  V30 8947 C 885.624 -3.26469 1.11858 0
M  V30 8948 C 884.737 -3.62978 2.34245 0
M  V30 8949 C 883.872 -4.89041 2.07394 0
M  V30 8950 C 882.911 -5.18249 3.25706 0
M  V30 8951 N 882.048 -6.35497 2.98476 0
M  V30 8952 H 886.888 -1.93274 2.26824 0
M  V30 8953 H 884.425 -0.945057 1.12726 0
M  V30 8954 H 886.383 -4.05431 0.983968 0
M  V30 8955 H 885.013 -3.22158 0.203531 0
M  V30 8956 H 884.065 -2.79087 2.58485 0
M  V30 8957 H 885.377 -3.80507 3.22514 0
M  V30 8958 H 884.531 -5.75883 1.90901 0
M  V30 8959 H 883.27 -4.73594 1.16446 0
M  V30 8960 H 882.275 -4.29887 3.4275 0
M  V30 8961 H 883.5 -5.35611 4.1749 0
M  V30 8962 H 881.446 -6.21429 2.10146 0
M  V30 8963 H 881.363 -6.5339 3.80286 0
M  V30 8964 H 882.631 -7.25304 2.85577 0
M  V30 8965 N 886.86 -1.21182 -1.00761 0
M  V30 8966 C 887.792 -0.926523 -2.09638 0
M  V30 8967 C 888.805 0.0892511 -1.62555 0
M  V30 8968 O 889.994 -0.142915 -1.77927 0
M  V30 8969 C 887.094 -0.369175 -3.36883 0
M  V30 8970 C 886.267 -1.43866 -4.13063 0
M  V30 8971 C 885.326 -0.891015 -5.18601 0
M  V30 8972 O 884.352 -1.57384 -5.47009 0
M  V30 8973 N 885.554 0.295057 -5.7975 0
M  V30 8974 H 888.319 -1.8638 -2.34697 0
M  V30 8975 H 885.88 -1.11671 -1.17223 0
M  V30 8976 H 887.872 0.011534 -4.04698 0
M  V30 8977 H 886.442 0.472861 -3.09003 0
M  V30 8978 H 885.662 -1.99332 -3.40089 0
M  V30 8979 H 886.95 -2.15866 -4.60738 0
M  V30 8980 H 886.348 0.8669 -5.59018 0
M  V30 8981 H 884.905 0.617306 -6.4887 0
M  V30 8982 N 888.338 1.20213 -1.01915 0
M  V30 8983 C 889.563 1.94163 -0.729076 0
M  V30 8984 C 889.988 1.74416 0.704323 0
M  V30 8985 O 889.346 1.0401 1.48498 0
M  V30 8986 C 889.394 3.44258 -1.07324 0
M  V30 8987 O 888.498 4.11979 -0.186367 0
M  V30 8988 H 887.839 0.606506 -0.270272 0
M  V30 8989 H 890.369 1.52571 -1.3632 0
M  V30 8990 H 890.379 3.94888 -1.02603 0
M  V30 8991 H 889.054 3.57954 -2.11759 0
M  V30 8992 H 887.631 3.7176 -0.291334 0
M  V30 8993 N 889.816 0.795718 1.36037 0
M  V30 8994 C 891.044 0.383153 2.03321 0
M  V30 8995 C 891.459 -1.00246 1.59988 0
M  V30 8996 O 890.816 -1.64406 0.792265 0
M  V30 8997 C 890.867 0.444467 3.58757 0
M  V30 8998 O 890.588 1.77544 4.00512 0
M  V30 8999 C 892.089 0.0233291 4.43294 0
M  V30 9000 H 889.309 0.157061 0.652359 0
M  V30 9001 H 891.853 1.07632 1.73884 0
M  V30 9002 H 890.008 -0.200341 3.86882 0
M  V30 9003 H 890.422 1.73065 4.95125 0
M  V30 9004 H 891.896 0.117361 5.51875 0
M  V30 9005 H 892.373 -1.03007 4.2695 0
M  V30 9006 H 892.979 0.64087 4.20444 0
M  V30 9007 N 891.294 -1.47756 0.548274 0
M  V30 9008 C 892.571 -1.9555 -0.0443603 0
M  V30 9009 C 892.951 -1.49079 -1.49462 0
M  V30 9010 O 892.299 -0.725538 -2.16675 0
M  V30 9011 C 892.509 -3.48879 0.0918425 0
M  V30 9012 C 893.857 -4.2456 -0.0580879 0
M  V30 9013 O 894.881 -3.56195 0.018946 0
M  V30 9014 O 893.74 -5.46048 -0.222261 0
M  V30 9015 H 890.834 -0.824106 -0.0691235 0
M  V30 9016 H 893.38 -1.58196 0.614166 0
M  V30 9017 H 892.152 -3.7548 1.10137 0
M  V30 9018 H 891.775 -3.92975 -0.604704 0
M  V30 9019 N 892.772 -0.284283 -1.55015 0
M  V30 9020 C 893.997 0.335799 -2.04664 0
M  V30 9021 C 894.422 1.47999 -1.16094 0
M  V30 9022 O 893.78 1.8058 -0.161454 0
M  V30 9023 C 893.828 0.785615 -3.51938 0
M  V30 9024 O 892.932 1.89202 -3.66437 0
M  V30 9025 H 892.273 0.0680233 -0.660506 0
M  V30 9026 H 894.803 -0.421255 -2.00216 0
M  V30 9027 H 894.813 1.07892 -3.93476 0
M  V30 9028 H 893.488 -0.0514675 -4.15868 0
M  V30 9029 H 892.065 1.60055 -3.36804 0
M  V30 9030 N 894.251 1.57596 -0.0117121 0
M  V30 9031 C 895.481 1.95077 0.680346 0
M  V30 9032 C 895.889 0.885793 1.67184 0
M  V30 9033 O 895.232 -0.142723 1.83145 0
M  V30 9034 C 895.294 3.28611 1.45791 0
M  V30 9035 C 894.958 4.52682 0.626706 0
M  V30 9036 C 895.955 5.19821 -0.0906223 0
M  V30 9037 C 893.64 4.99064 0.569229 0
M  V30 9038 C 895.634 6.31649 -0.854289 0
M  V30 9039 C 893.321 6.10779 -0.198155 0
M  V30 9040 C 894.319 6.76929 -0.908636 0
M  V30 9041 O 894.007 7.86501 -1.66348 0
M  V30 9042 H 893.739 0.647663 0.193672 0
M  V30 9043 H 896.293 2.05305 -0.0624969 0
M  V30 9044 H 894.523 3.14824 2.2455 0
M  V30 9045 H 896.212 3.51119 2.03642 0
M  V30 9046 H 896.978 4.84968 -0.0554421 0
M  V30 9047 H 892.857 4.47393 1.11178 0
M  V30 9048 H 896.401 6.83215 -1.40937 0
M  V30 9049 H 892.298 6.45072 -0.235114 0
M  V30 9050 H 893.066 8.03078 -1.58141 0
M  V30 9051 N 895.729 -0.261212 1.5542 0
M  V30 9052 C 897.14 -0.83138 1.67167 0
M  V30 9053 C 897.491 -1.8659 0.606525 0
M  V30 9054 O 896.616 -2.14953 -0.24985 0
M  V30 9055 C 897.211 -1.51475 3.03052 0
M  V30 9056 C 895.77 -2.0328 3.16787 0
M  V30 9057 C 894.917 -0.878903 2.63003 0
M  V30 9058 H 897.868 -0.0373102 1.58656 0
M  V30 9059 H 897.889 -2.38222 2.96699 0
M  V30 9060 H 897.401 -0.76157 3.80554 0
M  V30 9061 H 895.502 -2.81523 2.44082 0
M  V30 9062 H 895.615 -2.24001 4.2351 0
M  V30 9063 H 893.979 -1.27551 2.2046 0
M  V30 9064 H 894.762 -0.13904 3.43018 0
M  V30 9065 N 897.207 -1.48554 -0.526253 0
M  V30 9066 C 898.453 -1.56994 -1.28378 0
M  V30 9067 C 898.786 -0.244701 -1.92652 0
M  V30 9068 O 898.061 0.749636 -1.79473 0
M  V30 9069 C 898.344 -2.71092 -2.37026 0
M  V30 9070 C 898.197 -4.13331 -1.77418 0
M  V30 9071 C 899.516 -2.80934 -3.38769 0
M  V30 9072 H 896.635 -0.571466 -0.465398 0
M  V30 9073 H 899.277 -1.80742 -0.585861 0
M  V30 9074 H 897.427 -2.50973 -2.96555 0
M  V30 9075 H 899.099 -4.44899 -1.21912 0
M  V30 9076 H 897.342 -4.20158 -1.07936 0
M  V30 9077 H 898.013 -4.88994 -2.56104 0
M  V30 9078 H 900.489 -2.9917 -2.892 0
M  V30 9079 H 899.365 -3.62489 -4.12181 0
M  V30 9080 H 899.626 -1.89244 -3.99549 0
M  V30 9081 N 898.685 0.775411 -1.37205 0
M  V30 9082 C 899.931 1.53611 -1.32407 0
M  V30 9083 C 900.264 1.9398 0.0924103 0
M  V30 9084 O 899.539 1.63791 1.04893 0
M  V30 9085 C 899.822 2.80367 -2.25979 0
M  V30 9086 C 899.675 2.46275 -3.76389 0
M  V30 9087 C 900.994 3.82277 -2.18064 0
M  V30 9088 H 898.113 0.557278 -0.482297 0
M  V30 9089 H 900.755 0.889826 -1.67875 0
M  V30 9090 H 898.905 3.35515 -1.95862 0
M  V30 9091 H 900.577 1.9707 -4.17087 0
M  V30 9092 H 898.82 1.79023 -3.95137 0
M  V30 9093 H 899.491 3.36868 -4.37291 0
M  V30 9094 H 901.967 3.36613 -2.44604 0
M  V30 9095 H 900.843 4.68696 -2.85684 0
M  V30 9096 H 901.104 4.26272 -1.17239 0
M  V30 9097 N 900.163 1.21714 1.00117 0
M  V30 9098 C 901.411 1.03465 1.73607 0
M  V30 9099 C 901.732 -0.432295 1.90148 0
M  V30 9100 O 901.002 -1.31157 1.45515 0
M  V30 9101 H 899.582 0.379857 0.643209 0
M  V30 9102 H 902.244 1.53088 1.20624 0
M  V30 9103 H 901.34 1.50574 2.73375 0
M  V30 9104 N 901.641 -1.19671 1.02551 0
M  V30 9105 C 902.889 -1.88894 0.71858 0
M  V30 9106 C 903.21 -1.79797 -0.754856 0
M  V30 9107 O 902.48 -1.20621 -1.54362 0
M  V30 9108 H 901.06 -0.699244 0.262806 0
M  V30 9109 H 903.722 -1.45298 1.29902 0
M  V30 9110 H 902.818 -2.95309 1.00989 0
M  V30 9111 N 903.119 -0.802921 -1.35613 0
M  V30 9112 C 904.066 -0.20874 -2.29854 0
M  V30 9113 C 905.036 0.655128 -1.52634 0
M  V30 9114 O 906.221 0.600979 -1.81088 0
M  V30 9115 C 903.361 0.639663 -3.3912 0
M  V30 9116 C 902.474 -0.244234 -4.31309 0
M  V30 9117 C 901.609 0.611825 -5.27665 0
M  V30 9118 C 900.648 -0.272698 -6.11492 0
M  V30 9119 N 899.785 0.543122 -6.99996 0
M  V30 9120 H 904.625 -1.01782 -2.80079 0
M  V30 9121 H 902.162 -0.513465 -1.37848 0
M  V30 9122 H 904.12 1.14668 -4.01132 0
M  V30 9123 H 902.75 1.41404 -2.9018 0
M  V30 9124 H 901.802 -0.869322 -3.70334 0
M  V30 9125 H 903.114 -0.925202 -4.90144 0
M  V30 9126 H 902.268 1.18412 -5.95032 0
M  V30 9127 H 901.007 1.32637 -4.69317 0
M  V30 9128 H 900.012 -0.857287 -5.43075 0
M  V30 9129 H 901.237 -0.985051 -6.71918 0
M  V30 9130 H 899.183 1.24171 -6.44141 0
M  V30 9131 H 899.1 -0.0798767 -7.55958 0
M  V30 9132 H 900.368 1.09881 -7.71717 0
M  V30 9133 N 904.597 1.47463 -0.556102 0
M  V30 9134 C 905.544 2.29998 0.192213 0
M  V30 9135 C 906.514 1.38993 0.909403 0
M  V30 9136 O 907.699 1.67954 0.905316 0
M  V30 9137 C 904.839 3.22932 1.21692 0
M  V30 9138 C 903.952 4.29027 0.505908 0
M  V30 9139 C 903.087 5.09114 1.51581 0
M  V30 9140 C 902.126 6.06984 0.789714 0
M  V30 9141 N 901.263 6.80033 1.74639 0
M  V30 9142 H 906.103 2.93468 -0.517734 0
M  V30 9143 H 903.64 1.44654 -0.267147 0
M  V30 9144 H 905.598 3.75234 1.8236 0
M  V30 9145 H 904.228 2.61329 1.89491 0
M  V30 9146 H 903.28 3.7979 -0.215276 0
M  V30 9147 H 904.592 4.9876 -0.062958 0
M  V30 9148 H 903.746 5.6556 2.19606 0
M  V30 9149 H 902.485 4.3928 2.11859 0
M  V30 9150 H 901.49 5.49717 0.0955382 0
M  V30 9151 H 902.715 6.78827 0.192688 0
M  V30 9152 H 900.661 6.12931 2.33777 0
M  V30 9153 H 900.578 7.45933 1.22965 0
M  V30 9154 H 901.846 7.41054 2.41782 0
M  V30 9155 N 906.075 0.2925 1.54862 0
M  V30 9156 C 907.008 -0.629155 2.19356 0
M  V30 9157 C 907.986 -1.13927 1.16014 0
M  V30 9158 O 909.17 -1.20904 1.44618 0
M  V30 9159 C 906.297 -1.8599 2.83064 0
M  V30 9160 C 905.343 -1.48376 3.99859 0
M  V30 9161 S 906.176 -0.546976 5.32699 0
M  V30 9162 C 907.332 -1.7857 5.99886 0
M  V30 9163 H 907.565 -0.0812166 2.97189 0
M  V30 9164 H 905.098 0.0766721 1.5421 0
M  V30 9165 H 907.056 -2.56623 3.20398 0
M  V30 9166 H 905.717 -2.37899 2.05092 0
M  V30 9167 H 904.91 -2.40002 4.43187 0
M  V30 9168 H 904.512 -0.857447 3.64038 0
M  V30 9169 H 906.804 -2.7274 6.20177 0
M  V30 9170 H 907.747 -1.39513 6.9422 0
M  V30 9171 H 908.155 -1.95856 5.29434 0
M  V30 9172 N 907.553 -1.57587 0.0200696 0
M  V30 9173 C 908.799 -1.91708 -0.661503 0
M  V30 9174 C 909.132 -0.895968 -1.72296 0
M  V30 9175 O 908.407 0.082577 -1.94325 0
M  V30 9176 C 908.69 -3.36344 -1.28627 0
M  V30 9177 C 908.543 -4.49186 -0.234982 0
M  V30 9178 C 909.862 -3.80771 -2.20685 0
M  V30 9179 H 906.981 -0.69717 -0.239005 0
M  V30 9180 H 909.623 -1.8985 0.0754764 0
M  V30 9181 H 907.773 -3.38058 -1.91439 0
M  V30 9182 H 909.445 -4.59606 0.395011 0
M  V30 9183 H 907.688 -4.31557 0.440565 0
M  V30 9184 H 908.359 -5.47395 -0.711558 0
M  V30 9185 H 910.835 -3.80735 -1.67868 0
M  V30 9186 H 909.711 -4.82685 -2.61356 0
M  V30 9187 H 909.972 -3.15764 -3.09428 0
M  V30 9188 N 909.032 0.252966 -1.55557 0
M  V30 9189 C 909.962 1.31691 -1.9282 0
M  V30 9190 C 910.943 1.50516 -0.7924 0
M  V30 9191 O 912.128 1.63225 -1.05219 0
M  V30 9192 C 909.258 2.67281 -2.21762 0
M  V30 9193 C 908.212 2.6316 -3.37536 0
M  V30 9194 C 907.538 4.02488 -3.52005 0
M  V30 9195 C 908.838 2.20675 -4.73392 0
M  V30 9196 H 910.532 1.00751 -2.81939 0
M  V30 9197 H 908.078 0.483219 -1.3565 0
M  V30 9198 H 910.031 3.41842 -2.46419 0
M  V30 9199 H 908.755 2.99845 -1.29463 0
M  V30 9200 H 907.414 1.91057 -3.12878 0
M  V30 9201 H 907.062 4.32307 -2.57137 0
M  V30 9202 H 906.762 4.00621 -4.29857 0
M  V30 9203 H 908.286 4.78758 -3.78977 0
M  V30 9204 H 909.7 2.84965 -4.97461 0
M  V30 9205 H 908.097 2.29931 -5.54303 0
M  V30 9206 H 909.167 1.15831 -4.70862 0
M  V30 9207 N 910.51 1.48831 0.518367 0
M  V30 9208 C 911.735 1.61379 1.30275 0
M  V30 9209 C 912.16 0.278571 1.86026 0
M  V30 9210 O 911.518 -0.751427 1.64995 0
M  V30 9211 C 911.566 2.67225 2.42122 0
M  V30 9212 O 910.67 2.25192 3.45489 0
M  V30 9213 H 910.011 0.540742 0.385349 0
M  V30 9214 H 912.541 1.949 0.622498 0
M  V30 9215 H 912.551 2.88859 2.8814 0
M  V30 9216 H 911.226 3.64155 2.00907 0
M  V30 9217 H 909.803 2.13819 3.05509 0
M  V30 9218 N 911.988 -0.768124 1.37614 0
M  V30 9219 C 913.236 -1.52379 1.3276 0
M  V30 9220 C 913.557 -1.94809 -0.0863564 0
M  V30 9221 O 912.827 -1.66568 -1.03112 0
M  V30 9222 H 911.407 -0.565179 0.488448 0
M  V30 9223 H 914.069 -0.913974 1.72141 0
M  V30 9224 H 913.165 -2.4215 1.96901 0
M  V30 9225 N 913.466 -1.22244 -0.994698 0
M  V30 9226 C 914.416 -0.958244 -2.06886 0
M  V30 9227 C 915.4 0.0904481 -1.60646 0
M  V30 9228 O 916.592 -0.119837 -1.76594 0
M  V30 9229 C 913.721 -0.535944 -3.39091 0
M  V30 9230 C 912.807 -1.61927 -3.9197 0
M  V30 9231 N 913.198 -2.84659 -4.18094 0
M  V30 9232 C 911.496 -1.49053 -4.20356 0
M  V30 9233 C 912.197 -3.54697 -4.61048 0
M  V30 9234 N 911.173 -2.82164 -4.64634 0
M  V30 9235 H 914.975 -1.89056 -2.25022 0
M  V30 9236 H 912.489 -1.1197 -1.17629 0
M  V30 9237 H 914.486 -0.327997 -4.15608 0
M  V30 9238 H 913.146 0.38949 -3.22355 0
M  V30 9239 H 914.157 -3.21104 -4.06341 0
M  V30 9240 H 910.834 -0.631154 -4.12702 0
M  V30 9241 H 912.224 -4.59837 -4.89898 0
M  V30 9242 N 914.944 1.19125 -1.03184 0
M  V30 9243 C 915.892 2.24492 -0.608781 0
M  V30 9244 C 916.886 1.65529 0.360065 0
M  V30 9245 O 918.092 1.78546 0.22832 0
M  V30 9246 H 914.467 0.73048 -0.178616 0
M  V30 9247 H 916.438 2.5749 -1.50803 0
M  V30 9248 C 915.187 3.47693 0.0215126 0
M  V30 9249 H 914.51 3.93354 -0.715024 0
M  V30 9250 H 915.95 4.23072 0.280429 0
M  V30 9251 C 914.409 3.12088 1.26896 0
M  V30 9252 O 914.939 3.25013 2.36071 0
M  V30 9253 N 913.145 2.66494 1.15886 0
M  V30 9254 H 912.692 2.56176 0.270463 0
M  V30 9255 H 912.65 2.43042 1.99444 0
M  V30 9256 N 916.422 0.810101 1.35185 0
M  V30 9257 C 917.669 0.392117 1.98667 0
M  V30 9258 C 917.997 -1.0416 1.64259 0
M  V30 9259 O 917.252 -1.73795 0.899647 0
M  V30 9260 C 917.551 0.526561 3.535 0
M  V30 9261 C 917.217 1.92411 4.07785 0
M  V30 9262 C 915.879 2.30644 4.22323 0
M  V30 9263 C 918.231 2.83827 4.37141 0
M  V30 9264 C 915.559 3.59655 4.63536 0
M  V30 9265 C 917.911 4.12287 4.79794 0
M  V30 9266 C 916.575 4.50515 4.92536 0
M  V30 9267 H 915.845 0.143486 0.726975 0
M  V30 9268 H 918.492 1.03157 1.61341 0
M  V30 9269 H 916.797 -0.19633 3.91308 0
M  V30 9270 H 918.494 0.183871 4.00578 0
M  V30 9271 H 915.084 1.61707 3.96924 0
M  V30 9272 H 919.268 2.55536 4.25459 0
M  V30 9273 H 914.524 3.89117 4.71591 0
M  V30 9274 H 918.698 4.83221 5.01468 0
M  V30 9275 H 916.325 5.50535 5.24229 0
M  V30 9276 N 917.9 -1.47166 0.563914 0
M  V30 9277 C 918.83 -2.32894 -0.168148 0
M  V30 9278 C 919.811 -1.44202 -0.902214 0
M  V30 9279 O 920.996 -1.73048 -0.881365 0
M  V30 9280 C 918.126 -3.26116 -1.19439 0
M  V30 9281 C 917.08 -4.24101 -0.576363 0
M  V30 9282 C 916.406 -5.06696 -1.70772 0
M  V30 9283 C 917.706 -5.20142 0.47425 0
M  V30 9284 H 919.4 -2.9435 0.547573 0
M  V30 9285 H 916.946 -1.41545 0.264778 0
M  V30 9286 H 918.899 -3.84935 -1.71474 0
M  V30 9287 H 917.623 -2.62728 -1.94014 0
M  V30 9288 H 916.282 -3.66519 -0.0772534 0
M  V30 9289 H 915.93 -4.39707 -2.44268 0
M  V30 9290 H 915.63 -5.7304 -1.29994 0
M  V30 9291 H 917.154 -5.68375 -2.2312 0
M  V30 9292 H 918.568 -5.73286 0.0397035 0
M  V30 9293 H 916.965 -5.94726 0.801287 0
M  V30 9294 H 918.035 -4.65214 1.36764 0
M  V30 9295 N 919.378 -0.300708 -1.54705 0
M  V30 9296 C 920.31 0.609179 -2.20956 0
M  V30 9297 C 921.323 1.09776 -1.20221 0
M  V30 9298 O 922.512 1.01527 -1.46815 0
M  V30 9299 C 919.612 1.84595 -2.84214 0
M  V30 9300 C 918.785 1.49991 -4.10879 0
M  V30 9301 C 917.844 2.5918 -4.57943 0
M  V30 9302 O 916.87 2.24285 -5.23149 0
M  V30 9303 N 918.072 3.89714 -4.30236 0
M  V30 9304 H 920.837 0.0420111 -2.99671 0
M  V30 9305 H 918.398 -0.122896 -1.61433 0
M  V30 9306 H 920.39 2.56988 -3.12633 0
M  V30 9307 H 918.96 2.32152 -2.09342 0
M  V30 9308 H 918.18 0.608637 -3.89473 0
M  V30 9309 H 919.468 1.24409 -4.93356 0
M  V30 9310 H 918.866 4.20874 -3.77997 0
M  V30 9311 H 917.423 4.58406 -4.63365 0
M  V30 9312 N 920.856 1.57574 -0.0284266 0
M  V30 9313 C 922.133 1.83064 0.688979 0
M  V30 9314 C 922.513 0.91219 1.90374 0
M  V30 9315 O 921.861 -0.0323672 2.28477 0
M  V30 9316 C 922.071 3.32262 1.06785 0
M  V30 9317 C 923.419 3.98717 1.45978 0
M  V30 9318 O 924.443 3.36753 1.16085 0
M  V30 9319 O 923.302 5.07927 2.01673 0
M  V30 9320 H 920.396 0.7548 0.337944 0
M  V30 9321 H 922.942 1.69607 -0.0560555 0
M  V30 9322 H 921.714 3.90772 0.203235 0
M  V30 9323 H 921.337 3.50823 1.87107 0
M  V30 9324 N 922.334 -0.244713 1.55689 0
M  V30 9325 C 923.559 -0.994157 1.8202 0
M  V30 9326 C 923.984 -1.78079 0.60577 0
M  V30 9327 O 923.342 -1.75748 -0.445221 0
M  V30 9328 C 923.39 -1.90599 3.06111 0
M  V30 9329 O 922.494 -2.99804 2.8318 0
M  V30 9330 H 921.835 -0.282767 0.600782 0
M  V30 9331 H 924.365 -0.26504 2.02876 0
M  V30 9332 H 924.375 -2.32023 3.35603 0
M  V30 9333 H 923.05 -1.32763 3.9414 0
M  V30 9334 H 921.627 -2.62493 2.64862 0
M  V30 9335 N 923.813 -1.49104 -0.510467 0
M  V30 9336 C 924.76 -1.65074 -1.61305 0
M  V30 9337 C 925.73 -0.492362 -1.58635 0
M  V30 9338 O 926.915 -0.718241 -1.76765 0
M  V30 9339 C 924.055 -1.71457 -2.99493 0
M  V30 9340 C 923.168 -2.98536 -3.12251 0
M  V30 9341 C 922.303 -2.95957 -4.41116 0
M  V30 9342 C 921.342 -4.17655 -4.47471 0
M  V30 9343 N 920.479 -4.13041 -5.67751 0
M  V30 9344 H 925.319 -2.59222 -1.46996 0
M  V30 9345 H 922.856 -1.28535 -0.715346 0
M  V30 9346 H 924.814 -1.7314 -3.79577 0
M  V30 9347 H 923.444 -0.807834 -3.12528 0
M  V30 9348 H 922.496 -3.06509 -2.25292 0
M  V30 9349 H 923.808 -3.88527 -3.12807 0
M  V30 9350 H 922.962 -2.96149 -5.2951 0
M  V30 9351 H 921.701 -2.03728 -4.4311 0
M  V30 9352 H 920.706 -4.17717 -3.57481 0
M  V30 9353 H 921.931 -5.11066 -4.472 0
M  V30 9354 H 919.877 -3.23643 -5.70606 0
M  V30 9355 H 919.794 -4.96757 -5.69884 0
M  V30 9356 H 921.062 -4.17322 -6.58379 0
M  V30 9357 N 925.291 0.760815 -1.38019 0
M  V30 9358 C 926.537 1.52198 -1.34028 0
M  V30 9359 C 926.87 1.94067 0.0718309 0
M  V30 9360 O 926.145 1.64895 1.0315 0
M  V30 9361 C 926.428 2.77954 -2.2894 0
M  V30 9362 C 926.281 2.42269 -3.7898 0
M  V30 9363 C 927.6 3.79943 -2.22107 0
M  V30 9364 H 924.719 0.552131 -0.488181 0
M  V30 9365 H 927.361 0.871971 -1.6881 0
M  V30 9366 H 925.511 3.33419 -1.9941 0
M  V30 9367 H 927.183 1.92635 -4.19153 0
M  V30 9368 H 925.426 1.74822 -3.97014 0
M  V30 9369 H 926.097 3.32211 -4.4084 0
M  V30 9370 H 928.573 3.34 -2.4816 0
M  V30 9371 H 927.449 4.6564 -2.90639 0
M  V30 9372 H 927.71 4.25004 -1.21753 0
M  V30 9373 N 926.769 1.22769 0.988202 0
M  V30 9374 C 928.018 1.0492 1.72263 0
M  V30 9375 C 928.331 -0.415282 1.91141 0
M  V30 9376 O 929.537 -0.713547 2.61956 0
M  V30 9377 C 927.993 1.82891 3.09966 0
M  V30 9378 C 927.601 3.33618 2.99003 0
M  V30 9379 C 929.345 1.73505 3.87423 0
M  V30 9380 C 927.252 4.04012 4.3189 0
M  V30 9381 H 926.182 0.38899 0.645912 0
M  V30 9382 H 928.833 1.46664 1.10281 0
M  V30 9383 H 927.215 1.33948 3.72658 0
M  V30 9384 H 928.389 3.8999 2.45448 0
M  V30 9385 H 926.704 3.43732 2.35027 0
M  V30 9386 H 929.301 2.23416 4.85787 0
M  V30 9387 H 929.644 0.696344 4.10435 0
M  V30 9388 H 930.177 2.20016 3.31418 0
M  V30 9389 H 926.916 5.08155 4.14075 0
M  V30 9390 H 926.436 3.52428 4.8534 0
M  V30 9391 H 928.115 4.0987 5.00615 0
M  V30 9392 N 928.247 -1.18576 1.03814 0
M  V30 9393 C 929.494 -1.88493 0.740036 0
M  V30 9394 C 929.822 -1.80198 -0.732056 0
M  V30 9395 O 929.077 -1.19509 -1.54971 0
M  V30 9396 C 929.376 -3.38448 1.14837 0
M  V30 9397 C 929.042 -3.66947 2.62031 0
M  V30 9398 C 927.704 -3.74435 3.02244 0
M  V30 9399 C 930.056 -3.79534 3.57217 0
M  V30 9400 C 927.384 -3.91986 4.36536 0
M  V30 9401 C 929.736 -3.986 4.91223 0
M  V30 9402 C 928.4 -4.04323 5.31111 0
M  V30 9403 H 927.67 -0.689746 0.270798 0
M  V30 9404 H 930.317 -1.40364 1.3027 0
M  V30 9405 H 928.622 -3.88539 0.504472 0
M  V30 9406 H 930.319 -3.90882 0.89511 0
M  V30 9407 H 926.909 -3.61734 2.29883 0
M  V30 9408 H 931.093 -3.73083 3.27296 0
M  V30 9409 H 926.349 -3.9466 4.66962 0
M  V30 9410 H 930.523 -4.07281 5.64885 0
M  V30 9411 H 928.15 -4.17676 6.35178 0
M  V30 9412 N 929.725 -0.817259 -1.34754 0
M  V30 9413 C 930.971 -0.403244 -1.98751 0
M  V30 9414 C 931.304 1.02963 -1.64658 0
M  V30 9415 O 930.579 1.71617 -0.915314 0
M  V30 9416 C 930.862 -0.599188 -3.5508 0
M  V30 9417 C 930.715 -2.07777 -3.98934 0
M  V30 9418 C 932.034 -0.0315656 -4.40089 0
M  V30 9419 H 929.153 -0.147988 -0.721989 0
M  V30 9420 H 931.795 -1.02877 -1.59738 0
M  V30 9421 H 929.945 -0.0667116 -3.88443 0
M  V30 9422 H 931.617 -2.67345 -3.75931 0
M  V30 9423 H 929.86 -2.57031 -3.49453 0
M  V30 9424 H 930.531 -2.16571 -5.07741 0
M  V30 9425 H 933.007 -0.48644 -4.13247 0
M  V30 9426 H 931.883 -0.198507 -5.48541 0
M  V30 9427 H 932.144 1.06302 -4.2913 0
M  V30 9428 N 931.203 1.46865 -0.571711 0
M  V30 9429 C 932.113 2.33979 0.170571 0
M  V30 9430 C 933.129 1.49083 0.897239 0
M  V30 9431 O 934.305 1.81979 0.862888 0
M  V30 9432 C 931.37 3.26063 1.17831 0
M  V30 9433 C 930.431 4.26855 0.457499 0
M  V30 9434 C 929.664 5.14539 1.41722 0
M  V30 9435 O 929.887 5.04945 2.65305 0
M  V30 9436 O 928.821 5.94612 0.9338 0
M  V30 9437 H 932.647 2.98781 -0.544396 0
M  V30 9438 H 930.232 1.4566 -0.332198 0
M  V30 9439 H 932.114 3.82903 1.75965 0
M  V30 9440 H 930.789 2.63871 1.87493 0
M  V30 9441 H 929.696 3.73734 -0.165406 0
M  V30 9442 H 931.029 4.91802 -0.197953 0
M  V30 9443 N 932.681 0.308908 1.54543 0
M  V30 9444 C 933.628 -0.563659 2.23811 0
M  V30 9445 C 934.598 -1.12332 1.22355 0
M  V30 9446 O 935.783 -1.16638 1.50997 0
M  V30 9447 C 932.923 -1.72585 2.98845 0
M  V30 9448 C 932.036 -1.19682 4.1509 0
M  V30 9449 C 931.171 -2.32351 4.77688 0
M  V30 9450 C 930.21 -1.76623 5.86064 0
M  V30 9451 N 929.347 -2.82896 6.42584 0
M  V30 9452 H 934.187 0.0336288 2.97981 0
M  V30 9453 H 931.724 0.0283666 1.47073 0
M  V30 9454 H 933.682 -2.40951 3.40586 0
M  V30 9455 H 932.312 -2.29464 2.27037 0
M  V30 9456 H 931.364 -0.405173 3.78236 0
M  V30 9457 H 932.676 -0.748923 4.93146 0
M  V30 9458 H 931.83 -3.0865 5.22322 0
M  V30 9459 H 930.569 -2.80472 3.98982 0
M  V30 9460 H 929.574 -0.988171 5.40847 0
M  V30 9461 H 930.799 -1.29398 6.66658 0
M  V30 9462 H 928.745 -3.30336 5.66758 0
M  V30 9463 H 928.662 -2.42626 7.16009 0
M  V30 9464 H 929.93 -3.59068 6.91875 0
M  V30 9465 N 934.159 -1.57557 0.0367827 0
M  V30 9466 C 935.122 -2.09591 -0.927589 0
M  V30 9467 C 936.122 -1.01252 -1.24919 0
M  V30 9468 O 937.312 -1.27382 -1.18825 0
M  V30 9469 C 934.444 -2.56816 -2.24184 0
M  V30 9470 H 935.637 -2.96086 -0.476784 0
M  V30 9471 H 933.19 -1.54864 -0.211385 0
M  V30 9472 H 933.925 -1.73673 -2.73876 0
M  V30 9473 H 933.71 -3.35973 -2.0215 0
M  V30 9474 H 935.2 -2.97271 -2.93291 0
M  V30 9475 N 935.637 0.236453 -1.55816 0
M  V30 9476 C 937.048 0.80468 -1.68469 0
M  V30 9477 C 937.399 1.85601 -0.636133 0
M  V30 9478 O 936.524 2.15323 0.215622 0
M  V30 9479 C 937.119 1.46634 -3.05424 0
M  V30 9480 C 935.678 1.98214 -3.19981 0
M  V30 9481 C 934.825 0.83695 -2.64368 0
M  V30 9482 H 937.776 0.0120647 -1.58695 0
M  V30 9483 H 937.797 2.33472 -3.00451 0
M  V30 9484 H 937.309 0.700931 -3.81718 0
M  V30 9485 H 935.41 2.77604 -2.4853 0
M  V30 9486 H 935.523 2.17235 -4.2702 0
M  V30 9487 H 933.887 1.24028 -2.22462 0
M  V30 9488 H 934.67 0.084451 -3.43196 0
M  V30 9489 N 937.115 1.49373 0.502552 0
M  V30 9490 C 938.392 1.49282 1.26389 0
M  V30 9491 C 938.772 0.219674 2.09954 0
M  V30 9492 O 938.12 -0.797991 2.14113 0
M  V30 9493 C 938.33 2.77083 2.12194 0
M  V30 9494 C 939.678 3.26511 2.71433 0
M  V30 9495 O 940.702 2.78189 2.22462 0
M  V30 9496 O 939.561 4.10665 3.60578 0
M  V30 9497 H 936.655 0.597415 0.57186 0
M  V30 9498 H 939.201 1.61634 0.516951 0
M  V30 9499 H 937.973 3.61237 1.50411 0
M  V30 9500 H 937.596 2.67583 2.94084 0
M  V30 9501 N 938.594 -0.753485 1.38421 0
M  V30 9502 C 939.842 -1.50962 1.34368 0
M  V30 9503 C 940.163 -1.94889 -0.0656895 0
M  V30 9504 O 939.433 -1.67652 -1.01339 0
M  V30 9505 H 938.013 -0.559967 0.494415 0
M  V30 9506 H 940.675 -0.895665 1.73101 0
M  V30 9507 H 939.771 -2.40048 1.99458 0
M  V30 9508 N 940.072 -1.23292 -0.981677 0
M  V30 9509 C 941.022 -0.980133 -2.05858 0
M  V30 9510 C 942.006 0.0734044 -1.60732 0
M  V30 9511 O 943.198 -0.138561 -1.76457 0
M  V30 9512 C 940.327 -0.571879 -3.38503 0
M  V30 9513 C 939.413 -1.66075 -3.90231 0
M  V30 9514 N 939.804 -2.89077 -4.15052 0
M  V30 9515 C 938.102 -1.53503 -4.18751 0
M  V30 9516 C 938.803 -3.59567 -4.5726 0
M  V30 9517 N 937.779 -2.87076 -4.61615 0
M  V30 9518 H 941.581 -1.91432 -2.23005 0
M  V30 9519 H 939.095 -1.13211 -1.16434 0
M  V30 9520 H 941.092 -0.372059 -4.15236 0
M  V30 9521 H 939.752 0.355278 -3.2275 0
M  V30 9522 H 940.763 -3.25395 -4.02912 0
M  V30 9523 H 937.44 -0.674891 -4.12009 0
M  V30 9524 H 938.83 -4.65007 -4.84993 0
M  V30 9525 N 941.55 1.18024 -1.04442 0
M  V30 9526 C 942.5 2.19714 -0.609069 0
M  V30 9527 C 943.484 1.57037 0.350473 0
M  V30 9528 O 944.676 1.76192 0.16892 0
M  V30 9529 C 941.805 3.43293 0.0225911 0
M  V30 9530 C 940.891 4.13084 -0.960325 0
M  V30 9531 N 941.282 4.58819 -2.12883 0
M  V30 9532 C 939.58 4.38999 -0.787146 0
M  V30 9533 C 940.281 5.12589 -2.75004 0
M  V30 9534 N 939.257 5.04333 -2.02853 0
M  V30 9535 H 943.059 2.5277 -1.49948 0
M  V30 9536 H 940.573 1.34271 -0.913517 0
M  V30 9537 H 942.57 4.1541 0.352196 0
M  V30 9538 H 941.23 3.11731 0.908495 0
M  V30 9539 H 942.241 4.53148 -2.50754 0
M  V30 9540 H 938.918 4.17472 0.048348 0
M  V30 9541 H 940.308 5.58152 -3.74053 0
M  V30 9542 N 943.028 0.824394 1.34319 0
M  V30 9543 C 944.274 0.413779 1.98534 0
M  V30 9544 C 944.607 -1.02089 1.65201 0
M  V30 9545 O 943.882 -1.71129 0.924402 0
M  V30 9546 C 944.165 0.61801 3.54757 0
M  V30 9547 C 944.018 2.0989 3.97827 0
M  V30 9548 C 945.337 0.0549041 4.40066 0
M  V30 9549 H 942.456 0.151815 0.721194 0
M  V30 9550 H 945.098 1.03723 1.5919 0
M  V30 9551 H 943.248 0.0873107 3.88402 0
M  V30 9552 H 944.92 2.69335 3.74508 0
M  V30 9553 H 943.163 2.58881 3.48085 0
M  V30 9554 H 943.834 2.1926 5.06586 0
M  V30 9555 H 946.31 0.508348 4.12983 0
M  V30 9556 H 945.186 0.227595 5.48428 0
M  V30 9557 H 945.447 -1.04025 4.29687 0
M  V30 9558 N 944.506 -1.46559 0.579492 0
M  V30 9559 C 945.752 -2.03272 0.0722569 0
M  V30 9560 C 946.107 -1.44334 -1.27222 0
M  V30 9561 O 945.4 -0.597848 -1.82034 0
M  V30 9562 C 945.594 -3.57357 -0.0552803 0
M  V30 9563 C 945.423 -4.31238 1.27529 0
M  V30 9564 C 944.193 -4.70272 1.84857 0
M  V30 9565 C 946.391 -4.64978 2.19773 0
M  V30 9566 N 944.373 -5.2889 3.11687 0
M  V30 9567 C 945.744 -5.24132 3.31189 0
M  V30 9568 C 947.799 -4.46908 2.19493 0
M  V30 9569 C 946.502 -5.67123 4.42452 0
M  V30 9570 C 948.528 -4.90914 3.29784 0
M  V30 9571 C 947.89 -5.50136 4.3992 0
M  V30 9572 H 943.989 -0.778937 0.0691416 0
M  V30 9573 H 946.573 -1.78754 0.771683 0
M  V30 9574 H 944.744 -3.81595 -0.723868 0
M  V30 9575 H 946.476 -4.00714 -0.566606 0
M  V30 9576 H 943.231 -4.5293 1.38388 0
M  V30 9577 H 943.655 -5.62723 3.76393 0
M  V30 9578 H 948.297 -4.00459 1.35617 0
M  V30 9579 H 946.015 -6.12552 5.27073 0
M  V30 9580 H 949.601 -4.78687 3.30682 0
M  V30 9581 H 948.481 -5.83564 5.23854 0
M  V30 9582 N 945.984 -0.3171 -1.54377 0
M  V30 9583 C 946.894 0.560867 -2.27797 0
M  V30 9584 C 947.91 1.13473 -1.31908 0
M  V30 9585 O 949.086 1.15608 -1.64914 0
M  V30 9586 C 946.151 1.70886 -3.0166 0
M  V30 9587 C 945.212 1.16745 -4.13121 0
M  V30 9588 C 944.445 2.26073 -4.83453 0
M  V30 9589 O 944.668 3.46292 -4.53252 0
M  V30 9590 O 943.602 1.91856 -5.70504 0
M  V30 9591 H 947.428 -0.035193 -3.0368 0
M  V30 9592 H 945.013 -0.0830062 -1.49169 0
M  V30 9593 H 946.895 2.37736 -3.47936 0
M  V30 9594 H 945.57 2.29122 -2.28658 0
M  V30 9595 H 944.477 0.464224 -3.71209 0
M  V30 9596 H 945.81 0.630307 -4.88147 0
M  V30 9597 N 947.462 1.57535 -0.0451378 0
M  V30 9598 C 948.395 2.06721 0.96653 0
M  V30 9599 C 949.373 0.966392 1.30766 0
M  V30 9600 O 950.557 1.23789 1.42157 0
M  V30 9601 C 947.684 2.50266 2.2822 0
M  V30 9602 C 946.73 3.71525 2.09455 0
M  V30 9603 S 947.563 5.17453 1.37851 0
M  V30 9604 C 948.719 5.64308 2.70753 0
M  V30 9605 H 948.952 2.92207 0.547911 0
M  V30 9606 H 946.485 1.53494 0.166973 0
M  V30 9607 H 948.443 2.76019 3.03849 0
M  V30 9608 H 947.104 1.65097 2.67211 0
M  V30 9609 H 946.297 3.99894 3.06759 0
M  V30 9610 H 945.899 3.46008 1.41967 0
M  V30 9611 H 948.191 5.69525 3.66943 0
M  V30 9612 H 949.134 6.63613 2.47028 0
M  V30 9613 H 949.542 4.92014 2.76736 0
M  V30 9614 N 948.94 -0.228186 1.55939 0
M  V30 9615 C 949.85 -1.30386 1.9503 0
M  V30 9616 C 950.866 -1.51645 0.853218 0
M  V30 9617 O 952.042 -1.64904 1.15623 0
M  V30 9618 C 949.107 -2.63489 2.25332 0
M  V30 9619 C 948.168 -2.5059 3.48573 0
M  V30 9620 C 947.401 -3.77345 3.7742 0
M  V30 9621 O 947.624 -4.80067 3.08045 0
M  V30 9622 O 946.558 -3.74855 4.70922 0
M  V30 9623 H 950.384 -1.0022 2.86687 0
M  V30 9624 H 947.969 -0.430503 1.43063 0
M  V30 9625 H 949.851 -3.4211 2.46046 0
M  V30 9626 H 948.526 -2.93349 1.3685 0
M  V30 9627 H 947.433 -1.70191 3.33145 0
M  V30 9628 H 948.766 -2.2567 4.37417 0
M  V30 9629 N 950.418 -1.49637 -0.494624 0
M  V30 9630 C 951.381 -1.66252 -1.57775 0
M  V30 9631 C 952.381 -0.534054 -1.51672 0
M  V30 9632 O 953.571 -0.800637 -1.54711 0
M  V30 9633 C 950.703 -1.66584 -2.97426 0
M  V30 9634 H 951.896 -2.62864 -1.4437 0
M  V30 9635 H 949.449 -1.38764 -0.719323 0
M  V30 9636 H 950.184 -0.715798 -3.16302 0
M  V30 9637 H 949.969 -2.48543 -3.03264 0
M  V30 9638 H 951.459 -1.81474 -3.76108 0
M  V30 9639 N 951.896 0.746133 -1.38819 0
M  V30 9640 C 952.843 1.86001 -1.36647 0
M  V30 9641 C 953.813 1.6453 -0.227849 0
M  V30 9642 O 954.998 1.86092 -0.421241 0
M  V30 9643 C 952.138 3.23388 -1.20474 0
M  V30 9644 C 951.251 3.5664 -2.43786 0
M  V30 9645 C 950.386 4.8337 -2.20287 0
M  V30 9646 C 949.425 5.09431 -3.39332 0
M  V30 9647 N 948.562 6.2736 -3.1522 0
M  V30 9648 H 953.402 1.87192 -2.31869 0
M  V30 9649 H 950.939 0.914838 -1.15192 0
M  V30 9650 H 952.897 4.02679 -1.09112 0
M  V30 9651 H 951.527 3.21505 -0.288874 0
M  V30 9652 H 950.579 2.72135 -2.65794 0
M  V30 9653 H 951.891 3.71823 -3.3249 0
M  V30 9654 H 951.045 5.70619 -2.06103 0
M  V30 9655 H 949.784 4.70341 -1.28961 0
M  V30 9656 H 948.789 4.20648 -3.54027 0
M  V30 9657 H 950.014 5.24354 -4.31544 0
M  V30 9658 H 947.96 6.15639 -2.26549 0
M  V30 9659 H 947.877 6.43078 -3.97476 0
M  V30 9660 H 949.145 7.17477 -3.04707 0
M  V30 9661 N 953.375 1.23811 0.975125 0
M  V30 9662 C 954.603 1.10019 1.75224 0
M  V30 9663 C 955.018 -0.34791 1.85567 0
M  V30 9664 O 954.375 -1.24043 1.33864 0
M  V30 9665 C 954.426 1.72572 3.1765 0
M  V30 9666 O 954.147 3.11719 3.07836 0
M  V30 9667 C 955.648 1.64292 4.11732 0
M  V30 9668 H 952.868 0.38476 0.549728 0
M  V30 9669 H 955.412 1.63768 1.22476 0
M  V30 9670 H 953.567 1.22843 3.67408 0
M  V30 9671 H 953.981 3.42152 3.97533 0
M  V30 9672 H 955.455 2.12754 5.09352 0
M  V30 9673 H 955.932 0.602722 4.35045 0
M  V30 9674 H 956.538 2.13411 3.6788 0
M  V30 9675 N 954.853 -1.17469 1.05066 0
M  V30 9676 C 956.13 -1.83625 0.673872 0
M  V30 9677 C 956.51 -1.93412 -0.845871 0
M  V30 9678 O 955.858 -1.4677 -1.75131 0
M  V30 9679 C 956.068 -3.21352 1.36139 0
M  V30 9680 C 957.416 -3.97274 1.49863 0
M  V30 9681 O 958.44 -3.30827 1.3203 0
M  V30 9682 O 957.299 -5.16349 1.79013 0
M  V30 9683 H 954.393 -0.792297 0.237055 0
M  V30 9684 H 956.939 -1.24776 1.15017 0
M  V30 9685 H 955.711 -3.0919 2.39827 0
M  V30 9686 H 955.334 -3.87867 0.874364 0
M  V30 9687 N 956.331 -0.831506 -1.3388 0
M  V30 9688 C 957.747 -0.518349 -1.50948 0
M  V30 9689 C 957.947 0.955807 -1.77388 0
M  V30 9690 O 957.003 1.73993 -1.82983 0
M  V30 9691 C 958.316 -1.38531 -2.66889 0
M  V30 9692 C 959.864 -1.38332 -2.80772 0
M  V30 9693 C 960.339 -2.23497 -3.99766 0
M  V30 9694 N 961.83 -2.21167 -4.06988 0
M  V30 9695 C 962.565 -2.83805 -4.98239 0
M  V30 9696 N 962.061 -3.55468 -5.94655 0
M  V30 9697 N 963.854 -2.73314 -4.91178 0
M  V30 9698 H 956.005 -1.78588 -1.14978 0
M  V30 9699 H 958.268 -0.761508 -0.564633 0
M  V30 9700 H 957.974 -2.43255 -2.54007 0
M  V30 9701 H 957.848 -1.05611 -3.62114 0
M  V30 9702 H 960.235 -0.343832 -2.9309 0
M  V30 9703 H 960.316 -1.75256 -1.86331 0
M  V30 9704 H 959.96 -3.27501 -3.88208 0
M  V30 9705 H 959.89 -1.83919 -4.93438 0
M  V30 9706 H 962.381 -1.69046 -3.37982 0
M  V30 9707 H 962.694 -4.00487 -6.60931 0
M  V30 9708 H 961.039 -3.59575 -5.94753 0
M  V30 9709 H 964.23 -2.16897 -4.14817 0
M  V30 9710 H 964.403 -3.22416 -5.62096 0
M  V30 9711 N 957.809 1.4625 -0.587256 0
M  V30 9712 C 959.086 1.95599 -0.00750181 0
M  V30 9713 C 959.466 1.52989 1.45457 0
M  V30 9714 O 958.814 0.782731 2.14676 0
M  V30 9715 C 959.024 3.48513 -0.184309 0
M  V30 9716 C 960.372 4.24565 -0.0544972 0
M  V30 9717 O 961.396 3.5602 -0.113378 0
M  V30 9718 O 960.255 5.46445 0.0774075 0
M  V30 9719 H 957.349 0.825649 0.0472495 0
M  V30 9720 H 959.895 1.56512 -0.655893 0
M  V30 9721 H 958.667 3.72428 -1.20053 0
M  V30 9722 H 958.29 3.9444 0.500301 0
M  V30 9723 N 959.287 0.325282 1.54207 0
M  V30 9724 C 960.217 -0.532574 2.27345 0
M  V30 9725 C 961.198 -1.11791 1.28206 0
M  V30 9726 O 962.383 -1.14272 1.57021 0
M  V30 9727 C 959.513 -1.69274 3.03255 0
M  V30 9728 C 958.467 -1.23662 4.09746 0
M  V30 9729 C 957.793 -2.48386 4.73506 0
M  V30 9730 C 959.093 -0.350244 5.21124 0
M  V30 9731 H 960.787 0.0775108 2.993 0
M  V30 9732 H 958.333 0.0387193 1.43948 0
M  V30 9733 H 960.286 -2.29917 3.53152 0
M  V30 9734 H 959.01 -2.32944 2.28921 0
M  V30 9735 H 957.669 -0.653106 3.60735 0
M  V30 9736 H 957.317 -3.10424 3.95786 0
M  V30 9737 H 957.017 -2.18558 5.45441 0
M  V30 9738 H 958.541 -3.09789 5.26178 0
M  V30 9739 H 959.955 -0.863011 5.66767 0
M  V30 9740 H 958.352 -0.14466 5.99926 0
M  V30 9741 H 959.422 0.618457 4.8094 0
M  V30 9742 N 960.765 -1.57509 0.0534917 0
M  V30 9743 C 962.005 -1.94654 -0.623641 0
M  V30 9744 C 962.369 -0.93184 -1.67871 0
M  V30 9745 O 963.57 -1.19031 -2.41009 0
M  V30 9746 C 961.841 -3.36575 -1.20216 0
M  V30 9747 S 963.4 -3.95677 -1.89697 0
M  V30 9748 H 960.218 -0.680893 -0.20471 0
M  V30 9749 H 962.82 -1.95113 0.122982 0
M  V30 9750 H 961.524 -4.08223 -0.422177 0
M  V30 9751 H 961.055 -3.39617 -1.98555 0
M  V30 9752 H 963.07 -3.81092 -3.17779 0
M  V30 9753 N 962.243 0.219913 -1.56058 0
M  V30 9754 C 963.19 1.27254 -1.92549 0
M  V30 9755 C 964.16 1.46493 -0.782883 0
M  V30 9756 O 965.345 1.60035 -1.03892 0
M  V30 9757 C 962.485 2.61756 -2.24896 0
M  V30 9758 C 961.598 2.50302 -3.52098 0
M  V30 9759 C 960.733 3.77338 -3.73884 0
M  V30 9760 C 959.772 3.60613 -4.94595 0
M  V30 9761 N 958.909 4.79603 -5.12763 0
M  V30 9762 H 963.749 0.954352 -2.82305 0
M  V30 9763 H 961.286 0.459928 -1.39725 0
M  V30 9764 H 963.244 3.40082 -2.4166 0
M  V30 9765 H 961.874 2.91668 -1.38311 0
M  V30 9766 H 960.926 1.63401 -3.43517 0
M  V30 9767 H 962.238 2.33866 -4.40577 0
M  V30 9768 H 961.392 4.64108 -3.90754 0
M  V30 9769 H 960.131 3.96702 -2.83689 0
M  V30 9770 H 959.136 2.72228 -4.77674 0
M  V30 9771 H 960.361 3.42719 -5.86277 0
M  V30 9772 H 958.307 4.99277 -4.2551 0
M  V30 9773 H 958.224 4.65899 -5.95377 0
M  V30 9774 H 959.492 5.67794 -5.34069 0
M  V30 9775 N 963.721 1.49897 0.486681 0
M  V30 9776 C 965.132 1.53142 1.06792 0
M  V30 9777 C 965.483 0.325856 1.93475 0
M  V30 9778 O 964.608 -0.562893 2.08951 0
M  V30 9779 C 965.203 2.77514 1.94348 0
M  V30 9780 C 963.762 2.83491 2.47609 0
M  V30 9781 C 962.909 2.47239 1.2557 0
M  V30 9782 H 965.86 1.56387 0.269962 0
M  V30 9783 H 965.881 2.58487 2.79221 0
M  V30 9784 H 965.393 3.65239 1.31232 0
M  V30 9785 H 963.494 2.0008 3.14323 0
M  V30 9786 H 963.607 3.86011 2.83782 0
M  V30 9787 H 961.971 1.99332 1.58552 0
M  V30 9788 H 962.754 3.37255 0.641404 0
M  V30 9789 N 965.199 -0.738761 1.39212 0
M  V30 9790 C 966.147 -1.8741 1.3777 0
M  V30 9791 C 967.141 -1.67371 0.261375 0
M  V30 9792 O 968.347 -1.74759 0.431209 0
M  V30 9793 H 964.722 -0.616843 0.430126 0
M  V30 9794 H 966.693 -1.85742 2.33543 0
M  V30 9795 C 965.442 -3.25053 1.23433 0
M  V30 9796 H 964.765 -3.41066 2.086 0
M  V30 9797 H 966.205 -4.04696 1.2648 0
M  V30 9798 C 964.664 -3.36851 -0.0575624 0
M  V30 9799 O 965.194 -3.88293 -1.02915 0
M  V30 9800 N 963.4 -2.90355 -0.119364 0
M  V30 9801 H 962.947 -2.48681 0.671976 0
M  V30 9802 H 962.905 -2.98628 -0.983286 0
M  V30 9803 N 966.677 -1.24326 -0.968545 0
M  V30 9804 C 967.902 -1.1104 -1.75171 0
M  V30 9805 C 968.327 0.333109 -1.85127 0
M  V30 9806 O 967.685 1.24115 -1.32156 0
M  V30 9807 C 967.733 -1.75397 -3.15068 0
M  V30 9808 O 966.837 -1.02417 -3.9948 0
M  V30 9809 H 966.178 -0.388488 -0.538491 0
M  V30 9810 H 968.708 -1.64617 -1.215 0
M  V30 9811 H 968.718 -1.8112 -3.65595 0
M  V30 9812 H 967.393 -2.80427 -3.07138 0
M  V30 9813 H 965.97 -1.04475 -3.57966 0
M  V30 9814 N 968.156 1.1691 -1.05688 0
M  V30 9815 C 969.086 2.23275 -0.683402 0
M  V30 9816 C 970.067 1.6704 0.321206 0
M  V30 9817 O 971.252 1.93191 0.197691 0
M  V30 9818 C 968.382 3.47244 -0.0626006 0
M  V30 9819 C 967.336 4.16333 -0.992513 0
M  V30 9820 C 966.662 5.34182 -0.23533 0
M  V30 9821 C 967.962 4.68002 -2.31886 0
M  V30 9822 H 969.656 2.54771 -1.57264 0
M  V30 9823 H 967.202 1.2246 -0.757606 0
M  V30 9824 H 969.155 4.20874 0.210503 0
M  V30 9825 H 967.879 3.1503 0.861616 0
M  V30 9826 H 966.538 3.44622 -1.25026 0
M  V30 9827 H 966.186 4.9822 0.69181 0
M  V30 9828 H 965.886 5.81346 -0.855002 0
M  V30 9829 H 967.41 6.10592 0.0303717 0
M  V30 9830 H 968.824 5.33244 -2.10531 0
M  V30 9831 H 967.221 5.25764 -2.89296 0
M  V30 9832 H 968.291 3.84541 -2.95391 0
M  V30 9833 N 969.634 0.838594 1.33437 0
M  V30 9834 C 970.88 0.434813 1.98084 0
M  V30 9835 C 971.213 -1.00331 1.66275 0
M  V30 9836 O 970.488 -1.70139 0.942501 0
M  V30 9837 C 970.771 0.655602 3.54082 0
M  V30 9838 C 970.624 2.14097 3.95578 0
M  V30 9839 C 971.943 0.101576 4.39983 0
M  V30 9840 H 969.062 0.159456 0.719544 0
M  V30 9841 H 971.704 1.05406 1.58081 0
M  V30 9842 H 969.854 0.128501 3.88287 0
M  V30 9843 H 971.526 2.73292 3.71631 0
M  V30 9844 H 969.769 2.62558 3.4532 0
M  V30 9845 H 970.44 2.24621 5.04231 0
M  V30 9846 H 972.916 0.552122 4.12421 0
M  V30 9847 H 971.792 0.28575 5.48156 0
M  V30 9848 H 972.053 -0.994616 4.30767 0
M  V30 9849 N 971.112 -1.45937 0.595003 0
M  V30 9850 C 972.358 -2.0262 0.0854317 0
M  V30 9851 C 972.691 -1.46402 -1.27594 0
M  V30 9852 O 971.966 -0.633823 -1.83883 0
M  V30 9853 C 972.249 -3.60085 0.0329075 0
M  V30 9854 C 972.102 -4.26663 1.42405 0
M  V30 9855 C 973.421 -4.35101 -0.661426 0
M  V30 9856 H 970.54 -0.736282 0.0325196 0
M  V30 9857 H 973.182 -1.73938 0.764563 0
M  V30 9858 H 971.332 -3.84652 -0.545439 0
M  V30 9859 H 973.004 -4.13321 2.04851 0
M  V30 9860 H 971.247 -3.85549 1.98833 0
M  V30 9861 H 971.918 -5.35497 1.33965 0
M  V30 9862 H 974.394 -4.15753 -0.169977 0
M  V30 9863 H 973.27 -5.44829 -0.667243 0
M  V30 9864 H 973.531 -4.07053 -1.72513 0
M  V30 9865 N 972.59 -0.333456 -1.54032 0
M  V30 9866 C 973.5 0.536674 -2.28379 0
M  V30 9867 C 974.516 1.12068 -1.33104 0
M  V30 9868 O 975.692 1.13853 -1.66131 0
M  V30 9869 C 972.757 1.67677 -3.03456 0
M  V30 9870 C 971.818 1.12357 -4.14336 0
M  V30 9871 C 971.051 2.20933 -4.85823 0
M  V30 9872 O 971.274 3.41466 -4.569 0
M  V30 9873 O 970.208 1.85795 -5.72507 0
M  V30 9874 H 974.034 -0.0674003 -3.03625 0
M  V30 9875 H 971.619 -0.098823 -1.49073 0
M  V30 9876 H 973.501 2.34032 -3.50438 0
M  V30 9877 H 972.176 2.26684 -2.31076 0
M  V30 9878 H 971.083 0.424827 -3.7168 0
M  V30 9879 H 972.416 0.578497 -4.88789 0
M  V30 9880 N 974.068 1.57479 -0.061844 0
M  V30 9881 C 975.317 1.92285 0.609055 0
M  V30 9882 C 975.63 0.942983 1.71369 0
M  V30 9883 O 976.836 1.18349 2.44348 0
M  V30 9884 C 975.292 3.41545 1.13468 0
M  V30 9885 C 974.9 4.47958 0.0615926 0
M  V30 9886 C 976.644 3.85368 1.78022 0
M  V30 9887 C 974.551 5.88341 0.600705 0
M  V30 9888 H 973.481 0.717656 0.23127 0
M  V30 9889 H 976.132 1.83021 -0.132466 0
M  V30 9890 H 974.514 3.45848 1.92886 0
M  V30 9891 H 975.688 4.55258 -0.712527 0
M  V30 9892 H 974.003 4.13541 -0.487116 0
M  V30 9893 H 976.6 4.87627 2.19371 0
M  V30 9894 H 976.943 3.22193 2.63623 0
M  V30 9895 H 977.476 3.83626 1.05242 0
M  V30 9896 H 974.215 6.55138 -0.217922 0
M  V30 9897 H 973.735 5.84581 1.34257 0
M  V30 9898 H 975.414 6.37918 1.08025 0
M  V30 9899 N 975.546 -0.211634 1.56173 0
M  V30 9900 C 976.957 -0.777776 1.69728 0
M  V30 9901 C 977.308 -1.84566 0.66558 0
M  V30 9902 O 976.433 -2.15639 -0.181338 0
M  V30 9903 C 977.028 -1.41757 3.07718 0
M  V30 9904 C 975.587 -1.93098 3.23094 0
M  V30 9905 C 974.734 -0.794785 2.65666 0
M  V30 9906 H 977.685 0.0131839 1.58695 0
M  V30 9907 H 977.706 -2.28662 3.04128 0
M  V30 9908 H 977.218 -0.640114 3.82785 0
M  V30 9909 H 975.319 -2.73615 2.52914 0
M  V30 9910 H 975.432 -2.10414 4.30422 0
M  V30 9911 H 973.796 -1.20473 2.24407 0
M  V30 9912 H 974.579 -0.0298408 3.43287 0
M  V30 9913 N 977.024 -1.50153 -0.478725 0
M  V30 9914 C 978.435 -1.53706 -1.05978 0
M  V30 9915 C 978.786 -0.336112 -1.933 0
M  V30 9916 O 977.911 0.551803 -2.09246 0
M  V30 9917 C 978.506 -2.78541 -1.92874 0
M  V30 9918 C 977.065 -2.848 -2.46102 0
M  V30 9919 C 976.212 -2.47902 -1.24257 0
M  V30 9920 H 979.163 -1.56528 -0.261664 0
M  V30 9921 H 979.184 -2.59964 -2.77847 0
M  V30 9922 H 978.696 -3.6593 -1.29293 0
M  V30 9923 H 976.797 -2.01744 -3.13257 0
M  V30 9924 H 976.91 -3.87511 -2.81731 0
M  V30 9925 H 975.274 -2.0017 -1.57493 0
M  V30 9926 H 976.057 -3.3759 -0.62351 0
M  V30 9927 N 978.502 0.731368 -1.39602 0
M  V30 9928 C 979.749 1.491 -1.37024 0
M  V30 9929 C 980.077 1.94473 0.0326423 0
M  V30 9930 O 979.332 1.6737 1.01418 0
M  V30 9931 C 979.631 2.74224 -2.29208 0
M  V30 9932 C 979.297 2.477 -3.7677 0
M  V30 9933 C 977.959 2.40175 -4.16976 0
M  V30 9934 C 980.311 2.25098 -4.70086 0
M  V30 9935 C 977.639 2.08095 -5.48556 0
M  V30 9936 C 979.991 1.94534 -6.01946 0
M  V30 9937 C 978.655 1.85481 -6.41212 0
M  V30 9938 H 977.925 0.545595 -0.501405 0
M  V30 9939 H 980.572 0.839127 -1.72136 0
M  V30 9940 H 978.877 3.44171 -1.87225 0
M  V30 9941 H 980.574 3.32264 -2.24504 0
M  V30 9942 H 977.164 2.54436 -3.44906 0
M  V30 9943 H 981.348 2.29876 -4.39853 0
M  V30 9944 H 976.604 1.99611 -5.77897 0
M  V30 9945 H 980.778 1.76054 -6.73779 0
M  V30 9946 H 978.405 1.60389 -7.43088 0
M  V30 9947 N 979.98 1.24838 0.961938 0
M  V30 9948 C 981.396 1.01502 1.23165 0
M  V30 9949 C 981.596 -0.272651 1.99647 0
M  V30 9950 O 980.652 -0.987297 2.32398 0
M  V30 9951 C 981.965 2.23366 2.01316 0
M  V30 9952 C 983.513 2.28051 2.14387 0
M  V30 9953 C 983.988 3.49552 2.95935 0
M  V30 9954 N 985.479 3.49904 3.03515 0
M  V30 9955 C 986.214 4.40577 3.66987 0
M  V30 9956 N 985.71 5.41512 4.3213 0
M  V30 9957 N 987.503 4.28275 3.64056 0
M  V30 9958 H 979.654 2.07576 0.450086 0
M  V30 9959 H 981.917 0.911205 0.261551 0
M  V30 9960 H 981.623 3.16913 1.5251 0
M  V30 9961 H 981.497 2.25949 3.02038 0
M  V30 9962 H 983.884 1.35032 2.62393 0
M  V30 9963 H 983.965 2.29491 1.12994 0
M  V30 9964 H 983.609 4.42889 2.4862 0
M  V30 9965 H 983.539 3.45357 3.97538 0
M  V30 9966 H 986.03 2.76885 2.57183 0
M  V30 9967 H 986.343 6.06924 4.78396 0
M  V30 9968 H 984.688 5.45393 4.3078 0
M  V30 9969 H 987.879 3.48653 3.12344 0
M  V30 9970 H 988.052 4.99138 4.13237 0
M  V30 9971 N 981.458 -1.16348 1.06306 0
M  V30 9972 C 982.406 -2.22799 0.668087 0
M  V30 9973 C 983.4 -1.66426 -0.316051 0
M  V30 9974 O 984.606 -1.79089 -0.180902 0
M  V30 9975 H 980.981 -0.725487 0.19792 0
M  V30 9976 H 982.952 -2.53401 1.57577 0
M  V30 9977 C 981.701 -3.47628 0.0706797 0
M  V30 9978 H 981.024 -3.9132 0.819064 0
M  V30 9979 H 982.464 -4.23666 -0.16816 0
M  V30 9980 C 980.923 -3.15343 -1.18577 0
M  V30 9981 O 981.453 -3.31158 -2.27371 0
M  V30 9982 N 979.659 -2.69472 -1.08779 0
M  V30 9983 H 979.206 -2.56803 -0.202447 0
M  V30 9984 H 979.164 -2.48244 -1.92931 0
M  V30 9985 N 982.937 -0.845659 -1.3299 0
M  V30 9986 C 983.869 -0.241097 -2.27928 0
M  V30 9987 C 984.882 0.582048 -1.5204 0
M  V30 9988 O 986.071 0.408008 -1.73774 0
M  V30 9989 C 983.171 0.678652 -3.32035 0
M  V30 9990 C 982.344 -0.106652 -4.3727 0
M  V30 9991 C 981.403 0.737478 -5.21006 0
M  V30 9992 O 980.429 0.174231 -5.68933 0
M  V30 9993 N 981.631 2.05372 -5.42957 0
M  V30 9994 H 984.396 -1.05685 -2.80448 0
M  V30 9995 H 981.957 -0.704771 -1.45755 0
M  V30 9996 H 983.949 1.24849 -3.84961 0
M  V30 9997 H 982.519 1.3951 -2.79742 0
M  V30 9998 H 981.739 -0.857897 -3.84752 0
M  V30 9999 H 983.027 -0.646386 -5.04677 0
M  V30 10000 H 982.425 2.53478 -5.05733 0
M  V30 10001 H 980.982 2.5719 -5.98913 0
M  V30 10002 N 984.415 1.45619 -0.602734 0
M  V30 10003 C 985.831 1.57368 -0.26599 0
M  V30 10004 C 986.031 1.59485 1.23154 0
M  V30 10005 O 985.087 1.52254 2.01432 0
M  V30 10006 C 986.4 2.85863 -0.932881 0
M  V30 10007 C 987.948 2.9953 -0.908344 0
M  V30 10008 C 988.423 4.30789 -1.55515 0
M  V30 10009 N 989.914 4.37536 -1.52042 0
M  V30 10010 C 990.649 5.37758 -1.99008 0
M  V30 10011 N 990.145 6.44544 -2.54038 0
M  V30 10012 N 991.938 5.29085 -1.89805 0
M  V30 10013 H 984.089 1.42489 -1.57514 0
M  V30 10014 H 986.352 0.680948 -0.659556 0
M  V30 10015 H 986.058 2.90183 -1.98713 0
M  V30 10016 H 985.932 3.74467 -0.453209 0
M  V30 10017 H 988.319 2.9478 0.137344 0
M  V30 10018 H 988.4 2.12349 -1.42623 0
M  V30 10019 H 988.044 4.36297 -2.60014 0
M  V30 10020 H 987.974 5.16778 -1.01232 0
M  V30 10021 H 990.465 3.60972 -1.11837 0
M  V30 10022 H 990.778 7.17258 -2.87682 0
M  V30 10023 H 989.123 6.45308 -2.58075 0
M  V30 10024 H 992.314 4.44566 -1.46556 0
M  V30 10025 H 992.487 6.07043 -2.26722 0
M  V30 10026 N 985.893 0.34162 1.53853 0
M  V30 10027 C 987.142 -0.256475 2.00063 0
M  V30 10028 C 987.455 -1.51811 1.23341 0
M  V30 10029 O 988.661 -2.19332 1.60017 0
M  V30 10030 C 987.117 -0.507567 3.56303 0
M  V30 10031 C 986.725 0.738052 4.41879 0
M  V30 10032 C 988.469 -1.06463 4.10933 0
M  V30 10033 C 986.376 0.457865 5.89625 0
M  V30 10034 H 985.306 -0.0996143 0.747391 0
M  V30 10035 H 987.957 0.456649 1.77727 0
M  V30 10036 H 986.339 -1.28134 3.74697 0
M  V30 10037 H 987.513 1.51278 4.3526 0
M  V30 10038 H 985.828 1.21661 3.98231 0
M  V30 10039 H 988.425 -1.28918 5.18926 0
M  V30 10040 H 988.768 -2.01956 3.64032 0
M  V30 10041 H 989.301 -0.351601 3.96243 0
M  V30 10042 H 986.04 1.38247 6.40756 0
M  V30 10043 H 985.56 -0.278818 5.99152 0
M  V30 10044 H 987.239 0.0743914 6.46957 0
M  V30 10045 N 987.371 -1.57444 0.0701946 0
M  V30 10046 C 988.599 -1.97754 -0.608358 0
M  V30 10047 C 989.014 -0.948496 -1.63245 0
M  V30 10048 O 988.371 0.065046 -1.82384 0
M  V30 10049 C 988.422 -3.38142 -1.27836 0
M  V30 10050 O 988.143 -4.37104 -0.295255 0
M  V30 10051 C 989.644 -3.93318 -2.04489 0
M  V30 10052 H 986.864 -0.650398 -0.164997 0
M  V30 10053 H 989.408 -2.04006 0.142124 0
M  V30 10054 H 987.563 -3.32982 -1.97994 0
M  V30 10055 H 987.977 -5.18732 -0.77574 0
M  V30 10056 H 989.451 -4.93774 -2.46762 0
M  V30 10057 H 989.928 -3.29774 -2.90079 0
M  V30 10058 H 990.534 -4.01875 -1.39201 0
M  V30 10059 N 988.849 0.203349 -1.56283 0
M  V30 10060 C 990.074 0.945548 -1.84592 0
M  V30 10061 C 990.499 1.7641 -0.652772 0
M  V30 10062 O 989.857 1.76867 0.398468 0
M  V30 10063 C 989.905 1.82416 -3.11057 0
M  V30 10064 O 989.009 2.92191 -2.9103 0
M  V30 10065 H 988.35 0.266739 -0.608068 0
M  V30 10066 H 990.88 0.211158 -2.03507 0
M  V30 10067 H 990.89 2.23044 -3.41636 0
M  V30 10068 H 989.565 1.22267 -3.97522 0
M  V30 10069 H 988.142 2.55378 -2.71728 0
M  V30 10070 N 990.327 1.50405 0.470755 0
M  V30 10071 C 991.738 1.54266 1.05162 0
M  V30 10072 C 992.089 0.346359 1.93119 0
M  V30 10073 O 991.214 -0.540699 2.09536 0
M  V30 10074 C 991.809 2.7956 1.91394 0
M  V30 10075 C 990.368 2.86101 2.44588 0
M  V30 10076 C 989.515 2.48557 1.22941 0
M  V30 10077 H 992.466 1.56665 0.253359 0
M  V30 10078 H 992.487 2.61434 2.76464 0
M  V30 10079 H 991.999 3.66611 1.27351 0
M  V30 10080 H 990.1 2.03403 3.12183 0
M  V30 10081 H 990.213 3.88999 2.79672 0
M  V30 10082 H 988.577 2.01003 1.56429 0
M  V30 10083 H 989.36 3.37916 0.605598 0
M  V30 10084 N 991.805 -0.723954 1.39988 0
M  V30 10085 C 993.051 -1.48591 1.38017 0
M  V30 10086 C 993.384 -1.94189 -0.0203522 0
M  V30 10087 O 992.659 -1.67572 -0.987422 0
M  V30 10088 C 992.942 -2.71786 2.36229 0
M  V30 10089 C 992.795 -2.32136 3.8527 0
M  V30 10090 C 994.114 -3.73921 2.32102 0
M  V30 10091 H 991.233 -0.538993 0.502648 0
M  V30 10092 H 993.875 -0.826908 1.71062 0
M  V30 10093 H 992.025 -3.28015 2.0818 0
M  V30 10094 H 993.697 -1.81454 4.24113 0
M  V30 10095 H 991.94 -1.64234 4.01509 0
M  V30 10096 H 992.611 -3.20406 4.49493 0
M  V30 10097 H 995.087 -3.27303 2.56928 0
M  V30 10098 H 993.963 -4.5777 3.02882 0
M  V30 10099 H 994.224 -4.21627 1.32979 0
M  V30 10100 N 993.283 -1.25346 -0.955304 0
M  V30 10101 C 994.233 -1.02358 -2.03732 0
M  V30 10102 C 995.217 0.0392941 -1.60852 0
M  V30 10103 O 996.409 -0.175959 -1.76123 0
M  V30 10104 C 993.538 -0.643552 -3.37214 0
M  V30 10105 C 992.624 -1.74315 -3.8662 0
M  V30 10106 N 993.015 -2.97816 -4.08827 0
M  V30 10107 C 991.313 -1.62351 -4.15401 0
M  V30 10108 C 992.014 -3.69185 -4.4953 0
M  V30 10109 N 990.99 -2.96803 -4.55422 0
M  V30 10110 H 994.792 -1.96119 -2.18894 0
M  V30 10111 H 992.306 -1.15655 -1.14007 0
M  V30 10112 H 994.303 -0.460053 -4.14354 0
M  V30 10113 H 992.963 0.286738 -3.23431 0
M  V30 10114 H 993.974 -3.33868 -3.95919 0
M  V30 10115 H 990.651 -0.762133 -4.10485 0
M  V30 10116 H 992.041 -4.7519 -4.7502 0
M  V30 10117 N 994.761 1.15782 -1.06922 0
M  V30 10118 C 996.007 1.86741 -0.790922 0
M  V30 10119 C 996.34 1.81863 0.681149 0
M  V30 10120 O 995.615 1.23871 1.49954 0
M  V30 10121 C 995.898 3.36038 -1.29422 0
M  V30 10122 C 995.751 3.49573 -2.83052 0
M  V30 10123 C 997.07 4.30647 -0.907239 0
M  V30 10124 H 994.189 0.678064 -0.288787 0
M  V30 10125 H 996.831 1.36054 -1.32624 0
M  V30 10126 H 994.981 3.79336 -0.838843 0
M  V30 10127 H 996.653 3.1517 -3.36847 0
M  V30 10128 H 994.896 2.91275 -3.21467 0
M  V30 10129 H 995.567 4.5445 -3.13335 0
M  V30 10130 H 998.043 3.95286 -1.29956 0
M  V30 10131 H 996.919 5.33604 -1.28679 0
M  V30 10132 H 997.18 4.41703 0.187251 0
M  V30 10133 N 996.239 0.8527 1.3254 0
M  V30 10134 C 997.464 0.468157 2.02047 0
M  V30 10135 C 997.889 -0.926967 1.63673 0
M  V30 10136 O 997.247 -1.60855 0.836378 0
M  V30 10137 C 997.295 0.612519 3.5536 0
M  V30 10138 O 996.399 -0.355506 4.10865 0
M  V30 10139 H 995.74 0.188401 0.636711 0
M  V30 10140 H 998.27 1.15135 1.6913 0
M  V30 10141 H 998.28 0.499315 4.04933 0
M  V30 10142 H 996.955 1.62988 3.82632 0
M  V30 10143 H 995.532 -0.198703 3.7237 0
M  V30 10144 N 997.718 -1.45297 0.610449 0
M  V30 10145 C 998.965 -2.02218 0.106759 0
M  V30 10146 C 999.293 -1.47849 -1.26376 0
M  V30 10147 O 998.548 -0.644402 -1.84786 0
M  V30 10148 C 998.847 -3.57394 0.0205329 0
M  V30 10149 C 998.513 -4.30928 1.32709 0
M  V30 10150 C 997.175 -4.50735 1.68498 0
M  V30 10151 C 999.527 -4.72936 2.19046 0
M  V30 10152 C 996.855 -5.09806 2.90371 0
M  V30 10153 C 999.207 -5.33355 3.40169 0
M  V30 10154 C 997.871 -5.51384 3.76207 0
M  V30 10155 H 997.141 -0.739969 0.039066 0
M  V30 10156 H 999.788 -1.74326 0.792638 0
M  V30 10157 H 998.093 -3.84581 -0.748623 0
M  V30 10158 H 999.79 -3.99144 -0.385386 0
M  V30 10159 H 996.38 -4.15827 1.03854 0
M  V30 10160 H 1000.56 -4.57365 1.92695 0
M  V30 10161 H 995.82 -5.21953 3.18395 0
M  V30 10162 H 999.994 -5.64859 4.07318 0
M  V30 10163 H 997.621 -5.96924 4.70729 0
M  V30 10164 N 999.196 -0.349774 -1.5367 0
M  V30 10165 C 1000.43 0.245682 -2.05134 0
M  V30 10166 C 1000.83 1.44269 -1.22406 0
M  V30 10167 O 1000.18 1.81938 -0.25379 0
M  V30 10168 C 1000.24 0.718439 -3.52248 0
M  V30 10169 C 999.903 -0.35975 -4.55582 0
M  V30 10170 C 1000.9 -1.20449 -5.05755 0
M  V30 10171 C 998.585 -0.515463 -4.99648 0
M  V30 10172 C 1000.58 -2.19043 -5.98581 0
M  V30 10173 C 998.266 -1.50479 -5.92283 0
M  V30 10174 C 999.264 -2.34072 -6.41638 0
M  V30 10175 O 998.952 -3.31319 -7.3245 0
M  V30 10176 H 998.684 0.0501122 -0.67414 0
M  V30 10177 H 1001.24 -0.5018 -1.99176 0
M  V30 10178 H 999.468 1.51727 -3.55691 0
M  V30 10179 H 1001.16 1.23513 -3.86651 0
M  V30 10180 H 1001.92 -1.09531 -4.7247 0
M  V30 10181 H 997.802 0.12537 -4.60829 0
M  V30 10182 H 1001.35 -2.84327 -6.37027 0
M  V30 10183 H 997.243 -1.61451 -6.24983 0
M  V30 10184 H 998.011 -3.26863 -7.50402 0
M  V30 10185 N 1000.67 1.57404 -0.0785433 0
M  V30 10186 C 1001.92 1.94031 0.589896 0
M  V30 10187 C 1002.25 0.959297 1.68852 0
M  V30 10188 O 1001.53 -0.0103978 1.94497 0
M  V30 10189 C 1001.81 3.40886 1.16055 0
M  V30 10190 C 1001.66 4.49748 0.0681072 0
M  V30 10191 C 1002.98 3.88699 2.06401 0
M  V30 10192 H 1000.1 0.70556 0.212965 0
M  V30 10193 H 1002.74 1.89439 -0.145886 0
M  V30 10194 H 1000.89 3.4493 1.78761 0
M  V30 10195 H 1002.57 4.57823 -0.565318 0
M  V30 10196 H 1000.81 4.29625 -0.600431 0
M  V30 10197 H 1001.48 5.49658 0.507906 0
M  V30 10198 H 1003.96 3.86703 1.53622 0
M  V30 10199 H 1002.83 4.92052 2.43261 0
M  V30 10200 H 1003.09 3.2703 2.97496 0
M  V30 10201 N 1002.15 -0.195058 1.56388 0
M  V30 10202 C 1003.39 -0.92221 1.82413 0
M  V30 10203 C 1003.76 -1.80444 0.656037 0
M  V30 10204 O 1004.96 -2.56738 0.796182 0
M  V30 10205 C 1003.23 -1.71687 3.13462 0
M  V30 10206 S 1004.79 -2.49604 3.60892 0
M  V30 10207 H 1001.6 -0.309316 0.640191 0
M  V30 10208 H 1004.21 -0.185613 1.94617 0
M  V30 10209 H 1002.91 -1.05936 3.96492 0
M  V30 10210 H 1002.44 -2.49529 3.04137 0
M  V30 10211 H 1004.46 -3.73794 3.26332 0
M  V30 10212 N 1003.63 -1.50653 -0.462772 0
M  V30 10213 C 1004.58 -1.70661 -1.58043 0
M  V30 10214 C 1005.57 -0.572533 -1.59432 0
M  V30 10215 O 1006.78 -0.753257 -1.63481 0
M  V30 10216 H 1003.15 -0.538805 -0.524588 0
M  V30 10217 H 1005.12 -2.64399 -1.38332 0
M  V30 10218 C 1003.87 -1.82558 -2.95919 0
M  V30 10219 H 1003.2 -2.69216 -2.95572 0
M  V30 10220 H 1004.64 -2.0058 -3.73556 0
M  V30 10221 C 1003.09 -0.57916 -3.31885 0
M  V30 10222 O 1003.62 0.277888 -4.00738 0
M  V30 10223 N 1001.83 -0.430723 -2.8739 0
M  V30 10224 H 1001.38 -1.1292 -2.31531 0
M  V30 10225 H 1001.34 0.402061 -3.11819 0
M  V30 10226 N 1005.11 0.71652 -1.4037 0
M  V30 10227 C 1006.36 1.47347 -1.38324 0
M  V30 10228 C 1006.68 1.94995 0.0139949 0
M  V30 10229 O 1005.95 1.7028 0.968585 0
M  V30 10230 H 1004.53 0.546662 -0.509087 0
M  V30 10231 H 1007.19 0.849455 -1.75415 0
M  V30 10232 H 1006.29 2.34675 -2.05752 0
M  V30 10233 N 1006.59 1.25851 0.948643 0
M  V30 10234 C 1007.53 1.06759 2.04625 0
M  V30 10235 C 1008.5 -0.0251144 1.66081 0
M  V30 10236 O 1009.69 0.133221 1.90334 0
M  V30 10237 C 1006.83 0.698724 3.37952 0
M  V30 10238 C 1005.94 1.8669 3.89578 0
M  V30 10239 C 1005.08 1.44184 5.11258 0
M  V30 10240 C 1004.12 2.57878 5.55126 0
M  V30 10241 N 1003.25 2.16106 6.68014 0
M  V30 10242 H 1008.09 2.00691 2.20289 0
M  V30 10243 H 1005.63 0.999327 1.07944 0
M  V30 10244 H 1007.59 0.465788 4.14592 0
M  V30 10245 H 1006.22 -0.203618 3.22157 0
M  V30 10246 H 1005.27 2.21298 3.09405 0
M  V30 10247 H 1006.58 2.72051 4.18079 0
M  V30 10248 H 1005.74 1.16891 5.95333 0
M  V30 10249 H 1004.47 0.559035 4.84485 0
M  V30 10250 H 1003.48 2.85909 4.69612 0
M  V30 10251 H 1004.7 3.46747 5.83904 0
M  V30 10252 H 1002.65 1.3025 6.42939 0
M  V30 10253 H 1002.57 2.95012 6.96063 0
M  V30 10254 H 1003.84 1.92005 7.55483 0
M  V30 10255 N 1008.06 -1.15214 1.07534 0
M  V30 10256 C 1009.48 -1.38031 0.801228 0
M  V30 10257 C 1009.68 -1.92556 -0.593672 0
M  V30 10258 O 1008.74 -2.1325 -1.35206 0
M  V30 10259 C 1010.05 -2.34958 1.87657 0
M  V30 10260 C 1011.6 -2.48617 1.90154 0
M  V30 10261 C 1012.07 -3.48837 2.96777 0
M  V30 10262 N 1013.56 -3.56374 2.95892 0
M  V30 10263 C 1014.3 -4.33746 3.75036 0
M  V30 10264 N 1013.79 -5.14435 4.64036 0
M  V30 10265 N 1015.59 -4.28853 3.63375 0
M  V30 10266 H 1007.74 -0.781639 1.97495 0
M  V30 10267 H 1010 -0.406243 0.856546 0
M  V30 10268 H 1009.71 -2.02013 2.87895 0
M  V30 10269 H 1009.58 -3.3476 1.73827 0
M  V30 10270 H 1011.97 -2.80859 0.905666 0
M  V30 10271 H 1012.05 -1.48808 2.08062 0
M  V30 10272 H 1011.69 -3.1733 3.96565 0
M  V30 10273 H 1011.62 -4.48406 2.76116 0
M  V30 10274 H 1014.11 -2.98784 2.31379 0
M  V30 10275 H 1014.43 -5.70722 5.21053 0
M  V30 10276 H 1012.77 -5.13734 4.68084 0
M  V30 10277 H 1015.96 -3.64882 2.93221 0
M  V30 10278 H 1016.14 -4.88903 4.25298 0
M  V30 10279 N 1009.54 -0.859717 -1.32086 0
M  V30 10280 C 1010.49 -0.306042 -2.28762 0
M  V30 10281 C 1011.46 0.589801 -1.55276 0
M  V30 10282 O 1012.64 0.523633 -1.83474 0
M  V30 10283 C 1009.78 0.495256 -3.41528 0
M  V30 10284 C 1008.9 -0.426947 -4.29885 0
M  V30 10285 C 1008.03 0.387474 -5.29785 0
M  V30 10286 C 1007.07 -0.531807 -6.09785 0
M  V30 10287 N 1006.21 0.245741 -7.0167 0
M  V30 10288 H 1011.05 -1.1357 -2.7551 0
M  V30 10289 H 1008.59 -0.571468 -1.35546 0
M  V30 10290 H 1010.54 0.97551 -4.05635 0
M  V30 10291 H 1009.17 1.28969 -2.95917 0
M  V30 10292 H 1008.23 -1.02561 -3.66313 0
M  V30 10293 H 1009.54 -1.13226 -4.85779 0
M  V30 10294 H 1008.69 0.930677 -5.99519 0
M  V30 10295 H 1007.43 1.12612 -4.74521 0
M  V30 10296 H 1006.44 -1.08685 -5.3895 0
M  V30 10297 H 1007.66 -1.26915 -6.67135 0
M  V30 10298 H 1005.61 0.967391 -6.48828 0
M  V30 10299 H 1005.52 -0.400432 -7.54939 0
M  V30 10300 H 1006.79 0.770507 -7.75683 0
M  V30 10301 N 1011.02 1.44971 -0.618145 0
M  V30 10302 C 1012.44 1.57077 -0.282666 0
M  V30 10303 C 1012.64 1.60782 1.21456 0
M  V30 10304 O 1011.69 1.54382 1.99806 0
M  V30 10305 C 1013.01 2.84858 -0.963148 0
M  V30 10306 C 1014.55 2.9855 -0.940062 0
M  V30 10307 C 1015.03 4.29115 -1.60076 0
M  V30 10308 N 1016.52 4.35899 -1.56674 0
M  V30 10309 C 1017.25 5.35617 -2.04701 0
M  V30 10310 N 1016.75 6.41813 -2.6086 0
M  V30 10311 N 1018.54 5.27042 -1.95406 0
M  V30 10312 H 1010.69 1.4081 -1.59017 0
M  V30 10313 H 1012.96 0.673914 -0.666741 0
M  V30 10314 H 1012.66 2.88059 -2.0178 0
M  V30 10315 H 1012.54 3.73966 -0.492901 0
M  V30 10316 H 1014.92 2.94909 0.10607 0
M  V30 10317 H 1015.01 2.10825 -1.44868 0
M  V30 10318 H 1014.65 4.33514 -2.64627 0
M  V30 10319 H 1014.58 5.15675 -1.06708 0
M  V30 10320 H 1017.07 3.59766 -1.15659 0
M  V30 10321 H 1017.38 7.14166 -2.95273 0
M  V30 10322 H 1015.73 6.42534 -2.64905 0
M  V30 10323 H 1018.92 4.42987 -1.51263 0
M  V30 10324 H 1019.09 6.04604 -2.33147 0
M  V30 10325 N 1012.5 0.357919 1.53482 0
M  V30 10326 C 1013.72 -0.237769 2.06033 0
M  V30 10327 C 1014.15 -1.42292 1.23023 0
M  V30 10328 O 1013.51 -1.79604 0.247427 0
M  V30 10329 C 1013.55 -0.616806 3.55286 0
M  V30 10330 O 1012.66 -1.71503 3.75047 0
M  V30 10331 H 1012 -0.0364322 0.663 0
M  V30 10332 H 1014.53 0.516301 1.97979 0
M  V30 10333 H 1014.54 -0.88996 3.98175 0
M  V30 10334 H 1013.21 0.249825 4.15149 0
M  V30 10335 H 1011.79 -1.43803 3.44057 0
M  V30 10336 N 1013.98 -1.5736 0.0868897 0
M  V30 10337 C 1014.91 -2.10582 -0.904858 0
M  V30 10338 C 1015.92 -1.04124 -1.25148 0
M  V30 10339 O 1017.11 -1.31595 -1.20603 0
M  V30 10340 C 1014.21 -2.56381 -2.21635 0
M  V30 10341 C 1013.38 -3.86581 -2.04631 0
M  V30 10342 C 1012.44 -4.18313 -3.19219 0
M  V30 10343 O 1011.47 -4.87669 -2.93544 0
M  V30 10344 N 1012.67 -3.73061 -4.44754 0
M  V30 10345 H 1015.44 -2.96297 -0.450352 0
M  V30 10346 H 1013 -1.616 -0.0984376 0
M  V30 10347 H 1014.99 -2.7466 -2.97227 0
M  V30 10348 H 1013.56 -1.75721 -2.58536 0
M  V30 10349 H 1012.78 -3.77532 -1.13417 0
M  V30 10350 H 1014.07 -4.71777 -1.90537 0
M  V30 10351 H 1013.46 -3.1706 -4.68497 0
M  V30 10352 H 1012.02 -3.96511 -5.17322 0
M  V30 10353 N 1015.45 0.186762 -1.56489 0
M  V30 10354 C 1016.68 0.920495 -1.84961 0
M  V30 10355 C 1017.09 1.77004 -0.668297 0
M  V30 10356 O 1016.44 1.79891 0.37213 0
M  V30 10357 C 1016.5 1.85997 -3.07645 0
M  V30 10358 C 1016.16 1.19156 -4.41193 0
M  V30 10359 C 1017.16 0.564446 -5.16827 0
M  V30 10360 C 1014.84 1.19292 -4.87929 0
M  V30 10361 C 1016.84 -0.0523768 -6.37378 0
M  V30 10362 C 1014.52 0.572266 -6.08415 0
M  V30 10363 C 1015.52 -0.049294 -6.82982 0
M  V30 10364 O 1015.21 -0.660201 -8.01184 0
M  V30 10365 H 1014.94 0.273659 -0.618132 0
M  V30 10366 H 1017.5 0.196437 -2.04459 0
M  V30 10367 H 1015.73 2.62394 -2.84053 0
M  V30 10368 H 1017.42 2.46221 -3.22692 0
M  V30 10369 H 1018.18 0.555474 -4.81809 0
M  V30 10370 H 1014.06 1.66611 -4.29839 0
M  V30 10371 H 1017.6 -0.538133 -6.95521 0
M  V30 10372 H 1013.5 0.578769 -6.429 0
M  V30 10373 H 1014.27 -0.557926 -8.16596 0
M  V30 10374 N 1016.93 1.50896 0.454776 0
M  V30 10375 C 1017.86 1.6712 1.56855 0
M  V30 10376 C 1018.88 0.552223 1.53148 0
M  V30 10377 O 1020.07 0.825969 1.5824 0
M  V30 10378 C 1017.17 1.65464 2.95762 0
M  V30 10379 C 1016.34 2.93662 3.24163 0
M  V30 10380 C 1015.4 2.84428 4.42704 0
M  V30 10381 O 1014.42 3.58382 4.42211 0
M  V30 10382 N 1015.63 1.9909 5.45292 0
M  V30 10383 H 1018.39 2.63194 1.43349 0
M  V30 10384 H 1015.95 1.48564 0.643457 0
M  V30 10385 H 1017.94 1.56878 3.73057 0
M  V30 10386 H 1016.51 0.770568 3.02954 0
M  V30 10387 H 1015.73 3.16251 2.35328 0
M  V30 10388 H 1017.02 3.78558 3.39957 0
M  V30 10389 H 1016.42 1.3835 5.48521 0
M  V30 10390 H 1014.98 1.96396 6.21508 0
M  V30 10391 N 1018.41 -0.709066 1.40748 0
M  V30 10392 C 1019.83 -1.01797 1.22921 0
M  V30 10393 C 1020.03 -2.01205 0.109011 0
M  V30 10394 O 1019.08 -2.46854 -0.530987 0
M  V30 10395 C 1020.4 -1.55546 2.57344 0
M  V30 10396 C 1021.94 -1.67498 2.64412 0
M  V30 10397 C 1022.42 -2.24652 3.99119 0
M  V30 10398 N 1023.91 -2.3203 4.00895 0
M  V30 10399 C 1024.64 -2.7725 5.01917 0
M  V30 10400 N 1024.14 -3.22174 6.13332 0
M  V30 10401 N 1025.93 -2.76692 4.89283 0
M  V30 10402 H 1018.08 -0.0502704 2.12341 0
M  V30 10403 H 1020.35 -0.0848933 0.944191 0
M  V30 10404 H 1020.05 -0.899631 3.39999 0
M  V30 10405 H 1019.93 -2.53971 2.78888 0
M  V30 10406 H 1022.31 -2.32196 1.82123 0
M  V30 10407 H 1022.4 -0.676553 2.46691 0
M  V30 10408 H 1022.04 -1.60573 4.81849 0
M  V30 10409 H 1021.97 -3.25221 4.14173 0
M  V30 10410 H 1024.46 -2.00309 3.20444 0
M  V30 10411 H 1024.77 -3.55265 6.86299 0
M  V30 10412 H 1023.12 -3.20116 6.16888 0
M  V30 10413 H 1026.31 -2.40936 4.01332 0
M  V30 10414 H 1026.48 -3.11617 5.68154 0
M  V30 10415 N 1019.89 -1.26353 -0.941956 0
M  V30 10416 C 1021.14 -1.11851 -1.68806 0
M  V30 10417 C 1021.46 0.33829 -1.91535 0
M  V30 10418 O 1020.72 1.26495 -1.49324 0
M  V30 10419 C 1021.02 -1.83195 -3.06879 0
M  V30 10420 C 1020.68 -3.33093 -3.03908 0
M  V30 10421 C 1019.35 -3.73982 -3.02805 0
M  V30 10422 C 1021.7 -4.28803 -2.96273 0
M  V30 10423 C 1019.03 -5.08971 -2.91832 0
M  V30 10424 C 1021.38 -5.6383 -2.86842 0
M  V30 10425 C 1020.04 -6.04032 -2.84081 0
M  V30 10426 H 1019.31 -0.409293 -0.617706 0
M  V30 10427 H 1021.96 -1.56785 -1.09957 0
M  V30 10428 H 1020.26 -1.30728 -3.69347 0
M  V30 10429 H 1021.96 -1.69416 -3.63455 0
M  V30 10430 H 1018.55 -3.00566 -3.05546 0
M  V30 10431 H 1022.74 -3.98195 -2.96234 0
M  V30 10432 H 1017.99 -5.39282 -2.88072 0
M  V30 10433 H 1022.17 -6.37676 -2.79898 0
M  V30 10434 H 1019.79 -7.08586 -2.75335 0
M  V30 10435 N 1021.37 1.14642 -1.08144 0
M  V30 10436 C 1022.6 1.89484 -0.830864 0
M  V30 10437 C 1023.01 1.78443 0.616722 0
M  V30 10438 O 1022.37 1.14191 1.42361 0
M  V30 10439 C 1022.42 3.39554 -1.24039 0
M  V30 10440 O 1022.14 3.50286 -2.63119 0
M  V30 10441 C 1023.64 4.31399 -1.02029 0
M  V30 10442 H 1020.86 0.600283 -0.299835 0
M  V30 10443 H 1023.4 1.45204 -1.44001 0
M  V30 10444 H 1021.56 3.81467 -0.675407 0
M  V30 10445 H 1021.97 4.43481 -2.80045 0
M  V30 10446 H 1023.45 5.35079 -1.35625 0
M  V30 10447 H 1023.92 4.39179 0.0428697 0
M  V30 10448 H 1024.53 3.95238 -1.57057 0
M  V30 10449 N 1022.85 0.866709 1.31628 0
M  V30 10450 C 1024.08 0.489679 2.00713 0
M  V30 10451 C 1024.48 -0.921492 1.65243 0
M  V30 10452 O 1023.83 -1.61467 0.876012 0
M  V30 10453 C 1023.89 0.563148 3.55062 0
M  V30 10454 C 1023.55 1.93535 4.13996 0
M  V30 10455 C 1024.55 2.90243 4.31341 0
M  V30 10456 C 1022.23 2.23578 4.49798 0
M  V30 10457 C 1024.23 4.15138 4.83673 0
M  V30 10458 C 1021.92 3.48723 5.01832 0
M  V30 10459 C 1022.91 4.44319 5.18719 0
M  V30 10460 O 1022.6 5.67247 5.69637 0
M  V30 10461 H 1022.33 0.189605 0.648865 0
M  V30 10462 H 1024.89 1.16874 1.68907 0
M  V30 10463 H 1023.12 -0.172815 3.86314 0
M  V30 10464 H 1024.81 0.200009 4.05407 0
M  V30 10465 H 1025.57 2.6834 4.04003 0
M  V30 10466 H 1021.45 1.49949 4.35932 0
M  V30 10467 H 1025 4.89762 4.96769 0
M  V30 10468 H 1020.89 3.70471 5.28603 0
M  V30 10469 H 1021.66 5.69372 5.88011 0
M  V30 10470 N 1024.32 -1.44642 0.625825 0
M  V30 10471 C 1025.25 -2.33397 -0.0692188 0
M  V30 10472 C 1026.23 -1.47898 -0.840241 0
M  V30 10473 O 1027.42 -1.7663 -0.807176 0
M  V30 10474 C 1024.55 -3.30888 -1.055 0
M  V30 10475 C 1023.5 -4.26164 -0.395968 0
M  V30 10476 C 1022.83 -5.13483 -1.49128 0
M  V30 10477 C 1024.13 -5.17663 0.694433 0
M  V30 10478 H 1025.82 -2.91763 0.671925 0
M  V30 10479 H 1023.37 -1.40294 0.324573 0
M  V30 10480 H 1025.32 -3.91861 -1.54993 0
M  V30 10481 H 1024.05 -2.7072 -1.82696 0
M  V30 10482 H 1022.71 -3.66516 0.0782691 0
M  V30 10483 H 1022.35 -4.49672 -2.25399 0
M  V30 10484 H 1022.05 -5.78038 -1.05573 0
M  V30 10485 H 1023.58 -5.77327 -1.98813 0
M  V30 10486 H 1024.99 -5.72602 0.282818 0
M  V30 10487 H 1023.39 -5.90793 1.05281 0
M  V30 10488 H 1024.46 -4.58994 1.56372 0
M  V30 10489 N 1025.8 -0.366053 -1.5329 0
M  V30 10490 C 1027.21 0.113056 -1.86357 0
M  V30 10491 C 1027.56 1.48123 -1.28662 0
M  V30 10492 O 1026.69 2.07658 -0.608849 0
M  V30 10493 C 1027.28 0.211923 -3.38137 0
M  V30 10494 C 1025.84 0.635289 -3.71 0
M  V30 10495 C 1024.99 -0.217203 -2.76448 0
M  V30 10496 H 1027.94 -0.584829 -1.47531 0
M  V30 10497 H 1027.96 1.0354 -3.66142 0
M  V30 10498 H 1027.47 -0.783994 -3.80099 0
M  V30 10499 H 1025.57 1.63942 -3.34595 0
M  V30 10500 H 1025.69 0.409571 -4.77346 0
M  V30 10501 H 1024.05 0.313988 -2.52757 0
M  V30 10502 H 1024.83 -1.21067 -3.21244 0
M  V30 10503 N 1027.28 1.57312 -0.0952337 0
M  V30 10504 C 1028.24 2.12889 0.849161 0
M  V30 10505 C 1029.24 1.05819 1.21075 0
M  V30 10506 O 1030.43 1.31704 1.14016 0
M  V30 10507 C 1027.56 2.6496 2.14498 0
M  V30 10508 H 1028.76 2.97651 0.366566 0
M  V30 10509 H 1026.31 1.55542 0.153762 0
M  V30 10510 H 1027.05 1.83718 2.67242 0
M  V30 10511 H 1026.83 3.43244 1.89542 0
M  V30 10512 H 1028.32 3.07952 2.82056 0
M  V30 10513 N 1028.76 -0.17846 1.56586 0
M  V30 10514 C 1029.71 -1.24042 1.96765 0
M  V30 10515 C 1030.7 -1.46218 0.855375 0
M  V30 10516 O 1031.91 -1.46882 1.04046 0
M  V30 10517 H 1028.28 -0.416807 0.62592 0
M  V30 10518 H 1030.25 -0.874644 2.85294 0
M  V30 10519 C 1029 -2.57394 2.3376 0
M  V30 10520 H 1028.32 -2.41151 3.18883 0
M  V30 10521 H 1029.76 -3.30405 2.65723 0
M  V30 10522 C 1028.22 -3.15621 1.17835 0
M  V30 10523 O 1028.75 -3.99032 0.462202 0
M  V30 10524 N 1026.96 -2.74606 0.950783 0
M  V30 10525 H 1026.51 -2.06878 1.5349 0
M  V30 10526 H 1026.46 -3.13902 0.176967 0
M  V30 10527 N 1030.24 -1.51135 -0.446768 0
M  V30 10528 C 1031.48 -1.63578 -1.19875 0
M  V30 10529 C 1031.81 -0.346478 -1.91084 0
M  V30 10530 O 1031.09 0.653447 -1.83195 0
M  V30 10531 C 1031.37 -2.83275 -2.22323 0
M  V30 10532 C 1031.23 -4.22155 -1.55259 0
M  V30 10533 C 1032.54 -2.98496 -3.23401 0
M  V30 10534 H 1029.66 -0.595333 -0.434452 0
M  V30 10535 H 1032.31 -1.83593 -0.48923 0
M  V30 10536 H 1030.46 -2.6634 -2.82834 0
M  V30 10537 H 1032.13 -4.50736 -0.981571 0
M  V30 10538 H 1030.37 -4.25288 -0.855122 0
M  V30 10539 H 1031.04 -5.01882 -2.29823 0
M  V30 10540 H 1033.52 -3.14079 -2.72935 0
M  V30 10541 H 1032.39 -3.83828 -3.92386 0
M  V30 10542 H 1032.65 -2.10157 -3.88956 0
M  V30 10543 N 1031.71 0.701592 -1.41122 0
M  V30 10544 C 1033.12 1.28129 -1.35793 0
M  V30 10545 C 1033.48 1.96163 -0.0381185 0
M  V30 10546 O 1032.6 1.98416 0.863723 0
M  V30 10547 C 1033.2 2.33005 -2.45955 0
M  V30 10548 C 1031.75 2.86566 -2.44043 0
M  V30 10549 C 1030.9 1.60526 -2.26112 0
M  V30 10550 H 1033.85 0.496756 -1.50725 0
M  V30 10551 H 1033.87 3.14163 -2.14667 0
M  V30 10552 H 1033.39 1.8346 -3.42 0
M  V30 10553 H 1031.49 3.40304 -1.51737 0
M  V30 10554 H 1031.6 3.37406 -3.40138 0
M  V30 10555 H 1029.96 1.86113 -1.7388 0
M  V30 10556 H 1030.75 1.12985 -3.24175 0
M  V30 10557 N 1033.19 1.2685 0.935242 0
M  V30 10558 C 1034.44 1.12132 1.67658 0
M  V30 10559 C 1034.75 -0.333839 1.9273 0
M  V30 10560 O 1035.96 -0.601801 2.64746 0
M  V30 10561 C 1034.42 1.95873 3.0193 0
M  V30 10562 C 1034.02 3.46 2.84584 0
M  V30 10563 C 1035.77 1.89781 3.79715 0
M  V30 10564 C 1033.67 4.21966 4.14365 0
M  V30 10565 H 1032.6 0.416035 0.628833 0
M  V30 10566 H 1035.26 1.51209 1.03962 0
M  V30 10567 H 1033.64 1.49633 3.66641 0
M  V30 10568 H 1034.81 4.00049 2.28687 0
M  V30 10569 H 1033.13 3.53391 2.20236 0
M  V30 10570 H 1035.72 2.43819 4.75875 0
M  V30 10571 H 1036.07 0.869797 4.07112 0
M  V30 10572 H 1036.6 2.33875 3.21788 0
M  V30 10573 H 1033.34 5.2526 3.9215 0
M  V30 10574 H 1032.86 3.72696 4.69955 0
M  V30 10575 H 1034.54 4.30734 4.82781 0
M  V30 10576 N 1034.67 -1.14067 1.0875 0
M  V30 10577 C 1035.92 -1.84535 0.814235 0
M  V30 10578 C 1036.23 -1.84044 -0.662355 0
M  V30 10579 O 1037.44 -2.50336 -1.05091 0
M  V30 10580 C 1035.89 -3.31273 1.40663 0
M  V30 10581 C 1035.5 -3.40171 2.91526 0
M  V30 10582 C 1037.25 -4.0683 1.21201 0
M  V30 10583 C 1035.15 -4.81141 3.43885 0
M  V30 10584 H 1034.08 -0.691346 0.300926 0
M  V30 10585 H 1036.73 -1.28562 1.30935 0
M  V30 10586 H 1035.12 -3.87005 0.839215 0
M  V30 10587 H 1036.29 -2.94471 3.54434 0
M  V30 10588 H 1034.61 -2.78073 3.09942 0
M  V30 10589 H 1037.2 -5.10891 1.57781 0
M  V30 10590 H 1037.55 -4.16022 0.152092 0
M  V30 10591 H 1038.08 -3.57408 1.74655 0
M  V30 10592 H 1034.82 -4.77138 4.49466 0
M  V30 10593 H 1034.34 -5.27365 2.85738 0
M  V30 10594 H 1036.02 -5.50042 3.40681 0
M  V30 10595 N 1036.15 -0.873678 -1.31166 0
M  V30 10596 C 1037.1 -0.330288 -2.28424 0
M  V30 10597 C 1038.07 0.573299 -1.55893 0
M  V30 10598 O 1039.25 0.504143 -1.84019 0
M  V30 10599 C 1036.39 0.459004 -3.42034 0
M  V30 10600 C 1035.5 -0.472519 -4.29408 0
M  V30 10601 C 1034.64 0.331261 -5.30166 0
M  V30 10602 C 1033.68 -0.596453 -6.09187 0
M  V30 10603 N 1032.81 0.171305 -7.01891 0
M  V30 10604 H 1037.65 -1.16485 -2.7429 0
M  V30 10605 H 1035.19 -0.585813 -1.34932 0
M  V30 10606 H 1037.15 0.932432 -4.06647 0
M  V30 10607 H 1035.78 1.25824 -2.97268 0
M  V30 10608 H 1034.83 -1.06441 -3.65205 0
M  V30 10609 H 1036.14 -1.18372 -4.84551 0
M  V30 10610 H 1035.3 0.867038 -6.00473 0
M  V30 10611 H 1034.04 1.07573 -4.75688 0
M  V30 10612 H 1033.04 -1.14395 -5.37767 0
M  V30 10613 H 1034.27 -1.33983 -6.65752 0
M  V30 10614 H 1032.21 0.89852 -6.49817 0
M  V30 10615 H 1032.13 -0.480481 -7.54472 0
M  V30 10616 H 1033.4 0.688192 -7.76456 0
M  V30 10617 N 1037.63 1.44308 -0.633487 0
M  V30 10618 C 1038.85 2.06384 -0.146063 0
M  V30 10619 C 1039.27 1.47357 1.18031 0
M  V30 10620 O 1038.63 0.597334 1.72448 0
M  V30 10621 C 1038.68 3.61489 -0.0276722 0
M  V30 10622 O 1038.4 4.18318 -1.3016 0
M  V30 10623 C 1039.9 4.40604 0.488168 0
M  V30 10624 H 1037.12 0.666122 -0.0807632 0
M  V30 10625 H 1039.66 1.85139 -0.868557 0
M  V30 10626 H 1037.82 3.81988 0.645273 0
M  V30 10627 H 1038.23 5.11783 -1.14797 0
M  V30 10628 H 1039.71 5.49545 0.520013 0
M  V30 10629 H 1040.18 4.12218 1.51568 0
M  V30 10630 H 1040.79 4.2503 -0.151608 0
M  V30 10631 N 1039.1 0.374177 1.53094 0
M  V30 10632 C 1040.01 -0.475935 2.29722 0
M  V30 10633 C 1041.03 -1.085 1.36029 0
M  V30 10634 O 1042.21 -1.09408 1.69091 0
M  V30 10635 C 1039.27 -1.59572 3.07795 0
M  V30 10636 C 1038.33 -1.01332 4.17169 0
M  V30 10637 C 1037.57 -2.07975 4.9151 0
M  V30 10638 O 1037.79 -3.29232 4.65793 0
M  V30 10639 O 1036.72 -1.7055 5.77232 0
M  V30 10640 H 1040.55 0.147877 3.0334 0
M  V30 10641 H 1038.13 0.138312 1.48758 0
M  V30 10642 H 1040.02 -2.24658 3.5652 0
M  V30 10643 H 1038.69 -2.20478 2.37005 0
M  V30 10644 H 1037.6 -0.326133 3.72676 0
M  V30 10645 H 1038.93 -0.4487 4.90151 0
M  V30 10646 N 1040.58 -1.57259 0.103575 0
M  V30 10647 C 1041.99 -1.81816 -0.424239 0
M  V30 10648 C 1042.34 -1.01976 -1.67617 0
M  V30 10649 O 1041.47 -0.251673 -2.14932 0
M  V30 10650 C 1042.06 -3.29783 -0.776453 0
M  V30 10651 C 1040.62 -3.55074 -1.24897 0
M  V30 10652 C 1039.77 -2.76172 -0.249875 0
M  V30 10653 H 1042.72 -1.55254 0.328913 0
M  V30 10654 H 1042.74 -3.43569 -1.63526 0
M  V30 10655 H 1042.25 -3.87865 0.134906 0
M  V30 10656 H 1040.36 -3.02332 -2.17775 0
M  V30 10657 H 1040.47 -4.637 -1.20495 0
M  V30 10658 H 1038.83 -2.43902 -0.733767 0
M  V30 10659 H 1039.62 -3.37007 0.65431 0
M  V30 10660 N 1042.06 0.170153 -1.56679 0
M  V30 10661 C 1043.29 0.902134 -1.86197 0
M  V30 10662 C 1043.7 1.75775 -0.689098 0
M  V30 10663 O 1043.06 1.79271 0.341763 0
M  V30 10664 C 1043.11 1.77792 -3.14757 0
M  V30 10665 O 1042.83 0.956817 -4.27524 0
M  V30 10666 C 1044.33 2.61947 -3.57629 0
M  V30 10667 H 1041.55 0.262026 -0.617724 0
M  V30 10668 H 1044.1 0.169899 -2.03793 0
M  V30 10669 H 1042.25 2.46348 -2.98984 0
M  V30 10670 H 1042.67 1.5559 -5.00891 0
M  V30 10671 H 1044.14 3.19011 -4.50484 0
M  V30 10672 H 1044.62 3.36873 -2.81803 0
M  V30 10673 H 1045.22 1.98721 -3.76019 0
M  V30 10674 N 1043.54 1.5137 0.438746 0
M  V30 10675 C 1044.82 1.54508 1.19944 0
M  V30 10676 C 1045.2 0.308525 2.08833 0
M  V30 10677 O 1044.54 -0.706461 2.17305 0
M  V30 10678 C 1044.75 2.85833 2.00251 0
M  V30 10679 C 1046.1 3.37729 2.5734 0
M  V30 10680 O 1047.13 2.87374 2.10463 0
M  V30 10681 O 1045.98 4.25589 3.42836 0
M  V30 10682 H 1043.08 0.621132 0.546007 0
M  V30 10683 H 1045.62 1.63682 0.447931 0
M  V30 10684 H 1044.4 3.67291 1.34955 0
M  V30 10685 H 1044.02 2.79815 2.8247 0
M  V30 10686 N 1045.02 -0.694098 1.41492 0
M  V30 10687 C 1046.29 -1.44875 1.31418 0
M  V30 10688 C 1046.67 -2.11022 -0.0575538 0
M  V30 10689 O 1046.02 -2.01799 -1.07188 0
M  V30 10690 C 1046.23 -2.46698 2.46863 0
M  V30 10691 C 1047.58 -3.11907 2.88095 0
M  V30 10692 O 1048.6 -2.57022 2.46613 0
M  V30 10693 O 1047.46 -4.11318 3.59833 0
M  V30 10694 H 1044.56 -0.645266 0.517263 0
M  V30 10695 H 1047.1 -0.724452 1.53459 0
M  V30 10696 H 1045.87 -1.96485 3.38392 0
M  V30 10697 H 1045.5 -3.26634 2.26706 0
M  V30 10698 N 1046.49 -1.27344 -0.928501 0
M  V30 10699 C 1047.72 -1.16278 -1.70772 0
M  V30 10700 C 1048.13 0.283131 -1.8707 0
M  V30 10701 O 1047.48 1.20466 -1.38685 0
M  V30 10702 C 1047.54 -1.77313 -3.1273 0
M  V30 10703 C 1047.2 -3.26488 -3.19773 0
M  V30 10704 C 1048.2 -4.23133 -3.02083 0
M  V30 10705 C 1045.88 -3.67182 -3.42757 0
M  V30 10706 C 1047.88 -5.5845 -3.07267 0
M  V30 10707 C 1045.56 -5.02629 -3.47574 0
M  V30 10708 C 1046.56 -5.98072 -3.29847 0
M  V30 10709 O 1046.25 -7.3105 -3.34397 0
M  V30 10710 H 1045.98 -0.405215 -0.541089 0
M  V30 10711 H 1048.54 -1.68707 -1.17163 0
M  V30 10712 H 1046.77 -1.19361 -3.67818 0
M  V30 10713 H 1048.46 -1.60972 -3.72616 0
M  V30 10714 H 1049.22 -3.93031 -2.84168 0
M  V30 10715 H 1045.1 -2.93369 -3.55606 0
M  V30 10716 H 1048.64 -6.32924 -2.93348 0
M  V30 10717 H 1044.54 -5.32387 -3.65013 0
M  V30 10718 H 1045.31 -7.39488 -3.50857 0
M  V30 10719 N 1047.97 1.13488 -1.09353 0
M  V30 10720 C 1048.88 2.2248 -0.744307 0
M  V30 10721 C 1049.9 1.72145 0.253404 0
M  V30 10722 O 1051.07 2.01176 0.0949339 0
M  V30 10723 C 1048.14 3.46286 -0.16928 0
M  V30 10724 C 1047.2 4.11516 -1.22284 0
M  V30 10725 C 1046.43 5.29412 -0.675161 0
M  V30 10726 O 1046.66 5.68185 0.502182 0
M  V30 10727 O 1045.59 5.8467 -1.42983 0
M  V30 10728 H 1049.42 2.54723 -1.65378 0
M  V30 10729 H 1047 1.21607 -0.867879 0
M  V30 10730 H 1048.88 4.2114 0.14811 0
M  V30 10731 H 1047.56 3.15745 0.713214 0
M  V30 10732 H 1046.47 3.38492 -1.59292 0
M  V30 10733 H 1047.8 4.46186 -2.07796 0
M  V30 10734 N 1049.45 0.880621 1.30701 0
M  V30 10735 C 1050.86 0.547993 1.78477 0
M  V30 10736 C 1051.21 -0.935633 1.72454 0
M  V30 10737 O 1050.34 -1.73094 1.29874 0
M  V30 10738 C 1050.93 0.98795 3.24076 0
M  V30 10739 C 1049.49 0.706805 3.69704 0
M  V30 10740 C 1048.64 1.17335 2.51252 0
M  V30 10741 H 1051.59 1.06528 1.17633 0
M  V30 10742 H 1051.61 0.31508 3.79193 0
M  V30 10743 H 1051.12 2.06778 3.28427 0
M  V30 10744 H 1049.22 -0.36122 3.70845 0
M  V30 10745 H 1049.34 1.2913 4.6137 0
M  V30 10746 H 1047.7 0.592808 2.47705 0
M  V30 10747 H 1048.48 2.26083 2.58343 0
M  V30 10748 N 1050.93 -1.4397 0.641131 0
M  V30 10749 C 1051.89 -2.29149 -0.0482243 0
M  V30 10750 C 1052.89 -1.41572 -0.762495 0
M  V30 10751 O 1054.08 -1.63335 -0.605571 0
M  V30 10752 C 1051.21 -3.23375 -1.07896 0
M  V30 10753 H 1052.41 -2.9159 0.70109 0
M  V30 10754 H 1049.96 -1.51048 0.401754 0
M  V30 10755 H 1050.7 -2.65804 -1.85792 0
M  V30 10756 H 1050.48 -3.87926 -0.570597 0
M  V30 10757 H 1051.97 -3.87337 -1.56075 0
M  V30 10758 N 1052.41 -0.382291 -1.52893 0
M  V30 10759 C 1053.82 0.0932841 -1.86467 0
M  V30 10760 C 1054.17 1.4675 -1.30226 0
M  V30 10761 O 1053.29 2.07001 -0.63084 0
M  V30 10762 C 1053.89 0.176048 -3.38342 0
M  V30 10763 C 1052.45 0.595904 -3.71653 0
M  V30 10764 C 1051.6 -0.246511 -2.76202 0
M  V30 10765 H 1054.55 -0.600443 -1.46903 0
M  V30 10766 H 1054.57 0.996512 -3.67219 0
M  V30 10767 H 1054.08 -0.824264 -3.79246 0
M  V30 10768 H 1052.18 1.60384 -3.36315 0
M  V30 10769 H 1052.29 0.358919 -4.77754 0
M  V30 10770 H 1050.66 0.287162 -2.53076 0
M  V30 10771 H 1051.44 -1.24467 -3.19942 0
M  V30 10772 N 1053.89 1.57202 -0.111913 0
M  V30 10773 C 1055.11 1.99297 0.555713 0
M  V30 10774 C 1055.53 0.991444 1.60673 0
M  V30 10775 O 1054.89 -0.0166672 1.82492 0
M  V30 10776 C 1054.94 3.41413 1.18826 0
M  V30 10777 O 1054.66 4.37733 0.179261 0
M  V30 10778 C 1056.16 3.98602 1.93989 0
M  V30 10779 H 1053.38 0.654543 0.147695 0
M  V30 10780 H 1055.92 2.03557 -0.196163 0
M  V30 10781 H 1054.08 3.38115 1.89096 0
M  V30 10782 H 1054.49 5.20606 0.637935 0
M  V30 10783 H 1055.97 5.00143 2.33584 0
M  V30 10784 H 1056.44 3.37349 2.81233 0
M  V30 10785 H 1057.05 4.05424 1.28497 0
M  V30 10786 N 1055.36 -0.161842 1.56767 0
M  V30 10787 C 1056.6 -0.88331 1.84329 0
M  V30 10788 C 1056.97 -1.79012 0.694165 0
M  V30 10789 O 1058.17 -2.54991 0.850461 0
M  V30 10790 C 1056.44 -1.65 3.17033 0
M  V30 10791 S 1058 -2.41893 3.66106 0
M  V30 10792 H 1054.82 -0.295667 0.646608 0
M  V30 10793 H 1057.42 -0.14429 1.94967 0
M  V30 10794 H 1056.12 -0.975025 3.9865 0
M  V30 10795 H 1055.65 -2.43021 3.09361 0
M  V30 10796 H 1057.67 -3.66788 3.34187 0
M  V30 10797 N 1056.84 -1.516 -0.430713 0
M  V30 10798 C 1058.09 -1.64271 -1.17726 0
M  V30 10799 C 1058.41 -0.364406 -1.91565 0
M  V30 10800 O 1057.68 0.619991 -1.8583 0
M  V30 10801 H 1056.26 -0.605432 -0.437562 0
M  V30 10802 H 1058.92 -1.88557 -0.493166 0
M  V30 10803 H 1058.02 -2.47355 -1.90321 0
M  V30 10804 N 1058.32 0.686584 -1.41858 0
M  V30 10805 C 1059.73 1.26682 -1.37145 0
M  V30 10806 C 1060.08 1.96112 -0.058922 0
M  V30 10807 O 1059.21 1.99321 0.842629 0
M  V30 10808 C 1059.8 2.30383 -2.48413 0
M  V30 10809 C 1058.36 2.83961 -2.47069 0
M  V30 10810 C 1057.51 1.58119 -2.27802 0
M  V30 10811 H 1060.46 0.480742 -1.51243 0
M  V30 10812 H 1060.48 3.11868 -2.17987 0
M  V30 10813 H 1059.99 1.79822 -3.43927 0
M  V30 10814 H 1058.09 3.38675 -1.55338 0
M  V30 10815 H 1058.21 3.3378 -3.43697 0
M  V30 10816 H 1056.57 1.84258 -1.75844 0
M  V30 10817 H 1057.35 1.09541 -3.25355 0
M  V30 10818 N 1059.8 1.27835 0.921735 0
M  V30 10819 C 1061.04 1.14692 1.67253 0
M  V30 10820 C 1061.38 -0.305384 1.91784 0
M  V30 10821 O 1060.65 -1.22286 1.51249 0
M  V30 10822 C 1060.93 1.93743 3.03539 0
M  V30 10823 C 1060.79 3.46991 2.86212 0
M  V30 10824 C 1062.11 1.74658 4.03959 0
M  V30 10825 H 1059.23 0.418021 0.606983 0
M  V30 10826 H 1061.87 1.5706 1.06922 0
M  V30 10827 H 1060.02 1.57738 3.55037 0
M  V30 10828 H 1061.69 3.92858 2.41785 0
M  V30 10829 H 1059.93 3.73029 2.21432 0
M  V30 10830 H 1060.6 3.97551 3.82958 0
M  V30 10831 H 1063.08 2.06063 3.61493 0
M  V30 10832 H 1061.96 2.32353 4.97296 0
M  V30 10833 H 1062.22 0.696019 4.36587 0
M  V30 10834 N 1061.28 -1.12907 1.09954 0
M  V30 10835 C 1062.5 -1.88679 0.861099 0
M  V30 10836 C 1062.93 -1.78853 -0.582499 0
M  V30 10837 O 1062.28 -1.13992 -1.4098 0
M  V30 10838 C 1062.33 -3.36047 1.30785 0
M  V30 10839 O 1061.44 -4.09716 0.469728 0
M  V30 10840 H 1060.78 -0.586447 0.31141 0
M  V30 10841 H 1063.31 -1.42818 1.46507 0
M  V30 10842 H 1063.32 -3.86882 1.29562 0
M  V30 10843 H 1061.99 -3.42516 2.35914 0
M  V30 10844 H 1060.57 -3.6887 0.54674 0
M  V30 10845 N 1062.75 -0.88754 -1.30232 0
M  V30 10846 C 1063.69 -0.313488 -2.27046 0
M  V30 10847 C 1064.7 0.533383 -1.53814 0
M  V30 10848 O 1065.89 0.352516 -1.74984 0
M  V30 10849 C 1062.99 0.572674 -3.34026 0
M  V30 10850 C 1062.16 -0.245712 -4.36709 0
M  V30 10851 C 1061.22 0.57135 -5.23089 0
M  V30 10852 O 1060.25 -0.00685948 -5.692 0
M  V30 10853 N 1061.45 1.87994 -5.49216 0
M  V30 10854 H 1064.21 -1.14553 -2.76943 0
M  V30 10855 H 1061.77 -0.750785 -1.43439 0
M  V30 10856 H 1063.77 1.12539 -3.88738 0
M  V30 10857 H 1062.34 1.3054 -2.84039 0
M  V30 10858 H 1061.56 -0.979869 -3.81827 0
M  V30 10859 H 1062.84 -0.806618 -5.02366 0
M  V30 10860 H 1062.24 2.3726 -5.13541 0
M  V30 10861 H 1060.8 2.38005 -6.06792 0
M  V30 10862 N 1064.23 1.43628 -0.648757 0
M  V30 10863 C 1065.48 2.01465 -0.16002 0
M  V30 10864 C 1065.8 1.51413 1.22878 0
M  V30 10865 O 1065.07 0.724919 1.81994 0
M  V30 10866 H 1063.65 0.744885 -0.0561672 0
M  V30 10867 H 1066.31 1.75897 -0.839422 0
M  V30 10868 H 1065.41 3.1178 -0.141213 0
M  V30 10869 N 1065.71 0.390394 1.52688 0
M  V30 10870 C 1066.64 -0.43567 2.294 0
M  V30 10871 C 1067.62 -1.06253 1.32832 0
M  V30 10872 O 1068.81 -1.07509 1.61726 0
M  V30 10873 C 1065.94 -1.56259 3.10162 0
M  V30 10874 C 1064.89 -1.06172 4.14622 0
M  V30 10875 C 1064.22 -2.2808 4.83615 0
M  V30 10876 C 1065.52 -0.128902 5.22141 0
M  V30 10877 H 1067.21 0.204384 2.98702 0
M  V30 10878 H 1064.76 0.0997377 1.43654 0
M  V30 10879 H 1066.71 -2.14732 3.62585 0
M  V30 10880 H 1065.43 -2.23025 2.38595 0
M  V30 10881 H 1064.09 -0.499518 3.63181 0
M  V30 10882 H 1063.74 -2.93358 4.08595 0
M  V30 10883 H 1063.44 -1.95227 5.5422 0
M  V30 10884 H 1064.96 -2.87193 5.38844 0
M  V30 10885 H 1066.38 -0.621849 5.69917 0
M  V30 10886 H 1064.78 0.109919 5.99999 0
M  V30 10887 H 1065.85 0.821884 4.77884 0
M  V30 10888 N 1067.19 -1.57141 0.120249 0
M  V30 10889 C 1068.41 -2.00017 -0.548454 0
M  V30 10890 C 1068.84 -0.999433 -1.59352 0
M  V30 10891 O 1068.2 0.0286978 -1.81277 0
M  V30 10892 C 1068.24 -3.41766 -1.15015 0
M  V30 10893 O 1067.35 -3.44589 -2.26566 0
M  V30 10894 H 1066.69 -0.649739 -0.136875 0
M  V30 10895 H 1069.22 -2.03529 0.209092 0
M  V30 10896 H 1069.23 -3.80001 -1.48537 0
M  V30 10897 H 1067.9 -4.14117 -0.384681 0
M  V30 10898 H 1066.48 -3.18174 -1.94473 0
M  V30 10899 N 1068.67 0.153526 -1.5685 0
M  V30 10900 C 1070.08 0.714247 -1.72498 0
M  V30 10901 C 1070.43 1.81968 -0.733621 0
M  V30 10902 O 1069.55 2.16163 0.10118 0
M  V30 10903 C 1070.15 1.30238 -3.12767 0
M  V30 10904 C 1068.71 1.80974 -3.30038 0
M  V30 10905 C 1067.85 0.695638 -2.68433 0
M  V30 10906 H 1070.81 -0.0720733 -1.58536 0
M  V30 10907 H 1070.83 2.17217 -3.12405 0
M  V30 10908 H 1070.34 0.497605 -3.84897 0
M  V30 10909 H 1068.44 2.64039 -2.62895 0
M  V30 10910 H 1068.55 1.94294 -4.37934 0
M  V30 10911 H 1066.92 1.12061 -2.28723 0
M  V30 10912 H 1067.7 -0.0975885 -3.43161 0
M  V30 10913 N 1070.14 1.51827 0.422667 0
M  V30 10914 C 1071.07 1.77152 1.52117 0
M  V30 10915 C 1072.06 0.621895 1.58324 0
M  V30 10916 O 1073.24 0.866118 1.73816 0
M  V30 10917 C 1070.37 1.90991 2.90068 0
M  V30 10918 C 1069.32 3.06516 2.98717 0
M  V30 10919 C 1068.65 3.05559 4.38791 0
M  V30 10920 C 1069.95 4.46223 2.71445 0
M  V30 10921 H 1071.64 2.69135 1.31175 0
M  V30 10922 H 1069.19 1.29507 0.629607 0
M  V30 10923 H 1071.14 2.07291 3.6689 0
M  V30 10924 H 1069.87 0.956688 3.12274 0
M  V30 10925 H 1068.53 2.89945 2.24338 0
M  V30 10926 H 1068.17 2.07985 4.57986 0
M  V30 10927 H 1067.87 3.83144 4.45505 0
M  V30 10928 H 1069.4 3.23971 5.17566 0
M  V30 10929 H 1070.81 4.63069 3.37994 0
M  V30 10930 H 1069.21 5.25623 2.89552 0
M  V30 10931 H 1070.28 4.5525 1.6696 0
M  V30 10932 N 1071.62 -0.679052 1.4222 0
M  V30 10933 C 1073.03 -1.25953 1.37815 0
M  V30 10934 C 1073.38 -1.96077 0.0693215 0
M  V30 10935 O 1072.51 -1.99765 -0.832047 0
M  V30 10936 C 1073.1 -2.29063 2.49631 0
M  V30 10937 C 1071.66 -2.82647 2.48571 0
M  V30 10938 C 1070.81 -1.56909 2.28637 0
M  V30 10939 H 1073.76 -0.472714 1.51496 0
M  V30 10940 H 1073.78 -3.10708 2.19638 0
M  V30 10941 H 1073.29 -1.77996 3.44876 0
M  V30 10942 H 1071.4 -3.37846 1.57132 0
M  V30 10943 H 1071.51 -3.31952 3.45463 0
M  V30 10944 H 1069.87 -1.83323 1.76819 0
M  V30 10945 H 1070.66 -1.07814 3.25931 0
M  V30 10946 N 1073.1 -1.28322 -0.914942 0
M  V30 10947 C 1074.52 -1.06003 -1.19313 0
M  V30 10948 C 1074.72 0.198366 -2.00521 0
M  V30 10949 O 1073.77 0.900364 -2.35902 0
M  V30 10950 C 1075.09 -2.30684 -1.92887 0
M  V30 10951 C 1076.63 -2.35851 -2.05775 0
M  V30 10952 C 1077.11 -3.60295 -2.82757 0
M  V30 10953 N 1078.6 -3.60928 -2.9032 0
M  V30 10954 C 1079.33 -4.53894 -3.50383 0
M  V30 10955 N 1078.83 -5.57178 -4.11734 0
M  V30 10956 N 1080.62 -4.41492 -3.4791 0
M  V30 10957 H 1072.77 -2.09104 -0.372735 0
M  V30 10958 H 1075.04 -0.920285 -0.227552 0
M  V30 10959 H 1074.74 -3.22355 -1.40643 0
M  V30 10960 H 1074.62 -2.37003 -2.93444 0
M  V30 10961 H 1077 -1.44678 -2.57201 0
M  V30 10962 H 1077.09 -2.33526 -1.04399 0
M  V30 10963 H 1076.73 -4.51811 -2.32011 0
M  V30 10964 H 1076.66 -3.59873 -3.84446 0
M  V30 10965 H 1079.15 -2.8624 -2.46729 0
M  V30 10966 H 1079.46 -6.24261 -4.55541 0
M  V30 10967 H 1077.81 -5.61005 -4.10242 0
M  V30 10968 H 1081 -3.60005 -2.99189 0
M  V30 10969 H 1081.17 -5.14132 -3.94427 0
M  V30 10970 N 1074.58 1.12322 -1.10551 0
M  V30 10971 C 1075.99 1.6539 -0.8662 0
M  V30 10972 C 1076.34 1.86695 0.603284 0
M  V30 10973 O 1075.47 1.59432 1.46323 0
M  V30 10974 C 1076.06 3.00443 -1.56587 0
M  V30 10975 C 1074.62 3.50456 -1.37323 0
M  V30 10976 C 1073.77 2.25454 -1.61449 0
M  V30 10977 H 1076.72 0.960866 -1.26305 0
M  V30 10978 H 1076.74 3.66972 -1.00557 0
M  V30 10979 H 1076.25 2.84905 -2.63535 0
M  V30 10980 H 1074.35 3.71176 -0.325431 0
M  V30 10981 H 1074.46 4.29839 -2.11601 0
M  V30 10982 H 1072.83 2.32621 -1.03729 0
M  V30 10983 H 1073.61 2.12469 -2.69651 0
M  V30 10984 N 1076.06 0.894434 1.2976 0
M  V30 10985 C 1077.29 0.532143 1.99629 0
M  V30 10986 C 1077.69 -0.886234 1.6716 0
M  V30 10987 O 1077.04 -1.59573 0.910065 0
M  V30 10988 C 1077.1 0.638335 3.53787 0
M  V30 10989 C 1076.76 2.02273 4.09798 0
M  V30 10990 C 1077.76 2.99327 4.25087 0
M  V30 10991 C 1075.45 2.33069 4.44954 0
M  V30 10992 C 1077.44 4.25304 4.74758 0
M  V30 10993 C 1075.13 3.59289 4.94322 0
M  V30 10994 C 1076.12 4.55222 5.09178 0
M  V30 10995 O 1075.81 5.79202 5.57477 0
M  V30 10996 H 1075.54 0.203326 0.644697 0
M  V30 10997 H 1078.1 1.2043 1.6639 0
M  V30 10998 H 1076.33 -0.0908338 3.86593 0
M  V30 10999 H 1078.02 0.285956 4.04891 0
M  V30 11000 H 1078.78 2.76849 3.9822 0
M  V30 11001 H 1074.66 1.59162 4.32653 0
M  V30 11002 H 1078.21 5.00189 4.86269 0
M  V30 11003 H 1074.1 3.816 5.20626 0
M  V30 11004 H 1074.87 5.81717 5.75802 0
M  V30 11005 N 1077.53 -1.43282 0.656365 0
M  V30 11006 C 1078.76 -2.05826 0.178619 0
M  V30 11007 C 1079.17 -1.493 -1.16216 0
M  V30 11008 O 1078.52 -0.620163 -1.72915 0
M  V30 11009 C 1078.58 -3.59496 0.0164101 0
M  V30 11010 C 1078.24 -4.38621 1.28298 0
M  V30 11011 C 1079.24 -4.70477 2.21241 0
M  V30 11012 C 1076.92 -4.78577 1.52544 0
M  V30 11013 C 1078.92 -5.412 3.36721 0
M  V30 11014 C 1076.6 -5.49044 2.68316 0
M  V30 11015 C 1077.6 -5.80279 3.6023 0
M  V30 11016 O 1077.29 -6.49306 4.7398 0
M  V30 11017 H 1077.02 -0.670158 0.0886814 0
M  V30 11018 H 1079.58 -1.84722 0.89816 0
M  V30 11019 H 1077.81 -3.79188 -0.758532 0
M  V30 11020 H 1079.5 -4.03731 -0.419096 0
M  V30 11021 H 1080.26 -4.40125 2.03753 0
M  V30 11022 H 1076.14 -4.5367 0.818816 0
M  V30 11023 H 1079.68 -5.65497 4.08483 0
M  V30 11024 H 1075.58 -5.78813 2.85738 0
M  V30 11025 H 1076.35 -6.67789 4.73286 0
M  V30 11026 N 1079.01 -0.398486 -1.52479 0
M  V30 11027 C 1080.24 0.183059 -2.06591 0
M  V30 11028 C 1080.66 1.3898 -1.26753 0
M  V30 11029 O 1080.02 1.78885 -0.294959 0
M  V30 11030 C 1080.07 0.522392 -3.56796 0
M  V30 11031 O 1079.17 1.61499 -3.79462 0
M  V30 11032 H 1078.51 0.0188411 -0.663733 0
M  V30 11033 H 1081.04 -0.56861 -1.9654 0
M  V30 11034 H 1081.05 0.784078 -4.00395 0
M  V30 11035 H 1079.73 -0.359807 -4.14341 0
M  V30 11036 H 1078.31 1.3463 -3.47749 0
M  V30 11037 N 1080.49 1.57075 -0.12858 0
M  V30 11038 C 1081.42 2.12907 0.848708 0
M  V30 11039 C 1082.44 1.07406 1.22343 0
M  V30 11040 O 1083.63 1.34746 1.17071 0
M  V30 11041 C 1080.73 2.62167 2.1476 0
M  V30 11042 C 1079.9 3.91871 1.94309 0
M  V30 11043 C 1078.96 4.26629 3.08016 0
M  V30 11044 O 1077.98 4.9528 2.80511 0
M  V30 11045 N 1079.19 3.84721 4.34706 0
M  V30 11046 H 1081.95 2.97387 0.371636 0
M  V30 11047 H 1079.51 1.61805 0.0555574 0
M  V30 11048 H 1081.5 2.82444 2.89841 0
M  V30 11049 H 1080.07 1.82514 2.53786 0
M  V30 11050 H 1079.29 3.80406 1.03367 0
M  V30 11051 H 1080.58 4.76662 1.77962 0
M  V30 11052 H 1079.98 3.2937 4.59926 0
M  V30 11053 H 1078.54 4.10087 5.06628 0
M  V30 11054 N 1081.97 -0.145205 1.5693 0
M  V30 11055 C 1082.9 -1.20438 1.95006 0
M  V30 11056 C 1083.91 -1.39085 0.846114 0
M  V30 11057 O 1085.1 -1.38625 1.12452 0
M  V30 11058 C 1082.2 -2.56892 2.21043 0
M  V30 11059 C 1081.38 -2.59197 3.52329 0
M  V30 11060 C 1080.44 -3.77204 3.66884 0
M  V30 11061 O 1079.46 -3.61995 4.39259 0
M  V30 11062 N 1080.66 -4.9473 3.03682 0
M  V30 11063 H 1083.43 -0.880709 2.86467 0
M  V30 11064 H 1080.99 -0.334751 1.58401 0
M  V30 11065 H 1082.98 -3.34349 2.2802 0
M  V30 11066 H 1081.55 -2.81544 1.35838 0
M  V30 11067 H 1080.77 -1.67644 3.56776 0
M  V30 11068 H 1082.06 -2.57771 4.3867 0
M  V30 11069 H 1081.46 -5.09989 2.44801 0
M  V30 11070 H 1080.01 -5.69956 3.16218 0
M  V30 11071 N 1083.45 -1.52049 -0.414609 0
M  V30 11072 C 1084.38 -1.77956 -1.51175 0
M  V30 11073 C 1085.36 -0.630282 -1.57992 0
M  V30 11074 O 1086.54 -0.875324 -1.73354 0
M  V30 11075 C 1083.67 -1.92527 -2.89051 0
M  V30 11076 C 1082.63 -3.08096 -2.97087 0
M  V30 11077 C 1081.95 -3.07882 -4.37164 0
M  V30 11078 C 1083.25 -4.47656 -2.69075 0
M  V30 11079 H 1084.95 -2.69827 -1.29746 0
M  V30 11080 H 1082.49 -1.29839 -0.62273 0
M  V30 11081 H 1084.45 -2.09234 -3.65786 0
M  V30 11082 H 1083.17 -0.973235 -3.11762 0
M  V30 11083 H 1081.83 -2.91131 -2.22797 0
M  V30 11084 H 1081.48 -2.10411 -4.56877 0
M  V30 11085 H 1081.18 -3.85501 -4.43467 0
M  V30 11086 H 1082.7 -3.26712 -5.15841 0
M  V30 11087 H 1084.12 -4.64855 -3.35534 0
M  V30 11088 H 1082.51 -5.27151 -2.8676 0
M  V30 11089 H 1083.58 -4.56129 -1.64544 0
M  V30 11090 N 1084.93 0.6715 -1.42579 0
M  V30 11091 C 1085.89 1.76676 -1.46008 0
M  V30 11092 C 1086.89 1.57007 -0.347213 0
M  V30 11093 O 1088.08 1.63238 -0.608185 0
M  V30 11094 C 1085.21 3.15348 -1.29494 0
M  V30 11095 H 1086.4 1.75021 -2.43531 0
M  V30 11096 H 1083.96 0.881444 -1.29075 0
M  V30 11097 H 1084.69 3.22626 -0.32906 0
M  V30 11098 H 1084.48 3.31028 -2.10149 0
M  V30 11099 H 1085.97 3.95251 -1.34784 0
M  V30 11100 N 1086.4 1.28806 0.908124 0
M  V30 11101 C 1087.34 1.07538 2.01273 0
M  V30 11102 C 1088.31 -0.0102454 1.62597 0
M  V30 11103 O 1089.5 0.138797 1.87988 0
M  V30 11104 C 1086.63 0.635337 3.32688 0
M  V30 11105 C 1085.67 1.71843 3.90349 0
M  V30 11106 S 1086.5 3.31571 4.20501 0
M  V30 11107 C 1087.66 2.89416 5.54968 0
M  V30 11108 H 1087.89 2.01058 2.19005 0
M  V30 11109 H 1085.43 1.12857 1.05369 0
M  V30 11110 H 1087.38 0.388159 4.08661 0
M  V30 11111 H 1086.05 -0.280122 3.12848 0
M  V30 11112 H 1085.24 1.36228 4.8524 0
M  V30 11113 H 1084.84 1.91869 3.21033 0
M  V30 11114 H 1087.13 2.35936 6.35091 0
M  V30 11115 H 1088.08 3.83126 5.955 0
M  V30 11116 H 1088.48 2.27962 5.16424 0
M  V30 11117 N 1087.88 -1.11734 1.11145 0
M  V30 11118 C 1089.29 -1.64928 0.874959 0
M  V30 11119 C 1089.64 -1.87012 -0.593375 0
M  V30 11120 O 1088.77 -1.60206 -1.45475 0
M  V30 11121 C 1089.36 -2.99608 1.58178 0
M  V30 11122 C 1087.92 -3.49723 1.39179 0
M  V30 11123 C 1087.07 -2.24595 1.62642 0
M  V30 11124 H 1090.02 -0.954154 1.26813 0
M  V30 11125 H 1090.04 -3.66434 1.02501 0
M  V30 11126 H 1089.55 -2.83504 2.65042 0
M  V30 11127 H 1087.65 -3.70998 0.345111 0
M  V30 11128 H 1087.77 -4.28711 2.13878 0
M  V30 11129 H 1086.13 -2.32067 1.04961 0
M  V30 11130 H 1086.91 -2.11036 2.70774 0
M  V30 11131 N 1089.36 -0.901303 -1.29284 0
M  V30 11132 C 1090.77 -0.576317 -1.77582 0
M  V30 11133 C 1091.12 0.908078 -1.73921 0
M  V30 11134 O 1090.25 1.71006 -1.32611 0
M  V30 11135 C 1090.84 -1.03938 -3.22463 0
M  V30 11136 C 1089.4 -0.765533 -3.68533 0
M  V30 11137 C 1088.55 -1.21318 -2.49354 0
M  V30 11138 H 1091.5 -1.08386 -1.15923 0
M  V30 11139 H 1091.52 -0.375367 -3.78644 0
M  V30 11140 H 1091.03 -2.11977 -3.25096 0
M  V30 11141 H 1089.13 0.302176 -3.71373 0
M  V30 11142 H 1089.25 -1.36454 -4.59257 0
M  V30 11143 H 1087.61 -0.632141 -2.46731 0
M  V30 11144 H 1088.39 -2.30165 -2.54714 0
M  V30 11145 N 1090.84 1.42931 -0.663954 0
M  V30 11146 C 1092.11 1.95284 -0.111174 0
M  V30 11147 C 1092.49 1.60484 1.37142 0
M  V30 11148 O 1091.84 0.895425 2.10225 0
M  V30 11149 C 1092.05 3.47046 -0.368789 0
M  V30 11150 C 1093.4 4.23679 -0.279473 0
M  V30 11151 O 1094.42 3.54918 -0.301937 0
M  V30 11152 O 1093.28 5.46087 -0.21236 0
M  V30 11153 H 1090.38 0.826993 0.00341718 0
M  V30 11154 H 1092.92 1.52816 -0.737935 0
M  V30 11155 H 1091.7 3.65541 -1.39626 0
M  V30 11156 H 1091.32 3.96537 0.290514 0
M  V30 11157 N 1092.32 0.406567 1.52266 0
M  V30 11158 C 1093.73 -0.063607 1.86592 0
M  V30 11159 C 1094.08 -1.4466 1.32544 0
M  V30 11160 O 1093.2 -2.05971 0.663692 0
M  V30 11161 C 1093.8 -0.122198 3.3858 0
M  V30 11162 C 1092.36 -0.536701 3.72554 0
M  V30 11163 C 1091.5 0.290422 2.75775 0
M  V30 11164 H 1094.45 0.623738 1.45929 0
M  V30 11165 H 1094.48 -0.937964 3.68758 0
M  V30 11166 H 1093.99 0.884495 3.77887 0
M  V30 11167 H 1092.09 -1.55013 3.38824 0
M  V30 11168 H 1092.2 -0.282867 4.78264 0
M  V30 11169 H 1090.57 -0.246864 2.53501 0
M  V30 11170 H 1091.35 1.29541 3.17921 0
M  V30 11171 N 1093.79 -1.57004 0.136909 0
M  V30 11172 C 1095.02 -2.00587 -0.527209 0
M  V30 11173 C 1095.44 -1.01628 -1.58283 0
M  V30 11174 O 1094.8 0.00946934 -1.81298 0
M  V30 11175 C 1094.85 -3.42967 -1.11384 0
M  V30 11176 O 1093.95 -3.46973 -2.22898 0
M  V30 11177 H 1093.3 -0.651155 -0.129976 0
M  V30 11178 H 1095.83 -2.03296 0.230667 0
M  V30 11179 H 1095.84 -3.81555 -1.44499 0
M  V30 11180 H 1094.51 -4.14502 -0.340736 0
M  V30 11181 H 1093.09 -3.20219 -1.91087 0
M  V30 11182 N 1095.27 0.136881 -1.57004 0
M  V30 11183 C 1096.5 0.866405 -1.88436 0
M  V30 11184 C 1096.92 1.73483 -0.727006 0
M  V30 11185 O 1096.28 1.78398 0.323094 0
M  V30 11186 C 1096.33 1.69059 -3.18514 0
M  V30 11187 O 1095.43 2.79584 -3.03161 0
M  V30 11188 H 1094.77 0.240709 -0.618834 0
M  V30 11189 H 1097.3 0.124653 -2.0422 0
M  V30 11190 H 1097.31 2.08353 -3.50789 0
M  V30 11191 H 1095.99 1.05296 -4.0235 0
M  V30 11192 H 1094.57 2.43623 -2.82315 0
M  V30 11193 N 1096.75 1.52266 0.40654 0
M  V30 11194 C 1097.99 1.6813 1.16239 0
M  V30 11195 C 1098.35 0.403791 1.87706 0
M  V30 11196 O 1099.56 0.438566 2.65198 0
M  V30 11197 C 1097.83 2.87115 2.12837 0
M  V30 11198 S 1099.39 3.23475 2.96495 0
M  V30 11199 H 1096.2 0.59202 0.393743 0
M  V30 11200 H 1098.81 1.90266 0.449325 0
M  V30 11201 H 1097.51 3.78337 1.59026 0
M  V30 11202 H 1097.04 2.6726 2.88679 0
M  V30 11203 H 1099.06 2.72299 4.14811 0
M  V30 11204 N 1098.23 -0.663929 1.42933 0
M  V30 11205 C 1099.16 -1.78899 1.50058 0
M  V30 11206 C 1100.14 -1.66329 0.356164 0
M  V30 11207 O 1101.32 -1.85587 0.571944 0
M  V30 11208 C 1098.45 -3.17265 1.41281 0
M  V30 11209 C 1097.41 -3.44584 2.53861 0
M  V30 11210 C 1096.73 -4.82638 2.3014 0
M  V30 11211 C 1098.03 -3.40394 3.96143 0
M  V30 11212 H 1099.73 -1.73194 2.44222 0
M  V30 11213 H 1097.27 -0.83182 1.17545 0
M  V30 11214 H 1099.23 -3.95715 1.44872 0
M  V30 11215 H 1097.95 -3.23675 0.43616 0
M  V30 11216 H 1096.61 -2.685 2.49606 0
M  V30 11217 H 1096.26 -4.85711 1.30743 0
M  V30 11218 H 1095.96 -5.01879 3.056 0
M  V30 11219 H 1097.48 -5.63359 2.35497 0
M  V30 11220 H 1098.9 -4.08796 4.01943 0
M  V30 11221 H 1097.29 -3.7117 4.71543 0
M  V30 11222 H 1098.36 -2.38767 4.22041 0
M  V30 11223 N 1099.71 -1.29285 -0.901281 0
M  V30 11224 C 1100.95 -1.17339 -1.65407 0
M  V30 11225 C 1101.29 0.274834 -1.92245 0
M  V30 11226 O 1100.56 1.19865 -1.53176 0
M  V30 11227 C 1100.84 -1.98547 -3.00418 0
M  V30 11228 C 1100.7 -3.51501 -2.80655 0
M  V30 11229 C 1102.02 -1.81062 -4.01129 0
M  V30 11230 H 1099.13 -0.427624 -0.600255 0
M  V30 11231 H 1101.78 -1.58741 -1.0441 0
M  V30 11232 H 1099.93 -1.63366 -3.52482 0
M  V30 11233 H 1101.6 -3.96655 -2.35505 0
M  V30 11234 H 1099.84 -3.76504 -2.15469 0
M  V30 11235 H 1100.51 -4.03593 -3.76585 0
M  V30 11236 H 1102.99 -2.11788 -3.58169 0
M  V30 11237 H 1101.86 -2.40235 -4.93536 0
M  V30 11238 H 1102.13 -0.765388 -4.35424 0
M  V30 11239 N 1101.18 1.11143 -1.11736 0
M  V30 11240 C 1102.15 2.15456 -0.78174 0
M  V30 11241 C 1103.15 1.59547 0.200383 0
M  V30 11242 O 1104.34 1.74183 -0.0244893 0
M  V30 11243 C 1101.47 3.40523 -0.160364 0
M  V30 11244 H 1102.66 2.46658 -1.70586 0
M  V30 11245 H 1100.22 1.26381 -0.919644 0
M  V30 11246 H 1100.95 3.14932 0.773835 0
M  V30 11247 H 1100.74 3.82386 -0.867378 0
M  V30 11248 H 1102.23 4.17559 0.0582175 0
M  V30 11249 N 1102.66 0.908147 1.28804 0
M  V30 11250 C 1103.91 0.53734 1.94826 0
M  V30 11251 C 1104.23 -0.920962 1.71882 0
M  V30 11252 O 1103.5 -1.65043 1.05534 0
M  V30 11253 H 1102.08 0.195729 0.720902 0
M  V30 11254 H 1104.74 1.15628 1.56895 0
M  V30 11255 H 1103.84 0.727052 3.03513 0
M  V30 11256 N 1104.14 -1.42577 0.671525 0
M  V30 11257 C 1105.39 -2.01584 0.192431 0
M  V30 11258 C 1105.72 -1.53076 -1.19992 0
M  V30 11259 O 1104.97 -0.722196 -1.81887 0
M  V30 11260 C 1105.27 -3.56985 0.172097 0
M  V30 11261 C 1104.94 -4.24912 1.50867 0
M  V30 11262 C 1103.6 -4.43182 1.87464 0
M  V30 11263 C 1105.95 -4.6322 2.38908 0
M  V30 11264 C 1103.28 -4.97031 3.11732 0
M  V30 11265 C 1105.63 -5.18447 3.62485 0
M  V30 11266 C 1104.29 -5.34932 3.99255 0
M  V30 11267 H 1103.56 -0.737647 0.0704155 0
M  V30 11268 H 1106.21 -1.70807 0.865862 0
M  V30 11269 H 1104.52 -3.87411 -0.584835 0
M  V30 11270 H 1106.21 -4.00419 -0.215749 0
M  V30 11271 H 1102.8 -4.11048 1.21397 0
M  V30 11272 H 1106.99 -4.4878 2.1192 0
M  V30 11273 H 1102.24 -5.07979 3.40246 0
M  V30 11274 H 1106.42 -5.47075 4.30909 0
M  V30 11275 H 1104.04 -5.76422 4.95623 0
M  V30 11276 N 1105.62 -0.414636 -1.52048 0
M  V30 11277 C 1107.03 0.0537107 -1.86623 0
M  V30 11278 C 1107.38 1.43955 -1.3331 0
M  V30 11279 O 1106.51 2.05616 -0.674606 0
M  V30 11280 C 1107.1 0.104241 -3.3864 0
M  V30 11281 C 1105.66 0.516936 -3.72833 0
M  V30 11282 C 1104.81 -0.305042 -2.75617 0
M  V30 11283 H 1107.76 -0.631469 -1.45596 0
M  V30 11284 H 1107.78 0.918395 -3.6925 0
M  V30 11285 H 1107.29 -0.904523 -3.77412 0
M  V30 11286 H 1105.39 1.53214 -3.39641 0
M  V30 11287 H 1105.5 0.2575 -4.78408 0
M  V30 11288 H 1103.87 0.233416 -2.53628 0
M  V30 11289 H 1104.65 -1.31226 -3.1723 0
M  V30 11290 N 1107.1 1.56929 -0.145233 0
M  V30 11291 C 1108.51 1.82877 0.375884 0
M  V30 11292 C 1108.86 1.06384 1.64854 0
M  V30 11293 O 1107.98 0.30857 2.14189 0
M  V30 11294 C 1108.58 3.31725 0.688744 0
M  V30 11295 C 1107.14 3.58261 1.15439 0
M  V30 11296 C 1106.28 2.76737 0.176565 0
M  V30 11297 H 1109.24 1.54328 -0.36996 0
M  V30 11298 H 1109.26 3.47784 1.54359 0
M  V30 11299 H 1108.77 3.87371 -0.237694 0
M  V30 11300 H 1106.87 3.08 2.09683 0
M  V30 11301 H 1106.98 4.66732 1.08158 0
M  V30 11302 H 1105.35 2.45761 0.668843 0
M  V30 11303 H 1106.13 3.35154 -0.743432 0
M  V30 11304 N 1108.58 -0.128553 1.57075 0
M  V30 11305 C 1109.82 -0.844012 1.86161 0
M  V30 11306 C 1110.18 -1.77499 0.73198 0
M  V30 11307 O 1111.38 -2.5313 0.904357 0
M  V30 11308 C 1109.65 -1.58238 3.20462 0
M  V30 11309 S 1111.21 -2.34073 3.71154 0
M  V30 11310 H 1108.03 -0.281884 0.652734 0
M  V30 11311 H 1110.63 -0.102902 1.95229 0
M  V30 11312 H 1109.33 -0.890246 4.00628 0
M  V30 11313 H 1108.87 -2.36404 3.14446 0
M  V30 11314 H 1110.88 -3.59617 3.41892 0
M  V30 11315 N 1110.05 -1.5248 -0.398459 0
M  V30 11316 C 1111.46 -1.59107 -0.976817 0
M  V30 11317 C 1111.82 -0.438104 -1.91246 0
M  V30 11318 O 1110.94 0.440111 -2.11877 0
M  V30 11319 C 1111.54 -2.88373 -1.77838 0
M  V30 11320 C 1110.09 -2.97445 -2.30659 0
M  V30 11321 C 1109.24 -2.5414 -1.10942 0
M  V30 11322 H 1112.19 -1.57695 -0.178324 0
M  V30 11323 H 1112.21 -2.74327 -2.63676 0
M  V30 11324 H 1111.73 -3.72269 -1.09714 0
M  V30 11325 H 1109.83 -2.18066 -3.02123 0
M  V30 11326 H 1109.94 -4.019 -2.60794 0
M  V30 11327 H 1108.3 -2.08237 -1.46661 0
M  V30 11328 H 1109.09 -3.40421 -0.443684 0
M  V30 11329 N 1111.53 0.65634 -1.43283 0
M  V30 11330 C 1112.46 1.78184 -1.44164 0
M  V30 11331 C 1113.48 1.59249 -0.338177 0
M  V30 11332 O 1114.67 1.68027 -0.60242 0
M  V30 11333 C 1111.77 3.15566 -1.23577 0
M  V30 11334 C 1110.94 3.61187 -2.46704 0
M  V30 11335 C 1110 4.77361 -2.21388 0
M  V30 11336 O 1109.02 4.8696 -2.94718 0
M  V30 11337 N 1110.23 5.67351 -1.22855 0
M  V30 11338 H 1112.99 1.77907 -2.41183 0
M  V30 11339 H 1110.55 0.840076 -1.38399 0
M  V30 11340 H 1112.54 3.90968 -1.04529 0
M  V30 11341 H 1111.11 3.10633 -0.350155 0
M  V30 11342 H 1110.33 2.76263 -2.81198 0
M  V30 11343 H 1111.62 3.88413 -3.28652 0
M  V30 11344 H 1111.02 5.62265 -0.622417 0
M  V30 11345 H 1109.58 6.42487 -1.09791 0
M  V30 11346 N 1113.01 1.29761 0.894412 0
M  V30 11347 C 1114.43 1.07888 1.17611 0
M  V30 11348 C 1114.63 -0.16644 2.00811 0
M  V30 11349 O 1113.68 -0.86272 2.37304 0
M  V30 11350 C 1114.99 2.33723 1.89193 0
M  V30 11351 C 1116.54 2.39095 2.01997 0
M  V30 11352 C 1117.02 3.64747 2.7699 0
M  V30 11353 N 1118.51 3.65501 2.84541 0
M  V30 11354 C 1119.24 4.59411 3.43117 0
M  V30 11355 N 1118.74 5.63657 4.02818 0
M  V30 11356 N 1120.53 4.46971 3.40842 0
M  V30 11357 H 1112.68 2.0967 0.339421 0
M  V30 11358 H 1114.95 0.923788 0.212882 0
M  V30 11359 H 1114.65 3.24551 1.35496 0
M  V30 11360 H 1114.53 2.41642 2.89636 0
M  V30 11361 H 1116.91 1.48751 2.54867 0
M  V30 11362 H 1116.99 2.35158 1.0067 0
M  V30 11363 H 1116.64 4.55445 2.24794 0
M  V30 11364 H 1116.57 3.65944 3.78672 0
M  V30 11365 H 1119.06 2.90129 2.42144 0
M  V30 11366 H 1119.37 6.31429 4.45552 0
M  V30 11367 H 1117.72 5.67461 4.01265 0
M  V30 11368 H 1120.91 3.64719 2.93424 0
M  V30 11369 H 1121.08 5.20341 3.86198 0
M  V30 11370 N 1114.49 -1.10549 1.12324 0
M  V30 11371 C 1115.71 -1.8681 0.900927 0
M  V30 11372 C 1116.14 -1.80049 -0.54443 0
M  V30 11373 O 1115.5 -1.16957 -1.38531 0
M  V30 11374 C 1115.54 -3.33197 1.37883 0
M  V30 11375 O 1114.65 -4.08628 0.556529 0
M  V30 11376 H 1113.99 -0.579709 0.32378 0
M  V30 11377 H 1116.52 -1.39678 1.49503 0
M  V30 11378 H 1116.53 -3.84047 1.37739 0
M  V30 11379 H 1115.2 -3.37435 2.43127 0
M  V30 11380 H 1113.78 -3.67627 0.62486 0
M  V30 11381 N 1115.97 -0.914965 -1.28321 0
M  V30 11382 C 1117.19 -0.564654 -1.99046 0
M  V30 11383 C 1117.61 0.854345 -1.68364 0
M  V30 11384 O 1116.97 1.56605 -0.937068 0
M  V30 11385 C 1117.02 -0.765663 -3.53299 0
M  V30 11386 O 1116.74 -2.12883 -3.829 0
M  V30 11387 C 1118.24 -0.422347 -4.41283 0
M  V30 11388 H 1115.46 -0.215158 -0.635569 0
M  V30 11389 H 1118 -1.2285 -1.63487 0
M  V30 11390 H 1116.16 -0.148795 -3.87114 0
M  V30 11391 H 1116.57 -2.1694 -4.77533 0
M  V30 11392 H 1118.05 -0.613757 -5.48577 0
M  V30 11393 H 1118.52 0.641484 -4.3449 0
M  V30 11394 H 1119.13 -1.01681 -4.12966 0
M  V30 11395 N 1117.44 1.42219 -0.679077 0
M  V30 11396 C 1118.37 2.33493 -0.0174528 0
M  V30 11397 C 1119.35 1.50915 0.78477 0
M  V30 11398 O 1120.54 1.79504 0.741065 0
M  V30 11399 C 1117.67 3.34576 0.931463 0
M  V30 11400 C 1116.62 4.2734 0.237527 0
M  V30 11401 C 1115.95 5.18664 1.29967 0
M  V30 11402 C 1117.25 5.14729 -0.886082 0
M  V30 11403 H 1118.94 2.89068 -0.779748 0
M  V30 11404 H 1116.49 1.38993 -0.376419 0
M  V30 11405 H 1118.44 3.97343 1.40343 0
M  V30 11406 H 1117.17 2.77315 1.72523 0
M  V30 11407 H 1115.83 3.65973 -0.214245 0
M  V30 11408 H 1115.47 4.57727 2.08554 0
M  V30 11409 H 1115.17 5.81558 0.840463 0
M  V30 11410 H 1116.7 5.84308 1.77249 0
M  V30 11411 H 1118.11 5.71158 -0.495141 0
M  V30 11412 H 1116.51 5.86478 -1.27135 0
M  V30 11413 H 1117.58 4.52874 -1.733 0
M  V30 11414 N 1118.92 0.422693 1.51826 0
M  V30 11415 C 1119.85 -0.440987 2.23899 0
M  V30 11416 C 1120.83 -1.03685 1.25252 0
M  V30 11417 O 1122.02 -1.08212 1.54345 0
M  V30 11418 C 1119.14 -1.61331 2.97809 0
M  V30 11419 C 1118.19 -1.13954 4.10995 0
M  V30 11420 S 1119.02 -0.0935426 5.35418 0
M  V30 11421 C 1120.18 -1.27087 6.12862 0
M  V30 11422 H 1120.41 0.170945 2.96808 0
M  V30 11423 H 1117.94 0.20709 1.53005 0
M  V30 11424 H 1119.9 -2.28546 3.40994 0
M  V30 11425 H 1118.56 -2.19662 2.24516 0
M  V30 11426 H 1117.76 -2.01578 4.61933 0
M  V30 11427 H 1117.36 -0.545838 3.69995 0
M  V30 11428 H 1119.65 -2.19199 6.4106 0
M  V30 11429 H 1120.59 -0.801752 7.03546 0
M  V30 11430 H 1121 -1.50281 5.44129 0
M  V30 11431 N 1120.4 -1.5685 0.153553 0
M  V30 11432 C 1121.81 -1.83074 -0.36618 0
M  V30 11433 C 1122.16 -1.07257 -1.64288 0
M  V30 11434 O 1121.29 -0.319925 -2.14022 0
M  V30 11435 C 1121.88 -3.32086 -0.671142 0
M  V30 11436 C 1120.44 -3.58868 -1.13537 0
M  V30 11437 C 1119.59 -2.76827 -0.161887 0
M  V30 11438 H 1122.54 -1.54129 0.378139 0
M  V30 11439 H 1122.56 -3.48598 -1.52512 0
M  V30 11440 H 1122.07 -3.8724 0.258234 0
M  V30 11441 H 1120.17 -3.09107 -2.08047 0
M  V30 11442 H 1120.29 -4.67299 -1.05682 0
M  V30 11443 H 1118.65 -2.46112 -0.6558 0
M  V30 11444 H 1119.43 -3.34755 0.761195 0
M  V30 11445 N 1121.88 0.120221 -1.57141 0
M  V30 11446 C 1122.84 1.13159 -1.99318 0
M  V30 11447 C 1123.84 1.34376 -0.883158 0
M  V30 11448 O 1125.03 1.30914 -1.14922 0
M  V30 11449 C 1122.16 2.48632 -2.33227 0
M  V30 11450 H 1123.36 0.769119 -2.8987 0
M  V30 11451 H 1120.91 0.364475 -1.51991 0
M  V30 11452 H 1121.64 2.89802 -1.45551 0
M  V30 11453 H 1121.43 2.34587 -3.14184 0
M  V30 11454 H 1122.92 3.21423 -2.66603 0
M  V30 11455 N 1123.36 1.52689 0.390367 0
M  V30 11456 C 1124.32 1.76726 1.45947 0
M  V30 11457 C 1125.32 0.637269 1.47633 0
M  V30 11458 O 1126.51 0.905312 1.48828 0
M  V30 11459 C 1123.64 1.86678 2.85244 0
M  V30 11460 H 1124.83 2.72185 1.25918 0
M  V30 11461 H 1122.39 1.4339 0.622023 0
M  V30 11462 H 1123.12 0.931991 3.10619 0
M  V30 11463 H 1122.91 2.68843 2.85422 0
M  V30 11464 H 1124.4 2.06952 3.62713 0
M  V30 11465 N 1124.83 -0.648732 1.43629 0
M  V30 11466 C 1126.25 -1.23001 1.40455 0
M  V30 11467 C 1126.6 -1.95886 0.110897 0
M  V30 11468 O 1125.72 -2.01485 -0.789487 0
M  V30 11469 C 1126.32 -2.23716 2.54434 0
M  V30 11470 C 1124.88 -2.77311 2.54511 0
M  V30 11471 C 1124.02 -1.52024 2.31914 0
M  V30 11472 H 1126.97 -0.440473 1.52465 0
M  V30 11473 H 1126.99 -3.05979 2.26179 0
M  V30 11474 H 1126.51 -1.7064 3.48574 0
M  V30 11475 H 1124.61 -3.34437 1.64263 0
M  V30 11476 H 1124.72 -3.2455 3.52426 0
M  V30 11477 H 1123.08 -1.79531 1.80667 0
M  V30 11478 H 1123.87 -1.00876 3.28145 0
M  V30 11479 N 1126.31 -1.30234 -0.887518 0
M  V30 11480 C 1127.56 -1.18675 -1.63587 0
M  V30 11481 C 1127.88 0.259342 -1.93268 0
M  V30 11482 O 1127.15 1.17523 -1.56733 0
M  V30 11483 H 1125.73 -0.436224 -0.606397 0
M  V30 11484 H 1128.39 -1.63326 -1.06351 0
M  V30 11485 H 1127.49 -1.74575 -2.58708 0
M  V30 11486 N 1127.79 1.09952 -1.12909 0
M  V30 11487 C 1129.04 1.82286 -0.888797 0
M  V30 11488 C 1129.37 1.85218 0.58379 0
M  V30 11489 O 1128.64 1.31645 1.43177 0
M  V30 11490 C 1128.93 3.28706 -1.47053 0
M  V30 11491 C 1128.78 3.34078 -3.01184 0
M  V30 11492 C 1130.1 4.25233 -1.13424 0
M  V30 11493 H 1127.22 0.661803 -0.324324 0
M  V30 11494 H 1129.86 1.28833 -1.3965 0
M  V30 11495 H 1128.01 3.74356 -1.03874 0
M  V30 11496 H 1129.68 2.96871 -3.5308 0
M  V30 11497 H 1127.93 2.73825 -3.36455 0
M  V30 11498 H 1128.6 4.37202 -3.36984 0
M  V30 11499 H 1131.07 3.87841 -1.50726 0
M  V30 11500 H 1129.95 5.26033 -1.56783 0
M  V30 11501 H 1130.21 4.42075 -0.0471496 0
M  V30 11502 N 1129.27 0.921757 1.27833 0
M  V30 11503 C 1130.49 0.574599 1.99281 0
M  V30 11504 C 1130.92 -0.838905 1.68357 0
M  V30 11505 O 1130.28 -1.56196 0.920468 0
M  V30 11506 C 1130.32 0.800027 3.51613 0
M  V30 11507 O 1129.43 -0.137215 4.12172 0
M  V30 11508 H 1128.77 0.221887 0.625829 0
M  V30 11509 H 1131.3 1.23939 1.62789 0
M  V30 11510 H 1131.31 0.71326 4.01717 0
M  V30 11511 H 1129.98 1.83042 3.73455 0
M  V30 11512 H 1128.56 -0.00103872 3.729 0
M  V30 11513 N 1130.75 -1.41857 0.686609 0
M  V30 11514 C 1132.16 -1.84439 0.289662 0
M  V30 11515 C 1132.51 -1.57462 -1.17047 0
M  V30 11516 O 1131.63 -1.04046 -1.89745 0
M  V30 11517 C 1132.23 -3.34802 0.518948 0
M  V30 11518 C 1130.79 -3.75988 0.176007 0
M  V30 11519 C 1129.93 -2.65339 0.805632 0
M  V30 11520 H 1132.89 -1.31536 0.88792 0
M  V30 11521 H 1132.91 -3.79833 -0.225209 0
M  V30 11522 H 1132.42 -3.54405 1.58173 0
M  V30 11523 H 1130.52 -3.61989 -0.882865 0
M  V30 11524 H 1130.63 -4.75009 0.624772 0
M  V30 11525 H 1129 -2.53605 0.235966 0
M  V30 11526 H 1129.78 -2.87762 1.8721 0
M  V30 11527 N 1132.22 -0.430739 -1.51599 0
M  V30 11528 C 1133.17 0.384024 -2.27583 0
M  V30 11529 C 1134.14 1.02254 -1.30895 0
M  V30 11530 O 1135.33 1.0427 -1.59789 0
M  V30 11531 C 1132.47 1.48291 -3.11615 0
M  V30 11532 C 1131.58 0.863187 -4.23288 0
M  V30 11533 C 1130.71 1.93657 -4.94642 0
M  V30 11534 C 1129.75 1.29493 -5.98246 0
M  V30 11535 N 1128.89 2.30939 -6.63032 0
M  V30 11536 H 1133.73 -0.270314 -2.96771 0
M  V30 11537 H 1131.27 -0.145148 -1.46382 0
M  V30 11538 H 1133.23 2.13124 -3.58656 0
M  V30 11539 H 1131.86 2.10697 -2.44554 0
M  V30 11540 H 1130.91 0.103326 -3.8026 0
M  V30 11541 H 1132.22 0.354676 -4.97537 0
M  V30 11542 H 1131.37 2.66167 -5.45197 0
M  V30 11543 H 1130.11 2.4788 -4.20008 0
M  V30 11544 H 1129.12 0.555262 -5.46989 0
M  V30 11545 H 1130.34 0.760122 -6.74833 0
M  V30 11546 H 1128.29 2.84254 -5.91216 0
M  V30 11547 H 1128.21 1.84961 -7.33025 0
M  V30 11548 H 1129.47 3.02953 -7.1822 0
M  V30 11549 N 1133.7 1.56767 -0.161869 0
M  V30 11550 C 1134.63 2.20511 0.767918 0
M  V30 11551 C 1135.61 1.15783 1.24612 0
M  V30 11552 O 1136.8 1.44179 1.301 0
M  V30 11553 C 1133.93 2.83844 2.00125 0
M  V30 11554 C 1132.88 3.94528 1.65926 0
M  V30 11555 C 1132.21 4.44866 2.96646 0
M  V30 11556 C 1133.51 5.14583 0.894497 0
M  V30 11557 H 1135.2 2.98464 0.236607 0
M  V30 11558 H 1132.75 1.43561 0.112363 0
M  V30 11559 H 1134.7 3.27109 2.65664 0
M  V30 11560 H 1133.43 2.03246 2.55654 0
M  V30 11561 H 1132.08 3.51904 1.02759 0
M  V30 11562 H 1131.73 3.61071 3.50196 0
M  V30 11563 H 1131.43 5.19531 2.74521 0
M  V30 11564 H 1132.96 4.90812 3.6323 0
M  V30 11565 H 1134.37 5.54601 1.45228 0
M  V30 11566 H 1132.77 5.95105 0.772636 0
M  V30 11567 H 1133.84 4.84773 -0.110986 0
M  V30 11568 N 1135.18 -0.111886 1.57202 0
M  V30 11569 C 1136.13 -1.14287 1.97288 0
M  V30 11570 C 1137.11 -1.36686 0.848868 0
M  V30 11571 O 1138.31 -1.37659 1.11261 0
M  V30 11572 C 1135.44 -2.46759 2.38673 0
M  V30 11573 C 1134.52 -2.27805 3.57723 0
M  V30 11574 N 1134.91 -1.78679 4.73189 0
M  V30 11575 C 1133.21 -2.58435 3.63494 0
M  V30 11576 C 1133.91 -1.736 5.55192 0
M  V30 11577 N 1132.89 -2.18205 4.97883 0
M  V30 11578 H 1136.69 -0.755711 2.84018 0
M  V30 11579 H 1134.2 -0.31954 1.59225 0
M  V30 11580 H 1136.2 -3.21335 2.65611 0
M  V30 11581 H 1134.86 -2.86227 1.53311 0
M  V30 11582 H 1135.87 -1.48121 4.96267 0
M  V30 11583 H 1132.55 -3.0154 2.88755 0
M  V30 11584 H 1133.94 -1.36812 6.57824 0
M  V30 11585 N 1136.66 -1.52894 -0.382264 0
M  V30 11586 C 1137.94 -1.58853 -1.14127 0
M  V30 11587 C 1138.32 -0.38582 -2.07544 0
M  V30 11588 O 1137.66 0.625323 -2.19777 0
M  V30 11589 C 1137.87 -2.93068 -1.89504 0
M  V30 11590 C 1139.22 -3.47048 -2.44629 0
M  V30 11591 O 1140.25 -2.94987 -1.99652 0
M  V30 11592 O 1139.1 -4.3802 -3.26804 0
M  V30 11593 H 1136.2 -0.640969 -0.522578 0
M  V30 11594 H 1138.74 -1.65231 -0.386873 0
M  V30 11595 H 1137.52 -3.72047 -1.2123 0
M  V30 11596 H 1137.14 -2.90106 -2.7189 0
M  V30 11597 N 1138.14 0.641106 -1.43971 0
M  V30 11598 C 1139.07 1.76489 -1.52885 0
M  V30 11599 C 1140.05 1.65742 -0.38258 0
M  V30 11600 O 1141.23 1.84653 -0.601397 0
M  V30 11601 C 1138.36 3.14977 -1.4631 0
M  V30 11602 C 1137.32 3.40502 -2.59311 0
M  V30 11603 C 1136.64 4.78916 -2.37789 0
M  V30 11604 C 1137.94 3.34048 -4.01509 0
M  V30 11605 H 1139.64 1.69286 -2.46946 0
M  V30 11606 H 1137.18 0.813015 -1.18853 0
M  V30 11607 H 1139.14 3.9336 -1.51149 0
M  V30 11608 H 1137.86 3.2294 -0.487599 0
M  V30 11609 H 1136.52 2.64495 -2.53846 0
M  V30 11610 H 1136.17 4.8357 -1.38454 0
M  V30 11611 H 1135.87 4.96954 -3.13545 0
M  V30 11612 H 1137.39 5.59541 -2.4443 0
M  V30 11613 H 1138.81 4.0235 -4.08396 0
M  V30 11614 H 1137.2 3.63622 -4.77388 0
M  V30 11615 H 1138.27 2.32022 -4.25786 0
M  V30 11616 N 1139.62 1.30703 0.880598 0
M  V30 11617 C 1140.84 1.22843 1.67106 0
M  V30 11618 C 1141.27 -0.204788 1.86982 0
M  V30 11619 O 1140.62 -1.14716 1.40392 0
M  V30 11620 C 1140.67 1.96685 3.02237 0
M  V30 11621 O 1139.78 1.29693 3.91476 0
M  V30 11622 H 1139.12 0.424661 0.51045 0
M  V30 11623 H 1141.65 1.72596 1.09871 0
M  V30 11624 H 1141.66 2.05874 3.52249 0
M  V30 11625 H 1140.33 3.00919 2.8709 0
M  V30 11626 H 1138.91 1.28886 3.49918 0
M  V30 11627 N 1141.09 -1.09351 1.1349 0
M  V30 11628 C 1142.5 -1.63035 0.909746 0
M  V30 11629 C 1142.86 -1.88229 -0.553573 0
M  V30 11630 O 1141.98 -1.63256 -1.42044 0
M  V30 11631 C 1142.58 -2.96186 1.64497 0
M  V30 11632 C 1141.13 -3.46692 1.46566 0
M  V30 11633 C 1140.28 -2.21095 1.67369 0
M  V30 11634 H 1143.23 -0.92704 1.28809 0
M  V30 11635 H 1143.25 -3.64177 1.10251 0
M  V30 11636 H 1142.77 -2.77818 2.70996 0
M  V30 11637 H 1140.87 -3.70183 0.423728 0
M  V30 11638 H 1140.98 -4.24078 2.22923 0
M  V30 11639 H 1139.34 -2.29789 1.0986 0
M  V30 11640 H 1140.13 -2.05245 2.7519 0
M  V30 11641 N 1142.57 -0.928524 -1.27343 0
M  V30 11642 C 1143.53 -0.43292 -2.25074 0
M  V30 11643 C 1144.53 0.448976 -1.54405 0
M  V30 11644 O 1145.72 0.249939 -1.72398 0
M  V30 11645 C 1142.86 0.377539 -3.38803 0
M  V30 11646 H 1144.05 -1.29642 -2.70431 0
M  V30 11647 H 1141.6 -0.709289 -1.3928 0
M  V30 11648 H 1142.34 1.25982 -2.98829 0
M  V30 11649 H 1142.12 -0.254782 -3.91271 0
M  V30 11650 H 1143.61 0.714634 -4.1144 0
M  V30 11651 N 1144.05 1.41491 -0.694123 0
M  V30 11652 C 1145.01 2.2917 -0.0368562 0
M  V30 11653 C 1146.01 1.44305 0.709426 0
M  V30 11654 O 1147.2 1.6547 0.544533 0
M  V30 11655 C 1144.33 3.27156 0.958201 0
M  V30 11656 H 1145.53 2.88787 -0.808829 0
M  V30 11657 H 1143.08 1.49453 -0.457538 0
M  V30 11658 H 1143.82 2.72516 1.75799 0
M  V30 11659 H 1143.6 3.89776 0.426227 0
M  V30 11660 H 1145.09 3.92863 1.41592 0
M  V30 11661 N 1145.53 0.438773 1.51369 0
M  V30 11662 C 1146.76 -0.125665 2.06217 0
M  V30 11663 C 1147.17 -1.36887 1.30609 0
M  V30 11664 O 1146.51 -1.80149 0.359433 0
M  V30 11665 C 1146.57 -0.511846 3.55838 0
M  V30 11666 C 1146.23 0.624755 4.52709 0
M  V30 11667 C 1147.23 1.49731 4.97872 0
M  V30 11668 C 1144.92 0.805895 4.95793 0
M  V30 11669 C 1146.91 2.53569 5.84792 0
M  V30 11670 C 1144.6 1.84755 5.82502 0
M  V30 11671 C 1145.6 2.71083 6.269 0
M  V30 11672 O 1145.28 3.7346 7.11887 0
M  V30 11673 H 1145.02 -0.0107227 0.675915 0
M  V30 11674 H 1147.57 0.617071 1.95912 0
M  V30 11675 H 1145.8 -1.30731 3.63932 0
M  V30 11676 H 1147.49 -1.0076 3.93195 0
M  V30 11677 H 1148.25 1.36891 4.65281 0
M  V30 11678 H 1144.13 0.14352 4.60777 0
M  V30 11679 H 1147.68 3.20984 6.19367 0
M  V30 11680 H 1143.57 1.97614 6.14507 0
M  V30 11681 H 1144.34 3.70058 7.30068 0
M  V30 11682 N 1147.01 -1.56678 0.170181 0
M  V30 11683 C 1148.23 -2.01223 -0.481362 0
M  V30 11684 C 1148.65 -1.05039 -1.56883 0
M  V30 11685 O 1148.01 -0.0510751 -1.82429 0
M  V30 11686 C 1148.06 -3.45588 -1.06073 0
M  V30 11687 O 1147.78 -4.38097 -0.0166754 0
M  V30 11688 C 1149.28 -4.05527 -1.79061 0
M  V30 11689 H 1146.5 -0.659574 -0.1233 0
M  V30 11690 H 1149.04 -2.02689 0.271576 0
M  V30 11691 H 1147.2 -3.449 -1.76417 0
M  V30 11692 H 1147.61 -5.22615 -0.444276 0
M  V30 11693 H 1149.09 -5.08467 -2.1486 0
M  V30 11694 H 1149.56 -3.47554 -2.68519 0
M  V30 11695 H 1150.17 -4.09914 -1.13361 0
M  V30 11696 N 1148.48 0.103547 -1.57259 0
M  V30 11697 C 1149.43 1.12621 -2.01458 0
M  V30 11698 C 1150.4 1.40282 -0.889391 0
M  V30 11699 O 1151.59 1.51887 -1.15477 0
M  V30 11700 C 1148.73 2.44352 -2.43692 0
M  V30 11701 C 1147.84 2.23495 -3.69695 0
M  V30 11702 C 1146.97 3.48565 -4.00844 0
M  V30 11703 C 1146.01 3.22932 -5.19982 0
M  V30 11704 N 1145.15 4.40246 -5.46926 0
M  V30 11705 H 1149.99 0.742315 -2.88606 0
M  V30 11706 H 1147.53 0.355016 -1.42752 0
M  V30 11707 H 1149.48 3.2122 -2.66221 0
M  V30 11708 H 1148.11 2.80605 -1.59565 0
M  V30 11709 H 1147.17 1.3747 -3.54692 0
M  V30 11710 H 1148.48 2.0054 -4.56711 0
M  V30 11711 H 1147.63 4.33844 -4.24104 0
M  V30 11712 H 1146.37 3.74565 -3.12333 0
M  V30 11713 H 1145.38 2.36045 -4.96551 0
M  V30 11714 H 1146.6 2.98286 -6.10084 0
M  V30 11715 H 1144.55 4.66338 -4.61373 0
M  V30 11716 H 1144.46 4.20452 -6.28296 0
M  V30 11717 H 1145.73 5.26614 -5.74716 0
M  V30 11718 N 1149.96 1.53094 0.37415 0
M  V30 11719 C 1151.21 1.68527 1.11548 0
M  V30 11720 C 1151.53 0.435253 1.9008 0
M  V30 11721 O 1150.8 -0.550594 1.88003 0
M  V30 11722 H 1149.38 0.621255 0.41479 0
M  V30 11723 H 1152.04 1.90258 0.422844 0
M  V30 11724 H 1151.14 2.54248 1.81009 0
M  V30 11725 N 1151.44 -0.633461 1.44309 0
M  V30 11726 C 1152.69 -1.39513 1.47187 0
M  V30 11727 C 1153.02 -1.93926 0.103186 0
M  V30 11728 O 1152.29 -1.73512 -0.878853 0
M  V30 11729 C 1152.58 -2.56213 2.53036 0
M  V30 11730 C 1152.43 -2.07164 3.99253 0
M  V30 11731 C 1153.75 -3.58403 2.55412 0
M  V30 11732 H 1150.87 -0.505936 0.535908 0
M  V30 11733 H 1153.51 -0.716445 1.75975 0
M  V30 11734 H 1151.66 -3.14111 2.28619 0
M  V30 11735 H 1153.33 -1.54115 4.34795 0
M  V30 11736 H 1151.57 -1.38367 4.11141 0
M  V30 11737 H 1152.25 -2.91172 4.6896 0
M  V30 11738 H 1154.72 -3.103 2.77224 0
M  V30 11739 H 1153.6 -4.37581 3.31382 0
M  V30 11740 H 1153.86 -4.12316 1.59523 0
M  V30 11741 N 1152.92 -1.31168 -0.873655 0
M  V30 11742 C 1153.88 -1.18471 -1.96207 0
M  V30 11743 C 1154.88 -0.112814 -1.60404 0
M  V30 11744 O 1156.07 -0.3618 -1.70401 0
M  V30 11745 C 1153.2 -0.817662 -3.30949 0
M  V30 11746 H 1154.4 -2.1518 -2.08896 0
M  V30 11747 H 1151.95 -1.14727 -1.06149 0
M  V30 11748 H 1152.68 0.148428 -3.2396 0
M  V30 11749 H 1152.47 -1.59244 -3.58307 0
M  V30 11750 H 1153.96 -0.75262 -4.10762 0
M  V30 11751 N 1154.4 1.08748 -1.14068 0
M  V30 11752 C 1155.62 1.85353 -0.930532 0
M  V30 11753 C 1156.05 1.80892 0.515717 0
M  V30 11754 O 1155.4 1.19146 1.36652 0
M  V30 11755 C 1155.45 3.30962 -1.43167 0
M  V30 11756 O 1154.56 4.0769 -0.621468 0
M  V30 11757 H 1153.9 0.574485 -0.332962 0
M  V30 11758 H 1156.43 1.37282 -1.51707 0
M  V30 11759 H 1156.44 3.81807 -1.43832 0
M  V30 11760 H 1155.11 3.33524 -2.48464 0
M  V30 11761 H 1153.69 3.66587 -0.683267 0
M  V30 11762 N 1155.87 0.935264 1.26849 0
M  V30 11763 C 1157.29 0.623198 1.75992 0
M  V30 11764 C 1157.64 -0.861647 1.76267 0
M  V30 11765 O 1156.76 -1.6743 1.37099 0
M  V30 11766 C 1157.36 1.12451 3.19594 0
M  V30 11767 C 1155.92 0.862974 3.66374 0
M  V30 11768 C 1155.06 1.27886 2.4605 0
M  V30 11769 H 1158.01 1.11422 1.13008 0
M  V30 11770 H 1158.03 0.475626 3.77516 0
M  V30 11771 H 1157.55 2.20522 3.19361 0
M  V30 11772 H 1155.65 -0.203606 3.72043 0
M  V30 11773 H 1155.76 1.48582 4.55478 0
M  V30 11774 H 1154.12 0.697335 2.44968 0
M  V30 11775 H 1154.91 2.36837 2.48522 0
M  V30 11776 N 1157.35 -1.41121 0.701616 0
M  V30 11777 C 1158.6 -2.00733 0.234682 0
M  V30 11778 C 1158.92 -1.55869 -1.17174 0
M  V30 11779 O 1158.19 -0.791965 -1.79178 0
M  V30 11780 H 1156.77 -0.742288 0.0837745 0
M  V30 11781 H 1159.43 -1.7266 0.904127 0
M  V30 11782 H 1158.53 -3.11041 0.256831 0
M  V30 11783 N 1158.83 -0.446794 -1.51134 0
M  V30 11784 C 1159.78 0.378002 -2.24845 0
M  V30 11785 C 1160.76 0.982126 -1.27448 0
M  V30 11786 O 1161.96 0.8987 -1.52487 0
M  V30 11787 C 1159.09 1.4733 -3.10079 0
M  V30 11788 C 1158.17 0.878102 -4.1491 0
M  V30 11789 N 1158.56 0.0129452 -5.05798 0
M  V30 11790 C 1156.86 1.14468 -4.3106 0
M  V30 11791 C 1157.56 -0.322333 -5.80806 0
M  V30 11792 N 1156.54 0.296438 -5.42791 0
M  V30 11793 H 1160.34 -0.28885 -2.92477 0
M  V30 11794 H 1157.85 -0.259439 -1.60314 0
M  V30 11795 H 1159.85 2.07713 -3.6147 0
M  V30 11796 H 1158.51 2.14239 -2.43992 0
M  V30 11797 H 1159.52 -0.354177 -5.16688 0
M  V30 11798 H 1156.2 1.81056 -3.76198 0
M  V30 11799 H 1157.59 -1.02693 -6.64006 0
M  V30 11800 N 1160.31 1.56586 -0.178487 0
M  V30 11801 C 1161.55 1.98994 0.466987 0
M  V30 11802 C 1161.91 1.06229 1.59935 0
M  V30 11803 O 1163.11 1.37806 2.30788 0
M  V30 11804 C 1161.38 3.45064 0.930899 0
M  V30 11805 S 1162.94 4.095 1.57655 0
M  V30 11806 H 1159.76 0.695007 0.149955 0
M  V30 11807 H 1162.36 1.93519 -0.27764 0
M  V30 11808 H 1161.07 4.10287 0.0964476 0
M  V30 11809 H 1160.6 3.54321 1.70939 0
M  V30 11810 H 1162.61 4.05139 2.86491 0
M  V30 11811 N 1161.79 -0.095206 1.57312 0
M  V30 11812 C 1162.74 -1.12188 1.98489 0
M  V30 11813 C 1163.72 -1.35778 0.863317 0
M  V30 11814 O 1164.91 -1.36471 1.12715 0
M  V30 11815 C 1162.04 -2.44214 2.41277 0
M  V30 11816 C 1161.13 -2.23998 3.60119 0
M  V30 11817 N 1161.52 -1.7365 4.75057 0
M  V30 11818 C 1159.82 -2.54565 3.66214 0
M  V30 11819 C 1160.52 -1.67702 5.57002 0
M  V30 11820 N 1159.49 -2.12912 5.00169 0
M  V30 11821 H 1163.3 -0.725545 2.84804 0
M  V30 11822 H 1160.81 -0.302634 1.59555 0
M  V30 11823 H 1162.81 -3.185 2.69004 0
M  V30 11824 H 1161.47 -2.84585 1.56339 0
M  V30 11825 H 1162.48 -1.42849 4.9781 0
M  V30 11826 H 1159.15 -2.98461 2.91937 0
M  V30 11827 H 1160.54 -1.29827 6.59238 0
M  V30 11828 N 1163.26 -1.53291 -0.366026 0
M  V30 11829 C 1164.19 -1.82675 -1.45437 0
M  V30 11830 C 1165.18 -0.680227 -1.55907 0
M  V30 11831 O 1166.36 -0.930032 -1.70482 0
M  V30 11832 C 1163.49 -2.01626 -2.8278 0
M  V30 11833 C 1162.44 -3.17391 -2.87135 0
M  V30 11834 C 1161.77 -3.21634 -4.27148 0
M  V30 11835 C 1163.07 -4.5599 -2.54697 0
M  V30 11836 H 1164.76 -2.73818 -1.21096 0
M  V30 11837 H 1162.31 -1.31754 -0.581108 0
M  V30 11838 H 1164.26 -2.20765 -3.58944 0
M  V30 11839 H 1162.99 -1.07193 -3.08508 0
M  V30 11840 H 1161.65 -2.98071 -2.13422 0
M  V30 11841 H 1161.29 -2.2484 -4.49951 0
M  V30 11842 H 1160.99 -3.99414 -4.30978 0
M  V30 11843 H 1162.52 -3.42957 -5.05186 0
M  V30 11844 H 1163.93 -4.75294 -3.20575 0
M  V30 11845 H 1162.33 -5.36008 -2.69844 0
M  V30 11846 H 1163.4 -4.61133 -1.49949 0
M  V30 11847 N 1164.74 0.6258 -1.44643 0
M  V30 11848 C 1165.99 1.38251 -1.47414 0
M  V30 11849 C 1166.31 1.94689 -0.110043 0
M  V30 11850 O 1165.58 1.76095 0.858333 0
M  V30 11851 H 1164.16 0.513179 -0.542823 0
M  V30 11852 H 1166.82 0.736179 -1.80462 0
M  V30 11853 H 1165.92 2.21115 -2.2026 0
M  V30 11854 N 1166.22 1.31629 0.866686 0
M  V30 11855 C 1167.15 1.22151 1.99001 0
M  V30 11856 C 1168.13 0.107972 1.69757 0
M  V30 11857 O 1169.32 0.293125 1.91975 0
M  V30 11858 C 1166.45 0.93144 3.34577 0
M  V30 11859 C 1165.4 2.0049 3.78137 0
M  V30 11860 C 1164.73 1.56747 5.11209 0
M  V30 11861 C 1166.03 3.41844 3.94892 0
M  V30 11862 H 1167.72 2.16132 2.0719 0
M  V30 11863 H 1165.27 1.04051 0.995463 0
M  V30 11864 H 1167.22 0.851719 4.12703 0
M  V30 11865 H 1165.94 -0.0440289 3.2657 0
M  V30 11866 H 1164.6 2.07457 3.02253 0
M  V30 11867 H 1164.25 0.579767 4.99648 0
M  V30 11868 H 1163.95 2.28562 5.41326 0
M  V30 11869 H 1165.47 1.50188 5.91841 0
M  V30 11870 H 1166.89 3.37534 4.63405 0
M  V30 11871 H 1165.29 4.11905 4.36411 0
M  V30 11872 H 1166.36 3.82389 2.98172 0
M  V30 11873 N 1167.7 -1.08142 1.14644 0
M  V30 11874 C 1169.11 -1.62061 0.926986 0
M  V30 11875 C 1169.46 -1.88805 -0.533578 0
M  V30 11876 O 1168.59 -1.64753 -1.40305 0
M  V30 11877 C 1169.18 -2.94425 1.67629 0
M  V30 11878 C 1167.74 -3.45118 1.50235 0
M  V30 11879 C 1166.89 -2.19307 1.69705 0
M  V30 11880 H 1169.84 -0.913326 1.29785 0
M  V30 11881 H 1169.86 -3.62987 1.14107 0
M  V30 11882 H 1169.37 -2.74928 2.73927 0
M  V30 11883 H 1167.47 -3.69713 0.462967 0
M  V30 11884 H 1167.59 -4.2169 2.27408 0
M  V30 11885 H 1165.95 -2.28611 1.12291 0
M  V30 11886 H 1166.73 -2.02315 2.77351 0
M  V30 11887 N 1169.18 -0.941978 -1.26351 0
M  V30 11888 C 1170.11 -0.409504 -2.25512 0
M  V30 11889 C 1171.12 0.467665 -1.55938 0
M  V30 11890 O 1172.31 0.277982 -1.76322 0
M  V30 11891 C 1169.41 0.430487 -3.36155 0
M  V30 11892 C 1168.58 -0.430714 -4.35274 0
M  V30 11893 C 1167.64 0.348976 -5.25042 0
M  V30 11894 O 1166.67 -0.24827 -5.68658 0
M  V30 11895 N 1167.87 1.64531 -5.56695 0
M  V30 11896 H 1170.64 -1.26196 -2.71836 0
M  V30 11897 H 1168.2 -0.810947 -1.40126 0
M  V30 11898 H 1170.19 0.959501 -3.93161 0
M  V30 11899 H 1168.76 1.18375 -2.8932 0
M  V30 11900 H 1167.98 -1.14093 -3.77328 0
M  V30 11901 H 1169.27 -1.01896 -4.98492 0
M  V30 11902 H 1168.67 2.15266 -5.23142 0
M  V30 11903 H 1167.22 2.12055 -6.16341 0
M  V30 11904 N 1170.66 1.40747 -0.709091 0
M  V30 11905 C 1172.07 1.83955 -0.318968 0
M  V30 11906 C 1172.42 1.59304 1.14527 0
M  V30 11907 O 1171.54 1.07052 1.88066 0
M  V30 11908 C 1172.14 3.33934 -0.572147 0
M  V30 11909 C 1170.7 3.75661 -0.235802 0
M  V30 11910 C 1169.84 2.64024 -0.847743 0
M  V30 11911 H 1172.79 1.30107 -0.908734 0
M  V30 11912 H 1172.82 3.80143 0.164752 0
M  V30 11913 H 1172.33 3.51844 -1.63791 0
M  V30 11914 H 1170.43 3.63348 0.825164 0
M  V30 11915 H 1170.54 4.73955 -0.700263 0
M  V30 11916 H 1168.91 2.53197 -0.276283 0
M  V30 11917 H 1169.69 2.84748 -1.91765 0
M  V30 11918 N 1172.13 0.454803 1.50895 0
M  V30 11919 C 1173.1 -0.336293 2.26719 0
M  V30 11920 C 1174.1 -0.93464 1.30848 0
M  V30 11921 O 1175.29 -0.80636 1.54413 0
M  V30 11922 C 1172.42 -1.47744 3.07221 0
M  V30 11923 H 1173.61 0.328462 2.98096 0
M  V30 11924 H 1171.16 0.208419 1.54904 0
M  V30 11925 H 1171.9 -2.17773 2.40302 0
M  V30 11926 H 1171.68 -1.05438 3.77658 0
M  V30 11927 H 1173.17 -2.03592 3.6461 0
M  V30 11928 N 1173.61 -1.56489 0.186789 0
M  V30 11929 C 1174.86 -1.96952 -0.453261 0
M  V30 11930 C 1175.18 -1.07451 -1.62725 0
M  V30 11931 O 1174.45 -0.144046 -1.9537 0
M  V30 11932 H 1173.03 -0.727295 -0.170445 0
M  V30 11933 H 1175.69 -1.92999 0.271584 0
M  V30 11934 H 1174.79 -3.01594 -0.802951 0
M  V30 11935 N 1175.09 0.086862 -1.5736 0
M  V30 11936 C 1176 1.12297 -2.05977 0
M  V30 11937 C 1177.02 1.43347 -0.986284 0
M  V30 11938 O 1178.19 1.53825 -1.3 0
M  V30 11939 C 1175.26 2.42131 -2.4814 0
M  V30 11940 C 1174.32 2.18189 -3.69719 0
M  V30 11941 C 1173.55 3.41833 -4.09861 0
M  V30 11942 O 1173.77 4.50383 -3.50016 0
M  V30 11943 O 1172.71 3.30934 -5.02759 0
M  V30 11944 H 1176.53 0.740012 -2.94546 0
M  V30 11945 H 1174.12 0.29995 -1.46358 0
M  V30 11946 H 1176 3.18568 -2.75848 0
M  V30 11947 H 1174.68 2.79837 -1.62705 0
M  V30 11948 H 1173.58 1.39506 -3.47115 0
M  V30 11949 H 1174.92 1.85372 -4.55959 0
M  V30 11950 N 1176.57 1.53483 0.357892 0
M  V30 11951 C 1177.53 1.79782 1.42166 0
M  V30 11952 C 1178.53 0.668441 1.46248 0
M  V30 11953 O 1179.72 0.936677 1.46874 0
M  V30 11954 C 1176.85 1.92686 2.8122 0
M  V30 11955 H 1178.05 2.74794 1.20117 0
M  V30 11956 H 1175.6 1.44677 0.591468 0
M  V30 11957 H 1176.33 0.997669 3.08573 0
M  V30 11958 H 1176.12 2.74837 2.79655 0
M  V30 11959 H 1177.61 2.14599 3.58242 0
M  V30 11960 N 1178.05 -0.61812 1.44973 0
M  V30 11961 C 1179.46 -1.19994 1.43033 0
M  V30 11962 C 1179.81 -1.95607 0.152422 0
M  V30 11963 O 1178.93 -2.03114 -0.746571 0
M  V30 11964 C 1179.53 -2.18269 2.59122 0
M  V30 11965 C 1178.09 -2.7185 2.60336 0
M  V30 11966 C 1177.23 -1.4707 2.35086 0
M  V30 11967 H 1180.18 -0.408034 1.53365 0
M  V30 11968 H 1180.21 -3.01113 2.32619 0
M  V30 11969 H 1179.72 -1.63208 3.52115 0
M  V30 11970 H 1177.82 -3.30878 1.7132 0
M  V30 11971 H 1177.93 -3.17001 3.59231 0
M  V30 11972 H 1176.3 -1.75658 1.84435 0
M  V30 11973 H 1177.08 -0.938928 3.30211 0
M  V30 11974 N 1179.52 -1.32087 -0.859693 0
M  V30 11975 C 1180.49 -1.20546 -1.94939 0
M  V30 11976 C 1181.49 -0.12982 -1.60275 0
M  V30 11977 O 1182.68 -0.379853 -1.70008 0
M  V30 11978 C 1179.81 -0.852717 -3.30063 0
M  V30 11979 H 1181 -2.17384 -2.06602 0
M  V30 11980 H 1178.55 -1.15846 -1.04926 0
M  V30 11981 H 1179.29 0.114059 -3.24099 0
M  V30 11982 H 1179.07 -1.63035 -3.56598 0
M  V30 11983 H 1180.56 -0.796145 -4.09941 0
M  V30 11984 N 1181 1.07532 -1.15215 0
M  V30 11985 C 1182.25 1.8036 -0.927263 0
M  V30 11986 C 1182.58 1.86414 0.544371 0
M  V30 11987 O 1181.86 1.34653 1.40353 0
M  V30 11988 C 1182.14 3.25512 -1.53992 0
M  V30 11989 C 1181.99 3.27614 -3.08203 0
M  V30 11990 C 1183.31 4.22731 -1.22418 0
M  V30 11991 H 1180.43 0.654775 -0.338289 0
M  V30 11992 H 1183.07 1.25842 -1.42351 0
M  V30 11993 H 1181.22 3.72068 -1.11791 0
M  V30 11994 H 1182.89 2.89315 -3.59297 0
M  V30 11995 H 1181.14 2.66627 -3.42188 0
M  V30 11996 H 1181.81 4.29956 -3.46182 0
M  V30 11997 H 1184.28 3.84557 -1.58919 0
M  V30 11998 H 1183.16 5.22589 -1.67906 0
M  V30 11999 H 1183.42 4.41875 -0.14091 0
M  V30 12000 N 1182.48 0.948665 1.2585 0
M  V30 12001 C 1183.41 0.421458 2.25292 0
M  V30 12002 C 1184.43 -0.459389 1.56184 0
M  V30 12003 O 1185.61 -0.268627 1.76467 0
M  V30 12004 C 1182.71 -0.412653 3.36378 0
M  V30 12005 C 1181.89 0.453792 4.3504 0
M  V30 12006 C 1180.95 -0.321127 5.25219 0
M  V30 12007 O 1179.97 0.278424 5.68519 0
M  V30 12008 N 1181.17 -1.61576 5.5756 0
M  V30 12009 H 1183.94 1.27636 2.71162 0
M  V30 12010 H 1181.5 0.818367 1.39694 0
M  V30 12011 H 1183.49 -0.938637 3.93664 0
M  V30 12012 H 1182.06 -1.16839 2.89944 0
M  V30 12013 H 1181.28 1.16093 3.76718 0
M  V30 12014 H 1182.57 1.04538 4.97945 0
M  V30 12015 H 1181.97 -2.12488 5.24276 0
M  V30 12016 H 1180.53 -2.08783 6.17457 0
M  V30 12017 N 1183.96 -1.40369 0.716545 0
M  V30 12018 C 1185.24 -1.94737 0.183576 0
M  V30 12019 C 1185.62 -1.65464 -1.31092 0
M  V30 12020 O 1184.96 -0.972832 -2.06756 0
M  V30 12021 C 1185.17 -3.45438 0.497339 0
M  V30 12022 C 1186.52 -4.2235 0.436526 0
M  V30 12023 O 1187.55 -3.53553 0.433454 0
M  V30 12024 O 1186.4 -5.44923 0.41489 0
M  V30 12025 H 1183.5 -0.82655 0.0272785 0
M  V30 12026 H 1186.04 -1.49972 0.794143 0
M  V30 12027 H 1184.82 -3.60107 1.53097 0
M  V30 12028 H 1184.44 -3.97342 -0.143141 0
M  V30 12029 N 1185.44 -0.462799 -1.50652 0
M  V30 12030 C 1186.68 0.0951853 -2.02576 0
M  V30 12031 C 1187.02 1.40113 -1.34469 0
M  V30 12032 O 1186.29 1.88793 -0.467702 0
M  V30 12033 C 1186.57 0.287603 -3.5895 0
M  V30 12034 C 1186.43 -1.03878 -4.37641 0
M  V30 12035 C 1187.75 1.04593 -4.27491 0
M  V30 12036 H 1184.86 0.0331191 -0.736255 0
M  V30 12037 H 1187.51 -0.606772 -1.80051 0
M  V30 12038 H 1185.66 0.885514 -3.78274 0
M  V30 12039 H 1187.33 -1.67263 -4.29908 0
M  V30 12040 H 1185.57 -1.6374 -4.01711 0
M  V30 12041 H 1186.24 -0.857889 -5.45293 0
M  V30 12042 H 1188.72 0.539213 -4.12591 0
M  V30 12043 H 1187.59 1.14935 -5.36732 0
M  V30 12044 H 1187.86 2.08045 -3.90089 0
M  V30 12045 N 1186.91 1.56388 -0.195085 0
M  V30 12046 C 1188.33 1.8398 0.317513 0
M  V30 12047 C 1188.68 1.11575 1.61386 0
M  V30 12048 O 1187.8 0.376557 2.13099 0
M  V30 12049 C 1188.4 3.33749 0.582859 0
M  V30 12050 C 1186.96 3.61752 1.03983 0
M  V30 12051 C 1186.1 2.77159 0.088434 0
M  V30 12052 H 1189.05 1.53072 -0.418871 0
M  V30 12053 H 1189.07 3.52519 1.43216 0
M  V30 12054 H 1188.59 3.86419 -0.360813 0
M  V30 12055 H 1186.69 3.14515 1.99778 0
M  V30 12056 H 1186.8 4.69937 0.932549 0
M  V30 12057 H 1185.16 2.47765 0.590317 0
M  V30 12058 H 1185.95 3.32619 -0.849682 0
M  V30 12059 N 1188.39 -0.0785156 1.57404 0
M  V30 12060 C 1189.81 -0.433143 1.5361 0
M  V30 12061 C 1190.01 -1.79564 0.914283 0
M  V30 12062 O 1189.06 -2.47215 0.513899 0
M  V30 12063 C 1190.38 -0.380387 2.98284 0
M  V30 12064 C 1191.93 -0.461056 3.09586 0
M  V30 12065 C 1192.4 -0.438276 4.55898 0
M  V30 12066 N 1193.89 -0.498548 4.60509 0
M  V30 12067 C 1194.63 -0.503028 5.71189 0
M  V30 12068 N 1194.12 -0.462724 6.91253 0
M  V30 12069 N 1195.92 -0.549083 5.59412 0
M  V30 12070 H 1188.07 0.813724 1.96195 0
M  V30 12071 H 1190.33 0.304644 0.897717 0
M  V30 12072 H 1190.04 0.553932 3.4731 0
M  V30 12073 H 1189.91 -1.19313 3.57833 0
M  V30 12074 H 1192.3 -1.3858 2.60537 0
M  V30 12075 H 1192.38 0.380138 2.5296 0
M  V30 12076 H 1192.02 0.482588 5.05602 0
M  V30 12077 H 1191.95 -1.29691 5.1038 0
M  V30 12078 H 1194.44 -0.534219 3.74105 0
M  V30 12079 H 1194.76 -0.469883 7.7137 0
M  V30 12080 H 1193.1 -0.429515 6.93672 0
M  V30 12081 H 1196.29 -0.578215 4.64515 0
M  V30 12082 H 1196.46 -0.549105 6.45669 0
M  V30 12083 N 1189.87 -1.5367 -0.349747 0
M  V30 12084 C 1191.28 -1.62135 -0.925704 0
M  V30 12085 C 1191.63 -0.498725 -1.89756 0
M  V30 12086 O 1190.76 0.372481 -2.1317 0
M  V30 12087 C 1191.35 -2.93885 -1.68573 0
M  V30 12088 C 1189.91 -3.04632 -2.2108 0
M  V30 12089 C 1189.06 -2.57541 -1.02801 0
M  V30 12090 H 1192.01 -1.58182 -0.128065 0
M  V30 12091 H 1192.03 -2.82577 -2.54815 0
M  V30 12092 H 1191.54 -3.75571 -0.978153 0
M  V30 12093 H 1189.64 -2.27567 -2.95032 0
M  V30 12094 H 1189.76 -4.09993 -2.47876 0
M  V30 12095 H 1188.12 -2.12798 -1.39962 0
M  V30 12096 H 1188.9 -3.4166 -0.335157 0
M  V30 12097 N 1191.35 0.610423 -1.45298 0
M  V30 12098 C 1192.59 1.37154 -1.49388 0
M  V30 12099 C 1192.93 1.93737 -0.134025 0
M  V30 12100 O 1192.2 1.74888 0.851138 0
M  V30 12101 C 1192.49 2.52155 -2.5708 0
M  V30 12102 C 1192.34 2.00786 -4.02498 0
M  V30 12103 C 1193.66 3.54294 -2.61082 0
M  V30 12104 H 1190.78 0.497346 -0.54389 0
M  V30 12105 H 1193.42 0.688358 -1.77092 0
M  V30 12106 H 1191.57 3.10434 -2.33587 0
M  V30 12107 H 1193.24 1.47178 -4.37191 0
M  V30 12108 H 1191.48 1.31809 -4.1329 0
M  V30 12109 H 1192.15 2.83674 -4.73533 0
M  V30 12110 H 1194.63 3.05851 -2.82125 0
M  V30 12111 H 1193.51 4.32254 -3.38301 0
M  V30 12112 H 1193.77 4.09726 -1.66063 0
M  V30 12113 N 1192.83 1.32541 0.852676 0
M  V30 12114 C 1193.79 1.21578 1.94297 0
M  V30 12115 C 1194.79 0.138318 1.60204 0
M  V30 12116 O 1195.98 0.388864 1.69804 0
M  V30 12117 C 1193.11 0.870209 3.29606 0
M  V30 12118 H 1194.3 2.18476 2.05446 0
M  V30 12119 H 1191.86 1.16401 1.0431 0
M  V30 12120 H 1192.59 -0.0968698 3.24155 0
M  V30 12121 H 1192.38 1.64924 3.55728 0
M  V30 12122 H 1193.87 0.817874 4.09513 0
M  V30 12123 N 1194.3 -1.0692 1.15784 0
M  V30 12124 C 1195.53 -1.8331 0.959422 0
M  V30 12125 C 1195.95 -1.82268 -0.492332 0
M  V30 12126 O 1195.3 -1.23727 -1.34156 0
M  V30 12127 C 1195.36 -3.30202 1.47135 0
M  V30 12128 O 1195.08 -3.31328 2.86624 0
M  V30 12129 C 1196.58 -4.23346 1.31504 0
M  V30 12130 H 1193.8 -0.578202 0.340475 0
M  V30 12131 H 1196.34 -1.34939 1.53661 0
M  V30 12132 H 1194.5 -3.75908 0.936587 0
M  V30 12133 H 1194.91 -4.23135 3.0993 0
M  V30 12134 H 1196.38 -5.24465 1.72163 0
M  V30 12135 H 1196.86 -4.38431 0.259773 0
M  V30 12136 H 1197.47 -3.8348 1.83911 0
M  V30 12137 N 1195.78 -0.955326 -1.25345 0
M  V30 12138 C 1196.73 -0.446792 -2.23579 0
M  V30 12139 C 1197.72 0.464354 -1.54054 0
M  V30 12140 O 1198.91 0.297293 -1.74485 0
M  V30 12141 C 1196.04 0.273533 -3.42209 0
M  V30 12142 C 1195.12 -0.655722 -4.19 0
M  V30 12143 N 1195.51 -1.78766 -4.73156 0
M  V30 12144 C 1193.81 -0.464059 -4.43579 0
M  V30 12145 C 1194.51 -2.36789 -5.31324 0
M  V30 12146 N 1193.49 -1.65435 -5.17815 0
M  V30 12147 H 1197.29 -1.31065 -2.63057 0
M  V30 12148 H 1194.81 -0.812899 -1.40591 0
M  V30 12149 H 1196.8 0.654986 -4.11723 0
M  V30 12150 H 1195.46 1.13399 -3.04254 0
M  V30 12151 H 1196.47 -2.1695 -4.70269 0
M  V30 12152 H 1193.15 0.353459 -4.16001 0
M  V30 12153 H 1194.54 -3.32242 -5.84008 0
M  V30 12154 N 1197.26 1.39987 -0.723979 0
M  V30 12155 C 1198.67 1.83606 -0.338461 0
M  V30 12156 C 1199.02 1.6051 1.12831 0
M  V30 12157 O 1198.15 1.09041 1.8692 0
M  V30 12158 C 1198.74 3.33308 -0.607533 0
M  V30 12159 C 1197.3 3.75389 -0.275632 0
M  V30 12160 C 1196.45 2.6311 -0.875699 0
M  V30 12161 H 1199.4 1.29135 -0.922483 0
M  V30 12162 H 1199.42 3.80297 0.124424 0
M  V30 12163 H 1198.93 3.50087 -1.67514 0
M  V30 12164 H 1197.03 3.64203 0.786579 0
M  V30 12165 H 1197.15 4.73185 -0.750492 0
M  V30 12166 H 1195.51 2.5289 -0.303122 0
M  V30 12167 H 1196.29 2.82698 -1.94774 0
M  V30 12168 N 1198.74 0.470782 1.50404 0
M  V30 12169 C 1199.99 -0.0841494 2.01925 0
M  V30 12170 C 1200.31 -1.40244 1.35487 0
M  V30 12171 O 1199.58 -1.89409 0.500111 0
M  V30 12172 H 1198.16 -0.0340884 0.746222 0
M  V30 12173 H 1200.82 0.621133 1.84738 0
M  V30 12174 H 1199.92 -0.235877 3.11207 0
M  V30 12175 N 1200.22 -1.56282 0.203376 0
M  V30 12176 C 1201.44 -2.02643 -0.441658 0
M  V30 12177 C 1201.87 -1.0825 -1.5383 0
M  V30 12178 O 1201.23 -0.0674337 -1.81175 0
M  V30 12179 C 1201.27 -3.47382 -0.967369 0
M  V30 12180 O 1200.38 -3.56115 -2.07981 0
M  V30 12181 H 1199.72 -0.656081 -0.102242 0
M  V30 12182 H 1202.25 -2.02134 0.316684 0
M  V30 12183 H 1202.26 -3.8734 -1.28186 0
M  V30 12184 H 1200.93 -4.15574 -0.164625 0
M  V30 12185 H 1199.51 -3.28035 -1.77334 0
M  V30 12186 N 1201.7 0.070167 -1.57444 0
M  V30 12187 C 1203.11 0.621805 -1.76041 0
M  V30 12188 C 1203.46 1.77824 -0.829047 0
M  V30 12189 O 1202.58 2.16396 -0.0135453 0
M  V30 12190 C 1203.18 1.13476 -3.19231 0
M  V30 12191 C 1201.74 1.63225 -3.39167 0
M  V30 12192 C 1200.88 0.552369 -2.71743 0
M  V30 12193 H 1203.83 -0.156009 -1.57931 0
M  V30 12194 H 1203.86 2.00352 -3.2348 0
M  V30 12195 H 1203.37 0.29288 -3.86993 0
M  V30 12196 H 1201.47 2.49733 -2.76522 0
M  V30 12197 H 1201.58 1.70807 -4.47618 0
M  V30 12198 H 1199.95 0.997797 -2.34342 0
M  V30 12199 H 1200.73 -0.279354 -3.42162 0
M  V30 12200 N 1203.17 1.53854 0.341593 0
M  V30 12201 C 1204.42 1.70856 1.07948 0
M  V30 12202 C 1204.74 0.475474 1.89114 0
M  V30 12203 O 1204.01 -0.510592 1.89129 0
M  V30 12204 H 1202.59 0.629914 0.401519 0
M  V30 12205 H 1205.25 1.91112 0.382393 0
M  V30 12206 H 1204.35 2.5803 1.75575 0
M  V30 12207 N 1204.65 -0.602709 1.4562 0
M  V30 12208 C 1205.58 -1.7271 1.50678 0
M  V30 12209 C 1206.6 -1.57884 0.397048 0
M  V30 12210 O 1207.79 -1.65676 0.664367 0
M  V30 12211 C 1204.89 -3.10762 1.35204 0
M  V30 12212 C 1204.06 -3.51782 2.59939 0
M  V30 12213 C 1203.12 -4.68816 2.38952 0
M  V30 12214 O 1202.14 -4.75686 3.12588 0
M  V30 12215 N 1203.35 -5.624 1.43827 0
M  V30 12216 H 1206.11 -1.68833 2.47619 0
M  V30 12217 H 1203.67 -0.788131 1.41422 0
M  V30 12218 H 1205.66 -3.86819 1.18967 0
M  V30 12219 H 1204.23 -3.09119 0.465203 0
M  V30 12220 H 1203.45 -2.65637 2.91257 0
M  V30 12221 H 1204.74 -3.75948 3.42842 0
M  V30 12222 H 1204.14 -5.59568 0.830669 0
M  V30 12223 H 1202.7 -6.37969 1.33561 0
M  V30 12224 N 1206.13 -1.32992 -0.845635 0
M  V30 12225 C 1207.54 -1.21616 -1.41656 0
M  V30 12226 C 1207.89 0.167687 -1.95482 0
M  V30 12227 O 1207.02 1.06692 -1.8827 0
M  V30 12228 C 1207.61 -2.2018 -2.575 0
M  V30 12229 C 1206.17 -2.12664 -3.10565 0
M  V30 12230 C 1205.32 -2.08042 -1.83341 0
M  V30 12231 H 1208.27 -1.44688 -0.651993 0
M  V30 12232 H 1208.29 -1.80558 -3.34931 0
M  V30 12233 H 1207.8 -3.20888 -2.18294 0
M  V30 12234 H 1205.9 -1.15235 -3.54333 0
M  V30 12235 H 1206.02 -3.02902 -3.71197 0
M  V30 12236 H 1204.38 -1.53416 -2.03312 0
M  V30 12237 H 1205.16 -3.10547 -1.46339 0
M  V30 12238 N 1207.61 1.06304 -1.1635 0
M  V30 12239 C 1209.02 1.60566 -0.952652 0
M  V30 12240 C 1209.37 1.8963 0.503473 0
M  V30 12241 O 1208.49 1.66964 1.37666 0
M  V30 12242 C 1209.09 2.9172 -1.72292 0
M  V30 12243 C 1207.65 3.42684 -1.55707 0
M  V30 12244 C 1206.8 2.16579 -1.73172 0
M  V30 12245 H 1209.75 0.892563 -1.31221 0
M  V30 12246 H 1209.77 3.61126 -1.19868 0
M  V30 12247 H 1209.28 2.70535 -2.78267 0
M  V30 12248 H 1207.38 3.68929 -0.521726 0
M  V30 12249 H 1207.49 4.18018 -2.34088 0
M  V30 12250 H 1205.86 2.26795 -1.15914 0
M  V30 12251 H 1206.64 1.97877 -2.80535 0
M  V30 12252 N 1209.09 0.96196 1.24836 0
M  V30 12253 C 1210.5 0.660388 1.7463 0
M  V30 12254 C 1210.85 -0.824064 1.78055 0
M  V30 12255 O 1209.97 -1.64485 1.40619 0
M  V30 12256 C 1210.57 1.19205 3.17137 0
M  V30 12257 C 1209.13 0.940493 3.64461 0
M  V30 12258 C 1208.27 1.33076 2.43282 0
M  V30 12259 H 1211.22 1.13794 1.1062 0
M  V30 12260 H 1211.25 0.555595 3.76422 0
M  V30 12261 H 1210.76 2.27247 3.14612 0
M  V30 12262 H 1208.86 -0.124645 3.72391 0
M  V30 12263 H 1208.97 1.5821 4.52224 0
M  V30 12264 H 1207.34 0.749139 2.43434 0
M  V30 12265 H 1208.12 2.42055 2.43442 0
M  V30 12266 N 1210.56 -1.39601 0.731392 0
M  V30 12267 C 1211.53 -2.28992 0.0976037 0
M  V30 12268 C 1212.53 -1.46135 -0.670917 0
M  V30 12269 O 1213.72 -1.66856 -0.50047 0
M  V30 12270 C 1210.85 -3.29582 -0.871124 0
M  V30 12271 H 1212.04 -2.86541 0.885112 0
M  V30 12272 H 1209.59 -1.48188 0.497002 0
M  V30 12273 H 1210.33 -2.77082 -1.68512 0
M  V30 12274 H 1210.11 -3.9077 -0.322735 0
M  V30 12275 H 1211.6 -3.96479 -1.31126 0
M  V30 12276 N 1212.04 -0.478751 -1.50152 0
M  V30 12277 C 1212.97 0.301182 -2.31549 0
M  V30 12278 C 1213.95 0.983276 -1.38801 0
M  V30 12279 O 1215.14 0.978973 -1.67719 0
M  V30 12280 C 1212.27 1.3791 -3.18745 0
M  V30 12281 C 1211.22 0.818175 -4.20107 0
M  V30 12282 C 1210.55 1.99496 -4.9609 0
M  V30 12283 C 1211.85 -0.17574 -5.22004 0
M  V30 12284 H 1213.54 -0.378188 -2.97002 0
M  V30 12285 H 1211.09 -0.183323 -1.42828 0
M  V30 12286 H 1213.04 1.93227 -3.74488 0
M  V30 12287 H 1211.77 2.08735 -2.51192 0
M  V30 12288 H 1210.42 0.286924 -3.65475 0
M  V30 12289 H 1210.07 2.69036 -4.25004 0
M  V30 12290 H 1209.77 1.62582 -5.6466 0
M  V30 12291 H 1211.3 2.55288 -5.54671 0
M  V30 12292 H 1212.71 0.288513 -5.72574 0
M  V30 12293 H 1211.11 -0.459549 -5.98338 0
M  V30 12294 H 1212.18 -1.09911 -4.72279 0
M  V30 12295 N 1213.52 1.56172 -0.211661 0
M  V30 12296 C 1214.45 2.22843 0.697375 0
M  V30 12297 C 1215.43 1.19689 1.20866 0
M  V30 12298 O 1216.62 1.48245 1.25447 0
M  V30 12299 C 1213.75 2.90067 1.90993 0
M  V30 12300 C 1212.7 3.99608 1.5329 0
M  V30 12301 C 1212.03 4.54078 2.82343 0
M  V30 12302 C 1213.33 5.17169 0.730333 0
M  V30 12303 H 1215.02 2.99065 0.141533 0
M  V30 12304 H 1212.57 1.43846 0.0666337 0
M  V30 12305 H 1214.52 3.35396 2.55123 0
M  V30 12306 H 1213.24 2.11276 2.49058 0
M  V30 12307 H 1211.9 3.54995 0.915115 0
M  V30 12308 H 1211.55 3.72029 3.38531 0
M  V30 12309 H 1211.25 5.28001 2.57853 0
M  V30 12310 H 1212.77 5.02119 3.47432 0
M  V30 12311 H 1214.19 5.5894 1.2751 0
M  V30 12312 H 1212.59 5.97262 0.582916 0
M  V30 12313 H 1213.66 4.84174 -0.265157 0
M  V30 12314 N 1215 -0.0618163 1.57479 0
M  V30 12315 C 1216.41 -0.612461 1.76368 0
M  V30 12316 C 1216.76 -1.77381 0.838466 0
M  V30 12317 O 1215.89 -2.16386 0.0250211 0
M  V30 12318 C 1216.48 -1.11782 3.19829 0
M  V30 12319 C 1215.04 -1.61424 3.40028 0
M  V30 12320 C 1214.19 -0.53795 2.72032 0
M  V30 12321 H 1217.14 0.164382 1.57846 0
M  V30 12322 H 1217.16 -1.98634 3.24538 0
M  V30 12323 H 1216.67 -0.272353 3.87143 0
M  V30 12324 H 1214.77 -2.48263 2.77842 0
M  V30 12325 H 1214.88 -1.68431 4.48517 0
M  V30 12326 H 1213.25 -0.985355 2.34868 0
M  V30 12327 H 1214.03 0.297495 3.42009 0
M  V30 12328 N 1216.48 -1.54033 -0.333429 0
M  V30 12329 C 1217.41 -1.79056 -1.43079 0
M  V30 12330 C 1218.42 -0.672176 -1.48276 0
M  V30 12331 O 1219.61 -0.949103 -1.51176 0
M  V30 12332 C 1216.71 -1.88443 -2.81678 0
M  V30 12333 C 1215.88 -3.18493 -2.99802 0
M  V30 12334 C 1214.94 -3.18708 -4.18702 0
M  V30 12335 O 1213.97 -3.92389 -4.12334 0
M  V30 12336 N 1215.17 -2.41792 -5.27747 0
M  V30 12337 H 1217.94 -2.73753 -1.21981 0
M  V30 12338 H 1215.5 -1.53207 -0.523365 0
M  V30 12339 H 1217.49 -1.86027 -3.59411 0
M  V30 12340 H 1216.06 -1.00887 -2.95872 0
M  V30 12341 H 1215.28 -3.33951 -2.09453 0
M  V30 12342 H 1216.57 -4.04376 -3.088 0
M  V30 12343 H 1215.96 -1.81501 -5.35793 0
M  V30 12344 H 1214.52 -2.45163 -6.03936 0
M  V30 12345 N 1217.95 0.594978 -1.45938 0
M  V30 12346 C 1218.89 1.71909 -1.51591 0
M  V30 12347 C 1219.9 1.57671 -0.405416 0
M  V30 12348 O 1221.09 1.65321 -0.673144 0
M  V30 12349 C 1218.19 3.10041 -1.3685 0
M  V30 12350 C 1217.36 3.50399 -2.61801 0
M  V30 12351 C 1216.42 4.67542 -2.41435 0
M  V30 12352 O 1215.45 4.74022 -3.15106 0
M  V30 12353 N 1216.65 5.6163 -1.46808 0
M  V30 12354 H 1219.41 1.67518 -2.48511 0
M  V30 12355 H 1216.97 0.78062 -1.41838 0
M  V30 12356 H 1218.97 3.86183 -1.21017 0
M  V30 12357 H 1217.54 3.08868 -0.481589 0
M  V30 12358 H 1216.76 2.64088 -2.92662 0
M  V30 12359 H 1218.04 3.74125 -3.44831 0
M  V30 12360 H 1217.44 5.5912 -0.860333 0
M  V30 12361 H 1216 6.37252 -1.36942 0
M  V30 12362 N 1219.43 1.33438 0.838571 0
M  V30 12363 C 1220.68 1.25097 1.5962 0
M  V30 12364 C 1221.01 -0.182798 1.93338 0
M  V30 12365 O 1220.29 -1.1242 1.5872 0
M  V30 12366 C 1220.57 2.12655 2.90603 0
M  V30 12367 C 1220.42 3.64491 2.63565 0
M  V30 12368 C 1221.74 1.99994 3.92033 0
M  V30 12369 H 1218.86 0.455776 0.579169 0
M  V30 12370 H 1221.5 1.63542 0.967169 0
M  V30 12371 H 1219.65 1.79998 3.44286 0
M  V30 12372 H 1221.32 4.0744 2.16312 0
M  V30 12373 H 1219.57 3.86356 1.9726 0
M  V30 12374 H 1220.24 4.21101 3.569 0
M  V30 12375 H 1222.71 2.28635 3.47657 0
M  V30 12376 H 1221.59 2.63509 4.81512 0
M  V30 12377 H 1221.85 0.972263 4.31277 0
M  V30 12378 N 1220.91 -1.05686 1.16912 0
M  V30 12379 C 1222.14 -1.82821 0.979348 0
M  V30 12380 C 1222.56 -1.82196 -0.467575 0
M  V30 12381 O 1221.92 -1.22727 -1.33445 0
M  V30 12382 C 1221.97 -3.2705 1.51891 0
M  V30 12383 O 1221.07 -4.05899 0.729341 0
M  V30 12384 H 1220.41 -0.565455 0.348076 0
M  V30 12385 H 1222.94 -1.33211 1.55293 0
M  V30 12386 H 1222.95 -3.77859 1.53904 0
M  V30 12387 H 1221.63 -3.26819 2.5722 0
M  V30 12388 H 1220.2 -3.64646 0.780221 0
M  V30 12389 N 1222.39 -0.968567 -1.24324 0
M  V30 12390 C 1223.35 -0.504307 -2.23583 0
M  V30 12391 C 1224.35 0.399626 -1.55755 0
M  V30 12392 O 1225.54 0.194966 -1.73106 0
M  V30 12393 C 1222.67 0.26956 -3.39833 0
M  V30 12394 H 1223.87 -1.3818 -2.6617 0
M  V30 12395 H 1221.42 -0.753241 -1.36952 0
M  V30 12396 H 1222.15 1.16411 -3.02686 0
M  V30 12397 H 1221.94 -0.379133 -3.90263 0
M  V30 12398 H 1223.43 0.583376 -4.13505 0
M  V30 12399 N 1223.87 1.39211 -0.738786 0
M  V30 12400 C 1225.28 1.83237 -0.357916 0
M  V30 12401 C 1225.63 1.61698 1.11123 0
M  V30 12402 O 1224.75 1.11017 1.85753 0
M  V30 12403 C 1225.35 3.32645 -0.64285 0
M  V30 12404 C 1223.91 3.75076 -0.315432 0
M  V30 12405 C 1223.05 2.62166 -0.903556 0
M  V30 12406 H 1226.01 1.2815 -0.936127 0
M  V30 12407 H 1226.03 3.80407 0.0840812 0
M  V30 12408 H 1225.54 3.4829 -1.71218 0
M  V30 12409 H 1223.64 3.65017 0.747907 0
M  V30 12410 H 1223.75 4.72363 -0.800638 0
M  V30 12411 H 1222.12 2.52554 -0.329927 0
M  V30 12412 H 1222.9 2.80616 -1.97761 0
M  V30 12413 N 1225.34 0.486708 1.49896 0
M  V30 12414 C 1226.76 0.0353906 1.86666 0
M  V30 12415 C 1227.11 -1.3743 1.40026 0
M  V30 12416 O 1226.23 -2.02163 0.77194 0
M  V30 12417 C 1226.83 0.0574475 3.38751 0
M  V30 12418 C 1225.39 -0.338464 3.74875 0
M  V30 12419 C 1224.53 0.436196 2.73848 0
M  V30 12420 H 1227.48 0.700215 1.42417 0
M  V30 12421 H 1227.5 -0.741175 3.73212 0
M  V30 12422 H 1227.02 1.08356 3.72667 0
M  V30 12423 H 1225.12 -1.36835 3.46565 0
M  V30 12424 H 1225.23 -0.0289519 4.79091 0
M  V30 12425 H 1223.59 -0.112141 2.54453 0
M  V30 12426 H 1224.38 1.46212 3.10608 0
M  V30 12427 N 1226.82 -1.56058 0.219941 0
M  V30 12428 C 1228.05 -2.031 -0.42014 0
M  V30 12429 C 1228.47 -1.09875 -1.52673 0
M  V30 12430 O 1227.83 -0.0866458 -1.81093 0
M  V30 12431 C 1227.88 -3.48389 -0.93047 0
M  V30 12432 O 1226.98 -3.583 -2.04192 0
M  V30 12433 H 1226.32 -0.657129 -0.0952772 0
M  V30 12434 H 1228.85 -2.01787 0.338105 0
M  V30 12435 H 1228.86 -3.88678 -1.2407 0
M  V30 12436 H 1227.54 -4.15725 -0.120539 0
M  V30 12437 H 1226.12 -3.29898 -1.73845 0
M  V30 12438 N 1228.3 0.053464 -1.57509 0
M  V30 12439 C 1229.53 0.765301 -1.92764 0
M  V30 12440 C 1229.95 1.69385 -0.817943 0
M  V30 12441 O 1229.31 1.7986 0.228075 0
M  V30 12442 C 1229.36 1.51938 -3.27028 0
M  V30 12443 O 1228.46 2.63121 -3.17555 0
M  V30 12444 H 1227.8 0.207567 -0.630723 0
M  V30 12445 H 1230.33 0.0162254 -2.04594 0
M  V30 12446 H 1230.34 1.89466 -3.6134 0
M  V30 12447 H 1229.02 0.838207 -4.07366 0
M  V30 12448 H 1227.59 2.28316 -2.94832 0
M  V30 12449 N 1229.78 1.54207 0.325255 0
M  V30 12450 C 1231 1.7661 1.08736 0
M  V30 12451 C 1231.43 0.512449 1.80985 0
M  V30 12452 O 1230.79 -0.535913 1.73198 0
M  V30 12453 C 1230.84 2.95797 2.06243 0
M  V30 12454 O 1229.94 2.67225 3.14109 0
M  V30 12455 H 1229.28 0.585282 0.313593 0
M  V30 12456 H 1231.81 2.01225 0.370066 0
M  V30 12457 H 1231.82 3.23097 2.49143 0
M  V30 12458 H 1230.5 3.86712 1.53058 0
M  V30 12459 H 1229.07 2.50869 2.75897 0
M  V30 12460 N 1231.26 -0.58723 1.46251 0
M  V30 12461 C 1232.5 -1.3567 1.52882 0
M  V30 12462 C 1232.86 -1.91206 0.174438 0
M  V30 12463 O 1234.06 -2.68552 0.115491 0
M  V30 12464 C 1232.33 -2.45914 2.59347 0
M  V30 12465 S 1233.89 -3.33347 2.85351 0
M  V30 12466 H 1230.71 -0.462276 0.540205 0
M  V30 12467 H 1233.31 -0.675537 1.83458 0
M  V30 12468 H 1232.02 -2.03498 3.56394 0
M  V30 12469 H 1231.55 -3.18807 2.30489 0
M  V30 12470 H 1233.56 -4.44626 2.20278 0
M  V30 12471 N 1232.74 -1.33881 -0.831482 0
M  V30 12472 C 1234.15 -1.23112 -1.40358 0
M  V30 12473 C 1234.5 0.146944 -1.95649 0
M  V30 12474 O 1233.62 1.04689 -1.89391 0
M  V30 12475 C 1234.22 -2.22899 -2.5515 0
M  V30 12476 C 1232.78 -2.15946 -3.08292 0
M  V30 12477 C 1231.92 -2.09975 -1.81124 0
M  V30 12478 H 1234.87 -1.45372 -0.63661 0
M  V30 12479 H 1234.9 -1.841 -3.32997 0
M  V30 12480 H 1234.41 -3.23186 -2.14878 0
M  V30 12481 H 1232.51 -1.18987 -3.53091 0
M  V30 12482 H 1232.62 -3.06822 -3.67964 0
M  V30 12483 H 1230.99 -1.55564 -2.01673 0
M  V30 12484 H 1231.77 -3.12082 -1.43037 0
M  V30 12485 N 1234.21 1.05064 -1.1747 0
M  V30 12486 C 1235.62 1.59547 -0.969628 0
M  V30 12487 C 1235.98 1.90153 0.483332 0
M  V30 12488 O 1235.1 1.68415 1.35887 0
M  V30 12489 C 1235.7 2.89877 -1.75377 0
M  V30 12490 C 1234.25 3.41013 -1.59332 0
M  V30 12491 C 1233.4 2.1473 -1.7546 0
M  V30 12492 H 1236.35 0.878595 -1.3216 0
M  V30 12493 H 1236.37 3.59834 -1.23691 0
M  V30 12494 H 1235.89 2.67569 -2.8112 0
M  V30 12495 H 1233.99 3.68355 -0.560827 0
M  V30 12496 H 1234.1 4.15512 -2.38509 0
M  V30 12497 H 1232.46 2.25553 -1.18313 0
M  V30 12498 H 1233.25 1.9489 -2.82618 0
M  V30 12499 N 1235.69 0.975146 1.23809 0
M  V30 12500 C 1236.94 0.639858 1.91704 0
M  V30 12501 C 1237.26 -0.828557 1.76522 0
M  V30 12502 O 1236.53 -1.59217 1.14135 0
M  V30 12503 H 1235.11 0.233667 0.709513 0
M  V30 12504 H 1237.77 1.23782 1.50545 0
M  V30 12505 H 1236.87 0.886915 2.99233 0
M  V30 12506 N 1237.17 -1.38817 0.746158 0
M  V30 12507 C 1238.1 -2.33144 0.128836 0
M  V30 12508 C 1239.08 -1.54487 -0.711873 0
M  V30 12509 O 1240.27 -1.82836 -0.654577 0
M  V30 12510 C 1237.4 -3.38639 -0.770772 0
M  V30 12511 C 1236.35 -4.27987 -0.0333669 0
M  V30 12512 C 1235.68 -5.24274 -1.05073 0
M  V30 12513 C 1236.98 -5.09915 1.13066 0
M  V30 12514 H 1238.67 -2.85019 0.916778 0
M  V30 12515 H 1236.22 -1.37039 0.442306 0
M  V30 12516 H 1238.17 -4.03587 -1.21225 0
M  V30 12517 H 1236.89 -2.8523 -1.59095 0
M  V30 12518 H 1235.55 -3.64534 0.388612 0
M  V30 12519 H 1235.2 -4.67156 -1.86478 0
M  V30 12520 H 1234.9 -5.84906 -0.562037 0
M  V30 12521 H 1236.42 -5.92099 -1.49169 0
M  V30 12522 H 1237.84 -5.68145 0.767084 0
M  V30 12523 H 1236.23 -5.79744 1.54972 0
M  V30 12524 H 1237.3 -4.4409 1.94709 0
M  V30 12525 N 1238.65 -0.49465 -1.49636 0
M  V30 12526 C 1239.56 0.291881 -2.32777 0
M  V30 12527 C 1240.57 0.973468 -1.44221 0
M  V30 12528 O 1241.75 0.956252 -1.77251 0
M  V30 12529 C 1238.81 1.34609 -3.19502 0
M  V30 12530 C 1237.88 0.678611 -4.23903 0
M  V30 12531 C 1237.11 1.68259 -5.06483 0
M  V30 12532 O 1237.33 2.91176 -4.90482 0
M  V30 12533 O 1236.27 1.24141 -5.88959 0
M  V30 12534 H 1240.09 -0.388459 -3.01205 0
M  V30 12535 H 1237.68 -0.256086 -1.47189 0
M  V30 12536 H 1239.56 1.95617 -3.73245 0
M  V30 12537 H 1238.23 2.00947 -2.53775 0
M  V30 12538 H 1237.14 0.0289541 -3.74089 0
M  V30 12539 H 1238.47 0.0577817 -4.92166 0
M  V30 12540 N 1240.13 1.55939 -0.228214 0
M  V30 12541 C 1241.08 2.17223 0.692674 0
M  V30 12542 C 1242.06 1.12252 1.15275 0
M  V30 12543 O 1243.25 1.3822 1.10563 0
M  V30 12544 C 1240.38 2.86084 1.89766 0
M  V30 12545 C 1239.47 3.98288 1.45695 0
M  V30 12546 N 1239.86 5.00515 0.729258 0
M  V30 12547 C 1238.16 4.105 1.74372 0
M  V30 12548 C 1238.86 5.79516 0.503606 0
M  V30 12549 N 1237.83 5.33119 1.06229 0
M  V30 12550 H 1241.63 2.9362 0.128345 0
M  V30 12551 H 1239.15 1.62373 -0.0297445 0
M  V30 12552 H 1241.15 3.28404 2.5682 0
M  V30 12553 H 1239.81 2.11185 2.46639 0
M  V30 12554 H 1240.82 5.16495 0.381261 0
M  V30 12555 H 1237.49 3.46759 2.32518 0
M  V30 12556 H 1238.88 6.71857 -0.0760344 0
M  V30 12557 N 1241.6 -0.0451101 1.57535 0
M  V30 12558 C 1242.83 -0.755068 1.93167 0
M  V30 12559 C 1243.25 -1.68949 0.826915 0
M  V30 12560 O 1242.61 -1.79978 -0.218534 0
M  V30 12561 C 1242.66 -1.50201 3.27829 0
M  V30 12562 O 1241.76 -2.61434 3.18945 0
M  V30 12563 H 1241.11 -0.204219 0.631815 0
M  V30 12564 H 1243.64 -0.00537504 2.04599 0
M  V30 12565 H 1243.65 -1.87547 3.6234 0
M  V30 12566 H 1242.32 -0.816591 4.07805 0
M  V30 12567 H 1240.9 -2.26749 2.96039 0
M  V30 12568 N 1243.08 -1.54377 -0.317073 0
M  V30 12569 C 1244.01 -1.8721 -1.39552 0
M  V30 12570 C 1244.99 -0.729483 -1.53664 0
M  V30 12571 O 1246.18 -0.983799 -1.67437 0
M  V30 12572 C 1243.31 -2.1052 -2.76222 0
M  V30 12573 C 1242.26 -3.26366 -2.76892 0
M  V30 12574 C 1241.59 -3.35061 -4.16699 0
M  V30 12575 C 1242.89 -4.63862 -2.40061 0
M  V30 12576 H 1244.58 -2.77532 -1.12323 0
M  V30 12577 H 1242.13 -1.33536 -0.538897 0
M  V30 12578 H 1244.08 -2.32073 -3.51739 0
M  V30 12579 H 1242.81 -1.16953 -3.04942 0
M  V30 12580 H 1241.46 -3.0471 -2.03831 0
M  V30 12581 H 1241.11 -2.39041 -4.4257 0
M  V30 12582 H 1240.81 -4.12923 -4.18053 0
M  V30 12583 H 1242.34 -3.58856 -4.94019 0
M  V30 12584 H 1243.75 -4.85252 -3.05292 0
M  V30 12585 H 1242.15 -5.44321 -2.52655 0
M  V30 12586 H 1243.22 -4.6567 -1.35202 0
M  V30 12587 N 1244.56 0.579466 -1.4656 0
M  V30 12588 C 1245.8 1.34857 -1.536 0
M  V30 12589 C 1246.16 1.91111 -0.184576 0
M  V30 12590 O 1247.37 2.68487 -0.129731 0
M  V30 12591 C 1245.64 2.44535 -2.60648 0
M  V30 12592 S 1247.2 3.31829 -2.87115 0
M  V30 12593 H 1244.01 0.459405 -0.542649 0
M  V30 12594 H 1246.62 0.665798 -1.83813 0
M  V30 12595 H 1245.32 2.01605 -3.57468 0
M  V30 12596 H 1244.85 3.17581 -2.32177 0
M  V30 12597 H 1246.87 4.43452 -2.22632 0
M  V30 12598 N 1246.04 1.3432 0.824371 0
M  V30 12599 C 1247.45 1.23855 1.39703 0
M  V30 12600 C 1247.8 -0.136566 1.95724 0
M  V30 12601 O 1246.93 -1.03683 1.89944 0
M  V30 12602 C 1247.52 2.24249 2.53965 0
M  V30 12603 C 1246.08 2.17578 3.07143 0
M  V30 12604 C 1245.23 2.10933 1.80008 0
M  V30 12605 H 1248.18 1.45707 0.628891 0
M  V30 12606 H 1248.2 1.85864 3.32016 0
M  V30 12607 H 1247.71 3.24321 2.13161 0
M  V30 12608 H 1245.81 1.20858 3.52455 0
M  V30 12609 H 1245.92 3.08769 3.66331 0
M  V30 12610 H 1244.29 1.56631 2.00845 0
M  V30 12611 H 1245.07 3.12836 1.4138 0
M  V30 12612 N 1247.52 -1.0444 1.18026 0
M  V30 12613 C 1248.74 -1.81772 0.998684 0
M  V30 12614 C 1249.17 -1.82682 -0.448225 0
M  V30 12615 O 1248.52 -1.24136 -1.32136 0
M  V30 12616 C 1248.57 -3.2542 1.55352 0
M  V30 12617 O 1247.68 -4.05103 0.772351 0
M  V30 12618 H 1247.02 -0.561731 0.354054 0
M  V30 12619 H 1249.55 -1.31557 1.56697 0
M  V30 12620 H 1249.56 -3.76206 1.57903 0
M  V30 12621 H 1248.23 -3.24073 2.60672 0
M  V30 12622 H 1246.81 -3.63798 0.818852 0
M  V30 12623 N 1248.99 -0.981699 -1.2329 0
M  V30 12624 C 1250.22 -0.669025 -1.96313 0
M  V30 12625 C 1250.64 0.757624 -1.72168 0
M  V30 12626 O 1250 1.51626 -0.993942 0
M  V30 12627 C 1250.05 -0.966875 -3.47396 0
M  V30 12628 O 1249.15 -0.0595933 -4.12357 0
M  V30 12629 H 1248.5 -0.251493 -0.61453 0
M  V30 12630 H 1251.03 -1.31564 -1.56691 0
M  V30 12631 H 1251.04 -0.904112 -3.97857 0
M  V30 12632 H 1249.71 -2.00651 -3.64296 0
M  V30 12633 H 1248.29 -0.176878 -3.7248 0
M  V30 12634 N 1250.47 1.3842 -0.753509 0
M  V30 12635 C 1251.88 1.82847 -0.377331 0
M  V30 12636 C 1252.23 1.62867 1.09401 0
M  V30 12637 O 1251.36 1.12981 1.84565 0
M  V30 12638 C 1251.95 3.31945 -0.678095 0
M  V30 12639 C 1250.51 3.7472 -0.355196 0
M  V30 12640 C 1249.66 2.61193 -0.931311 0
M  V30 12641 H 1252.61 1.2715 -0.949667 0
M  V30 12642 H 1252.63 3.80475 0.0437292 0
M  V30 12643 H 1252.14 3.46455 -1.74902 0
M  V30 12644 H 1250.25 3.65789 0.70915 0
M  V30 12645 H 1250.36 4.71487 -0.850693 0
M  V30 12646 H 1248.72 2.5219 -0.356695 0
M  V30 12647 H 1249.51 2.78503 -2.00727 0
M  V30 12648 N 1251.95 0.502579 1.49372 0
M  V30 12649 C 1253.18 -0.0403087 2.07361 0
M  V30 12650 C 1253.6 -1.29918 1.36026 0
M  V30 12651 O 1252.96 -1.76428 0.417488 0
M  V30 12652 C 1253.01 -0.275362 3.59547 0
M  V30 12653 O 1252.11 -1.34975 3.89686 0
M  V30 12654 H 1251.45 0.0269268 0.663454 0
M  V30 12655 H 1253.98 0.702652 1.92156 0
M  V30 12656 H 1253.99 -0.506392 4.04845 0
M  V30 12657 H 1252.67 0.644382 4.10878 0
M  V30 12658 H 1251.24 -1.10355 3.56197 0
M  V30 12659 N 1253.43 -1.55816 0.23648 0
M  V30 12660 C 1254.84 -1.84757 -0.268622 0
M  V30 12661 C 1255.19 -1.15815 -1.58371 0
M  V30 12662 O 1254.32 -0.432923 -2.12025 0
M  V30 12663 C 1254.91 -3.35177 -0.494167 0
M  V30 12664 C 1253.47 -3.64382 -0.943551 0
M  V30 12665 C 1252.62 -2.77296 -0.0149191 0
M  V30 12666 H 1255.57 -1.51908 0.459308 0
M  V30 12667 H 1255.59 -3.56192 -1.3382 0
M  V30 12668 H 1255.1 -3.85327 0.463138 0
M  V30 12669 H 1253.2 -3.19701 -1.91369 0
M  V30 12670 H 1253.31 -4.72244 -0.807626 0
M  V30 12671 H 1251.68 -2.49243 -0.524419 0
M  V30 12672 H 1252.46 -3.30249 0.937571 0
M  V30 12673 N 1254.91 0.036755 -1.57557 0
M  V30 12674 C 1256.32 0.584324 -1.7732 0
M  V30 12675 C 1256.67 1.76025 -0.86658 0
M  V30 12676 O 1255.79 2.16318 -0.059443 0
M  V30 12677 C 1256.39 1.06679 -3.21566 0
M  V30 12678 C 1254.95 1.55994 -3.42553 0
M  V30 12679 C 1254.09 0.494604 -2.72853 0
M  V30 12680 H 1257.05 -0.189473 -1.57565 0
M  V30 12681 H 1257.07 1.93446 -3.27657 0
M  V30 12682 H 1256.58 0.210727 -3.87527 0
M  V30 12683 H 1254.68 2.43811 -2.81757 0
M  V30 12684 H 1254.79 1.61274 -4.5114 0
M  V30 12685 H 1253.16 0.947865 -2.36406 0
M  V30 12686 H 1253.94 -0.351868 -3.41492 0
M  V30 12687 N 1256.39 1.54543 0.308881 0
M  V30 12688 C 1257.32 1.87947 1.38557 0
M  V30 12689 C 1258.3 0.737622 1.53275 0
M  V30 12690 O 1259.48 0.992664 1.66913 0
M  V30 12691 C 1256.61 2.11982 2.75102 0
M  V30 12692 C 1255.57 3.2783 2.75158 0
M  V30 12693 C 1254.89 3.37266 4.14917 0
M  V30 12694 C 1256.19 4.65129 2.37598 0
M  V30 12695 H 1257.89 2.78123 1.1085 0
M  V30 12696 H 1255.43 1.3382 0.531808 0
M  V30 12697 H 1257.38 2.33935 3.50503 0
M  V30 12698 H 1256.11 1.18569 3.04317 0
M  V30 12699 H 1254.77 3.05787 2.02212 0
M  V30 12700 H 1254.42 2.41384 4.41296 0
M  V30 12701 H 1254.12 4.15135 4.15857 0
M  V30 12702 H 1255.64 3.61471 4.92109 0
M  V30 12703 H 1257.05 4.86865 3.02714 0
M  V30 12704 H 1255.45 5.45653 2.49765 0
M  V30 12705 H 1256.52 4.6638 1.32731 0
M  V30 12706 N 1257.86 -0.571685 1.46866 0
M  V30 12707 C 1259.27 -1.15383 1.46778 0
M  V30 12708 C 1259.63 -1.95023 0.214576 0
M  V30 12709 O 1258.75 -2.05386 -0.681574 0
M  V30 12710 C 1259.35 -2.09915 2.65935 0
M  V30 12711 C 1257.9 -2.6343 2.68852 0
M  V30 12712 C 1257.05 -1.39517 2.39646 0
M  V30 12713 H 1260 -0.359036 1.54585 0
M  V30 12714 H 1260.02 -2.9356 2.42081 0
M  V30 12715 H 1259.54 -1.51923 3.57129 0
M  V30 12716 H 1257.64 -3.2526 1.8176 0
M  V30 12717 H 1257.75 -3.05412 3.69134 0
M  V30 12718 H 1256.11 -1.69702 1.8993 0
M  V30 12719 H 1256.9 -0.833399 3.33031 0
M  V30 12720 N 1259.34 -1.34755 -0.817236 0
M  V30 12721 C 1260.75 -1.24594 -1.39044 0
M  V30 12722 C 1261.1 0.126184 -1.95794 0
M  V30 12723 O 1260.23 1.02675 -1.90491 0
M  V30 12724 C 1260.82 -2.25592 -2.52772 0
M  V30 12725 C 1259.38 -2.19204 -3.05984 0
M  V30 12726 C 1258.53 -2.11884 -1.78886 0
M  V30 12727 H 1261.48 -1.46039 -0.621155 0
M  V30 12728 H 1261.5 -1.87622 -3.31026 0
M  V30 12729 H 1261.01 -3.25447 -2.11438 0
M  V30 12730 H 1259.11 -1.22725 -3.51809 0
M  V30 12731 H 1259.23 -3.10707 -3.64689 0
M  V30 12732 H 1257.59 -1.57694 -2.00012 0
M  V30 12733 H 1258.37 -3.13582 -1.39719 0
M  V30 12734 N 1260.82 1.03812 -1.18578 0
M  V30 12735 C 1261.78 2.10049 -0.91718 0
M  V30 12736 C 1262.78 1.60498 0.0985122 0
M  V30 12737 O 1263.97 1.73674 -0.135213 0
M  V30 12738 C 1261.1 3.38813 -0.376599 0
M  V30 12739 H 1262.3 2.3531 -1.85927 0
M  V30 12740 H 1259.85 1.20277 -0.998156 0
M  V30 12741 H 1260.59 3.19216 0.571983 0
M  V30 12742 H 1260.37 3.76096 -1.10881 0
M  V30 12743 H 1261.86 4.17084 -0.207453 0
M  V30 12744 N 1262.3 0.988223 1.22768 0
M  V30 12745 C 1263.53 0.679743 1.95415 0
M  V30 12746 C 1263.94 -0.754731 1.73059 0
M  V30 12747 O 1263.3 -1.50876 1.02678 0
M  V30 12748 C 1263.35 0.970344 3.48234 0
M  V30 12749 O 1263.07 2.34845 3.69837 0
M  V30 12750 C 1264.57 0.67891 4.3807 0
M  V30 12751 H 1261.79 0.251847 0.621944 0
M  V30 12752 H 1264.33 1.32173 1.56047 0
M  V30 12753 H 1262.49 0.374241 3.85588 0
M  V30 12754 H 1262.9 2.44412 4.64072 0
M  V30 12755 H 1264.38 0.932549 5.44066 0
M  V30 12756 H 1264.85 -0.387073 4.37491 0
M  V30 12757 H 1265.46 1.25585 4.06335 0
M  V30 12758 N 1263.78 -1.38018 0.760839 0
M  V30 12759 C 1264.71 -2.2899 0.0980916 0
M  V30 12760 C 1265.72 -1.48102 -0.675985 0
M  V30 12761 O 1266.91 -1.70883 -0.515878 0
M  V30 12762 C 1264.01 -3.27142 -0.884959 0
M  V30 12763 C 1263.18 -4.37081 -0.167 0
M  V30 12764 C 1262.24 -5.15375 -1.06184 0
M  V30 12765 O 1261.27 -5.6673 -0.529667 0
M  V30 12766 N 1262.47 -5.29052 -2.38924 0
M  V30 12767 H 1265.23 -2.86508 0.879403 0
M  V30 12768 H 1262.8 -1.49877 0.612245 0
M  V30 12769 H 1264.79 -3.764 -1.48678 0
M  V30 12770 H 1263.36 -2.70471 -1.5673 0
M  V30 12771 H 1262.58 -3.89363 0.615617 0
M  V30 12772 H 1263.87 -5.07732 0.329525 0
M  V30 12773 H 1263.26 -4.88892 -2.84607 0
M  V30 12774 H 1261.82 -5.81658 -2.94139 0
M  V30 12775 N 1265.25 -0.510493 -1.49103 0
M  V30 12776 C 1266.16 0.267176 -2.33074 0
M  V30 12777 C 1267.18 0.958117 -1.45245 0
M  V30 12778 O 1268.36 0.937399 -1.78255 0
M  V30 12779 C 1265.42 1.31212 -3.20911 0
M  V30 12780 C 1264.48 0.633613 -4.24598 0
M  V30 12781 C 1263.71 1.62878 -5.08239 0
M  V30 12782 O 1263.94 2.85958 -4.93543 0
M  V30 12783 O 1262.87 1.17887 -5.90242 0
M  V30 12784 H 1266.7 -0.420384 -3.00776 0
M  V30 12785 H 1264.28 -0.271683 -1.46909 0
M  V30 12786 H 1266.16 1.91647 -3.75299 0
M  V30 12787 H 1264.84 1.98244 -2.55892 0
M  V30 12788 H 1263.75 -0.0107246 -3.74098 0
M  V30 12789 H 1265.08 0.0055777 -4.922 0
M  V30 12790 N 1266.73 1.55688 -0.24474 0
M  V30 12791 C 1268.14 1.84897 0.25882 0
M  V30 12792 C 1268.49 1.16653 1.57755 0
M  V30 12793 O 1267.62 0.444162 2.11793 0
M  V30 12794 C 1268.21 3.35434 0.476385 0
M  V30 12795 C 1266.77 3.64877 0.924213 0
M  V30 12796 C 1265.92 2.773 0.00021322 0
M  V30 12797 H 1268.87 1.51662 -0.467358 0
M  V30 12798 H 1268.89 3.56896 1.31929 0
M  V30 12799 H 1268.4 3.85076 -0.483567 0
M  V30 12800 H 1266.5 3.20711 1.89671 0
M  V30 12801 H 1266.62 4.72665 0.78257 0
M  V30 12802 H 1264.98 2.49517 0.511194 0
M  V30 12803 H 1265.76 3.29747 -0.955072 0
M  V30 12804 N 1268.21 -0.0283989 1.57574 0
M  V30 12805 C 1269.44 -0.730831 1.93563 0
M  V30 12806 C 1269.85 -1.68857 0.844556 0
M  V30 12807 O 1269.21 -1.8162 -0.178971 0
M  V30 12808 C 1269.26 -1.48731 3.29486 0
M  V30 12809 O 1268.98 -0.568017 4.34402 0
M  V30 12810 C 1270.48 -2.28684 3.79761 0
M  V30 12811 H 1267.7 -0.205346 0.638807 0
M  V30 12812 H 1270.25 0.0142728 2.04495 0
M  V30 12813 H 1268.4 -2.18429 3.19949 0
M  V30 12814 H 1268.82 -1.09861 5.12865 0
M  V30 12815 H 1270.29 -2.77157 4.77376 0
M  V30 12816 H 1270.77 -3.10133 3.10989 0
M  V30 12817 H 1271.37 -1.64059 3.92383 0
M  V30 12818 N 1269.69 -1.54705 -0.300681 0
M  V30 12819 C 1270.93 -1.75738 -1.04381 0
M  V30 12820 C 1271.29 -0.532138 -1.84478 0
M  V30 12821 O 1272.49 -0.620213 -2.61547 0
M  V30 12822 C 1270.76 -3.01095 -1.92553 0
M  V30 12823 S 1272.32 -3.43132 -2.73507 0
M  V30 12824 H 1269.14 -0.617737 -0.352025 0
M  V30 12825 H 1271.74 -1.9291 -0.317187 0
M  V30 12826 H 1270.45 -3.88393 -1.32585 0
M  V30 12827 H 1269.98 -2.86512 -2.69582 0
M  V30 12828 H 1271.99 -3.00227 -3.95067 0
M  V30 12829 N 1271.17 0.563888 -1.47167 0
M  V30 12830 C 1272.1 1.68137 -1.62025 0
M  V30 12831 C 1273.08 1.63481 -0.469899 0
M  V30 12832 O 1274.26 1.81206 -0.698432 0
M  V30 12833 C 1271.39 3.06779 -1.62801 0
M  V30 12834 C 1270.35 3.26278 -2.76996 0
M  V30 12835 C 1269.67 4.65638 -2.62841 0
M  V30 12836 C 1270.97 3.12295 -4.18651 0
M  V30 12837 H 1272.67 1.55958 -2.55573 0
M  V30 12838 H 1270.21 0.74887 -1.22996 0
M  V30 12839 H 1272.17 3.84795 -1.71787 0
M  V30 12840 H 1270.89 3.19901 -0.658097 0
M  V30 12841 H 1269.55 2.50668 -2.67509 0
M  V30 12842 H 1269.2 4.75551 -1.63892 0
M  V30 12843 H 1268.9 4.79635 -3.39447 0
M  V30 12844 H 1270.42 5.45798 -2.73746 0
M  V30 12845 H 1271.83 3.80136 -4.2915 0
M  V30 12846 H 1270.23 3.37805 -4.95992 0
M  V30 12847 H 1271.3 2.09126 -4.37486 0
M  V30 12848 N 1272.64 1.35187 0.810078 0
M  V30 12849 C 1273.58 1.23673 1.92971 0
M  V30 12850 C 1274.59 0.160819 1.62004 0
M  V30 12851 O 1275.78 0.413793 1.73638 0
M  V30 12852 C 1272.88 0.880887 3.27252 0
M  V30 12853 C 1272.05 2.05444 3.86149 0
M  V30 12854 C 1271.11 1.67494 4.98831 0
M  V30 12855 O 1270.14 2.39322 5.16443 0
M  V30 12856 N 1271.34 0.596539 5.77427 0
M  V30 12857 H 1274.1 2.20133 2.03376 0
M  V30 12858 H 1271.66 1.2831 0.987322 0
M  V30 12859 H 1273.66 0.608556 4.00098 0
M  V30 12860 H 1272.23 0.00607926 3.12599 0
M  V30 12861 H 1271.45 2.49077 3.05539 0
M  V30 12862 H 1272.73 2.83898 4.22231 0
M  V30 12863 H 1272.13 -0.000312591 5.657 0
M  V30 12864 H 1270.69 0.383979 6.50668 0
M  V30 12865 N 1274.12 -1.03182 1.19127 0
M  V30 12866 C 1275.53 -1.57984 0.994888 0
M  V30 12867 C 1275.88 -1.90898 -0.453019 0
M  V30 12868 O 1275.01 -1.70556 -1.33191 0
M  V30 12869 C 1275.6 -2.8705 1.79966 0
M  V30 12870 C 1274.16 -3.38435 1.64737 0
M  V30 12871 C 1273.31 -2.11912 1.78854 0
M  V30 12872 H 1276.26 -0.857458 1.33542 0
M  V30 12873 H 1276.28 -3.57821 1.294 0
M  V30 12874 H 1275.79 -2.63062 2.85341 0
M  V30 12875 H 1273.9 -3.67416 0.619358 0
M  V30 12876 H 1274.01 -4.11665 2.45089 0
M  V30 12877 H 1272.37 -2.23642 1.21886 0
M  V30 12878 H 1273.16 -1.90369 2.85682 0
M  V30 12879 N 1275.6 -0.99472 -1.22242 0
M  V30 12880 C 1276.84 -0.679831 -1.92763 0
M  V30 12881 C 1277.2 0.774024 -1.75707 0
M  V30 12882 O 1278.41 1.20041 -2.40507 0
M  V30 12883 C 1276.68 -1.07685 -3.40791 0
M  V30 12884 S 1278.24 -0.880607 -4.29873 0
M  V30 12885 H 1275.05 -0.248508 -0.666157 0
M  V30 12886 H 1277.66 -1.27738 -1.47997 0
M  V30 12887 H 1276.36 -2.1313 -3.50719 0
M  V30 12888 H 1275.89 -0.471172 -3.90568 0
M  V30 12889 H 1277.91 0.227887 -4.95676 0
M  V30 12890 N 1277.08 1.37613 -0.768148 0
M  V30 12891 C 1278.3 2.04579 -0.340892 0
M  V30 12892 C 1278.73 1.57556 1.02751 0
M  V30 12893 O 1278.09 0.734151 1.65771 0
M  V30 12894 C 1278.13 3.58495 -0.389099 0
M  V30 12895 O 1277.24 4.07838 0.611741 0
M  V30 12896 H 1276.58 0.647246 -0.148216 0
M  V30 12897 H 1279.11 1.75999 -1.04333 0
M  V30 12898 H 1279.12 4.07263 -0.245116 0
M  V30 12899 H 1277.79 3.92076 -1.38742 0
M  V30 12900 H 1276.37 3.70399 0.431173 0
M  V30 12901 N 1278.56 0.518393 1.4883 0
M  V30 12902 C 1279.97 0.0749773 1.86549 0
M  V30 12903 C 1280.32 -1.34429 1.4291 0
M  V30 12904 O 1279.44 -2.00481 0.814648 0
M  V30 12905 C 1280.04 0.129289 3.38553 0
M  V30 12906 C 1278.6 -0.258871 3.75509 0
M  V30 12907 C 1277.74 0.494185 2.72861 0
M  V30 12908 H 1280.7 0.730266 1.409 0
M  V30 12909 H 1280.72 -0.661844 3.747 0
M  V30 12910 H 1280.23 1.16237 3.70285 0
M  V30 12911 H 1278.33 -1.29453 3.49389 0
M  V30 12912 H 1278.44 0.0726769 4.79045 0
M  V30 12913 H 1276.81 -0.0581428 2.54634 0
M  V30 12914 H 1277.59 1.52767 3.07436 0
M  V30 12915 N 1280.03 -1.55556 0.252993 0
M  V30 12916 C 1281 -2.20351 -0.630705 0
M  V30 12917 C 1282 -1.17461 -1.09816 0
M  V30 12918 O 1283.19 -1.42505 -1.00189 0
M  V30 12919 C 1280.32 -2.85192 -1.86757 0
M  V30 12920 H 1281.51 -2.99829 -0.0652939 0
M  V30 12921 H 1279.07 -1.563 0.00347982 0
M  V30 12922 H 1279.8 -2.09669 -2.47406 0
M  V30 12923 H 1279.59 -3.60569 -1.54053 0
M  V30 12924 H 1281.08 -3.34762 -2.49648 0
M  V30 12925 N 1281.51 0.0200419 -1.57587 0
M  V30 12926 C 1282.75 0.713765 -1.91533 0
M  V30 12927 C 1283.12 1.72035 -0.852516 0
M  V30 12928 O 1284.32 2.46299 -1.07658 0
M  V30 12929 C 1282.59 1.35786 -3.30601 0
M  V30 12930 S 1284.15 2.07948 -3.86397 0
M  V30 12931 H 1280.97 0.236249 -0.670602 0
M  V30 12932 H 1283.57 -0.0318313 -1.95474 0
M  V30 12933 H 1282.27 0.612147 -4.05809 0
M  V30 12934 H 1281.8 2.14181 -3.29985 0
M  V30 12935 H 1283.82 3.3521 -3.65853 0
M  V30 12936 N 1282.99 1.54862 0.292472 0
M  V30 12937 C 1284.4 1.65459 0.864891 0
M  V30 12938 C 1284.75 0.568808 1.87774 0
M  V30 12939 O 1283.88 -0.293107 2.14406 0
M  V30 12940 C 1284.47 2.99939 1.5755 0
M  V30 12941 C 1283.03 3.12628 2.09621 0
M  V30 12942 C 1282.18 2.61179 0.931713 0
M  V30 12943 H 1285.13 1.58549 0.0692679 0
M  V30 12944 H 1285.15 2.91839 2.44152 0
M  V30 12945 H 1284.66 3.78943 0.838088 0
M  V30 12946 H 1282.76 2.3836 2.86383 0
M  V30 12947 H 1282.88 4.18911 2.32488 0
M  V30 12948 H 1281.24 2.17846 1.31967 0
M  V30 12949 H 1282.02 3.42669 0.208121 0
M  V30 12950 N 1284.47 -0.556076 1.47464 0
M  V30 12951 C 1285.88 -1.1382 1.47993 0
M  V30 12952 C 1286.23 -1.94785 0.235249 0
M  V30 12953 O 1285.36 -2.06098 -0.659752 0
M  V30 12954 C 1285.95 -2.07082 2.68146 0
M  V30 12955 C 1284.51 -2.60564 2.71631 0
M  V30 12956 C 1283.66 -1.36967 2.41113 0
M  V30 12957 H 1286.61 -0.34262 1.54957 0
M  V30 12958 H 1286.63 -2.90975 2.45181 0
M  V30 12959 H 1286.14 -1.48127 3.5872 0
M  V30 12960 H 1284.24 -3.23314 1.852 0
M  V30 12961 H 1284.35 -3.0148 3.72353 0
M  V30 12962 H 1282.72 -1.67678 1.91719 0
M  V30 12963 H 1283.5 -0.79803 3.33896 0
M  V30 12964 N 1285.95 -1.35615 -0.802897 0
M  V30 12965 C 1286.91 -1.28705 -1.89651 0
M  V30 12966 C 1287.91 -0.197681 -1.5958 0
M  V30 12967 O 1289.1 -0.451618 -1.68244 0
M  V30 12968 C 1286.23 -0.991941 -3.26149 0
M  V30 12969 H 1287.43 -2.25951 -1.97196 0
M  V30 12970 H 1284.98 -1.20192 -0.999179 0
M  V30 12971 H 1285.71 -0.0235051 -3.24291 0
M  V30 12972 H 1285.5 -1.78013 -3.49362 0
M  V30 12973 H 1286.99 -0.969298 -4.06195 0
M  V30 12974 N 1287.43 1.02549 -1.19673 0
M  V30 12975 C 1288.65 1.79623 -1.0268 0
M  V30 12976 C 1289.07 1.83969 0.424345 0
M  V30 12977 O 1288.43 1.28621 1.29472 0
M  V30 12978 C 1288.48 3.24514 -1.59289 0
M  V30 12979 O 1288.2 3.20462 -2.98723 0
M  V30 12980 C 1289.7 4.18173 -1.47126 0
M  V30 12981 H 1286.92 0.565167 -0.3617 0
M  V30 12982 H 1289.46 1.29143 -1.58564 0
M  V30 12983 H 1287.62 3.72173 -1.07546 0
M  V30 12984 H 1288.03 4.11341 -3.25421 0
M  V30 12985 H 1289.51 5.17714 -1.9151 0
M  V30 12986 H 1289.98 4.37165 -0.422315 0
M  V30 12987 H 1290.59 3.7639 -1.98017 0
M  V30 12988 N 1288.9 1.00119 1.21713 0
M  V30 12989 C 1290.15 0.680377 1.90303 0
M  V30 12990 C 1290.47 -0.790927 1.7824 0
M  V30 12991 O 1289.74 -1.5676 1.17486 0
M  V30 12992 H 1288.32 0.248665 0.704397 0
M  V30 12993 H 1290.98 1.26948 1.47886 0
M  V30 12994 H 1290.08 0.950188 2.97284 0
M  V30 12995 N 1290.38 -1.37203 0.775435 0
M  V30 12996 C 1291.8 -1.52962 0.455488 0
M  V30 12997 C 1292 -1.73284 -1.02834 0
M  V30 12998 O 1291.05 -1.75631 -1.81411 0
M  V30 12999 C 1292.37 -2.72389 1.27377 0
M  V30 13000 C 1293.91 -2.86252 1.26604 0
M  V30 13001 C 1294.39 -4.08666 2.06775 0
M  V30 13002 N 1295.88 -4.15786 2.04148 0
M  V30 13003 C 1296.62 -5.09548 2.6296 0
M  V30 13004 N 1296.11 -6.08845 3.30574 0
M  V30 13005 N 1297.9 -5.02059 2.5277 0
M  V30 13006 H 1290.06 -1.22265 1.73681 0
M  V30 13007 H 1292.32 -0.595638 0.737509 0
M  V30 13008 H 1292.02 -2.63849 2.32544 0
M  V30 13009 H 1291.9 -3.66171 0.905467 0
M  V30 13010 H 1294.29 -2.94261 0.222345 0
M  V30 13011 H 1294.37 -1.93418 1.67401 0
M  V30 13012 H 1294.01 -4.01419 3.11168 0
M  V30 13013 H 1293.94 -5.00621 1.63358 0
M  V30 13014 H 1296.43 -3.44683 1.54926 0
M  V30 13015 H 1296.74 -6.76926 3.72815 0
M  V30 13016 H 1295.09 -6.09113 3.34674 0
M  V30 13017 H 1298.28 -4.23431 1.99559 0
M  V30 13018 H 1298.45 -5.74947 2.98898 0
M  V30 13019 N 1291.86 -0.526279 -1.48553 0
M  V30 13020 C 1293.27 -0.0848694 -1.86507 0
M  V30 13021 C 1293.62 1.3367 -1.43621 0
M  V30 13022 O 1292.75 2.00046 -0.825268 0
M  V30 13023 C 1293.34 -0.147241 -3.3848 0
M  V30 13024 C 1291.9 0.238954 -3.75641 0
M  V30 13025 C 1291.05 -0.508648 -2.72595 0
M  V30 13026 H 1294 -0.737728 -1.40511 0
M  V30 13027 H 1294.02 0.641964 -3.75045 0
M  V30 13028 H 1293.53 -1.18199 -3.69663 0
M  V30 13029 H 1291.63 1.27598 -3.50071 0
M  V30 13030 H 1291.75 -0.0980808 -4.79 0
M  V30 13031 H 1290.11 0.0446382 -2.54661 0
M  V30 13032 H 1290.89 -1.54395 -3.06622 0
M  V30 13033 N 1293.34 1.5542 -0.261239 0
M  V30 13034 C 1294.27 2.19334 0.665214 0
M  V30 13035 C 1295.28 1.17388 1.128 0
M  V30 13036 O 1296.47 1.44183 1.0523 0
M  V30 13037 C 1293.57 2.79425 1.91768 0
M  V30 13038 C 1292.74 4.06929 1.60399 0
M  V30 13039 C 1291.8 4.51199 2.70751 0
M  V30 13040 O 1290.83 5.17272 2.37526 0
M  V30 13041 N 1292.03 4.20179 4.00537 0
M  V30 13042 H 1294.8 2.99467 0.118262 0
M  V30 13043 H 1292.36 1.61693 -0.0817727 0
M  V30 13044 H 1294.35 3.05992 2.64861 0
M  V30 13045 H 1292.92 2.03366 2.37405 0
M  V30 13046 H 1292.14 3.87798 0.707559 0
M  V30 13047 H 1293.43 4.9003 1.36924 0
M  V30 13048 H 1292.83 3.67164 4.30357 0
M  V30 13049 H 1291.38 4.51549 4.7005 0
M  V30 13050 N 1294.82 -0.0116844 1.57596 0
M  V30 13051 C 1295.77 -1.01509 2.04157 0
M  V30 13052 C 1296.75 -1.31011 0.934076 0
M  V30 13053 O 1297.94 -1.30305 1.1979 0
M  V30 13054 C 1295.07 -2.31081 2.53883 0
M  V30 13055 C 1294.16 -2.04594 3.71486 0
M  V30 13056 N 1294.55 -1.48224 4.83594 0
M  V30 13057 C 1292.85 -2.34795 3.79193 0
M  V30 13058 C 1293.55 -1.37941 5.65108 0
M  V30 13059 N 1292.52 -1.861 5.10752 0
M  V30 13060 H 1296.32 -0.573556 2.88249 0
M  V30 13061 H 1293.84 -0.217632 1.60935 0
M  V30 13062 H 1295.84 -3.03793 2.85509 0
M  V30 13063 H 1294.5 -2.75897 1.71204 0
M  V30 13064 H 1295.51 -1.16261 5.04682 0
M  V30 13065 H 1292.18 -2.82566 3.07348 0
M  V30 13066 H 1293.57 -0.946997 6.65193 0
M  V30 13067 N 1296.29 -1.55015 -0.284256 0
M  V30 13068 C 1297.22 -1.90128 -1.3555 0
M  V30 13069 C 1298.2 -0.761914 -1.52082 0
M  V30 13070 O 1299.39 -1.01909 -1.65312 0
M  V30 13071 C 1296.52 -2.16332 -2.71695 0
M  V30 13072 C 1295.47 -3.32166 -2.69907 0
M  V30 13073 C 1294.8 -3.43824 -4.09498 0
M  V30 13074 C 1296.1 -4.6885 -2.30168 0
M  V30 13075 H 1297.79 -2.79852 -1.06411 0
M  V30 13076 H 1295.34 -1.34649 -0.510451 0
M  V30 13077 H 1297.29 -2.39482 -3.46737 0
M  V30 13078 H 1296.02 -1.23395 -3.02392 0
M  V30 13079 H 1294.68 -3.08965 -1.97322 0
M  V30 13080 H 1294.32 -2.48375 -4.374 0
M  V30 13081 H 1294.02 -4.21698 -4.092 0
M  V30 13082 H 1295.55 -3.69254 -4.86296 0
M  V30 13083 H 1296.96 -4.91619 -2.9493 0
M  V30 13084 H 1295.36 -5.49558 -2.41052 0
M  V30 13085 H 1296.43 -4.68433 -1.25294 0
M  V30 13086 N 1297.77 0.548248 -1.47757 0
M  V30 13087 C 1299.18 1.13033 -1.48595 0
M  V30 13088 C 1299.53 1.94657 -0.245575 0
M  V30 13089 O 1298.66 2.06445 0.648813 0
M  V30 13090 C 1299.25 2.05657 -2.69241 0
M  V30 13091 C 1297.81 2.59119 -2.73009 0
M  V30 13092 C 1296.96 1.35686 -2.41836 0
M  V30 13093 H 1299.91 0.334397 -1.55137 0
M  V30 13094 H 1299.93 2.89671 -2.4672 0
M  V30 13095 H 1299.44 1.46222 -3.595 0
M  V30 13096 H 1297.54 3.22327 -1.86912 0
M  V30 13097 H 1297.66 2.99501 -3.73946 0
M  V30 13098 H 1296.02 1.66659 -1.92606 0
M  V30 13099 H 1296.8 0.780311 -3.34314 0
M  V30 13100 N 1299.25 1.36039 0.795694 0
M  V30 13101 C 1300.47 1.33222 1.58955 0
M  V30 13102 C 1300.9 -0.0854596 1.87906 0
M  V30 13103 O 1300.26 -1.05555 1.47403 0
M  V30 13104 C 1300.31 2.15508 2.89117 0
M  V30 13105 O 1299.41 1.54327 3.82436 0
M  V30 13106 H 1298.75 0.456264 0.48241 0
M  V30 13107 H 1301.28 1.79234 0.986726 0
M  V30 13108 H 1301.29 2.2786 3.38444 0
M  V30 13109 H 1299.97 3.18568 2.67371 0
M  V30 13110 H 1298.54 1.50879 3.41013 0
M  V30 13111 N 1300.73 -1.01913 1.20215 0
M  V30 13112 C 1301.96 -1.79076 1.03631 0
M  V30 13113 C 1302.37 -1.84192 -0.414583 0
M  V30 13114 O 1301.73 -1.29306 -1.28788 0
M  V30 13115 C 1301.78 -3.23665 1.61008 0
M  V30 13116 O 1301.5 -3.18873 3.00419 0
M  V30 13117 C 1303 -4.17387 1.49342 0
M  V30 13118 H 1300.22 -0.563241 0.364692 0
M  V30 13119 H 1302.77 -1.283 1.59246 0
M  V30 13120 H 1300.92 -3.71597 1.09518 0
M  V30 13121 H 1301.33 -4.09609 3.27598 0
M  V30 13122 H 1302.81 -5.16691 1.94253 0
M  V30 13123 H 1303.29 -4.36935 0.445493 0
M  V30 13124 H 1303.89 -3.75335 2.0001 0
M  V30 13125 N 1302.21 -1.00763 -1.2118 0
M  V30 13126 C 1303.45 -0.692851 -1.90598 0
M  V30 13127 C 1303.79 0.774698 -1.78079 0
M  V30 13128 O 1303.06 1.56186 -1.15914 0
M  V30 13129 C 1303.34 -1.11792 -3.42308 0
M  V30 13130 C 1303.2 -2.64511 -3.63805 0
M  V30 13131 C 1304.52 -0.682314 -4.34779 0
M  V30 13132 H 1301.63 -0.253175 -0.69215 0
M  V30 13133 H 1304.28 -1.25378 -1.4276 0
M  V30 13134 H 1302.43 -0.640665 -3.83181 0
M  V30 13135 H 1304.1 -3.20021 -3.32242 0
M  V30 13136 H 1302.34 -3.05903 -3.0758 0
M  V30 13137 H 1303.01 -2.89306 -4.70113 0
M  V30 13138 H 1305.49 -1.09247 -4.01503 0
M  V30 13139 H 1304.36 -1.00787 -5.39568 0
M  V30 13140 H 1304.63 0.416441 -4.40134 0
M  V30 13141 N 1303.68 1.3679 -0.7827 0
M  V30 13142 C 1305.1 1.52719 -0.463594 0
M  V30 13143 C 1305.3 1.73827 1.01914 0
M  V30 13144 O 1304.36 1.76591 1.80477 0
M  V30 13145 C 1305.67 2.71709 -1.2882 0
M  V30 13146 C 1307.22 2.85577 -1.2812 0
M  V30 13147 C 1307.69 4.07564 -2.0894 0
M  V30 13148 N 1309.18 4.14697 -2.0635 0
M  V30 13149 C 1309.92 5.08147 -2.65659 0
M  V30 13150 N 1309.41 6.07083 -3.33799 0
M  V30 13151 N 1311.21 5.00712 -2.55429 0
M  V30 13152 H 1303.36 1.21342 -1.74327 0
M  V30 13153 H 1305.62 0.591719 -0.740657 0
M  V30 13154 H 1305.33 2.62612 -2.3394 0
M  V30 13155 H 1305.2 3.65686 -0.924873 0
M  V30 13156 H 1307.59 2.94139 -0.237947 0
M  V30 13157 H 1307.67 1.92528 -1.68424 0
M  V30 13158 H 1307.31 3.99763 -3.13293 0
M  V30 13159 H 1307.24 4.99748 -1.66011 0
M  V30 13160 H 1309.73 3.43856 -1.56752 0
M  V30 13161 H 1310.05 6.74939 -3.764 0
M  V30 13162 H 1308.39 6.07329 -3.379 0
M  V30 13163 H 1311.58 4.22367 -2.01802 0
M  V30 13164 H 1311.76 5.73354 -3.01943 0
M  V30 13165 N 1305.16 0.53415 1.48272 0
M  V30 13166 C 1306.58 0.192291 1.58437 0
M  V30 13167 C 1306.78 -1.3046 1.53566 0
M  V30 13168 O 1305.83 -2.08316 1.42692 0
M  V30 13169 C 1307.15 0.798515 2.89904 0
M  V30 13170 C 1308.7 0.76763 3.03441 0
M  V30 13171 C 1309.17 1.3525 4.37574 0
M  V30 13172 N 1310.66 1.31466 4.44152 0
M  V30 13173 C 1311.4 1.73706 5.46456 0
M  V30 13174 N 1310.89 2.23695 6.55692 0
M  V30 13175 N 1312.69 1.64918 5.37363 0
M  V30 13176 H 1304.84 1.50696 1.49681 0
M  V30 13177 H 1307.1 0.627073 0.710973 0
M  V30 13178 H 1306.81 1.8496 2.99136 0
M  V30 13179 H 1306.68 0.278033 3.76174 0
M  V30 13180 H 1309.07 -0.274704 2.93819 0
M  V30 13181 H 1309.15 1.32562 2.18771 0
M  V30 13182 H 1308.79 2.39379 4.47951 0
M  V30 13183 H 1308.72 0.770153 5.20938 0
M  V30 13184 H 1311.21 0.948761 3.65796 0
M  V30 13185 H 1311.53 2.5391 7.29897 0
M  V30 13186 H 1309.87 2.27691 6.56644 0
M  V30 13187 H 1313.06 1.25658 4.50919 0
M  V30 13188 H 1313.23 1.98157 6.16958 0
M  V30 13189 N 1306.64 -1.55279 0.269478 0
M  V30 13190 C 1307.92 -1.91458 -0.400412 0
M  V30 13191 C 1308.3 -1.19306 -1.74153 0
M  V30 13192 O 1307.65 -0.318017 -2.26276 0
M  V30 13193 C 1307.86 -3.44698 -0.546258 0
M  V30 13194 C 1309.2 -4.16374 -0.831758 0
M  V30 13195 O 1310.23 -3.50561 -0.631279 0
M  V30 13196 O 1309.09 -5.32826 -1.21484 0
M  V30 13197 H 1306.18 -0.79766 -0.218328 0
M  V30 13198 H 1308.73 -1.66747 0.315214 0
M  V30 13199 H 1307.5 -3.89273 0.397784 0
M  V30 13200 H 1307.12 -3.75345 -1.31157 0
M  V30 13201 N 1308.12 0.00332656 -1.576 0
M  V30 13202 C 1309.03 1.01221 -2.1164 0
M  V30 13203 C 1310.04 1.37918 -1.06088 0
M  V30 13204 O 1311.22 1.46717 -1.37971 0
M  V30 13205 C 1308.29 2.28638 -2.60626 0
M  V30 13206 C 1307.35 1.98284 -3.80765 0
M  V30 13207 C 1306.58 3.19626 -4.27405 0
M  V30 13208 O 1306.8 4.31196 -3.73398 0
M  V30 13209 O 1305.74 3.03819 -5.19594 0
M  V30 13210 H 1309.56 0.582839 -2.98055 0
M  V30 13211 H 1307.15 0.221947 -1.47742 0
M  V30 13212 H 1309.03 3.03498 -2.92347 0
M  V30 13213 H 1307.7 2.70819 -1.7731 0
M  V30 13214 H 1306.61 1.2091 -3.54022 0
M  V30 13215 H 1307.94 1.60942 -4.65144 0
M  V30 13216 N 1309.6 1.55164 0.276031 0
M  V30 13217 C 1310.82 1.7998 1.03063 0
M  V30 13218 C 1311.25 0.569769 1.79263 0
M  V30 13219 O 1310.6 -0.48054 1.74816 0
M  V30 13220 C 1310.65 3.02209 1.96728 0
M  V30 13221 O 1309.76 2.77083 3.05449 0
M  V30 13222 H 1309.1 0.594963 0.294814 0
M  V30 13223 H 1311.63 2.02301 0.305861 0
M  V30 13224 H 1311.64 3.3086 2.38738 0
M  V30 13225 H 1310.31 3.91386 1.40677 0
M  V30 13226 H 1308.89 2.5952 2.67776 0
M  V30 13227 N 1311.07 -0.540404 1.48045 0
M  V30 13228 C 1312.49 -1.12243 1.49192 0
M  V30 13229 C 1312.84 -1.94524 0.255895 0
M  V30 13230 O 1311.96 -2.06786 -0.637855 0
M  V30 13231 C 1312.56 -2.04227 2.70327 0
M  V30 13232 C 1311.12 -2.57668 2.7438 0
M  V30 13233 C 1310.26 -1.34402 2.42552 0
M  V30 13234 H 1313.21 -0.326165 1.55312 0
M  V30 13235 H 1313.23 -2.88359 2.48253 0
M  V30 13236 H 1312.75 -1.44314 3.60271 0
M  V30 13237 H 1310.85 -3.21331 1.88618 0
M  V30 13238 H 1310.96 -2.97514 3.7553 0
M  V30 13239 H 1309.32 -1.65635 1.93487 0
M  V30 13240 H 1310.11 -0.762571 3.34723 0
M  V30 13241 N 1312.55 -1.36459 -0.788468 0
M  V30 13242 C 1313.78 -1.33898 -1.57731 0
M  V30 13243 C 1314.2 0.0795471 -1.88632 0
M  V30 13244 O 1313.55 1.03671 -1.50195 0
M  V30 13245 C 1313.6 -2.16134 -2.89773 0
M  V30 13246 O 1313.32 -3.52457 -2.60203 0
M  V30 13247 C 1314.83 -2.21364 -3.84074 0
M  V30 13248 H 1312.05 -0.459269 -0.489197 0
M  V30 13249 H 1314.59 -1.79569 -0.978526 0
M  V30 13250 H 1312.74 -1.74015 -3.46118 0
M  V30 13251 H 1313.16 -3.95378 -3.4464 0
M  V30 13252 H 1314.63 -2.83261 -4.7378 0
M  V30 13253 H 1315.11 -1.21736 -4.21992 0
M  V30 13254 H 1315.72 -2.63723 -3.33662 0
M  V30 13255 N 1314.03 1.01274 -1.20754 0
M  V30 13256 C 1314.99 2.08056 -0.961528 0
M  V30 13257 C 1315.99 1.60671 0.0644461 0
M  V30 13258 O 1317.18 1.73349 -0.172022 0
M  V30 13259 C 1314.32 3.37938 -0.448381 0
M  V30 13260 H 1315.51 2.31314 -1.90877 0
M  V30 13261 H 1313.06 1.18133 -1.02344 0
M  V30 13262 H 1313.8 3.20357 0.504144 0
M  V30 13263 H 1313.58 3.73659 -1.18833 0
M  V30 13264 H 1315.07 4.16551 -0.295876 0
M  V30 13265 N 1315.51 1.01404 1.20644 0
M  V30 13266 C 1316.76 0.700523 1.89571 0
M  V30 13267 C 1317.08 -0.771978 1.79068 0
M  V30 13268 O 1316.35 -1.55506 1.19142 0
M  V30 13269 H 1314.93 0.256122 0.70172 0
M  V30 13270 H 1317.59 1.28509 1.46531 0
M  V30 13271 H 1316.69 0.981665 2.9626 0
M  V30 13272 N 1316.99 -1.36373 0.789944 0
M  V30 13273 C 1318.4 -1.81783 0.425677 0
M  V30 13274 C 1318.75 -1.65711 -1.05045 0
M  V30 13275 O 1317.87 -1.17835 -1.81505 0
M  V30 13276 C 1318.47 -3.3003 0.765866 0
M  V30 13277 C 1317.03 -3.73647 0.454421 0
M  V30 13278 C 1316.18 -2.58632 1.00023 0
M  V30 13279 H 1319.13 -1.24587 0.983044 0
M  V30 13280 H 1319.15 -3.80457 0.0571624 0
M  V30 13281 H 1318.66 -3.41696 1.84026 0
M  V30 13282 H 1316.76 -3.67541 -0.611918 0
M  V30 13283 H 1316.87 -4.69066 0.975401 0
M  V30 13284 H 1315.24 -2.51156 0.423434 0
M  V30 13285 H 1316.02 -2.73083 2.0804 0
M  V30 13286 N 1318.47 -0.542005 -1.47987 0
M  V30 13287 C 1319.88 -0.200691 -1.58333 0
M  V30 13288 C 1320.08 1.29643 -1.54256 0
M  V30 13289 O 1319.14 2.07556 -1.43794 0
M  V30 13290 C 1320.45 -0.813878 -2.89476 0
M  V30 13291 C 1322 -0.783711 -3.0303 0
M  V30 13292 C 1322.47 -1.37569 -4.36851 0
M  V30 13293 N 1323.96 -1.33819 -4.43449 0
M  V30 13294 C 1324.7 -1.76602 -5.45527 0
M  V30 13295 N 1324.2 -2.27169 -6.54497 0
M  V30 13296 N 1325.99 -1.67765 -5.3648 0
M  V30 13297 H 1318.14 -1.51488 -1.4888 0
M  V30 13298 H 1320.4 -0.630835 -0.707638 0
M  V30 13299 H 1320.11 -1.86544 -2.98151 0
M  V30 13300 H 1319.98 -0.297978 -3.76021 0
M  V30 13301 H 1322.37 0.259118 -2.9396 0
M  V30 13302 H 1322.45 -1.33721 -2.18065 0
M  V30 13303 H 1322.09 -2.41751 -4.46675 0
M  V30 13304 H 1322.02 -0.797769 -5.20522 0
M  V30 13305 H 1324.52 -0.968147 -3.65288 0
M  V30 13306 H 1324.83 -2.57777 -7.2854 0
M  V30 13307 H 1323.17 -2.31171 -6.55427 0
M  V30 13308 H 1326.36 -1.28048 -4.50246 0
M  V30 13309 H 1326.54 -2.01426 -6.15899 0
M  V30 13310 N 1319.94 1.55134 -0.277709 0
M  V30 13311 C 1320.87 2.256 0.602232 0
M  V30 13312 C 1321.85 1.24708 1.15681 0
M  V30 13313 O 1323.04 1.53433 1.19046 0
M  V30 13314 C 1320.17 2.97907 1.78519 0
M  V30 13315 C 1319.12 4.0575 1.36203 0
M  V30 13316 C 1318.45 4.65644 2.62829 0
M  V30 13317 C 1319.75 5.19801 0.510327 0
M  V30 13318 H 1321.44 2.99396 0.0145622 0
M  V30 13319 H 1318.99 1.43999 0.00556389 0
M  V30 13320 H 1320.94 3.45915 2.40668 0
M  V30 13321 H 1319.67 2.21649 2.39873 0
M  V30 13322 H 1318.33 3.58557 0.763726 0
M  V30 13323 H 1317.97 3.86053 3.22447 0
M  V30 13324 H 1317.67 5.38463 2.35227 0
M  V30 13325 H 1319.2 5.16403 3.25823 0
M  V30 13326 H 1320.61 5.63845 1.03689 0
M  V30 13327 H 1319.01 5.99197 0.329073 0
M  V30 13328 H 1320.08 4.82614 -0.470273 0
M  V30 13329 N 1321.42 0.00503138 1.57599 0
M  V30 13330 C 1322.35 -0.983586 2.11773 0
M  V30 13331 C 1323.33 -1.35518 1.02805 0
M  V30 13332 O 1324.52 -1.43804 1.30514 0
M  V30 13333 C 1321.65 -2.27383 2.62515 0
M  V30 13334 C 1320.6 -2.0437 3.76054 0
M  V30 13335 C 1319.93 -3.39451 4.1313 0
M  V30 13336 C 1321.23 -1.40223 5.03125 0
M  V30 13337 H 1322.92 -0.532501 2.94627 0
M  V30 13338 H 1320.47 -0.254696 1.4173 0
M  V30 13339 H 1322.42 -2.96903 2.99043 0
M  V30 13340 H 1321.14 -2.74614 1.7679 0
M  V30 13341 H 1319.8 -1.37275 3.39928 0
M  V30 13342 H 1319.45 -3.84395 3.24422 0
M  V30 13343 H 1319.15 -3.24868 4.89627 0
M  V30 13344 H 1320.68 -4.10279 4.52221 0
M  V30 13345 H 1322.09 -1.99708 5.37392 0
M  V30 13346 H 1320.49 -1.36112 5.8446 0
M  V30 13347 H 1321.56 -0.372073 4.8347 0
M  V30 13348 N 1322.9 -1.55308 -0.267798 0
M  V30 13349 C 1324.31 -1.66814 -0.838459 0
M  V30 13350 C 1324.66 -0.598609 -1.86845 0
M  V30 13351 O 1323.79 0.25896 -2.14845 0
M  V30 13352 C 1324.38 -3.02408 -1.52758 0
M  V30 13353 C 1322.94 -3.15923 -2.04621 0
M  V30 13354 C 1322.09 -2.62628 -0.890044 0
M  V30 13355 H 1325.04 -1.58639 -0.0440354 0
M  V30 13356 H 1325.06 -2.95687 -2.39478 0
M  V30 13357 H 1324.57 -3.80228 -0.777695 0
M  V30 13358 H 1322.67 -2.42886 -2.82555 0
M  V30 13359 H 1322.79 -4.22556 -2.25794 0
M  V30 13360 H 1321.15 -2.19918 -1.28485 0
M  V30 13361 H 1321.93 -3.42956 -0.153579 0
M  V30 13362 N 1324.38 0.532545 -1.4833 0
M  V30 13363 C 1325.29 1.66433 -1.65339 0
M  V30 13364 C 1326.3 1.65541 -0.535939 0
M  V30 13365 O 1327.48 1.84539 -0.806679 0
M  V30 13366 C 1324.54 3.02901 -1.68676 0
M  V30 13367 C 1323.61 3.14669 -2.92031 0
M  V30 13368 C 1322.84 4.44627 -2.95199 0
M  V30 13369 O 1323.06 5.31572 -2.06851 0
M  V30 13370 O 1322 4.60707 -3.87341 0
M  V30 13371 H 1325.82 1.5502 -2.61156 0
M  V30 13372 H 1323.41 0.705348 -1.31701 0
M  V30 13373 H 1325.29 3.84068 -1.73407 0
M  V30 13374 H 1323.96 3.14644 -0.760327 0
M  V30 13375 H 1322.87 2.32807 -2.92834 0
M  V30 13376 H 1324.2 3.07841 -3.8405 0
M  V30 13377 N 1325.86 1.36875 0.78122 0
M  V30 13378 C 1327.1 1.31754 1.54171 0
M  V30 13379 C 1327.43 -0.100632 1.93939 0
M  V30 13380 O 1326.71 -1.05587 1.63345 0
M  V30 13381 C 1326.99 2.24789 2.81322 0
M  V30 13382 C 1326.85 3.75342 2.47868 0
M  V30 13383 C 1328.16 2.16442 3.83198 0
M  V30 13384 H 1325.28 0.479931 0.559317 0
M  V30 13385 H 1327.93 1.67497 0.896935 0
M  V30 13386 H 1326.08 1.94438 3.36342 0
M  V30 13387 H 1327.75 4.16247 1.98836 0
M  V30 13388 H 1325.99 3.94375 1.80696 0
M  V30 13389 H 1326.66 4.3586 3.38719 0
M  V30 13390 H 1329.14 2.43175 3.37647 0
M  V30 13391 H 1328.01 2.83695 4.69903 0
M  V30 13392 H 1328.27 1.15431 4.26765 0
M  V30 13393 N 1327.33 -1.00632 1.21289 0
M  V30 13394 C 1328.28 -2.07791 0.938459 0
M  V30 13395 C 1329.27 -1.60552 -0.105773 0
M  V30 13396 O 1330.46 -1.767 0.102981 0
M  V30 13397 C 1327.59 -3.39587 0.503563 0
M  V30 13398 C 1326.67 -3.93497 1.58179 0
M  V30 13399 N 1327.07 -4.20792 2.80656 0
M  V30 13400 C 1325.36 -4.21759 1.45035 0
M  V30 13401 C 1326.06 -4.64411 3.50281 0
M  V30 13402 N 1325.04 -4.67305 2.77717 0
M  V30 13403 H 1328.84 -2.26816 1.869 0
M  V30 13404 H 1326.36 -1.18692 1.10842 0
M  V30 13405 H 1328.35 -4.15902 0.288323 0
M  V30 13406 H 1327.01 -3.21969 -0.420233 0
M  V30 13407 H 1328.02 -4.09386 3.17212 0
M  V30 13408 H 1324.7 -4.13285 0.591745 0
M  V30 13409 H 1326.09 -4.94263 4.55141 0
M  V30 13410 N 1328.81 -1.02043 -1.20104 0
M  V30 13411 C 1329.72 -0.603724 -2.26699 0
M  V30 13412 C 1330.74 0.360558 -1.70223 0
M  V30 13413 O 1331.91 0.220552 -2.00189 0
M  V30 13414 C 1328.98 0.0475988 -3.46667 0
M  V30 13415 C 1328.04 -0.963111 -4.18357 0
M  V30 13416 C 1327.27 -0.342775 -5.32598 0
M  V30 13417 O 1327.5 0.856509 -5.63933 0
M  V30 13418 O 1326.43 -1.06141 -5.92467 0
M  V30 13419 H 1330.26 -1.49125 -2.64566 0
M  V30 13420 H 1327.84 -0.790134 -1.26796 0
M  V30 13421 H 1329.72 0.411177 -4.19389 0
M  V30 13422 H 1328.4 0.909266 -3.10667 0
M  V30 13423 H 1327.3 -1.37813 -3.47791 0
M  V30 13424 H 1328.64 -1.79487 -4.58307 0
M  V30 13425 N 1330.29 1.35952 -0.797165 0
M  V30 13426 C 1331.57 1.93335 -0.2968 0
M  V30 13427 C 1331.95 1.72825 1.21222 0
M  V30 13428 O 1331.3 1.09172 2.00733 0
M  V30 13429 C 1331.51 3.41951 -0.697894 0
M  V30 13430 C 1332.85 4.19087 -0.682026 0
M  V30 13431 O 1333.88 3.50424 -0.638849 0
M  V30 13432 O 1332.74 5.41577 -0.73189 0
M  V30 13433 H 1329.83 0.823554 -0.0754223 0
M  V30 13434 H 1332.38 1.45086 -0.88023 0
M  V30 13435 H 1331.15 3.50569 -1.73831 0
M  V30 13436 H 1330.77 3.97501 -0.088764 0
M  V30 13437 N 1331.77 0.549846 1.47697 0
M  V30 13438 C 1333.02 0.0230048 2.02087 0
M  V30 13439 C 1333.34 -1.32865 1.4273 0
M  V30 13440 O 1332.61 -1.86492 0.59981 0
M  V30 13441 H 1331.19 0.00551514 0.74698 0
M  V30 13442 H 1333.85 0.718185 1.81185 0
M  V30 13443 H 1332.95 -0.0705813 3.1202 0
M  V30 13444 N 1333.25 -1.54984 0.285932 0
M  V30 13445 C 1334.47 -2.04699 -0.333621 0
M  V30 13446 C 1334.9 -1.16252 -1.47875 0
M  V30 13447 O 1334.25 -0.163376 -1.80562 0
M  V30 13448 C 1334.3 -3.52022 -0.78187 0
M  V30 13449 O 1333.41 -3.66639 -1.88812 0
M  V30 13450 H 1332.75 -0.660579 -0.0673203 0
M  V30 13451 H 1335.28 -2.00171 0.423386 0
M  V30 13452 H 1335.29 -3.93591 -1.07473 0
M  V30 13453 H 1333.96 -4.15862 0.055893 0
M  V30 13454 H 1332.54 -3.36974 -1.59696 0
M  V30 13455 N 1334.72 -0.0133892 -1.57594 0
M  V30 13456 C 1336.14 0.527615 -1.7909 0
M  V30 13457 C 1336.49 1.73179 -0.922142 0
M  V30 13458 O 1335.61 2.1602 -0.128233 0
M  V30 13459 C 1336.21 0.963949 -3.24798 0
M  V30 13460 C 1334.77 1.45017 -3.47343 0
M  V30 13461 C 1333.91 0.407548 -2.74289 0
M  V30 13462 H 1336.86 -0.239505 -1.56882 0
M  V30 13463 H 1336.88 1.82924 -3.33645 0
M  V30 13464 H 1336.4 0.0873315 -3.88002 0
M  V30 13465 H 1334.5 2.34724 -2.89371 0
M  V30 13466 H 1334.61 1.4684 -4.56043 0
M  V30 13467 H 1332.97 0.872174 -2.39301 0
M  V30 13468 H 1333.76 -0.460333 -3.402 0
M  V30 13469 N 1336.2 1.55448 0.259558 0
M  V30 13470 C 1337.15 1.90056 1.34096 0
M  V30 13471 C 1338.14 0.778267 1.50464 0
M  V30 13472 O 1339.35 0.962758 1.52089 0
M  V30 13473 H 1335.73 0.603424 0.448758 0
M  V30 13474 H 1337.7 2.80365 1.02166 0
M  V30 13475 C 1336.45 2.20074 2.69189 0
M  V30 13476 H 1335.77 3.05926 2.57389 0
M  V30 13477 H 1337.21 2.48201 3.43762 0
M  V30 13478 C 1335.67 1.01281 3.21316 0
M  V30 13479 O 1336.2 0.2543 4.00894 0
M  V30 13480 N 1334.4 0.806855 2.79174 0
M  V30 13481 H 1333.95 1.42536 2.14572 0
M  V30 13482 H 1333.91 0.0136714 3.14397 0
M  V30 13483 N 1337.68 -0.524672 1.4861 0
M  V30 13484 C 1338.61 -1.63782 1.66426 0
M  V30 13485 C 1339.59 -1.62177 0.513077 0
M  V30 13486 O 1340.78 -1.7929 0.74623 0
M  V30 13487 C 1337.91 -3.02354 1.70877 0
M  V30 13488 C 1336.86 -3.18819 2.85549 0
M  V30 13489 C 1336.19 -4.58506 2.75094 0
M  V30 13490 C 1337.49 -3.01086 4.26784 0
M  V30 13491 H 1339.18 -1.49127 2.59618 0
M  V30 13492 H 1336.73 -0.715997 1.24938 0
M  V30 13493 H 1338.68 -3.80105 1.81929 0
M  V30 13494 H 1337.4 -3.18044 0.742682 0
M  V30 13495 H 1336.06 -2.43487 2.74061 0
M  V30 13496 H 1335.71 -4.71038 1.76443 0
M  V30 13497 H 1335.41 -4.70466 3.52044 0
M  V30 13498 H 1336.93 -5.38348 2.88121 0
M  V30 13499 H 1338.35 -3.68624 4.39077 0
M  V30 13500 H 1336.75 -3.24536 5.04774 0
M  V30 13501 H 1337.82 -1.97454 4.42877 0
M  V30 13502 N 1339.16 -1.37287 -0.77395 0
M  V30 13503 C 1340.12 -1.32699 -1.86878 0
M  V30 13504 C 1341.12 -0.231486 -1.59125 0
M  V30 13505 O 1342.31 -0.487203 -1.67248 0
M  V30 13506 C 1339.44 -1.0609 -3.23972 0
M  V30 13507 H 1340.64 -2.30083 -1.92359 0
M  V30 13508 H 1338.19 -1.22284 -0.973459 0
M  V30 13509 H 1338.92 -0.0922868 -3.24169 0
M  V30 13510 H 1338.71 -1.85383 -3.45508 0
M  V30 13511 H 1340.2 -1.05524 -4.04048 0
M  V30 13512 N 1340.64 0.999871 -1.21821 0
M  V30 13513 C 1342.05 1.5529 -1.03642 0
M  V30 13514 C 1342.4 1.92032 0.402246 0
M  V30 13515 O 1341.52 1.74027 1.28622 0
M  V30 13516 C 1342.12 2.82177 -1.87514 0
M  V30 13517 C 1340.68 3.33949 -1.73653 0
M  V30 13518 C 1339.82 2.07095 -1.84409 0
M  V30 13519 H 1342.78 0.821751 -1.35768 0
M  V30 13520 H 1342.8 3.54264 -1.38842 0
M  V30 13521 H 1342.31 2.55405 -2.92216 0
M  V30 13522 H 1340.41 3.65645 -0.716554 0
M  V30 13523 H 1340.52 4.05022 -2.55918 0
M  V30 13524 H 1338.89 2.20332 -1.27773 0
M  V30 13525 H 1339.67 1.82728 -2.90629 0
M  V30 13526 N 1342.11 1.02678 1.19562 0
M  V30 13527 C 1343.36 0.717279 1.88515 0
M  V30 13528 C 1343.68 -0.757063 1.80355 0
M  V30 13529 O 1344.88 -1.17953 2.44539 0
M  V30 13530 C 1343.34 1.23265 3.38133 0
M  V30 13531 C 1342.95 2.73462 3.54856 0
M  V30 13532 C 1344.69 0.99904 4.12577 0
M  V30 13533 C 1342.6 3.18428 4.98355 0
M  V30 13534 H 1341.53 0.264608 0.706044 0
M  V30 13535 H 1344.18 1.2408 1.3519 0
M  V30 13536 H 1342.56 0.637052 3.90842 0
M  V30 13537 H 1343.73 3.38659 3.12485 0
M  V30 13538 H 1342.05 2.95079 2.93798 0
M  V30 13539 H 1344.65 1.3103 5.18397 0
M  V30 13540 H 1344.99 -0.064217 4.1625 0
M  V30 13541 H 1345.52 1.55853 3.65998 0
M  V30 13542 H 1342.26 4.24074 4.99842 0
M  V30 13543 H 1341.78 2.57958 5.41496 0
M  V30 13544 H 1343.46 3.11649 5.66996 0
M  V30 13545 N 1343.59 -1.35528 0.804364 0
M  V30 13546 C 1345 -1.81321 0.444933 0
M  V30 13547 C 1345.35 -1.66816 -1.03281 0
M  V30 13548 O 1344.48 -1.19753 -1.80245 0
M  V30 13549 C 1345.07 -3.29199 0.800827 0
M  V30 13550 C 1343.63 -3.73144 0.494026 0
M  V30 13551 C 1342.78 -2.57557 1.02761 0
M  V30 13552 H 1345.73 -1.23537 0.996203 0
M  V30 13553 H 1345.75 -3.80375 0.0975117 0
M  V30 13554 H 1345.26 -3.39725 1.8764 0
M  V30 13555 H 1343.37 -3.68169 -0.572901 0
M  V30 13556 H 1343.48 -4.68005 1.0251 0
M  V30 13557 H 1341.84 -2.50692 0.450048 0
M  V30 13558 H 1342.63 -2.70861 2.10925 0
M  V30 13559 N 1345.07 -0.557671 -1.47404 0
M  V30 13560 C 1346.32 -0.0338384 -2.02772 0
M  V30 13561 C 1346.65 1.31278 -1.43107 0
M  V30 13562 O 1345.93 1.85436 -0.58682 0
M  V30 13563 C 1346.21 0.0587427 -3.60052 0
M  V30 13564 C 1346.06 -1.315 -4.30148 0
M  V30 13565 C 1347.38 0.771942 -4.33277 0
M  V30 13566 H 1344.5 -0.0137711 -0.736871 0
M  V30 13567 H 1347.14 -0.720049 -1.75827 0
M  V30 13568 H 1345.29 0.643154 -3.83139 0
M  V30 13569 H 1346.96 -1.94265 -4.184 0
M  V30 13570 H 1345.21 -1.88956 -3.90484 0
M  V30 13571 H 1345.88 -1.20294 -5.38733 0
M  V30 13572 H 1348.35 0.275729 -4.15185 0
M  V30 13573 H 1347.23 0.805683 -5.42955 0
M  V30 13574 H 1347.49 1.82816 -4.0253 0
M  V30 13575 N 1346.55 1.54831 -0.294147 0
M  V30 13576 C 1347.78 2.04411 0.319938 0
M  V30 13577 C 1348.19 1.17174 1.4804 0
M  V30 13578 O 1347.55 0.195881 1.81446 0
M  V30 13579 C 1347.6 3.52924 0.782751 0
M  V30 13580 O 1347.32 4.36844 -0.331512 0
M  V30 13581 C 1348.82 4.18474 1.4627 0
M  V30 13582 H 1346.04 0.667286 0.0704973 0
M  V30 13583 H 1348.59 1.9989 -0.431785 0
M  V30 13584 H 1346.74 3.57828 1.48451 0
M  V30 13585 H 1347.16 5.24493 0.0275743 0
M  V30 13586 H 1348.63 5.23933 1.73776 0
M  V30 13587 H 1349.11 3.67793 2.40052 0
M  V30 13588 H 1349.71 4.17626 0.804291 0
M  V30 13589 N 1348.03 0.0217466 1.57585 0
M  V30 13590 C 1349.27 -0.659463 1.91778 0
M  V30 13591 C 1349.61 -1.72201 0.897801 0
M  V30 13592 O 1348.88 -1.94333 -0.080509 0
M  V30 13593 C 1349.16 -1.28269 3.36481 0
M  V30 13594 C 1349.02 -0.230201 4.49211 0
M  V30 13595 C 1350.34 -2.20279 3.81005 0
M  V30 13596 H 1347.46 -0.238263 0.697424 0
M  V30 13597 H 1350.1 0.0774967 1.89842 0
M  V30 13598 H 1348.25 -1.9108 3.38262 0
M  V30 13599 H 1349.92 0.399901 4.59563 0
M  V30 13600 H 1348.16 0.445157 4.3151 0
M  V30 13601 H 1348.83 -0.705732 5.4747 0
M  V30 13602 H 1351.31 -1.67463 3.80914 0
M  V30 13603 H 1350.19 -2.60842 4.82962 0
M  V30 13604 H 1350.45 -3.09092 3.16093 0
M  V30 13605 N 1349.51 -1.55583 -0.251311 0
M  V30 13606 C 1350.45 -1.89946 -1.31108 0
M  V30 13607 C 1351.42 -0.753209 -1.4804 0
M  V30 13608 O 1352.61 -1.00646 -1.62095 0
M  V30 13609 C 1349.75 -2.19576 -2.66233 0
M  V30 13610 C 1348.86 -3.46983 -2.57345 0
M  V30 13611 C 1348 -3.66206 -3.84794 0
M  V30 13612 C 1347.03 -4.87229 -3.70505 0
M  V30 13613 N 1346.17 -5.02996 -4.89836 0
M  V30 13614 H 1351.01 -2.80325 -1.01104 0
M  V30 13615 H 1348.55 -1.3877 -0.487986 0
M  V30 13616 H 1350.51 -2.3476 -3.44882 0
M  V30 13617 H 1349.14 -1.32406 -2.94395 0
M  V30 13618 H 1348.19 -3.40156 -1.70289 0
M  V30 13619 H 1349.5 -4.35776 -2.42695 0
M  V30 13620 H 1348.65 -3.81324 -4.71886 0
M  V30 13621 H 1347.39 -2.75638 -4.02337 0
M  V30 13622 H 1346.4 -4.72092 -2.81797 0
M  V30 13623 H 1347.62 -5.79253 -3.54462 0
M  V30 13624 H 1345.57 -4.15364 -5.07748 0
M  V30 13625 H 1345.49 -5.8587 -4.778 0
M  V30 13626 H 1346.75 -5.22521 -5.78439 0
M  V30 13627 N 1350.98 0.516783 -1.48886 0
M  V30 13628 C 1352.4 0.84654 -1.35299 0
M  V30 13629 C 1352.6 1.97998 -0.374035 0
M  V30 13630 O 1351.66 2.51707 0.200003 0
M  V30 13631 C 1352.97 1.20162 -2.75648 0
M  V30 13632 C 1354.52 1.31074 -2.84233 0
M  V30 13633 C 1354.99 1.69919 -4.25313 0
M  V30 13634 N 1356.48 1.76998 -4.28049 0
M  V30 13635 C 1357.22 2.08466 -5.34162 0
M  V30 13636 N 1356.71 2.38268 -6.50538 0
M  V30 13637 N 1358.51 2.09584 -5.21566 0
M  V30 13638 H 1350.66 -0.230871 -2.11142 0
M  V30 13639 H 1352.92 -0.0406678 -0.947127 0
M  V30 13640 H 1352.63 0.442278 -3.48908 0
M  V30 13641 H 1352.5 2.14875 -3.10014 0
M  V30 13642 H 1354.89 2.06083 -2.1122 0
M  V30 13643 H 1354.97 0.344506 -2.5347 0
M  V30 13644 H 1354.61 0.954667 -4.98847 0
M  V30 13645 H 1354.54 2.67616 -4.5353 0
M  V30 13646 H 1357.03 1.56191 -3.44112 0
M  V30 13647 H 1357.35 2.61423 -7.2724 0
M  V30 13648 H 1355.69 2.35758 -6.53791 0
M  V30 13649 H 1358.88 1.85768 -4.2966 0
M  V30 13650 H 1359.06 2.33776 -6.04362 0
M  V30 13651 N 1352.46 1.37696 0.766659 0
M  V30 13652 C 1353.37 1.36075 1.91104 0
M  V30 13653 C 1354.39 0.259617 1.72052 0
M  V30 13654 O 1355.56 0.49586 1.952 0
M  V30 13655 C 1352.63 1.17176 3.26298 0
M  V30 13656 C 1351.69 2.36975 3.57968 0
M  V30 13657 C 1350.92 2.18968 4.86712 0
M  V30 13658 O 1351.15 1.17658 5.58133 0
M  V30 13659 O 1350.08 3.07269 5.17561 0
M  V30 13660 H 1353.91 2.32472 1.95424 0
M  V30 13661 H 1351.49 1.18478 0.910122 0
M  V30 13662 H 1353.37 1.08645 4.07154 0
M  V30 13663 H 1352.05 0.238559 3.2282 0
M  V30 13664 H 1350.95 2.51079 2.77327 0
M  V30 13665 H 1352.29 3.2888 3.66195 0
M  V30 13666 N 1353.94 -0.993397 1.22349 0
M  V30 13667 C 1355.35 -1.54739 1.04465 0
M  V30 13668 C 1355.7 -1.92243 -0.392057 0
M  V30 13669 O 1354.83 -1.74707 -1.27697 0
M  V30 13670 C 1355.42 -2.81179 1.89007 0
M  V30 13671 C 1353.98 -3.33023 1.75421 0
M  V30 13672 C 1353.13 -2.06114 1.85505 0
M  V30 13673 H 1356.08 -0.814539 1.36202 0
M  V30 13674 H 1356.1 -3.53523 1.40718 0
M  V30 13675 H 1355.61 -2.53851 2.93566 0
M  V30 13676 H 1353.71 -3.6526 0.735935 0
M  V30 13677 H 1353.83 -4.03659 2.58062 0
M  V30 13678 H 1352.19 -2.19651 1.2894 0
M  V30 13679 H 1352.97 -1.81184 2.91594 0
M  V30 13680 N 1355.42 -1.03311 -1.19015 0
M  V30 13681 C 1356.33 -0.627735 -2.26046 0
M  V30 13682 C 1357.34 0.342483 -1.70596 0
M  V30 13683 O 1358.52 0.199307 -2.00411 0
M  V30 13684 C 1355.58 0.0108274 -3.46698 0
M  V30 13685 C 1354.65 -1.00743 -4.17312 0
M  V30 13686 C 1353.88 -0.399245 -5.32205 0
M  V30 13687 O 1354.1 0.796649 -5.64809 0
M  V30 13688 O 1353.04 -1.12419 -5.91308 0
M  V30 13689 H 1356.86 -1.51923 -2.6297 0
M  V30 13690 H 1354.45 -0.803538 -1.25951 0
M  V30 13691 H 1356.33 0.366672 -4.19802 0
M  V30 13692 H 1355 0.876265 -3.11614 0
M  V30 13693 H 1353.91 -1.41494 -3.4631 0
M  V30 13694 H 1355.24 -1.84338 -4.56377 0
M  V30 13695 N 1356.9 1.35099 -0.81154 0
M  V30 13696 C 1357.81 2.33499 -0.22705 0
M  V30 13697 C 1358.82 1.62095 0.632562 0
M  V30 13698 O 1360 1.93938 0.543147 0
M  V30 13699 C 1357.06 3.41279 0.610687 0
M  V30 13700 C 1356.12 4.2845 -0.269994 0
M  V30 13701 C 1355.36 5.31083 0.527854 0
M  V30 13702 O 1355.58 5.42499 1.76213 0
M  V30 13703 O 1354.51 6.01842 -0.083862 0
M  V30 13704 H 1358.34 2.85294 -1.04119 0
M  V30 13705 H 1355.92 1.37957 -0.573432 0
M  V30 13706 H 1357.81 4.07121 1.08768 0
M  V30 13707 H 1356.48 2.91746 1.40235 0
M  V30 13708 H 1355.39 3.65572 -0.794234 0
M  V30 13709 H 1356.72 4.81394 -1.02572 0
M  V30 13710 N 1358.37 0.56548 1.47106 0
M  V30 13711 C 1359.3 -0.16567 2.32912 0
M  V30 13712 C 1360.28 -0.900678 1.44298 0
M  V30 13713 O 1361.47 -0.879523 1.73142 0
M  V30 13714 C 1358.6 -1.19092 3.26243 0
M  V30 13715 C 1357.55 -0.571849 4.24163 0
M  V30 13716 C 1356.88 -1.70233 5.06878 0
M  V30 13717 C 1358.18 0.479785 5.20092 0
M  V30 13718 H 1359.87 0.550705 2.94292 0
M  V30 13719 H 1357.42 0.266284 1.41517 0
M  V30 13720 H 1359.37 -1.71064 3.85117 0
M  V30 13721 H 1358.1 -1.93734 2.62934 0
M  V30 13722 H 1356.76 -0.073353 3.66527 0
M  V30 13723 H 1356.4 -2.438 4.39967 0
M  V30 13724 H 1356.1 -1.29384 5.73178 0
M  V30 13725 H 1357.63 -2.22515 5.68612 0
M  V30 13726 H 1359.04 0.0458042 5.73282 0
M  V30 13727 H 1357.44 0.807615 5.94641 0
M  V30 13728 H 1358.51 1.37259 4.65068 0
M  V30 13729 N 1359.85 -1.54672 0.302354 0
M  V30 13730 C 1361.13 -1.92264 -0.359711 0
M  V30 13731 C 1361.51 -1.22973 -1.71583 0
M  V30 13732 O 1360.86 -0.365942 -2.25551 0
M  V30 13733 C 1361.07 -3.4578 -0.473019 0
M  V30 13734 C 1362.42 -4.18044 -0.743252 0
M  V30 13735 O 1363.44 -3.51822 -0.556778 0
M  V30 13736 O 1362.3 -5.35283 -1.10155 0
M  V30 13737 H 1359.39 -0.802112 -0.201359 0
M  V30 13738 H 1361.94 -1.66041 0.350513 0
M  V30 13739 H 1360.71 -3.88342 0.480265 0
M  V30 13740 H 1360.33 -3.78042 -1.23166 0
M  V30 13741 N 1361.33 -0.0301034 -1.57571 0
M  V30 13742 C 1362.26 0.980187 -2.07183 0
M  V30 13743 C 1363.28 1.2882 -0.995449 0
M  V30 13744 O 1364.46 1.25268 -1.27162 0
M  V30 13745 C 1361.56 2.30734 -2.48224 0
M  V30 13746 C 1360.74 2.18434 -3.78953 0
M  V30 13747 C 1359.8 3.34092 -4.06533 0
M  V30 13748 O 1358.82 3.10934 -4.76769 0
M  V30 13749 N 1360.02 4.57914 -3.56784 0
M  V30 13750 H 1362.79 0.556877 -2.94481 0
M  V30 13751 H 1360.35 0.156632 -1.61141 0
M  V30 13752 H 1362.34 3.06936 -2.63766 0
M  V30 13753 H 1360.91 2.64703 -1.66287 0
M  V30 13754 H 1360.13 1.26953 -3.73198 0
M  V30 13755 H 1361.42 2.07421 -4.64601 0
M  V30 13756 H 1360.82 4.79623 -2.99964 0
M  V30 13757 H 1359.38 5.31281 -3.77603 0
M  V30 13758 N 1362.81 1.55714 0.243056 0
M  V30 13759 C 1363.74 1.93655 1.30461 0
M  V30 13760 C 1364.72 0.801968 1.50008 0
M  V30 13761 O 1365.9 1.06256 1.62552 0
M  V30 13762 C 1363.03 2.23459 2.65863 0
M  V30 13763 C 1361.99 3.39205 2.61006 0
M  V30 13764 C 1361.31 3.5456 4.00239 0
M  V30 13765 C 1362.61 4.74787 2.17656 0
M  V30 13766 H 1364.31 2.82575 0.98954 0
M  V30 13767 H 1361.85 1.35955 0.474572 0
M  V30 13768 H 1363.81 2.48591 3.40266 0
M  V30 13769 H 1362.53 1.31369 2.99014 0
M  V30 13770 H 1361.19 3.14088 1.89061 0
M  V30 13771 H 1360.84 2.59884 4.30661 0
M  V30 13772 H 1360.54 4.32399 3.97876 0
M  V30 13773 H 1362.06 3.82017 4.76335 0
M  V30 13774 H 1363.48 4.99266 2.81792 0
M  V30 13775 H 1361.87 5.55756 2.26397 0
M  V30 13776 H 1362.94 4.7159 1.12831 0
M  V30 13777 N 1364.29 -0.50888 1.49158 0
M  V30 13778 C 1365.52 -1.28585 1.61708 0
M  V30 13779 C 1365.92 -1.87047 0.284629 0
M  V30 13780 O 1365.27 -1.68182 -0.738959 0
M  V30 13781 C 1365.33 -2.46043 2.62113 0
M  V30 13782 C 1364.99 -2.0851 4.0666 0
M  V30 13783 C 1365.99 -1.62943 4.93706 0
M  V30 13784 C 1363.68 -2.18386 4.52342 0
M  V30 13785 C 1365.67 -1.27747 6.24467 0
M  V30 13786 C 1363.36 -1.82801 5.83118 0
M  V30 13787 C 1364.35 -1.37555 6.69005 0
M  V30 13788 O 1364.04 -1.02447 7.97345 0
M  V30 13789 H 1363.77 -0.396504 0.547504 0
M  V30 13790 H 1366.33 -0.61834 1.95872 0
M  V30 13791 H 1364.56 -3.15844 2.23113 0
M  V30 13792 H 1366.25 -3.08081 2.64275 0
M  V30 13793 H 1367.01 -1.54766 4.59644 0
M  V30 13794 H 1362.89 -2.52556 3.85664 0
M  V30 13795 H 1366.44 -0.923589 6.91459 0
M  V30 13796 H 1362.33 -1.90626 6.16711 0
M  V30 13797 H 1363.1 -1.15663 8.10287 0
M  V30 13798 N 1365.76 -1.381 -0.759346 0
M  V30 13799 C 1366.69 -1.37578 -1.88665 0
M  V30 13800 C 1367.68 -0.242529 -1.68362 0
M  V30 13801 O 1368.86 -0.444751 -1.89039 0
M  V30 13802 C 1365.99 -1.19437 -3.26117 0
M  V30 13803 C 1364.94 -2.29905 -3.61009 0
M  V30 13804 C 1364.27 -1.96874 -4.97136 0
M  V30 13805 C 1365.57 -3.72143 -3.66479 0
M  V30 13806 H 1367.26 -2.31912 -1.89359 0
M  V30 13807 H 1364.81 -1.11632 -0.909631 0
M  V30 13808 H 1366.76 -1.17698 -4.0463 0
M  V30 13809 H 1365.49 -0.21562 -3.25887 0
M  V30 13810 H 1364.15 -2.3082 -2.84812 0
M  V30 13811 H 1363.79 -0.974979 -4.9346 0
M  V30 13812 H 1363.49 -2.70855 -5.21451 0
M  V30 13813 H 1365.02 -1.96744 -5.78035 0
M  V30 13814 H 1366.43 -3.73291 -4.35117 0
M  V30 13815 H 1364.83 -4.45282 -4.02299 0
M  V30 13816 H 1365.9 -4.04874 -2.66843 0
M  V30 13817 N 1367.24 0.986894 -1.22875 0
M  V30 13818 C 1368.52 1.70121 -0.965311 0
M  V30 13819 C 1368.9 2.04648 0.517924 0
M  V30 13820 O 1368.25 1.73453 1.48749 0
M  V30 13821 C 1368.46 2.94738 -1.86897 0
M  V30 13822 C 1369.81 3.6739 -2.12861 0
M  V30 13823 O 1370.83 3.04758 -1.84394 0
M  V30 13824 O 1369.69 4.8009 -2.61106 0
M  V30 13825 H 1366.78 0.742817 -0.363527 0
M  V30 13826 H 1369.33 1.0427 -1.33887 0
M  V30 13827 H 1368.1 2.65771 -2.87196 0
M  V30 13828 H 1367.72 3.68327 -1.49736 0
M  V30 13829 N 1368.72 1.0394 1.18466 0
M  V30 13830 C 1370 0.65632 1.8426 0
M  V30 13831 C 1370.38 -0.864288 1.92596 0
M  V30 13832 O 1369.73 -1.76524 1.45092 0
M  V30 13833 C 1369.94 1.33067 3.22636 0
M  V30 13834 C 1371.28 1.46065 3.98686 0
M  V30 13835 O 1372.31 1.28867 3.32072 0
M  V30 13836 O 1371.17 1.74078 5.18034 0
M  V30 13837 H 1368.26 0.229484 0.794523 0
M  V30 13838 H 1370.81 1.13821 1.25868 0
M  V30 13839 H 1369.58 2.36866 3.11465 0
M  V30 13840 H 1369.2 0.837313 3.88683 0
M  V30 13841 N 1370.2 -1.34667 0.818693 0
M  V30 13842 C 1371.44 -1.98708 0.405359 0
M  V30 13843 C 1371.78 -1.64767 -1.02788 0
M  V30 13844 O 1371.05 -0.91714 -1.71519 0
M  V30 13845 C 1371.34 -3.55016 0.602966 0
M  V30 13846 C 1371.19 -3.98713 2.08201 0
M  V30 13847 C 1372.51 -4.40085 0.0362489 0
M  V30 13848 H 1369.63 -0.721831 0.148756 0
M  V30 13849 H 1372.27 -1.59628 1.03047 0
M  V30 13850 H 1370.42 -3.88435 0.0708453 0
M  V30 13851 H 1372.09 -3.75647 2.67745 0
M  V30 13852 H 1370.33 -3.49179 2.57403 0
M  V30 13853 H 1371 -5.0751 2.17111 0
M  V30 13854 H 1373.48 -4.13195 0.490837 0
M  V30 13855 H 1372.36 -5.4852 0.204344 0
M  V30 13856 H 1372.62 -4.29243 -1.05845 0
M  V30 13857 N 1371.68 -0.573274 -1.46804 0
M  V30 13858 C 1372.62 0.178246 -2.31916 0
M  V30 13859 C 1373.62 0.89366 -1.4391 0
M  V30 13860 O 1374.82 0.81312 -1.60588 0
M  V30 13861 H 1371.2 0.0763519 -0.748114 0
M  V30 13862 H 1373.17 -0.558552 -2.93126 0
M  V30 13863 C 1371.92 1.18476 -3.26892 0
M  V30 13864 H 1371.24 0.643691 -3.94584 0
M  V30 13865 H 1372.68 1.68118 -3.89246 0
M  V30 13866 C 1371.14 2.24092 -2.51564 0
M  V30 13867 O 1371.67 3.3129 -2.27178 0
M  V30 13868 N 1369.88 1.98447 -2.1229 0
M  V30 13869 H 1369.42 1.11283 -2.32323 0
M  V30 13870 H 1369.38 2.69325 -1.62207 0
M  V30 13871 N 1373.15 1.5451 -0.310553 0
M  V30 13872 C 1374.06 2.27557 0.570518 0
M  V30 13873 C 1375.08 1.31426 1.14032 0
M  V30 13874 O 1376.26 1.64423 1.16306 0
M  V30 13875 C 1373.32 3.00933 1.72163 0
M  V30 13876 C 1372.38 4.12623 1.18495 0
M  V30 13877 C 1371.62 4.8249 2.28121 0
M  V30 13878 O 1371.84 4.5178 3.48211 0
M  V30 13879 O 1370.77 5.69686 1.94273 0
M  V30 13880 H 1374.6 3.03692 -0.0223195 0
M  V30 13881 H 1372.18 1.49203 -0.0766821 0
M  V30 13882 H 1374.07 3.46925 2.39208 0
M  V30 13883 H 1372.74 2.27685 2.3009 0
M  V30 13884 H 1371.65 3.71008 0.479956 0
M  V30 13885 H 1372.98 4.87876 0.650994 0
M  V30 13886 N 1374.63 0.0384594 1.57553 0
M  V30 13887 C 1375.88 -0.637533 1.91359 0
M  V30 13888 C 1376.2 -1.7275 0.91744 0
M  V30 13889 O 1377.4 -2.46078 1.14709 0
M  V30 13890 C 1375.86 -1.18526 3.39823 0
M  V30 13891 C 1375.47 -0.128086 4.47817 0
M  V30 13892 C 1377.21 -1.83723 3.82683 0
M  V30 13893 C 1375.12 -0.687978 5.87385 0
M  V30 13894 H 1374.05 -0.241898 0.714144 0
M  V30 13895 H 1376.7 0.105281 1.83198 0
M  V30 13896 H 1375.08 -1.97999 3.42947 0
M  V30 13897 H 1376.25 0.644865 4.56265 0
M  V30 13898 H 1374.57 0.425672 4.14219 0
M  V30 13899 H 1377.17 -2.26585 4.84317 0
M  V30 13900 H 1377.51 -2.68377 3.18244 0
M  V30 13901 H 1378.04 -1.10926 3.82021 0
M  V30 13902 H 1374.78 0.120642 6.55389 0
M  V30 13903 H 1374.3 -1.4292 5.82524 0
M  V30 13904 H 1375.98 -1.17483 6.36244 0
M  V30 13905 N 1376.11 -1.55841 -0.234795 0
M  V30 13906 C 1377.36 -1.77438 -0.959094 0
M  V30 13907 C 1377.67 -0.604621 -1.86021 0
M  V30 13908 O 1378.88 -0.703897 -2.62217 0
M  V30 13909 C 1377.34 -3.14182 -1.7555 0
M  V30 13910 C 1376.94 -4.38843 -0.90118 0
M  V30 13911 C 1378.69 -3.45112 -2.47181 0
M  V30 13912 C 1376.59 -5.66614 -1.69417 0
M  V30 13913 H 1375.52 -0.661503 -0.361843 0
M  V30 13914 H 1378.18 -1.82255 -0.213364 0
M  V30 13915 H 1376.56 -3.03505 -2.54364 0
M  V30 13916 H 1377.73 -4.60541 -0.154515 0
M  V30 13917 H 1376.05 -4.15335 -0.297631 0
M  V30 13918 H 1378.64 -4.37794 -3.06986 0
M  V30 13919 H 1378.99 -2.66995 -3.19405 0
M  V30 13920 H 1379.52 -3.57059 -1.75368 0
M  V30 13921 H 1376.26 -6.47587 -1.01545 0
M  V30 13922 H 1375.78 -5.48998 -2.4158 0
M  V30 13923 H 1377.46 -6.06311 -2.25824 0
M  V30 13924 N 1377.59 0.500963 -1.49426 0
M  V30 13925 C 1379.01 0.832142 -1.36189 0
M  V30 13926 C 1379.21 1.9759 -0.395014 0
M  V30 13927 O 1378.26 2.51905 0.173294 0
M  V30 13928 C 1379.57 1.17232 -2.76907 0
M  V30 13929 C 1381.12 1.28052 -2.85607 0
M  V30 13930 C 1381.6 1.65399 -4.27092 0
M  V30 13931 N 1383.09 1.72448 -4.29902 0
M  V30 13932 C 1383.82 2.02789 -5.36343 0
M  V30 13933 N 1383.32 2.31354 -6.53029 0
M  V30 13934 N 1385.11 2.0404 -5.23759 0
M  V30 13935 H 1377.26 -0.253253 -2.10885 0
M  V30 13936 H 1379.53 -0.0507111 -0.946643 0
M  V30 13937 H 1379.23 0.405247 -3.49357 0
M  V30 13938 H 1379.11 2.11574 -3.12276 0
M  V30 13939 H 1381.49 2.03831 -2.13394 0
M  V30 13940 H 1381.57 0.317603 -2.53821 0
M  V30 13941 H 1381.22 0.901704 -4.99832 0
M  V30 13942 H 1381.15 2.6279 -4.56343 0
M  V30 13943 H 1383.64 1.52532 -3.45749 0
M  V30 13944 H 1383.95 2.53695 -7.29972 0
M  V30 13945 H 1382.3 2.28811 -6.56255 0
M  V30 13946 H 1385.49 1.812 -4.31606 0
M  V30 13947 H 1385.66 2.27353 -6.06807 0
M  V30 13948 N 1379.07 1.38501 0.752011 0
M  V30 13949 C 1380.02 1.35975 1.88716 0
M  V30 13950 C 1381.01 0.245392 1.67613 0
M  V30 13951 O 1382.22 0.414514 1.75162 0
M  V30 13952 H 1378.59 0.424221 0.620919 0
M  V30 13953 H 1380.56 2.3176 1.87962 0
M  V30 13954 C 1379.31 1.20326 3.26216 0
M  V30 13955 H 1378.63 2.05336 3.43041 0
M  V30 13956 H 1380.07 1.22613 4.05884 0
M  V30 13957 C 1378.53 -0.0897029 3.36781 0
M  V30 13958 O 1379.06 -1.06615 3.87293 0
M  V30 13959 N 1377.27 -0.147065 2.90228 0
M  V30 13960 H 1376.82 0.648216 2.49311 0
M  V30 13961 H 1376.77 -1.01174 2.97676 0
M  V30 13962 N 1380.55 -0.980364 1.23396 0
M  V30 13963 C 1381.82 -1.69607 0.974319 0
M  V30 13964 C 1382.2 -2.0492 -0.507064 0
M  V30 13965 O 1381.55 -1.74239 -1.47827 0
M  V30 13966 C 1381.76 -2.93743 1.88457 0
M  V30 13967 C 1383.11 -3.66256 2.14806 0
M  V30 13968 O 1384.13 -3.03776 1.86007 0
M  V30 13969 O 1382.99 -4.78698 2.63648 0
M  V30 13970 H 1380.09 -0.740878 0.367462 0
M  V30 13971 H 1382.63 -1.03558 1.34439 0
M  V30 13972 H 1381.4 -2.64244 2.88601 0
M  V30 13973 H 1381.03 -3.67528 1.51688 0
M  V30 13974 N 1382.02 -1.04567 -1.17913 0
M  V30 13975 C 1382.95 -0.662066 -2.23917 0
M  V30 13976 C 1383.93 0.33713 -1.66726 0
M  V30 13977 O 1385.12 0.216116 -1.92994 0
M  V30 13978 C 1382.25 -0.029463 -3.47288 0
M  V30 13979 C 1381.2 -0.95274 -4.17261 0
M  V30 13980 C 1380.53 -0.184347 -5.34382 0
M  V30 13981 C 1381.83 -2.2741 -4.70194 0
M  V30 13982 H 1383.52 -1.54826 -2.5626 0
M  V30 13983 H 1381.07 -0.745886 -1.23177 0
M  V30 13984 H 1383.02 0.250654 -4.20654 0
M  V30 13985 H 1381.75 0.891638 -3.14193 0
M  V30 13986 H 1380.41 -1.21732 -3.45799 0
M  V30 13987 H 1380.05 0.73932 -4.97537 0
M  V30 13988 H 1379.75 -0.79949 -5.82136 0
M  V30 13989 H 1381.28 0.0886344 -6.10536 0
M  V30 13990 H 1382.69 -2.05433 -5.35229 0
M  V30 13991 H 1381.09 -2.84265 -5.28501 0
M  V30 13992 H 1382.16 -2.91708 -3.87342 0
M  V30 13993 N 1383.5 1.34231 -0.825823 0
M  V30 13994 C 1384.73 2.02949 -0.427354 0
M  V30 13995 C 1385.15 1.61772 0.959755 0
M  V30 13996 O 1384.51 0.803799 1.62508 0
M  V30 13997 C 1384.56 3.56522 -0.540799 0
M  V30 13998 O 1383.66 4.10065 0.438213 0
M  V30 13999 H 1383 0.640378 -0.175535 0
M  V30 14000 H 1385.53 1.71416 -1.11704 0
M  V30 14001 H 1385.54 4.05857 -0.41763 0
M  V30 14002 H 1384.22 3.85839 -1.55246 0
M  V30 14003 H 1382.79 3.71894 0.273687 0
M  V30 14004 N 1384.98 0.581051 1.46498 0
M  V30 14005 C 1386.2 0.0696654 2.07283 0
M  V30 14006 C 1386.63 -1.22525 1.42721 0
M  V30 14007 O 1385.99 -1.73967 0.510421 0
M  V30 14008 C 1386.04 -0.0843864 3.60501 0
M  V30 14009 O 1385.14 -1.14129 3.96293 0
M  V30 14010 H 1384.48 0.0620572 0.661094 0
M  V30 14011 H 1387.01 0.803522 1.88161 0
M  V30 14012 H 1387.02 -0.29108 4.0696 0
M  V30 14013 H 1385.7 0.861274 4.06884 0
M  V30 14014 H 1384.27 -0.913186 3.61546 0
M  V30 14015 N 1386.46 -1.54343 0.318742 0
M  V30 14016 C 1387.69 -2.04894 -0.287378 0
M  V30 14017 C 1388.1 -1.19514 -1.46157 0
M  V30 14018 O 1387.46 -0.224722 -1.81111 0
M  V30 14019 C 1387.51 -3.54124 -0.726505 0
M  V30 14020 O 1387.23 -4.36261 0.400968 0
M  V30 14021 C 1388.73 -4.20748 -1.39594 0
M  V30 14022 H 1385.95 -0.668323 -0.0598724 0
M  V30 14023 H 1388.49 -1.99177 0.463531 0
M  V30 14024 H 1386.65 -3.60145 -1.4274 0
M  V30 14025 H 1387.06 -5.2447 0.0558714 0
M  V30 14026 H 1388.54 -5.26632 -1.65418 0
M  V30 14027 H 1389.01 -3.71566 -2.3417 0
M  V30 14028 H 1389.62 -4.18852 -0.737749 0
M  V30 14029 N 1387.94 -0.0468143 -1.5753 0
M  V30 14030 C 1389.16 0.641161 -1.97241 0
M  V30 14031 C 1389.59 1.6384 -0.92401 0
M  V30 14032 O 1388.94 1.80946 0.113229 0
M  V30 14033 C 1388.99 1.30832 -3.36029 0
M  V30 14034 O 1388.1 2.42394 -3.33645 0
M  V30 14035 H 1387.44 0.167035 -0.642647 0
M  V30 14036 H 1389.97 -0.113921 -2.04283 0
M  V30 14037 H 1389.98 1.66102 -3.72658 0
M  V30 14038 H 1388.65 0.57744 -4.11872 0
M  V30 14039 H 1387.23 2.09104 -3.08756 0
M  V30 14040 N 1389.41 1.55964 0.226527 0
M  V30 14041 C 1390.64 1.82823 0.968673 0
M  V30 14042 C 1391.06 0.625281 1.78145 0
M  V30 14043 O 1390.41 -0.40617 1.77923 0
M  V30 14044 C 1390.47 3.08143 1.89024 0
M  V30 14045 O 1390.19 4.23797 1.11032 0
M  V30 14046 C 1391.69 3.47954 2.74669 0
M  V30 14047 H 1388.91 0.607876 0.284126 0
M  V30 14048 H 1391.45 2.03048 0.243258 0
M  V30 14049 H 1389.61 2.89908 2.56967 0
M  V30 14050 H 1390.02 4.94957 1.73546 0
M  V30 14051 H 1391.49 4.38691 3.35044 0
M  V30 14052 H 1391.97 2.69476 3.46813 0
M  V30 14053 H 1392.58 3.6861 2.12147 0
M  V30 14054 N 1390.89 -0.493031 1.4969 0
M  V30 14055 C 1391.84 -1.59075 1.63337 0
M  V30 14056 C 1392.83 -1.53298 0.488721 0
M  V30 14057 O 1394.02 -1.60693 0.742071 0
M  V30 14058 C 1391.15 -2.97646 1.71061 0
M  V30 14059 C 1390.23 -3.08389 2.9113 0
M  V30 14060 N 1390.62 -2.89001 4.15105 0
M  V30 14061 C 1388.92 -3.395 2.89233 0
M  V30 14062 C 1389.62 -3.04136 4.95859 0
M  V30 14063 N 1388.6 -3.33367 4.2938 0
M  V30 14064 H 1392.4 -1.42751 2.56903 0
M  V30 14065 H 1389.92 -0.699325 1.46571 0
M  V30 14066 H 1391.91 -3.76546 1.78938 0
M  V30 14067 H 1390.57 -3.15034 0.786376 0
M  V30 14068 H 1391.58 -2.65017 4.44957 0
M  V30 14069 H 1388.26 -3.63014 2.06221 0
M  V30 14070 H 1389.65 -2.93571 6.04372 0
M  V30 14071 N 1392.37 -1.38898 -0.744656 0
M  V30 14072 C 1393.6 -1.3903 -1.53901 0
M  V30 14073 C 1394.02 0.0156607 -1.88093 0
M  V30 14074 O 1393.38 1.00012 -1.51219 0
M  V30 14075 C 1393.43 -2.2609 -2.80919 0
M  V30 14076 O 1392.53 -1.68414 -3.76444 0
M  V30 14077 H 1391.87 -0.473854 -0.465144 0
M  V30 14078 H 1394.4 -1.82773 -0.919525 0
M  V30 14079 H 1394.41 -2.40264 -3.29754 0
M  V30 14080 H 1393.09 -3.28271 -2.55364 0
M  V30 14081 H 1391.66 -1.63431 -3.35179 0
M  V30 14082 O 1393.89 0.885499 -1.3506 0
M  V30 14083 H 1394.58 1.5225 -1.19748 0
M  V30 END ATOM
M  V30 BEGIN BOND
M  V30 END BOND
M  V30 END CTAB
M  END
$$$$
