drugbank_target|O95670 V-type proton ATPase subunit G 2 (DB01133)
 OpenBabel12092121233D

  0  0  0     0  0            999 V3000
M  V30 BEGIN CTAB
M  V30 COUNTS 1909 1915 0 0 0
M  V30 BEGIN ATOM
M  V30 1 H -0.908 1.98254 -0.117106 0
M  V30 2 N 0 1.576 0 0
M  V30 3 C 0.933 2.03868 1.02534 0
M  V30 4 C 1.911 0.928543 1.3348 0
M  V30 5 O 3.095 1.19667 1.45644 0
M  V30 6 C 0.222 2.43627 2.35294 0
M  V30 7 C -0.732 3.65373 2.2001 0
M  V30 8 S 0.101 5.13292 1.52614 0
M  V30 9 C 1.257 5.56322 2.86805 0
M  V30 10 H 1.49 2.90518 0.631377 0
M  V30 11 H -0.977 1.52953 0.210867 0
M  V30 12 H 0.981 2.67203 3.11629 0
M  V30 13 H -0.358 1.57376 2.7183 0
M  V30 14 H -1.165 3.90944 3.18086 0
M  V30 15 H -1.563 3.418 1.51819 0
M  V30 16 H 0.729 5.58782 3.83104 0
M  V30 17 H 1.672 6.56266 2.65933 0
M  V30 18 H 2.08 4.83886 2.90714 0
M  V30 19 N 1.4781 -0.272755 1.55222 0
M  V30 20 C 2.4411 -1.32041 1.87344 0
M  V30 21 C 3.4411 -1.42342 0.74803 0
M  V30 22 O 4.6311 -1.41488 1.0162 0
M  V30 23 C 1.7631 -2.70173 2.07893 0
M  V30 24 H 2.9561 -1.04789 2.80997 0
M  V30 25 H 0.5091 -0.51083 1.47717 0
M  V30 26 H 1.2441 -3.02605 1.16622 0
M  V30 27 H 1.0291 -2.64082 2.89833 0
M  V30 28 H 2.5191 -3.45869 2.34017 0
M  V30 29 N 2.9562 -1.48159 -0.537278 0
M  V30 30 C 4.1812 -1.59707 -1.32319 0
M  V30 31 C 4.6062 -0.254859 -1.86365 0
M  V30 32 O 3.9642 0.772378 -1.64024 0
M  V30 33 C 4.0122 -2.6412 -2.45505 0
M  V30 34 O 3.1162 -2.20774 -3.48328 0
M  V30 35 H 2.4572 -0.535791 -0.392204 0
M  V30 36 H 4.9872 -1.94092 -0.647268 0
M  V30 37 H 4.9972 -2.85166 -2.91795 0
M  V30 38 H 3.6722 -3.61567 -2.05528 0
M  V30 39 H 2.2492 -2.09911 -3.08207 0
M  V30 40 N 4.4343 0.785586 -1.36625 0
M  V30 41 C 5.3663 1.90711 -1.2713 0
M  V30 42 C 6.3793 1.61688 -0.189986 0
M  V30 43 O 7.5683 1.72864 -0.445014 0
M  V30 44 C 4.6683 3.25611 -0.939713 0
M  V30 45 C 3.8413 3.82385 -2.12369 0
M  V30 46 C 2.9003 4.95732 -1.76456 0
M  V30 47 O 1.9263 5.12047 -2.48589 0
M  V30 48 N 3.1283 5.76258 -0.700492 0
M  V30 49 H 5.8933 1.99376 -2.23762 0
M  V30 50 H 3.4543 0.964041 -1.30069 0
M  V30 51 H 5.4463 3.98937 -0.680554 0
M  V30 52 H 4.0163 3.12538 -0.0624074 0
M  V30 53 H 3.2363 3.01001 -2.54543 0
M  V30 54 H 4.5243 4.17047 -2.9146 0
M  V30 55 H 3.9223 5.65609 -0.101624 0
M  V30 56 H 2.4793 6.4987 -0.501165 0
M  V30 57 N 5.9124 1.20967 1.01018 0
M  V30 58 C 7.1374 1.0503 1.78839 0
M  V30 59 C 7.5624 -0.395752 1.8389 0
M  V30 60 O 6.9204 -1.28529 1.27867 0
M  V30 61 C 6.9684 1.64602 3.2084 0
M  V30 62 O 6.0724 0.887988 4.02726 0
M  V30 63 H 5.4134 0.369987 0.551367 0
M  V30 64 H 7.9434 1.60399 1.27018 0
M  V30 65 H 7.9534 1.68607 3.71532 0
M  V30 66 H 6.6284 2.69841 3.16479 0
M  V30 67 H 5.2054 0.922648 3.61305 0
M  V30 68 N 7.3905 -1.2043 1.01659 0
M  V30 69 C 8.3225 -2.22626 0.544988 0
M  V30 70 C 9.3355 -1.58479 -0.372609 0
M  V30 71 O 10.5245 -1.77679 -0.170958 0
M  V30 72 C 7.6245 -3.38141 -0.22663 0
M  V30 73 C 6.7975 -4.31877 0.692876 0
M  V30 74 C 5.8565 -5.26191 -0.0311616 0
M  V30 75 O 4.8825 -5.6612 0.591343 0
M  V30 76 N 6.0845 -5.65618 -1.30601 0
M  V30 77 H 8.8495 -2.63716 1.42388 0
M  V30 78 H 6.4105 -1.34971 0.894116 0
M  V30 79 H 8.4025 -3.98239 -0.72024 0
M  V30 80 H 6.9725 -2.95943 -1.00681 0
M  V30 81 H 6.1925 -3.69746 1.36679 0
M  V30 82 H 7.4805 -4.91426 1.31824 0
M  V30 83 H 6.8785 -5.3519 -1.83269 0
M  V30 84 H 5.4355 -6.28025 -1.74435 0
M  V30 85 N 8.8686 -0.792821 -1.36206 0
M  V30 86 C 10.1166 -0.366062 -1.98757 0
M  V30 87 C 10.4376 1.0668 -1.63231 0
M  V30 88 O 9.7076 1.73587 -0.907978 0
M  V30 89 H 8.2876 -0.132364 -0.735179 0
M  V30 90 H 10.9496 -1.01562 -1.66347 0
M  V30 91 H 10.0456 -0.460638 -3.08682 0
M  V30 92 N 10.3467 1.47872 -0.545128 0
M  V30 93 C 11.5957 2.01695 -0.0145033 0
M  V30 94 C 11.9087 1.42609 1.33873 0
M  V30 95 O 13.1147 1.88021 1.95858 0
M  V30 96 C 11.5707 3.59892 0.0245068 0
M  V30 97 C 11.1787 4.27966 -1.32475 0
M  V30 98 C 12.9227 4.21507 0.50316 0
M  V30 99 C 10.8297 5.78136 -1.2455 0
M  V30 100 H 9.7597 0.753998 -0.00165172 0
M  V30 101 H 12.4107 1.69985 -0.691175 0
M  V30 102 H 10.7927 3.88509 0.766575 0
M  V30 103 H 11.9667 4.11003 -2.08357 0
M  V30 104 H 10.2817 3.78286 -1.74036 0
M  V30 105 H 12.8787 5.31538 0.580656 0
M  V30 106 H 13.2217 3.87855 1.51243 0
M  V30 107 H 13.7547 3.97376 -0.183681 0
M  V30 108 H 10.4937 6.16388 -2.23039 0
M  V30 109 H 10.0137 5.97469 -0.528282 0
M  V30 110 H 11.6927 6.40099 -0.942488 0
M  V30 111 N 11.8248 0.280983 1.55075 0
M  V30 112 C 12.7568 -0.637268 2.20163 0
M  V30 113 C 13.7698 -1.11298 1.18813 0
M  V30 114 O 14.9588 -1.03388 1.4551 0
M  V30 115 C 12.0588 -1.88199 2.81841 0
M  V30 116 C 11.2318 -1.55211 4.08936 0
M  V30 117 C 10.2908 -2.64991 4.54606 0
M  V30 118 O 9.3168 -2.30929 5.2025 0
M  V30 119 N 10.5188 -3.95161 4.25238 0
M  V30 120 H 13.2838 -0.0801694 2.99593 0
M  V30 121 H 10.8448 0.102329 1.61576 0
M  V30 122 H 12.8368 -2.60948 3.09335 0
M  V30 123 H 11.4068 -2.34799 2.06369 0
M  V30 124 H 10.6268 -0.658185 3.88666 0
M  V30 125 H 11.9148 -1.30681 4.91732 0
M  V30 126 H 11.3128 -4.25653 3.72607 0
M  V30 127 H 9.8698 -4.6427 4.5749 0
M  V30 128 N 13.3029 -1.57598 0.00835791 0
M  V30 129 C 14.2349 -2.05811 -1.00868 0
M  V30 130 C 15.2479 -0.977579 -1.30182 0
M  V30 131 O 16.4369 -1.25421 -1.27011 0
M  V30 132 C 13.5369 -2.45016 -2.34137 0
M  V30 133 C 12.7099 -3.75903 -2.23643 0
M  V30 134 C 11.7689 -4.01884 -3.3967 0
M  V30 135 O 10.7949 -4.72433 -3.17483 0
M  V30 136 N 11.9969 -3.50432 -4.62793 0
M  V30 137 H 14.7619 -2.93684 -0.597458 0
M  V30 138 H 12.3229 -1.60909 -0.178852 0
M  V30 139 H 14.3149 -2.59506 -3.10546 0
M  V30 140 H 12.8849 -1.62618 -2.66972 0
M  V30 141 H 12.1049 -3.7141 -1.32091 0
M  V30 142 H 13.3929 -4.61695 -2.13812 0
M  V30 143 H 12.7909 -2.93317 -4.83716 0
M  V30 144 H 11.3479 -3.70236 -5.3644 0
M  V30 145 N 14.781 0.264519 -1.55364 0
M  V30 146 C 15.711 1.33121 -1.91836 0
M  V30 147 C 16.692 1.51101 -0.781192 0
M  V30 148 O 17.877 1.64003 -1.04003 0
M  V30 149 C 15.007 2.68921 -2.19769 0
M  V30 150 C 13.961 2.65661 -3.35571 0
M  V30 151 C 13.287 4.05093 -3.49004 0
M  V30 152 C 14.587 2.24187 -4.71739 0
M  V30 153 H 16.281 1.02844 -2.81182 0
M  V30 154 H 13.827 0.493286 -1.35287 0
M  V30 155 H 15.78 3.43663 -2.43872 0
M  V30 156 H 14.504 3.00799 -1.27231 0
M  V30 157 H 13.163 1.93377 -3.1145 0
M  V30 158 H 12.811 4.34206 -2.53917 0
M  V30 159 H 12.511 4.03804 -4.26868 0
M  V30 160 H 14.035 4.81561 -3.75408 0
M  V30 161 H 15.449 2.88654 -4.9533 0
M  V30 162 H 13.846 2.34044 -5.52579 0
M  V30 163 H 14.916 1.19327 -4.69988 0
M  V30 164 N 16.2591 1.48442 0.529413 0
M  V30 165 C 17.1891 1.65902 1.64313 0
M  V30 166 C 18.1701 0.507897 1.6234 0
M  V30 167 O 19.3551 0.740503 1.79528 0
M  V30 168 C 16.4851 1.69911 3.02898 0
M  V30 169 C 15.4391 2.8453 3.19729 0
M  V30 170 C 14.7651 2.73629 4.59381 0
M  V30 171 C 16.0651 4.25821 3.02447 0
M  V30 172 H 17.7591 2.5914 1.49955 0
M  V30 173 H 15.3051 1.24709 0.719982 0
M  V30 174 H 17.2581 1.80715 3.80684 0
M  V30 175 H 15.9821 0.732524 3.18279 0
M  V30 176 H 14.6411 2.73283 2.44361 0
M  V30 177 H 14.2891 1.74938 4.71599 0
M  V30 178 H 13.9891 3.50541 4.71588 0
M  V30 179 H 15.5131 2.86401 5.39265 0
M  V30 180 H 16.9271 4.37898 3.70024 0
M  V30 181 H 15.3241 5.03735 3.26146 0
M  V30 182 H 16.3941 4.42244 1.98867 0
M  V30 183 N 17.7372 -0.778329 1.37039 0
M  V30 184 C 18.6692 -1.90034 1.2814 0
M  V30 185 C 19.6822 -1.61585 0.198558 0
M  V30 186 O 20.8712 -1.72625 0.454175 0
M  V30 187 C 17.9712 -3.25108 0.956968 0
M  V30 188 C 17.1442 -3.81253 2.14394 0
M  V30 189 C 16.2032 -4.94789 1.79082 0
M  V30 190 O 15.2292 -5.10721 2.51301 0
M  V30 191 N 16.4312 -5.75878 0.731043 0
M  V30 192 H 19.1962 -1.98186 2.24816 0
M  V30 193 H 16.7572 -0.957129 1.30578 0
M  V30 194 H 18.7492 -3.9857 0.701701 0
M  V30 195 H 17.3192 -3.125 0.0789812 0
M  V30 196 H 16.5392 -2.99647 2.56135 0
M  V30 197 H 17.8272 -4.15495 2.93668 0
M  V30 198 H 17.2252 -5.65547 0.131618 0
M  V30 199 H 15.7822 -6.49596 0.535622 0
M  V30 200 N 19.2153 -1.21501 -1.00376 0
M  V30 201 C 20.1783 -0.976927 -2.07337 0
M  V30 202 C 21.1783 0.0525322 -1.60714 0
M  V30 203 O 22.3683 -0.184869 -1.73216 0
M  V30 204 C 19.5003 -0.473423 -3.37597 0
M  V30 205 H 20.6933 -1.92587 -2.29892 0
M  V30 206 H 18.2463 -1.03217 -1.17371 0
M  V30 207 H 18.9813 0.480379 -3.20722 0
M  V30 208 H 18.7663 -1.216 -3.72768 0
M  V30 209 H 20.2563 -0.32675 -4.1632 0
M  V30 210 N 20.6934 1.19889 -1.02296 0
M  V30 211 C 21.6034 2.26571 -0.608508 0
M  V30 212 C 22.6194 1.70299 0.356964 0
M  V30 213 O 23.7954 2.00235 0.216326 0
M  V30 214 C 20.8604 3.46677 0.0402814 0
M  V30 215 C 19.9214 4.18153 -0.97194 0
M  V30 216 C 19.1544 5.32525 -0.354016 0
M  V30 217 O 19.3774 5.64112 0.844604 0
M  V30 218 O 18.3114 5.92242 -1.07391 0
M  V30 219 H 22.1374 2.64251 -1.49684 0
M  V30 220 H 19.7224 1.26629 -0.792809 0
M  V30 221 H 21.6044 4.19475 0.402324 0
M  V30 222 H 20.2794 3.10858 0.902707 0
M  V30 223 H 19.1864 3.47499 -1.38546 0
M  V30 224 H 20.5194 4.57927 -1.80454 0
M  V30 225 N 22.1715 0.800033 1.35784 0
M  V30 226 C 23.1185 0.203848 2.29898 0
M  V30 227 C 24.0885 -0.658375 1.52495 0
M  V30 228 O 25.2735 -0.604832 1.8096 0
M  V30 229 C 22.4135 -0.64688 3.38983 0
M  V30 230 C 21.5265 0.235054 4.3136 0
M  V30 231 C 20.6615 -0.623054 5.27533 0
M  V30 232 C 19.7005 0.259682 6.11549 0
M  V30 233 N 18.8375 -0.558019 6.99879 0
M  V30 234 H 23.6775 1.01186 2.80295 0
M  V30 235 H 21.2145 0.51053 1.37957 0
M  V30 236 H 23.1725 -1.15521 4.00887 0
M  V30 237 H 21.8025 -1.42021 2.89879 0
M  V30 238 H 20.8545 0.861438 3.70518 0
M  V30 239 H 22.1665 0.914768 4.9034 0
M  V30 240 H 21.3205 -1.19678 5.94779 0
M  V30 241 H 20.0595 -1.33636 4.69034 0
M  V30 242 H 19.0645 0.845726 5.43256 0
M  V30 243 H 20.2895 0.970748 6.72126 0
M  V30 244 H 18.2355 -1.25542 6.43875 0
M  V30 245 H 18.1525 0.0637872 7.55973 0
M  V30 246 H 19.4205 -1.11523 7.71481 0
M  V30 247 N 23.6496 -1.47581 0.552962 0
M  V30 248 C 25.0656 -1.5818 0.212424 0
M  V30 249 C 25.2656 -1.55213 -1.28496 0
M  V30 250 O 24.3216 -1.45329 -2.06484 0
M  V30 251 C 25.6346 -2.88865 0.835318 0
M  V30 252 C 27.1826 -3.0244 0.806156 0
M  V30 253 C 27.6576 -4.35819 1.40804 0
M  V30 254 N 29.1486 -4.42444 1.37103 0
M  V30 255 C 29.8836 -5.44202 1.80641 0
M  V30 256 N 29.3796 -6.52795 2.32015 0
M  V30 257 N 31.1726 -5.35222 1.71738 0
M  V30 258 H 23.3236 -1.47753 1.52587 0
M  V30 259 H 25.5866 -0.702941 0.636064 0
M  V30 260 H 25.2926 -2.9676 1.88749 0
M  V30 261 H 25.1666 -3.7579 0.325848 0
M  V30 262 H 27.5536 -2.94144 -0.237317 0
M  V30 263 H 27.6346 -2.17068 1.35334 0
M  V30 264 H 27.2786 -4.44871 2.45056 0
M  V30 265 H 27.2086 -5.19916 0.836338 0
M  V30 266 H 29.6996 -3.6456 0.995202 0
M  V30 267 H 30.0126 -7.26609 2.63171 0
M  V30 268 H 28.3576 -6.53696 2.36023 0
M  V30 269 H 31.5486 -4.49284 1.31382 0
M  V30 270 H 31.7216 -6.14389 2.05987 0
M  V30 271 N 25.1277 -0.289203 -1.54924 0
M  V30 272 C 26.0907 0.579144 -2.21762 0
M  V30 273 C 27.0907 1.07047 -1.1999 0
M  V30 274 O 28.2807 0.968384 -1.44803 0
M  V30 275 C 25.4127 1.80055 -2.8947 0
M  V30 276 H 26.6057 -0.00464908 -2.999 0
M  V30 277 H 24.1587 -0.0399306 -1.56249 0
M  V30 278 H 24.8937 2.42449 -2.15381 0
M  V30 279 H 24.6787 1.45602 -3.64064 0
M  V30 280 H 26.1687 2.41773 -3.40493 0
M  V30 281 N 26.6058 1.57591 -0.0167156 0
M  V30 282 C 27.5688 2.08393 0.954204 0
M  V30 283 C 28.5688 0.996531 1.26198 0
M  V30 284 O 29.7588 1.25858 1.20438 0
M  V30 285 C 26.8908 2.5394 2.27436 0
M  V30 286 H 28.0838 2.95455 0.514451 0
M  V30 287 H 25.6368 1.54582 0.231089 0
M  V30 288 H 26.3718 1.70171 2.76066 0
M  V30 289 H 26.1568 3.33371 2.06412 0
M  V30 290 H 27.6468 2.93512 2.97053 0
M  V30 291 N 28.0839 -0.256276 1.55502 0
M  V30 292 C 28.9939 -1.33882 1.92647 0
M  V30 293 C 30.0099 -1.53159 0.825727 0
M  V30 294 O 31.1859 -1.66963 1.12629 0
M  V30 295 C 28.2509 -2.6751 2.20543 0
M  V30 296 C 27.3119 -2.56836 3.43997 0
M  V30 297 C 26.5449 -3.84092 3.70553 0
M  V30 298 O 26.7679 -4.85545 2.99336 0
M  V30 299 O 25.7019 -3.83288 4.64084 0
M  V30 300 H 29.5279 -1.05374 2.84833 0
M  V30 301 H 27.1129 -0.456237 1.42263 0
M  V30 302 H 28.9949 -3.46492 2.39835 0
M  V30 303 H 27.6699 -2.9577 1.31536 0
M  V30 304 H 26.5769 -1.76172 3.30021 0
M  V30 305 H 27.9099 -2.33523 4.33275 0
M  V30 306 N 29.562 -1.4872 -0.521534 0
M  V30 307 C 30.509 -1.63871 -1.62527 0
M  V30 308 C 31.479 -0.480559 -1.58996 0
M  V30 309 O 32.664 -0.705085 -1.77294 0
M  V30 310 C 29.804 -1.69227 -3.00759 0
M  V30 311 C 28.917 -2.96207 -3.14461 0
M  V30 312 C 28.052 -2.92671 -4.43303 0
M  V30 313 C 27.091 -4.14318 -4.50563 0
M  V30 314 N 26.228 -4.0881 -5.70805 0
M  V30 315 H 31.068 -2.58123 -1.48918 0
M  V30 316 H 28.605 -1.28 -0.724878 0
M  V30 317 H 30.563 -1.70314 -3.80853 0
M  V30 318 H 29.193 -0.784586 -3.1312 0
M  V30 319 H 28.245 -3.04826 -2.27564 0
M  V30 320 H 29.557 -3.86192 -3.15686 0
M  V30 321 H 28.711 -2.92206 -5.31696 0
M  V30 322 H 27.45 -2.00429 -4.44612 0
M  V30 323 H 26.455 -4.15049 -3.60575 0
M  V30 324 H 27.68 -5.07729 -4.50986 0
M  V30 325 H 25.626 -3.19394 -5.72995 0
M  V30 326 H 25.543 -4.92509 -5.7356 0
M  V30 327 H 26.811 -4.12418 -6.61462 0
M  V30 328 N 31.0401 0.771051 -1.3745 0
M  V30 329 C 32.2861 1.5319 -1.32894 0
M  V30 330 C 32.6191 1.94008 0.0862511 0
M  V30 331 O 31.8941 1.64124 1.04373 0
M  V30 332 C 32.1771 2.79648 -2.26868 0
M  V30 333 C 32.0301 2.45079 -3.77169 0
M  V30 334 C 33.3491 3.81583 -2.19277 0
M  V30 335 H 30.4681 0.555744 -0.484064 0
M  V30 336 H 33.1101 0.884492 -1.68157 0
M  V30 337 H 31.2601 3.34891 -1.96926 0
M  V30 338 H 32.9321 1.95745 -4.1771 0
M  V30 339 H 31.1751 1.77767 -3.95704 0
M  V30 340 H 31.8461 3.35478 -4.38359 0
M  V30 341 H 34.3221 3.35835 -2.45671 0
M  V30 342 H 33.1981 4.67787 -2.87171 0
M  V30 343 H 33.4591 4.25897 -1.18592 0
M  V30 344 N 32.5182 1.22032 0.997298 0
M  V30 345 C 33.4812 0.987909 2.06816 0
M  V30 346 C 34.4812 -0.0440084 1.6074 0
M  V30 347 O 35.6712 0.194053 1.73116 0
M  V30 348 C 32.8032 0.49132 3.37341 0
M  V30 349 H 33.9962 1.93803 2.28868 0
M  V30 350 H 31.5492 1.03838 1.16822 0
M  V30 351 H 32.2842 -0.463364 3.20973 0
M  V30 352 H 32.0692 1.23575 3.72118 0
M  V30 353 H 33.5592 0.348824 4.16141 0
M  V30 354 N 33.9963 -1.19345 1.0293 0
M  V30 355 C 35.2733 -1.84811 0.640642 0
M  V30 356 C 35.6533 -1.91855 -0.88062 0
M  V30 357 O 35.0013 -1.43587 -1.7775 0
M  V30 358 C 35.2113 -3.23755 1.30321 0
M  V30 359 C 36.5593 -3.99912 1.42673 0
M  V30 360 O 37.5833 -3.33155 1.26041 0
M  V30 361 O 36.4423 -5.19494 1.6967 0
M  V30 362 H 33.5363 -0.796443 0.222726 0
M  V30 363 H 36.0823 -1.26831 1.12748 0
M  V30 364 H 34.8543 -3.13466 2.34211 0
M  V30 365 H 34.4773 -3.89381 0.804261 0
M  V30 366 N 35.4744 -0.807222 -1.35358 0
M  V30 367 C 36.4374 -0.223665 -2.28106 0
M  V30 368 C 37.4374 0.589354 -1.4961 0
M  V30 369 O 38.6274 0.407745 -1.69361 0
M  V30 370 C 35.7594 0.688149 -3.33882 0
M  V30 371 H 36.9524 -1.04169 -2.81227 0
M  V30 372 H 34.5054 -0.577921 -1.45223 0
M  V30 373 H 35.2404 1.52984 -2.85948 0
M  V30 374 H 35.0254 0.10687 -3.91954 0
M  V30 375 H 36.5154 1.09075 -4.03104 0
M  V30 376 N 36.9525 1.47285 -0.560781 0
M  V30 377 C 38.3685 1.58065 -0.22081 0
M  V30 378 C 38.5685 1.55892 1.27671 0
M  V30 379 O 37.6245 1.46422 2.0571 0
M  V30 380 C 38.9375 2.88418 -0.850625 0
M  V30 381 C 40.4855 3.02009 -0.822184 0
M  V30 382 C 40.9605 4.35066 -1.43113 0
M  V30 383 N 42.4515 4.41711 -1.39448 0
M  V30 384 C 43.1865 5.43237 -1.83525 0
M  V30 385 N 42.6825 6.51555 -2.35474 0
M  V30 386 N 44.4755 5.34304 -1.74574 0
M  V30 387 H 36.6265 1.46941 -1.53369 0
M  V30 388 H 38.8895 0.699558 -0.639783 0
M  V30 389 H 38.5955 2.95755 -1.9032 0
M  V30 390 H 38.4695 3.75612 -0.345773 0
M  V30 391 H 40.8565 2.94266 0.221714 0
M  V30 392 H 40.9375 2.16347 -1.36483 0
M  V30 393 H 40.5815 4.43565 -2.47412 0
M  V30 394 H 40.5115 5.19465 -0.863899 0
M  V30 395 H 43.0025 3.64027 -1.01452 0
M  V30 396 H 43.3155 7.25203 -2.67021 0
M  V30 397 H 41.6605 6.52435 -2.39487 0
M  V30 398 H 44.8515 4.48581 -1.33763 0
M  V30 399 H 45.0245 6.13288 -2.09242 0
M  V30 400 N 38.4306 0.297415 1.54768 0
M  V30 401 C 39.3776 -0.580276 2.23386 0
M  V30 402 C 40.3476 -1.13238 1.21517 0
M  V30 403 O 41.5326 -1.17757 1.50126 0
M  V30 404 C 38.6726 -1.74801 2.97555 0
M  V30 405 C 37.7856 -1.22764 4.1419 0
M  V30 406 C 36.9206 -2.35895 4.75949 0
M  V30 407 C 35.9596 -1.80974 5.84735 0
M  V30 408 N 35.0966 -2.87664 6.40464 0
M  V30 409 H 39.9366 0.0114833 2.97998 0
M  V30 410 H 37.4736 0.0174361 1.4709 0
M  V30 411 H 39.4316 -2.43475 3.38786 0
M  V30 412 H 38.0616 -2.31145 2.25326 0
M  V30 413 H 37.1136 -0.433271 3.77924 0
M  V30 414 H 38.4256 -0.785551 4.92575 0
M  V30 415 H 37.5796 -3.12523 5.20014 0
M  V30 416 H 36.3186 -2.83429 3.96887 0
M  V30 417 H 35.3236 -1.02834 5.40097 0
M  V30 418 H 36.5486 -1.34348 6.65678 0
M  V30 419 H 34.4946 -3.34538 5.64287 0
M  V30 420 H 34.4116 -2.4794 7.14186 0
M  V30 421 H 35.6796 -3.642 6.89187 0
M  V30 422 N 39.9087 -1.5758 0.0250728 0
M  V30 423 C 41.3247 -1.56124 -0.331282 0
M  V30 424 C 41.5247 -1.03029 -1.73169 0
M  V30 425 O 40.5807 -0.675215 -2.43305 0
M  V30 426 C 41.8937 -3.00139 -0.183584 0
M  V30 427 C 43.4417 -3.11946 -0.256654 0
M  V30 428 C 43.9167 -4.57793 -0.137792 0
M  V30 429 N 45.4077 -4.6279 -0.194904 0
M  V30 430 C 46.1427 -5.7326 -0.126655 0
M  V30 431 N 45.6387 -6.928 -0.00755288 0
M  V30 432 N 47.4317 -5.61811 -0.180348 0
M  V30 433 H 39.5827 -1.90424 0.94087 0
M  V30 434 H 41.8457 -0.875761 0.362968 0
M  V30 435 H 41.5517 -3.4292 0.780927 0
M  V30 436 H 41.4257 -3.64899 -0.955448 0
M  V30 437 H 43.8127 -2.69079 -1.21162 0
M  V30 438 H 43.8937 -2.49915 0.545517 0
M  V30 439 H 43.5377 -5.01339 0.813739 0
M  V30 440 H 43.4677 -5.17798 -0.958775 0
M  V30 441 H 45.9587 -3.76807 -0.287267 0
M  V30 442 H 46.2717 -7.72791 0.0379428 0
M  V30 443 H 44.6167 -6.94995 0.0271731 0
M  V30 444 H 47.8077 -4.6731 -0.271767 0
M  V30 445 H 47.9807 -6.47882 -0.123697 0
M  V30 446 N 41.3868 0.248026 -1.55636 0
M  V30 447 C 42.3338 1.30707 -1.90222 0
M  V30 448 C 43.3038 1.47881 -0.756332 0
M  V30 449 O 44.4888 1.61883 -1.00988 0
M  V30 450 C 41.6288 2.65769 -2.20138 0
M  V30 451 C 40.7418 2.56612 -3.47526 0
M  V30 452 C 39.8768 3.8402 -3.67017 0
M  V30 453 C 38.9158 3.69476 -4.8801 0
M  V30 454 N 38.0528 4.88774 -5.04029 0
M  V30 455 H 42.8928 1.00512 -2.80538 0
M  V30 456 H 40.4298 0.485055 -1.38873 0
M  V30 457 H 42.3878 3.44386 -2.35487 0
M  V30 458 H 41.0178 2.94115 -1.33027 0
M  V30 459 H 40.0698 1.69571 -3.40514 0
M  V30 460 H 41.3818 2.41774 -4.36287 0
M  V30 461 H 40.5358 4.7108 -3.8232 0
M  V30 462 H 39.2748 4.01754 -2.76487 0
M  V30 463 H 38.2798 2.80799 -4.72686 0
M  V30 464 H 39.5048 3.53238 -5.8 0
M  V30 465 H 37.4508 5.0687 -4.16435 0
M  V30 466 H 37.3678 4.76562 -5.86877 0
M  V30 467 H 38.6358 5.77335 -5.23741 0
M  V30 468 N 42.8649 1.48995 0.513639 0
M  V30 469 C 43.8279 1.64229 1.59879 0
M  V30 470 C 44.8279 0.514696 1.5234 0
M  V30 471 O 46.0179 0.78087 1.55718 0
M  V30 472 C 43.1499 1.62783 2.99524 0
M  V30 473 H 44.3429 2.61004 1.47705 0
M  V30 474 H 41.8959 1.37837 0.736936 0
M  V30 475 H 42.6309 0.675461 3.17188 0
M  V30 476 H 42.4159 2.4466 3.06404 0
M  V30 477 H 43.9059 1.76669 3.78388 0
M  V30 478 N 44.343 -0.763751 1.37857 0
M  V30 479 C 45.759 -1.06542 1.18832 0
M  V30 480 C 45.959 -2.01478 0.0299722 0
M  V30 481 O 45.015 -2.4458 -0.627447 0
M  V30 482 C 46.328 -1.65525 2.51042 0
M  V30 483 C 47.876 -1.77745 2.57635 0
M  V30 484 C 48.351 -2.4014 3.89996 0
M  V30 485 N 49.842 -2.47582 3.91481 0
M  V30 486 C 50.577 -2.96732 4.9065 0
M  V30 487 N 50.073 -3.45993 6.00217 0
M  V30 488 N 51.866 -2.95679 4.78048 0
M  V30 489 H 44.017 -0.133556 2.1198 0
M  V30 490 H 46.28 -0.121879 0.940133 0
M  V30 491 H 45.986 -1.03236 3.36207 0
M  V30 492 H 45.86 -2.64719 2.68707 0
M  V30 493 H 48.247 -2.39164 1.72872 0
M  V30 494 H 48.328 -0.772836 2.43846 0
M  V30 495 H 47.972 -1.79358 4.75177 0
M  V30 496 H 47.902 -3.41223 4.01092 0
M  V30 497 H 50.393 -2.1273 3.12337 0
M  V30 498 H 50.706 -3.81922 6.7183 0
M  V30 499 H 49.051 -3.44077 6.03851 0
M  V30 500 H 52.242 -2.56499 3.91568 0
M  V30 501 H 52.415 -3.33672 5.55488 0
M  V30 502 N 45.8211 -1.22559 -0.990812 0
M  V30 503 C 47.2371 -0.985996 -1.255 0
M  V30 504 C 47.4371 0.319173 -1.98956 0
M  V30 505 O 46.4931 1.04127 -2.3003 0
M  V30 506 C 47.8061 -2.18607 -2.06474 0
M  V30 507 C 49.3541 -2.22985 -2.19651 0
M  V30 508 C 49.8291 -3.4255 -3.04012 0
M  V30 509 N 51.3201 -3.42725 -3.11599 0
M  V30 510 C 52.0551 -4.31892 -3.7717 0
M  V30 511 N 51.5511 -5.31279 -4.44651 0
M  V30 512 N 53.3441 -4.19662 -3.73952 0
M  V30 513 H 45.4951 -2.06469 -0.49841 0
M  V30 514 H 47.7581 -0.904853 -0.282747 0
M  V30 515 H 47.4641 -3.13267 -1.59865 0
M  V30 516 H 47.3381 -2.18838 -3.07229 0
M  V30 517 H 49.7251 -1.28871 -2.65474 0
M  V30 518 H 49.8061 -2.26791 -1.18319 0
M  V30 519 H 49.4501 -4.36965 -2.58889 0
M  V30 520 H 49.3801 -3.35984 -4.0549 0
M  V30 521 H 51.8711 -2.70807 -2.63575 0
M  V30 522 H 52.1841 -5.95593 -4.92431 0
M  V30 523 H 50.5291 -5.3519 -4.43392 0
M  V30 524 H 53.7201 -3.41268 -3.20396 0
M  V30 525 H 53.8931 -4.89358 -4.24774 0
M  V30 526 N 47.2992 1.18797 -1.03562 0
M  V30 527 C 48.2292 2.24472 -0.643019 0
M  V30 528 C 49.2102 1.66433 0.351283 0
M  V30 529 O 50.3952 1.92803 0.232505 0
M  V30 530 C 47.5252 3.473 4.24935e-05 0
M  V30 531 C 46.4792 4.18055 -0.917257 0
M  V30 532 C 45.8052 5.34519 -0.138941 0
M  V30 533 C 47.1052 4.72109 -2.23407 0
M  V30 534 H 48.7992 2.57566 -1.52643 0
M  V30 535 H 46.3452 1.23806 -0.735394 0
M  V30 536 H 48.2982 4.20426 0.286383 0
M  V30 537 H 47.0222 3.13424 0.918299 0
M  V30 538 H 45.6812 3.46821 -1.1879 0
M  V30 539 H 45.3292 4.96891 0.781562 0
M  V30 540 H 45.0292 5.82794 -0.750005 0
M  V30 541 H 46.5532 6.10438 0.1405 0
M  V30 542 H 47.9672 5.36955 -2.00879 0
M  V30 543 H 46.3642 5.30897 -2.79765 0
M  V30 544 H 47.4342 3.89807 -2.88407 0
M  V30 545 N 48.7773 0.814389 1.34928 0
M  V30 546 C 49.7243 0.22822 2.29669 0
M  V30 547 C 50.6943 -0.642164 1.53184 0
M  V30 548 O 51.8793 -0.585605 1.81591 0
M  V30 549 C 49.0193 -0.61089 3.3965 0
M  V30 550 C 48.1323 0.280792 4.31086 0
M  V30 551 C 47.2673 -0.567067 5.28165 0
M  V30 552 C 46.3063 0.324531 6.11239 0
M  V30 553 N 45.4433 -0.483756 7.00431 0
M  V30 554 H 50.2833 1.04153 2.79206 0
M  V30 555 H 47.8203 0.525133 1.37407 0
M  V30 556 H 49.7783 -1.11263 4.0209 0
M  V30 557 H 48.4083 -1.38939 2.91369 0
M  V30 558 H 47.4603 0.900688 3.69583 0
M  V30 559 H 48.7723 0.966723 4.89342 0
M  V30 560 H 47.9263 -1.13363 5.96015 0
M  V30 561 H 46.6653 -1.28654 4.70425 0
M  V30 562 H 45.6703 0.903298 5.42329 0
M  V30 563 H 46.8953 1.04198 6.71059 0
M  V30 564 H 44.8413 -1.18706 6.45171 0
M  V30 565 H 44.7583 0.143965 7.55863 0
M  V30 566 H 46.0263 -1.03334 7.7262 0
M  V30 567 N 50.2554 -1.46986 0.568584 0
M  V30 568 C 51.1874 -2.28233 -0.210337 0
M  V30 569 C 52.2004 -1.37682 -0.868767 0
M  V30 570 O 53.3894 -1.62406 -0.740705 0
M  V30 571 C 50.4894 -3.12293 -1.3163 0
M  V30 572 C 49.6624 -4.30878 -0.7525 0
M  V30 573 C 48.7214 -4.96445 -1.74439 0
M  V30 574 O 47.7474 -5.54482 -1.286 0
M  V30 575 N 48.9494 -4.92171 -3.07812 0
M  V30 576 H 51.7144 -2.95723 0.486648 0
M  V30 577 H 49.2754 -1.56742 0.405409 0
M  V30 578 H 51.2674 -3.53022 -1.97883 0
M  V30 579 H 49.8374 -2.46971 -1.91636 0
M  V30 580 H 49.0574 -3.94104 0.0871128 0
M  V30 581 H 50.3454 -5.07558 -0.35536 0
M  V30 582 H 49.7434 -4.46239 -3.47688 0
M  V30 583 H 48.3004 -5.36884 -3.69592 0
M  V30 584 N 51.7335 -0.305618 -1.54608 0
M  V30 585 C 52.6965 0.555591 -2.22364 0
M  V30 586 C 53.6965 1.05768 -1.21119 0
M  V30 587 O 54.8865 0.952972 -1.45822 0
M  V30 588 C 52.0185 1.76974 -2.91364 0
M  V30 589 H 53.2115 -0.0364572 -2.99878 0
M  V30 590 H 50.7645 -0.0565007 -1.56198 0
M  V30 591 H 51.4995 2.40151 -2.17941 0
M  V30 592 H 51.2845 1.41732 -3.65588 0
M  V30 593 H 52.7745 2.38148 -3.43038 0
M  V30 594 N 53.2116 1.57565 -0.0334293 0
M  V30 595 C 54.1586 2.10478 0.946981 0
M  V30 596 C 55.1286 1.00787 1.32027 0
M  V30 597 O 56.3136 1.28232 1.41284 0
M  V30 598 C 53.4536 2.63994 2.22263 0
M  V30 599 C 52.5666 3.87709 1.90541 0
M  V30 600 C 51.7016 4.29604 3.12433 0
M  V30 601 C 50.7406 5.46065 2.76549 0
M  V30 602 N 49.8776 5.83096 3.9108 0
M  V30 603 H 54.7176 2.93963 0.488846 0
M  V30 604 H 52.2546 1.45296 0.22969 0
M  V30 605 H 54.2126 2.93114 2.96884 0
M  V30 606 H 52.8426 1.83333 2.65685 0
M  V30 607 H 51.8946 3.65291 1.06144 0
M  V30 608 H 53.2066 4.72403 1.60116 0
M  V30 609 H 52.3606 4.60182 3.9537 0
M  V30 610 H 51.0996 3.43685 3.46023 0
M  V30 611 H 50.1046 5.15176 1.92026 0
M  V30 612 H 51.3296 6.33685 2.44171 0
M  V30 613 H 49.2756 5.00132 4.24504 0
M  V30 614 H 49.1926 6.6244 3.64293 0
M  V30 615 H 50.4606 6.18282 4.74708 0
M  V30 616 N 54.6897 -0.239769 1.55765 0
M  V30 617 C 55.5997 -1.31831 1.94056 0
M  V30 618 C 56.6157 -1.52275 0.841925 0
M  V30 619 O 57.7917 -1.65759 1.14394 0
M  V30 620 C 54.8567 -2.65156 2.23368 0
M  V30 621 C 53.9177 -2.53173 3.46701 0
M  V30 622 C 53.1507 -3.8014 3.74606 0
M  V30 623 O 53.3737 -4.82343 3.04469 0
M  V30 624 O 52.3077 -3.78344 4.68123 0
M  V30 625 H 56.1337 -1.02347 2.85935 0
M  V30 626 H 53.7187 -0.441123 1.42739 0
M  V30 627 H 55.6007 -3.43929 2.43497 0
M  V30 628 H 54.2757 -2.94358 1.34666 0
M  V30 629 H 53.1827 -1.72662 3.31871 0
M  V30 630 H 54.5157 -2.28915 4.35728 0
M  V30 631 N 56.1678 -1.49265 -0.50573 0
M  V30 632 C 57.0778 -1.68312 -1.63427 0
M  V30 633 C 58.0938 -0.565682 -1.64548 0
M  V30 634 O 59.2698 -0.839801 -1.83055 0
M  V30 635 C 56.3348 -1.74107 -2.99813 0
M  V30 636 C 55.3958 -2.97653 -3.09356 0
M  V30 637 C 54.6288 -3.03163 -4.39236 0
M  V30 638 O 54.8518 -2.16396 -5.27758 0
M  V30 639 O 53.7858 -3.9558 -4.53652 0
M  V30 640 H 57.6118 -2.63907 -1.50289 0
M  V30 641 H 55.1968 -1.32951 -0.681502 0
M  V30 642 H 57.0788 -1.803 -3.80881 0
M  V30 643 H 55.7538 -0.816901 -3.13223 0
M  V30 644 H 54.6608 -2.96981 -2.27493 0
M  V30 645 H 55.9938 -3.89535 -3.00871 0
M  V30 646 N 57.6459 0.756429 -1.3826 0
M  V30 647 C 58.6089 1.85176 -1.35065 0
M  V30 648 C 59.6089 1.58818 -0.251703 0
M  V30 649 O 60.7989 1.66615 -0.508433 0
M  V30 650 C 57.9309 3.22596 -1.10201 0
M  V30 651 H 59.1239 1.89417 -2.3251 0
M  V30 652 H 56.6769 0.95783 -1.23512 0
M  V30 653 H 57.4119 3.24025 -0.133504 0
M  V30 654 H 57.1969 3.43122 -1.89762 0
M  V30 655 H 58.6869 4.02673 -1.10654 0
M  V30 656 N 59.124 1.23083 0.984299 0
M  V30 657 C 60.056 0.96636 2.07832 0
M  V30 658 C 61.069 -0.0582135 1.62696 0
M  V30 659 O 62.258 0.176843 1.77622 0
M  V30 660 C 59.358 0.433397 3.36117 0
M  V30 661 C 58.531 1.51722 4.10243 0
M  V30 662 C 57.59 0.989821 5.16807 0
M  V30 663 O 56.616 1.67794 5.43906 0
M  V30 664 N 57.818 -0.184367 5.80207 0
M  V30 665 H 60.583 1.90824 2.31098 0
M  V30 666 H 58.144 1.13888 1.1507 0
M  V30 667 H 60.136 0.065699 4.04647 0
M  V30 668 H 58.706 -0.413806 3.09849 0
M  V30 669 H 57.926 2.05786 3.36223 0
M  V30 670 H 59.214 2.24619 4.56534 0
M  V30 671 H 58.612 -0.760062 5.60571 0
M  V30 672 H 57.169 -0.493366 6.4993 0
M  V30 673 N 60.6021 -1.18246 1.0419 0
M  V30 674 C 61.5351 -2.20746 0.578474 0
M  V30 675 C 62.5131 -1.57912 -0.387624 0
M  V30 676 O 63.6971 -1.86071 -0.301634 0
M  V30 677 C 60.8241 -3.38346 -0.154762 0
M  V30 678 C 59.8701 -4.19587 0.764782 0
M  V30 679 S 60.7031 -4.86014 2.24835 0
M  V30 680 C 61.8591 -6.07012 1.526 0
M  V30 681 H 62.0921 -2.59715 1.44691 0
M  V30 682 H 59.6251 -1.287 0.85297 0
M  V30 683 H 61.5831 -4.065 -0.571641 0
M  V30 684 H 60.2441 -2.97786 -0.999105 0
M  V30 685 H 59.4371 -5.03611 0.197976 0
M  V30 686 H 59.0391 -3.56818 1.12057 0
M  V30 687 H 61.3311 -6.72523 0.819733 0
M  V30 688 H 62.2741 -6.68202 2.34333 0
M  V30 689 H 62.6821 -5.55249 1.01779 0
M  V30 690 N 62.0802 -0.821533 -1.34494 0
M  V30 691 C 62.9902 -0.244355 -2.33324 0
M  V30 692 C 64.0062 0.620527 -1.62559 0
M  V30 693 O 65.1822 0.528754 -1.94335 0
M  V30 694 C 62.2472 0.585368 -3.41723 0
M  V30 695 C 61.3082 -0.301752 -4.28238 0
M  V30 696 C 60.5412 0.488466 -5.3146 0
M  V30 697 O 60.7642 1.72186 -5.4379 0
M  V30 698 O 59.6982 -0.12848 -6.01763 0
M  V30 699 H 63.5242 -1.06231 -2.84515 0
M  V30 700 H 61.1092 -0.583645 -1.37528 0
M  V30 701 H 62.9912 1.05747 -4.07916 0
M  V30 702 H 61.6662 1.38068 -2.92778 0
M  V30 703 H 60.5732 -0.821315 -3.64973 0
M  V30 704 H 61.9062 -1.06138 -4.8062 0
M  V30 705 N 63.5583 1.46682 -0.576371 0
M  V30 706 C 64.8043 2.02712 -0.0596221 0
M  V30 707 C 65.1373 1.44765 1.29448 0
M  V30 708 O 64.4123 0.610355 1.84675 0
M  V30 709 C 64.6953 3.60098 0.0129503 0
M  V30 710 C 64.5483 4.28441 -1.3696 0
M  V30 711 C 65.8673 4.34224 0.71678 0
M  V30 712 H 62.9863 0.736637 -0.0231407 0
M  V30 713 H 65.6283 1.74898 -0.742351 0
M  V30 714 H 63.7783 3.83926 0.594378 0
M  V30 715 H 65.4503 4.15896 -1.9957 0
M  V30 716 H 63.6933 3.8805 -1.93907 0
M  V30 717 H 64.3643 5.3716 -1.27135 0
M  V30 718 H 66.8403 4.15503 0.222908 0
M  V30 719 H 65.7163 5.43936 0.73657 0
M  V30 720 H 65.9773 4.04823 1.77682 0
M  V30 721 N 65.0364 0.313813 1.54444 0
M  V30 722 C 65.9464 -0.565714 2.27677 0
M  V30 723 C 66.9624 -1.13754 1.31666 0
M  V30 724 O 68.1384 -1.15959 1.64668 0
M  V30 725 C 65.2034 -1.71528 3.01296 0
M  V30 726 C 64.2644 -1.17624 4.12872 0
M  V30 727 C 63.4974 -2.27102 4.8297 0
M  V30 728 O 63.7204 -3.47256 4.52514 0
M  V30 729 O 62.6544 -1.9307 5.70094 0
M  V30 730 H 66.4804 0.0287296 3.03686 0
M  V30 731 H 64.0654 0.0798312 1.49187 0
M  V30 732 H 65.9474 -2.38476 3.4743 0
M  V30 733 H 64.6224 -2.29608 2.2817 0
M  V30 734 H 63.5294 -0.472124 3.71109 0
M  V30 735 H 64.8624 -0.640695 4.88012 0
M  V30 736 N 66.5145 -1.57545 0.0417849 0
M  V30 737 C 67.4465 -2.07904 -0.964799 0
M  V30 738 C 68.4595 -1.00497 -1.28079 0
M  V30 739 O 69.6485 -1.28087 -1.24322 0
M  V30 740 C 66.7485 -2.49928 -2.28887 0
M  V30 741 C 65.9215 -3.80562 -2.15619 0
M  V30 742 C 64.9805 -4.08999 -3.31069 0
M  V30 743 O 64.0065 -4.79061 -3.0739 0
M  V30 744 N 65.2085 -3.6017 -4.55256 0
M  V30 745 H 67.9735 -2.94886 -0.535029 0
M  V30 746 H 65.5345 -1.61252 -0.144681 0
M  V30 747 H 67.5265 -2.66034 -3.04972 0
M  V30 748 H 66.0965 -1.68245 -2.63463 0
M  V30 749 H 65.3165 -3.74129 -1.24183 0
M  V30 750 H 66.6045 -4.66126 -2.03971 0
M  V30 751 H 66.0025 -3.03512 -4.77386 0
M  V30 752 H 64.5595 -3.81532 -5.28466 0
M  V30 753 N 67.9926 0.231505 -1.5589 0
M  V30 754 C 69.2226 0.973092 -1.82248 0
M  V30 755 C 69.6306 1.78845 -0.617328 0
M  V30 756 O 68.9736 1.78752 0.423499 0
M  V30 757 C 69.0356 1.94732 -3.02192 0
M  V30 758 C 68.6996 1.31743 -4.37599 0
M  V30 759 C 69.6966 0.712238 -5.14998 0
M  V30 760 C 67.3816 1.33218 -4.84312 0
M  V30 761 C 69.3756 0.130195 -6.37267 0
M  V30 762 C 67.0626 0.746286 -6.06526 0
M  V30 763 C 68.0606 0.146337 -6.82843 0
M  V30 764 O 67.7486 -0.430465 -8.02747 0
M  V30 765 H 67.4806 0.29125 -0.61004 0
M  V30 766 H 70.0346 0.254915 -2.03812 0
M  V30 767 H 68.2646 2.70422 -2.76422 0
M  V30 768 H 69.9536 2.55362 -3.15508 0
M  V30 769 H 70.7196 0.69324 -4.8002 0
M  V30 770 H 66.5986 1.78854 -4.24891 0
M  V30 771 H 70.1426 -0.33871 -6.96777 0
M  V30 772 H 66.0396 0.762663 -6.40979 0
M  V30 773 H 66.8076 -0.323818 -8.17859 0
M  V30 774 N 69.4707 1.49531 0.497807 0
M  V30 775 C 70.8867 1.36365 0.829266 0
M  V30 776 C 71.0867 0.399184 1.97506 0
M  V30 777 O 70.1427 -0.167977 2.51941 0
M  V30 778 C 71.4557 2.77153 1.16647 0
M  V30 779 C 73.0037 2.85877 1.27449 0
M  V30 780 C 73.4787 4.2744 1.64497 0
M  V30 781 N 74.9697 4.30265 1.7154 0
M  V30 782 C 75.7047 5.3677 2.01656 0
M  V30 783 N 75.2007 6.53516 2.29976 0
M  V30 784 N 76.9937 5.24189 2.02934 0
M  V30 785 H 69.1447 2.10831 -0.257703 0
M  V30 786 H 71.4077 0.946534 -0.0527091 0
M  V30 787 H 71.1137 3.49442 0.397872 0
M  V30 788 H 70.9877 3.12722 2.10915 0
M  V30 789 H 73.3747 2.13824 2.0338 0
M  V30 790 H 73.4557 2.53887 0.312244 0
M  V30 791 H 73.0997 5.00021 0.891151 0
M  V30 792 H 73.0297 4.56896 2.61827 0
M  V30 793 H 75.5207 3.4607 1.51802 0
M  V30 794 H 75.8337 7.30506 2.52153 0
M  V30 795 H 74.1787 6.56737 2.27425 0
M  V30 796 H 77.3697 4.31988 1.80289 0
M  V30 797 H 77.5427 6.07286 2.26071 0
M  V30 798 N 70.9488 -0.749086 1.3866 0
M  V30 799 C 72.3648 -1.05276 1.19955 0
M  V30 800 C 72.5648 -2.01435 0.05134 0
M  V30 801 O 71.6208 -2.45232 -0.60147 0
M  V30 802 C 72.9338 -1.62853 2.52783 0
M  V30 803 C 74.4818 -1.75002 2.59506 0
M  V30 804 C 74.9568 -2.35991 3.92521 0
M  V30 805 N 76.4478 -2.43416 3.94085 0
M  V30 806 C 77.1828 -2.91511 4.9377 0
M  V30 807 N 76.6788 -3.39608 6.03853 0
M  V30 808 N 78.4718 -2.90592 4.81157 0
M  V30 809 H 70.6228 -0.111066 2.12109 0
M  V30 810 H 72.8858 -0.111901 0.941373 0
M  V30 811 H 72.5918 -0.99664 3.37283 0
M  V30 812 H 72.4658 -2.61854 2.715 0
M  V30 813 H 74.8528 -2.37317 1.75398 0
M  V30 814 H 74.9338 -0.74693 2.44652 0
M  V30 815 H 74.5778 -1.74308 4.77053 0
M  V30 816 H 74.5078 -3.3695 4.04688 0
M  V30 817 H 76.9988 -2.09405 3.14576 0
M  V30 818 H 77.3118 -3.74775 6.75843 0
M  V30 819 H 75.6568 -3.37653 6.07466 0
M  V30 820 H 78.8478 -2.52332 3.94267 0
M  V30 821 H 79.0208 -3.27762 5.58996 0
M  V30 822 N 72.4269 -1.23603 -0.977757 0
M  V30 823 C 73.3369 -1.03632 -2.1047 0
M  V30 824 C 74.3529 0.0199435 -1.73989 0
M  V30 825 O 75.5289 -0.176076 -2.00629 0
M  V30 826 C 72.5939 -0.63276 -3.40877 0
M  V30 827 C 71.6549 -1.76437 -3.91367 0
M  V30 828 C 70.8879 -1.37997 -5.15551 0
M  V30 829 O 71.1109 -0.265357 -5.69782 0
M  V30 830 O 70.0449 -2.20201 -5.60174 0
M  V30 831 H 73.8709 -1.98086 -2.30208 0
M  V30 832 H 71.4559 -1.02332 -1.08851 0
M  V30 833 H 73.3379 -0.418761 -4.19314 0
M  V30 834 H 72.0129 0.282754 -3.22463 0
M  V30 835 H 70.9199 -2.03304 -3.14036 0
M  V30 836 H 72.2529 -2.6583 -4.14241 0
M  V30 837 N 73.905 1.17692 -1.04816 0
M  V30 838 C 75.321 1.39863 -0.768794 0
M  V30 839 C 75.521 1.91118 0.638451 0
M  V30 840 O 74.577 2.10036 1.40146 0
M  V30 841 C 75.89 2.39274 -1.82122 0
M  V30 842 C 77.438 2.52987 -1.843 0
M  V30 843 C 77.913 3.55669 -2.88555 0
M  V30 844 N 79.404 3.63183 -2.87493 0
M  V30 845 C 80.139 4.42381 -3.64811 0
M  V30 846 N 79.635 5.25125 -4.51903 0
M  V30 847 N 81.428 4.37217 -3.53267 0
M  V30 848 H 73.579 0.82752 -1.95617 0
M  V30 849 H 75.842 0.426123 -0.846831 0
M  V30 850 H 75.548 2.08678 -2.83102 0
M  V30 851 H 75.422 3.38725 -1.65967 0
M  V30 852 H 77.809 2.82896 -0.839869 0
M  V30 853 H 77.89 1.53623 -2.04532 0
M  V30 854 H 77.534 3.26499 -3.89051 0
M  V30 855 H 77.464 4.54728 -2.65575 0
M  V30 856 H 79.955 3.04103 -2.24343 0
M  V30 857 H 80.268 5.82728 -5.07591 0
M  V30 858 H 78.613 5.24519 -4.55966 0
M  V30 859 H 81.804 3.71626 -2.84625 0
M  V30 860 H 81.977 4.98696 -4.13771 0
M  V30 861 N 75.3831 0.828654 1.34056 0
M  V30 862 C 76.2931 0.256725 2.33191 0
M  V30 863 C 77.3091 -0.611898 1.62886 0
M  V30 864 O 78.4851 -0.51844 1.94613 0
M  V30 865 C 75.5501 -0.567238 3.42028 0
M  V30 866 C 74.6111 0.324458 4.28072 0
M  V30 867 C 73.8441 -0.460274 5.31712 0
M  V30 868 O 74.0671 -1.693 5.44696 0
M  V30 869 O 73.0011 0.160391 6.01686 0
M  V30 870 H 76.8271 1.07739 2.83947 0
M  V30 871 H 74.4121 0.59093 1.37217 0
M  V30 872 H 76.2941 -1.03582 4.08471 0
M  V30 873 H 74.9691 -1.36513 2.93506 0
M  V30 874 H 73.8761 0.840659 3.64532 0
M  V30 875 H 75.2091 1.08685 4.8005 0
M  V30 876 N 76.8612 -1.46375 0.584142 0
M  V30 877 C 77.8112 -2.27371 -0.169232 0
M  V30 878 C 78.7952 -1.35955 -0.860523 0
M  V30 879 O 79.9872 -1.60119 -0.754382 0
M  V30 880 C 77.1162 -3.22334 -1.18134 0
M  V30 881 C 76.2022 -4.21235 -0.492088 0
M  V30 882 N 76.5932 -5.03766 0.453129 0
M  V30 883 C 74.8912 -4.39773 -0.742652 0
M  V30 884 C 75.5922 -5.75366 0.85609 0
M  V30 885 N 74.5682 -5.43214 0.204926 0
M  V30 886 H 78.3702 -2.88572 0.557097 0
M  V30 887 H 75.8842 -1.57242 0.406042 0
M  V30 888 H 77.8812 -3.79071 -1.73525 0
M  V30 889 H 76.5412 -2.62693 -1.90847 0
M  V30 890 H 77.5522 -5.11227 0.828723 0
M  V30 891 H 74.2292 -3.91279 -1.45625 0
M  V30 892 H 75.6192 -6.5172 1.63434 0
M  V30 893 N 78.3393 -0.321999 -1.54275 0
M  V30 894 C 79.2493 0.553631 -2.27974 0
M  V30 895 C 80.2653 1.13054 -1.32268 0
M  V30 896 O 81.4413 1.15084 -1.6528 0
M  V30 897 C 78.5063 1.69927 -3.02201 0
M  V30 898 C 77.5673 1.15433 -4.1349 0
M  V30 899 C 76.8003 2.24537 -4.84168 0
M  V30 900 O 77.0233 3.44852 -4.5435 0
M  V30 901 O 75.9573 1.90044 -5.7111 0
M  V30 902 H 79.7833 -0.0448345 -3.03667 0
M  V30 903 H 77.3683 -0.0877418 -1.49142 0
M  V30 904 H 79.2503 2.3663 -3.48689 0
M  V30 905 H 77.9253 2.28395 -2.29385 0
M  V30 906 H 76.8323 0.452436 -3.71354 0
M  V30 907 H 78.1653 0.614805 -4.88345 0
M  V30 908 N 79.8174 1.5752 -0.0501392 0
M  V30 909 C 81.0644 1.9265 0.623874 0
M  V30 910 C 81.3924 0.928411 1.70912 0
M  V30 911 O 80.6474 -0.0594525 1.9561 0
M  V30 912 C 80.9464 3.34467 1.25963 0
M  V30 913 C 80.6124 4.49883 0.302689 0
M  V30 914 C 79.2744 4.81184 0.0393636 0
M  V30 915 C 81.6264 5.20002 -0.353205 0
M  V30 916 C 78.9544 5.79951 -0.887308 0
M  V30 917 C 81.3064 6.1976 -1.26806 0
M  V30 918 C 79.9704 6.49491 -1.54007 0
M  V30 919 H 79.2404 0.704957 0.228292 0
M  V30 920 H 81.8874 1.91146 -0.116398 0
M  V30 921 H 80.1924 3.32333 2.07514 0
M  V30 922 H 81.8894 3.58928 1.78806 0
M  V30 923 H 78.4794 4.25457 0.518109 0
M  V30 924 H 82.6634 4.96033 -0.162854 0
M  V30 925 H 77.9194 6.01322 -1.10553 0
M  V30 926 H 82.0934 6.73205 -1.78236 0
M  V30 927 H 79.7204 7.25837 -2.25976 0
M  V30 928 N 81.2955 -0.223234 1.56011 0
M  V30 929 C 82.2275 -1.30006 1.88762 0
M  V30 930 C 83.2405 -1.43129 0.775746 0
M  V30 931 O 84.4295 -1.44057 1.05403 0
M  V30 932 C 81.5295 -2.67589 2.07965 0
M  V30 933 C 80.7025 -2.76434 3.38973 0
M  V30 934 C 79.7615 -3.95019 3.47629 0
M  V30 935 O 78.7875 -3.83436 4.20672 0
M  V30 936 N 79.9895 -5.09249 2.78649 0
M  V30 937 H 82.7545 -1.02238 2.81722 0
M  V30 938 H 80.3155 -0.413278 1.56536 0
M  V30 939 H 82.3075 -3.45297 2.11073 0
M  V30 940 H 80.8775 -2.87964 1.21638 0
M  V30 941 H 80.0975 -1.85216 3.47978 0
M  V30 942 H 81.3855 -2.79313 4.25278 0
M  V30 943 H 80.7835 -5.21556 2.19081 0
M  V30 944 H 79.3405 -5.85007 2.8742 0
M  V30 945 N 82.7736 -1.49793 -0.48987 0
M  V30 946 C 83.9986 -1.63836 -1.27172 0
M  V30 947 C 84.4236 -0.31402 -1.8546 0
M  V30 948 O 83.7816 0.719803 -1.66399 0
M  V30 949 C 83.8296 -2.71797 -2.36978 0
M  V30 950 O 82.9336 -2.31744 -3.41128 0
M  V30 951 H 82.2746 -0.547997 -0.37496 0
M  V30 952 H 84.8046 -1.96053 -0.585191 0
M  V30 953 H 84.8146 -2.94305 -2.82575 0
M  V30 954 H 83.4896 -3.67923 -1.93921 0
M  V30 955 H 82.0666 -2.1961 -3.01373 0
M  V30 956 N 84.2517 0.741722 -1.39055 0
M  V30 957 C 85.1987 1.85566 -1.37237 0
M  V30 958 C 86.1687 1.64457 -0.233072 0
M  V30 959 O 87.3537 1.85957 -0.427147 0
M  V30 960 C 84.4937 3.23004 -1.215 0
M  V30 961 C 83.6067 3.55864 -2.44918 0
M  V30 962 C 82.7417 4.82669 -2.21821 0
M  V30 963 C 81.7807 5.08351 -3.40948 0
M  V30 964 N 80.9177 6.26356 -3.17211 0
M  V30 965 H 85.7577 1.86455 -2.32462 0
M  V30 966 H 83.2947 0.911176 -1.15482 0
M  V30 967 H 85.2527 4.02331 -1.10389 0
M  V30 968 H 83.8827 3.21411 -0.29908 0
M  V30 969 H 82.9347 2.7129 -2.66657 0
M  V30 970 H 84.2467 3.70765 -3.33668 0
M  V30 971 H 83.4007 5.69962 -2.07914 0
M  V30 972 H 82.1397 4.69929 -1.30454 0
M  V30 973 H 81.1447 4.19522 -3.55361 0
M  V30 974 H 82.3697 5.22981 -4.33207 0
M  V30 975 H 80.3157 6.14917 -2.28502 0
M  V30 976 H 80.2327 6.41813 -3.99515 0
M  V30 977 H 81.5007 7.16506 -3.06984 0
M  V30 978 N 85.7298 1.2412 0.971189 0
M  V30 979 C 86.6618 0.988349 2.06795 0
M  V30 980 C 87.6748 -0.0409541 1.62748 0
M  V30 981 O 88.8638 0.195673 1.77424 0
M  V30 982 C 85.9638 0.469023 3.35639 0
M  V30 983 C 85.1368 1.56065 4.08611 0
M  V30 984 C 84.1958 1.04458 5.15728 0
M  V30 985 O 83.2218 1.73553 5.42096 0
M  V30 986 N 84.4238 -0.122817 5.8037 0
M  V30 987 H 87.1888 1.93265 2.29061 0
M  V30 988 H 84.7498 1.15102 1.13856 0
M  V30 989 H 86.7418 0.108613 4.04554 0
M  V30 990 H 85.3118 -0.380919 3.1027 0
M  V30 991 H 84.5318 2.09341 3.34021 0
M  V30 992 H 85.8198 2.29449 4.54126 0
M  V30 993 H 85.2178 -0.700563 5.61345 0
M  V30 994 H 83.7748 -0.424404 6.50417 0
M  V30 995 N 87.2079 -1.17134 1.05439 0
M  V30 996 C 88.1399 -2.2078 0.615539 0
M  V30 997 C 89.1529 -1.59584 -0.322001 0
M  V30 998 O 90.3419 -1.78133 -0.114344 0
M  V30 999 C 87.4419 -3.38691 -0.118938 0
M  V30 1000 C 86.6149 -4.29454 0.829924 0
M  V30 1001 C 85.6739 -5.26024 0.136258 0
M  V30 1002 O 84.6999 -5.63952 0.77115 0
M  V30 1003 N 85.9019 -5.69487 -1.1254 0
M  V30 1004 H 88.6669 -2.59052 1.50705 0
M  V30 1005 H 86.2279 -1.32058 0.936603 0
M  V30 1006 H 88.2199 -4.00329 -0.593179 0
M  V30 1007 H 86.7899 -2.98996 -0.91215 0
M  V30 1008 H 86.0099 -3.65211 1.48373 0
M  V30 1009 H 87.2979 -4.86984 1.47392 0
M  V30 1010 H 86.6959 -5.4075 -1.6615 0
M  V30 1011 H 85.2529 -6.33257 -1.54366 0
M  V30 1012 N 88.686 -0.835752 -1.33615 0
M  V30 1013 C 89.649 -0.272 -2.2758 0
M  V30 1014 C 90.649 0.557487 -1.50827 0
M  V30 1015 O 91.839 0.37173 -1.70188 0
M  V30 1016 C 88.971 0.617173 -3.35267 0
M  V30 1017 H 90.164 -1.10111 -2.78954 0
M  V30 1018 H 87.717 -0.608594 -1.43965 0
M  V30 1019 H 88.452 1.46884 -2.89129 0
M  V30 1020 H 88.237 0.0237066 -3.92093 0
M  V30 1021 H 89.727 1.005 -4.05326 0
M  V30 1022 N 90.1641 1.46063 -0.591896 0
M  V30 1023 C 91.1271 2.28854 0.125973 0
M  V30 1024 C 92.1271 1.38903 0.810107 0
M  V30 1025 O 93.3171 1.61186 0.66066 0
M  V30 1026 C 90.4491 3.19526 1.1881 0
M  V30 1027 H 91.6421 2.93802 -0.601717 0
M  V30 1028 H 89.1951 1.52325 -0.350254 0
M  V30 1029 H 89.9301 2.59345 1.94707 0
M  V30 1030 H 89.7151 3.85766 0.701936 0
M  V30 1031 H 91.2051 3.81817 1.69132 0
M  V30 1032 N 91.6422 0.330177 1.54103 0
M  V30 1033 C 92.5752 -0.575477 2.20825 0
M  V30 1034 C 93.5532 -1.11064 1.18758 0
M  V30 1035 O 94.7372 -1.17341 1.47524 0
M  V30 1036 C 91.8642 -1.79032 2.87516 0
M  V30 1037 C 90.9102 -1.38581 4.03358 0
M  V30 1038 S 91.7432 -0.416911 5.33875 0
M  V30 1039 C 92.8992 -1.63889 6.04062 0
M  V30 1040 H 93.1322 -0.00872114 2.97299 0
M  V30 1041 H 90.6652 0.114254 1.53977 0
M  V30 1042 H 92.6232 -2.48734 3.2656 0
M  V30 1043 H 91.2842 -2.32827 2.10832 0
M  V30 1044 H 90.4772 -2.29123 4.48908 0
M  V30 1045 H 90.0792 -0.768419 3.66021 0
M  V30 1046 H 92.3712 -2.57536 6.26643 0
M  V30 1047 H 93.3142 -1.22542 6.97416 0
M  V30 1048 H 93.7222 -1.82887 5.34053 0
M  V30 1049 N 93.1203 -1.57491 0.0584922 0
M  V30 1050 C 94.3683 -1.92597 -0.612436 0
M  V30 1051 C 94.6893 -0.938162 -1.70949 0
M  V30 1052 O 93.9593 0.0158301 -1.95894 0
M  V30 1053 H 92.5393 -0.710964 -0.229214 0
M  V30 1054 H 95.2013 -1.94571 0.113218 0
M  V30 1055 H 94.2973 -2.94038 -1.04633 0
M  V30 1056 N 94.5984 0.214957 -1.56127 0
M  V30 1057 C 95.8234 0.95924 -1.83884 0
M  V30 1058 C 96.2484 1.7689 -0.639644 0
M  V30 1059 O 95.6064 1.76566 0.411601 0
M  V30 1060 C 95.6544 1.84723 -3.09693 0
M  V30 1061 O 94.7584 2.94346 -2.8885 0
M  V30 1062 H 94.0994 0.27125 -0.606069 0
M  V30 1063 H 96.6294 0.226276 -2.03345 0
M  V30 1064 H 96.6394 2.25576 -3.39969 0
M  V30 1065 H 95.3144 1.25218 -3.96602 0
M  V30 1066 H 93.8914 2.57391 -2.69823 0
M  V30 1067 N 96.0765 1.50051 0.48192 0
M  V30 1068 C 97.0085 1.64263 1.59844 0
M  V30 1069 C 98.0215 0.52451 1.54119 0
M  V30 1070 O 99.2105 0.797293 1.59704 0
M  V30 1071 C 96.3105 1.60102 2.98698 0
M  V30 1072 C 95.4835 2.87767 3.29407 0
M  V30 1073 C 94.5425 2.76397 4.47762 0
M  V30 1074 O 93.5685 3.50348 4.48603 0
M  V30 1075 N 94.7705 1.89222 5.48794 0
M  V30 1076 H 97.5355 2.60566 1.48073 0
M  V30 1077 H 95.0965 1.47379 0.670149 0
M  V30 1078 H 97.0885 1.50123 3.75826 0
M  V30 1079 H 95.6585 0.715798 3.04294 0
M  V30 1080 H 94.8785 3.11954 2.40994 0
M  V30 1081 H 96.1665 3.72365 3.4673 0
M  V30 1082 H 95.5645 1.28434 5.50928 0
M  V30 1083 H 94.1215 1.85154 6.24949 0
M  V30 1084 N 97.5546 -0.734337 1.39446 0
M  V30 1085 C 98.8026 -1.49096 1.36436 0
M  V30 1086 C 99.1236 -1.94961 -0.0388255 0
M  V30 1087 O 98.3936 -1.69033 -0.990191 0
M  V30 1088 H 96.9736 -0.5531 0.502085 0
M  V30 1089 H 99.6356 -0.871725 1.74319 0
M  V30 1090 H 98.7316 -2.37276 2.02747 0
M  V30 1091 N 99.0327 -1.24633 -0.964593 0
M  V30 1092 C 99.9807 -1.03917 -2.08096 0
M  V30 1093 C 100.975 0.0268581 -1.69379 0
M  V30 1094 O 102.181 -0.127952 -1.79545 0
M  V30 1095 H 98.5557 -0.319044 -0.680966 0
M  V30 1096 H 100.527 -1.98581 -2.22729 0
M  V30 1097 C 99.2757 -0.663983 -3.41301 0
M  V30 1098 H 98.5987 -1.47605 -3.71555 0
M  V30 1099 H 100.039 -0.558663 -4.20303 0
M  V30 1100 C 98.4977 0.629169 -3.30973 0
M  V30 1101 O 99.0277 1.67404 -3.65156 0
M  V30 1102 N 97.2337 0.611057 -2.84103 0
M  V30 1103 H 96.7807 -0.239593 -2.56483 0
M  V30 1104 H 96.7387 1.47647 -2.77575 0
M  V30 1105 N 100.511 1.16574 -1.06058 0
M  V30 1106 C 101.441 2.23057 -0.690488 0
M  V30 1107 C 102.422 1.67141 0.315901 0
M  V30 1108 O 103.607 1.93253 0.191556 0
M  V30 1109 C 100.737 3.47222 -0.073625 0
M  V30 1110 C 99.6908 4.16016 -1.00573 0
M  V30 1111 C 99.0168 5.34104 -0.252289 0
M  V30 1112 C 100.317 4.67264 -2.33371 0
M  V30 1113 H 102.011 2.54271 -1.58072 0
M  V30 1114 H 99.5568 1.22218 -0.76149 0
M  V30 1115 H 101.51 4.20939 0.19714 0
M  V30 1116 H 100.234 3.15302 0.85161 0
M  V30 1117 H 98.8928 3.44223 -1.2612 0
M  V30 1118 H 98.5408 4.98437 0.675988 0
M  V30 1119 H 98.2408 5.81072 -0.873455 0
M  V30 1120 H 99.7648 6.10599 0.0109857 0
M  V30 1121 H 101.179 5.32573 -2.12223 0
M  V30 1122 H 99.5758 5.24843 -2.90963 0
M  V30 1123 H 100.646 3.83602 -2.96611 0
M  V30 1124 N 101.989 0.842826 1.3317 0
M  V30 1125 C 103.214 0.453129 2.02389 0
M  V30 1126 C 103.639 -0.939105 1.6298 0
M  V30 1127 O 102.997 -1.61472 0.8244 0
M  V30 1128 C 103.045 0.586094 3.55805 0
M  V30 1129 O 102.149 -0.386029 4.10589 0
M  V30 1130 H 101.49 0.183664 0.638094 0
M  V30 1131 H 104.02 1.13875 1.69981 0
M  V30 1132 H 104.03 0.469209 4.05293 0
M  V30 1133 H 102.705 1.6014 3.83833 0
M  V30 1134 H 101.282 -0.226371 3.72212 0
M  V30 1135 N 103.467 -1.45747 0.599634 0
M  V30 1136 C 104.43 -2.28917 -0.113835 0
M  V30 1137 C 105.43 -1.3933 -0.802729 0
M  V30 1138 O 106.62 -1.61534 -0.652103 0
M  V30 1139 C 103.752 -3.20152 -1.17114 0
M  V30 1140 H 104.945 -2.93478 0.617289 0
M  V30 1141 H 102.498 -1.52137 0.358327 0
M  V30 1142 H 103.233 -2.60374 -1.93329 0
M  V30 1143 H 103.018 -3.86133 -0.681468 0
M  V30 1144 H 104.508 -3.82708 -1.67105 0
M  V30 1145 N 104.945 -0.338344 -1.53925 0
M  V30 1146 C 105.855 0.529421 -2.28548 0
M  V30 1147 C 106.871 1.11645 -1.3346 0
M  V30 1148 O 108.047 1.13325 -1.66492 0
M  V30 1149 C 105.112 1.66713 -3.03987 0
M  V30 1150 C 104.173 1.11041 -4.14691 0
M  V30 1151 C 103.406 2.19389 -4.86522 0
M  V30 1152 O 103.629 3.40013 -4.57982 0
M  V30 1153 O 102.563 1.83976 -5.73094 0
M  V30 1154 H 106.389 -0.0770399 -3.03602 0
M  V30 1155 H 103.974 -0.103555 -1.49041 0
M  V30 1156 H 105.856 2.32918 -3.5118 0
M  V30 1157 H 104.531 2.25949 -2.31794 0
M  V30 1158 H 103.438 0.413024 -3.71813 0
M  V30 1159 H 104.771 0.562975 -4.8897 0
M  V30 1160 N 106.423 1.57458 -0.0668435 0
M  V30 1161 C 107.669 1.93587 0.6043 0
M  V30 1162 C 108.002 0.946722 1.69561 0
M  V30 1163 O 107.277 -0.0248516 1.94484 0
M  V30 1164 C 107.56 3.40014 1.18585 0
M  V30 1165 C 107.413 4.49685 0.101529 0
M  V30 1166 C 108.732 3.87154 2.09284 0
M  V30 1167 H 105.851 0.703958 0.218202 0
M  V30 1168 H 108.493 1.89542 -0.131804 0
M  V30 1169 H 106.643 3.43592 1.81319 0
M  V30 1170 H 108.315 4.5823 -0.531279 0
M  V30 1171 H 106.558 4.30059 -0.568487 0
M  V30 1172 H 107.229 5.49266 0.54874 0
M  V30 1173 H 109.705 3.85551 1.56491 0
M  V30 1174 H 108.581 4.90231 2.46911 0
M  V30 1175 H 108.842 3.2481 2.99918 0
M  V30 1176 N 107.901 -0.206675 1.56239 0
M  V30 1177 C 108.811 -1.27686 1.96808 0
M  V30 1178 C 109.827 -1.50455 0.874035 0
M  V30 1179 O 111.003 -1.63295 1.17884 0
M  V30 1180 C 108.068 -2.60358 2.28942 0
M  V30 1181 C 107.129 -2.45762 3.51994 0
M  V30 1182 C 106.362 -3.72108 3.82585 0
M  V30 1183 O 106.585 -4.75776 3.14631 0
M  V30 1184 O 105.519 -3.6833 4.76043 0
M  V30 1185 H 109.345 -0.962593 2.88041 0
M  V30 1186 H 106.93 -0.410746 1.43643 0
M  V30 1187 H 108.812 -3.38687 2.50737 0
M  V30 1188 H 107.487 -2.91435 1.4088 0
M  V30 1189 H 106.394 -1.65584 3.35459 0
M  V30 1190 H 107.727 -2.19621 4.40486 0
M  V30 1191 N 109.379 -1.50304 -0.473955 0
M  V30 1192 C 110.311 -1.65109 -1.58971 0
M  V30 1193 C 111.324 -0.532676 -1.53839 0
M  V30 1194 O 112.513 -0.805751 -1.59279 0
M  V30 1195 C 109.613 -1.61684 -2.97845 0
M  V30 1196 C 108.786 -2.8951 -3.27876 0
M  V30 1197 C 107.845 -2.78768 -4.4629 0
M  V30 1198 O 106.871 -3.52722 -4.46739 0
M  V30 1199 N 108.073 -1.9213 -5.47783 0
M  V30 1200 H 110.838 -2.61347 -1.46689 0
M  V30 1201 H 108.399 -1.47732 -0.662324 0
M  V30 1202 H 110.391 -1.52114 -3.75024 0
M  V30 1203 H 108.961 -0.731925 -3.03911 0
M  V30 1204 H 108.181 -3.13228 -2.39336 0
M  V30 1205 H 109.469 -3.74199 -3.4475 0
M  V30 1206 H 108.867 -1.31353 -5.50239 0
M  V30 1207 H 107.424 -1.88466 -6.23958 0
M  V30 1208 N 110.857 0.726932 -1.39834 0
M  V30 1209 C 111.82 1.82269 -1.38962 0
M  V30 1210 C 112.82 1.58248 -0.285334 0
M  V30 1211 O 114.01 1.65499 -0.54366 0
M  V30 1212 C 111.142 3.20186 -1.17019 0
M  V30 1213 H 112.335 1.84443 -2.36476 0
M  V30 1214 H 109.888 0.931416 -1.25516 0
M  V30 1215 H 110.623 3.23669 -0.202204 0
M  V30 1216 H 110.408 3.3902 -1.96998 0
M  V30 1217 H 111.898 4.00235 -1.1917 0
M  V30 1218 N 112.336 1.25143 0.95797 0
M  V30 1219 C 113.564 1.12424 1.73691 0
M  V30 1220 C 113.979 -0.322304 1.86029 0
M  V30 1221 O 113.336 -1.22186 1.35561 0
M  V30 1222 C 113.387 1.76933 3.15241 0
M  V30 1223 O 113.108 3.15932 3.03511 0
M  V30 1224 C 114.609 1.6995 4.09429 0
M  V30 1225 H 111.829 0.3923 0.544373 0
M  V30 1226 H 114.373 1.6544 1.20207 0
M  V30 1227 H 112.528 1.27895 3.6568 0
M  V30 1228 H 112.942 3.47598 3.9278 0
M  V30 1229 H 114.416 2.19753 5.06372 0
M  V30 1230 H 114.893 0.662619 4.34173 0
M  V30 1231 H 115.499 2.18461 3.64904 0
M  V30 1232 N 113.814 -1.1601 1.06675 0
M  V30 1233 C 115.23 -1.38622 0.790948 0
M  V30 1234 C 115.43 -1.92109 -0.607965 0
M  V30 1235 O 114.486 -2.12239 -1.36787 0
M  V30 1236 C 115.799 -2.36347 1.85905 0
M  V30 1237 C 117.347 -2.50023 1.88301 0
M  V30 1238 C 117.822 -3.51033 2.94176 0
M  V30 1239 N 119.313 -3.58563 2.93235 0
M  V30 1240 C 120.048 -4.36521 3.71803 0
M  V30 1241 N 119.544 -5.17869 4.602 0
M  V30 1242 N 121.337 -4.31541 3.60178 0
M  V30 1243 H 113.488 -0.796294 1.96908 0
M  V30 1244 H 115.751 -0.412597 0.853503 0
M  V30 1245 H 115.457 -2.04147 2.86386 0
M  V30 1246 H 115.331 -3.36042 1.71334 0
M  V30 1247 H 117.718 -2.81524 0.884769 0
M  V30 1248 H 117.799 -1.5035 2.06951 0
M  V30 1249 H 117.443 -3.20268 3.94196 0
M  V30 1250 H 117.373 -4.50445 2.72776 0
M  V30 1251 H 119.864 -3.00496 2.29152 0
M  V30 1252 H 120.177 -5.74578 5.16797 0
M  V30 1253 H 118.522 -5.17199 4.64253 0
M  V30 1254 H 121.713 -3.67051 2.90502 0
M  V30 1255 H 121.886 -4.9205 4.21653 0
M  V30 1256 N 115.292 -0.849877 -1.32721 0
M  V30 1257 C 116.708 -0.539102 -1.50219 0
M  V30 1258 C 116.908 0.931271 -1.78689 0
M  V30 1259 O 115.964 1.71455 -1.85363 0
M  V30 1260 C 117.277 -1.42196 -2.64954 0
M  V30 1261 C 118.825 -1.42189 -2.78839 0
M  V30 1262 C 119.3 -2.28985 -3.96648 0
M  V30 1263 N 120.791 -2.26754 -4.03902 0
M  V30 1264 C 121.526 -2.90644 -4.94281 0
M  V30 1265 N 121.022 -3.63629 -5.897 0
M  V30 1266 N 122.815 -2.80057 -4.87365 0
M  V30 1267 H 114.966 -1.80156 -1.12506 0
M  V30 1268 H 117.229 -0.769217 -0.554085 0
M  V30 1269 H 116.935 -2.46733 -2.50631 0
M  V30 1270 H 116.809 -1.10591 -3.60624 0
M  V30 1271 H 119.196 -0.38419 -2.92588 0
M  V30 1272 H 119.277 -1.77807 -1.83898 0
M  V30 1273 H 118.921 -3.32819 -3.83658 0
M  V30 1274 H 118.851 -1.90702 -4.90857 0
M  V30 1275 H 121.342 -1.73688 -3.3562 0
M  V30 1276 H 121.655 -4.09558 -6.55349 0
M  V30 1277 H 120 -3.67737 -5.89741 0
M  V30 1278 H 123.191 -2.22593 -4.11789 0
M  V30 1279 H 123.364 -3.30132 -5.57599 0
M  V30 1280 N 116.77 1.45427 -0.607355 0
M  V30 1281 C 117.702 2.2871 0.149752 0
M  V30 1282 C 118.715 1.39937 0.831958 0
M  V30 1283 O 119.904 1.64313 0.697385 0
M  V30 1284 C 117.004 3.15673 1.23304 0
M  V30 1285 C 116.177 4.32722 0.637996 0
M  V30 1286 C 115.236 5.00895 1.61215 0
M  V30 1287 O 114.262 5.57697 1.13854 0
M  V30 1288 N 115.464 5.00159 2.94655 0
M  V30 1289 H 118.229 2.94328 -0.564882 0
M  V30 1290 H 115.79 1.55612 -0.446823 0
M  V30 1291 H 117.782 3.58144 1.88454 0
M  V30 1292 H 116.352 2.51965 1.8502 0
M  V30 1293 H 115.572 3.93734 -0.191572 0
M  V30 1294 H 116.86 5.08321 0.220665 0
M  V30 1295 H 116.258 4.553 3.35735 0
M  V30 1296 H 114.815 5.46495 3.55228 0
M  V30 1297 N 118.248 0.346503 1.53744 0
M  V30 1298 C 119.494 -0.249473 2.0126 0
M  V30 1299 C 119.827 -1.49965 1.23386 0
M  V30 1300 O 119.102 -1.91811 0.32229 0
M  V30 1301 C 119.385 -0.560643 3.55709 0
M  V30 1302 C 119.238 0.701836 4.44291 0
M  V30 1303 C 120.557 -1.36905 4.18264 0
M  V30 1304 H 117.676 -0.0891987 0.731582 0
M  V30 1305 H 120.318 0.467624 1.84156 0
M  V30 1306 H 118.468 -1.17156 3.70414 0
M  V30 1307 H 120.14 1.33974 4.41417 0
M  V30 1308 H 118.383 1.32612 4.13033 0
M  V30 1309 H 119.054 0.43933 5.50249 0
M  V30 1310 H 121.53 -0.852448 4.07275 0
M  V30 1311 H 120.406 -1.55553 5.26398 0
M  V30 1312 H 120.667 -2.37203 3.73078 0
M  V30 1313 N 119.726 -1.57421 0.075193 0
M  V30 1314 C 120.658 -2.09904 -0.920483 0
M  V30 1315 C 121.671 -1.03191 -1.25918 0
M  V30 1316 O 122.86 -1.30695 -1.21577 0
M  V30 1317 C 119.96 -2.54726 -2.23534 0
M  V30 1318 C 119.133 -3.8505 -2.07498 0
M  V30 1319 C 118.192 -4.15929 -3.22319 0
M  V30 1320 O 117.218 -4.85474 -2.9716 0
M  V30 1321 N 118.42 -3.69745 -4.47514 0
M  V30 1322 H 121.185 -2.95954 -0.472359 0
M  V30 1323 H 118.746 -1.61523 -0.110444 0
M  V30 1324 H 120.738 -2.72443 -2.9926 0
M  V30 1325 H 119.308 -1.73795 -2.59835 0
M  V30 1326 H 118.528 -3.76679 -1.16219 0
M  V30 1327 H 119.816 -4.70348 -1.94038 0
M  V30 1328 H 119.214 -3.13569 -4.7084 0
M  V30 1329 H 117.771 -3.92655 -5.20255 0
M  V30 1330 N 121.204 0.198386 -1.56346 0
M  V30 1331 C 122.452 0.91747 -1.80075 0
M  V30 1332 C 122.773 1.83929 -0.647692 0
M  V30 1333 O 122.043 1.93029 0.334166 0
M  V30 1334 H 120.623 0.341774 -0.664228 0
M  V30 1335 H 123.285 0.204684 -1.93822 0
M  V30 1336 H 122.381 1.51055 -2.7311 0
M  V30 1337 N 122.682 1.50554 0.465978 0
M  V30 1338 C 123.615 1.64436 1.58227 0
M  V30 1339 C 124.593 0.492367 1.54966 0
M  V30 1340 O 125.777 0.712536 1.74514 0
M  V30 1341 C 122.904 1.63165 2.96808 0
M  V30 1342 C 121.95 2.83987 3.18204 0
M  V30 1343 S 122.783 4.45219 2.97557 0
M  V30 1344 C 123.939 4.46649 4.3847 0
M  V30 1345 H 124.172 2.58861 1.46213 0
M  V30 1346 H 121.705 1.3988 0.653678 0
M  V30 1347 H 123.663 1.63116 3.76701 0
M  V30 1348 H 122.324 0.69967 3.06208 0
M  V30 1349 H 121.517 2.79416 4.19455 0
M  V30 1350 H 121.119 2.81629 2.46092 0
M  V30 1351 H 123.411 4.20526 5.31191 0
M  V30 1352 H 124.354 5.48295 4.48082 0
M  V30 1353 H 124.762 3.76296 4.20787 0
M  V30 1354 N 124.16 -0.719506 1.40217 0
M  V30 1355 C 125.092 -1.84428 1.36084 0
M  V30 1356 C 126.105 -1.60597 0.266913 0
M  V30 1357 O 127.294 -1.70544 0.526983 0
M  V30 1358 C 124.394 -3.20757 1.094 0
M  V30 1359 C 123.567 -3.71817 2.30372 0
M  V30 1360 C 122.626 -4.86748 1.99907 0
M  V30 1361 O 121.652 -4.99603 2.72737 0
M  V30 1362 N 122.854 -5.7226 0.974635 0
M  V30 1363 H 125.619 -1.88473 2.33019 0
M  V30 1364 H 123.18 -0.900885 1.3452 0
M  V30 1365 H 125.172 -3.95235 0.870116 0
M  V30 1366 H 123.742 -3.11884 0.211452 0
M  V30 1367 H 122.962 -2.88514 2.68614 0
M  V30 1368 H 124.25 -4.02666 3.11026 0
M  V30 1369 H 123.648 -5.6448 0.371368 0
M  V30 1370 H 122.205 -6.46739 0.810656 0
M  V30 1371 N 125.638 -1.25649 -0.95132 0
M  V30 1372 C 126.863 -1.13443 -1.73624 0
M  V30 1373 C 127.288 0.307565 -1.85568 0
M  V30 1374 O 126.646 1.22282 -1.33854 0
M  V30 1375 C 126.694 -1.79723 -3.12621 0
M  V30 1376 O 125.798 -1.07912 -3.98031 0
M  V30 1377 H 125.139 -0.395872 -0.533086 0
M  V30 1378 H 127.669 -1.66276 -1.1922 0
M  V30 1379 H 127.679 -1.86141 -3.63064 0
M  V30 1380 H 126.354 -2.84633 -3.03244 0
M  V30 1381 H 124.931 -1.09398 -3.56492 0
M  V30 1382 N 127.117 1.15442 -1.07289 0
M  V30 1383 C 128.342 1.90638 -0.816828 0
M  V30 1384 C 128.767 1.77445 0.624083 0
M  V30 1385 O 128.125 1.10671 1.43602 0
M  V30 1386 C 128.173 3.39008 -1.22906 0
M  V30 1387 O 127.277 4.10701 -0.373975 0
M  V30 1388 H 126.618 0.593555 -0.297638 0
M  V30 1389 H 129.148 1.46198 -1.43134 0
M  V30 1390 H 129.158 3.89801 -1.20497 0
M  V30 1391 H 127.833 3.47929 -2.27856 0
M  V30 1392 H 126.41 3.70046 -0.460499 0
M  V30 1393 N 128.595 0.856903 1.32268 0
M  V30 1394 C 129.527 0.260412 2.27716 0
M  V30 1395 C 130.54 -0.569137 1.52528 0
M  V30 1396 O 131.729 -0.39326 1.74114 0
M  V30 1397 C 128.829 -0.650477 3.32599 0
M  V30 1398 C 128.002 0.14372 4.37164 0
M  V30 1399 C 127.061 -0.69328 5.21613 0
M  V30 1400 O 126.087 -0.12599 5.69061 0
M  V30 1401 N 127.289 -2.00761 5.44679 0
M  V30 1402 H 130.054 1.08059 2.79541 0
M  V30 1403 H 127.615 0.717103 1.45152 0
M  V30 1404 H 129.607 -1.21581 3.86005 0
M  V30 1405 H 128.177 -1.37133 2.80915 0
M  V30 1406 H 127.397 0.890486 3.8401 0
M  V30 1407 H 128.685 0.68915 5.04111 0
M  V30 1408 H 128.083 -2.49181 5.07863 0
M  V30 1409 H 126.64 -2.52103 6.01072 0
M  V30 1410 N 130.073 -1.45103 0.615059 0
M  V30 1411 C 131.005 -2.28786 -0.13762 0
M  V30 1412 C 132.018 -1.40376 -0.824525 0
M  V30 1413 O 133.207 -1.64681 -0.688662 0
M  V30 1414 C 130.307 -3.16322 -1.21628 0
M  V30 1415 C 129.48 -4.33054 -0.615039 0
M  V30 1416 C 128.539 -5.01743 -1.58556 0
M  V30 1417 O 127.565 -5.58293 -1.10895 0
M  V30 1418 N 128.767 -5.01714 -2.91998 0
M  V30 1419 H 131.532 -2.94025 0.580483 0
M  V30 1420 H 129.093 -1.55373 0.45507 0
M  V30 1421 H 131.085 -3.59139 -1.86552 0
M  V30 1422 H 129.655 -2.52943 -1.83681 0
M  V30 1423 H 128.875 -3.93627 0.21245 0
M  V30 1424 H 130.163 -5.08431 -0.193704 0
M  V30 1425 H 129.561 -4.57075 -3.33316 0
M  V30 1426 H 128.118 -5.48371 -3.52325 0
M  V30 1427 N 131.551 -0.354651 -1.53558 0
M  V30 1428 C 132.967 -0.00315426 -1.596 0
M  V30 1429 C 133.167 1.47741 -1.37021 0
M  V30 1430 O 132.223 2.23759 -1.16996 0
M  V30 1431 C 133.536 -0.44929 -2.97325 0
M  V30 1432 C 135.084 -0.402578 -3.104 0
M  V30 1433 C 135.559 -0.824355 -4.5052 0
M  V30 1434 N 137.05 -0.778979 -4.56603 0
M  V30 1435 C 137.785 -1.07715 -5.63192 0
M  V30 1436 N 137.281 -1.44405 -6.77583 0
M  V30 1437 N 139.074 -1.00066 -5.53121 0
M  V30 1438 H 131.225 -1.31893 -1.66487 0
M  V30 1439 H 133.488 -0.538388 -0.780284 0
M  V30 1440 H 133.194 -1.48202 -3.1895 0
M  V30 1441 H 133.068 0.169772 -3.76818 0
M  V30 1442 H 135.455 0.621004 -2.88492 0
M  V30 1443 H 135.536 -1.05699 -2.32941 0
M  V30 1444 H 135.18 -1.846 -4.73165 0
M  V30 1445 H 135.11 -0.147304 -5.26394 0
M  V30 1446 H 137.601 -0.508528 -3.74463 0
M  V30 1447 H 137.914 -1.65612 -7.54846 0
M  V30 1448 H 136.259 -1.4826 -6.79002 0
M  V30 1449 H 139.45 -0.713293 -4.62633 0
M  V30 1450 H 139.623 -1.23638 -6.36096 0
M  V30 1451 N 133.029 1.57378 -0.0835403 0
M  V30 1452 C 133.977 2.14602 0.89714 0
M  V30 1453 C 134.971 1.08589 1.30018 0
M  V30 1454 O 136.177 1.26952 1.27606 0
M  V30 1455 H 132.552 0.686346 0.3073 0
M  V30 1456 H 134.523 2.95845 0.38969 0
M  V30 1457 C 133.272 2.73188 2.15089 0
M  V30 1458 H 132.595 3.54442 1.84962 0
M  V30 1459 H 134.035 3.1681 2.81793 0
M  V30 1460 C 132.494 1.68517 2.91725 0
M  V30 1461 O 133.024 1.11718 3.85852 0
M  V30 1462 N 131.23 1.39277 2.55049 0
M  V30 1463 H 130.777 1.85655 1.78577 0
M  V30 1464 H 130.735 0.694791 3.06627 0
M  V30 1465 N 134.507 -0.190092 1.56449 0
M  V30 1466 C 135.923 -0.54113 1.50146 0
M  V30 1467 C 136.123 -1.85603 0.784465 0
M  V30 1468 O 135.179 -2.5024 0.337051 0
M  V30 1469 C 136.492 -0.591241 2.9483 0
M  V30 1470 C 138.04 -0.679732 3.0553 0
M  V30 1471 C 138.515 -0.760908 4.51635 0
M  V30 1472 N 140.006 -0.824302 4.55806 0
M  V30 1473 C 140.741 -0.907365 5.66175 0
M  V30 1474 N 140.237 -0.952422 6.86222 0
M  V30 1475 N 142.03 -0.94494 5.541 0
M  V30 1476 H 134.181 0.67235 2.01478 0
M  V30 1477 H 136.444 0.240127 0.917084 0
M  V30 1478 H 136.15 0.305905 3.50367 0
M  V30 1479 H 136.024 -1.44422 3.48457 0
M  V30 1480 H 138.411 -1.56731 2.50039 0
M  V30 1481 H 138.492 0.199549 2.5502 0
M  V30 1482 H 138.136 0.122336 5.07753 0
M  V30 1483 H 138.066 -1.65606 4.99882 0
M  V30 1484 H 140.557 -0.798526 3.69367 0
M  V30 1485 H 140.87 -1.01645 7.66086 0
M  V30 1486 H 139.215 -0.921014 6.8887 0
M  V30 1487 H 142.406 -0.906612 4.59236 0
M  V30 1488 H 142.579 -1.00622 6.4014 0
M  V30 1489 N 135.985 -1.50799 -0.457987 0
M  V30 1490 C 136.895 -1.73426 -1.57989 0
M  V30 1491 C 137.911 -0.617745 -1.62665 0
M  V30 1492 O 139.087 -0.897614 -1.80291 0
M  V30 1493 C 136.152 -1.83557 -2.94122 0
M  V30 1494 C 135.213 -3.07345 -2.99729 0
M  V30 1495 C 134.446 -3.16983 -4.29368 0
M  V30 1496 O 134.669 -2.33077 -5.20607 0
M  V30 1497 O 133.603 -4.09812 -4.40837 0
M  V30 1498 H 137.429 -2.68555 -1.41817 0
M  V30 1499 H 135.014 -1.35052 -0.638859 0
M  V30 1500 H 136.896 -1.92326 -3.74952 0
M  V30 1501 H 135.571 -0.916137 -3.10465 0
M  V30 1502 H 134.478 -3.04068 -2.1793 0
M  V30 1503 H 135.811 -3.9891 -2.88326 0
M  V30 1504 N 137.463 0.71206 -1.40597 0
M  V30 1505 C 138.879 1.02058 -1.22704 0
M  V30 1506 C 139.079 2.01228 -0.104729 0
M  V30 1507 O 138.135 2.4674 0.53624 0
M  V30 1508 C 139.448 1.56094 -2.57012 0
M  V30 1509 C 140.996 1.6806 -2.64054 0
M  V30 1510 C 141.471 2.25501 -3.9864 0
M  V30 1511 N 142.962 2.32882 -4.004 0
M  V30 1512 C 143.697 2.78317 -5.01325 0
M  V30 1513 N 143.193 3.23478 -6.12645 0
M  V30 1514 N 144.986 2.77733 -4.88693 0
M  V30 1515 H 137.137 0.0547896 -2.12329 0
M  V30 1516 H 139.4 0.0869027 -0.944008 0
M  V30 1517 H 139.106 0.906865 -3.39807 0
M  V30 1518 H 138.98 2.54564 -2.78347 0
M  V30 1519 H 141.367 2.32583 -1.81629 0
M  V30 1520 H 141.448 0.681802 -2.46546 0
M  V30 1521 H 141.092 1.61598 -4.81506 0
M  V30 1522 H 141.022 3.26102 -4.13479 0
M  V30 1523 H 143.513 2.00991 -3.20017 0
M  V30 1524 H 143.826 3.56725 -6.85542 0
M  V30 1525 H 142.171 3.21429 -6.16205 0
M  V30 1526 H 145.362 2.4179 -4.00818 0
M  V30 1527 H 145.535 3.12826 -5.67489 0
M  V30 1528 N 138.941 1.26152 0.944643 0
M  V30 1529 C 140.187 1.11657 1.69294 0
M  V30 1530 C 140.52 -0.339926 1.91202 0
M  V30 1531 O 139.795 -1.24994 1.49019 0
M  V30 1532 C 140.078 1.88236 3.06984 0
M  V30 1533 C 139.931 3.41772 2.92424 0
M  V30 1534 C 141.25 1.67343 4.07043 0
M  V30 1535 H 138.369 0.407004 0.614424 0
M  V30 1536 H 141.011 1.55106 1.09737 0
M  V30 1537 H 139.161 1.51308 3.57824 0
M  V30 1538 H 140.833 3.88433 2.48832 0
M  V30 1539 H 139.076 3.68974 2.28124 0
M  V30 1540 H 139.747 3.90579 3.90067 0
M  V30 1541 H 142.223 1.99509 3.65151 0
M  V30 1542 H 141.099 2.23346 5.01406 0
M  V30 1543 H 141.36 0.617158 4.37771 0
M  V30 1544 N 140.419 -1.14872 1.07899 0
M  V30 1545 C 141.349 -2.2193 0.725887 0
M  V30 1546 C 142.33 -1.67622 -0.28927 0
M  V30 1547 O 143.515 -1.93533 -0.160787 0
M  V30 1548 C 140.645 -3.47061 0.128856 0
M  V30 1549 C 139.599 -4.14363 1.07178 0
M  V30 1550 C 138.925 -5.33636 0.337229 0
M  V30 1551 C 140.225 -4.63492 2.40775 0
M  V30 1552 H 141.919 -2.51724 1.62097 0
M  V30 1553 H 139.465 -1.20991 0.780838 0
M  V30 1554 H 141.418 -4.21199 -0.130147 0
M  V30 1555 H 140.142 -3.16617 -0.80134 0
M  V30 1556 H 138.801 -3.42173 1.3158 0
M  V30 1557 H 138.449 -4.99449 -0.596606 0
M  V30 1558 H 138.149 -5.79609 0.965788 0
M  V30 1559 H 139.673 -6.10539 0.0861567 0
M  V30 1560 H 141.087 -5.2913 2.20669 0
M  V30 1561 H 139.484 -5.20148 2.99276 0
M  V30 1562 H 140.554 -3.78834 3.02676 0
M  V30 1563 N 141.898 -0.863906 -1.31812 0
M  V30 1564 C 142.861 -0.320212 -2.26952 0
M  V30 1565 C 143.861 0.525369 -1.51975 0
M  V30 1566 O 145.051 0.335547 -1.70938 0
M  V30 1567 C 142.183 0.545919 -3.365 0
M  V30 1568 H 143.376 -1.16004 -2.76556 0
M  V30 1569 H 140.929 -0.638995 -1.42641 0
M  V30 1570 H 141.664 1.40718 -2.92179 0
M  V30 1571 H 141.449 -0.0594674 -3.92055 0
M  V30 1572 H 142.939 0.918796 -4.07367 0
M  V30 1573 N 143.376 1.44774 -0.622745 0
M  V30 1574 C 144.308 2.28856 0.125485 0
M  V30 1575 C 145.321 1.40811 0.817069 0
M  V30 1576 O 146.51 1.65044 0.679918 0
M  V30 1577 C 143.61 3.16963 1.19949 0
M  V30 1578 C 142.783 4.33374 0.592064 0
M  V30 1579 C 141.842 5.02577 1.55893 0
M  V30 1580 O 140.868 5.58873 1.07933 0
M  V30 1581 N 142.07 5.03256 2.89334 0
M  V30 1582 H 144.835 2.93713 -0.596068 0
M  V30 1583 H 142.396 1.55129 -0.463303 0
M  V30 1584 H 144.388 3.60123 1.84644 0
M  V30 1585 H 142.958 2.53913 1.82337 0
M  V30 1586 H 142.178 3.93509 -0.233322 0
M  V30 1587 H 143.466 5.08527 0.166738 0
M  V30 1588 H 142.864 4.58836 3.30887 0
M  V30 1589 H 141.421 5.50232 3.49412 0
M  V30 1590 N 144.854 0.36279 1.53368 0
M  V30 1591 C 145.784 -0.476976 2.28576 0
M  V30 1592 C 146.765 -1.08631 1.30894 0
M  V30 1593 O 147.95 -1.10409 1.59761 0
M  V30 1594 C 145.08 -1.61828 3.07293 0
M  V30 1595 C 144.034 -1.13633 4.1264 0
M  V30 1596 C 143.36 -2.36766 4.79423 0
M  V30 1597 C 144.66 -0.223061 5.21823 0
M  V30 1598 H 146.354 0.150474 2.99022 0
M  V30 1599 H 143.9 0.0738103 1.43811 0
M  V30 1600 H 145.853 -2.21237 3.58653 0
M  V30 1601 H 144.577 -2.27292 2.34533 0
M  V30 1602 H 143.236 -0.564945 3.62221 0
M  V30 1603 H 142.884 -3.0068 4.03238 0
M  V30 1604 H 142.584 -2.05192 5.50609 0
M  V30 1605 H 144.108 -2.96865 5.33576 0
M  V30 1606 H 145.522 -0.724545 5.68703 0
M  V30 1607 H 143.919 0.001678 6.001 0
M  V30 1608 H 144.989 0.735553 4.79289 0
M  V30 1609 N 146.332 -1.57332 0.0918853 0
M  V30 1610 C 147.262 -2.16872 -0.865371 0
M  V30 1611 C 148.243 -1.10118 -1.29646 0
M  V30 1612 O 149.428 -1.38242 -1.36392 0
M  V30 1613 C 146.558 -2.74649 -2.12569 0
M  V30 1614 C 145.512 -3.86747 -1.83333 0
M  V30 1615 C 144.838 -4.31212 -3.16166 0
M  V30 1616 C 146.138 -5.10089 -1.1228 0
M  V30 1617 H 147.832 -2.97114 -0.369307 0
M  V30 1618 H 145.378 -1.42918 -0.176194 0
M  V30 1619 H 147.331 -3.14952 -2.7997 0
M  V30 1620 H 146.055 -1.91657 -2.64452 0
M  V30 1621 H 144.714 -3.46978 -1.18331 0
M  V30 1622 H 144.362 -3.45115 -3.6593 0
M  V30 1623 H 144.062 -5.06788 -2.97388 0
M  V30 1624 H 145.586 -4.74146 -3.84731 0
M  V30 1625 H 147 -5.47582 -1.69785 0
M  V30 1626 H 145.397 -5.91073 -1.03693 0
M  V30 1627 H 146.467 -4.84786 -0.105041 0
M  V30 1628 N 147.81 0.181792 -1.56548 0
M  V30 1629 C 149.058 0.89832 -1.81038 0
M  V30 1630 C 149.379 1.83232 -0.667164 0
M  V30 1631 O 148.649 1.93372 0.313673 0
M  V30 1632 H 147.229 0.33471 -0.667816 0
M  V30 1633 H 149.891 0.184116 -1.94028 0
M  V30 1634 H 148.987 1.4815 -2.74696 0
M  V30 1635 N 149.288 1.51039 0.449983 0
M  V30 1636 C 150.221 1.66105 1.56474 0
M  V30 1637 C 151.199 0.508776 1.54435 0
M  V30 1638 O 152.383 0.731005 1.73749 0
M  V30 1639 C 149.51 1.66304 2.9506 0
M  V30 1640 C 148.556 2.87346 3.15174 0
M  V30 1641 S 149.389 4.4835 2.92818 0
M  V30 1642 C 150.545 4.51274 4.33708 0
M  V30 1643 H 150.778 2.60397 1.43459 0
M  V30 1644 H 148.311 1.40565 0.638805 0
M  V30 1645 H 150.269 1.67103 3.74949 0
M  V30 1646 H 148.93 0.732108 3.05449 0
M  V30 1647 H 148.123 2.83849 4.16468 0
M  V30 1648 H 147.725 2.84223 2.43091 0
M  V30 1649 H 150.017 4.26136 5.26701 0
M  V30 1650 H 150.96 5.53017 4.42242 0
M  V30 1651 H 151.368 3.80738 4.16772 0
M  V30 1652 N 150.766 -0.704594 1.40972 0
M  V30 1653 C 152.012 -1.46675 1.40051 0
M  V30 1654 C 152.345 -1.94199 0.00641102 0
M  V30 1655 O 151.62 -1.68916 -0.964235 0
M  V30 1656 C 151.903 -2.68505 2.39952 0
M  V30 1657 C 151.756 -2.26805 3.88432 0
M  V30 1658 C 153.075 -3.70686 2.37233 0
M  V30 1659 H 150.194 -0.532015 0.510028 0
M  V30 1660 H 152.836 -0.803255 1.72185 0
M  V30 1661 H 150.986 -3.25114 2.1268 0
M  V30 1662 H 152.658 -1.75592 4.26574 0
M  V30 1663 H 150.901 -1.58685 4.03734 0
M  V30 1664 H 151.572 -3.14181 4.53866 0
M  V30 1665 H 154.048 -3.23731 2.61415 0
M  V30 1666 H 152.924 -4.53553 3.09162 0
M  V30 1667 H 153.185 -4.19754 1.38777 0
M  V30 1668 N 152.244 -1.26651 -0.937939 0
M  V30 1669 C 153.484 -1.13611 -1.69917 0
M  V30 1670 C 153.848 0.314687 -1.89404 0
M  V30 1671 O 155.049 0.567285 -2.62746 0
M  V30 1672 C 153.32 -1.88742 -3.03498 0
M  V30 1673 S 154.879 -1.91794 -3.94665 0
M  V30 1674 H 151.697 -0.405767 -0.583844 0
M  V30 1675 H 154.299 -1.60416 -1.11745 0
M  V30 1676 H 153.003 -2.9336 -2.86999 0
M  V30 1677 H 152.534 -1.42391 -3.66727 0
M  V30 1678 H 154.549 -1.00698 -4.85875 0
M  V30 1679 N 153.722 1.14298 -1.08507 0
M  V30 1680 C 154.999 1.81544 -0.728088 0
M  V30 1681 C 155.379 1.95838 0.78808 0
M  V30 1682 O 154.727 1.51904 1.70697 0
M  V30 1683 C 154.937 3.17169 -1.45619 0
M  V30 1684 C 156.285 3.9265 -1.61591 0
M  V30 1685 O 157.309 3.26762 -1.41793 0
M  V30 1686 O 156.168 5.10807 -1.94263 0
M  V30 1687 H 153.262 0.78491 -0.260471 0
M  V30 1688 H 155.808 1.21307 -1.18671 0
M  V30 1689 H 154.58 3.01934 -2.489 0
M  V30 1690 H 154.203 3.851 -0.989124 0
M  V30 1691 N 155.201 0.870884 1.31352 0
M  V30 1692 C 156.447 0.482987 1.96965 0
M  V30 1693 C 156.78 -0.962462 1.68672 0
M  V30 1694 O 156.055 -1.6779 0.98371 0
M  V30 1695 C 156.338 0.741752 3.52378 0
M  V30 1696 C 156.191 2.2368 3.9024 0
M  V30 1697 C 157.51 0.208838 4.39604 0
M  V30 1698 H 154.629 0.176955 0.715441 0
M  V30 1699 H 157.271 1.09229 1.55464 0
M  V30 1700 H 155.421 0.223149 3.87859 0
M  V30 1701 H 157.093 2.82273 3.64856 0
M  V30 1702 H 155.336 2.70901 3.38814 0
M  V30 1703 H 156.007 2.3685 4.98604 0
M  V30 1704 H 158.483 0.652529 4.10952 0
M  V30 1705 H 157.359 0.419336 5.47296 0
M  V30 1706 H 157.62 -0.889275 4.33064 0
M  V30 1707 N 156.679 -1.44442 0.630414 0
M  V30 1708 C 158.095 -1.56832 0.295973 0
M  V30 1709 C 158.295 -1.61806 -1.20088 0
M  V30 1710 O 157.351 -1.5607 -1.9849 0
M  V30 1711 C 158.664 -2.84031 0.987264 0
M  V30 1712 C 160.212 -2.97742 0.96534 0
M  V30 1713 C 160.687 -4.27743 1.63708 0
M  V30 1714 N 162.178 -4.34555 1.60364 0
M  V30 1715 C 162.913 -5.33862 2.09234 0
M  V30 1716 N 162.409 -6.39578 2.66292 0
M  V30 1717 N 164.202 -5.25366 1.99867 0
M  V30 1718 H 156.353 -1.39457 1.60205 0
M  V30 1719 H 158.616 -0.668237 0.672431 0
M  V30 1720 H 158.322 -2.86338 2.04215 0
M  V30 1721 H 158.196 -3.73534 0.524588 0
M  V30 1722 H 160.583 -2.94989 -0.0810639 0
M  V30 1723 H 160.664 -2.09589 1.4665 0
M  V30 1724 H 160.308 -4.31255 2.68293 0
M  V30 1725 H 160.238 -5.14752 1.11076 0
M  V30 1726 H 162.729 -3.58772 1.18705 0
M  V30 1727 H 163.042 -7.11637 3.01317 0
M  V30 1728 H 161.387 -6.40265 2.70343 0
M  V30 1729 H 164.578 -4.41688 1.55013 0
M  V30 1730 H 164.751 -6.02606 2.38265 0
M  V30 1731 N 158.157 -0.370918 -1.53173 0
M  V30 1732 C 159.568 0.107139 -1.86392 0
M  V30 1733 C 159.919 1.47714 -1.29132 0
M  V30 1734 O 159.044 2.07464 -0.615439 0
M  V30 1735 C 159.639 0.201187 -3.38202 0
M  V30 1736 C 158.198 0.623507 -3.712 0
M  V30 1737 C 157.345 -0.225978 -2.76378 0
M  V30 1738 H 160.296 -0.58951 -1.47345 0
M  V30 1739 H 160.317 1.02377 -3.66468 0
M  V30 1740 H 159.829 -0.796058 -3.79848 0
M  V30 1741 H 157.93 1.62879 -3.35114 0
M  V30 1742 H 158.043 0.394414 -4.77474 0
M  V30 1743 H 156.407 0.305962 -2.52856 0
M  V30 1744 H 157.19 -1.22086 -3.20858 0
M  V30 1745 N 159.635 1.57281 -0.100228 0
M  V30 1746 C 160.567 2.11342 0.886972 0
M  V30 1747 C 161.58 1.05182 1.24261 0
M  V30 1748 O 162.769 1.32613 1.19483 0
M  V30 1749 C 159.869 2.5825 2.19454 0
M  V30 1750 C 159.042 3.88302 2.01346 0
M  V30 1751 C 158.101 4.21004 3.15661 0
M  V30 1752 O 157.127 4.9014 2.89398 0
M  V30 1753 N 158.329 3.76818 4.41575 0
M  V30 1754 H 161.094 2.96668 0.425216 0
M  V30 1755 H 158.655 1.61678 0.0847334 0
M  V30 1756 H 160.647 2.7717 2.94888 0
M  V30 1757 H 159.217 1.77907 2.57037 0
M  V30 1758 H 158.437 3.7848 1.10212 0
M  V30 1759 H 159.725 4.73375 1.8653 0
M  V30 1760 H 159.123 3.2102 4.65792 0
M  V30 1761 H 157.68 4.00882 5.13942 0
M  V30 1762 N 161.113 -0.173488 1.56642 0
M  V30 1763 C 162.359 -0.891784 1.8214 0
M  V30 1764 C 162.692 -1.8199 0.677736 0
M  V30 1765 O 161.967 -1.91842 -0.320446 0
M  V30 1766 C 162.25 -1.68933 3.18015 0
M  V30 1767 C 162.103 -0.784487 4.42906 0
M  V30 1768 C 163.422 -2.65748 3.50808 0
M  V30 1769 H 160.541 -0.322761 0.662567 0
M  V30 1770 H 163.183 -0.158095 1.89341 0
M  V30 1771 H 161.333 -2.31482 3.12007 0
M  V30 1772 H 163.005 -0.172046 4.60979 0
M  V30 1773 H 161.248 -0.0924117 4.33702 0
M  V30 1774 H 161.919 -1.37799 5.34524 0
M  V30 1775 H 164.395 -2.13327 3.57255 0
M  V30 1776 H 163.271 -3.18619 4.4696 0
M  V30 1777 H 163.532 -3.45842 2.75401 0
M  V30 1778 N 162.591 -1.51276 -0.441967 0
M  V30 1779 C 163.541 -1.6864 -1.53442 0
M  V30 1780 C 164.525 -0.540444 -1.51552 0
M  V30 1781 O 165.717 -0.796157 -1.58083 0
M  V30 1782 C 162.846 -1.8106 -2.91672 0
M  V30 1783 C 161.932 -3.01424 -2.98336 0
M  V30 1784 N 162.323 -4.2467 -2.74752 0
M  V30 1785 C 160.621 -3.00584 -3.29493 0
M  V30 1786 C 161.322 -5.05891 -2.87139 0
M  V30 1787 N 160.298 -4.40442 -3.18609 0
M  V30 1788 H 164.1 -2.61598 -1.33954 0
M  V30 1789 H 161.614 -1.4886 -0.6492 0
M  V30 1790 H 163.611 -1.91609 -3.70259 0
M  V30 1791 H 162.271 -0.892795 -3.12185 0
M  V30 1792 H 163.282 -4.53691 -2.49769 0
M  V30 1793 H 159.959 -2.18417 -3.55809 0
M  V30 1794 H 161.349 -6.13983 -2.72899 0
M  V30 1795 N 164.069 0.697108 -1.41344 0
M  V30 1796 C 165.48 1.27697 -1.36199 0
M  V30 1797 C 165.831 1.9615 -0.0443463 0
M  V30 1798 O 164.956 1.98689 0.857419 0
M  V30 1799 C 165.551 2.32223 -2.46694 0
M  V30 1800 C 164.11 2.8579 -2.44952 0
M  V30 1801 C 163.257 1.59807 -2.26621 0
M  V30 1802 H 166.208 0.491968 -1.50882 0
M  V30 1803 H 166.229 3.1348 -2.15664 0
M  V30 1804 H 165.741 1.82373 -3.42581 0
M  V30 1805 H 163.842 3.3982 -1.52817 0
M  V30 1806 H 163.955 3.36325 -3.41207 0
M  V30 1807 H 162.319 1.8556 -1.7447 0
M  V30 1808 H 163.102 1.11956 -3.24532 0
M  V30 1809 N 165.547 1.27147 0.931209 0
M  V30 1810 C 166.495 1.09398 2.05268 0
M  V30 1811 C 167.489 0.0180591 1.6939 0
M  V30 1812 O 168.695 0.17551 1.79142 0
M  V30 1813 H 165.07 0.336986 0.672268 0
M  V30 1814 H 167.041 2.04416 2.17386 0
M  V30 1815 C 165.79 0.75424 3.39421 0
M  V30 1816 H 165.113 1.57404 3.67511 0
M  V30 1817 H 166.553 0.669903 4.18674 0
M  V30 1818 C 165.012 -0.541197 3.32525 0
M  V30 1819 O 165.542 -1.57664 3.69466 0
M  V30 1820 N 163.748 -0.535517 2.85623 0
M  V30 1821 H 163.295 0.307511 2.55758 0
M  V30 1822 H 163.253 -1.40236 2.81392 0
M  V30 1823 N 167.025 -1.13721 1.09112 0
M  V30 1824 C 168.255 -1.88499 0.845671 0
M  V30 1825 C 168.663 -1.79218 -0.606432 0
M  V30 1826 O 168.006 -1.1544 -1.42896 0
M  V30 1827 C 168.068 -3.38954 1.19793 0
M  V30 1828 C 167.732 -3.72018 2.65428 0
M  V30 1829 C 168.729 -3.7153 3.63677 0
M  V30 1830 C 166.414 -4.01775 3.01467 0
M  V30 1831 C 168.408 -4.00336 4.95994 0
M  V30 1832 C 166.095 -4.30243 4.33975 0
M  V30 1833 C 167.093 -4.29508 5.31048 0
M  V30 1834 O 166.781 -4.5728 6.61173 0
M  V30 1835 H 166.513 -0.603702 0.304171 0
M  V30 1836 H 169.067 -1.44903 1.45576 0
M  V30 1837 H 167.297 -3.83039 0.530871 0
M  V30 1838 H 168.986 -3.95052 0.932146 0
M  V30 1839 H 169.752 -3.4862 3.37179 0
M  V30 1840 H 165.631 -4.01496 2.26544 0
M  V30 1841 H 169.175 -3.99678 5.71755 0
M  V30 1842 H 165.072 -4.52625 4.60219 0
M  V30 1843 H 165.84 -4.74964 6.66597 0
M  V30 1844 N 168.503 -0.877838 -1.30888 0
M  V30 1845 C 169.919 -0.570844 -1.49042 0
M  V30 1846 C 170.119 0.893159 -1.80624 0
M  V30 1847 O 169.175 1.67485 -1.88958 0
M  V30 1848 C 170.488 -1.47784 -2.61878 0
M  V30 1849 C 172.036 -1.48071 -2.75761 0
M  V30 1850 C 172.511 -2.37347 -3.91702 0
M  V30 1851 N 174.002 -2.35271 -3.99001 0
M  V30 1852 C 174.737 -3.01063 -4.88004 0
M  V30 1853 N 174.233 -3.76055 -5.81854 0
M  V30 1854 N 176.026 -2.90332 -4.81315 0
M  V30 1855 H 168.177 -1.82502 -1.0866 0
M  V30 1856 H 170.44 -0.780797 -0.537644 0
M  V30 1857 H 170.146 -2.51993 -2.45341 0
M  V30 1858 H 170.02 -1.18215 -3.58197 0
M  V30 1859 H 172.407 -0.446166 -2.91708 0
M  V30 1860 H 172.488 -1.81668 -1.80085 0
M  V30 1861 H 172.132 -3.40883 -3.76512 0
M  V30 1862 H 172.062 -2.01071 -4.86701 0
M  V30 1863 H 174.553 -1.80768 -3.3186 0
M  V30 1864 H 174.866 -4.23366 -6.46514 0
M  V30 1865 H 173.211 -3.80163 -5.81808 0
M  V30 1866 H 176.402 -2.31278 -4.06974 0
M  V30 1867 H 176.575 -3.41885 -5.50471 0
M  V30 1868 N 169.982 1.44106 -0.638065 0
M  V30 1869 C 171.231 2.01194 -0.142744 0
M  V30 1870 C 171.544 1.50835 1.24532 0
M  V30 1871 O 172.75 2.00096 1.83504 0
M  V30 1872 C 171.206 3.59319 -0.20442 0
M  V30 1873 C 170.814 4.18674 -1.59423 0
M  V30 1874 C 172.558 4.23854 0.234079 0
M  V30 1875 C 170.465 5.69045 -1.61065 0
M  V30 1876 H 169.395 0.752367 -0.0495998 0
M  V30 1877 H 172.046 1.65246 -0.797881 0
M  V30 1878 H 170.428 3.92598 0.517946 0
M  V30 1879 H 171.602 3.96921 -2.34074 0
M  V30 1880 H 169.917 3.66453 -1.97741 0
M  V30 1881 H 172.514 5.34155 0.241443 0
M  V30 1882 H 172.857 3.96688 1.2627 0
M  V30 1883 H 173.39 3.95403 -0.436025 0
M  V30 1884 H 170.129 6.00956 -2.61787 0
M  V30 1885 H 169.649 5.929 -0.90718 0
M  V30 1886 H 171.328 6.32809 -1.34766 0
M  V30 1887 N 171.46 0.379036 1.52974 0
M  V30 1888 C 172.685 -0.209353 2.06341 0
M  V30 1889 C 173.11 -1.40583 1.24972 0
M  V30 1890 O 172.468 -1.79246 0.272155 0
M  V30 1891 C 172.516 -0.567786 3.56102 0
M  V30 1892 O 171.62 -1.66318 3.77375 0
M  V30 1893 H 170.961 -0.0272919 0.663439 0
M  V30 1894 H 173.491 0.543536 1.97248 0
M  V30 1895 H 173.501 -0.835003 3.99364 0
M  V30 1896 H 172.176 0.307013 4.14765 0
M  V30 1897 H 170.753 -1.39048 3.46006 0
M  V30 1898 N 172.938 -1.57226 0.108567 0
M  V30 1899 C 173.901 -2.13602 -0.831082 0
M  V30 1900 C 174.901 -1.06841 -1.20173 0
M  V30 1901 O 176.091 -1.32666 -1.12895 0
M  V30 1902 C 173.223 -2.66769 -2.12243 0
M  V30 1903 H 174.416 -2.97951 -0.341317 0
M  V30 1904 H 171.969 -1.55667 -0.14057 0
M  V30 1905 H 172.704 -1.85977 -2.65675 0
M  V30 1906 H 172.489 -3.44839 -1.86625 0
M  V30 1907 H 173.979 -3.10332 -2.79435 0
M  V30 1908 O 174.455 0.0311049 -1.6147 0
M  V30 1909 H 175.146 0.651916 -1.824 0
M  V30 END ATOM
M  V30 BEGIN BOND
M  V30 END BOND
M  V30 END CTAB
M  END
$$$$
